# generated using pymatgen
data_K2V2P4O15
_symmetry_space_group_name_H-M   'P 1'
_cell_length_a   9.66064600
_cell_length_b   11.67149700
_cell_length_c   22.40730000
_cell_angle_alpha   90.00000000
_cell_angle_beta   90.00000000
_cell_angle_gamma   90.00000000
_symmetry_Int_Tables_number   1
_chemical_formula_structural   K2V2P4O15
_chemical_formula_sum   'K16 V16 P32 O120'
_cell_volume   2526.51720374
_cell_formula_units_Z   8
loop_
 _symmetry_equiv_pos_site_id
 _symmetry_equiv_pos_as_xyz
  1  'x, y, z'
loop_
 _atom_site_type_symbol
 _atom_site_label
 _atom_site_symmetry_multiplicity
 _atom_site_fract_x
 _atom_site_fract_y
 _atom_site_fract_z
 _atom_site_occupancy
  K  K0  1  0.06586100  0.34603200  0.43830700  1
  K  K1  1  0.56586100  0.65396800  0.06169300  1
  K  K2  1  0.93413900  0.65396800  0.56169300  1
  K  K3  1  0.03637400  0.80024800  0.86500300  1
  K  K4  1  0.56586100  0.15396800  0.43830700  1
  K  K5  1  0.46362600  0.30024800  0.13499700  1
  K  K6  1  0.43413900  0.84603200  0.56169300  1
  K  K7  1  0.53637400  0.19975200  0.63499700  1
  K  K8  1  0.03637400  0.30024800  0.63499700  1
  K  K9  1  0.06586100  0.84603200  0.06169300  1
  K  K10  1  0.93413900  0.15396800  0.93830700  1
  K  K11  1  0.53637400  0.69975200  0.86500300  1
  K  K12  1  0.46362600  0.80024800  0.36500300  1
  K  K13  1  0.43413900  0.34603200  0.93830700  1
  K  K14  1  0.96362600  0.19975200  0.13499700  1
  K  K15  1  0.96362600  0.69975200  0.36500300  1
  V  V0  1  0.75788200  0.88048000  0.46961300  1
  V  V1  1  0.25788200  0.61952000  0.46961300  1
  V  V2  1  0.01671200  0.56803800  0.72493100  1
  V  V3  1  0.48328800  0.06803800  0.27506900  1
  V  V4  1  0.24211800  0.61952000  0.96961300  1
  V  V5  1  0.25788200  0.11952000  0.03038700  1
  V  V6  1  0.51671200  0.93196200  0.72493100  1
  V  V7  1  0.98328800  0.43196200  0.27506900  1
  V  V8  1  0.74211800  0.38048000  0.53038700  1
  V  V9  1  0.75788200  0.38048000  0.03038700  1
  V  V10  1  0.01671200  0.06803800  0.77506900  1
  V  V11  1  0.48328800  0.56803800  0.22493100  1
  V  V12  1  0.51671200  0.43196200  0.77506900  1
  V  V13  1  0.98328800  0.93196200  0.22493100  1
  V  V14  1  0.24211800  0.11952000  0.53038700  1
  V  V15  1  0.74211800  0.88048000  0.96961300  1
  P  P0  1  0.71949800  0.94017700  0.11301900  1
  P  P1  1  0.12524300  0.38051700  0.02994900  1
  P  P2  1  0.21949800  0.55982300  0.11301900  1
  P  P3  1  0.48058200  0.34891600  0.30833400  1
  P  P4  1  0.37475700  0.88051700  0.97005100  1
  P  P5  1  0.27015900  0.52703400  0.33212200  1
  P  P6  1  0.28050200  0.05982300  0.88698100  1
  P  P7  1  0.22984100  0.02703400  0.66787800  1
  P  P8  1  0.87475700  0.11948300  0.52994900  1
  P  P9  1  0.71949800  0.44017700  0.38698100  1
  P  P10  1  0.12524300  0.88051700  0.47005100  1
  P  P11  1  0.77015900  0.47296600  0.16787800  1
  P  P12  1  0.78050200  0.44017700  0.88698100  1
  P  P13  1  0.72984100  0.47296600  0.66787800  1
  P  P14  1  0.87475700  0.61948300  0.97005100  1
  P  P15  1  0.21949800  0.05982300  0.38698100  1
  P  P16  1  0.51941800  0.65108400  0.69166600  1
  P  P17  1  0.72984100  0.97296600  0.83212200  1
  P  P18  1  0.37475700  0.38051700  0.52994900  1
  P  P19  1  0.27015900  0.02703400  0.16787800  1
  P  P20  1  0.22984100  0.52703400  0.83212200  1
  P  P21  1  0.98058200  0.15108400  0.30833400  1
  P  P22  1  0.01941800  0.34891600  0.80833400  1
  P  P23  1  0.77015900  0.97296600  0.33212200  1
  P  P24  1  0.62524300  0.11948300  0.02994900  1
  P  P25  1  0.98058200  0.65108400  0.19166600  1
  P  P26  1  0.62524300  0.61948300  0.47005100  1
  P  P27  1  0.48058200  0.84891600  0.19166600  1
  P  P28  1  0.78050200  0.94017700  0.61301900  1
  P  P29  1  0.01941800  0.84891600  0.69166600  1
  P  P30  1  0.28050200  0.55982300  0.61301900  1
  P  P31  1  0.51941800  0.15108400  0.80833400  1
  O  O0  1  0.87427900  0.86961400  0.65905400  1
  O  O1  1  0.62559100  0.52543200  0.16233100  1
  O  O2  1  0.01771600  0.67111300  0.97609200  1
  O  O3  1  0.55192300  0.27635600  0.81610300  1
  O  O4  1  0.44807700  0.22364400  0.31610300  1
  O  O5  1  0.16744800  0.96125600  0.52076500  1
  O  O6  1  0.90548700  0.41440900  0.53612200  1
  O  O7  1  0.70248100  0.88443200  0.88112000  1
  O  O8  1  0.37427900  0.63038600  0.65905400  1
  O  O9  1  0.62572100  0.86961400  0.15905400  1
  O  O10  1  0.87469800  0.58019600  0.15212900  1
  O  O11  1  0.01420200  0.89614100  0.75457400  1
  O  O12  1  0.37469800  0.91980400  0.15212900  1
  O  O13  1  0.48228400  0.67111300  0.47609200  1
  O  O14  1  0.75617800  0.35804600  0.93925000  1
  O  O15  1  0.05192300  0.22364400  0.81610300  1
  O  O16  1  0.62559100  0.02543200  0.33766900  1
  O  O17  1  0.19495600  0.07359000  0.72942900  1
  O  O18  1  0.59451300  0.91440900  0.46387800  1
  O  O19  1  0.83255200  0.53874400  0.02076500  1
  O  O20  1  0.34493000  0.51577200  0.14465600  1
  O  O21  1  0.15507000  0.51577200  0.64465600  1
  O  O22  1  0.58366800  0.61769800  0.27650400  1
  O  O23  1  0.26030200  0.29143400  0.54138800  1
  O  O24  1  0.48228400  0.17111300  0.02390800  1
  O  O25  1  0.40548700  0.08559100  0.53612200  1
  O  O26  1  0.16744800  0.46125600  0.97923500  1
  O  O27  1  0.19495600  0.57359000  0.77057100  1
  O  O28  1  0.70248100  0.38443200  0.61888000  1
  O  O29  1  0.91633200  0.61769800  0.77650400  1
  O  O30  1  0.51771600  0.82888700  0.97609200  1
  O  O31  1  0.91633200  0.11769800  0.72349600  1
  O  O32  1  0.26030200  0.79143400  0.95861200  1
  O  O33  1  0.87469800  0.08019600  0.34787100  1
  O  O34  1  0.48579800  0.39614100  0.24542600  1
  O  O35  1  0.76030200  0.20856600  0.54138800  1
  O  O36  1  0.37951700  0.45765300  0.59185800  1
  O  O37  1  0.30504400  0.57359000  0.27057100  1
  O  O38  1  0.01771600  0.17111300  0.52390800  1
  O  O39  1  0.98579800  0.60385900  0.25457400  1
  O  O40  1  0.66744800  0.03874400  0.97923500  1
  O  O41  1  0.98579800  0.10385900  0.24542600  1
  O  O42  1  0.30504400  0.07359000  0.22942900  1
  O  O43  1  0.59451300  0.41440900  0.03612200  1
  O  O44  1  0.12530200  0.41980400  0.84787100  1
  O  O45  1  0.01420200  0.39614100  0.74542600  1
  O  O46  1  0.62048300  0.04234700  0.09185800  1
  O  O47  1  0.58366800  0.11769800  0.22349600  1
  O  O48  1  0.12572100  0.63038600  0.15905400  1
  O  O49  1  0.25617800  0.14195400  0.93925000  1
  O  O50  1  0.48579800  0.89614100  0.25457400  1
  O  O51  1  0.73969800  0.70856600  0.45861200  1
  O  O52  1  0.29751900  0.11556800  0.11888000  1
  O  O53  1  0.62530200  0.08019600  0.84787100  1
  O  O54  1  0.79751900  0.38443200  0.11888000  1
  O  O55  1  0.73969800  0.20856600  0.04138800  1
  O  O56  1  0.08366800  0.38230200  0.22349600  1
  O  O57  1  0.20248100  0.11556800  0.61888000  1
  O  O58  1  0.37951700  0.95765300  0.90814200  1
  O  O59  1  0.87951700  0.04234700  0.59185800  1
  O  O60  1  0.94807700  0.27635600  0.31610300  1
  O  O61  1  0.23969800  0.29143400  0.04138800  1
  O  O62  1  0.12530200  0.91980400  0.65212900  1
  O  O63  1  0.37427900  0.13038600  0.84094600  1
  O  O64  1  0.74382200  0.85804600  0.06075000  1
  O  O65  1  0.76030200  0.70856600  0.95861200  1
  O  O66  1  0.33255200  0.96125600  0.02076500  1
  O  O67  1  0.37440900  0.47456800  0.83766900  1
  O  O68  1  0.33255200  0.46125600  0.47923500  1
  O  O69  1  0.40548700  0.58559100  0.96387800  1
  O  O70  1  0.34493000  0.01577200  0.35534400  1
  O  O71  1  0.62530200  0.58019600  0.65212900  1
  O  O72  1  0.84493000  0.98422800  0.14465600  1
  O  O73  1  0.44807700  0.72364400  0.18389700  1
  O  O74  1  0.65507000  0.98422800  0.64465600  1
  O  O75  1  0.87951700  0.54234700  0.90814200  1
  O  O76  1  0.41633200  0.88230200  0.77650400  1
  O  O77  1  0.05192300  0.72364400  0.68389700  1
  O  O78  1  0.09451300  0.08559100  0.03612200  1
  O  O79  1  0.37469800  0.41980400  0.34787100  1
  O  O80  1  0.12048300  0.45765300  0.09185800  1
  O  O81  1  0.84493000  0.48422800  0.35534400  1
  O  O82  1  0.62048300  0.54234700  0.40814200  1
  O  O83  1  0.74382200  0.35804600  0.43925000  1
  O  O84  1  0.20248100  0.61556800  0.88112000  1
  O  O85  1  0.12572100  0.13038600  0.34094600  1
  O  O86  1  0.87427900  0.36961400  0.84094600  1
  O  O87  1  0.69495600  0.42641000  0.72942900  1
  O  O88  1  0.41633200  0.38230200  0.72349600  1
  O  O89  1  0.15507000  0.01577200  0.85534400  1
  O  O90  1  0.83255200  0.03874400  0.47923500  1
  O  O91  1  0.94807700  0.77635600  0.18389700  1
  O  O92  1  0.87440900  0.02543200  0.83766900  1
  O  O93  1  0.62572100  0.36961400  0.34094600  1
  O  O94  1  0.98228400  0.32888700  0.02390800  1
  O  O95  1  0.98228400  0.82888700  0.47609200  1
  O  O96  1  0.75617800  0.85804600  0.56075000  1
  O  O97  1  0.23969800  0.79143400  0.45861200  1
  O  O98  1  0.51420200  0.10385900  0.74542600  1
  O  O99  1  0.80504400  0.42641000  0.22942900  1
  O  O100  1  0.69495600  0.92641000  0.77057100  1
  O  O101  1  0.08366800  0.88230200  0.27650400  1
  O  O102  1  0.65507000  0.48422800  0.85534400  1
  O  O103  1  0.66744800  0.53874400  0.52076500  1
  O  O104  1  0.24382200  0.14195400  0.43925000  1
  O  O105  1  0.51771600  0.32888700  0.52390800  1
  O  O106  1  0.51420200  0.60385900  0.75457400  1
  O  O107  1  0.12048300  0.95765300  0.40814200  1
  O  O108  1  0.12559100  0.97456800  0.16233100  1
  O  O109  1  0.90548700  0.91440900  0.96387800  1
  O  O110  1  0.87440900  0.52543200  0.66233100  1
  O  O111  1  0.29751900  0.61556800  0.38112000  1
  O  O112  1  0.79751900  0.88443200  0.38112000  1
  O  O113  1  0.25617800  0.64195400  0.56075000  1
  O  O114  1  0.09451300  0.58559100  0.46387800  1
  O  O115  1  0.24382200  0.64195400  0.06075000  1
  O  O116  1  0.55192300  0.77635600  0.68389700  1
  O  O117  1  0.37440900  0.97456800  0.66233100  1
  O  O118  1  0.12559100  0.47456800  0.33766900  1
  O  O119  1  0.80504400  0.92641000  0.27057100  1
loop_
_geom_bond_atom_site_label_1
_geom_bond_atom_site_label_2
_geom_bond_distance
_geom_bond_site_symmetry_2
K0 O118 2.769247 1_555
K0 O6 2.800204 1_455
K0 O38 2.839609 1_555
K0 O114 2.867508 1_555
K0 O104 2.937616 1_555
K0 O23 3.044599 1_555
K0 O68 3.047541 1_555
K0 O60 3.074761 1_455
K0 O83 3.114335 1_455
K0 O81 3.257730 1_455
K0 O85 3.380625 1_555
K1 O1 2.769247 1_555
K1 O69 2.800204 1_554
K1 O30 2.839609 1_554
K1 O43 2.867508 1_555
K1 O64 2.937616 1_555
K1 O65 3.044599 1_554
K1 O19 3.047541 1_555
K1 O73 3.074761 1_555
K1 O115 3.114335 1_555
K1 O20 3.257730 1_555
K1 O9 3.380625 1_555
K2 O110 2.769247 1_555
K2 O114 2.800204 1_655
K2 O95 2.839609 1_555
K2 O6 2.867508 1_555
K2 O96 2.937616 1_555
K2 O51 3.044599 1_555
K2 O103 3.047541 1_555
K2 O77 3.074761 1_655
K2 O113 3.114335 1_655
K2 O21 3.257730 1_655
K2 O0 3.380625 1_555
K3 O84 2.711389 1_555
K3 O11 2.724198 1_555
K3 O89 2.772976 1_565
K3 O109 2.877976 1_455
K3 O2 2.915523 1_555
K3 O32 3.014965 1_555
K3 O92 3.119454 1_465
K3 O29 3.133184 1_455
K4 O16 2.769247 1_555
K4 O25 2.800204 1_555
K4 O105 2.839609 1_555
K4 O18 2.867508 1_545
K4 O83 2.937616 1_555
K4 O35 3.044599 1_555
K4 O90 3.047541 1_555
K4 O4 3.074761 1_555
K4 O104 3.114335 1_555
K4 O70 3.257730 1_555
K4 O93 3.380625 1_555
K5 O52 2.711389 1_555
K5 O34 2.724198 1_555
K5 O20 2.772976 1_555
K5 O43 2.877976 1_555
K5 O24 2.915523 1_555
K5 O61 3.014965 1_555
K5 O1 3.119454 1_555
K5 O47 3.133184 1_555
K6 O117 2.769247 1_555
K6 O18 2.800204 1_555
K6 O13 2.839609 1_555
K6 O25 2.867508 1_565
K6 O113 2.937616 1_555
K6 O97 3.044599 1_555
K6 O5 3.047541 1_555
K6 O116 3.074761 1_555
K6 O96 3.114335 1_555
K6 O74 3.257730 1_555
K6 O8 3.380625 1_555
K7 O28 2.711389 1_555
K7 O98 2.724198 1_555
K7 O74 2.772976 1_545
K7 O25 2.877976 1_555
K7 O105 2.915523 1_555
K7 O35 3.014965 1_555
K7 O117 3.119454 1_545
K7 O88 3.133184 1_555
K8 O57 2.711389 1_555
K8 O45 2.724198 1_555
K8 O21 2.772976 1_555
K8 O6 2.877976 1_455
K8 O38 2.915523 1_555
K8 O23 3.014965 1_555
K8 O110 3.119454 1_455
K8 O31 3.133184 1_455
K9 O108 2.769247 1_555
K9 O109 2.800204 1_454
K9 O2 2.839609 1_554
K9 O78 2.867508 1_565
K9 O115 2.937616 1_555
K9 O32 3.044599 1_554
K9 O66 3.047541 1_555
K9 O91 3.074761 1_455
K9 O64 3.114335 1_455
K9 O72 3.257730 1_455
K9 O48 3.380625 1_555
K10 O92 2.769247 1_555
K10 O78 2.800204 1_656
K10 O94 2.839609 1_556
K10 O109 2.867508 1_545
K10 O14 2.937616 1_555
K10 O55 3.044599 1_556
K10 O40 3.047541 1_555
K10 O15 3.074761 1_655
K10 O49 3.114335 1_655
K10 O89 3.257730 1_655
K10 O86 3.380625 1_555
K11 O7 2.711389 1_555
K11 O106 2.724198 1_555
K11 O102 2.772976 1_555
K11 O69 2.877976 1_555
K11 O30 2.915523 1_555
K11 O65 3.014965 1_555
K11 O67 3.119454 1_555
K11 O76 3.133184 1_555
K12 O111 2.711389 1_555
K12 O50 2.724198 1_555
K12 O70 2.772976 1_565
K12 O18 2.877976 1_555
K12 O13 2.915523 1_555
K12 O97 3.014965 1_555
K12 O16 3.119454 1_565
K12 O22 3.133184 1_555
K13 O67 2.769247 1_555
K13 O43 2.800204 1_556
K13 O24 2.839609 1_556
K13 O69 2.867508 1_555
K13 O49 2.937616 1_555
K13 O61 3.044599 1_556
K13 O26 3.047541 1_555
K13 O3 3.074761 1_555
K13 O14 3.114335 1_555
K13 O102 3.257730 1_555
K13 O63 3.380625 1_555
K14 O54 2.711389 1_555
K14 O41 2.724198 1_555
K14 O72 2.772976 1_545
K14 O78 2.877976 1_655
K14 O94 2.915523 1_555
K14 O55 3.014965 1_555
K14 O108 3.119454 1_645
K14 O56 3.133184 1_655
K15 O112 2.711389 1_555
K15 O39 2.724198 1_555
K15 O81 2.772976 1_555
K15 O114 2.877976 1_655
K15 O95 2.915523 1_555
K15 O51 3.014965 1_555
K15 O118 3.119454 1_655
K15 O101 3.133184 1_655
O0 P29 1.599480 1_655
O0 P28 1.600953 1_555
O1 P11 1.530025 1_555
O1 V11 2.026018 1_555
O2 P14 1.512885 1_455
O2 V4 2.254625 1_555
O3 P31 1.505551 1_555
O3 V12 2.063865 1_555
O4 P3 1.505551 1_555
O4 V3 2.063865 1_555
O5 P10 1.531528 1_555
O5 V14 1.994721 1_565
O6 V8 1.632239 1_555
O7 P17 1.530697 1_555
O7 V15 2.020051 1_555
O8 P16 1.599480 1_555
O8 P30 1.600953 1_555
O9 P27 1.599480 1_555
O9 P0 1.600953 1_555
O10 P25 1.586105 1_555
O10 P11 1.646450 1_555
O11 P29 1.514369 1_555
O11 V10 2.058327 1_565
O12 P27 1.586105 1_555
O12 P19 1.646450 1_565
O13 P26 1.512885 1_555
O13 V1 2.254625 1_555
O14 P12 1.531614 1_555
O14 V9 2.058918 1_556
O15 P22 1.505551 1_555
O15 V10 2.063865 1_555
O16 P23 1.530025 1_545
O16 V3 2.026018 1_555
O17 P7 1.520200 1_555
O17 V10 2.003789 1_555
O18 V0 1.632239 1_555
O19 P14 1.531528 1_554
O19 V9 1.994721 1_555
O20 P2 1.495068 1_555
O20 V11 2.322539 1_555
O21 P30 1.495068 1_555
O21 V2 2.322539 1_555
O22 V11 1.616097 1_555
O23 P18 1.539264 1_555
O23 V14 2.029197 1_555
O24 P24 1.512885 1_555
O24 V5 2.254625 1_555
O25 V14 1.632239 1_555
O26 P1 1.531528 1_556
O26 V4 1.994721 1_555
O27 P20 1.520200 1_555
O27 V2 2.003789 1_555
O28 P13 1.530697 1_555
O28 V8 2.020051 1_555
O29 V2 1.616097 1_655
O30 P4 1.512885 1_555
O30 V15 2.254625 1_555
O31 V10 1.616097 1_655
O32 P4 1.539264 1_555
O32 V4 2.029197 1_555
O33 P21 1.586105 1_555
O33 P23 1.646450 1_545
O34 P3 1.514369 1_555
O34 V11 2.058327 1_555
O35 P8 1.539264 1_555
O35 V8 2.029197 1_555
O36 P30 1.600567 1_555
O36 P18 1.654389 1_555
O37 P5 1.520200 1_555
O37 V11 2.003789 1_555
O38 P8 1.512885 1_455
O38 V14 2.254625 1_555
O39 P25 1.514369 1_555
O39 V7 2.058327 1_555
O40 P24 1.531528 1_556
O40 V15 1.994721 1_545
O41 P21 1.514369 1_555
O41 V13 2.058327 1_545
O42 P19 1.520200 1_555
O42 V3 2.003789 1_555
O43 V9 1.632239 1_555
O44 P22 1.586105 1_555
O44 P20 1.646450 1_555
O45 P22 1.514369 1_555
O45 V2 2.058327 1_555
O46 P0 1.600567 1_545
O46 P24 1.654389 1_555
O47 V3 1.616097 1_555
O48 P25 1.599480 1_455
O48 P2 1.600953 1_555
O49 P6 1.531614 1_555
O49 V5 2.058918 1_556
O50 P27 1.514369 1_555
O50 V3 2.058327 1_565
O51 P26 1.539264 1_555
O51 V0 2.029197 1_555
O52 P19 1.530697 1_555
O52 V5 2.020051 1_555
O53 P31 1.586105 1_555
O53 P17 1.646450 1_545
O54 P11 1.530697 1_555
O54 V9 2.020051 1_555
O55 P24 1.539264 1_555
O55 V9 2.029197 1_555
O56 V7 1.616097 1_455
O57 P7 1.530697 1_555
O57 V14 2.020051 1_555
O58 P6 1.600567 1_565
O58 P4 1.654389 1_555
O59 P28 1.600567 1_545
O59 P8 1.654389 1_555
O60 P21 1.505551 1_555
O60 V7 2.063865 1_555
O61 P1 1.539264 1_555
O61 V5 2.029197 1_555
O62 P29 1.586105 1_555
O62 P7 1.646450 1_565
O63 P31 1.599480 1_555
O63 P6 1.600953 1_555
O64 P0 1.531614 1_555
O64 V15 2.058918 1_554
O65 P14 1.539264 1_555
O65 V15 2.029197 1_555
O66 P4 1.531528 1_554
O66 V5 1.994721 1_565
O67 P20 1.530025 1_555
O67 V12 2.026018 1_555
O68 P18 1.531528 1_555
O68 V1 1.994721 1_555
O69 V4 1.632239 1_555
O70 P15 1.495068 1_555
O70 V3 2.322539 1_555
O71 P16 1.586105 1_555
O71 P13 1.646450 1_555
O72 P0 1.495068 1_555
O72 V13 2.322539 1_555
O73 P27 1.505551 1_555
O73 V11 2.063865 1_555
O74 P28 1.495068 1_555
O74 V6 2.322539 1_555
O75 P12 1.600567 1_555
O75 P14 1.654389 1_555
O76 V6 1.616097 1_555
O77 P29 1.505551 1_555
O77 V2 2.063865 1_555
O78 V5 1.632239 1_555
O79 P3 1.586105 1_555
O79 P5 1.646450 1_555
O80 P2 1.600567 1_555
O80 P1 1.654389 1_555
O81 P9 1.495068 1_555
O81 V7 2.322539 1_555
O82 P9 1.600567 1_555
O82 P26 1.654389 1_555
O83 P9 1.531614 1_555
O83 V8 2.058918 1_555
O84 P20 1.530697 1_555
O84 V4 2.020051 1_555
O85 P21 1.599480 1_455
O85 P15 1.600953 1_555
O86 P22 1.599480 1_655
O86 P12 1.600953 1_555
O87 P13 1.520200 1_555
O87 V12 2.003789 1_555
O88 V12 1.616097 1_555
O89 P6 1.495068 1_555
O89 V10 2.322539 1_555
O90 P8 1.531528 1_555
O90 V0 1.994721 1_545
O91 P25 1.505551 1_555
O91 V13 2.063865 1_555
O92 P17 1.530025 1_545
O92 V10 2.026018 1_655
O93 P3 1.599480 1_555
O93 P9 1.600953 1_555
O94 P1 1.512885 1_655
O94 V9 2.254625 1_555
O95 P10 1.512885 1_655
O95 V0 2.254625 1_555
O96 P28 1.531614 1_555
O96 V0 2.058918 1_555
O97 P10 1.539264 1_555
O97 V1 2.029197 1_555
O98 P31 1.514369 1_555
O98 V6 2.058327 1_545
O99 P11 1.520200 1_555
O99 V7 2.003789 1_555
O100 P17 1.520200 1_555
O100 V6 2.003789 1_555
O101 V13 1.616097 1_455
O102 P12 1.495068 1_555
O102 V12 2.322539 1_555
O103 P26 1.531528 1_555
O103 V8 1.994721 1_555
O104 P15 1.531614 1_555
O104 V14 2.058918 1_555
O105 P18 1.512885 1_555
O105 V8 2.254625 1_555
O106 P16 1.514369 1_555
O106 V12 2.058327 1_555
O107 P15 1.600567 1_565
O107 P10 1.654389 1_555
O108 P19 1.530025 1_565
O108 V13 2.026018 1_455
O109 V15 1.632239 1_555
O110 P13 1.530025 1_555
O110 V2 2.026018 1_655
O111 P5 1.530697 1_555
O111 V1 2.020051 1_555
O112 P23 1.530697 1_555
O112 V0 2.020051 1_555
O113 P30 1.531614 1_555
O113 V1 2.058918 1_555
O114 V1 1.632239 1_555
O115 P2 1.531614 1_555
O115 V4 2.058918 1_554
O116 P16 1.505551 1_555
O116 V6 2.063865 1_555
O117 P7 1.530025 1_565
O117 V6 2.026018 1_555
O118 P5 1.530025 1_555
O118 V7 2.026018 1_455
O119 P23 1.520200 1_555
O119 V13 2.003789 1_555
