# generated using pymatgen
data_LiVO2
_symmetry_space_group_name_H-M   'P 1'
_cell_length_a   5.84071300
_cell_length_b   5.84731000
_cell_length_c   8.71827100
_cell_angle_alpha   90.00000000
_cell_angle_beta   90.00000000
_cell_angle_gamma   90.00000000
_symmetry_Int_Tables_number   1
_chemical_formula_structural   LiVO2
_chemical_formula_sum   'Li8 V8 O16'
_cell_volume   297.75039752
_cell_formula_units_Z   8
loop_
 _symmetry_equiv_pos_site_id
 _symmetry_equiv_pos_as_xyz
  1  'x, y, z'
loop_
 _atom_site_type_symbol
 _atom_site_label
 _atom_site_symmetry_multiplicity
 _atom_site_fract_x
 _atom_site_fract_y
 _atom_site_fract_z
 _atom_site_occupancy
  Li  Li0  1  0.25156100  0.25330500  0.24912900  1
  Li  Li1  1  0.50000000  0.50000000  0.50000000  1
  Li  Li2  1  0.74843900  0.25330500  0.75087100  1
  Li  Li3  1  0.00000000  0.50000000  0.00000000  1
  Li  Li4  1  0.25156100  0.74669500  0.75087100  1
  Li  Li5  1  0.50000000  0.50000000  0.00000000  1
  Li  Li6  1  0.74843900  0.74669500  0.24912900  1
  Li  Li7  1  0.00000000  0.00000000  0.50000000  1
  V  V0  1  0.00000000  0.00000000  0.00000000  1
  V  V1  1  0.50000000  0.00000000  0.00000000  1
  V  V2  1  0.74486900  0.73988800  0.75079500  1
  V  V3  1  0.74486900  0.26011200  0.24920500  1
  V  V4  1  0.00000000  0.50000000  0.50000000  1
  V  V5  1  0.25513100  0.73988800  0.24920500  1
  V  V6  1  0.25513100  0.26011200  0.75079500  1
  V  V7  1  0.50000000  0.00000000  0.50000000  1
  O  O0  1  0.50000000  0.00000000  0.25127000  1
  O  O1  1  0.74794200  0.24463600  0.48407400  1
  O  O2  1  0.00000000  0.50000000  0.73202800  1
  O  O3  1  0.00000000  0.00000000  0.23379500  1
  O  O4  1  0.25205800  0.24463600  0.51592600  1
  O  O5  1  0.25328500  0.24057900  0.98760000  1
  O  O6  1  0.25328500  0.75942100  0.01240000  1
  O  O7  1  0.50000000  0.50000000  0.24717100  1
  O  O8  1  0.50000000  0.50000000  0.75282900  1
  O  O9  1  0.74671500  0.75942100  0.98760000  1
  O  O10  1  0.74671500  0.24057900  0.01240000  1
  O  O11  1  0.74794200  0.75536400  0.51592600  1
  O  O12  1  0.00000000  0.00000000  0.76620500  1
  O  O13  1  0.00000000  0.50000000  0.26797200  1
  O  O14  1  0.25205800  0.75536400  0.48407400  1
  O  O15  1  0.50000000  0.00000000  0.74873000  1
loop_
_geom_bond_atom_site_label_1
_geom_bond_atom_site_label_2
_geom_bond_distance
_geom_bond_site_symmetry_2
Li0 O7 2.046138 1_555
Li0 O13 2.065582 1_555
Li0 O0 2.073581 1_555
Li0 O3 2.090578 1_555
Li0 O5 2.281317 1_554
Li0 O4 2.326563 1_555
Li1 O14 2.084722 1_555
Li1 O11 2.084722 1_555
Li1 O4 2.084722 1_555
Li1 O1 2.084722 1_555
Li1 O7 2.204232 1_555
Li1 O8 2.204232 1_555
Li2 O8 2.046138 1_555
Li2 O2 2.065582 1_655
Li2 O15 2.073581 1_555
Li2 O12 2.090578 1_655
Li2 O10 2.281317 1_556
Li2 O1 2.326563 1_555
Li3 O9 2.121612 1_454
Li3 O10 2.121612 1_455
Li3 O6 2.121612 1_555
Li3 O5 2.121612 1_554
Li3 O2 2.336253 1_554
Li3 O13 2.336253 1_555
Li4 O8 2.046138 1_555
Li4 O2 2.065582 1_555
Li4 O15 2.073581 1_565
Li4 O12 2.090578 1_565
Li4 O6 2.281317 1_556
Li4 O14 2.326563 1_555
Li5 O9 2.095036 1_554
Li5 O6 2.095036 1_555
Li5 O10 2.095036 1_555
Li5 O5 2.095036 1_554
Li5 O8 2.154904 1_554
Li5 O7 2.154904 1_555
Li6 O7 2.046138 1_555
Li6 O13 2.065582 1_655
Li6 O0 2.073581 1_565
Li6 O3 2.090578 1_665
Li6 O9 2.281317 1_554
Li6 O11 2.326563 1_555
Li7 O4 2.057394 1_555
Li7 O1 2.057394 1_455
Li7 O11 2.057394 1_445
Li7 O14 2.057394 1_545
Li7 O12 2.320847 1_555
Li7 O3 2.320847 1_555
O0 V3 2.087853 1_555
O0 V5 2.087853 1_545
O0 V7 2.168496 1_555
O0 V1 2.190640 1_555
O1 V7 2.040261 1_555
O1 V3 2.049729 1_555
O1 V4 2.101492 1_655
O2 V4 2.022883 1_555
O2 V6 2.053016 1_555
O2 V2 2.053016 1_455
O3 V0 2.038288 1_555
O3 V3 2.133517 1_455
O3 V5 2.133517 1_545
O4 V7 2.040261 1_555
O4 V6 2.049729 1_555
O4 V4 2.101492 1_555
O5 V1 2.016696 1_556
O5 V0 2.044291 1_556
O5 V6 2.067715 1_555
O6 V1 2.016696 1_565
O6 V0 2.044291 1_565
O6 V5 2.067715 1_555
O7 V5 2.003342 1_555
O7 V3 2.003342 1_555
O8 V2 2.003342 1_555
O8 V6 2.003342 1_555
O9 V1 2.016696 1_566
O9 V0 2.044291 1_666
O9 V2 2.067715 1_555
O10 V1 2.016696 1_555
O10 V0 2.044291 1_655
O10 V3 2.067715 1_555
O11 V7 2.040261 1_565
O11 V2 2.049729 1_555
O11 V4 2.101492 1_655
O12 V0 2.038288 1_556
O12 V2 2.133517 1_445
O12 V6 2.133517 1_555
O13 V4 2.022883 1_555
O13 V5 2.053016 1_555
O13 V3 2.053016 1_455
O14 V7 2.040261 1_565
O14 V5 2.049729 1_555
O14 V4 2.101492 1_555
O15 V2 2.087853 1_545
O15 V6 2.087853 1_555
O15 V7 2.168496 1_555
O15 V1 2.190640 1_556
