# generated using pymatgen
data_Sm11(CoB)40
_symmetry_space_group_name_H-M   'P 1'
_cell_length_a   7.03927300
_cell_length_b   7.03927300
_cell_length_c   38.62572300
_cell_angle_alpha   90.00000000
_cell_angle_beta   90.00000000
_cell_angle_gamma   90.00000000
_symmetry_Int_Tables_number   1
_chemical_formula_structural   Sm11(CoB)40
_chemical_formula_sum   'Sm22 Co80 B80'
_cell_volume   1913.95727437
_cell_formula_units_Z   2
loop_
 _symmetry_equiv_pos_site_id
 _symmetry_equiv_pos_as_xyz
  1  'x, y, z'
loop_
 _atom_site_type_symbol
 _atom_site_label
 _atom_site_symmetry_multiplicity
 _atom_site_fract_x
 _atom_site_fract_y
 _atom_site_fract_z
 _atom_site_occupancy
  Sm  Sm0  1  0.00000000  0.00000000  0.68251300  1
  Sm  Sm1  1  0.50000000  0.50000000  0.27296000  1
  Sm  Sm2  1  0.00000000  0.00000000  0.77296000  1
  Sm  Sm3  1  0.00000000  0.00000000  0.40874400  1
  Sm  Sm4  1  0.50000000  0.50000000  0.72704000  1
  Sm  Sm5  1  0.50000000  0.50000000  0.45451900  1
  Sm  Sm6  1  0.50000000  0.50000000  0.18251300  1
  Sm  Sm7  1  0.00000000  0.00000000  0.13647500  1
  Sm  Sm8  1  0.00000000  0.00000000  0.50000000  1
  Sm  Sm9  1  0.50000000  0.50000000  0.81748700  1
  Sm  Sm10  1  0.00000000  0.00000000  0.22704000  1
  Sm  Sm11  1  0.50000000  0.50000000  0.09125600  1
  Sm  Sm12  1  0.50000000  0.50000000  0.90874400  1
  Sm  Sm13  1  0.50000000  0.50000000  0.36352500  1
  Sm  Sm14  1  0.00000000  0.00000000  0.95451900  1
  Sm  Sm15  1  0.00000000  0.00000000  0.31748700  1
  Sm  Sm16  1  0.00000000  0.00000000  0.86352500  1
  Sm  Sm17  1  0.50000000  0.50000000  0.63647500  1
  Sm  Sm18  1  0.50000000  0.50000000  0.54548100  1
  Sm  Sm19  1  0.00000000  0.00000000  0.04548100  1
  Sm  Sm20  1  0.00000000  0.00000000  0.59125600  1
  Sm  Sm21  1  0.50000000  0.50000000  0.00000000  1
  Co  Co0  1  0.11942700  0.63576300  0.43980500  1
  Co  Co1  1  0.38354000  0.85365000  0.41113500  1
  Co  Co2  1  0.35675800  0.88295900  0.81223900  1
  Co  Co3  1  0.85675800  0.61704100  0.68776100  1
  Co  Co4  1  0.12548300  0.62804800  0.83864900  1
  Co  Co5  1  0.14635000  0.38354000  0.58886600  1
  Co  Co6  1  0.86964600  0.62313500  0.38934800  1
  Co  Co7  1  0.36423700  0.11942700  0.56019500  1
  Co  Co8  1  0.64051800  0.11738300  0.01018800  1
  Co  Co9  1  0.61646000  0.14635000  0.41113500  1
  Co  Co10  1  0.11646000  0.35365000  0.08886500  1
  Co  Co11  1  0.13347500  0.37852500  0.78806900  1
  Co  Co12  1  0.87195200  0.37451700  0.33864900  1
  Co  Co13  1  0.88076700  0.36112700  0.73778600  1
  Co  Co14  1  0.87852500  0.63347500  0.28806900  1
  Co  Co15  1  0.36112700  0.11923300  0.26221400  1
  Co  Co16  1  0.85566200  0.38352300  0.03942400  1
  Co  Co17  1  0.38057300  0.13576300  0.06019500  1
  Co  Co18  1  0.11738300  0.35948200  0.98981200  1
  Co  Co19  1  0.61616500  0.85349900  0.86181000  1
  Co  Co20  1  0.11616500  0.64650100  0.63819000  1
  Co  Co21  1  0.64635000  0.11646000  0.91113400  1
  Co  Co22  1  0.88295900  0.64324200  0.18776100  1
  Co  Co23  1  0.13887300  0.61923300  0.23778600  1
  Co  Co24  1  0.64324200  0.11704100  0.81223900  1
  Co  Co25  1  0.87686500  0.63035400  0.88934800  1
  Co  Co26  1  0.14433800  0.61647700  0.03942400  1
  Co  Co27  1  0.35948200  0.88261700  0.01018800  1
  Co  Co28  1  0.86112700  0.38076700  0.23778600  1
  Co  Co29  1  0.14051800  0.38261700  0.48981200  1
  Co  Co30  1  0.37195200  0.12548300  0.16135100  1
  Co  Co31  1  0.38352300  0.14433800  0.96057600  1
  Co  Co32  1  0.62147500  0.13347500  0.21193100  1
  Co  Co33  1  0.61923300  0.86112700  0.76221400  1
  Co  Co34  1  0.38076700  0.13887300  0.76221400  1
  Co  Co35  1  0.85948200  0.61738300  0.48981200  1
  Co  Co36  1  0.11704100  0.35675800  0.18776100  1
  Co  Co37  1  0.14324200  0.38295900  0.68776100  1
  Co  Co38  1  0.85349900  0.38383500  0.13819000  1
  Co  Co39  1  0.88057300  0.36423700  0.43980500  1
  Co  Co40  1  0.37686500  0.86964600  0.61065200  1
  Co  Co41  1  0.88354000  0.64635000  0.08886500  1
  Co  Co42  1  0.61647700  0.85566200  0.96057600  1
  Co  Co43  1  0.85365000  0.61646000  0.58886600  1
  Co  Co44  1  0.61942700  0.86423700  0.06019500  1
  Co  Co45  1  0.35365000  0.88354000  0.91113400  1
  Co  Co46  1  0.13576300  0.61942700  0.93980500  1
  Co  Co47  1  0.38383500  0.14650100  0.86181000  1
  Co  Co48  1  0.86652500  0.62147500  0.78806900  1
  Co  Co49  1  0.38295900  0.85675800  0.31223900  1
  Co  Co50  1  0.37451700  0.12804800  0.66135100  1
  Co  Co51  1  0.63576300  0.88057300  0.56019500  1
  Co  Co52  1  0.12147500  0.36652500  0.28806900  1
  Co  Co53  1  0.62548300  0.87195200  0.66135100  1
  Co  Co54  1  0.88261700  0.64051800  0.98981200  1
  Co  Co55  1  0.14650100  0.61616500  0.13819000  1
  Co  Co56  1  0.86423700  0.38057300  0.93980500  1
  Co  Co57  1  0.63347500  0.12147500  0.71193100  1
  Co  Co58  1  0.35566200  0.11647700  0.46057600  1
  Co  Co59  1  0.13035400  0.37686500  0.38934800  1
  Co  Co60  1  0.12313500  0.36964600  0.88934800  1
  Co  Co61  1  0.63035400  0.12313500  0.11065200  1
  Co  Co62  1  0.62804800  0.87451700  0.16135100  1
  Co  Co63  1  0.64650100  0.88383500  0.36181000  1
  Co  Co64  1  0.63887300  0.88076700  0.26221400  1
  Co  Co65  1  0.12804800  0.62548300  0.33864900  1
  Co  Co66  1  0.88383500  0.35349900  0.63819000  1
  Co  Co67  1  0.35349900  0.11616500  0.36181000  1
  Co  Co68  1  0.64433800  0.88352300  0.46057600  1
  Co  Co69  1  0.61704100  0.14324200  0.31223900  1
  Co  Co70  1  0.11923300  0.63887300  0.73778600  1
  Co  Co71  1  0.87451700  0.37195200  0.83864900  1
  Co  Co72  1  0.36652500  0.87852500  0.71193100  1
  Co  Co73  1  0.37852500  0.86652500  0.21193100  1
  Co  Co74  1  0.11647700  0.64433800  0.53942400  1
  Co  Co75  1  0.61738300  0.14051800  0.51018800  1
  Co  Co76  1  0.62313500  0.13035400  0.61065200  1
  Co  Co77  1  0.88352300  0.35566200  0.53942400  1
  Co  Co78  1  0.36964600  0.87686500  0.11065200  1
  Co  Co79  1  0.38261700  0.85948200  0.51018800  1
  B  B0  1  0.66304900  0.79362500  0.41105700  1
  B  B1  1  0.29433900  0.83573400  0.36157500  1
  B  B2  1  0.69932100  0.83669100  0.01005900  1
  B  B3  1  0.67414100  0.17588500  0.16086900  1
  B  B4  1  0.70566100  0.16426600  0.36157500  1
  B  B5  1  0.16722300  0.30954100  0.73815300  1
  B  B6  1  0.66848200  0.81783400  0.61032600  1
  B  B7  1  0.33669100  0.19932100  0.51005900  1
  B  B8  1  0.33478000  0.80862900  0.06000000  1
  B  B9  1  0.16426600  0.29433900  0.63842500  1
  B  B10  1  0.80862900  0.66522000  0.94000000  1
  B  B11  1  0.17588500  0.32585900  0.83913100  1
  B  B12  1  0.79433900  0.66426600  0.13842500  1
  B  B13  1  0.83478000  0.69137100  0.44000000  1
  B  B14  1  0.80145000  0.33419400  0.68810600  1
  B  B15  1  0.30862900  0.83478000  0.56000000  1
  B  B16  1  0.16522000  0.30862900  0.44000000  1
  B  B17  1  0.32888000  0.18219900  0.21147900  1
  B  B18  1  0.31780100  0.17112000  0.71147900  1
  B  B19  1  0.32585900  0.82411500  0.16086900  1
  B  B20  1  0.31783400  0.16848200  0.11032600  1
  B  B21  1  0.70637500  0.83695100  0.91105700  1
  B  B22  1  0.29362500  0.16304900  0.91105700  1
  B  B23  1  0.68216600  0.83151800  0.11032600  1
  B  B24  1  0.70464900  0.16273500  0.46046000  1
  B  B25  1  0.19045900  0.33277700  0.23815300  1
  B  B26  1  0.83419400  0.30145000  0.18810600  1
  B  B27  1  0.83573400  0.70566100  0.63842500  1
  B  B28  1  0.69045900  0.16722300  0.26184700  1
  B  B29  1  0.79362500  0.33695100  0.58894300  1
  B  B30  1  0.83151800  0.31783400  0.88967400  1
  B  B31  1  0.80067900  0.33669100  0.48994100  1
  B  B32  1  0.66580600  0.80145000  0.31189400  1
  B  B33  1  0.18219900  0.67112000  0.78852100  1
  B  B34  1  0.17414100  0.32411500  0.33913100  1
  B  B35  1  0.66273500  0.20464900  0.96046000  1
  B  B36  1  0.33277700  0.80954100  0.76184700  1
  B  B37  1  0.19137100  0.33478000  0.94000000  1
  B  B38  1  0.68219900  0.82888000  0.71147900  1
  B  B39  1  0.16330900  0.69932100  0.98994100  1
  B  B40  1  0.83277700  0.69045900  0.73815300  1
  B  B41  1  0.81780100  0.32888000  0.78852100  1
  B  B42  1  0.30954100  0.83277700  0.26184700  1
  B  B43  1  0.83726500  0.70464900  0.53954000  1
  B  B44  1  0.32411500  0.82585900  0.66086900  1
  B  B45  1  0.33726500  0.79535100  0.96046000  1
  B  B46  1  0.29535100  0.83726500  0.46046000  1
  B  B47  1  0.82888000  0.31780100  0.28852100  1
  B  B48  1  0.18216600  0.66848200  0.38967400  1
  B  B49  1  0.17112000  0.68219900  0.28852100  1
  B  B50  1  0.69137100  0.16522000  0.56000000  1
  B  B51  1  0.33151800  0.18216600  0.61032600  1
  B  B52  1  0.83695100  0.29362500  0.08894300  1
  B  B53  1  0.69855000  0.83419400  0.81189400  1
  B  B54  1  0.16848200  0.68216600  0.88967400  1
  B  B55  1  0.33695100  0.20637500  0.41105700  1
  B  B56  1  0.66722300  0.19045900  0.76184700  1
  B  B57  1  0.66426600  0.20566100  0.86157500  1
  B  B58  1  0.16580600  0.69855000  0.18810600  1
  B  B59  1  0.30067900  0.16330900  0.01005900  1
  B  B60  1  0.33419400  0.19855000  0.31189400  1
  B  B61  1  0.80954100  0.66722300  0.23815300  1
  B  B62  1  0.33573400  0.79433900  0.86157500  1
  B  B63  1  0.16304900  0.70637500  0.08894300  1
  B  B64  1  0.83669100  0.30067900  0.98994100  1
  B  B65  1  0.79535100  0.66273500  0.03954000  1
  B  B66  1  0.30145000  0.16580600  0.81189400  1
  B  B67  1  0.19855000  0.66580600  0.68810600  1
  B  B68  1  0.82411500  0.67414100  0.83913100  1
  B  B69  1  0.20637500  0.66304900  0.58894300  1
  B  B70  1  0.20464900  0.33726500  0.03954000  1
  B  B71  1  0.16273500  0.29535100  0.53954000  1
  B  B72  1  0.20566100  0.33573400  0.13842500  1
  B  B73  1  0.66522000  0.19137100  0.06000000  1
  B  B74  1  0.19932100  0.66330900  0.48994100  1
  B  B75  1  0.66330900  0.80067900  0.51005900  1
  B  B76  1  0.67112000  0.81780100  0.21147900  1
  B  B77  1  0.82585900  0.67588500  0.33913100  1
  B  B78  1  0.67588500  0.17414100  0.66086900  1
  B  B79  1  0.81783400  0.33151800  0.38967400  1
loop_
_geom_bond_atom_site_label_1
_geom_bond_atom_site_label_2
_geom_bond_distance
_geom_bond_site_symmetry_2
Co0 Sm5 2.900540 1_555
Co0 Sm3 2.952975 1_565
Co1 Sm3 2.891191 1_565
Co1 Sm5 3.110863 1_555
Co2 Sm9 2.885287 1_555
Co2 Sm2 3.047512 1_565
Co3 Sm0 2.885287 1_665
Co3 Sm4 3.047512 1_555
Co4 Sm9 2.903587 1_555
Co5 Sm20 2.891190 1_555
Co5 Sm18 3.110884 1_555
Co6 Sm3 2.905324 1_665
Co7 Sm18 2.900540 1_555
Co7 Sm20 2.952975 1_555
Co8 Sm21 2.896096 1_555
Co8 Sm19 2.990737 1_655
Co9 Sm3 2.891191 1_655
Co9 Sm5 3.110863 1_555
Co10 Sm11 2.891191 1_555
Co10 Sm19 3.110863 1_555
Co11 Sm2 2.884987 1_555
Co11 Sm9 2.946032 1_555
Co12 Sm15 2.903587 1_655
Co13 Sm4 2.883062 1_555
Co13 Sm2 3.002070 1_655
Co14 Sm1 2.884987 1_555
Co14 Sm15 2.946032 1_665
Co15 Sm1 2.883062 1_555
Co15 Sm10 3.002070 1_555
Co16 Sm19 2.894057 1_655
Co16 Sm21 3.042884 1_555
Co17 Sm19 2.900540 1_555
Co17 Sm11 2.952975 1_555
Co18 Sm21 2.896096 1_556
Co18 Sm14 2.990737 1_555
Co19 Sm12 3.185457 1_555
Co20 Sm20 3.185457 1_565
Co21 Sm12 2.891190 1_555
Co21 Sm14 3.110884 1_655
Co22 Sm6 2.885287 1_555
Co22 Sm10 3.047512 1_665
Co23 Sm10 2.883062 1_565
Co23 Sm1 3.002070 1_555
Co24 Sm9 2.885287 1_555
Co24 Sm2 3.047512 1_655
Co25 Sm12 2.905324 1_555
Co26 Sm19 2.894057 1_565
Co26 Sm21 3.042884 1_555
Co27 Sm21 2.896096 1_555
Co27 Sm19 2.990737 1_565
Co28 Sm10 2.883062 1_655
Co28 Sm1 3.002070 1_555
Co29 Sm8 2.896096 1_555
Co29 Sm5 2.990737 1_555
Co30 Sm6 2.903587 1_555
Co31 Sm14 2.894057 1_555
Co31 Sm21 3.042884 1_556
Co32 Sm10 2.884987 1_655
Co32 Sm6 2.946032 1_555
Co33 Sm2 2.883062 1_665
Co33 Sm4 3.002070 1_555
Co34 Sm2 2.883062 1_555
Co34 Sm4 3.002070 1_555
Co35 Sm8 2.896096 1_665
Co35 Sm5 2.990737 1_555
Co36 Sm6 2.885287 1_555
Co36 Sm10 3.047512 1_555
Co37 Sm0 2.885287 1_555
Co37 Sm4 3.047512 1_555
Co38 Sm11 3.185457 1_555
Co39 Sm5 2.900540 1_555
Co39 Sm3 2.952975 1_655
Co40 Sm20 2.905324 1_565
Co41 Sm11 2.891191 1_555
Co41 Sm19 3.110863 1_665
Co42 Sm14 2.894057 1_665
Co42 Sm21 3.042884 1_556
Co43 Sm20 2.891190 1_665
Co43 Sm18 3.110884 1_555
Co44 Sm19 2.900540 1_665
Co44 Sm11 2.952975 1_555
Co45 Sm12 2.891190 1_555
Co45 Sm14 3.110884 1_565
Co46 Sm14 2.900540 1_565
Co46 Sm12 2.952975 1_555
Co47 Sm12 3.185457 1_555
Co48 Sm2 2.884987 1_665
Co48 Sm9 2.946032 1_555
Co49 Sm15 2.885287 1_565
Co49 Sm1 3.047512 1_555
Co50 Sm0 2.903587 1_555
Co51 Sm18 2.900540 1_555
Co51 Sm20 2.952975 1_665
Co52 Sm1 2.884987 1_555
Co52 Sm15 2.946032 1_555
Co53 Sm0 2.903587 1_665
Co54 Sm21 2.896096 1_556
Co54 Sm14 2.990737 1_665
Co55 Sm11 3.185457 1_555
Co56 Sm14 2.900540 1_655
Co56 Sm12 2.952975 1_555
Co57 Sm4 2.884987 1_555
Co57 Sm0 2.946032 1_655
Co58 Sm5 2.894057 1_555
Co58 Sm8 3.042884 1_555
Co59 Sm3 2.905324 1_555
Co60 Sm12 2.905324 1_555
Co61 Sm11 2.905324 1_555
Co62 Sm6 2.903587 1_555
Co63 Sm3 3.185457 1_665
Co64 Sm1 2.883062 1_555
Co64 Sm10 3.002070 1_665
Co65 Sm15 2.903587 1_565
Co66 Sm20 3.185457 1_655
Co67 Sm3 3.185457 1_555
Co68 Sm5 2.894057 1_555
Co68 Sm8 3.042884 1_665
Co69 Sm15 2.885287 1_655
Co69 Sm1 3.047512 1_555
Co70 Sm4 2.883062 1_555
Co70 Sm2 3.002070 1_565
Co71 Sm9 2.903587 1_555
Co72 Sm4 2.884987 1_555
Co72 Sm0 2.946032 1_565
Co73 Sm10 2.884987 1_565
Co73 Sm6 2.946032 1_555
Co74 Sm18 2.894057 1_555
Co74 Sm8 3.042884 1_565
Co75 Sm8 2.896096 1_655
Co75 Sm18 2.990737 1_555
Co76 Sm20 2.905324 1_655
Co77 Sm18 2.894057 1_555
Co77 Sm8 3.042884 1_655
Co78 Sm11 2.905324 1_555
Co79 Sm8 2.896096 1_565
Co79 Sm18 2.990737 1_555
B0 B13 1.797011 1_555
B0 Co63 2.008775 1_555
B0 Co1 2.012401 1_555
B0 Co68 2.018973 1_555
B0 Co6 2.063588 1_555
B0 Co9 2.504494 1_565
B0 Sm3 2.782853 1_665
B0 Sm5 2.899591 1_555
B0 Sm13 2.993354 1_555
B1 B48 1.785379 1_555
B1 Co49 2.010600 1_555
B1 Co67 2.017499 1_565
B1 Co1 2.018585 1_555
B1 Co65 2.084428 1_555
B1 Co63 2.501998 1_555
B1 Sm13 2.772511 1_555
B1 Sm15 2.920606 1_565
B1 Sm3 2.991558 1_565
B2 B65 1.803636 1_555
B2 Co42 2.002759 1_554
B2 Co8 2.018766 1_565
B2 Co44 2.025851 1_555
B2 Co54 2.045320 1_554
B2 Co27 2.413970 1_555
B2 Sm19 2.770078 1_665
B2 Sm21 2.781504 1_555
B2 Sm14 3.225454 1_664
B3 Co61 1.998799 1_555
B3 Co32 2.028930 1_555
B3 Co38 2.122300 1_555
B3 Co62 2.146161 1_545
B3 Co30 2.156656 1_555
B3 Sm6 2.721575 1_555
B3 Sm7 2.771691 1_655
B4 B79 1.785379 1_555
B4 Co69 2.010600 1_555
B4 Co63 2.017499 1_545
B4 Co9 2.018585 1_555
B4 Co12 2.084428 1_555
B4 Co67 2.501998 1_555
B4 Sm13 2.772511 1_555
B4 Sm15 2.920606 1_655
B4 Sm3 2.991558 1_655
B5 Co11 2.002395 1_555
B5 Co37 2.020932 1_555
B5 Co13 2.048927 1_455
B5 Co34 2.136970 1_555
B5 Co70 2.342784 1_555
B5 Sm4 2.732957 1_555
B5 Sm2 2.817971 1_555
B6 Co51 1.999381 1_555
B6 Co53 2.030049 1_555
B6 Co40 2.084958 1_555
B6 Co43 2.096532 1_555
B6 Co76 2.222987 1_565
B6 Sm17 2.726229 1_555
B6 Sm20 2.762753 1_665
B7 B71 1.803636 1_555
B7 Co58 2.002759 1_555
B7 Co75 2.018766 1_555
B7 Co7 2.025851 1_555
B7 Co29 2.045320 1_555
B7 Co79 2.413970 1_545
B7 Sm18 2.770078 1_555
B7 Sm8 2.781504 1_555
B7 Sm5 3.225454 1_555
B8 Co27 2.000840 1_555
B8 Co78 2.029466 1_555
B8 Co44 2.041599 1_555
B8 Co26 2.063574 1_555
B8 Co17 2.325250 1_565
B8 Sm11 2.744091 1_555
B8 Sm19 2.771790 1_565
B9 Co37 2.010600 1_555
B9 Co66 2.017499 1_455
B9 Co5 2.018548 1_555
B9 Co50 2.084428 1_555
B9 Co20 2.501998 1_555
B9 Sm17 2.772511 1_555
B9 Sm0 2.920606 1_555
B9 Sm20 2.991558 1_555
B10 B21 1.797011 1_555
B10 Co54 2.000840 1_555
B10 Co25 2.029466 1_555
B10 Co56 2.041599 1_555
B10 Co42 2.063574 1_555
B10 Co46 2.325250 1_655
B10 Sm12 2.744091 1_555
B10 Sm14 2.771790 1_665
B11 B66 1.776912 1_555
B11 Co60 1.998799 1_555
B11 Co11 2.028930 1_555
B11 Co47 2.122300 1_555
B11 Co71 2.146161 1_455
B11 Co4 2.156656 1_555
B11 Sm9 2.721575 1_555
B11 Sm16 2.771691 1_555
B12 B23 1.785379 1_555
B12 Co22 2.010600 1_555
B12 Co38 2.017499 1_555
B12 Co41 2.018585 1_555
B12 Co62 2.084428 1_555
B12 Co55 2.501998 1_655
B12 Sm7 2.772511 1_665
B12 Sm6 2.920606 1_555
B12 Sm11 2.991558 1_555
B13 Co35 2.000840 1_555
B13 Co6 2.029466 1_555
B13 Co0 2.041599 1_655
B13 Co68 2.063574 1_555
B13 Co39 2.325250 1_555
B13 Sm3 2.744091 1_665
B13 Sm5 2.771790 1_555
B14 B78 1.776912 1_555
B14 Co13 2.007475 1_555
B14 Co66 2.017952 1_555
B14 Co3 2.028789 1_555
B14 Co57 2.118293 1_555
B14 Co37 2.430368 1_655
B14 Sm0 2.744862 1_655
B14 Sm4 2.850730 1_555
B15 B69 1.797011 1_555
B15 Co79 2.000840 1_555
B15 Co40 2.029466 1_555
B15 Co7 2.041599 1_565
B15 Co74 2.063574 1_555
B15 Co51 2.325250 1_555
B15 Sm20 2.744091 1_565
B15 Sm18 2.771790 1_555
B16 B55 1.797011 1_555
B16 Co29 2.000840 1_555
B16 Co59 2.029466 1_555
B16 Co39 2.041599 1_455
B16 Co58 2.063574 1_555
B16 Co0 2.325250 1_555
B16 Sm3 2.744091 1_555
B16 Sm5 2.771790 1_555
B17 B25 1.770441 1_555
B17 Co30 2.000077 1_555
B17 Co15 2.021958 1_555
B17 Co32 2.088091 1_555
B17 Co36 2.138413 1_555
B17 Co73 2.249495 1_545
B17 Sm10 2.713996 1_555
B17 Sm6 2.776205 1_555
B18 B5 1.770441 1_555
B18 Co50 2.000077 1_555
B18 Co34 2.021958 1_555
B18 Co72 2.088091 1_545
B18 Co37 2.138413 1_555
B18 Co57 2.249495 1_555
B18 Sm4 2.713996 1_555
B18 Sm0 2.776205 1_555
B19 B58 1.776912 1_555
B19 Co78 1.998799 1_555
B19 Co73 2.028930 1_555
B19 Co55 2.122300 1_555
B19 Co30 2.146161 1_565
B19 Co62 2.156656 1_555
B19 Sm6 2.721575 1_555
B19 Sm7 2.771691 1_565
B20 B72 1.785379 1_555
B20 Co17 1.999381 1_555
B20 Co30 2.030049 1_555
B20 Co78 2.084958 1_545
B20 Co10 2.096547 1_555
B20 Co61 2.222987 1_555
B20 Sm7 2.726229 1_555
B20 Sm11 2.762753 1_555
B21 Co19 2.008775 1_555
B21 Co21 2.012401 1_565
B21 Co42 2.018973 1_555
B21 Co25 2.063588 1_555
B21 Co45 2.504494 1_555
B21 Sm12 2.782853 1_555
B21 Sm14 2.899591 1_665
B21 Sm16 2.993354 1_665
B22 B37 1.797011 1_555
B22 Co47 2.008775 1_555
B22 Co45 2.012401 1_545
B22 Co31 2.018973 1_555
B22 Co60 2.063588 1_555
B22 Co21 2.504494 1_555
B22 Sm12 2.782853 1_555
B22 Sm14 2.899591 1_555
B22 Sm16 2.993354 1_555
B23 Co44 1.999381 1_555
B23 Co62 2.030049 1_555
B23 Co61 2.084958 1_565
B23 Co41 2.096547 1_555
B23 Co78 2.222987 1_555
B23 Sm7 2.726229 1_665
B23 Sm11 2.762753 1_555
B24 B31 1.803636 1_555
B24 Co9 2.007117 1_555
B24 Co68 2.010784 1_545
B24 Co75 2.022673 1_555
B24 Co39 2.044999 1_555
B24 Co58 2.478105 1_555
B24 Sm5 2.786446 1_555
B24 Sm8 2.822633 1_655
B24 Sm3 3.102419 1_655
B25 Co52 2.002395 1_555
B25 Co36 2.020932 1_555
B25 Co23 2.048927 1_555
B25 Co15 2.136970 1_555
B25 Co28 2.342784 1_455
B25 Sm10 2.732957 1_555
B25 Sm1 2.817971 1_555
B26 B3 1.776912 1_555
B26 Co28 2.007475 1_555
B26 Co38 2.017952 1_555
B26 Co36 2.028789 1_655
B26 Co32 2.118293 1_555
B26 Co22 2.430368 1_555
B26 Sm6 2.744862 1_555
B26 Sm10 2.850730 1_655
B27 B6 1.785379 1_555
B27 Co3 2.010600 1_555
B27 Co20 2.017499 1_655
B27 Co43 2.018548 1_555
B27 Co53 2.084428 1_555
B27 Co66 2.501998 1_555
B27 Sm17 2.772511 1_555
B27 Sm0 2.920606 1_665
B27 Sm20 2.991558 1_665
B28 B47 1.770441 1_555
B28 Co32 2.002395 1_555
B28 Co69 2.020932 1_555
B28 Co64 2.048927 1_545
B28 Co28 2.136970 1_555
B28 Co15 2.342784 1_555
B28 Sm1 2.732957 1_555
B28 Sm10 2.817971 1_655
B29 B50 1.797011 1_555
B29 Co66 2.008775 1_555
B29 Co43 2.012401 1_555
B29 Co77 2.018973 1_555
B29 Co76 2.063588 1_555
B29 Co5 2.504494 1_655
B29 Sm20 2.782853 1_655
B29 Sm18 2.899591 1_555
B29 Sm17 2.993354 1_555
B30 B57 1.785379 1_555
B30 Co56 1.999381 1_555
B30 Co71 2.030049 1_555
B30 Co60 2.084958 1_655
B30 Co21 2.096532 1_555
B30 Co25 2.222987 1_555
B30 Sm16 2.726229 1_655
B30 Sm12 2.762753 1_555
B31 Co77 2.002759 1_555
B31 Co35 2.018766 1_555
B31 Co39 2.025851 1_555
B31 Co75 2.045320 1_555
B31 Co29 2.413970 1_655
B31 Sm5 2.770078 1_555
B31 Sm8 2.781504 1_655
B31 Sm18 3.225454 1_555
B32 B77 1.776912 1_555
B32 Co64 2.007475 1_555
B32 Co63 2.017952 1_555
B32 Co49 2.028789 1_555
B32 Co14 2.118293 1_555
B32 Co69 2.430368 1_565
B32 Sm15 2.744862 1_665
B32 Sm1 2.850730 1_555
B33 B36 1.770441 1_555
B33 Co4 2.000077 1_555
B33 Co70 2.021958 1_555
B33 Co11 2.088091 1_555
B33 Co2 2.138413 1_555
B33 Co48 2.249495 1_455
B33 Sm2 2.713996 1_565
B33 Sm9 2.776205 1_555
B34 B60 1.776912 1_555
B34 Co59 1.998799 1_555
B34 Co52 2.028930 1_555
B34 Co67 2.122300 1_555
B34 Co65 2.146161 1_555
B34 Co12 2.156656 1_455
B34 Sm15 2.721575 1_555
B34 Sm13 2.771691 1_555
B35 B64 1.803636 1_555
B35 Co21 2.007154 1_555
B35 Co31 2.010784 1_555
B35 Co8 2.022673 1_556
B35 Co56 2.044999 1_555
B35 Co42 2.478105 1_545
B35 Sm14 2.786446 1_655
B35 Sm21 2.822633 1_556
B35 Sm12 3.102419 1_555
B36 Co72 2.002395 1_555
B36 Co2 2.020932 1_555
B36 Co33 2.048927 1_555
B36 Co70 2.136970 1_555
B36 Co34 2.342784 1_565
B36 Sm2 2.732957 1_565
B36 Sm4 2.817971 1_555
B37 Co18 2.000840 1_555
B37 Co60 2.029466 1_555
B37 Co46 2.041599 1_555
B37 Co31 2.063574 1_555
B37 Co56 2.325250 1_455
B37 Sm12 2.744091 1_555
B37 Sm14 2.771790 1_555
B38 B40 1.770441 1_555
B38 Co53 2.000077 1_555
B38 Co33 2.021958 1_555
B38 Co57 2.088091 1_565
B38 Co3 2.138413 1_555
B38 Co72 2.249495 1_555
B38 Sm4 2.713996 1_555
B38 Sm0 2.776205 1_665
B39 B45 1.803636 1_555
B39 Co26 2.002759 1_556
B39 Co54 2.018766 1_455
B39 Co46 2.025851 1_555
B39 Co27 2.045320 1_556
B39 Co18 2.413970 1_555
B39 Sm14 2.770078 1_565
B39 Sm21 2.781504 1_556
B39 Sm19 3.225454 1_566
B40 Co48 2.002395 1_555
B40 Co3 2.020932 1_555
B40 Co70 2.048927 1_655
B40 Co33 2.136970 1_555
B40 Co13 2.342784 1_555
B40 Sm4 2.732957 1_555
B40 Sm2 2.817971 1_665
B41 B56 1.770441 1_555
B41 Co71 2.000077 1_555
B41 Co13 2.021958 1_555
B41 Co48 2.088091 1_555
B41 Co24 2.138413 1_555
B41 Co11 2.249495 1_655
B41 Sm2 2.713996 1_655
B41 Sm9 2.776205 1_555
B42 B49 1.770441 1_555
B42 Co73 2.002395 1_555
B42 Co49 2.020932 1_555
B42 Co15 2.048927 1_565
B42 Co23 2.136970 1_555
B42 Co64 2.342784 1_555
B42 Sm1 2.732957 1_555
B42 Sm10 2.817971 1_565
B43 B75 1.803636 1_555
B43 Co43 2.007154 1_555
B43 Co74 2.010784 1_655
B43 Co35 2.022673 1_555
B43 Co51 2.044999 1_555
B43 Co77 2.478105 1_555
B43 Sm18 2.786446 1_555
B43 Sm8 2.822633 1_665
B43 Sm20 3.102419 1_665
B44 B67 1.776912 1_555
B44 Co40 1.998799 1_555
B44 Co72 2.028930 1_555
B44 Co20 2.122300 1_555
B44 Co53 2.146161 1_555
B44 Co50 2.156656 1_565
B44 Sm0 2.721575 1_565
B44 Sm17 2.771691 1_555
B45 Co45 2.007154 1_555
B45 Co42 2.010784 1_555
B45 Co27 2.022673 1_556
B45 Co46 2.044999 1_555
B45 Co31 2.478105 1_565
B45 Sm14 2.786446 1_565
B45 Sm21 2.822633 1_556
B45 Sm12 3.102419 1_555
B46 B74 1.803636 1_555
B46 Co1 2.007117 1_555
B46 Co58 2.010784 1_565
B46 Co79 2.022673 1_555
B46 Co0 2.044999 1_555
B46 Co68 2.478105 1_555
B46 Sm5 2.786446 1_555
B46 Sm8 2.822633 1_565
B46 Sm3 3.102419 1_565
B47 Co12 2.000077 1_555
B47 Co28 2.021958 1_555
B47 Co52 2.088091 1_655
B47 Co69 2.138413 1_555
B47 Co14 2.249495 1_555
B47 Sm1 2.713996 1_555
B47 Sm15 2.776205 1_655
B48 Co0 1.999381 1_555
B48 Co65 2.030049 1_555
B48 Co59 2.084958 1_555
B48 Co1 2.096547 1_555
B48 Co6 2.222987 1_455
B48 Sm13 2.726229 1_555
B48 Sm3 2.762753 1_565
B49 Co65 2.000077 1_555
B49 Co23 2.021958 1_555
B49 Co14 2.088091 1_455
B49 Co49 2.138413 1_555
B49 Co52 2.249495 1_555
B49 Sm1 2.713996 1_555
B49 Sm15 2.776205 1_565
B50 Co75 2.000840 1_555
B50 Co76 2.029466 1_555
B50 Co51 2.041599 1_545
B50 Co77 2.063574 1_555
B50 Co7 2.325250 1_555
B50 Sm20 2.744091 1_655
B50 Sm18 2.771790 1_555
B51 B9 1.785379 1_555
B51 Co7 1.999381 1_555
B51 Co50 2.030049 1_555
B51 Co76 2.084958 1_555
B51 Co5 2.096532 1_555
B51 Co40 2.222987 1_545
B51 Sm17 2.726229 1_555
B51 Sm20 2.762753 1_555
B52 B73 1.797011 1_555
B52 Co38 2.008775 1_555
B52 Co10 2.012401 1_655
B52 Co16 2.018973 1_555
B52 Co61 2.063588 1_555
B52 Co41 2.504494 1_555
B52 Sm11 2.782853 1_555
B52 Sm19 2.899591 1_655
B52 Sm7 2.993354 1_655
B53 B68 1.776912 1_555
B53 Co33 2.007475 1_555
B53 Co19 2.017952 1_555
B53 Co24 2.028789 1_565
B53 Co48 2.118293 1_555
B53 Co2 2.430368 1_555
B53 Sm9 2.744862 1_555
B53 Sm2 2.850730 1_665
B54 B62 1.785379 1_555
B54 Co46 1.999381 1_555
B54 Co4 2.030049 1_555
B54 Co25 2.084958 1_455
B54 Co45 2.096532 1_555
B54 Co60 2.222987 1_555
B54 Sm16 2.726229 1_565
B54 Sm12 2.762753 1_555
B55 Co67 2.008775 1_555
B55 Co9 2.012401 1_555
B55 Co58 2.018973 1_555
B55 Co59 2.063588 1_555
B55 Co1 2.504494 1_545
B55 Sm3 2.782853 1_555
B55 Sm5 2.899591 1_555
B55 Sm13 2.993354 1_555
B56 Co57 2.002395 1_555
B56 Co24 2.020932 1_555
B56 Co34 2.048927 1_555
B56 Co13 2.136970 1_555
B56 Co33 2.342784 1_545
B56 Sm2 2.732957 1_655
B56 Sm4 2.817971 1_555
B57 Co24 2.010600 1_555
B57 Co47 2.017499 1_555
B57 Co21 2.018548 1_555
B57 Co71 2.084428 1_555
B57 Co19 2.501998 1_545
B57 Sm16 2.772511 1_655
B57 Sm9 2.920606 1_555
B57 Sm12 2.991558 1_555
B58 Co23 2.007475 1_555
B58 Co55 2.017952 1_555
B58 Co22 2.028789 1_455
B58 Co73 2.118293 1_555
B58 Co36 2.430368 1_555
B58 Sm6 2.744862 1_555
B58 Sm10 2.850730 1_565
B59 B70 1.803636 1_555
B59 Co31 2.002759 1_554
B59 Co27 2.018766 1_545
B59 Co17 2.025851 1_555
B59 Co18 2.045320 1_554
B59 Co8 2.413970 1_555
B59 Sm19 2.770078 1_555
B59 Sm21 2.781504 1_555
B59 Sm14 3.225454 1_554
B60 Co15 2.007475 1_555
B60 Co67 2.017952 1_555
B60 Co69 2.028789 1_555
B60 Co52 2.118293 1_555
B60 Co49 2.430368 1_545
B60 Sm15 2.744862 1_555
B60 Sm1 2.850730 1_555
B61 B76 1.770441 1_555
B61 Co14 2.002395 1_555
B61 Co22 2.020932 1_555
B61 Co28 2.048927 1_555
B61 Co64 2.136970 1_555
B61 Co23 2.342784 1_655
B61 Sm10 2.732957 1_665
B61 Sm1 2.817971 1_555
B62 Co2 2.010600 1_555
B62 Co19 2.017499 1_555
B62 Co45 2.018548 1_555
B62 Co4 2.084428 1_555
B62 Co47 2.501998 1_565
B62 Sm16 2.772511 1_565
B62 Sm9 2.920606 1_555
B62 Sm12 2.991558 1_555
B63 B8 1.797011 1_555
B63 Co55 2.008775 1_555
B63 Co41 2.012401 1_455
B63 Co26 2.018973 1_555
B63 Co78 2.063588 1_555
B63 Co10 2.504494 1_555
B63 Sm11 2.782853 1_555
B63 Sm19 2.899591 1_565
B63 Sm7 2.993354 1_565
B64 Co16 2.002759 1_556
B64 Co18 2.018766 1_655
B64 Co56 2.025851 1_555
B64 Co8 2.045320 1_556
B64 Co54 2.413970 1_555
B64 Sm14 2.770078 1_655
B64 Sm21 2.781504 1_556
B64 Sm19 3.225454 1_656
B65 Co41 2.007117 1_555
B65 Co16 2.010784 1_555
B65 Co54 2.022673 1_554
B65 Co44 2.044999 1_555
B65 Co26 2.478105 1_655
B65 Sm19 2.786446 1_665
B65 Sm21 2.822633 1_555
B65 Sm11 3.102419 1_555
B66 Co34 2.007475 1_555
B66 Co47 2.017952 1_555
B66 Co2 2.028789 1_545
B66 Co11 2.118293 1_555
B66 Co24 2.430368 1_555
B66 Sm9 2.744862 1_555
B66 Sm2 2.850730 1_555
B67 Co70 2.007475 1_555
B67 Co20 2.017952 1_555
B67 Co37 2.028789 1_555
B67 Co72 2.118293 1_555
B67 Co3 2.430368 1_455
B67 Sm0 2.744862 1_565
B67 Sm4 2.850730 1_555
B68 Co25 1.998799 1_555
B68 Co48 2.028930 1_555
B68 Co19 2.122300 1_555
B68 Co4 2.146161 1_655
B68 Co71 2.156656 1_555
B68 Sm9 2.721575 1_555
B68 Sm16 2.771691 1_665
B69 Co20 2.008775 1_555
B69 Co5 2.012401 1_555
B69 Co74 2.018973 1_555
B69 Co40 2.063588 1_555
B69 Co43 2.504494 1_455
B69 Sm20 2.782853 1_565
B69 Sm18 2.899591 1_555
B69 Sm17 2.993354 1_555
B70 Co10 2.007117 1_555
B70 Co26 2.010784 1_555
B70 Co18 2.022673 1_554
B70 Co17 2.044999 1_555
B70 Co16 2.478105 1_455
B70 Sm19 2.786446 1_555
B70 Sm21 2.822633 1_555
B70 Sm11 3.102419 1_555
B71 Co5 2.007154 1_555
B71 Co77 2.010784 1_455
B71 Co29 2.022673 1_555
B71 Co7 2.044999 1_555
B71 Co74 2.478105 1_555
B71 Sm18 2.786446 1_555
B71 Sm8 2.822633 1_555
B71 Sm20 3.102419 1_555
B72 Co36 2.010600 1_555
B72 Co55 2.017499 1_555
B72 Co10 2.018585 1_555
B72 Co30 2.084428 1_555
B72 Co38 2.501998 1_455
B72 Sm7 2.772511 1_555
B72 Sm6 2.920606 1_555
B72 Sm11 2.991558 1_555
B73 Co8 2.000840 1_555
B73 Co61 2.029466 1_555
B73 Co17 2.041599 1_555
B73 Co16 2.063574 1_555
B73 Co44 2.325250 1_545
B73 Sm11 2.744091 1_555
B73 Sm19 2.771790 1_655
B74 Co74 2.002759 1_555
B74 Co29 2.018766 1_555
B74 Co0 2.025851 1_555
B74 Co79 2.045320 1_555
B74 Co35 2.413970 1_455
B74 Sm5 2.770078 1_555
B74 Sm8 2.781504 1_565
B74 Sm18 3.225454 1_555
B75 Co68 2.002759 1_555
B75 Co79 2.018766 1_555
B75 Co51 2.025851 1_555
B75 Co35 2.045320 1_555
B75 Co75 2.413970 1_565
B75 Sm18 2.770078 1_555
B75 Sm8 2.781504 1_665
B75 Sm5 3.225454 1_555
B76 Co62 2.000077 1_555
B76 Co64 2.021958 1_555
B76 Co73 2.088091 1_555
B76 Co22 2.138413 1_555
B76 Co32 2.249495 1_565
B76 Sm10 2.713996 1_665
B76 Sm6 2.776205 1_555
B77 Co6 1.998799 1_555
B77 Co14 2.028930 1_555
B77 Co63 2.122300 1_555
B77 Co12 2.146161 1_555
B77 Co65 2.156656 1_655
B77 Sm15 2.721575 1_665
B77 Sm13 2.771691 1_555
B78 Co76 1.998799 1_555
B78 Co57 2.028930 1_555
B78 Co66 2.122300 1_555
B78 Co50 2.146161 1_555
B78 Co53 2.156656 1_545
B78 Sm0 2.721575 1_655
B78 Sm17 2.771691 1_555
B79 Co39 1.999381 1_555
B79 Co12 2.030049 1_555
B79 Co6 2.084958 1_555
B79 Co9 2.096547 1_555
B79 Co59 2.222987 1_655
B79 Sm13 2.726229 1_555
B79 Sm3 2.762753 1_655
