# generated using pymatgen
data_SrUS2
_symmetry_space_group_name_H-M   'P 1'
_cell_length_a   9.11147961
_cell_length_b   9.11147961
_cell_length_c   9.11147961
_cell_angle_alpha   127.63232838
_cell_angle_beta   127.63232838
_cell_angle_gamma   77.22140306
_symmetry_Int_Tables_number   1
_chemical_formula_structural   SrUS2
_chemical_formula_sum   'Sr4 U4 S8'
_cell_volume   460.33825072
_cell_formula_units_Z   4
loop_
 _symmetry_equiv_pos_site_id
 _symmetry_equiv_pos_as_xyz
  1  'x, y, z'
loop_
 _atom_site_type_symbol
 _atom_site_label
 _atom_site_symmetry_multiplicity
 _atom_site_fract_x
 _atom_site_fract_y
 _atom_site_fract_z
 _atom_site_occupancy
  Sr  Sr0  1  0.37500000  0.01617800  0.14117800  1
  Sr  Sr1  1  0.98382200  0.12500000  0.35882200  1
  Sr  Sr2  1  0.87500000  0.23382200  0.85882200  1
  Sr  Sr3  1  0.76617800  0.62500000  0.64117800  1
  U  U0  1  0.46970700  0.12500000  0.84470700  1
  U  U1  1  0.28029300  0.62500000  0.15529300  1
  U  U2  1  0.37500000  0.53029300  0.65529300  1
  U  U3  1  0.87500000  0.71970700  0.34470700  1
  S  S0  1  0.59315300  0.88701000  0.95944200  1
  S  S1  1  0.63701000  0.84315300  0.45944200  1
  S  S2  1  0.38371100  0.17756900  0.54055800  1
  S  S3  1  0.11299000  0.07243100  0.70614300  1
  S  S4  1  0.92756900  0.63371100  0.04055800  1
  S  S5  1  0.82243100  0.36299000  0.20614300  1
  S  S6  1  0.36628900  0.40684700  0.29385700  1
  S  S7  1  0.15684700  0.61628900  0.79385700  1
loop_
_geom_bond_atom_site_label_1
_geom_bond_atom_site_label_2
_geom_bond_distance
_geom_bond_site_symmetry_2
S0 U0 2.704361 1_565
S0 U2 2.706733 1_555
S0 Sr1 2.928286 1_566
S0 Sr0 2.946639 1_566
S0 Sr3 3.472413 1_555
S1 U3 2.704361 1_555
S1 U1 2.706733 1_555
S1 Sr2 2.928286 1_565
S1 Sr3 2.946639 1_555
S1 Sr0 3.472413 1_565
S2 U2 2.704352 1_555
S2 U0 2.706739 1_555
S2 Sr0 2.928284 1_555
S2 Sr1 2.946639 1_455
S2 Sr2 3.472414 1_555
S3 U3 2.704355 1_445
S3 U0 2.706734 1_555
S3 Sr2 2.928286 1_455
S3 Sr1 2.946645 1_455
S3 Sr0 3.472407 1_556
S4 U1 2.704352 1_655
S4 U3 2.706739 1_555
S4 Sr3 2.928284 1_554
S4 Sr2 2.946639 1_554
S4 Sr1 3.472414 1_565
S5 U0 2.704355 1_554
S5 U3 2.706734 1_555
S5 Sr1 2.928286 1_555
S5 Sr2 2.946645 1_554
S5 Sr3 3.472407 1_555
S6 U2 2.704361 1_555
S6 U1 2.706733 1_555
S6 Sr0 2.928286 1_555
S6 Sr3 2.946639 1_555
S6 Sr2 3.472413 1_454
S7 U1 2.704361 1_556
S7 U2 2.706733 1_555
S7 Sr3 2.928286 1_455
S7 Sr0 2.946639 1_566
S7 Sr1 3.472413 1_455
