# generated using pymatgen
data_NdZr9O20
_symmetry_space_group_name_H-M   'P 1'
_cell_length_a   6.51705400
_cell_length_b   7.46099325
_cell_length_c   8.22505866
_cell_angle_alpha   77.30690057
_cell_angle_beta   75.35937006
_cell_angle_gamma   71.83053562
_symmetry_Int_Tables_number   1
_chemical_formula_structural   NdZr9O20
_chemical_formula_sum   'Nd1 Zr9 O20'
_cell_volume   363.30832386
_cell_formula_units_Z   1
loop_
 _symmetry_equiv_pos_site_id
 _symmetry_equiv_pos_as_xyz
  1  'x, y, z'
loop_
 _atom_site_type_symbol
 _atom_site_label
 _atom_site_symmetry_multiplicity
 _atom_site_fract_x
 _atom_site_fract_y
 _atom_site_fract_z
 _atom_site_occupancy
  Nd  Nd0  1  0.39845200  0.34874700  0.70045800  1
  Zr  Zr0  1  0.19175400  0.55062100  0.10324600  1
  Zr  Zr1  1  0.20285700  0.04530400  0.09941700  1
  Zr  Zr2  1  0.59554800  0.14744900  0.29909800  1
  Zr  Zr3  1  0.60415800  0.65018100  0.29934800  1
  Zr  Zr4  1  0.00328100  0.75758000  0.49475700  1
  Zr  Zr5  1  0.99756600  0.25469500  0.49637500  1
  Zr  Zr6  1  0.39677200  0.85056200  0.70631000  1
  Zr  Zr7  1  0.80479400  0.94946900  0.89904400  1
  Zr  Zr8  1  0.79778100  0.45163000  0.89759300  1
  O  O0  1  0.58590700  0.47206400  0.13957200  1
  O  O1  1  0.87873800  0.67291400  0.03630200  1
  O  O2  1  0.00272300  0.06213700  0.34033000  1
  O  O3  1  0.28343700  0.27691200  0.24006400  1
  O  O4  1  0.80995100  0.12693200  0.06578700  1
  O  O5  1  0.51050500  0.92900300  0.17429100  1
  O  O6  1  0.38541400  0.67867400  0.53472200  1
  O  O7  1  0.69005100  0.87362900  0.44000400  1
  O  O8  1  0.22035400  0.72685100  0.25534000  1
  O  O9  1  0.92128200  0.53121000  0.35010100  1
  O  O10  1  0.78897200  0.26290300  0.74373000  1
  O  O11  1  0.05375100  0.48048500  0.63057800  1
  O  O12  1  0.64654900  0.32332000  0.44224500  1
  O  O13  1  0.31541600  0.12304400  0.55776000  1
  O  O14  1  0.16467000  0.88206300  0.93755100  1
  O  O15  1  0.48256600  0.04269100  0.85519500  1
  O  O16  1  0.01653100  0.92498900  0.66251900  1
  O  O17  1  0.72033600  0.72843100  0.75729400  1
  O  O18  1  0.42062200  0.54814800  0.87368800  1
  O  O19  1  0.10926500  0.32736200  0.96727800  1
loop_
_geom_bond_atom_site_label_1
_geom_bond_atom_site_label_2
_geom_bond_distance
_geom_bond_site_symmetry_2
Nd0 O11 2.317393 1_555
Nd0 O12 2.326093 1_555
Nd0 O15 2.330120 1_555
Nd0 O18 2.331097 1_555
Nd0 O13 2.502826 1_555
Nd0 O19 2.517240 1_555
Nd0 O10 2.520962 1_555
Nd0 O6 2.525541 1_555
O0 Zr3 2.110051 1_555
O0 Zr8 2.122244 1_554
O0 Zr2 2.478237 1_555
O0 Zr0 2.530448 1_555
O1 Zr7 2.096539 1_554
O1 Zr0 2.117375 1_655
O1 Zr8 2.445626 1_554
O1 Zr3 2.445981 1_555
O2 Zr1 2.084249 1_555
O2 Zr5 2.114449 1_455
O2 Zr4 2.346380 1_545
O2 Zr2 2.620751 1_455
O3 Zr0 2.088717 1_555
O3 Zr2 2.091398 1_555
O3 Zr5 2.448746 1_455
O3 Zr1 2.520246 1_555
O4 Zr2 2.073306 1_555
O4 Zr7 2.117601 1_544
O4 Zr8 2.500357 1_554
O4 Zr1 2.513063 1_655
O5 Zr3 2.084059 1_555
O5 Zr1 2.111017 1_565
O5 Zr2 2.367171 1_565
O5 Zr7 2.581240 1_554
O6 Zr3 2.102884 1_555
O6 Zr6 2.132934 1_555
O6 Zr4 2.463952 1_555
O7 Zr4 2.076202 1_655
O7 Zr2 2.105192 1_565
O7 Zr3 2.487590 1_555
O7 Zr6 2.530549 1_555
O8 Zr0 2.078962 1_555
O8 Zr4 2.125928 1_555
O8 Zr1 2.422577 1_565
O8 Zr3 2.487761 1_555
O9 Zr3 2.088699 1_555
O9 Zr5 2.126697 1_555
O9 Zr0 2.339085 1_655
O9 Zr4 2.514188 1_655
O10 Zr8 2.111359 1_555
O10 Zr5 2.143762 1_555
O10 Zr7 2.390532 1_545
O11 Zr4 2.092137 1_555
O11 Zr5 2.365722 1_455
O11 Zr8 2.411778 1_455
O12 Zr2 2.089805 1_555
O12 Zr5 2.318983 1_555
O12 Zr3 2.426805 1_555
O13 Zr6 2.114395 1_545
O13 Zr5 2.133643 1_455
O13 Zr2 2.442548 1_555
O14 Zr1 2.094501 1_566
O14 Zr6 2.116872 1_555
O14 Zr7 2.328887 1_455
O14 Zr0 2.524287 1_556
O15 Zr7 2.094148 1_545
O15 Zr6 2.341898 1_545
O15 Zr1 2.345704 1_556
O16 Zr4 2.087209 1_555
O16 Zr7 2.089046 1_455
O16 Zr6 2.466564 1_555
O16 Zr5 2.520412 1_465
O17 Zr8 2.109152 1_555
O17 Zr6 2.129193 1_555
O17 Zr7 2.473360 1_555
O17 Zr4 2.478167 1_655
O18 Zr0 2.089159 1_556
O18 Zr6 2.352608 1_555
O18 Zr8 2.382649 1_555
O19 Zr8 2.118895 1_455
O19 Zr1 2.124001 1_556
O19 Zr0 2.448550 1_556
