# generated using pymatgen
data_YbZn2
_symmetry_space_group_name_H-M   'P 1'
_cell_length_a   4.37924110
_cell_length_b   5.51859064
_cell_length_c   5.51859064
_cell_angle_alpha   76.80132149
_cell_angle_beta   66.62348408
_cell_angle_gamma   66.62348408
_symmetry_Int_Tables_number   1
_chemical_formula_structural   YbZn2
_chemical_formula_sum   'Yb2 Zn4'
_cell_volume   111.97454210
_cell_formula_units_Z   2
loop_
 _symmetry_equiv_pos_site_id
 _symmetry_equiv_pos_as_xyz
  1  'x, y, z'
loop_
 _atom_site_type_symbol
 _atom_site_label
 _atom_site_symmetry_multiplicity
 _atom_site_fract_x
 _atom_site_fract_y
 _atom_site_fract_z
 _atom_site_occupancy
  Yb  Yb0  1  0.52960989  0.72039011  0.22039011  1
  Yb  Yb1  1  0.47039011  0.27960989  0.77960989  1
  Zn  Zn0  1  0.83393109  0.70857833  0.62355948  1
  Zn  Zn1  1  0.16606891  0.29142167  0.37644052  1
  Zn  Zn2  1  0.83393109  0.12355948  0.20857833  1
  Zn  Zn3  1  0.16606891  0.87644052  0.79142167  1
loop_
_geom_bond_atom_site_label_1
_geom_bond_atom_site_label_2
_geom_bond_distance
_geom_bond_site_symmetry_2
Yb0 Zn2 2.991394 1_465
Yb0 Zn0 2.991394 1_455
Yb0 Zn2 2.991394 1_565
Yb0 Zn0 2.991394 1_555
Yb0 Zn2 3.028933 1_555
Yb0 Zn0 3.028933 1_554
Yb0 Zn3 3.062183 1_555
Yb0 Zn1 3.062183 1_565
Yb0 Zn3 3.138805 1_654
Yb0 Zn1 3.138805 1_655
Yb0 Zn1 3.138805 1_555
Yb0 Zn3 3.138805 1_554
Yb1 Zn1 2.991394 1_655
Yb1 Zn3 2.991394 1_645
Yb1 Zn1 2.991394 1_555
Yb1 Zn3 2.991394 1_545
Yb1 Zn3 3.028933 1_555
Yb1 Zn1 3.028933 1_556
Yb1 Zn0 3.062183 1_545
Yb1 Zn2 3.062183 1_555
Yb1 Zn0 3.138805 1_455
Yb1 Zn2 3.138805 1_456
Yb1 Zn0 3.138805 1_555
Yb1 Zn2 3.138805 1_556
Zn0 Zn3 2.522346 1_655
Zn0 Zn3 2.522346 1_555
Zn0 Zn1 2.545118 1_655
Zn0 Zn2 2.845036 1_565
Zn1 Zn2 2.522346 1_455
Zn1 Zn2 2.522346 1_555
Zn1 Zn3 2.845036 1_545
Zn2 Zn3 2.545118 1_644
