# generated using pymatgen
data_Ag8GeTe6
_symmetry_space_group_name_H-M   'P 1'
_cell_length_a   8.21364000
_cell_length_b   8.29632516
_cell_length_c   8.59112931
_cell_angle_alpha   62.03688223
_cell_angle_beta   61.68459318
_cell_angle_gamma   62.81640611
_symmetry_Int_Tables_number   1
_chemical_formula_structural   Ag8GeTe6
_chemical_formula_sum   'Ag8 Ge1 Te6'
_cell_volume   434.02711688
_cell_formula_units_Z   1
loop_
 _symmetry_equiv_pos_site_id
 _symmetry_equiv_pos_as_xyz
  1  'x, y, z'
loop_
 _atom_site_type_symbol
 _atom_site_label
 _atom_site_symmetry_multiplicity
 _atom_site_fract_x
 _atom_site_fract_y
 _atom_site_fract_z
 _atom_site_occupancy
  Ag  Ag0  1  0.39339900  0.41631000  0.84030200  1
  Ag  Ag1  1  0.44083700  0.37447400  0.36762700  1
  Ag  Ag2  1  0.02590200  0.64174900  0.33107500  1
  Ag  Ag3  1  0.37383700  0.03648300  0.98443800  1
  Ag  Ag4  1  0.00926100  0.66629200  0.00447100  1
  Ag  Ag5  1  0.02794300  0.02590300  0.66220200  1
  Ag  Ag6  1  0.04838000  0.01513200  0.33066700  1
  Ag  Ag7  1  0.96676300  0.34327600  0.01554400  1
  Ge  Ge0  1  0.72111200  0.75056700  0.72615700  1
  Te  Te0  1  0.05260300  0.99373100  0.98918000  1
  Te  Te1  1  0.61891500  0.64843200  0.55284300  1
  Te  Te2  1  0.62902800  0.65328500  0.09858400  1
  Te  Te3  1  0.65212700  0.13535000  0.61678700  1
  Te  Te4  1  0.11521100  0.64422600  0.61418800  1
  Te  Te5  1  0.24168300  0.28978900  0.23093400  1
loop_
_geom_bond_atom_site_label_1
_geom_bond_atom_site_label_2
_geom_bond_distance
_geom_bond_site_symmetry_2
Ag0 Te1 2.774544 1_555
Ag0 Te5 2.800269 1_556
Ag0 Ag3 2.846670 1_555
Ag0 Ag4 2.964511 1_556
Ag0 Te4 3.064041 1_555
Ag0 Te3 3.071996 1_555
Ag0 Ag7 3.315585 1_456
Ag1 Te3 2.815215 1_555
Ag1 Te2 2.818830 1_555
Ag1 Te5 2.862624 1_555
Ag1 Ag2 3.176189 1_555
Ag1 Te4 3.201716 1_555
Ag2 Ag4 2.781331 1_555
Ag2 Te4 2.864896 1_555
Ag2 Te5 2.930614 1_555
Ag2 Te1 2.948808 1_455
Ag2 Te0 3.022113 1_554
Ag2 Ag6 3.184595 1_565
Ag3 Te0 2.797979 1_545
Ag3 Te3 2.882423 1_555
Ag3 Te2 2.898231 1_546
Ag3 Ag6 2.901790 1_556
Ag3 Te5 3.160352 1_556
Ag4 Ag7 2.810086 1_455
Ag4 Te0 2.833400 1_554
Ag4 Te2 2.872236 1_455
Ag4 Ag5 3.055163 1_564
Ag4 Te5 3.092306 1_555
Ag4 Te4 3.113725 1_554
Ag5 Te0 2.791163 1_545
Ag5 Ag6 2.814280 1_555
Ag5 Te3 2.958801 1_455
Ag5 Te4 3.095383 1_545
Ag5 Te5 3.367020 1_555
Ag6 Ag7 2.886593 1_455
Ag6 Te4 2.898129 1_545
Ag6 Te5 2.937908 1_555
Ag6 Te0 3.004330 1_544
Ag6 Te3 3.061639 1_455
Ag7 Te0 2.748525 1_644
Ag7 Te2 2.853695 1_555
Ag7 Te4 3.213948 1_654
Ag7 Te5 3.316378 1_655
Ge0 Te1 2.580379 1_555
Ge0 Te2 2.702036 1_556
Ge0 Te4 2.722948 1_655
Ge0 Te3 2.726542 1_565
