# generated using pymatgen
data_FeCu5S4
_symmetry_space_group_name_H-M   'P 1'
_cell_length_a   3.80627400
_cell_length_b   6.62905000
_cell_length_c   6.75835662
_cell_angle_alpha   70.65527979
_cell_angle_beta   90.00000000
_cell_angle_gamma   90.00000000
_symmetry_Int_Tables_number   1
_chemical_formula_structural   FeCu5S4
_chemical_formula_sum   'Fe1 Cu5 S4'
_cell_volume   160.89924381
_cell_formula_units_Z   1
loop_
 _symmetry_equiv_pos_site_id
 _symmetry_equiv_pos_as_xyz
  1  'x, y, z'
loop_
 _atom_site_type_symbol
 _atom_site_label
 _atom_site_symmetry_multiplicity
 _atom_site_fract_x
 _atom_site_fract_y
 _atom_site_fract_z
 _atom_site_occupancy
  Fe  Fe0  1  0.00000000  0.86824600  0.38522200  1
  Cu  Cu0  1  0.00000000  0.61335700  0.14213500  1
  Cu  Cu1  1  0.50000000  0.36693400  0.40456500  1
  Cu  Cu2  1  0.00000000  0.38884000  0.85883600  1
  Cu  Cu3  1  0.50000000  0.12678000  0.13234600  1
  Cu  Cu4  1  0.50000000  0.87152500  0.86054000  1
  S  S0  1  0.00000000  0.99359500  0.01324100  1
  S  S1  1  0.00000000  0.50321200  0.50796600  1
  S  S2  1  0.50000000  0.49818200  0.00400300  1
  S  S3  1  0.50000000  0.99732900  0.50714600  1
loop_
_geom_bond_atom_site_label_1
_geom_bond_atom_site_label_2
_geom_bond_distance
_geom_bond_site_symmetry_2
Fe0 S1 2.283383 1_555
Fe0 S3 2.345264 1_555
Fe0 S3 2.345264 1_455
Fe0 S0 2.372048 1_555
Cu0 S1 2.334521 1_555
Cu0 S2 2.355542 1_555
Cu0 S2 2.355542 1_455
Cu0 S0 2.378584 1_555
Cu1 S1 2.311849 1_655
Cu1 S1 2.311849 1_555
Cu1 S3 2.314829 1_545
Cu1 S2 2.554442 1_555
Cu2 S1 2.237594 1_555
Cu2 S2 2.362409 1_456
Cu2 S2 2.362409 1_556
Cu2 S0 2.478405 1_546
Cu3 S2 2.323620 1_555
Cu3 S0 2.349512 1_645
Cu3 S0 2.349512 1_545
Cu3 S3 2.390100 1_545
Cu4 S3 2.253929 1_555
Cu4 S2 2.339980 1_556
Cu4 S0 2.427972 1_656
Cu4 S0 2.427972 1_556
