# generated using pymatgen
data_PbClF
_symmetry_space_group_name_H-M   'P 1'
_cell_length_a   5.05858900
_cell_length_b   5.05858900
_cell_length_c   6.27421000
_cell_angle_alpha   90.00000000
_cell_angle_beta   90.00000000
_cell_angle_gamma   90.00000000
_symmetry_Int_Tables_number   1
_chemical_formula_structural   PbClF
_chemical_formula_sum   'Pb2 Cl2 F2'
_cell_volume   160.55278420
_cell_formula_units_Z   2
loop_
 _symmetry_equiv_pos_site_id
 _symmetry_equiv_pos_as_xyz
  1  'x, y, z'
loop_
 _atom_site_type_symbol
 _atom_site_label
 _atom_site_symmetry_multiplicity
 _atom_site_fract_x
 _atom_site_fract_y
 _atom_site_fract_z
 _atom_site_occupancy
  Pb  Pb0  1  0.50000000  0.00000000  0.75187500  1
  Pb  Pb1  1  0.00000000  0.50000000  0.24812500  1
  Cl  Cl0  1  0.00000000  0.00000000  0.00000000  1
  Cl  Cl1  1  0.50000000  0.50000000  0.00000000  1
  F  F0  1  0.00000000  0.50000000  0.60094400  1
  F  F1  1  0.50000000  0.00000000  0.39905600  1
loop_
_geom_bond_atom_site_label_1
_geom_bond_atom_site_label_2
_geom_bond_distance
_geom_bond_site_symmetry_2
Cl0 Pb1 2.970003 1_545
Cl0 Pb1 2.970003 1_555
Cl0 Pb0 2.970003 1_554
Cl0 Pb0 2.970003 1_454
Cl1 Pb1 2.970003 1_655
Cl1 Pb1 2.970003 1_555
Cl1 Pb0 2.970003 1_554
Cl1 Pb0 2.970003 1_564
F0 Pb1 2.213660 1_555
F1 Pb0 2.213660 1_555
