# generated using pymatgen
data_CsKMo4(P3O13)2
_symmetry_space_group_name_H-M   'P 1'
_cell_length_a   19.19060700
_cell_length_b   6.49297200
_cell_length_c   19.13622501
_cell_angle_alpha   88.00965471
_cell_angle_beta   90.00000000
_cell_angle_gamma   90.00000000
_symmetry_Int_Tables_number   1
_chemical_formula_structural   CsKMo4(P3O13)2
_chemical_formula_sum   'Cs4 K4 Mo16 P24 O104'
_cell_volume   2383.01304030
_cell_formula_units_Z   4
loop_
 _symmetry_equiv_pos_site_id
 _symmetry_equiv_pos_as_xyz
  1  'x, y, z'
loop_
 _atom_site_type_symbol
 _atom_site_label
 _atom_site_symmetry_multiplicity
 _atom_site_fract_x
 _atom_site_fract_y
 _atom_site_fract_z
 _atom_site_occupancy
  Cs  Cs0  1  0.15577900  0.61253600  0.42583500  1
  Cs  Cs1  1  0.34422100  0.61253600  0.92583500  1
  Cs  Cs2  1  0.65577900  0.38746400  0.07416500  1
  Cs  Cs3  1  0.84422100  0.38746400  0.57416500  1
  K  K0  1  0.50064100  0.80133400  0.72131400  1
  K  K1  1  0.99935900  0.80133400  0.22131400  1
  K  K2  1  0.49935900  0.19866600  0.27868600  1
  K  K3  1  0.00064100  0.19866600  0.77868600  1
  Mo  Mo0  1  0.83364300  0.89539000  0.72161600  1
  Mo  Mo1  1  0.84223600  0.39601700  0.21800900  1
  Mo  Mo2  1  0.37696200  0.12773100  0.06218000  1
  Mo  Mo3  1  0.34223600  0.60398300  0.28199100  1
  Mo  Mo4  1  0.33364300  0.10461000  0.77838400  1
  Mo  Mo5  1  0.87108600  0.37181600  0.94522500  1
  Mo  Mo6  1  0.66635700  0.89539000  0.22161600  1
  Mo  Mo7  1  0.62303800  0.87226900  0.93782000  1
  Mo  Mo8  1  0.87696200  0.87226900  0.43782000  1
  Mo  Mo9  1  0.37108600  0.62818400  0.55477500  1
  Mo  Mo10  1  0.65776400  0.39601700  0.71800900  1
  Mo  Mo11  1  0.16635700  0.10461000  0.27838400  1
  Mo  Mo12  1  0.15776400  0.60398300  0.78199100  1
  Mo  Mo13  1  0.62891400  0.37181600  0.44522500  1
  Mo  Mo14  1  0.12891400  0.62818400  0.05477500  1
  Mo  Mo15  1  0.12303800  0.12773100  0.56218000  1
  P  P0  1  0.41528000  0.62834700  0.10522500  1
  P  P1  1  0.46079800  0.10437600  0.90239600  1
  P  P2  1  0.96079800  0.89562400  0.59760400  1
  P  P3  1  0.53194900  0.39236800  0.59694100  1
  P  P4  1  0.09382200  0.13033200  0.09968900  1
  P  P5  1  0.32070600  0.60968400  0.72848000  1
  P  P6  1  0.58472000  0.37165300  0.89477500  1
  P  P7  1  0.08472000  0.62834700  0.60522500  1
  P  P8  1  0.83076900  0.89065400  0.26639800  1
  P  P9  1  0.40617800  0.13033200  0.59968900  1
  P  P10  1  0.90617800  0.86966800  0.90031100  1
  P  P11  1  0.46805100  0.60763200  0.40305900  1
  P  P12  1  0.66923100  0.89065400  0.76639800  1
  P  P13  1  0.67929400  0.39031600  0.27152000  1
  P  P14  1  0.03920200  0.10437600  0.40239600  1
  P  P15  1  0.53920200  0.89562400  0.09760400  1
  P  P16  1  0.17929400  0.60968400  0.22848000  1
  P  P17  1  0.03194900  0.60763200  0.90305900  1
  P  P18  1  0.91528000  0.37165300  0.39477500  1
  P  P19  1  0.16923100  0.10934600  0.73360200  1
  P  P20  1  0.82070600  0.39031600  0.77152000  1
  P  P21  1  0.96805100  0.39236800  0.09694100  1
  P  P22  1  0.33076900  0.10934600  0.23360200  1
  P  P23  1  0.59382200  0.86966800  0.40031100  1
  O  O0  1  0.98992600  0.92853300  0.42159000  1
  O  O1  1  0.28545200  0.65399900  0.53166800  1
  O  O2  1  0.84397000  0.20940800  0.72567600  1
  O  O3  1  0.98229400  0.42978400  0.91911000  1
  O  O4  1  0.28728500  0.09657800  0.85470600  1
  O  O5  1  0.59894200  0.87042100  0.04545200  1
  O  O6  1  0.36870800  0.30831700  0.56124000  1
  O  O7  1  0.89849100  0.06649200  0.94124800  1
  O  O8  1  0.90060900  0.40003500  0.31751000  1
  O  O9  1  0.64615000  0.08464400  0.72363300  1
  O  O10  1  0.59439300  0.56453200  0.93835700  1
  O  O11  1  0.05973300  0.59297200  0.82746000  1
  O  O12  1  0.51026600  0.82389000  0.40485100  1
  O  O13  1  0.25809800  0.61087200  0.21313500  1
  O  O14  1  0.78728500  0.90342200  0.64529400  1
  O  O15  1  0.48229400  0.57021600  0.58089000  1
  O  O16  1  0.98973400  0.82389000  0.90485100  1
  O  O17  1  0.85385000  0.08464400  0.22363300  1
  O  O18  1  0.56772500  0.91463300  0.17248300  1
  O  O19  1  0.35225500  0.29019400  0.27940600  1
  O  O20  1  0.63129200  0.69168300  0.43876000  1
  O  O21  1  0.34438400  0.41706500  0.77258800  1
  O  O22  1  0.13129200  0.30831700  0.06124000  1
  O  O23  1  0.29013100  0.15598800  0.04619600  1
  O  O24  1  0.70986900  0.84401200  0.95380400  1
  O  O25  1  0.01026600  0.17611000  0.09514900  1
  O  O26  1  0.55973300  0.40702800  0.67254000  1
  O  O27  1  0.12338500  0.80677700  0.56680500  1
  O  O28  1  0.44026700  0.59297200  0.32746000  1
  O  O29  1  0.09894200  0.12957900  0.45454800  1
  O  O30  1  0.40560700  0.43546800  0.06164300  1
  O  O31  1  0.15561600  0.41706500  0.27258800  1
  O  O32  1  0.62342200  0.87556100  0.83275900  1
  O  O33  1  0.35385000  0.91535600  0.27636700  1
  O  O34  1  0.94026700  0.40702800  0.17254000  1
  O  O35  1  0.78545200  0.34600100  0.96833200  1
  O  O36  1  0.48973400  0.17611000  0.59514900  1
  O  O37  1  0.13665100  0.62498400  0.16087600  1
  O  O38  1  0.15603000  0.79059200  0.27432400  1
  O  O39  1  0.12342200  0.12443900  0.66724100  1
  O  O40  1  0.74190200  0.38912800  0.78686500  1
  O  O41  1  0.21454800  0.65399900  0.03166800  1
  O  O42  1  0.93227500  0.91463300  0.67248300  1
  O  O43  1  0.21271500  0.09657800  0.35470600  1
  O  O44  1  0.20822100  0.59750200  0.85560700  1
  O  O45  1  0.87661500  0.19322300  0.43319500  1
  O  O46  1  0.39849100  0.93350800  0.55875200  1
  O  O47  1  0.79177900  0.40249800  0.14439300  1
  O  O48  1  0.63665100  0.37501600  0.33912400  1
  O  O49  1  0.85225500  0.70980600  0.22059400  1
  O  O50  1  0.84438400  0.58293500  0.72741200  1
  O  O51  1  0.90105800  0.87042100  0.54545200  1
  O  O52  1  0.65561600  0.58293500  0.22741200  1
  O  O53  1  0.10150900  0.93350800  0.05875200  1
  O  O54  1  0.00186600  0.67673600  0.59654700  1
  O  O55  1  0.75282100  0.88963800  0.28613000  1
  O  O56  1  0.74717900  0.88963800  0.78613000  1
  O  O57  1  0.40750500  0.62808100  0.45350400  1
  O  O58  1  0.36334900  0.62498400  0.66087600  1
  O  O59  1  0.24717900  0.11036200  0.71387000  1
  O  O60  1  0.01770600  0.57021600  0.08089000  1
  O  O61  1  0.60971600  0.89717500  0.32212700  1
  O  O62  1  0.65603000  0.20940800  0.22567600  1
  O  O63  1  0.24190200  0.61087200  0.71313500  1
  O  O64  1  0.10971600  0.10282500  0.17787300  1
  O  O65  1  0.14615000  0.91535600  0.77636700  1
  O  O66  1  0.43227500  0.08536700  0.82751700  1
  O  O67  1  0.48992600  0.07146700  0.07841000  1
  O  O68  1  0.40105800  0.12957900  0.95454800  1
  O  O69  1  0.51770600  0.42978400  0.41911000  1
  O  O70  1  0.39028400  0.10282500  0.67787300  1
  O  O71  1  0.40060900  0.59996500  0.18249000  1
  O  O72  1  0.86334900  0.37501600  0.83912400  1
  O  O73  1  0.09939100  0.59996500  0.68249000  1
  O  O74  1  0.90560700  0.56453200  0.43835700  1
  O  O75  1  0.90750500  0.37191900  0.04649600  1
  O  O76  1  0.62338500  0.19322300  0.93319500  1
  O  O77  1  0.79013100  0.84401200  0.45380400  1
  O  O78  1  0.71271500  0.90342200  0.14529400  1
  O  O79  1  0.09249500  0.62808100  0.95350400  1
  O  O80  1  0.99813400  0.32326400  0.40345300  1
  O  O81  1  0.29177900  0.59750200  0.35560700  1
  O  O82  1  0.49813400  0.67673600  0.09654700  1
  O  O83  1  0.25282100  0.11036200  0.21387000  1
  O  O84  1  0.75809800  0.38912800  0.28686500  1
  O  O85  1  0.59939100  0.40003500  0.81751000  1
  O  O86  1  0.09439300  0.43546800  0.56164300  1
  O  O87  1  0.64774500  0.70980600  0.72059400  1
  O  O88  1  0.14774500  0.29019400  0.77940600  1
  O  O89  1  0.71454800  0.34600100  0.46833200  1
  O  O90  1  0.37661500  0.80677700  0.06680500  1
  O  O91  1  0.50186600  0.32326400  0.90345300  1
  O  O92  1  0.34397000  0.79059200  0.77432400  1
  O  O93  1  0.89028400  0.89717500  0.82212700  1
  O  O94  1  0.20986900  0.15598800  0.54619600  1
  O  O95  1  0.70822100  0.40249800  0.64439300  1
  O  O96  1  0.60150900  0.06649200  0.44124800  1
  O  O97  1  0.51007400  0.92853300  0.92159000  1
  O  O98  1  0.01007400  0.07146700  0.57841000  1
  O  O99  1  0.06772500  0.08536700  0.32751700  1
  O  O100  1  0.59249500  0.37191900  0.54649600  1
  O  O101  1  0.86870800  0.69168300  0.93876000  1
  O  O102  1  0.37657800  0.12443900  0.16724100  1
  O  O103  1  0.87657800  0.87556100  0.33275900  1
loop_
_geom_bond_atom_site_label_1
_geom_bond_atom_site_label_2
_geom_bond_distance
_geom_bond_site_symmetry_2
Cs0 O81 2.938775 1_555
Cs0 O86 3.042377 1_555
Cs0 O27 3.080689 1_555
Cs0 O38 3.083830 1_555
Cs0 O1 3.225619 1_555
Cs0 O31 3.235637 1_555
Cs0 O29 3.347437 1_555
Cs0 O43 3.553455 1_565
Cs0 O29 3.590288 1_565
Cs0 O80 3.594378 1_455
Cs0 O0 3.786170 1_455
Cs1 O44 2.938775 1_555
Cs1 O30 3.042377 1_556
Cs1 O90 3.080689 1_556
Cs1 O92 3.083830 1_555
Cs1 O41 3.225619 1_556
Cs1 O21 3.235637 1_555
Cs1 O68 3.347437 1_555
Cs1 O4 3.553455 1_565
Cs1 O68 3.590288 1_565
Cs1 O91 3.594378 1_555
Cs1 O97 3.786170 1_555
Cs2 O47 2.938775 1_555
Cs2 O10 3.042377 1_554
Cs2 O76 3.080689 1_554
Cs2 O62 3.083830 1_555
Cs2 O35 3.225619 1_554
Cs2 O52 3.235637 1_555
Cs2 O5 3.347437 1_555
Cs2 O78 3.553455 1_545
Cs2 O5 3.590288 1_545
Cs2 O82 3.594378 1_555
Cs2 O67 3.786170 1_555
Cs3 O95 2.938775 1_555
Cs3 O74 3.042377 1_555
Cs3 O45 3.080689 1_555
Cs3 O2 3.083830 1_555
Cs3 O89 3.225619 1_555
Cs3 O50 3.235637 1_555
Cs3 O51 3.347437 1_555
Cs3 O14 3.553455 1_545
Cs3 O51 3.590288 1_545
Cs3 O54 3.594378 1_655
Cs3 O98 3.786170 1_655
K0 O87 2.885022 1_555
K0 O26 2.979568 1_555
K0 O70 2.982492 1_565
K0 O66 3.084337 1_565
K0 O58 3.111663 1_555
K0 O15 3.142764 1_555
K0 O92 3.173120 1_555
K0 O32 3.225475 1_555
K0 O9 3.344999 1_565
K0 O36 3.374337 1_565
K1 O49 2.885022 1_555
K1 O34 2.979568 1_555
K1 O64 2.982492 1_665
K1 O99 3.084337 1_665
K1 O37 3.111663 1_655
K1 O60 3.142764 1_655
K1 O38 3.173120 1_655
K1 O103 3.225475 1_555
K1 O17 3.344999 1_565
K1 O25 3.374337 1_665
K2 O19 2.885022 1_555
K2 O28 2.979568 1_555
K2 O61 2.982492 1_545
K2 O18 3.084337 1_545
K2 O48 3.111663 1_555
K2 O69 3.142764 1_555
K2 O62 3.173120 1_555
K2 O102 3.225475 1_555
K2 O33 3.344999 1_545
K2 O12 3.374337 1_545
K3 O88 2.885022 1_555
K3 O11 2.979568 1_555
K3 O93 2.982492 1_445
K3 O42 3.084337 1_445
K3 O72 3.111663 1_455
K3 O3 3.142764 1_455
K3 O2 3.173120 1_455
K3 O39 3.225475 1_555
K3 O65 3.344999 1_545
K3 O16 3.374337 1_445
Mo0 O14 1.709383 1_555
Mo0 O50 2.038390 1_555
Mo0 O2 2.052674 1_565
Mo0 O56 2.067748 1_555
Mo0 O42 2.115227 1_555
Mo0 O93 2.209676 1_555
Mo1 O47 1.708738 1_555
Mo1 O17 2.033116 1_555
Mo1 O49 2.048782 1_555
Mo1 O34 2.072937 1_555
Mo1 O84 2.083559 1_555
Mo1 O8 2.210092 1_555
Mo2 O23 1.702942 1_555
Mo2 O102 2.009856 1_555
Mo2 O30 2.072047 1_555
Mo2 O90 2.082761 1_545
Mo2 O68 2.110568 1_554
Mo2 O67 2.218468 1_555
Mo3 O81 1.708738 1_555
Mo3 O33 2.033116 1_555
Mo3 O19 2.048782 1_555
Mo3 O28 2.072937 1_555
Mo3 O13 2.083559 1_555
Mo3 O71 2.210092 1_555
Mo4 O4 1.709383 1_555
Mo4 O21 2.038390 1_555
Mo4 O92 2.052674 1_545
Mo4 O59 2.067748 1_555
Mo4 O66 2.115227 1_555
Mo4 O70 2.209676 1_555
Mo5 O35 1.708546 1_555
Mo5 O72 2.035181 1_555
Mo5 O7 2.054997 1_555
Mo5 O75 2.060142 1_556
Mo5 O101 2.076777 1_555
Mo5 O3 2.221021 1_555
Mo6 O78 1.709383 1_555
Mo6 O52 2.038390 1_555
Mo6 O62 2.052674 1_565
Mo6 O55 2.067748 1_555
Mo6 O18 2.115227 1_555
Mo6 O61 2.209676 1_555
Mo7 O24 1.702942 1_555
Mo7 O32 2.009856 1_555
Mo7 O10 2.072047 1_555
Mo7 O76 2.082761 1_565
Mo7 O5 2.110568 1_556
Mo7 O97 2.218468 1_555
Mo8 O77 1.702942 1_555
Mo8 O103 2.009856 1_555
Mo8 O74 2.072047 1_555
Mo8 O45 2.082761 1_565
Mo8 O51 2.110568 1_555
Mo8 O0 2.218468 1_555
Mo9 O1 1.708546 1_555
Mo9 O58 2.035181 1_555
Mo9 O46 2.054997 1_555
Mo9 O57 2.060142 1_555
Mo9 O6 2.076777 1_555
Mo9 O15 2.221021 1_555
Mo10 O95 1.708738 1_555
Mo10 O9 2.033116 1_555
Mo10 O87 2.048782 1_555
Mo10 O26 2.072937 1_555
Mo10 O40 2.083559 1_555
Mo10 O85 2.210092 1_555
Mo11 O43 1.709383 1_555
Mo11 O31 2.038390 1_555
Mo11 O38 2.052674 1_545
Mo11 O83 2.067748 1_555
Mo11 O99 2.115227 1_555
Mo11 O64 2.209676 1_555
Mo12 O44 1.708738 1_555
Mo12 O65 2.033116 1_555
Mo12 O88 2.048782 1_555
Mo12 O11 2.072937 1_555
Mo12 O63 2.083559 1_555
Mo12 O73 2.210092 1_555
Mo13 O89 1.708546 1_555
Mo13 O48 2.035181 1_555
Mo13 O96 2.054997 1_555
Mo13 O100 2.060142 1_555
Mo13 O20 2.076777 1_555
Mo13 O69 2.221021 1_555
Mo14 O41 1.708546 1_555
Mo14 O37 2.035181 1_555
Mo14 O53 2.054997 1_555
Mo14 O79 2.060142 1_554
Mo14 O22 2.076777 1_555
Mo14 O60 2.221021 1_555
Mo15 O94 1.702942 1_555
Mo15 O39 2.009856 1_555
Mo15 O86 2.072047 1_555
Mo15 O27 2.082761 1_545
Mo15 O29 2.110568 1_555
Mo15 O98 2.218468 1_555
O0 P14 1.517757 1_665
O2 P20 1.555724 1_555
O3 P17 1.520269 1_655
O5 P15 1.532466 1_555
O6 P9 1.528034 1_555
O7 P10 1.529118 1_545
O8 P18 1.510113 1_555
O9 P12 1.542993 1_545
O10 P6 1.539791 1_555
O11 P17 1.547837 1_555
O12 P11 1.622495 1_555
O12 P23 1.632570 1_555
O13 P16 1.540510 1_555
O15 P3 1.520269 1_555
O16 P17 1.622495 1_655
O16 P10 1.632570 1_555
O17 P8 1.542993 1_545
O18 P15 1.542836 1_555
O19 P22 1.545519 1_555
O20 P23 1.528034 1_555
O21 P5 1.552341 1_555
O22 P4 1.528034 1_555
O25 P21 1.622495 1_455
O25 P4 1.632570 1_555
O26 P3 1.547837 1_555
O27 P7 1.540831 1_555
O28 P11 1.547837 1_555
O29 P14 1.532466 1_555
O30 P0 1.539791 1_555
O31 P16 1.552341 1_555
O32 P12 1.544805 1_555
O33 P22 1.542993 1_565
O34 P21 1.547837 1_555
O36 P3 1.622495 1_555
O36 P9 1.632570 1_555
O37 P16 1.531095 1_555
O38 P16 1.555724 1_555
O39 P19 1.544805 1_555
O40 P20 1.540510 1_555
O42 P2 1.542836 1_555
O45 P18 1.540831 1_555
O46 P9 1.529118 1_565
O48 P13 1.531095 1_555
O49 P8 1.545519 1_555
O50 P20 1.552341 1_555
O51 P2 1.532466 1_555
O52 P13 1.552341 1_555
O53 P4 1.529118 1_565
O54 P2 1.625867 1_455
O54 P7 1.628136 1_555
O55 P8 1.542749 1_555
O56 P12 1.542749 1_555
O57 P11 1.519353 1_555
O58 P5 1.531095 1_555
O59 P19 1.542749 1_555
O60 P21 1.520269 1_455
O61 P23 1.531283 1_555
O62 P13 1.555724 1_555
O63 P5 1.540510 1_555
O64 P4 1.531283 1_555
O65 P19 1.542993 1_565
O66 P1 1.542836 1_555
O67 P15 1.517757 1_545
O68 P1 1.532466 1_555
O69 P11 1.520269 1_555
O70 P9 1.531283 1_555
O71 P0 1.510113 1_555
O72 P20 1.531095 1_555
O73 P7 1.510113 1_555
O74 P18 1.539791 1_555
O75 P21 1.519353 1_555
O76 P6 1.540831 1_555
O79 P17 1.519353 1_555
O80 P14 1.625867 1_655
O80 P18 1.628136 1_555
O82 P15 1.625867 1_555
O82 P0 1.628136 1_555
O83 P22 1.542749 1_555
O84 P13 1.540510 1_555
O85 P6 1.510113 1_555
O86 P7 1.539791 1_555
O87 P12 1.545519 1_555
O88 P19 1.545519 1_555
O90 P0 1.540831 1_555
O91 P1 1.625867 1_555
O91 P6 1.628136 1_555
O92 P5 1.555724 1_555
O93 P10 1.531283 1_555
O96 P23 1.529118 1_545
O97 P1 1.517757 1_565
O98 P2 1.517757 1_445
O99 P14 1.542836 1_555
O100 P3 1.519353 1_555
O101 P10 1.528034 1_555
O102 P22 1.544805 1_555
O103 P8 1.544805 1_555
