# generated using pymatgen
data_SiO2
_symmetry_space_group_name_H-M   'P 1'
_cell_length_a   13.68029663
_cell_length_b   13.68029663
_cell_length_c   7.52367217
_cell_angle_alpha   90.00000000
_cell_angle_beta   90.00000000
_cell_angle_gamma   97.16150959
_symmetry_Int_Tables_number   1
_chemical_formula_structural   SiO2
_chemical_formula_sum   'Si24 O48'
_cell_volume   1397.07439975
_cell_formula_units_Z   24
loop_
 _symmetry_equiv_pos_site_id
 _symmetry_equiv_pos_as_xyz
  1  'x, y, z'
loop_
 _atom_site_type_symbol
 _atom_site_label
 _atom_site_symmetry_multiplicity
 _atom_site_fract_x
 _atom_site_fract_y
 _atom_site_fract_z
 _atom_site_occupancy
  Si  Si0  1  0.23228468  0.37820945  0.04326675  1
  Si  Si1  1  0.37820945  0.23228468  0.95673325  1
  Si  Si2  1  0.62179055  0.76771532  0.45673325  1
  Si  Si3  1  0.76771532  0.62179055  0.54326675  1
  Si  Si4  1  0.76771532  0.62179055  0.95673325  1
  Si  Si5  1  0.62179055  0.76771532  0.04326675  1
  Si  Si6  1  0.37820945  0.23228468  0.54326675  1
  Si  Si7  1  0.23228468  0.37820945  0.45673325  1
  Si  Si8  1  0.99261283  0.61393289  0.04478576  1
  Si  Si9  1  0.61393289  0.99261283  0.95521424  1
  Si  Si10  1  0.38606711  0.00738717  0.45521424  1
  Si  Si11  1  0.00738717  0.38606711  0.54478576  1
  Si  Si12  1  0.00738717  0.38606711  0.95521424  1
  Si  Si13  1  0.38606711  0.00738717  0.04478576  1
  Si  Si14  1  0.61393289  0.99261283  0.54478576  1
  Si  Si15  1  0.99261283  0.61393289  0.45521424  1
  Si  Si16  1  0.70775409  0.46597259  0.25000000  1
  Si  Si17  1  0.46597259  0.70775409  0.75000000  1
  Si  Si18  1  0.53402741  0.29224591  0.25000000  1
  Si  Si19  1  0.29224591  0.53402741  0.75000000  1
  Si  Si20  1  0.86242663  0.31127328  0.25000000  1
  Si  Si21  1  0.31127328  0.86242663  0.75000000  1
  Si  Si22  1  0.68872672  0.13757337  0.25000000  1
  Si  Si23  1  0.13757337  0.68872672  0.75000000  1
  O  O0  1  0.27752709  0.27752709  0.00000000  1
  O  O1  1  0.72247291  0.72247291  0.50000000  1
  O  O2  1  0.72247291  0.72247291  0.00000000  1
  O  O3  1  0.27752709  0.27752709  0.50000000  1
  O  O4  1  0.24743001  0.40668591  0.25000000  1
  O  O5  1  0.40668591  0.24743001  0.75000000  1
  O  O6  1  0.59331409  0.75256999  0.25000000  1
  O  O7  1  0.75256999  0.59331409  0.75000000  1
  O  O8  1  0.28809485  0.46694507  0.92641767  1
  O  O9  1  0.46694507  0.28809485  0.07358233  1
  O  O10  1  0.53305493  0.71190515  0.57358233  1
  O  O11  1  0.71190515  0.53305493  0.42641767  1
  O  O12  1  0.71190515  0.53305493  0.07358233  1
  O  O13  1  0.53305493  0.71190515  0.92641767  1
  O  O14  1  0.46694507  0.28809485  0.42641767  1
  O  O15  1  0.28809485  0.46694507  0.57358233  1
  O  O16  1  0.11699221  0.36109531  0.99506358  1
  O  O17  1  0.36109531  0.11699221  0.00493642  1
  O  O18  1  0.63890469  0.88300779  0.50493642  1
  O  O19  1  0.88300779  0.63890469  0.49506358  1
  O  O20  1  0.88300779  0.63890469  0.00493642  1
  O  O21  1  0.63890469  0.88300779  0.99506358  1
  O  O22  1  0.36109531  0.11699221  0.49506358  1
  O  O23  1  0.11699221  0.36109531  0.50493642  1
  O  O24  1  0.01960617  0.63544522  0.25000000  1
  O  O25  1  0.63544522  0.01960617  0.75000000  1
  O  O26  1  0.36455478  0.98039383  0.25000000  1
  O  O27  1  0.98039383  0.36455478  0.75000000  1
  O  O28  1  0.00000000  0.50000000  0.00000000  1
  O  O29  1  0.50000000  -0.00000000  0.00000000  1
  O  O30  1  0.50000000  -0.00000000  0.50000000  1
  O  O31  1  0.00000000  0.50000000  0.50000000  1
  O  O32  1  0.06979868  0.68384197  0.92544821  1
  O  O33  1  0.68384197  0.06979868  0.07455179  1
  O  O34  1  0.31615803  0.93020132  0.57455179  1
  O  O35  1  0.93020132  0.31615803  0.42544821  1
  O  O36  1  0.93020132  0.31615803  0.07455179  1
  O  O37  1  0.31615803  0.93020132  0.92544821  1
  O  O38  1  0.68384197  0.06979868  0.42544821  1
  O  O39  1  0.06979868  0.68384197  0.57455179  1
  O  O40  1  0.60629384  0.39370616  0.25000000  1
  O  O41  1  0.39370616  0.60629384  0.75000000  1
  O  O42  1  0.80055085  0.40420161  0.25000000  1
  O  O43  1  0.40420161  0.80055085  0.75000000  1
  O  O44  1  0.59579839  0.19944915  0.25000000  1
  O  O45  1  0.19944915  0.59579839  0.75000000  1
  O  O46  1  0.79041736  0.20958264  0.25000000  1
  O  O47  1  0.20958264  0.79041736  0.75000000  1
loop_
_geom_bond_atom_site_label_1
_geom_bond_atom_site_label_2
_geom_bond_distance
_geom_bond_site_symmetry_2
O0 Si1 1.612057 1_554
O0 Si0 1.612057 1_555
O1 Si3 1.612057 1_555
O1 Si2 1.612057 1_555
O2 Si4 1.612057 1_554
O2 Si5 1.612057 1_555
O3 Si7 1.612057 1_555
O3 Si6 1.612057 1_555
O4 Si0 1.610532 1_555
O4 Si7 1.610532 1_555
O5 Si1 1.610532 1_555
O5 Si6 1.610532 1_555
O6 Si5 1.610532 1_555
O6 Si2 1.610532 1_555
O7 Si3 1.610532 1_555
O7 Si4 1.610532 1_555
O8 Si19 1.610641 1_555
O8 Si0 1.611938 1_556
O9 Si18 1.610641 1_555
O9 Si1 1.611938 1_554
O10 Si17 1.610641 1_555
O10 Si2 1.611938 1_555
O11 Si16 1.610641 1_555
O11 Si3 1.611938 1_555
O12 Si16 1.610641 1_555
O12 Si4 1.611938 1_554
O13 Si17 1.610641 1_555
O13 Si5 1.611938 1_556
O14 Si18 1.610641 1_555
O14 Si6 1.611938 1_555
O15 Si19 1.610641 1_555
O15 Si7 1.611938 1_555
O16 Si0 1.606842 1_556
O16 Si12 1.607047 1_555
O17 Si1 1.606842 1_554
O17 Si13 1.607047 1_555
O18 Si2 1.606842 1_555
O18 Si14 1.607047 1_555
O19 Si3 1.606842 1_555
O19 Si15 1.607047 1_555
O20 Si4 1.606842 1_554
O20 Si8 1.607047 1_555
O21 Si5 1.606842 1_556
O21 Si9 1.607047 1_555
O22 Si6 1.606842 1_555
O22 Si10 1.607047 1_555
O23 Si7 1.606842 1_555
O23 Si11 1.607047 1_555
O24 Si8 1.606146 1_455
O24 Si15 1.606146 1_455
O25 Si14 1.606146 1_545
O25 Si9 1.606146 1_545
O26 Si13 1.606146 1_565
O26 Si10 1.606146 1_565
O27 Si11 1.606146 1_655
O27 Si12 1.606146 1_655
O28 Si12 1.610084 1_554
O28 Si8 1.610084 1_455
O29 Si13 1.610084 1_555
O29 Si9 1.610084 1_544
O30 Si10 1.610084 1_555
O30 Si14 1.610084 1_545
O31 Si11 1.610084 1_555
O31 Si15 1.610084 1_455
O32 Si8 1.607479 1_456
O32 Si23 1.609694 1_555
O33 Si9 1.607479 1_544
O33 Si22 1.609694 1_555
O34 Si10 1.607479 1_565
O34 Si21 1.609694 1_555
O35 Si11 1.607479 1_655
O35 Si20 1.609694 1_555
O36 Si12 1.607479 1_654
O36 Si20 1.609694 1_555
O37 Si13 1.607479 1_566
O37 Si21 1.609694 1_555
O38 Si14 1.607479 1_545
O38 Si22 1.609694 1_555
O39 Si15 1.607479 1_455
O39 Si23 1.609694 1_555
O40 Si16 1.600563 1_555
O40 Si18 1.600563 1_555
O41 Si19 1.600563 1_555
O41 Si17 1.600563 1_555
O42 Si16 1.610335 1_555
O42 Si20 1.612765 1_555
O43 Si17 1.610335 1_555
O43 Si21 1.612765 1_555
O44 Si18 1.610335 1_555
O44 Si22 1.612765 1_555
O45 Si19 1.610335 1_555
O45 Si23 1.612765 1_555
O46 Si20 1.601269 1_555
O46 Si22 1.601269 1_555
O47 Si21 1.601269 1_555
O47 Si23 1.601269 1_555
