# generated using pymatgen
data_K16Zr12Se61
_symmetry_space_group_name_H-M   'P 1'
_cell_length_a   12.78152000
_cell_length_b   15.10427564
_cell_length_c   15.53200409
_cell_angle_alpha   73.71743881
_cell_angle_beta   76.89499307
_cell_angle_gamma   71.36115758
_symmetry_Int_Tables_number   1
_chemical_formula_structural   K16Zr12Se61
_chemical_formula_sum   'K16 Zr12 Se61'
_cell_volume   2696.13689034
_cell_formula_units_Z   1
loop_
 _symmetry_equiv_pos_site_id
 _symmetry_equiv_pos_as_xyz
  1  'x, y, z'
loop_
 _atom_site_type_symbol
 _atom_site_label
 _atom_site_symmetry_multiplicity
 _atom_site_fract_x
 _atom_site_fract_y
 _atom_site_fract_z
 _atom_site_occupancy
  K  K0  1  0.00522900  0.02935500  0.17559400  1
  K  K1  1  0.13167200  0.61442300  0.34684300  1
  K  K2  1  0.28263000  0.30055300  0.14297800  1
  K  K3  1  0.21377300  0.25268900  0.82592500  1
  K  K4  1  0.15528800  0.63607800  0.63863600  1
  K  K5  1  0.60028300  0.10353300  0.34054700  1
  K  K6  1  0.37237000  0.83245900  0.32046800  1
  K  K7  1  0.41810800  0.46201200  0.84992300  1
  K  K8  1  0.58254500  0.53843800  0.14812900  1
  K  K9  1  0.62840900  0.16758100  0.67969900  1
  K  K10  1  0.40156000  0.89500300  0.65961900  1
  K  K11  1  0.86487500  0.36523700  0.34702600  1
  K  K12  1  0.78741700  0.74754000  0.17467100  1
  K  K13  1  0.71778200  0.69941500  0.85541500  1
  K  K14  1  0.89003700  0.38760800  0.65273000  1
  K  K15  1  0.99398500  0.97058000  0.82483000  1
  Zr  Zr0  1  0.11682500  0.06573100  0.50114100  1
  Zr  Zr1  1  0.07628100  0.58333700  0.00338000  1
  Zr  Zr2  1  0.25354400  0.24893800  0.50387700  1
  Zr  Zr3  1  0.24314700  0.74229200  0.00585100  1
  Zr  Zr4  1  0.40537500  0.42445400  0.48720500  1
  Zr  Zr5  1  0.38291800  0.92973600  0.00632600  1
  Zr  Zr6  1  0.61687800  0.06859800  0.99605400  1
  Zr  Zr7  1  0.58143900  0.57534300  0.51351500  1
  Zr  Zr8  1  0.75693400  0.25676600  0.99441800  1
  Zr  Zr9  1  0.74399500  0.74926200  0.49711700  1
  Zr  Zr10  1  0.92373700  0.41630100  0.99715400  1
  Zr  Zr11  1  0.88335400  0.93239300  0.49889100  1
  Se  Se0  1  0.01545500  0.77862100  0.01998300  1
  Se  Se1  1  0.06767400  0.53608300  0.18328000  1
  Se  Se2  1  0.07191600  0.39278500  0.45159200  1
  Se  Se3  1  0.13155800  0.25319100  0.37983900  1
  Se  Se4  1  0.10656000  0.15293000  0.63512700  1
  Se  Se5  1  0.27114800  0.09240900  0.06974300  1
  Se  Se6  1  0.25271400  0.07296200  0.33471100  1
  Se  Se7  1  0.08665500  0.79937700  0.14559300  1
  Se  Se8  1  0.06928100  0.81810300  0.41539500  1
  Se  Se9  1  0.24665600  0.55196400  0.09974500  1
  Se  Se10  1  0.01475900  0.72305000  0.85323000  1
  Se  Se11  1  0.44661400  0.00892400  0.12330500  1
  Se  Se12  1  0.33936200  0.06943800  0.45909700  1
  Se  Se13  1  0.02287300  0.92280500  0.61685800  1
  Se  Se14  1  0.28850200  0.00964500  0.84909100  1
  Se  Se15  1  0.21459500  0.39717200  0.59807500  1
  Se  Se16  1  0.14328100  0.42105100  0.95366400  1
  Se  Se17  1  0.31839100  0.39150500  0.35714400  1
  Se  Se18  1  0.36965100  0.13130100  0.64170800  1
  Se  Se19  1  0.21391100  0.87206600  0.54907200  1
  Se  Se20  1  0.21237400  0.67654300  0.86146700  1
  Se  Se21  1  0.35845200  0.76800100  0.13333200  1
  Se  Se22  1  0.37361700  0.38447100  0.66881600  1
  Se  Se23  1  0.47428500  0.21540200  0.51121600  1
  Se  Se24  1  0.37186600  0.60720200  0.45975700  1
  Se  Se25  1  0.59399700  0.19654900  0.11880800  1
  Se  Se26  1  0.55341800  0.37018900  0.05102400  1
  Se  Se27  1  0.17099600  0.94028300  0.98231000  1
  Se  Se28  1  0.52083000  0.35837100  0.33487000  1
  Se  Se29  1  0.45088700  0.22432600  0.93148000  1
  Se  Se30  1  0.54890200  0.77436700  0.07094500  1
  Se  Se31  1  0.46731200  0.65501600  0.65912300  1
  Se  Se32  1  0.82899400  0.05835700  0.01944100  1
  Se  Se33  1  0.62612400  0.38664800  0.49633600  1
  Se  Se34  1  0.44687500  0.62892900  0.94931200  1
  Se  Se35  1  0.40620500  0.80286000  0.88248800  1
  Se  Se36  1  0.52223600  0.78071100  0.48798700  1
  Se  Se37  1  0.63326700  0.61569500  0.32809800  1
  Se  Se38  1  0.64143600  0.22926900  0.86913500  1
  Se  Se39  1  0.62881800  0.40750500  0.64250300  1
  Se  Se40  1  0.78816300  0.32287000  0.13879300  1
  Se  Se41  1  0.78734700  0.12682000  0.45114100  1
  Se  Se42  1  0.63143600  0.86547900  0.35793000  1
  Se  Se43  1  0.66731500  0.62052900  0.64620300  1
  Se  Se44  1  0.85712400  0.57866400  0.04667300  1
  Se  Se45  1  0.78168300  0.59484200  0.41036700  1
  Se  Se46  1  0.71249100  0.98916700  0.15287900  1
  Se  Se47  1  0.97788800  0.07607700  0.38310900  1
  Se  Se48  1  0.66012200  0.92949100  0.54024700  1
  Se  Se49  1  0.55224800  0.98987200  0.87877700  1
  Se  Se50  1  0.98606700  0.27609700  0.14693400  1
  Se  Se51  1  0.75376500  0.44752800  0.90069300  1
  Se  Se52  1  0.93121800  0.18185700  0.58275800  1
  Se  Se53  1  0.91313900  0.20086200  0.85411100  1
  Se  Se54  1  0.74650600  0.92715000  0.66467300  1
  Se  Se55  1  0.72828000  0.90659700  0.93135000  1
  Se  Se56  1  0.89289400  0.84640100  0.36484400  1
  Se  Se57  1  0.87137200  0.74549900  0.61859200  1
  Se  Se58  1  0.93107900  0.60920800  0.54393900  1
  Se  Se59  1  0.93213800  0.46581600  0.81779100  1
  Se  Se60  1  0.98483100  0.22084200  0.97922400  1
loop_
_geom_bond_atom_site_label_1
_geom_bond_atom_site_label_2
_geom_bond_distance
_geom_bond_site_symmetry_2
K0 Se47 3.408184 1_455
K0 Se7 3.426868 1_545
K0 Se32 3.521256 1_455
K0 Se60 3.559184 1_454
K0 Se50 3.561366 1_455
K0 Se27 3.587483 1_544
K0 Se5 3.717432 1_555
K0 Se56 3.795469 1_445
K1 Se8 3.334322 1_555
K1 Se1 3.430723 1_555
K1 Se17 3.434056 1_555
K1 Se58 3.519359 1_455
K1 Se2 3.529028 1_555
K1 Se7 3.577360 1_555
K1 Se24 3.825324 1_555
K2 Se16 3.526019 1_554
K2 Se9 3.560406 1_555
K2 Se5 3.684455 1_555
K2 Se3 3.736383 1_555
K2 Se29 3.751836 1_554
K2 Se25 3.755536 1_555
K2 Se26 3.790537 1_555
K2 Se1 3.849344 1_555
K2 Se50 3.909600 1_455
K2 Se6 3.926207 1_555
K3 Se60 3.400217 1_455
K3 Se14 3.419347 1_555
K3 Se22 3.421352 1_555
K3 Se16 3.430599 1_555
K3 Se15 3.599158 1_555
K3 Se29 3.617439 1_555
K3 Se18 3.679618 1_555
K4 Se24 3.463013 1_555
K4 Se57 3.519563 1_455
K4 Se15 3.647266 1_555
K4 Se58 3.678322 1_455
K4 Se19 3.695375 1_555
K4 Se10 3.780670 1_555
K4 Se8 3.903982 1_555
K4 Se22 3.907051 1_555
K4 Se20 3.937124 1_555
K5 Se25 3.343926 1_555
K5 Se23 3.363320 1_555
K5 Se41 3.395566 1_555
K5 Se42 3.427717 1_545
K5 Se48 3.512069 1_545
K5 Se12 3.543879 1_555
K5 Se46 3.589071 1_545
K5 Se28 3.634099 1_555
K6 Se36 3.348542 1_555
K6 Se21 3.370437 1_555
K6 Se24 3.483762 1_555
K6 Se6 3.511396 1_565
K6 Se11 3.620028 1_565
K6 Se42 3.693749 1_555
K6 Se19 3.771310 1_555
K6 Se37 3.851801 1_555
K6 Se8 3.872444 1_555
K7 Se29 3.376080 1_555
K7 Se34 3.450626 1_555
K7 Se20 3.480254 1_555
K7 Se22 3.550537 1_555
K7 Se26 3.627412 1_556
K7 Se31 3.627467 1_555
K7 Se16 3.685331 1_555
K7 Se38 3.738855 1_555
K7 Se39 3.800731 1_555
K8 Se30 3.343593 1_555
K8 Se26 3.446752 1_555
K8 Se40 3.485931 1_555
K8 Se28 3.513177 1_555
K8 Se37 3.567911 1_555
K8 Se34 3.599662 1_554
K8 Se44 3.672525 1_555
K8 Se21 3.712536 1_555
K9 Se38 3.378131 1_555
K9 Se23 3.408621 1_555
K9 Se39 3.507568 1_555
K9 Se54 3.511781 1_545
K9 Se49 3.655752 1_545
K9 Se33 3.708381 1_555
K9 Se18 3.716398 1_555
K9 Se41 3.776769 1_555
K9 Se22 3.806030 1_555
K9 Se52 3.873246 1_555
K10 Se35 3.355898 1_555
K10 Se36 3.388151 1_555
K10 Se18 3.398015 1_565
K10 Se19 3.398949 1_555
K10 Se31 3.451265 1_555
K10 Se48 3.522925 1_555
K10 Se12 3.529364 1_565
K10 Se14 3.616174 1_565
K11 Se3 3.370356 1_655
K11 Se33 3.372766 1_555
K11 Se50 3.563853 1_555
K11 Se2 3.584069 1_655
K11 Se45 3.634195 1_555
K11 Se40 3.851117 1_555
K11 Se41 3.854069 1_555
K12 Se37 3.353254 1_555
K12 Se0 3.399237 1_655
K12 Se46 3.401690 1_555
K12 Se44 3.440964 1_555
K12 Se30 3.622868 1_555
K12 Se42 3.640019 1_555
K12 Se45 3.738757 1_555
K12 Se1 3.964224 1_655
K13 Se44 3.550737 1_556
K13 Se51 3.564929 1_555
K13 Se55 3.689384 1_555
K13 Se57 3.745888 1_555
K13 Se35 3.756261 1_555
K13 Se30 3.799186 1_556
K13 Se34 3.800758 1_555
K13 Se59 3.814210 1_555
K13 Se10 3.916347 1_655
K13 Se54 3.917069 1_555
K13 Se43 4.000978 1_555
K14 Se39 3.291706 1_555
K14 Se59 3.314787 1_555
K14 Se52 3.421264 1_555
K14 Se2 3.443256 1_655
K14 Se58 3.447093 1_555
K14 Se53 3.572947 1_555
K14 Se43 3.744379 1_555
K14 Se4 3.772020 1_655
K15 Se13 3.418668 1_655
K15 Se53 3.427725 1_565
K15 Se27 3.539922 1_655
K15 Se0 3.551059 1_656
K15 Se10 3.568919 1_655
K15 Se32 3.593204 1_566
K15 Se55 3.722658 1_555
K15 Se4 3.794469 1_665
Se0 Se7 2.462365 1_555
Se0 Zr3 2.752442 1_555
Se0 Zr1 2.870716 1_555
Se0 Se10 2.940579 1_554
Se1 Se9 2.409276 1_555
Se1 Zr1 2.668632 1_555
Se2 Se3 2.484711 1_555
Se2 Zr2 2.722287 1_555
Se3 Zr2 2.715785 1_555
Se3 Se6 2.860599 1_555
Se3 Zr0 2.964927 1_555
Se4 Se52 2.424183 1_455
Se4 Zr0 2.717622 1_555
Se4 Zr2 2.852209 1_555
Se5 Zr5 2.742907 1_545
Se6 Zr0 2.763650 1_555
Se7 Zr3 2.726450 1_555
Se8 Zr11 2.746786 1_455
Se9 Zr1 2.761824 1_555
Se9 Zr3 2.826561 1_555
Se10 Se20 2.419008 1_555
Se10 Zr1 2.742557 1_556
Se11 Se5 2.400441 1_555
Se11 Zr6 2.785526 1_554
Se11 Zr5 2.811837 1_545
Se12 Se6 2.415943 1_555
Se12 Zr0 2.785492 1_555
Se12 Zr2 2.801453 1_555
Se13 Se19 2.397608 1_555
Se13 Zr11 2.779570 1_455
Se13 Zr0 2.799175 1_565
Se14 Se27 2.452689 1_545
Se14 Zr5 2.762220 1_546
Se14 Se35 2.954570 1_545
Se15 Se22 2.453685 1_555
Se15 Zr4 2.724239 1_555
Se15 Zr2 2.862789 1_555
Se16 Zr1 2.599581 1_556
Se16 Zr10 2.752748 1_455
Se17 Se28 2.434876 1_555
Se17 Zr4 2.738700 1_555
Se17 Zr2 2.837319 1_555
Se18 Se23 2.433753 1_555
Se18 Zr2 2.750387 1_555
Se19 Zr0 2.743768 1_565
Se20 Zr1 2.820063 1_556
Se20 Zr3 2.840523 1_556
Se21 Se30 2.429291 1_555
Se21 Zr5 2.731886 1_555
Se21 Zr3 2.891986 1_555
Se22 Zr4 2.677409 1_555
Se23 Zr2 2.725775 1_555
Se23 Zr4 2.931907 1_555
Se24 Zr4 2.579063 1_555
Se24 Zr7 2.840593 1_555
Se25 Se26 2.466938 1_555
Se25 Zr8 2.701467 1_554
Se25 Se46 2.964292 1_545
Se25 Zr6 2.984588 1_554
Se26 Zr8 2.726428 1_554
Se27 Zr5 2.765960 1_556
Se27 Zr3 2.775649 1_556
Se28 Zr4 2.751666 1_555
Se29 Se38 2.425112 1_555
Se29 Zr6 2.737160 1_555
Se30 Zr5 2.734564 1_555
Se31 Se43 2.412741 1_555
Se31 Zr7 2.756600 1_555
Se31 Se36 2.887664 1_555
Se32 Se46 2.446566 1_545
Se32 Zr6 2.766462 1_554
Se32 Zr8 2.779425 1_554
Se33 Se39 2.387042 1_555
Se33 Zr4 2.722733 1_555
Se33 Zr7 2.799518 1_555
Se34 Se35 2.468176 1_555
Se34 Zr3 2.727604 1_556
Se35 Zr3 2.697551 1_556
Se35 Zr5 2.983868 1_556
Se36 Se42 2.466055 1_555
Se36 Zr9 2.750191 1_555
Se36 Zr7 2.880595 1_555
Se37 Se45 2.412908 1_555
Se37 Zr7 2.740951 1_555
Se38 Zr6 2.719875 1_555
Se38 Zr8 2.878546 1_555
Se39 Zr7 2.743719 1_555
Se40 Se50 2.422025 1_555
Se40 Zr10 2.815580 1_554
Se40 Zr8 2.846204 1_554
Se41 Se47 2.393576 1_555
Se41 Zr11 2.750977 1_545
Se42 Zr9 2.737318 1_555
Se43 Zr9 2.787034 1_555
Se43 Zr7 2.865542 1_555
Se44 Zr10 2.599363 1_554
Se44 Zr1 2.747590 1_655
Se45 Zr7 2.749891 1_555
Se45 Zr9 2.870085 1_555
Se46 Zr6 2.764055 1_564
Se47 Zr0 2.770768 1_655
Se47 Zr11 2.811800 1_545
Se48 Se54 2.420653 1_555
Se48 Zr11 2.790802 1_555
Se48 Zr9 2.800012 1_555
Se49 Se55 2.399877 1_555
Se49 Zr5 2.781569 1_556
Se49 Zr6 2.817657 1_565
Se50 Zr10 2.744233 1_554
Se50 Se60 2.954369 1_554
Se51 Se59 2.409151 1_555
Se51 Zr10 2.758931 1_555
Se51 Zr8 2.832478 1_555
Se52 Zr0 2.744960 1_655
Se53 Se60 2.453584 1_555
Se53 Zr8 2.725709 1_555
Se54 Zr11 2.761842 1_555
Se54 Se57 2.893357 1_555
Se55 Zr6 2.743678 1_565
Se56 Se8 2.424971 1_655
Se56 Zr11 2.708635 1_555
Se56 Zr9 2.883932 1_555
Se57 Se58 2.469336 1_555
Se57 Zr9 2.736303 1_555
Se57 Zr11 2.941607 1_555
Se58 Zr9 2.722929 1_555
Se59 Zr10 2.660690 1_555
Se60 Zr8 2.754037 1_555
Se60 Zr10 2.879589 1_555
