# generated using pymatgen
data_NaTi2(PO4)3
_symmetry_space_group_name_H-M   'P 1'
_cell_length_a   8.86750919
_cell_length_b   8.86750919
_cell_length_c   8.86750925
_cell_angle_alpha   58.13793009
_cell_angle_beta   58.13793009
_cell_angle_gamma   58.13793121
_symmetry_Int_Tables_number   1
_chemical_formula_structural   NaTi2(PO4)3
_chemical_formula_sum   'Na2 Ti4 P6 O24'
_cell_volume   472.00461866
_cell_formula_units_Z   2
loop_
 _symmetry_equiv_pos_site_id
 _symmetry_equiv_pos_as_xyz
  1  'x, y, z'
loop_
 _atom_site_type_symbol
 _atom_site_label
 _atom_site_symmetry_multiplicity
 _atom_site_fract_x
 _atom_site_fract_y
 _atom_site_fract_z
 _atom_site_occupancy
  Na  Na0  1  0.50000000  0.50000000  0.50000000  1
  Na  Na1  1  0.00000000  0.00000000  0.00000000  1
  Ti  Ti0  1  0.85540800  0.85540800  0.85540800  1
  Ti  Ti1  1  0.64459200  0.64459200  0.64459200  1
  Ti  Ti2  1  0.35540800  0.35540800  0.35540800  1
  Ti  Ti3  1  0.14459200  0.14459200  0.14459200  1
  P  P0  1  0.96279000  0.25000000  0.53721000  1
  P  P1  1  0.53721000  0.96279000  0.25000000  1
  P  P2  1  0.03721000  0.75000000  0.46279000  1
  P  P3  1  0.46279000  0.03721000  0.75000000  1
  P  P4  1  0.25000000  0.53721000  0.96279000  1
  P  P5  1  0.75000000  0.46279000  0.03721000  1
  O  O0  1  0.92299200  0.27995100  0.06033200  1
  O  O1  1  0.06033200  0.92299200  0.27995100  1
  O  O2  1  0.27995100  0.06033200  0.92299200  1
  O  O3  1  0.57700800  0.43966800  0.22004900  1
  O  O4  1  0.22004900  0.57700800  0.43966800  1
  O  O5  1  0.43966800  0.22004900  0.57700800  1
  O  O6  1  0.07700800  0.72004900  0.93966800  1
  O  O7  1  0.93966800  0.07700800  0.72004900  1
  O  O8  1  0.72004900  0.93966800  0.07700800  1
  O  O9  1  0.42299200  0.56033200  0.77995100  1
  O  O10  1  0.77995100  0.42299200  0.56033200  1
  O  O11  1  0.56033200  0.77995100  0.42299200  1
  O  O12  1  0.49703000  0.86764200  0.71351900  1
  O  O13  1  0.86764200  0.71351900  0.49703000  1
  O  O14  1  0.71351900  0.49703000  0.86764200  1
  O  O15  1  0.63235800  0.00297000  0.78648100  1
  O  O16  1  0.00297000  0.78648100  0.63235800  1
  O  O17  1  0.78648100  0.63235800  0.00297000  1
  O  O18  1  0.50297000  0.13235800  0.28648100  1
  O  O19  1  0.13235800  0.28648100  0.50297000  1
  O  O20  1  0.28648100  0.50297000  0.13235800  1
  O  O21  1  0.36764200  0.99703000  0.21351900  1
  O  O22  1  0.99703000  0.21351900  0.36764200  1
  O  O23  1  0.21351900  0.36764200  0.99703000  1
loop_
_geom_bond_atom_site_label_1
_geom_bond_atom_site_label_2
_geom_bond_distance
_geom_bond_site_symmetry_2
Na0 O11 2.478289 1_555
Na0 O5 2.478289 1_555
Na0 O4 2.478289 1_555
Na0 O10 2.478289 1_555
Na0 O9 2.478289 1_555
Na0 O3 2.478289 1_555
Na1 O8 2.478289 1_445
Na1 O2 2.478289 1_554
Na1 O6 2.478289 1_544
Na1 O0 2.478289 1_455
Na1 O7 2.478289 1_454
Na1 O1 2.478289 1_545
O0 P5 1.542474 1_555
O0 Ti3 1.993362 1_655
O1 P2 1.542474 1_555
O1 Ti3 1.993362 1_565
O2 P3 1.542474 1_555
O2 Ti3 1.993362 1_556
O3 P5 1.542474 1_555
O3 Ti2 1.993362 1_555
O4 P2 1.542474 1_555
O4 Ti2 1.993362 1_555
O5 P3 1.542474 1_555
O5 Ti2 1.993362 1_555
O6 P4 1.542474 1_555
O6 Ti0 1.993362 1_455
O7 P0 1.542474 1_555
O7 Ti0 1.993362 1_545
O8 P1 1.542474 1_555
O8 Ti0 1.993362 1_554
O9 P4 1.542474 1_555
O9 Ti1 1.993362 1_555
O10 P0 1.542474 1_555
O10 Ti1 1.993362 1_555
O11 P1 1.542474 1_555
O11 Ti1 1.993362 1_555
O12 P3 1.544551 1_565
O12 Ti1 1.922866 1_555
O13 P2 1.544551 1_655
O13 Ti1 1.922866 1_555
O14 P5 1.544551 1_556
O14 Ti1 1.922866 1_555
O15 P3 1.544551 1_555
O15 Ti0 1.922866 1_545
O16 P2 1.544551 1_555
O16 Ti0 1.922866 1_455
O17 P5 1.544551 1_555
O17 Ti0 1.922866 1_554
O18 P1 1.544551 1_545
O18 Ti2 1.922866 1_555
O19 P0 1.544551 1_455
O19 Ti2 1.922866 1_555
O20 P4 1.544551 1_554
O20 Ti2 1.922866 1_555
O21 P1 1.544551 1_555
O21 Ti3 1.922866 1_565
O22 P0 1.544551 1_555
O22 Ti3 1.922866 1_655
O23 P4 1.544551 1_555
O23 Ti3 1.922866 1_556
