# generated using pymatgen
data_CaTa2Ga2(CuO4)3
_symmetry_space_group_name_H-M   'P 1'
_cell_length_a   7.54200300
_cell_length_b   7.55538692
_cell_length_c   15.08828662
_cell_angle_alpha   89.85304202
_cell_angle_beta   89.92442476
_cell_angle_gamma   89.84148327
_symmetry_Int_Tables_number   1
_chemical_formula_structural   CaTa2Ga2(CuO4)3
_chemical_formula_sum   'Ca4 Ta8 Ga8 Cu12 O48'
_cell_volume   859.76521750
_cell_formula_units_Z   4
loop_
 _symmetry_equiv_pos_site_id
 _symmetry_equiv_pos_as_xyz
  1  'x, y, z'
loop_
 _atom_site_type_symbol
 _atom_site_label
 _atom_site_symmetry_multiplicity
 _atom_site_fract_x
 _atom_site_fract_y
 _atom_site_fract_z
 _atom_site_occupancy
  Ca  Ca0  1  0.75260300  0.73246600  0.87562600  1
  Ca  Ca1  1  0.74873100  0.74823500  0.37495300  1
  Ca  Ca2  1  0.25126900  0.25176500  0.62504700  1
  Ca  Ca3  1  0.24739700  0.26753400  0.12437400  1
  Ta  Ta0  1  0.00000000  0.00000000  0.00000000  1
  Ta  Ta1  1  0.99630000  0.00088200  0.74640300  1
  Ta  Ta2  1  0.50000000  0.00000000  0.00000000  1
  Ta  Ta3  1  0.00370000  0.99911800  0.25359700  1
  Ta  Ta4  1  0.50000000  0.00000000  0.50000000  1
  Ta  Ta5  1  0.00000000  0.50000000  0.50000000  1
  Ta  Ta6  1  0.50099600  0.49978900  0.25046200  1
  Ta  Ta7  1  0.49900400  0.50021100  0.74953800  1
  Ga  Ga0  1  0.50032400  0.99928700  0.75093100  1
  Ga  Ga1  1  0.00000000  0.00000000  0.50000000  1
  Ga  Ga2  1  0.49967600  0.00071300  0.24906900  1
  Ga  Ga3  1  0.00000000  0.50000000  0.00000000  1
  Ga  Ga4  1  0.00239700  0.50024100  0.75335200  1
  Ga  Ga5  1  0.99760300  0.49975900  0.24664800  1
  Ga  Ga6  1  0.50000000  0.50000000  0.00000000  1
  Ga  Ga7  1  0.50000000  0.50000000  0.50000000  1
  Cu  Cu0  1  0.74959600  0.74955500  0.62500800  1
  Cu  Cu1  1  0.24910400  0.74275900  0.87528800  1
  Cu  Cu2  1  0.24999900  0.74996300  0.62501500  1
  Cu  Cu3  1  0.74995900  0.74538900  0.12538400  1
  Cu  Cu4  1  0.25069800  0.74826400  0.37505000  1
  Cu  Cu5  1  0.25013100  0.74213300  0.12517600  1
  Cu  Cu6  1  0.74986900  0.25786700  0.87482400  1
  Cu  Cu7  1  0.74930200  0.25173600  0.62495000  1
  Cu  Cu8  1  0.25004100  0.25461100  0.87461600  1
  Cu  Cu9  1  0.75000100  0.25003700  0.37498500  1
  Cu  Cu10  1  0.75089600  0.25724100  0.12471200  1
  Cu  Cu11  1  0.25040400  0.25044500  0.37499200  1
  O  O0  1  0.24888600  0.94630500  0.71370000  1
  O  O1  1  0.25020200  0.94684500  0.53692000  1
  O  O2  1  0.24875900  0.94595000  0.21229800  1
  O  O3  1  0.24931100  0.94649800  0.03734800  1
  O  O4  1  0.44515200  0.92548400  0.87649600  1
  O  O5  1  0.05332300  0.92636600  0.87542800  1
  O  O6  1  0.44639300  0.92630000  0.37519500  1
  O  O7  1  0.05411700  0.92529500  0.37589300  1
  O  O8  1  0.92646400  0.75002500  0.52664200  1
  O  O9  1  0.57354800  0.74967800  0.72316100  1
  O  O10  1  0.92576900  0.75523300  0.02709500  1
  O  O11  1  0.57353700  0.74953500  0.22365100  1
  O  O12  1  0.92683100  0.75150400  0.72314800  1
  O  O13  1  0.92599200  0.75365700  0.22337100  1
  O  O14  1  0.57345300  0.75045400  0.52662400  1
  O  O15  1  0.57446800  0.75270000  0.02703300  1
  O  O16  1  0.44815000  0.57232200  0.87355200  1
  O  O17  1  0.05331000  0.57455800  0.87498100  1
  O  O18  1  0.44669000  0.57359400  0.37539500  1
  O  O19  1  0.05288700  0.57317000  0.37478900  1
  O  O20  1  0.24948300  0.55310500  0.53667200  1
  O  O21  1  0.25035600  0.55272300  0.71227000  1
  O  O22  1  0.25169400  0.55372600  0.03724400  1
  O  O23  1  0.25059500  0.55246600  0.21478500  1
  O  O24  1  0.74940500  0.44753400  0.78521500  1
  O  O25  1  0.74830600  0.44627400  0.96275600  1
  O  O26  1  0.74964400  0.44727700  0.28773000  1
  O  O27  1  0.75051700  0.44689500  0.46332800  1
  O  O28  1  0.94711300  0.42683000  0.62521100  1
  O  O29  1  0.55331000  0.42640600  0.62460500  1
  O  O30  1  0.94669000  0.42544200  0.12501900  1
  O  O31  1  0.55185000  0.42767800  0.12644800  1
  O  O32  1  0.42553200  0.24730000  0.97296700  1
  O  O33  1  0.42654700  0.24954600  0.47337600  1
  O  O34  1  0.07400800  0.24634300  0.77662900  1
  O  O35  1  0.07316900  0.24849600  0.27685200  1
  O  O36  1  0.42646300  0.25046500  0.77634900  1
  O  O37  1  0.07423100  0.24476700  0.97290500  1
  O  O38  1  0.42645200  0.25032200  0.27683900  1
  O  O39  1  0.07353600  0.24997500  0.47335800  1
  O  O40  1  0.94588300  0.07470500  0.62410700  1
  O  O41  1  0.55360700  0.07370000  0.62480500  1
  O  O42  1  0.94667700  0.07363400  0.12457200  1
  O  O43  1  0.55484800  0.07451600  0.12350400  1
  O  O44  1  0.75068900  0.05350200  0.96265200  1
  O  O45  1  0.75124100  0.05405000  0.78770200  1
  O  O46  1  0.74979800  0.05315500  0.46308000  1
  O  O47  1  0.75111400  0.05369500  0.28630000  1
loop_
_geom_bond_atom_site_label_1
_geom_bond_atom_site_label_2
_geom_bond_distance
_geom_bond_site_symmetry_2
Ca0 O25 2.527950 1_555
Ca0 O24 2.551733 1_555
Ca0 O17 2.559693 1_655
Ca0 O16 2.598689 1_555
Ca0 O10 2.639980 1_556
Ca0 O12 2.651724 1_555
Ca0 O15 2.653247 1_556
Ca0 O9 2.671755 1_555
Ca0 O5 2.703426 1_655
Ca0 O4 2.735875 1_555
Ca0 O44 2.761116 1_565
Ca0 O45 2.765284 1_565
Ca1 O26 2.630148 1_555
Ca1 O27 2.635538 1_555
Ca1 O18 2.635693 1_555
Ca1 O11 2.639188 1_555
Ca1 O14 2.641391 1_555
Ca1 O6 2.644329 1_555
Ca1 O19 2.644787 1_655
Ca1 O13 2.647948 1_555
Ca1 O8 2.653987 1_555
Ca1 O46 2.662971 1_565
Ca1 O47 2.664609 1_565
Ca1 O7 2.666807 1_655
Ca2 O21 2.630148 1_555
Ca2 O20 2.635538 1_555
Ca2 O29 2.635693 1_555
Ca2 O36 2.639188 1_555
Ca2 O33 2.641391 1_555
Ca2 O41 2.644329 1_555
Ca2 O28 2.644787 1_455
Ca2 O34 2.647948 1_555
Ca2 O39 2.653987 1_555
Ca2 O1 2.662971 1_545
Ca2 O0 2.664609 1_545
Ca2 O40 2.666807 1_455
Ca3 O22 2.527950 1_555
Ca3 O23 2.551733 1_555
Ca3 O30 2.559693 1_455
Ca3 O31 2.598689 1_555
Ca3 O37 2.639980 1_554
Ca3 O35 2.651724 1_555
Ca3 O32 2.653247 1_554
Ca3 O38 2.671755 1_555
Ca3 O42 2.703426 1_455
Ca3 O43 2.735875 1_555
Ca3 O3 2.761116 1_545
Ca3 O2 2.765284 1_545
Ga0 O9 2.008686 1_555
Ga0 O36 2.013992 1_565
Ga0 O4 2.016735 1_555
Ga0 O45 2.017060 1_565
Ga0 O0 2.019925 1_555
Ga0 O41 2.023075 1_565
Ga1 O40 1.998445 1_455
Ga1 O7 1.998445 1_545
Ga1 O1 2.007460 1_545
Ga1 O46 2.007460 1_455
Ga1 O39 2.009359 1_555
Ga1 O8 2.009359 1_445
Ga2 O38 2.008686 1_555
Ga2 O11 2.013992 1_545
Ga2 O43 2.016735 1_555
Ga2 O2 2.017060 1_545
Ga2 O47 2.019925 1_555
Ga2 O6 2.023075 1_545
Ga3 O30 2.007733 1_455
Ga3 O17 2.007733 1_554
Ga3 O22 2.022934 1_555
Ga3 O25 2.022934 1_454
Ga3 O37 2.048584 1_554
Ga3 O10 2.048584 1_455
Ga4 O17 1.959316 1_555
Ga4 O24 2.007792 1_455
Ga4 O21 2.009612 1_555
Ga4 O34 2.021441 1_555
Ga4 O12 2.031412 1_455
Ga4 O28 2.056340 1_455
Ga5 O30 1.959316 1_555
Ga5 O23 2.007792 1_655
Ga5 O26 2.009612 1_555
Ga5 O13 2.021441 1_555
Ga5 O35 2.031412 1_655
Ga5 O19 2.056340 1_655
Ga6 O25 1.995455 1_554
Ga6 O22 1.995455 1_555
Ga6 O31 2.021622 1_555
Ga6 O16 2.021622 1_554
Ga6 O15 2.034099 1_555
Ga6 O32 2.034099 1_554
Ga7 O29 2.000227 1_555
Ga7 O18 2.000227 1_555
Ga7 O27 2.007776 1_555
Ga7 O20 2.007776 1_555
Ga7 O14 2.014762 1_555
Ga7 O33 2.014762 1_555
Cu0 O9 1.987710 1_555
Cu0 O14 1.993380 1_555
Cu0 O8 1.994231 1_555
Cu0 O12 1.996274 1_555
Cu1 O17 1.950904 1_555
Cu1 O16 1.975321 1_555
Cu1 O5 2.023204 1_555
Cu1 O4 2.025836 1_555
Cu2 O21 1.985937 1_555
Cu2 O1 1.992326 1_555
Cu2 O20 1.999787 1_555
Cu2 O0 2.000318 1_555
Cu3 O10 1.989427 1_555
Cu3 O13 1.989592 1_555
Cu3 O15 1.990302 1_555
Cu3 O11 1.991120 1_555
Cu4 O18 1.978843 1_555
Cu4 O7 1.994086 1_555
Cu4 O19 1.996695 1_555
Cu4 O6 1.999692 1_555
Cu5 O22 1.948399 1_555
Cu5 O23 1.967638 1_555
Cu5 O2 2.027234 1_555
Cu5 O3 2.032168 1_555
Cu6 O25 1.948399 1_555
Cu6 O24 1.967638 1_555
Cu6 O45 2.027234 1_555
Cu6 O44 2.032168 1_555
Cu7 O29 1.978843 1_555
Cu7 O40 1.994086 1_555
Cu7 O28 1.996695 1_555
Cu7 O41 1.999692 1_555
Cu8 O37 1.989427 1_555
Cu8 O34 1.989592 1_555
Cu8 O32 1.990302 1_555
Cu8 O36 1.991120 1_555
Cu9 O26 1.985937 1_555
Cu9 O46 1.992326 1_555
Cu9 O27 1.999787 1_555
Cu9 O47 2.000318 1_555
Cu10 O30 1.950904 1_555
Cu10 O31 1.975321 1_555
Cu10 O42 2.023204 1_555
Cu10 O43 2.025836 1_555
Cu11 O38 1.987710 1_555
Cu11 O33 1.993380 1_555
Cu11 O39 1.994231 1_555
Cu11 O35 1.996274 1_555
O0 Ta1 2.009171 1_465
O1 Ta4 2.005304 1_565
O2 Ta3 1.989918 1_555
O3 Ta0 2.003476 1_565
O3 Ta2 2.013936 1_565
O4 Ta2 1.992306 1_566
O5 Ta0 2.001546 1_566
O5 Ta1 2.070524 1_465
O6 Ta4 2.007037 1_565
O7 Ta3 1.963665 1_555
O8 Ta5 2.008767 1_655
O9 Ta7 2.007098 1_555
O10 Ta0 1.975286 1_665
O11 Ta6 2.006160 1_555
O12 Ta1 1.989214 1_565
O13 Ta3 2.000474 1_655
O14 Ta4 2.003494 1_565
O15 Ta2 1.990926 1_565
O16 Ta7 1.986795 1_555
O18 Ta6 2.008509 1_555
O19 Ta5 2.006924 1_555
O20 Ta5 2.003904 1_555
O21 Ta7 1.996970 1_555
O23 Ta6 2.003028 1_555
O24 Ta7 2.003028 1_555
O26 Ta6 1.996970 1_555
O27 Ta5 2.003904 1_655
O28 Ta5 2.006924 1_655
O29 Ta7 2.008509 1_555
O31 Ta6 1.986795 1_555
O32 Ta2 1.990926 1_556
O33 Ta4 2.003494 1_555
O34 Ta1 2.000474 1_455
O35 Ta3 1.989214 1_545
O36 Ta7 2.006160 1_555
O37 Ta0 1.975286 1_556
O38 Ta6 2.007098 1_555
O39 Ta5 2.008767 1_555
O40 Ta1 1.963665 1_555
O41 Ta4 2.007037 1_555
O42 Ta0 2.001546 1_655
O42 Ta3 2.070524 1_645
O43 Ta2 1.992306 1_555
O44 Ta0 2.003476 1_656
O44 Ta2 2.013936 1_556
O45 Ta1 1.989918 1_555
O46 Ta4 2.005304 1_555
O47 Ta3 2.009171 1_645
