# generated using pymatgen
data_BaTiO3
_symmetry_space_group_name_H-M   'P 1'
_cell_length_a   5.55577662
_cell_length_b   5.55577662
_cell_length_c   3.78421000
_cell_angle_alpha   90.00000000
_cell_angle_beta   90.00000000
_cell_angle_gamma   107.26414680
_symmetry_Int_Tables_number   1
_chemical_formula_structural   BaTiO3
_chemical_formula_sum   'Ba1 Ti1 O3'
_cell_volume   111.54340846
_cell_formula_units_Z   1
loop_
 _symmetry_equiv_pos_site_id
 _symmetry_equiv_pos_as_xyz
  1  'x, y, z'
loop_
 _atom_site_type_symbol
 _atom_site_label
 _atom_site_symmetry_multiplicity
 _atom_site_fract_x
 _atom_site_fract_y
 _atom_site_fract_z
 _atom_site_occupancy
  Ba  Ba0  1  0.64413400  0.64413400  0.00000000  1
  Ti  Ti0  1  0.10580100  0.10580100  0.50000000  1
  O  O0  1  0.38208100  0.38208100  0.50000000  1
  O  O1  1  0.78896300  0.09902100  0.50000000  1
  O  O2  1  0.09902100  0.78896300  0.50000000  1
loop_
_geom_bond_atom_site_label_1
_geom_bond_atom_site_label_2
_geom_bond_distance
_geom_bond_site_symmetry_2
Ba0 O0 2.561495 1_555
Ba0 O0 2.561495 1_554
Ba0 O1 3.067164 1_565
Ba0 O2 3.067164 1_655
Ba0 O1 3.067164 1_564
Ba0 O2 3.067164 1_654
O0 Ti0 1.820353 1_555
O1 Ti0 1.749472 1_655
O2 Ti0 1.749472 1_565
