# generated using pymatgen
data_Ce16O27
_symmetry_space_group_name_H-M   'P 1'
_cell_length_a   9.56312445
_cell_length_b   9.60450950
_cell_length_c   19.22773258
_cell_angle_alpha   109.54564639
_cell_angle_beta   109.45039288
_cell_angle_gamma   109.26639038
_symmetry_Int_Tables_number   1
_chemical_formula_structural   Ce16O27
_chemical_formula_sum   'Ce32 O54'
_cell_volume   1362.03137492
_cell_formula_units_Z   2
loop_
 _symmetry_equiv_pos_site_id
 _symmetry_equiv_pos_as_xyz
  1  'x, y, z'
loop_
 _atom_site_type_symbol
 _atom_site_label
 _atom_site_symmetry_multiplicity
 _atom_site_fract_x
 _atom_site_fract_y
 _atom_site_fract_z
 _atom_site_occupancy
  Ce  Ce0  1  0.01540706  0.74414086  0.88272567  1
  Ce  Ce1  1  0.24704498  0.99629672  0.62628124  1
  Ce  Ce2  1  0.00849439  0.99632435  0.75075702  1
  Ce  Ce3  1  0.97710173  0.50411936  0.50121823  1
  Ce  Ce4  1  0.24758279  0.24662998  0.98767099  1
  Ce  Ce5  1  0.24799727  0.72524800  0.73777746  1
  Ce  Ce6  1  0.27272794  0.52670185  0.88537977  1
  Ce  Ce7  1  0.02463929  0.75081665  0.38552179  1
  Ce  Ce8  1  0.23231756  0.98253210  0.12687017  1
  Ce  Ce9  1  0.50100390  0.27622010  0.87368713  1
  Ce  Ce10  1  0.47608391  0.48212726  0.73799026  1
  Ce  Ce11  1  0.00005881  0.49586147  0.99873867  1
  Ce  Ce12  1  0.00028635  0.02432837  0.25219456  1
  Ce  Ce13  1  0.24885732  0.22636331  0.49653298  1
  Ce  Ce14  1  0.52358966  0.76999188  0.63830260  1
  Ce  Ce15  1  0.25437349  0.73234329  0.24060037  1
  Ce  Ce16  1  0.25675294  0.50557766  0.36451833  1
  Ce  Ce17  1  0.72354690  0.47465410  0.61624362  1
  Ce  Ce18  1  0.73541195  0.25710336  0.75201448  1
  Ce  Ce19  1  0.74827454  0.75577340  0.51337273  1
  Ce  Ce20  1  0.49146792  0.26593047  0.37388120  1
  Ce  Ce21  1  0.50721683  0.99584361  0.51157480  1
  Ce  Ce22  1  0.50848326  0.49853376  0.24960183  1
  Ce  Ce23  1  0.77615410  0.01991611  0.87743749  1
  Ce  Ce24  1  0.50461060  0.73013747  0.12797239  1
  Ce  Ce25  1  0.99392660  0.24566957  0.61218547  1
  Ce  Ce26  1  0.72736935  0.47653331  0.11386000  1
  Ce  Ce27  1  0.76767933  0.27539409  0.26158492  1
  Ce  Ce28  1  0.75173137  0.75384279  0.01178202  1
  Ce  Ce29  1  0.49595128  0.00038118  0.99867247  1
  Ce  Ce30  1  0.76802279  0.02092685  0.37304568  1
  Ce  Ce31  1  0.97348964  0.24669022  0.12097486  1
  O  O0  1  0.00464645  0.48591670  0.86829160  1
  O  O1  1  0.24863293  0.97229092  0.75442486  1
  O  O2  1  0.25639296  0.76993884  0.86935046  1
  O  O3  1  0.23401981  0.25917160  0.86204172  1
  O  O4  1  0.99154894  0.02278242  0.63645461  1
  O  O5  1  0.22424219  0.47249313  0.74384996  1
  O  O6  1  0.24855999  0.71873289  0.61342878  1
  O  O7  1  0.01697519  0.27033035  0.49583323  1
  O  O8  1  0.02695273  0.50800753  0.38977571  1
  O  O9  1  0.24012552  0.23485748  0.61790853  1
  O  O10  1  0.99974154  0.26377986  0.25012030  1
  O  O11  1  0.24044678  0.98251033  0.25892820  1
  O  O12  1  0.72559613  0.98865281  0.98140356  1
  O  O13  1  0.52156749  0.76750000  0.76544167  1
  O  O14  1  0.25782719  0.75747093  0.36442233  1
  O  O15  1  0.52295868  0.53778784  0.87879114  1
  O  O16  1  0.48715616  0.22564543  0.98162233  1
  O  O17  1  0.25386203  0.28022086  0.38453539  1
  O  O18  1  0.48621512  0.73286164  0.50642831  1
  O  O19  1  0.46984026  0.48898262  0.60934348  1
  O  O20  1  0.48997382  0.25332695  0.74932701  1
  O  O21  1  0.00746593  0.01752481  0.12584760  1
  O  O22  1  0.25598350  0.98967020  0.50322634  1
  O  O23  1  0.24779232  0.46957150  0.23079765  1
  O  O24  1  0.26668824  0.75837094  0.12491670  1
  O  O25  1  0.02082139  0.25151538  0.00765297  1
  O  O26  1  0.98058145  0.74127706  0.99226335  1
  O  O27  1  0.73527791  0.23881010  0.87812775  1
  O  O28  1  0.50081881  0.00315760  0.63260332  1
  O  O29  1  0.75384648  0.53351468  0.75747332  1
  O  O30  1  0.73304098  0.98402247  0.48122381  1
  O  O31  1  0.99872261  0.97070410  0.86952519  1
  O  O32  1  0.52415636  0.76085633  0.26488968  1
  O  O33  1  0.52249014  0.52592758  0.37429857  1
  O  O34  1  0.49834871  0.21795379  0.48900146  1
  O  O35  1  0.77157330  0.74726338  0.64024346  1
  O  O36  1  0.25727179  0.49875196  0.00001302  1
  O  O37  1  0.73175061  0.49963943  0.50012935  1
  O  O38  1  0.50753529  0.77699876  0.01769895  1
  O  O39  1  0.47925657  0.46710439  0.12066073  1
  O  O40  1  0.76245870  0.24358270  0.63394659  1
  O  O41  1  0.47826861  0.23668997  0.23269507  1
  O  O42  1  0.27262793  0.01193651  0.02049253  1
  O  O43  1  0.78477439  0.03478727  0.75519748  1
  O  O44  1  0.98644163  0.51107237  0.62814621  1
  O  O45  1  0.72518406  0.24213256  0.37421088  1
  O  O46  1  0.97695978  0.75695191  0.49669563  1
  O  O47  1  0.77743225  0.53740539  0.26365842  1
  O  O48  1  0.98633475  0.97005726  0.36498177  1
  O  O49  1  0.77064438  0.74869838  0.13880147  1
  O  O50  1  0.74235846  0.50137311  0.00037570  1
  O  O51  1  0.72130945  0.23243824  0.12439978  1
  O  O52  1  0.73447914  0.01190504  0.24132414  1
  O  O53  1  0.99196636  0.51212017  0.13178679  1
loop_
_geom_bond_atom_site_label_1
_geom_bond_atom_site_label_2
_geom_bond_distance
_geom_bond_site_symmetry_2
Ce0 O26 2.246653 1_455
Ce0 O31 2.323078 1_455
Ce0 O2 2.345023 1_555
Ce0 O29 2.353299 1_455
Ce0 O0 2.364442 1_555
Ce0 O42 2.570911 1_566
Ce1 O28 2.366740 1_565
Ce1 O9 2.370641 1_565
Ce1 O22 2.376374 1_555
Ce1 O20 2.394907 1_565
Ce1 O46 2.475302 1_455
Ce1 O1 2.545930 1_555
Ce1 O6 2.599072 1_555
Ce1 O4 2.601550 1_465
Ce2 O4 2.254936 1_465
Ce2 O35 2.277450 1_455
Ce2 O3 2.307004 1_565
Ce2 O43 2.311532 1_465
Ce2 O1 2.363240 1_555
Ce2 O31 2.405671 1_455
Ce3 O6 2.325048 1_655
Ce3 O37 2.325421 1_555
Ce3 O8 2.354213 1_655
Ce3 O7 2.373570 1_655
Ce3 O44 2.389665 1_555
Ce3 O46 2.459218 1_555
Ce3 O45 2.463518 1_555
Ce4 O36 2.319782 1_556
Ce4 O39 2.332206 1_556
Ce4 O25 2.337173 1_556
Ce4 O16 2.402008 1_555
Ce4 O3 2.421288 1_555
Ce4 O31 2.461032 1_445
Ce4 O42 2.596946 1_556
Ce5 O44 2.263416 1_455
Ce5 O1 2.283270 1_555
Ce5 O13 2.349514 1_555
Ce5 O6 2.372601 1_555
Ce5 O2 2.388770 1_555
Ce5 O5 2.408694 1_555
Ce6 O3 2.330426 1_555
Ce6 O0 2.350342 1_555
Ce6 O36 2.353471 1_556
Ce6 O15 2.407603 1_555
Ce6 O38 2.415529 1_556
Ce6 O5 2.438002 1_555
Ce6 O2 2.503526 1_555
Ce7 O22 2.263070 1_555
Ce7 O47 2.275966 1_455
Ce7 O46 2.315894 1_455
Ce7 O8 2.367735 1_555
Ce7 O14 2.380631 1_555
Ce7 O48 2.386054 1_455
Ce8 O24 2.272837 1_555
Ce8 O21 2.278211 1_565
Ce8 O42 2.291684 1_565
Ce8 O41 2.309002 1_565
Ce8 O26 2.453518 1_454
Ce8 O11 2.514431 1_555
Ce9 O20 2.289553 1_555
Ce9 O50 2.318307 1_556
Ce9 O16 2.318550 1_555
Ce9 O27 2.362224 1_555
Ce9 O15 2.416245 1_555
Ce9 O3 2.432000 1_555
Ce9 O1 2.605832 1_545
Ce10 O9 2.321133 1_555
Ce10 O20 2.321227 1_555
Ce10 O29 2.405859 1_555
Ce10 O5 2.421207 1_555
Ce10 O15 2.425145 1_555
Ce10 O13 2.464240 1_555
Ce10 O19 2.477849 1_555
Ce11 O36 2.442566 1_556
Ce11 O27 2.453119 1_455
Ce11 O26 2.465108 1_455
Ce11 O25 2.475960 1_556
Ce11 O50 2.492749 1_456
Ce11 O0 2.493566 1_555
Ce11 O24 2.507818 1_556
Ce11 O53 2.539164 1_456
Ce12 O10 2.315147 1_455
Ce12 O49 2.386885 1_445
Ce12 O48 2.428102 1_445
Ce12 O11 2.428649 1_545
Ce12 O21 2.432823 1_555
Ce12 O52 2.439004 1_455
Ce12 O17 2.483697 1_555
Ce13 O19 2.302563 1_555
Ce13 O9 2.338167 1_555
Ce13 O22 2.341230 1_545
Ce13 O7 2.387003 1_555
Ce13 O17 2.388494 1_555
Ce13 O34 2.463645 1_555
Ce13 O48 2.507353 1_445
Ce14 O18 2.321999 1_555
Ce14 O6 2.353500 1_555
Ce14 O28 2.354711 1_565
Ce14 O19 2.397277 1_555
Ce14 O35 2.441556 1_555
Ce14 O43 2.450078 1_565
Ce14 O13 2.459131 1_555
Ce15 O53 2.277736 1_455
Ce15 O14 2.299027 1_555
Ce15 O24 2.356080 1_555
Ce15 O11 2.364512 1_555
Ce15 O32 2.365387 1_555
Ce15 O23 2.444996 1_555
Ce16 O17 2.314890 1_555
Ce16 O10 2.342487 1_455
Ce16 O8 2.408922 1_555
Ce16 O14 2.416563 1_555
Ce16 O33 2.420954 1_555
Ce16 O18 2.427249 1_555
Ce16 O23 2.444685 1_555
Ce17 O44 2.340582 1_555
Ce17 O37 2.347557 1_555
Ce17 O35 2.352891 1_555
Ce17 O34 2.377657 1_555
Ce17 O19 2.437480 1_555
Ce17 O29 2.473523 1_555
Ce17 O40 2.479085 1_555
Ce18 O20 2.318386 1_555
Ce18 O40 2.335259 1_555
Ce18 O28 2.337746 1_555
Ce18 O43 2.349297 1_555
Ce18 O0 2.366866 1_655
Ce18 O27 2.489552 1_555
Ce18 O29 2.565620 1_555
Ce19 O46 2.310586 1_555
Ce19 O37 2.332194 1_555
Ce19 O18 2.395907 1_555
Ce19 O33 2.396958 1_555
Ce19 O35 2.406372 1_555
Ce19 O4 2.434110 1_565
Ce19 O30 2.503334 1_555
Ce20 O45 2.318711 1_555
Ce20 O37 2.333815 1_555
Ce20 O17 2.391850 1_555
Ce20 O34 2.392014 1_555
Ce20 O33 2.412453 1_555
Ce20 O11 2.487193 1_545
Ce20 O41 2.588940 1_555
Ce21 O28 2.326450 1_565
Ce21 O22 2.333330 1_555
Ce21 O34 2.336833 1_565
Ce21 O40 2.398358 1_565
Ce21 O18 2.431998 1_555
Ce21 O30 2.444190 1_555
Ce21 O14 2.550170 1_555
Ce22 O33 2.275210 1_555
Ce22 O39 2.301732 1_555
Ce22 O23 2.301741 1_555
Ce22 O41 2.329092 1_555
Ce22 O47 2.379796 1_555
Ce22 O32 2.383811 1_555
Ce23 O27 2.258332 1_555
Ce23 O12 2.295553 1_545
Ce23 O13 2.358430 1_545
Ce23 O31 2.368183 1_545
Ce23 O25 2.372479 1_656
Ce23 O43 2.428470 1_555
Ce24 O38 2.317065 1_555
Ce24 O24 2.362770 1_555
Ce24 O36 2.363001 1_555
Ce24 O39 2.407528 1_555
Ce24 O52 2.417233 1_565
Ce24 O49 2.422958 1_555
Ce24 O32 2.483704 1_555
Ce25 O5 2.331508 1_655
Ce25 O4 2.333306 1_555
Ce25 O9 2.358535 1_655
Ce25 O40 2.380854 1_555
Ce25 O7 2.399627 1_655
Ce25 O44 2.491713 1_555
Ce25 O30 2.514926 1_545
Ce26 O50 2.317942 1_555
Ce26 O53 2.325508 1_555
Ce26 O49 2.355724 1_555
Ce26 O39 2.393307 1_555
Ce26 O51 2.403491 1_555
Ce26 O16 2.430231 1_554
Ce26 O47 2.576281 1_555
Ce27 O52 2.320485 1_555
Ce27 O10 2.336402 1_555
Ce27 O51 2.386783 1_555
Ce27 O8 2.409167 1_655
Ce27 O45 2.433125 1_555
Ce27 O47 2.473563 1_555
Ce27 O41 2.503148 1_555
Ce28 O15 2.314958 1_554
Ce28 O50 2.328873 1_555
Ce28 O26 2.374035 1_554
Ce28 O49 2.406745 1_555
Ce28 O21 2.414331 1_665
Ce28 O38 2.453300 1_555
Ce28 O12 2.577966 1_554
Ce29 O51 2.282859 1_556
Ce29 O16 2.317721 1_555
Ce29 O38 2.324699 1_546
Ce29 O42 2.339106 1_556
Ce29 O2 2.346833 1_545
Ce29 O12 2.360033 1_545
Ce30 O45 2.287091 1_555
Ce30 O30 2.332919 1_545
Ce30 O32 2.335140 1_545
Ce30 O48 2.336548 1_545
Ce30 O7 2.385173 1_655
Ce30 O52 2.412209 1_555
Ce31 O23 2.345903 1_655
Ce31 O10 2.353940 1_555
Ce31 O21 2.355526 1_655
Ce31 O25 2.380188 1_655
Ce31 O51 2.394366 1_555
Ce31 O53 2.428405 1_555
Ce31 O12 2.529740 1_544
