# generated using pymatgen
data_InCu6ClO8
_symmetry_space_group_name_H-M   'P 1'
_cell_length_a   6.52287338
_cell_length_b   6.52287338
_cell_length_c   6.52287338
_cell_angle_alpha   60.00000000
_cell_angle_beta   60.00000000
_cell_angle_gamma   60.00000000
_symmetry_Int_Tables_number   1
_chemical_formula_structural   InCu6ClO8
_chemical_formula_sum   'In1 Cu6 Cl1 O8'
_cell_volume   196.24646696
_cell_formula_units_Z   1
loop_
 _symmetry_equiv_pos_site_id
 _symmetry_equiv_pos_as_xyz
  1  'x, y, z'
loop_
 _atom_site_type_symbol
 _atom_site_label
 _atom_site_symmetry_multiplicity
 _atom_site_fract_x
 _atom_site_fract_y
 _atom_site_fract_z
 _atom_site_occupancy
  In  In0  1  0.00000000  0.00000000  0.00000000  1
  Cu  Cu0  1  0.00000000  0.00000000  0.50000000  1
  Cu  Cu1  1  0.50000000  0.00000000  0.00000000  1
  Cu  Cu2  1  0.00000000  0.50000000  0.00000000  1
  Cu  Cu3  1  0.50000000  0.50000000  0.00000000  1
  Cu  Cu4  1  0.00000000  0.50000000  0.50000000  1
  Cu  Cu5  1  0.50000000  0.00000000  0.50000000  1
  Cl  Cl0  1  0.50000000  0.50000000  0.50000000  1
  O  O0  1  0.14252900  0.14252900  0.57241200  1
  O  O1  1  0.14252900  0.57241200  0.14252900  1
  O  O2  1  0.57241200  0.14252900  0.14252900  1
  O  O3  1  0.85747100  0.42758800  0.85747100  1
  O  O4  1  0.14252900  0.14252900  0.14252900  1
  O  O5  1  0.85747100  0.85747100  0.85747100  1
  O  O6  1  0.85747100  0.85747100  0.42758800  1
  O  O7  1  0.42758800  0.85747100  0.85747100  1
loop_
_geom_bond_atom_site_label_1
_geom_bond_atom_site_label_2
_geom_bond_distance
_geom_bond_site_symmetry_2
In0 O4 2.277287 1_555
In0 O5 2.277287 1_444
In0 O3 2.277293 1_454
In0 O6 2.277293 1_445
In0 O7 2.277293 1_544
In0 O2 2.277293 1_455
In0 O1 2.277293 1_545
In0 O0 2.277293 1_554
Cu0 O0 1.922076 1_555
Cu0 O6 1.922076 1_445
Cu0 O5 1.922081 1_445
Cu0 O4 1.922081 1_555
Cu1 O2 1.922076 1_555
Cu1 O7 1.922076 1_544
Cu1 O5 1.922081 1_544
Cu1 O4 1.922081 1_555
Cu2 O1 1.922076 1_555
Cu2 O3 1.922076 1_454
Cu2 O5 1.922081 1_454
Cu2 O4 1.922081 1_555
Cu3 O3 1.922081 1_554
Cu3 O7 1.922081 1_554
Cu3 O2 1.922081 1_555
Cu3 O1 1.922081 1_555
Cu4 O6 1.922081 1_455
Cu4 O3 1.922081 1_455
Cu4 O1 1.922081 1_555
Cu4 O0 1.922081 1_555
Cu5 O7 1.922081 1_545
Cu5 O6 1.922081 1_545
Cu5 O2 1.922081 1_555
Cu5 O0 1.922081 1_555
