# generated using pymatgen
data_Mo6PbBr14
_symmetry_space_group_name_H-M   'P 1'
_cell_length_a   13.87194000
_cell_length_b   13.87194000
_cell_length_c   13.87194000
_cell_angle_alpha   90.00000000
_cell_angle_beta   90.00000000
_cell_angle_gamma   90.00000000
_symmetry_Int_Tables_number   1
_chemical_formula_structural   Mo6PbBr14
_chemical_formula_sum   'Mo24 Pb4 Br56'
_cell_volume   2669.38739317
_cell_formula_units_Z   4
loop_
 _symmetry_equiv_pos_site_id
 _symmetry_equiv_pos_as_xyz
  1  'x, y, z'
loop_
 _atom_site_type_symbol
 _atom_site_label
 _atom_site_symmetry_multiplicity
 _atom_site_fract_x
 _atom_site_fract_y
 _atom_site_fract_z
 _atom_site_occupancy
  Mo  Mo0  1  0.87788800  0.27737500  0.21521200  1
  Mo  Mo1  1  0.77737500  0.71521200  0.62211200  1
  Mo  Mo2  1  0.78478800  0.87788800  0.72262500  1
  Mo  Mo3  1  0.12211200  0.72262500  0.21521200  1
  Mo  Mo4  1  0.72262500  0.21521200  0.12211200  1
  Mo  Mo5  1  0.78478800  0.12211200  0.27737500  1
  Mo  Mo6  1  0.37788800  0.22262500  0.71521200  1
  Mo  Mo7  1  0.37788800  0.77737500  0.28478800  1
  Mo  Mo8  1  0.21521200  0.12211200  0.72262500  1
  Mo  Mo9  1  0.28478800  0.37788800  0.77737500  1
  Mo  Mo10  1  0.87788800  0.72262500  0.78478800  1
  Mo  Mo11  1  0.77737500  0.28478800  0.37788800  1
  Mo  Mo12  1  0.62211200  0.22262500  0.28478800  1
  Mo  Mo13  1  0.72262500  0.78478800  0.87788800  1
  Mo  Mo14  1  0.28478800  0.62211200  0.22262500  1
  Mo  Mo15  1  0.71521200  0.62211200  0.77737500  1
  Mo  Mo16  1  0.27737500  0.21521200  0.87788800  1
  Mo  Mo17  1  0.22262500  0.28478800  0.62211200  1
  Mo  Mo18  1  0.71521200  0.37788800  0.22262500  1
  Mo  Mo19  1  0.12211200  0.27737500  0.78478800  1
  Mo  Mo20  1  0.27737500  0.78478800  0.12211200  1
  Mo  Mo21  1  0.22262500  0.71521200  0.37788800  1
  Mo  Mo22  1  0.21521200  0.87788800  0.27737500  1
  Mo  Mo23  1  0.62211200  0.77737500  0.71521200  1
  Pb  Pb0  1  0.75000000  0.75000000  0.25000000  1
  Pb  Pb1  1  0.25000000  0.25000000  0.25000000  1
  Pb  Pb2  1  0.25000000  0.75000000  0.75000000  1
  Pb  Pb3  1  0.75000000  0.25000000  0.75000000  1
  Br  Br0  1  0.38372400  0.38372400  0.61627600  1
  Br  Br1  1  0.13088900  0.56292000  0.31414400  1
  Br  Br2  1  0.55702000  0.17891200  0.66172000  1
  Br  Br3  1  0.82108800  0.66172000  0.44298000  1
  Br  Br4  1  0.17891200  0.33828000  0.44298000  1
  Br  Br5  1  0.81414400  0.36911100  0.06292000  1
  Br  Br6  1  0.32108800  0.83828000  0.94298000  1
  Br  Br7  1  0.63088900  0.93708000  0.81414400  1
  Br  Br8  1  0.06292000  0.18585600  0.63088900  1
  Br  Br9  1  0.32108800  0.16172000  0.05702000  1
  Br  Br10  1  0.11627600  0.88372400  0.11627600  1
  Br  Br11  1  0.11627600  0.11627600  0.88372400  1
  Br  Br12  1  0.82108800  0.33828000  0.55702000  1
  Br  Br13  1  0.86911100  0.56292000  0.68585600  1
  Br  Br14  1  0.05702000  0.32108800  0.16172000  1
  Br  Br15  1  0.17891200  0.66172000  0.55702000  1
  Br  Br16  1  0.61627600  0.38372400  0.38372400  1
  Br  Br17  1  0.56292000  0.31414400  0.13088900  1
  Br  Br18  1  0.68585600  0.13088900  0.43708000  1
  Br  Br19  1  0.36911100  0.93708000  0.18585600  1
  Br  Br20  1  0.44298000  0.82108800  0.66172000  1
  Br  Br21  1  0.55702000  0.82108800  0.33828000  1
  Br  Br22  1  0.88372400  0.88372400  0.88372400  1
  Br  Br23  1  0.05702000  0.67891200  0.83828000  1
  Br  Br24  1  0.31414400  0.86911100  0.43708000  1
  Br  Br25  1  0.93708000  0.18585600  0.36911100  1
  Br  Br26  1  0.38372400  0.61627600  0.38372400  1
  Br  Br27  1  0.43708000  0.68585600  0.13088900  1
  Br  Br28  1  0.93708000  0.81414400  0.63088900  1
  Br  Br29  1  0.67891200  0.83828000  0.05702000  1
  Br  Br30  1  0.83828000  0.05702000  0.67891200  1
  Br  Br31  1  0.06292000  0.81414400  0.36911100  1
  Br  Br32  1  0.18585600  0.63088900  0.06292000  1
  Br  Br33  1  0.94298000  0.32108800  0.83828000  1
  Br  Br34  1  0.13088900  0.43708000  0.68585600  1
  Br  Br35  1  0.36911100  0.06292000  0.81414400  1
  Br  Br36  1  0.94298000  0.67891200  0.16172000  1
  Br  Br37  1  0.66172000  0.55702000  0.17891200  1
  Br  Br38  1  0.86911100  0.43708000  0.31414400  1
  Br  Br39  1  0.88372400  0.11627600  0.11627600  1
  Br  Br40  1  0.33828000  0.55702000  0.82108800  1
  Br  Br41  1  0.81414400  0.63088900  0.93708000  1
  Br  Br42  1  0.33828000  0.44298000  0.17891200  1
  Br  Br43  1  0.67891200  0.16172000  0.94298000  1
  Br  Br44  1  0.66172000  0.44298000  0.82108800  1
  Br  Br45  1  0.56292000  0.68585600  0.86911100  1
  Br  Br46  1  0.18585600  0.36911100  0.93708000  1
  Br  Br47  1  0.43708000  0.31414400  0.86911100  1
  Br  Br48  1  0.16172000  0.05702000  0.32108800  1
  Br  Br49  1  0.68585600  0.86911100  0.56292000  1
  Br  Br50  1  0.61627600  0.61627600  0.61627600  1
  Br  Br51  1  0.31414400  0.13088900  0.56292000  1
  Br  Br52  1  0.63088900  0.06292000  0.18585600  1
  Br  Br53  1  0.83828000  0.94298000  0.32108800  1
  Br  Br54  1  0.44298000  0.17891200  0.33828000  1
  Br  Br55  1  0.16172000  0.94298000  0.67891200  1
loop_
_geom_bond_atom_site_label_1
_geom_bond_atom_site_label_2
_geom_bond_distance
_geom_bond_site_symmetry_2
Br0 Mo6 2.623788 1_555
Br0 Mo9 2.623788 1_555
Br0 Mo17 2.623788 1_555
Br1 Mo3 2.608893 1_555
Br1 Mo14 2.616041 1_555
Br1 Mo21 2.619985 1_555
Br2 Mo6 2.663286 1_555
Br2 Pb3 3.104593 1_555
Br3 Mo1 2.663286 1_555
Br3 Pb0 3.104593 1_555
Br4 Mo17 2.663286 1_555
Br4 Pb1 3.104593 1_555
Br5 Mo18 2.608893 1_555
Br5 Mo4 2.616041 1_555
Br5 Mo0 2.619985 1_555
Br6 Mo20 2.663286 1_556
Br6 Pb2 3.104593 1_555
Br7 Mo23 2.608893 1_555
Br7 Mo2 2.616041 1_555
Br7 Mo13 2.619985 1_555
Br8 Mo17 2.608893 1_555
Br8 Mo19 2.616041 1_555
Br8 Mo8 2.619985 1_555
Br9 Mo16 2.663286 1_554
Br9 Pb1 3.104593 1_555
Br10 Mo20 2.623788 1_555
Br10 Mo22 2.623788 1_555
Br10 Mo3 2.623788 1_555
Br11 Mo19 2.623788 1_555
Br11 Mo8 2.623788 1_555
Br11 Mo16 2.623788 1_555
Br12 Mo11 2.663286 1_555
Br12 Pb3 3.104593 1_555
Br13 Mo10 2.608893 1_555
Br13 Mo15 2.616041 1_555
Br13 Mo1 2.619985 1_555
Br14 Mo0 2.663286 1_455
Br14 Pb1 3.104593 1_555
Br15 Mo21 2.663286 1_555
Br15 Pb2 3.104593 1_555
Br16 Mo18 2.623788 1_555
Br16 Mo11 2.623788 1_555
Br16 Mo12 2.623788 1_555
Br17 Mo4 2.608893 1_555
Br17 Mo12 2.616041 1_555
Br17 Mo18 2.619985 1_555
Br18 Mo5 2.608893 1_555
Br18 Mo11 2.616041 1_555
Br18 Mo12 2.619985 1_555
Br19 Mo7 2.608893 1_555
Br19 Mo22 2.616041 1_555
Br19 Mo20 2.619985 1_555
Br20 Mo23 2.663286 1_555
Br20 Pb2 3.104593 1_555
Br21 Mo7 2.663286 1_555
Br21 Pb0 3.104593 1_555
Br22 Mo2 2.623788 1_555
Br22 Mo10 2.623788 1_555
Br22 Mo13 2.623788 1_555
Br23 Mo10 2.663286 1_455
Br23 Pb2 3.104593 1_555
Br24 Mo22 2.608893 1_555
Br24 Mo21 2.616041 1_555
Br24 Mo7 2.619985 1_555
Br25 Mo11 2.608893 1_555
Br25 Mo0 2.616041 1_555
Br25 Mo5 2.619985 1_555
Br26 Mo21 2.623788 1_555
Br26 Mo7 2.623788 1_555
Br26 Mo14 2.623788 1_555
Br27 Mo20 2.608893 1_555
Br27 Mo7 2.616041 1_555
Br27 Mo14 2.619985 1_555
Br28 Mo1 2.608893 1_555
Br28 Mo10 2.616041 1_555
Br28 Mo2 2.619985 1_555
Br29 Mo13 2.663286 1_554
Br29 Pb0 3.104593 1_555
Br30 Mo2 2.663286 1_545
Br30 Pb3 3.104593 1_555
Br31 Mo21 2.608893 1_555
Br31 Mo3 2.616041 1_555
Br31 Mo22 2.619985 1_555
Br32 Mo14 2.608893 1_555
Br32 Mo20 2.616041 1_555
Br32 Mo3 2.619985 1_555
Br33 Mo19 2.663286 1_655
Br33 Pb3 3.104593 1_555
Br34 Mo19 2.608893 1_555
Br34 Mo9 2.616041 1_555
Br34 Mo17 2.619985 1_555
Br35 Mo6 2.608893 1_555
Br35 Mo8 2.616041 1_555
Br35 Mo16 2.619985 1_555
Br36 Mo3 2.663286 1_655
Br36 Pb0 3.104593 1_555
Br37 Mo18 2.663286 1_555
Br37 Pb0 3.104593 1_555
Br38 Mo0 2.608893 1_555
Br38 Mo18 2.616041 1_555
Br38 Mo11 2.619985 1_555
Br39 Mo5 2.623788 1_555
Br39 Mo0 2.623788 1_555
Br39 Mo4 2.623788 1_555
Br40 Mo9 2.663286 1_555
Br40 Pb2 3.104593 1_555
Br41 Mo15 2.608893 1_555
Br41 Mo13 2.616041 1_555
Br41 Mo10 2.619985 1_555
Br42 Mo14 2.663286 1_555
Br42 Pb1 3.104593 1_555
Br43 Mo4 2.663286 1_556
Br43 Pb3 3.104593 1_555
Br44 Mo15 2.663286 1_555
Br44 Pb3 3.104593 1_555
Br45 Mo13 2.608893 1_555
Br45 Mo23 2.616041 1_555
Br45 Mo15 2.619985 1_555
Br46 Mo9 2.608893 1_555
Br46 Mo16 2.616041 1_555
Br46 Mo19 2.619985 1_555
Br47 Mo16 2.608893 1_555
Br47 Mo6 2.616041 1_555
Br47 Mo9 2.619985 1_555
Br48 Mo22 2.663286 1_545
Br48 Pb1 3.104593 1_555
Br49 Mo2 2.608893 1_555
Br49 Mo1 2.616041 1_555
Br49 Mo23 2.619985 1_555
Br50 Mo23 2.623788 1_555
Br50 Mo15 2.623788 1_555
Br50 Mo1 2.623788 1_555
Br51 Mo8 2.608893 1_555
Br51 Mo17 2.616041 1_555
Br51 Mo6 2.619985 1_555
Br52 Mo12 2.608893 1_555
Br52 Mo5 2.616041 1_555
Br52 Mo4 2.619985 1_555
Br53 Mo5 2.663286 1_565
Br53 Pb0 3.104593 1_555
Br54 Mo12 2.663286 1_555
Br54 Pb1 3.104593 1_555
Br55 Mo8 2.663286 1_565
Br55 Pb2 3.104593 1_555
