# generated using pymatgen
data_Ca6Si2H6O13
_symmetry_space_group_name_H-M   'P 1'
_cell_length_a   10.10673812
_cell_length_b   10.10673812
_cell_length_c   7.55852000
_cell_angle_alpha   90.00000000
_cell_angle_beta   90.00000000
_cell_angle_gamma   120.00000081
_symmetry_Int_Tables_number   1
_chemical_formula_structural   Ca6Si2H6O13
_chemical_formula_sum   'Ca12 Si4 H12 O26'
_cell_volume   668.63548366
_cell_formula_units_Z   2
loop_
 _symmetry_equiv_pos_site_id
 _symmetry_equiv_pos_as_xyz
  1  'x, y, z'
loop_
 _atom_site_type_symbol
 _atom_site_label
 _atom_site_symmetry_multiplicity
 _atom_site_fract_x
 _atom_site_fract_y
 _atom_site_fract_z
 _atom_site_occupancy
  Ca  Ca0  1  0.04193900  0.37495500  0.37743100  1
  Ca  Ca1  1  0.33301600  0.95806100  0.37743100  1
  Ca  Ca2  1  0.04575200  0.38282100  0.87106200  1
  Ca  Ca3  1  0.33706900  0.95424800  0.87106200  1
  Ca  Ca4  1  0.38282100  0.33706900  0.12893800  1
  Ca  Ca5  1  0.37495500  0.33301600  0.62256900  1
  Ca  Ca6  1  0.61717900  0.66293100  0.87106200  1
  Ca  Ca7  1  0.62504500  0.66698400  0.37743100  1
  Ca  Ca8  1  0.95806100  0.62504500  0.62256900  1
  Ca  Ca9  1  0.66293100  0.04575200  0.12893800  1
  Ca  Ca10  1  0.95424800  0.61717900  0.12893800  1
  Ca  Ca11  1  0.66698400  0.04193900  0.62256900  1
  Si  Si0  1  0.33333300  0.66666700  0.09659800  1
  Si  Si1  1  0.33333300  0.66666700  0.65694000  1
  Si  Si2  1  0.66666700  0.33333300  0.90340200  1
  Si  Si3  1  0.66666700  0.33333300  0.34306000  1
  H  H0  1  0.99614200  0.83386600  0.37127500  1
  H  H1  1  0.00590400  0.82556200  0.87569300  1
  H  H2  1  0.17443800  0.18034200  0.87569300  1
  H  H3  1  0.16613400  0.16227600  0.37127500  1
  H  H4  1  0.16227600  0.99614200  0.62872500  1
  H  H5  1  0.18034200  0.00590400  0.12430700  1
  H  H6  1  0.83772400  0.00385800  0.37127500  1
  H  H7  1  0.81965800  0.99409600  0.87569300  1
  H  H8  1  0.83386600  0.83772400  0.62872500  1
  H  H9  1  0.82556200  0.81965800  0.12430700  1
  H  H10  1  0.99409600  0.17443800  0.12430700  1
  H  H11  1  0.00385800  0.16613400  0.62872500  1
  O  O0  1  0.06729300  0.79547100  0.36891600  1
  O  O1  1  0.07558500  0.78531200  0.88107500  1
  O  O2  1  0.15236000  0.55618600  0.14772800  1
  O  O3  1  0.15311500  0.55490000  0.60530800  1
  O  O4  1  0.40178500  0.84688500  0.60530800  1
  O  O5  1  0.40382600  0.84764000  0.14772800  1
  O  O6  1  0.33333300  0.66666700  0.87658900  1
  O  O7  1  0.21468800  0.29027300  0.88107500  1
  O  O8  1  0.20452900  0.27182100  0.36891600  1
  O  O9  1  0.44381400  0.59617400  0.14772800  1
  O  O10  1  0.44510000  0.59821500  0.60530800  1
  O  O11  1  0.70972700  0.92441500  0.88107500  1
  O  O12  1  0.27182100  0.06729300  0.63108400  1
  O  O13  1  0.29027300  0.07558500  0.11892500  1
  O  O14  1  0.72817900  0.93270700  0.36891600  1
  O  O15  1  0.55618600  0.40382600  0.85227200  1
  O  O16  1  0.55490000  0.40178500  0.39469200  1
  O  O17  1  0.78531200  0.70972700  0.11892500  1
  O  O18  1  0.79547100  0.72817900  0.63108400  1
  O  O19  1  0.66666700  0.33333300  0.12341100  1
  O  O20  1  0.59821500  0.15311500  0.39469200  1
  O  O21  1  0.59617400  0.15236000  0.85227200  1
  O  O22  1  0.84764000  0.44381400  0.85227200  1
  O  O23  1  0.84688500  0.44510000  0.39469200  1
  O  O24  1  0.92441500  0.21468800  0.11892500  1
  O  O25  1  0.93270700  0.20452900  0.63108400  1
loop_
_geom_bond_atom_site_label_1
_geom_bond_atom_site_label_2
_geom_bond_distance
_geom_bond_site_symmetry_2
Ca0 O3 2.343771 1_555
Ca0 O8 2.346010 1_555
Ca0 O2 2.360239 1_555
Ca0 O23 2.409034 1_455
Ca0 O24 2.434826 1_455
Ca0 O25 2.441285 1_455
Ca1 O4 2.343771 1_555
Ca1 O0 2.346002 1_555
Ca1 O5 2.360239 1_555
Ca1 O20 2.409034 1_565
Ca1 O13 2.434826 1_565
Ca1 O12 2.441290 1_565
Ca2 O7 2.322248 1_555
Ca2 O22 2.375609 1_455
Ca2 O25 2.404946 1_455
Ca2 O24 2.411942 1_456
Ca2 O3 2.519891 1_555
Ca2 O2 2.591553 1_556
Ca3 O1 2.322248 1_555
Ca3 O21 2.375609 1_565
Ca3 O12 2.404951 1_565
Ca3 O13 2.411942 1_566
Ca3 O4 2.519891 1_555
Ca3 O5 2.591553 1_556
Ca4 O13 2.322248 1_555
Ca4 O9 2.375609 1_555
Ca4 O8 2.404945 1_555
Ca4 O7 2.411942 1_554
Ca4 O16 2.519891 1_555
Ca4 O15 2.591553 1_554
Ca5 O16 2.343771 1_555
Ca5 O12 2.346000 1_555
Ca5 O15 2.360239 1_555
Ca5 O10 2.409034 1_555
Ca5 O7 2.434826 1_555
Ca5 O8 2.441284 1_555
Ca6 O11 2.322248 1_555
Ca6 O15 2.375609 1_555
Ca6 O18 2.404945 1_555
Ca6 O17 2.411942 1_556
Ca6 O10 2.519891 1_555
Ca6 O9 2.591553 1_556
Ca7 O10 2.343771 1_555
Ca7 O14 2.346000 1_555
Ca7 O9 2.360239 1_555
Ca7 O16 2.409034 1_555
Ca7 O17 2.434826 1_555
Ca7 O18 2.441284 1_555
Ca8 O23 2.343771 1_555
Ca8 O18 2.346010 1_555
Ca8 O22 2.360239 1_555
Ca8 O3 2.409034 1_655
Ca8 O1 2.434826 1_655
Ca8 O0 2.441285 1_655
Ca9 O24 2.322248 1_555
Ca9 O5 2.375609 1_545
Ca9 O14 2.404951 1_545
Ca9 O11 2.411942 1_544
Ca9 O20 2.519891 1_555
Ca9 O21 2.591553 1_554
Ca10 O17 2.322248 1_555
Ca10 O2 2.375609 1_655
Ca10 O0 2.404946 1_655
Ca10 O1 2.411942 1_654
Ca10 O23 2.519891 1_555
Ca10 O22 2.591553 1_554
Ca11 O20 2.343771 1_555
Ca11 O25 2.346002 1_555
Ca11 O21 2.360239 1_555
Ca11 O4 2.409034 1_545
Ca11 O11 2.434826 1_545
Ca11 O14 2.441290 1_545
H0 O0 0.973169 1_655
H1 O1 0.974468 1_555
H2 O7 0.974468 1_555
H3 O8 0.973160 1_555
H4 O12 0.973161 1_565
H5 O13 0.974468 1_555
H6 O14 0.973161 1_545
H7 O11 0.974468 1_555
H8 O18 0.973160 1_555
H9 O17 0.974468 1_555
H10 O24 0.974468 1_555
H11 O25 0.973169 1_455
O2 Si0 1.642940 1_555
O3 Si1 1.639630 1_555
O4 Si1 1.639628 1_555
O5 Si0 1.642939 1_555
O6 Si1 1.660221 1_555
O6 Si0 1.662942 1_556
O9 Si0 1.642948 1_555
O10 Si1 1.639637 1_555
O15 Si2 1.642948 1_555
O16 Si3 1.639637 1_555
O19 Si3 1.660221 1_555
O19 Si2 1.662942 1_554
O20 Si3 1.639628 1_555
O21 Si2 1.642939 1_555
O22 Si2 1.642940 1_555
O23 Si3 1.639630 1_555
