# generated using pymatgen
data_VTe4Cl4O
_symmetry_space_group_name_H-M   'P 1'
_cell_length_a   13.98503517
_cell_length_b   13.98503517
_cell_length_c   13.98503517
_cell_angle_alpha   106.11764781
_cell_angle_beta   106.11764781
_cell_angle_gamma   116.40919091
_symmetry_Int_Tables_number   1
_chemical_formula_structural   VTe4Cl4O
_chemical_formula_sum   'V8 Te32 Cl32 O8'
_cell_volume   2082.14066531
_cell_formula_units_Z   8
loop_
 _symmetry_equiv_pos_site_id
 _symmetry_equiv_pos_as_xyz
  1  'x, y, z'
loop_
 _atom_site_type_symbol
 _atom_site_label
 _atom_site_symmetry_multiplicity
 _atom_site_fract_x
 _atom_site_fract_y
 _atom_site_fract_z
 _atom_site_occupancy
  V  V0  1  0.02558200  0.52415900  0.00737700  1
  V  V1  1  0.47584100  0.48321800  0.50142300  1
  V  V2  1  0.98179500  0.97441800  0.49857700  1
  V  V3  1  0.22441800  0.22584100  0.49262300  1
  V  V4  1  0.26820500  0.77558200  0.00142300  1
  V  V5  1  0.73321800  0.73179500  0.50737700  1
  V  V6  1  0.77415900  0.26678200  0.99857700  1
  V  V7  1  0.51678200  0.01820500  0.99262300  1
  Te  Te0  1  0.12885600  0.48144000  0.42797200  1
  Te  Te1  1  0.68854400  0.03358900  0.43492600  1
  Te  Te2  1  0.95088400  0.87885600  0.14741600  1
  Te  Te3  1  0.32599100  0.47666600  0.06525100  1
  Te  Te4  1  0.90419900  0.75652100  0.92861200  1
  Te  Te5  1  0.22558800  0.65419900  0.64767800  1
  Te  Te6  1  0.82791000  0.97558800  0.07138800  1
  Te  Te7  1  0.41141500  0.26074100  0.93474900  1
  Te  Te8  1  0.12114400  0.26856000  0.07202800  1
  Te  Te9  1  0.42209000  0.77441200  0.42861200  1
  Te  Te10  1  0.29911600  0.87114400  0.35258400  1
  Te  Te11  1  0.34580100  0.99347900  0.57138800  1
  Te  Te12  1  0.02441200  0.09580100  0.85232200  1
  Te  Te13  1  0.59866300  0.25361800  0.56507400  1
  Te  Te14  1  0.19653200  0.04911600  0.92797200  1
  Te  Te15  1  0.52333400  0.58858500  0.84932500  1
  Te  Te16  1  0.05346800  0.70088400  0.57202800  1
  Te  Te17  1  0.92400900  0.27333400  0.43474900  1
  Te  Te18  1  0.00652100  0.57791000  0.35232200  1
  Te  Te19  1  0.28358900  0.34866300  0.84504500  1
  Te  Te20  1  0.83858500  0.48925900  0.56525100  1
  Te  Te21  1  0.24347900  0.17209000  0.14767800  1
  Te  Te22  1  0.74638200  0.31145600  0.34504500  1
  Te  Te23  1  0.65133700  0.49638200  0.93492600  1
  Te  Te24  1  0.51856000  0.94653200  0.64741600  1
  Te  Te25  1  0.56145600  0.71641100  0.06507400  1
  Te  Te26  1  0.51074100  0.07599100  0.34932500  1
  Te  Te27  1  0.72666600  0.16141500  0.65067500  1
  Te  Te28  1  0.96641100  0.40133700  0.65495500  1
  Te  Te29  1  0.73925900  0.67400900  0.15067500  1
  Te  Te30  1  0.50361800  0.43854400  0.15495500  1
  Te  Te31  1  0.73144000  0.80346800  0.85258400  1
  Cl  Cl0  1  0.89870900  0.28446200  0.17066100  1
  Cl  Cl1  1  0.79472900  0.11677000  0.89220700  1
  Cl  Cl2  1  0.40052800  0.80279900  0.17736500  1
  Cl  Cl3  1  0.84947200  0.94720100  0.32263500  1
  Cl  Cl4  1  0.62456600  0.52683700  0.67736500  1
  Cl  Cl5  1  0.87539100  0.47193800  0.82578800  1
  Cl  Cl6  1  0.62543400  0.22316300  0.82263500  1
  Cl  Cl7  1  0.77683700  0.59947200  0.40227100  1
  Cl  Cl8  1  0.22456300  0.90252200  0.10779300  1
  Cl  Cl9  1  0.19720100  0.37456600  0.59772900  1
  Cl  Cl10  1  0.09747800  0.20527100  0.32204100  1
  Cl  Cl11  1  0.52806200  0.35385000  0.40345300  1
  Cl  Cl12  1  0.60385000  0.70039700  0.32578800  1
  Cl  Cl13  1  0.36677000  0.97456300  0.82204100  1
  Cl  Cl14  1  0.27195200  0.10129100  0.38575200  1
  Cl  Cl15  1  0.95039700  0.12460900  0.59654700  1
  Cl  Cl16  1  0.88323000  0.77543700  0.67795900  1
  Cl  Cl17  1  0.13619900  0.02195200  0.67066100  1
  Cl  Cl18  1  0.72193800  0.39615000  0.09654700  1
  Cl  Cl19  1  0.71553800  0.88619900  0.61424800  1
  Cl  Cl20  1  0.37460900  0.27806200  0.67421200  1
  Cl  Cl21  1  0.11380100  0.72804800  0.82933900  1
  Cl  Cl22  1  0.45527100  0.63323000  0.60779300  1
  Cl  Cl23  1  0.29960300  0.62539100  0.90345300  1
  Cl  Cl24  1  0.53446200  0.86380100  0.88575200  1
  Cl  Cl25  1  0.05279900  0.37543400  0.90227100  1
  Cl  Cl26  1  0.02543700  0.84747800  0.39220700  1
  Cl  Cl27  1  0.47316300  0.15052800  0.09772900  1
  Cl  Cl28  1  0.97804800  0.64870900  0.11424800  1
  Cl  Cl29  1  0.35129100  0.46553800  0.32933900  1
  Cl  Cl30  1  0.64615000  0.04960300  0.17421200  1
  Cl  Cl31  1  0.15252200  0.54472900  0.17795900  1
  O  O0  1  0.36009300  0.36474500  0.49791700  1
  O  O1  1  0.88990700  0.38525500  0.00208300  1
  O  O2  1  0.38317300  0.88782400  0.99791700  1
  O  O3  1  0.86682700  0.86217600  0.50208300  1
  O  O4  1  0.61474500  0.61682700  0.50465100  1
  O  O5  1  0.11217600  0.11009300  0.49534900  1
  O  O6  1  0.63525500  0.13317300  0.99534900  1
  O  O7  1  0.13782400  0.63990700  0.00465100  1
loop_
_geom_bond_atom_site_label_1
_geom_bond_atom_site_label_2
_geom_bond_distance
_geom_bond_site_symmetry_2
Te0 Te18 2.776200 1_555
Te0 Te5 2.787685 1_555
Te0 Te17 3.094090 1_455
Te1 Te27 2.801442 1_555
Te1 Te26 2.832122 1_555
Te2 Te4 2.776188 1_554
Te2 Te6 2.787690 1_555
Te2 Te29 3.094097 1_555
Te3 Te30 2.801442 1_555
Te3 Te8 3.094090 1_555
Te10 Te11 2.776188 1_555
Te10 Te9 2.787690 1_555
Te10 Te26 3.094097 1_565
Te11 Te24 2.787688 1_555
Te12 Te14 2.776200 1_555
Te12 Te8 2.787685 1_556
Te13 Te26 2.801446 1_555
Te13 Te27 2.832134 1_555
Te14 Te21 2.787685 1_556
Te14 Te7 3.094097 1_555
Te15 Te25 2.801442 1_556
Te15 Te23 2.832134 1_555
Te15 Te31 3.094090 1_555
Te16 Te5 2.776200 1_555
Te16 Te18 2.787685 1_555
Te16 Te20 3.094097 1_455
Te17 Te22 2.801442 1_555
Te17 Te28 2.832134 1_555
Te19 Te7 2.801430 1_555
Te19 Te3 2.832134 1_556
Te20 Te28 2.801430 1_555
Te20 Te22 2.832128 1_555
Te21 Te8 2.776200 1_555
Te23 Te29 2.801446 1_556
Te24 Te9 2.776190 1_555
Te24 Te27 3.094090 1_565
Te25 Te29 2.832122 1_555
Te30 Te7 2.832128 1_554
Te31 Te6 2.776190 1_556
Te31 Te4 2.787688 1_555
Cl0 V6 2.417835 1_554
Cl1 V6 2.395549 1_555
Cl2 V4 2.439060 1_555
Cl3 V2 2.439060 1_555
Cl4 V1 2.439060 1_555
Cl5 V0 2.457327 1_656
Cl5 Te28 3.130468 1_555
Cl6 V6 2.439060 1_555
Cl7 V5 2.439060 1_555
Cl8 V4 2.395549 1_555
Cl9 V3 2.439060 1_555
Cl10 V3 2.395549 1_555
Cl11 V1 2.457327 1_555
Cl11 Te13 3.130468 1_555
Cl12 V5 2.457327 1_555
Cl12 Te30 3.130468 1_555
Cl13 V7 2.395549 1_565
Cl14 V3 2.417842 1_555
Cl15 V2 2.457327 1_545
Cl15 Te1 3.130468 1_555
Cl16 V5 2.395549 1_555
Cl17 V2 2.417835 1_445
Cl18 V6 2.457327 1_554
Cl18 Te23 3.130468 1_554
Cl19 V5 2.417841 1_555
Cl20 V3 2.457327 1_555
Cl20 Te19 3.130468 1_555
Cl21 V4 2.417835 1_556
Cl22 V1 2.395549 1_555
Cl23 V4 2.457327 1_556
Cl23 Te25 3.130468 1_556
Cl24 V7 2.417841 1_565
Cl25 V0 2.439060 1_556
Cl26 V2 2.395549 1_455
Cl27 V7 2.439060 1_554
Cl28 V0 2.417842 1_655
Cl29 V1 2.417835 1_555
Cl30 V7 2.457327 1_554
Cl30 Te22 3.130468 1_555
Cl31 V0 2.395549 1_555
O0 V1 1.700852 1_555
O0 V3 1.985606 1_555
O1 V6 1.700852 1_554
O1 V0 1.985606 1_655
O2 V4 1.700860 1_556
O2 V7 1.985599 1_565
O3 V2 1.700860 1_555
O3 V5 1.985599 1_555
O4 V5 1.700852 1_555
O4 V1 1.985607 1_555
O5 V3 1.700860 1_555
O5 V2 1.985599 1_445
O6 V7 1.700852 1_555
O6 V6 1.985607 1_555
O7 V0 1.700860 1_555
O7 V4 1.985599 1_555
