# generated using pymatgen
data_Ba3PrF9
_symmetry_space_group_name_H-M   'P 1'
_cell_length_a   4.23467200
_cell_length_b   4.37619348
_cell_length_c   14.70219666
_cell_angle_alpha   91.41960890
_cell_angle_beta   97.41330976
_cell_angle_gamma   118.70276232
_symmetry_Int_Tables_number   1
_chemical_formula_structural   Ba3PrF9
_chemical_formula_sum   'Ba3 Pr1 F9'
_cell_volume   235.79966359
_cell_formula_units_Z   1
loop_
 _symmetry_equiv_pos_site_id
 _symmetry_equiv_pos_as_xyz
  1  'x, y, z'
loop_
 _atom_site_type_symbol
 _atom_site_label
 _atom_site_symmetry_multiplicity
 _atom_site_fract_x
 _atom_site_fract_y
 _atom_site_fract_z
 _atom_site_occupancy
  Ba  Ba0  1  0.04016000  0.07183300  0.99815300  1
  Ba  Ba1  1  0.56000500  0.31499900  0.73961900  1
  Ba  Ba2  1  0.03032200  0.53477300  0.48044100  1
  Pr  Pr0  1  0.51109300  0.72507300  0.22771800  1
  F  F0  1  0.66958700  0.38770300  0.92250400  1
  F  F1  1  0.93360500  0.99977900  0.80483800  1
  F  F2  1  0.64055900  0.84233800  0.39875000  1
  F  F3  1  0.18166500  0.62652900  0.66878600  1
  F  F4  1  0.40204400  0.21672200  0.54227000  1
  F  F5  1  0.16688000  0.09656700  0.22056300  1
  F  F6  1  0.90684600  0.47660800  0.30189900  1
  F  F7  1  0.75195100  0.44883500  0.13015600  1
  F  F8  1  0.40128300  0.75824200  0.06430200  1
loop_
_geom_bond_atom_site_label_1
_geom_bond_atom_site_label_2
_geom_bond_distance
_geom_bond_site_symmetry_2
Ba0 F8 2.620274 1_546
Ba0 F0 2.705496 1_455
Ba0 F8 2.706913 1_446
Ba0 F8 2.714169 1_556
Ba0 F0 2.744959 1_445
Ba0 F0 2.748525 1_555
Ba0 F1 2.805150 1_445
Ba1 F0 2.653317 1_555
Ba1 F1 2.658150 1_445
Ba1 F1 2.663766 1_545
Ba1 F3 2.683994 1_655
Ba1 F3 2.692180 1_555
Ba1 F1 2.704626 1_555
Ba1 F3 2.739754 1_545
Ba1 F4 2.865643 1_555
Ba2 F6 2.591037 1_455
Ba2 F4 2.640446 1_455
Ba2 F4 2.653176 1_555
Ba2 F4 2.682256 1_565
Ba2 F2 2.733508 1_555
Ba2 F3 2.734880 1_555
Ba2 F2 2.771413 1_455
Ba2 F2 2.802333 1_445
F2 Pr0 2.489365 1_555
F5 Pr0 2.407483 1_555
F5 Pr0 2.472520 1_445
F5 Pr0 2.650251 1_545
F6 Pr0 2.552990 1_555
F6 Pr0 2.650585 1_655
F6 Pr0 2.978434 1_545
F7 Pr0 2.456634 1_555
F8 Pr0 2.409041 1_555
