# generated using pymatgen
data_Ru(CO)4
_symmetry_space_group_name_H-M   'P 1'
_cell_length_a   15.05497900
_cell_length_b   8.23148900
_cell_length_c   15.45319953
_cell_angle_alpha   69.52698002
_cell_angle_beta   90.00000000
_cell_angle_gamma   90.00000000
_symmetry_Int_Tables_number   1
_chemical_formula_structural   Ru(CO)4
_chemical_formula_sum   'Ru12 C48 O48'
_cell_volume   1794.07667724
_cell_formula_units_Z   12
loop_
 _symmetry_equiv_pos_site_id
 _symmetry_equiv_pos_as_xyz
  1  'x, y, z'
loop_
 _atom_site_type_symbol
 _atom_site_label
 _atom_site_symmetry_multiplicity
 _atom_site_fract_x
 _atom_site_fract_y
 _atom_site_fract_z
 _atom_site_occupancy
  Ru  Ru0  1  0.52535100  0.78118200  0.77835300  1
  Ru  Ru1  1  0.08073600  0.64287600  0.15968100  1
  Ru  Ru2  1  0.97464900  0.78118200  0.27835300  1
  Ru  Ru3  1  0.02535100  0.21881800  0.72164700  1
  Ru  Ru4  1  0.41926400  0.64287600  0.65968100  1
  Ru  Ru5  1  0.83154100  0.23434100  0.70436300  1
  Ru  Ru6  1  0.58073600  0.35712400  0.34031900  1
  Ru  Ru7  1  0.91926400  0.35712400  0.84031900  1
  Ru  Ru8  1  0.47464900  0.21881800  0.22164700  1
  Ru  Ru9  1  0.66845900  0.23434100  0.20436300  1
  Ru  Ru10  1  0.16845900  0.76565900  0.29563700  1
  Ru  Ru11  1  0.33154100  0.76565900  0.79563700  1
  C  C0  1  0.15808800  0.53023800  0.38459100  1
  C  C1  1  0.18202200  0.85712600  0.39395400  1
  C  C2  1  0.51325300  0.01096700  0.68501900  1
  C  C3  1  0.04942300  0.11859100  0.62840700  1
  C  C4  1  0.98026300  0.59962900  0.09398400  1
  C  C5  1  0.98674700  0.01096700  0.18501900  1
  C  C6  1  0.82506700  0.00235400  0.79741800  1
  C  C7  1  0.21450000  0.71613500  0.76499500  1
  C  C8  1  0.86069300  0.74926400  0.23204700  1
  C  C9  1  0.47019800  0.45196000  0.13000100  1
  C  C10  1  0.31797800  0.85712600  0.89395400  1
  C  C11  1  0.92794500  0.58782800  0.74591700  1
  C  C12  1  0.65808800  0.46976200  0.11540900  1
  C  C13  1  0.59571000  0.12373100  0.42893600  1
  C  C14  1  0.95057700  0.88140900  0.37159300  1
  C  C15  1  0.78550000  0.28386500  0.23500500  1
  C  C16  1  0.13930700  0.25073600  0.76795300  1
  C  C17  1  0.36069300  0.25073600  0.26795300  1
  C  C18  1  0.01325300  0.98903300  0.81498100  1
  C  C19  1  0.67493300  0.00235400  0.29741800  1
  C  C20  1  0.51973700  0.59962900  0.59398400  1
  C  C21  1  0.97019800  0.54804000  0.36999900  1
  C  C22  1  0.52980200  0.54804000  0.86999900  1
  C  C23  1  0.81797800  0.14287400  0.60604600  1
  C  C24  1  0.68183900  0.43105600  0.39226100  1
  C  C25  1  0.57205500  0.58782800  0.24591700  1
  C  C26  1  0.54942300  0.88140900  0.87159300  1
  C  C27  1  0.18183900  0.56894400  0.10773900  1
  C  C28  1  0.48026300  0.40037100  0.40601600  1
  C  C29  1  0.28550000  0.71613500  0.26499500  1
  C  C30  1  0.84191200  0.46976200  0.61540900  1
  C  C31  1  0.32506700  0.99764600  0.70258200  1
  C  C32  1  0.90429000  0.12373100  0.92893600  1
  C  C33  1  0.48674700  0.98903300  0.31498100  1
  C  C34  1  0.42794500  0.41217200  0.75408300  1
  C  C35  1  0.17493300  0.99764600  0.20258200  1
  C  C36  1  0.09571000  0.87626900  0.07106400  1
  C  C37  1  0.07205500  0.41217200  0.25408300  1
  C  C38  1  0.63930700  0.74926400  0.73204700  1
  C  C39  1  0.71450000  0.28386500  0.73500500  1
  C  C40  1  0.02980200  0.45196000  0.63000100  1
  C  C41  1  0.31816100  0.56894400  0.60773900  1
  C  C42  1  0.40429000  0.87626900  0.57106400  1
  C  C43  1  0.68202200  0.14287400  0.10604600  1
  C  C44  1  0.01973700  0.40037100  0.90601600  1
  C  C45  1  0.45057700  0.11859100  0.12840700  1
  C  C46  1  0.34191200  0.53023800  0.88459100  1
  C  C47  1  0.81816100  0.43105600  0.89226100  1
  O  O0  1  0.81204100  0.86365600  0.84937200  1
  O  O1  1  0.98489700  0.15154300  0.13190100  1
  O  O2  1  0.56812100  0.73167900  0.19769500  1
  O  O3  1  0.31204100  0.13634400  0.65062800  1
  O  O4  1  0.43433200  0.05289400  0.07526500  1
  O  O5  1  0.75582300  0.47316200  0.92323300  1
  O  O6  1  0.89416800  0.99360400  0.98971900  1
  O  O7  1  0.56566800  0.94710600  0.92473500  1
  O  O8  1  0.41967400  0.42831800  0.44519700  1
  O  O9  1  0.51510300  0.15154300  0.63190100  1
  O  O10  1  0.35599200  0.68754100  0.24351300  1
  O  O11  1  0.24417700  0.52683800  0.07676700  1
  O  O12  1  0.58032600  0.57168200  0.55480300  1
  O  O13  1  0.16284400  0.39353300  0.44023100  1
  O  O14  1  0.79185100  0.72720700  0.20402500  1
  O  O15  1  0.74417700  0.47316200  0.42323300  1
  O  O16  1  0.19349100  0.91093000  0.45303600  1
  O  O17  1  0.20814900  0.27279300  0.79597500  1
  O  O18  1  0.01510300  0.84845700  0.86809900  1
  O  O19  1  0.69349100  0.08907000  0.04696400  1
  O  O20  1  0.18795900  0.13634400  0.15062800  1
  O  O21  1  0.06812100  0.26832100  0.30230500  1
  O  O22  1  0.66284400  0.60646700  0.05976900  1
  O  O23  1  0.60583200  0.99360400  0.48971900  1
  O  O24  1  0.30650900  0.91093000  0.95303600  1
  O  O25  1  0.45844500  0.58510900  0.07255700  1
  O  O26  1  0.93433200  0.94710600  0.42473500  1
  O  O27  1  0.83715600  0.60646700  0.55976900  1
  O  O28  1  0.70814900  0.72720700  0.70402500  1
  O  O29  1  0.29185100  0.27279300  0.29597500  1
  O  O30  1  0.95844500  0.41489100  0.42744300  1
  O  O31  1  0.68795900  0.86365600  0.34937200  1
  O  O32  1  0.14400800  0.68754100  0.74351300  1
  O  O33  1  0.93187900  0.73167900  0.69769500  1
  O  O34  1  0.43187900  0.26832100  0.80230500  1
  O  O35  1  0.48489700  0.84845700  0.36809900  1
  O  O36  1  0.85599200  0.31245900  0.25648700  1
  O  O37  1  0.33715600  0.39353300  0.94023100  1
  O  O38  1  0.25582300  0.52683800  0.57676700  1
  O  O39  1  0.91967400  0.57168200  0.05480300  1
  O  O40  1  0.80650900  0.08907000  0.54696400  1
  O  O41  1  0.08032600  0.42831800  0.94519700  1
  O  O42  1  0.04155500  0.58510900  0.57255700  1
  O  O43  1  0.06566800  0.05289400  0.57526500  1
  O  O44  1  0.10583200  0.00639600  0.01028100  1
  O  O45  1  0.64400800  0.31245900  0.75648700  1
  O  O46  1  0.39416800  0.00639600  0.51028100  1
  O  O47  1  0.54155500  0.41489100  0.92744300  1
loop_
_geom_bond_atom_site_label_1
_geom_bond_atom_site_label_2
_geom_bond_distance
_geom_bond_site_symmetry_2
C0 O13 1.154926 1_555
C0 Ru10 1.950859 1_555
C1 O16 1.158622 1_555
C1 Ru10 1.927972 1_555
C2 O9 1.161513 1_555
C2 Ru0 1.944919 1_545
C3 O43 1.156424 1_555
C3 Ru3 1.928630 1_555
C4 O39 1.161464 1_555
C4 Ru1 1.923083 1_655
C5 O1 1.161513 1_555
C5 Ru2 1.944919 1_545
C6 O0 1.159867 1_545
C6 Ru5 1.950125 1_555
C7 O32 1.160397 1_555
C7 Ru11 1.905322 1_555
C8 O14 1.161737 1_555
C8 Ru2 1.912039 1_555
C9 O25 1.157568 1_555
C9 Ru8 1.947280 1_555
C10 O24 1.158622 1_555
C10 Ru11 1.927972 1_555
C11 O33 1.159166 1_555
C11 Ru7 1.952848 1_555
C12 O22 1.154926 1_555
C12 Ru9 1.950859 1_555
C13 O23 1.161474 1_545
C13 Ru6 1.943356 1_555
C14 O26 1.156424 1_555
C14 Ru2 1.928630 1_555
C15 O36 1.160397 1_555
C15 Ru9 1.905322 1_555
C16 O17 1.161737 1_555
C16 Ru3 1.912039 1_555
C17 O29 1.161737 1_555
C17 Ru8 1.912039 1_555
C18 O18 1.161513 1_555
C18 Ru3 1.944919 1_565
C19 O31 1.159867 1_545
C19 Ru9 1.950125 1_555
C20 O12 1.161464 1_555
C20 Ru4 1.923083 1_555
C21 O30 1.157568 1_555
C21 Ru2 1.947280 1_555
C22 O47 1.157568 1_555
C22 Ru0 1.947280 1_555
C23 O40 1.158622 1_555
C23 Ru5 1.927972 1_555
C24 O15 1.160182 1_555
C24 Ru6 1.916545 1_555
C25 O2 1.159166 1_555
C25 Ru6 1.952848 1_555
C26 O7 1.156424 1_555
C26 Ru0 1.928630 1_555
C27 O11 1.160182 1_555
C27 Ru1 1.916545 1_555
C28 O8 1.161464 1_555
C28 Ru6 1.923083 1_555
C29 O10 1.160397 1_555
C29 Ru10 1.905322 1_555
C30 O27 1.154926 1_555
C30 Ru5 1.950859 1_555
C31 O3 1.159867 1_565
C31 Ru11 1.950125 1_555
C32 O6 1.161474 1_545
C32 Ru7 1.943356 1_555
C33 O35 1.161513 1_555
C33 Ru8 1.944919 1_565
C34 O34 1.159166 1_555
C34 Ru4 1.952848 1_555
C35 O20 1.159867 1_565
C35 Ru10 1.950125 1_555
C36 O44 1.161474 1_565
C36 Ru1 1.943356 1_555
C37 O21 1.159166 1_555
C37 Ru1 1.952848 1_555
C38 O28 1.161737 1_555
C38 Ru0 1.912039 1_555
C39 O45 1.160397 1_555
C39 Ru5 1.905322 1_555
C40 O42 1.157568 1_555
C40 Ru3 1.947280 1_555
C41 O38 1.160182 1_555
C41 Ru4 1.916545 1_555
C42 O46 1.161474 1_565
C42 Ru4 1.943356 1_555
C43 O19 1.158622 1_555
C43 Ru9 1.927972 1_555
C44 O41 1.161464 1_555
C44 Ru7 1.923083 1_455
C45 O4 1.156424 1_555
C45 Ru8 1.928630 1_555
C46 O37 1.154926 1_555
C46 Ru11 1.950859 1_555
C47 O5 1.160182 1_555
C47 Ru7 1.916545 1_555
