# generated using pymatgen
data_Li2SiN2
_symmetry_space_group_name_H-M   'P 1'
_cell_length_a   9.87404552
_cell_length_b   9.88431888
_cell_length_c   14.94855318
_cell_angle_alpha   90.00000000
_cell_angle_beta   90.00000000
_cell_angle_gamma   90.00000000
_symmetry_Int_Tables_number   1
_chemical_formula_structural   Li2SiN2
_chemical_formula_sum   'Li64 Si32 N64'
_cell_volume   1458.95210055
_cell_formula_units_Z   32
loop_
 _symmetry_equiv_pos_site_id
 _symmetry_equiv_pos_as_xyz
  1  'x, y, z'
loop_
 _atom_site_type_symbol
 _atom_site_label
 _atom_site_symmetry_multiplicity
 _atom_site_fract_x
 _atom_site_fract_y
 _atom_site_fract_z
 _atom_site_occupancy
  Li  Li0  1  0.40011476  0.84699753  0.62262423  1
  Li  Li1  1  0.29195073  0.02811694  0.87585497  1
  Li  Li2  1  0.63798255  0.70429226  0.12208222  1
  Li  Li3  1  0.95772305  0.61994305  0.87420579  1
  Li  Li4  1  0.39658561  0.93747975  0.47838391  1
  Li  Li5  1  0.66997787  0.16277325  0.22764257  1
  Li  Li6  1  0.20804927  0.97188306  0.37585497  1
  Li  Li7  1  0.80897805  0.39476211  0.28443946  1
  Li  Li8  1  0.36466901  0.42123008  0.53753336  1
  Li  Li9  1  0.70804927  0.97188306  0.12414503  1
  Li  Li10  1  0.63533099  0.57876992  0.46246664  1
  Li  Li11  1  0.13798255  0.70429226  0.37791778  1
  Li  Li12  1  0.13798255  0.79570774  0.87791778  1
  Li  Li13  1  0.70804927  0.52811694  0.62414503  1
  Li  Li14  1  0.60341439  0.43747975  0.02161609  1
  Li  Li15  1  0.83002213  0.66277325  0.22764257  1
  Li  Li16  1  0.33002213  0.66277325  0.27235743  1
  Li  Li17  1  0.86466901  0.42123008  0.96246664  1
  Li  Li18  1  0.04227695  0.38005695  0.12579421  1
  Li  Li19  1  0.69102195  0.89476211  0.28443946  1
  Li  Li20  1  0.13533099  0.92123008  0.53753336  1
  Li  Li21  1  0.83002213  0.83722675  0.72764257  1
  Li  Li22  1  0.16997787  0.16277325  0.27235743  1
  Li  Li23  1  0.60341439  0.06252025  0.52161609  1
  Li  Li24  1  0.80897805  0.10523789  0.78443946  1
  Li  Li25  1  0.19102195  0.60523789  0.71556054  1
  Li  Li26  1  0.63798255  0.79570774  0.62208222  1
  Li  Li27  1  0.90011476  0.84699753  0.87737577  1
  Li  Li28  1  0.29195073  0.47188306  0.37585497  1
  Li  Li29  1  0.59988524  0.34699753  0.87737577  1
  Li  Li30  1  0.04227695  0.11994305  0.62579421  1
  Li  Li31  1  0.20804927  0.52811694  0.87585497  1
  Li  Li32  1  0.33002213  0.83722675  0.77235743  1
  Li  Li33  1  0.45772305  0.88005695  0.12579421  1
  Li  Li34  1  0.09988524  0.34699753  0.62262423  1
  Li  Li35  1  0.30897805  0.10523789  0.71556054  1
  Li  Li36  1  0.10341439  0.43747975  0.47838391  1
  Li  Li37  1  0.40011476  0.65300247  0.12262423  1
  Li  Li38  1  0.36466901  0.07876992  0.03753336  1
  Li  Li39  1  0.66997787  0.33722675  0.72764257  1
  Li  Li40  1  0.39658561  0.56252025  0.97838391  1
  Li  Li41  1  0.13533099  0.57876992  0.03753336  1
  Li  Li42  1  0.36201745  0.20429226  0.37791778  1
  Li  Li43  1  0.19102195  0.89476211  0.21556054  1
  Li  Li44  1  0.45772305  0.61994305  0.62579421  1
  Li  Li45  1  0.63533099  0.92123008  0.96246664  1
  Li  Li46  1  0.86201745  0.20429226  0.12208222  1
  Li  Li47  1  0.54227695  0.11994305  0.87420579  1
  Li  Li48  1  0.09988524  0.15300247  0.12262423  1
  Li  Li49  1  0.95772305  0.88005695  0.37420579  1
  Li  Li50  1  0.79195073  0.02811694  0.62414503  1
  Li  Li51  1  0.69102195  0.60523789  0.78443946  1
  Li  Li52  1  0.86201745  0.29570774  0.62208222  1
  Li  Li53  1  0.89658561  0.56252025  0.52161609  1
  Li  Li54  1  0.79195073  0.47188306  0.12414503  1
  Li  Li55  1  0.16997787  0.33722675  0.77235743  1
  Li  Li56  1  0.10341439  0.06252025  0.97838391  1
  Li  Li57  1  0.30897805  0.39476211  0.21556054  1
  Li  Li58  1  0.54227695  0.38005695  0.37420579  1
  Li  Li59  1  0.36201745  0.29570774  0.87791778  1
  Li  Li60  1  0.86466901  0.07876992  0.46246664  1
  Li  Li61  1  0.59988524  0.15300247  0.37737577  1
  Li  Li62  1  0.89658561  0.93747975  0.02161609  1
  Li  Li63  1  0.90011476  0.65300247  0.37737577  1
  Si  Si0  1  0.85845451  0.16626067  0.94382661  1
  Si  Si1  1  0.85845451  0.33373933  0.44382661  1
  Si  Si2  1  0.43304264  0.60452434  0.81306459  1
  Si  Si3  1  0.56695736  0.39547566  0.18693541  1
  Si  Si4  1  0.56695736  0.10452434  0.68693541  1
  Si  Si5  1  0.39112463  0.67981897  0.44265394  1
  Si  Si6  1  0.06695736  0.39547566  0.31306459  1
  Si  Si7  1  0.89112463  0.82018103  0.55734606  1
  Si  Si8  1  0.06695736  0.10452434  0.81306459  1
  Si  Si9  1  0.41256381  0.14411367  0.19967152  1
  Si  Si10  1  0.60887537  0.17981897  0.05734606  1
  Si  Si11  1  0.58743619  0.64411367  0.30032848  1
  Si  Si12  1  0.91256381  0.14411367  0.30032848  1
  Si  Si13  1  0.08743619  0.85588633  0.69967152  1
  Si  Si14  1  0.10887537  0.32018103  0.94265394  1
  Si  Si15  1  0.93304264  0.60452434  0.68693541  1
  Si  Si16  1  0.91256381  0.35588633  0.80032848  1
  Si  Si17  1  0.43304264  0.89547566  0.31306459  1
  Si  Si18  1  0.89112463  0.67981897  0.05734606  1
  Si  Si19  1  0.58743619  0.85588633  0.80032848  1
  Si  Si20  1  0.93304264  0.89547566  0.18693541  1
  Si  Si21  1  0.08743619  0.64411367  0.19967152  1
  Si  Si22  1  0.35845451  0.16626067  0.55617339  1
  Si  Si23  1  0.35845451  0.33373933  0.05617339  1
  Si  Si24  1  0.41256381  0.35588633  0.69967152  1
  Si  Si25  1  0.60887537  0.32018103  0.55734606  1
  Si  Si26  1  0.14154549  0.66626067  0.55617339  1
  Si  Si27  1  0.64154549  0.83373933  0.44382661  1
  Si  Si28  1  0.39112463  0.82018103  0.94265394  1
  Si  Si29  1  0.10887537  0.17981897  0.44265394  1
  Si  Si30  1  0.14154549  0.83373933  0.05617339  1
  Si  Si31  1  0.64154549  0.66626067  0.94382661  1
  N  N0  1  0.16361971  0.97463970  0.76775683  1
  N  N1  1  0.66361971  0.52536030  0.23224317  1
  N  N2  1  0.28901889  0.28038115  0.63214953  1
  N  N3  1  0.44371020  0.04068661  0.61513679  1
  N  N4  1  0.21098111  0.78038115  0.63214953  1
  N  N5  1  0.71098111  0.71961885  0.36785047  1
  N  N6  1  0.03039362  0.43353139  0.86973008  1
  N  N7  1  0.49297429  0.27491225  0.26188510  1
  N  N8  1  0.05628980  0.95931339  0.11513679  1
  N  N9  1  0.94371020  0.45931339  0.38486321  1
  N  N10  1  0.66361971  0.97463970  0.73224317  1
  N  N11  1  0.26296649  0.58735440  0.49196311  1
  N  N12  1  0.94371020  0.04068661  0.88486321  1
  N  N13  1  0.33638029  0.47463970  0.76775683  1
  N  N14  1  0.96960638  0.93353139  0.63026992  1
  N  N15  1  0.99297429  0.27491225  0.23811490  1
  N  N16  1  0.51622480  0.75040919  0.01273674  1
  N  N17  1  0.26296649  0.91264560  0.99196311  1
  N  N18  1  0.28901889  0.21961885  0.13214953  1
  N  N19  1  0.98377520  0.24959081  0.51273674  1
  N  N20  1  0.48377520  0.25040919  0.48726326  1
  N  N21  1  0.55628980  0.54068661  0.88486321  1
  N  N22  1  0.31602352  0.80580839  0.37791493  1
  N  N23  1  0.83638029  0.47463970  0.73224317  1
  N  N24  1  0.68397648  0.30580839  0.12208507  1
  N  N25  1  0.49297429  0.22508775  0.76188510  1
  N  N26  1  0.98377520  0.25040919  0.01273674  1
  N  N27  1  0.71098111  0.78038115  0.86785047  1
  N  N28  1  0.05628980  0.54068661  0.61513679  1
  N  N29  1  0.46960638  0.93353139  0.86973008  1
  N  N30  1  0.55628980  0.95931339  0.38486321  1
  N  N31  1  0.01622480  0.74959081  0.98726326  1
  N  N32  1  0.48377520  0.24959081  0.98726326  1
  N  N33  1  0.81602352  0.69419161  0.62208507  1
  N  N34  1  0.78901889  0.28038115  0.86785047  1
  N  N35  1  0.73703351  0.08735440  0.00803689  1
  N  N36  1  0.46960638  0.56646861  0.36973008  1
  N  N37  1  0.31602352  0.69419161  0.87791493  1
  N  N38  1  0.18397648  0.30580839  0.37791493  1
  N  N39  1  0.01622480  0.75040919  0.48726326  1
  N  N40  1  0.53039362  0.06646861  0.13026992  1
  N  N41  1  0.00702571  0.72508775  0.76188510  1
  N  N42  1  0.53039362  0.43353139  0.63026992  1
  N  N43  1  0.99297429  0.22508775  0.73811490  1
  N  N44  1  0.33638029  0.02536030  0.26775683  1
  N  N45  1  0.16361971  0.52536030  0.26775683  1
  N  N46  1  0.21098111  0.71961885  0.13214953  1
  N  N47  1  0.23703351  0.08735440  0.49196311  1
  N  N48  1  0.76296649  0.58735440  0.00803689  1
  N  N49  1  0.76296649  0.91264560  0.50803689  1
  N  N50  1  0.50702571  0.77491225  0.23811490  1
  N  N51  1  0.78901889  0.21961885  0.36785047  1
  N  N52  1  0.96960638  0.56646861  0.13026992  1
  N  N53  1  0.03039362  0.06646861  0.36973008  1
  N  N54  1  0.51622480  0.74959081  0.51273674  1
  N  N55  1  0.50702571  0.72508775  0.73811490  1
  N  N56  1  0.23703351  0.41264560  0.99196311  1
  N  N57  1  0.73703351  0.41264560  0.50803689  1
  N  N58  1  0.18397648  0.19419161  0.87791493  1
  N  N59  1  0.83638029  0.02536030  0.23224317  1
  N  N60  1  0.00702571  0.77491225  0.26188510  1
  N  N61  1  0.81602352  0.80580839  0.12208507  1
  N  N62  1  0.44371020  0.45931339  0.11513679  1
  N  N63  1  0.68397648  0.19419161  0.62208507  1
loop_
_geom_bond_atom_site_label_1
_geom_bond_atom_site_label_2
_geom_bond_distance
_geom_bond_site_symmetry_2
Li0 N3 1.965471 1_565
Li0 N4 1.985309 1_555
Li0 N54 2.222548 1_555
Li0 N55 2.355189 1_555
Li1 N58 1.957612 1_555
Li1 N29 1.989873 1_545
Li1 N17 2.096920 1_545
Li1 N0 2.120432 1_545
Li2 N61 2.024193 1_555
Li2 N16 2.079650 1_555
Li2 N50 2.273290 1_555
Li2 N48 2.401119 1_555
Li2 N1 2.429789 1_555
Li3 N6 1.978473 1_655
Li3 N41 2.033777 1_655
Li3 N31 2.198209 1_655
Li4 N30 2.118413 1_555
Li4 N22 2.140615 1_555
Li4 N47 2.172036 1_565
Li4 N54 2.260145 1_555
Li4 N3 2.331559 1_565
Li5 N24 2.123163 1_555
Li5 N7 2.131949 1_555
Li5 N59 2.132883 1_555
Li5 N40 2.219108 1_555
Li5 N51 2.467819 1_555
Li6 N22 1.957612 1_555
Li6 N53 1.989873 1_565
Li6 N47 2.096920 1_565
Li6 N44 2.120432 1_565
Li7 N1 2.082108 1_555
Li7 N9 2.104877 1_555
Li7 N51 2.142543 1_555
Li7 N15 2.276754 1_555
Li8 N11 2.041750 1_555
Li8 N2 2.120527 1_555
Li8 N42 2.148084 1_555
Li8 N20 2.190588 1_555
Li9 N61 1.957612 1_555
Li9 N40 1.989873 1_565
Li9 N35 2.096920 1_565
Li9 N59 2.120432 1_565
Li10 N57 2.041750 1_555
Li10 N5 2.120527 1_555
Li10 N36 2.148084 1_555
Li10 N54 2.190588 1_555
Li11 N22 2.024193 1_555
Li11 N39 2.079650 1_555
Li11 N60 2.273290 1_555
Li11 N11 2.401119 1_555
Li11 N45 2.429789 1_555
Li12 N37 2.024193 1_555
Li12 N31 2.079650 1_555
Li12 N41 2.273290 1_555
Li12 N17 2.401119 1_555
Li12 N0 2.429789 1_555
Li13 N33 1.957612 1_555
Li13 N42 1.989873 1_555
Li13 N57 2.096920 1_555
Li13 N23 2.120432 1_555
Li14 N62 2.118413 1_555
Li14 N24 2.140615 1_555
Li14 N48 2.172036 1_555
Li14 N32 2.260145 1_554
Li14 N21 2.331559 1_554
Li15 N61 2.123163 1_555
Li15 N60 2.131949 1_655
Li15 N1 2.132883 1_555
Li15 N52 2.219108 1_555
Li15 N5 2.467819 1_555
Li16 N22 2.123163 1_555
Li16 N50 2.131949 1_555
Li16 N45 2.132883 1_555
Li16 N36 2.219108 1_555
Li16 N46 2.467819 1_555
Li17 N48 2.041750 1_556
Li17 N34 2.120527 1_555
Li17 N6 2.148084 1_655
Li17 N26 2.190588 1_556
Li18 N52 1.978473 1_455
Li18 N15 2.033777 1_455
Li18 N26 2.198209 1_455
Li19 N59 2.082108 1_565
Li19 N30 2.104877 1_555
Li19 N5 2.142543 1_555
Li19 N50 2.276754 1_555
Li20 N47 2.041750 1_565
Li20 N4 2.120527 1_555
Li20 N14 2.148084 1_455
Li20 N39 2.190588 1_555
Li21 N33 2.123163 1_555
Li21 N41 2.131949 1_655
Li21 N10 2.132883 1_555
Li21 N14 2.219108 1_555
Li21 N27 2.467819 1_555
Li22 N38 2.123163 1_555
Li22 N15 2.131949 1_455
Li22 N44 2.132883 1_555
Li22 N53 2.219108 1_555
Li22 N18 2.467819 1_555
Li23 N3 2.118413 1_555
Li23 N63 2.140615 1_555
Li23 N49 2.172036 1_545
Li23 N20 2.260145 1_555
Li23 N30 2.331559 1_545
Li24 N10 2.082108 1_545
Li24 N12 2.104877 1_555
Li24 N34 2.142543 1_555
Li24 N43 2.276754 1_555
Li25 N13 2.082108 1_555
Li25 N28 2.104877 1_555
Li25 N4 2.142543 1_555
Li25 N41 2.276754 1_555
Li26 N33 2.024193 1_555
Li26 N54 2.079650 1_555
Li26 N55 2.273290 1_555
Li26 N49 2.401119 1_555
Li26 N10 2.429789 1_555
Li27 N12 1.965471 1_565
Li27 N27 1.985309 1_555
Li27 N31 2.222548 1_655
Li27 N41 2.355189 1_655
Li28 N38 1.957612 1_555
Li28 N36 1.989873 1_555
Li28 N11 2.096920 1_555
Li28 N45 2.120432 1_555
Li29 N21 1.965471 1_555
Li29 N34 1.985309 1_555
Li29 N32 2.222548 1_555
Li29 N25 2.355189 1_555
Li30 N14 1.978473 1_445
Li30 N43 2.033777 1_455
Li30 N19 2.198209 1_455
Li31 N37 1.957612 1_555
Li31 N6 1.989873 1_555
Li31 N56 2.096920 1_555
Li31 N13 2.120432 1_555
Li32 N37 2.123163 1_555
Li32 N55 2.131949 1_555
Li32 N0 2.132883 1_555
Li32 N29 2.219108 1_555
Li32 N4 2.467819 1_555
Li33 N40 1.978473 1_565
Li33 N50 2.033777 1_555
Li33 N16 2.198209 1_555
Li34 N28 1.965471 1_555
Li34 N2 1.985309 1_555
Li34 N19 2.222548 1_455
Li34 N43 2.355189 1_455
Li35 N0 2.082108 1_545
Li35 N3 2.104877 1_555
Li35 N2 2.142543 1_555
Li35 N25 2.276754 1_555
Li36 N9 2.118413 1_455
Li36 N38 2.140615 1_555
Li36 N11 2.172036 1_555
Li36 N19 2.260145 1_455
Li36 N28 2.331559 1_555
Li37 N62 1.965471 1_555
Li37 N46 1.985309 1_555
Li37 N16 2.222548 1_555
Li37 N50 2.355189 1_555
Li38 N17 2.041750 1_544
Li38 N18 2.120527 1_555
Li38 N40 2.148084 1_555
Li38 N32 2.190588 1_554
Li39 N63 2.123163 1_555
Li39 N25 2.131949 1_555
Li39 N23 2.132883 1_555
Li39 N42 2.219108 1_555
Li39 N34 2.467819 1_555
Li40 N21 2.118413 1_555
Li40 N37 2.140615 1_555
Li40 N56 2.172036 1_555
Li40 N16 2.260145 1_556
Li40 N62 2.331559 1_556
Li41 N56 2.041750 1_554
Li41 N46 2.120527 1_555
Li41 N52 2.148084 1_455
Li41 N31 2.190588 1_554
Li42 N38 2.024193 1_555
Li42 N20 2.079650 1_555
Li42 N7 2.273290 1_555
Li42 N47 2.401119 1_555
Li42 N44 2.429789 1_555
Li43 N44 2.082108 1_565
Li43 N8 2.104877 1_555
Li43 N46 2.142543 1_555
Li43 N60 2.276754 1_555
Li44 N42 1.978473 1_555
Li44 N55 2.033777 1_555
Li44 N54 2.198209 1_555
Li45 N35 2.041750 1_566
Li45 N27 2.120527 1_555
Li45 N29 2.148084 1_555
Li45 N16 2.190588 1_556
Li46 N24 2.024193 1_555
Li46 N26 2.079650 1_555
Li46 N15 2.273290 1_555
Li46 N35 2.401119 1_555
Li46 N59 2.429789 1_555
Li47 N29 1.978473 1_545
Li47 N25 2.033777 1_555
Li47 N32 2.198209 1_555
Li48 N8 1.965471 1_545
Li48 N18 1.985309 1_555
Li48 N26 2.222548 1_455
Li48 N15 2.355189 1_455
Li49 N53 1.978473 1_665
Li49 N60 2.033777 1_655
Li49 N39 2.198209 1_655
Li50 N63 1.957612 1_555
Li50 N14 1.989873 1_545
Li50 N49 2.096920 1_545
Li50 N10 2.120432 1_545
Li51 N23 2.082108 1_555
Li51 N21 2.104877 1_555
Li51 N27 2.142543 1_555
Li51 N55 2.276754 1_555
Li52 N63 2.024193 1_555
Li52 N19 2.079650 1_555
Li52 N43 2.273290 1_555
Li52 N57 2.401119 1_555
Li52 N23 2.429789 1_555
Li53 N28 2.118413 1_655
Li53 N33 2.140615 1_555
Li53 N57 2.172036 1_555
Li53 N39 2.260145 1_655
Li53 N9 2.331559 1_555
Li54 N24 1.957612 1_555
Li54 N52 1.989873 1_555
Li54 N48 2.096920 1_555
Li54 N1 2.120432 1_555
Li55 N58 2.123163 1_555
Li55 N43 2.131949 1_455
Li55 N13 2.132883 1_555
Li55 N6 2.219108 1_555
Li55 N2 2.467819 1_555
Li56 N12 2.118413 1_455
Li56 N58 2.140615 1_555
Li56 N17 2.172036 1_545
Li56 N26 2.260145 1_456
Li56 N8 2.331559 1_546
Li57 N45 2.082108 1_555
Li57 N62 2.104877 1_555
Li57 N18 2.142543 1_555
Li57 N7 2.276754 1_555
Li58 N36 1.978473 1_555
Li58 N7 2.033777 1_555
Li58 N20 2.198209 1_555
Li59 N58 2.024193 1_555
Li59 N32 2.079650 1_555
Li59 N25 2.273290 1_555
Li59 N56 2.401119 1_555
Li59 N13 2.429789 1_555
Li60 N49 2.041750 1_545
Li60 N51 2.120527 1_555
Li60 N53 2.148084 1_655
Li60 N19 2.190588 1_555
Li61 N30 1.965471 1_545
Li61 N51 1.985309 1_555
Li61 N20 2.222548 1_555
Li61 N7 2.355189 1_555
Li62 N8 2.118413 1_655
Li62 N61 2.140615 1_555
Li62 N35 2.172036 1_565
Li62 N31 2.260145 1_654
Li62 N12 2.331559 1_564
Li63 N9 1.965471 1_555
Li63 N5 1.985309 1_555
Li63 N39 2.222548 1_655
Li63 N60 2.355189 1_655
N0 Si13 1.726132 1_555
N0 Si8 1.737206 1_565
N1 Si11 1.726132 1_555
N1 Si3 1.737206 1_555
N2 Si22 1.741362 1_555
N2 Si24 1.750405 1_555
N3 Si22 1.739588 1_555
N3 Si4 1.740993 1_555
N4 Si26 1.741362 1_555
N4 Si13 1.750405 1_555
N5 Si27 1.741362 1_555
N5 Si11 1.750405 1_555
N6 Si16 1.737513 1_455
N6 Si14 1.744743 1_555
N7 Si9 1.779544 1_555
N7 Si3 1.791379 1_555
N8 Si30 1.739588 1_555
N8 Si20 1.740993 1_455
N9 Si1 1.739588 1_555
N9 Si6 1.740993 1_655
N10 Si19 1.726132 1_555
N10 Si4 1.737206 1_565
N11 Si26 1.722502 1_555
N11 Si5 1.726255 1_555
N12 Si0 1.739588 1_555
N12 Si8 1.740993 1_655
N13 Si24 1.726132 1_555
N13 Si2 1.737206 1_555
N14 Si13 1.737513 1_655
N14 Si7 1.744743 1_555
N15 Si12 1.779544 1_555
N15 Si6 1.791379 1_655
N16 Si28 1.760393 1_554
N16 Si31 1.812220 1_554
N17 Si30 1.722502 1_556
N17 Si28 1.726255 1_555
N18 Si23 1.741362 1_555
N18 Si9 1.750405 1_555
N19 Si29 1.760393 1_655
N19 Si1 1.812220 1_555
N20 Si25 1.760393 1_555
N20 Si22 1.812220 1_555
N21 Si31 1.739588 1_555
N21 Si2 1.740993 1_555
N22 Si5 1.742776 1_555
N22 Si17 1.749391 1_555
N23 Si16 1.726132 1_555
N23 Si15 1.737206 1_555
N24 Si10 1.742776 1_555
N24 Si3 1.749391 1_555
N25 Si24 1.779544 1_555
N25 Si4 1.791379 1_555
N26 Si14 1.760393 1_654
N26 Si0 1.812220 1_554
N27 Si31 1.741362 1_555
N27 Si19 1.750405 1_555
N28 Si26 1.739588 1_555
N28 Si15 1.740993 1_455
N29 Si19 1.737513 1_555
N29 Si28 1.744743 1_555
N30 Si27 1.739588 1_555
N30 Si17 1.740993 1_555
N31 Si18 1.760393 1_456
N31 Si30 1.812220 1_556
N32 Si10 1.760393 1_556
N32 Si23 1.812220 1_556
N33 Si7 1.742776 1_555
N33 Si15 1.749391 1_555
N34 Si0 1.741362 1_555
N34 Si16 1.750405 1_555
N35 Si0 1.722502 1_554
N35 Si10 1.726255 1_555
N36 Si11 1.737513 1_555
N36 Si5 1.744743 1_555
N37 Si28 1.742776 1_555
N37 Si2 1.749391 1_555
N38 Si29 1.742776 1_555
N38 Si6 1.749391 1_555
N39 Si7 1.760393 1_455
N39 Si26 1.812220 1_555
N40 Si9 1.737513 1_555
N40 Si10 1.744743 1_555
N41 Si13 1.779544 1_555
N41 Si15 1.791379 1_455
N42 Si24 1.737513 1_555
N42 Si25 1.744743 1_555
N43 Si16 1.779544 1_555
N43 Si8 1.791379 1_655
N44 Si9 1.726132 1_555
N44 Si17 1.737206 1_545
N45 Si21 1.726132 1_555
N45 Si6 1.737206 1_555
N46 Si30 1.741362 1_555
N46 Si21 1.750405 1_555
N47 Si22 1.722502 1_555
N47 Si29 1.726255 1_555
N48 Si31 1.722502 1_554
N48 Si18 1.726255 1_555
N49 Si27 1.722502 1_555
N49 Si7 1.726255 1_555
N50 Si11 1.779544 1_555
N50 Si17 1.791379 1_555
N51 Si1 1.741362 1_555
N51 Si12 1.750405 1_555
N52 Si21 1.737513 1_655
N52 Si18 1.744743 1_555
N53 Si12 1.737513 1_455
N53 Si29 1.744743 1_555
N54 Si5 1.760393 1_555
N54 Si27 1.812220 1_555
N55 Si19 1.779544 1_555
N55 Si2 1.791379 1_555
N56 Si23 1.722502 1_556
N56 Si14 1.726255 1_555
N57 Si1 1.722502 1_555
N57 Si25 1.726255 1_555
N58 Si14 1.742776 1_555
N58 Si8 1.749391 1_555
N59 Si12 1.726132 1_555
N59 Si20 1.737206 1_545
N60 Si21 1.779544 1_555
N60 Si20 1.791379 1_455
N61 Si18 1.742776 1_555
N61 Si20 1.749391 1_555
N62 Si23 1.739588 1_555
N62 Si3 1.740993 1_555
N63 Si25 1.742776 1_555
N63 Si4 1.749391 1_555
