# generated using pymatgen
data_Tb2PbS4
_symmetry_space_group_name_H-M   'P 1'
_cell_length_a   7.39358491
_cell_length_b   7.39358491
_cell_length_c   7.39358491
_cell_angle_alpha   109.33797329
_cell_angle_beta   109.33797329
_cell_angle_gamma   109.73804527
_symmetry_Int_Tables_number   1
_chemical_formula_structural   Tb2PbS4
_chemical_formula_sum   'Tb4 Pb2 S8'
_cell_volume   311.12595015
_cell_formula_units_Z   2
loop_
 _symmetry_equiv_pos_site_id
 _symmetry_equiv_pos_as_xyz
  1  'x, y, z'
loop_
 _atom_site_type_symbol
 _atom_site_label
 _atom_site_symmetry_multiplicity
 _atom_site_fract_x
 _atom_site_fract_y
 _atom_site_fract_z
 _atom_site_occupancy
  Tb  Tb0  1  0.12500000  0.74564300  0.12064300  1
  Tb  Tb1  1  0.25435700  0.37500000  0.37935700  1
  Tb  Tb2  1  0.62500000  0.00435700  0.87935700  1
  Tb  Tb3  1  0.99564300  0.87500000  0.62064300  1
  Pb  Pb0  1  0.50000000  0.50000000  0.00000000  1
  Pb  Pb1  1  0.75000000  0.25000000  0.50000000  1
  S  S0  1  0.01342900  0.25853500  0.90147000  1
  S  S1  1  0.74146500  0.64293500  0.75489400  1
  S  S2  1  0.36195900  0.10706500  0.59853000  1
  S  S3  1  0.23657100  0.63804100  0.74510600  1
  S  S4  1  0.89293500  0.49146500  0.25489400  1
  S  S5  1  0.88804100  0.98657100  0.24510600  1
  S  S6  1  0.35706500  0.11195900  0.09853000  1
  S  S7  1  0.50853500  0.76342900  0.40147000  1
loop_
_geom_bond_atom_site_label_1
_geom_bond_atom_site_label_2
_geom_bond_distance
_geom_bond_site_symmetry_2
Pb0 S4 2.927859 1_555
Pb0 S7 2.927859 1_555
Pb0 S2 2.927859 1_554
Pb0 S3 2.927859 1_554
Pb0 S1 3.118479 1_554
Pb0 S5 3.118479 1_555
Pb0 S0 3.118479 1_554
Pb0 S6 3.118479 1_555
Pb1 S1 2.927859 1_555
Pb1 S5 2.927859 1_545
Pb1 S0 2.927859 1_655
Pb1 S6 2.927859 1_555
Pb1 S3 3.118479 1_655
Pb1 S4 3.118479 1_555
Pb1 S2 3.118479 1_555
Pb1 S7 3.118479 1_545
S0 Tb2 2.765193 1_455
S0 Tb3 2.835048 1_445
S0 Tb1 3.029753 1_556
S0 Tb0 3.085440 1_556
S1 Tb3 2.765193 1_555
S1 Tb0 2.835048 1_656
S1 Tb2 3.029753 1_565
S1 Tb1 3.085440 1_555
S2 Tb3 2.765193 1_445
S2 Tb2 2.835048 1_555
S2 Tb0 3.029753 1_545
S2 Tb1 3.085440 1_555
S3 Tb2 2.765193 1_565
S3 Tb1 2.835048 1_555
S3 Tb3 3.029753 1_455
S3 Tb0 3.085440 1_556
S4 Tb0 2.765193 1_655
S4 Tb3 2.835048 1_555
S4 Tb1 3.029753 1_655
S4 Tb2 3.085440 1_554
S5 Tb1 2.765193 1_665
S5 Tb2 2.835048 1_564
S5 Tb0 3.029753 1_655
S5 Tb3 3.085440 1_555
S6 Tb0 2.765193 1_545
S6 Tb1 2.835048 1_555
S6 Tb3 3.029753 1_444
S6 Tb2 3.085440 1_554
S7 Tb1 2.765193 1_555
S7 Tb0 2.835048 1_555
S7 Tb2 3.029753 1_565
S7 Tb3 3.085440 1_555
