# generated using pymatgen
data_Ag9(PbO3)4
_symmetry_space_group_name_H-M   'P 1'
_cell_length_a   10.44199200
_cell_length_b   8.82837500
_cell_length_c   12.00666661
_cell_angle_alpha   47.29474715
_cell_angle_beta   90.00000000
_cell_angle_gamma   90.00000000
_symmetry_Int_Tables_number   1
_chemical_formula_structural   Ag9(PbO3)4
_chemical_formula_sum   'Ag18 Pb8 O24'
_cell_volume   813.36729955
_cell_formula_units_Z   2
loop_
 _symmetry_equiv_pos_site_id
 _symmetry_equiv_pos_as_xyz
  1  'x, y, z'
loop_
 _atom_site_type_symbol
 _atom_site_label
 _atom_site_symmetry_multiplicity
 _atom_site_fract_x
 _atom_site_fract_y
 _atom_site_fract_z
 _atom_site_occupancy
  Ag  Ag0  1  0.74783700  0.00259100  0.62247200  1
  Ag  Ag1  1  0.00000000  0.00000000  0.50000000  1
  Ag  Ag2  1  0.74394800  0.23216300  0.25991800  1
  Ag  Ag3  1  0.25216300  0.99740900  0.37752800  1
  Ag  Ag4  1  0.99997800  0.00008800  0.24843400  1
  Ag  Ag5  1  0.49997800  0.99991200  0.25156600  1
  Ag  Ag6  1  0.25605200  0.76783700  0.74008200  1
  Ag  Ag7  1  0.75216300  0.00259100  0.12247200  1
  Ag  Ag8  1  0.25039100  0.24044500  0.00535100  1
  Ag  Ag9  1  0.50000000  0.00000000  0.00000000  1
  Ag  Ag10  1  0.24783700  0.99740900  0.87752800  1
  Ag  Ag11  1  0.75605200  0.23216300  0.75991800  1
  Ag  Ag12  1  0.75039100  0.75955500  0.49464900  1
  Ag  Ag13  1  0.00002200  0.99991200  0.75156600  1
  Ag  Ag14  1  0.50002200  0.00008800  0.74843400  1
  Ag  Ag15  1  0.24394800  0.76783700  0.24008200  1
  Ag  Ag16  1  0.24960900  0.24044500  0.50535100  1
  Ag  Ag17  1  0.74960900  0.75955500  0.99464900  1
  Pb  Pb0  1  0.08364500  0.50481800  0.12400900  1
  Pb  Pb1  1  0.91635500  0.49518200  0.87599100  1
  Pb  Pb2  1  0.58063000  0.50647400  0.86939200  1
  Pb  Pb3  1  0.41635500  0.50481800  0.62400900  1
  Pb  Pb4  1  0.08063000  0.49352600  0.63060800  1
  Pb  Pb5  1  0.91937000  0.50647400  0.36939200  1
  Pb  Pb6  1  0.58364500  0.49518200  0.37599100  1
  Pb  Pb7  1  0.41937000  0.49352600  0.13060800  1
  O  O0  1  0.25084900  0.30657400  0.28346200  1
  O  O1  1  0.56070100  0.69132900  0.93528600  1
  O  O2  1  0.93788300  0.69071900  0.93326200  1
  O  O3  1  0.06211700  0.30928100  0.06673800  1
  O  O4  1  0.43929900  0.30867100  0.06471400  1
  O  O5  1  0.74762100  0.31240200  0.02942300  1
  O  O6  1  0.74915100  0.69342600  0.71653800  1
  O  O7  1  0.06371300  0.69212000  0.68604100  1
  O  O8  1  0.43574000  0.68720100  0.68863200  1
  O  O9  1  0.56371300  0.30788000  0.81395900  1
  O  O10  1  0.93574000  0.31279900  0.81136800  1
  O  O11  1  0.24915100  0.30657400  0.78346200  1
  O  O12  1  0.24762100  0.68759800  0.47057700  1
  O  O13  1  0.56211700  0.69071900  0.43326200  1
  O  O14  1  0.93929900  0.69132900  0.43528600  1
  O  O15  1  0.06070100  0.30867100  0.56471400  1
  O  O16  1  0.43788300  0.30928100  0.56673800  1
  O  O17  1  0.75237900  0.31240200  0.52942300  1
  O  O18  1  0.75084900  0.69342600  0.21653800  1
  O  O19  1  0.06426000  0.68720100  0.18863200  1
  O  O20  1  0.43628700  0.69212000  0.18604100  1
  O  O21  1  0.56426000  0.31279900  0.31136800  1
  O  O22  1  0.93628700  0.30788000  0.31395900  1
  O  O23  1  0.25237900  0.68759800  0.97057700  1
loop_
_geom_bond_atom_site_label_1
_geom_bond_atom_site_label_2
_geom_bond_distance
_geom_bond_site_symmetry_2
Ag0 O6 2.131676 1_545
Ag0 O17 2.141588 1_555
Ag1 O7 2.141137 1_545
Ag1 O22 2.141137 1_455
Ag2 O21 2.237277 1_555
Ag2 O22 2.343045 1_555
Ag2 O5 2.345842 1_555
Ag3 O0 2.131676 1_565
Ag3 O12 2.141588 1_555
Ag4 O3 2.133945 1_655
Ag4 O14 2.137673 1_545
Ag5 O13 2.133945 1_555
Ag5 O4 2.137673 1_565
Ag6 O8 2.237277 1_555
Ag6 O7 2.343045 1_555
Ag6 O23 2.345842 1_555
Ag7 O18 2.131676 1_545
Ag7 O5 2.141588 1_555
Ag8 O11 2.308443 1_554
Ag8 O4 2.311753 1_555
Ag8 O3 2.320585 1_555
Ag9 O20 2.141137 1_545
Ag9 O9 2.141137 1_554
Ag10 O11 2.131676 1_565
Ag10 O23 2.141588 1_555
Ag11 O10 2.237277 1_555
Ag11 O9 2.343045 1_555
Ag11 O17 2.345842 1_555
Ag12 O6 2.308443 1_555
Ag12 O14 2.311753 1_555
Ag12 O13 2.320585 1_555
Ag13 O2 2.133945 1_455
Ag13 O15 2.137673 1_565
Ag14 O16 2.133945 1_555
Ag14 O1 2.137673 1_545
Ag15 O19 2.237277 1_555
Ag15 O20 2.343045 1_555
Ag15 O12 2.345842 1_555
Ag16 O0 2.308443 1_555
Ag16 O15 2.311753 1_555
Ag16 O16 2.320585 1_555
Ag17 O18 2.308443 1_556
Ag17 O1 2.311753 1_555
Ag17 O2 2.320585 1_555
O0 Pb7 2.253890 1_555
O0 Pb0 2.287280 1_555
O1 Pb2 2.254767 1_555
O1 Pb7 2.274227 1_556
O2 Pb1 2.261320 1_555
O2 Pb0 2.270856 1_656
O3 Pb0 2.261320 1_555
O3 Pb1 2.270856 1_454
O4 Pb7 2.254767 1_555
O4 Pb2 2.274227 1_554
O5 Pb1 2.251589 1_554
O5 Pb2 2.280891 1_554
O6 Pb2 2.253890 1_555
O6 Pb1 2.287280 1_555
O7 Pb4 2.265165 1_555
O7 Pb1 2.283254 1_455
O8 Pb2 2.201785 1_555
O8 Pb3 2.220410 1_555
O9 Pb2 2.265165 1_555
O9 Pb3 2.283254 1_555
O10 Pb4 2.201785 1_655
O10 Pb1 2.220410 1_555
O11 Pb4 2.253890 1_555
O11 Pb3 2.287280 1_555
O12 Pb3 2.251589 1_555
O12 Pb4 2.280891 1_555
O13 Pb6 2.261320 1_555
O13 Pb3 2.270856 1_555
O14 Pb5 2.254767 1_555
O14 Pb4 2.274227 1_655
O15 Pb4 2.254767 1_555
O15 Pb5 2.274227 1_455
O16 Pb3 2.261320 1_555
O16 Pb6 2.270856 1_555
O17 Pb6 2.251589 1_555
O17 Pb5 2.280891 1_555
O18 Pb5 2.253890 1_555
O18 Pb6 2.287280 1_555
O19 Pb5 2.201785 1_455
O19 Pb0 2.220410 1_555
O20 Pb7 2.265165 1_555
O20 Pb6 2.283254 1_555
O21 Pb7 2.201785 1_555
O21 Pb6 2.220410 1_555
O22 Pb5 2.265165 1_555
O22 Pb0 2.283254 1_655
O23 Pb0 2.251589 1_556
O23 Pb7 2.280891 1_556
