# generated using pymatgen
data_Li2Ti(PO3)5
_symmetry_space_group_name_H-M   'P 1'
_cell_length_a   13.49089400
_cell_length_b   5.20548100
_cell_length_c   8.90110702
_cell_angle_alpha   77.41613498
_cell_angle_beta   90.00000000
_cell_angle_gamma   90.00000000
_symmetry_Int_Tables_number   1
_chemical_formula_structural   Li2Ti(PO3)5
_chemical_formula_sum   'Li4 Ti2 P10 O30'
_cell_volume   610.07849290
_cell_formula_units_Z   2
loop_
 _symmetry_equiv_pos_site_id
 _symmetry_equiv_pos_as_xyz
  1  'x, y, z'
loop_
 _atom_site_type_symbol
 _atom_site_label
 _atom_site_symmetry_multiplicity
 _atom_site_fract_x
 _atom_site_fract_y
 _atom_site_fract_z
 _atom_site_occupancy
  Li  Li0  1  0.38658100  0.06628700  0.89623800  1
  Li  Li1  1  0.88658100  0.93371300  0.10376200  1
  Li  Li2  1  0.61341900  0.93371300  0.10376200  1
  Li  Li3  1  0.11341900  0.06628700  0.89623800  1
  Ti  Ti0  1  0.00000000  0.50000000  0.50000000  1
  Ti  Ti1  1  0.50000000  0.50000000  0.50000000  1
  P  P0  1  0.64106100  0.00013900  0.51583800  1
  P  P1  1  0.07637700  0.34359800  0.18387400  1
  P  P2  1  0.42362300  0.34359800  0.18387400  1
  P  P3  1  0.14106100  0.99986100  0.48416200  1
  P  P4  1  0.85893900  0.00013900  0.51583800  1
  P  P5  1  0.75000000  0.45551700  0.01223700  1
  P  P6  1  0.57637700  0.65640200  0.81612600  1
  P  P7  1  0.25000000  0.54448300  0.98776300  1
  P  P8  1  0.92362300  0.65640200  0.81612600  1
  P  P9  1  0.35893900  0.99986100  0.48416200  1
  O  O0  1  0.75000000  0.71422700  0.06093000  1
  O  O1  1  0.87419800  0.29101000  0.50316000  1
  O  O2  1  0.03189300  0.19358600  0.07541800  1
  O  O3  1  0.25000000  0.80527700  0.87738400  1
  O  O4  1  0.62580200  0.29101000  0.50316000  1
  O  O5  1  0.65749100  0.44525900  0.89440200  1
  O  O6  1  0.12580200  0.70899000  0.49684000  1
  O  O7  1  0.35526500  0.14146900  0.30727700  1
  O  O8  1  0.46810700  0.19358600  0.07541800  1
  O  O9  1  0.57391900  0.85856400  0.42417900  1
  O  O10  1  0.00905300  0.49077400  0.27219700  1
  O  O11  1  0.49094700  0.49077400  0.27219700  1
  O  O12  1  0.07391900  0.14143600  0.57582100  1
  O  O13  1  0.96810700  0.80641400  0.92458200  1
  O  O14  1  0.75000000  0.95513100  0.45881100  1
  O  O15  1  0.84250900  0.44525900  0.89440200  1
  O  O16  1  0.42608100  0.14143600  0.57582100  1
  O  O17  1  0.85526500  0.85853100  0.69272300  1
  O  O18  1  0.15749100  0.55474100  0.10559800  1
  O  O19  1  0.34250900  0.55474100  0.10559800  1
  O  O20  1  0.64473500  0.85853100  0.69272300  1
  O  O21  1  0.25000000  0.04486900  0.54118900  1
  O  O22  1  0.25000000  0.28577300  0.93907000  1
  O  O23  1  0.53189300  0.80641400  0.92458200  1
  O  O24  1  0.92608100  0.85856400  0.42417900  1
  O  O25  1  0.14473500  0.14146900  0.30727700  1
  O  O26  1  0.50905300  0.50922600  0.72780300  1
  O  O27  1  0.99094700  0.50922600  0.72780300  1
  O  O28  1  0.75000000  0.19472300  0.12261600  1
  O  O29  1  0.37419800  0.70899000  0.49684000  1
loop_
_geom_bond_atom_site_label_1
_geom_bond_atom_site_label_2
_geom_bond_distance
_geom_bond_site_symmetry_2
Li0 O8 2.157086 1_556
Li0 O22 2.244038 1_555
Li0 O3 2.317048 1_545
Li0 O23 2.363902 1_545
Li1 O13 2.157086 1_554
Li1 O0 2.244038 1_555
Li1 O28 2.317048 1_565
Li1 O2 2.363902 1_665
Li2 O23 2.157086 1_554
Li2 O0 2.244038 1_555
Li2 O28 2.317048 1_565
Li2 O8 2.363902 1_565
Li3 O2 2.157086 1_556
Li3 O22 2.244038 1_555
Li3 O3 2.317048 1_545
Li3 O13 2.363902 1_445
O0 P5 1.501938 1_555
O1 P4 1.507723 1_555
O1 Ti0 2.012808 1_655
O2 P1 1.493443 1_555
O3 P7 1.492340 1_555
O4 P0 1.507723 1_555
O4 Ti1 2.012808 1_555
O5 P6 1.599151 1_555
O5 P5 1.638580 1_556
O6 P3 1.507723 1_555
O6 Ti0 2.012808 1_555
O7 P9 1.587159 1_545
O7 P2 1.631100 1_555
O8 P2 1.493443 1_555
O9 P0 1.513682 1_565
O9 Ti1 2.094010 1_555
O10 P1 1.514065 1_555
O10 Ti0 2.042356 1_555
O11 P2 1.514065 1_555
O11 Ti1 2.042356 1_555
O12 P3 1.513682 1_545
O12 Ti0 2.094010 1_555
O13 P8 1.493443 1_555
O14 P0 1.588819 1_565
O14 P4 1.588819 1_565
O15 P8 1.599151 1_555
O15 P5 1.638580 1_556
O16 P9 1.513682 1_545
O16 Ti1 2.094010 1_555
O17 P4 1.587159 1_565
O17 P8 1.631100 1_555
O18 P1 1.599151 1_555
O18 P7 1.638580 1_554
O19 P2 1.599151 1_555
O19 P7 1.638580 1_554
O20 P0 1.587159 1_565
O20 P6 1.631100 1_555
O21 P9 1.588819 1_545
O21 P3 1.588819 1_545
O22 P7 1.501938 1_555
O23 P6 1.493443 1_555
O24 P4 1.513682 1_565
O24 Ti0 2.094010 1_655
O25 P3 1.587159 1_545
O25 P1 1.631100 1_555
O26 P6 1.514065 1_555
O26 Ti1 2.042356 1_555
O27 P8 1.514065 1_555
O27 Ti0 2.042356 1_655
O28 P5 1.492340 1_555
O29 P9 1.507723 1_555
O29 Ti1 2.012808 1_555
