# generated using pymatgen
data_Cs2ZrCl6
_symmetry_space_group_name_H-M   'P 1'
_cell_length_a   7.45149032
_cell_length_b   7.45148972
_cell_length_c   7.45149016
_cell_angle_alpha   59.99999342
_cell_angle_beta   59.99999609
_cell_angle_gamma   59.99999209
_symmetry_Int_Tables_number   1
_chemical_formula_structural   Cs2ZrCl6
_chemical_formula_sum   'Cs2 Zr1 Cl6'
_cell_volume   292.55957881
_cell_formula_units_Z   1
loop_
 _symmetry_equiv_pos_site_id
 _symmetry_equiv_pos_as_xyz
  1  'x, y, z'
loop_
 _atom_site_type_symbol
 _atom_site_label
 _atom_site_symmetry_multiplicity
 _atom_site_fract_x
 _atom_site_fract_y
 _atom_site_fract_z
 _atom_site_occupancy
  Cs  Cs0  1  0.25000000  0.25000000  0.25000000  1
  Cs  Cs1  1  0.75000000  0.75000000  0.75000000  1
  Zr  Zr0  1  -0.00000000  -0.00000000  0.00000000  1
  Cl  Cl0  1  0.76492579  0.76492579  0.23507421  1
  Cl  Cl1  1  0.76492579  0.23507421  0.23507421  1
  Cl  Cl2  1  0.23507421  0.76492579  0.76492579  1
  Cl  Cl3  1  0.23507421  0.23507421  0.76492579  1
  Cl  Cl4  1  0.76492579  0.23507421  0.76492579  1
  Cl  Cl5  1  0.23507421  0.76492579  0.23507421  1
loop_
_geom_bond_atom_site_label_1
_geom_bond_atom_site_label_2
_geom_bond_distance
_geom_bond_site_symmetry_2
Cl0 Zr0 2.477212 1_665
Cl0 Cs0 3.729063 1_655
Cl0 Cs0 3.729063 1_565
Cl0 Cs1 3.729064 1_555
Cl0 Cs1 3.729064 1_554
Cl1 Zr0 2.477211 1_655
Cl1 Cs1 3.729063 1_554
Cl1 Cs1 3.729063 1_545
Cl1 Cs0 3.729064 1_555
Cl1 Cs0 3.729064 1_655
Cl2 Zr0 2.477211 1_566
Cl2 Cs0 3.729063 1_556
Cl2 Cs0 3.729063 1_565
Cl2 Cs1 3.729064 1_555
Cl2 Cs1 3.729064 1_455
Cl3 Zr0 2.477212 1_556
Cl3 Cs1 3.729063 1_455
Cl3 Cs1 3.729063 1_545
Cl3 Cs0 3.729064 1_555
Cl3 Cs0 3.729064 1_556
Cl4 Zr0 2.477211 1_656
Cl4 Cs1 3.729063 1_555
Cl4 Cs1 3.729063 1_545
Cl4 Cs0 3.729063 1_655
Cl4 Cs0 3.729063 1_556
Cl5 Zr0 2.477211 1_565
Cl5 Cs0 3.729063 1_555
Cl5 Cs0 3.729063 1_565
Cl5 Cs1 3.729063 1_455
Cl5 Cs1 3.729063 1_554
