# generated using pymatgen
data_Sr2CuTeO6
_symmetry_space_group_name_H-M   'P 1'
_cell_length_a   5.46713000
_cell_length_b   5.83564178
_cell_length_c   5.46713000
_cell_angle_alpha   62.06784165
_cell_angle_beta   90.00000000
_cell_angle_gamma   117.93215835
_symmetry_Int_Tables_number   1
_chemical_formula_structural   Sr2CuTeO6
_chemical_formula_sum   'Sr2 Cu1 Te1 O6'
_cell_volume   130.66181554
_cell_formula_units_Z   1
loop_
 _symmetry_equiv_pos_site_id
 _symmetry_equiv_pos_as_xyz
  1  'x, y, z'
loop_
 _atom_site_type_symbol
 _atom_site_label
 _atom_site_symmetry_multiplicity
 _atom_site_fract_x
 _atom_site_fract_y
 _atom_site_fract_z
 _atom_site_occupancy
  Sr  Sr0  1  0.75000000  0.50000000  0.75000000  1
  Sr  Sr1  1  0.25000000  0.50000000  0.25000000  1
  Cu  Cu0  1  0.00000000  0.00000000  0.00000000  1
  Te  Te0  1  0.50000000  0.00000000  0.50000000  1
  O  O0  1  0.80566700  0.00000000  0.69084200  1
  O  O1  1  0.69084200  0.00000000  0.19433300  1
  O  O2  1  0.30915800  0.00000000  0.80566700  1
  O  O3  1  0.19433300  0.00000000  0.30915800  1
  O  O4  1  0.27719100  0.55438200  0.72280900  1
  O  O5  1  0.72280900  0.44561800  0.27719100  1
loop_
_geom_bond_atom_site_label_1
_geom_bond_atom_site_label_2
_geom_bond_distance
_geom_bond_site_symmetry_2
Cu0 O3 1.996393 1_555
Cu0 O1 1.996393 1_455
Cu0 O2 1.996393 1_554
Cu0 O0 1.996393 1_454
Cu0 O4 2.423478 1_554
Cu0 O5 2.423478 1_445
O0 Te0 1.970087 1_555
O0 Sr0 2.644782 1_545
O0 Sr1 2.644782 1_655
O1 Te0 1.970087 1_555
O1 Sr0 2.644782 1_554
O1 Sr1 2.644782 1_545
O2 Te0 1.970087 1_555
O2 Sr0 2.644782 1_555
O2 Sr1 2.644782 1_546
O3 Te0 1.970087 1_555
O3 Sr0 2.644782 1_445
O3 Sr1 2.644782 1_555
O4 Te0 1.948016 1_565
O4 Sr1 2.743883 1_555
O4 Sr0 2.743883 1_455
O4 Sr0 2.743883 1_555
O4 Sr1 2.743883 1_556
O5 Te0 1.948016 1_555
O5 Sr0 2.743883 1_554
O5 Sr1 2.743883 1_555
O5 Sr1 2.743883 1_655
O5 Sr0 2.743883 1_555
