# generated using pymatgen
data_Pb3O5
_symmetry_space_group_name_H-M   'P 1'
_cell_length_a   12.17416185
_cell_length_b   12.17416185
_cell_length_c   11.07681500
_cell_angle_alpha   90.00000000
_cell_angle_beta   90.00000000
_cell_angle_gamma   141.55515285
_symmetry_Int_Tables_number   1
_chemical_formula_structural   Pb3O5
_chemical_formula_sum   'Pb24 O40'
_cell_volume   1020.74328056
_cell_formula_units_Z   8
loop_
 _symmetry_equiv_pos_site_id
 _symmetry_equiv_pos_as_xyz
  1  'x, y, z'
loop_
 _atom_site_type_symbol
 _atom_site_label
 _atom_site_symmetry_multiplicity
 _atom_site_fract_x
 _atom_site_fract_y
 _atom_site_fract_z
 _atom_site_occupancy
  Pb  Pb0  1  0.50987100  0.99012900  0.75000000  1
  Pb  Pb1  1  0.49012900  0.00987100  0.25000000  1
  Pb  Pb2  1  0.66962600  0.83037400  0.25000000  1
  Pb  Pb3  1  0.33624400  0.66375600  0.49963200  1
  Pb  Pb4  1  0.83624400  0.16375600  0.00036800  1
  Pb  Pb5  1  0.50000000  0.50000000  0.50000000  1
  Pb  Pb6  1  0.83121500  0.66878500  0.25000000  1
  Pb  Pb7  1  0.16375600  0.83624400  0.99963200  1
  Pb  Pb8  1  0.16962600  0.33037400  0.25000000  1
  Pb  Pb9  1  0.66878500  0.83121500  0.75000000  1
  Pb  Pb10  1  0.66375600  0.33624400  0.50036800  1
  Pb  Pb11  1  0.32647200  0.67352800  0.99329100  1
  Pb  Pb12  1  0.33037400  0.16962600  0.75000000  1
  Pb  Pb13  1  0.17352800  0.82647200  0.49329100  1
  Pb  Pb14  1  0.82647200  0.17352800  0.50670900  1
  Pb  Pb15  1  0.83037400  0.66962600  0.75000000  1
  Pb  Pb16  1  0.99012900  0.50987100  0.25000000  1
  Pb  Pb17  1  0.50000000  0.50000000  0.00000000  1
  Pb  Pb18  1  0.16878500  0.33121500  0.75000000  1
  Pb  Pb19  1  0.00000000  0.00000000  0.50000000  1
  Pb  Pb20  1  0.33121500  0.16878500  0.25000000  1
  Pb  Pb21  1  0.00000000  0.00000000  0.00000000  1
  Pb  Pb22  1  0.00987100  0.49012900  0.75000000  1
  Pb  Pb23  1  0.67352800  0.32647200  0.00670900  1
  O  O0  1  0.61587200  0.93065800  0.62521200  1
  O  O1  1  0.89945600  0.50747700  0.88755100  1
  O  O2  1  0.00747700  0.39945600  0.38755100  1
  O  O3  1  0.91230300  0.08769700  0.42396800  1
  O  O4  1  0.79299100  0.77284600  0.37718200  1
  O  O5  1  0.38412800  0.06934200  0.37478800  1
  O  O6  1  0.11587200  0.43065800  0.87478800  1
  O  O7  1  0.07535500  0.92464500  0.89290000  1
  O  O8  1  0.07847000  0.92153000  0.16365100  1
  O  O9  1  0.22715400  0.20700900  0.37718200  1
  O  O10  1  0.42464500  0.57535500  0.39290000  1
  O  O11  1  0.06934200  0.38412800  0.62521200  1
  O  O12  1  0.42153000  0.57847000  0.66365100  1
  O  O13  1  0.25461000  0.74539000  0.83451900  1
  O  O14  1  0.99252300  0.60054400  0.61244900  1
  O  O15  1  0.39945600  0.00747700  0.61244900  1
  O  O16  1  0.70700900  0.72715400  0.87718200  1
  O  O17  1  0.75461000  0.24539000  0.66548100  1
  O  O18  1  0.92464500  0.07535500  0.10710000  1
  O  O19  1  0.58769700  0.41230300  0.92396800  1
  O  O20  1  0.10054400  0.49252300  0.11244900  1
  O  O21  1  0.27284600  0.29299100  0.87718200  1
  O  O22  1  0.29299100  0.27284600  0.12281800  1
  O  O23  1  0.57535500  0.42464500  0.60710000  1
  O  O24  1  0.56934200  0.88412800  0.87478800  1
  O  O25  1  0.77284600  0.79299100  0.62281800  1
  O  O26  1  0.57847000  0.42153000  0.33634900  1
  O  O27  1  0.60054400  0.99252300  0.38755100  1
  O  O28  1  0.41230300  0.58769700  0.07603200  1
  O  O29  1  0.93065800  0.61587200  0.37478800  1
  O  O30  1  0.49252300  0.10054400  0.88755100  1
  O  O31  1  0.50747700  0.89945600  0.11244900  1
  O  O32  1  0.72715400  0.70700900  0.12281800  1
  O  O33  1  0.88412800  0.56934200  0.12521200  1
  O  O34  1  0.74539000  0.25461000  0.16548100  1
  O  O35  1  0.08769700  0.91230300  0.57603200  1
  O  O36  1  0.92153000  0.07847000  0.83634900  1
  O  O37  1  0.24539000  0.75461000  0.33451900  1
  O  O38  1  0.43065800  0.11587200  0.12521200  1
  O  O39  1  0.20700900  0.22715400  0.62281800  1
loop_
_geom_bond_atom_site_label_1
_geom_bond_atom_site_label_2
_geom_bond_distance
_geom_bond_site_symmetry_2
O0 Pb9 2.238928 1_555
O0 Pb14 2.272498 1_565
O0 Pb0 2.358741 1_555
O0 Pb3 2.599044 1_555
O1 Pb22 2.148869 1_655
O1 Pb23 2.160820 1_556
O1 Pb7 2.782301 1_655
O2 Pb16 2.148869 1_455
O2 Pb14 2.160820 1_455
O2 Pb3 2.782301 1_555
O3 Pb14 2.175777 1_555
O3 Pb19 2.185055 1_655
O3 Pb8 2.785334 1_655
O3 Pb2 2.785334 1_545
O4 Pb6 2.174752 1_555
O4 Pb19 2.220969 1_665
O4 Pb2 2.525540 1_555
O4 Pb5 2.654827 1_555
O5 Pb20 2.238928 1_555
O5 Pb13 2.272498 1_545
O5 Pb1 2.358741 1_555
O5 Pb10 2.599044 1_555
O6 Pb18 2.238928 1_555
O6 Pb11 2.272498 1_555
O6 Pb22 2.358741 1_555
O6 Pb4 2.599044 1_456
O7 Pb21 2.099724 1_566
O7 Pb7 2.351260 1_555
O7 Pb15 2.556400 1_455
O7 Pb12 2.556400 1_565
O8 Pb20 2.221528 1_565
O8 Pb6 2.221528 1_455
O8 Pb21 2.557488 1_565
O8 Pb7 2.673110 1_554
O9 Pb20 2.174752 1_555
O9 Pb19 2.220969 1_555
O9 Pb8 2.525540 1_555
O9 Pb5 2.654827 1_555
O10 Pb5 2.099724 1_555
O10 Pb3 2.351260 1_555
O10 Pb8 2.556400 1_555
O10 Pb2 2.556400 1_555
O11 Pb18 2.238928 1_555
O11 Pb14 2.272498 1_455
O11 Pb22 2.358741 1_555
O11 Pb3 2.599044 1_555
O12 Pb18 2.221528 1_555
O12 Pb9 2.221528 1_555
O12 Pb5 2.557488 1_555
O12 Pb3 2.673110 1_555
O13 Pb0 2.215281 1_555
O13 Pb22 2.215281 1_555
O13 Pb11 2.413015 1_555
O13 Pb7 2.776346 1_555
O14 Pb22 2.148869 1_655
O14 Pb13 2.160820 1_655
O14 Pb10 2.782301 1_555
O15 Pb0 2.148869 1_545
O15 Pb13 2.160820 1_545
O15 Pb10 2.782301 1_555
O16 Pb9 2.174752 1_555
O16 Pb17 2.220969 1_556
O16 Pb15 2.525540 1_555
O16 Pb21 2.654827 1_666
O17 Pb0 2.215281 1_545
O17 Pb22 2.215281 1_655
O17 Pb14 2.413015 1_555
O17 Pb10 2.776346 1_555
O18 Pb21 2.099724 1_655
O18 Pb4 2.351260 1_555
O18 Pb8 2.556400 1_655
O18 Pb2 2.556400 1_545
O19 Pb23 2.175777 1_556
O19 Pb17 2.185055 1_556
O19 Pb12 2.785334 1_555
O19 Pb15 2.785334 1_555
O20 Pb16 2.148869 1_455
O20 Pb11 2.160820 1_554
O20 Pb4 2.782301 1_455
O21 Pb18 2.174752 1_555
O21 Pb17 2.220969 1_556
O21 Pb12 2.525540 1_555
O21 Pb21 2.654827 1_556
O22 Pb20 2.174752 1_555
O22 Pb17 2.220969 1_555
O22 Pb8 2.525540 1_555
O22 Pb21 2.654827 1_555
O23 Pb5 2.099724 1_555
O23 Pb10 2.351260 1_555
O23 Pb12 2.556400 1_555
O23 Pb15 2.556400 1_555
O24 Pb9 2.238928 1_555
O24 Pb11 2.272498 1_555
O24 Pb0 2.358741 1_555
O24 Pb4 2.599044 1_566
O25 Pb9 2.174752 1_555
O25 Pb19 2.220969 1_665
O25 Pb15 2.525540 1_555
O25 Pb5 2.654827 1_555
O26 Pb6 2.221528 1_555
O26 Pb20 2.221528 1_555
O26 Pb5 2.557488 1_555
O26 Pb10 2.673110 1_555
O27 Pb1 2.148869 1_565
O27 Pb14 2.160820 1_565
O27 Pb3 2.782301 1_555
O28 Pb11 2.175777 1_554
O28 Pb17 2.185055 1_555
O28 Pb8 2.785334 1_555
O28 Pb2 2.785334 1_555
O29 Pb6 2.238928 1_555
O29 Pb13 2.272498 1_655
O29 Pb16 2.358741 1_555
O29 Pb10 2.599044 1_555
O30 Pb0 2.148869 1_545
O30 Pb23 2.160820 1_556
O30 Pb7 2.782301 1_545
O31 Pb1 2.148869 1_565
O31 Pb11 2.160820 1_554
O31 Pb4 2.782301 1_565
O32 Pb6 2.174752 1_555
O32 Pb17 2.220969 1_555
O32 Pb2 2.525540 1_555
O32 Pb21 2.654827 1_665
O33 Pb6 2.238928 1_555
O33 Pb23 2.272498 1_555
O33 Pb16 2.358741 1_555
O33 Pb7 2.599044 1_654
O34 Pb16 2.215281 1_555
O34 Pb1 2.215281 1_555
O34 Pb23 2.413015 1_555
O34 Pb4 2.776346 1_555
O35 Pb13 2.175777 1_555
O35 Pb19 2.185055 1_565
O35 Pb15 2.785334 1_455
O35 Pb12 2.785334 1_565
O36 Pb9 2.221528 1_545
O36 Pb18 2.221528 1_655
O36 Pb21 2.557488 1_656
O36 Pb4 2.673110 1_556
O37 Pb16 2.215281 1_455
O37 Pb1 2.215281 1_565
O37 Pb13 2.413015 1_555
O37 Pb3 2.776346 1_555
O38 Pb20 2.238928 1_555
O38 Pb23 2.272498 1_555
O38 Pb1 2.358741 1_555
O38 Pb7 2.599044 1_544
O39 Pb18 2.174752 1_555
O39 Pb19 2.220969 1_555
O39 Pb12 2.525540 1_555
O39 Pb5 2.654827 1_555
