# generated using pymatgen
data_La(ReSi)2
_symmetry_space_group_name_H-M   'P 1'
_cell_length_a   4.15534429
_cell_length_b   4.25653592
_cell_length_c   10.91141100
_cell_angle_alpha   101.25540797
_cell_angle_beta   100.96810478
_cell_angle_gamma   89.99878211
_symmetry_Int_Tables_number   1
_chemical_formula_structural   La(ReSi)2
_chemical_formula_sum   'La2 Re4 Si4'
_cell_volume   185.68662647
_cell_formula_units_Z   2
loop_
 _symmetry_equiv_pos_site_id
 _symmetry_equiv_pos_as_xyz
  1  'x, y, z'
loop_
 _atom_site_type_symbol
 _atom_site_label
 _atom_site_symmetry_multiplicity
 _atom_site_fract_x
 _atom_site_fract_y
 _atom_site_fract_z
 _atom_site_occupancy
  La  La0  1  0.66590616  0.91106885  0.82498635  1
  La  La1  1  0.34090904  0.08554352  0.17429219  1
  Re  Re0  1  0.96520395  0.21006540  0.42315580  1
  Re  Re1  1  0.53879437  0.28363308  0.57022072  1
  Re  Re2  1  0.04176057  0.78656529  0.57612236  1
  Re  Re3  1  0.46816598  0.71300427  0.42906882  1
  Si  Si0  1  0.78201242  0.52661993  0.05682866  1
  Si  Si1  1  0.22480883  0.46982703  0.94245660  1
  Si  Si2  1  0.10630656  0.35121322  0.70527649  1
  Si  Si3  1  0.90064714  0.64544839  0.29404000  1
loop_
_geom_bond_atom_site_label_1
_geom_bond_atom_site_label_2
_geom_bond_distance
_geom_bond_site_symmetry_2
La0 Si1 3.219149 1_565
La0 Si1 3.219297 1_555
La0 Si1 3.220361 1_665
La0 Si1 3.220392 1_655
La0 Si2 3.228245 1_555
La0 Si2 3.228405 1_565
La0 Si2 3.229293 1_655
La0 Si2 3.229569 1_665
La0 Si0 3.231950 1_566
La0 Si0 3.234454 1_556
La0 Re2 3.337574 1_555
La0 Re2 3.338534 1_655
La0 Re1 3.417955 1_555
La0 Re1 3.418122 1_565
La1 Si0 3.218802 1_555
La1 Si0 3.219604 1_545
La1 Si0 3.219883 1_455
La1 Si0 3.220802 1_445
La1 Si3 3.228795 1_545
La1 Si3 3.228805 1_555
La1 Si3 3.229213 1_455
La1 Si3 3.229320 1_445
La1 Si1 3.232370 1_544
La1 Si1 3.233928 1_554
La1 Re0 3.337958 1_555
La1 Re0 3.338144 1_455
La1 Re3 3.418097 1_555
La1 Re3 3.418160 1_545
Re0 Si3 2.523209 1_555
Re0 Si3 2.523327 1_545
Re0 Re1 2.588126 1_555
Re0 Re1 2.588911 1_655
Re0 Re2 2.666040 1_655
Re0 Re2 2.666271 1_645
Re0 Re3 2.974797 1_555
Re0 Re3 2.974907 1_655
Re0 Re3 2.974963 1_645
Re0 Re3 2.974980 1_545
Re1 Si2 2.515223 1_555
Re1 Si2 2.515491 1_655
Re1 Re3 2.593317 1_555
Re1 Re3 2.593359 1_545
Re1 Re2 2.974763 1_555
Re1 Re2 2.974930 1_655
Re1 Re2 2.974952 1_545
Re1 Re2 2.974992 1_645
Re2 Si2 2.523383 1_555
Re2 Si2 2.523585 1_565
Re2 Re3 2.588022 1_555
Re2 Re3 2.588872 1_455
Re3 Si3 2.514995 1_555
Re3 Si3 2.515401 1_455
Si0 Si1 2.399442 1_654
Si0 Si1 2.399902 1_554
Si0 Si3 2.490306 1_555
Si1 Si2 2.489978 1_555
