# generated using pymatgen
data_Zr6Co16Si7
_symmetry_space_group_name_H-M   'P 1'
_cell_length_a   8.04202370
_cell_length_b   8.04201863
_cell_length_c   8.04203449
_cell_angle_alpha   59.99974338
_cell_angle_beta   59.99975769
_cell_angle_gamma   59.99988744
_symmetry_Int_Tables_number   1
_chemical_formula_structural   Zr6Co16Si7
_chemical_formula_sum   'Zr6 Co16 Si7'
_cell_volume   367.77258310
_cell_formula_units_Z   1
loop_
 _symmetry_equiv_pos_site_id
 _symmetry_equiv_pos_as_xyz
  1  'x, y, z'
loop_
 _atom_site_type_symbol
 _atom_site_label
 _atom_site_symmetry_multiplicity
 _atom_site_fract_x
 _atom_site_fract_y
 _atom_site_fract_z
 _atom_site_occupancy
  Zr  Zr0  1  0.70895518  0.29104009  0.29104750  1
  Zr  Zr1  1  0.29105043  0.29103690  0.70895835  1
  Zr  Zr2  1  0.29104978  0.70896141  0.70895180  1
  Zr  Zr3  1  0.70894887  0.70896394  0.29104833  1
  Zr  Zr4  1  0.29104126  0.70896394  0.29103704  1
  Zr  Zr5  1  0.70895007  0.29104896  0.70895702  1
  Co  Co0  1  0.12005751  0.12006028  0.63981842  1
  Co  Co1  1  0.67344832  0.97965444  0.67344756  1
  Co  Co2  1  0.36017689  0.87993941  0.87993466  1
  Co  Co3  1  0.02034392  0.32655015  0.32655517  1
  Co  Co4  1  0.97965876  0.67344711  0.67344619  1
  Co  Co5  1  0.32655451  0.32654880  0.02034539  1
  Co  Co6  1  0.67344652  0.67344711  0.97965824  1
  Co  Co7  1  0.63981894  0.12005982  0.12005797  1
  Co  Co8  1  0.67344413  0.67344499  0.67344252  1
  Co  Co9  1  0.87993639  0.87994105  0.36017503  1
  Co  Co10  1  0.12005952  0.12006206  0.12006268  1
  Co  Co11  1  0.87993845  0.36017211  0.87993828  1
  Co  Co12  1  0.87994172  0.87994630  0.87993985  1
  Co  Co13  1  0.32655468  0.32654730  0.32655036  1
  Co  Co14  1  0.12006019  0.63981674  0.12006056  1
  Co  Co15  1  0.32655358  0.02034343  0.32655329  1
  Si  Si0  1  -0.00000361  0.50000774  -0.00000417  1
  Si  Si1  1  -0.00000264  0.99999493  0.50000777  1
  Si  Si2  1  0.00000328  0.99999899  0.00000145  1
  Si  Si3  1  0.50000363  0.50000367  0.00000060  1
  Si  Si4  1  0.50000347  0.00000013  0.50000378  1
  Si  Si5  1  0.50000703  0.99999474  -0.00000217  1
  Si  Si6  1  0.00000123  0.50000346  0.50000454  1
loop_
_geom_bond_atom_site_label_1
_geom_bond_atom_site_label_2
_geom_bond_distance
_geom_bond_site_symmetry_2
Co0 Si2 2.365059 1_546
Co0 Si1 2.496458 1_545
Co0 Si6 2.496492 1_555
Co0 Si4 2.496513 1_555
Co0 Co3 2.500483 1_555
Co0 Co15 2.500509 1_555
Co0 Co13 2.500517 1_555
Co0 Co12 2.730851 1_445
Co0 Co11 2.730870 1_455
Co0 Co2 2.730892 1_545
Co0 Zr2 2.740495 1_545
Co0 Zr5 2.740549 1_455
Co0 Zr1 2.740569 1_555
Co1 Si4 2.325318 1_565
Co1 Si1 2.325337 1_655
Co1 Si5 2.325348 1_556
Co1 Co6 2.462531 1_555
Co1 Co4 2.462534 1_555
Co1 Co8 2.462579 1_555
Co1 Co2 2.500539 1_555
Co1 Co9 2.500545 1_555
Co1 Co12 2.500563 1_555
Co1 Zr1 2.818771 1_565
Co1 Zr0 2.818788 1_565
Co1 Zr5 2.818853 1_565
Co2 Si2 2.364998 1_556
Co2 Si4 2.496418 1_565
Co2 Si3 2.496448 1_556
Co2 Si5 2.496544 1_556
Co2 Co8 2.500530 1_555
Co2 Co6 2.500566 1_555
Co2 Zr2 2.740439 1_555
Co2 Zr1 2.740492 1_565
Co2 Zr4 2.740518 1_556
Co3 Si1 2.325394 1_545
Co3 Si6 2.325428 1_555
Co3 Si0 2.325430 1_555
Co3 Co5 2.462542 1_555
Co3 Zr5 2.818824 1_455
Co3 Zr0 2.818839 1_455
Co3 Zr3 2.818887 1_455
Co4 Si6 2.325308 1_655
Co4 Si1 2.325321 1_655
Co4 Si0 2.325336 1_656
Co4 Co6 2.462558 1_555
Co4 Co8 2.462609 1_555
Co4 Co9 2.500571 1_555
Co4 Zr4 2.818823 1_655
Co4 Zr1 2.818859 1_655
Co4 Zr2 2.818868 1_655
Co5 Si5 2.325393 1_545
Co5 Si3 2.325424 1_555
Co5 Si0 2.325428 1_555
Co5 Co7 2.500487 1_555
Co5 Zr5 2.818776 1_554
Co5 Zr1 2.818821 1_554
Co5 Zr2 2.818873 1_554
Co6 Si3 2.325312 1_556
Co6 Si5 2.325326 1_556
Co6 Si0 2.325338 1_656
Co6 Co8 2.462616 1_555
Co6 Zr4 2.818792 1_556
Co6 Zr0 2.818832 1_556
Co6 Zr3 2.818861 1_556
Co7 Si2 2.365068 1_645
Co7 Si5 2.496464 1_545
Co7 Si3 2.496498 1_555
Co7 Si4 2.496512 1_555
Co7 Co9 2.730886 1_545
Co7 Zr3 2.740476 1_545
Co7 Zr5 2.740514 1_554
Co7 Zr0 2.740552 1_555
Co8 Si4 2.325335 1_565
Co8 Si6 2.325345 1_655
Co8 Si3 2.325351 1_556
Co8 Co9 2.500532 1_555
Co8 Zr2 2.818714 1_555
Co8 Zr3 2.818723 1_555
Co8 Zr5 2.818742 1_555
Co9 Si2 2.364997 1_655
Co9 Si4 2.496432 1_565
Co9 Si6 2.496460 1_655
Co9 Si1 2.496538 1_655
Co9 Zr3 2.740460 1_555
Co9 Zr0 2.740503 1_565
Co9 Zr4 2.740533 1_655
Co10 Si2 2.365052 1_545
Co10 Si1 2.496508 1_545
Co10 Si0 2.496510 1_555
Co10 Si5 2.496523 1_545
Co10 Co5 2.500504 1_555
Co10 Co3 2.500507 1_555
Co10 Co15 2.500527 1_555
Co10 Co9 2.730933 1_445
Co10 Co11 2.730948 1_454
Co10 Co2 2.730978 1_544
Co10 Zr4 2.740478 1_545
Co10 Zr0 2.740523 1_455
Co10 Zr1 2.740524 1_554
Co11 Si2 2.364993 1_646
Co11 Si6 2.496437 1_655
Co11 Si3 2.496445 1_556
Co11 Si0 2.496561 1_656
Co11 Co8 2.500559 1_555
Co11 Co4 2.500582 1_555
Co11 Co6 2.500587 1_555
Co11 Co7 2.730863 1_556
Co11 Zr5 2.740477 1_555
Co11 Zr0 2.740570 1_556
Co11 Zr1 2.740583 1_655
Co12 Si2 2.365021 1_656
Co12 Si1 2.496427 1_655
Co12 Si5 2.496444 1_556
Co12 Si0 2.496467 1_656
Co12 Co4 2.500585 1_555
Co12 Co6 2.500586 1_555
Co12 Co7 2.730870 1_566
Co12 Co14 2.730913 1_656
Co12 Zr5 2.740526 1_565
Co12 Zr2 2.740556 1_655
Co12 Zr3 2.740559 1_556
Co13 Si4 2.325363 1_555
Co13 Si3 2.325379 1_555
Co13 Si6 2.325412 1_555
Co13 Co15 2.462490 1_555
Co13 Co5 2.462506 1_555
Co13 Co3 2.462523 1_555
Co13 Co7 2.500496 1_555
Co13 Co14 2.500527 1_555
Co13 Zr0 2.818813 1_555
Co13 Zr1 2.818862 1_555
Co13 Zr4 2.818887 1_555
Co14 Si2 2.365053 1_555
Co14 Si0 2.496466 1_555
Co14 Si3 2.496496 1_555
Co14 Si6 2.496499 1_555
Co14 Co3 2.500510 1_555
Co14 Co5 2.500520 1_555
Co14 Co2 2.730906 1_554
Co14 Co9 2.730910 1_455
Co14 Zr4 2.740530 1_555
Co14 Zr2 2.740551 1_554
Co14 Zr3 2.740564 1_455
Co15 Si5 2.325407 1_545
Co15 Si1 2.325408 1_545
Co15 Si4 2.325410 1_555
Co15 Co5 2.462512 1_555
Co15 Co3 2.462529 1_555
Co15 Co7 2.500503 1_555
Co15 Zr3 2.818750 1_545
Co15 Zr2 2.818769 1_545
Co15 Zr4 2.818816 1_545
Si0 Zr2 2.881380 1_554
Si0 Zr0 2.881384 1_455
Si0 Zr1 2.881388 1_554
Si0 Zr3 2.881398 1_455
Si1 Zr2 2.881328 1_555
Si1 Zr4 2.881342 1_555
Si1 Zr0 2.881357 1_465
Si1 Zr5 2.881374 1_465
Si3 Zr4 2.881318 1_555
Si3 Zr0 2.881336 1_555
Si3 Zr5 2.881348 1_554
Si3 Zr2 2.881367 1_554
Si4 Zr0 2.881290 1_555
Si4 Zr1 2.881296 1_555
Si4 Zr2 2.881300 1_545
Si4 Zr3 2.881304 1_545
Si5 Zr3 2.881304 1_555
Si5 Zr4 2.881305 1_555
Si5 Zr1 2.881322 1_564
Si5 Zr5 2.881331 1_564
Si6 Zr4 2.881330 1_555
Si6 Zr1 2.881361 1_555
Si6 Zr5 2.881383 1_455
Si6 Zr3 2.881401 1_455
