# generated using pymatgen
data_Nb5P7O30
_symmetry_space_group_name_H-M   'P 1'
_cell_length_a   8.87519700
_cell_length_b   8.93350448
_cell_length_c   15.89140022
_cell_angle_alpha   91.58790427
_cell_angle_beta   106.11292398
_cell_angle_gamma   90.03299148
_symmetry_Int_Tables_number   1
_chemical_formula_structural   Nb5P7O30
_chemical_formula_sum   'Nb10 P14 O60'
_cell_volume   1209.96947746
_cell_formula_units_Z   2
loop_
 _symmetry_equiv_pos_site_id
 _symmetry_equiv_pos_as_xyz
  1  'x, y, z'
loop_
 _atom_site_type_symbol
 _atom_site_label
 _atom_site_symmetry_multiplicity
 _atom_site_fract_x
 _atom_site_fract_y
 _atom_site_fract_z
 _atom_site_occupancy
  Nb  Nb0  1  0.20639900  0.96263900  0.90443900  1
  Nb  Nb1  1  0.79447600  0.03895700  0.09544800  1
  Nb  Nb2  1  0.29919000  0.53872800  0.09486800  1
  Nb  Nb3  1  0.91863700  0.55422900  0.32635400  1
  Nb  Nb4  1  0.59259200  0.94643400  0.67258800  1
  Nb  Nb5  1  0.40456500  0.05328800  0.32678800  1
  Nb  Nb6  1  0.69966100  0.46266800  0.90455000  1
  Nb  Nb7  1  0.49945100  0.50024700  0.49965300  1
  Nb  Nb8  1  0.99972500  0.00136400  0.49989800  1
  Nb  Nb9  1  0.07946200  0.44669500  0.67351600  1
  P  P0  1  0.25193800  0.40941300  0.28901900  1
  P  P1  1  0.32024000  0.23151200  0.59497600  1
  P  P2  1  0.55216700  0.10415200  0.88146000  1
  P  P3  1  0.67826400  0.76998300  0.40459200  1
  P  P4  1  0.44742200  0.89662100  0.11802600  1
  P  P5  1  0.02821400  0.25111800  0.99952100  1
  P  P6  1  0.97217200  0.75018100  0.00039300  1
  P  P7  1  0.03559100  0.90814700  0.28902300  1
  P  P8  1  0.72580500  0.26909400  0.40469100  1
  P  P9  1  0.33000700  0.60522200  0.88137700  1
  P  P10  1  0.27266200  0.73024600  0.59523300  1
  P  P11  1  0.74603500  0.59074200  0.71030500  1
  P  P12  1  0.96280300  0.09055600  0.71107200  1
  P  P13  1  0.66637200  0.39675600  0.11714500  1
  O  O0  1  0.20346100  0.92747900  0.28337900  1
  O  O1  1  0.33907500  0.93255100  0.02588900  1
  O  O2  1  0.71074000  0.49634700  0.78469300  1
  O  O3  1  0.42361700  0.72569100  0.13167400  1
  O  O4  1  0.89639200  0.33396300  0.93392200  1
  O  O5  1  0.61413800  0.66045800  0.46096100  1
  O  O6  1  0.72936500  0.67917700  0.33399200  1
  O  O7  1  0.89641100  0.86343500  0.05133800  1
  O  O8  1  0.37887800  0.08800900  0.88660700  1
  O  O9  1  0.60921100  0.91477900  0.56721400  1
  O  O10  1  0.97877000  0.02488600  0.62251100  1
  O  O11  1  0.17618900  0.14887700  0.53367500  1
  O  O12  1  0.28985300  0.50194900  0.21483500  1
  O  O13  1  0.41495400  0.99632600  0.18758600  1
  O  O14  1  0.10367800  0.13797400  0.94842300  1
  O  O15  1  0.07477500  0.99648600  0.78480000  1
  O  O16  1  0.26978100  0.32368200  0.66507300  1
  O  O17  1  0.71037100  0.75467700  0.72565400  1
  O  O18  1  0.58067400  0.00442800  0.81054100  1
  O  O19  1  0.35674000  0.47498200  0.37733100  1
  O  O20  1  0.70563900  0.22636400  0.13114500  1
  O  O21  1  0.91946500  0.57172800  0.71557200  1
  O  O22  1  0.96060200  0.41291300  0.56848600  1
  O  O23  1  0.82119200  0.85534000  0.46552100  1
  O  O24  1  0.84942600  0.16274900  0.46080600  1
  O  O25  1  0.38573500  0.33922700  0.53869500  1
  O  O26  1  0.68565600  0.43394600  0.02581900  1
  O  O27  1  0.22824500  0.50437700  0.81220100  1
  O  O28  1  0.07787100  0.42964400  0.28258500  1
  O  O29  1  0.60359600  0.17573200  0.33572400  1
  O  O30  1  0.76672000  0.49678200  0.18744700  1
  O  O31  1  0.57766400  0.27436900  0.86754600  1
  O  O32  1  0.03535800  0.58941900  0.43256200  1
  O  O33  1  0.44856100  0.12465700  0.64063100  1
  O  O34  1  0.98400900  0.74485700  0.27283300  1
  O  O35  1  0.15316700  0.84102200  0.54019000  1
  O  O36  1  0.92396300  0.00374400  0.21570700  1
  O  O37  1  0.96159600  0.16879100  0.06573300  1
  O  O38  1  0.39703600  0.81861300  0.66518800  1
  O  O39  1  0.64478500  0.35390500  0.46645600  1
  O  O40  1  0.48850400  0.41430200  0.11228600  1
  O  O41  1  0.50790400  0.58618300  0.88634900  1
  O  O42  1  0.84405800  0.63913200  0.94917500  1
  O  O43  1  0.03999800  0.83076100  0.93446700  1
  O  O44  1  0.64122600  0.52472200  0.62193000  1
  O  O45  1  0.62060700  0.91532100  0.11288800  1
  O  O46  1  0.02192500  0.97264000  0.37813000  1
  O  O47  1  0.28559100  0.24406900  0.27438400  1
  O  O48  1  0.18875400  0.62666100  0.64223000  1
  O  O49  1  0.54703900  0.87325700  0.35791500  1
  O  O50  1  0.35124000  0.64479700  0.53236100  1
  O  O51  1  0.01249000  0.25494400  0.72603300  1
  O  O52  1  0.29173000  0.77525800  0.86585200  1
  O  O53  1  0.80628300  0.37460600  0.35692300  1
  O  O54  1  0.39266400  0.08805200  0.43280400  1
  O  O55  1  0.15691000  0.36095100  0.05118000  1
  O  O56  1  0.66273500  0.06626700  0.97302100  1
  O  O57  1  0.10228800  0.66673400  0.06728100  1
  O  O58  1  0.30966100  0.57084500  0.97302800  1
  O  O59  1  0.79596600  0.07037100  0.71840000  1
loop_
_geom_bond_atom_site_label_1
_geom_bond_atom_site_label_2
_geom_bond_distance
_geom_bond_site_symmetry_2
Nb0 O15 1.967295 1_555
Nb0 O8 1.983528 1_565
Nb0 O1 1.987817 1_556
Nb0 O52 1.988486 1_555
Nb0 O14 2.016888 1_565
Nb0 O43 2.053555 1_555
Nb1 O36 1.971442 1_555
Nb1 O45 1.982510 1_545
Nb1 O20 1.985836 1_555
Nb1 O56 1.993921 1_554
Nb1 O7 2.015255 1_545
Nb1 O37 2.045820 1_555
Nb2 O12 1.967670 1_555
Nb2 O40 1.973907 1_555
Nb2 O3 1.984065 1_555
Nb2 O58 1.992610 1_554
Nb2 O55 2.012169 1_555
Nb2 O57 2.039273 1_555
Nb3 O32 1.737914 1_655
Nb3 O53 2.028670 1_555
Nb3 O6 2.047029 1_555
Nb3 O28 2.055302 1_655
Nb3 O34 2.076819 1_555
Nb3 O30 2.288758 1_555
Nb4 O9 1.736868 1_555
Nb4 O33 2.028237 1_565
Nb4 O38 2.051104 1_555
Nb4 O59 2.058517 1_565
Nb4 O17 2.081162 1_555
Nb4 O18 2.269684 1_565
Nb5 O54 1.736599 1_555
Nb5 O49 2.032119 1_545
Nb5 O29 2.046197 1_555
Nb5 O0 2.048415 1_545
Nb5 O47 2.075067 1_555
Nb5 O13 2.282933 1_545
Nb6 O2 1.965639 1_555
Nb6 O31 1.984315 1_555
Nb6 O41 1.986006 1_555
Nb6 O26 1.988834 1_556
Nb6 O42 2.015368 1_555
Nb6 O4 2.041611 1_555
Nb7 O5 1.963943 1_555
Nb7 O25 1.966745 1_555
Nb7 O39 1.998159 1_555
Nb7 O50 2.003064 1_555
Nb7 O44 2.006467 1_555
Nb7 O19 2.010611 1_555
Nb8 O24 1.958515 1_555
Nb8 O35 1.971154 1_645
Nb8 O11 1.992329 1_655
Nb8 O23 1.997128 1_545
Nb8 O46 2.008309 1_645
Nb8 O10 2.013421 1_555
Nb9 O22 1.727461 1_455
Nb9 O48 2.020652 1_555
Nb9 O21 2.048891 1_455
Nb9 O16 2.049036 1_555
Nb9 O51 2.082692 1_555
Nb9 O27 2.277565 1_555
O0 P7 1.527202 1_555
O1 P4 1.554490 1_555
O2 P11 1.570719 1_555
O3 P4 1.570616 1_555
O4 P5 1.539490 1_655
O5 P3 1.553898 1_555
O6 P3 1.534572 1_555
O7 P6 1.545554 1_555
O8 P2 1.569419 1_555
O10 P12 1.552402 1_555
O11 P1 1.547975 1_555
O12 P0 1.568527 1_555
O13 P4 1.490257 1_555
O14 P5 1.544920 1_555
O15 P12 1.573469 1_465
O16 P1 1.531631 1_555
O17 P11 1.525803 1_555
O18 P2 1.493555 1_555
O19 P0 1.551472 1_555
O20 P13 1.569834 1_555
O21 P11 1.527957 1_555
O23 P3 1.550585 1_555
O24 P8 1.551329 1_555
O25 P1 1.549001 1_555
O26 P13 1.552568 1_555
O27 P9 1.492939 1_555
O28 P0 1.530830 1_555
O29 P8 1.536786 1_555
O30 P13 1.493747 1_555
O31 P2 1.567941 1_555
O33 P1 1.521728 1_555
O34 P7 1.522099 1_655
O35 P10 1.550316 1_555
O36 P7 1.575987 1_645
O37 P5 1.544446 1_654
O38 P10 1.531905 1_555
O39 P8 1.551026 1_555
O40 P13 1.567115 1_555
O41 P9 1.568380 1_555
O42 P6 1.542649 1_556
O43 P6 1.539319 1_456
O44 P11 1.553645 1_555
O45 P4 1.570739 1_555
O46 P7 1.549842 1_555
O47 P0 1.531389 1_555
O48 P10 1.521481 1_555
O49 P3 1.522319 1_555
O50 P10 1.553200 1_555
O51 P12 1.526228 1_455
O52 P9 1.567970 1_555
O53 P8 1.521417 1_555
O55 P5 1.541071 1_554
O56 P2 1.558773 1_555
O57 P6 1.543609 1_455
O58 P9 1.555285 1_555
O59 P12 1.528120 1_555
