# generated using pymatgen
data_LuP2H4NO7
_symmetry_space_group_name_H-M   'P 1'
_cell_length_a   10.99371200
_cell_length_b   7.73401900
_cell_length_c   8.74928533
_cell_angle_alpha   73.84662410
_cell_angle_beta   90.00000000
_cell_angle_gamma   90.00000000
_symmetry_Int_Tables_number   1
_chemical_formula_structural   LuP2H4NO7
_chemical_formula_sum   'Lu4 P8 H16 N4 O28'
_cell_volume   714.54364481
_cell_formula_units_Z   4
loop_
 _symmetry_equiv_pos_site_id
 _symmetry_equiv_pos_as_xyz
  1  'x, y, z'
loop_
 _atom_site_type_symbol
 _atom_site_label
 _atom_site_symmetry_multiplicity
 _atom_site_fract_x
 _atom_site_fract_y
 _atom_site_fract_z
 _atom_site_occupancy
  Lu  Lu0  1  0.39961500  0.76434800  0.75640700  1
  Lu  Lu1  1  0.89961500  0.23565200  0.74359300  1
  Lu  Lu2  1  0.60038500  0.23565200  0.24359300  1
  Lu  Lu3  1  0.10038500  0.76434800  0.25640700  1
  P  P0  1  0.40038100  0.87198600  0.32391000  1
  P  P1  1  0.90038100  0.12801400  0.17609000  1
  P  P2  1  0.59961900  0.12801400  0.67609000  1
  P  P3  1  0.09961900  0.87198600  0.82391000  1
  P  P4  1  0.36575100  0.56626700  0.18835400  1
  P  P5  1  0.86575100  0.43373300  0.31164600  1
  P  P6  1  0.63424900  0.43373300  0.81164600  1
  P  P7  1  0.13424900  0.56626700  0.68835400  1
  H  H0  1  0.29781200  0.15793700  0.04928900  1
  H  H1  1  0.79781200  0.84206300  0.45071100  1
  H  H2  1  0.70218800  0.84206300  0.95071100  1
  H  H3  1  0.20218800  0.15793700  0.54928900  1
  H  H4  1  0.41558200  0.17748700  0.92566500  1
  H  H5  1  0.91558200  0.82251300  0.57433500  1
  H  H6  1  0.58441800  0.82251300  0.07433500  1
  H  H7  1  0.08441800  0.17748700  0.42566500  1
  H  H8  1  0.28360100  0.09912000  0.87941900  1
  H  H9  1  0.78360100  0.90088000  0.62058100  1
  H  H10  1  0.71639900  0.90088000  0.12058100  1
  H  H11  1  0.21639900  0.09912000  0.37941900  1
  H  H12  1  0.29748900  0.32267100  0.86816100  1
  H  H13  1  0.79748900  0.67732900  0.63183900  1
  H  H14  1  0.70251100  0.67732900  0.13183900  1
  H  H15  1  0.20251100  0.32267100  0.36816100  1
  N  N0  1  0.32277100  0.19117800  0.93114500  1
  N  N1  1  0.82277100  0.80882200  0.56885500  1
  N  N2  1  0.67722900  0.80882200  0.06885500  1
  N  N3  1  0.17722900  0.19117800  0.43114500  1
  O  O0  1  0.40744900  0.85042000  0.50123900  1
  O  O1  1  0.90744900  0.14958000  0.99876100  1
  O  O2  1  0.59255100  0.14958000  0.49876100  1
  O  O3  1  0.09255100  0.85042000  0.00123900  1
  O  O4  1  0.22838000  0.92784100  0.75704800  1
  O  O5  1  0.72838000  0.07215900  0.74295200  1
  O  O6  1  0.77162000  0.07215900  0.24295200  1
  O  O7  1  0.27162000  0.92784100  0.25704800  1
  O  O8  1  0.38517500  0.67811900  0.01665800  1
  O  O9  1  0.88517500  0.32188100  0.48334200  1
  O  O10  1  0.61482500  0.32188100  0.98334200  1
  O  O11  1  0.11482500  0.67811900  0.51665800  1
  O  O12  1  0.50269900  0.00139700  0.77269600  1
  O  O13  1  0.00269900  0.99860300  0.72730400  1
  O  O14  1  0.49730100  0.99860300  0.22730400  1
  O  O15  1  0.99730100  0.00139700  0.27269600  1
  O  O16  1  0.56951200  0.61497300  0.77148800  1
  O  O17  1  0.06951200  0.38502700  0.72851200  1
  O  O18  1  0.43048800  0.38502700  0.22851200  1
  O  O19  1  0.93048800  0.61497300  0.27148800  1
  O  O20  1  0.26871600  0.54578500  0.74018800  1
  O  O21  1  0.76871600  0.45421500  0.75981200  1
  O  O22  1  0.73128400  0.45421500  0.25981200  1
  O  O23  1  0.23128400  0.54578500  0.24018800  1
  O  O24  1  0.43189800  0.67558100  0.30037900  1
  O  O25  1  0.93189800  0.32441900  0.19962100  1
  O  O26  1  0.56810200  0.32441900  0.69962100  1
  O  O27  1  0.06810200  0.67558100  0.80037900  1
loop_
_geom_bond_atom_site_label_1
_geom_bond_atom_site_label_2
_geom_bond_distance
_geom_bond_site_symmetry_2
Lu0 O0 2.146589 1_555
Lu0 O16 2.180805 1_555
Lu0 O8 2.193123 1_556
Lu0 O12 2.193433 1_565
Lu0 O20 2.254300 1_555
Lu0 O4 2.268627 1_555
Lu1 O1 2.146589 1_555
Lu1 O17 2.180805 1_655
Lu1 O9 2.193123 1_555
Lu1 O13 2.193433 1_645
Lu1 O21 2.254300 1_555
Lu1 O5 2.268627 1_555
Lu2 O2 2.146589 1_555
Lu2 O18 2.180805 1_555
Lu2 O10 2.193123 1_554
Lu2 O14 2.193433 1_545
Lu2 O22 2.254300 1_555
Lu2 O6 2.268627 1_555
Lu3 O3 2.146589 1_555
Lu3 O19 2.180805 1_455
Lu3 O11 2.193123 1_555
Lu3 O15 2.193433 1_465
Lu3 O23 2.254300 1_555
Lu3 O7 2.268627 1_555
H0 N0 1.030536 1_554
H1 N1 1.030536 1_555
H2 N2 1.030536 1_556
H3 N3 1.030536 1_555
H4 N0 1.028311 1_555
H5 N1 1.028311 1_555
H6 N2 1.028311 1_555
H7 N3 1.028311 1_555
H8 N0 1.037523 1_555
H9 N1 1.037523 1_555
H10 N2 1.037523 1_555
H11 N3 1.037523 1_555
H12 N0 1.050393 1_555
H13 N1 1.050393 1_555
H14 N2 1.050393 1_555
H15 N3 1.050393 1_555
O0 P0 1.515595 1_555
O1 P1 1.515595 1_556
O2 P2 1.515595 1_555
O3 P3 1.515595 1_554
O4 P3 1.546619 1_555
O5 P2 1.546619 1_555
O6 P1 1.546619 1_555
O7 P0 1.546619 1_555
O8 P4 1.525621 1_555
O9 P5 1.525621 1_555
O10 P6 1.525621 1_555
O11 P7 1.525621 1_555
O12 P2 1.532361 1_555
O13 P3 1.532361 1_555
O14 P0 1.532361 1_555
O15 P1 1.532361 1_555
O16 P6 1.523395 1_555
O17 P7 1.523395 1_555
O18 P4 1.523395 1_555
O19 P5 1.523395 1_555
O20 P7 1.541473 1_555
O21 P6 1.541473 1_555
O22 P5 1.541473 1_555
O23 P4 1.541473 1_555
O24 P0 1.625980 1_555
O24 P4 1.632584 1_555
O25 P1 1.625980 1_555
O25 P5 1.632584 1_555
O26 P2 1.625980 1_555
O26 P6 1.632584 1_555
O27 P3 1.625980 1_555
O27 P7 1.632584 1_555
