# generated using pymatgen
data_Ce2Si7Rh15
_symmetry_space_group_name_H-M   'P 1'
_cell_length_a   8.84900199
_cell_length_b   8.84900199
_cell_length_c   8.84900199
_cell_angle_alpha   90.00000000
_cell_angle_beta   90.00000000
_cell_angle_gamma   90.00000000
_symmetry_Int_Tables_number   1
_chemical_formula_structural   Ce2Si7Rh15
_chemical_formula_sum   'Ce4 Si14 Rh30'
_cell_volume   692.91965153
_cell_formula_units_Z   2
loop_
 _symmetry_equiv_pos_site_id
 _symmetry_equiv_pos_as_xyz
  1  'x, y, z'
loop_
 _atom_site_type_symbol
 _atom_site_label
 _atom_site_symmetry_multiplicity
 _atom_site_fract_x
 _atom_site_fract_y
 _atom_site_fract_z
 _atom_site_occupancy
  Ce  Ce0  1  0.50000000  -0.00000000  0.00000000  1
  Ce  Ce1  1  0.50000000  0.50000000  0.50000000  1
  Ce  Ce2  1  0.00000000  -0.00000000  0.50000000  1
  Ce  Ce3  1  0.00000000  0.50000000  0.00000000  1
  Si  Si0  1  0.21342113  0.78657887  0.78657887  1
  Si  Si1  1  0.50000000  0.50000000  0.86532522  1
  Si  Si2  1  0.21342113  0.78657887  0.21342113  1
  Si  Si3  1  0.78657887  0.21342113  0.78657887  1
  Si  Si4  1  0.78657887  0.78657887  0.21342113  1
  Si  Si5  1  0.13467478  0.50000000  0.50000000  1
  Si  Si6  1  0.50000000  0.86532522  0.50000000  1
  Si  Si7  1  0.50000000  0.13467478  0.50000000  1
  Si  Si8  1  0.50000000  0.50000000  0.13467478  1
  Si  Si9  1  0.21342113  0.21342113  0.21342113  1
  Si  Si10  1  0.86532522  0.50000000  0.50000000  1
  Si  Si11  1  0.78657887  0.21342113  0.21342113  1
  Si  Si12  1  0.21342113  0.21342113  0.78657887  1
  Si  Si13  1  0.78657887  0.78657887  0.78657887  1
  Rh  Rh0  1  0.50000000  0.26252319  0.26252319  1
  Rh  Rh1  1  0.00000000  -0.00000000  0.22677892  1
  Rh  Rh2  1  0.32293682  -0.00000000  0.67706318  1
  Rh  Rh3  1  0.73747681  0.50000000  0.26252319  1
  Rh  Rh4  1  0.67706318  0.32293682  0.00000000  1
  Rh  Rh5  1  0.77322108  -0.00000000  0.00000000  1
  Rh  Rh6  1  0.32293682  -0.00000000  0.32293682  1
  Rh  Rh7  1  0.00000000  -0.00000000  0.77322108  1
  Rh  Rh8  1  0.73747681  0.26252319  0.50000000  1
  Rh  Rh9  1  0.67706318  -0.00000000  0.32293682  1
  Rh  Rh10  1  0.22677892  -0.00000000  0.00000000  1
  Rh  Rh11  1  0.00000000  0.32293682  0.32293682  1
  Rh  Rh12  1  0.73747681  0.50000000  0.73747681  1
  Rh  Rh13  1  0.00000000  0.67706318  0.32293682  1
  Rh  Rh14  1  0.26252319  0.50000000  0.73747681  1
  Rh  Rh15  1  0.00000000  0.67706318  0.67706318  1
  Rh  Rh16  1  0.73747681  0.73747681  0.50000000  1
  Rh  Rh17  1  0.00000000  0.32293682  0.67706318  1
  Rh  Rh18  1  0.50000000  0.73747681  0.73747681  1
  Rh  Rh19  1  0.32293682  0.32293682  0.00000000  1
  Rh  Rh20  1  0.50000000  0.26252319  0.73747681  1
  Rh  Rh21  1  0.32293682  0.67706318  0.00000000  1
  Rh  Rh22  1  0.00000000  0.22677892  0.00000000  1
  Rh  Rh23  1  0.67706318  -0.00000000  0.67706318  1
  Rh  Rh24  1  0.26252319  0.26252319  0.50000000  1
  Rh  Rh25  1  0.26252319  0.73747681  0.50000000  1
  Rh  Rh26  1  0.50000000  0.73747681  0.26252319  1
  Rh  Rh27  1  0.26252319  0.50000000  0.26252319  1
  Rh  Rh28  1  0.00000000  0.77322108  0.00000000  1
  Rh  Rh29  1  0.67706318  0.67706318  0.00000000  1
loop_
_geom_bond_atom_site_label_1
_geom_bond_atom_site_label_2
_geom_bond_distance
_geom_bond_site_symmetry_2
Ce0 Rh5 2.417734 1_555
Ce0 Rh10 2.417734 1_555
Ce0 Rh20 3.285315 1_554
Ce0 Rh18 3.285315 1_544
Ce0 Rh0 3.285315 1_555
Ce0 Rh26 3.285315 1_545
Ce1 Rh12 2.971875 1_555
Ce1 Rh26 2.971875 1_555
Ce1 Rh24 2.971875 1_555
Ce1 Rh14 2.971875 1_555
Ce1 Rh20 2.971875 1_555
Ce1 Rh18 2.971875 1_555
Ce1 Rh0 2.971875 1_555
Ce1 Rh27 2.971875 1_555
Ce1 Rh25 2.971875 1_555
Ce1 Rh8 2.971875 1_555
Ce1 Rh16 2.971875 1_555
Ce1 Rh3 2.971875 1_555
Ce2 Rh1 2.417734 1_555
Ce2 Rh7 2.417734 1_555
Ce2 Rh24 3.285315 1_555
Ce2 Rh8 3.285315 1_455
Ce2 Rh16 3.285315 1_445
Ce2 Rh25 3.285315 1_545
Ce3 Rh28 2.417734 1_555
Ce3 Rh22 2.417734 1_555
Ce3 Rh12 3.285315 1_454
Ce3 Rh14 3.285315 1_554
Ce3 Rh27 3.285315 1_555
Ce3 Rh3 3.285315 1_455
Rh0 Si8 2.386615 1_555
Rh0 Si7 2.386615 1_555
Rh0 Si11 2.609323 1_555
Rh0 Si9 2.609323 1_555
Rh1 Si2 2.673447 1_545
Rh1 Si4 2.673447 1_445
Rh1 Si11 2.673447 1_455
Rh1 Si9 2.673447 1_555
Rh2 Si0 2.333453 1_545
Rh2 Si12 2.333453 1_555
Rh2 Si7 2.515982 1_555
Rh2 Si6 2.515982 1_545
Rh3 Si10 2.386615 1_555
Rh3 Si8 2.386615 1_555
Rh3 Si11 2.609323 1_555
Rh3 Si4 2.609323 1_555
Rh4 Si3 2.333453 1_554
Rh4 Si11 2.333453 1_555
Rh4 Si1 2.515982 1_554
Rh4 Si8 2.515982 1_555
Rh5 Si13 2.673447 1_544
Rh5 Si4 2.673447 1_545
Rh5 Si11 2.673447 1_555
Rh5 Si3 2.673447 1_554
Rh6 Si2 2.333453 1_545
Rh6 Si9 2.333453 1_555
Rh6 Si7 2.515982 1_555
Rh6 Si6 2.515982 1_545
Rh7 Si13 2.673447 1_445
Rh7 Si0 2.673447 1_545
Rh7 Si12 2.673447 1_555
Rh7 Si3 2.673447 1_455
Rh8 Si10 2.386615 1_555
Rh8 Si7 2.386615 1_555
Rh8 Si3 2.609323 1_555
Rh8 Si11 2.609323 1_555
Rh9 Si4 2.333453 1_545
Rh9 Si11 2.333453 1_555
Rh9 Si6 2.515982 1_545
Rh9 Si7 2.515982 1_555
Rh10 Si0 2.673447 1_544
Rh10 Si12 2.673447 1_554
Rh10 Si9 2.673447 1_555
Rh10 Si2 2.673447 1_545
Rh11 Si11 2.333453 1_455
Rh11 Si9 2.333453 1_555
Rh11 Si5 2.515982 1_555
Rh11 Si10 2.515982 1_455
Rh12 Si10 2.386615 1_555
Rh12 Si1 2.386615 1_555
Rh12 Si3 2.609323 1_555
Rh12 Si13 2.609323 1_555
Rh13 Si4 2.333453 1_455
Rh13 Si2 2.333453 1_555
Rh13 Si10 2.515982 1_455
Rh13 Si5 2.515982 1_555
Rh14 Si1 2.386615 1_555
Rh14 Si5 2.386615 1_555
Rh14 Si0 2.609323 1_555
Rh14 Si12 2.609323 1_555
Rh15 Si13 2.333453 1_455
Rh15 Si0 2.333453 1_555
Rh15 Si5 2.515982 1_555
Rh15 Si10 2.515982 1_455
Rh16 Si6 2.386615 1_555
Rh16 Si10 2.386615 1_555
Rh16 Si13 2.609323 1_555
Rh16 Si4 2.609323 1_555
Rh17 Si12 2.333453 1_555
Rh17 Si3 2.333453 1_455
Rh17 Si5 2.515982 1_555
Rh17 Si10 2.515982 1_455
Rh18 Si6 2.386615 1_555
Rh18 Si1 2.386615 1_555
Rh18 Si0 2.609323 1_555
Rh18 Si13 2.609323 1_555
Rh19 Si12 2.333453 1_554
Rh19 Si9 2.333453 1_555
Rh19 Si1 2.515982 1_554
Rh19 Si8 2.515982 1_555
Rh20 Si1 2.386615 1_555
Rh20 Si7 2.386615 1_555
Rh20 Si3 2.609323 1_555
Rh20 Si12 2.609323 1_555
Rh21 Si0 2.333453 1_554
Rh21 Si2 2.333453 1_555
Rh21 Si1 2.515982 1_554
Rh21 Si8 2.515982 1_555
Rh22 Si3 2.673447 1_454
Rh22 Si12 2.673447 1_554
Rh22 Si11 2.673447 1_455
Rh22 Si9 2.673447 1_555
Rh23 Si13 2.333453 1_545
Rh23 Si3 2.333453 1_555
Rh23 Si6 2.515982 1_545
Rh23 Si7 2.515982 1_555
Rh24 Si5 2.386615 1_555
Rh24 Si7 2.386615 1_555
Rh24 Si9 2.609323 1_555
Rh24 Si12 2.609323 1_555
Rh25 Si6 2.386615 1_555
Rh25 Si5 2.386615 1_555
Rh25 Si0 2.609323 1_555
Rh25 Si2 2.609323 1_555
Rh26 Si6 2.386615 1_555
Rh26 Si8 2.386615 1_555
Rh26 Si4 2.609323 1_555
Rh26 Si2 2.609323 1_555
Rh27 Si8 2.386615 1_555
Rh27 Si5 2.386615 1_555
Rh27 Si2 2.609323 1_555
Rh27 Si9 2.609323 1_555
Rh28 Si0 2.673447 1_554
Rh28 Si13 2.673447 1_454
Rh28 Si2 2.673447 1_555
Rh28 Si4 2.673447 1_455
Rh29 Si4 2.333453 1_555
Rh29 Si13 2.333453 1_554
Rh29 Si1 2.515982 1_554
Rh29 Si8 2.515982 1_555
