# generated using pymatgen
data_Cs3B12H12I
_symmetry_space_group_name_H-M   'P 1'
_cell_length_a   7.46972952
_cell_length_b   7.46972952
_cell_length_c   7.46972971
_cell_angle_alpha   93.31641814
_cell_angle_beta   93.31641814
_cell_angle_gamma   93.31642632
_symmetry_Int_Tables_number   1
_chemical_formula_structural   Cs3B12H12I
_chemical_formula_sum   'Cs3 B12 H12 I1'
_cell_volume   414.60881444
_cell_formula_units_Z   1
loop_
 _symmetry_equiv_pos_site_id
 _symmetry_equiv_pos_as_xyz
  1  'x, y, z'
loop_
 _atom_site_type_symbol
 _atom_site_label
 _atom_site_symmetry_multiplicity
 _atom_site_fract_x
 _atom_site_fract_y
 _atom_site_fract_z
 _atom_site_occupancy
  Cs  Cs0  1  0.50000000  0.50000000  0.00000000  1
  Cs  Cs1  1  0.00000000  0.50000000  0.50000000  1
  Cs  Cs2  1  0.50000000  0.00000000  0.50000000  1
  B  B0  1  0.05588500  0.21941500  0.05588500  1
  B  B1  1  0.05588500  0.05588500  0.21941500  1
  B  B2  1  0.21941500  0.05588500  0.05588500  1
  B  B3  1  0.94411500  0.78058500  0.94411500  1
  B  B4  1  0.94411500  0.94411500  0.78058500  1
  B  B5  1  0.78058500  0.94411500  0.94411500  1
  B  B6  1  0.88527600  0.15085700  0.88527600  1
  B  B7  1  0.88527600  0.88527600  0.15085700  1
  B  B8  1  0.15085700  0.88527600  0.88527600  1
  B  B9  1  0.11472400  0.84914300  0.11472400  1
  B  B10  1  0.11472400  0.11472400  0.84914300  1
  B  B11  1  0.84914300  0.11472400  0.11472400  1
  H  H0  1  0.90430300  0.62404100  0.90430300  1
  H  H1  1  0.90430300  0.90430300  0.62404100  1
  H  H2  1  0.62404100  0.90430300  0.90430300  1
  H  H3  1  0.09569700  0.37595900  0.09569700  1
  H  H4  1  0.09569700  0.09569700  0.37595900  1
  H  H5  1  0.37595900  0.09569700  0.09569700  1
  H  H6  1  0.80271400  0.25741300  0.80271400  1
  H  H7  1  0.80271400  0.80271400  0.25741300  1
  H  H8  1  0.25741300  0.80271400  0.80271400  1
  H  H9  1  0.19728600  0.74258700  0.19728600  1
  H  H10  1  0.19728600  0.19728600  0.74258700  1
  H  H11  1  0.74258700  0.19728600  0.19728600  1
  I  I0  1  0.50000000  0.50000000  0.50000000  1
loop_
_geom_bond_atom_site_label_1
_geom_bond_atom_site_label_2
_geom_bond_distance
_geom_bond_site_symmetry_2
Cs0 H3 3.239250 1_555
Cs0 H2 3.239250 1_554
Cs0 H0 3.239250 1_554
Cs0 H5 3.239250 1_555
Cs0 H9 3.334503 1_555
Cs0 H8 3.334503 1_554
Cs0 H11 3.334503 1_555
Cs0 H6 3.334503 1_554
Cs0 H7 3.510768 1_555
Cs0 H10 3.510768 1_554
Cs0 I0 3.734865 1_555
Cs0 I0 3.734865 1_554
Cs1 H0 3.239250 1_455
Cs1 H3 3.239250 1_555
Cs1 H4 3.239250 1_555
Cs1 H1 3.239250 1_455
Cs1 H6 3.334503 1_455
Cs1 H9 3.334503 1_555
Cs1 H10 3.334503 1_555
Cs1 H7 3.334503 1_455
Cs1 H11 3.510768 1_455
Cs1 H8 3.510768 1_555
Cs1 I0 3.734865 1_455
Cs1 I0 3.734865 1_555
Cs2 H2 3.239250 1_545
Cs2 H5 3.239250 1_555
Cs2 H4 3.239250 1_555
Cs2 H1 3.239250 1_545
Cs2 H11 3.334503 1_555
Cs2 H8 3.334503 1_545
Cs2 H7 3.334503 1_545
Cs2 H10 3.334503 1_555
Cs2 H9 3.510768 1_545
Cs2 H6 3.510768 1_555
Cs2 I0 3.734865 1_545
Cs2 I0 3.734865 1_555
B0 H3 1.205626 1_555
B1 H4 1.205626 1_555
B2 H5 1.205626 1_555
B3 H0 1.205626 1_555
B4 H1 1.205626 1_555
B5 H2 1.205626 1_555
B6 H6 1.209871 1_555
B7 H7 1.209871 1_555
B8 H8 1.209871 1_555
B9 H9 1.209871 1_555
B10 H10 1.209871 1_555
B11 H11 1.209871 1_555
