# generated using pymatgen
data_Nb40N21O16
_symmetry_space_group_name_H-M   'P 1'
_cell_length_a   6.08273400
_cell_length_b   7.06377933
_cell_length_c   25.08547915
_cell_angle_alpha   88.72594157
_cell_angle_beta   88.34804428
_cell_angle_gamma   67.33520083
_symmetry_Int_Tables_number   1
_chemical_formula_structural   Nb40N21O16
_chemical_formula_sum   'Nb40 N21 O16'
_cell_volume   994.12738586
_cell_formula_units_Z   1
loop_
 _symmetry_equiv_pos_site_id
 _symmetry_equiv_pos_as_xyz
  1  'x, y, z'
loop_
 _atom_site_type_symbol
 _atom_site_label
 _atom_site_symmetry_multiplicity
 _atom_site_fract_x
 _atom_site_fract_y
 _atom_site_fract_z
 _atom_site_occupancy
  Nb  Nb0  1  0.31834000  0.02061500  0.83103900  1
  Nb  Nb1  1  0.30447300  0.05418800  0.57753700  1
  Nb  Nb2  1  0.33231400  0.02513000  0.32927100  1
  Nb  Nb3  1  0.31801900  0.00192200  0.07769000  1
  Nb  Nb4  1  0.17804100  0.80466000  0.93607500  1
  Nb  Nb5  1  0.19264300  0.81192800  0.68439500  1
  Nb  Nb6  1  0.64067300  0.05028900  0.93721000  1
  Nb  Nb7  1  0.62116500  0.06701200  0.68622000  1
  Nb  Nb8  1  0.64328000  0.02015700  0.42270400  1
  Nb  Nb9  1  0.63541400  0.02592600  0.17907400  1
  Nb  Nb10  1  0.66941400  0.61068400  0.00161000  1
  Nb  Nb11  1  0.68675100  0.61832900  0.75122000  1
  Nb  Nb12  1  0.70136100  0.58670600  0.25064600  1
  Nb  Nb13  1  0.71270500  0.57731700  0.49889000  1
  Nb  Nb14  1  0.69650800  0.58988100  0.87497300  1
  Nb  Nb15  1  0.71046600  0.57685200  0.37284500  1
  Nb  Nb16  1  0.71091400  0.58973600  0.62296000  1
  Nb  Nb17  1  0.69757900  0.57457500  0.12493300  1
  Nb  Nb18  1  0.00179000  0.80226300  0.81259300  1
  Nb  Nb19  1  0.03778100  0.77943200  0.56354900  1
  Nb  Nb20  1  0.02246700  0.78765200  0.31416700  1
  Nb  Nb21  1  0.99895300  0.79081000  0.06087600  1
  Nb  Nb22  1  0.82749600  0.21646700  0.81133200  1
  Nb  Nb23  1  0.79471200  0.20509400  0.56531400  1
  Nb  Nb24  1  0.81623100  0.19877200  0.31169500  1
  Nb  Nb25  1  0.21568500  0.79979900  0.43691800  1
  Nb  Nb26  1  0.18498100  0.79395700  0.18563000  1
  Nb  Nb27  1  0.99614400  0.22040400  0.93737000  1
  Nb  Nb28  1  0.99061400  0.22178500  0.68802600  1
  Nb  Nb29  1  0.98618200  0.20676100  0.43756000  1
  Nb  Nb30  1  0.98955100  0.20494700  0.18716100  1
  Nb  Nb31  1  0.31203600  0.42378400  0.87646400  1
  Nb  Nb32  1  0.29526700  0.42990200  0.62743800  1
  Nb  Nb33  1  0.29962200  0.42128200  0.37652700  1
  Nb  Nb34  1  0.30198100  0.41403000  0.12541500  1
  Nb  Nb35  1  0.29819900  0.41496700  0.00093200  1
  Nb  Nb36  1  0.30041300  0.41330900  0.75009000  1
  Nb  Nb37  1  0.30186100  0.39798700  0.49561900  1
  Nb  Nb38  1  0.29974300  0.40219600  0.24772000  1
  Nb  Nb39  1  0.81830600  0.20372700  0.06050800  1
  N  N0  1  0.35301600  0.73521200  0.60815100  1
  N  N1  1  0.34290800  0.72153100  0.35877200  1
  N  N2  1  0.32752400  0.70984800  0.11081500  1
  N  N3  1  0.66286700  0.30930100  0.98755700  1
  N  N4  1  0.66956300  0.29581800  0.88839000  1
  N  N5  1  0.65316100  0.31638400  0.64088400  1
  N  N6  1  0.66524600  0.31891500  0.73935200  1
  N  N7  1  0.66380400  0.29105600  0.38820100  1
  N  N8  1  0.66002600  0.26110100  0.48756900  1
  N  N9  1  0.66268100  0.28356600  0.13752100  1
  N  N10  1  0.66086500  0.28328400  0.23720600  1
  N  N11  1  0.32874800  0.72258000  0.85952600  1
  N  N12  1  0.31706000  0.73762300  0.01200200  1
  N  N13  1  0.13843500  0.21586700  0.76324900  1
  N  N14  1  0.05214300  0.27953900  0.51377900  1
  N  N15  1  0.08047600  0.25783500  0.26304300  1
  N  N16  1  0.12876500  0.21837100  0.01252600  1
  N  N17  1  0.05673600  0.31488500  0.86068000  1
  N  N18  1  0.03995600  0.31410100  0.60974900  1
  N  N19  1  0.05559800  0.29642500  0.36052700  1
  N  N20  1  0.05428700  0.29408500  0.10981700  1
  O  O0  1  0.35185900  0.66060500  0.51051700  1
  O  O1  1  0.33932000  0.68756600  0.25915400  1
  O  O2  1  0.67603000  0.96460800  0.59478600  1
  O  O3  1  0.61554600  0.94744000  0.76719400  1
  O  O4  1  0.55397500  0.93045800  0.25301400  1
  O  O5  1  0.61637600  0.95002200  0.01646600  1
  O  O6  1  0.87298500  0.78674200  0.89124700  1
  O  O7  1  0.98199700  0.69383200  0.64086400  1
  O  O8  1  0.94197500  0.72457700  0.39258700  1
  O  O9  1  0.90224100  0.74917100  0.14202800  1
  O  O10  1  0.97761100  0.66408600  0.98693000  1
  O  O11  1  0.98954700  0.67380500  0.73878500  1
  O  O12  1  0.96909600  0.69991700  0.48998300  1
  O  O13  1  0.97993300  0.67491300  0.24016900  1
  O  O14  1  0.32742400  0.73600800  0.75980000  1
  O  O15  1  0.49813800  0.92369200  0.48968400  1
loop_
_geom_bond_atom_site_label_1
_geom_bond_atom_site_label_2
_geom_bond_distance
_geom_bond_site_symmetry_2
Nb0 O3 2.291330 1_545
Nb0 O14 2.703114 1_545
Nb1 O2 2.153520 1_545
Nb1 O15 2.489597 1_545
Nb2 O4 2.266667 1_545
Nb3 O5 2.266795 1_545
Nb4 O10 2.210616 1_455
Nb4 O6 2.243075 1_455
Nb5 O14 2.059911 1_555
Nb5 O7 2.115426 1_455
Nb5 O11 2.261021 1_455
Nb6 O5 2.115994 1_546
Nb6 O6 2.183130 1_545
Nb7 O3 2.186912 1_545
Nb7 O2 2.395648 1_545
Nb8 O15 2.096212 1_545
Nb8 O8 2.301882 1_545
Nb9 O4 2.071080 1_545
Nb9 O9 2.206393 1_545
Nb10 O10 2.071557 1_554
Nb10 O5 2.329255 1_555
Nb11 O14 2.023652 1_555
Nb11 O11 2.039823 1_555
Nb11 O3 2.237885 1_555
Nb12 O13 2.027134 1_555
Nb12 O1 2.042870 1_555
Nb12 O4 2.242547 1_555
Nb13 O0 2.055342 1_555
Nb13 O12 2.060176 1_555
Nb13 O15 2.296605 1_555
Nb14 O6 2.110364 1_555
Nb15 O8 2.124351 1_555
Nb16 O7 2.110253 1_555
Nb16 O2 2.654976 1_555
Nb17 O9 2.119504 1_555
Nb18 O11 2.095649 1_455
Nb18 O6 2.118098 1_455
Nb18 O14 2.249033 1_555
Nb18 O3 2.472636 1_455
Nb19 O12 2.041341 1_455
Nb19 O7 2.076145 1_455
Nb19 O0 2.188935 1_555
Nb19 O2 2.212434 1_455
Nb20 O8 2.093259 1_455
Nb20 O13 2.097405 1_455
Nb20 O1 2.226842 1_555
Nb21 O10 2.106263 1_554
Nb21 O9 2.148133 1_555
Nb21 O5 2.449110 1_555
Nb23 O2 2.193617 1_545
Nb25 O0 2.107448 1_555
Nb25 O8 2.259588 1_455
Nb25 O12 2.275586 1_455
Nb25 O15 2.609829 1_555
Nb26 O1 2.083830 1_555
Nb26 O13 2.189362 1_455
Nb26 O9 2.190300 1_455
Nb32 O7 2.115020 1_455
Nb33 O8 2.425038 1_455
Nb34 O9 2.690641 1_455
Nb35 O10 2.095252 1_454
Nb36 O11 2.089995 1_455
Nb36 O14 2.366001 1_555
Nb37 O0 2.036086 1_555
Nb37 O12 2.311242 1_455
Nb38 O1 2.146467 1_555
Nb38 O13 2.155951 1_455
Nb39 O5 2.793513 1_545
N0 Nb16 2.058852 1_555
N0 Nb5 2.105823 1_555
N0 Nb19 2.161655 1_555
N0 Nb1 2.275336 1_565
N0 Nb32 2.352918 1_555
N1 Nb25 2.092468 1_555
N1 Nb15 2.106235 1_555
N1 Nb20 2.161083 1_555
N1 Nb2 2.230832 1_565
N1 Nb33 2.268807 1_555
N2 Nb26 2.045920 1_555
N2 Nb17 2.116253 1_555
N2 Nb34 2.176597 1_555
N2 Nb3 2.187466 1_565
N2 Nb21 2.263291 1_455
N3 Nb35 2.069361 1_556
N3 Nb39 2.072368 1_556
N3 Nb10 2.181195 1_556
N3 Nb27 2.235157 1_555
N3 Nb6 2.294283 1_555
N4 Nb31 2.036312 1_555
N4 Nb22 2.121277 1_555
N4 Nb6 2.160265 1_555
N4 Nb14 2.164023 1_555
N4 Nb27 2.244041 1_555
N5 Nb32 2.044739 1_555
N5 Nb23 2.098470 1_555
N5 Nb16 2.128144 1_555
N5 Nb7 2.143957 1_555
N5 Nb28 2.259662 1_555
N6 Nb22 2.062114 1_555
N6 Nb36 2.067624 1_555
N6 Nb11 2.195998 1_555
N6 Nb28 2.211629 1_555
N6 Nb7 2.346988 1_555
N7 Nb33 2.072229 1_555
N7 Nb24 2.110716 1_555
N7 Nb8 2.128544 1_555
N7 Nb15 2.169151 1_555
N7 Nb29 2.222679 1_555
N8 Nb37 2.020385 1_555
N8 Nb23 2.106959 1_555
N8 Nb29 2.224427 1_555
N8 Nb13 2.399525 1_555
N8 Nb8 2.412695 1_555
N9 Nb34 2.055000 1_555
N9 Nb39 2.116128 1_555
N9 Nb9 2.136454 1_555
N9 Nb17 2.161926 1_555
N9 Nb30 2.252391 1_555
N10 Nb38 2.038305 1_555
N10 Nb24 2.087714 1_555
N10 Nb30 2.216536 1_555
N10 Nb12 2.282961 1_555
N10 Nb9 2.408973 1_555
N11 Nb4 2.098178 1_555
N11 Nb14 2.109674 1_555
N11 Nb31 2.183715 1_555
N11 Nb0 2.186266 1_565
N11 Nb18 2.213837 1_555
N12 Nb10 1.990650 1_555
N12 Nb4 2.076344 1_554
N12 Nb21 2.170671 1_455
N12 Nb35 2.348701 1_555
N12 Nb3 2.519242 1_565
N13 Nb36 2.011136 1_555
N13 Nb28 2.106268 1_455
N13 Nb0 2.198051 1_555
N13 Nb22 2.212387 1_455
N14 Nb37 2.034074 1_555
N14 Nb29 2.080355 1_455
N14 Nb23 2.210762 1_455
N14 Nb13 2.342960 1_455
N14 Nb1 2.364986 1_555
N15 Nb38 1.991899 1_555
N15 Nb30 2.078574 1_455
N15 Nb24 2.151317 1_455
N15 Nb2 2.427637 1_555
N15 Nb12 2.586864 1_455
N16 Nb35 2.035453 1_555
N16 Nb27 2.069534 1_454
N16 Nb3 2.230680 1_555
N16 Nb39 2.244914 1_455
N17 Nb31 2.032165 1_555
N17 Nb27 2.091381 1_455
N17 Nb22 2.201137 1_455
N17 Nb0 2.203899 1_555
N17 Nb14 2.325622 1_455
N18 Nb32 2.076700 1_555
N18 Nb1 2.080134 1_555
N18 Nb28 2.104998 1_455
N18 Nb16 2.212197 1_455
N18 Nb23 2.253888 1_455
N19 Nb33 2.049684 1_555
N19 Nb29 2.101970 1_455
N19 Nb2 2.150623 1_555
N19 Nb24 2.238477 1_455
N19 Nb15 2.282876 1_455
N20 Nb34 2.042916 1_555
N20 Nb30 2.099677 1_455
N20 Nb39 2.200310 1_455
N20 Nb3 2.220379 1_555
N20 Nb17 2.334547 1_455
