# generated using pymatgen
data_Cs3H5Pd
_symmetry_space_group_name_H-M   'P 1'
_cell_length_a   8.18124157
_cell_length_b   8.18124157
_cell_length_c   6.29495122
_cell_angle_alpha   90.00000000
_cell_angle_beta   90.00000000
_cell_angle_gamma   90.00000000
_symmetry_Int_Tables_number   1
_chemical_formula_structural   Cs3H5Pd
_chemical_formula_sum   'Cs6 H10 Pd2'
_cell_volume   421.33816730
_cell_formula_units_Z   2
loop_
 _symmetry_equiv_pos_site_id
 _symmetry_equiv_pos_as_xyz
  1  'x, y, z'
loop_
 _atom_site_type_symbol
 _atom_site_label
 _atom_site_symmetry_multiplicity
 _atom_site_fract_x
 _atom_site_fract_y
 _atom_site_fract_z
 _atom_site_occupancy
  Cs  Cs0  1  0.50000000  0.50000000  0.00000000  1
  Cs  Cs1  1  0.00000000  -0.00000000  0.00000000  1
  Cs  Cs2  1  0.68458252  0.18458252  0.50000000  1
  Cs  Cs3  1  0.31541748  0.81541748  0.50000000  1
  Cs  Cs4  1  0.81541748  0.68458252  0.50000000  1
  Cs  Cs5  1  0.18458252  0.31541748  0.50000000  1
  H  H0  1  0.50000000  0.50000000  0.50000000  1
  H  H1  1  0.00000000  -0.00000000  0.50000000  1
  H  H2  1  0.10181779  0.60181779  0.81614373  1
  H  H3  1  0.89818221  0.39818221  0.81614373  1
  H  H4  1  0.39818221  0.10181779  0.81614373  1
  H  H5  1  0.60181779  0.89818221  0.81614373  1
  H  H6  1  0.89818221  0.39818221  0.18385627  1
  H  H7  1  0.10181779  0.60181779  0.18385627  1
  H  H8  1  0.60181779  0.89818221  0.18385627  1
  H  H9  1  0.39818221  0.10181779  0.18385627  1
  Pd  Pd0  1  0.00000000  0.50000000  -0.00000000  1
  Pd  Pd1  1  0.50000000  -0.00000000  -0.00000000  1
loop_
_geom_bond_atom_site_label_1
_geom_bond_atom_site_label_2
_geom_bond_distance
_geom_bond_site_symmetry_2
Cs0 H0 3.147476 1_555
Cs0 H0 3.147476 1_554
Cs1 H1 3.147476 1_554
Cs1 H1 3.147476 1_555
Cs2 H1 2.989893 1_655
Cs2 H0 2.989893 1_555
Cs2 H8 3.147887 1_545
Cs2 H9 3.147887 1_555
Cs2 H5 3.147887 1_545
Cs2 H4 3.147887 1_555
Cs2 H6 3.173030 1_555
Cs2 H3 3.173030 1_555
Cs3 H0 2.989893 1_555
Cs3 H1 2.989893 1_565
Cs3 H9 3.147887 1_565
Cs3 H4 3.147887 1_565
Cs3 H8 3.147887 1_555
Cs3 H5 3.147887 1_555
Cs3 H7 3.173030 1_555
Cs3 H2 3.173030 1_555
Cs4 H0 2.989893 1_555
Cs4 H1 2.989893 1_665
Cs4 H7 3.147887 1_655
Cs4 H2 3.147887 1_655
Cs4 H6 3.147887 1_555
Cs4 H3 3.147887 1_555
Cs4 H8 3.173030 1_555
Cs4 H5 3.173030 1_555
Cs5 H0 2.989893 1_555
Cs5 H1 2.989893 1_555
Cs5 H7 3.147887 1_555
Cs5 H6 3.147887 1_455
Cs5 H3 3.147887 1_455
Cs5 H2 3.147887 1_555
Cs5 H9 3.173030 1_555
Cs5 H4 3.173030 1_555
H2 Pd0 1.651442 1_556
H3 Pd0 1.651442 1_656
H4 Pd1 1.651442 1_556
H5 Pd1 1.651442 1_566
H6 Pd0 1.651442 1_655
H7 Pd0 1.651442 1_555
H8 Pd1 1.651442 1_565
H9 Pd1 1.651442 1_555
