# generated using pymatgen
data_Ho2H4CO7
_symmetry_space_group_name_H-M   'P 1'
_cell_length_a   6.03492100
_cell_length_b   6.30527100
_cell_length_c   15.46622125
_cell_angle_alpha   83.01627008
_cell_angle_beta   90.00000000
_cell_angle_gamma   90.00000000
_symmetry_Int_Tables_number   1
_chemical_formula_structural   Ho2H4CO7
_chemical_formula_sum   'Ho8 H16 C4 O28'
_cell_volume   584.15137018
_cell_formula_units_Z   4
loop_
 _symmetry_equiv_pos_site_id
 _symmetry_equiv_pos_as_xyz
  1  'x, y, z'
loop_
 _atom_site_type_symbol
 _atom_site_label
 _atom_site_symmetry_multiplicity
 _atom_site_fract_x
 _atom_site_fract_y
 _atom_site_fract_z
 _atom_site_occupancy
  Ho  Ho0  1  0.75028100  0.41112300  0.56541100  1
  Ho  Ho1  1  0.25028100  0.58887700  0.93458900  1
  Ho  Ho2  1  0.24971900  0.58887700  0.43458900  1
  Ho  Ho3  1  0.74971900  0.41112300  0.06541100  1
  Ho  Ho4  1  0.73630800  0.42121400  0.81845200  1
  Ho  Ho5  1  0.23630800  0.57878600  0.68154800  1
  Ho  Ho6  1  0.26369200  0.57878600  0.18154800  1
  Ho  Ho7  1  0.76369200  0.42121400  0.31845200  1
  H  H0  1  0.66835600  0.77950600  0.92862300  1
  H  H1  1  0.16835600  0.22049400  0.57137700  1
  H  H2  1  0.33164400  0.22049400  0.07137700  1
  H  H3  1  0.83164400  0.77950600  0.42862300  1
  H  H4  1  0.02657000  0.19073500  0.94694900  1
  H  H5  1  0.52657000  0.80926500  0.55305100  1
  H  H6  1  0.97343000  0.80926500  0.05305100  1
  H  H7  1  0.47343000  0.19073500  0.44694900  1
  H  H8  1  0.03231300  0.17758000  0.70849900  1
  H  H9  1  0.53231300  0.82242000  0.79150100  1
  H  H10  1  0.96768700  0.82242000  0.29150100  1
  H  H11  1  0.46768700  0.17758000  0.20849900  1
  H  H12  1  0.98669000  0.81305900  0.80440300  1
  H  H13  1  0.48669000  0.18694100  0.69559700  1
  H  H14  1  0.01331000  0.18694100  0.19559700  1
  H  H15  1  0.51331000  0.81305900  0.30440300  1
  C  C0  1  0.92478600  0.90243600  0.61734100  1
  C  C1  1  0.42478600  0.09756400  0.88265900  1
  C  C2  1  0.07521400  0.09756400  0.38265900  1
  C  C3  1  0.57521400  0.90243600  0.11734100  1
  O  O0  1  0.38785900  0.30338200  0.87627700  1
  O  O1  1  0.88785900  0.69661800  0.62372300  1
  O  O2  1  0.61214100  0.69661800  0.12372300  1
  O  O3  1  0.11214100  0.30338200  0.37627700  1
  O  O4  1  0.61972100  0.04522400  0.85547200  1
  O  O5  1  0.11972100  0.95477600  0.64452800  1
  O  O6  1  0.38027900  0.95477600  0.14452800  1
  O  O7  1  0.88027900  0.04522400  0.35547200  1
  O  O8  1  0.63195700  0.62739800  0.94233500  1
  O  O9  1  0.13195700  0.37260200  0.55766500  1
  O  O10  1  0.36804300  0.37260200  0.05766500  1
  O  O11  1  0.86804300  0.62739800  0.44233500  1
  O  O12  1  0.94929400  0.32727100  0.94789200  1
  O  O13  1  0.44929400  0.67272900  0.55210800  1
  O  O14  1  0.05070600  0.67272900  0.05210800  1
  O  O15  1  0.55070600  0.32727100  0.44789200  1
  O  O16  1  0.99802900  0.31210700  0.73144700  1
  O  O17  1  0.49802900  0.68789300  0.76855300  1
  O  O18  1  0.00197100  0.68789300  0.26855300  1
  O  O19  1  0.50197100  0.31210700  0.23144700  1
  O  O20  1  0.77755400  0.03642000  0.58713800  1
  O  O21  1  0.27755400  0.96358000  0.91286200  1
  O  O22  1  0.22244600  0.96358000  0.41286200  1
  O  O23  1  0.72244600  0.03642000  0.08713800  1
  O  O24  1  0.52747800  0.33734000  0.68913500  1
  O  O25  1  0.02747800  0.66266000  0.81086500  1
  O  O26  1  0.47252200  0.66266000  0.31086500  1
  O  O27  1  0.97252200  0.33734000  0.18913500  1
loop_
_geom_bond_atom_site_label_1
_geom_bond_atom_site_label_2
_geom_bond_distance
_geom_bond_site_symmetry_2
Ho0 O1 2.266704 1_555
Ho0 O15 2.295086 1_555
Ho0 O11 2.314484 1_555
Ho0 O9 2.320776 1_655
Ho0 O24 2.338705 1_555
Ho0 O20 2.351350 1_555
Ho0 O13 2.445418 1_555
Ho1 O0 2.266704 1_555
Ho1 O14 2.295086 1_556
Ho1 O10 2.314484 1_556
Ho1 O8 2.320776 1_555
Ho1 O25 2.338705 1_555
Ho1 O21 2.351350 1_555
Ho1 O12 2.445418 1_455
Ho2 O3 2.266704 1_555
Ho2 O13 2.295086 1_555
Ho2 O9 2.314484 1_555
Ho2 O11 2.320776 1_455
Ho2 O26 2.338705 1_555
Ho2 O22 2.351350 1_555
Ho2 O15 2.445418 1_555
Ho3 O2 2.266704 1_555
Ho3 O12 2.295086 1_554
Ho3 O8 2.314484 1_554
Ho3 O10 2.320776 1_555
Ho3 O27 2.338705 1_555
Ho3 O23 2.351350 1_555
Ho3 O14 2.445418 1_655
Ho4 O16 2.236927 1_555
Ho4 O17 2.274917 1_555
Ho4 O25 2.318553 1_655
Ho4 O0 2.369025 1_555
Ho4 O12 2.392160 1_555
Ho4 O4 2.472467 1_555
Ho4 O24 2.474946 1_555
Ho4 O8 2.522596 1_555
Ho5 O17 2.236927 1_555
Ho5 O16 2.274917 1_455
Ho5 O24 2.318553 1_555
Ho5 O1 2.369025 1_455
Ho5 O13 2.392160 1_555
Ho5 O5 2.472467 1_555
Ho5 O25 2.474946 1_555
Ho5 O9 2.522596 1_555
Ho6 O18 2.236927 1_555
Ho6 O19 2.274917 1_555
Ho6 O27 2.318553 1_455
Ho6 O2 2.369025 1_555
Ho6 O14 2.392160 1_555
Ho6 O6 2.472467 1_555
Ho6 O26 2.474946 1_555
Ho6 O10 2.522596 1_555
Ho7 O19 2.236927 1_555
Ho7 O18 2.274917 1_655
Ho7 O26 2.318553 1_555
Ho7 O3 2.369025 1_655
Ho7 O15 2.392160 1_555
Ho7 O7 2.472467 1_555
Ho7 O27 2.474946 1_555
Ho7 O11 2.522596 1_555
H0 O8 0.981634 1_555
H1 O9 0.981634 1_555
H2 O10 0.981634 1_555
H3 O11 0.981634 1_555
H4 O12 0.980763 1_455
H5 O13 0.980763 1_555
H6 O14 0.980763 1_655
H7 O15 0.980763 1_555
H8 O16 0.980549 1_455
H9 O17 0.980549 1_555
H10 O18 0.980549 1_655
H11 O19 0.980549 1_555
H12 O25 0.973045 1_655
H13 O24 0.973045 1_555
H14 O27 0.973045 1_455
H15 O26 0.973045 1_555
C0 O20 1.274924 1_565
C0 O5 1.305150 1_655
C0 O1 1.308580 1_555
C1 O21 1.274924 1_545
C1 O4 1.305150 1_555
C1 O0 1.308580 1_555
C2 O22 1.274924 1_545
C2 O7 1.305150 1_455
C2 O3 1.308580 1_555
C3 O23 1.274924 1_565
C3 O6 1.305150 1_555
C3 O2 1.308580 1_555
