# generated using pymatgen
data_VAg(PSe3)2
_symmetry_space_group_name_H-M   'P 1'
_cell_length_a   6.43986672
_cell_length_b   6.43986672
_cell_length_c   7.67488415
_cell_angle_alpha   82.47220810
_cell_angle_beta   82.47220810
_cell_angle_gamma   120.58268498
_symmetry_Int_Tables_number   1
_chemical_formula_structural   VAg(PSe3)2
_chemical_formula_sum   'V1 Ag1 P2 Se6'
_cell_volume   264.26885818
_cell_formula_units_Z   1
loop_
 _symmetry_equiv_pos_site_id
 _symmetry_equiv_pos_as_xyz
  1  'x, y, z'
loop_
 _atom_site_type_symbol
 _atom_site_label
 _atom_site_symmetry_multiplicity
 _atom_site_fract_x
 _atom_site_fract_y
 _atom_site_fract_z
 _atom_site_occupancy
  V  V0  1  0.67870200  0.32129800  0.00000000  1
  Ag  Ag0  1  0.32861300  0.67138700  0.00000000  1
  P  P0  1  0.95958800  0.95241600  0.14973200  1
  P  P1  1  0.04758400  0.04041200  0.85026800  1
  Se  Se0  1  0.03202100  0.37745400  0.76406100  1
  Se  Se1  1  0.62254600  0.96797900  0.23593900  1
  Se  Se2  1  0.88316100  0.56830500  0.23230800  1
  Se  Se3  1  0.43169500  0.11683900  0.76769200  1
  Se  Se4  1  0.75889500  0.70940400  0.77295800  1
  Se  Se5  1  0.29059600  0.24110500  0.22704200  1
loop_
_geom_bond_atom_site_label_1
_geom_bond_atom_site_label_2
_geom_bond_distance
_geom_bond_site_symmetry_2
Ag0 Se3 2.874149 1_564
Ag0 Se2 2.874149 1_455
Ag0 Se0 2.938633 1_554
Ag0 Se1 2.938633 1_555
Ag0 Se4 2.950816 1_554
Ag0 Se5 2.950816 1_555
P0 P1 2.217069 1_664
P0 Se5 2.222643 1_665
P0 Se1 2.240837 1_555
P0 Se2 2.243072 1_555
P1 Se4 2.222643 1_445
P1 Se0 2.240837 1_555
P1 Se3 2.243072 1_555
Se0 V0 2.549214 1_456
Se1 V0 2.549214 1_565
Se2 V0 2.582596 1_555
Se3 V0 2.582596 1_556
Se4 V0 2.619069 1_556
Se5 V0 2.619069 1_555
