# generated using pymatgen
data_CaLaVFeO6
_symmetry_space_group_name_H-M   'P 1'
_cell_length_a   5.46313200
_cell_length_b   5.46571968
_cell_length_c   12.52339564
_cell_angle_alpha   102.33645920
_cell_angle_beta   102.35625413
_cell_angle_gamma   90.93108749
_symmetry_Int_Tables_number   1
_chemical_formula_structural   CaLaVFeO6
_chemical_formula_sum   'Ca3 La3 V3 Fe3 O18'
_cell_volume   356.09807055
_cell_formula_units_Z   3
loop_
 _symmetry_equiv_pos_site_id
 _symmetry_equiv_pos_as_xyz
  1  'x, y, z'
loop_
 _atom_site_type_symbol
 _atom_site_label
 _atom_site_symmetry_multiplicity
 _atom_site_fract_x
 _atom_site_fract_y
 _atom_site_fract_z
 _atom_site_occupancy
  Ca  Ca0  1  0.92065700  0.40544500  0.83399500  1
  Ca  Ca1  1  0.58862000  0.07054200  0.16733000  1
  Ca  Ca2  1  0.25464300  0.74144300  0.50182200  1
  La  La0  1  0.74399100  0.25341500  0.49702400  1
  La  La1  1  0.41239700  0.92194700  0.83118900  1
  La  La2  1  0.07919800  0.58677300  0.16467800  1
  V  V0  1  0.00009700  0.99916800  0.99980700  1
  V  V1  1  0.83161800  0.83136300  0.66583200  1
  V  V2  1  0.16527700  0.16529500  0.33348200  1
  Fe  Fe0  1  0.66474800  0.66431900  0.33212100  1
  Fe  Fe1  1  0.33287600  0.33222400  0.66617500  1
  Fe  Fe2  1  0.49963700  0.49860400  0.99939000  1
  O  O0  1  0.34617700  0.45663400  0.32446500  1
  O  O1  1  0.47204300  0.97556200  0.33654400  1
  O  O2  1  0.01358500  0.12191400  0.65572100  1
  O  O3  1  0.73606100  0.71847900  0.50105600  1
  O  O4  1  0.92761100  0.94827800  0.83398800  1
  O  O5  1  0.13977000  0.64361500  0.66865300  1
  O  O6  1  0.18459500  0.69368800  0.99246700  1
  O  O7  1  0.69602300  0.80984200  0.99022600  1
  O  O8  1  0.59335100  0.61367300  0.16637600  1
  O  O9  1  0.40270300  0.38470900  0.83179300  1
  O  O10  1  0.30436400  0.18817600  0.01173400  1
  O  O11  1  0.81094400  0.30231900  0.00295900  1
  O  O12  1  0.85687400  0.35233200  0.32647700  1
  O  O13  1  0.06868200  0.05267500  0.16579000  1
  O  O14  1  0.26063000  0.28069800  0.49855200  1
  O  O15  1  0.98908600  0.87510500  0.34648900  1
  O  O16  1  0.52534900  0.01950500  0.65897600  1
  O  O17  1  0.65651600  0.54128700  0.67862300  1
loop_
_geom_bond_atom_site_label_1
_geom_bond_atom_site_label_2
_geom_bond_distance
_geom_bond_site_symmetry_2
Ca0 O6 2.421836 1_655
Ca0 O17 2.422840 1_555
Ca0 O11 2.489156 1_556
Ca0 O4 2.499634 1_545
Ca0 O2 2.583804 1_655
Ca0 O9 2.643534 1_655
Ca0 O9 2.824071 1_555
Ca0 O4 2.966618 1_555
Ca1 O12 2.420138 1_555
Ca1 O10 2.427902 1_555
Ca1 O1 2.490540 1_545
Ca1 O8 2.495173 1_545
Ca1 O7 2.554923 1_544
Ca1 O13 2.630081 1_655
Ca1 O13 2.836376 1_555
Ca1 O8 2.970892 1_555
Ca2 O16 2.402818 1_565
Ca2 O15 2.420023 1_455
Ca2 O5 2.464242 1_555
Ca2 O14 2.510733 1_555
Ca2 O0 2.574857 1_555
Ca2 O3 2.637048 1_555
Ca2 O3 2.831695 1_455
Ca2 O14 2.956185 1_565
La0 O1 2.428439 1_545
La0 O2 2.455141 1_655
La0 O12 2.506129 1_555
La0 O3 2.532864 1_555
La0 O17 2.614715 1_555
La0 O14 2.651211 1_555
La0 O14 2.819736 1_655
La0 O3 2.934791 1_545
La0 O15 3.021104 1_545
La0 O16 3.044674 1_555
La0 O0 3.117873 1_555
La0 O5 3.121826 1_655
La1 O7 2.444320 1_555
La1 O5 2.445725 1_555
La1 O16 2.523232 1_565
La1 O9 2.529171 1_565
La1 O10 2.602151 1_566
La1 O4 2.661990 1_455
La1 O4 2.808350 1_555
La1 O9 2.937664 1_555
La1 O17 3.039753 1_555
La1 O6 3.047416 1_555
La1 O11 3.102859 1_566
La1 O2 3.134486 1_565
La2 O11 2.444763 1_455
La2 O0 2.455689 1_555
La2 O6 2.526518 1_554
La2 O13 2.545201 1_565
La2 O15 2.623326 1_455
La2 O8 2.665070 1_455
La2 O8 2.805635 1_555
La2 O13 2.921928 1_555
La2 O10 3.039838 1_555
La2 O12 3.055346 1_455
La2 O1 3.110422 1_555
La2 O7 3.147297 1_454
Fe0 O8 1.985377 1_555
Fe0 O1 2.012030 1_555
Fe0 O12 2.013185 1_555
Fe0 O3 2.022678 1_555
Fe0 O0 2.035829 1_555
Fe0 O15 2.051331 1_555
Fe1 O9 1.983250 1_555
Fe1 O14 2.007721 1_555
Fe1 O5 2.015051 1_555
Fe1 O16 2.017030 1_555
Fe1 O2 2.038126 1_555
Fe1 O17 2.048515 1_555
Fe2 O8 2.000058 1_556
Fe2 O9 2.007126 1_555
Fe2 O11 2.023031 1_556
Fe2 O7 2.033452 1_555
Fe2 O6 2.035186 1_555
Fe2 O10 2.040743 1_556
O0 V2 1.896990 1_555
O1 V2 1.982806 1_565
O2 V1 1.901249 1_445
O3 V1 1.973806 1_555
O4 V0 1.985996 1_655
O4 V1 2.014833 1_555
O5 V1 1.983572 1_455
O6 V0 1.959832 1_555
O7 V0 1.910644 1_655
O10 V0 1.903840 1_544
O11 V0 1.964690 1_644
O12 V2 1.980537 1_655
O13 V0 1.987494 1_544
O13 V2 2.007599 1_555
O14 V2 1.978372 1_555
O15 V2 1.896480 1_665
O16 V1 1.973970 1_545
O17 V1 1.891903 1_555
