# generated using pymatgen
data_Ni9O10
_symmetry_space_group_name_H-M   'P 1'
_cell_length_a   5.09716700
_cell_length_b   5.89214834
_cell_length_c   6.64626555
_cell_angle_alpha   102.84562548
_cell_angle_beta   97.89859048
_cell_angle_gamma   106.89516810
_symmetry_Int_Tables_number   1
_chemical_formula_structural   Ni9O10
_chemical_formula_sum   'Ni9 O10'
_cell_volume   181.79424681
_cell_formula_units_Z   1
loop_
 _symmetry_equiv_pos_site_id
 _symmetry_equiv_pos_as_xyz
  1  'x, y, z'
loop_
 _atom_site_type_symbol
 _atom_site_label
 _atom_site_symmetry_multiplicity
 _atom_site_fract_x
 _atom_site_fract_y
 _atom_site_fract_z
 _atom_site_occupancy
  Ni  Ni0  1  0.19648900  0.89364600  0.39338300  1
  Ni  Ni1  1  0.20217400  0.40285900  0.39231900  1
  Ni  Ni2  1  0.59618100  0.69598900  0.19295000  1
  Ni  Ni3  1  0.61386100  0.20663500  0.19962800  1
  Ni  Ni4  1  0.00000000  0.00000000  0.00000000  1
  Ni  Ni5  1  0.38613900  0.79336500  0.80037200  1
  Ni  Ni6  1  0.79782600  0.59714100  0.60768100  1
  Ni  Ni7  1  0.40381900  0.30401100  0.80705000  1
  Ni  Ni8  1  0.80351100  0.10635400  0.60661700  1
  O  O0  1  0.49919100  0.24661700  0.50538000  1
  O  O1  1  0.50080900  0.75338300  0.49462000  1
  O  O2  1  0.90184700  0.05133700  0.30048400  1
  O  O3  1  0.89166100  0.55201800  0.31716200  1
  O  O4  1  0.32142500  0.87859500  0.11055300  1
  O  O5  1  0.32328700  0.33994200  0.10594500  1
  O  O6  1  0.67671300  0.66005800  0.89405500  1
  O  O7  1  0.67857500  0.12140500  0.88944700  1
  O  O8  1  0.09815300  0.94866300  0.69951600  1
  O  O9  1  0.10833900  0.44798200  0.68283800  1
loop_
_geom_bond_atom_site_label_1
_geom_bond_atom_site_label_2
_geom_bond_distance
_geom_bond_site_symmetry_2
Ni0 O4 2.057819 1_555
Ni0 O3 2.057915 1_455
Ni0 O1 2.060925 1_555
Ni0 O2 2.076379 1_465
Ni0 O0 2.095450 1_565
Ni0 O8 2.139520 1_555
Ni1 O9 2.031542 1_555
Ni1 O5 2.069628 1_555
Ni1 O1 2.075763 1_555
Ni1 O3 2.076875 1_455
Ni1 O2 2.084238 1_455
Ni1 O0 2.123492 1_555
Ni2 O5 2.052733 1_555
Ni2 O6 2.060889 1_554
Ni2 O4 2.084690 1_555
Ni2 O3 2.093272 1_555
Ni2 O1 2.105367 1_555
Ni2 O2 2.110587 1_565
Ni3 O5 1.959210 1_555
Ni3 O4 1.970365 1_545
Ni3 O3 2.017643 1_555
Ni3 O2 2.055337 1_555
Ni3 O7 2.105661 1_554
Ni3 O0 2.172604 1_555
Ni4 O4 2.078426 1_545
Ni4 O7 2.078426 1_454
Ni4 O5 2.087747 1_555
Ni4 O6 2.087747 1_444
Ni4 O2 2.103367 1_455
Ni4 O8 2.103367 1_544
Ni5 O6 1.959210 1_555
Ni5 O7 1.970365 1_565
Ni5 O9 2.017643 1_555
Ni5 O8 2.055337 1_555
Ni5 O4 2.105661 1_556
Ni5 O1 2.172604 1_555
Ni6 O3 2.031542 1_555
Ni6 O6 2.069628 1_555
Ni6 O0 2.075763 1_555
Ni6 O9 2.076875 1_655
Ni6 O8 2.084238 1_655
Ni6 O1 2.123492 1_555
Ni7 O6 2.052733 1_555
Ni7 O5 2.060889 1_556
Ni7 O7 2.084690 1_555
Ni7 O9 2.093272 1_555
Ni7 O0 2.105367 1_555
Ni7 O8 2.110587 1_545
Ni8 O7 2.057819 1_555
Ni8 O9 2.057915 1_655
Ni8 O0 2.060925 1_555
Ni8 O8 2.076379 1_645
Ni8 O1 2.095450 1_545
Ni8 O2 2.139520 1_555
