# generated using pymatgen
data_Eu(C2N3)3
_symmetry_space_group_name_H-M   'P 1'
_cell_length_a   7.01166756
_cell_length_b   7.01166756
_cell_length_c   10.46693000
_cell_angle_alpha   90.00000000
_cell_angle_beta   90.00000000
_cell_angle_gamma   110.02009537
_symmetry_Int_Tables_number   1
_chemical_formula_structural   Eu(C2N3)3
_chemical_formula_sum   'Eu2 C12 N18'
_cell_volume   483.49534827
_cell_formula_units_Z   2
loop_
 _symmetry_equiv_pos_site_id
 _symmetry_equiv_pos_as_xyz
  1  'x, y, z'
loop_
 _atom_site_type_symbol
 _atom_site_label
 _atom_site_symmetry_multiplicity
 _atom_site_fract_x
 _atom_site_fract_y
 _atom_site_fract_z
 _atom_site_occupancy
  Eu  Eu0  1  0.71207300  0.28792700  0.25000000  1
  Eu  Eu1  1  0.28792700  0.71207300  0.75000000  1
  C  C0  1  0.71310000  0.99680400  0.55894300  1
  C  C1  1  0.44778800  0.25969200  0.75000000  1
  C  C2  1  0.55221200  0.74030800  0.25000000  1
  C  C3  1  0.00319600  0.28690000  0.55894300  1
  C  C4  1  0.99680400  0.71310000  0.44105700  1
  C  C5  1  0.99680400  0.71310000  0.05894300  1
  C  C6  1  0.28690000  0.00319600  0.05894300  1
  C  C7  1  0.00319600  0.28690000  0.94105700  1
  C  C8  1  0.74030800  0.55221200  0.75000000  1
  C  C9  1  0.25969200  0.44778800  0.25000000  1
  C  C10  1  0.71310000  0.99680400  0.94105700  1
  C  C11  1  0.28690000  0.00319600  0.44105700  1
  N  N0  1  0.08852700  0.33789500  0.25000000  1
  N  N1  1  0.84920500  0.15079500  0.50499400  1
  N  N2  1  0.57941100  0.85145200  0.59382500  1
  N  N3  1  0.42058900  0.14854800  0.40617500  1
  N  N4  1  0.33789500  0.08852700  0.75000000  1
  N  N5  1  0.14854800  0.42058900  0.59382500  1
  N  N6  1  0.54585300  0.45414700  0.75000000  1
  N  N7  1  0.15079500  0.84920500  0.49500600  1
  N  N8  1  0.84920500  0.15079500  0.99500600  1
  N  N9  1  0.45414700  0.54585300  0.25000000  1
  N  N10  1  0.85145200  0.57941100  0.09382500  1
  N  N11  1  0.42058900  0.14854800  0.09382500  1
  N  N12  1  0.91147300  0.66210500  0.75000000  1
  N  N13  1  0.15079500  0.84920500  0.00499400  1
  N  N14  1  0.14854800  0.42058900  0.90617500  1
  N  N15  1  0.85145200  0.57941100  0.40617500  1
  N  N16  1  0.66210500  0.91147300  0.25000000  1
  N  N17  1  0.57941100  0.85145200  0.90617500  1
loop_
_geom_bond_atom_site_label_1
_geom_bond_atom_site_label_2
_geom_bond_distance
_geom_bond_site_symmetry_2
Eu0 N15 2.537069 1_555
Eu0 N3 2.537069 1_555
Eu0 N10 2.537069 1_555
Eu0 N11 2.537069 1_555
Eu0 N16 2.541038 1_545
Eu0 N0 2.541038 1_655
Eu0 N9 2.963223 1_555
Eu0 N1 3.099301 1_555
Eu0 N8 3.099301 1_554
Eu1 N17 2.537069 1_555
Eu1 N14 2.537069 1_555
Eu1 N2 2.537069 1_555
Eu1 N5 2.537069 1_555
Eu1 N12 2.541038 1_455
Eu1 N4 2.541038 1_565
Eu1 N6 2.963223 1_555
Eu1 N13 3.099301 1_556
Eu1 N7 3.099301 1_555
C0 N2 1.181759 1_555
C0 N1 1.299960 1_565
C1 N4 1.183599 1_555
C1 N6 1.299956 1_555
C2 N16 1.183599 1_555
C2 N9 1.299956 1_555
C3 N5 1.181759 1_555
C3 N1 1.299960 1_455
C4 N15 1.181759 1_555
C4 N7 1.299960 1_655
C5 N10 1.181759 1_555
C5 N13 1.299960 1_655
C6 N11 1.181759 1_555
C6 N13 1.299960 1_545
C7 N14 1.181759 1_555
C7 N8 1.299960 1_455
C8 N12 1.183599 1_555
C8 N6 1.299956 1_555
C9 N0 1.183599 1_555
C9 N9 1.299956 1_555
C10 N17 1.181759 1_555
C10 N8 1.299960 1_565
C11 N3 1.181759 1_555
C11 N7 1.299960 1_545
