# generated using pymatgen
data_Mn2CuO4
_symmetry_space_group_name_H-M   'P 1'
_cell_length_a   6.05905117
_cell_length_b   6.05905190
_cell_length_c   18.13023639
_cell_angle_alpha   59.91436019
_cell_angle_beta   59.91435583
_cell_angle_gamma   59.99999467
_symmetry_Int_Tables_number   1
_chemical_formula_structural   Mn2CuO4
_chemical_formula_sum   'Mn12 Cu6 O24'
_cell_volume   470.03948885
_cell_formula_units_Z   6
loop_
 _symmetry_equiv_pos_site_id
 _symmetry_equiv_pos_as_xyz
  1  'x, y, z'
loop_
 _atom_site_type_symbol
 _atom_site_label
 _atom_site_symmetry_multiplicity
 _atom_site_fract_x
 _atom_site_fract_y
 _atom_site_fract_z
 _atom_site_occupancy
  Mn  Mn0  1  0.00229400  0.00229400  0.99770600  1
  Mn  Mn1  1  0.12698300  0.62390100  0.20840500  1
  Mn  Mn2  1  0.62390100  0.12698300  0.20840500  1
  Mn  Mn3  1  0.00279800  0.00279800  0.33053500  1
  Mn  Mn4  1  0.62390100  0.62390100  0.20840500  1
  Mn  Mn5  1  0.12717000  0.62326800  0.54209900  1
  Mn  Mn6  1  0.62326800  0.12717000  0.54209900  1
  Mn  Mn7  1  0.62326800  0.62326800  0.54209900  1
  Mn  Mn8  1  0.12562200  0.62643500  0.87383600  1
  Mn  Mn9  1  0.62643500  0.12562200  0.87383600  1
  Mn  Mn10  1  0.62602100  0.62602100  0.70731200  1
  Mn  Mn11  1  0.62643500  0.62643500  0.87383600  1
  Cu  Cu0  1  0.24881800  0.24881800  0.08451500  1
  Cu  Cu1  1  0.24705000  0.24705000  0.41961700  1
  Cu  Cu2  1  0.62476800  0.62476800  0.04189900  1
  Cu  Cu3  1  0.24976100  0.24976100  0.75023900  1
  Cu  Cu4  1  0.62367900  0.62367900  0.37632100  1
  Cu  Cu5  1  0.00025900  0.00025900  0.66640800  1
  O  O0  1  0.38050100  0.38050100  0.13402100  1
  O  O1  1  0.38050100  0.83693400  0.13402100  1
  O  O2  1  0.38070800  0.38070800  0.28595900  1
  O  O3  1  0.37960600  0.37960600  0.46759200  1
  O  O4  1  0.41575100  0.86769800  0.28295100  1
  O  O5  1  0.83693400  0.38050100  0.13402100  1
  O  O6  1  0.86601000  0.86601000  0.13399000  1
  O  O7  1  0.37960600  0.83800900  0.46759200  1
  O  O8  1  0.86769800  0.41575100  0.28295100  1
  O  O9  1  0.38319400  0.38319400  0.61680600  1
  O  O10  1  0.38596500  0.38596500  0.79685100  1
  O  O11  1  0.41153400  0.86462200  0.61974100  1
  O  O12  1  0.86769800  0.86769800  0.28295100  1
  O  O13  1  0.83800900  0.37960600  0.46759200  1
  O  O14  1  0.86388400  0.86388400  0.46944900  1
  O  O15  1  0.38596500  0.83751800  0.79685100  1
  O  O16  1  0.86462200  0.41153400  0.61974100  1
  O  O17  1  0.38293700  0.38293700  0.95039600  1
  O  O18  1  0.83751800  0.38596500  0.79685100  1
  O  O19  1  0.86462200  0.86462200  0.61974100  1
  O  O20  1  0.41562400  0.87020200  0.94799000  1
  O  O21  1  0.86828000  0.86828000  0.79838700  1
  O  O22  1  0.87020200  0.41562400  0.94799000  1
  O  O23  1  0.87020200  0.87020200  0.94799000  1
loop_
_geom_bond_atom_site_label_1
_geom_bond_atom_site_label_2
_geom_bond_distance
_geom_bond_site_symmetry_2
Mn0 O6 2.014834 1_446
Mn0 O20 2.044665 1_545
Mn0 O22 2.044665 1_455
Mn0 O23 2.044675 1_445
Mn1 O1 2.001234 1_555
Mn1 O0 2.001239 1_555
Mn1 O12 2.007231 1_455
Mn1 O8 2.007231 1_455
Mn1 O6 2.075457 1_455
Mn1 O2 2.082393 1_555
Mn2 O5 2.001235 1_555
Mn2 O0 2.001239 1_555
Mn2 O12 2.007231 1_545
Mn2 O4 2.007231 1_545
Mn2 O6 2.075457 1_545
Mn2 O2 2.082393 1_555
Mn3 O12 2.042185 1_445
Mn3 O4 2.042190 1_545
Mn3 O8 2.042190 1_455
Mn3 O14 2.053716 1_445
Mn4 O1 2.001239 1_555
Mn4 O5 2.001239 1_555
Mn4 O8 2.007231 1_555
Mn4 O4 2.007231 1_555
Mn4 O6 2.075457 1_555
Mn4 O2 2.082389 1_555
Mn5 O7 2.003396 1_555
Mn5 O3 2.003421 1_555
Mn5 O19 2.035466 1_455
Mn5 O16 2.035474 1_455
Mn5 O9 2.057091 1_555
Mn5 O14 2.064199 1_455
Mn6 O13 2.003396 1_555
Mn6 O3 2.003421 1_555
Mn6 O19 2.035466 1_545
Mn6 O11 2.035474 1_545
Mn6 O9 2.057091 1_555
Mn6 O14 2.064199 1_545
Mn7 O7 2.003423 1_555
Mn7 O13 2.003423 1_555
Mn7 O16 2.035465 1_555
Mn7 O11 2.035465 1_555
Mn7 O9 2.057105 1_555
Mn7 O14 2.064181 1_555
Mn8 O23 2.000777 1_455
Mn8 O22 2.000786 1_455
Mn8 O10 2.022989 1_555
Mn8 O15 2.022993 1_555
Mn8 O21 2.072103 1_455
Mn8 O17 2.085766 1_555
Mn9 O23 2.000777 1_545
Mn9 O20 2.000786 1_545
Mn9 O10 2.022989 1_555
Mn9 O18 2.022993 1_555
Mn9 O21 2.072103 1_545
Mn9 O17 2.085766 1_555
Mn10 O16 2.046538 1_555
Mn10 O11 2.046538 1_555
Mn10 O19 2.046547 1_555
Mn10 O10 2.060946 1_555
Mn10 O15 2.060954 1_555
Mn10 O18 2.060954 1_555
Mn11 O22 2.000776 1_555
Mn11 O20 2.000776 1_555
Mn11 O15 2.022988 1_555
Mn11 O18 2.022988 1_555
Mn11 O21 2.072108 1_555
Mn11 O17 2.085771 1_555
Cu0 O17 1.982827 1_554
Cu0 O5 2.037497 1_455
Cu0 O0 2.037497 1_555
Cu0 O1 2.037497 1_545
Cu1 O2 1.976011 1_555
Cu1 O3 2.023008 1_555
Cu1 O13 2.023027 1_455
Cu1 O7 2.023027 1_545
Cu2 O1 2.098640 1_555
Cu2 O5 2.098640 1_555
Cu2 O0 2.098649 1_555
Cu2 O23 2.110983 1_554
Cu2 O22 2.110995 1_554
Cu2 O20 2.110995 1_554
Cu3 O9 1.972685 1_555
Cu3 O18 2.038578 1_455
Cu3 O15 2.038579 1_545
Cu3 O10 2.038583 1_555
Cu4 O7 2.095765 1_555
Cu4 O13 2.095765 1_555
Cu4 O3 2.095777 1_555
Cu4 O8 2.098817 1_555
Cu4 O4 2.098817 1_555
Cu4 O12 2.098817 1_555
Cu5 O21 1.951189 1_445
Cu5 O11 2.033803 1_545
Cu5 O19 2.033803 1_445
Cu5 O16 2.033803 1_455
