# generated using pymatgen
data_Ti(PCl6)4
_symmetry_space_group_name_H-M   'P 1'
_cell_length_a   14.49658000
_cell_length_b   15.08382000
_cell_length_c   15.15569400
_cell_angle_alpha   90.00000000
_cell_angle_beta   90.00000000
_cell_angle_gamma   90.00000000
_symmetry_Int_Tables_number   1
_chemical_formula_structural   Ti(PCl6)4
_chemical_formula_sum   'Ti4 P16 Cl96'
_cell_volume   3314.00169223
_cell_formula_units_Z   4
loop_
 _symmetry_equiv_pos_site_id
 _symmetry_equiv_pos_as_xyz
  1  'x, y, z'
loop_
 _atom_site_type_symbol
 _atom_site_label
 _atom_site_symmetry_multiplicity
 _atom_site_fract_x
 _atom_site_fract_y
 _atom_site_fract_z
 _atom_site_occupancy
  Ti  Ti0  1  0.00000000  0.87592100  0.24161800  1
  Ti  Ti1  1  0.00000000  0.12407900  0.74161800  1
  Ti  Ti2  1  0.50000000  0.49131200  0.37421800  1
  Ti  Ti3  1  0.50000000  0.50868800  0.87421800  1
  P  P0  1  0.00000000  0.37458900  0.25864100  1
  P  P1  1  0.00000000  0.62541100  0.75864100  1
  P  P2  1  0.25013500  0.25028900  0.99960400  1
  P  P3  1  0.25111200  0.37844500  0.62851500  1
  P  P4  1  0.25013500  0.74971100  0.49960400  1
  P  P5  1  0.24880600  0.12268400  0.37255700  1
  P  P6  1  0.25111200  0.62155500  0.12851500  1
  P  P7  1  0.24880600  0.87731600  0.87255700  1
  P  P8  1  0.50000000  0.99144900  0.12495200  1
  P  P9  1  0.50000000  0.00855100  0.62495200  1
  P  P10  1  0.74986500  0.25028900  0.99960400  1
  P  P11  1  0.74888800  0.37844500  0.62851500  1
  P  P12  1  0.74888800  0.62155500  0.12851500  1
  P  P13  1  0.75119400  0.87731600  0.87255700  1
  P  P14  1  0.75119400  0.12268400  0.37255700  1
  P  P15  1  0.74986500  0.74971100  0.49960400  1
  Cl  Cl0  1  0.00000000  0.26042000  0.17019900  1
  Cl  Cl1  1  0.00000000  0.46299600  0.14399300  1
  Cl  Cl2  1  0.00000000  0.28671200  0.37257200  1
  Cl  Cl3  1  0.00000000  0.48934900  0.34696800  1
  Cl  Cl4  1  0.00000000  0.53700400  0.64399300  1
  Cl  Cl5  1  0.00000000  0.51065100  0.84696800  1
  Cl  Cl6  1  0.00000000  0.73958000  0.67019900  1
  Cl  Cl7  1  0.00000000  0.71328800  0.87257200  1
  Cl  Cl8  1  0.00000000  0.21840300  0.61592100  1
  Cl  Cl9  1  0.00000000  0.03078400  0.86720700  1
  Cl  Cl10  1  0.00000000  0.25030300  0.83743200  1
  Cl  Cl11  1  0.14894600  0.37551800  0.25919400  1
  Cl  Cl12  1  0.14894600  0.62448200  0.75919400  1
  Cl  Cl13  1  0.16208600  0.87576900  0.24094000  1
  Cl  Cl14  1  0.16208600  0.12423100  0.74094000  1
  Cl  Cl15  1  0.17033700  0.37569300  0.73136700  1
  Cl  Cl16  1  0.16955100  0.12015200  0.26857800  1
  Cl  Cl17  1  0.17033700  0.62430700  0.23136700  1
  Cl  Cl18  1  0.16955100  0.87984800  0.76857800  1
  Cl  Cl19  1  0.17149900  0.87613300  0.97896000  1
  Cl  Cl20  1  0.17332100  0.37910800  0.52185900  1
  Cl  Cl21  1  0.17332100  0.62089200  0.02185900  1
  Cl  Cl22  1  0.17149900  0.12386700  0.47896000  1
  Cl  Cl23  1  0.17191000  0.35557500  0.99367300  1
  Cl  Cl24  1  0.17191000  0.64442500  0.49367300  1
  Cl  Cl25  1  0.17062400  0.85463500  0.50533000  1
  Cl  Cl26  1  0.17062400  0.14536500  0.00533000  1
  Cl  Cl27  1  0.32950000  0.75402500  0.39540900  1
  Cl  Cl28  1  0.32834600  0.74253100  0.60477500  1
  Cl  Cl29  1  0.32834600  0.25746900  0.10477500  1
  Cl  Cl30  1  0.32950000  0.24597500  0.89540900  1
  Cl  Cl31  1  0.32777300  0.22912000  0.37244000  1
  Cl  Cl32  1  0.32752200  0.72883000  0.12745200  1
  Cl  Cl33  1  0.32777300  0.77088000  0.87244000  1
  Cl  Cl34  1  0.32752200  0.27117000  0.62745200  1
  Cl  Cl35  1  0.33162300  0.51812200  0.12828700  1
  Cl  Cl36  1  0.33162300  0.48187800  0.62828700  1
  Cl  Cl37  1  0.32832100  0.01820500  0.37289100  1
  Cl  Cl38  1  0.32832100  0.98179500  0.87289100  1
  Cl  Cl39  1  0.33779900  0.50918800  0.87410400  1
  Cl  Cl40  1  0.35114000  0.99087200  0.12557700  1
  Cl  Cl41  1  0.33779900  0.49081200  0.37410400  1
  Cl  Cl42  1  0.35114000  0.00912800  0.62557700  1
  Cl  Cl43  1  0.50000000  0.36505600  0.46881800  1
  Cl  Cl44  1  0.50000000  0.58729000  0.49851000  1
  Cl  Cl45  1  0.50000000  0.63494400  0.96881800  1
  Cl  Cl46  1  0.50000000  0.39192100  0.25068400  1
  Cl  Cl47  1  0.50000000  0.61850200  0.28101600  1
  Cl  Cl48  1  0.50000000  0.38149800  0.78101600  1
  Cl  Cl49  1  0.50000000  0.41271000  0.99851000  1
  Cl  Cl50  1  0.50000000  0.60807900  0.75068400  1
  Cl  Cl51  1  0.50000000  0.87734100  0.03742000  1
  Cl  Cl52  1  0.50000000  0.90235500  0.23922300  1
  Cl  Cl53  1  0.50000000  0.08080600  0.01071000  1
  Cl  Cl54  1  0.50000000  0.10639700  0.21236400  1
  Cl  Cl55  1  0.50000000  0.89360300  0.71236400  1
  Cl  Cl56  1  0.50000000  0.09764500  0.73922300  1
  Cl  Cl57  1  0.50000000  0.91919400  0.51071000  1
  Cl  Cl58  1  0.50000000  0.12265900  0.53742000  1
  Cl  Cl59  1  0.66220100  0.49081200  0.37410400  1
  Cl  Cl60  1  0.64886000  0.00912800  0.62557700  1
  Cl  Cl61  1  0.66220100  0.50918800  0.87410400  1
  Cl  Cl62  1  0.64886000  0.99087200  0.12557700  1
  Cl  Cl63  1  0.66837700  0.48187800  0.62828700  1
  Cl  Cl64  1  0.66837700  0.51812200  0.12828700  1
  Cl  Cl65  1  0.67167900  0.98179500  0.87289100  1
  Cl  Cl66  1  0.67167900  0.01820500  0.37289100  1
  Cl  Cl67  1  0.67247800  0.72883000  0.12745200  1
  Cl  Cl68  1  0.67222700  0.77088000  0.87244000  1
  Cl  Cl69  1  0.67222700  0.22912000  0.37244000  1
  Cl  Cl70  1  0.67247800  0.27117000  0.62745200  1
  Cl  Cl71  1  0.67165400  0.25746900  0.10477500  1
  Cl  Cl72  1  0.67050000  0.24597500  0.89540900  1
  Cl  Cl73  1  0.67050000  0.75402500  0.39540900  1
  Cl  Cl74  1  0.67165400  0.74253100  0.60477500  1
  Cl  Cl75  1  0.82809000  0.35557500  0.99367300  1
  Cl  Cl76  1  0.82809000  0.64442500  0.49367300  1
  Cl  Cl77  1  0.82937600  0.85463500  0.50533000  1
  Cl  Cl78  1  0.82937600  0.14536500  0.00533000  1
  Cl  Cl79  1  0.82667900  0.37910800  0.52185900  1
  Cl  Cl80  1  0.82850100  0.87613300  0.97896000  1
  Cl  Cl81  1  0.82850100  0.12386700  0.47896000  1
  Cl  Cl82  1  0.82667900  0.62089200  0.02185900  1
  Cl  Cl83  1  0.82966300  0.62430700  0.23136700  1
  Cl  Cl84  1  0.83044900  0.87984800  0.76857800  1
  Cl  Cl85  1  0.82966300  0.37569300  0.73136700  1
  Cl  Cl86  1  0.83044900  0.12015200  0.26857800  1
  Cl  Cl87  1  0.85105400  0.37551800  0.25919400  1
  Cl  Cl88  1  0.85105400  0.62448200  0.75919400  1
  Cl  Cl89  1  0.83791400  0.87576900  0.24094000  1
  Cl  Cl90  1  0.83791400  0.12423100  0.74094000  1
  Cl  Cl91  1  0.00000000  0.74969700  0.33743200  1
  Cl  Cl92  1  0.00000000  0.78159700  0.11592100  1
  Cl  Cl93  1  0.00000000  0.96921600  0.36720700  1
  Cl  Cl94  1  0.00000000  0.00221000  0.14450900  1
  Cl  Cl95  1  0.00000000  0.99779000  0.64450900  1
loop_
_geom_bond_atom_site_label_1
_geom_bond_atom_site_label_2
_geom_bond_distance
_geom_bond_site_symmetry_2
Cl0 P0 2.182273 1_555
Cl1 P0 2.190300 1_555
Cl2 P0 2.176812 1_555
Cl3 P0 2.188248 1_555
Cl4 P1 2.190300 1_555
Cl5 P1 2.188248 1_555
Cl6 P1 2.182273 1_555
Cl7 P1 2.176812 1_555
Cl8 Ti1 2.377685 1_555
Cl9 Ti1 2.367113 1_555
Cl10 Ti1 2.394507 1_555
Cl11 P0 2.159269 1_555
Cl12 P1 2.159269 1_555
Cl13 Ti0 2.349716 1_555
Cl14 Ti1 2.349716 1_555
Cl15 P3 1.950054 1_555
Cl16 P5 1.950607 1_555
Cl17 P6 1.950054 1_555
Cl18 P7 1.950607 1_555
Cl19 P7 1.963867 1_555
Cl20 P3 1.970967 1_555
Cl21 P6 1.970967 1_555
Cl22 P5 1.963867 1_555
Cl23 P2 1.953493 1_555
Cl24 P4 1.953493 1_555
Cl25 P4 1.959822 1_555
Cl26 P2 1.959822 1_554
Cl27 P4 1.954902 1_555
Cl28 P4 1.959045 1_555
Cl29 P2 1.959045 1_554
Cl30 P2 1.954902 1_555
Cl31 P5 1.971792 1_555
Cl32 P6 1.961001 1_555
Cl33 P7 1.971792 1_555
Cl34 P3 1.961001 1_555
Cl35 P6 1.948417 1_555
Cl36 P3 1.948417 1_555
Cl37 P5 1.952518 1_555
Cl38 P7 1.952518 1_555
Cl39 Ti3 2.351373 1_555
Cl40 P8 2.157999 1_555
Cl41 Ti2 2.351373 1_555
Cl42 P9 2.157999 1_555
Cl43 Ti2 2.383779 1_555
Cl44 Ti2 2.375778 1_555
Cl45 Ti3 2.383779 1_555
Cl46 Ti2 2.398517 1_555
Cl47 Ti2 2.382427 1_555
Cl48 Ti3 2.382427 1_555
Cl49 Ti3 2.375778 1_555
Cl50 Ti3 2.398517 1_555
Cl51 P8 2.173100 1_555
Cl52 P8 2.192107 1_555
Cl53 P8 2.194195 1_545
Cl54 P8 2.182045 1_545
Cl55 P9 2.182045 1_565
Cl56 P9 2.192107 1_555
Cl57 P9 2.194195 1_565
Cl58 P9 2.173100 1_555
Cl59 Ti2 2.351373 1_555
Cl60 P9 2.157999 1_555
Cl61 Ti3 2.351373 1_555
Cl62 P8 2.157999 1_555
Cl63 P11 1.948417 1_555
Cl64 P12 1.948417 1_555
Cl65 P13 1.952518 1_555
Cl66 P14 1.952518 1_555
Cl67 P12 1.961001 1_555
Cl68 P13 1.971792 1_555
Cl69 P14 1.971792 1_555
Cl70 P11 1.961001 1_555
Cl71 P10 1.959045 1_554
Cl72 P10 1.954902 1_555
Cl73 P15 1.954902 1_555
Cl74 P15 1.959045 1_555
Cl75 P10 1.953493 1_555
Cl76 P15 1.953493 1_555
Cl77 P15 1.959822 1_555
Cl78 P10 1.959822 1_554
Cl79 P11 1.970967 1_555
Cl80 P13 1.963867 1_555
Cl81 P14 1.963867 1_555
Cl82 P12 1.970967 1_555
Cl83 P12 1.950054 1_555
Cl84 P13 1.950607 1_555
Cl85 P11 1.950054 1_555
Cl86 P14 1.950607 1_555
Cl87 P0 2.159269 1_655
Cl88 P1 2.159269 1_655
Cl89 Ti0 2.349716 1_655
Cl90 Ti1 2.349716 1_655
Cl91 Ti0 2.394507 1_555
Cl92 Ti0 2.377685 1_555
Cl93 Ti0 2.367113 1_555
Cl94 Ti0 2.407236 1_545
Cl95 Ti1 2.407236 1_565
