# generated using pymatgen
data_Na2Al2S3(Cl4O3)2
_symmetry_space_group_name_H-M   'P 1'
_cell_length_a   10.16800900
_cell_length_b   6.44801700
_cell_length_c   31.94693253
_cell_angle_alpha   86.38052824
_cell_angle_beta   90.00000000
_cell_angle_gamma   90.00000000
_symmetry_Int_Tables_number   1
_chemical_formula_structural   Na2Al2S3(Cl4O3)2
_chemical_formula_sum   'Na8 Al8 S12 Cl32 O24'
_cell_volume   2090.37461029
_cell_formula_units_Z   4
loop_
 _symmetry_equiv_pos_site_id
 _symmetry_equiv_pos_as_xyz
  1  'x, y, z'
loop_
 _atom_site_type_symbol
 _atom_site_label
 _atom_site_symmetry_multiplicity
 _atom_site_fract_x
 _atom_site_fract_y
 _atom_site_fract_z
 _atom_site_occupancy
  Na  Na0  1  0.84002500  0.79526100  0.05897500  1
  Na  Na1  1  0.65997500  0.29526100  0.55897500  1
  Na  Na2  1  0.48825900  0.88039700  0.79778500  1
  Na  Na3  1  0.51174100  0.11960300  0.20221500  1
  Na  Na4  1  0.98825900  0.61960300  0.70221500  1
  Na  Na5  1  0.01174100  0.38039700  0.29778500  1
  Na  Na6  1  0.34002500  0.70473900  0.44102500  1
  Na  Na7  1  0.15997500  0.20473900  0.94102500  1
  Al  Al0  1  0.71179600  0.10423300  0.69740900  1
  Al  Al1  1  0.78820400  0.60423300  0.19740900  1
  Al  Al2  1  0.27120000  0.14904200  0.53588600  1
  Al  Al3  1  0.21179600  0.39576700  0.80259100  1
  Al  Al4  1  0.72880000  0.85095800  0.46411400  1
  Al  Al5  1  0.28820400  0.89576700  0.30259100  1
  Al  Al6  1  0.77120000  0.35095800  0.96411400  1
  Al  Al7  1  0.22880000  0.64904200  0.03588600  1
  S  S0  1  0.47361200  0.90750500  0.91725100  1
  S  S1  1  0.46253700  0.60185100  0.63379000  1
  S  S2  1  0.67783400  0.37863100  0.81505000  1
  S  S3  1  0.03746300  0.10185100  0.13379000  1
  S  S4  1  0.52638800  0.09249500  0.08274900  1
  S  S5  1  0.97361200  0.59249500  0.58274900  1
  S  S6  1  0.02638800  0.40750500  0.41725100  1
  S  S7  1  0.53746300  0.39814900  0.36621000  1
  S  S8  1  0.82216600  0.87863100  0.31505000  1
  S  S9  1  0.32216600  0.62136900  0.18495000  1
  S  S10  1  0.96253700  0.89814900  0.86621000  1
  S  S11  1  0.17783400  0.12136900  0.68495000  1
  Cl  Cl0  1  0.77014300  0.02779900  0.63529900  1
  Cl  Cl1  1  0.50933300  0.01096400  0.70868600  1
  Cl  Cl2  1  0.27496600  0.56354000  0.29536800  1
  Cl  Cl3  1  0.12175500  0.12253000  0.58410000  1
  Cl  Cl4  1  0.37824500  0.62253000  0.08410000  1
  Cl  Cl5  1  0.18112900  0.97281800  0.02238000  1
  Cl  Cl6  1  0.69415800  0.48924200  0.01897500  1
  Cl  Cl7  1  0.16787200  0.05673300  0.25546000  1
  Cl  Cl8  1  0.05139400  0.49334600  0.05878700  1
  Cl  Cl9  1  0.30584200  0.51075800  0.98102500  1
  Cl  Cl10  1  0.87824500  0.87747000  0.41590000  1
  Cl  Cl11  1  0.33212800  0.55673300  0.75546000  1
  Cl  Cl12  1  0.68112900  0.52718200  0.47762000  1
  Cl  Cl13  1  0.81887100  0.02718200  0.97762000  1
  Cl  Cl14  1  0.22985700  0.97220100  0.36470100  1
  Cl  Cl15  1  0.55139400  0.00665400  0.44121300  1
  Cl  Cl16  1  0.62175500  0.37747000  0.91590000  1
  Cl  Cl17  1  0.83212800  0.94326700  0.74454000  1
  Cl  Cl18  1  0.49066700  0.98903600  0.29131400  1
  Cl  Cl19  1  0.77496600  0.93646000  0.20463200  1
  Cl  Cl20  1  0.31887100  0.47281800  0.52238000  1
  Cl  Cl21  1  0.27014300  0.47220100  0.86470100  1
  Cl  Cl22  1  0.44860600  0.99334600  0.55878700  1
  Cl  Cl23  1  0.72985700  0.52779900  0.13529900  1
  Cl  Cl24  1  0.19415800  0.01075800  0.48102500  1
  Cl  Cl25  1  0.22503400  0.06354000  0.79536800  1
  Cl  Cl26  1  0.80584200  0.98924200  0.51897500  1
  Cl  Cl27  1  0.72503400  0.43646000  0.70463200  1
  Cl  Cl28  1  0.00933300  0.48903600  0.79131400  1
  Cl  Cl29  1  0.94860600  0.50665400  0.94121300  1
  Cl  Cl30  1  0.99066700  0.51096400  0.20868600  1
  Cl  Cl31  1  0.66787200  0.44326700  0.24454000  1
  O  O0  1  0.16918500  0.02113200  0.14080300  1
  O  O1  1  0.99127800  0.61683600  0.62723900  1
  O  O2  1  0.08066600  0.28034200  0.69205100  1
  O  O3  1  0.36639500  0.40710600  0.18901900  1
  O  O4  1  0.63360500  0.59289400  0.81098100  1
  O  O5  1  0.91933400  0.71965800  0.30794900  1
  O  O6  1  0.85631200  0.48514900  0.57032000  1
  O  O7  1  0.00872200  0.38316400  0.37276100  1
  O  O8  1  0.45091700  0.51196100  0.39278100  1
  O  O9  1  0.58066600  0.21965800  0.80794900  1
  O  O10  1  0.14368800  0.51485100  0.42968000  1
  O  O11  1  0.13360500  0.90710600  0.68901900  1
  O  O12  1  0.50872200  0.11683600  0.12723900  1
  O  O13  1  0.95091700  0.98803900  0.10721900  1
  O  O14  1  0.41933400  0.78034200  0.19205100  1
  O  O15  1  0.86639500  0.09289400  0.31098100  1
  O  O16  1  0.33081500  0.52113200  0.64080300  1
  O  O17  1  0.83081500  0.97886800  0.85919700  1
  O  O18  1  0.04908300  0.01196100  0.89278100  1
  O  O19  1  0.35631200  0.01485100  0.92968000  1
  O  O20  1  0.54908300  0.48803900  0.60721900  1
  O  O21  1  0.66918500  0.47886800  0.35919700  1
  O  O22  1  0.49127800  0.88316400  0.87276100  1
  O  O23  1  0.64368800  0.98514900  0.07032000  1
loop_
_geom_bond_atom_site_label_1
_geom_bond_atom_site_label_2
_geom_bond_distance
_geom_bond_site_symmetry_2
Na0 O13 2.331061 1_555
Na0 O23 2.381594 1_555
Na1 O20 2.331061 1_555
Na1 O6 2.381594 1_555
Na2 O4 2.387434 1_555
Na2 O22 2.396642 1_555
Na2 O9 2.421442 1_565
Na3 O3 2.387434 1_555
Na3 O12 2.396642 1_555
Na3 O14 2.421442 1_545
Na4 O11 2.387434 1_655
Na4 O1 2.396642 1_555
Na4 O2 2.421442 1_655
Na5 O15 2.387434 1_455
Na5 O7 2.396642 1_555
Na5 O5 2.421442 1_455
Na6 O8 2.331061 1_555
Na6 O10 2.381594 1_555
Na7 O18 2.331061 1_555
Na7 O19 2.381594 1_555
Al0 Cl17 2.155016 1_545
Al0 Cl0 2.157658 1_555
Al0 Cl1 2.168442 1_555
Al0 Cl27 2.173205 1_555
Al1 Cl31 2.155016 1_555
Al1 Cl23 2.157658 1_555
Al1 Cl30 2.168442 1_555
Al1 Cl19 2.173205 1_555
Al2 Cl20 2.160078 1_555
Al2 Cl3 2.162759 1_555
Al2 Cl24 2.162816 1_555
Al2 Cl22 2.168948 1_545
Al3 Cl11 2.155016 1_555
Al3 Cl21 2.157658 1_555
Al3 Cl28 2.168442 1_555
Al3 Cl25 2.173205 1_555
Al4 Cl12 2.160078 1_555
Al4 Cl10 2.162759 1_555
Al4 Cl26 2.162816 1_555
Al4 Cl15 2.168948 1_565
Al5 Cl7 2.155016 1_565
Al5 Cl14 2.157658 1_555
Al5 Cl18 2.168442 1_555
Al5 Cl2 2.173205 1_555
Al6 Cl13 2.160078 1_555
Al6 Cl16 2.162759 1_555
Al6 Cl6 2.162816 1_556
Al6 Cl29 2.168948 1_555
Al7 Cl5 2.160078 1_555
Al7 Cl4 2.162759 1_555
Al7 Cl9 2.162816 1_554
Al7 Cl8 2.168948 1_555
Cl0 Na1 3.105402 1_555
Cl1 Na2 2.924783 1_545
Cl2 Na5 2.924467 1_555
Cl5 Na7 2.923503 1_564
Cl6 Na0 2.836324 1_555
Cl7 Na5 3.010056 1_555
Cl8 Na0 2.900074 1_455
Cl9 Na7 2.836324 1_555
Cl11 Na2 3.010056 1_555
Cl12 Na1 2.923503 1_555
Cl13 Na0 2.923503 1_546
Cl14 Na6 3.105402 1_555
Cl15 Na6 2.900074 1_545
Cl17 Na4 3.010056 1_555
Cl18 Na3 2.924783 1_565
Cl19 Na3 2.924467 1_565
Cl20 Na6 2.923503 1_555
Cl21 Na7 3.105402 1_555
Cl22 Na1 2.900074 1_565
Cl23 Na0 3.105402 1_555
Cl24 Na6 2.836324 1_545
Cl25 Na2 2.924467 1_545
Cl26 Na1 2.836324 1_565
Cl27 Na4 2.924467 1_555
Cl28 Na4 2.924783 1_455
Cl29 Na7 2.900074 1_655
Cl30 Na5 2.924783 1_655
Cl31 Na3 3.010056 1_555
O0 S3 1.449217 1_555
O1 S5 1.450935 1_555
O2 S11 1.451801 1_555
O3 S9 1.450935 1_555
O4 S2 1.450935 1_555
O5 S8 1.451801 1_555
O6 S5 1.447070 1_555
O7 S6 1.450935 1_555
O8 S7 1.453332 1_555
O9 S2 1.451801 1_555
O10 S6 1.447070 1_555
O11 S11 1.450935 1_565
O12 S4 1.450935 1_555
O13 S3 1.453332 1_665
O14 S9 1.451801 1_555
O15 S8 1.450935 1_545
O16 S1 1.449217 1_555
O17 S10 1.449217 1_555
O18 S10 1.453332 1_445
O19 S0 1.447070 1_545
O20 S1 1.453332 1_555
O21 S7 1.449217 1_555
O22 S0 1.450935 1_555
O23 S4 1.447070 1_565
