# generated using pymatgen
data_H2SO4
_symmetry_space_group_name_H-M   'P 1'
_cell_length_a   5.10455709
_cell_length_b   5.10455709
_cell_length_c   8.21903335
_cell_angle_alpha   70.05960357
_cell_angle_beta   70.05960357
_cell_angle_gamma   55.75114722
_symmetry_Int_Tables_number   1
_chemical_formula_structural   H2SO4
_chemical_formula_sum   'H4 S2 O8'
_cell_volume   163.31875275
_cell_formula_units_Z   2
loop_
 _symmetry_equiv_pos_site_id
 _symmetry_equiv_pos_as_xyz
  1  'x, y, z'
loop_
 _atom_site_type_symbol
 _atom_site_label
 _atom_site_symmetry_multiplicity
 _atom_site_fract_x
 _atom_site_fract_y
 _atom_site_fract_z
 _atom_site_occupancy
  H  H0  1  0.48369100  0.60789600  0.39517800  1
  H  H1  1  0.60789600  0.48369100  0.89517800  1
  H  H2  1  0.16365800  0.28096200  0.08289500  1
  H  H3  1  0.28096200  0.16365800  0.58289500  1
  S  S0  1  0.08541100  0.89813100  0.25291000  1
  S  S1  1  0.89813100  0.08541100  0.75291000  1
  O  O0  1  0.30340000  0.72914100  0.11158700  1
  O  O1  1  0.24565400  0.73474300  0.42181200  1
  O  O2  1  0.73474300  0.24565400  0.92181200  1
  O  O3  1  0.72914100  0.30340000  0.61158700  1
  O  O4  1  0.04273200  0.24864300  0.20265900  1
  O  O5  1  0.76700500  0.94309000  0.31956800  1
  O  O6  1  0.94309000  0.76700500  0.81956800  1
  O  O7  1  0.24864300  0.04273200  0.70265900  1
loop_
_geom_bond_atom_site_label_1
_geom_bond_atom_site_label_2
_geom_bond_distance
_geom_bond_site_symmetry_2
H0 O1 0.986547 1_555
H1 O2 0.986547 1_555
H2 O4 0.983155 1_555
H3 O7 0.983155 1_555
O0 S0 1.432795 1_555
O1 S0 1.583895 1_555
O2 S1 1.583895 1_555
O3 S1 1.432795 1_555
O4 S0 1.593079 1_545
O5 S0 1.432844 1_655
O6 S1 1.432844 1_565
O7 S1 1.593079 1_455
