# generated using pymatgen
data_Hg
_symmetry_space_group_name_H-M   'P 1'
_cell_length_a   6.76697475
_cell_length_b   6.78869548
_cell_length_c   17.68981346
_cell_angle_alpha   78.51488184
_cell_angle_beta   79.04178070
_cell_angle_gamma   60.13723528
_symmetry_Int_Tables_number   1
_chemical_formula_structural   Hg
_chemical_formula_sum   Hg8
_cell_volume   686.66992355
_cell_formula_units_Z   8
loop_
 _symmetry_equiv_pos_site_id
 _symmetry_equiv_pos_as_xyz
  1  'x, y, z'
loop_
 _atom_site_type_symbol
 _atom_site_label
 _atom_site_symmetry_multiplicity
 _atom_site_fract_x
 _atom_site_fract_y
 _atom_site_fract_z
 _atom_site_occupancy
  Hg  Hg0_0  1  0.00006100  0.49225950  0.00016350  1
  Hg  Hg0_1  1  0.00006100  0.49225950  0.50016350  1
  Hg  Hg0_2  1  0.00006100  0.99225950  0.00016350  1
  Hg  Hg0_3  1  0.00006100  0.99225950  0.50016350  1
  Hg  Hg0_4  1  0.50006100  0.49225950  0.00016350  1
  Hg  Hg0_5  1  0.50006100  0.49225950  0.50016350  1
  Hg  Hg0_6  1  0.50006100  0.99225950  0.00016350  1
  Hg  Hg0_7  1  0.50006100  0.99225950  0.50016350  1
loop_
_geom_bond_atom_site_label_1
_geom_bond_atom_site_label_2
_geom_bond_distance
_geom_bond_site_symmetry_2
Hg0_0 Hg0_4 3.383487 1_455
Hg0_0 Hg0_4 3.383487 1_555
Hg0_0 Hg0_2 3.394348 1_545
Hg0_0 Hg0_2 3.394348 1_555
Hg0_0 Hg0_6 3.395958 1_545
Hg0_0 Hg0_6 3.395958 1_455
Hg0_1 Hg0_5 3.383487 1_455
Hg0_1 Hg0_5 3.383487 1_555
Hg0_1 Hg0_3 3.394348 1_545
Hg0_1 Hg0_3 3.394348 1_555
Hg0_1 Hg0_7 3.395958 1_455
Hg0_1 Hg0_7 3.395958 1_545
Hg0_2 Hg0_6 3.383487 1_455
Hg0_2 Hg0_6 3.383487 1_555
Hg0_2 Hg0_4 3.395958 1_555
Hg0_2 Hg0_4 3.395958 1_465
Hg0_3 Hg0_7 3.383487 1_455
Hg0_3 Hg0_7 3.383487 1_555
Hg0_3 Hg0_5 3.395958 1_555
Hg0_3 Hg0_5 3.395958 1_465
Hg0_4 Hg0_6 3.394348 1_545
Hg0_4 Hg0_6 3.394348 1_555
Hg0_5 Hg0_7 3.394348 1_545
Hg0_5 Hg0_7 3.394348 1_555
