# generated using pymatgen
data_Cs4Mg3H10
_symmetry_space_group_name_H-M   'P 1'
_cell_length_a   7.99865353
_cell_length_b   7.99865353
_cell_length_c   13.69286008
_cell_angle_alpha   90.00000000
_cell_angle_beta   90.00000000
_cell_angle_gamma   134.09733397
_symmetry_Int_Tables_number   1
_chemical_formula_structural   Cs4Mg3H10
_chemical_formula_sum   'Cs8 Mg6 H20'
_cell_volume   629.14153042
_cell_formula_units_Z   2
loop_
 _symmetry_equiv_pos_site_id
 _symmetry_equiv_pos_as_xyz
  1  'x, y, z'
loop_
 _atom_site_type_symbol
 _atom_site_label
 _atom_site_symmetry_multiplicity
 _atom_site_fract_x
 _atom_site_fract_y
 _atom_site_fract_z
 _atom_site_occupancy
  Cs  Cs0  1  0.75429633  0.24570367  0.89410171  1
  Cs  Cs1  1  0.24570367  0.75429633  0.10589829  1
  Cs  Cs2  1  0.74570367  0.25429633  0.39410171  1
  Cs  Cs3  1  0.25429633  0.74570367  0.60589829  1
  Cs  Cs4  1  0.95369843  0.04630157  0.63931338  1
  Cs  Cs5  1  0.04630157  0.95369843  0.36068662  1
  Cs  Cs6  1  0.54630157  0.45369843  0.13931338  1
  Cs  Cs7  1  0.45369843  0.54630157  0.86068662  1
  Mg  Mg0  1  0.61763511  0.38236489  0.65593886  1
  Mg  Mg1  1  0.38236489  0.61763511  0.34406114  1
  Mg  Mg2  1  0.88236489  0.11763511  0.15593886  1
  Mg  Mg3  1  0.11763511  0.88236489  0.84406114  1
  Mg  Mg4  1  0.50000000  0.50000000  0.50000000  1
  Mg  Mg5  1  0.00000000  -0.00000000  -0.00000000  1
  H  H0  1  0.38912644  0.19974641  0.53952927  1
  H  H1  1  0.19974641  0.38912644  0.46047073  1
  H  H2  1  0.69974641  0.88912644  0.03952927  1
  H  H3  1  0.88912644  0.69974641  0.96047073  1
  H  H4  1  0.61087356  0.80025359  0.46047073  1
  H  H5  1  0.80025359  0.61087356  0.53952927  1
  H  H6  1  0.30025359  0.11087356  0.96047073  1
  H  H7  1  0.11087356  0.30025359  0.03952927  1
  H  H8  1  0.74549230  0.25450770  0.64688644  1
  H  H9  1  0.25450770  0.74549230  0.35311356  1
  H  H10  1  0.75450770  0.24549230  0.14688644  1
  H  H11  1  0.24549230  0.75450770  0.85311356  1
  H  H12  1  0.97687429  0.02312571  0.85834602  1
  H  H13  1  0.02312571  0.97687429  0.14165398  1
  H  H14  1  0.52312571  0.47687429  0.35834602  1
  H  H15  1  0.47687429  0.52312571  0.64165398  1
  H  H16  1  0.35886058  0.14113942  0.75000000  1
  H  H17  1  0.14113942  0.35886058  0.25000000  1
  H  H18  1  0.64113942  0.85886058  0.25000000  1
  H  H19  1  0.85886058  0.64113942  0.75000000  1
loop_
_geom_bond_atom_site_label_1
_geom_bond_atom_site_label_2
_geom_bond_distance
_geom_bond_site_symmetry_2
Cs0 H3 3.118872 1_555
Cs0 H6 3.118872 1_555
Cs0 H11 3.171813 1_655
Cs0 H11 3.171813 1_545
Cs0 H7 3.249374 1_656
Cs0 H2 3.249374 1_546
Cs0 H19 3.303847 1_555
Cs0 H16 3.303847 1_555
Cs0 H12 3.315127 1_555
Cs0 H8 3.387568 1_555
Cs0 H10 3.461347 1_556
Cs1 H2 3.118872 1_555
Cs1 H7 3.118872 1_555
Cs1 H10 3.171813 1_565
Cs1 H10 3.171813 1_455
Cs1 H6 3.249374 1_564
Cs1 H3 3.249374 1_454
Cs1 H18 3.303847 1_555
Cs1 H17 3.303847 1_555
Cs1 H13 3.315127 1_555
Cs1 H9 3.387568 1_555
Cs1 H11 3.461347 1_554
Cs2 H1 3.118872 1_655
Cs2 H4 3.118872 1_545
Cs2 H9 3.171813 1_655
Cs2 H9 3.171813 1_545
Cs2 H5 3.249374 1_555
Cs2 H0 3.249374 1_555
Cs2 H17 3.303847 1_655
Cs2 H18 3.303847 1_545
Cs2 H14 3.315127 1_555
Cs2 H10 3.387568 1_555
Cs2 H8 3.461347 1_555
Cs3 H0 3.118872 1_565
Cs3 H5 3.118872 1_455
Cs3 H8 3.171813 1_455
Cs3 H8 3.171813 1_565
Cs3 H4 3.249374 1_555
Cs3 H1 3.249374 1_555
Cs3 H19 3.303847 1_455
Cs3 H16 3.303847 1_565
Cs3 H15 3.315127 1_555
Cs3 H11 3.387568 1_555
Cs3 H9 3.461347 1_555
Cs4 H12 3.018552 1_555
Cs4 H8 3.068817 1_555
Cs4 H5 3.090971 1_545
Cs4 H0 3.090971 1_655
Cs4 H15 3.137860 1_545
Cs4 H15 3.137860 1_655
Cs4 H1 3.143030 1_655
Cs4 H4 3.143030 1_545
Cs4 H19 3.154927 1_545
Cs4 H16 3.154927 1_655
Cs5 H13 3.018552 1_555
Cs5 H9 3.068817 1_555
Cs5 H4 3.090971 1_455
Cs5 H1 3.090971 1_565
Cs5 H14 3.137860 1_455
Cs5 H14 3.137860 1_565
Cs5 H0 3.143030 1_565
Cs5 H5 3.143030 1_455
Cs5 H18 3.154927 1_455
Cs5 H17 3.154927 1_565
Cs6 H14 3.018552 1_555
Cs6 H10 3.068817 1_555
Cs6 H7 3.090971 1_555
Cs6 H2 3.090971 1_555
Cs6 H13 3.137860 1_655
Cs6 H13 3.137860 1_545
Cs6 H6 3.143030 1_554
Cs6 H3 3.143030 1_554
Cs6 H18 3.154927 1_555
Cs6 H17 3.154927 1_555
Cs7 H15 3.018552 1_555
Cs7 H11 3.068817 1_555
Cs7 H6 3.090971 1_555
Cs7 H3 3.090971 1_555
Cs7 H12 3.137860 1_565
Cs7 H12 3.137860 1_455
Cs7 H7 3.143030 1_556
Cs7 H2 3.143030 1_556
Cs7 H16 3.154927 1_555
Cs7 H19 3.154927 1_555
H0 Mg4 1.970536 1_555
H0 Mg0 2.073499 1_555
H1 Mg4 1.970536 1_555
H1 Mg1 2.073499 1_555
H2 Mg5 1.970536 1_665
H2 Mg2 2.073499 1_565
H3 Mg5 1.970536 1_666
H3 Mg3 2.073499 1_655
H4 Mg4 1.970536 1_555
H4 Mg1 2.073499 1_555
H5 Mg4 1.970536 1_555
H5 Mg0 2.073499 1_555
H6 Mg5 1.970536 1_556
H6 Mg3 2.073499 1_545
H7 Mg5 1.970536 1_555
H7 Mg2 2.073499 1_455
H8 Mg0 1.887526 1_555
H9 Mg1 1.887526 1_555
H10 Mg2 1.887526 1_555
H11 Mg3 1.887526 1_555
H12 Mg5 1.969336 1_656
H12 Mg3 2.082739 1_645
H13 Mg5 1.969336 1_565
H13 Mg2 2.082739 1_465
H14 Mg4 1.969336 1_555
H14 Mg1 2.082739 1_555
H15 Mg4 1.969336 1_555
H15 Mg0 2.082739 1_555
H16 Mg0 2.026749 1_555
H16 Mg3 2.026749 1_545
H17 Mg2 2.026749 1_455
H17 Mg1 2.026749 1_555
H18 Mg2 2.026749 1_565
H18 Mg1 2.026749 1_555
H19 Mg3 2.026749 1_655
H19 Mg0 2.026749 1_555
