# generated using pymatgen
data_Fe(CuS)2
_symmetry_space_group_name_H-M   'P 1'
_cell_length_a   7.64732731
_cell_length_b   7.64732731
_cell_length_c   7.64732731
_cell_angle_alpha   60.00000000
_cell_angle_beta   60.00000000
_cell_angle_gamma   60.00000000
_symmetry_Int_Tables_number   1
_chemical_formula_structural   Fe(CuS)2
_chemical_formula_sum   'Fe4 Cu8 S8'
_cell_volume   316.23798810
_cell_formula_units_Z   4
loop_
 _symmetry_equiv_pos_site_id
 _symmetry_equiv_pos_as_xyz
  1  'x, y, z'
loop_
 _atom_site_type_symbol
 _atom_site_label
 _atom_site_symmetry_multiplicity
 _atom_site_fract_x
 _atom_site_fract_y
 _atom_site_fract_z
 _atom_site_occupancy
  Fe  Fe0  1  0.87478700  0.87478700  0.87478700  1
  Fe  Fe1  1  0.87478700  0.37564000  0.87478700  1
  Fe  Fe2  1  0.87478700  0.87478700  0.37564000  1
  Fe  Fe3  1  0.37564000  0.87478700  0.87478700  1
  Cu  Cu0  1  0.13030600  0.60908200  0.13030600  1
  Cu  Cu1  1  0.13030600  0.13030600  0.60908200  1
  Cu  Cu2  1  0.14358100  0.61880600  0.61880600  1
  Cu  Cu3  1  0.60908200  0.13030600  0.13030600  1
  Cu  Cu4  1  0.61880600  0.14358100  0.61880600  1
  Cu  Cu5  1  0.61880600  0.61880600  0.14358100  1
  Cu  Cu6  1  0.61880600  0.61880600  0.61880600  1
  Cu  Cu7  1  0.13030600  0.13030600  0.13030600  1
  S  S0  1  0.50271600  0.99728400  0.99728400  1
  S  S1  1  0.50271600  0.99728400  0.50271600  1
  S  S2  1  0.99728400  0.50271600  0.99728400  1
  S  S3  1  0.99728400  0.50271600  0.50271600  1
  S  S4  1  0.99728400  0.99728400  0.50271600  1
  S  S5  1  0.00000000  0.00000000  0.00000000  1
  S  S6  1  0.50271600  0.50271600  0.99728400  1
  S  S7  1  0.50000000  0.50000000  0.50000000  1
loop_
_geom_bond_atom_site_label_1
_geom_bond_atom_site_label_2
_geom_bond_distance
_geom_bond_site_symmetry_2
Fe0 S4 2.323306 1_555
Fe0 S0 2.323306 1_555
Fe0 S2 2.323306 1_555
Fe0 S5 2.345496 1_666
Fe1 S2 2.323299 1_555
Fe1 S3 2.323305 1_555
Fe1 S6 2.323305 1_555
Fe1 S5 2.345502 1_656
Fe2 S4 2.323299 1_555
Fe2 S3 2.323305 1_555
Fe2 S1 2.323305 1_555
Fe2 S5 2.345502 1_665
Fe3 S0 2.323299 1_555
Fe3 S6 2.323305 1_555
Fe3 S1 2.323305 1_555
Fe3 S5 2.345502 1_566
Cu0 S6 2.328311 1_554
Cu0 S3 2.328311 1_455
Cu0 S2 2.328311 1_454
Cu0 S5 2.440898 1_565
Cu1 S3 2.328311 1_455
Cu1 S1 2.328311 1_545
Cu1 S4 2.328311 1_445
Cu1 S5 2.440898 1_556
Cu2 S7 2.225486 1_555
Cu2 S3 2.366977 1_455
Cu2 S2 2.366983 1_455
Cu2 S4 2.366983 1_455
Cu3 S6 2.328311 1_554
Cu3 S1 2.328311 1_545
Cu3 S0 2.328311 1_544
Cu3 S5 2.440898 1_655
Cu4 S7 2.225486 1_555
Cu4 S1 2.366977 1_545
Cu4 S0 2.366983 1_545
Cu4 S4 2.366983 1_545
Cu5 S7 2.225486 1_555
Cu5 S6 2.366977 1_554
Cu5 S2 2.366983 1_554
Cu5 S0 2.366983 1_554
Cu6 S7 2.225480 1_555
Cu6 S3 2.366984 1_555
Cu6 S6 2.366984 1_555
Cu6 S1 2.366984 1_555
Cu7 S4 2.328311 1_445
Cu7 S0 2.328311 1_544
Cu7 S2 2.328311 1_454
Cu7 S5 2.440898 1_555
