# generated using pymatgen
data_Y7Te2
_symmetry_space_group_name_H-M   'P 1'
_cell_length_a   7.93301200
_cell_length_b   24.33446400
_cell_length_c   46.43078800
_cell_angle_alpha   90.00000000
_cell_angle_beta   90.00000000
_cell_angle_gamma   90.00000000
_symmetry_Int_Tables_number   1
_chemical_formula_structural   Y7Te2
_chemical_formula_sum   'Y224 Te64'
_cell_volume   8963.25909232
_cell_formula_units_Z   32
loop_
 _symmetry_equiv_pos_site_id
 _symmetry_equiv_pos_as_xyz
  1  'x, y, z'
loop_
 _atom_site_type_symbol
 _atom_site_label
 _atom_site_symmetry_multiplicity
 _atom_site_fract_x
 _atom_site_fract_y
 _atom_site_fract_z
 _atom_site_occupancy
  Y  Y0_0  1  0.12500000  0.32508350  0.21340550  1
  Y  Y0_1  1  0.12500000  0.32508350  0.71340550  1
  Y  Y0_2  1  0.12500000  0.82508350  0.21340550  1
  Y  Y0_3  1  0.12500000  0.82508350  0.71340550  1
  Y  Y0_4  1  0.62500000  0.32508350  0.21340550  1
  Y  Y0_5  1  0.62500000  0.32508350  0.71340550  1
  Y  Y0_6  1  0.62500000  0.82508350  0.21340550  1
  Y  Y0_7  1  0.62500000  0.82508350  0.71340550  1
  Y  Y1_0  1  0.37500000  0.48998200  0.41485700  1
  Y  Y1_1  1  0.37500000  0.48998200  0.91485700  1
  Y  Y1_2  1  0.37500000  0.98998200  0.41485700  1
  Y  Y1_3  1  0.37500000  0.98998200  0.91485700  1
  Y  Y1_4  1  0.87500000  0.48998200  0.41485700  1
  Y  Y1_5  1  0.87500000  0.48998200  0.91485700  1
  Y  Y1_6  1  0.87500000  0.98998200  0.41485700  1
  Y  Y1_7  1  0.87500000  0.98998200  0.91485700  1
  Y  Y2_0  1  0.37500000  0.43676100  0.02413350  1
  Y  Y2_1  1  0.37500000  0.43676100  0.52413350  1
  Y  Y2_2  1  0.37500000  0.93676100  0.02413350  1
  Y  Y2_3  1  0.37500000  0.93676100  0.52413350  1
  Y  Y2_4  1  0.87500000  0.43676100  0.02413350  1
  Y  Y2_5  1  0.87500000  0.43676100  0.52413350  1
  Y  Y2_6  1  0.87500000  0.93676100  0.02413350  1
  Y  Y2_7  1  0.87500000  0.93676100  0.52413350  1
  Y  Y3_0  1  0.37500000  0.12710650  0.36177200  1
  Y  Y3_1  1  0.37500000  0.12710650  0.86177200  1
  Y  Y3_2  1  0.37500000  0.62710650  0.36177200  1
  Y  Y3_3  1  0.37500000  0.62710650  0.86177200  1
  Y  Y3_4  1  0.87500000  0.12710650  0.36177200  1
  Y  Y3_5  1  0.87500000  0.12710650  0.86177200  1
  Y  Y3_6  1  0.87500000  0.62710650  0.36177200  1
  Y  Y3_7  1  0.87500000  0.62710650  0.86177200  1
  Y  Y4_0  1  0.12500000  0.42491650  0.46340550  1
  Y  Y4_1  1  0.12500000  0.42491650  0.96340550  1
  Y  Y4_2  1  0.12500000  0.92491650  0.46340550  1
  Y  Y4_3  1  0.12500000  0.92491650  0.96340550  1
  Y  Y4_4  1  0.62500000  0.42491650  0.46340550  1
  Y  Y4_5  1  0.62500000  0.42491650  0.96340550  1
  Y  Y4_6  1  0.62500000  0.92491650  0.46340550  1
  Y  Y4_7  1  0.62500000  0.92491650  0.96340550  1
  Y  Y5_0  1  0.37500000  0.26001800  0.16485700  1
  Y  Y5_1  1  0.37500000  0.26001800  0.66485700  1
  Y  Y5_2  1  0.37500000  0.76001800  0.16485700  1
  Y  Y5_3  1  0.37500000  0.76001800  0.66485700  1
  Y  Y5_4  1  0.87500000  0.26001800  0.16485700  1
  Y  Y5_5  1  0.87500000  0.26001800  0.66485700  1
  Y  Y5_6  1  0.87500000  0.76001800  0.16485700  1
  Y  Y5_7  1  0.87500000  0.76001800  0.66485700  1
  Y  Y6_0  1  0.37500000  0.31886000  0.44925950  1
  Y  Y6_1  1  0.37500000  0.31886000  0.94925950  1
  Y  Y6_2  1  0.37500000  0.81886000  0.44925950  1
  Y  Y6_3  1  0.37500000  0.81886000  0.94925950  1
  Y  Y6_4  1  0.87500000  0.31886000  0.44925950  1
  Y  Y6_5  1  0.87500000  0.31886000  0.94925950  1
  Y  Y6_6  1  0.87500000  0.81886000  0.44925950  1
  Y  Y6_7  1  0.87500000  0.81886000  0.94925950  1
  Y  Y7_0  1  0.37500000  0.12289350  0.11177200  1
  Y  Y7_1  1  0.37500000  0.12289350  0.61177200  1
  Y  Y7_2  1  0.37500000  0.62289350  0.11177200  1
  Y  Y7_3  1  0.37500000  0.62289350  0.61177200  1
  Y  Y7_4  1  0.87500000  0.12289350  0.11177200  1
  Y  Y7_5  1  0.87500000  0.12289350  0.61177200  1
  Y  Y7_6  1  0.87500000  0.62289350  0.11177200  1
  Y  Y7_7  1  0.87500000  0.62289350  0.61177200  1
  Y  Y8_0  1  0.37500000  0.17491650  0.28659450  1
  Y  Y8_1  1  0.37500000  0.17491650  0.78659450  1
  Y  Y8_2  1  0.37500000  0.67491650  0.28659450  1
  Y  Y8_3  1  0.37500000  0.67491650  0.78659450  1
  Y  Y8_4  1  0.87500000  0.17491650  0.28659450  1
  Y  Y8_5  1  0.87500000  0.17491650  0.78659450  1
  Y  Y8_6  1  0.87500000  0.67491650  0.28659450  1
  Y  Y8_7  1  0.87500000  0.67491650  0.78659450  1
  Y  Y9_0  1  0.12500000  0.37710650  0.38822800  1
  Y  Y9_1  1  0.12500000  0.37710650  0.88822800  1
  Y  Y9_2  1  0.12500000  0.87710650  0.38822800  1
  Y  Y9_3  1  0.12500000  0.87710650  0.88822800  1
  Y  Y9_4  1  0.62500000  0.37710650  0.38822800  1
  Y  Y9_5  1  0.62500000  0.37710650  0.88822800  1
  Y  Y9_6  1  0.62500000  0.87710650  0.38822800  1
  Y  Y9_7  1  0.62500000  0.87710650  0.88822800  1
  Y  Y10_0  1  0.12500000  0.06323900  0.47586650  1
  Y  Y10_1  1  0.12500000  0.06323900  0.97586650  1
  Y  Y10_2  1  0.12500000  0.56323900  0.47586650  1
  Y  Y10_3  1  0.12500000  0.56323900  0.97586650  1
  Y  Y10_4  1  0.62500000  0.06323900  0.47586650  1
  Y  Y10_5  1  0.62500000  0.06323900  0.97586650  1
  Y  Y10_6  1  0.62500000  0.56323900  0.47586650  1
  Y  Y10_7  1  0.62500000  0.56323900  0.97586650  1
  Y  Y11_0  1  0.12500000  0.30881650  0.01223500  1
  Y  Y11_1  1  0.12500000  0.30881650  0.51223500  1
  Y  Y11_2  1  0.12500000  0.80881650  0.01223500  1
  Y  Y11_3  1  0.12500000  0.80881650  0.51223500  1
  Y  Y11_4  1  0.62500000  0.30881650  0.01223500  1
  Y  Y11_5  1  0.62500000  0.30881650  0.51223500  1
  Y  Y11_6  1  0.62500000  0.80881650  0.01223500  1
  Y  Y11_7  1  0.62500000  0.80881650  0.51223500  1
  Y  Y12_0  1  0.37500000  0.19118350  0.48776500  1
  Y  Y12_1  1  0.37500000  0.19118350  0.98776500  1
  Y  Y12_2  1  0.37500000  0.69118350  0.48776500  1
  Y  Y12_3  1  0.37500000  0.69118350  0.98776500  1
  Y  Y12_4  1  0.87500000  0.19118350  0.48776500  1
  Y  Y12_5  1  0.87500000  0.19118350  0.98776500  1
  Y  Y12_6  1  0.87500000  0.69118350  0.48776500  1
  Y  Y12_7  1  0.87500000  0.69118350  0.98776500  1
  Y  Y13_0  1  0.12500000  0.18676100  0.22586650  1
  Y  Y13_1  1  0.12500000  0.18676100  0.72586650  1
  Y  Y13_2  1  0.12500000  0.68676100  0.22586650  1
  Y  Y13_3  1  0.12500000  0.68676100  0.72586650  1
  Y  Y13_4  1  0.62500000  0.18676100  0.22586650  1
  Y  Y13_5  1  0.62500000  0.18676100  0.72586650  1
  Y  Y13_6  1  0.62500000  0.68676100  0.22586650  1
  Y  Y13_7  1  0.62500000  0.68676100  0.72586650  1
  Y  Y14_0  1  0.37500000  0.43114000  0.19925950  1
  Y  Y14_1  1  0.37500000  0.43114000  0.69925950  1
  Y  Y14_2  1  0.37500000  0.93114000  0.19925950  1
  Y  Y14_3  1  0.37500000  0.93114000  0.69925950  1
  Y  Y14_4  1  0.87500000  0.43114000  0.19925950  1
  Y  Y14_5  1  0.87500000  0.43114000  0.69925950  1
  Y  Y14_6  1  0.87500000  0.93114000  0.19925950  1
  Y  Y14_7  1  0.87500000  0.93114000  0.69925950  1
  Y  Y15_0  1  0.12500000  0.03980850  0.17284350  1
  Y  Y15_1  1  0.12500000  0.03980850  0.67284350  1
  Y  Y15_2  1  0.12500000  0.53980850  0.17284350  1
  Y  Y15_3  1  0.12500000  0.53980850  0.67284350  1
  Y  Y15_4  1  0.62500000  0.03980850  0.17284350  1
  Y  Y15_5  1  0.62500000  0.03980850  0.67284350  1
  Y  Y15_6  1  0.62500000  0.53980850  0.17284350  1
  Y  Y15_7  1  0.62500000  0.53980850  0.67284350  1
  Y  Y16_0  1  0.37500000  0.05881650  0.23776500  1
  Y  Y16_1  1  0.37500000  0.05881650  0.73776500  1
  Y  Y16_2  1  0.37500000  0.55881650  0.23776500  1
  Y  Y16_3  1  0.37500000  0.55881650  0.73776500  1
  Y  Y16_4  1  0.87500000  0.05881650  0.23776500  1
  Y  Y16_5  1  0.87500000  0.05881650  0.73776500  1
  Y  Y16_6  1  0.87500000  0.55881650  0.23776500  1
  Y  Y16_7  1  0.87500000  0.55881650  0.73776500  1
  Y  Y17_0  1  0.12500000  0.18114000  0.05074050  1
  Y  Y17_1  1  0.12500000  0.18114000  0.55074050  1
  Y  Y17_2  1  0.12500000  0.68114000  0.05074050  1
  Y  Y17_3  1  0.12500000  0.68114000  0.55074050  1
  Y  Y17_4  1  0.62500000  0.18114000  0.05074050  1
  Y  Y17_5  1  0.62500000  0.18114000  0.55074050  1
  Y  Y17_6  1  0.62500000  0.68114000  0.05074050  1
  Y  Y17_7  1  0.62500000  0.68114000  0.55074050  1
  Y  Y18_0  1  0.37500000  0.07508350  0.03659450  1
  Y  Y18_1  1  0.37500000  0.07508350  0.53659450  1
  Y  Y18_2  1  0.37500000  0.57508350  0.03659450  1
  Y  Y18_3  1  0.37500000  0.57508350  0.53659450  1
  Y  Y18_4  1  0.87500000  0.07508350  0.03659450  1
  Y  Y18_5  1  0.87500000  0.07508350  0.53659450  1
  Y  Y18_6  1  0.87500000  0.57508350  0.03659450  1
  Y  Y18_7  1  0.87500000  0.57508350  0.53659450  1
  Y  Y19_0  1  0.12500000  0.37289350  0.13822800  1
  Y  Y19_1  1  0.12500000  0.37289350  0.63822800  1
  Y  Y19_2  1  0.12500000  0.87289350  0.13822800  1
  Y  Y19_3  1  0.12500000  0.87289350  0.63822800  1
  Y  Y19_4  1  0.62500000  0.37289350  0.13822800  1
  Y  Y19_5  1  0.62500000  0.37289350  0.63822800  1
  Y  Y19_6  1  0.62500000  0.87289350  0.13822800  1
  Y  Y19_7  1  0.62500000  0.87289350  0.63822800  1
  Y  Y20_0  1  0.37500000  0.31323900  0.27413350  1
  Y  Y20_1  1  0.37500000  0.31323900  0.77413350  1
  Y  Y20_2  1  0.37500000  0.81323900  0.27413350  1
  Y  Y20_3  1  0.37500000  0.81323900  0.77413350  1
  Y  Y20_4  1  0.87500000  0.31323900  0.27413350  1
  Y  Y20_5  1  0.87500000  0.31323900  0.77413350  1
  Y  Y20_6  1  0.87500000  0.81323900  0.27413350  1
  Y  Y20_7  1  0.87500000  0.81323900  0.77413350  1
  Y  Y21_0  1  0.12500000  0.01001800  0.08514300  1
  Y  Y21_1  1  0.12500000  0.01001800  0.58514300  1
  Y  Y21_2  1  0.12500000  0.51001800  0.08514300  1
  Y  Y21_3  1  0.12500000  0.51001800  0.58514300  1
  Y  Y21_4  1  0.62500000  0.01001800  0.08514300  1
  Y  Y21_5  1  0.62500000  0.01001800  0.58514300  1
  Y  Y21_6  1  0.62500000  0.51001800  0.08514300  1
  Y  Y21_7  1  0.62500000  0.51001800  0.58514300  1
  Y  Y22_0  1  0.37500000  0.28980850  0.07715650  1
  Y  Y22_1  1  0.37500000  0.28980850  0.57715650  1
  Y  Y22_2  1  0.37500000  0.78980850  0.07715650  1
  Y  Y22_3  1  0.37500000  0.78980850  0.57715650  1
  Y  Y22_4  1  0.87500000  0.28980850  0.07715650  1
  Y  Y22_5  1  0.87500000  0.28980850  0.57715650  1
  Y  Y22_6  1  0.87500000  0.78980850  0.07715650  1
  Y  Y22_7  1  0.87500000  0.78980850  0.57715650  1
  Y  Y23_0  1  0.12500000  0.21019150  0.42284350  1
  Y  Y23_1  1  0.12500000  0.21019150  0.92284350  1
  Y  Y23_2  1  0.12500000  0.71019150  0.42284350  1
  Y  Y23_3  1  0.12500000  0.71019150  0.92284350  1
  Y  Y23_4  1  0.62500000  0.21019150  0.42284350  1
  Y  Y23_5  1  0.62500000  0.21019150  0.92284350  1
  Y  Y23_6  1  0.62500000  0.71019150  0.42284350  1
  Y  Y23_7  1  0.62500000  0.71019150  0.92284350  1
  Y  Y24_0  1  0.37500000  0.46019150  0.32715650  1
  Y  Y24_1  1  0.37500000  0.46019150  0.82715650  1
  Y  Y24_2  1  0.37500000  0.96019150  0.32715650  1
  Y  Y24_3  1  0.37500000  0.96019150  0.82715650  1
  Y  Y24_4  1  0.87500000  0.46019150  0.32715650  1
  Y  Y24_5  1  0.87500000  0.46019150  0.82715650  1
  Y  Y24_6  1  0.87500000  0.96019150  0.32715650  1
  Y  Y24_7  1  0.87500000  0.96019150  0.82715650  1
  Y  Y25_0  1  0.12500000  0.44118350  0.26223500  1
  Y  Y25_1  1  0.12500000  0.44118350  0.76223500  1
  Y  Y25_2  1  0.12500000  0.94118350  0.26223500  1
  Y  Y25_3  1  0.12500000  0.94118350  0.76223500  1
  Y  Y25_4  1  0.62500000  0.44118350  0.26223500  1
  Y  Y25_5  1  0.62500000  0.44118350  0.76223500  1
  Y  Y25_6  1  0.62500000  0.94118350  0.26223500  1
  Y  Y25_7  1  0.62500000  0.94118350  0.76223500  1
  Y  Y26_0  1  0.12500000  0.23998200  0.33514300  1
  Y  Y26_1  1  0.12500000  0.23998200  0.83514300  1
  Y  Y26_2  1  0.12500000  0.73998200  0.33514300  1
  Y  Y26_3  1  0.12500000  0.73998200  0.83514300  1
  Y  Y26_4  1  0.62500000  0.23998200  0.33514300  1
  Y  Y26_5  1  0.62500000  0.23998200  0.83514300  1
  Y  Y26_6  1  0.62500000  0.73998200  0.33514300  1
  Y  Y26_7  1  0.62500000  0.73998200  0.83514300  1
  Y  Y27_0  1  0.12500000  0.06886000  0.30074050  1
  Y  Y27_1  1  0.12500000  0.06886000  0.80074050  1
  Y  Y27_2  1  0.12500000  0.56886000  0.30074050  1
  Y  Y27_3  1  0.12500000  0.56886000  0.80074050  1
  Y  Y27_4  1  0.62500000  0.06886000  0.30074050  1
  Y  Y27_5  1  0.62500000  0.06886000  0.80074050  1
  Y  Y27_6  1  0.62500000  0.56886000  0.30074050  1
  Y  Y27_7  1  0.62500000  0.56886000  0.80074050  1
  Te  Te0_0  1  0.12500000  0.36437200  0.31981700  1
  Te  Te0_1  1  0.12500000  0.36437200  0.81981700  1
  Te  Te0_2  1  0.12500000  0.86437200  0.31981700  1
  Te  Te0_3  1  0.12500000  0.86437200  0.81981700  1
  Te  Te0_4  1  0.62500000  0.36437200  0.31981700  1
  Te  Te0_5  1  0.62500000  0.36437200  0.81981700  1
  Te  Te0_6  1  0.62500000  0.86437200  0.31981700  1
  Te  Te0_7  1  0.62500000  0.86437200  0.81981700  1
  Te  Te1_0  1  0.37500000  0.11437200  0.43018300  1
  Te  Te1_1  1  0.37500000  0.11437200  0.93018300  1
  Te  Te1_2  1  0.37500000  0.61437200  0.43018300  1
  Te  Te1_3  1  0.37500000  0.61437200  0.93018300  1
  Te  Te1_4  1  0.87500000  0.11437200  0.43018300  1
  Te  Te1_5  1  0.87500000  0.11437200  0.93018300  1
  Te  Te1_6  1  0.87500000  0.61437200  0.43018300  1
  Te  Te1_7  1  0.87500000  0.61437200  0.93018300  1
  Te  Te2_0  1  0.37500000  0.47526550  0.13371500  1
  Te  Te2_1  1  0.37500000  0.47526550  0.63371500  1
  Te  Te2_2  1  0.37500000  0.97526550  0.13371500  1
  Te  Te2_3  1  0.37500000  0.97526550  0.63371500  1
  Te  Te2_4  1  0.87500000  0.47526550  0.13371500  1
  Te  Te2_5  1  0.87500000  0.47526550  0.63371500  1
  Te  Te2_6  1  0.87500000  0.97526550  0.13371500  1
  Te  Te2_7  1  0.87500000  0.97526550  0.63371500  1
  Te  Te3_0  1  0.37500000  0.13562800  0.18018300  1
  Te  Te3_1  1  0.37500000  0.13562800  0.68018300  1
  Te  Te3_2  1  0.37500000  0.63562800  0.18018300  1
  Te  Te3_3  1  0.37500000  0.63562800  0.68018300  1
  Te  Te3_4  1  0.87500000  0.13562800  0.18018300  1
  Te  Te3_5  1  0.87500000  0.13562800  0.68018300  1
  Te  Te3_6  1  0.87500000  0.63562800  0.18018300  1
  Te  Te3_7  1  0.87500000  0.63562800  0.68018300  1
  Te  Te4_0  1  0.12500000  0.38562800  0.06981700  1
  Te  Te4_1  1  0.12500000  0.38562800  0.56981700  1
  Te  Te4_2  1  0.12500000  0.88562800  0.06981700  1
  Te  Te4_3  1  0.12500000  0.88562800  0.56981700  1
  Te  Te4_4  1  0.62500000  0.38562800  0.06981700  1
  Te  Te4_5  1  0.62500000  0.38562800  0.56981700  1
  Te  Te4_6  1  0.62500000  0.88562800  0.06981700  1
  Te  Te4_7  1  0.62500000  0.88562800  0.56981700  1
  Te  Te5_0  1  0.37500000  0.27473450  0.38371500  1
  Te  Te5_1  1  0.37500000  0.27473450  0.88371500  1
  Te  Te5_2  1  0.37500000  0.77473450  0.38371500  1
  Te  Te5_3  1  0.37500000  0.77473450  0.88371500  1
  Te  Te5_4  1  0.87500000  0.27473450  0.38371500  1
  Te  Te5_5  1  0.87500000  0.27473450  0.88371500  1
  Te  Te5_6  1  0.87500000  0.77473450  0.38371500  1
  Te  Te5_7  1  0.87500000  0.77473450  0.88371500  1
  Te  Te6_0  1  0.12500000  0.02473450  0.36628500  1
  Te  Te6_1  1  0.12500000  0.02473450  0.86628500  1
  Te  Te6_2  1  0.12500000  0.52473450  0.36628500  1
  Te  Te6_3  1  0.12500000  0.52473450  0.86628500  1
  Te  Te6_4  1  0.62500000  0.02473450  0.36628500  1
  Te  Te6_5  1  0.62500000  0.02473450  0.86628500  1
  Te  Te6_6  1  0.62500000  0.52473450  0.36628500  1
  Te  Te6_7  1  0.62500000  0.52473450  0.86628500  1
  Te  Te7_0  1  0.12500000  0.22526550  0.11628500  1
  Te  Te7_1  1  0.12500000  0.22526550  0.61628500  1
  Te  Te7_2  1  0.12500000  0.72526550  0.11628500  1
  Te  Te7_3  1  0.12500000  0.72526550  0.61628500  1
  Te  Te7_4  1  0.62500000  0.22526550  0.11628500  1
  Te  Te7_5  1  0.62500000  0.22526550  0.61628500  1
  Te  Te7_6  1  0.62500000  0.72526550  0.11628500  1
  Te  Te7_7  1  0.62500000  0.72526550  0.61628500  1
loop_
_geom_bond_atom_site_label_1
_geom_bond_atom_site_label_2
_geom_bond_distance
_geom_bond_site_symmetry_2
Y0_0 Y14_0 3.320447 1_555
Y0_0 Y14_4 3.320447 1_455
Y0_0 Y5_0 3.394320 1_555
Y0_0 Y5_4 3.394320 1_455
Y0_0 Y13_0 3.415367 1_555
Y0_0 Y20_0 3.459305 1_555
Y0_0 Y20_4 3.459305 1_455
Y0_0 Y25_0 3.622443 1_555
Y0_0 Y19_0 3.679336 1_555
Y0_0 Y0_4 3.966506 1_555
Y0_0 Y0_4 3.966506 1_455
Y0_1 Y14_1 3.320447 1_555
Y0_1 Y14_5 3.320447 1_455
Y0_1 Y5_1 3.394320 1_555
Y0_1 Y5_5 3.394320 1_455
Y0_1 Y13_1 3.415367 1_555
Y0_1 Y20_1 3.459305 1_555
Y0_1 Y20_5 3.459305 1_455
Y0_1 Y25_1 3.622443 1_555
Y0_1 Y19_1 3.679336 1_555
Y0_1 Y0_5 3.966506 1_555
Y0_1 Y0_5 3.966506 1_455
Y0_2 Y14_2 3.320447 1_555
Y0_2 Y14_6 3.320447 1_455
Y0_2 Y5_2 3.394320 1_555
Y0_2 Y5_6 3.394320 1_455
Y0_2 Y13_2 3.415367 1_555
Y0_2 Y20_2 3.459305 1_555
Y0_2 Y20_6 3.459305 1_455
Y0_2 Y25_2 3.622443 1_555
Y0_2 Y19_2 3.679336 1_555
Y0_2 Y0_6 3.966506 1_555
Y0_2 Y0_6 3.966506 1_455
Y0_3 Y14_3 3.320447 1_555
Y0_3 Y14_7 3.320447 1_455
Y0_3 Y5_3 3.394320 1_555
Y0_3 Y5_7 3.394320 1_455
Y0_3 Y13_3 3.415367 1_555
Y0_3 Y20_3 3.459305 1_555
Y0_3 Y20_7 3.459305 1_455
Y0_3 Y25_3 3.622443 1_555
Y0_3 Y19_3 3.679336 1_555
Y0_3 Y0_7 3.966506 1_555
Y0_3 Y0_7 3.966506 1_455
Y0_4 Y14_0 3.320447 1_555
Y0_4 Y14_4 3.320447 1_555
Y0_4 Y5_0 3.394320 1_555
Y0_4 Y5_4 3.394320 1_555
Y0_4 Y13_4 3.415367 1_555
Y0_4 Y20_0 3.459305 1_555
Y0_4 Y20_4 3.459305 1_555
Y0_4 Y25_4 3.622443 1_555
Y0_4 Y19_4 3.679336 1_555
Y0_5 Y14_1 3.320447 1_555
Y0_5 Y14_5 3.320447 1_555
Y0_5 Y5_1 3.394320 1_555
Y0_5 Y5_5 3.394320 1_555
Y0_5 Y13_5 3.415367 1_555
Y0_5 Y20_1 3.459305 1_555
Y0_5 Y20_5 3.459305 1_555
Y0_5 Y25_5 3.622443 1_555
Y0_5 Y19_5 3.679336 1_555
Y0_6 Y14_2 3.320447 1_555
Y0_6 Y14_6 3.320447 1_555
Y0_6 Y5_2 3.394320 1_555
Y0_6 Y5_6 3.394320 1_555
Y0_6 Y13_6 3.415367 1_555
Y0_6 Y20_2 3.459305 1_555
Y0_6 Y20_6 3.459305 1_555
Y0_6 Y25_6 3.622443 1_555
Y0_6 Y19_6 3.679336 1_555
Y0_7 Y14_3 3.320447 1_555
Y0_7 Y14_7 3.320447 1_555
Y0_7 Y5_3 3.394320 1_555
Y0_7 Y5_7 3.394320 1_555
Y0_7 Y13_7 3.415367 1_555
Y0_7 Y20_3 3.459305 1_555
Y0_7 Y20_7 3.459305 1_555
Y0_7 Y25_7 3.622443 1_555
Y0_7 Y19_7 3.679336 1_555
Y1_0 Y4_4 3.394320 1_555
Y1_0 Y4_0 3.394320 1_555
Y1_1 Y4_5 3.394320 1_555
Y1_1 Y4_1 3.394320 1_555
Y1_2 Y4_6 3.394320 1_555
Y1_2 Y4_2 3.394320 1_555
Y1_3 Y4_7 3.394320 1_555
Y1_3 Y4_3 3.394320 1_555
Y1_4 Y4_4 3.394320 1_555
Y1_4 Y4_0 3.394320 1_655
Y1_5 Y4_5 3.394320 1_555
Y1_5 Y4_1 3.394320 1_655
Y1_6 Y4_6 3.394320 1_555
Y1_6 Y4_2 3.394320 1_655
Y1_7 Y4_7 3.394320 1_555
Y1_7 Y4_3 3.394320 1_655
Y2_0 Y4_5 3.459305 1_554
Y2_0 Y4_1 3.459305 1_554
Y2_1 Y4_4 3.459305 1_555
Y2_1 Y4_0 3.459305 1_555
Y2_2 Y4_7 3.459305 1_554
Y2_2 Y4_3 3.459305 1_554
Y2_3 Y4_6 3.459305 1_555
Y2_3 Y4_2 3.459305 1_555
Y2_4 Y4_5 3.459305 1_554
Y2_4 Y4_1 3.459305 1_654
Y2_5 Y4_4 3.459305 1_555
Y2_5 Y4_0 3.459305 1_655
Y2_6 Y4_7 3.459305 1_554
Y2_6 Y4_3 3.459305 1_654
Y2_7 Y4_6 3.459305 1_555
Y2_7 Y4_2 3.459305 1_655
Y3_0 Y8_0 3.679336 1_555
Y3_1 Y8_1 3.679336 1_555
Y3_2 Y8_2 3.679336 1_555
Y3_3 Y8_3 3.679336 1_555
Y3_4 Y8_4 3.679336 1_555
Y3_5 Y8_5 3.679336 1_555
Y3_6 Y8_6 3.679336 1_555
Y3_7 Y8_7 3.679336 1_555
Y4_0 Y6_0 3.320447 1_555
Y4_0 Y6_4 3.320447 1_455
Y4_0 Y9_0 3.679336 1_555
Y4_0 Y4_4 3.966506 1_555
Y4_0 Y4_4 3.966506 1_455
Y4_1 Y6_1 3.320447 1_555
Y4_1 Y6_5 3.320447 1_455
Y4_1 Y9_1 3.679336 1_555
Y4_1 Y4_5 3.966506 1_555
Y4_1 Y4_5 3.966506 1_455
Y4_2 Y6_2 3.320447 1_555
Y4_2 Y6_6 3.320447 1_455
Y4_2 Y9_2 3.679336 1_555
Y4_2 Y4_6 3.966506 1_555
Y4_2 Y4_6 3.966506 1_455
Y4_3 Y6_3 3.320447 1_555
Y4_3 Y6_7 3.320447 1_455
Y4_3 Y9_3 3.679336 1_555
Y4_3 Y4_7 3.966506 1_555
Y4_3 Y4_7 3.966506 1_455
Y4_4 Y6_0 3.320447 1_555
Y4_4 Y6_4 3.320447 1_555
Y4_4 Y9_4 3.679336 1_555
Y4_5 Y6_1 3.320447 1_555
Y4_5 Y6_5 3.320447 1_555
Y4_5 Y9_5 3.679336 1_555
Y4_6 Y6_2 3.320447 1_555
Y4_6 Y6_6 3.320447 1_555
Y4_6 Y9_6 3.679336 1_555
Y4_7 Y6_3 3.320447 1_555
Y4_7 Y6_7 3.320447 1_555
Y4_7 Y9_7 3.679336 1_555
Y8_0 Y8_4 3.966506 1_555
Y8_0 Y8_4 3.966506 1_455
Y8_1 Y8_5 3.966506 1_555
Y8_1 Y8_5 3.966506 1_455
Y8_2 Y8_6 3.966506 1_555
Y8_2 Y8_6 3.966506 1_455
Y8_3 Y8_7 3.966506 1_555
Y8_3 Y8_7 3.966506 1_455
Y10_0 Y4_2 3.415367 1_545
Y10_0 Y18_1 3.459305 1_555
Y10_0 Y18_5 3.459305 1_455
Y10_1 Y4_3 3.415367 1_545
Y10_1 Y18_0 3.459305 1_556
Y10_1 Y18_4 3.459305 1_456
Y10_2 Y4_0 3.415367 1_555
Y10_2 Y18_3 3.459305 1_555
Y10_2 Y18_7 3.459305 1_455
Y10_3 Y4_1 3.415367 1_555
Y10_3 Y18_2 3.459305 1_556
Y10_3 Y18_6 3.459305 1_456
Y10_4 Y4_6 3.415367 1_545
Y10_4 Y18_1 3.459305 1_555
Y10_4 Y18_5 3.459305 1_555
Y10_5 Y4_7 3.415367 1_545
Y10_5 Y18_0 3.459305 1_556
Y10_5 Y18_4 3.459305 1_556
Y10_6 Y4_4 3.415367 1_555
Y10_6 Y18_3 3.459305 1_555
Y10_6 Y18_7 3.459305 1_555
Y10_7 Y4_5 3.415367 1_555
Y10_7 Y18_2 3.459305 1_556
Y10_7 Y18_6 3.459305 1_556
Y11_0 Y4_1 3.622443 1_554
Y11_1 Y4_0 3.622443 1_555
Y11_2 Y4_3 3.622443 1_554
Y11_3 Y4_2 3.622443 1_555
Y11_4 Y4_5 3.622443 1_554
Y11_5 Y4_4 3.622443 1_555
Y11_6 Y4_7 3.622443 1_554
Y11_7 Y4_6 3.622443 1_555
Y12_0 Y18_1 3.622443 1_555
Y12_1 Y18_0 3.622443 1_556
Y12_2 Y18_3 3.622443 1_555
Y12_3 Y18_2 3.622443 1_556
Y12_4 Y18_5 3.622443 1_555
Y12_5 Y18_4 3.622443 1_556
Y12_6 Y18_7 3.622443 1_555
Y12_7 Y18_6 3.622443 1_556
Y13_0 Y8_0 3.459305 1_555
Y13_0 Y8_4 3.459305 1_455
Y13_1 Y8_1 3.459305 1_555
Y13_1 Y8_5 3.459305 1_455
Y13_2 Y8_2 3.459305 1_555
Y13_2 Y8_6 3.459305 1_455
Y13_3 Y8_3 3.459305 1_555
Y13_3 Y8_7 3.459305 1_455
Y13_4 Y8_0 3.459305 1_555
Y13_4 Y8_4 3.459305 1_555
Y13_5 Y8_1 3.459305 1_555
Y13_5 Y8_5 3.459305 1_555
Y13_6 Y8_2 3.459305 1_555
Y13_6 Y8_6 3.459305 1_555
Y13_7 Y8_3 3.459305 1_555
Y13_7 Y8_7 3.459305 1_555
Y16_0 Y8_0 3.622443 1_555
Y16_1 Y8_1 3.622443 1_555
Y16_2 Y8_2 3.622443 1_555
Y16_3 Y8_3 3.622443 1_555
Y16_4 Y8_4 3.622443 1_555
Y16_5 Y8_5 3.622443 1_555
Y16_6 Y8_6 3.622443 1_555
Y16_7 Y8_7 3.622443 1_555
Y17_0 Y18_0 3.320447 1_555
Y17_0 Y18_4 3.320447 1_455
Y17_1 Y18_1 3.320447 1_555
Y17_1 Y18_5 3.320447 1_455
Y17_2 Y18_2 3.320447 1_555
Y17_2 Y18_6 3.320447 1_455
Y17_3 Y18_3 3.320447 1_555
Y17_3 Y18_7 3.320447 1_455
Y17_4 Y18_0 3.320447 1_555
Y17_4 Y18_4 3.320447 1_555
Y17_5 Y18_1 3.320447 1_555
Y17_5 Y18_5 3.320447 1_555
Y17_6 Y18_2 3.320447 1_555
Y17_6 Y18_6 3.320447 1_555
Y17_7 Y18_3 3.320447 1_555
Y17_7 Y18_7 3.320447 1_555
Y18_0 Y21_4 3.394320 1_555
Y18_0 Y21_0 3.394320 1_555
Y18_0 Y2_2 3.415367 1_545
Y18_0 Y7_0 3.679336 1_555
Y18_0 Y18_4 3.966506 1_555
Y18_0 Y18_4 3.966506 1_455
Y18_1 Y21_5 3.394320 1_555
Y18_1 Y21_1 3.394320 1_555
Y18_1 Y2_3 3.415367 1_545
Y18_1 Y7_1 3.679336 1_555
Y18_1 Y18_5 3.966506 1_555
Y18_1 Y18_5 3.966506 1_455
Y18_2 Y21_6 3.394320 1_555
Y18_2 Y21_2 3.394320 1_555
Y18_2 Y2_0 3.415367 1_555
Y18_2 Y7_2 3.679336 1_555
Y18_2 Y18_6 3.966506 1_555
Y18_2 Y18_6 3.966506 1_455
Y18_3 Y21_7 3.394320 1_555
Y18_3 Y21_3 3.394320 1_555
Y18_3 Y2_1 3.415367 1_555
Y18_3 Y7_3 3.679336 1_555
Y18_3 Y18_7 3.966506 1_555
Y18_3 Y18_7 3.966506 1_455
Y18_4 Y21_4 3.394320 1_555
Y18_4 Y21_0 3.394320 1_655
Y18_4 Y2_6 3.415367 1_545
Y18_4 Y7_4 3.679336 1_555
Y18_5 Y21_5 3.394320 1_555
Y18_5 Y21_1 3.394320 1_655
Y18_5 Y2_7 3.415367 1_545
Y18_5 Y7_5 3.679336 1_555
Y18_6 Y21_6 3.394320 1_555
Y18_6 Y21_2 3.394320 1_655
Y18_6 Y2_4 3.415367 1_555
Y18_6 Y7_6 3.679336 1_555
Y18_7 Y21_7 3.394320 1_555
Y18_7 Y21_3 3.394320 1_655
Y18_7 Y2_5 3.415367 1_555
Y18_7 Y7_7 3.679336 1_555
Y20_0 Y8_0 3.415367 1_555
Y20_1 Y8_1 3.415367 1_555
Y20_2 Y8_2 3.415367 1_555
Y20_3 Y8_3 3.415367 1_555
Y20_4 Y8_4 3.415367 1_555
Y20_5 Y8_5 3.415367 1_555
Y20_6 Y8_6 3.415367 1_555
Y20_7 Y8_7 3.415367 1_555
Y26_0 Y8_0 3.394320 1_555
Y26_0 Y8_4 3.394320 1_455
Y26_1 Y8_1 3.394320 1_555
Y26_1 Y8_5 3.394320 1_455
Y26_2 Y8_2 3.394320 1_555
Y26_2 Y8_6 3.394320 1_455
Y26_3 Y8_3 3.394320 1_555
Y26_3 Y8_7 3.394320 1_455
Y26_4 Y8_0 3.394320 1_555
Y26_4 Y8_4 3.394320 1_555
Y26_5 Y8_1 3.394320 1_555
Y26_5 Y8_5 3.394320 1_555
Y26_6 Y8_2 3.394320 1_555
Y26_6 Y8_6 3.394320 1_555
Y26_7 Y8_3 3.394320 1_555
Y26_7 Y8_7 3.394320 1_555
Y27_0 Y8_0 3.320447 1_555
Y27_0 Y8_4 3.320447 1_455
Y27_1 Y8_1 3.320447 1_555
Y27_1 Y8_5 3.320447 1_455
Y27_2 Y8_2 3.320447 1_555
Y27_2 Y8_6 3.320447 1_455
Y27_3 Y8_3 3.320447 1_555
Y27_3 Y8_7 3.320447 1_455
Y27_4 Y8_0 3.320447 1_555
Y27_4 Y8_4 3.320447 1_555
Y27_5 Y8_1 3.320447 1_555
Y27_5 Y8_5 3.320447 1_555
Y27_6 Y8_2 3.320447 1_555
Y27_6 Y8_6 3.320447 1_555
Y27_7 Y8_3 3.320447 1_555
Y27_7 Y8_7 3.320447 1_555
Te0_0 Y24_0 3.079987 1_555
Te0_0 Y24_4 3.079987 1_455
Te0_0 Y26_0 3.109483 1_555
Te0_0 Y20_0 3.159227 1_555
Te0_0 Y20_4 3.159227 1_455
Te0_0 Y9_0 3.191457 1_555
Te0_0 Y25_0 3.262177 1_555
Te0_1 Y24_1 3.079987 1_555
Te0_1 Y24_5 3.079987 1_455
Te0_1 Y26_1 3.109483 1_555
Te0_1 Y20_1 3.159227 1_555
Te0_1 Y20_5 3.159227 1_455
Te0_1 Y9_1 3.191457 1_555
Te0_1 Y25_1 3.262177 1_555
Te0_2 Y24_2 3.079987 1_555
Te0_2 Y24_6 3.079987 1_455
Te0_2 Y26_2 3.109483 1_555
Te0_2 Y20_2 3.159227 1_555
Te0_2 Y20_6 3.159227 1_455
Te0_2 Y9_2 3.191457 1_555
Te0_2 Y25_2 3.262177 1_555
Te0_3 Y24_3 3.079987 1_555
Te0_3 Y24_7 3.079987 1_455
Te0_3 Y26_3 3.109483 1_555
Te0_3 Y20_3 3.159227 1_555
Te0_3 Y20_7 3.159227 1_455
Te0_3 Y9_3 3.191457 1_555
Te0_3 Y25_3 3.262177 1_555
Te0_4 Y24_0 3.079987 1_555
Te0_4 Y24_4 3.079987 1_555
Te0_4 Y26_4 3.109483 1_555
Te0_4 Y20_0 3.159227 1_555
Te0_4 Y20_4 3.159227 1_555
Te0_4 Y9_4 3.191457 1_555
Te0_4 Y25_4 3.262177 1_555
Te0_5 Y24_1 3.079987 1_555
Te0_5 Y24_5 3.079987 1_555
Te0_5 Y26_5 3.109483 1_555
Te0_5 Y20_1 3.159227 1_555
Te0_5 Y20_5 3.159227 1_555
Te0_5 Y9_5 3.191457 1_555
Te0_5 Y25_5 3.262177 1_555
Te0_6 Y24_2 3.079987 1_555
Te0_6 Y24_6 3.079987 1_555
Te0_6 Y26_6 3.109483 1_555
Te0_6 Y20_2 3.159227 1_555
Te0_6 Y20_6 3.159227 1_555
Te0_6 Y9_6 3.191457 1_555
Te0_6 Y25_6 3.262177 1_555
Te0_7 Y24_3 3.079987 1_555
Te0_7 Y24_7 3.079987 1_555
Te0_7 Y26_7 3.109483 1_555
Te0_7 Y20_3 3.159227 1_555
Te0_7 Y20_7 3.159227 1_555
Te0_7 Y9_7 3.191457 1_555
Te0_7 Y25_7 3.262177 1_555
Te1_0 Y23_4 3.079987 1_555
Te1_0 Y23_0 3.079987 1_555
Te1_0 Y1_2 3.109483 1_545
Te1_0 Y10_4 3.159227 1_555
Te1_0 Y10_0 3.159227 1_555
Te1_0 Y3_0 3.191457 1_555
Te1_0 Y12_0 3.262177 1_555
Te1_1 Y23_5 3.079987 1_555
Te1_1 Y23_1 3.079987 1_555
Te1_1 Y1_3 3.109483 1_545
Te1_1 Y10_5 3.159227 1_555
Te1_1 Y10_1 3.159227 1_555
Te1_1 Y3_1 3.191457 1_555
Te1_1 Y12_1 3.262177 1_555
Te1_2 Y23_6 3.079987 1_555
Te1_2 Y23_2 3.079987 1_555
Te1_2 Y1_0 3.109483 1_555
Te1_2 Y10_6 3.159227 1_555
Te1_2 Y10_2 3.159227 1_555
Te1_2 Y3_2 3.191457 1_555
Te1_2 Y12_2 3.262177 1_555
Te1_3 Y23_7 3.079987 1_555
Te1_3 Y23_3 3.079987 1_555
Te1_3 Y1_1 3.109483 1_555
Te1_3 Y10_7 3.159227 1_555
Te1_3 Y10_3 3.159227 1_555
Te1_3 Y3_3 3.191457 1_555
Te1_3 Y12_3 3.262177 1_555
Te1_4 Y23_4 3.079987 1_555
Te1_4 Y23_0 3.079987 1_655
Te1_4 Y1_6 3.109483 1_545
Te1_4 Y10_4 3.159227 1_555
Te1_4 Y10_0 3.159227 1_655
Te1_4 Y3_4 3.191457 1_555
Te1_4 Y12_4 3.262177 1_555
Te1_5 Y23_5 3.079987 1_555
Te1_5 Y23_1 3.079987 1_655
Te1_5 Y1_7 3.109483 1_545
Te1_5 Y10_5 3.159227 1_555
Te1_5 Y10_1 3.159227 1_655
Te1_5 Y3_5 3.191457 1_555
Te1_5 Y12_5 3.262177 1_555
Te1_6 Y23_6 3.079987 1_555
Te1_6 Y23_2 3.079987 1_655
Te1_6 Y1_4 3.109483 1_555
Te1_6 Y10_6 3.159227 1_555
Te1_6 Y10_2 3.159227 1_655
Te1_6 Y3_6 3.191457 1_555
Te1_6 Y12_6 3.262177 1_555
Te1_7 Y23_7 3.079987 1_555
Te1_7 Y23_3 3.079987 1_655
Te1_7 Y1_5 3.109483 1_555
Te1_7 Y10_7 3.159227 1_555
Te1_7 Y10_3 3.159227 1_655
Te1_7 Y3_7 3.191457 1_555
Te1_7 Y12_7 3.262177 1_555
Te2_0 Y15_6 3.114608 1_555
Te2_0 Y15_2 3.114608 1_555
Te2_0 Y21_6 3.120026 1_555
Te2_0 Y21_2 3.120026 1_555
Te2_0 Y19_4 3.191100 1_555
Te2_0 Y19_0 3.191100 1_555
Te2_0 Y14_0 3.227159 1_555
Te2_0 Y7_2 3.734126 1_555
Te2_1 Y15_7 3.114608 1_555
Te2_1 Y15_3 3.114608 1_555
Te2_1 Y21_7 3.120026 1_555
Te2_1 Y21_3 3.120026 1_555
Te2_1 Y19_5 3.191100 1_555
Te2_1 Y19_1 3.191100 1_555
Te2_1 Y14_1 3.227159 1_555
Te2_1 Y7_3 3.734126 1_555
Te2_2 Y15_4 3.114608 1_565
Te2_2 Y15_0 3.114608 1_565
Te2_2 Y21_4 3.120026 1_565
Te2_2 Y21_0 3.120026 1_565
Te2_2 Y19_6 3.191100 1_555
Te2_2 Y19_2 3.191100 1_555
Te2_2 Y14_2 3.227159 1_555
Te2_2 Y7_0 3.734126 1_565
Te2_3 Y15_5 3.114608 1_565
Te2_3 Y15_1 3.114608 1_565
Te2_3 Y21_5 3.120026 1_565
Te2_3 Y21_1 3.120026 1_565
Te2_3 Y19_7 3.191100 1_555
Te2_3 Y19_3 3.191100 1_555
Te2_3 Y14_3 3.227159 1_555
Te2_3 Y7_1 3.734126 1_565
Te2_4 Y15_6 3.114608 1_555
Te2_4 Y15_2 3.114608 1_655
Te2_4 Y21_6 3.120026 1_555
Te2_4 Y21_2 3.120026 1_655
Te2_4 Y19_4 3.191100 1_555
Te2_4 Y19_0 3.191100 1_655
Te2_4 Y14_4 3.227159 1_555
Te2_4 Y7_6 3.734126 1_555
Te2_5 Y15_7 3.114608 1_555
Te2_5 Y15_3 3.114608 1_655
Te2_5 Y21_7 3.120026 1_555
Te2_5 Y21_3 3.120026 1_655
Te2_5 Y19_5 3.191100 1_555
Te2_5 Y19_1 3.191100 1_655
Te2_5 Y14_5 3.227159 1_555
Te2_5 Y7_7 3.734126 1_555
Te2_6 Y15_4 3.114608 1_565
Te2_6 Y15_0 3.114608 1_665
Te2_6 Y21_4 3.120026 1_565
Te2_6 Y21_0 3.120026 1_665
Te2_6 Y19_6 3.191100 1_555
Te2_6 Y19_2 3.191100 1_655
Te2_6 Y14_6 3.227159 1_555
Te2_6 Y7_4 3.734126 1_565
Te2_7 Y15_5 3.114608 1_565
Te2_7 Y15_1 3.114608 1_665
Te2_7 Y21_5 3.120026 1_565
Te2_7 Y21_1 3.120026 1_665
Te2_7 Y19_7 3.191100 1_555
Te2_7 Y19_3 3.191100 1_655
Te2_7 Y14_7 3.227159 1_555
Te2_7 Y7_5 3.734126 1_565
Te3_0 Y15_4 3.079987 1_555
Te3_0 Y15_0 3.079987 1_555
Te3_0 Y5_0 3.109483 1_555
Te3_0 Y13_4 3.159227 1_555
Te3_0 Y13_0 3.159227 1_555
Te3_0 Y7_0 3.191457 1_555
Te3_0 Y16_0 3.262177 1_555
Te3_1 Y15_5 3.079987 1_555
Te3_1 Y15_1 3.079987 1_555
Te3_1 Y5_1 3.109483 1_555
Te3_1 Y13_5 3.159227 1_555
Te3_1 Y13_1 3.159227 1_555
Te3_1 Y7_1 3.191457 1_555
Te3_1 Y16_1 3.262177 1_555
Te3_2 Y15_6 3.079987 1_555
Te3_2 Y15_2 3.079987 1_555
Te3_2 Y5_2 3.109483 1_555
Te3_2 Y13_6 3.159227 1_555
Te3_2 Y13_2 3.159227 1_555
Te3_2 Y7_2 3.191457 1_555
Te3_2 Y16_2 3.262177 1_555
Te3_3 Y15_7 3.079987 1_555
Te3_3 Y15_3 3.079987 1_555
Te3_3 Y5_3 3.109483 1_555
Te3_3 Y13_7 3.159227 1_555
Te3_3 Y13_3 3.159227 1_555
Te3_3 Y7_3 3.191457 1_555
Te3_3 Y16_3 3.262177 1_555
Te3_4 Y15_4 3.079987 1_555
Te3_4 Y15_0 3.079987 1_655
Te3_4 Y5_4 3.109483 1_555
Te3_4 Y13_4 3.159227 1_555
Te3_4 Y13_0 3.159227 1_655
Te3_4 Y7_4 3.191457 1_555
Te3_4 Y16_4 3.262177 1_555
Te3_5 Y15_5 3.079987 1_555
Te3_5 Y15_1 3.079987 1_655
Te3_5 Y5_5 3.109483 1_555
Te3_5 Y13_5 3.159227 1_555
Te3_5 Y13_1 3.159227 1_655
Te3_5 Y7_5 3.191457 1_555
Te3_5 Y16_5 3.262177 1_555
Te3_6 Y15_6 3.079987 1_555
Te3_6 Y15_2 3.079987 1_655
Te3_6 Y5_6 3.109483 1_555
Te3_6 Y13_6 3.159227 1_555
Te3_6 Y13_2 3.159227 1_655
Te3_6 Y7_6 3.191457 1_555
Te3_6 Y16_6 3.262177 1_555
Te3_7 Y15_7 3.079987 1_555
Te3_7 Y15_3 3.079987 1_655
Te3_7 Y5_7 3.109483 1_555
Te3_7 Y13_7 3.159227 1_555
Te3_7 Y13_3 3.159227 1_655
Te3_7 Y7_7 3.191457 1_555
Te3_7 Y16_7 3.262177 1_555
Te4_0 Y22_0 3.079987 1_555
Te4_0 Y22_4 3.079987 1_455
Te4_0 Y21_2 3.109483 1_555
Te4_0 Y2_0 3.159227 1_555
Te4_0 Y2_4 3.159227 1_455
Te4_0 Y19_0 3.191457 1_555
Te4_0 Y11_0 3.262177 1_555
Te4_1 Y22_1 3.079987 1_555
Te4_1 Y22_5 3.079987 1_455
Te4_1 Y21_3 3.109483 1_555
Te4_1 Y2_1 3.159227 1_555
Te4_1 Y2_5 3.159227 1_455
Te4_1 Y19_1 3.191457 1_555
Te4_1 Y11_1 3.262177 1_555
Te4_2 Y22_2 3.079987 1_555
Te4_2 Y22_6 3.079987 1_455
Te4_2 Y21_0 3.109483 1_565
Te4_2 Y2_2 3.159227 1_555
Te4_2 Y2_6 3.159227 1_455
Te4_2 Y19_2 3.191457 1_555
Te4_2 Y11_2 3.262177 1_555
Te4_3 Y22_3 3.079987 1_555
Te4_3 Y22_7 3.079987 1_455
Te4_3 Y21_1 3.109483 1_565
Te4_3 Y2_3 3.159227 1_555
Te4_3 Y2_7 3.159227 1_455
Te4_3 Y19_3 3.191457 1_555
Te4_3 Y11_3 3.262177 1_555
Te4_4 Y22_0 3.079987 1_555
Te4_4 Y22_4 3.079987 1_555
Te4_4 Y21_6 3.109483 1_555
Te4_4 Y2_0 3.159227 1_555
Te4_4 Y2_4 3.159227 1_555
Te4_4 Y19_4 3.191457 1_555
Te4_4 Y11_4 3.262177 1_555
Te4_5 Y22_1 3.079987 1_555
Te4_5 Y22_5 3.079987 1_555
Te4_5 Y21_7 3.109483 1_555
Te4_5 Y2_1 3.159227 1_555
Te4_5 Y2_5 3.159227 1_555
Te4_5 Y19_5 3.191457 1_555
Te4_5 Y11_5 3.262177 1_555
Te4_6 Y22_2 3.079987 1_555
Te4_6 Y22_6 3.079987 1_555
Te4_6 Y21_4 3.109483 1_565
Te4_6 Y2_2 3.159227 1_555
Te4_6 Y2_6 3.159227 1_555
Te4_6 Y19_6 3.191457 1_555
Te4_6 Y11_6 3.262177 1_555
Te4_7 Y22_3 3.079987 1_555
Te4_7 Y22_7 3.079987 1_555
Te4_7 Y21_5 3.109483 1_565
Te4_7 Y2_3 3.159227 1_555
Te4_7 Y2_7 3.159227 1_555
Te4_7 Y19_7 3.191457 1_555
Te4_7 Y11_7 3.262177 1_555
Te5_0 Y23_4 3.114608 1_555
Te5_0 Y23_0 3.114608 1_555
Te5_0 Y26_4 3.120026 1_555
Te5_0 Y26_0 3.120026 1_555
Te5_0 Y9_4 3.191100 1_555
Te5_0 Y9_0 3.191100 1_555
Te5_0 Y6_0 3.227159 1_555
Te5_0 Y3_0 3.734126 1_555
Te5_1 Y23_5 3.114608 1_555
Te5_1 Y23_1 3.114608 1_555
Te5_1 Y26_5 3.120026 1_555
Te5_1 Y26_1 3.120026 1_555
Te5_1 Y9_5 3.191100 1_555
Te5_1 Y9_1 3.191100 1_555
Te5_1 Y6_1 3.227159 1_555
Te5_1 Y3_1 3.734126 1_555
Te5_2 Y23_6 3.114608 1_555
Te5_2 Y23_2 3.114608 1_555
Te5_2 Y26_6 3.120026 1_555
Te5_2 Y26_2 3.120026 1_555
Te5_2 Y9_6 3.191100 1_555
Te5_2 Y9_2 3.191100 1_555
Te5_2 Y6_2 3.227159 1_555
Te5_2 Y3_2 3.734126 1_555
Te5_3 Y23_7 3.114608 1_555
Te5_3 Y23_3 3.114608 1_555
Te5_3 Y26_7 3.120026 1_555
Te5_3 Y26_3 3.120026 1_555
Te5_3 Y9_7 3.191100 1_555
Te5_3 Y9_3 3.191100 1_555
Te5_3 Y6_3 3.227159 1_555
Te5_3 Y3_3 3.734126 1_555
Te5_4 Y23_4 3.114608 1_555
Te5_4 Y23_0 3.114608 1_655
Te5_4 Y26_4 3.120026 1_555
Te5_4 Y26_0 3.120026 1_655
Te5_4 Y9_4 3.191100 1_555
Te5_4 Y9_0 3.191100 1_655
Te5_4 Y6_4 3.227159 1_555
Te5_4 Y3_4 3.734126 1_555
Te5_5 Y23_5 3.114608 1_555
Te5_5 Y23_1 3.114608 1_655
Te5_5 Y26_5 3.120026 1_555
Te5_5 Y26_1 3.120026 1_655
Te5_5 Y9_5 3.191100 1_555
Te5_5 Y9_1 3.191100 1_655
Te5_5 Y6_5 3.227159 1_555
Te5_5 Y3_5 3.734126 1_555
Te5_6 Y23_6 3.114608 1_555
Te5_6 Y23_2 3.114608 1_655
Te5_6 Y26_6 3.120026 1_555
Te5_6 Y26_2 3.120026 1_655
Te5_6 Y9_6 3.191100 1_555
Te5_6 Y9_2 3.191100 1_655
Te5_6 Y6_6 3.227159 1_555
Te5_6 Y3_6 3.734126 1_555
Te5_7 Y23_7 3.114608 1_555
Te5_7 Y23_3 3.114608 1_655
Te5_7 Y26_7 3.120026 1_555
Te5_7 Y26_3 3.120026 1_655
Te5_7 Y9_7 3.191100 1_555
Te5_7 Y9_3 3.191100 1_655
Te5_7 Y6_7 3.227159 1_555
Te5_7 Y3_7 3.734126 1_555
Te6_0 Y24_2 3.114608 1_545
Te6_0 Y24_6 3.114608 1_445
Te6_0 Y1_2 3.120026 1_545
Te6_0 Y1_6 3.120026 1_445
Te6_0 Y3_0 3.191100 1_555
Te6_0 Y3_4 3.191100 1_455
Te6_0 Y27_0 3.227159 1_555
Te6_0 Y9_2 3.734126 1_545
Te6_1 Y24_3 3.114608 1_545
Te6_1 Y24_7 3.114608 1_445
Te6_1 Y1_3 3.120026 1_545
Te6_1 Y1_7 3.120026 1_445
Te6_1 Y3_1 3.191100 1_555
Te6_1 Y3_5 3.191100 1_455
Te6_1 Y27_1 3.227159 1_555
Te6_1 Y9_3 3.734126 1_545
Te6_2 Y24_0 3.114608 1_555
Te6_2 Y24_4 3.114608 1_455
Te6_2 Y1_0 3.120026 1_555
Te6_2 Y1_4 3.120026 1_455
Te6_2 Y3_2 3.191100 1_555
Te6_2 Y3_6 3.191100 1_455
Te6_2 Y27_2 3.227159 1_555
Te6_2 Y9_0 3.734126 1_555
Te6_3 Y24_1 3.114608 1_555
Te6_3 Y24_5 3.114608 1_455
Te6_3 Y1_1 3.120026 1_555
Te6_3 Y1_5 3.120026 1_455
Te6_3 Y3_3 3.191100 1_555
Te6_3 Y3_7 3.191100 1_455
Te6_3 Y27_3 3.227159 1_555
Te6_3 Y9_1 3.734126 1_555
Te6_4 Y24_2 3.114608 1_545
Te6_4 Y24_6 3.114608 1_545
Te6_4 Y1_2 3.120026 1_545
Te6_4 Y1_6 3.120026 1_545
Te6_4 Y3_0 3.191100 1_555
Te6_4 Y3_4 3.191100 1_555
Te6_4 Y27_4 3.227159 1_555
Te6_4 Y9_6 3.734126 1_545
Te6_5 Y24_3 3.114608 1_545
Te6_5 Y24_7 3.114608 1_545
Te6_5 Y1_3 3.120026 1_545
Te6_5 Y1_7 3.120026 1_545
Te6_5 Y3_1 3.191100 1_555
Te6_5 Y3_5 3.191100 1_555
Te6_5 Y27_5 3.227159 1_555
Te6_5 Y9_7 3.734126 1_545
Te6_6 Y24_0 3.114608 1_555
Te6_6 Y24_4 3.114608 1_555
Te6_6 Y1_0 3.120026 1_555
Te6_6 Y1_4 3.120026 1_555
Te6_6 Y3_2 3.191100 1_555
Te6_6 Y3_6 3.191100 1_555
Te6_6 Y27_6 3.227159 1_555
Te6_6 Y9_4 3.734126 1_555
Te6_7 Y24_1 3.114608 1_555
Te6_7 Y24_5 3.114608 1_555
Te6_7 Y1_1 3.120026 1_555
Te6_7 Y1_5 3.120026 1_555
Te6_7 Y3_3 3.191100 1_555
Te6_7 Y3_7 3.191100 1_555
Te6_7 Y27_7 3.227159 1_555
Te6_7 Y9_5 3.734126 1_555
Te7_0 Y22_0 3.114608 1_555
Te7_0 Y22_4 3.114608 1_455
Te7_0 Y5_0 3.120026 1_555
Te7_0 Y5_4 3.120026 1_455
Te7_0 Y7_0 3.191100 1_555
Te7_0 Y7_4 3.191100 1_455
Te7_0 Y17_0 3.227159 1_555
Te7_0 Y19_0 3.734126 1_555
Te7_1 Y22_1 3.114608 1_555
Te7_1 Y22_5 3.114608 1_455
Te7_1 Y5_1 3.120026 1_555
Te7_1 Y5_5 3.120026 1_455
Te7_1 Y7_1 3.191100 1_555
Te7_1 Y7_5 3.191100 1_455
Te7_1 Y17_1 3.227159 1_555
Te7_1 Y19_1 3.734126 1_555
Te7_2 Y22_2 3.114608 1_555
Te7_2 Y22_6 3.114608 1_455
Te7_2 Y5_2 3.120026 1_555
Te7_2 Y5_6 3.120026 1_455
Te7_2 Y7_2 3.191100 1_555
Te7_2 Y7_6 3.191100 1_455
Te7_2 Y17_2 3.227159 1_555
Te7_2 Y19_2 3.734126 1_555
Te7_3 Y22_3 3.114608 1_555
Te7_3 Y22_7 3.114608 1_455
Te7_3 Y5_3 3.120026 1_555
Te7_3 Y5_7 3.120026 1_455
Te7_3 Y7_3 3.191100 1_555
Te7_3 Y7_7 3.191100 1_455
Te7_3 Y17_3 3.227159 1_555
Te7_3 Y19_3 3.734126 1_555
Te7_4 Y22_0 3.114608 1_555
Te7_4 Y22_4 3.114608 1_555
Te7_4 Y5_0 3.120026 1_555
Te7_4 Y5_4 3.120026 1_555
Te7_4 Y7_0 3.191100 1_555
Te7_4 Y7_4 3.191100 1_555
Te7_4 Y17_4 3.227159 1_555
Te7_4 Y19_4 3.734126 1_555
Te7_5 Y22_1 3.114608 1_555
Te7_5 Y22_5 3.114608 1_555
Te7_5 Y5_1 3.120026 1_555
Te7_5 Y5_5 3.120026 1_555
Te7_5 Y7_1 3.191100 1_555
Te7_5 Y7_5 3.191100 1_555
Te7_5 Y17_5 3.227159 1_555
Te7_5 Y19_5 3.734126 1_555
Te7_6 Y22_2 3.114608 1_555
Te7_6 Y22_6 3.114608 1_555
Te7_6 Y5_2 3.120026 1_555
Te7_6 Y5_6 3.120026 1_555
Te7_6 Y7_2 3.191100 1_555
Te7_6 Y7_6 3.191100 1_555
Te7_6 Y17_6 3.227159 1_555
Te7_6 Y19_6 3.734126 1_555
Te7_7 Y22_3 3.114608 1_555
Te7_7 Y22_7 3.114608 1_555
Te7_7 Y5_3 3.120026 1_555
Te7_7 Y5_7 3.120026 1_555
Te7_7 Y7_3 3.191100 1_555
Te7_7 Y7_7 3.191100 1_555
Te7_7 Y17_7 3.227159 1_555
Te7_7 Y19_7 3.734126 1_555
