# generated using pymatgen
data_Ba11(Nb3S14)2
_symmetry_space_group_name_H-M   'P 1'
_cell_length_a   7.02025300
_cell_length_b   12.03567432
_cell_length_c   14.62810646
_cell_angle_alpha   98.11874551
_cell_angle_beta   103.63682791
_cell_angle_gamma   90.33057068
_symmetry_Int_Tables_number   1
_chemical_formula_structural   Ba11(Nb3S14)2
_chemical_formula_sum   'Ba11 Nb6 S28'
_cell_volume   1188.11780627
_cell_formula_units_Z   1
loop_
 _symmetry_equiv_pos_site_id
 _symmetry_equiv_pos_as_xyz
  1  'x, y, z'
loop_
 _atom_site_type_symbol
 _atom_site_label
 _atom_site_symmetry_multiplicity
 _atom_site_fract_x
 _atom_site_fract_y
 _atom_site_fract_z
 _atom_site_occupancy
  Ba  Ba0  1  0.10249600  0.03342000  0.21539500  1
  Ba  Ba1  1  0.30504200  0.10548900  0.60551400  1
  Ba  Ba2  1  0.60936200  0.53375100  0.21128600  1
  Ba  Ba3  1  0.80189900  0.59398300  0.60353100  1
  Ba  Ba4  1  0.96558700  0.65798400  0.99577100  1
  Ba  Ba5  1  0.98810000  0.28085000  0.00134600  1
  Ba  Ba6  1  0.19758500  0.39968900  0.39741900  1
  Ba  Ba7  1  0.39353200  0.46095400  0.78794200  1
  Ba  Ba8  1  0.49775200  0.85466900  0.00714700  1
  Ba  Ba9  1  0.69751600  0.89981900  0.39614900  1
  Ba  Ba10  1  0.88909000  0.96534200  0.78532100  1
  Nb  Nb0  1  0.62540000  0.21640500  0.26676800  1
  Nb  Nb1  1  0.76023800  0.24344400  0.50013600  1
  Nb  Nb2  1  0.86486300  0.29210300  0.73526200  1
  Nb  Nb3  1  0.13568000  0.70141900  0.26416700  1
  Nb  Nb4  1  0.25380800  0.75571100  0.49968000  1
  Nb  Nb5  1  0.35444100  0.78755900  0.73243800  1
  S  S0  1  0.86193600  0.28385500  0.19927600  1
  S  S1  1  0.60101900  0.02816400  0.20487200  1
  S  S2  1  0.34247700  0.28328400  0.18492100  1
  S  S3  1  0.95097900  0.15129600  0.40042400  1
  S  S4  1  0.69618900  0.39503800  0.39703400  1
  S  S5  1  0.45245500  0.15513900  0.39848200  1
  S  S6  1  0.04501100  0.35313400  0.60662700  1
  S  S7  1  0.79861200  0.10077200  0.60311000  1
  S  S8  1  0.56770300  0.35204500  0.60933400  1
  S  S9  1  0.15511400  0.21328700  0.80693900  1
  S  S10  1  0.92123300  0.46819200  0.82563500  1
  S  S11  1  0.64876600  0.21510000  0.80829900  1
  S  S12  1  0.61582200  0.44805000  0.00023200  1
  S  S13  1  0.33415300  0.78625100  0.18455600  1
  S  S14  1  0.83951700  0.77878700  0.18969200  1
  S  S15  1  0.10210100  0.52573900  0.17345100  1
  S  S16  1  0.43547700  0.64849400  0.39016000  1
  S  S17  1  0.19707600  0.89695000  0.39581900  1
  S  S18  1  0.95646000  0.64655400  0.39048300  1
  S  S19  1  0.54832500  0.84675300  0.60066800  1
  S  S20  1  0.29675000  0.60430900  0.60284700  1
  S  S21  1  0.05320600  0.84550400  0.60195900  1
  S  S22  1  0.65273400  0.71786900  0.80927400  1
  S  S23  1  0.40122200  0.97123300  0.80274400  1
  S  S24  1  0.15078200  0.72278600  0.81817200  1
  S  S25  1  0.84672500  0.00844200  0.99972200  1
  S  S26  1  0.45423700  0.59406400  0.99803900  1
  S  S27  1  0.14440100  0.00814700  0.00031000  1
loop_
_geom_bond_atom_site_label_1
_geom_bond_atom_site_label_2
_geom_bond_distance
_geom_bond_site_symmetry_2
Ba0 S27 3.200836 1_555
Ba0 S25 3.212866 1_454
Ba0 S17 3.242698 1_545
Ba0 S3 3.280301 1_455
Ba0 S5 3.332042 1_555
Ba0 S13 3.423558 1_545
Ba0 S0 3.473392 1_455
Ba0 S1 3.487224 1_455
Ba0 S14 3.496276 1_445
Ba0 S1 3.539750 1_555
Ba0 S2 3.571425 1_555
Ba1 S23 3.435332 1_545
Ba1 S11 3.441678 1_555
Ba1 S9 3.445452 1_555
Ba1 S8 3.471392 1_555
Ba1 S7 3.474155 1_555
Ba1 S6 3.504222 1_555
Ba1 S3 3.528375 1_455
Ba1 S5 3.547062 1_555
Ba1 S7 3.547187 1_455
Ba1 S19 3.560262 1_545
Ba1 S21 3.573016 1_545
Ba1 S17 3.604231 1_545
Ba2 S12 3.124842 1_555
Ba2 S26 3.238892 1_554
Ba2 S18 3.255282 1_555
Ba2 S16 3.278538 1_555
Ba2 S4 3.324711 1_555
Ba2 S14 3.443377 1_555
Ba2 S2 3.465874 1_555
Ba2 S15 3.471118 1_555
Ba2 S0 3.504298 1_555
Ba2 S13 3.628827 1_555
Ba2 S15 3.629444 1_655
Ba3 S8 3.357051 1_555
Ba3 S6 3.372766 1_655
Ba3 S20 3.477907 1_655
Ba3 S21 3.500617 1_655
Ba3 S4 3.505427 1_555
Ba3 S19 3.534028 1_555
Ba3 S20 3.546873 1_555
Ba3 S22 3.551661 1_555
Ba3 S24 3.635320 1_655
Ba3 S18 3.665209 1_555
Ba3 S16 3.688018 1_555
Ba3 S10 3.697330 1_555
Ba4 S10 3.086984 1_555
Ba4 S15 3.196686 1_656
Ba4 S22 3.245630 1_555
Ba4 S14 3.313284 1_556
Ba4 S24 3.346811 1_655
Ba4 S13 3.476315 1_656
Ba4 S26 3.513533 1_655
Ba4 S12 3.531030 1_556
Ba4 S26 3.675754 1_555
Ba5 S2 3.198124 1_655
Ba5 S0 3.216952 1_555
Ba5 S11 3.232741 1_554
Ba5 S12 3.306063 1_555
Ba5 S9 3.324645 1_654
Ba5 S25 3.415295 1_554
Ba5 S27 3.465861 1_655
Ba5 S15 3.548620 1_655
Ba5 S10 3.604329 1_554
Ba6 S0 3.390769 1_455
Ba6 S18 3.430142 1_455
Ba6 S16 3.447224 1_555
Ba6 S5 3.453317 1_555
Ba6 S3 3.456872 1_455
Ba6 S4 3.502416 1_555
Ba6 S4 3.518713 1_455
Ba6 S20 3.533181 1_555
Ba6 S6 3.584667 1_555
Ba6 S2 3.596833 1_555
Ba6 S8 3.662081 1_555
Ba6 S15 3.723526 1_555
Ba7 S12 3.155444 1_556
Ba7 S26 3.190202 1_555
Ba7 S8 3.255299 1_555
Ba7 S6 3.261330 1_555
Ba7 S20 3.351889 1_555
Ba7 S11 3.480446 1_555
Ba7 S10 3.486690 1_455
Ba7 S9 3.487090 1_555
Ba7 S22 3.516348 1_555
Ba7 S24 3.613072 1_555
Ba7 S10 3.613194 1_555
Ba8 S27 3.092524 1_565
Ba8 S25 3.093372 1_564
Ba8 S26 3.130620 1_554
Ba8 S1 3.246447 1_565
Ba8 S13 3.275684 1_555
Ba8 S14 3.378487 1_555
Ba8 S23 3.407060 1_554
Ba8 S24 3.411060 1_554
Ba8 S22 3.525962 1_554
Ba9 S1 3.318596 1_565
Ba9 S3 3.487534 1_565
Ba9 S17 3.508541 1_655
Ba9 S16 3.510910 1_555
Ba9 S17 3.512044 1_555
Ba9 S7 3.523871 1_565
Ba9 S14 3.525677 1_555
Ba9 S5 3.530295 1_565
Ba9 S19 3.530551 1_555
Ba9 S18 3.559030 1_555
Ba9 S21 3.571586 1_655
Ba9 S13 3.605202 1_555
Ba10 S25 3.189967 1_565
Ba10 S27 3.200316 1_666
Ba10 S7 3.256602 1_565
Ba10 S19 3.298615 1_555
Ba10 S21 3.314482 1_655
Ba10 S9 3.447288 1_665
Ba10 S11 3.469296 1_565
Ba10 S24 3.488599 1_655
Ba10 S23 3.494226 1_555
Ba10 S22 3.501336 1_555
Ba10 S23 3.543447 1_655
Nb0 S2 2.279400 1_555
Nb0 S1 2.307621 1_555
Nb0 S0 2.318409 1_555
Nb0 S4 2.623817 1_555
Nb0 S5 2.687765 1_555
Nb0 S3 2.829674 1_555
Nb1 S3 2.373136 1_555
Nb1 S7 2.415522 1_555
Nb1 S5 2.453878 1_555
Nb1 S6 2.467073 1_655
Nb1 S4 2.504529 1_555
Nb1 S8 2.556503 1_555
Nb2 S11 2.308585 1_555
Nb2 S10 2.312613 1_555
Nb2 S9 2.333876 1_655
Nb2 S8 2.616570 1_555
Nb2 S6 2.679840 1_655
Nb2 S7 2.750005 1_555
Nb3 S15 2.311177 1_555
Nb3 S13 2.329071 1_555
Nb3 S14 2.370143 1_455
Nb3 S16 2.598097 1_555
Nb3 S18 2.620025 1_455
Nb3 S17 2.783810 1_555
Nb4 S19 2.394639 1_555
Nb4 S17 2.410084 1_555
Nb4 S21 2.438040 1_555
Nb4 S16 2.501379 1_555
Nb4 S20 2.501486 1_555
Nb4 S18 2.537390 1_455
Nb5 S23 2.289691 1_555
Nb5 S24 2.309442 1_555
Nb5 S22 2.351330 1_555
Nb5 S20 2.658711 1_555
Nb5 S21 2.662938 1_555
Nb5 S19 2.772985 1_555
S12 S26 2.097131 1_554
S25 S27 2.087775 1_656
