# generated using pymatgen
data_Ce9DyO20
_symmetry_space_group_name_H-M   'P 1'
_cell_length_a   6.65062188
_cell_length_b   7.67917738
_cell_length_c   8.58269262
_cell_angle_alpha   102.92681530
_cell_angle_beta   97.39291872
_cell_angle_gamma   106.80852042
_symmetry_Int_Tables_number   1
_chemical_formula_structural   Ce9DyO20
_chemical_formula_sum   'Ce9 Dy1 O20'
_cell_volume   400.08910295
_cell_formula_units_Z   1
loop_
 _symmetry_equiv_pos_site_id
 _symmetry_equiv_pos_as_xyz
  1  'x, y, z'
loop_
 _atom_site_type_symbol
 _atom_site_label
 _atom_site_symmetry_multiplicity
 _atom_site_fract_x
 _atom_site_fract_y
 _atom_site_fract_z
 _atom_site_occupancy
  Ce  Ce0  1  0.80072959  0.60141164  0.60179339  1
  Ce  Ce1  1  -0.00000000  0.50000000  -0.00000000  1
  Ce  Ce2  1  0.59965779  0.19872006  0.19874250  1
  Ce  Ce3  1  0.80048060  0.09986943  0.60202448  1
  Ce  Ce4  1  0.60238561  0.70135253  0.19933020  1
  Ce  Ce5  1  0.19927041  0.39858836  0.39820661  1
  Ce  Ce6  1  0.39761439  0.29864747  0.80066980  1
  Ce  Ce7  1  0.19951940  0.90013057  0.39797552  1
  Ce  Ce8  1  0.40034221  0.80127994  0.80125750  1
  Dy  Dy0  1  -0.00000000  0.00000000  -0.00000000  1
  O  O0  1  0.85009075  0.32480110  0.45076658  1
  O  O1  1  0.64800964  0.92436875  0.05058018  1
  O  O2  1  0.94991666  0.77351639  0.15096875  1
  O  O3  1  0.85074355  0.82574650  0.45044011  1
  O  O4  1  0.44934622  0.52433000  0.65006327  1
  O  O5  1  0.64922590  0.42498858  0.04945822  1
  O  O6  1  0.74876531  0.37467447  0.75032639  1
  O  O7  1  0.25159697  0.12574144  0.25143273  1
  O  O8  1  0.44932425  0.02522518  0.64965087  1
  O  O9  1  0.94969895  0.27695196  0.15101232  1
  O  O10  1  0.55067575  0.97477482  0.35034913  1
  O  O11  1  0.05030105  0.72304804  0.84898768  1
  O  O12  1  0.25123469  0.62532553  0.24967361  1
  O  O13  1  0.74840303  0.87425856  0.74856727  1
  O  O14  1  0.35077410  0.57501142  0.95054178  1
  O  O15  1  0.05008334  0.22648361  0.84903125  1
  O  O16  1  0.55065378  0.47567000  0.34993673  1
  O  O17  1  0.14925645  0.17425350  0.54955989  1
  O  O18  1  0.35199036  0.07563125  0.94941982  1
  O  O19  1  0.14990925  0.67519890  0.54923342  1
loop_
_geom_bond_atom_site_label_1
_geom_bond_atom_site_label_2
_geom_bond_distance
_geom_bond_site_symmetry_2
Ce0 O11 2.332181 1_655
Ce0 O13 2.334874 1_555
Ce0 O6 2.352588 1_555
Ce0 O19 2.353804 1_655
Ce0 O4 2.354154 1_555
Ce0 O3 2.355172 1_555
Ce0 O0 2.362380 1_555
Ce0 O16 2.362878 1_555
Ce1 O11 2.344989 1_554
Ce1 O9 2.344989 1_455
Ce1 O15 2.345097 1_554
Ce1 O2 2.345097 1_455
Ce1 O6 2.352825 1_454
Ce1 O12 2.352825 1_555
Ce1 O5 2.354000 1_455
Ce1 O14 2.354000 1_554
Ce2 O1 2.336115 1_545
Ce2 O18 2.339460 1_554
Ce2 O9 2.344131 1_555
Ce2 O7 2.347229 1_555
Ce2 O5 2.354333 1_555
Ce2 O10 2.354335 1_545
Ce2 O16 2.363920 1_555
Ce2 O0 2.365044 1_555
Ce3 O15 2.331090 1_655
Ce3 O13 2.333112 1_545
Ce3 O6 2.349963 1_555
Ce3 O8 2.350759 1_555
Ce3 O17 2.350968 1_655
Ce3 O3 2.351407 1_545
Ce3 O0 2.358306 1_555
Ce3 O10 2.360895 1_545
Ce4 O2 2.330345 1_555
Ce4 O1 2.330726 1_555
Ce4 O14 2.348511 1_554
Ce4 O5 2.349396 1_555
Ce4 O10 2.349796 1_555
Ce4 O3 2.352842 1_555
Ce4 O16 2.358935 1_555
Ce4 O12 2.359132 1_555
Ce5 O9 2.332181 1_455
Ce5 O7 2.334874 1_555
Ce5 O12 2.352588 1_555
Ce5 O0 2.353804 1_455
Ce5 O16 2.354154 1_555
Ce5 O17 2.355172 1_555
Ce5 O19 2.362380 1_555
Ce5 O4 2.362878 1_555
Ce6 O15 2.330345 1_555
Ce6 O18 2.330726 1_555
Ce6 O5 2.348511 1_556
Ce6 O14 2.349396 1_555
Ce6 O8 2.349796 1_555
Ce6 O17 2.352842 1_555
Ce6 O4 2.358935 1_555
Ce6 O6 2.359132 1_555
Ce7 O2 2.331090 1_455
Ce7 O7 2.333112 1_565
Ce7 O12 2.349963 1_555
Ce7 O10 2.350759 1_555
Ce7 O3 2.350968 1_455
Ce7 O17 2.351407 1_565
Ce7 O19 2.358306 1_555
Ce7 O8 2.360895 1_565
Ce8 O18 2.336115 1_565
Ce8 O1 2.339460 1_556
Ce8 O11 2.344131 1_555
Ce8 O13 2.347229 1_555
Ce8 O14 2.354333 1_555
Ce8 O8 2.354335 1_565
Ce8 O4 2.363920 1_555
Ce8 O19 2.365044 1_555
Dy0 O13 2.364971 1_444
Dy0 O7 2.364971 1_555
Dy0 O1 2.365132 1_445
Dy0 O18 2.365132 1_554
Dy0 O2 2.366212 1_445
Dy0 O15 2.366212 1_554
Dy0 O11 2.367418 1_544
Dy0 O9 2.367418 1_455
