# generated using pymatgen
data_LuNiGe2
_symmetry_space_group_name_H-M   'P 1'
_cell_length_a   4.08670776
_cell_length_b   8.36977064
_cell_length_c   9.12658817
_cell_angle_alpha   117.29279144
_cell_angle_beta   102.93763424
_cell_angle_gamma   89.99999219
_symmetry_Int_Tables_number   1
_chemical_formula_structural   LuNiGe2
_chemical_formula_sum   'Lu4 Ni4 Ge8'
_cell_volume   268.47189207
_cell_formula_units_Z   4
loop_
 _symmetry_equiv_pos_site_id
 _symmetry_equiv_pos_as_xyz
  1  'x, y, z'
loop_
 _atom_site_type_symbol
 _atom_site_label
 _atom_site_symmetry_multiplicity
 _atom_site_fract_x
 _atom_site_fract_y
 _atom_site_fract_z
 _atom_site_occupancy
  Lu  Lu0  1  0.50000000  0.23774597  -0.00000000  1
  Lu  Lu1  1  0.50000000  0.76225403  0.00000000  1
  Lu  Lu2  1  0.29640844  0.79640844  0.59281588  1
  Lu  Lu3  1  0.70359156  0.20359156  0.40718412  1
  Ni  Ni0  1  0.14754552  0.89765494  0.29509203  1
  Ni  Ni1  1  0.85245448  0.10234506  0.70490797  1
  Ni  Ni2  1  0.14754552  0.39743710  0.29509203  1
  Ni  Ni3  1  0.85245448  0.60256290  0.70490797  1
  Ge  Ge0  1  0.30280600  0.14428430  0.60561299  1
  Ge  Ge1  1  0.07860225  0.57860225  0.15720551  1
  Ge  Ge2  1  0.07724594  0.07724594  0.15448988  1
  Ge  Ge3  1  0.69719400  0.85571570  0.39438701  1
  Ge  Ge4  1  0.92275406  0.92275406  0.84551012  1
  Ge  Ge5  1  0.30280600  0.46133069  0.60561299  1
  Ge  Ge6  1  0.92139775  0.42139775  0.84279449  1
  Ge  Ge7  1  0.69719400  0.53866931  0.39438701  1
loop_
_geom_bond_atom_site_label_1
_geom_bond_atom_site_label_2
_geom_bond_distance
_geom_bond_site_symmetry_2
Lu0 Ni1 3.090345 1_454
Lu0 Ni2 3.090345 1_655
Lu0 Ni2 3.090348 1_555
Lu0 Ni1 3.090348 1_554
Lu1 Ni0 3.090345 1_655
Lu1 Ni3 3.090345 1_454
Lu1 Ni3 3.090348 1_554
Lu1 Ni0 3.090348 1_555
Lu2 Ni1 3.053496 1_465
Lu2 Ni1 3.053496 1_565
Lu2 Ni3 3.053501 1_555
Lu2 Ni3 3.053502 1_455
Lu2 Ni0 3.137331 1_555
Lu2 Ni2 3.137336 1_555
Lu3 Ni0 3.053496 1_645
Lu3 Ni0 3.053496 1_545
Lu3 Ni2 3.053501 1_555
Lu3 Ni2 3.053502 1_655
Lu3 Ni1 3.137331 1_555
Lu3 Ni3 3.137336 1_555
Ge0 Ni1 2.317390 1_455
Ge0 Ni1 2.317397 1_555
Ge0 Ni0 2.554423 1_545
Ge0 Ge5 2.653606 1_555
Ge0 Lu2 2.859851 1_545
Ge0 Lu3 2.891599 1_455
Ge0 Lu3 2.891599 1_555
Ge0 Lu0 3.214975 1_556
Ge1 Ni2 2.356568 1_555
Ge1 Ni0 2.356575 1_555
Ge1 Ge6 2.467797 1_454
Ge1 Lu0 3.242812 1_455
Ge1 Lu0 3.242814 1_555
Ge1 Lu1 3.242817 1_455
Ge1 Lu1 3.242820 1_555
Ge2 Ni2 2.364816 1_555
Ge2 Ni0 2.364831 1_545
Ge2 Ge4 2.425167 1_444
Ge2 Lu3 2.847646 1_555
Ge2 Lu3 2.847655 1_455
Ge2 Lu0 3.099230 1_555
Ge2 Lu0 3.099235 1_455
Ge2 Lu1 3.099240 1_545
Ge2 Lu1 3.099246 1_445
Ge3 Ni0 2.317390 1_655
Ge3 Ni0 2.317397 1_555
Ge3 Ni1 2.554423 1_565
Ge3 Ge7 2.653606 1_555
Ge3 Lu3 2.859851 1_565
Ge3 Lu2 2.891599 1_655
Ge3 Lu2 2.891599 1_555
Ge3 Lu1 3.214975 1_555
Ge4 Ni3 2.364816 1_555
Ge4 Ni1 2.364831 1_565
Ge4 Lu2 2.847646 1_555
Ge4 Lu2 2.847655 1_655
Ge4 Lu1 3.099230 1_556
Ge4 Lu1 3.099235 1_656
Ge4 Lu0 3.099240 1_566
Ge4 Lu0 3.099246 1_666
Ge5 Ni3 2.317385 1_455
Ge5 Ni3 2.317392 1_555
Ge5 Ni2 2.554418 1_555
Ge5 Lu2 2.859843 1_555
Ge5 Lu3 2.891611 1_555
Ge5 Lu3 2.891611 1_455
Ge5 Lu1 3.214971 1_556
Ge6 Ni3 2.356568 1_555
Ge6 Ni1 2.356575 1_555
Ge6 Lu1 3.242812 1_656
Ge6 Lu1 3.242814 1_556
Ge6 Lu0 3.242817 1_656
Ge6 Lu0 3.242820 1_556
Ge7 Ni2 2.317385 1_655
Ge7 Ni2 2.317392 1_555
Ge7 Ni3 2.554418 1_555
Ge7 Lu3 2.859843 1_555
Ge7 Lu2 2.891611 1_555
Ge7 Lu2 2.891611 1_655
Ge7 Lu0 3.214971 1_555
