# generated using pymatgen
data_Ca(H8O5)2
_symmetry_space_group_name_H-M   'P 1'
_cell_length_a   6.23039570
_cell_length_b   6.23039570
_cell_length_c   10.89226346
_cell_angle_alpha   89.91215467
_cell_angle_beta   89.91215467
_cell_angle_gamma   89.66749178
_symmetry_Int_Tables_number   1
_chemical_formula_structural   Ca(H8O5)2
_chemical_formula_sum   'Ca2 H32 O20'
_cell_volume   422.80592896
_cell_formula_units_Z   2
loop_
 _symmetry_equiv_pos_site_id
 _symmetry_equiv_pos_as_xyz
  1  'x, y, z'
loop_
 _atom_site_type_symbol
 _atom_site_label
 _atom_site_symmetry_multiplicity
 _atom_site_fract_x
 _atom_site_fract_y
 _atom_site_fract_z
 _atom_site_occupancy
  Ca  Ca0  1  0.00389800  0.99573100  0.75164900  1
  Ca  Ca1  1  0.99573100  0.00389800  0.25164900  1
  H  H0  1  0.73691600  0.62157800  0.65751700  1
  H  H1  1  0.86682600  0.69730400  0.54049200  1
  H  H2  1  0.03524900  0.44166600  0.63147900  1
  H  H3  1  0.28038200  0.38157700  0.64545900  1
  H  H4  1  0.44617900  0.96569700  0.63202800  1
  H  H5  1  0.38053200  0.72293200  0.64686100  1
  H  H6  1  0.62303700  0.26679700  0.65675600  1
  H  H7  1  0.69801400  0.13386000  0.54010600  1
  H  H8  1  0.26679700  0.62303700  0.15675600  1
  H  H9  1  0.13386000  0.69801400  0.04010600  1
  H  H10  1  0.72293200  0.38053200  0.14686100  1
  H  H11  1  0.96569700  0.44617900  0.13202800  1
  H  H12  1  0.62157800  0.73691600  0.15751700  1
  H  H13  1  0.69730400  0.86682600  0.04049200  1
  H  H14  1  0.38157700  0.28038200  0.14545900  1
  H  H15  1  0.44166600  0.03524900  0.13147900  1
  H  H16  1  0.26455200  0.37543300  0.34349400  1
  H  H17  1  0.13352800  0.30272300  0.46040500  1
  H  H18  1  0.96541300  0.55908100  0.36883200  1
  H  H19  1  0.72071900  0.61798300  0.35552700  1
  H  H20  1  0.55494900  0.03217200  0.36994100  1
  H  H21  1  0.61858800  0.27610600  0.35489100  1
  H  H22  1  0.38310800  0.72300300  0.35399800  1
  H  H23  1  0.30056400  0.86842400  0.46424600  1
  H  H24  1  0.72300300  0.38310800  0.85399800  1
  H  H25  1  0.86842400  0.30056400  0.96424600  1
  H  H26  1  0.03217200  0.55494900  0.86994100  1
  H  H27  1  0.27610600  0.61858800  0.85489100  1
  H  H28  1  0.37543300  0.26455200  0.84349400  1
  H  H29  1  0.30272300  0.13352800  0.96040500  1
  H  H30  1  0.61798300  0.72071900  0.85552700  1
  H  H31  1  0.55908100  0.96541300  0.86883200  1
  O  O0  1  0.50431300  0.49941300  0.68375800  1
  O  O1  1  0.49941300  0.50431300  0.18375800  1
  O  O2  1  0.49905900  0.49645400  0.32070700  1
  O  O3  1  0.49645400  0.49905900  0.82070700  1
  O  O4  1  0.88107500  0.67853100  0.63124700  1
  O  O5  1  0.13555800  0.31687200  0.62241100  1
  O  O6  1  0.31886600  0.86978100  0.62439100  1
  O  O7  1  0.68374800  0.12259100  0.63161900  1
  O  O8  1  0.12259100  0.68374800  0.13161900  1
  O  O9  1  0.86978100  0.31886600  0.12439100  1
  O  O10  1  0.67853100  0.88107500  0.13124700  1
  O  O11  1  0.31687200  0.13555800  0.12241100  1
  O  O12  1  0.11998400  0.31878300  0.36936400  1
  O  O13  1  0.86527500  0.68343600  0.37788100  1
  O  O14  1  0.68059000  0.12952400  0.37870400  1
  O  O15  1  0.31893700  0.86904700  0.37299200  1
  O  O16  1  0.86904700  0.31893700  0.87299200  1
  O  O17  1  0.12952400  0.68059000  0.87870400  1
  O  O18  1  0.31878300  0.11998400  0.86936400  1
  O  O19  1  0.68343600  0.86527500  0.87788100  1
loop_
_geom_bond_atom_site_label_1
_geom_bond_atom_site_label_2
_geom_bond_distance
_geom_bond_site_symmetry_2
Ca0 O18 2.473978 1_565
Ca0 O4 2.497950 1_455
Ca0 O7 2.509822 1_465
Ca0 O17 2.521933 1_555
Ca0 O6 2.522929 1_555
Ca0 O16 2.548116 1_465
Ca0 O19 2.558231 1_455
Ca0 O5 2.581608 1_565
Ca1 O12 2.473978 1_655
Ca1 O10 2.497950 1_545
Ca1 O8 2.509822 1_645
Ca1 O14 2.521933 1_555
Ca1 O9 2.522929 1_555
Ca1 O15 2.548116 1_645
Ca1 O13 2.558231 1_545
Ca1 O11 2.581608 1_655
H0 O4 1.008510 1_555
H0 O0 1.664961 1_555
H1 O4 0.999271 1_555
H2 O5 0.999637 1_555
H3 O5 1.022221 1_555
H3 O0 1.635286 1_555
H4 O6 0.999539 1_555
H5 O6 1.019867 1_555
H5 O0 1.637806 1_555
H6 O7 1.010824 1_555
H6 O0 1.649937 1_555
H7 O7 1.002992 1_555
H8 O8 1.010824 1_555
H8 O1 1.649937 1_555
H9 O8 1.002992 1_555
H10 O9 1.019867 1_555
H10 O1 1.637806 1_555
H11 O9 0.999539 1_555
H12 O10 1.008510 1_555
H12 O1 1.664961 1_555
H13 O10 0.999271 1_555
H14 O11 1.022221 1_555
H14 O1 1.635286 1_555
H15 O11 0.999637 1_555
H16 O12 1.008897 1_555
H16 O2 1.666122 1_555
H17 O12 1.000171 1_555
H18 O13 0.996838 1_555
H19 O13 1.020774 1_555
H19 O2 1.624507 1_555
H20 O14 0.997840 1_555
H21 O14 1.022761 1_555
H21 O2 1.601681 1_555
H22 O15 1.013258 1_555
H22 O2 1.623150 1_555
H23 O15 1.000362 1_555
H24 O16 1.013258 1_555
H24 O3 1.623150 1_555
H25 O16 1.000362 1_555
H26 O17 0.997840 1_555
H27 O17 1.022761 1_555
H27 O3 1.601681 1_555
H28 O18 1.008897 1_555
H28 O3 1.666122 1_555
H29 O18 1.000171 1_555
H30 O19 1.020774 1_555
H30 O3 1.624507 1_555
H31 O19 0.996838 1_555
O0 O3 1.492412 1_555
O1 O2 1.492412 1_555
