# generated using pymatgen
data_Nb16N9
_symmetry_space_group_name_H-M   'P 1'
_cell_length_a   8.21031299
_cell_length_b   8.21031299
_cell_length_c   8.21031299
_cell_angle_alpha   136.19638126
_cell_angle_beta   114.49750620
_cell_angle_gamma   82.16214364
_symmetry_Int_Tables_number   1
_chemical_formula_structural   Nb16N9
_chemical_formula_sum   'Nb16 N9'
_cell_volume   336.74738143
_cell_formula_units_Z   1
loop_
 _symmetry_equiv_pos_site_id
 _symmetry_equiv_pos_as_xyz
  1  'x, y, z'
loop_
 _atom_site_type_symbol
 _atom_site_label
 _atom_site_symmetry_multiplicity
 _atom_site_fract_x
 _atom_site_fract_y
 _atom_site_fract_z
 _atom_site_occupancy
  Nb  Nb0  1  0.37765300  0.63210300  0.25445100  1
  Nb  Nb1  1  0.37765300  0.12320200  0.74554900  1
  Nb  Nb2  1  0.75637900  0.00000000  0.75637900  1
  Nb  Nb3  1  0.62234700  0.36789700  0.74554900  1
  Nb  Nb4  1  0.62234700  0.87679800  0.25445100  1
  Nb  Nb5  1  0.99723100  0.74807300  0.24915800  1
  Nb  Nb6  1  0.87239800  0.12656500  0.25416700  1
  Nb  Nb7  1  0.00276900  0.25192700  0.75084200  1
  Nb  Nb8  1  0.87239800  0.61823100  0.74583300  1
  Nb  Nb9  1  0.24862800  0.50000000  0.74862800  1
  Nb  Nb10  1  0.12760200  0.87343500  0.74583300  1
  Nb  Nb11  1  0.24362100  0.00000000  0.24362100  1
  Nb  Nb12  1  0.12760200  0.38176900  0.25416700  1
  Nb  Nb13  1  0.50108500  0.25192700  0.24915800  1
  Nb  Nb14  1  0.49891500  0.74807300  0.75084200  1
  Nb  Nb15  1  0.75137200  0.50000000  0.25137200  1
  N  N0  1  0.87443600  0.37457600  0.99875200  1
  N  N1  1  0.87443600  0.87568400  0.49986000  1
  N  N2  1  0.12556400  0.12431600  0.50014000  1
  N  N3  1  0.12556400  0.62542400  0.00124800  1
  N  N4  1  0.37582400  0.87568400  0.00124800  1
  N  N5  1  0.37582400  0.37457600  0.50014000  1
  N  N6  1  0.62417600  0.62542400  0.49986000  1
  N  N7  1  0.62417600  0.12431600  0.99875200  1
  N  N8  1  0.00000000  0.00000000  0.00000000  1
loop_
_geom_bond_atom_site_label_1
_geom_bond_atom_site_label_2
_geom_bond_distance
_geom_bond_site_symmetry_2
N0 Nb5 2.161235 1_556
N0 Nb2 2.176515 1_555
N0 Nb15 2.180456 1_556
N0 Nb7 2.190387 1_655
N0 Nb3 2.215096 1_555
N0 Nb12 2.227423 1_656
N1 Nb5 2.161235 1_555
N1 Nb2 2.176515 1_565
N1 Nb15 2.180456 1_555
N1 Nb7 2.190387 1_665
N1 Nb4 2.215091 1_555
N1 Nb10 2.227423 1_655
N2 Nb7 2.161235 1_555
N2 Nb11 2.176515 1_555
N2 Nb9 2.180456 1_555
N2 Nb5 2.190387 1_445
N2 Nb1 2.215091 1_555
N2 Nb6 2.227423 1_455
N3 Nb7 2.161235 1_554
N3 Nb11 2.176515 1_565
N3 Nb9 2.180456 1_554
N3 Nb5 2.190387 1_455
N3 Nb0 2.215096 1_555
N3 Nb8 2.227423 1_454
N4 Nb14 2.161235 1_554
N4 Nb11 2.176515 1_565
N4 Nb9 2.180456 1_554
N4 Nb13 2.190387 1_565
N4 Nb4 2.215091 1_555
N4 Nb10 2.227423 1_554
N5 Nb14 2.161235 1_555
N5 Nb11 2.176515 1_555
N5 Nb9 2.180456 1_555
N5 Nb13 2.190387 1_555
N5 Nb3 2.215087 1_555
N5 Nb12 2.227423 1_555
N6 Nb13 2.161235 1_555
N6 Nb2 2.176515 1_565
N6 Nb15 2.180456 1_555
N6 Nb14 2.190387 1_555
N6 Nb0 2.215087 1_555
N6 Nb8 2.227423 1_555
N7 Nb13 2.161235 1_556
N7 Nb2 2.176515 1_555
N7 Nb15 2.180456 1_556
N7 Nb14 2.190387 1_545
N7 Nb1 2.215091 1_555
N7 Nb6 2.227423 1_556
N8 Nb11 2.164193 1_555
N8 Nb2 2.164193 1_454
N8 Nb12 2.217698 1_555
N8 Nb8 2.217698 1_444
N8 Nb10 2.217698 1_544
N8 Nb6 2.217698 1_455
