# generated using pymatgen
data_KP(HO2)2
_symmetry_space_group_name_H-M   'P 1'
_cell_length_a   6.39529727
_cell_length_b   6.39529727
_cell_length_c   6.39529727
_cell_angle_alpha   107.49424483
_cell_angle_beta   107.49424483
_cell_angle_gamma   113.50193247
_symmetry_Int_Tables_number   1
_chemical_formula_structural   KP(HO2)2
_chemical_formula_sum   'K2 P2 H4 O8'
_cell_volume   200.60111162
_cell_formula_units_Z   2
loop_
 _symmetry_equiv_pos_site_id
 _symmetry_equiv_pos_as_xyz
  1  'x, y, z'
loop_
 _atom_site_type_symbol
 _atom_site_label
 _atom_site_symmetry_multiplicity
 _atom_site_fract_x
 _atom_site_fract_y
 _atom_site_fract_z
 _atom_site_occupancy
  K  K0  1  0.75000000  0.25000000  0.50000000  1
  K  K1  1  0.50000000  0.50000000  0.00000000  1
  P  P0  1  0.25000000  0.75000000  0.50000000  1
  P  P1  1  0.00000000  0.00000000  0.00000000  1
  H  H0  1  0.26552900  0.87500000  0.89052900  1
  H  H1  1  0.98447100  0.37500000  0.10947100  1
  H  H2  1  0.62500000  0.73447100  0.60947100  1
  H  H3  1  0.12500000  0.01552900  0.39052900  1
  O  O0  1  0.26604500  0.71325700  0.73307200  1
  O  O1  1  0.26981500  0.03674300  0.05278800  1
  O  O2  1  0.98018500  0.53297300  0.26692800  1
  O  O3  1  0.98395500  0.21702700  0.94721200  1
  O  O4  1  0.46702700  0.73395500  0.44721200  1
  O  O5  1  0.96325700  0.01604500  0.23307200  1
  O  O6  1  0.28674300  0.01981500  0.55278800  1
  O  O7  1  0.78297300  0.73018500  0.76692800  1
loop_
_geom_bond_atom_site_label_1
_geom_bond_atom_site_label_2
_geom_bond_distance
_geom_bond_site_symmetry_2
K0 O0 2.912066 1_655
K0 O2 2.912066 1_555
K0 O6 2.912066 1_555
K0 O4 2.912066 1_545
K0 O3 2.916246 1_555
K0 O5 2.916246 1_555
K0 O7 2.916246 1_555
K0 O1 2.916246 1_555
K1 O1 2.912066 1_555
K1 O5 2.912066 1_565
K1 O7 2.912066 1_554
K1 O3 2.912066 1_454
K1 O0 2.916246 1_554
K1 O6 2.916246 1_554
K1 O2 2.916246 1_555
K1 O4 2.916246 1_555
H0 O1 1.209330 1_566
H0 O0 1.209330 1_555
H1 O3 1.209330 1_554
H1 O2 1.209330 1_555
H2 O7 1.209330 1_555
H2 O4 1.209330 1_555
H3 O6 1.209330 1_555
H3 O5 1.209330 1_455
O0 P0 1.557365 1_555
O1 P1 1.557365 1_555
O2 P0 1.557365 1_655
O3 P1 1.557365 1_656
O4 P0 1.557365 1_555
O5 P1 1.557365 1_655
O6 P0 1.557365 1_545
O7 P1 1.557365 1_666
