# generated using pymatgen
data_Zr12Si2Bi2P16PbO72
_symmetry_space_group_name_H-M   'P 1'
_cell_length_a   8.99873800
_cell_length_b   9.29948973
_cell_length_c   22.11032749
_cell_angle_alpha   91.36070818
_cell_angle_beta   89.94497768
_cell_angle_gamma   118.90697758
_symmetry_Int_Tables_number   1
_chemical_formula_structural   Zr12Si2Bi2P16PbO72
_chemical_formula_sum   'Zr12 Si2 Bi2 P16 Pb1 O72'
_cell_volume   1619.16609201
_cell_formula_units_Z   1
loop_
 _symmetry_equiv_pos_site_id
 _symmetry_equiv_pos_as_xyz
  1  'x, y, z'
loop_
 _atom_site_type_symbol
 _atom_site_label
 _atom_site_symmetry_multiplicity
 _atom_site_fract_x
 _atom_site_fract_y
 _atom_site_fract_z
 _atom_site_occupancy
  Zr  Zr0  1  0.81604500  0.63103300  0.04679700  1
  Zr  Zr1  1  0.53551700  0.07265400  0.11679700  1
  Zr  Zr2  1  0.48303200  0.96733100  0.37980800  1
  Zr  Zr3  1  0.20402000  0.40682900  0.44959400  1
  Zr  Zr4  1  0.13294800  0.26338200  0.21557500  1
  Zr  Zr5  1  0.14679200  0.29477200  0.71378500  1
  Zr  Zr6  1  0.85611800  0.70200500  0.28655800  1
  Zr  Zr7  1  0.86810800  0.73337600  0.78197500  1
  Zr  Zr8  1  0.80081800  0.59815100  0.54800100  1
  Zr  Zr9  1  0.52421900  0.03892000  0.61923800  1
  Zr  Zr10  1  0.46523000  0.93349000  0.88395900  1
  Zr  Zr11  1  0.18510000  0.37143200  0.95270200  1
  Si  Si0  1  0.09895800  0.89481800  0.15717200  1
  Si  Si1  1  0.76703600  0.23074300  0.48962300  1
  Bi  Bi0  1  0.33537200  0.68105100  0.16652700  1
  Bi  Bi1  1  0.00121600  0.01399400  0.49976200  1
  P  P0  1  0.70762400  0.98453800  0.24778200  1
  P  P1  1  0.51124700  0.75209200  0.01537200  1
  P  P2  1  0.56622400  0.43633300  0.17741800  1
  P  P3  1  0.15334500  0.57947500  0.31769500  1
  P  P4  1  0.37501800  0.32065900  0.58186100  1
  P  P5  1  0.96111200  0.34584700  0.08513100  1
  P  P6  1  0.17722400  0.08652800  0.34863000  1
  P  P7  1  0.23398100  0.77186500  0.51021100  1
  P  P8  1  0.82049500  0.91390300  0.65107400  1
  P  P9  1  0.04015900  0.65517800  0.91392600  1
  P  P10  1  0.62823700  0.68126000  0.41864600  1
  P  P11  1  0.84918100  0.42375300  0.68064200  1
  P  P12  1  0.43252400  0.56601400  0.82324100  1
  P  P13  1  0.90049300  0.09995800  0.84357300  1
  P  P14  1  0.48229200  0.24295700  0.98544300  1
  P  P15  1  0.29255100  0.01022300  0.75184200  1
  Pb  Pb0  1  0.66676700  0.33352800  0.83208300  1
  O  O0  1  0.79086800  0.19289900  0.10188200  1
  O  O1  1  0.53121000  0.25602400  0.16614800  1
  O  O2  1  0.46297200  0.12865800  0.03907500  1
  O  O3  1  0.63105800  0.02955300  0.30178600  1
  O  O4  1  0.57854000  0.93647500  0.19202800  1
  O  O5  1  0.73109900  0.83531200  0.25811300  1
  O  O6  1  0.67613500  0.74385700  0.02023600  1
  O  O7  1  0.48242900  0.82364900  0.07751500  1
  O  O8  1  0.28353300  0.89201900  0.14774000  1
  O  O9  1  0.67551700  0.50347400  0.23477100  1
  O  O10  1  0.64748900  0.53811800  0.12167100  1
  O  O11  1  0.30404900  0.75028400  0.32834200  1
  O  O12  1  0.35556600  0.58312400  0.00470100  1
  O  O13  1  0.45982200  0.52887000  0.43746100  1
  O  O14  1  0.01427200  0.78442700  0.21569100  1
  O  O15  1  0.98529200  0.82227800  0.09627700  1
  O  O16  1  0.39305000  0.43506300  0.18784900  1
  O  O17  1  0.19664100  0.59131500  0.49759200  1
  O  O18  1  0.18195100  0.51076300  0.25549400  1
  O  O19  1  0.14384400  0.46148500  0.36848500  1
  O  O20  1  0.98254300  0.57815600  0.31606300  1
  O  O21  1  0.29988300  0.36336500  0.63727900  1
  O  O22  1  0.93474600  0.49391500  0.07540100  1
  O  O23  1  0.24511000  0.27499800  0.52675400  1
  O  O24  1  0.08989800  0.39239700  0.13974900  1
  O  O25  1  0.39755500  0.17038700  0.59106600  1
  O  O26  1  0.03278900  0.30133300  0.02925000  1
  O  O27  1  0.34395600  0.08094600  0.35203100  1
  O  O28  1  0.18939200  0.20495000  0.29840600  1
  O  O29  1  0.15264600  0.16012400  0.41102000  1
  O  O30  1  0.14270100  0.08555900  0.16958100  1
  O  O31  1  0.95106000  0.22748900  0.48019100  1
  O  O32  1  0.34296000  0.83716800  0.56772200  1
  O  O33  1  0.31632200  0.87562300  0.45489000  1
  O  O34  1  0.87442400  0.13716100  0.22986300  1
  O  O35  1  0.97261400  0.08502300  0.66308500  1
  O  O36  1  0.02213100  0.91672800  0.33980200  1
  O  O37  1  0.12047600  0.85781700  0.76553100  1
  O  O38  1  0.68199500  0.12111500  0.54822000  1
  O  O39  1  0.65328200  0.15743500  0.42878600  1
  O  O40  1  0.06087100  0.77133000  0.52051500  1
  O  O41  1  0.87258200  0.92426900  0.83120800  1
  O  O42  1  0.85270500  0.84930500  0.58855100  1
  O  O43  1  0.80713000  0.79440400  0.70085600  1
  O  O44  1  0.65190500  0.91652400  0.64847100  1
  O  O45  1  0.96208200  0.69260300  0.96949800  1
  O  O46  1  0.59912300  0.82745700  0.40781100  1
  O  O47  1  0.92005700  0.62068900  0.85815800  1
  O  O48  1  0.75801500  0.73239800  0.47359400  1
  O  O49  1  0.06326600  0.50352000  0.92227500  1
  O  O50  1  0.69907600  0.63356500  0.36383700  1
  O  O51  1  0.01422500  0.41400600  0.68656300  1
  O  O52  1  0.86639800  0.53795300  0.62799700  1
  O  O53  1  0.82399300  0.50333900  0.74027100  1
  O  O54  1  0.80839700  0.42128600  0.50083100  1
  O  O55  1  0.60862000  0.57636500  0.81155300  1
  O  O56  1  0.01274000  0.17300600  0.90044000  1
  O  O57  1  0.97965300  0.20758300  0.78852500  1
  O  O58  1  0.54282400  0.47342300  0.56478100  1
  O  O59  1  0.63781000  0.41104300  0.99530400  1
  O  O60  1  0.69339700  0.25389400  0.67200200  1
  O  O61  1  0.35373100  0.45955600  0.87865700  1
  O  O62  1  0.31979200  0.49239100  0.76660100  1
  O  O63  1  0.72430000  0.08933600  0.85531700  1
  O  O64  1  0.50676500  0.16103000  0.92664400  1
  O  O65  1  0.31712300  0.25208300  0.97982000  1
  O  O66  1  0.26873700  0.16195500  0.74415100  1
  O  O67  1  0.41343900  0.04463700  0.80766900  1
  O  O68  1  0.36855100  0.97218100  0.69610400  1
  O  O69  1  0.52885900  0.87171000  0.96526000  1
  O  O70  1  0.46053800  0.74181500  0.83543700  1
  O  O71  1  0.21247800  0.80792500  0.90130200  1
loop_
_geom_bond_atom_site_label_1
_geom_bond_atom_site_label_2
_geom_bond_distance
_geom_bond_site_symmetry_2
Bi0 O8 2.272235 1_555
Bi0 O4 2.379502 1_555
Bi0 O7 2.409453 1_555
Bi0 O18 2.512431 1_555
Bi0 O24 2.574905 1_555
Bi0 O16 2.631377 1_555
Bi1 O31 2.289158 1_455
Bi1 O23 2.418261 1_555
Bi1 O29 2.425844 1_555
Bi1 O42 2.478818 1_445
Bi1 O48 2.524228 1_445
Bi1 O40 2.609985 1_545
O0 P5 1.557084 1_555
O0 Zr1 2.042341 1_555
O1 P2 1.562850 1_555
O1 Zr1 2.018777 1_555
O2 P14 1.564293 1_554
O2 Zr1 2.005957 1_555
O3 P0 1.526181 1_545
O3 Zr2 2.093548 1_545
O4 P0 1.594792 1_555
O4 Zr1 2.257380 1_565
O5 P0 1.523530 1_555
O5 Zr6 2.141203 1_555
O6 P1 1.526302 1_555
O6 Zr0 2.082930 1_555
O7 P1 1.587662 1_555
O7 Zr1 2.276065 1_565
O8 Si0 1.686348 1_555
O8 Zr1 2.191046 1_565
O9 P2 1.528495 1_555
O9 Zr6 2.088846 1_555
O10 P2 1.527898 1_555
O10 Zr0 2.141017 1_555
O11 P3 1.522481 1_555
O11 Zr2 2.171301 1_555
O12 P1 1.530413 1_555
O12 Zr11 2.127631 1_554
O13 P10 1.558396 1_555
O13 Zr3 2.036254 1_555
O14 Si0 1.616657 1_555
O14 Zr6 2.016496 1_455
O15 Si0 1.614477 1_655
O15 Zr0 1.992879 1_555
O16 P2 1.569530 1_555
O16 Zr4 2.198668 1_555
O17 P7 1.562808 1_555
O17 Zr3 2.024244 1_555
O18 P3 1.575621 1_555
O18 Zr4 2.278029 1_555
O19 P3 1.562048 1_555
O19 Zr3 2.019631 1_555
O20 P3 1.531564 1_655
O20 Zr6 2.085717 1_555
O21 P4 1.533343 1_555
O21 Zr5 2.088867 1_555
O22 P5 1.525974 1_555
O22 Zr0 2.126802 1_555
O23 P4 1.590513 1_555
O23 Zr3 2.255891 1_555
O24 P5 1.575330 1_455
O24 Zr4 2.224058 1_555
O25 P4 1.524142 1_555
O25 Zr9 2.136964 1_555
O26 P5 1.531756 1_455
O26 Zr11 2.086199 1_554
O27 P6 1.528130 1_555
O27 Zr2 2.090561 1_545
O28 P6 1.548929 1_555
O28 Zr4 2.055052 1_555
O29 P6 1.587817 1_555
O29 Zr3 2.255452 1_555
O30 Si0 1.636654 1_545
O30 Zr4 1.958762 1_555
O31 Si1 1.683500 1_555
O31 Zr3 2.191148 1_655
O32 P7 1.528858 1_555
O32 Zr9 2.102729 1_565
O33 P7 1.529476 1_555
O33 Zr2 2.135255 1_555
O34 P0 1.546079 1_545
O34 Zr4 2.065405 1_655
O35 P8 1.533409 1_545
O35 Zr5 2.112302 1_655
O36 P6 1.527950 1_565
O36 Zr6 2.147721 1_455
O37 P15 1.547844 1_565
O37 Zr7 2.026433 1_455
O38 Si1 1.615588 1_555
O38 Zr9 2.017229 1_555
O39 Si1 1.614432 1_555
O39 Zr2 1.984695 1_545
O40 P7 1.571770 1_555
O40 Zr8 2.199878 1_455
O41 P13 1.545763 1_565
O41 Zr7 2.043808 1_555
O42 P8 1.576088 1_555
O42 Zr8 2.307368 1_555
O43 P8 1.545822 1_555
O43 Zr7 2.047286 1_555
O44 P8 1.530188 1_555
O44 Zr9 2.081897 1_565
O45 P9 1.529360 1_655
O45 Zr0 2.071373 1_556
O46 P10 1.527865 1_555
O46 Zr2 2.126000 1_555
O47 P9 1.562047 1_655
O47 Zr7 2.170934 1_555
O47 Pb0 2.589158 1_555
O48 P10 1.582526 1_555
O48 Zr8 2.230951 1_555
O49 P9 1.536988 1_555
O49 Zr11 2.122748 1_555
O50 P10 1.522494 1_555
O50 Zr6 2.121120 1_555
O51 P11 1.536952 1_455
O51 Zr5 2.080075 1_555
O52 P11 1.551140 1_555
O52 Zr8 2.039241 1_555
O53 P11 1.566085 1_555
O53 Zr7 2.161050 1_555
O53 Pb0 2.569645 1_555
O54 Si1 1.637521 1_555
O54 Zr8 1.955618 1_555
O55 P12 1.562071 1_555
O55 Zr7 2.181371 1_555
O55 Pb0 2.602133 1_555
O56 P13 1.536607 1_455
O56 Zr11 2.069088 1_555
O57 P13 1.535406 1_555
O57 Zr5 2.128445 1_655
O58 P4 1.546438 1_555
O58 Zr8 2.070830 1_555
O59 P14 1.522799 1_555
O59 Zr0 2.185097 1_556
O60 P11 1.530430 1_555
O60 Zr9 2.150711 1_555
O61 P12 1.536695 1_555
O61 Zr11 2.123976 1_555
O62 P12 1.535066 1_555
O62 Zr5 2.073705 1_555
O63 P13 1.562067 1_555
O63 Zr10 2.170422 1_545
O63 Pb0 2.623220 1_555
O64 P14 1.560048 1_555
O64 Zr10 2.156182 1_545
O64 Pb0 2.634056 1_555
O65 P14 1.534467 1_555
O65 Zr11 2.076185 1_555
O66 P15 1.539365 1_555
O66 Zr5 2.128767 1_555
O67 P15 1.567381 1_555
O67 Zr10 2.163531 1_545
O67 Pb0 2.591955 1_555
O68 P15 1.524216 1_565
O68 Zr9 2.107343 1_565
O69 P1 1.542053 1_556
O69 Zr10 2.063569 1_555
O70 P12 1.545892 1_555
O70 Zr10 2.041201 1_555
O71 P9 1.545538 1_555
O71 Zr10 2.033625 1_555
