# generated using pymatgen
data_Cu5Si(SbO6)2
_symmetry_space_group_name_H-M   'P 1'
_cell_length_a   9.51221800
_cell_length_b   9.71793200
_cell_length_c   19.19981200
_cell_angle_alpha   90.00000000
_cell_angle_beta   90.00000000
_cell_angle_gamma   90.00000000
_symmetry_Int_Tables_number   1
_chemical_formula_structural   Cu5Si(SbO6)2
_chemical_formula_sum   'Cu40 Si8 Sb16 O96'
_cell_volume   1774.81310516
_cell_formula_units_Z   8
loop_
 _symmetry_equiv_pos_site_id
 _symmetry_equiv_pos_as_xyz
  1  'x, y, z'
loop_
 _atom_site_type_symbol
 _atom_site_label
 _atom_site_symmetry_multiplicity
 _atom_site_fract_x
 _atom_site_fract_y
 _atom_site_fract_z
 _atom_site_occupancy
  Cu  Cu0  1  0.74568900  0.50052000  0.37687300  1
  Cu  Cu1  1  0.97817700  0.72503700  0.37598900  1
  Cu  Cu2  1  0.50000000  0.45759700  0.75000000  1
  Cu  Cu3  1  0.50000000  0.04240300  0.25000000  1
  Cu  Cu4  1  0.02182300  0.72503700  0.12401100  1
  Cu  Cu5  1  0.97817700  0.27496300  0.87598900  1
  Cu  Cu6  1  0.24674100  0.75543200  0.25054400  1
  Cu  Cu7  1  0.74568900  0.49948000  0.87687300  1
  Cu  Cu8  1  0.25431100  0.00052000  0.37687300  1
  Cu  Cu9  1  0.21710300  0.75000000  0.50000000  1
  Cu  Cu10  1  0.74568900  0.99948000  0.62312700  1
  Cu  Cu11  1  0.24674100  0.74456800  0.74945600  1
  Cu  Cu12  1  0.25431100  0.50052000  0.12312700  1
  Cu  Cu13  1  0.02182300  0.77496300  0.87598900  1
  Cu  Cu14  1  0.72090500  0.75000000  0.50000000  1
  Cu  Cu15  1  0.75325900  0.24456800  0.74945600  1
  Cu  Cu16  1  0.27909500  0.25000000  0.50000000  1
  Cu  Cu17  1  0.24674100  0.24456800  0.75054400  1
  Cu  Cu18  1  0.25431100  0.99948000  0.87687300  1
  Cu  Cu19  1  0.75325900  0.74456800  0.75054400  1
  Cu  Cu20  1  0.97817700  0.77496300  0.62401100  1
  Cu  Cu21  1  0.74568900  0.00052000  0.12312700  1
  Cu  Cu22  1  0.75325900  0.75543200  0.24945600  1
  Cu  Cu23  1  0.72090500  0.25000000  0.00000000  1
  Cu  Cu24  1  0.78289700  0.25000000  0.50000000  1
  Cu  Cu25  1  0.24674100  0.25543200  0.24945600  1
  Cu  Cu26  1  0.27909500  0.75000000  0.00000000  1
  Cu  Cu27  1  0.78289700  0.75000000  0.00000000  1
  Cu  Cu28  1  0.75325900  0.25543200  0.25054400  1
  Cu  Cu29  1  0.50000000  0.50000000  0.00000000  1
  Cu  Cu30  1  0.21710300  0.25000000  0.00000000  1
  Cu  Cu31  1  0.50000000  0.54240300  0.25000000  1
  Cu  Cu32  1  0.50000000  0.00000000  0.00000000  1
  Cu  Cu33  1  0.50000000  0.50000000  0.50000000  1
  Cu  Cu34  1  0.25431100  0.49948000  0.62312700  1
  Cu  Cu35  1  0.02182300  0.22503700  0.37598900  1
  Cu  Cu36  1  0.02182300  0.27496300  0.62401100  1
  Cu  Cu37  1  0.50000000  0.00000000  0.50000000  1
  Cu  Cu38  1  0.50000000  0.95759700  0.75000000  1
  Cu  Cu39  1  0.97817700  0.22503700  0.12401100  1
  Si  Si0  1  0.25339200  0.99230500  0.62683300  1
  Si  Si1  1  0.74660800  0.00769500  0.37316700  1
  Si  Si2  1  0.25339200  0.49230500  0.87316700  1
  Si  Si3  1  0.25339200  0.50769500  0.37316700  1
  Si  Si4  1  0.74660800  0.99230500  0.87316700  1
  Si  Si5  1  0.74660800  0.49230500  0.62683300  1
  Si  Si6  1  0.74660800  0.50769500  0.12683300  1
  Si  Si7  1  0.25339200  0.00769500  0.12683300  1
  Sb  Sb0  1  0.00000000  0.03920800  0.75000000  1
  Sb  Sb1  1  0.51581100  0.22652000  0.62453500  1
  Sb  Sb2  1  0.51581100  0.77348000  0.12453500  1
  Sb  Sb3  1  0.48418900  0.27348000  0.12453500  1
  Sb  Sb4  1  0.48418900  0.22652000  0.87546500  1
  Sb  Sb5  1  0.00000000  0.50000000  0.00000000  1
  Sb  Sb6  1  0.48418900  0.72652000  0.62453500  1
  Sb  Sb7  1  0.51581100  0.27348000  0.37546500  1
  Sb  Sb8  1  0.00000000  0.00000000  0.00000000  1
  Sb  Sb9  1  0.00000000  0.50000000  0.50000000  1
  Sb  Sb10  1  0.48418900  0.77348000  0.37546500  1
  Sb  Sb11  1  0.00000000  0.96079200  0.25000000  1
  Sb  Sb12  1  0.51581100  0.72652000  0.87546500  1
  Sb  Sb13  1  0.00000000  0.00000000  0.50000000  1
  Sb  Sb14  1  0.00000000  0.46079200  0.25000000  1
  Sb  Sb15  1  0.00000000  0.53920800  0.75000000  1
  O  O0  1  0.85621600  0.43420400  0.56943700  1
  O  O1  1  0.14378400  0.93420400  0.56943700  1
  O  O2  1  0.60234300  0.31306400  0.80323000  1
  O  O3  1  0.06652200  0.15531800  0.94361200  1
  O  O4  1  0.64576800  0.86606300  0.05378200  1
  O  O5  1  0.64576800  0.13393700  0.55378200  1
  O  O6  1  0.14284800  0.37633500  0.55301900  1
  O  O7  1  0.64576800  0.63393700  0.94621800  1
  O  O8  1  0.85621600  0.93420400  0.93056300  1
  O  O9  1  0.90523800  0.31388900  0.30686300  1
  O  O10  1  0.60234300  0.18693600  0.19677000  1
  O  O11  1  0.89070200  0.90206700  0.69144900  1
  O  O12  1  0.10929800  0.40206700  0.69144900  1
  O  O13  1  0.17026100  0.07490000  0.68805300  1
  O  O14  1  0.93347800  0.34468200  0.44361200  1
  O  O15  1  0.82973900  0.07490000  0.81194700  1
  O  O16  1  0.60667900  0.41118500  0.31000900  1
  O  O17  1  0.82973900  0.42510000  0.18805300  1
  O  O18  1  0.64576800  0.36606300  0.44621800  1
  O  O19  1  0.42897800  0.64734400  0.05507900  1
  O  O20  1  0.39332100  0.91118500  0.31000900  1
  O  O21  1  0.06652200  0.84468200  0.44361200  1
  O  O22  1  0.93347800  0.65531800  0.94361200  1
  O  O23  1  0.66505700  0.36052200  0.66020600  1
  O  O24  1  0.36323400  0.09675200  0.58978700  1
  O  O25  1  0.36323400  0.90324800  0.08978700  1
  O  O26  1  0.17026100  0.42510000  0.31194700  1
  O  O27  1  0.35423200  0.63393700  0.55378200  1
  O  O28  1  0.89070200  0.40206700  0.80855100  1
  O  O29  1  0.57102200  0.85265600  0.55507900  1
  O  O30  1  0.60234300  0.68693600  0.30323000  1
  O  O31  1  0.39332100  0.41118500  0.18999100  1
  O  O32  1  0.63676600  0.40324800  0.08978700  1
  O  O33  1  0.57102200  0.64734400  0.44492100  1
  O  O34  1  0.60234300  0.81306400  0.69677000  1
  O  O35  1  0.17026100  0.92510000  0.18805300  1
  O  O36  1  0.36323400  0.40324800  0.41021300  1
  O  O37  1  0.89070200  0.59793300  0.30855100  1
  O  O38  1  0.93347800  0.15531800  0.55638800  1
  O  O39  1  0.35423200  0.86606300  0.44621800  1
  O  O40  1  0.82973900  0.57490000  0.68805300  1
  O  O41  1  0.85621600  0.06579600  0.43056300  1
  O  O42  1  0.14284800  0.12366500  0.44698100  1
  O  O43  1  0.57102200  0.35265600  0.94492100  1
  O  O44  1  0.14378400  0.43420400  0.93056300  1
  O  O45  1  0.10929800  0.59793300  0.19144900  1
  O  O46  1  0.09476200  0.18611100  0.80686300  1
  O  O47  1  0.60667900  0.91118500  0.18999100  1
  O  O48  1  0.17026100  0.57490000  0.81194700  1
  O  O49  1  0.10929800  0.90206700  0.80855100  1
  O  O50  1  0.14284800  0.87633500  0.94698100  1
  O  O51  1  0.39332100  0.08881500  0.81000900  1
  O  O52  1  0.39765700  0.31306400  0.69677000  1
  O  O53  1  0.85621600  0.56579600  0.06943700  1
  O  O54  1  0.06652200  0.34468200  0.05638800  1
  O  O55  1  0.39765700  0.18693600  0.30323000  1
  O  O56  1  0.93347800  0.84468200  0.05638800  1
  O  O57  1  0.09476200  0.68611100  0.69313700  1
  O  O58  1  0.82973900  0.92510000  0.31194700  1
  O  O59  1  0.63676600  0.09675200  0.91021300  1
  O  O60  1  0.39765700  0.81306400  0.80323000  1
  O  O61  1  0.14284800  0.62366500  0.05301900  1
  O  O62  1  0.36323400  0.59675200  0.91021300  1
  O  O63  1  0.66505700  0.63947800  0.16020600  1
  O  O64  1  0.66505700  0.86052200  0.83979400  1
  O  O65  1  0.90523800  0.18611100  0.69313700  1
  O  O66  1  0.39332100  0.58881500  0.68999100  1
  O  O67  1  0.09476200  0.31388900  0.19313700  1
  O  O68  1  0.85715200  0.62366500  0.44698100  1
  O  O69  1  0.63676600  0.90324800  0.41021300  1
  O  O70  1  0.06652200  0.65531800  0.55638800  1
  O  O71  1  0.33494200  0.63947800  0.33979400  1
  O  O72  1  0.90523800  0.68611100  0.80686300  1
  O  O73  1  0.85715200  0.37633500  0.94698100  1
  O  O74  1  0.85715200  0.87633500  0.55301900  1
  O  O75  1  0.85715200  0.12366500  0.05301900  1
  O  O76  1  0.09476200  0.81388900  0.30686300  1
  O  O77  1  0.42897800  0.14734400  0.44492100  1
  O  O78  1  0.63676600  0.59675200  0.58978700  1
  O  O79  1  0.14378400  0.56579600  0.43056300  1
  O  O80  1  0.39765700  0.68693600  0.19677000  1
  O  O81  1  0.66505700  0.13947800  0.33979400  1
  O  O82  1  0.89070200  0.09793300  0.19144900  1
  O  O83  1  0.60667900  0.58881500  0.81000900  1
  O  O84  1  0.33494200  0.13947800  0.16020600  1
  O  O85  1  0.60667900  0.08881500  0.68999100  1
  O  O86  1  0.33494200  0.86052200  0.66020600  1
  O  O87  1  0.14378400  0.06579600  0.06943700  1
  O  O88  1  0.35423200  0.36606300  0.05378200  1
  O  O89  1  0.90523800  0.81388900  0.19313700  1
  O  O90  1  0.35423200  0.13393700  0.94621800  1
  O  O91  1  0.42897800  0.35265600  0.55507900  1
  O  O92  1  0.57102200  0.14734400  0.05507900  1
  O  O93  1  0.33494200  0.36052200  0.83979400  1
  O  O94  1  0.10929800  0.09793300  0.30855100  1
  O  O95  1  0.42897800  0.85265600  0.94492100  1
loop_
_geom_bond_atom_site_label_1
_geom_bond_atom_site_label_2
_geom_bond_distance
_geom_bond_site_symmetry_2
Cu0 O16 2.037211 1_555
Cu0 O68 2.090014 1_555
Cu0 O18 2.093649 1_555
Cu0 O37 2.125940 1_555
Cu0 O33 2.550153 1_555
Cu1 O76 1.933100 1_655
Cu1 O21 1.934886 1_655
Cu1 O37 1.973461 1_555
Cu1 O68 2.038046 1_555
Cu1 O79 2.444214 1_655
Cu2 O2 1.991233 1_555
Cu2 O52 1.991233 1_555
Cu2 O83 1.995809 1_555
Cu2 O66 1.995809 1_555
Cu2 O23 2.515412 1_555
Cu2 O93 2.515418 1_555
Cu3 O10 1.991233 1_555
Cu3 O55 1.991233 1_555
Cu3 O20 1.995809 1_545
Cu3 O47 1.995809 1_545
Cu3 O81 2.515412 1_555
Cu3 O84 2.515418 1_555
Cu4 O89 1.933100 1_455
Cu4 O56 1.934886 1_455
Cu4 O45 1.973461 1_555
Cu4 O61 2.038046 1_555
Cu4 O53 2.444214 1_455
Cu5 O46 1.933100 1_655
Cu5 O3 1.934886 1_655
Cu5 O28 1.973461 1_555
Cu5 O73 2.038046 1_555
Cu5 O44 2.444214 1_655
Cu6 O80 1.889397 1_555
Cu6 O76 1.892586 1_555
Cu6 O35 2.165045 1_555
Cu6 O71 2.215856 1_555
Cu6 O45 2.310679 1_555
Cu6 O20 2.353416 1_555
Cu7 O83 2.037211 1_555
Cu7 O73 2.090014 1_555
Cu7 O7 2.093649 1_555
Cu7 O28 2.125940 1_555
Cu7 O43 2.550153 1_555
Cu8 O20 2.037211 1_545
Cu8 O42 2.090014 1_555
Cu8 O39 2.093649 1_545
Cu8 O94 2.125940 1_555
Cu8 O77 2.550153 1_555
Cu9 O39 2.009944 1_555
Cu9 O27 2.009944 1_555
Cu9 O70 2.017515 1_555
Cu9 O21 2.017515 1_555
Cu9 O1 2.338409 1_555
Cu9 O79 2.338409 1_555
Cu10 O85 2.037211 1_565
Cu10 O74 2.090014 1_555
Cu10 O5 2.093649 1_565
Cu10 O11 2.125940 1_555
Cu10 O29 2.550153 1_555
Cu11 O60 1.889397 1_555
Cu11 O57 1.892586 1_555
Cu11 O48 2.165045 1_555
Cu11 O86 2.215856 1_555
Cu11 O49 2.310679 1_555
Cu11 O66 2.353416 1_555
Cu12 O31 2.037211 1_555
Cu12 O61 2.090014 1_555
Cu12 O88 2.093649 1_555
Cu12 O45 2.125940 1_555
Cu12 O19 2.550153 1_555
Cu13 O72 1.933100 1_455
Cu13 O22 1.934886 1_455
Cu13 O49 1.973461 1_555
Cu13 O50 2.038046 1_555
Cu13 O8 2.444214 1_455
Cu14 O33 2.036225 1_555
Cu14 O29 2.036225 1_555
Cu14 O68 2.055033 1_555
Cu14 O74 2.055033 1_555
Cu14 O78 2.414590 1_555
Cu14 O69 2.414590 1_555
Cu15 O2 1.889397 1_555
Cu15 O65 1.892586 1_555
Cu15 O15 2.165045 1_555
Cu15 O23 2.215860 1_555
Cu15 O28 2.310679 1_555
Cu15 O85 2.353416 1_555
Cu16 O77 2.036225 1_555
Cu16 O91 2.036225 1_555
Cu16 O42 2.055033 1_555
Cu16 O6 2.055033 1_555
Cu16 O24 2.414590 1_555
Cu16 O36 2.414590 1_555
Cu17 O52 1.889397 1_555
Cu17 O46 1.892586 1_555
Cu17 O13 2.165045 1_555
Cu17 O93 2.215856 1_555
Cu17 O12 2.310679 1_555
Cu17 O51 2.353416 1_555
Cu18 O51 2.037211 1_565
Cu18 O50 2.090014 1_555
Cu18 O90 2.093649 1_565
Cu18 O49 2.125940 1_555
Cu18 O95 2.550153 1_555
Cu19 O34 1.889397 1_555
Cu19 O72 1.892586 1_555
Cu19 O40 2.165045 1_555
Cu19 O64 2.215860 1_555
Cu19 O11 2.310679 1_555
Cu19 O83 2.353416 1_555
Cu20 O57 1.933100 1_655
Cu20 O70 1.934886 1_655
Cu20 O11 1.973461 1_555
Cu20 O74 2.038046 1_555
Cu20 O1 2.444214 1_655
Cu21 O47 2.037211 1_545
Cu21 O75 2.090014 1_555
Cu21 O4 2.093649 1_545
Cu21 O82 2.125940 1_555
Cu21 O92 2.550153 1_555
Cu22 O30 1.889397 1_555
Cu22 O89 1.892586 1_555
Cu22 O58 2.165045 1_555
Cu22 O63 2.215860 1_555
Cu22 O37 2.310679 1_555
Cu22 O47 2.353416 1_555
Cu23 O92 2.036225 1_555
Cu23 O43 2.036225 1_554
Cu23 O75 2.055033 1_555
Cu23 O73 2.055033 1_554
Cu23 O59 2.414590 1_554
Cu23 O32 2.414590 1_555
Cu24 O5 2.009944 1_555
Cu24 O18 2.009944 1_555
Cu24 O38 2.017515 1_555
Cu24 O14 2.017515 1_555
Cu24 O0 2.338409 1_555
Cu24 O41 2.338409 1_555
Cu25 O55 1.889397 1_555
Cu25 O67 1.892586 1_555
Cu25 O26 2.165045 1_555
Cu25 O84 2.215856 1_555
Cu25 O94 2.310679 1_555
Cu25 O31 2.353416 1_555
Cu26 O19 2.036225 1_555
Cu26 O95 2.036225 1_554
Cu26 O61 2.055033 1_555
Cu26 O50 2.055033 1_554
Cu26 O62 2.414590 1_554
Cu26 O25 2.414590 1_555
Cu27 O7 2.009944 1_554
Cu27 O4 2.009944 1_555
Cu27 O22 2.017515 1_554
Cu27 O56 2.017515 1_555
Cu27 O8 2.338409 1_554
Cu27 O53 2.338409 1_555
Cu28 O10 1.889397 1_555
Cu28 O9 1.892586 1_555
Cu28 O17 2.165045 1_555
Cu28 O81 2.215860 1_555
Cu28 O82 2.310679 1_555
Cu28 O16 2.353416 1_555
Cu29 O43 1.903944 1_554
Cu29 O19 1.903944 1_555
Cu29 O88 2.164025 1_555
Cu29 O7 2.164025 1_554
Cu29 O62 2.355484 1_554
Cu29 O32 2.355484 1_555
Cu30 O90 2.009944 1_554
Cu30 O88 2.009944 1_555
Cu30 O3 2.017515 1_554
Cu30 O54 2.017515 1_555
Cu30 O44 2.338409 1_554
Cu30 O87 2.338409 1_555
Cu31 O30 1.991233 1_555
Cu31 O80 1.991233 1_555
Cu31 O16 1.995809 1_555
Cu31 O31 1.995809 1_555
Cu31 O63 2.515412 1_555
Cu31 O71 2.515418 1_555
Cu32 O95 1.903944 1_544
Cu32 O92 1.903944 1_555
Cu32 O90 2.164025 1_554
Cu32 O4 2.164025 1_545
Cu32 O59 2.355484 1_554
Cu32 O25 2.355484 1_545
Cu33 O91 1.903944 1_555
Cu33 O33 1.903944 1_555
Cu33 O27 2.164025 1_555
Cu33 O18 2.164025 1_555
Cu33 O78 2.355484 1_555
Cu33 O36 2.355484 1_555
Cu34 O66 2.037211 1_555
Cu34 O6 2.090014 1_555
Cu34 O27 2.093649 1_555
Cu34 O12 2.125940 1_555
Cu34 O91 2.550153 1_555
Cu35 O9 1.933100 1_455
Cu35 O14 1.934886 1_455
Cu35 O94 1.973461 1_555
Cu35 O42 2.038046 1_555
Cu35 O41 2.444214 1_455
Cu36 O65 1.933100 1_455
Cu36 O38 1.934886 1_455
Cu36 O12 1.973461 1_555
Cu36 O6 2.038046 1_555
Cu36 O0 2.444214 1_455
Cu37 O77 1.903944 1_555
Cu37 O29 1.903944 1_545
Cu37 O39 2.164025 1_545
Cu37 O5 2.164025 1_555
Cu37 O24 2.355484 1_555
Cu37 O69 2.355484 1_545
Cu38 O34 1.991233 1_555
Cu38 O60 1.991233 1_555
Cu38 O85 1.995809 1_565
Cu38 O51 1.995809 1_565
Cu38 O64 2.515412 1_555
Cu38 O86 2.515418 1_555
Cu39 O67 1.933100 1_655
Cu39 O54 1.934886 1_655
Cu39 O82 1.973461 1_555
Cu39 O75 2.038046 1_555
Cu39 O87 2.444214 1_655
O0 Si5 1.618713 1_555
O0 Sb9 2.014153 1_655
O1 Si0 1.618713 1_555
O1 Sb13 2.014153 1_565
O2 Sb4 1.973318 1_555
O3 Sb8 1.962321 1_556
O4 Sb2 2.045238 1_555
O5 Sb1 2.045238 1_555
O6 Sb9 2.080101 1_555
O7 Sb12 2.045238 1_555
O8 Si4 1.618713 1_555
O8 Sb8 2.014153 1_666
O9 Sb14 2.010591 1_655
O10 Sb3 1.973318 1_555
O11 Sb0 2.029981 1_665
O12 Sb15 2.029981 1_555
O13 Si0 1.628234 1_545
O13 Sb0 2.039089 1_555
O14 Sb9 1.962321 1_655
O15 Si4 1.628234 1_545
O15 Sb0 2.039089 1_655
O16 Sb7 2.029117 1_555
O17 Si6 1.628234 1_555
O17 Sb14 2.039089 1_655
O18 Sb7 2.045238 1_555
O19 Sb2 1.990756 1_555
O20 Sb10 2.029117 1_555
O21 Sb13 1.962321 1_565
O22 Sb5 1.962321 1_656
O23 Si5 1.628623 1_555
O23 Sb1 2.044572 1_555
O24 Si0 1.621064 1_545
O24 Sb1 2.035145 1_555
O25 Si7 1.621064 1_565
O25 Sb2 2.035145 1_555
O26 Si3 1.628234 1_555
O26 Sb14 2.039089 1_555
O27 Sb6 2.045238 1_555
O28 Sb15 2.029981 1_655
O29 Sb6 1.990756 1_555
O30 Sb10 1.973318 1_555
O31 Sb3 2.029117 1_555
O32 Si6 1.621064 1_555
O32 Sb3 2.035145 1_555
O33 Sb10 1.990756 1_555
O34 Sb6 1.973318 1_555
O35 Si7 1.628234 1_565
O35 Sb11 2.039089 1_555
O36 Si3 1.621064 1_555
O36 Sb7 2.035145 1_555
O37 Sb14 2.029981 1_655
O38 Sb13 1.962321 1_655
O39 Sb10 2.045238 1_555
O40 Si5 1.628234 1_555
O40 Sb15 2.039089 1_655
O41 Si1 1.618713 1_555
O41 Sb13 2.014153 1_655
O42 Sb13 2.080101 1_555
O43 Sb4 1.990756 1_555
O44 Si2 1.618713 1_555
O44 Sb5 2.014153 1_556
O45 Sb14 2.029981 1_555
O46 Sb0 2.010591 1_555
O47 Sb2 2.029117 1_555
O48 Si2 1.628234 1_555
O48 Sb15 2.039089 1_555
O49 Sb0 2.029981 1_565
O50 Sb8 2.080101 1_566
O51 Sb4 2.029117 1_555
O52 Sb1 1.973318 1_555
O53 Si6 1.618713 1_555
O53 Sb5 2.014153 1_655
O54 Sb5 1.962321 1_555
O55 Sb7 1.973318 1_555
O56 Sb8 1.962321 1_665
O57 Sb15 2.010591 1_555
O58 Si1 1.628234 1_565
O58 Sb11 2.039089 1_655
O59 Si4 1.621064 1_545
O59 Sb4 2.035145 1_555
O60 Sb12 1.973318 1_555
O61 Sb5 2.080101 1_555
O62 Si2 1.621064 1_555
O62 Sb12 2.035145 1_555
O63 Si6 1.628623 1_555
O63 Sb2 2.044572 1_555
O64 Si4 1.628623 1_555
O64 Sb12 2.044572 1_555
O65 Sb0 2.010591 1_655
O66 Sb6 2.029117 1_555
O67 Sb14 2.010591 1_555
O68 Sb9 2.080101 1_655
O69 Si1 1.621064 1_565
O69 Sb10 2.035145 1_555
O70 Sb9 1.962321 1_555
O71 Si3 1.628618 1_555
O71 Sb10 2.044579 1_555
O72 Sb15 2.010591 1_655
O73 Sb5 2.080101 1_656
O74 Sb13 2.080101 1_665
O75 Sb8 2.080101 1_655
O76 Sb11 2.010591 1_555
O77 Sb7 1.990756 1_555
O78 Si5 1.621064 1_555
O78 Sb6 2.035145 1_555
O79 Si3 1.618713 1_555
O79 Sb9 2.014153 1_555
O80 Sb2 1.973318 1_555
O81 Si1 1.628623 1_555
O81 Sb7 2.044572 1_555
O82 Sb11 2.029981 1_645
O83 Sb12 2.029117 1_555
O84 Si7 1.628618 1_555
O84 Sb3 2.044579 1_555
O85 Sb1 2.029117 1_555
O86 Si0 1.628618 1_555
O86 Sb6 2.044579 1_555
O87 Si7 1.618713 1_555
O87 Sb8 2.014153 1_555
O88 Sb3 2.045238 1_555
O89 Sb11 2.010591 1_655
O90 Sb4 2.045238 1_555
O91 Sb1 1.990756 1_555
O92 Sb3 1.990756 1_555
O93 Si2 1.628618 1_555
O93 Sb4 2.044579 1_555
O94 Sb11 2.029981 1_545
O95 Sb12 1.990756 1_555
