# generated using pymatgen
data_Zr2Co
_symmetry_space_group_name_H-M   'P 1'
_cell_length_a   5.24671545
_cell_length_b   5.24671579
_cell_length_c   5.24671485
_cell_angle_alpha   106.32289357
_cell_angle_beta   106.32291637
_cell_angle_gamma   115.96992174
_symmetry_Int_Tables_number   1
_chemical_formula_structural   Zr2Co
_chemical_formula_sum   'Zr4 Co2'
_cell_volume   110.09891712
_cell_formula_units_Z   2
loop_
 _symmetry_equiv_pos_site_id
 _symmetry_equiv_pos_as_xyz
  1  'x, y, z'
loop_
 _atom_site_type_symbol
 _atom_site_label
 _atom_site_symmetry_multiplicity
 _atom_site_fract_x
 _atom_site_fract_y
 _atom_site_fract_z
 _atom_site_occupancy
  Zr  Zr0  1  0.67529846  0.17529846  0.85059393  1
  Zr  Zr1  1  0.17529846  0.32470154  0.50000000  1
  Zr  Zr2  1  0.82470154  0.67529846  0.50000000  1
  Zr  Zr3  1  0.32470154  0.82470154  0.14940607  1
  Co  Co0  1  0.25000000  0.25000000  -0.00000000  1
  Co  Co1  1  0.75000000  0.75000000  -0.00000000  1
loop_
_geom_bond_atom_site_label_1
_geom_bond_atom_site_label_2
_geom_bond_distance
_geom_bond_site_symmetry_2
Zr0 Zr3 3.082824 1_656
Zr0 Zr3 3.082854 1_546
Zr0 Zr3 3.119400 1_545
Zr0 Zr1 3.283157 1_555
Zr0 Zr2 3.283158 1_545
Zr0 Zr1 3.283175 1_656
Zr0 Zr2 3.283175 1_556
Zr0 Zr2 3.549941 1_555
Zr0 Zr1 3.549942 1_655
Zr0 Zr2 3.549955 1_445
Zr0 Zr1 3.549955 1_545
Zr1 Zr2 3.082828 1_555
Zr1 Zr2 3.082828 1_445
Zr1 Zr2 3.119427 1_455
Zr1 Zr3 3.283158 1_545
Zr1 Zr3 3.283175 1_556
Zr1 Zr3 3.549941 1_555
Zr1 Zr3 3.549955 1_445
Zr2 Zr3 3.283157 1_555
Zr2 Zr3 3.283175 1_656
Zr2 Zr3 3.549942 1_655
Zr2 Zr3 3.549955 1_545
Co0 Zr0 2.706246 1_454
Co0 Zr3 2.706246 1_555
Co0 Zr1 2.706246 1_554
Co0 Zr2 2.706247 1_555
Co0 Zr1 2.706247 1_555
Co0 Zr2 2.706247 1_444
Co0 Zr3 2.706254 1_545
Co0 Zr0 2.706255 1_554
Co0 Co1 2.781503 1_555
Co0 Co1 2.781503 1_445
Co1 Zr3 2.706246 1_655
Co1 Zr0 2.706246 1_554
Co1 Zr2 2.706246 1_555
Co1 Zr1 2.706247 1_554
Co1 Zr2 2.706247 1_554
Co1 Zr1 2.706247 1_665
Co1 Zr0 2.706254 1_564
Co1 Zr3 2.706255 1_555
