# generated using pymatgen
data_Gd(C2N3)3
_symmetry_space_group_name_H-M   'P 1'
_cell_length_a   6.99078719
_cell_length_b   6.99078719
_cell_length_c   10.29520200
_cell_angle_alpha   90.00000000
_cell_angle_beta   90.00000000
_cell_angle_gamma   111.94458138
_symmetry_Int_Tables_number   1
_chemical_formula_structural   Gd(C2N3)3
_chemical_formula_sum   'Gd2 C12 N18'
_cell_volume   466.68342572
_cell_formula_units_Z   2
loop_
 _symmetry_equiv_pos_site_id
 _symmetry_equiv_pos_as_xyz
  1  'x, y, z'
loop_
 _atom_site_type_symbol
 _atom_site_label
 _atom_site_symmetry_multiplicity
 _atom_site_fract_x
 _atom_site_fract_y
 _atom_site_fract_z
 _atom_site_occupancy
  Gd  Gd0  1  0.28537600  0.71462400  0.75000000  1
  Gd  Gd1  1  0.71462400  0.28537600  0.25000000  1
  C  C0  1  0.99643700  0.29123200  0.55209100  1
  C  C1  1  0.44180800  0.27369200  0.75000000  1
  C  C2  1  0.55819200  0.72630800  0.25000000  1
  C  C3  1  0.70876800  0.00356300  0.94790900  1
  C  C4  1  0.29123200  0.99643700  0.44790900  1
  C  C5  1  0.29123200  0.99643700  0.05209100  1
  C  C6  1  0.00356300  0.70876800  0.05209100  1
  C  C7  1  0.00356300  0.70876800  0.44790900  1
  C  C8  1  0.70876800  0.00356300  0.55209100  1
  C  C9  1  0.72630800  0.55819200  0.75000000  1
  C  C10  1  0.27369200  0.44180800  0.25000000  1
  C  C11  1  0.99643700  0.29123200  0.94790900  1
  N  N0  1  0.41729700  0.14089200  0.39907300  1
  N  N1  1  0.35903500  0.09274300  0.75000000  1
  N  N2  1  0.84080300  0.15919700  0.48992500  1
  N  N3  1  0.58270300  0.85910800  0.89907300  1
  N  N4  1  0.09274300  0.35903500  0.25000000  1
  N  N5  1  0.85910800  0.58270300  0.39907300  1
  N  N6  1  0.14089200  0.41729700  0.89907300  1
  N  N7  1  0.90725700  0.64096500  0.75000000  1
  N  N8  1  0.84080300  0.15919700  0.01007500  1
  N  N9  1  0.14089200  0.41729700  0.60092700  1
  N  N10  1  0.15919700  0.84080300  0.98992500  1
  N  N11  1  0.41729700  0.14089200  0.10092700  1
  N  N12  1  0.58270300  0.85910800  0.60092700  1
  N  N13  1  0.85910800  0.58270300  0.10092700  1
  N  N14  1  0.15919700  0.84080300  0.51007500  1
  N  N15  1  0.64096500  0.90725700  0.25000000  1
  N  N16  1  0.52524100  0.47475900  0.75000000  1
  N  N17  1  0.47475900  0.52524100  0.25000000  1
loop_
_geom_bond_atom_site_label_1
_geom_bond_atom_site_label_2
_geom_bond_distance
_geom_bond_site_symmetry_2
Gd0 N6 2.475243 1_555
Gd0 N9 2.475243 1_555
Gd0 N3 2.475243 1_555
Gd0 N12 2.475243 1_555
Gd0 N7 2.497019 1_455
Gd0 N1 2.497019 1_565
Gd0 N16 2.779428 1_555
Gd0 N10 2.870366 1_555
Gd0 N14 2.870366 1_555
Gd1 N0 2.475243 1_555
Gd1 N5 2.475243 1_555
Gd1 N11 2.475243 1_555
Gd1 N13 2.475243 1_555
Gd1 N15 2.497019 1_545
Gd1 N4 2.497019 1_655
Gd1 N17 2.779428 1_555
Gd1 N2 2.870366 1_555
Gd1 N8 2.870366 1_555
C0 N9 1.176470 1_655
C0 N2 1.301825 1_555
C1 N1 1.178094 1_555
C1 N16 1.305062 1_555
C2 N15 1.178094 1_555
C2 N17 1.305062 1_555
C3 N3 1.176470 1_545
C3 N8 1.301825 1_556
C4 N0 1.176470 1_565
C4 N14 1.301825 1_555
C5 N11 1.176470 1_565
C5 N10 1.301825 1_554
C6 N13 1.176470 1_455
C6 N10 1.301825 1_554
C7 N5 1.176470 1_455
C7 N14 1.301825 1_555
C8 N12 1.176470 1_545
C8 N2 1.301825 1_555
C9 N7 1.178094 1_555
C9 N16 1.305062 1_555
C10 N4 1.178094 1_555
C10 N17 1.305062 1_555
C11 N6 1.176470 1_655
C11 N8 1.301825 1_556
