# generated using pymatgen
data_RbPO3
_symmetry_space_group_name_H-M   'P 1'
_cell_length_a   4.60648002
_cell_length_b   11.86328964
_cell_length_c   14.51769467
_cell_angle_alpha   63.62141224
_cell_angle_beta   90.00000000
_cell_angle_gamma   90.00000000
_symmetry_Int_Tables_number   1
_chemical_formula_structural   RbPO3
_chemical_formula_sum   'Rb8 P8 O24'
_cell_volume   710.75641794
_cell_formula_units_Z   8
loop_
 _symmetry_equiv_pos_site_id
 _symmetry_equiv_pos_as_xyz
  1  'x, y, z'
loop_
 _atom_site_type_symbol
 _atom_site_label
 _atom_site_symmetry_multiplicity
 _atom_site_fract_x
 _atom_site_fract_y
 _atom_site_fract_z
 _atom_site_occupancy
  Rb  Rb0  1  0.20782822  0.56718163  0.63462186  1
  Rb  Rb1  1  0.73827919  0.90004747  0.92851315  1
  Rb  Rb2  1  0.26172081  0.09995253  0.07148685  1
  Rb  Rb3  1  0.79217178  0.43281837  0.36537814  1
  Rb  Rb4  1  0.23827919  0.09995253  0.57148685  1
  Rb  Rb5  1  0.29217178  0.56718163  0.13462186  1
  Rb  Rb6  1  0.76172081  0.90004747  0.42851315  1
  Rb  Rb7  1  0.70782822  0.43281837  0.86537814  1
  P  P0  1  0.31550562  0.19425142  0.30768686  1
  P  P1  1  0.18661109  0.71744472  0.83363601  1
  P  P2  1  0.18449438  0.19425142  0.80768686  1
  P  P3  1  0.81338891  0.28255528  0.16636399  1
  P  P4  1  0.68449438  0.80574858  0.69231314  1
  P  P5  1  0.31338891  0.71744472  0.33363601  1
  P  P6  1  0.68661109  0.28255528  0.66636399  1
  P  P7  1  0.81550562  0.80574858  0.19231314  1
  O  O0  1  0.75222545  0.25678465  0.57755170  1
  O  O1  1  0.74777455  0.25678465  0.07755170  1
  O  O2  1  0.79548837  0.69989769  0.16426100  1
  O  O3  1  0.70451163  0.69989769  0.66426100  1
  O  O4  1  0.20451163  0.30010231  0.83573900  1
  O  O5  1  0.28802031  0.58869889  0.34206327  1
  O  O6  1  0.75462466  0.93501308  0.61398670  1
  O  O7  1  0.78802031  0.41130111  0.15793673  1
  O  O8  1  0.86474410  0.77277089  0.79672258  1
  O  O9  1  0.71197969  0.41130111  0.65793673  1
  O  O10  1  0.36565185  0.81525866  0.73377335  1
  O  O11  1  0.86565185  0.18474134  0.76622665  1
  O  O12  1  0.63434815  0.18474134  0.26622665  1
  O  O13  1  0.13525590  0.22722911  0.20327742  1
  O  O14  1  0.21197969  0.58869889  0.84206327  1
  O  O15  1  0.24777455  0.74321535  0.42244830  1
  O  O16  1  0.63525590  0.77277089  0.29672258  1
  O  O17  1  0.74537534  0.93501308  0.11398670  1
  O  O18  1  0.29548837  0.30010231  0.33573900  1
  O  O19  1  0.13434815  0.81525866  0.23377335  1
  O  O20  1  0.25462466  0.06498692  0.88601330  1
  O  O21  1  0.24537534  0.06498692  0.38601330  1
  O  O22  1  0.36474410  0.22722911  0.70327742  1
  O  O23  1  0.25222545  0.74321535  0.92244830  1
loop_
_geom_bond_atom_site_label_1
_geom_bond_atom_site_label_2
_geom_bond_distance
_geom_bond_site_symmetry_2
O0 P6 1.482403 1_555
O0 Rb3 2.857802 1_555
O0 Rb4 2.937355 1_655
O0 Rb4 3.036433 1_555
O1 P3 1.482403 1_555
O1 Rb7 2.857802 1_554
O1 Rb2 2.937355 1_555
O1 Rb2 3.036433 1_655
O2 P7 1.485151 1_555
O2 Rb5 2.915616 1_655
O2 Rb5 2.939655 1_555
O2 Rb1 3.193705 1_554
O2 Rb3 3.216164 1_555
O3 P4 1.485151 1_555
O3 Rb0 2.915616 1_555
O3 Rb0 2.939655 1_655
O3 Rb6 3.193705 1_555
O3 Rb7 3.216164 1_555
O4 P2 1.485151 1_555
O4 Rb7 2.915616 1_455
O4 Rb7 2.939655 1_555
O4 Rb2 3.193705 1_556
O4 Rb0 3.216164 1_555
O5 P5 1.481679 1_555
O5 Rb3 2.862743 1_455
O5 Rb3 2.893352 1_555
O5 Rb5 3.133400 1_555
O6 P4 1.483076 1_555
O6 Rb4 2.846119 1_665
O6 Rb6 2.901033 1_555
O6 Rb4 2.965482 1_565
O7 P3 1.481679 1_555
O7 Rb5 2.862743 1_555
O7 Rb5 2.893352 1_655
O7 Rb3 3.133400 1_555
O8 P1 1.613614 1_655
O8 P4 1.616519 1_555
O8 Rb1 2.974395 1_555
O9 P6 1.481679 1_555
O9 Rb0 2.862743 1_655
O9 Rb0 2.893352 1_555
O9 Rb7 3.133400 1_555
O10 P4 1.610144 1_555
O10 P1 1.622859 1_555
O10 Rb4 3.198620 1_565
O11 P2 1.610144 1_655
O11 P6 1.622859 1_555
O11 Rb1 3.198620 1_545
O12 P0 1.610144 1_555
O12 P3 1.622859 1_555
O12 Rb6 3.198620 1_545
O13 P3 1.613614 1_455
O13 P0 1.616519 1_555
O13 Rb2 2.974395 1_555
O14 P1 1.481679 1_555
O14 Rb7 2.862743 1_555
O14 Rb7 2.893352 1_455
O14 Rb0 3.133400 1_555
O15 P5 1.482403 1_555
O15 Rb0 2.857802 1_555
O15 Rb6 2.937355 1_455
O15 Rb6 3.036433 1_555
O16 P5 1.613614 1_555
O16 P7 1.616519 1_555
O16 Rb6 2.974395 1_555
O17 P7 1.483076 1_555
O17 Rb2 2.846119 1_565
O17 Rb1 2.901033 1_554
O17 Rb2 2.965482 1_665
O18 P0 1.485151 1_555
O18 Rb3 2.915616 1_555
O18 Rb3 2.939655 1_455
O18 Rb4 3.193705 1_555
O18 Rb5 3.216164 1_555
O19 P7 1.610144 1_455
O19 P5 1.622859 1_555
O19 Rb2 3.198620 1_565
O20 P2 1.483076 1_555
O20 Rb1 2.846119 1_545
O20 Rb2 2.901033 1_556
O20 Rb1 2.965482 1_445
O21 P0 1.483076 1_555
O21 Rb6 2.846119 1_445
O21 Rb4 2.901033 1_555
O21 Rb6 2.965482 1_545
O22 P6 1.613614 1_555
O22 P2 1.616519 1_555
O22 Rb4 2.974395 1_555
O23 P1 1.482403 1_555
O23 Rb5 2.857802 1_556
O23 Rb1 2.937355 1_555
O23 Rb1 3.036433 1_455
