# generated using pymatgen
data_Fe2RhS4
_symmetry_space_group_name_H-M   'P 1'
_cell_length_a   6.77581445
_cell_length_b   6.77581445
_cell_length_c   6.77581445
_cell_angle_alpha   121.06474670
_cell_angle_beta   119.16075902
_cell_angle_gamma   89.81275271
_symmetry_Int_Tables_number   1
_chemical_formula_structural   Fe2RhS4
_chemical_formula_sum   'Fe4 Rh2 S8'
_cell_volume   219.52081559
_cell_formula_units_Z   2
loop_
 _symmetry_equiv_pos_site_id
 _symmetry_equiv_pos_as_xyz
  1  'x, y, z'
loop_
 _atom_site_type_symbol
 _atom_site_label
 _atom_site_symmetry_multiplicity
 _atom_site_fract_x
 _atom_site_fract_y
 _atom_site_fract_z
 _atom_site_occupancy
  Fe  Fe0  1  0.62413900  0.87413900  0.75000000  1
  Fe  Fe1  1  0.37586100  0.12586100  0.25000000  1
  Fe  Fe2  1  0.00000000  0.50000000  0.00000000  1
  Fe  Fe3  1  0.00000000  0.00000000  0.50000000  1
  Rh  Rh0  1  0.50000000  0.50000000  0.00000000  1
  Rh  Rh1  1  0.00000000  0.50000000  0.50000000  1
  S  S0  1  0.23641100  0.73082700  0.99441600  1
  S  S1  1  0.23188200  0.25194400  0.97993800  1
  S  S2  1  0.23641100  0.24199500  0.50558400  1
  S  S3  1  0.77200600  0.25194400  0.52006200  1
  S  S4  1  0.22799400  0.74805600  0.47993800  1
  S  S5  1  0.76811800  0.74805600  0.02006200  1
  S  S6  1  0.76358900  0.75800500  0.49441600  1
  S  S7  1  0.76358900  0.26917300  0.00558400  1
loop_
_geom_bond_atom_site_label_1
_geom_bond_atom_site_label_2
_geom_bond_distance
_geom_bond_site_symmetry_2
Fe0 S7 2.166690 1_566
Fe0 S6 2.166690 1_555
Fe0 S4 2.213207 1_555
Fe0 S5 2.213207 1_556
Fe1 S2 2.166690 1_555
Fe1 S0 2.166690 1_544
Fe1 S3 2.213207 1_555
Fe1 S1 2.213207 1_554
Fe2 S7 2.269400 1_455
Fe2 S0 2.269400 1_554
Fe2 S1 2.295044 1_554
Fe2 S5 2.295044 1_455
Fe2 S3 2.295044 1_454
Fe2 S4 2.295044 1_555
Fe3 S2 2.269400 1_555
Fe3 S6 2.269400 1_445
Fe3 S1 2.295044 1_555
Fe3 S5 2.295044 1_445
Fe3 S3 2.295044 1_455
Fe3 S4 2.295044 1_545
Rh0 S6 2.369497 1_555
Rh0 S7 2.369497 1_555
Rh0 S0 2.369497 1_554
Rh0 S2 2.369497 1_554
Rh0 S5 2.384841 1_555
Rh0 S1 2.384841 1_554
Rh1 S2 2.369497 1_555
Rh1 S6 2.369497 1_455
Rh1 S0 2.369497 1_555
Rh1 S7 2.369497 1_455
Rh1 S4 2.384841 1_555
Rh1 S3 2.384841 1_455
