# generated using pymatgen
data_LiMn2O4
_symmetry_space_group_name_H-M   'P 1'
_cell_length_a   8.66131541
_cell_length_b   13.12435198
_cell_length_c   13.17250947
_cell_angle_alpha   83.80148183
_cell_angle_beta   70.82430690
_cell_angle_gamma   70.77224990
_symmetry_Int_Tables_number   1
_chemical_formula_structural   LiMn2O4
_chemical_formula_sum   'Li18 Mn36 O72'
_cell_volume   1335.39967433
_cell_formula_units_Z   18
loop_
 _symmetry_equiv_pos_site_id
 _symmetry_equiv_pos_as_xyz
  1  'x, y, z'
loop_
 _atom_site_type_symbol
 _atom_site_label
 _atom_site_symmetry_multiplicity
 _atom_site_fract_x
 _atom_site_fract_y
 _atom_site_fract_z
 _atom_site_occupancy
  Li  Li0  1  0.79013891  0.74986736  0.42017533  1
  Li  Li1  1  0.46011162  0.74967083  0.08056127  1
  Li  Li2  1  0.20649166  0.91723775  0.91355024  1
  Li  Li3  1  0.79502474  0.08222744  0.08627149  1
  Li  Li4  1  0.87780053  0.91706508  0.58633493  1
  Li  Li5  1  0.20673371  0.58743116  0.24996752  1
  Li  Li6  1  0.45671559  0.08700137  0.75013862  1
  Li  Li7  1  0.87541045  0.24992711  0.25055229  1
  Li  Li8  1  0.54080374  0.24998039  0.91923275  1
  Li  Li9  1  0.79442296  0.41224575  0.75036533  1
  Li  Li10  1  0.54476629  0.91226511  0.24982828  1
  Li  Li11  1  0.11923397  0.41686796  0.08651311  1
  Li  Li12  1  0.46403981  0.41658328  0.41421535  1
  Li  Li13  1  0.21021522  0.24951158  0.58039773  1
  Li  Li14  1  0.88227419  0.58247197  0.91324044  1
  Li  Li15  1  0.53696513  0.58285855  0.58621779  1
  Li  Li16  1  0.12527107  0.74952157  0.74971145  1
  Li  Li17  1  0.12312066  0.08236582  0.41434964  1
  Mn  Mn0  1  0.83226535  0.33334628  0.49537258  1
  Mn  Mn1  1  0.99670335  0.16828303  0.83529410  1
  Mn  Mn2  1  0.16505004  0.83128200  0.33524423  1
  Mn  Mn3  1  0.67048980  0.50286661  0.16522474  1
  Mn  Mn4  1  0.16035826  0.16643246  0.00543687  1
  Mn  Mn5  1  0.16581929  0.99665525  0.16523233  1
  Mn  Mn6  1  0.50089818  0.66859411  0.33545058  1
  Mn  Mn7  1  0.16884459  0.66647322  0.50546437  1
  Mn  Mn8  1  0.50579640  0.16592255  0.33058737  1
  Mn  Mn9  1  0.16961594  0.33085677  0.83467148  1
  Mn  Mn10  1  0.00442677  0.83105364  0.16482512  1
  Mn  Mn11  1  0.84178560  0.83281247  0.99399806  1
  Mn  Mn12  1  0.67374570  0.16598266  0.49531360  1
  Mn  Mn13  1  0.33116017  0.49674660  0.83449755  1
  Mn  Mn14  1  0.50333890  0.33301321  0.16964498  1
  Mn  Mn15  1  0.83596156  0.33323372  0.00573113  1
  Mn  Mn16  1  0.32653691  0.83313828  0.50554354  1
  Mn  Mn17  1  0.00024475  0.50005030  0.49991278  1
  Mn  Mn18  1  0.82711641  0.50300042  0.33589178  1
  Mn  Mn19  1  0.83647143  0.66659684  0.66950578  1
  Mn  Mn20  1  0.32859799  0.16615854  0.16965612  1
  Mn  Mn21  1  0.16442929  0.33286115  0.33056931  1
  Mn  Mn22  1  0.49531157  0.83341151  0.66948874  1
  Mn  Mn23  1  0.50050711  0.50009434  0.00019766  1
  Mn  Mn24  1  0.67279291  0.83308345  0.83037159  1
  Mn  Mn25  1  0.50074444  0.99963878  0.00009769  1
  Mn  Mn26  1  0.50043120  0.99952370  0.49994653  1
  Mn  Mn27  1  0.49796764  0.66660256  0.83063022  1
  Mn  Mn28  1  0.17320358  0.49636839  0.66461566  1
  Mn  Mn29  1  0.16300844  0.00271246  0.66517646  1
  Mn  Mn30  1  0.83149300  0.66842322  0.16480249  1
  Mn  Mn31  1  0.16519944  0.66646634  0.99386591  1
  Mn  Mn32  1  0.83799782  0.99659700  0.33544526  1
  Mn  Mn33  1  0.83581933  0.16834910  0.66527562  1
  Mn  Mn34  1  0.50043961  0.33117519  0.66500055  1
  Mn  Mn35  1  0.83504052  0.00292094  0.83454251  1
  O  O0  1  0.56659460  0.17180584  0.17619021  1
  O  O1  1  0.39292085  0.00321634  0.15780949  1
  O  O2  1  0.76880244  0.82254844  0.14949287  1
  O  O3  1  0.23705268  0.84275017  0.17155347  1
  O  O4  1  0.24606187  0.51070560  0.98864037  1
  O  O5  1  0.06868905  0.82338180  0.99867997  1
  O  O6  1  0.76328909  0.15690057  0.82750334  1
  O  O7  1  0.75439217  0.01056030  0.48942579  1
  O  O8  1  0.76027834  0.32300227  0.65093638  1
  O  O9  1  0.61259361  0.83975834  0.98764531  1
  O  O10  1  0.41852347  0.32598822  0.32353290  1
  O  O11  1  0.88851290  0.51161430  0.17769795  1
  O  O12  1  0.60539674  0.00272570  0.34191254  1
  O  O13  1  0.92437935  0.01110663  0.67674932  1
  O  O14  1  0.76620454  0.98870081  0.98862555  1
  O  O15  1  0.93296041  0.17603799  0.00047038  1
  O  O16  1  0.58366588  0.67341673  0.67646680  1
  O  O17  1  0.05280517  0.49728706  0.34237910  1
  O  O18  1  0.94677984  0.50300271  0.65777837  1
  O  O19  1  0.23502012  0.01076132  0.01126226  1
  O  O20  1  0.06820033  0.32319114  0.00050363  1
  O  O21  1  0.90607679  0.34684793  0.34121923  1
  O  O22  1  0.75338930  0.15273485  0.34086316  1
  O  O23  1  0.45076647  0.49720848  0.15788236  1
  O  O24  1  0.75709044  0.48871785  0.48990628  1
  O  O25  1  0.38905717  0.15943146  0.01224479  1
  O  O26  1  0.59029087  0.17645764  0.65076572  1
  O  O27  1  0.74162522  0.82687451  0.67659994  1
  O  O28  1  0.93531285  0.98815937  0.17720016  1
  O  O29  1  0.55055151  0.50310642  0.84241664  1
  O  O30  1  0.24263069  0.67682028  0.34957600  1
  O  O31  1  0.54842695  0.84004055  0.51226448  1
  O  O32  1  0.40970568  0.34249291  0.82726863  1
  O  O33  1  0.59424971  0.65706628  0.17095917  1
  O  O34  1  0.39070139  0.67633153  0.50092094  1
  O  O35  1  0.60028577  0.34014913  0.01247761  1
  O  O36  1  0.40059725  0.65989288  0.98779397  1
  O  O37  1  0.09309602  0.65274421  0.65965496  1
  O  O38  1  0.75556346  0.48881701  0.01124876  1
  O  O39  1  0.24746360  0.84653911  0.65986467  1
  O  O40  1  0.06516176  0.01108867  0.82324055  1
  O  O41  1  0.23344135  0.17651466  0.85007057  1
  O  O42  1  0.09569884  0.15304495  0.16018766  1
  O  O43  1  0.45249801  0.15896946  0.48778990  1
  O  O44  1  0.93451531  0.67640228  0.99766465  1
  O  O45  1  0.25429874  0.65280015  0.83965668  1
  O  O46  1  0.93980459  0.65991304  0.51238479  1
  O  O47  1  0.92056401  0.84257077  0.32930105  1
  O  O48  1  0.10919860  0.82351241  0.50027137  1
  O  O49  1  0.60035801  0.51143764  0.32345405  1
  O  O50  1  0.41001666  0.82279239  0.34983483  1
  O  O51  1  0.08092152  0.67673054  0.14996685  1
  O  O52  1  0.11274916  0.48776132  0.82255106  1
  O  O53  1  0.74903757  0.65688633  0.33080672  1
  O  O54  1  0.24335146  0.51086831  0.51052496  1
  O  O55  1  0.91870611  0.32271159  0.85007837  1
  O  O56  1  0.06108801  0.34006157  0.48771798  1
  O  O57  1  0.74544435  0.67354033  0.82340781  1
  O  O58  1  0.60890193  0.32332778  0.50130424  1
  O  O59  1  0.24634482  0.98880358  0.51111557  1
  O  O60  1  0.07676193  0.98834422  0.32335435  1
  O  O61  1  0.90524974  0.84655805  0.83941516  1
  O  O62  1  0.89148007  0.17590971  0.50143993  1
  O  O63  1  0.26020812  0.17185919  0.32354937  1
  O  O64  1  0.43489608  0.82736389  0.82390819  1
  O  O65  1  0.74773619  0.34687533  0.16009025  1
  O  O66  1  0.39994174  0.48846855  0.67647891  1
  O  O67  1  0.25546332  0.32566324  0.17673067  1
  O  O68  1  0.39629535  0.99609365  0.65809387  1
  O  O69  1  0.08127135  0.15658731  0.67196719  1
  O  O70  1  0.24920423  0.34269383  0.67051494  1
  O  O71  1  0.60797794  0.99610846  0.84219519  1
loop_
_geom_bond_atom_site_label_1
_geom_bond_atom_site_label_2
_geom_bond_distance
_geom_bond_site_symmetry_2
Li0 O53 1.968090 1_555
Li0 O47 1.972748 1_555
Li0 O31 2.065138 1_555
Li0 O46 2.065482 1_555
Li1 O3 1.975343 1_555
Li1 O33 1.977660 1_555
Li1 O36 2.066894 1_554
Li1 O9 2.072263 1_554
Li2 O64 1.982042 1_555
Li2 O19 1.993532 1_566
Li2 O5 1.997545 1_555
Li2 O40 2.019373 1_565
Li3 O0 1.982112 1_555
Li3 O14 1.994269 1_544
Li3 O15 2.000463 1_555
Li3 O28 2.020877 1_545
Li4 O27 1.974930 1_555
Li4 O7 1.992979 1_565
Li4 O48 1.999192 1_655
Li4 O13 2.016328 1_565
Li5 O30 2.008793 1_555
Li5 O51 2.016087 1_555
Li5 O23 2.078079 1_555
Li5 O17 2.078634 1_555
Li6 O26 1.999567 1_555
Li6 O41 2.004493 1_555
Li6 O68 2.075543 1_545
Li6 O71 2.076492 1_545
Li7 O65 1.968056 1_555
Li7 O21 1.968238 1_555
Li7 O22 1.973216 1_555
Li7 O42 1.977627 1_655
Li8 O6 1.975948 1_555
Li8 O32 1.977107 1_555
Li8 O25 2.073001 1_556
Li8 O35 2.075012 1_556
Li9 O8 1.997142 1_555
Li9 O55 2.006780 1_555
Li9 O18 2.076509 1_555
Li9 O29 2.079562 1_555
Li10 O50 2.008742 1_555
Li10 O2 2.011211 1_555
Li10 O12 2.072850 1_565
Li10 O1 2.079564 1_565
Li11 O67 1.980159 1_555
Li11 O20 1.994552 1_555
Li11 O4 2.000843 1_554
Li11 O11 2.022721 1_455
Li12 O10 1.980104 1_555
Li12 O54 1.995599 1_555
Li12 O58 2.004787 1_555
Li12 O49 2.023009 1_555
Li13 O70 1.966635 1_555
Li13 O69 1.970798 1_555
Li13 O56 2.069450 1_555
Li13 O43 2.071894 1_555
Li14 O57 1.978939 1_555
Li14 O44 1.988767 1_555
Li14 O38 1.999266 1_556
Li14 O52 2.019112 1_655
Li15 O16 1.981690 1_555
Li15 O24 1.992248 1_555
Li15 O34 1.996511 1_555
Li15 O66 2.019925 1_555
Li16 O37 1.968207 1_555
Li16 O45 1.968436 1_555
Li16 O39 1.970121 1_555
Li16 O61 1.974062 1_455
Li17 O63 1.975394 1_555
Li17 O59 1.991022 1_545
Li17 O62 2.004589 1_455
Li17 O60 2.020535 1_545
Mn0 O21 1.925487 1_555
Mn0 O24 1.926620 1_555
Mn0 O8 1.939744 1_555
Mn0 O62 1.957577 1_555
Mn0 O58 1.957594 1_555
Mn0 O56 1.981851 1_655
Mn1 O55 1.923306 1_555
Mn1 O40 1.958633 1_655
Mn1 O69 2.037336 1_655
Mn1 O15 2.066613 1_556
Mn1 O6 2.111526 1_555
Mn1 O41 2.160228 1_655
Mn2 O30 1.923598 1_555
Mn2 O60 1.956820 1_555
Mn2 O3 2.041867 1_555
Mn2 O48 2.064876 1_555
Mn2 O47 2.100463 1_455
Mn2 O50 2.158393 1_555
Mn3 O33 1.912445 1_555
Mn3 O38 1.923597 1_555
Mn3 O65 1.934316 1_555
Mn3 O23 1.962697 1_555
Mn3 O49 1.974779 1_555
Mn3 O11 1.989170 1_555
Mn4 O19 1.930491 1_555
Mn4 O42 1.933216 1_555
Mn4 O41 1.937078 1_554
Mn4 O20 1.948755 1_555
Mn4 O15 1.954145 1_455
Mn4 O25 1.983740 1_555
Mn5 O3 1.908980 1_555
Mn5 O19 1.923647 1_565
Mn5 O42 1.939612 1_565
Mn5 O1 1.967093 1_565
Mn5 O60 1.973859 1_555
Mn5 O28 1.989804 1_455
Mn6 O50 1.920074 1_555
Mn6 O49 1.957539 1_555
Mn6 O33 2.052030 1_555
Mn6 O34 2.071110 1_555
Mn6 O53 2.084375 1_555
Mn6 O30 2.149884 1_555
Mn7 O37 1.926556 1_555
Mn7 O54 1.929342 1_555
Mn7 O30 1.943792 1_555
Mn7 O34 1.949177 1_555
Mn7 O48 1.952156 1_555
Mn7 O46 1.985734 1_455
Mn8 O0 1.925851 1_555
Mn8 O43 1.966826 1_555
Mn8 O10 1.987784 1_555
Mn8 O12 2.037778 1_555
Mn8 O63 2.134976 1_555
Mn8 O22 2.142017 1_555
Mn9 O41 1.922849 1_555
Mn9 O52 1.954813 1_555
Mn9 O70 2.047894 1_555
Mn9 O20 2.074524 1_556
Mn9 O32 2.104724 1_555
Mn9 O55 2.152683 1_455
Mn10 O51 1.922511 1_555
Mn10 O28 1.957525 1_455
Mn10 O47 2.051590 1_455
Mn10 O5 2.078490 1_554
Mn10 O3 2.101189 1_555
Mn10 O2 2.154963 1_455
Mn11 O61 1.931756 1_555
Mn11 O14 1.932980 1_555
Mn11 O2 1.938820 1_556
Mn11 O44 1.944085 1_555
Mn11 O5 1.949158 1_655
Mn11 O9 1.986011 1_555
Mn12 O7 1.927407 1_555
Mn12 O22 1.928911 1_555
Mn12 O26 1.938409 1_555
Mn12 O58 1.956598 1_555
Mn12 O62 1.960627 1_555
Mn12 O43 1.983278 1_555
Mn13 O32 1.913725 1_555
Mn13 O4 1.925562 1_555
Mn13 O45 1.935153 1_555
Mn13 O29 1.966021 1_555
Mn13 O66 1.972548 1_555
Mn13 O52 1.990931 1_555
Mn14 O10 1.919179 1_555
Mn14 O35 1.966688 1_555
Mn14 O0 2.003029 1_555
Mn14 O23 2.050154 1_555
Mn14 O65 2.145572 1_555
Mn14 O67 2.151776 1_555
Mn15 O65 1.928231 1_555
Mn15 O38 1.929231 1_555
Mn15 O55 1.940933 1_554
Mn15 O20 1.950530 1_655
Mn15 O15 1.953967 1_555
Mn15 O35 1.985808 1_555
Mn16 O39 1.927571 1_555
Mn16 O59 1.930272 1_555
Mn16 O50 1.941487 1_555
Mn16 O34 1.949203 1_555
Mn16 O48 1.951604 1_555
Mn16 O31 1.984380 1_555
Mn17 O17 1.974701 1_555
Mn17 O18 1.978177 1_455
Mn17 O46 1.999389 1_455
Mn17 O56 2.000218 1_555
Mn17 O24 2.206307 1_455
Mn17 O54 2.206333 1_555
Mn18 O53 1.908342 1_555
Mn18 O24 1.924390 1_555
Mn18 O21 1.936493 1_555
Mn18 O17 1.961078 1_655
Mn18 O11 1.974486 1_555
Mn18 O49 1.990157 1_555
Mn19 O57 1.918939 1_555
Mn19 O46 1.965428 1_555
Mn19 O27 1.990556 1_555
Mn19 O18 2.042091 1_555
Mn19 O37 2.130675 1_655
Mn19 O16 2.133467 1_555
Mn20 O63 1.918484 1_555
Mn20 O25 1.969062 1_555
Mn20 O67 1.980452 1_555
Mn20 O1 2.034256 1_555
Mn20 O0 2.116763 1_555
Mn20 O42 2.124361 1_555
Mn21 O67 1.918258 1_555
Mn21 O56 1.965834 1_555
Mn21 O63 1.999737 1_555
Mn21 O17 2.053127 1_555
Mn21 O21 2.142276 1_455
Mn21 O10 2.144120 1_555
Mn22 O64 1.926371 1_555
Mn22 O31 1.967220 1_555
Mn22 O16 1.987332 1_555
Mn22 O68 2.031253 1_555
Mn22 O27 2.139281 1_555
Mn22 O39 2.141142 1_555
Mn23 O23 1.976688 1_555
Mn23 O29 1.977575 1_554
Mn23 O36 1.999381 1_554
Mn23 O35 2.000801 1_555
Mn23 O4 2.216555 1_554
Mn23 O38 2.216884 1_555
Mn24 O27 1.917106 1_555
Mn24 O9 1.967468 1_555
Mn24 O57 1.981040 1_555
Mn24 O71 2.034867 1_555
Mn24 O64 2.115902 1_555
Mn24 O61 2.120330 1_555
Mn25 O1 1.976829 1_565
Mn25 O71 1.978496 1_554
Mn25 O25 1.998524 1_565
Mn25 O9 1.999858 1_554
Mn25 O14 2.211098 1_554
Mn25 O19 2.213806 1_565
Mn26 O12 1.981107 1_565
Mn26 O68 1.981769 1_555
Mn26 O43 1.994031 1_565
Mn26 O31 1.994525 1_555
Mn26 O59 2.207121 1_555
Mn26 O7 2.209943 1_565
Mn27 O16 1.922775 1_555
Mn27 O36 1.966590 1_555
Mn27 O64 1.997541 1_555
Mn27 O29 2.041258 1_555
Mn27 O45 2.140897 1_555
Mn27 O57 2.145818 1_555
Mn28 O70 1.905902 1_555
Mn28 O54 1.925587 1_555
Mn28 O37 1.939243 1_555
Mn28 O18 1.965600 1_455
Mn28 O52 1.971703 1_555
Mn28 O66 1.988938 1_555
Mn29 O69 1.908753 1_555
Mn29 O59 1.924473 1_545
Mn29 O39 1.936740 1_545
Mn29 O68 1.965010 1_545
Mn29 O40 1.973407 1_555
Mn29 O13 1.988437 1_455
Mn30 O2 1.920317 1_555
Mn30 O11 1.954064 1_555
Mn30 O53 2.070846 1_555
Mn30 O33 2.083459 1_555
Mn30 O44 2.091777 1_554
Mn30 O51 2.142546 1_655
Mn31 O45 1.926574 1_555
Mn31 O4 1.931309 1_555
Mn31 O44 1.943128 1_455
Mn31 O51 1.946311 1_556
Mn31 O5 1.950251 1_555
Mn31 O36 1.987279 1_555
Mn32 O47 1.910379 1_555
Mn32 O7 1.923533 1_565
Mn32 O22 1.936364 1_565
Mn32 O12 1.963280 1_565
Mn32 O28 1.975335 1_555
Mn32 O60 1.988364 1_655
Mn33 O8 1.925419 1_555
Mn33 O13 1.958641 1_555
Mn33 O6 2.023536 1_555
Mn33 O62 2.049769 1_555
Mn33 O69 2.110740 1_655
Mn33 O26 2.164220 1_555
Mn34 O26 1.926016 1_555
Mn34 O66 1.959484 1_555
Mn34 O32 2.024017 1_555
Mn34 O58 2.048468 1_555
Mn34 O70 2.108340 1_555
Mn34 O8 2.163833 1_555
Mn35 O6 1.910229 1_555
Mn35 O14 1.925188 1_545
Mn35 O61 1.939208 1_545
Mn35 O71 1.967115 1_545
Mn35 O13 1.969910 1_555
Mn35 O40 1.987123 1_655
