# generated using pymatgen
data_KV2H2C8N2(OF)5
_symmetry_space_group_name_H-M   'P 1'
_cell_length_a   8.57384000
_cell_length_b   11.82623400
_cell_length_c   17.08588700
_cell_angle_alpha   90.00000000
_cell_angle_beta   90.00000000
_cell_angle_gamma   90.00000000
_symmetry_Int_Tables_number   1
_chemical_formula_structural   KV2H2C8N2(OF)5
_chemical_formula_sum   'K4 V8 H8 C32 N8 O20 F20'
_cell_volume   1732.44466672
_cell_formula_units_Z   4
loop_
 _symmetry_equiv_pos_site_id
 _symmetry_equiv_pos_as_xyz
  1  'x, y, z'
loop_
 _atom_site_type_symbol
 _atom_site_label
 _atom_site_symmetry_multiplicity
 _atom_site_fract_x
 _atom_site_fract_y
 _atom_site_fract_z
 _atom_site_occupancy
  K  K0  1  0.18136300  0.49840900  0.25000000  1
  K  K1  1  0.31863700  0.99840900  0.25000000  1
  K  K2  1  0.81863700  0.50159100  0.75000000  1
  K  K3  1  0.68136300  0.00159100  0.75000000  1
  V  V0  1  0.02319400  0.78556800  0.33810700  1
  V  V1  1  0.47680600  0.28556800  0.16189300  1
  V  V2  1  0.97680600  0.21443200  0.83810700  1
  V  V3  1  0.52319400  0.71443200  0.66189300  1
  V  V4  1  0.97680600  0.21443200  0.66189300  1
  V  V5  1  0.52319400  0.71443200  0.83810700  1
  V  V6  1  0.02319400  0.78556800  0.16189300  1
  V  V7  1  0.47680600  0.28556800  0.33810700  1
  H  H0  1  0.68077000  0.06409300  0.25000000  1
  H  H1  1  0.81923000  0.56409300  0.25000000  1
  H  H2  1  0.31923000  0.93590700  0.75000000  1
  H  H3  1  0.18077000  0.43590700  0.75000000  1
  H  H4  1  0.76239500  0.94819100  0.25000000  1
  H  H5  1  0.73760500  0.44819100  0.25000000  1
  H  H6  1  0.23760500  0.05180900  0.75000000  1
  H  H7  1  0.26239500  0.55180900  0.75000000  1
  C  C0  1  0.40895500  0.63802500  0.12218900  1
  C  C1  1  0.09104500  0.13802500  0.37781100  1
  C  C2  1  0.59104500  0.36197500  0.62218900  1
  C  C3  1  0.90895500  0.86197500  0.87781100  1
  C  C4  1  0.59104500  0.36197500  0.87781100  1
  C  C5  1  0.90895500  0.86197500  0.62218900  1
  C  C6  1  0.40895500  0.63802500  0.37781100  1
  C  C7  1  0.09104500  0.13802500  0.12218900  1
  C  C8  1  0.51806800  0.68777500  0.08217200  1
  C  C9  1  0.98193200  0.18777500  0.41782800  1
  C  C10  1  0.48193200  0.31222500  0.58217200  1
  C  C11  1  0.01806800  0.81222500  0.91782800  1
  C  C12  1  0.48193200  0.31222500  0.91782800  1
  C  C13  1  0.01806800  0.81222500  0.58217200  1
  C  C14  1  0.51806800  0.68777500  0.41782800  1
  C  C15  1  0.98193200  0.18777500  0.08217200  1
  C  C16  1  0.69160000  0.67057900  0.06893000  1
  C  C17  1  0.80840000  0.17057900  0.43107000  1
  C  C18  1  0.30840000  0.32942100  0.56893000  1
  C  C19  1  0.19160000  0.82942100  0.93107000  1
  C  C20  1  0.30840000  0.32942100  0.93107000  1
  C  C21  1  0.19160000  0.82942100  0.56893000  1
  C  C22  1  0.69160000  0.67057900  0.43107000  1
  C  C23  1  0.80840000  0.17057900  0.06893000  1
  C  C24  1  0.57347700  0.80966500  0.07057000  1
  C  C25  1  0.92652300  0.30966500  0.42943000  1
  C  C26  1  0.42652300  0.19033500  0.57057000  1
  C  C27  1  0.07347700  0.69033500  0.92943000  1
  C  C28  1  0.42652300  0.19033500  0.92943000  1
  C  C29  1  0.07347700  0.69033500  0.57057000  1
  C  C30  1  0.57347700  0.80966500  0.42943000  1
  C  C31  1  0.92652300  0.30966500  0.07057000  1
  N  N0  1  0.71996700  0.77913400  0.09547800  1
  N  N1  1  0.78003300  0.27913400  0.40452200  1
  N  N2  1  0.28003300  0.22086600  0.59547800  1
  N  N3  1  0.21996700  0.72086600  0.90452200  1
  N  N4  1  0.28003300  0.22086600  0.90452200  1
  N  N5  1  0.21996700  0.72086600  0.59547800  1
  N  N6  1  0.71996700  0.77913400  0.40452200  1
  N  N7  1  0.78003300  0.27913400  0.09547800  1
  O  O0  1  0.84567900  0.84078700  0.10917100  1
  O  O1  1  0.65432100  0.34078700  0.39082900  1
  O  O2  1  0.15432100  0.15921300  0.60917100  1
  O  O3  1  0.34567900  0.65921300  0.89082900  1
  O  O4  1  0.15432100  0.15921300  0.89082900  1
  O  O5  1  0.34567900  0.65921300  0.60917100  1
  O  O6  1  0.84567900  0.84078700  0.39082900  1
  O  O7  1  0.65432100  0.34078700  0.10917100  1
  O  O8  1  0.04196900  0.66262400  0.12336200  1
  O  O9  1  0.45803100  0.16262400  0.37663800  1
  O  O10  1  0.95803100  0.33737600  0.62336200  1
  O  O11  1  0.54196900  0.83737600  0.87663800  1
  O  O12  1  0.95803100  0.33737600  0.87663800  1
  O  O13  1  0.54196900  0.83737600  0.62336200  1
  O  O14  1  0.04196900  0.66262400  0.37663800  1
  O  O15  1  0.45803100  0.16262400  0.12336200  1
  O  O16  1  0.65894300  0.98314500  0.25000000  1
  O  O17  1  0.84105700  0.48314500  0.25000000  1
  O  O18  1  0.34105700  0.01685500  0.75000000  1
  O  O19  1  0.15894300  0.51685500  0.75000000  1
  F  F0  1  0.88715000  0.72056100  0.25000000  1
  F  F1  1  0.61285000  0.22056100  0.25000000  1
  F  F2  1  0.11285000  0.27943900  0.75000000  1
  F  F3  1  0.38715000  0.77943900  0.75000000  1
  F  F4  1  0.17197500  0.75343600  0.25000000  1
  F  F5  1  0.32802500  0.25343600  0.25000000  1
  F  F6  1  0.82802500  0.24656400  0.75000000  1
  F  F7  1  0.67197500  0.74656400  0.75000000  1
  F  F8  1  0.98662800  0.90954600  0.25000000  1
  F  F9  1  0.51337200  0.40954600  0.25000000  1
  F  F10  1  0.01337200  0.09045400  0.75000000  1
  F  F11  1  0.48662800  0.59045400  0.75000000  1
  F  F12  1  0.16798400  0.87277000  0.11835800  1
  F  F13  1  0.33201600  0.37277000  0.38164200  1
  F  F14  1  0.83201600  0.12723000  0.61835800  1
  F  F15  1  0.66798400  0.62723000  0.88164200  1
  F  F16  1  0.83201600  0.12723000  0.88164200  1
  F  F17  1  0.66798400  0.62723000  0.61835800  1
  F  F18  1  0.16798400  0.87277000  0.38164200  1
  F  F19  1  0.33201600  0.37277000  0.11835800  1
loop_
_geom_bond_atom_site_label_1
_geom_bond_atom_site_label_2
_geom_bond_distance
_geom_bond_site_symmetry_2
K0 O17 2.923308 1_455
K0 O14 3.143501 1_555
K0 O8 3.143501 1_555
K1 O16 2.923308 1_555
K1 O9 3.143501 1_565
K1 O15 3.143501 1_565
K2 O19 2.923308 1_655
K2 O12 3.143501 1_555
K2 O10 3.143501 1_555
K3 O18 2.923308 1_555
K3 O11 3.143501 1_545
K3 O13 3.143501 1_545
H0 O16 0.975430 1_545
H1 O17 0.975430 1_555
H2 O18 0.975430 1_565
H3 O19 0.975430 1_555
H4 O16 0.978577 1_555
H5 O17 0.978577 1_555
H6 O18 0.978577 1_555
H7 O19 0.978577 1_555
C0 C8 1.299552 1_555
C0 K0 3.361961 1_555
C1 C9 1.299552 1_455
C1 K1 3.361961 1_545
C2 K2 3.361961 1_555
C3 K3 3.361961 1_565
C4 K2 3.361961 1_555
C5 K3 3.361961 1_565
C6 K0 3.361961 1_555
C7 K1 3.361961 1_545
C10 C2 1.299552 1_555
C10 C18 1.518618 1_555
C10 C26 1.530655 1_555
C11 C3 1.299552 1_455
C11 C19 1.518618 1_555
C11 C27 1.530655 1_555
C12 C4 1.299552 1_555
C12 C20 1.518618 1_555
C12 C28 1.530655 1_555
C13 C5 1.299552 1_455
C13 C21 1.518618 1_555
C13 C29 1.530655 1_555
C14 C6 1.299552 1_555
C14 C22 1.518618 1_555
C14 C30 1.530655 1_555
C15 C7 1.299552 1_655
C15 C23 1.518618 1_555
C15 C31 1.530655 1_555
C16 N0 1.383126 1_555
C16 C8 1.518618 1_555
C17 N1 1.383126 1_555
C17 C9 1.518618 1_555
C18 N2 1.383126 1_555
C19 N3 1.383126 1_555
C20 N4 1.383126 1_555
C21 N5 1.383126 1_555
C22 N6 1.383126 1_555
C23 N7 1.383126 1_555
C24 N0 1.374399 1_555
C24 C8 1.530655 1_555
C25 N1 1.374399 1_555
C25 C9 1.530655 1_555
C26 N2 1.374399 1_555
C27 N3 1.374399 1_555
C28 N4 1.374399 1_555
C29 N5 1.374399 1_555
C30 N6 1.374399 1_555
C31 N7 1.374399 1_555
N0 O0 1.322151 1_555
N1 O1 1.322151 1_555
N2 O2 1.322151 1_555
N3 O3 1.322151 1_555
N4 O4 1.322151 1_555
N5 O5 1.322151 1_555
N6 O6 1.322151 1_555
N7 O7 1.322151 1_555
O0 V6 1.885294 1_655
O1 V7 1.885294 1_555
O2 V4 1.885294 1_455
O3 V5 1.885294 1_555
O4 V2 1.885294 1_455
O5 V3 1.885294 1_555
O6 V0 1.885294 1_655
O7 V1 1.885294 1_555
O8 V6 1.604161 1_555
O9 V7 1.604161 1_555
O10 V4 1.604161 1_555
O11 V5 1.604161 1_555
O12 V2 1.604161 1_555
O13 V3 1.604161 1_555
O14 V0 1.604161 1_555
O15 V1 1.604161 1_555
F0 V0 2.053718 1_655
F0 V6 2.053718 1_655
F1 V7 2.053718 1_555
F1 V1 2.053718 1_555
F2 V2 2.053718 1_455
F2 V4 2.053718 1_455
F3 V5 2.053718 1_555
F3 V3 2.053718 1_555
F4 V0 2.009429 1_555
F4 V6 2.009429 1_555
F4 K0 3.017083 1_555
F4 K1 3.158232 1_555
F5 V7 2.009429 1_555
F5 V1 2.009429 1_555
F5 K1 3.017083 1_545
F5 K0 3.158232 1_555
F6 V2 2.009429 1_555
F6 V4 2.009429 1_555
F6 K2 3.017083 1_555
F6 K3 3.158232 1_555
F7 V5 2.009429 1_555
F7 V3 2.009429 1_555
F7 K3 3.017083 1_565
F7 K2 3.158232 1_555
F8 V0 2.124664 1_655
F8 V6 2.124664 1_655
F8 K1 3.034388 1_655
F9 V7 2.124664 1_555
F9 V1 2.124664 1_555
F9 K0 3.034388 1_555
F10 V2 2.124664 1_455
F10 V4 2.124664 1_455
F10 K3 3.034388 1_455
F11 V5 2.124664 1_555
F11 V3 2.124664 1_555
F11 K2 3.034388 1_555
F12 V6 1.777048 1_555
F12 K1 2.989168 1_555
F13 V7 1.777048 1_555
F13 K0 2.989168 1_555
F14 V4 1.777048 1_555
F14 K3 2.989168 1_555
F15 V5 1.777048 1_555
F15 K2 2.989168 1_555
F16 V2 1.777048 1_555
F16 K3 2.989168 1_555
F17 V3 1.777048 1_555
F17 K2 2.989168 1_555
F18 V0 1.777048 1_555
F18 K1 2.989168 1_555
F19 V1 1.777048 1_555
F19 K0 2.989168 1_555
