# generated using pymatgen
data_GdCuSi
_symmetry_space_group_name_H-M   'P 1'
_cell_length_a   4.12415725
_cell_length_b   4.12415725
_cell_length_c   7.76089049
_cell_angle_alpha   90.00000000
_cell_angle_beta   90.00000000
_cell_angle_gamma   120.00001049
_symmetry_Int_Tables_number   1
_chemical_formula_structural   GdCuSi
_chemical_formula_sum   'Gd2 Cu2 Si2'
_cell_volume   114.31746208
_cell_formula_units_Z   2
loop_
 _symmetry_equiv_pos_site_id
 _symmetry_equiv_pos_as_xyz
  1  'x, y, z'
loop_
 _atom_site_type_symbol
 _atom_site_label
 _atom_site_symmetry_multiplicity
 _atom_site_fract_x
 _atom_site_fract_y
 _atom_site_fract_z
 _atom_site_occupancy
  Gd  Gd0  1  -0.00000000  -0.00000000  0.00000000  1
  Gd  Gd1  1  -0.00000000  -0.00000000  0.50000000  1
  Cu  Cu0  1  0.33333300  0.66666700  0.25008780  1
  Cu  Cu1  1  0.66666700  0.33333300  0.74991220  1
  Si  Si0  1  0.66666700  0.33333300  0.24952822  1
  Si  Si1  1  0.33333300  0.66666700  0.75047178  1
loop_
_geom_bond_atom_site_label_1
_geom_bond_atom_site_label_2
_geom_bond_distance
_geom_bond_site_symmetry_2
Gd0 Si1 3.069172 1_544
Gd0 Si0 3.069172 1_455
Gd0 Si0 3.069174 1_555
Gd0 Si1 3.069174 1_444
Gd0 Si0 3.069174 1_445
Gd0 Si1 3.069174 1_554
Gd1 Si1 3.073798 1_545
Gd1 Si0 3.073798 1_455
Gd1 Si1 3.073800 1_445
Gd1 Si0 3.073800 1_555
Gd1 Si0 3.073800 1_445
Gd1 Si1 3.073800 1_555
Cu0 Si0 2.381085 1_455
Cu0 Si0 2.381085 1_565
Cu0 Si0 2.381092 1_555
Cu0 Gd1 3.071053 1_565
Cu0 Gd1 3.071056 1_555
Cu0 Gd1 3.071056 1_665
Cu0 Gd0 3.071914 1_565
Cu0 Gd0 3.071916 1_665
Cu0 Gd0 3.071916 1_555
Cu1 Si1 2.381085 1_545
Cu1 Si1 2.381085 1_655
Cu1 Si1 2.381092 1_555
Cu1 Gd1 3.071053 1_655
Cu1 Gd1 3.071056 1_555
Cu1 Gd1 3.071056 1_665
Cu1 Gd0 3.071914 1_656
Cu1 Gd0 3.071916 1_556
Cu1 Gd0 3.071916 1_666
