# generated using pymatgen
data_CrP3(HO5)2
_symmetry_space_group_name_H-M   'P 1'
_cell_length_a   8.95377900
_cell_length_b   7.43542700
_cell_length_c   12.49765212
_cell_angle_alpha   67.59275022
_cell_angle_beta   90.00000000
_cell_angle_gamma   90.00000000
_symmetry_Int_Tables_number   1
_chemical_formula_structural   CrP3(HO5)2
_chemical_formula_sum   'Cr4 P12 H8 O40'
_cell_volume   769.21297758
_cell_formula_units_Z   4
loop_
 _symmetry_equiv_pos_site_id
 _symmetry_equiv_pos_as_xyz
  1  'x, y, z'
loop_
 _atom_site_type_symbol
 _atom_site_label
 _atom_site_symmetry_multiplicity
 _atom_site_fract_x
 _atom_site_fract_y
 _atom_site_fract_z
 _atom_site_occupancy
  Cr  Cr0  1  0.91961500  0.25774900  0.20546600  1
  Cr  Cr1  1  0.08038500  0.74225100  0.79453400  1
  Cr  Cr2  1  0.41961500  0.74225100  0.29453400  1
  Cr  Cr3  1  0.58038500  0.25774900  0.70546600  1
  P  P0  1  0.60294100  0.36047300  0.29173100  1
  P  P1  1  0.89705900  0.36047300  0.79173100  1
  P  P2  1  0.38611500  0.29082600  0.48265800  1
  P  P3  1  0.09858800  0.85867900  0.36263500  1
  P  P4  1  0.11388500  0.29082600  0.98265800  1
  P  P5  1  0.88611500  0.70917400  0.01734200  1
  P  P6  1  0.59858800  0.14132100  0.13736500  1
  P  P7  1  0.40141200  0.85867900  0.86263500  1
  P  P8  1  0.61388500  0.70917400  0.51734200  1
  P  P9  1  0.10294100  0.63952700  0.20826900  1
  P  P10  1  0.39705900  0.63952700  0.70826900  1
  P  P11  1  0.90141200  0.14132100  0.63736500  1
  H  H0  1  0.35464500  0.72149500  0.05030800  1
  H  H1  1  0.68237400  0.75872600  0.09744700  1
  H  H2  1  0.85464500  0.27850500  0.44969200  1
  H  H3  1  0.14535500  0.72149500  0.55030800  1
  H  H4  1  0.81762600  0.75872600  0.59744700  1
  H  H5  1  0.18237400  0.24127400  0.40255300  1
  H  H6  1  0.64535500  0.27850500  0.94969200  1
  H  H7  1  0.31762600  0.24127400  0.90255300  1
  O  O0  1  0.96942700  0.27032100  0.70694300  1
  O  O1  1  0.42609300  0.71525200  0.99120900  1
  O  O2  1  0.57390700  0.28474800  0.00879100  1
  O  O3  1  0.49721700  0.96839700  0.16158000  1
  O  O4  1  0.23223000  0.68711400  0.68938600  1
  O  O5  1  0.57228300  0.80045800  0.39171700  1
  O  O6  1  0.00278300  0.96839700  0.66158000  1
  O  O7  1  0.26777000  0.68711400  0.18938600  1
  O  O8  1  0.35381800  0.50719300  0.43129900  1
  O  O9  1  0.92609300  0.28474800  0.50879100  1
  O  O10  1  0.14618200  0.50719300  0.93129900  1
  O  O11  1  0.73852100  0.09806100  0.66933600  1
  O  O12  1  0.43401500  0.42513900  0.75203800  1
  O  O13  1  0.25147000  0.17004600  0.46582000  1
  O  O14  1  0.06598500  0.42513900  0.25203800  1
  O  O15  1  0.85381800  0.49280700  0.06870100  1
  O  O16  1  0.97461100  0.24451600  0.91302400  1
  O  O17  1  0.56598500  0.57486100  0.24796200  1
  O  O18  1  0.46942700  0.72967900  0.79305700  1
  O  O19  1  0.52538900  0.24451600  0.41302400  1
  O  O20  1  0.50278300  0.03160300  0.83842000  1
  O  O21  1  0.47461100  0.75548400  0.58697600  1
  O  O22  1  0.26147900  0.90193900  0.33066400  1
  O  O23  1  0.03057300  0.72967900  0.29305700  1
  O  O24  1  0.23852100  0.90193900  0.83066400  1
  O  O25  1  0.76777000  0.31288600  0.31061400  1
  O  O26  1  0.24853000  0.17004600  0.96582000  1
  O  O27  1  0.53057300  0.27032100  0.20694300  1
  O  O28  1  0.07228300  0.19954200  0.10828300  1
  O  O29  1  0.93401500  0.57486100  0.74796200  1
  O  O30  1  0.92771700  0.80045800  0.89171700  1
  O  O31  1  0.73223000  0.31288600  0.81061400  1
  O  O32  1  0.75147000  0.82995400  0.03418000  1
  O  O33  1  0.99721700  0.03160300  0.33842000  1
  O  O34  1  0.64618200  0.49280700  0.56870100  1
  O  O35  1  0.76147900  0.09806100  0.16933600  1
  O  O36  1  0.02538900  0.75548400  0.08697600  1
  O  O37  1  0.07390700  0.71525200  0.49120900  1
  O  O38  1  0.74853000  0.82995400  0.53418000  1
  O  O39  1  0.42771700  0.19954200  0.60828300  1
loop_
_geom_bond_atom_site_label_1
_geom_bond_atom_site_label_2
_geom_bond_distance
_geom_bond_site_symmetry_2
Cr0 O28 1.982871 1_655
Cr0 O33 1.985220 1_555
Cr0 O35 2.006797 1_555
Cr0 O15 2.011409 1_555
Cr0 O25 2.038170 1_555
Cr0 O14 2.039043 1_655
Cr1 O30 1.982871 1_455
Cr1 O6 1.985220 1_555
Cr1 O24 2.006797 1_555
Cr1 O10 2.011409 1_555
Cr1 O4 2.038170 1_555
Cr1 O29 2.039043 1_455
Cr2 O5 1.982871 1_555
Cr2 O3 1.985220 1_555
Cr2 O22 2.006797 1_555
Cr2 O8 2.011409 1_555
Cr2 O7 2.038170 1_555
Cr2 O17 2.039043 1_555
Cr3 O39 1.982871 1_555
Cr3 O20 1.985220 1_555
Cr3 O11 2.006797 1_555
Cr3 O34 2.011409 1_555
Cr3 O31 2.038170 1_555
Cr3 O12 2.039043 1_555
H0 O1 0.991501 1_554
H1 O32 0.984469 1_555
H2 O9 0.991501 1_555
H3 O37 0.991501 1_555
H4 O38 0.984469 1_555
H5 O13 0.984469 1_555
H6 O2 0.991501 1_556
H7 O26 0.984469 1_555
O0 P1 1.591718 1_555
O0 P11 1.637950 1_555
O1 P7 1.568994 1_555
O2 P6 1.568994 1_555
O3 P6 1.507302 1_565
O4 P10 1.515038 1_555
O5 P8 1.500661 1_555
O6 P11 1.507302 1_465
O7 P9 1.515038 1_555
O8 P2 1.515437 1_555
O9 P11 1.568994 1_555
O10 P4 1.515437 1_555
O11 P11 1.514042 1_555
O12 P10 1.511619 1_555
O13 P2 1.564698 1_555
O14 P9 1.511619 1_555
O15 P5 1.515437 1_555
O16 P1 1.589661 1_555
O16 P4 1.630784 1_655
O17 P0 1.511619 1_555
O18 P10 1.591718 1_555
O18 P7 1.637950 1_555
O19 P0 1.589661 1_555
O19 P2 1.630784 1_555
O20 P7 1.507302 1_545
O21 P10 1.589661 1_555
O21 P8 1.630784 1_555
O22 P3 1.514042 1_555
O23 P9 1.591718 1_555
O23 P3 1.637950 1_555
O24 P7 1.514042 1_555
O25 P0 1.515038 1_555
O26 P4 1.564698 1_555
O27 P0 1.591718 1_555
O27 P6 1.637950 1_555
O28 P4 1.500661 1_554
O29 P1 1.511619 1_555
O30 P5 1.500661 1_556
O31 P1 1.515038 1_555
O32 P5 1.564698 1_555
O33 P3 1.507302 1_645
O34 P8 1.515437 1_555
O35 P6 1.514042 1_555
O36 P9 1.589661 1_555
O36 P5 1.630784 1_455
O37 P3 1.568994 1_555
O38 P8 1.564698 1_555
O39 P2 1.500661 1_555
