# generated using pymatgen
data_K2OsO5
_symmetry_space_group_name_H-M   'P 1'
_cell_length_a   8.40595300
_cell_length_b   10.94497237
_cell_length_c   11.02304518
_cell_angle_alpha   119.42116397
_cell_angle_beta   91.50684953
_cell_angle_gamma   90.80616376
_symmetry_Int_Tables_number   1
_chemical_formula_structural   K2OsO5
_chemical_formula_sum   'K12 Os6 O30'
_cell_volume   882.62988941
_cell_formula_units_Z   6
loop_
 _symmetry_equiv_pos_site_id
 _symmetry_equiv_pos_as_xyz
  1  'x, y, z'
loop_
 _atom_site_type_symbol
 _atom_site_label
 _atom_site_symmetry_multiplicity
 _atom_site_fract_x
 _atom_site_fract_y
 _atom_site_fract_z
 _atom_site_occupancy
  K  K0  1  0.99621900  0.03418900  0.69816200  1
  K  K1  1  0.01068800  0.65868800  0.95677000  1
  K  K2  1  0.73769100  0.34945100  0.68284200  1
  K  K3  1  0.25680900  0.31838000  0.65677400  1
  K  K4  1  0.26832600  0.98765600  0.99474300  1
  K  K5  1  0.44265100  0.66645800  0.61974600  1
  K  K6  1  0.99720300  0.28031300  0.31072100  1
  K  K7  1  0.74271700  0.65599200  0.32125100  1
  K  K8  1  0.23498500  0.65061000  0.32983700  1
  K  K9  1  0.48703900  0.37218200  0.02864600  1
  K  K10  1  0.55487500  0.96602200  0.34222400  1
  K  K11  1  0.73658800  0.98903400  0.98518000  1
  Os  Os0  1  0.50056300  0.03119900  0.69690400  1
  Os  Os1  1  0.50627400  0.67453400  0.97173100  1
  Os  Os2  1  0.00371500  0.66784100  0.63555800  1
  Os  Os3  1  0.49637500  0.30473300  0.32918900  1
  Os  Os4  1  0.99245400  0.37582200  0.02051800  1
  Os  Os5  1  0.00548300  0.95442600  0.32605200  1
  O  O0  1  0.00054200  0.20270300  0.99871200  1
  O  O1  1  0.68544200  0.11074600  0.78659900  1
  O  O2  1  0.32296600  0.11966900  0.77664700  1
  O  O3  1  0.00462500  0.31361400  0.83322000  1
  O  O4  1  0.49324800  0.48331200  0.86707500  1
  O  O5  1  0.32597100  0.68025000  0.88253900  1
  O  O6  1  0.68899700  0.68233900  0.89811300  1
  O  O7  1  0.50976800  0.13218500  0.60477400  1
  O  O8  1  0.01084700  0.80351200  0.81815100  1
  O  O9  1  0.96404100  0.53799800  0.68859500  1
  O  O10  1  0.04631100  0.13784700  0.45395400  1
  O  O11  1  0.49267100  0.39928400  0.51967300  1
  O  O12  1  0.48891300  0.93425700  0.79349900  1
  O  O13  1  0.81672800  0.67796100  0.56657800  1
  O  O14  1  0.67489600  0.22319900  0.34165000  1
  O  O15  1  0.31296300  0.21522700  0.31490900  1
  O  O16  1  0.96628900  0.99402600  0.18835000  1
  O  O17  1  0.12829600  0.78757300  0.60487000  1
  O  O18  1  0.11934400  0.53299900  0.49969400  1
  O  O19  1  0.49685000  0.86887800  0.53465400  1
  O  O20  1  0.49526200  0.47038400  0.32869000  1
  O  O21  1  0.51007400  0.21091000  0.13910900  1
  O  O22  1  0.85369400  0.95591500  0.44118800  1
  O  O23  1  0.97824200  0.45590000  0.21010200  1
  O  O24  1  0.94168500  0.77053300  0.21533400  1
  O  O25  1  0.20429700  0.90687800  0.33690400  1
  O  O26  1  0.17502800  0.47523500  0.04895900  1
  O  O27  1  0.80531600  0.44916500  0.01590400  1
  O  O28  1  0.51083900  0.66447700  0.13020000  1
  O  O29  1  0.50520200  0.86669400  0.07370600  1
loop_
_geom_bond_atom_site_label_1
_geom_bond_atom_site_label_2
_geom_bond_distance
_geom_bond_site_symmetry_2
K0 O17 2.644462 1_645
K0 O3 2.662669 1_655
K0 O22 2.757100 1_545
K0 O1 2.805346 1_555
K0 O2 2.859233 1_655
K0 O0 2.892662 1_655
K1 O24 2.576343 1_456
K1 O9 2.593326 1_455
K1 O8 2.688289 1_555
K1 O6 2.808828 1_455
K1 O5 2.834650 1_555
K1 O26 2.996912 1_556
K1 O27 3.174964 1_456
K1 O16 3.318196 1_456
K1 O3 3.325556 1_555
K2 O9 2.763594 1_555
K2 O7 2.800114 1_555
K2 O4 2.806041 1_555
K2 O3 2.899013 1_655
K2 O11 2.928335 1_555
K3 O10 2.717911 1_555
K3 O7 2.835740 1_555
K3 O4 2.850988 1_555
K3 O11 2.902039 1_555
K3 O3 2.931347 1_555
K3 O2 3.099060 1_555
K4 O29 2.755053 1_556
K4 O12 2.770168 1_555
K4 O8 2.887376 1_555
K4 O21 2.915924 1_566
K4 O5 3.012274 1_555
K4 O15 3.172991 1_566
K4 O0 3.265233 1_565
K4 O16 3.339047 1_456
K4 O2 3.395628 1_565
K5 O12 2.612295 1_555
K5 O11 2.614294 1_555
K5 O19 2.833969 1_555
K5 O20 2.903680 1_555
K5 O17 3.009319 1_555
K5 O18 3.011786 1_555
K5 O5 3.016635 1_555
K5 O13 3.225728 1_555
K6 O23 2.653732 1_555
K6 O18 2.681374 1_655
K6 O10 2.738087 1_655
K6 O16 2.740703 1_545
K6 O15 2.762930 1_655
K6 O14 2.838590 1_555
K6 O0 3.112329 1_654
K7 O13 2.650720 1_555
K7 O24 2.685841 1_555
K7 O23 2.798277 1_555
K7 O28 2.867798 1_555
K7 O20 2.917898 1_555
K7 O22 2.996519 1_555
K7 O27 3.061260 1_555
K7 O19 3.200059 1_555
K8 O26 2.752540 1_555
K8 O25 2.783259 1_555
K8 O23 2.810457 1_455
K8 O17 2.821092 1_555
K8 O18 2.921640 1_555
K8 O20 2.962496 1_555
K8 O19 3.153004 1_555
K8 O28 3.290778 1_555
K8 O24 3.308987 1_455
K9 O21 2.597028 1_555
K9 O4 2.604894 1_554
K9 O27 2.821372 1_555
K9 O28 2.824818 1_555
K9 O26 2.840272 1_555
K9 O20 2.931265 1_555
K9 O2 3.066833 1_554
K9 O1 3.309927 1_554
K10 O7 2.594841 1_565
K10 O29 2.622600 1_555
K10 O22 2.737510 1_555
K10 O19 2.850134 1_555
K10 O28 2.972187 1_555
K10 O14 2.979747 1_565
K10 O25 3.001146 1_555
K11 O12 2.765377 1_555
K11 O29 2.799737 1_556
K11 O16 2.897615 1_556
K11 O21 2.941701 1_566
K11 O6 3.020920 1_555
K11 O8 3.083811 1_655
K11 O1 3.095553 1_565
K11 O0 3.147726 1_665
O0 Os4 1.791544 1_456
O1 Os0 1.784979 1_555
O2 Os0 1.792321 1_555
O3 Os4 1.835381 1_456
O4 Os1 1.827016 1_555
O5 Os1 1.803430 1_555
O6 Os1 1.776222 1_555
O7 Os0 1.833987 1_555
O8 Os2 1.820581 1_555
O9 Os2 1.812674 1_655
O10 Os5 1.819394 1_545
O11 Os3 1.830374 1_555
O12 Os0 1.838911 1_565
O13 Os2 1.756640 1_655
O14 Os3 1.792877 1_555
O15 Os3 1.776151 1_555
O16 Os5 1.795680 1_655
O17 Os2 1.828647 1_555
O18 Os2 1.819667 1_555
O19 Os0 1.797167 1_565
O20 Os3 1.815909 1_555
O21 Os3 1.833045 1_555
O22 Os5 1.817811 1_655
O23 Os4 1.834746 1_555
O24 Os5 1.830295 1_655
O25 Os5 1.775736 1_555
O26 Os4 1.797246 1_455
O27 Os4 1.786888 1_555
O28 Os1 1.802896 1_554
O29 Os1 1.834511 1_554
