# generated using pymatgen
data_Ba20As13
_symmetry_space_group_name_H-M   'P 1'
_cell_length_a   8.70278541
_cell_length_b   8.70278541
_cell_length_c   43.58697226
_cell_angle_alpha   109.39786795
_cell_angle_beta   109.39786712
_cell_angle_gamma   109.55021647
_symmetry_Int_Tables_number   1
_chemical_formula_structural   Ba20As13
_chemical_formula_sum   'Ba40 As26'
_cell_volume   2543.39009393
_cell_formula_units_Z   2
loop_
 _symmetry_equiv_pos_site_id
 _symmetry_equiv_pos_as_xyz
  1  'x, y, z'
loop_
 _atom_site_type_symbol
 _atom_site_label
 _atom_site_symmetry_multiplicity
 _atom_site_fract_x
 _atom_site_fract_y
 _atom_site_fract_z
 _atom_site_occupancy
  Ba  Ba0  1  0.00339839  0.88092985  0.89930114  1
  Ba  Ba1  1  0.00689469  0.38442616  0.90069886  1
  Ba  Ba2  1  0.48443265  0.00976902  0.96985095  1
  Ba  Ba3  1  0.98795730  0.86622160  0.69673155  1
  Ba  Ba4  1  0.13517690  0.16051327  0.83014905  1
  Ba  Ba5  1  0.98862309  0.33054641  0.69421695  1
  Ba  Ba6  1  0.37077559  0.48425072  0.79949984  1
  Ba  Ba7  1  0.98746743  0.84144505  0.49853804  1
  Ba  Ba8  1  0.63538597  0.62473332  0.92200566  1
  Ba  Ba9  1  0.52535569  0.01470304  0.87799434  1
  Ba  Ba10  1  0.13572614  0.12328515  0.62468275  1
  Ba  Ba11  1  0.98675052  0.37327539  0.50050016  1
  Ba  Ba12  1  0.35945965  0.51753633  0.60578305  1
  Ba  Ba13  1  0.51563225  0.99938563  0.77026897  1
  Ba  Ba14  1  0.98425072  0.87077559  0.29949984  1
  Ba  Ba15  1  0.61046307  0.62047482  0.72395347  1
  Ba  Ba16  1  0.84875383  0.49477621  0.80146196  1
  Ba  Ba17  1  0.49986941  0.01230940  0.67531725  1
  Ba  Ba18  1  0.99477621  0.34875383  0.30146196  1
  Ba  Ba19  1  0.12473332  0.13538597  0.42200566  1
  Ba  Ba20  1  0.38092985  0.50339839  0.39930114  1
  Ba  Ba21  1  0.50070548  0.99069373  0.57604653  1
  Ba  Ba22  1  0.64803980  0.66428542  0.52973103  1
  Ba  Ba23  1  0.88256483  0.50430052  0.60326845  1
  Ba  Ba24  1  0.50976902  0.98443265  0.46985095  1
  Ba  Ba25  1  0.12047482  0.11046307  0.22395347  1
  Ba  Ba26  1  0.00430052  0.38256483  0.10326845  1
  Ba  Ba27  1  0.36622160  0.48795730  0.19673155  1
  Ba  Ba28  1  0.51470304  0.02535569  0.37799434  1
  Ba  Ba29  1  0.66051327  0.63517690  0.33014905  1
  Ba  Ba30  1  0.88442616  0.50689469  0.40069886  1
  Ba  Ba31  1  0.49938563  0.01563225  0.27026897  1
  Ba  Ba32  1  0.16428542  0.14803980  0.02973103  1
  Ba  Ba33  1  0.34144505  0.48746743  0.99853804  1
  Ba  Ba34  1  0.51230940  -0.00013059  0.17531725  1
  Ba  Ba35  1  0.62328515  0.63572614  0.12468275  1
  Ba  Ba36  1  0.83054641  0.48862309  0.19421695  1
  Ba  Ba37  1  0.49069373  0.00070548  0.07604653  1
  Ba  Ba38  1  0.01753633  0.85945965  0.10578305  1
  Ba  Ba39  1  0.87327539  0.48675052  0.00050016  1
  As  As0  1  0.13193312  0.75187982  0.97690189  1
  As  As1  1  0.24802762  0.63129489  0.87299057  1
  As  As2  1  0.38307275  0.26634002  0.92700943  1
  As  As3  1  0.24910130  0.63044131  0.67740081  1
  As  As4  1  0.12555777  0.74786682  0.57582009  1
  As  As5  1  0.61020277  0.35002862  0.84665850  1
  As  As6  1  0.36876537  0.24645631  0.72417991  1
  As  As7  1  0.74742566  0.86737236  0.82309811  1
  As  As8  1  0.87691029  0.11673514  0.95334150  1
  As  As9  1  0.25187982  0.63193312  0.47690189  1
  As  As10  1  0.13129489  0.74802762  0.37299057  1
  As  As11  1  0.74343723  0.86209722  0.62259919  1
  As  As12  1  0.62944977  0.37944977  0.65000000  1
  As  As13  1  0.88228794  0.13486805  0.75094526  1
  As  As14  1  0.13044131  0.74910130  0.17740081  1
  As  As15  1  0.76634002  0.88307275  0.42700943  1
  As  As16  1  0.36737236  0.24742566  0.32309811  1
  As  As17  1  0.61673514  0.37691029  0.45334150  1
  As  As18  1  0.88014074  0.12756063  0.54905474  1
  As  As19  1  0.24786682  0.62555777  0.07582009  1
  As  As20  1  0.74645631  0.86876537  0.22417991  1
  As  As21  1  0.36209722  0.24343723  0.12259919  1
  As  As22  1  0.63486805  0.38228794  0.25094526  1
  As  As23  1  0.85002862  0.11020277  0.34665850  1
  As  As24  1  0.62756063  0.38014074  0.04905474  1
  As  As25  1  0.87944977  0.12944977  0.15000000  1
loop_
_geom_bond_atom_site_label_1
_geom_bond_atom_site_label_2
_geom_bond_distance
_geom_bond_site_symmetry_2
As0 Ba1 3.264566 1_555
As0 Ba32 3.303694 1_566
As0 Ba2 3.319491 1_565
As0 Ba39 3.329775 1_456
As0 Ba33 3.551962 1_555
As0 Ba37 3.661805 1_566
As0 Ba8 3.714358 1_455
As0 Ba0 3.847599 1_555
As1 Ba9 3.283831 1_565
As1 Ba16 3.284254 1_455
As1 Ba1 3.296642 1_555
As1 Ba8 3.370122 1_555
As1 Ba4 3.499231 1_555
As1 Ba2 3.655660 1_565
As1 Ba6 3.674849 1_555
As1 Ba0 3.691848 1_555
As2 Ba8 3.283870 1_555
As2 Ba33 3.284246 1_555
As2 Ba0 3.296642 1_545
As2 Ba9 3.370122 1_555
As2 Ba2 3.499215 1_555
As2 Ba4 3.655662 1_555
As2 Ba39 3.674854 1_556
As2 Ba1 3.691841 1_555
As3 Ba15 3.174205 1_555
As3 Ba23 3.205433 1_455
As3 Ba5 3.301885 1_455
As3 Ba17 3.360592 1_565
As3 Ba12 3.495414 1_555
As3 Ba13 3.495754 1_555
As3 Ba3 3.651038 1_455
As3 Ba10 3.817946 1_555
As4 Ba10 3.205849 1_565
As4 Ba21 3.236091 1_555
As4 Ba11 3.238149 1_455
As4 Ba23 3.280489 1_455
As4 Ba12 3.545599 1_555
As4 Ba7 3.639019 1_455
As4 Ba22 3.646327 1_455
As4 Ba17 3.699265 1_565
As5 Ba6 3.210945 1_555
As5 Ba8 3.241148 1_555
As5 Ba13 3.290189 1_545
As5 Ba1 3.315830 1_655
As5 Ba16 3.520296 1_555
As5 Ba9 3.578044 1_555
As5 Ba4 3.605651 1_555
As5 Ba0 3.934821 1_655
As6 Ba17 3.205852 1_555
As6 Ba15 3.236120 1_555
As6 Ba6 3.238145 1_555
As6 Ba3 3.280488 1_445
As6 Ba5 3.545593 1_455
As6 Ba16 3.639019 1_555
As6 Ba13 3.646321 1_545
As6 Ba10 3.699270 1_555
As7 Ba0 3.264573 1_655
As7 Ba13 3.303687 1_555
As7 Ba4 3.319462 1_665
As7 Ba6 3.329785 1_555
As7 Ba16 3.551969 1_555
As7 Ba15 3.661805 1_555
As7 Ba9 3.714377 1_565
As7 Ba1 3.847599 1_665
As8 Ba39 3.210950 1_556
As8 Ba9 3.241154 1_555
As8 Ba32 3.290182 1_656
As8 Ba0 3.315821 1_645
As8 Ba33 3.520308 1_655
As8 Ba8 3.578020 1_545
As8 Ba2 3.605642 1_555
As8 Ba1 3.934844 1_655
As9 Ba30 3.264566 1_455
As9 Ba22 3.303694 1_555
As9 Ba24 3.319491 1_555
As9 Ba11 3.329775 1_455
As9 Ba7 3.551962 1_455
As9 Ba21 3.661805 1_555
As9 Ba19 3.714358 1_555
As9 Ba20 3.847599 1_555
As10 Ba28 3.283831 1_565
As10 Ba18 3.284254 1_455
As10 Ba30 3.296642 1_455
As10 Ba19 3.370122 1_565
As10 Ba29 3.499231 1_455
As10 Ba24 3.655660 1_555
As10 Ba14 3.674849 1_455
As10 Ba20 3.691848 1_555
As11 Ba21 3.174201 1_555
As11 Ba3 3.205435 1_555
As11 Ba12 3.301904 1_555
As11 Ba10 3.360619 1_665
As11 Ba5 3.495425 1_565
As11 Ba22 3.495752 1_555
As11 Ba23 3.651037 1_555
As11 Ba17 3.817952 1_565
As12 Ba15 3.303338 1_555
As12 Ba21 3.303343 1_545
As12 Ba12 3.331627 1_555
As12 Ba5 3.331630 1_555
As12 Ba3 3.609771 1_555
As12 Ba23 3.609780 1_555
As12 Ba10 3.668158 1_555
As12 Ba17 3.668183 1_555
As13 Ba4 3.305167 1_655
As13 Ba17 3.328904 1_555
As13 Ba3 3.332909 1_545
As13 Ba16 3.346875 1_555
As13 Ba13 3.494070 1_545
As13 Ba6 3.590976 1_655
As13 Ba5 3.623872 1_555
As13 Ba15 3.819165 1_545
As14 Ba25 3.174205 1_565
As14 Ba26 3.205433 1_555
As14 Ba36 3.301885 1_455
As14 Ba34 3.360592 1_565
As14 Ba38 3.495414 1_555
As14 Ba31 3.495754 1_565
As14 Ba27 3.651038 1_555
As14 Ba35 3.817946 1_455
As15 Ba19 3.283870 1_665
As15 Ba7 3.284246 1_555
As15 Ba20 3.296642 1_555
As15 Ba28 3.370122 1_565
As15 Ba24 3.499215 1_555
As15 Ba29 3.655662 1_555
As15 Ba11 3.674854 1_565
As15 Ba30 3.691841 1_555
As16 Ba20 3.264573 1_555
As16 Ba31 3.303687 1_555
As16 Ba29 3.319462 1_555
As16 Ba14 3.329785 1_445
As16 Ba18 3.551969 1_455
As16 Ba25 3.661805 1_555
As16 Ba28 3.714377 1_555
As16 Ba30 3.847599 1_555
As17 Ba11 3.210950 1_555
As17 Ba28 3.241154 1_555
As17 Ba22 3.290182 1_555
As17 Ba20 3.315821 1_555
As17 Ba7 3.520308 1_555
As17 Ba19 3.578020 1_555
As17 Ba24 3.605643 1_545
As17 Ba30 3.934844 1_555
As18 Ba24 3.305163 1_545
As18 Ba10 3.328901 1_655
As18 Ba23 3.332912 1_555
As18 Ba7 3.346877 1_545
As18 Ba22 3.494078 1_545
As18 Ba11 3.590976 1_555
As18 Ba12 3.623864 1_655
As18 Ba21 3.819174 1_545
As19 Ba35 3.205849 1_555
As19 Ba37 3.236091 1_565
As19 Ba39 3.238150 1_455
As19 Ba26 3.280489 1_555
As19 Ba38 3.545599 1_555
As19 Ba33 3.639019 1_554
As19 Ba32 3.646327 1_555
As19 Ba34 3.699265 1_565
As20 Ba34 3.205852 1_565
As20 Ba25 3.236120 1_665
As20 Ba14 3.238145 1_555
As20 Ba27 3.280488 1_555
As20 Ba36 3.545593 1_555
As20 Ba18 3.639019 1_565
As20 Ba31 3.646321 1_565
As20 Ba35 3.699270 1_555
As21 Ba37 3.174201 1_555
As21 Ba27 3.205435 1_555
As21 Ba38 3.301904 1_545
As21 Ba35 3.360619 1_555
As21 Ba36 3.495425 1_555
As21 Ba32 3.495752 1_555
As21 Ba26 3.651037 1_555
As21 Ba34 3.817952 1_555
As22 Ba29 3.305167 1_555
As22 Ba34 3.328904 1_555
As22 Ba27 3.332909 1_555
As22 Ba18 3.346875 1_555
As22 Ba31 3.494070 1_555
As22 Ba14 3.590976 1_555
As22 Ba36 3.623872 1_555
As22 Ba25 3.819165 1_555
As23 Ba14 3.210945 1_545
As23 Ba19 3.241148 1_655
As23 Ba31 3.290189 1_555
As23 Ba30 3.315830 1_555
As23 Ba18 3.520296 1_555
As23 Ba28 3.578044 1_555
As23 Ba29 3.605651 1_545
As23 Ba20 3.934821 1_655
As24 Ba2 3.305163 1_554
As24 Ba35 3.328901 1_555
As24 Ba26 3.332913 1_655
As24 Ba33 3.346877 1_554
As24 Ba32 3.494078 1_555
As24 Ba39 3.590976 1_555
As24 Ba38 3.623864 1_655
As24 Ba37 3.819174 1_555
As25 Ba25 3.303338 1_655
As25 Ba37 3.303343 1_555
As25 Ba38 3.331627 1_645
As25 Ba36 3.331630 1_555
As25 Ba27 3.609771 1_655
As25 Ba26 3.609780 1_655
As25 Ba35 3.668158 1_545
As25 Ba34 3.668183 1_555
