# generated using pymatgen
data_K4Pt2I9
_symmetry_space_group_name_H-M   'P 1'
_cell_length_a   40.04933834
_cell_length_b   9.78530483
_cell_length_c   10.79270847
_cell_angle_alpha   90.00000000
_cell_angle_beta   90.00000000
_cell_angle_gamma   52.35059769
_symmetry_Int_Tables_number   1
_chemical_formula_structural   K4Pt2I9
_chemical_formula_sum   'K20 Pt10 I45'
_cell_volume   3348.84847327
_cell_formula_units_Z   5
loop_
 _symmetry_equiv_pos_site_id
 _symmetry_equiv_pos_as_xyz
  1  'x, y, z'
loop_
 _atom_site_type_symbol
 _atom_site_label
 _atom_site_symmetry_multiplicity
 _atom_site_fract_x
 _atom_site_fract_y
 _atom_site_fract_z
 _atom_site_occupancy
  K  K0  1  0.09180189  0.05325839  0.75000000  1
  K  K1  1  0.07424373  0.56691777  0.25000000  1
  K  K2  1  0.12611139  0.43187632  0.75000000  1
  K  K3  1  0.10871896  0.94578074  0.25000000  1
  K  K4  1  0.27388861  0.06243326  0.75000000  1
  K  K5  1  0.29128104  0.48937554  0.25000000  1
  K  K6  1  0.30819811  0.51226784  0.75000000  1
  K  K7  1  0.32575627  0.93813641  0.25000000  1
  K  K8  1  0.49138050  0.05478627  0.75000000  1
  K  K9  1  0.47323554  0.57107456  0.25000000  1
  K  K10  1  0.52498851  0.43695724  0.75000000  1
  K  K11  1  0.50765740  0.94811046  0.25000000  1
  K  K12  1  0.67478244  0.07007576  0.75000000  1
  K  K13  1  0.68761288  0.52168189  0.25000000  1
  K  K14  1  0.72521756  0.44398796  0.75000000  1
  K  K15  1  0.71238712  0.95974630  0.25000000  1
  K  K16  1  0.87501149  0.06189979  0.75000000  1
  K  K17  1  0.89234260  0.48639748  0.25000000  1
  K  K18  1  0.90861950  0.51168879  0.75000000  1
  K  K19  1  0.92676446  0.93725226  0.25000000  1
  Pt  Pt0  1  0.00009486  0.00068797  0.97868138  1
  Pt  Pt1  1  0.00009486  0.00068797  0.52131862  1
  Pt  Pt2  1  0.20000000  -0.00087585  0.02119219  1
  Pt  Pt3  1  0.20000000  -0.00087585  0.47880781  1
  Pt  Pt4  1  0.39990514  0.00116229  0.97868138  1
  Pt  Pt5  1  0.39990514  0.00116229  0.52131862  1
  Pt  Pt6  1  0.59969005  -0.00032420  0.01836685  1
  Pt  Pt7  1  0.59969005  -0.00032420  0.48163315  1
  Pt  Pt8  1  0.80030995  0.99812607  0.01836685  1
  Pt  Pt9  1  0.80030995  0.99812607  0.48163315  1
  I  I0  1  0.00026651  0.03125132  0.25000000  1
  I  I1  1  0.00002799  0.27306135  0.54329154  1
  I  I2  1  0.00009877  0.72672964  0.97967562  1
  I  I3  1  0.00009877  0.72672964  0.52032438  1
  I  I4  1  0.11550612  0.21242290  0.02975165  1
  I  I5  1  0.11550612  0.21242290  0.47024835  1
  I  I6  1  0.08449918  0.78757258  0.52917103  1
  I  I7  1  0.08449918  0.78757258  0.97082897  1
  I  I8  1  0.20000000  0.27294455  0.02073509  1
  I  I9  1  0.20000000  0.27294455  0.47926491  1
  I  I10  1  0.20000000  0.72685775  0.45628472  1
  I  I11  1  0.20000000  0.72685775  0.04371528  1
  I  I12  1  0.20000000  0.96813790  0.75000000  1
  I  I13  1  0.31550082  0.21006851  0.97082897  1
  I  I14  1  0.31550082  0.21006851  0.52917103  1
  I  I15  1  0.28449388  0.78995352  0.02975165  1
  I  I16  1  0.28449388  0.78995352  0.47024835  1
  I  I17  1  0.39973349  0.03258385  0.25000000  1
  I  I18  1  0.39997201  0.27320130  0.54329154  1
  I  I19  1  0.39997201  0.27320130  0.95670846  1
  I  I20  1  0.39990123  0.72722352  0.52032438  1
  I  I21  1  0.39990123  0.72722352  0.97967562  1
  I  I22  1  0.51528400  0.21590512  0.03129728  1
  I  I23  1  0.51528400  0.21590512  0.46870272  1
  I  I24  1  0.48439852  0.78787181  0.97100988  1
  I  I25  1  0.48439852  0.78787181  0.52899012  1
  I  I26  1  0.60107420  0.27045350  0.47933988  1
  I  I27  1  0.60107420  0.27045350  0.02066012  1
  I  I28  1  0.59848424  0.72981926  0.46107448  1
  I  I29  1  0.59848424  0.72981926  0.03892552  1
  I  I30  1  0.59787061  0.97890758  0.75000000  1
  I  I31  1  0.71548168  0.20795119  0.01371007  1
  I  I32  1  0.71548168  0.20795119  0.48628993  1
  I  I33  1  0.68451832  0.78535958  0.01371007  1
  I  I34  1  0.68451832  0.78535958  0.48628993  1
  I  I35  1  0.79892580  0.27582452  0.47933988  1
  I  I36  1  0.79892580  0.27582452  0.02066012  1
  I  I37  1  0.80151576  0.72224044  0.46107448  1
  I  I38  1  0.80151576  0.72224044  0.03892552  1
  I  I39  1  0.80212939  0.96826063  0.75000000  1
  I  I40  1  0.91560148  0.20986439  0.97100988  1
  I  I41  1  0.91560148  0.20986439  0.52899012  1
  I  I42  1  0.88471600  0.79232513  0.03129728  1
  I  I43  1  0.88471600  0.79232513  0.46870272  1
  I  I44  1  0.00002799  0.27306135  0.95670846  1
loop_
_geom_bond_atom_site_label_1
_geom_bond_atom_site_label_2
_geom_bond_distance
_geom_bond_site_symmetry_2
I0 Pt1 2.943930 1_555
I0 Pt0 2.943930 1_554
I0 K19 3.580403 1_445
I0 K1 3.602367 1_545
I0 K17 3.873069 1_455
I0 K3 3.889366 1_545
I1 Pt1 2.674158 1_555
I1 K18 3.659009 1_455
I1 K0 3.668072 1_555
I2 Pt0 2.680692 1_565
I2 K19 3.740355 1_456
I2 K1 3.755290 1_556
I3 Pt1 2.680692 1_565
I3 K19 3.740355 1_455
I3 K1 3.755290 1_555
I4 Pt2 2.680935 1_555
I4 K3 3.660411 1_545
I4 K1 3.662134 1_555
I4 K0 3.774826 1_554
I4 K2 3.875835 1_554
I5 Pt3 2.680935 1_555
I5 K3 3.660411 1_545
I5 K1 3.662134 1_555
I5 K0 3.774826 1_555
I5 K2 3.875835 1_555
I6 Pt1 2.677847 1_565
I6 K0 3.667944 1_565
I6 K2 3.672322 1_555
I6 K3 3.774953 1_555
I6 K1 3.871997 1_555
I7 Pt0 2.677847 1_565
I7 K0 3.667944 1_565
I7 K2 3.672322 1_555
I7 K3 3.774953 1_556
I7 K1 3.871997 1_556
I8 Pt2 2.679421 1_555
I8 K2 3.753813 1_554
I8 K4 3.753813 1_554
I9 Pt3 2.679421 1_555
I9 K2 3.753813 1_555
I9 K4 3.753813 1_555
I10 Pt3 2.675276 1_565
I10 K3 3.652809 1_555
I10 K5 3.652809 1_555
I11 Pt2 2.675276 1_565
I11 K3 3.652809 1_555
I11 K5 3.652809 1_555
I12 Pt3 2.942562 1_565
I12 Pt2 2.942562 1_566
I12 K4 3.597762 1_565
I12 K2 3.597763 1_565
I12 K0 3.880929 1_565
I12 K6 3.880929 1_555
I13 Pt4 2.677847 1_555
I13 K6 3.667944 1_555
I13 K4 3.672322 1_555
I13 K5 3.774953 1_556
I13 K7 3.871997 1_546
I14 Pt5 2.677847 1_555
I14 K6 3.667944 1_555
I14 K4 3.672322 1_555
I14 K5 3.774953 1_555
I14 K7 3.871997 1_545
I15 Pt2 2.680935 1_565
I15 K5 3.660411 1_555
I15 K7 3.662133 1_555
I15 K6 3.774826 1_554
I15 K4 3.875835 1_564
I16 Pt3 2.680935 1_565
I16 K5 3.660411 1_555
I16 K7 3.662133 1_555
I16 K6 3.774826 1_555
I16 K4 3.875835 1_565
I17 Pt4 2.943930 1_554
I17 Pt5 2.943930 1_555
I17 K9 3.580403 1_545
I17 K7 3.602366 1_545
I17 K11 3.873069 1_545
I17 K5 3.889366 1_555
I18 Pt5 2.674157 1_555
I18 K8 3.659009 1_555
I18 K6 3.668072 1_555
I19 Pt4 2.674157 1_555
I19 K8 3.659009 1_555
I19 K6 3.668072 1_555
I20 Pt5 2.680692 1_565
I20 K9 3.740355 1_555
I20 K7 3.755290 1_555
I21 Pt4 2.680692 1_565
I21 K9 3.740355 1_556
I21 K7 3.755290 1_556
I22 Pt6 2.680603 1_555
I22 K9 3.651860 1_555
I22 K11 3.675504 1_545
I22 K8 3.803028 1_554
I22 K10 3.882523 1_554
I23 Pt7 2.680603 1_555
I23 K9 3.651860 1_555
I23 K11 3.675504 1_545
I23 K8 3.803028 1_555
I23 K10 3.882523 1_555
I24 Pt4 2.680605 1_565
I24 K10 3.647458 1_555
I24 K8 3.671749 1_565
I24 K11 3.765246 1_556
I24 K9 3.863347 1_556
I25 Pt5 2.680605 1_565
I25 K10 3.647458 1_555
I25 K8 3.671749 1_565
I25 K11 3.765246 1_555
I25 K9 3.863347 1_555
I26 Pt7 2.683976 1_555
I26 K12 3.744432 1_555
I26 K10 3.795767 1_555
I27 Pt6 2.683976 1_555
I27 K12 3.744432 1_554
I27 K10 3.795767 1_554
I28 Pt7 2.679603 1_565
I28 K13 3.632881 1_555
I28 K11 3.673123 1_555
I29 Pt6 2.679603 1_565
I29 K13 3.632881 1_555
I29 K11 3.673123 1_555
I30 Pt7 2.907553 1_565
I30 Pt6 2.907553 1_566
I30 K10 3.553422 1_565
I30 K12 3.693364 1_565
I30 K8 3.856394 1_565
I31 Pt8 2.690429 1_545
I31 K15 3.575686 1_545
I31 K13 3.603880 1_555
I31 K14 3.832422 1_554
I31 K12 3.906932 1_554
I32 Pt9 2.690429 1_545
I32 K15 3.575686 1_545
I32 K13 3.603880 1_555
I32 K14 3.832422 1_555
I32 K12 3.906932 1_555
I33 Pt6 2.690429 1_565
I33 K13 3.575686 1_555
I33 K15 3.603880 1_555
I33 K12 3.832422 1_564
I33 K14 3.906932 1_554
I34 Pt7 2.690429 1_565
I34 K13 3.575686 1_555
I34 K15 3.603880 1_555
I34 K12 3.832422 1_565
I34 K14 3.906932 1_555
I35 Pt9 2.683976 1_545
I35 K14 3.744432 1_555
I35 K16 3.795767 1_555
I36 Pt8 2.683976 1_545
I36 K14 3.744432 1_554
I36 K16 3.795767 1_554
I37 Pt9 2.679603 1_555
I37 K15 3.632881 1_555
I37 K17 3.673123 1_555
I38 Pt8 2.679603 1_555
I38 K15 3.632881 1_555
I38 K17 3.673123 1_555
I39 Pt9 2.907553 1_555
I39 Pt8 2.907553 1_556
I39 K16 3.553421 1_565
I39 K14 3.693364 1_565
I39 K18 3.856394 1_555
I40 Pt0 2.680605 1_655
I40 K16 3.647458 1_555
I40 K18 3.671750 1_555
I40 K17 3.765246 1_556
I40 K19 3.863347 1_546
I41 Pt1 2.680605 1_655
I41 K16 3.647458 1_555
I41 K18 3.671750 1_555
I41 K17 3.765246 1_555
I41 K19 3.863347 1_545
I42 Pt8 2.680603 1_555
I42 K19 3.651860 1_555
I42 K17 3.675504 1_555
I42 K18 3.803028 1_554
I42 K16 3.882523 1_564
I43 Pt9 2.680603 1_555
I43 K19 3.651860 1_555
I43 K17 3.675504 1_555
I43 K18 3.803028 1_555
I43 K16 3.882523 1_565
I44 Pt0 2.674158 1_555
I44 K18 3.659009 1_455
I44 K0 3.668072 1_555
