# generated using pymatgen
data_KU2F9
_symmetry_space_group_name_H-M   'P 1'
_cell_length_a   8.13935600
_cell_length_b   10.25485100
_cell_length_c   10.50988000
_cell_angle_alpha   90.00000000
_cell_angle_beta   90.00000000
_cell_angle_gamma   90.00000000
_symmetry_Int_Tables_number   1
_chemical_formula_structural   KU2F9
_chemical_formula_sum   'K4 U8 F36'
_cell_volume   877.23743435
_cell_formula_units_Z   4
loop_
 _symmetry_equiv_pos_site_id
 _symmetry_equiv_pos_as_xyz
  1  'x, y, z'
loop_
 _atom_site_type_symbol
 _atom_site_label
 _atom_site_symmetry_multiplicity
 _atom_site_fract_x
 _atom_site_fract_y
 _atom_site_fract_z
 _atom_site_occupancy
  K  K0  1  0.03558200  0.75000000  0.50068600  1
  K  K1  1  0.96441800  0.25000000  0.49931400  1
  K  K2  1  0.46441800  0.25000000  0.00068600  1
  K  K3  1  0.53558200  0.75000000  0.99931400  1
  U  U0  1  0.11994100  0.02137700  0.15515100  1
  U  U1  1  0.11994100  0.47862300  0.15515100  1
  U  U2  1  0.88005900  0.97862300  0.84484900  1
  U  U3  1  0.88005900  0.52137700  0.84484900  1
  U  U4  1  0.61994100  0.02137700  0.34484900  1
  U  U5  1  0.61994100  0.47862300  0.34484900  1
  U  U6  1  0.38005900  0.52137700  0.65515100  1
  U  U7  1  0.38005900  0.97862300  0.65515100  1
  F  F0  1  0.65434000  0.25000000  0.32927100  1
  F  F1  1  0.60999800  0.92052100  0.76200600  1
  F  F2  1  0.15434000  0.25000000  0.17072900  1
  F  F3  1  0.34566000  0.75000000  0.67072900  1
  F  F4  1  0.06206500  0.10627400  0.95755700  1
  F  F5  1  0.70930700  0.08756800  0.95646800  1
  F  F6  1  0.84566000  0.75000000  0.82927100  1
  F  F7  1  0.43793500  0.60627400  0.45755700  1
  F  F8  1  0.06206500  0.39372600  0.95755700  1
  F  F9  1  0.63945400  0.88993400  0.19326400  1
  F  F10  1  0.86054600  0.11006600  0.69326400  1
  F  F11  1  0.29069300  0.58756800  0.04353200  1
  F  F12  1  0.56206500  0.10627400  0.54244300  1
  F  F13  1  0.10999800  0.92052100  0.73799400  1
  F  F14  1  0.79069300  0.58756800  0.45646800  1
  F  F15  1  0.36054600  0.11006600  0.80673600  1
  F  F16  1  0.56206500  0.39372600  0.54244300  1
  F  F17  1  0.20930700  0.08756800  0.54353200  1
  F  F18  1  0.13945400  0.61006600  0.30673600  1
  F  F19  1  0.70930700  0.41243200  0.95646800  1
  F  F20  1  0.60999800  0.57947900  0.76200600  1
  F  F21  1  0.89000200  0.42052100  0.26200600  1
  F  F22  1  0.29069300  0.91243200  0.04353200  1
  F  F23  1  0.93793500  0.60627400  0.04244300  1
  F  F24  1  0.43793500  0.89372600  0.45755700  1
  F  F25  1  0.89000200  0.07947900  0.26200600  1
  F  F26  1  0.86054600  0.38993400  0.69326400  1
  F  F27  1  0.13945400  0.88993400  0.30673600  1
  F  F28  1  0.39000200  0.42052100  0.23799400  1
  F  F29  1  0.10999800  0.57947900  0.73799400  1
  F  F30  1  0.79069300  0.91243200  0.45646800  1
  F  F31  1  0.39000200  0.07947900  0.23799400  1
  F  F32  1  0.63945400  0.61006600  0.19326400  1
  F  F33  1  0.20930700  0.41243200  0.54353200  1
  F  F34  1  0.93793500  0.89372600  0.04244300  1
  F  F35  1  0.36054600  0.38993400  0.80673600  1
loop_
_geom_bond_atom_site_label_1
_geom_bond_atom_site_label_2
_geom_bond_distance
_geom_bond_site_symmetry_2
F0 U4 2.366823 1_555
F0 U5 2.366823 1_555
F0 K1 3.092504 1_555
F1 U7 2.262506 1_555
F1 U2 2.438200 1_555
F1 K3 3.105662 1_555
F2 U0 2.366823 1_555
F2 U1 2.366823 1_555
F2 K2 3.092504 1_555
F3 U7 2.366823 1_555
F3 U6 2.366823 1_555
F3 K0 3.092504 1_555
F4 U0 2.300544 1_556
F4 U2 2.304631 1_445
F5 U2 2.134459 1_545
F5 K2 2.638860 1_556
F6 U2 2.366823 1_555
F6 U3 2.366823 1_555
F6 K3 3.092504 1_555
F7 U6 2.300544 1_555
F7 U5 2.304631 1_555
F8 U1 2.300544 1_556
F8 U3 2.304631 1_455
F9 U4 2.092900 1_565
F9 K3 2.632310 1_554
F10 U2 2.092900 1_545
F10 K1 2.632310 1_555
F11 U1 2.134459 1_555
F11 K3 2.638860 1_554
F12 U4 2.300544 1_555
F12 U7 2.304631 1_545
F13 U2 2.262506 1_455
F13 U7 2.438200 1_555
F13 K0 3.105662 1_555
F14 U5 2.134459 1_555
F14 K0 2.638860 1_655
F15 U7 2.092900 1_545
F15 K2 2.632310 1_556
F16 U5 2.300544 1_555
F16 U6 2.304631 1_555
F17 U7 2.134459 1_545
F17 K1 2.638860 1_455
F18 U1 2.092900 1_555
F18 K0 2.632310 1_555
F19 U3 2.134459 1_555
F19 K2 2.638860 1_556
F20 U6 2.262506 1_555
F20 U3 2.438200 1_555
F20 K3 3.105662 1_555
F21 U1 2.262506 1_655
F21 U5 2.438200 1_555
F21 K1 3.105662 1_555
F22 U0 2.134459 1_565
F22 K3 2.638860 1_554
F23 U3 2.300544 1_554
F23 U1 2.304631 1_655
F24 U7 2.300544 1_555
F24 U4 2.304631 1_565
F25 U0 2.262506 1_655
F25 U4 2.438200 1_555
F25 K1 3.105662 1_555
F26 U3 2.092900 1_555
F26 K1 2.632310 1_555
F27 U0 2.092900 1_565
F27 K0 2.632310 1_555
F28 U5 2.262506 1_555
F28 U1 2.438200 1_555
F28 K2 3.105662 1_555
F29 U3 2.262506 1_455
F29 U6 2.438200 1_555
F29 K0 3.105662 1_555
F30 U4 2.134459 1_565
F30 K0 2.638860 1_655
F31 U4 2.262506 1_555
F31 U0 2.438200 1_555
F31 K2 3.105662 1_555
F32 U5 2.092900 1_555
F32 K3 2.632310 1_554
F33 U6 2.134459 1_555
F33 K1 2.638860 1_455
F34 U2 2.300544 1_554
F34 U0 2.304631 1_665
F35 U6 2.092900 1_555
F35 K2 2.632310 1_556
