# generated using pymatgen
data_Sr2CeIrO6
_symmetry_space_group_name_H-M   'P 1'
_cell_length_a   5.88452030
_cell_length_b   5.84289211
_cell_length_c   10.07103380
_cell_angle_alpha   55.00879864
_cell_angle_beta   90.00000000
_cell_angle_gamma   90.00000000
_symmetry_Int_Tables_number   1
_chemical_formula_structural   Sr2CeIrO6
_chemical_formula_sum   'Sr4 Ce2 Ir2 O12'
_cell_volume   283.67704620
_cell_formula_units_Z   2
loop_
 _symmetry_equiv_pos_site_id
 _symmetry_equiv_pos_as_xyz
  1  'x, y, z'
loop_
 _atom_site_type_symbol
 _atom_site_label
 _atom_site_symmetry_multiplicity
 _atom_site_fract_x
 _atom_site_fract_y
 _atom_site_fract_z
 _atom_site_occupancy
  Sr  Sr0  1  0.53706850  0.76146501  0.74857405  1
  Sr  Sr1  1  0.03706850  0.23853499  0.75142595  1
  Sr  Sr2  1  0.96293150  0.76146501  0.24857405  1
  Sr  Sr3  1  0.46293150  0.23853499  0.25142595  1
  Ce  Ce0  1  0.50000000  0.50000000  0.50000000  1
  Ce  Ce1  1  0.00000000  0.50000000  0.00000000  1
  Ir  Ir0  1  0.00000000  -0.00000000  0.50000000  1
  Ir  Ir1  1  0.50000000  -0.00000000  0.00000000  1
  O  O0  1  0.51760830  0.68923192  0.23534188  1
  O  O1  1  0.01760830  0.31076808  0.26465812  1
  O  O2  1  0.48239170  0.31076808  0.76465812  1
  O  O3  1  0.98239170  0.68923192  0.73534188  1
  O  O4  1  0.72723611  0.84272512  0.45965631  1
  O  O5  1  0.22723611  0.15727488  0.04034369  1
  O  O6  1  0.27276389  0.15727488  0.54034369  1
  O  O7  1  0.77276389  0.84272512  0.95965631  1
  O  O8  1  0.29489476  0.76442752  0.95992706  1
  O  O9  1  0.79489476  0.23557248  0.54007294  1
  O  O10  1  0.70510524  0.23557248  0.04007294  1
  O  O11  1  0.20510524  0.76442752  0.45992706  1
loop_
_geom_bond_atom_site_label_1
_geom_bond_atom_site_label_2
_geom_bond_distance
_geom_bond_site_symmetry_2
Ce0 O11 2.201397 1_555
Ce0 O9 2.201397 1_555
Ce0 O2 2.226556 1_555
Ce0 O0 2.226556 1_555
Ce0 O6 2.242767 1_555
Ce0 O4 2.242767 1_555
Ce1 O8 2.201397 1_554
Ce1 O10 2.201397 1_455
Ce1 O3 2.226556 1_454
Ce1 O1 2.226556 1_555
Ce1 O5 2.242767 1_555
Ce1 O7 2.242767 1_454
Ir0 O3 1.997370 1_445
Ir0 O1 1.997370 1_555
Ir0 O4 2.003508 1_445
Ir0 O6 2.003508 1_555
Ir0 O9 2.037457 1_455
Ir0 O11 2.037457 1_545
Ir1 O2 1.997370 1_554
Ir1 O0 1.997370 1_545
Ir1 O5 2.003508 1_555
Ir1 O7 2.003508 1_544
Ir1 O10 2.037457 1_555
Ir1 O8 2.037457 1_544
O0 Sr3 2.564213 1_555
O0 Sr2 2.669734 1_555
O1 Sr2 2.564213 1_455
O1 Sr3 2.669734 1_555
O2 Sr0 2.564213 1_555
O2 Sr1 2.669734 1_555
O3 Sr1 2.564213 1_655
O3 Sr0 2.669734 1_555
O4 Sr3 2.569609 1_565
O4 Sr2 2.797457 1_555
O4 Sr0 2.891296 1_555
O5 Sr2 2.569609 1_445
O5 Sr3 2.797457 1_555
O5 Sr1 2.891296 1_554
O6 Sr0 2.569609 1_545
O6 Sr1 2.797457 1_555
O6 Sr3 2.891296 1_555
O7 Sr1 2.569609 1_665
O7 Sr0 2.797457 1_555
O7 Sr2 2.891296 1_556
O8 Sr0 2.569843 1_555
O8 Sr1 2.777326 1_565
O8 Sr3 2.948221 1_556
O9 Sr1 2.569843 1_655
O9 Sr0 2.777326 1_545
O9 Sr2 2.948221 1_555
O10 Sr3 2.569843 1_555
O10 Sr2 2.777326 1_545
O10 Sr0 2.948221 1_554
O11 Sr2 2.569843 1_455
O11 Sr3 2.777326 1_565
O11 Sr1 2.948221 1_555
