# generated using pymatgen
data_Dy5(In2Ni)2
_symmetry_space_group_name_H-M   'P 1'
_cell_length_a   3.59739602
_cell_length_b   7.91218840
_cell_length_c   17.81710093
_cell_angle_alpha   90.00000000
_cell_angle_beta   90.00000000
_cell_angle_gamma   90.00000000
_symmetry_Int_Tables_number   1
_chemical_formula_structural   Dy5(In2Ni)2
_chemical_formula_sum   'Dy10 In8 Ni4'
_cell_volume   507.13304454
_cell_formula_units_Z   2
loop_
 _symmetry_equiv_pos_site_id
 _symmetry_equiv_pos_as_xyz
  1  'x, y, z'
loop_
 _atom_site_type_symbol
 _atom_site_label
 _atom_site_symmetry_multiplicity
 _atom_site_fract_x
 _atom_site_fract_y
 _atom_site_fract_z
 _atom_site_occupancy
  Dy  Dy0  1  0.50000000  0.38462728  0.58730025  1
  Dy  Dy1  1  0.50000000  0.88462728  0.91269975  1
  Dy  Dy2  1  0.50000000  0.11537272  0.08730025  1
  Dy  Dy3  1  0.50000000  0.75443171  0.72150806  1
  Dy  Dy4  1  0.50000000  0.25443171  0.77849194  1
  Dy  Dy5  1  0.50000000  0.50000000  -0.00000000  1
  Dy  Dy6  1  0.50000000  0.74556829  0.22150806  1
  Dy  Dy7  1  0.50000000  0.24556829  0.27849194  1
  Dy  Dy8  1  0.50000000  -0.00000000  0.50000000  1
  Dy  Dy9  1  0.50000000  0.61537272  0.41269975  1
  In  In0  1  0.00000000  0.79282780  0.06992708  1
  In  In1  1  -0.00000000  0.92724646  0.34761337  1
  In  In2  1  -0.00000000  0.07275354  0.65238663  1
  In  In3  1  0.00000000  0.57275354  0.84761337  1
  In  In4  1  -0.00000000  0.70717220  0.56992708  1
  In  In5  1  -0.00000000  0.20717220  0.93007292  1
  In  In6  1  0.00000000  0.29282780  0.43007292  1
  In  In7  1  0.00000000  0.42724646  0.15238663  1
  Ni  Ni0  1  -0.00000000  0.97460078  0.80454316  1
  Ni  Ni1  1  0.00000000  0.52539922  0.30454316  1
  Ni  Ni2  1  -0.00000000  0.47460078  0.69545684  1
  Ni  Ni3  1  0.00000000  0.02539922  0.19545684  1
loop_
_geom_bond_atom_site_label_1
_geom_bond_atom_site_label_2
_geom_bond_distance
_geom_bond_site_symmetry_2
Dy0 Ni2 2.730489 1_555
Dy0 Ni2 2.730489 1_655
Dy0 In4 3.137518 1_655
Dy0 In4 3.137518 1_555
Dy0 In2 3.266370 1_555
Dy0 In2 3.266370 1_655
Dy0 In6 3.407397 1_555
Dy0 In6 3.407397 1_655
Dy1 Ni0 2.730489 1_655
Dy1 Ni0 2.730489 1_555
Dy1 In5 3.137518 1_565
Dy1 In5 3.137518 1_665
Dy1 In3 3.266370 1_555
Dy1 In3 3.266370 1_655
Dy1 In0 3.407397 1_656
Dy1 In0 3.407397 1_556
Dy2 Ni3 2.730489 1_555
Dy2 Ni3 2.730489 1_655
Dy2 In0 3.137518 1_545
Dy2 In0 3.137518 1_645
Dy2 In7 3.266370 1_655
Dy2 In7 3.266370 1_555
Dy2 In5 3.407397 1_554
Dy2 In5 3.407397 1_654
Dy3 Ni2 2.890136 1_655
Dy3 Ni2 2.890136 1_555
Dy3 Ni0 2.908385 1_655
Dy3 Ni0 2.908385 1_555
Dy3 In3 3.217124 1_555
Dy3 In3 3.217124 1_655
Dy3 In4 3.266358 1_555
Dy3 In4 3.266358 1_655
Dy3 In2 3.330987 1_665
Dy3 In2 3.330987 1_565
Dy4 Ni0 2.890136 1_645
Dy4 Ni0 2.890136 1_545
Dy4 Ni2 2.908385 1_555
Dy4 Ni2 2.908385 1_655
Dy4 In2 3.217124 1_655
Dy4 In2 3.217124 1_555
Dy4 In5 3.266358 1_555
Dy4 In5 3.266358 1_655
Dy4 In3 3.330987 1_555
Dy4 In3 3.330987 1_655
Dy5 In0 3.186792 1_555
Dy5 In0 3.186792 1_655
Dy5 In5 3.186792 1_654
Dy5 In5 3.186792 1_554
Dy5 In3 3.307322 1_554
Dy5 In3 3.307322 1_654
Dy5 In7 3.307322 1_555
Dy5 In7 3.307322 1_655
Dy6 Ni3 2.890136 1_665
Dy6 Ni3 2.890136 1_565
Dy6 Ni1 2.908385 1_555
Dy6 Ni1 2.908385 1_655
Dy6 In1 3.217124 1_555
Dy6 In1 3.217124 1_655
Dy6 In0 3.266358 1_655
Dy6 In0 3.266358 1_555
Dy6 In7 3.330987 1_555
Dy6 In7 3.330987 1_655
Dy7 Ni1 2.890136 1_655
Dy7 Ni1 2.890136 1_555
Dy7 Ni3 2.908385 1_555
Dy7 Ni3 2.908385 1_655
Dy7 In7 3.217124 1_555
Dy7 In7 3.217124 1_655
Dy7 In6 3.266358 1_555
Dy7 In6 3.266358 1_655
Dy7 In1 3.330987 1_645
Dy7 In1 3.330987 1_545
Dy8 In6 3.186792 1_555
Dy8 In6 3.186792 1_655
Dy8 In4 3.186792 1_645
Dy8 In4 3.186792 1_545
Dy8 In2 3.307322 1_655
Dy8 In1 3.307322 1_645
Dy8 In1 3.307322 1_545
Dy8 In2 3.307322 1_555
Dy9 Ni1 2.730489 1_655
Dy9 Ni1 2.730489 1_555
Dy9 In6 3.137518 1_555
Dy9 In6 3.137518 1_655
Dy9 In1 3.266370 1_655
Dy9 In1 3.266370 1_555
Dy9 In4 3.407397 1_555
Dy9 In4 3.407397 1_655
In0 Ni3 2.896277 1_565
In0 In7 3.244281 1_555
In1 Ni3 2.820030 1_565
In1 In6 3.244281 1_565
In1 Ni1 3.270787 1_555
In2 Ni0 2.820030 1_545
In2 In4 3.244281 1_545
In2 Ni2 3.270787 1_555
In3 Ni2 2.820030 1_555
In3 In5 3.244281 1_555
In3 Ni0 3.270787 1_555
In4 Ni2 2.896277 1_555
In5 Ni0 2.896277 1_545
In6 Ni1 2.896277 1_555
In7 Ni1 2.820030 1_555
In7 Ni3 3.270787 1_555
