# generated using pymatgen
data_Ag3P6H12N3O19
_symmetry_space_group_name_H-M   'P 1'
_cell_length_a   10.03379312
_cell_length_b   10.03379312
_cell_length_c   10.03379298
_cell_angle_alpha   99.55708391
_cell_angle_beta   99.55708391
_cell_angle_gamma   99.55707851
_symmetry_Int_Tables_number   1
_chemical_formula_structural   Ag3P6H12N3O19
_chemical_formula_sum   'Ag6 P12 H24 N6 O38'
_cell_volume   962.66201336
_cell_formula_units_Z   2
loop_
 _symmetry_equiv_pos_site_id
 _symmetry_equiv_pos_as_xyz
  1  'x, y, z'
loop_
 _atom_site_type_symbol
 _atom_site_label
 _atom_site_symmetry_multiplicity
 _atom_site_fract_x
 _atom_site_fract_y
 _atom_site_fract_z
 _atom_site_occupancy
  Ag  Ag0  1  0.53315800  0.19148400  0.98925200  1
  Ag  Ag1  1  0.19148400  0.98925200  0.53315800  1
  Ag  Ag2  1  0.98925200  0.53315800  0.19148400  1
  Ag  Ag3  1  0.46684200  0.80851600  0.01074800  1
  Ag  Ag4  1  0.80851600  0.01074800  0.46684200  1
  Ag  Ag5  1  0.01074800  0.46684200  0.80851600  1
  P  P0  1  0.57565200  0.69112500  0.33344800  1
  P  P1  1  0.69112500  0.33344800  0.57565200  1
  P  P2  1  0.33344800  0.57565200  0.69112500  1
  P  P3  1  0.42434800  0.30887500  0.66655200  1
  P  P4  1  0.30887500  0.66655200  0.42434800  1
  P  P5  1  0.66655200  0.42434800  0.30887500  1
  P  P6  1  0.88421000  0.23646300  0.97886500  1
  P  P7  1  0.23646300  0.97886500  0.88421000  1
  P  P8  1  0.97886500  0.88421000  0.23646300  1
  P  P9  1  0.11579000  0.76353700  0.02113500  1
  P  P10  1  0.76353700  0.02113500  0.11579000  1
  P  P11  1  0.02113500  0.11579000  0.76353700  1
  H  H0  1  0.57919300  0.89050000  0.61298200  1
  H  H1  1  0.89050000  0.61298200  0.57919300  1
  H  H2  1  0.61298200  0.57919300  0.89050000  1
  H  H3  1  0.42080700  0.10950000  0.38701800  1
  H  H4  1  0.10950000  0.38701800  0.42080700  1
  H  H5  1  0.38701800  0.42080700  0.10950000  1
  H  H6  1  0.38741200  0.03547500  0.21652000  1
  H  H7  1  0.03547500  0.21652000  0.38741200  1
  H  H8  1  0.21652000  0.38741200  0.03547500  1
  H  H9  1  0.61258800  0.96452500  0.78348000  1
  H  H10  1  0.96452500  0.78348000  0.61258800  1
  H  H11  1  0.78348000  0.61258800  0.96452500  1
  H  H12  1  0.34042000  0.39255600  0.93670100  1
  H  H13  1  0.39255600  0.93670100  0.34042000  1
  H  H14  1  0.93670100  0.34042000  0.39255600  1
  H  H15  1  0.65958000  0.60744400  0.06329900  1
  H  H16  1  0.60744400  0.06329900  0.65958000  1
  H  H17  1  0.06329900  0.65958000  0.60744400  1
  H  H18  1  0.46082800  0.96422900  0.68424500  1
  H  H19  1  0.96422900  0.68424500  0.46082800  1
  H  H20  1  0.68424500  0.46082800  0.96422900  1
  H  H21  1  0.53917200  0.03577100  0.31575500  1
  H  H22  1  0.03577100  0.31575500  0.53917200  1
  H  H23  1  0.31575500  0.53917200  0.03577100  1
  N  N0  1  0.56481000  0.97082400  0.68560500  1
  N  N1  1  0.97082400  0.68560500  0.56481000  1
  N  N2  1  0.68560500  0.56481000  0.97082400  1
  N  N3  1  0.43519000  0.02917600  0.31439500  1
  N  N4  1  0.02917600  0.31439500  0.43519000  1
  N  N5  1  0.31439500  0.43519000  0.02917600  1
  O  O0  1  0.41939300  0.61635400  0.33686200  1
  O  O1  1  0.61635400  0.33686200  0.41939300  1
  O  O2  1  0.33686200  0.41939300  0.61635400  1
  O  O3  1  0.58060700  0.38364600  0.66313800  1
  O  O4  1  0.38364600  0.66313800  0.58060700  1
  O  O5  1  0.66313800  0.58060700  0.38364600  1
  O  O6  1  0.18518800  0.58027100  0.69639000  1
  O  O7  1  0.58027100  0.69639000  0.18518800  1
  O  O8  1  0.69639000  0.18518800  0.58027100  1
  O  O9  1  0.81481200  0.41972900  0.30361000  1
  O  O10  1  0.41972900  0.30361000  0.81481200  1
  O  O11  1  0.30361000  0.81481200  0.41972900  1
  O  O12  1  0.82059500  0.44223800  0.62030800  1
  O  O13  1  0.44223800  0.62030800  0.82059500  1
  O  O14  1  0.62030800  0.82059500  0.44223800  1
  O  O15  1  0.17940500  0.55776200  0.37969200  1
  O  O16  1  0.55776200  0.37969200  0.17940500  1
  O  O17  1  0.37969200  0.17940500  0.55776200  1
  O  O18  1  0.12056800  0.85182300  0.90048900  1
  O  O19  1  0.85182300  0.90048900  0.12056800  1
  O  O20  1  0.90048900  0.12056800  0.85182300  1
  O  O21  1  0.87943200  0.14817700  0.09951100  1
  O  O22  1  0.14817700  0.09951100  0.87943200  1
  O  O23  1  0.09951100  0.87943200  0.14817700  1
  O  O24  1  0.94002900  0.74961600  0.28082600  1
  O  O25  1  0.74961600  0.28082600  0.94002900  1
  O  O26  1  0.28082600  0.94002900  0.74961600  1
  O  O27  1  0.05997100  0.25038400  0.71917400  1
  O  O28  1  0.25038400  0.71917400  0.05997100  1
  O  O29  1  0.71917400  0.05997100  0.25038400  1
  O  O30  1  0.34627200  0.02451400  0.01493100  1
  O  O31  1  0.02451400  0.01493100  0.34627200  1
  O  O32  1  0.01493100  0.34627200  0.02451400  1
  O  O33  1  0.65372800  0.97548600  0.98506900  1
  O  O34  1  0.97548600  0.98506900  0.65372800  1
  O  O35  1  0.98506900  0.65372800  0.97548600  1
  O  O36  1  0.75022200  0.75022200  0.75022200  1
  O  O37  1  0.24977800  0.24977800  0.24977800  1
loop_
_geom_bond_atom_site_label_1
_geom_bond_atom_site_label_2
_geom_bond_distance
_geom_bond_site_symmetry_2
Ag0 O25 2.370941 1_555
Ag0 O30 2.376979 1_556
Ag0 O16 2.399958 1_556
Ag0 O10 2.458084 1_555
Ag0 O33 2.649473 1_545
Ag1 O26 2.370941 1_555
Ag1 O31 2.376979 1_565
Ag1 O17 2.399958 1_565
Ag1 O11 2.458084 1_555
Ag1 O34 2.649473 1_455
Ag2 O24 2.370941 1_555
Ag2 O32 2.376979 1_655
Ag2 O15 2.399958 1_655
Ag2 O9 2.458084 1_555
Ag2 O35 2.649473 1_554
Ag3 O28 2.370941 1_555
Ag3 O33 2.376979 1_554
Ag3 O13 2.399958 1_554
Ag3 O7 2.458084 1_555
Ag3 O30 2.649473 1_565
Ag4 O29 2.370941 1_555
Ag4 O34 2.376979 1_545
Ag4 O14 2.399958 1_545
Ag4 O8 2.458084 1_555
Ag4 O31 2.649473 1_655
Ag5 O27 2.370941 1_555
Ag5 O35 2.376979 1_455
Ag5 O12 2.399958 1_455
Ag5 O6 2.458084 1_555
Ag5 O32 2.649473 1_556
H0 N0 1.039181 1_555
H1 N1 1.039182 1_555
H2 N2 1.039181 1_555
H3 N3 1.039181 1_555
H4 N4 1.039182 1_555
H5 N5 1.039181 1_555
H6 N3 1.035660 1_555
H7 N4 1.035660 1_555
H8 N5 1.035660 1_555
H9 N0 1.035660 1_555
H10 N1 1.035660 1_555
H11 N2 1.035660 1_555
H12 N5 1.047799 1_556
H13 N3 1.047799 1_565
H14 N4 1.047799 1_655
H15 N2 1.047799 1_554
H16 N0 1.047799 1_545
H17 N1 1.047799 1_455
H18 N0 1.032065 1_555
H19 N1 1.032065 1_555
H20 N2 1.032065 1_555
H21 N3 1.032065 1_555
H22 N4 1.032065 1_555
H23 N5 1.032065 1_555
O0 P4 1.617353 1_555
O0 P0 1.630344 1_555
O1 P5 1.617353 1_555
O1 P1 1.630344 1_555
O2 P3 1.617353 1_555
O2 P2 1.630344 1_555
O3 P1 1.617353 1_555
O3 P3 1.630344 1_555
O4 P2 1.617353 1_555
O4 P4 1.630344 1_555
O5 P0 1.617353 1_555
O5 P5 1.630344 1_555
O6 P2 1.505357 1_555
O7 P0 1.505357 1_555
O8 P1 1.505357 1_555
O9 P5 1.505357 1_555
O10 P3 1.505357 1_555
O11 P4 1.505357 1_555
O12 P1 1.501110 1_555
O13 P2 1.501110 1_555
O14 P0 1.501110 1_555
O15 P4 1.501110 1_555
O16 P5 1.501110 1_555
O17 P3 1.501110 1_555
O18 P9 1.616685 1_556
O18 P7 1.625984 1_555
O19 P10 1.616685 1_565
O19 P8 1.625984 1_555
O20 P11 1.616685 1_655
O20 P6 1.625984 1_555
O21 P6 1.616685 1_554
O21 P10 1.625984 1_555
O22 P7 1.616685 1_545
O22 P11 1.625984 1_555
O23 P8 1.616685 1_455
O23 P9 1.625984 1_555
O24 P8 1.502089 1_555
O25 P6 1.502088 1_555
O26 P7 1.502088 1_555
O27 P11 1.502089 1_555
O28 P9 1.502088 1_555
O29 P10 1.502088 1_555
O30 P7 1.515645 1_544
O31 P8 1.515645 1_445
O32 P6 1.515645 1_454
O33 P10 1.515645 1_566
O34 P11 1.515645 1_665
O35 P9 1.515645 1_656
