# generated using pymatgen
data_Cu3Mo2O9
_symmetry_space_group_name_H-M   'P 1'
_cell_length_a   6.91477900
_cell_length_b   7.73783300
_cell_length_c   14.82603000
_cell_angle_alpha   90.00000000
_cell_angle_beta   90.00000000
_cell_angle_gamma   90.00000000
_symmetry_Int_Tables_number   1
_chemical_formula_structural   Cu3Mo2O9
_chemical_formula_sum   'Cu12 Mo8 O36'
_cell_volume   793.27274168
_cell_formula_units_Z   4
loop_
 _symmetry_equiv_pos_site_id
 _symmetry_equiv_pos_as_xyz
  1  'x, y, z'
loop_
 _atom_site_type_symbol
 _atom_site_label
 _atom_site_symmetry_multiplicity
 _atom_site_fract_x
 _atom_site_fract_y
 _atom_site_fract_z
 _atom_site_occupancy
  Cu  Cu0  1  0.25000000  0.70405100  0.93575500  1
  Cu  Cu1  1  0.25000000  0.83582600  0.14335300  1
  Cu  Cu2  1  0.75000000  0.79594900  0.43575500  1
  Cu  Cu3  1  0.25000000  0.20405100  0.56424500  1
  Cu  Cu4  1  0.25000000  0.33582600  0.35664700  1
  Cu  Cu5  1  0.75000000  0.29594900  0.06424500  1
  Cu  Cu6  1  0.50000000  0.50000000  0.50000000  1
  Cu  Cu7  1  0.75000000  0.16417400  0.85664700  1
  Cu  Cu8  1  0.00000000  0.00000000  0.00000000  1
  Cu  Cu9  1  0.75000000  0.66417400  0.64335300  1
  Cu  Cu10  1  0.50000000  0.00000000  0.00000000  1
  Cu  Cu11  1  0.00000000  0.50000000  0.50000000  1
  Mo  Mo0  1  0.25000000  0.26453200  0.83101400  1
  Mo  Mo1  1  0.25000000  0.84183000  0.38740600  1
  Mo  Mo2  1  0.75000000  0.23546800  0.33101400  1
  Mo  Mo3  1  0.25000000  0.34183000  0.11259400  1
  Mo  Mo4  1  0.75000000  0.15817000  0.61259400  1
  Mo  Mo5  1  0.75000000  0.73546800  0.16898600  1
  Mo  Mo6  1  0.75000000  0.65817000  0.88740600  1
  Mo  Mo7  1  0.25000000  0.76453200  0.66898600  1
  O  O0  1  0.53437200  0.75405800  0.94008900  1
  O  O1  1  0.75000000  0.20835200  0.73007600  1
  O  O2  1  0.25000000  0.80388000  0.78533300  1
  O  O3  1  0.75000000  0.58730700  0.51659800  1
  O  O4  1  0.53463500  0.86051500  0.13663700  1
  O  O5  1  0.96536500  0.36051500  0.36336300  1
  O  O6  1  0.46562800  0.24594200  0.05991100  1
  O  O7  1  0.25000000  0.29164800  0.23007600  1
  O  O8  1  0.53463500  0.36051500  0.36336300  1
  O  O9  1  0.75000000  0.03080600  0.38921000  1
  O  O10  1  0.25000000  0.06683400  0.40380800  1
  O  O11  1  0.75000000  0.19612000  0.21466700  1
  O  O12  1  0.25000000  0.46919400  0.88921000  1
  O  O13  1  0.25000000  0.79164800  0.26992400  1
  O  O14  1  0.75000000  0.08730700  0.98340200  1
  O  O15  1  0.25000000  0.41269300  0.48340200  1
  O  O16  1  0.25000000  0.91269300  0.01659800  1
  O  O17  1  0.25000000  0.96919400  0.61079000  1
  O  O18  1  0.46536500  0.63948500  0.63663700  1
  O  O19  1  0.25000000  0.30388000  0.71466700  1
  O  O20  1  0.75000000  0.53080600  0.11079000  1
  O  O21  1  0.03463500  0.63948500  0.63663700  1
  O  O22  1  0.96562800  0.75405800  0.94008900  1
  O  O23  1  0.03463500  0.13948500  0.86336300  1
  O  O24  1  0.75000000  0.69612000  0.28533300  1
  O  O25  1  0.03437200  0.24594200  0.05991100  1
  O  O26  1  0.03437200  0.74594200  0.44008900  1
  O  O27  1  0.96562800  0.25405800  0.55991100  1
  O  O28  1  0.96536500  0.86051500  0.13663700  1
  O  O29  1  0.25000000  0.56683400  0.09619200  1
  O  O30  1  0.75000000  0.70835200  0.76992400  1
  O  O31  1  0.75000000  0.43316600  0.90380800  1
  O  O32  1  0.46562800  0.74594200  0.44008900  1
  O  O33  1  0.75000000  0.93316600  0.59619200  1
  O  O34  1  0.53437200  0.25405800  0.55991100  1
  O  O35  1  0.46536500  0.13948500  0.86336300  1
loop_
_geom_bond_atom_site_label_1
_geom_bond_atom_site_label_2
_geom_bond_distance
_geom_bond_site_symmetry_2
Cu0 O12 1.943895 1_555
Cu0 O22 2.005110 1_455
Cu0 O0 2.005110 1_555
Cu0 O16 2.010722 1_556
Cu0 O2 2.360151 1_555
Cu0 O29 2.604858 1_556
Cu1 O13 1.907427 1_555
Cu1 O16 1.971151 1_555
Cu1 O4 1.979943 1_555
Cu1 O28 1.979943 1_455
Cu1 O29 2.195720 1_555
Cu2 O9 1.943895 1_565
Cu2 O32 2.005110 1_555
Cu2 O26 2.005110 1_655
Cu2 O3 2.010722 1_555
Cu2 O24 2.360151 1_555
Cu2 O33 2.604858 1_555
Cu3 O17 1.943895 1_545
Cu3 O34 2.005110 1_555
Cu3 O27 2.005110 1_455
Cu3 O15 2.010722 1_555
Cu3 O19 2.360151 1_555
Cu3 O10 2.604858 1_555
Cu4 O7 1.907427 1_555
Cu4 O15 1.971151 1_555
Cu4 O5 1.979943 1_455
Cu4 O8 1.979943 1_555
Cu4 O10 2.195720 1_555
Cu5 O20 1.943895 1_555
Cu5 O6 2.005110 1_555
Cu5 O25 2.005110 1_655
Cu5 O14 2.010722 1_554
Cu5 O11 2.360151 1_555
Cu5 O31 2.604858 1_554
Cu6 O15 1.872253 1_555
Cu6 O3 1.872253 1_555
Cu6 O32 2.113550 1_555
Cu6 O34 2.113550 1_555
Cu6 O8 2.307829 1_555
Cu6 O18 2.307829 1_555
Cu7 O1 1.907427 1_555
Cu7 O14 1.971151 1_555
Cu7 O23 1.979943 1_655
Cu7 O35 1.979943 1_555
Cu7 O31 2.195720 1_555
Cu8 O14 1.872253 1_454
Cu8 O16 1.872253 1_545
Cu8 O22 2.113550 1_444
Cu8 O25 2.113550 1_555
Cu8 O23 2.307829 1_554
Cu8 O28 2.307829 1_445
Cu9 O30 1.907427 1_555
Cu9 O3 1.971151 1_555
Cu9 O21 1.979943 1_655
Cu9 O18 1.979943 1_555
Cu9 O33 2.195720 1_555
Cu10 O14 1.872253 1_554
Cu10 O16 1.872253 1_545
Cu10 O0 2.113550 1_544
Cu10 O6 2.113550 1_555
Cu10 O35 2.307829 1_554
Cu10 O4 2.307829 1_545
Cu11 O15 1.872253 1_555
Cu11 O3 1.872253 1_455
Cu11 O26 2.113550 1_555
Cu11 O27 2.113550 1_455
Cu11 O5 2.307829 1_455
Cu11 O21 2.307829 1_555
Mo0 O19 1.751628 1_555
Mo0 O12 1.803432 1_555
Mo0 O35 1.839560 1_555
Mo0 O23 1.839560 1_555
Mo1 O10 1.757944 1_565
Mo1 O13 1.784549 1_555
Mo1 O26 1.839494 1_555
Mo1 O32 1.839494 1_555
Mo2 O11 1.751628 1_555
Mo2 O9 1.803432 1_555
Mo2 O8 1.839560 1_555
Mo2 O5 1.839560 1_555
Mo3 O29 1.757944 1_555
Mo3 O7 1.784549 1_555
Mo3 O25 1.839494 1_555
Mo3 O6 1.839494 1_555
Mo4 O33 1.757944 1_545
Mo4 O1 1.784549 1_555
Mo4 O34 1.839494 1_555
Mo4 O27 1.839494 1_555
Mo5 O24 1.751628 1_555
Mo5 O20 1.803432 1_555
Mo5 O28 1.839560 1_555
Mo5 O4 1.839560 1_555
Mo6 O31 1.757944 1_555
Mo6 O30 1.784549 1_555
Mo6 O0 1.839494 1_555
Mo6 O22 1.839494 1_555
Mo7 O2 1.751628 1_555
Mo7 O17 1.803432 1_555
Mo7 O18 1.839560 1_555
Mo7 O21 1.839560 1_555
