# generated using pymatgen
data_Si2H2O3
_symmetry_space_group_name_H-M   'P 1'
_cell_length_a   8.40403800
_cell_length_b   10.05944313
_cell_length_c   12.92293856
_cell_angle_alpha   85.93130874
_cell_angle_beta   108.89735744
_cell_angle_gamma   114.61103844
_symmetry_Int_Tables_number   1
_chemical_formula_structural   Si2H2O3
_chemical_formula_sum   'Si20 H20 O30'
_cell_volume   937.12176772
_cell_formula_units_Z   10
loop_
 _symmetry_equiv_pos_site_id
 _symmetry_equiv_pos_as_xyz
  1  'x, y, z'
loop_
 _atom_site_type_symbol
 _atom_site_label
 _atom_site_symmetry_multiplicity
 _atom_site_fract_x
 _atom_site_fract_y
 _atom_site_fract_z
 _atom_site_occupancy
  Si  Si0  1  0.52828100  0.86385000  0.87178600  1
  Si  Si1  1  0.34233300  0.66094600  0.61839700  1
  Si  Si2  1  0.43834200  0.15595000  0.11672000  1
  Si  Si3  1  0.70258800  0.36618700  0.36807300  1
  Si  Si4  1  0.80641800  0.12388600  0.77798200  1
  Si  Si5  1  0.46204200  0.39321500  0.77243000  1
  Si  Si6  1  0.20861500  0.89134200  0.27460500  1
  Si  Si7  1  0.58392800  0.61930500  0.27956300  1
  Si  Si8  1  0.31670600  0.00233600  0.77858400  1
  Si  Si9  1  0.86963100  0.49679900  0.68242500  1
  Si  Si10  1  0.81463300  0.99470300  0.19127000  1
  Si  Si11  1  0.96178100  0.50038300  0.27569500  1
  Si  Si12  1  0.95008700  0.76053100  0.53976000  1
  Si  Si13  1  0.10830700  0.78303600  0.92734200  1
  Si  Si14  1  0.10256800  0.28059500  0.42615900  1
  Si  Si15  1  0.85088600  0.25148500  0.04233500  1
  Si  Si16  1  0.66339700  0.88331600  0.54950300  1
  Si  Si17  1  0.74492000  0.63687100  0.97192100  1
  Si  Si18  1  0.36816000  0.13973500  0.47081000  1
  Si  Si19  1  0.26828200  0.38189100  0.04738100  1
  H  H0  1  0.79952000  0.87701100  0.84021300  1
  H  H1  1  0.25666600  0.40889400  0.60205600  1
  H  H2  1  0.25529400  0.90761400  0.10341700  1
  H  H3  1  0.41187800  0.37113800  0.34609700  1
  H  H4  1  0.11898100  0.20458900  0.79306000  1
  H  H5  1  0.66005800  0.30233900  0.73867900  1
  H  H6  1  0.88648000  0.79955100  0.24721100  1
  H  H7  1  0.37160000  0.70324700  0.29714200  1
  H  H8  1  0.67044500  0.82578600  0.05122100  1
  H  H9  1  0.71294300  0.33106900  0.54900800  1
  H  H10  1  0.26079000  0.66322500  0.78137600  1
  H  H11  1  0.68491300  0.16394300  0.28248100  1
  H  H12  1  0.72628500  0.12772000  0.57479500  1
  H  H13  1  0.30825800  0.40058800  0.94247300  1
  H  H14  1  0.53326000  0.89628300  0.44530100  1
  H  H15  1  0.46552300  0.62835600  0.07675500  1
  H  H16  1  0.25046400  0.98572500  0.59246900  1
  H  H17  1  0.05271900  0.49774600  0.86434100  1
  H  H18  1  0.82805400  0.00146700  0.37634900  1
  H  H19  1  0.82113400  0.47729900  0.09038300  1
  O  O0  1  0.72019800  0.93528800  0.82358100  1
  O  O1  1  0.36781800  0.48735500  0.65450500  1
  O  O2  1  0.27264000  0.98657200  0.15398400  1
  O  O3  1  0.53166900  0.43246100  0.32428700  1
  O  O4  1  0.02236600  0.13871800  0.82238800  1
  O  O5  1  0.66143400  0.40260600  0.73087000  1
  O  O6  1  0.97602500  0.89928500  0.23796900  1
  O  O7  1  0.42291400  0.63045000  0.32172000  1
  O  O8  1  0.15369000  0.89852400  0.83303600  1
  O  O9  1  0.87474700  0.65582100  0.63859600  1
  O  O10  1  0.92443300  0.15282800  0.14435000  1
  O  O11  1  0.07098400  0.39497900  0.33221700  1
  O  O12  1  0.83550000  0.87303300  0.52480400  1
  O  O13  1  0.89124600  0.76354600  0.90935800  1
  O  O14  1  0.28222000  0.26341400  0.40374500  1
  O  O15  1  0.06130500  0.36585100  0.02618400  1
  O  O16  1  0.62209900  0.76159400  0.97858300  1
  O  O17  1  0.56517300  0.76045200  0.62329600  1
  O  O18  1  0.32397600  0.25891300  0.11901200  1
  O  O19  1  0.62066600  0.26399400  0.47687400  1
  O  O20  1  0.38318300  0.71419600  0.76827700  1
  O  O21  1  0.59840100  0.21307000  0.26620700  1
  O  O22  1  0.74509200  0.05007500  0.62196500  1
  O  O23  1  0.57784400  0.53861600  0.86078300  1
  O  O24  1  0.32812000  0.03587400  0.36264400  1
  O  O25  1  0.42178600  0.54743500  0.12291700  1
  O  O26  1  0.18791000  0.91510300  0.64268100  1
  O  O27  1  0.04405800  0.57226200  0.81132200  1
  O  O28  1  0.85444800  0.07418000  0.32237100  1
  O  O29  1  0.86377200  0.40771700  0.14052400  1
loop_
_geom_bond_atom_site_label_1
_geom_bond_atom_site_label_2
_geom_bond_distance
_geom_bond_site_symmetry_2
H0 O0 1.024240 1_555
H0 O13 1.684461 1_555
H1 O1 1.003322 1_555
H2 O2 0.997326 1_555
H3 O3 1.056096 1_555
H3 O14 1.531139 1_555
H4 O4 0.978550 1_555
H5 O5 1.002123 1_555
H6 O6 0.999748 1_555
H7 O7 0.982048 1_555
H8 O16 1.040985 1_554
H9 O19 1.053945 1_555
H10 O20 1.005363 1_555
H11 O21 1.001264 1_555
H12 O22 0.989686 1_555
H13 Si19 1.480687 1_556
H14 Si16 1.471869 1_555
H15 O25 0.988694 1_555
H16 O26 1.023031 1_555
H17 O27 0.988376 1_555
H18 O28 0.981575 1_555
H19 O29 1.016047 1_555
O0 Si0 1.768549 1_555
O0 Si4 1.855949 1_565
O1 Si1 1.855820 1_555
O1 Si5 1.866645 1_555
O2 Si2 1.848221 1_565
O2 Si6 1.881238 1_555
O3 Si3 1.745142 1_555
O3 Si7 1.839116 1_555
O4 Si4 1.660487 1_455
O5 Si5 1.883945 1_555
O5 Si9 1.896227 1_555
O6 Si6 1.891200 1_655
O6 Si10 1.896612 1_555
O7 Si7 1.659209 1_555
O8 Si13 1.646660 1_555
O8 Si8 1.670670 1_565
O9 Si9 1.646671 1_555
O9 Si12 1.708564 1_555
O10 Si10 1.659014 1_545
O10 Si15 1.703645 1_555
O11 Si14 1.647929 1_555
O11 Si11 1.663254 1_455
O12 Si16 1.622613 1_555
O12 Si12 1.732514 1_555
O13 Si13 1.689402 1_655
O13 Si17 1.726939 1_555
O14 Si14 1.703230 1_555
O14 Si18 1.735112 1_555
O15 Si19 1.609533 1_555
O15 Si15 1.733420 1_455
O16 Si0 1.831316 1_555
O16 Si17 1.948975 1_555
O17 Si16 1.615934 1_555
O17 Si1 1.698236 1_555
O18 Si19 1.626494 1_555
O18 Si2 1.688015 1_555
O19 Si3 1.827602 1_555
O19 Si18 1.941292 1_555
O20 Si0 1.800767 1_555
O20 Si1 1.928648 1_555
O21 Si3 1.813790 1_555
O21 Si2 1.924058 1_555
O22 Si16 1.734779 1_545
O22 Si4 2.025486 1_555
O23 Si5 1.649771 1_555
O23 Si17 1.658450 1_555
O24 Si6 1.641740 1_545
O24 Si18 1.663866 1_555
O25 Si19 1.736633 1_555
O25 Si7 2.019345 1_555
O26 Si8 1.795081 1_565
O26 Si12 2.040714 1_455
O27 Si9 1.780639 1_455
O28 Si10 1.795464 1_545
O28 Si14 2.331489 1_655
O29 Si11 1.805072 1_555
O29 Si15 2.035676 1_555
