# generated using pymatgen
data_Cu4Bi5PbS11
_symmetry_space_group_name_H-M   'P 1'
_cell_length_a   9.07417290
_cell_length_b   9.07417290
_cell_length_c   27.19403970
_cell_angle_alpha   87.85562497
_cell_angle_beta   87.85562497
_cell_angle_gamma   25.16462998
_symmetry_Int_Tables_number   1
_chemical_formula_structural   Cu4Bi5PbS11
_chemical_formula_sum   'Cu8 Bi10 Pb2 S22'
_cell_volume   951.44296448
_cell_formula_units_Z   2
loop_
 _symmetry_equiv_pos_site_id
 _symmetry_equiv_pos_as_xyz
  1  'x, y, z'
loop_
 _atom_site_type_symbol
 _atom_site_label
 _atom_site_symmetry_multiplicity
 _atom_site_fract_x
 _atom_site_fract_y
 _atom_site_fract_z
 _atom_site_occupancy
  Cu  Cu0  1  0.37099800  0.37099800  0.42213100  1
  Cu  Cu1  1  0.30463600  0.30463600  0.78750400  1
  Cu  Cu2  1  0.69536400  0.69536400  0.21249600  1
  Cu  Cu3  1  0.79843200  0.79843200  0.02620100  1
  Cu  Cu4  1  0.49111700  0.49111700  0.76664400  1
  Cu  Cu5  1  0.50888300  0.50888300  0.23335600  1
  Cu  Cu6  1  0.20156800  0.20156800  0.97379900  1
  Cu  Cu7  1  0.62900200  0.62900200  0.57786900  1
  Bi  Bi0  1  0.31529500  0.31529500  0.55224900  1
  Bi  Bi1  1  0.94078800  0.94078800  0.65544700  1
  Bi  Bi2  1  0.17107000  0.17107000  0.70529800  1
  Bi  Bi3  1  0.37240600  0.37240600  0.15039600  1
  Bi  Bi4  1  0.82893000  0.82893000  0.29470200  1
  Bi  Bi5  1  0.62759400  0.62759400  0.84960400  1
  Bi  Bi6  1  0.12825300  0.12825300  0.10010000  1
  Bi  Bi7  1  0.05921200  0.05921200  0.34455300  1
  Bi  Bi8  1  0.68470500  0.68470500  0.44775100  1
  Bi  Bi9  1  0.87174700  0.87174700  0.89990000  1
  Pb  Pb0  1  0.50000000  0.50000000  0.00000000  1
  Pb  Pb1  1  0.00000000  0.00000000  0.50000000  1
  S  S0  1  0.84590700  0.84590700  0.46610000  1
  S  S1  1  0.98814300  0.98814300  0.07699000  1
  S  S2  1  0.93886900  0.93886900  0.22743500  1
  S  S3  1  0.26432000  0.26432000  0.22218700  1
  S  S4  1  0.59612000  0.59612000  0.65818300  1
  S  S5  1  0.53768600  0.53768600  0.42558900  1
  S  S6  1  0.40388000  0.40388000  0.34181700  1
  S  S7  1  0.73568000  0.73568000  0.77781300  1
  S  S8  1  0.79019400  0.79019400  0.11015600  1
  S  S9  1  0.01185700  0.01185700  0.92301000  1
  S  S10  1  0.66167700  0.66167700  0.01150800  1
  S  S11  1  0.59330200  0.59330200  0.16379800  1
  S  S12  1  0.20980600  0.20980600  0.88984400  1
  S  S13  1  0.40669800  0.40669800  0.83620200  1
  S  S14  1  0.61007800  0.61007800  0.28508900  1
  S  S15  1  0.06113100  0.06113100  0.77256500  1
  S  S16  1  0.33832300  0.33832300  0.98849200  1
  S  S17  1  0.79854100  0.79854100  0.62093200  1
  S  S18  1  0.46231400  0.46231400  0.57441100  1
  S  S19  1  0.20145900  0.20145900  0.37906800  1
  S  S20  1  0.38992200  0.38992200  0.71491100  1
  S  S21  1  0.15409300  0.15409300  0.53390000  1
loop_
_geom_bond_atom_site_label_1
_geom_bond_atom_site_label_2
_geom_bond_distance
_geom_bond_site_symmetry_2
Cu0 S6 2.238706 1_555
Cu0 S0 2.343915 1_545
Cu0 S0 2.343915 1_455
Cu0 S5 2.957559 1_555
Cu1 S13 2.281527 1_555
Cu1 S7 2.343799 1_545
Cu1 S7 2.343799 1_455
Cu1 S20 2.439343 1_555
Cu2 S11 2.281527 1_555
Cu2 S3 2.343799 1_565
Cu2 S3 2.343799 1_655
Cu2 S14 2.439343 1_555
Cu3 S8 2.282144 1_555
Cu3 S16 2.324379 1_564
Cu3 S16 2.324379 1_654
Cu3 S10 2.470074 1_555
Cu4 S20 2.320619 1_555
Cu4 S15 2.342355 1_565
Cu4 S15 2.342355 1_655
Cu4 S13 2.365792 1_555
Cu5 S14 2.320619 1_555
Cu5 S2 2.342355 1_545
Cu5 S2 2.342355 1_455
Cu5 S11 2.365792 1_555
Cu6 S12 2.282144 1_555
Cu6 S10 2.324379 1_546
Cu6 S10 2.324379 1_456
Cu6 S16 2.470074 1_555
Cu7 S4 2.238706 1_555
Cu7 S21 2.343915 1_565
Cu7 S21 2.343915 1_655
Cu7 S18 2.957559 1_555
Bi0 S18 2.695320 1_555
Bi0 S17 2.727931 1_455
Bi0 S17 2.727931 1_545
Bi0 S21 2.917346 1_555
Bi0 S0 3.097178 1_545
Bi0 S0 3.097178 1_455
Bi1 S20 2.687455 1_565
Bi1 S20 2.687455 1_655
Bi1 S17 2.722211 1_555
Bi1 S18 2.974006 1_565
Bi1 S18 2.974006 1_655
Bi2 S15 2.620118 1_555
Bi2 S4 2.727983 1_455
Bi2 S4 2.727983 1_545
Bi2 S7 3.046125 1_455
Bi2 S7 3.046125 1_545
Bi3 S3 2.681426 1_555
Bi3 S8 2.710645 1_455
Bi3 S8 2.710645 1_545
Bi3 S2 3.141892 1_545
Bi3 S2 3.141892 1_455
Bi4 S2 2.620118 1_555
Bi4 S6 2.727983 1_565
Bi4 S6 2.727983 1_655
Bi4 S3 3.046125 1_565
Bi4 S3 3.046125 1_655
Bi5 S7 2.681426 1_555
Bi5 S12 2.710645 1_565
Bi5 S12 2.710645 1_655
Bi5 S15 3.141892 1_565
Bi5 S15 3.141892 1_655
Bi6 S1 2.583286 1_445
Bi6 S11 2.684966 1_455
Bi6 S11 2.684966 1_545
Bi6 S10 3.154795 1_455
Bi6 S10 3.154795 1_545
Bi7 S14 2.687455 1_455
Bi7 S14 2.687455 1_545
Bi7 S19 2.722211 1_555
Bi7 S5 2.974006 1_455
Bi7 S5 2.974006 1_545
Bi8 S5 2.695320 1_555
Bi8 S19 2.727931 1_655
Bi8 S19 2.727931 1_565
Bi8 S0 2.917346 1_555
Bi8 S21 3.097178 1_655
Bi8 S21 3.097178 1_565
Bi9 S9 2.583286 1_665
Bi9 S13 2.684966 1_565
Bi9 S13 2.684966 1_655
Bi9 S16 3.154795 1_565
Bi9 S16 3.154795 1_655
Pb0 S1 2.881202 1_455
Pb0 S9 2.881202 1_654
Pb0 S9 2.881202 1_564
Pb0 S1 2.881202 1_545
Pb0 S10 2.892655 1_555
Pb0 S16 2.892655 1_554
Pb1 S18 2.888630 1_455
Pb1 S5 2.888630 1_545
Pb1 S18 2.888630 1_545
Pb1 S5 2.888630 1_455
Pb1 S0 2.914148 1_445
Pb1 S21 2.914148 1_555
