# generated using pymatgen
data_Al2S3
_symmetry_space_group_name_H-M   'P 1'
_cell_length_a   7.09063968
_cell_length_b   7.09063968
_cell_length_c   52.04790100
_cell_angle_alpha   90.00000000
_cell_angle_beta   90.00000000
_cell_angle_gamma   119.99999702
_symmetry_Int_Tables_number   1
_chemical_formula_structural   Al2S3
_chemical_formula_sum   'Al48 S72'
_cell_volume   2266.23372418
_cell_formula_units_Z   24
loop_
 _symmetry_equiv_pos_site_id
 _symmetry_equiv_pos_as_xyz
  1  'x, y, z'
loop_
 _atom_site_type_symbol
 _atom_site_label
 _atom_site_symmetry_multiplicity
 _atom_site_fract_x
 _atom_site_fract_y
 _atom_site_fract_z
 _atom_site_occupancy
  Al  Al0  1  0.49596000  0.99192000  0.98450300  1
  Al  Al1  1  0.33333300  0.66666700  0.93048600  1
  Al  Al2  1  0.00808000  0.50404000  0.98450300  1
  Al  Al3  1  0.49596000  0.50404000  0.98450300  1
  Al  Al4  1  0.16172300  0.32344500  0.87549400  1
  Al  Al5  1  0.00000000  0.00000000  0.82258400  1
  Al  Al6  1  0.67655500  0.83827700  0.87549400  1
  Al  Al7  1  0.81817300  0.63634500  0.76325800  1
  Al  Al8  1  0.16172300  0.83827700  0.87549400  1
  Al  Al9  1  0.66666700  0.33333300  0.71602200  1
  Al  Al10  1  0.36365500  0.18182700  0.76325800  1
  Al  Al11  1  0.81817300  0.18182700  0.76325800  1
  Al  Al12  1  0.49620400  0.99240800  0.65488500  1
  Al  Al13  1  0.33333300  0.66666700  0.59762500  1
  Al  Al14  1  0.00759200  0.50379600  0.65488500  1
  Al  Al15  1  0.33333300  0.66666700  0.80487400  1
  Al  Al16  1  0.49620400  0.50379600  0.65488500  1
  Al  Al17  1  0.16671100  0.33342200  0.54173000  1
  Al  Al18  1  0.00000000  0.00000000  0.61105700  1
  Al  Al19  1  0.00000000  0.00000000  0.48606500  1
  Al  Al20  1  0.00000000  0.00000000  0.69622800  1
  Al  Al21  1  0.66657800  0.83328900  0.54173000  1
  Al  Al22  1  0.83333200  0.66666400  0.43055500  1
  Al  Al23  1  0.16671100  0.83328900  0.54173000  1
  Al  Al24  1  0.66666700  0.33333300  0.58421000  1
  Al  Al25  1  0.66666700  0.33333300  0.50001300  1
  Al  Al26  1  0.66666700  0.33333300  0.37503200  1
  Al  Al27  1  0.33333600  0.16666800  0.43055500  1
  Al  Al28  1  0.50022400  0.00044900  0.31922700  1
  Al  Al29  1  0.83333200  0.16666800  0.43055500  1
  Al  Al30  1  0.33333300  0.66666700  0.26244800  1
  Al  Al31  1  0.33333300  0.66666700  0.47219900  1
  Al  Al32  1  0.33333300  0.66666700  0.38887400  1
  Al  Al33  1  0.99955100  0.49977600  0.31922700  1
  Al  Al34  1  0.50022400  0.49977600  0.31922700  1
  Al  Al35  1  0.15764800  0.31529600  0.20468500  1
  Al  Al36  1  0.00000000  0.00000000  0.36109300  1
  Al  Al37  1  0.00000000  0.00000000  0.27769100  1
  Al  Al38  1  0.00000000  0.00000000  0.15497800  1
  Al  Al39  1  0.68470400  0.84235200  0.20468500  1
  Al  Al40  1  0.81834400  0.63668800  0.09560800  1
  Al  Al41  1  0.15764800  0.84235200  0.20468500  1
  Al  Al42  1  0.66666700  0.33333300  0.24858200  1
  Al  Al43  1  0.36331200  0.18165600  0.09560800  1
  Al  Al44  1  0.66666700  0.33333300  0.04462800  1
  Al  Al45  1  0.81834400  0.18165600  0.09560800  1
  Al  Al46  1  0.33333300  0.66666700  0.13716800  1
  Al  Al47  1  0.00000000  0.00000000  0.02840300  1
  S  S0  1  0.17599500  0.35199000  0.95872300  1
  S  S1  1  0.00000000  0.00000000  0.90115700  1
  S  S2  1  0.64801000  0.82400500  0.95872300  1
  S  S3  1  0.17599500  0.82400500  0.95872300  1
  S  S4  1  0.84291200  0.68582400  0.84865000  1
  S  S5  1  0.48627500  0.51372500  0.90128400  1
  S  S6  1  0.66666700  0.33333300  0.79018500  1
  S  S7  1  0.66666700  0.33333300  0.96263000  1
  S  S8  1  0.31417600  0.15708800  0.84865000  1
  S  S9  1  0.02745000  0.51372500  0.90128400  1
  S  S10  1  0.50428000  0.00856000  0.73607600  1
  S  S11  1  0.15454500  0.84545500  0.79008300  1
  S  S12  1  0.84291200  0.15708800  0.84865000  1
  S  S13  1  0.48627500  0.97255000  0.90128400  1
  S  S14  1  0.33333300  0.66666700  0.67724100  1
  S  S15  1  0.99144000  0.49572000  0.73607600  1
  S  S16  1  0.69091100  0.84545500  0.79008300  1
  S  S17  1  0.33333300  0.66666700  0.84864100  1
  S  S18  1  0.50428000  0.49572000  0.73607600  1
  S  S19  1  0.82411100  0.17588900  0.67883300  1
  S  S20  1  0.17626600  0.35253100  0.62477000  1
  S  S21  1  0.15454500  0.30908900  0.79008300  1
  S  S22  1  0.00000000  0.00000000  0.56685800  1
  S  S23  1  0.35177700  0.17588900  0.67883300  1
  S  S24  1  0.00000000  0.00000000  0.73859100  1
  S  S25  1  0.64746900  0.82373400  0.62477000  1
  S  S26  1  0.17626600  0.82373400  0.62477000  1
  S  S27  1  0.84312000  0.68624000  0.51468200  1
  S  S28  1  0.82411100  0.64822300  0.67883300  1
  S  S29  1  0.49068300  0.50931700  0.56843500  1
  S  S30  1  0.66666700  0.33333300  0.45593800  1
  S  S31  1  0.01863300  0.50931700  0.56843500  1
  S  S32  1  0.66666700  0.33333300  0.62760700  1
  S  S33  1  0.31376000  0.15688000  0.51468200  1
  S  S34  1  0.84312000  0.15688000  0.51468200  1
  S  S35  1  0.50948000  0.01895900  0.40357100  1
  S  S36  1  0.49068300  0.98136700  0.56843500  1
  S  S37  1  0.15726300  0.84273700  0.45748700  1
  S  S38  1  0.33333300  0.66666700  0.51639800  1
  S  S39  1  0.33333300  0.66666700  0.34480700  1
  S  S40  1  0.68547500  0.84273700  0.45748700  1
  S  S41  1  0.98104100  0.49052000  0.40357100  1
  S  S42  1  0.82326000  0.17674000  0.34650700  1
  S  S43  1  0.50948000  0.49052000  0.40357100  1
  S  S44  1  0.17678600  0.35357200  0.29305100  1
  S  S45  1  0.15726300  0.31452500  0.45748700  1
  S  S46  1  0.00000000  0.00000000  0.23535000  1
  S  S47  1  0.35348000  0.17674000  0.34650700  1
  S  S48  1  0.00000000  0.00000000  0.40510600  1
  S  S49  1  0.64642800  0.82321400  0.29305100  1
  S  S50  1  0.83845900  0.67691800  0.18230200  1
  S  S51  1  0.17678600  0.82321400  0.29305100  1
  S  S52  1  0.48913100  0.51086900  0.23572500  1
  S  S53  1  0.82326000  0.64652000  0.34650700  1
  S  S54  1  0.32308200  0.16154100  0.18230200  1
  S  S55  1  0.02173900  0.51086900  0.23572500  1
  S  S56  1  0.66666700  0.33333300  0.12332600  1
  S  S57  1  0.66666700  0.33333300  0.29405300  1
  S  S58  1  0.83845900  0.16154100  0.18230200  1
  S  S59  1  0.50582300  0.01164500  0.06987900  1
  S  S60  1  0.15495100  0.84504900  0.12491300  1
  S  S61  1  0.48913100  0.97826100  0.23572500  1
  S  S62  1  0.33333300  0.66666700  0.18384000  1
  S  S63  1  0.33333300  0.66666700  0.01042500  1
  S  S64  1  0.98835500  0.49417700  0.06987900  1
  S  S65  1  0.69009800  0.84504900  0.12491300  1
  S  S66  1  0.50582300  0.49417700  0.06987900  1
  S  S67  1  0.82341100  0.17658900  0.01353900  1
  S  S68  1  0.15495100  0.30990200  0.12491300  1
  S  S69  1  0.00000000  0.00000000  0.07332700  1
  S  S70  1  0.35317700  0.17658900  0.01353900  1
  S  S71  1  0.82341100  0.64682300  0.01353900  1
loop_
_geom_bond_atom_site_label_1
_geom_bond_atom_site_label_2
_geom_bond_distance
_geom_bond_site_symmetry_2
Al0 S2 2.379920 1_555
Al0 S3 2.379920 1_555
Al0 S7 2.385664 1_565
Al0 S63 2.410270 1_556
Al0 S67 2.519755 1_566
Al0 S70 2.519759 1_566
Al1 S9 2.416241 1_555
Al1 S13 2.416241 1_555
Al1 S5 2.416246 1_555
Al1 S3 2.427719 1_555
Al1 S2 2.427724 1_555
Al1 S0 2.427724 1_555
Al2 S0 2.379920 1_555
Al2 S3 2.379920 1_555
Al2 S7 2.385664 1_455
Al2 S63 2.410270 1_556
Al2 S67 2.519755 1_456
Al2 S71 2.519759 1_456
Al3 S2 2.379920 1_555
Al3 S0 2.379920 1_555
Al3 S7 2.385669 1_555
Al3 S63 2.410275 1_556
Al3 S70 2.519754 1_556
Al3 S71 2.519754 1_556
Al4 S1 2.393529 1_555
Al4 S8 2.405649 1_555
Al4 S12 2.405654 1_455
Al4 S5 2.411050 1_555
Al4 S9 2.411054 1_555
Al4 S17 2.528921 1_555
Al5 S12 2.358516 1_455
Al5 S8 2.358516 1_555
Al5 S4 2.358516 1_445
Al5 S21 2.542440 1_555
Al5 S16 2.542440 1_445
Al5 S11 2.542444 1_545
Al6 S1 2.393529 1_665
Al6 S4 2.405649 1_555
Al6 S12 2.405654 1_565
Al6 S5 2.411050 1_555
Al6 S13 2.411054 1_555
Al6 S17 2.528921 1_555
Al7 S6 2.329460 1_555
Al7 S15 2.393793 1_555
Al7 S18 2.393798 1_555
Al7 S16 2.509987 1_555
Al7 S11 2.509987 1_655
Al7 S24 2.575847 1_665
Al8 S1 2.393534 1_565
Al8 S4 2.405654 1_455
Al8 S8 2.405654 1_565
Al8 S13 2.411049 1_555
Al8 S9 2.411049 1_555
Al8 S17 2.528911 1_555
Al9 S10 2.250952 1_555
Al9 S15 2.250952 1_555
Al9 S18 2.250958 1_555
Al9 S19 2.735962 1_555
Al9 S28 2.735971 1_555
Al9 S23 2.735971 1_555
Al10 S6 2.329460 1_555
Al10 S10 2.393793 1_555
Al10 S18 2.393798 1_555
Al10 S21 2.509987 1_555
Al10 S11 2.509987 1_545
Al10 S24 2.575847 1_555
Al11 S6 2.329460 1_555
Al11 S10 2.393798 1_555
Al11 S15 2.393798 1_555
Al11 S16 2.509987 1_545
Al11 S21 2.509987 1_655
Al11 S24 2.575842 1_655
Al12 S14 2.314088 1_555
Al12 S19 2.372184 1_565
Al12 S23 2.372189 1_565
Al12 S26 2.514043 1_555
Al12 S25 2.514048 1_555
Al12 S32 2.529527 1_565
Al13 S26 2.391054 1_555
Al13 S25 2.391064 1_555
Al13 S20 2.391064 1_555
Al13 S29 2.458180 1_555
Al13 S31 2.458180 1_555
Al13 S36 2.458180 1_555
Al14 S14 2.314088 1_555
Al14 S19 2.372184 1_455
Al14 S28 2.372189 1_455
Al14 S26 2.514043 1_555
Al14 S20 2.514048 1_555
Al14 S32 2.529527 1_455
Al15 S17 2.277980 1_555
Al15 S11 2.326802 1_555
Al15 S16 2.326813 1_555
Al15 S21 2.326813 1_555
Al16 S14 2.314093 1_555
Al16 S28 2.372184 1_555
Al16 S23 2.372184 1_555
Al16 S25 2.514043 1_555
Al16 S20 2.514043 1_555
Al16 S32 2.529532 1_555
Al17 S29 2.428867 1_555
Al17 S31 2.428872 1_555
Al17 S22 2.429504 1_555
Al17 S38 2.434323 1_555
Al17 S33 2.437467 1_555
Al17 S34 2.437467 1_455
Al18 S20 2.279403 1_555
Al18 S25 2.279403 1_445
Al18 S26 2.279409 1_545
Al18 S22 2.300465 1_555
Al19 S34 2.435291 1_455
Al19 S27 2.435291 1_445
Al19 S33 2.435291 1_555
Al19 S40 2.437770 1_445
Al19 S45 2.437770 1_555
Al19 S37 2.437775 1_545
Al20 S24 2.204905 1_555
Al20 S23 2.342208 1_555
Al20 S28 2.342208 1_445
Al20 S19 2.342214 1_455
Al21 S29 2.428867 1_555
Al21 S36 2.428872 1_555
Al21 S22 2.429504 1_665
Al21 S38 2.434323 1_555
Al21 S27 2.437467 1_555
Al21 S34 2.437467 1_565
Al22 S40 2.435494 1_555
Al22 S37 2.435499 1_655
Al22 S30 2.436205 1_555
Al22 S43 2.436694 1_555
Al22 S41 2.436699 1_555
Al22 S48 2.438095 1_665
Al23 S36 2.428867 1_555
Al23 S31 2.428867 1_555
Al23 S22 2.429504 1_565
Al23 S38 2.434317 1_555
Al23 S27 2.437467 1_455
Al23 S33 2.437467 1_565
Al24 S32 2.258723 1_555
Al24 S31 2.312009 1_655
Al24 S36 2.312009 1_545
Al24 S29 2.312021 1_555
Al25 S30 2.294011 1_555
Al25 S34 2.297642 1_555
Al25 S33 2.297647 1_555
Al25 S27 2.297647 1_555
Al26 S42 2.429574 1_555
Al26 S47 2.429579 1_555
Al26 S53 2.429579 1_555
Al26 S43 2.435797 1_555
Al26 S41 2.435797 1_555
Al26 S35 2.435797 1_555
Al27 S45 2.435494 1_555
Al27 S37 2.435499 1_545
Al27 S30 2.436205 1_555
Al27 S43 2.436694 1_555
Al27 S35 2.436699 1_555
Al27 S48 2.438095 1_555
Al28 S51 2.411007 1_545
Al28 S49 2.411012 1_545
Al28 S57 2.428012 1_555
Al28 S47 2.441695 1_555
Al28 S42 2.441700 1_555
Al28 S39 2.444103 1_545
Al29 S40 2.435500 1_545
Al29 S45 2.435500 1_655
Al29 S30 2.436200 1_555
Al29 S35 2.436694 1_555
Al29 S41 2.436694 1_555
Al29 S48 2.438095 1_655
Al30 S61 2.365507 1_555
Al30 S55 2.365507 1_555
Al30 S52 2.365517 1_555
Al30 S51 2.496699 1_555
Al30 S49 2.496703 1_555
Al30 S44 2.496703 1_555
Al31 S37 2.293952 1_555
Al31 S40 2.293963 1_555
Al31 S45 2.293963 1_555
Al31 S38 2.300465 1_555
Al32 S39 2.293595 1_555
Al32 S35 2.294571 1_565
Al32 S41 2.294571 1_455
Al32 S43 2.294583 1_555
Al33 S51 2.411007 1_655
Al33 S44 2.411012 1_655
Al33 S57 2.428012 1_555
Al33 S53 2.441695 1_555
Al33 S42 2.441700 1_555
Al33 S39 2.444103 1_655
Al34 S44 2.411007 1_555
Al34 S49 2.411007 1_555
Al34 S57 2.428022 1_555
Al34 S47 2.441700 1_555
Al34 S53 2.441700 1_555
Al34 S39 2.444103 1_555
Al35 S54 2.280494 1_555
Al35 S58 2.280494 1_455
Al35 S62 2.415071 1_555
Al35 S46 2.509177 1_555
Al35 S55 2.607327 1_555
Al35 S52 2.607332 1_555
Al36 S48 2.290784 1_555
Al36 S42 2.299537 1_455
Al36 S53 2.299537 1_445
Al36 S47 2.299537 1_555
Al37 S46 2.203760 1_555
Al37 S51 2.313679 1_545
Al37 S44 2.313679 1_555
Al37 S49 2.313679 1_445
Al38 S58 2.441015 1_455
Al38 S50 2.441015 1_445
Al38 S54 2.441015 1_555
Al38 S60 2.463757 1_545
Al38 S65 2.463757 1_445
Al38 S68 2.463757 1_555
Al39 S50 2.280494 1_555
Al39 S58 2.280494 1_565
Al39 S62 2.415071 1_555
Al39 S46 2.509177 1_665
Al39 S61 2.607327 1_555
Al39 S52 2.607332 1_555
Al40 S66 2.342159 1_555
Al40 S64 2.342164 1_555
Al40 S56 2.356124 1_555
Al40 S69 2.514385 1_665
Al40 S65 2.584486 1_555
Al40 S60 2.584486 1_655
Al41 S50 2.280494 1_455
Al41 S54 2.280494 1_565
Al41 S62 2.415065 1_555
Al41 S46 2.509177 1_565
Al41 S55 2.607332 1_555
Al41 S61 2.607332 1_555
Al42 S52 2.280760 1_555
Al42 S55 2.280760 1_655
Al42 S61 2.280760 1_545
Al42 S57 2.366670 1_555
Al43 S66 2.342159 1_555
Al43 S59 2.342164 1_555
Al43 S56 2.356124 1_555
Al43 S69 2.514385 1_555
Al43 S68 2.584486 1_555
Al43 S60 2.584486 1_545
Al44 S66 2.372639 1_555
Al44 S64 2.372639 1_555
Al44 S59 2.372639 1_555
Al44 S67 2.514763 1_555
Al44 S71 2.514773 1_555
Al44 S70 2.514773 1_555
Al45 S59 2.342159 1_555
Al45 S64 2.342159 1_555
Al45 S56 2.356119 1_555
Al45 S69 2.514385 1_655
Al45 S68 2.584486 1_655
Al45 S65 2.584486 1_545
Al46 S60 2.281738 1_555
Al46 S65 2.281744 1_555
Al46 S68 2.281744 1_555
Al46 S62 2.429180 1_555
Al47 S70 2.302601 1_555
Al47 S71 2.302601 1_445
Al47 S67 2.302607 1_455
Al47 S69 2.338200 1_555
