# generated using pymatgen
data_Tb5Te9
_symmetry_space_group_name_H-M   'P 1'
_cell_length_a   16.09828900
_cell_length_b   11.71691500
_cell_length_c   11.95294341
_cell_angle_alpha   89.01887762
_cell_angle_beta   90.00000000
_cell_angle_gamma   90.00000000
_symmetry_Int_Tables_number   1
_chemical_formula_structural   Tb5Te9
_chemical_formula_sum   'Tb20 Te36'
_cell_volume   2254.26094125
_cell_formula_units_Z   4
loop_
 _symmetry_equiv_pos_site_id
 _symmetry_equiv_pos_as_xyz
  1  'x, y, z'
loop_
 _atom_site_type_symbol
 _atom_site_label
 _atom_site_symmetry_multiplicity
 _atom_site_fract_x
 _atom_site_fract_y
 _atom_site_fract_z
 _atom_site_occupancy
  Tb  Tb0  1  0.75633500  0.00000000  0.00000000  1
  Tb  Tb1  1  0.11119500  0.91337500  0.66127300  1
  Tb  Tb2  1  0.64158000  0.87771300  0.70415400  1
  Tb  Tb3  1  0.34682700  0.75155100  0.48365500  1
  Tb  Tb4  1  0.90327400  0.84286900  0.41833100  1
  Tb  Tb5  1  0.24577200  0.74080800  0.06015100  1
  Tb  Tb6  1  0.60478600  0.73372800  0.01193700  1
  Tb  Tb7  1  0.74151600  0.52977300  0.75505500  1
  Tb  Tb8  1  0.36434000  0.55594300  0.81207800  1
  Tb  Tb9  1  0.21008300  0.50000000  0.50000000  1
  Tb  Tb10  1  0.86057100  0.50000000  0.50000000  1
  Tb  Tb11  1  0.36434000  0.44405700  0.18792200  1
  Tb  Tb12  1  0.74151600  0.47022700  0.24494500  1
  Tb  Tb13  1  0.60478600  0.26627200  0.98806300  1
  Tb  Tb14  1  0.24577200  0.25919200  0.93984900  1
  Tb  Tb15  1  0.90327400  0.15713100  0.58166900  1
  Tb  Tb16  1  0.34682700  0.24844900  0.51634500  1
  Tb  Tb17  1  0.64158000  0.12228700  0.29584600  1
  Tb  Tb18  1  0.11119500  0.08662500  0.33872700  1
  Tb  Tb19  1  0.13549800  0.00000000  0.00000000  1
  Te  Te0  1  0.31808500  0.00000000  0.00000000  1
  Te  Te1  1  0.23960600  0.94069100  0.22032100  1
  Te  Te2  1  0.45393800  0.80171300  0.69793500  1
  Te  Te3  1  0.91980300  0.91585900  0.66399300  1
  Te  Te4  1  0.75238100  0.89670700  0.24706100  1
  Te  Te5  1  0.08820000  0.82934900  0.42172700  1
  Te  Te6  1  0.63850500  0.70878500  0.25940000  1
  Te  Te7  1  0.77018600  0.77826900  0.88377400  1
  Te  Te8  1  0.22577600  0.69247600  0.66805000  1
  Te  Te9  1  0.42323400  0.66605500  0.04334000  1
  Te  Te10  1  0.90249600  0.60377600  0.28243600  1
  Te  Te11  1  0.25293100  0.63280200  0.29292900  1
  Te  Te12  1  0.76010500  0.72310700  0.56633500  1
  Te  Te13  1  0.08489100  0.78513200  0.90534700  1
  Te  Te14  1  0.55542300  0.61634800  0.78281500  1
  Te  Te15  1  0.67914900  0.50000000  0.50000000  1
  Te  Te16  1  0.40745100  0.50000000  0.50000000  1
  Te  Te17  1  0.69374100  0.50000000  0.00000000  1
  Te  Te18  1  0.21817500  0.50000000  0.00000000  1
  Te  Te19  1  0.55542300  0.38365200  0.21718500  1
  Te  Te20  1  0.08489100  0.21486800  0.09465300  1
  Te  Te21  1  0.76010500  0.27689300  0.43366500  1
  Te  Te22  1  0.25293100  0.36719800  0.70707100  1
  Te  Te23  1  0.90249600  0.39622400  0.71756400  1
  Te  Te24  1  0.42323400  0.33394500  0.95666000  1
  Te  Te25  1  0.22577600  0.30752400  0.33195000  1
  Te  Te26  1  0.77018600  0.22173100  0.11622600  1
  Te  Te27  1  0.63850500  0.29121500  0.74060000  1
  Te  Te28  1  0.08820000  0.17065100  0.57827300  1
  Te  Te29  1  0.75238100  0.10329300  0.75293900  1
  Te  Te30  1  0.91980300  0.08414100  0.33600700  1
  Te  Te31  1  0.45393800  0.19828700  0.30206500  1
  Te  Te32  1  0.23960600  0.05930900  0.77967900  1
  Te  Te33  1  0.57283900  0.00000000  0.00000000  1
  Te  Te34  1  0.32502800  0.00000000  0.50000000  1
  Te  Te35  1  0.59971500  0.00000000  0.50000000  1
loop_
_geom_bond_atom_site_label_1
_geom_bond_atom_site_label_2
_geom_bond_distance
_geom_bond_site_symmetry_2
Tb0 Te33 2.953972 1_555
Tb0 Te26 2.975389 1_555
Tb0 Te7 2.975389 1_544
Tb0 Te4 3.172894 1_545
Tb0 Te29 3.172894 1_554
Tb1 Te32 3.046802 1_565
Tb1 Te5 3.066143 1_555
Tb1 Te3 3.081398 1_455
Tb1 Te8 3.178182 1_555
Tb1 Te28 3.178988 1_565
Tb1 Te13 3.286072 1_555
Tb2 Te35 2.888294 1_565
Tb2 Te12 3.120599 1_555
Tb2 Te2 3.150473 1_555
Tb2 Te7 3.188701 1_555
Tb2 Te29 3.249679 1_565
Tb2 Te14 3.476691 1_555
Tb3 Te34 2.941945 1_565
Tb3 Te8 3.013676 1_555
Tb3 Te11 3.086515 1_555
Tb3 Te16 3.107747 1_555
Tb3 Te2 3.151247 1_555
Tb4 Te5 2.981443 1_655
Tb4 Te30 2.989238 1_565
Tb4 Te3 3.083918 1_555
Tb4 Te12 3.213366 1_555
Tb4 Te4 3.231914 1_555
Tb4 Te10 3.262287 1_555
Tb5 Te18 2.957159 1_555
Tb5 Te9 2.995841 1_555
Tb5 Te11 3.039051 1_555
Tb5 Te1 3.051843 1_555
Tb5 Te13 3.219981 1_554
Tb5 Te0 3.319679 1_565
Tb6 Te6 3.016571 1_555
Tb6 Te9 3.049829 1_555
Tb6 Te17 3.095836 1_555
Tb6 Te7 3.111514 1_554
Tb6 Te33 3.162800 1_565
Tb6 Te14 3.186282 1_554
Tb7 Te17 3.041434 1_556
Tb7 Te23 3.064190 1_555
Tb7 Te14 3.182029 1_555
Tb7 Te12 3.183472 1_555
Tb7 Te15 3.234262 1_555
Tb7 Te27 3.257191 1_555
Tb7 Te7 3.348295 1_555
Tb8 Te22 3.126953 1_555
Tb8 Te14 3.174467 1_555
Tb8 Te9 3.213519 1_556
Tb8 Te8 3.225586 1_555
Tb8 Te24 3.239974 1_555
Tb8 Te18 3.310797 1_556
Tb8 Te2 3.478478 1_555
Tb8 Te16 3.861323 1_555
Tb9 Te11 2.981827 1_555
Tb9 Te22 2.981827 1_555
Tb9 Te8 3.056115 1_555
Tb9 Te25 3.056115 1_555
Tb9 Te16 3.177287 1_555
Tb10 Te15 2.920584 1_555
Tb10 Te23 2.930612 1_555
Tb10 Te10 2.930612 1_555
Tb10 Te12 3.185763 1_555
Tb10 Te21 3.185763 1_555
Tb11 Te11 3.126953 1_555
Tb11 Te19 3.174467 1_555
Tb11 Te24 3.213519 1_554
Tb11 Te25 3.225586 1_555
Tb11 Te9 3.239974 1_555
Tb11 Te18 3.310797 1_555
Tb11 Te31 3.478478 1_555
Tb11 Te16 3.861323 1_555
Tb12 Te17 3.041434 1_555
Tb12 Te10 3.064190 1_555
Tb12 Te19 3.182029 1_555
Tb12 Te21 3.183472 1_555
Tb12 Te15 3.234262 1_555
Tb12 Te6 3.257191 1_555
Tb12 Te26 3.348295 1_555
Tb13 Te27 3.016571 1_555
Tb13 Te24 3.049829 1_555
Tb13 Te17 3.095836 1_556
Tb13 Te26 3.111514 1_556
Tb13 Te33 3.162800 1_556
Tb13 Te19 3.186282 1_556
Tb14 Te18 2.957159 1_556
Tb14 Te24 2.995841 1_555
Tb14 Te22 3.039051 1_555
Tb14 Te32 3.051843 1_555
Tb14 Te20 3.219981 1_556
Tb14 Te0 3.319679 1_556
Tb15 Te28 2.981443 1_655
Tb15 Te3 2.989238 1_545
Tb15 Te30 3.083918 1_555
Tb15 Te21 3.213366 1_555
Tb15 Te29 3.231914 1_555
Tb15 Te23 3.262287 1_555
Tb16 Te34 2.941945 1_555
Tb16 Te25 3.013676 1_555
Tb16 Te22 3.086515 1_555
Tb16 Te16 3.107747 1_555
Tb16 Te31 3.151247 1_555
Tb17 Te35 2.888294 1_555
Tb17 Te21 3.120599 1_555
Tb17 Te31 3.150473 1_555
Tb17 Te26 3.188701 1_555
Tb17 Te4 3.249679 1_545
Tb17 Te19 3.476691 1_555
Tb18 Te1 3.046802 1_545
Tb18 Te28 3.066143 1_555
Tb18 Te30 3.081398 1_455
Tb18 Te25 3.178182 1_555
Tb18 Te5 3.178988 1_545
Tb18 Te20 3.286072 1_555
Tb19 Te20 2.894744 1_555
Tb19 Te13 2.894744 1_544
Tb19 Te0 2.939338 1_555
Tb19 Te32 3.188154 1_554
Tb19 Te1 3.188154 1_545
Te0 Te32 2.991923 1_554
Te0 Te1 2.991923 1_545
Te4 Te6 2.866967 1_555
Te14 Te2 2.887931 1_555
Te19 Te31 2.887931 1_555
Te27 Te29 2.866967 1_555
