# generated using pymatgen
data_Cu3Bi7(PbS5)3
_symmetry_space_group_name_H-M   'P 1'
_cell_length_a   4.04292321
_cell_length_b   11.83624573
_cell_length_c   55.85664066
_cell_angle_alpha   90.00000000
_cell_angle_beta   90.00000000
_cell_angle_gamma   90.00000000
_symmetry_Int_Tables_number   1
_chemical_formula_structural   Cu3Bi7(PbS5)3
_chemical_formula_sum   'Cu12 Bi28 Pb12 S60'
_cell_volume   2672.90964537
_cell_formula_units_Z   4
loop_
 _symmetry_equiv_pos_site_id
 _symmetry_equiv_pos_as_xyz
  1  'x, y, z'
loop_
 _atom_site_type_symbol
 _atom_site_label
 _atom_site_symmetry_multiplicity
 _atom_site_fract_x
 _atom_site_fract_y
 _atom_site_fract_z
 _atom_site_occupancy
  Cu  Cu0  1  0.25000000  0.22843382  0.94146393  1
  Cu  Cu1  1  0.75000000  0.27156618  0.44146393  1
  Cu  Cu2  1  0.75000000  0.26937033  0.24231273  1
  Cu  Cu3  1  0.25000000  0.73062967  0.75768727  1
  Cu  Cu4  1  0.25000000  0.73298287  0.95814886  1
  Cu  Cu5  1  0.75000000  0.76701713  0.45814886  1
  Cu  Cu6  1  0.25000000  0.23062967  0.74231273  1
  Cu  Cu7  1  0.25000000  0.23298287  0.54185114  1
  Cu  Cu8  1  0.75000000  0.26701713  0.04185114  1
  Cu  Cu9  1  0.75000000  0.77156618  0.05853607  1
  Cu  Cu10  1  0.75000000  0.76937033  0.25768727  1
  Cu  Cu11  1  0.25000000  0.72843382  0.55853607  1
  Bi  Bi0  1  0.75000000  0.15210938  0.89220949  1
  Bi  Bi1  1  0.75000000  0.98428848  0.36548224  1
  Bi  Bi2  1  0.75000000  0.47872211  0.93579518  1
  Bi  Bi3  1  0.25000000  0.01571152  0.63451776  1
  Bi  Bi4  1  0.25000000  0.51862093  0.66598430  1
  Bi  Bi5  1  0.75000000  0.65210938  0.60779051  1
  Bi  Bi6  1  0.25000000  0.34815192  0.19276323  1
  Bi  Bi7  1  0.75000000  0.97872211  0.56420482  1
  Bi  Bi8  1  0.25000000  0.01862093  0.83401570  1
  Bi  Bi9  1  0.25000000  0.51733811  0.26320773  1
  Bi  Bi10  1  0.75000000  0.98137907  0.16598430  1
  Bi  Bi11  1  0.25000000  0.01329668  0.03755369  1
  Bi  Bi12  1  0.75000000  0.48137907  0.33401570  1
  Bi  Bi13  1  0.25000000  0.01733811  0.23679227  1
  Bi  Bi14  1  0.75000000  0.48428848  0.13451776  1
  Bi  Bi15  1  0.75000000  0.65184808  0.80723677  1
  Bi  Bi16  1  0.75000000  0.98266189  0.76320773  1
  Bi  Bi17  1  0.25000000  0.84815192  0.30723677  1
  Bi  Bi18  1  0.75000000  0.48670332  0.53755369  1
  Bi  Bi19  1  0.25000000  0.51329668  0.46244631  1
  Bi  Bi20  1  0.25000000  0.84789062  0.10779051  1
  Bi  Bi21  1  0.25000000  0.51571152  0.86548224  1
  Bi  Bi22  1  0.75000000  0.15184808  0.69276323  1
  Bi  Bi23  1  0.25000000  0.02127789  0.43579518  1
  Bi  Bi24  1  0.75000000  0.98670332  0.96244631  1
  Bi  Bi25  1  0.25000000  0.52127789  0.06420482  1
  Bi  Bi26  1  0.25000000  0.34789062  0.39220949  1
  Bi  Bi27  1  0.75000000  0.48266189  0.73679227  1
  Pb  Pb0  1  0.75000000  0.17410796  0.29918282  1
  Pb  Pb1  1  0.25000000  0.32635925  0.59974702  1
  Pb  Pb2  1  0.75000000  0.67410796  0.20081718  1
  Pb  Pb3  1  0.75000000  0.66861663  0.00190841  1
  Pb  Pb4  1  0.75000000  0.16861663  0.49809159  1
  Pb  Pb5  1  0.25000000  0.82635925  0.90025298  1
  Pb  Pb6  1  0.25000000  0.32589204  0.79918282  1
  Pb  Pb7  1  0.25000000  0.82589204  0.70081718  1
  Pb  Pb8  1  0.25000000  0.83138337  0.50190841  1
  Pb  Pb9  1  0.25000000  0.33138337  0.99809159  1
  Pb  Pb10  1  0.75000000  0.17364075  0.09974702  1
  Pb  Pb11  1  0.75000000  0.67364075  0.40025298  1
  S  S0  1  0.75000000  0.45058899  0.22631315  1
  S  S1  1  0.25000000  0.21601673  0.26030250  1
  S  S2  1  0.25000000  0.70863345  0.83864325  1
  S  S3  1  0.75000000  0.61987935  0.69047443  1
  S  S4  1  0.75000000  0.45369359  0.02898936  1
  S  S5  1  0.25000000  0.04941101  0.72631315  1
  S  S6  1  0.25000000  0.04745866  0.92529009  1
  S  S7  1  0.25000000  0.88012065  0.19047443  1
  S  S8  1  0.75000000  0.12746814  0.41097491  1
  S  S9  1  0.75000000  0.95254134  0.07470991  1
  S  S10  1  0.25000000  0.71272662  0.43971538  1
  S  S11  1  0.75000000  0.12255987  0.21189774  1
  S  S12  1  0.75000000  0.11805317  0.61003554  1
  S  S13  1  0.75000000  0.28727338  0.56028462  1
  S  S14  1  0.75000000  0.78727338  0.93971538  1
  S  S15  1  0.25000000  0.21046089  0.86086010  1
  S  S16  1  0.75000000  0.29136655  0.16135675  1
  S  S17  1  0.25000000  0.54623366  0.17167718  1
  S  S18  1  0.25000000  0.20863345  0.66135675  1
  S  S19  1  0.25000000  0.72163737  0.04013617  1
  S  S20  1  0.75000000  0.45254134  0.42529009  1
  S  S21  1  0.25000000  0.04623366  0.32832282  1
  S  S22  1  0.25000000  0.38012065  0.30952557  1
  S  S23  1  0.75000000  0.45376634  0.82832282  1
  S  S24  1  0.75000000  0.62255987  0.28810226  1
  S  S25  1  0.75000000  0.28953911  0.36086010  1
  S  S26  1  0.75000000  0.95058899  0.27368685  1
  S  S27  1  0.25000000  0.87253186  0.58902509  1
  S  S28  1  0.75000000  0.95376634  0.67167718  1
  S  S29  1  0.25000000  0.87744013  0.78810226  1
  S  S30  1  0.25000000  0.88311745  0.98770648  1
  S  S31  1  0.75000000  0.11688255  0.01229352  1
  S  S32  1  0.25000000  0.04687806  0.12881663  1
  S  S33  1  0.25000000  0.54941101  0.77368685  1
  S  S34  1  0.75000000  0.79136655  0.33864325  1
  S  S35  1  0.75000000  0.27836263  0.95986383  1
  S  S36  1  0.25000000  0.22163737  0.45986383  1
  S  S37  1  0.75000000  0.61805317  0.88996446  1
  S  S38  1  0.25000000  0.21272662  0.06028462  1
  S  S39  1  0.25000000  0.38311745  0.51229352  1
  S  S40  1  0.25000000  0.38194683  0.11003554  1
  S  S41  1  0.25000000  0.37744013  0.71189774  1
  S  S42  1  0.75000000  0.95369359  0.47101064  1
  S  S43  1  0.75000000  0.77836263  0.54013617  1
  S  S44  1  0.25000000  0.37253186  0.91097491  1
  S  S45  1  0.75000000  0.78953911  0.13913990  1
  S  S46  1  0.25000000  0.54630641  0.97101064  1
  S  S47  1  0.25000000  0.54687806  0.37118337  1
  S  S48  1  0.25000000  0.88194683  0.38996446  1
  S  S49  1  0.75000000  0.11987935  0.80952557  1
  S  S50  1  0.75000000  0.78398327  0.73969750  1
  S  S51  1  0.25000000  0.71601673  0.23969750  1
  S  S52  1  0.25000000  0.71046089  0.63913990  1
  S  S53  1  0.25000000  0.54745866  0.57470991  1
  S  S54  1  0.75000000  0.95312194  0.87118337  1
  S  S55  1  0.75000000  0.45312194  0.62881663  1
  S  S56  1  0.75000000  0.28398327  0.76030250  1
  S  S57  1  0.75000000  0.61688255  0.48770648  1
  S  S58  1  0.75000000  0.62746814  0.08902509  1
  S  S59  1  0.25000000  0.04630641  0.52898936  1
loop_
_geom_bond_atom_site_label_1
_geom_bond_atom_site_label_2
_geom_bond_distance
_geom_bond_site_symmetry_2
Cu0 S6 2.324782 1_555
Cu0 S35 2.343467 1_555
Cu0 S35 2.343467 1_455
Cu0 S44 2.410241 1_555
Cu1 S20 2.324782 1_555
Cu1 S36 2.343467 1_555
Cu1 S36 2.343467 1_655
Cu1 S8 2.410241 1_555
Cu2 S0 2.323677 1_555
Cu2 S1 2.344105 1_655
Cu2 S1 2.344105 1_555
Cu2 S11 2.430173 1_555
Cu2 Pb0 3.370753 1_555
Cu3 S33 2.323677 1_555
Cu3 S50 2.344105 1_455
Cu3 S50 2.344105 1_555
Cu3 S29 2.430173 1_555
Cu3 Pb7 3.370753 1_555
Cu4 S46 2.323408 1_555
Cu4 S14 2.357834 1_455
Cu4 S14 2.357834 1_555
Cu4 S30 2.425613 1_555
Cu5 S42 2.323408 1_555
Cu5 S10 2.357834 1_655
Cu5 S10 2.357834 1_555
Cu5 S57 2.425613 1_555
Cu6 S5 2.323677 1_555
Cu6 S56 2.344105 1_555
Cu6 S56 2.344105 1_455
Cu6 S41 2.430173 1_555
Cu6 Pb6 3.370753 1_555
Cu7 S59 2.323408 1_555
Cu7 S13 2.357834 1_455
Cu7 S13 2.357834 1_555
Cu7 S39 2.425613 1_555
Cu8 S4 2.323408 1_555
Cu8 S38 2.357834 1_655
Cu8 S38 2.357834 1_555
Cu8 S31 2.425613 1_555
Cu9 S9 2.324782 1_555
Cu9 S19 2.343467 1_655
Cu9 S19 2.343467 1_555
Cu9 S58 2.410241 1_555
Cu10 S26 2.323677 1_555
Cu10 S51 2.344105 1_555
Cu10 S51 2.344105 1_655
Cu10 S24 2.430173 1_555
Cu10 Pb2 3.370753 1_555
Cu11 S53 2.324782 1_555
Cu11 S43 2.343467 1_555
Cu11 S43 2.343467 1_455
Cu11 S27 2.410241 1_555
Bi0 S54 2.631843 1_545
Bi0 S15 2.762168 1_655
Bi0 S15 2.762168 1_555
Bi0 S6 3.005807 1_555
Bi0 S6 3.005807 1_655
Bi1 S48 2.724646 1_655
Bi1 S48 2.724646 1_555
Bi1 S34 2.731602 1_555
Bi1 S21 2.988646 1_565
Bi1 S21 2.988646 1_665
Bi1 S8 3.054352 1_565
Bi2 S35 2.726064 1_555
Bi2 S44 2.754656 1_655
Bi2 S44 2.754656 1_555
Bi2 S46 2.931787 1_555
Bi2 S46 2.931787 1_655
Bi2 S37 3.045170 1_555
Bi3 S12 2.724646 1_455
Bi3 S12 2.724646 1_555
Bi3 S18 2.731602 1_555
Bi3 S28 2.988646 1_445
Bi3 S28 2.988646 1_545
Bi3 S27 3.054352 1_545
Bi4 S3 2.719192 1_555
Bi4 S3 2.719192 1_455
Bi4 S52 2.721072 1_555
Bi4 S55 2.999561 1_455
Bi4 S55 2.999561 1_555
Bi4 S41 3.060953 1_555
Bi5 S55 2.631843 1_555
Bi5 S52 2.762168 1_555
Bi5 S52 2.762168 1_655
Bi5 S53 3.005807 1_555
Bi5 S53 3.005807 1_655
Bi6 S17 2.623755 1_555
Bi6 S16 2.759618 1_455
Bi6 S16 2.759618 1_555
Bi6 S0 3.011348 1_555
Bi6 S0 3.011348 1_455
Bi7 S43 2.726064 1_555
Bi7 S27 2.754656 1_655
Bi7 S27 2.754656 1_555
Bi7 S59 2.931787 1_665
Bi7 S59 2.931787 1_565
Bi7 S12 3.045170 1_565
Bi8 S49 2.719192 1_555
Bi8 S49 2.719192 1_455
Bi8 S15 2.721072 1_555
Bi8 S54 2.999561 1_445
Bi8 S54 2.999561 1_545
Bi8 S29 3.060953 1_545
Bi9 S51 2.693430 1_555
Bi9 S24 2.751538 1_455
Bi9 S24 2.751538 1_555
Bi9 S0 2.992896 1_455
Bi9 S0 2.992896 1_555
Bi9 S22 3.054705 1_555
Bi10 S7 2.719192 1_555
Bi10 S7 2.719192 1_655
Bi10 S45 2.721072 1_555
Bi10 S32 2.999561 1_565
Bi10 S32 2.999561 1_665
Bi10 S11 3.060953 1_565
Bi11 S38 2.680306 1_555
Bi11 S31 2.753239 1_455
Bi11 S31 2.753239 1_555
Bi11 S9 2.985098 1_445
Bi11 S9 2.985098 1_545
Bi11 S30 3.182213 1_544
Bi12 S22 2.719192 1_555
Bi12 S22 2.719192 1_655
Bi12 S25 2.721072 1_555
Bi12 S47 2.999561 1_555
Bi12 S47 2.999561 1_655
Bi12 S24 3.060953 1_555
Bi13 S1 2.693430 1_555
Bi13 S11 2.751538 1_455
Bi13 S11 2.751538 1_555
Bi13 S26 2.992896 1_545
Bi13 S26 2.992896 1_445
Bi13 S7 3.054705 1_545
Bi14 S40 2.724646 1_655
Bi14 S40 2.724646 1_555
Bi14 S16 2.731602 1_555
Bi14 S17 2.988646 1_655
Bi14 S17 2.988646 1_555
Bi14 S58 3.054352 1_555
Bi15 S23 2.623755 1_555
Bi15 S2 2.759618 1_555
Bi15 S2 2.759618 1_655
Bi15 S33 3.011348 1_555
Bi15 S33 3.011348 1_655
Bi16 S50 2.693430 1_555
Bi16 S29 2.751538 1_655
Bi16 S29 2.751538 1_555
Bi16 S5 2.992896 1_565
Bi16 S5 2.992896 1_665
Bi16 S49 3.054705 1_565
Bi17 S21 2.623755 1_565
Bi17 S34 2.759618 1_455
Bi17 S34 2.759618 1_555
Bi17 S26 3.011348 1_555
Bi17 S26 3.011348 1_455
Bi18 S13 2.680306 1_555
Bi18 S39 2.753239 1_555
Bi18 S39 2.753239 1_655
Bi18 S53 2.985098 1_555
Bi18 S53 2.985098 1_655
Bi18 S57 3.182213 1_555
Bi19 S10 2.680306 1_555
Bi19 S57 2.753239 1_455
Bi19 S57 2.753239 1_555
Bi19 S20 2.985098 1_455
Bi19 S20 2.985098 1_555
Bi19 S39 3.182213 1_555
Bi20 S32 2.631843 1_565
Bi20 S45 2.762168 1_455
Bi20 S45 2.762168 1_555
Bi20 S9 3.005807 1_455
Bi20 S9 3.005807 1_555
Bi21 S37 2.724646 1_455
Bi21 S37 2.724646 1_555
Bi21 S2 2.731602 1_555
Bi21 S23 2.988646 1_555
Bi21 S23 2.988646 1_455
Bi21 S44 3.054352 1_555
Bi22 S28 2.623755 1_545
Bi22 S18 2.759618 1_655
Bi22 S18 2.759618 1_555
Bi22 S5 3.011348 1_555
Bi22 S5 3.011348 1_655
Bi23 S36 2.726064 1_555
Bi23 S8 2.754656 1_555
Bi23 S8 2.754656 1_455
Bi23 S42 2.931787 1_545
Bi23 S42 2.931787 1_445
Bi23 S48 3.045170 1_545
Bi24 S14 2.680306 1_555
Bi24 S30 2.753239 1_555
Bi24 S30 2.753239 1_655
Bi24 S6 2.985098 1_665
Bi24 S6 2.985098 1_565
Bi24 S31 3.182213 1_566
Bi25 S19 2.726064 1_555
Bi25 S58 2.754656 1_455
Bi25 S58 2.754656 1_555
Bi25 S4 2.931787 1_555
Bi25 S4 2.931787 1_455
Bi25 S40 3.045170 1_555
Bi26 S47 2.631843 1_555
Bi26 S25 2.762168 1_555
Bi26 S25 2.762168 1_455
Bi26 S20 3.005807 1_455
Bi26 S20 3.005807 1_555
Bi27 S56 2.693430 1_555
Bi27 S41 2.751538 1_555
Bi27 S41 2.751538 1_655
Bi27 S33 2.992896 1_555
Bi27 S33 2.992896 1_655
Bi27 S3 3.054705 1_555
Pb0 S21 3.004402 1_555
Pb0 S21 3.004402 1_655
Pb0 S26 3.004571 1_545
Pb0 S1 3.008114 1_555
Pb0 S1 3.008114 1_655
Pb0 S22 3.219617 1_655
Pb0 S22 3.219617 1_555
Pb1 S53 2.967220 1_555
Pb1 S55 2.995662 1_455
Pb1 S55 2.995662 1_555
Pb1 S13 3.026383 1_555
Pb1 S13 3.026383 1_455
Pb2 S17 3.004402 1_555
Pb2 S17 3.004402 1_655
Pb2 S0 3.004571 1_555
Pb2 S51 3.008114 1_655
Pb2 S51 3.008114 1_555
Pb2 S7 3.219617 1_555
Pb2 S7 3.219617 1_655
Pb3 S4 2.959636 1_555
Pb3 S19 3.006583 1_555
Pb3 S19 3.006583 1_655
Pb3 S46 3.026659 1_654
Pb3 S46 3.026659 1_554
Pb4 S42 2.959636 1_545
Pb4 S36 3.006583 1_555
Pb4 S36 3.006583 1_655
Pb4 S59 3.026659 1_655
Pb4 S59 3.026659 1_555
Pb5 S6 2.967220 1_565
Pb5 S54 2.995662 1_455
Pb5 S54 2.995662 1_555
Pb5 S14 3.026383 1_555
Pb5 S14 3.026383 1_455
Pb6 S23 3.004402 1_555
Pb6 S23 3.004402 1_455
Pb6 S33 3.004571 1_555
Pb6 S56 3.008114 1_455
Pb6 S56 3.008114 1_555
Pb6 S49 3.219617 1_455
Pb6 S49 3.219617 1_555
Pb7 S28 3.004402 1_455
Pb7 S28 3.004402 1_555
Pb7 S5 3.004571 1_565
Pb7 S50 3.008114 1_555
Pb7 S50 3.008114 1_455
Pb7 S3 3.219617 1_555
Pb7 S3 3.219617 1_455
Pb8 S59 2.959636 1_565
Pb8 S43 3.006583 1_455
Pb8 S43 3.006583 1_555
Pb8 S42 3.026659 1_555
Pb8 S42 3.026659 1_455
Pb9 S46 2.959636 1_555
Pb9 S35 3.006583 1_455
Pb9 S35 3.006583 1_555
Pb9 S4 3.026659 1_556
Pb9 S4 3.026659 1_456
Pb10 S9 2.967220 1_545
Pb10 S32 2.995662 1_555
Pb10 S32 2.995662 1_655
Pb10 S38 3.026383 1_655
Pb10 S38 3.026383 1_555
Pb11 S20 2.967220 1_555
Pb11 S47 2.995662 1_555
Pb11 S47 2.995662 1_655
Pb11 S10 3.026383 1_555
Pb11 S10 3.026383 1_655
