# generated using pymatgen
data_SiO2
_symmetry_space_group_name_H-M   'P 1'
_cell_length_a   16.81615328
_cell_length_b   16.81615328
_cell_length_c   16.81615328
_cell_angle_alpha   137.36097270
_cell_angle_beta   137.36097270
_cell_angle_gamma   61.88312179
_symmetry_Int_Tables_number   1
_chemical_formula_structural   SiO2
_chemical_formula_sum   'Si32 O64'
_cell_volume   2156.47267223
_cell_formula_units_Z   32
loop_
 _symmetry_equiv_pos_site_id
 _symmetry_equiv_pos_as_xyz
  1  'x, y, z'
loop_
 _atom_site_type_symbol
 _atom_site_label
 _atom_site_symmetry_multiplicity
 _atom_site_fract_x
 _atom_site_fract_y
 _atom_site_fract_z
 _atom_site_occupancy
  Si  Si0  1  0.05512300  0.87592500  0.82080200  1
  Si  Si1  1  0.87592500  0.05512300  0.82080200  1
  Si  Si2  1  0.23432100  0.05512300  0.17919800  1
  Si  Si3  1  0.94487700  0.76567900  0.82080200  1
  Si  Si4  1  0.94487700  0.12407500  0.17919800  1
  Si  Si5  1  0.05512300  0.23432100  0.17919800  1
  Si  Si6  1  0.76567900  0.94487700  0.82080200  1
  Si  Si7  1  0.12407500  0.94487700  0.17919800  1
  Si  Si8  1  0.00927700  0.82411500  0.43277800  1
  Si  Si9  1  0.82411500  0.39133700  0.81483800  1
  Si  Si10  1  0.57650000  0.00927700  0.18516200  1
  Si  Si11  1  0.99072300  0.42350000  0.81483800  1
  Si  Si12  1  0.60866300  0.17588500  0.18516200  1
  Si  Si13  1  0.39133700  0.57650000  0.56722200  1
  Si  Si14  1  0.42350000  0.60866300  0.43277800  1
  Si  Si15  1  0.17588500  0.99072300  0.56722200  1
  Si  Si16  1  0.99072300  0.17588500  0.56722200  1
  Si  Si17  1  0.17588500  0.60866300  0.18516200  1
  Si  Si18  1  0.42350000  0.99072300  0.81483800  1
  Si  Si19  1  0.00927700  0.57650000  0.18516200  1
  Si  Si20  1  0.39133700  0.82411500  0.81483800  1
  Si  Si21  1  0.60866300  0.42350000  0.43277800  1
  Si  Si22  1  0.57650000  0.39133700  0.56722200  1
  Si  Si23  1  0.82411500  0.00927700  0.43277800  1
  Si  Si24  1  0.12827200  0.75727800  0.62900600  1
  Si  Si25  1  0.75727800  0.12827200  0.62900600  1
  Si  Si26  1  0.49926600  0.12827200  0.37099400  1
  Si  Si27  1  0.87172800  0.50073400  0.62900600  1
  Si  Si28  1  0.87172800  0.24272200  0.37099400  1
  Si  Si29  1  0.12827200  0.49926600  0.37099400  1
  Si  Si30  1  0.50073400  0.87172800  0.62900600  1
  Si  Si31  1  0.24272200  0.87172800  0.37099400  1
  O  O0  1  0.08243800  0.78732400  0.70488500  1
  O  O1  1  0.78732400  0.08243800  0.70488500  1
  O  O2  1  0.37755300  0.08243800  0.29511500  1
  O  O3  1  0.91756200  0.62244700  0.70488500  1
  O  O4  1  0.91756200  0.21267600  0.29511500  1
  O  O5  1  0.08243800  0.37755300  0.29511500  1
  O  O6  1  0.62244700  0.91756200  0.70488500  1
  O  O7  1  0.21267600  0.91756200  0.29511500  1
  O  O8  1  0.00000000  0.79501300  0.79501300  1
  O  O9  1  0.79501300  0.00000000  0.79501300  1
  O  O10  1  0.20498700  0.00000000  0.20498700  1
  O  O11  1  0.00000000  0.20498700  0.20498700  1
  O  O12  1  0.95956300  0.95956300  0.78180300  1
  O  O13  1  0.95956300  0.17775900  0.00000000  1
  O  O14  1  0.17775900  0.95956300  0.00000000  1
  O  O15  1  0.04043700  0.82224100  0.00000000  1
  O  O16  1  0.82224100  0.04043700  0.00000000  1
  O  O17  1  0.17775900  0.17775900  0.21819700  1
  O  O18  1  0.82224100  0.82224100  0.78180300  1
  O  O19  1  0.04043700  0.04043700  0.21819700  1
  O  O20  1  0.12208000  0.87792000  0.50000000  1
  O  O21  1  0.87792000  0.37792000  0.75583900  1
  O  O22  1  0.62208000  0.12208000  0.24416100  1
  O  O23  1  0.37792000  0.62208000  0.50000000  1
  O  O24  1  0.87792000  0.12208000  0.50000000  1
  O  O25  1  0.12208000  0.62208000  0.24416100  1
  O  O26  1  0.37792000  0.87792000  0.75583900  1
  O  O27  1  0.62208000  0.37792000  0.50000000  1
  O  O28  1  0.05024000  0.81658000  0.54933500  1
  O  O29  1  0.81658000  0.26724500  0.76634000  1
  O  O30  1  0.50090600  0.05024000  0.23366000  1
  O  O31  1  0.94976000  0.49909400  0.76634000  1
  O  O32  1  0.73275500  0.18342000  0.23366000  1
  O  O33  1  0.26724500  0.50090600  0.45066500  1
  O  O34  1  0.49909400  0.73275500  0.54933500  1
  O  O35  1  0.18342000  0.94976000  0.45066500  1
  O  O36  1  0.94976000  0.18342000  0.45066500  1
  O  O37  1  0.18342000  0.73275500  0.23366000  1
  O  O38  1  0.49909400  0.94976000  0.76634000  1
  O  O39  1  0.05024000  0.50090600  0.23366000  1
  O  O40  1  0.26724500  0.81658000  0.76634000  1
  O  O41  1  0.73275500  0.49909400  0.54933500  1
  O  O42  1  0.50090600  0.26724500  0.45066500  1
  O  O43  1  0.81658000  0.05024000  0.54933500  1
  O  O44  1  0.95662300  0.69159200  0.26503100  1
  O  O45  1  0.69159200  0.42656000  0.73496900  1
  O  O46  1  0.69159200  0.95662300  0.26503100  1
  O  O47  1  0.04337700  0.30840800  0.73496900  1
  O  O48  1  0.57344000  0.30840800  0.26503100  1
  O  O49  1  0.42656000  0.69159200  0.73496900  1
  O  O50  1  0.30840800  0.57344000  0.26503100  1
  O  O51  1  0.30840800  0.04337700  0.73496900  1
  O  O52  1  0.90637500  0.90637500  0.41061900  1
  O  O53  1  0.90637500  0.49575600  0.00000000  1
  O  O54  1  0.49575600  0.90637500  0.00000000  1
  O  O55  1  0.09362500  0.50424400  0.00000000  1
  O  O56  1  0.50424400  0.09362500  0.00000000  1
  O  O57  1  0.49575600  0.49575600  0.58938100  1
  O  O58  1  0.50424400  0.50424400  0.41061900  1
  O  O59  1  0.09362500  0.09362500  0.58938100  1
  O  O60  1  0.11340700  0.61340700  0.50000000  1
  O  O61  1  0.61340700  0.11340700  0.50000000  1
  O  O62  1  0.88659300  0.38659300  0.50000000  1
  O  O63  1  0.38659300  0.88659300  0.50000000  1
loop_
_geom_bond_atom_site_label_1
_geom_bond_atom_site_label_2
_geom_bond_distance
_geom_bond_site_symmetry_2
O0 Si24 1.615199 1_555
O0 Si0 1.621680 1_555
O1 Si25 1.615199 1_555
O1 Si1 1.621680 1_555
O2 Si26 1.615207 1_555
O2 Si2 1.621678 1_555
O3 Si27 1.615207 1_555
O3 Si3 1.621678 1_555
O4 Si28 1.615199 1_555
O4 Si4 1.621680 1_555
O5 Si29 1.615207 1_555
O5 Si5 1.621678 1_555
O6 Si30 1.615207 1_555
O6 Si6 1.621678 1_555
O7 Si31 1.615199 1_555
O7 Si7 1.621680 1_555
O8 Si3 1.621054 1_455
O8 Si0 1.621054 1_555
O9 Si6 1.621054 1_545
O9 Si1 1.621054 1_555
O10 Si2 1.621054 1_555
O10 Si7 1.621054 1_545
O11 Si5 1.621054 1_555
O11 Si4 1.621054 1_455
O12 Si0 1.633043 1_655
O12 Si1 1.633043 1_565
O13 Si5 1.633038 1_655
O13 Si1 1.633038 1_554
O14 Si2 1.633038 1_565
O14 Si0 1.633038 1_554
O15 Si7 1.633038 1_555
O15 Si3 1.633038 1_454
O16 Si4 1.633038 1_555
O16 Si6 1.633038 1_544
O17 Si5 1.633036 1_555
O17 Si2 1.633036 1_555
O18 Si3 1.633036 1_555
O18 Si6 1.633036 1_555
O19 Si7 1.633043 1_545
O19 Si4 1.633043 1_455
O20 Si15 1.628746 1_555
O20 Si8 1.628746 1_555
O21 Si11 1.628727 1_555
O21 Si9 1.628762 1_555
O22 Si10 1.628727 1_555
O22 Si12 1.628762 1_555
O23 Si14 1.628731 1_555
O23 Si13 1.628731 1_555
O24 Si16 1.628746 1_555
O24 Si23 1.628746 1_555
O25 Si19 1.628727 1_555
O25 Si17 1.628762 1_555
O26 Si18 1.628727 1_555
O26 Si20 1.628762 1_555
O27 Si21 1.628731 1_555
O27 Si22 1.628731 1_555
O28 Si8 1.621420 1_555
O28 Si24 1.630050 1_555
O29 Si9 1.621420 1_555
O29 Si25 1.630050 1_555
O30 Si10 1.621420 1_555
O30 Si26 1.630062 1_555
O31 Si11 1.621420 1_555
O31 Si27 1.630062 1_555
O32 Si12 1.621420 1_555
O32 Si28 1.630050 1_555
O33 Si13 1.621420 1_555
O33 Si29 1.630052 1_555
O34 Si14 1.621420 1_555
O34 Si30 1.630052 1_555
O35 Si15 1.621420 1_555
O35 Si31 1.630050 1_555
O36 Si16 1.621420 1_555
O36 Si28 1.630050 1_555
O37 Si17 1.621420 1_555
O37 Si31 1.630050 1_555
O38 Si18 1.621420 1_555
O38 Si30 1.630062 1_555
O39 Si19 1.621420 1_555
O39 Si29 1.630062 1_555
O40 Si20 1.621420 1_555
O40 Si24 1.630050 1_555
O41 Si21 1.621420 1_555
O41 Si27 1.630052 1_555
O42 Si22 1.621420 1_555
O42 Si26 1.630052 1_555
O43 Si23 1.621420 1_555
O43 Si25 1.630050 1_555
O44 Si19 1.625938 1_655
O44 Si8 1.625944 1_655
O45 Si9 1.625938 1_555
O45 Si22 1.625948 1_555
O46 Si10 1.625938 1_565
O46 Si23 1.625944 1_565
O47 Si11 1.625938 1_455
O47 Si16 1.625944 1_455
O48 Si12 1.625938 1_555
O48 Si21 1.625948 1_555
O49 Si20 1.625938 1_555
O49 Si13 1.625948 1_555
O50 Si17 1.625938 1_555
O50 Si14 1.625948 1_555
O51 Si18 1.625938 1_545
O51 Si15 1.625944 1_545
O52 Si23 1.612529 1_565
O52 Si8 1.612529 1_655
O53 Si19 1.612528 1_655
O53 Si9 1.612529 1_554
O54 Si10 1.612528 1_565
O54 Si20 1.612529 1_554
O55 Si11 1.612528 1_454
O55 Si17 1.612529 1_555
O56 Si18 1.612528 1_544
O56 Si12 1.612529 1_555
O57 Si13 1.612538 1_555
O57 Si22 1.612538 1_555
O58 Si21 1.612538 1_555
O58 Si14 1.612538 1_555
O59 Si16 1.612529 1_455
O59 Si15 1.612529 1_545
O60 Si29 1.634682 1_555
O60 Si24 1.634682 1_555
O61 Si26 1.634682 1_555
O61 Si25 1.634682 1_555
O62 Si28 1.634682 1_555
O62 Si27 1.634682 1_555
O63 Si31 1.634682 1_555
O63 Si30 1.634682 1_555
