# generated using pymatgen
data_NbTl2PO6
_symmetry_space_group_name_H-M   'P 1'
_cell_length_a   15.98630136
_cell_length_b   15.98630136
_cell_length_c   15.98630165
_cell_angle_alpha   32.22689666
_cell_angle_beta   32.22689666
_cell_angle_gamma   32.22689967
_symmetry_Int_Tables_number   1
_chemical_formula_structural   NbTl2PO6
_chemical_formula_sum   'Nb6 Tl12 P6 O36'
_cell_volume   1032.65201125
_cell_formula_units_Z   6
loop_
 _symmetry_equiv_pos_site_id
 _symmetry_equiv_pos_as_xyz
  1  'x, y, z'
loop_
 _atom_site_type_symbol
 _atom_site_label
 _atom_site_symmetry_multiplicity
 _atom_site_fract_x
 _atom_site_fract_y
 _atom_site_fract_z
 _atom_site_occupancy
  Nb  Nb0  1  0.00414800  0.24424800  0.49195300  1
  Nb  Nb1  1  0.75575200  0.50804700  0.99585200  1
  Nb  Nb2  1  0.99585200  0.75575200  0.50804700  1
  Nb  Nb3  1  0.49195300  0.00414800  0.24424800  1
  Nb  Nb4  1  0.50804700  0.99585200  0.75575200  1
  Nb  Nb5  1  0.24424800  0.49195300  0.00414800  1
  Tl  Tl0  1  0.66872800  0.10687700  0.31048300  1
  Tl  Tl1  1  0.41267800  0.81517800  0.19073000  1
  Tl  Tl2  1  0.80927000  0.58732200  0.18482200  1
  Tl  Tl3  1  0.18482200  0.80927000  0.58732200  1
  Tl  Tl4  1  0.10687700  0.31048300  0.66872800  1
  Tl  Tl5  1  0.19073000  0.41267800  0.81517800  1
  Tl  Tl6  1  0.31048300  0.66872800  0.10687700  1
  Tl  Tl7  1  0.81517800  0.19073000  0.41267800  1
  Tl  Tl8  1  0.33127200  0.89312300  0.68951700  1
  Tl  Tl9  1  0.68951700  0.33127200  0.89312300  1
  Tl  Tl10  1  0.89312300  0.68951700  0.33127200  1
  Tl  Tl11  1  0.58732200  0.18482200  0.80927000  1
  P  P0  1  0.41752500  0.41752500  0.41752500  1
  P  P1  1  0.30595200  0.30595200  0.30595200  1
  P  P2  1  0.08307600  0.08307600  0.08307600  1
  P  P3  1  0.58247500  0.58247500  0.58247500  1
  P  P4  1  0.91692400  0.91692400  0.91692400  1
  P  P5  1  0.69404800  0.69404800  0.69404800  1
  O  O0  1  0.94640000  0.56945700  0.75782900  1
  O  O1  1  0.65986300  0.65986300  0.65986300  1
  O  O2  1  0.43054300  0.24217100  0.05360000  1
  O  O3  1  0.30247100  0.45733000  0.12437100  1
  O  O4  1  0.54906300  0.54906300  0.54906300  1
  O  O5  1  0.12437100  0.30247100  0.45733000  1
  O  O6  1  0.52474000  0.89719500  0.20633500  1
  O  O7  1  0.22890200  0.55018000  0.43218000  1
  O  O8  1  0.10280500  0.79366500  0.47526000  1
  O  O9  1  0.88324800  0.88324800  0.88324800  1
  O  O10  1  0.75782900  0.94640000  0.56945700  1
  O  O11  1  0.24324700  0.04713200  0.91929000  1
  O  O12  1  0.20633500  0.52474000  0.89719500  1
  O  O13  1  0.55018000  0.43218000  0.22890200  1
  O  O14  1  0.11675200  0.11675200  0.11675200  1
  O  O15  1  0.44982000  0.56782000  0.77109800  1
  O  O16  1  0.75675300  0.95286800  0.08071000  1
  O  O17  1  0.45733000  0.12437100  0.30247100  1
  O  O18  1  0.43218000  0.22890200  0.55018000  1
  O  O19  1  0.56782000  0.77109800  0.44982000  1
  O  O20  1  0.95286800  0.08071000  0.75675300  1
  O  O21  1  0.34013700  0.34013700  0.34013700  1
  O  O22  1  0.24217100  0.05360000  0.43054300  1
  O  O23  1  0.91929000  0.24324700  0.04713200  1
  O  O24  1  0.87562900  0.69752900  0.54267000  1
  O  O25  1  0.05360000  0.43054300  0.24217100  1
  O  O26  1  0.77109800  0.44982000  0.56782000  1
  O  O27  1  0.54267000  0.87562900  0.69752900  1
  O  O28  1  0.56945700  0.75782900  0.94640000  1
  O  O29  1  0.79366500  0.47526000  0.10280500  1
  O  O30  1  0.69752900  0.54267000  0.87562900  1
  O  O31  1  0.47526000  0.10280500  0.79366500  1
  O  O32  1  0.04713200  0.91929000  0.24324700  1
  O  O33  1  0.45093700  0.45093700  0.45093700  1
  O  O34  1  0.89719500  0.20633500  0.52474000  1
  O  O35  1  0.08071000  0.75675300  0.95286800  1
loop_
_geom_bond_atom_site_label_1
_geom_bond_atom_site_label_2
_geom_bond_distance
_geom_bond_site_symmetry_2
Nb0 O34 1.806932 1_455
Nb0 O22 1.962814 1_555
Nb0 O25 1.990397 1_555
Nb0 O20 2.111220 1_455
Nb0 O26 2.129548 1_455
Nb0 O5 2.285089 1_555
Nb1 O29 1.806932 1_556
Nb1 O0 1.962814 1_555
Nb1 O28 1.990397 1_555
Nb1 O23 2.111221 1_556
Nb1 O13 2.129548 1_556
Nb1 O30 2.285089 1_555
Nb2 O8 1.806932 1_655
Nb2 O10 1.962814 1_555
Nb2 O0 1.990397 1_555
Nb2 O32 2.111220 1_655
Nb2 O7 2.129548 1_655
Nb2 O24 2.285089 1_555
Nb3 O6 1.806932 1_545
Nb3 O2 1.962814 1_555
Nb3 O22 1.990397 1_555
Nb3 O16 2.111220 1_545
Nb3 O19 2.129548 1_545
Nb3 O17 2.285089 1_555
Nb4 O31 1.806932 1_565
Nb4 O28 1.962814 1_555
Nb4 O10 1.990397 1_555
Nb4 O11 2.111220 1_565
Nb4 O18 2.129548 1_565
Nb4 O27 2.285089 1_555
Nb5 O12 1.806932 1_554
Nb5 O25 1.962814 1_555
Nb5 O2 1.990397 1_555
Nb5 O35 2.111221 1_554
Nb5 O15 2.129548 1_554
Nb5 O3 2.285089 1_555
O0 Tl5 2.826075 1_655
O1 P5 1.553004 1_555
O1 Tl9 2.712992 1_555
O1 Tl10 2.712992 1_555
O1 Tl8 2.712992 1_555
O2 Tl11 2.826075 1_554
O3 P1 1.564002 1_555
O4 P3 1.517887 1_555
O5 P1 1.564002 1_555
O6 Tl2 2.731430 1_555
O7 P0 1.571954 1_555
O8 Tl1 2.731430 1_555
O9 P4 1.529880 1_555
O9 Tl2 2.872865 1_556
O9 Tl3 2.872865 1_655
O9 Tl11 2.872865 1_565
O10 Tl7 2.826075 1_565
O11 P2 1.566974 1_556
O12 Tl3 2.731430 1_555
O13 P0 1.571954 1_555
O14 P2 1.529880 1_555
O14 Tl5 2.872865 1_554
O14 Tl7 2.872865 1_455
O14 Tl1 2.872865 1_545
O15 P3 1.571954 1_555
O16 P4 1.566974 1_554
O17 P1 1.564002 1_555
O18 P0 1.571954 1_555
O19 P3 1.571954 1_555
O20 P4 1.566973 1_545
O21 P1 1.553004 1_555
O21 Tl6 2.712992 1_555
O21 Tl4 2.712992 1_555
O21 Tl0 2.712992 1_555
O22 Tl3 2.826075 1_545
O23 P2 1.566974 1_655
O24 P5 1.564002 1_555
O25 Tl2 2.826075 1_455
O26 P3 1.571954 1_555
O27 P5 1.564002 1_555
O28 Tl1 2.826075 1_556
O29 Tl7 2.731430 1_555
O30 P5 1.564002 1_555
O31 Tl5 2.731430 1_555
O32 P2 1.566973 1_565
O33 P0 1.517887 1_555
O34 Tl11 2.731430 1_555
O35 P4 1.566974 1_455
