# generated using pymatgen
data_Na3Zr2Si2PO12
_symmetry_space_group_name_H-M   'P 1'
_cell_length_a   9.38432094
_cell_length_b   9.48149018
_cell_length_c   18.90542303
_cell_angle_alpha   58.12456311
_cell_angle_beta   58.16376062
_cell_angle_gamma   58.27459784
_symmetry_Int_Tables_number   1
_chemical_formula_structural   Na3Zr2Si2PO12
_chemical_formula_sum   'Na12 Zr8 Si8 P4 O48'
_cell_volume   1140.05860541
_cell_formula_units_Z   4
loop_
 _symmetry_equiv_pos_site_id
 _symmetry_equiv_pos_as_xyz
  1  'x, y, z'
loop_
 _atom_site_type_symbol
 _atom_site_label
 _atom_site_symmetry_multiplicity
 _atom_site_fract_x
 _atom_site_fract_y
 _atom_site_fract_z
 _atom_site_occupancy
  Na  Na0  1  0.18684500  0.82215000  0.02660200  1
  Na  Na1  1  0.30322300  0.46342700  0.33516500  1
  Na  Na2  1  0.75323500  0.12412300  0.19469700  1
  Na  Na3  1  0.24370100  0.90859700  0.32148500  1
  Na  Na4  1  0.66854400  0.24844100  0.45148400  1
  Na  Na5  1  0.81348700  0.57960500  0.12957000  1
  Na  Na6  1  0.34359400  0.75197900  0.54424300  1
  Na  Na7  1  0.75395000  0.09808500  0.68307200  1
  Na  Na8  1  0.47329700  0.46800900  0.76995300  1
  Na  Na9  1  0.24474100  0.88730200  0.80354900  1
  Na  Na10  1  0.68242300  0.23601600  0.96589400  1
  Na  Na11  1  0.91464400  0.67101200  0.62491000  1
  Zr  Zr0  1  0.14928800  0.14945000  0.06613600  1
  Zr  Zr1  1  0.35427300  0.36480300  0.17219000  1
  Zr  Zr2  1  0.14334600  0.15119400  0.56914900  1
  Zr  Zr3  1  0.34695200  0.35536700  0.68034500  1
  Zr  Zr4  1  0.64570400  0.65150200  0.32661500  1
  Zr  Zr5  1  0.85544400  0.84431100  0.42281100  1
  Zr  Zr6  1  0.64419600  0.65012600  0.82697100  1
  Zr  Zr7  1  0.85550100  0.84627800  0.92422700  1
  Si  Si0  1  0.04081200  0.75198000  0.23484300  1
  Si  Si1  1  0.46563200  0.03527500  0.37206400  1
  Si  Si2  1  0.75342600  0.45526000  0.02054700  1
  Si  Si3  1  0.24585700  0.54593900  0.48094100  1
  Si  Si4  1  0.04809100  0.74910300  0.73292900  1
  Si  Si5  1  0.46109600  0.02860600  0.87399800  1
  Si  Si6  1  0.74566000  0.45766100  0.52188400  1
  Si  Si7  1  0.25482600  0.54072100  0.97407000  1
  P  P0  1  0.53585300  0.96620800  0.12576200  1
  P  P1  1  0.96063200  0.25192300  0.26378300  1
  P  P2  1  0.53657000  0.96804300  0.62395800  1
  P  P3  1  0.95145800  0.25241300  0.76630300  1
  O  O0  1  0.14407800  0.25249700  0.24149000  1
  O  O1  1  0.30037400  0.50963400  0.05519600  1
  O  O2  1  0.06414900  0.92595100  0.14615500  1
  O  O3  1  0.53372800  0.12541500  0.13107200  1
  O  O4  1  0.20135700  0.57215200  0.21615600  1
  O  O5  1  0.04902400  0.75854700  0.31792900  1
  O  O6  1  0.31786600  0.05581500  0.46763500  1
  O  O7  1  0.42134100  0.21444800  0.28891600  1
  O  O8  1  0.58364500  0.42230600  0.11220500  1
  O  O9  1  0.21581600  0.37299000  0.49881800  1
  O  O10  1  0.06919800  0.72626900  0.47042100  1
  O  O11  1  0.35539900  0.00521400  0.12524500  1
  O  O12  1  0.66365000  0.99775300  0.36472900  1
  O  O13  1  0.12951500  0.26420200  0.74565900  1
  O  O14  1  0.92240500  0.27289900  0.03521700  1
  O  O15  1  0.78995000  0.62349800  0.00346700  1
  O  O16  1  0.41826300  0.56831000  0.38829500  1
  O  O17  1  0.27390200  0.51716600  0.56698000  1
  O  O18  1  0.57370500  0.79471200  0.20594300  1
  O  O19  1  0.07677000  0.91835100  0.64089100  1
  O  O20  1  0.69212000  0.93548100  0.03925300  1
  O  O21  1  0.52968500  0.12667000  0.63256500  1
  O  O22  1  0.22025000  0.57195900  0.71746300  1
  O  O23  1  0.03618000  0.77956600  0.81358700  1
  O  O24  1  0.95829500  0.24194900  0.18516300  1
  O  O25  1  0.80683900  0.42527300  0.27950000  1
  O  O26  1  0.46332400  0.86464900  0.36978500  1
  O  O27  1  0.29959800  0.04819700  0.96651900  1
  O  O28  1  0.92640400  0.09253100  0.35076700  1
  O  O29  1  0.43706100  0.20853500  0.78725300  1
  O  O30  1  0.70519900  0.48386300  0.44030400  1
  O  O31  1  0.57208300  0.43063100  0.61338900  1
  O  O32  1  0.21689300  0.36981600  0.99745200  1
  O  O33  1  0.08281500  0.72735200  0.96470300  1
  O  O34  1  0.84791300  0.74450900  0.26073900  1
  O  O35  1  0.35138900  0.99961600  0.63131100  1
  O  O36  1  0.65350500  0.98107100  0.87586200  1
  O  O37  1  0.91736500  0.27881900  0.53804300  1
  O  O38  1  0.77081200  0.63640200  0.49983400  1
  O  O39  1  0.42604800  0.56463800  0.87926500  1
  O  O40  1  0.58806400  0.79303600  0.69994800  1
  O  O41  1  0.68475500  0.95128500  0.53390600  1
  O  O42  1  0.96722600  0.21784400  0.69115000  1
  O  O43  1  0.79543700  0.42871800  0.77444400  1
  O  O44  1  0.46141700  0.86878600  0.86110800  1
  O  O45  1  0.91566600  0.09883600  0.85639100  1
  O  O46  1  0.71342200  0.49149800  0.93620700  1
  O  O47  1  0.86400300  0.73303100  0.75061900  1
loop_
_geom_bond_atom_site_label_1
_geom_bond_atom_site_label_2
_geom_bond_distance
_geom_bond_site_symmetry_2
Na0 O27 2.355689 1_564
Na0 O1 2.408967 1_555
Na0 O2 2.411416 1_555
Na0 O33 2.523761 1_554
Na0 O44 2.802827 1_554
Na1 O4 2.412818 1_555
Na1 O7 2.443674 1_555
Na1 O9 2.498180 1_555
Na1 O5 2.542340 1_555
Na1 O16 2.547811 1_555
Na2 O2 2.473131 1_645
Na2 O8 2.487532 1_555
Na2 O14 2.532630 1_555
Na2 O7 2.561239 1_555
Na2 O12 2.572176 1_545
Na2 O24 2.581866 1_555
Na2 O3 2.874412 1_555
Na2 O34 2.892076 1_545
Na3 O26 2.436311 1_555
Na3 O28 2.456297 1_465
Na3 O10 2.563261 1_555
Na3 O0 2.621211 1_565
Na3 O16 2.647442 1_555
Na3 O18 2.713962 1_555
Na3 O5 2.886225 1_555
Na3 O11 3.003292 1_565
Na4 O30 2.319057 1_555
Na4 O41 2.356255 1_545
Na4 O28 2.452796 1_555
Na4 O25 2.673262 1_555
Na4 O21 2.729892 1_555
Na4 O16 2.789934 1_555
Na5 O15 2.305770 1_555
Na5 O25 2.389211 1_555
Na5 O18 2.482689 1_555
Na5 O24 2.564831 1_555
Na5 O20 2.742832 1_555
Na5 O33 2.977689 1_654
Na6 O6 2.384497 1_565
Na6 O17 2.406923 1_555
Na6 O19 2.481941 1_555
Na6 O26 2.629323 1_555
Na6 O22 2.674476 1_555
Na6 O31 2.733042 1_555
Na7 O37 2.484246 1_555
Na7 O19 2.484890 1_645
Na7 O29 2.558000 1_555
Na7 O21 2.580948 1_555
Na7 O31 2.629731 1_555
Na7 O47 2.764293 1_545
Na7 O42 2.866044 1_555
Na7 O36 2.934001 1_545
Na8 O39 2.431571 1_555
Na8 O29 2.487544 1_555
Na8 O22 2.566488 1_555
Na8 O31 2.759273 1_555
Na8 O43 2.887537 1_555
Na9 O23 2.533016 1_555
Na9 O33 2.559465 1_555
Na9 O35 2.599849 1_555
Na9 O39 2.602570 1_555
Na9 O45 2.627699 1_465
Na9 O44 2.665824 1_555
Na9 O40 2.679249 1_555
Na9 O13 2.862060 1_565
Na10 O46 2.323874 1_555
Na10 O20 2.395428 1_546
Na10 O45 2.416129 1_555
Na10 O3 2.506336 1_556
Na10 O43 2.926990 1_555
Na11 O10 2.371179 1_655
Na11 O40 2.482184 1_555
Na11 O47 2.492051 1_555
Na11 O43 2.651087 1_555
Na11 O17 2.704320 1_655
Na11 O41 2.780953 1_555
O0 P1 1.543782 1_455
O0 Zr1 2.179546 1_555
O1 Si7 1.644247 1_554
O1 Zr1 2.067763 1_555
O2 Si0 1.628386 1_555
O2 Zr0 2.130077 1_565
O3 P0 1.554156 1_545
O3 Zr1 2.248219 1_555
O4 Si0 1.635500 1_555
O4 Zr1 2.028710 1_555
O5 Si0 1.647180 1_555
O5 Zr5 2.059660 1_455
O6 Si1 1.633939 1_555
O6 Zr2 2.035357 1_555
O7 Si1 1.629744 1_555
O7 Zr1 2.120678 1_555
O8 Si2 1.636432 1_555
O8 Zr1 2.054885 1_555
O9 Si3 1.637996 1_555
O9 Zr2 2.061513 1_555
O10 Si3 1.648927 1_555
O10 Zr5 2.136886 1_455
O11 P0 1.536093 1_545
O11 Zr0 2.178192 1_555
O12 Si1 1.638264 1_565
O12 Zr5 2.050790 1_555
O13 P3 1.555385 1_455
O13 Zr3 2.122512 1_555
O14 Si2 1.629440 1_555
O14 Zr0 2.052898 1_655
O15 Si2 1.637218 1_555
O15 Zr7 2.033885 1_554
O16 Si3 1.646012 1_555
O16 Zr4 2.170473 1_555
O17 Si3 1.642249 1_555
O17 Zr3 2.094812 1_555
O18 P0 1.557359 1_555
O18 Zr4 2.212350 1_555
O19 Si4 1.639014 1_555
O19 Zr2 2.120856 1_565
O20 P0 1.560084 1_555
O20 Zr7 2.203694 1_554
O21 P2 1.561381 1_545
O21 Zr3 2.232119 1_555
O22 Si4 1.638033 1_555
O22 Zr3 2.048721 1_555
O23 Si4 1.634795 1_555
O23 Zr7 2.044016 1_455
O24 P1 1.550377 1_555
O24 Zr0 2.285053 1_655
O25 P1 1.562473 1_555
O25 Zr4 2.206048 1_555
O26 Si1 1.652579 1_565
O26 Zr4 2.076118 1_555
O27 Si5 1.625211 1_555
O27 Zr0 2.034929 1_556
O28 P1 1.555597 1_555
O28 Zr5 2.267899 1_545
O29 Si5 1.637512 1_555
O29 Zr3 2.081207 1_555
O30 Si6 1.642719 1_555
O30 Zr4 2.045081 1_555
O31 Si6 1.646099 1_555
O31 Zr3 2.094103 1_555
O32 Si7 1.622359 1_555
O32 Zr0 2.028241 1_556
O33 Si7 1.653734 1_555
O33 Zr7 2.165316 1_455
O34 Si0 1.638560 1_655
O34 Zr4 2.009054 1_555
O35 P2 1.539758 1_555
O35 Zr2 2.223519 1_565
O36 Si5 1.630689 1_565
O36 Zr7 2.027114 1_555
O37 Si6 1.632091 1_555
O37 Zr2 2.042709 1_655
O38 Si6 1.634733 1_555
O38 Zr5 2.007968 1_555
O39 Si7 1.661731 1_555
O39 Zr6 2.142171 1_555
O40 P2 1.556340 1_555
O40 Zr6 2.242226 1_555
O41 P2 1.553422 1_555
O41 Zr5 2.235565 1_555
O42 P3 1.538515 1_555
O42 Zr2 2.206832 1_655
O43 P3 1.556187 1_555
O43 Zr6 2.233558 1_555
O44 Si5 1.655312 1_565
O44 Zr6 2.040146 1_555
O45 P3 1.557392 1_555
O45 Zr7 2.261037 1_545
O46 Si2 1.648817 1_556
O46 Zr6 2.014032 1_555
O47 Si4 1.653174 1_655
O47 Zr6 2.078959 1_555
