# generated using pymatgen
data_SNClO
_symmetry_space_group_name_H-M   'P 1'
_cell_length_a   11.61682200
_cell_length_b   5.83108800
_cell_length_c   14.28561755
_cell_angle_alpha   71.95499575
_cell_angle_beta   90.00000000
_cell_angle_gamma   90.00000000
_symmetry_Int_Tables_number   1
_chemical_formula_structural   SNClO
_chemical_formula_sum   'S12 N12 Cl12 O12'
_cell_volume   920.09207141
_cell_formula_units_Z   12
loop_
 _symmetry_equiv_pos_site_id
 _symmetry_equiv_pos_as_xyz
  1  'x, y, z'
loop_
 _atom_site_type_symbol
 _atom_site_label
 _atom_site_symmetry_multiplicity
 _atom_site_fract_x
 _atom_site_fract_y
 _atom_site_fract_z
 _atom_site_occupancy
  S  S0  1  0.52398800  0.28195200  0.85561900  1
  S  S1  1  0.02398800  0.71804800  0.64438100  1
  S  S2  1  0.47601200  0.71804800  0.14438100  1
  S  S3  1  0.90126100  0.54961000  0.81947400  1
  S  S4  1  0.78714700  0.74229300  0.64237900  1
  S  S5  1  0.71285300  0.74229300  0.14237900  1
  S  S6  1  0.28714700  0.25770700  0.85762100  1
  S  S7  1  0.40126100  0.45039000  0.68052600  1
  S  S8  1  0.21285300  0.25770700  0.35762100  1
  S  S9  1  0.09873900  0.45039000  0.18052600  1
  S  S10  1  0.97601200  0.28195200  0.35561900  1
  S  S11  1  0.59873900  0.54961000  0.31947400  1
  N  N0  1  0.00589800  0.52786300  0.75064400  1
  N  N1  1  0.40763000  0.15186700  0.90251600  1
  N  N2  1  0.09237000  0.15186700  0.40251600  1
  N  N3  1  0.99410200  0.47213700  0.24935600  1
  N  N4  1  0.71361100  0.64551800  0.25923800  1
  N  N5  1  0.90763000  0.84813300  0.59748400  1
  N  N6  1  0.59237000  0.84813300  0.09748400  1
  N  N7  1  0.21361100  0.35448200  0.24076200  1
  N  N8  1  0.50589800  0.47213700  0.74935600  1
  N  N9  1  0.28638900  0.35448200  0.74076200  1
  N  N10  1  0.78638900  0.64551800  0.75923800  1
  N  N11  1  0.49410200  0.52786300  0.25064400  1
  Cl  Cl0  1  0.24351600  0.55527600  0.40184900  1
  Cl  Cl1  1  0.75648400  0.44472400  0.59815100  1
  Cl  Cl2  1  0.61666800  0.00232300  0.83849000  1
  Cl  Cl3  1  0.11666800  0.99767700  0.66151000  1
  Cl  Cl4  1  0.05961500  0.18841000  0.11854000  1
  Cl  Cl5  1  0.44038500  0.18841000  0.61854000  1
  Cl  Cl6  1  0.38333200  0.99767700  0.16151000  1
  Cl  Cl7  1  0.94038500  0.81159000  0.88146000  1
  Cl  Cl8  1  0.88333200  0.00232300  0.33849000  1
  Cl  Cl9  1  0.25648400  0.55527600  0.90184900  1
  Cl  Cl10  1  0.55961500  0.81159000  0.38146000  1
  Cl  Cl11  1  0.74351600  0.44472400  0.09815100  1
  O  O0  1  0.69557000  0.90815100  0.60385500  1
  O  O1  1  0.08926500  0.61480300  0.58271700  1
  O  O2  1  0.38617400  0.66875500  0.60205200  1
  O  O3  1  0.19557000  0.09184900  0.89614500  1
  O  O4  1  0.11382600  0.66875500  0.10205200  1
  O  O5  1  0.88617400  0.33124500  0.89794800  1
  O  O6  1  0.58926500  0.38519700  0.91728300  1
  O  O7  1  0.80443000  0.90815100  0.10385500  1
  O  O8  1  0.41073500  0.61480300  0.08271700  1
  O  O9  1  0.61382600  0.33124500  0.39794800  1
  O  O10  1  0.91073500  0.38519700  0.41728300  1
  O  O11  1  0.30443000  0.09184900  0.39614500  1
loop_
_geom_bond_atom_site_label_1
_geom_bond_atom_site_label_2
_geom_bond_distance
_geom_bond_site_symmetry_2
N0 S1 1.592317 1_555
N0 S3 1.593024 1_455
N1 S6 1.583024 1_555
N1 S0 1.592640 1_555
N2 S8 1.583024 1_555
N2 S10 1.592640 1_455
N3 S10 1.592317 1_555
N3 S9 1.593024 1_655
N4 S5 1.588016 1_555
N4 S11 1.592433 1_555
N5 S4 1.583024 1_555
N5 S1 1.592640 1_655
N6 S5 1.583024 1_555
N6 S2 1.592640 1_555
N7 S8 1.588016 1_555
N7 S9 1.592433 1_555
N8 S0 1.592317 1_555
N8 S7 1.593024 1_555
N9 S6 1.588016 1_555
N9 S7 1.592433 1_555
N10 S4 1.588016 1_555
N10 S3 1.592433 1_555
N11 S2 1.592317 1_555
N11 S11 1.593024 1_555
Cl0 S8 2.053297 1_555
Cl1 S4 2.053297 1_555
Cl2 S0 2.030984 1_555
Cl3 S1 2.030984 1_555
Cl4 S9 2.040194 1_555
Cl5 S7 2.040194 1_555
Cl6 S2 2.030984 1_555
Cl7 S3 2.040194 1_555
Cl8 S10 2.030984 1_555
Cl9 S6 2.053297 1_555
Cl10 S11 2.040194 1_555
Cl11 S5 2.053297 1_555
O0 S4 1.428361 1_555
O1 S1 1.428997 1_555
O2 S7 1.422828 1_555
O3 S6 1.428361 1_555
O4 S9 1.422828 1_555
O5 S3 1.422828 1_555
O6 S0 1.428997 1_555
O7 S5 1.428361 1_555
O8 S2 1.428997 1_555
O9 S11 1.422828 1_555
O10 S10 1.428997 1_555
O11 S8 1.428361 1_555
