# generated using pymatgen
data_Li7Nb8O24
_symmetry_space_group_name_H-M   'P 1'
_cell_length_a   7.65153800
_cell_length_b   9.28622842
_cell_length_c   13.94096760
_cell_angle_alpha   90.00640642
_cell_angle_beta   105.10948913
_cell_angle_gamma   110.42069353
_symmetry_Int_Tables_number   1
_chemical_formula_structural   Li7Nb8O24
_chemical_formula_sum   'Li14 Nb16 O48'
_cell_volume   891.66688757
_cell_formula_units_Z   2
loop_
 _symmetry_equiv_pos_site_id
 _symmetry_equiv_pos_as_xyz
  1  'x, y, z'
loop_
 _atom_site_type_symbol
 _atom_site_label
 _atom_site_symmetry_multiplicity
 _atom_site_fract_x
 _atom_site_fract_y
 _atom_site_fract_z
 _atom_site_occupancy
  Li  Li0  1  0.50020900  0.75016500  0.74921500  1
  Li  Li1  1  0.62525400  0.12480700  0.62484800  1
  Li  Li2  1  0.12543100  0.12678200  0.62509200  1
  Li  Li3  1  0.25022000  0.99960300  0.00061200  1
  Li  Li4  1  0.37554300  0.37495100  0.87514300  1
  Li  Li5  1  0.87447600  0.37391300  0.87593300  1
  Li  Li6  1  0.12552400  0.62608700  0.12406700  1
  Li  Li7  1  0.62445700  0.62504900  0.12485700  1
  Li  Li8  1  0.74978000  0.00039700  0.99938800  1
  Li  Li9  1  0.74939900  0.49863700  0.49902200  1
  Li  Li10  1  0.87456900  0.87321800  0.37490800  1
  Li  Li11  1  0.37474600  0.87519300  0.37515200  1
  Li  Li12  1  0.49979100  0.24983500  0.25078500  1
  Li  Li13  1  0.25060100  0.50136300  0.50097800  1
  Nb  Nb0  1  0.68996800  0.81241600  0.56468800  1
  Nb  Nb1  1  0.44157700  0.06591200  0.81265200  1
  Nb  Nb2  1  0.05582500  0.43957800  0.68814100  1
  Nb  Nb3  1  0.18969300  0.31189200  0.06460300  1
  Nb  Nb4  1  0.81030700  0.68810800  0.93539700  1
  Nb  Nb5  1  0.94551800  0.06341700  0.81269100  1
  Nb  Nb6  1  0.94417500  0.56042200  0.31185900  1
  Nb  Nb7  1  0.55936500  0.43744600  0.68467400  1
  Nb  Nb8  1  0.55842300  0.93408800  0.18734800  1
  Nb  Nb9  1  0.68457400  0.31092600  0.06503800  1
  Nb  Nb10  1  0.31542600  0.68907400  0.93496200  1
  Nb  Nb11  1  0.31003200  0.18758400  0.43531200  1
  Nb  Nb12  1  0.44063500  0.56255400  0.31532600  1
  Nb  Nb13  1  0.05448200  0.93658300  0.18730900  1
  Nb  Nb14  1  0.18806400  0.81616200  0.56429900  1
  Nb  Nb15  1  0.81193600  0.18383800  0.43570100  1
  O  O0  1  0.48402300  0.26705200  0.57870700  1
  O  O1  1  0.65070700  0.59290600  0.59332700  1
  O  O2  1  0.82673700  0.41812700  0.73309200  1
  O  O3  1  0.10015000  0.64835600  0.64884700  1
  O  O4  1  0.26943500  0.98463500  0.67157700  1
  O  O5  1  0.23318700  0.51801400  0.82774600  1
  O  O6  1  0.45162900  0.79707500  0.60619500  1
  O  O7  1  0.40812800  0.84497500  0.84579000  1
  O  O8  1  0.67186500  0.07877200  0.76951600  1
  O  O9  1  0.57817000  0.67253000  0.98440800  1
  O  O10  1  0.84827600  0.89917600  0.69950600  1
  O  O11  1  0.84518600  0.90433900  0.90494500  1
  O  O12  1  0.03244500  0.21942200  0.72103800  1
  O  O13  1  0.01903100  0.23330800  0.92169200  1
  O  O14  1  0.29907800  0.44870000  0.64376200  1
  O  O15  1  0.98096900  0.76669200  0.07830800  1
  O  O16  1  0.20358300  0.04953300  0.85903600  1
  O  O17  1  0.15481400  0.09566100  0.09505500  1
  O  O18  1  0.47039300  0.27914300  0.78042200  1
  O  O19  1  0.42183000  0.32747000  0.01559200  1
  O  O20  1  0.63934900  0.60541700  0.79846200  1
  O  O21  1  0.32813500  0.92122800  0.23048400  1
  O  O22  1  0.60439200  0.14108400  0.95237900  1
  O  O23  1  0.59187200  0.15502500  0.15421000  1
  O  O24  1  0.77356400  0.46924900  0.96900900  1
  O  O25  1  0.76681300  0.48198600  0.17225400  1
  O  O26  1  0.05021500  0.69751000  0.90226400  1
  O  O27  1  0.73056500  0.01536500  0.32842300  1
  O  O28  1  0.94978500  0.30249000  0.09773600  1
  O  O29  1  0.89985000  0.35164400  0.35115300  1
  O  O30  1  0.22643600  0.53075100  0.03099100  1
  O  O31  1  0.17326300  0.58187300  0.26690800  1
  O  O32  1  0.39560800  0.85891600  0.04762100  1
  O  O33  1  0.07812500  0.17296600  0.48241400  1
  O  O34  1  0.36065100  0.39458300  0.20153800  1
  O  O35  1  0.34929300  0.40709400  0.40667300  1
  O  O36  1  0.52960700  0.72085700  0.21957800  1
  O  O37  1  0.51597700  0.73294800  0.42129300  1
  O  O38  1  0.79641700  0.95046700  0.14096400  1
  O  O39  1  0.70092200  0.55130000  0.35623800  1
  O  O40  1  0.96755500  0.78057800  0.27896200  1
  O  O41  1  0.92187500  0.82703400  0.51758600  1
  O  O42  1  0.15172400  0.10082400  0.30049400  1
  O  O43  1  0.10884500  0.64645300  0.45024400  1
  O  O44  1  0.28249700  0.97085000  0.47117800  1
  O  O45  1  0.54837100  0.20292500  0.39380500  1
  O  O46  1  0.71750300  0.02915000  0.52882200  1
  O  O47  1  0.89115500  0.35354700  0.54975600  1
loop_
_geom_bond_atom_site_label_1
_geom_bond_atom_site_label_2
_geom_bond_distance
_geom_bond_site_symmetry_2
Li0 O7 2.002834 1_555
Li0 O20 2.007321 1_555
Li0 O6 2.007519 1_555
Li1 O0 1.990042 1_555
Li1 O46 2.002315 1_555
Li1 O8 2.027085 1_555
Li2 O12 1.989573 1_555
Li2 O33 2.001131 1_555
Li2 O4 2.004832 1_545
Li3 O16 1.996578 1_564
Li3 O32 2.002031 1_555
Li3 O17 2.004324 1_565
Li4 O19 1.975154 1_556
Li4 O18 2.002980 1_555
Li4 O5 2.005689 1_555
Li5 O13 1.993812 1_655
Li5 O2 1.998268 1_555
Li5 O24 2.015621 1_555
Li6 O15 1.993812 1_455
Li6 O31 1.998268 1_555
Li6 O30 2.015621 1_555
Li7 O9 1.975154 1_554
Li7 O36 2.002980 1_555
Li7 O25 2.005689 1_555
Li8 O38 1.996578 1_546
Li8 O22 2.002031 1_555
Li8 O11 2.004324 1_545
Li9 O1 2.010879 1_555
Li9 O39 2.020125 1_555
Li9 O47 2.027832 1_555
Li10 O40 1.989573 1_555
Li10 O41 2.001131 1_555
Li10 O27 2.004832 1_565
Li11 O37 1.990042 1_555
Li11 O44 2.002315 1_555
Li11 O21 2.027085 1_555
Li12 O23 2.002834 1_555
Li12 O34 2.007321 1_555
Li12 O45 2.007519 1_555
Li13 O35 2.010879 1_555
Li13 O14 2.020125 1_555
Li13 O43 2.027832 1_555
Nb0 O10 1.944384 1_555
Nb0 O41 2.009390 1_555
Nb0 O1 2.010025 1_555
Nb0 O6 2.012393 1_555
Nb0 O46 2.025923 1_565
Nb0 O37 2.059092 1_555
Nb1 O8 1.971377 1_555
Nb1 O18 1.979527 1_555
Nb1 O22 1.990336 1_555
Nb1 O4 2.031747 1_545
Nb1 O16 2.044020 1_555
Nb1 O7 2.045412 1_545
Nb2 O3 1.952472 1_555
Nb2 O2 1.958056 1_455
Nb2 O47 1.994412 1_455
Nb2 O5 2.023117 1_555
Nb2 O12 2.051766 1_555
Nb2 O14 2.084359 1_555
Nb3 O28 1.980114 1_455
Nb3 O34 1.985436 1_555
Nb3 O17 1.992160 1_555
Nb3 O19 2.023879 1_555
Nb3 O30 2.024679 1_555
Nb3 O13 2.045837 1_554
Nb4 O26 1.980114 1_655
Nb4 O20 1.985436 1_555
Nb4 O11 1.992160 1_555
Nb4 O9 2.023879 1_555
Nb4 O24 2.024679 1_555
Nb4 O15 2.045837 1_556
Nb5 O16 1.961035 1_655
Nb5 O12 1.986148 1_655
Nb5 O10 1.991252 1_545
Nb5 O13 2.012236 1_655
Nb5 O11 2.037016 1_545
Nb5 O8 2.078034 1_555
Nb6 O29 1.952472 1_555
Nb6 O31 1.958056 1_655
Nb6 O43 1.994412 1_655
Nb6 O25 2.023117 1_555
Nb6 O40 2.051766 1_555
Nb6 O39 2.084359 1_555
Nb7 O14 1.963606 1_555
Nb7 O0 1.984285 1_555
Nb7 O1 1.988619 1_555
Nb7 O20 2.037437 1_555
Nb7 O18 2.045001 1_555
Nb7 O2 2.051673 1_555
Nb8 O21 1.971377 1_555
Nb8 O36 1.979527 1_555
Nb8 O32 1.990336 1_555
Nb8 O27 2.031747 1_565
Nb8 O38 2.044020 1_555
Nb8 O23 2.045412 1_565
Nb9 O23 1.971794 1_555
Nb9 O28 1.990118 1_555
Nb9 O25 1.991238 1_555
Nb9 O19 2.008370 1_555
Nb9 O22 2.037772 1_554
Nb9 O24 2.048046 1_554
Nb10 O7 1.971794 1_555
Nb10 O26 1.990118 1_555
Nb10 O5 1.991238 1_555
Nb10 O9 2.008370 1_555
Nb10 O32 2.037772 1_556
Nb10 O30 2.048046 1_556
Nb11 O42 1.944384 1_555
Nb11 O33 2.009390 1_555
Nb11 O35 2.010025 1_555
Nb11 O45 2.012393 1_555
Nb11 O44 2.025923 1_545
Nb11 O0 2.059092 1_555
Nb12 O39 1.963606 1_555
Nb12 O37 1.984285 1_555
Nb12 O35 1.988619 1_555
Nb12 O34 2.037437 1_555
Nb12 O36 2.045001 1_555
Nb12 O31 2.051673 1_555
Nb13 O38 1.961035 1_455
Nb13 O40 1.986148 1_455
Nb13 O42 1.991252 1_565
Nb13 O15 2.012236 1_455
Nb13 O17 2.037016 1_565
Nb13 O21 2.078034 1_555
Nb14 O4 1.976424 1_555
Nb14 O3 1.988044 1_555
Nb14 O41 2.008652 1_455
Nb14 O44 2.008977 1_555
Nb14 O6 2.018647 1_555
Nb14 O43 2.051744 1_555
Nb15 O27 1.976424 1_555
Nb15 O29 1.988044 1_555
Nb15 O33 2.008652 1_655
Nb15 O46 2.008977 1_555
Nb15 O45 2.018647 1_555
Nb15 O47 2.051744 1_555
