# generated using pymatgen
data_NaHO
_symmetry_space_group_name_H-M   'P 1'
_cell_length_a   5.97040227
_cell_length_b   5.97040227
_cell_length_c   3.35204038
_cell_angle_alpha   80.87722951
_cell_angle_beta   80.87722951
_cell_angle_gamma   34.93847214
_symmetry_Int_Tables_number   1
_chemical_formula_structural   NaHO
_chemical_formula_sum   'Na2 H2 O2'
_cell_volume   67.47721433
_cell_formula_units_Z   2
loop_
 _symmetry_equiv_pos_site_id
 _symmetry_equiv_pos_as_xyz
  1  'x, y, z'
loop_
 _atom_site_type_symbol
 _atom_site_label
 _atom_site_symmetry_multiplicity
 _atom_site_fract_x
 _atom_site_fract_y
 _atom_site_fract_z
 _atom_site_occupancy
  Na  Na0  1  0.36113000  0.36113000  0.74879800  1
  Na  Na1  1  0.64944000  0.64944000  0.19363500  1
  H  H0  1  0.18348500  0.18348500  0.52179700  1
  H  H1  1  0.94406900  0.94406900  0.12411000  1
  O  O0  1  0.13354500  0.13354500  0.78543200  1
  O  O1  1  0.85982600  0.85982600  0.24867500  1
loop_
_geom_bond_atom_site_label_1
_geom_bond_atom_site_label_2
_geom_bond_distance
_geom_bond_site_symmetry_2
Na0 O1 2.451911 1_456
Na0 O1 2.451911 1_546
Na0 O1 2.455846 1_455
Na0 O1 2.455846 1_545
Na0 O0 2.574648 1_555
Na1 O0 2.280278 1_564
Na1 O0 2.280278 1_654
Na1 O1 2.433788 1_555
H0 O0 0.968196 1_555
H0 Na1 2.171280 1_455
H0 Na1 2.171280 1_545
H0 Na0 2.277043 1_555
H1 O1 0.980745 1_555
H1 Na0 2.466269 1_654
H1 Na0 2.466269 1_564
