# generated using pymatgen
data_Zr7N2O11
_symmetry_space_group_name_H-M   'P 1'
_cell_length_a   8.15803300
_cell_length_b   8.18238127
_cell_length_c   8.20185653
_cell_angle_alpha   73.16136592
_cell_angle_beta   72.94584662
_cell_angle_gamma   72.69296351
_symmetry_Int_Tables_number   1
_chemical_formula_structural   Zr7N2O11
_chemical_formula_sum   'Zr14 N4 O22'
_cell_volume   487.27417464
_cell_formula_units_Z   2
loop_
 _symmetry_equiv_pos_site_id
 _symmetry_equiv_pos_as_xyz
  1  'x, y, z'
loop_
 _atom_site_type_symbol
 _atom_site_label
 _atom_site_symmetry_multiplicity
 _atom_site_fract_x
 _atom_site_fract_y
 _atom_site_fract_z
 _atom_site_occupancy
  Zr  Zr0  1  0.00298700  0.00245600  0.99913400  1
  Zr  Zr1  1  0.83712300  0.40320700  0.74469900  1
  Zr  Zr2  1  0.71973700  0.85245000  0.45175500  1
  Zr  Zr3  1  0.92120100  0.22193200  0.38176100  1
  Zr  Zr4  1  0.79385200  0.59923300  0.09369500  1
  Zr  Zr5  1  0.40308700  0.74579700  0.84202600  1
  Zr  Zr6  1  0.60975000  0.08931100  0.79251700  1
  Zr  Zr7  1  0.48797800  0.48639200  0.49334000  1
  Zr  Zr8  1  0.39838500  0.90447400  0.20528500  1
  Zr  Zr9  1  0.55464400  0.29123000  0.12827100  1
  Zr  Zr10  1  0.20256900  0.39350600  0.91965200  1
  Zr  Zr11  1  0.08676800  0.78786700  0.61603200  1
  Zr  Zr12  1  0.28859100  0.13350200  0.54404900  1
  Zr  Zr13  1  0.14691000  0.60415300  0.24829400  1
  N  N0  1  0.74871000  0.16757800  0.92430000  1
  N  N1  1  0.16985500  0.92647200  0.75090800  1
  N  N2  1  0.24286800  0.83406300  0.08051600  1
  N  N3  1  0.02703700  0.41845800  0.17767800  1
  O  O0  1  0.97421700  0.59818700  0.82751400  1
  O  O1  1  0.83495400  0.96442200  0.61140700  1
  O  O2  1  0.96219300  0.67968100  0.46685800  1
  O  O3  1  0.92504000  0.76873100  0.12192500  1
  O  O4  1  0.59498600  0.84258300  0.97164600  1
  O  O5  1  0.67286900  0.49629600  0.96679100  1
  O  O6  1  0.64145600  0.63084100  0.64487400  1
  O  O7  1  0.71262600  0.31212800  0.59544200  1
  O  O8  1  0.50740300  0.95381900  0.65262800  1
  O  O9  1  0.87421400  0.05127600  0.26035100  1
  O  O10  1  0.61112900  0.71094300  0.31405800  1
  O  O11  1  0.68350300  0.38235800  0.28209800  1
  O  O12  1  0.31148300  0.59433400  0.71901000  1
  O  O13  1  0.38917300  0.27238100  0.68930800  1
  O  O14  1  0.51367100  0.05080800  0.32717800  1
  O  O15  1  0.28545200  0.69806800  0.40215300  1
  O  O16  1  0.35161500  0.38173700  0.36352600  1
  O  O17  1  0.34979400  0.50062600  0.03112700  1
  O  O18  1  0.39424900  0.16499600  0.02979900  1
  O  O19  1  0.05355800  0.24991100  0.88817700  1
  O  O20  1  0.04019600  0.30117900  0.54745800  1
  O  O21  1  0.17416400  0.03261500  0.39275900  1
loop_
_geom_bond_atom_site_label_1
_geom_bond_atom_site_label_2
_geom_bond_distance
_geom_bond_site_symmetry_2
N0 Zr6 2.101244 1_555
N0 Zr9 2.191564 1_556
N0 Zr1 2.228486 1_555
N0 Zr0 2.259228 1_655
N1 Zr11 2.143242 1_555
N1 Zr5 2.210138 1_555
N1 Zr0 2.233562 1_565
N1 Zr12 2.243590 1_565
N2 Zr8 2.127623 1_555
N2 Zr13 2.188601 1_555
N2 Zr0 2.191513 1_564
N2 Zr5 2.193941 1_554
N3 Zr3 2.133560 1_455
N3 Zr4 2.187548 1_455
N3 Zr10 2.206764 1_554
N3 Zr13 2.307944 1_555
O0 Zr11 2.148161 1_655
O0 Zr4 2.247340 1_556
O0 Zr10 2.254451 1_655
O0 Zr1 2.528354 1_555
O1 Zr11 2.134668 1_655
O1 Zr6 2.188107 1_565
O1 Zr2 2.316662 1_555
O1 Zr3 2.507558 1_565
O2 Zr2 2.074779 1_555
O2 Zr13 2.090341 1_655
O2 Zr11 2.281556 1_655
O2 Zr1 2.893879 1_555
O3 Zr0 2.075593 1_664
O3 Zr4 2.082553 1_555
O3 Zr13 2.237271 1_655
O4 Zr6 2.138029 1_565
O4 Zr8 2.185680 1_556
O4 Zr4 2.339797 1_556
O4 Zr5 2.531779 1_555
O5 Zr4 2.090934 1_556
O5 Zr9 2.103788 1_556
O5 Zr1 2.111566 1_555
O5 Zr5 2.737917 1_555
O6 Zr2 2.153229 1_555
O6 Zr1 2.191280 1_555
O6 Zr5 2.286815 1_555
O6 Zr7 2.674642 1_555
O7 Zr7 2.178710 1_555
O7 Zr3 2.182783 1_555
O7 Zr1 2.189463 1_555
O7 Zr6 2.246863 1_555
O8 Zr5 2.142217 1_555
O8 Zr2 2.160053 1_555
O8 Zr12 2.180257 1_565
O8 Zr6 2.256602 1_565
O9 Zr3 2.106260 1_555
O9 Zr0 2.186167 1_654
O9 Zr2 2.297638 1_545
O10 Zr8 2.184086 1_555
O10 Zr4 2.211414 1_555
O10 Zr7 2.283417 1_555
O10 Zr2 2.314325 1_555
O11 Zr7 2.167106 1_555
O11 Zr4 2.212046 1_555
O11 Zr3 2.223771 1_555
O11 Zr9 2.245494 1_555
O12 Zr10 2.154589 1_555
O12 Zr5 2.197762 1_555
O12 Zr7 2.215043 1_555
O12 Zr11 2.233344 1_555
O13 Zr7 2.179180 1_555
O13 Zr6 2.180270 1_555
O13 Zr12 2.301434 1_555
O13 Zr10 2.317141 1_555
O14 Zr9 2.203458 1_555
O14 Zr2 2.219833 1_545
O14 Zr12 2.244042 1_555
O14 Zr8 2.287529 1_545
O15 Zr7 2.135583 1_555
O15 Zr11 2.148191 1_555
O15 Zr8 2.186706 1_555
O15 Zr13 2.318524 1_555
O16 Zr7 2.212290 1_555
O16 Zr12 2.239348 1_555
O16 Zr13 2.261663 1_555
O16 Zr9 2.288751 1_555
O17 Zr9 2.156322 1_555
O17 Zr10 2.186667 1_554
O17 Zr5 2.222552 1_554
O17 Zr13 2.222693 1_555
O18 Zr8 2.196587 1_545
O18 Zr10 2.206304 1_554
O18 Zr6 2.303349 1_554
O18 Zr9 2.310564 1_555
O19 Zr10 2.033358 1_555
O19 Zr0 2.075415 1_555
O19 Zr1 2.263105 1_455
O20 Zr12 2.079497 1_555
O20 Zr1 2.108593 1_455
O20 Zr3 2.206511 1_455
O21 Zr3 2.189227 1_455
O21 Zr12 2.196352 1_555
O21 Zr8 2.225489 1_545
O21 Zr11 2.414820 1_545
