# generated using pymatgen
data_Ce9YO20
_symmetry_space_group_name_H-M   'P 1'
_cell_length_a   6.64974786
_cell_length_b   7.67766546
_cell_length_c   8.58809559
_cell_angle_alpha   102.92231324
_cell_angle_beta   97.40814988
_cell_angle_gamma   106.75567806
_symmetry_Int_Tables_number   1
_chemical_formula_structural   Ce9YO20
_chemical_formula_sum   'Ce9 Y1 O20'
_cell_volume   400.32932273
_cell_formula_units_Z   1
loop_
 _symmetry_equiv_pos_site_id
 _symmetry_equiv_pos_as_xyz
  1  'x, y, z'
loop_
 _atom_site_type_symbol
 _atom_site_label
 _atom_site_symmetry_multiplicity
 _atom_site_fract_x
 _atom_site_fract_y
 _atom_site_fract_z
 _atom_site_occupancy
  Ce  Ce0  1  0.80046404  0.60115430  0.60153095  1
  Ce  Ce1  1  0.59955442  0.19891911  0.19872823  1
  Ce  Ce2  1  -0.00000000  0.50000000  0.00000000  1
  Ce  Ce3  1  0.80028973  0.09988684  0.60177763  1
  Ce  Ce4  1  0.19953596  0.39884570  0.39846905  1
  Ce  Ce5  1  0.60182532  0.70093647  0.19921774  1
  Ce  Ce6  1  0.39817468  0.29906353  0.80078226  1
  Ce  Ce7  1  0.19971027  0.90011316  0.39822237  1
  Ce  Ce8  1  0.40044558  0.80108089  0.80127177  1
  Y  Y0  1  -0.00000000  0.00000000  0.00000000  1
  O  O0  1  0.85007644  0.32473452  0.45061087  1
  O  O1  1  0.64796148  0.92441804  0.05072737  1
  O  O2  1  0.44940167  0.52436872  0.65004842  1
  O  O3  1  0.94986449  0.77342491  0.15106068  1
  O  O4  1  0.85079404  0.82576104  0.45040003  1
  O  O5  1  0.74890500  0.37470098  0.75026428  1
  O  O6  1  0.25159783  0.12581378  0.25167315  1
  O  O7  1  0.64942661  0.42504592  0.04952989  1
  O  O8  1  0.94959939  0.27701599  0.15109389  1
  O  O9  1  0.44933569  0.02519166  0.64962376  1
  O  O10  1  0.55066431  0.97480834  0.35037624  1
  O  O11  1  0.05040061  0.72298401  0.84890611  1
  O  O12  1  0.74840217  0.87418622  0.74832685  1
  O  O13  1  0.25109500  0.62529902  0.24973572  1
  O  O14  1  0.35057339  0.57495408  0.95047011  1
  O  O15  1  0.05013551  0.22657509  0.84893932  1
  O  O16  1  0.55059833  0.47563128  0.34995158  1
  O  O17  1  0.14920596  0.17423896  0.54959997  1
  O  O18  1  0.35203852  0.07558196  0.94927263  1
  O  O19  1  0.14992356  0.67526548  0.54938913  1
loop_
_geom_bond_atom_site_label_1
_geom_bond_atom_site_label_2
_geom_bond_distance
_geom_bond_site_symmetry_2
Ce0 O12 2.335051 1_555
Ce0 O11 2.335587 1_655
Ce0 O5 2.352551 1_555
Ce0 O2 2.353322 1_555
Ce0 O19 2.354640 1_655
Ce0 O4 2.355989 1_555
Ce0 O0 2.361446 1_555
Ce0 O16 2.361639 1_555
Ce1 O1 2.336537 1_545
Ce1 O18 2.340963 1_554
Ce1 O8 2.344279 1_555
Ce1 O6 2.347809 1_555
Ce1 O7 2.353397 1_555
Ce1 O10 2.356142 1_545
Ce1 O16 2.362186 1_555
Ce1 O0 2.365592 1_555
Ce2 O15 2.344802 1_554
Ce2 O3 2.344802 1_455
Ce2 O11 2.345624 1_554
Ce2 O8 2.345624 1_455
Ce2 O14 2.353379 1_554
Ce2 O7 2.353379 1_455
Ce2 O13 2.353920 1_555
Ce2 O5 2.353920 1_454
Ce3 O15 2.333968 1_655
Ce3 O12 2.334211 1_545
Ce3 O5 2.349339 1_555
Ce3 O9 2.350564 1_555
Ce3 O4 2.351343 1_545
Ce3 O17 2.351354 1_655
Ce3 O0 2.357717 1_555
Ce3 O10 2.359770 1_545
Ce4 O6 2.335051 1_555
Ce4 O8 2.335587 1_455
Ce4 O13 2.352551 1_555
Ce4 O16 2.353322 1_555
Ce4 O0 2.354640 1_455
Ce4 O17 2.355989 1_555
Ce4 O19 2.361446 1_555
Ce4 O2 2.361639 1_555
Ce5 O1 2.332473 1_555
Ce5 O3 2.333285 1_555
Ce5 O7 2.348015 1_555
Ce5 O14 2.348255 1_554
Ce5 O10 2.351126 1_555
Ce5 O4 2.356348 1_555
Ce5 O13 2.357464 1_555
Ce5 O16 2.357877 1_555
Ce6 O18 2.332473 1_555
Ce6 O15 2.333285 1_555
Ce6 O14 2.348015 1_555
Ce6 O7 2.348255 1_556
Ce6 O9 2.351126 1_555
Ce6 O17 2.356348 1_555
Ce6 O5 2.357464 1_555
Ce6 O2 2.357877 1_555
Ce7 O3 2.333968 1_455
Ce7 O6 2.334211 1_565
Ce7 O13 2.349339 1_555
Ce7 O10 2.350564 1_555
Ce7 O17 2.351343 1_565
Ce7 O4 2.351354 1_455
Ce7 O19 2.357717 1_555
Ce7 O9 2.359770 1_565
Ce8 O18 2.336537 1_565
Ce8 O1 2.340963 1_556
Ce8 O11 2.344279 1_555
Ce8 O12 2.347809 1_555
Ce8 O14 2.353397 1_555
Ce8 O9 2.356142 1_565
Ce8 O2 2.362186 1_555
Ce8 O19 2.365592 1_555
O1 Y0 2.366319 1_665
O3 Y0 2.367869 1_665
O6 Y0 2.367638 1_555
O8 Y0 2.368194 1_655
O11 Y0 2.368194 1_566
O12 Y0 2.367638 1_666
O15 Y0 2.367869 1_556
O18 Y0 2.366319 1_556
