# generated using pymatgen
data_Na3Cr11Se20
_symmetry_space_group_name_H-M   'P 1'
_cell_length_a   12.96143723
_cell_length_b   12.96143723
_cell_length_c   19.46777889
_cell_angle_alpha   54.42716517
_cell_angle_beta   54.42716517
_cell_angle_gamma   16.32709830
_symmetry_Int_Tables_number   1
_chemical_formula_structural   Na3Cr11Se20
_chemical_formula_sum   'Na3 Cr11 Se20'
_cell_volume   743.89081905
_cell_formula_units_Z   1
loop_
 _symmetry_equiv_pos_site_id
 _symmetry_equiv_pos_as_xyz
  1  'x, y, z'
loop_
 _atom_site_type_symbol
 _atom_site_label
 _atom_site_symmetry_multiplicity
 _atom_site_fract_x
 _atom_site_fract_y
 _atom_site_fract_z
 _atom_site_occupancy
  Na  Na0  1  0.26472800  0.26472800  0.47506400  1
  Na  Na1  1  0.87304100  0.87304100  0.26500000  1
  Na  Na2  1  0.47198400  0.47198400  0.06054700  1
  Cr  Cr0  1  0.40571900  0.40571900  0.91227700  1
  Cr  Cr1  1  0.19304700  0.19304700  0.88946800  1
  Cr  Cr2  1  0.00704000  0.00704000  0.72484500  1
  Cr  Cr3  1  0.90073600  0.90073600  0.69836800  1
  Cr  Cr4  1  0.79099300  0.79099300  0.68126000  1
  Cr  Cr5  1  0.60459700  0.60459700  0.51199500  1
  Cr  Cr6  1  0.39493700  0.39493700  0.48631200  1
  Cr  Cr7  1  0.20650600  0.20650600  0.31830800  1
  Cr  Cr8  1  0.09167500  0.09167500  0.29976000  1
  Cr  Cr9  1  0.80564000  0.80564000  0.10813600  1
  Cr  Cr10  1  0.59491600  0.59491600  0.09151500  1
  Se  Se0  1  0.92262000  0.92262000  0.98682300  1
  Se  Se1  1  0.71112200  0.71112200  0.96112500  1
  Se  Se2  1  0.52450900  0.52450900  0.79210500  1
  Se  Se3  1  0.31504900  0.31504900  0.75871200  1
  Se  Se4  1  0.11885900  0.11885900  0.58921600  1
  Se  Se5  1  0.88588600  0.88588600  0.84080800  1
  Se  Se6  1  0.91362400  0.91362400  0.55888200  1
  Se  Se7  1  0.67979300  0.67979300  0.81040000  1
  Se  Se8  1  0.72327200  0.72327200  0.39132500  1
  Se  Se9  1  0.48552200  0.48552200  0.64224100  1
  Se  Se10  1  0.51479700  0.51479700  0.35103600  1
  Se  Se11  1  0.27713200  0.27713200  0.61107400  1
  Se  Se12  1  0.32244700  0.32244700  0.18739500  1
  Se  Se13  1  0.08776400  0.08776400  0.43683000  1
  Se  Se14  1  0.11898200  0.11898200  0.15510600  1
  Se  Se15  1  0.87589000  0.87589000  0.41680900  1
  Se  Se16  1  0.68491400  0.68491400  0.24257100  1
  Se  Se17  1  0.48394600  0.48394600  0.20795300  1
  Se  Se18  1  0.28622600  0.28622600  0.04046900  1
  Se  Se19  1  0.07982500  0.07982500  0.01308700  1
loop_
_geom_bond_atom_site_label_1
_geom_bond_atom_site_label_2
_geom_bond_distance
_geom_bond_site_symmetry_2
Na0 Se11 2.846542 1_555
Na0 Se15 3.001295 1_545
Na0 Se15 3.001295 1_455
Na0 Se4 3.028508 1_555
Na0 Se8 3.035623 1_545
Na0 Se8 3.035623 1_455
Na1 Se15 2.998931 1_555
Na1 Se17 3.000810 1_565
Na1 Se17 3.000810 1_655
Na1 Se12 3.108191 1_565
Na1 Se12 3.108191 1_655
Na1 Se8 3.115864 1_555
Na2 Se19 2.982198 1_565
Na2 Se19 2.982198 1_655
Na2 Se0 3.031299 1_454
Na2 Se0 3.031299 1_544
Na2 Se17 3.060152 1_555
Na2 Se12 3.111970 1_555
Cr0 Se2 2.526400 1_555
Cr0 Se5 2.532704 1_545
Cr0 Se5 2.532704 1_455
Cr0 Se0 2.534058 1_545
Cr0 Se0 2.534058 1_455
Cr0 Se18 2.575967 1_556
Cr1 Se19 2.452407 1_556
Cr1 Se1 2.511799 1_545
Cr1 Se1 2.511799 1_455
Cr1 Se7 2.547128 1_455
Cr1 Se7 2.547128 1_545
Cr1 Se3 2.629386 1_555
Cr2 Se2 2.448031 1_545
Cr2 Se2 2.448031 1_455
Cr2 Se4 2.509929 1_555
Cr2 Se5 2.551884 1_445
Cr2 Se9 2.705932 1_545
Cr2 Se9 2.705932 1_455
Cr3 Se6 2.535287 1_555
Cr3 Se9 2.553545 1_565
Cr3 Se9 2.553545 1_655
Cr3 Se3 2.562423 1_565
Cr3 Se3 2.562423 1_655
Cr3 Se5 2.567625 1_555
Cr4 Se11 2.439707 1_565
Cr4 Se11 2.439707 1_655
Cr4 Se7 2.455743 1_555
Cr4 Se6 2.601191 1_555
Cr4 Se3 2.671335 1_655
Cr4 Se3 2.671335 1_565
Cr5 Se8 2.526575 1_555
Cr5 Se4 2.535360 1_655
Cr5 Se4 2.535360 1_565
Cr5 Se13 2.541299 1_565
Cr5 Se13 2.541299 1_655
Cr5 Se9 2.580500 1_555
Cr6 Se15 2.496890 1_455
Cr6 Se15 2.496890 1_545
Cr6 Se11 2.531272 1_555
Cr6 Se6 2.531722 1_455
Cr6 Se6 2.531722 1_545
Cr6 Se10 2.621951 1_555
Cr7 Se8 2.512366 1_455
Cr7 Se8 2.512366 1_545
Cr7 Se13 2.518799 1_555
Cr7 Se12 2.536591 1_555
Cr7 Se16 2.613160 1_455
Cr7 Se16 2.613160 1_545
Cr8 Se10 2.441502 1_545
Cr8 Se10 2.441502 1_455
Cr8 Se14 2.470230 1_555
Cr8 Se13 2.610732 1_555
Cr8 Se16 2.687070 1_455
Cr8 Se16 2.687070 1_545
Cr9 Se18 2.478378 1_565
Cr9 Se18 2.478378 1_655
Cr9 Se0 2.501095 1_554
Cr9 Se12 2.595474 1_565
Cr9 Se12 2.595474 1_655
Cr9 Se16 2.629958 1_555
Cr10 Se17 2.379052 1_555
Cr10 Se14 2.489981 1_565
Cr10 Se14 2.489981 1_655
Cr10 Se1 2.537385 1_554
Cr10 Se19 2.561944 1_655
Cr10 Se19 2.561944 1_565
