# generated using pymatgen
data_Pr(HO)3
_symmetry_space_group_name_H-M   'P 1'
_cell_length_a   3.77059100
_cell_length_b   6.56126700
_cell_length_c   6.59709241
_cell_angle_alpha   60.78916714
_cell_angle_beta   90.00000000
_cell_angle_gamma   90.00000000
_symmetry_Int_Tables_number   1
_chemical_formula_structural   Pr(HO)3
_chemical_formula_sum   'Pr2 H6 O6'
_cell_volume   142.45551989
_cell_formula_units_Z   2
loop_
 _symmetry_equiv_pos_site_id
 _symmetry_equiv_pos_as_xyz
  1  'x, y, z'
loop_
 _atom_site_type_symbol
 _atom_site_label
 _atom_site_symmetry_multiplicity
 _atom_site_fract_x
 _atom_site_fract_y
 _atom_site_fract_z
 _atom_site_occupancy
  Pr  Pr0  1  0.00000000  0.66545700  0.66469400  1
  Pr  Pr1  1  0.50000000  0.33953700  0.32405600  1
  H  H0  1  0.00000000  0.14026700  0.14110200  1
  H  H1  1  0.00000000  0.14138000  0.68821900  1
  H  H2  1  0.00000000  0.71810000  0.14000700  1
  H  H3  1  0.50000000  0.86407000  0.85372700  1
  H  H4  1  0.50000000  0.85885900  0.28553700  1
  H  H5  1  0.50000000  0.28037000  0.85754200  1
  O  O0  1  0.00000000  0.08862500  0.30700200  1
  O  O1  1  0.00000000  0.31017700  0.59240200  1
  O  O2  1  0.00000000  0.60778900  0.08168200  1
  O  O3  1  0.50000000  0.91216100  0.68860400  1
  O  O4  1  0.50000000  0.69214500  0.39405800  1
  O  O5  1  0.50000000  0.39666000  0.90842000  1
loop_
_geom_bond_atom_site_label_1
_geom_bond_atom_site_label_2
_geom_bond_distance
_geom_bond_site_symmetry_2
H0 O0 0.975032 1_555
H1 O1 0.971010 1_555
H2 O2 0.971459 1_555
H3 O3 0.975046 1_555
H4 O4 0.971959 1_555
H5 O5 0.972014 1_555
O0 Pr1 2.541277 1_455
O0 Pr1 2.541277 1_555
O0 Pr0 2.623444 1_545
O1 Pr1 2.528352 1_555
O1 Pr1 2.528352 1_455
O1 Pr0 2.597407 1_555
O2 Pr1 2.542045 1_555
O2 Pr1 2.542045 1_455
O2 Pr0 2.587415 1_554
O3 Pr0 2.539408 1_555
O3 Pr0 2.539408 1_655
O3 Pr1 2.657943 1_565
O4 Pr0 2.543136 1_555
O4 Pr0 2.543136 1_655
O4 Pr1 2.570727 1_555
O5 Pr0 2.546028 1_555
O5 Pr0 2.546028 1_655
O5 Pr1 2.579903 1_556
