# generated using pymatgen
data_AlH15N5Cl3
_symmetry_space_group_name_H-M   'P 1'
_cell_length_a   6.78633800
_cell_length_b   10.69876900
_cell_length_c   13.65230400
_cell_angle_alpha   90.00000000
_cell_angle_beta   90.00000000
_cell_angle_gamma   90.00000000
_symmetry_Int_Tables_number   1
_chemical_formula_structural   AlH15N5Cl3
_chemical_formula_sum   'Al4 H60 N20 Cl12'
_cell_volume   991.23184772
_cell_formula_units_Z   4
loop_
 _symmetry_equiv_pos_site_id
 _symmetry_equiv_pos_as_xyz
  1  'x, y, z'
loop_
 _atom_site_type_symbol
 _atom_site_label
 _atom_site_symmetry_multiplicity
 _atom_site_fract_x
 _atom_site_fract_y
 _atom_site_fract_z
 _atom_site_occupancy
  Al  Al0  1  0.32282800  0.25000000  0.60130700  1
  Al  Al1  1  0.17717200  0.25000000  0.10130700  1
  Al  Al2  1  0.67717200  0.75000000  0.39869300  1
  Al  Al3  1  0.82282800  0.75000000  0.89869300  1
  H  H0  1  0.49152500  0.25000000  0.77305000  1
  H  H1  1  0.00847500  0.25000000  0.27305000  1
  H  H2  1  0.50847500  0.75000000  0.22695000  1
  H  H3  1  0.99152500  0.75000000  0.72695000  1
  H  H4  1  0.63145900  0.17223300  0.69554200  1
  H  H5  1  0.86854100  0.32776700  0.19554200  1
  H  H6  1  0.36854100  0.67223300  0.30445800  1
  H  H7  1  0.13145900  0.82776700  0.80445800  1
  H  H8  1  0.36854100  0.82776700  0.30445800  1
  H  H9  1  0.13145900  0.67223300  0.80445800  1
  H  H10  1  0.63145900  0.32776700  0.69554200  1
  H  H11  1  0.86854100  0.17223300  0.19554200  1
  H  H12  1  0.95671100  0.25000000  0.53246600  1
  H  H13  1  0.54328900  0.25000000  0.03246600  1
  H  H14  1  0.04328900  0.75000000  0.46753400  1
  H  H15  1  0.45671100  0.75000000  0.96753400  1
  H  H16  1  0.39484800  0.17284900  0.95815800  1
  H  H17  1  0.10515200  0.32715100  0.45815800  1
  H  H18  1  0.60515200  0.67284900  0.04184200  1
  H  H19  1  0.89484800  0.82715100  0.54184200  1
  H  H20  1  0.60515200  0.82715100  0.04184200  1
  H  H21  1  0.89484800  0.67284900  0.54184200  1
  H  H22  1  0.39484800  0.32715100  0.95815800  1
  H  H23  1  0.10515200  0.17284900  0.45815800  1
  H  H24  1  0.16741200  0.25000000  0.78367400  1
  H  H25  1  0.33258800  0.25000000  0.28367400  1
  H  H26  1  0.83258800  0.75000000  0.21632600  1
  H  H27  1  0.66741200  0.75000000  0.71632600  1
  H  H28  1  0.02690400  0.17285700  0.70718700  1
  H  H29  1  0.47309600  0.32714300  0.20718700  1
  H  H30  1  0.97309600  0.67285700  0.29281300  1
  H  H31  1  0.52690400  0.82714300  0.79281300  1
  H  H32  1  0.97309600  0.82714300  0.29281300  1
  H  H33  1  0.52690400  0.67285700  0.79281300  1
  H  H34  1  0.02690400  0.32714300  0.70718700  1
  H  H35  1  0.47309600  0.17285700  0.20718700  1
  H  H36  1  0.28240300  0.02309300  0.53400700  1
  H  H37  1  0.21759700  0.47690700  0.03400700  1
  H  H38  1  0.71759700  0.52309300  0.46599300  1
  H  H39  1  0.78240300  0.97690700  0.96599300  1
  H  H40  1  0.71759700  0.97690700  0.46599300  1
  H  H41  1  0.78240300  0.52309300  0.96599300  1
  H  H42  1  0.28240300  0.47690700  0.53400700  1
  H  H43  1  0.21759700  0.02309300  0.03400700  1
  H  H44  1  0.46458000  0.02404100  0.61322500  1
  H  H45  1  0.03542000  0.47595900  0.11322500  1
  H  H46  1  0.53542000  0.52404100  0.38677500  1
  H  H47  1  0.96458000  0.97595900  0.88677500  1
  H  H48  1  0.53542000  0.97595900  0.38677500  1
  H  H49  1  0.96458000  0.52404100  0.88677500  1
  H  H50  1  0.46458000  0.47595900  0.61322500  1
  H  H51  1  0.03542000  0.02404100  0.11322500  1
  H  H52  1  0.23496600  0.02095400  0.65199600  1
  H  H53  1  0.26503400  0.47904600  0.15199600  1
  H  H54  1  0.76503400  0.52095400  0.34800400  1
  H  H55  1  0.73496600  0.97904600  0.84800400  1
  H  H56  1  0.76503400  0.97904600  0.34800400  1
  H  H57  1  0.73496600  0.52095400  0.84800400  1
  H  H58  1  0.23496600  0.47904600  0.65199600  1
  H  H59  1  0.26503400  0.02095400  0.15199600  1
  N  N0  1  0.54254400  0.25000000  0.70258200  1
  N  N1  1  0.95745600  0.25000000  0.20258200  1
  N  N2  1  0.45745600  0.75000000  0.29741800  1
  N  N3  1  0.04254400  0.75000000  0.79741800  1
  N  N4  1  0.09609800  0.25000000  0.50369100  1
  N  N5  1  0.40390200  0.25000000  0.00369100  1
  N  N6  1  0.90390200  0.75000000  0.49630900  1
  N  N7  1  0.59609800  0.75000000  0.99630900  1
  N  N8  1  0.11787800  0.25000000  0.71283000  1
  N  N9  1  0.38212200  0.25000000  0.21283000  1
  N  N10  1  0.88212200  0.75000000  0.28717000  1
  N  N11  1  0.61787800  0.75000000  0.78717000  1
  N  N12  1  0.32591900  0.05981200  0.60023200  1
  N  N13  1  0.17408100  0.44018800  0.10023200  1
  N  N14  1  0.67408100  0.55981200  0.39976800  1
  N  N15  1  0.82591900  0.94018800  0.89976800  1
  N  N16  1  0.67408100  0.94018800  0.39976800  1
  N  N17  1  0.82591900  0.55981200  0.89976800  1
  N  N18  1  0.32591900  0.44018800  0.60023200  1
  N  N19  1  0.17408100  0.05981200  0.10023200  1
  Cl  Cl0  1  0.95351100  0.25000000  0.97345000  1
  Cl  Cl1  1  0.54648900  0.25000000  0.47345000  1
  Cl  Cl2  1  0.04648900  0.75000000  0.02655000  1
  Cl  Cl3  1  0.45351100  0.75000000  0.52655000  1
  Cl  Cl4  1  0.33447700  0.00087800  0.85210300  1
  Cl  Cl5  1  0.16552300  0.49912200  0.35210300  1
  Cl  Cl6  1  0.66552300  0.50087800  0.14789700  1
  Cl  Cl7  1  0.83447700  0.99912200  0.64789700  1
  Cl  Cl8  1  0.66552300  0.99912200  0.14789700  1
  Cl  Cl9  1  0.83447700  0.50087800  0.64789700  1
  Cl  Cl10  1  0.33447700  0.49912200  0.85210300  1
  Cl  Cl11  1  0.16552300  0.00087800  0.35210300  1
loop_
_geom_bond_atom_site_label_1
_geom_bond_atom_site_label_2
_geom_bond_distance
_geom_bond_site_symmetry_2
Al0 N0 2.033462 1_555
Al0 N18 2.034939 1_555
Al0 N12 2.034939 1_555
Al0 N4 2.035569 1_555
Al0 N8 2.062192 1_555
Al0 Cl1 2.313170 1_555
Al1 N1 2.033462 1_455
Al1 N13 2.034939 1_555
Al1 N19 2.034939 1_555
Al1 N5 2.035569 1_555
Al1 N9 2.062192 1_555
Al1 Cl0 2.313170 1_454
Al2 N2 2.033462 1_555
Al2 N16 2.034939 1_555
Al2 N14 2.034939 1_555
Al2 N6 2.035569 1_555
Al2 N10 2.062192 1_555
Al2 Cl3 2.313170 1_555
Al3 N3 2.033462 1_655
Al3 N15 2.034939 1_555
Al3 N17 2.034939 1_555
Al3 N7 2.035569 1_555
Al3 N11 2.062192 1_555
Al3 Cl2 2.313170 1_656
H0 N0 1.022457 1_555
H1 N1 1.022457 1_455
H2 N2 1.022457 1_555
H3 N3 1.022457 1_655
H4 N0 1.032270 1_555
H5 N1 1.032270 1_555
H6 N2 1.032270 1_555
H7 N3 1.032270 1_555
H8 N2 1.032270 1_555
H9 N3 1.032270 1_555
H10 N0 1.032270 1_555
H11 N1 1.032270 1_555
H12 N4 1.024259 1_655
H13 N5 1.024259 1_555
H14 N6 1.024259 1_455
H15 N7 1.024259 1_555
H16 N5 1.035142 1_556
H17 N4 1.035142 1_555
H18 N7 1.035142 1_554
H19 N6 1.035142 1_555
H20 N7 1.035142 1_554
H21 N6 1.035142 1_555
H22 N5 1.035142 1_556
H23 N4 1.035142 1_555
H24 N8 1.023936 1_555
H25 N9 1.023936 1_555
H26 N10 1.023936 1_555
H27 N11 1.023936 1_555
H28 N8 1.033572 1_555
H29 N9 1.033572 1_555
H30 N10 1.033572 1_555
H31 N11 1.033572 1_555
H32 N10 1.033572 1_555
H33 N11 1.033572 1_555
H34 N8 1.033572 1_555
H35 N9 1.033572 1_555
H36 N12 1.029068 1_555
H37 N13 1.029068 1_555
H38 N14 1.029068 1_555
H39 N15 1.029068 1_555
H40 N16 1.029068 1_555
H41 N17 1.029068 1_555
H42 N18 1.029068 1_555
H43 N19 1.029068 1_555
H44 N12 1.031218 1_555
H45 N13 1.031218 1_555
H46 N14 1.031218 1_555
H47 N15 1.031218 1_555
H48 N16 1.031218 1_555
H49 N17 1.031218 1_555
H50 N18 1.031218 1_555
H51 N19 1.031218 1_555
H52 N12 1.026274 1_555
H53 N13 1.026274 1_555
H54 N14 1.026274 1_555
H55 N15 1.026274 1_555
H56 N16 1.026274 1_555
H57 N17 1.026274 1_555
H58 N18 1.026274 1_555
H59 N19 1.026274 1_555
