# generated using pymatgen
data_Na20Zr11Si10(PO9)8
_symmetry_space_group_name_H-M   'P 1'
_cell_length_a   9.17132600
_cell_length_b   9.18860843
_cell_length_c   23.24309605
_cell_angle_alpha   89.92342156
_cell_angle_beta   89.87051487
_cell_angle_gamma   60.14963788
_symmetry_Int_Tables_number   1
_chemical_formula_structural   Na20Zr11Si10(PO9)8
_chemical_formula_sum   'Na20 Zr11 Si10 P8 O72'
_cell_volume   1698.86254132
_cell_formula_units_Z   1
loop_
 _symmetry_equiv_pos_site_id
 _symmetry_equiv_pos_as_xyz
  1  'x, y, z'
loop_
 _atom_site_type_symbol
 _atom_site_label
 _atom_site_symmetry_multiplicity
 _atom_site_fract_x
 _atom_site_fract_y
 _atom_site_fract_z
 _atom_site_occupancy
  Na  Na0  1  0.16848700  0.31681800  0.89144600  1
  Na  Na1  1  0.55099500  0.36274400  0.77884200  1
  Na  Na2  1  0.80274600  0.33326500  0.68247800  1
  Na  Na3  1  0.49002000  0.68748600  0.90449700  1
  Na  Na4  1  0.52902100  0.67590200  0.56806000  1
  Na  Na5  1  0.85697200  0.55529500  0.76852300  1
  Na  Na6  1  0.18071600  0.68249500  0.83234200  1
  Na  Na7  1  0.81223400  0.98218900  0.94098600  1
  Na  Na8  1  0.81869500  0.01851700  0.58224000  1
  Na  Na9  1  0.86437100  0.00851900  0.23763000  1
  Na  Na10  1  0.07200900  0.07157400  0.76871400  1
  Na  Na11  1  0.19415700  0.97019600  0.41510200  1
  Na  Na12  1  0.24497700  0.01101500  0.04032500  1
  Na  Na13  1  0.52140200  0.03259000  0.49368200  1
  Na  Na14  1  0.11908900  0.32012800  0.62318000  1
  Na  Na15  1  0.13989900  0.35041500  0.24965400  1
  Na  Na16  1  0.51432100  0.28123100  0.06112500  1
  Na  Na17  1  0.84593700  0.33637000  0.16054800  1
  Na  Na18  1  0.18267000  0.66933900  0.33367500  1
  Na  Na19  1  0.80337200  0.67720700  0.08635600  1
  Zr  Zr0  1  0.17335900  0.65816300  0.98669900  1
  Zr  Zr1  1  0.16392700  0.66690100  0.47544300  1
  Zr  Zr2  1  0.16462400  0.66294100  0.68856600  1
  Zr  Zr3  1  0.50892700  0.99707500  0.64426300  1
  Zr  Zr4  1  0.49492000  0.99828500  0.84929200  1
  Zr  Zr5  1  0.49480300  0.00466100  0.15115300  1
  Zr  Zr6  1  0.50263900  0.98704800  0.35537700  1
  Zr  Zr7  1  0.82877400  0.33802800  0.31610100  1
  Zr  Zr8  1  0.82829700  0.33515000  0.51517700  1
  Zr  Zr9  1  0.83826100  0.32207000  0.01376100  1
  Zr  Zr10  1  0.16767400  0.66812300  0.18738400  1
  Si  Si0  1  0.52128100  0.34127600  0.91558900  1
  Si  Si1  1  0.22948000  0.29478600  0.74249400  1
  Si  Si2  1  0.47649000  0.72560300  0.74772000  1
  Si  Si3  1  0.87844800  0.66378700  0.58098700  1
  Si  Si4  1  0.13854400  0.01854300  0.91435300  1
  Si  Si5  1  0.53675000  0.62990300  0.41681700  1
  Si  Si6  1  0.83024700  0.04208400  0.41898600  1
  Si  Si7  1  0.20595500  0.99451800  0.25719300  1
  Si  Si8  1  0.87423300  0.97069200  0.08767200  1
  Si  Si9  1  0.15656000  0.38203400  0.09446800  1
  P  P0  1  0.84201100  0.62884300  0.91564900  1
  P  P1  1  0.78923000  0.98280900  0.73968700  1
  P  P2  1  0.16693100  0.95826100  0.57820700  1
  P  P3  1  0.45919800  0.38093500  0.58086100  1
  P  P4  1  0.12501200  0.33292000  0.41150000  1
  P  P5  1  0.49838800  0.28920800  0.25162700  1
  P  P6  1  0.79487800  0.70463800  0.24934100  1
  P  P7  1  0.46379000  0.66023700  0.08711800  1
  O  O0  1  0.03781500  0.13478700  0.97410900  1
  O  O1  1  0.30789700  0.19397800  0.80335500  1
  O  O2  1  0.55766600  0.15308800  0.89674500  1
  O  O3  1  0.64797900  0.30542600  0.97375200  1
  O  O4  1  0.36820100  0.48392500  0.63498400  1
  O  O5  1  0.32072900  0.45284200  0.93694000  1
  O  O6  1  0.54383400  0.45060800  0.86746000  1
  O  O7  1  0.05484100  0.30788500  0.72285200  1
  O  O8  1  0.63928800  0.53424300  0.47562900  1
  O  O9  1  0.62905900  0.54049700  0.73709800  1
  O  O10  1  0.28995200  0.74086500  0.74240400  1
  O  O11  1  0.86722400  0.49195300  0.57048400  1
  O  O12  1  0.80551700  0.52265500  0.96068100  1
  O  O13  1  0.18969300  0.82026700  0.92771000  1
  O  O14  1  0.92378300  0.53387500  0.86091400  1
  O  O15  1  0.47444400  0.80925700  0.81042500  1
  O  O16  1  0.21420700  0.48209400  0.74987400  1
  O  O17  1  0.48640500  0.84577700  0.69640800  1
  O  O18  1  0.99019900  0.63167500  0.63947700  1
  O  O19  1  0.96580600  0.67375200  0.94612300  1
  O  O20  1  0.68732800  0.81192300  0.30062600  1
  O  O21  1  0.67774900  0.79618100  0.90623000  1
  O  O22  1  0.68505000  0.82476600  0.58129500  1
  O  O23  1  0.31755200  0.02283200  0.91289400  1
  O  O24  1  0.97699500  0.70215900  0.52918600  1
  O  O25  1  0.67506100  0.96485000  0.78442400  1
  O  O26  1  0.34816600  0.65242400  0.41624100  1
  O  O27  1  0.96725200  0.82336900  0.74572900  1
  O  O28  1  0.98706000  0.87228800  0.14562000  1
  O  O29  1  0.00519700  0.85904700  0.41942400  1
  O  O30  1  0.66618500  0.02300300  0.40628400  1
  O  O31  1  0.72805500  0.97733200  0.67692500  1
  O  O32  1  0.18487600  0.82821400  0.24705900  1
  O  O33  1  0.13581900  0.86287600  0.62685000  1
  O  O34  1  0.48085800  0.20236600  0.57875100  1
  O  O35  1  0.19833100  0.86101900  0.52026000  1
  O  O36  1  0.80662500  0.13741800  0.48110300  1
  O  O37  1  0.51245200  0.82021800  0.41658000  1
  O  O38  1  0.85990200  0.15035700  0.36778100  1
  O  O39  1  0.79677700  0.14294700  0.74494400  1
  O  O40  1  0.29777000  0.97829000  0.31879700  1
  O  O41  1  0.32252800  0.97990600  0.58816500  1
  O  O42  1  0.00851100  0.13724900  0.57516500  1
  O  O43  1  0.02144300  0.09018800  0.86026400  1
  O  O44  1  0.01520800  0.16317900  0.25356800  1
  O  O45  1  0.63995200  0.36114300  0.58032800  1
  O  O46  1  0.32089600  0.01949900  0.20784800  1
  O  O47  1  0.01930600  0.30618800  0.45847600  1
  O  O48  1  0.68920600  0.98132300  0.09409200  1
  O  O49  1  0.30156300  0.17335200  0.41243300  1
  O  O50  1  0.31652600  0.18712800  0.09783000  1
  O  O51  1  0.36064100  0.20537700  0.68846500  1
  O  O52  1  0.98679700  0.37961200  0.07428600  1
  O  O53  1  0.03815200  0.35446800  0.35222600  1
  O  O54  1  0.47167500  0.19072200  0.30014400  1
  O  O55  1  0.82683700  0.52205600  0.25112000  1
  O  O56  1  0.52985300  0.18949400  0.19431600  1
  O  O57  1  0.11721800  0.48129100  0.15697000  1
  O  O58  1  0.84274200  0.16264400  0.08312000  1
  O  O59  1  0.21116000  0.48499100  0.05104500  1
  O  O60  1  0.13989000  0.48996600  0.42349100  1
  O  O61  1  0.65976800  0.30175500  0.26045200  1
  O  O62  1  0.33792100  0.46423600  0.24808200  1
  O  O63  1  0.35941600  0.48055800  0.52703500  1
  O  O64  1  0.96776300  0.70056300  0.25211100  1
  O  O65  1  0.37433800  0.62303700  0.13741900  1
  O  O66  1  0.64362300  0.51140100  0.08024100  1
  O  O67  1  0.64572900  0.52267800  0.36083400  1
  O  O68  1  0.36125100  0.69819200  0.03139300  1
  O  O69  1  0.47405500  0.82092900  0.10086700  1
  O  O70  1  0.70494300  0.79051600  0.19262700  1
  O  O71  1  0.97376700  0.86181100  0.03157500  1
loop_
_geom_bond_atom_site_label_1
_geom_bond_atom_site_label_2
_geom_bond_distance
_geom_bond_site_symmetry_2
Na0 O14 2.250726 1_455
Na0 O1 2.378820 1_555
Na0 O23 2.395380 1_555
Na0 O5 2.525335 1_555
Na1 O6 2.202220 1_555
Na1 O39 2.290229 1_555
Na1 O9 2.297468 1_555
Na1 O16 2.798580 1_555
Na2 O9 2.180110 1_555
Na2 O39 2.292886 1_555
Na2 O7 2.398550 1_655
Na2 O45 2.750575 1_555
Na3 O6 2.157745 1_555
Na3 O21 2.382370 1_555
Na3 O15 2.426727 1_555
Na3 O13 2.452769 1_555
Na3 O23 2.680141 1_565
Na3 O12 2.832128 1_555
Na4 O22 2.442342 1_555
Na4 O8 2.453532 1_555
Na4 O41 2.518164 1_555
Na4 O45 2.559519 1_555
Na4 O11 2.694920 1_555
Na4 O35 2.863679 1_555
Na5 O14 2.215968 1_555
Na5 O9 2.282827 1_555
Na5 O7 2.340753 1_655
Na6 O10 2.486705 1_555
Na6 O16 2.569635 1_555
Na6 O13 2.575844 1_555
Na6 O27 2.655047 1_455
Na7 O2 2.308921 1_565
Na7 O19 2.460971 1_555
Na7 O71 2.495651 1_556
Na7 O21 2.683623 1_555
Na7 O3 2.686577 1_565
Na8 O31 2.445469 1_545
Na8 O42 2.477251 1_655
Na8 O36 2.570169 1_555
Na8 O22 2.616251 1_545
Na8 O34 2.692730 1_555
Na8 O33 2.729192 1_645
Na8 O45 2.731882 1_555
Na8 O24 2.806909 1_545
Na9 O28 2.449651 1_545
Na9 O61 2.455337 1_555
Na9 O44 2.455864 1_655
Na9 O64 2.519404 1_545
Na9 O32 2.566573 1_645
Na9 O56 2.849929 1_555
Na10 O43 2.165608 1_555
Na10 O39 2.337632 1_455
Na10 O7 2.351631 1_555
Na10 O10 2.748873 1_545
Na11 O29 2.411919 1_555
Na11 O40 2.445279 1_555
Na11 O49 2.507737 1_565
Na11 O26 2.532957 1_555
Na11 O37 2.533299 1_555
Na11 O35 2.633930 1_555
Na11 O47 2.862157 1_565
Na11 O38 2.882081 1_465
Na12 O0 2.264837 1_554
Na12 O69 2.408046 1_545
Na12 O50 2.429523 1_555
Na12 O68 2.528190 1_545
Na13 O30 2.401954 1_555
Na13 O34 2.430831 1_555
Na13 O49 2.592118 1_555
Na13 O37 2.682492 1_545
Na13 O22 2.682622 1_545
Na14 O11 2.388686 1_455
Na14 O7 2.405413 1_555
Na14 O51 2.451071 1_555
Na14 O18 2.523494 1_455
Na14 O42 2.608512 1_555
Na14 O41 2.847812 1_545
Na15 O57 2.424123 1_555
Na15 O55 2.494837 1_455
Na15 O44 2.496724 1_555
Na15 O62 2.506764 1_555
Na15 O53 2.551792 1_555
Na15 O64 2.791210 1_455
Na15 O46 2.814491 1_555
Na15 O54 2.890669 1_555
Na16 O3 2.436210 1_554
Na16 O59 2.471952 1_555
Na16 O50 2.513712 1_555
Na16 O48 2.520662 1_545
Na16 O58 2.694331 1_555
Na16 O66 2.928869 1_555
Na17 O58 2.417088 1_555
Na17 O52 2.518722 1_555
Na17 O66 2.559403 1_555
Na17 O55 2.661570 1_555
Na17 O44 2.676520 1_655
Na17 O61 2.988176 1_555
Na18 O26 2.405901 1_555
Na18 O32 2.491179 1_555
Na18 O29 2.613505 1_555
Na18 O62 2.619728 1_555
Na18 O64 2.648330 1_455
Na18 O60 2.803459 1_555
Na19 O52 2.409716 1_555
Na19 O48 2.454626 1_555
Na19 O66 2.590643 1_555
Na19 O69 2.646859 1_555
Na19 O70 2.657314 1_555
O0 Si4 1.714436 1_555
O0 Zr9 2.005424 1_456
O1 Si1 1.647502 1_555
O1 Zr4 2.061133 1_545
O2 Si0 1.649311 1_555
O2 Zr4 2.095917 1_545
O3 Si0 1.706224 1_555
O3 Zr9 2.051115 1_556
O4 P3 1.544931 1_555
O4 Zr2 2.163431 1_555
O5 Si0 1.673474 1_555
O5 Zr0 2.045506 1_555
O6 Si0 1.583111 1_555
O7 Si1 1.612302 1_555
O8 Si5 1.644789 1_555
O8 Zr8 2.010573 1_555
O9 Si2 1.594431 1_555
O10 Si2 1.650409 1_555
O10 Zr2 2.056193 1_555
O11 Si3 1.651092 1_555
O11 Zr8 2.091643 1_555
O12 P0 1.574922 1_555
O12 Zr9 2.110432 1_556
O13 Si4 1.668549 1_565
O13 Zr0 2.082474 1_555
O14 P0 1.513148 1_555
O15 Si2 1.644352 1_555
O15 Zr4 2.048872 1_555
O16 Si1 1.664909 1_555
O16 Zr2 2.059877 1_555
O17 Si2 1.657093 1_555
O17 Zr3 1.929914 1_555
O18 Si3 1.640087 1_555
O18 Zr2 2.100016 1_655
O19 P0 1.559436 1_555
O19 Zr0 2.066338 1_655
O20 P6 1.547745 1_555
O20 Zr6 2.088149 1_555
O21 P0 1.541549 1_555
O21 Zr4 2.217062 1_555
O22 Si3 1.649936 1_555
O22 Zr3 2.169699 1_555
O23 Si4 1.661977 1_555
O23 Zr4 2.123016 1_545
O24 Si3 1.643779 1_555
O24 Zr1 2.010735 1_655
O25 P1 1.539959 1_555
O25 Zr4 2.140535 1_555
O26 Si5 1.636522 1_555
O26 Zr1 2.128976 1_555
O27 P1 1.565600 1_555
O27 Zr2 2.133788 1_655
O28 Si8 1.665558 1_555
O28 Zr10 2.028420 1_655
O29 Si6 1.648304 1_465
O29 Zr1 2.091795 1_555
O30 Si6 1.626863 1_555
O30 Zr6 2.064307 1_545
O31 P1 1.573966 1_555
O31 Zr3 2.071645 1_555
O32 Si7 1.650212 1_555
O32 Zr10 2.085688 1_555
O33 P2 1.540366 1_555
O33 Zr2 2.239209 1_555
O34 P3 1.552351 1_555
O34 Zr3 2.335349 1_545
O35 P2 1.562266 1_555
O35 Zr1 2.221007 1_555
O36 Si6 1.646775 1_555
O36 Zr8 2.081311 1_555
O37 Si5 1.649180 1_555
O37 Zr6 2.058894 1_555
O38 Si6 1.656795 1_555
O38 Zr7 2.001002 1_555
O39 P1 1.512210 1_545
O40 Si7 1.631392 1_555
O40 Zr6 2.101817 1_555
O41 P2 1.553607 1_555
O41 Zr3 2.219594 1_555
O42 P2 1.562779 1_545
O42 Zr8 2.234789 1_455
O43 Si4 1.570801 1_555
O44 Si7 1.664542 1_545
O44 Zr7 2.208556 1_455
O45 P3 1.575174 1_555
O45 Zr8 2.216404 1_555
O46 Si7 1.647454 1_545
O46 Zr5 2.018291 1_555
O47 P4 1.556894 1_555
O47 Zr8 2.098319 1_455
O48 Si8 1.656896 1_555
O48 Zr5 2.143200 1_565
O49 P4 1.552029 1_555
O49 Zr6 2.223155 1_545
O50 Si9 1.658449 1_555
O50 Zr5 2.072478 1_555
O51 Si1 1.646554 1_555
O51 Zr3 1.994044 1_545
O52 Si9 1.637823 1_655
O52 Zr9 2.200468 1_555
O53 P4 1.555350 1_555
O53 Zr7 2.170642 1_455
O54 P5 1.538621 1_555
O54 Zr6 2.167339 1_545
O55 P6 1.553245 1_555
O55 Zr7 2.259257 1_555
O56 P5 1.560618 1_555
O56 Zr5 2.131604 1_555
O57 Si9 1.657116 1_555
O57 Zr10 2.111055 1_555
O58 Si8 1.642572 1_545
O58 Zr9 2.163472 1_555
O59 Si9 1.622077 1_555
O59 Zr0 2.082256 1_554
O60 P4 1.541397 1_555
O60 Zr1 2.124413 1_555
O61 P5 1.554757 1_555
O61 Zr7 2.170514 1_555
O62 P5 1.550233 1_555
O62 Zr10 2.242556 1_555
O63 P3 1.552039 1_555
O63 Zr1 2.128958 1_555
O64 P6 1.568751 1_555
O64 Zr10 2.271226 1_655
O65 P7 1.559022 1_555
O65 Zr10 2.079061 1_555
O66 P7 1.539513 1_555
O66 Zr9 2.346057 1_555
O67 Si5 1.637106 1_555
O67 Zr7 1.984794 1_555
O68 P7 1.536692 1_555
O68 Zr0 2.196359 1_554
O69 P7 1.559141 1_555
O69 Zr5 2.139753 1_565
O70 P6 1.547546 1_555
O70 Zr5 2.177994 1_565
O71 Si8 1.619652 1_555
O71 Zr0 2.127692 1_654
