# generated using pymatgen
data_Cs3Sb2N3(O3F2)3
_symmetry_space_group_name_H-M   'P 1'
_cell_length_a   11.87084470
_cell_length_b   11.87084470
_cell_length_c   9.98315342
_cell_angle_alpha   89.69933735
_cell_angle_beta   89.69933735
_cell_angle_gamma   37.64692049
_symmetry_Int_Tables_number   1
_chemical_formula_structural   Cs3Sb2N3(O3F2)3
_chemical_formula_sum   'Cs6 Sb4 N6 O18 F12'
_cell_volume   859.24877712
_cell_formula_units_Z   2
loop_
 _symmetry_equiv_pos_site_id
 _symmetry_equiv_pos_as_xyz
  1  'x, y, z'
loop_
 _atom_site_type_symbol
 _atom_site_label
 _atom_site_symmetry_multiplicity
 _atom_site_fract_x
 _atom_site_fract_y
 _atom_site_fract_z
 _atom_site_occupancy
  Cs  Cs0  1  0.44387300  0.18100600  0.34045300  1
  Cs  Cs1  1  0.55612700  0.81899400  0.65954700  1
  Cs  Cs2  1  0.18100600  0.44387300  0.84045300  1
  Cs  Cs3  1  0.50000000  0.50000000  0.50000000  1
  Cs  Cs4  1  0.81899400  0.55612700  0.15954700  1
  Cs  Cs5  1  0.50000000  0.50000000  0.00000000  1
  Sb  Sb0  1  0.26363900  0.96403600  0.28280600  1
  Sb  Sb1  1  0.03596400  0.73636100  0.21719400  1
  Sb  Sb2  1  0.96403600  0.26363900  0.78280600  1
  Sb  Sb3  1  0.73636100  0.03596400  0.71719400  1
  N  N0  1  0.11635700  0.88364300  0.75000000  1
  N  N1  1  0.05060500  0.32103700  0.50465600  1
  N  N2  1  0.88364300  0.11635700  0.25000000  1
  N  N3  1  0.94939500  0.67896300  0.49534400  1
  N  N4  1  0.32103700  0.05060500  0.00465600  1
  N  N5  1  0.67896300  0.94939500  0.99534400  1
  O  O0  1  0.24176800  0.84949600  0.79057300  1
  O  O1  1  0.09756200  0.28620500  0.38085200  1
  O  O2  1  0.28620500  0.09756200  0.88085200  1
  O  O3  1  0.15050400  0.75823200  0.70942700  1
  O  O4  1  0.16366400  0.26207700  0.59315400  1
  O  O5  1  0.05355400  0.94644600  0.25000000  1
  O  O6  1  0.58735600  0.10925300  0.96272600  1
  O  O7  1  0.84949600  0.24176800  0.29057300  1
  O  O8  1  0.83633600  0.73792300  0.40684600  1
  O  O9  1  0.75823200  0.15050400  0.20942700  1
  O  O10  1  0.26207700  0.16366400  0.09315400  1
  O  O11  1  0.41264400  0.89074700  0.03727400  1
  O  O12  1  0.90243800  0.71379500  0.61914800  1
  O  O13  1  0.73792300  0.83633600  0.90684600  1
  O  O14  1  0.10925300  0.58735600  0.46272600  1
  O  O15  1  0.89074700  0.41264400  0.53727400  1
  O  O16  1  0.94644600  0.05355400  0.75000000  1
  O  O17  1  0.71379500  0.90243800  0.11914800  1
  F  F0  1  0.92085800  0.25743400  0.97430600  1
  F  F1  1  0.25743400  0.92085800  0.47430600  1
  F  F2  1  0.52194700  0.11325600  0.65877300  1
  F  F3  1  0.44791600  0.69656400  0.25004500  1
  F  F4  1  0.11325600  0.52194700  0.15877300  1
  F  F5  1  0.74256600  0.07914200  0.52569400  1
  F  F6  1  0.69656400  0.44791600  0.75004500  1
  F  F7  1  0.47805300  0.88674400  0.34122700  1
  F  F8  1  0.55208400  0.30343600  0.74995500  1
  F  F9  1  0.88674400  0.47805300  0.84122700  1
  F  F10  1  0.30343600  0.55208400  0.24995500  1
  F  F11  1  0.07914200  0.74256600  0.02569400  1
loop_
_geom_bond_atom_site_label_1
_geom_bond_atom_site_label_2
_geom_bond_distance
_geom_bond_site_symmetry_2
Cs0 O17 3.050625 1_545
Cs0 F4 3.149108 1_555
Cs0 F7 3.181510 1_545
Cs0 O14 3.194522 1_555
Cs0 F2 3.229265 1_555
Cs0 O1 3.237373 1_555
Cs0 F5 3.272613 1_555
Cs0 O8 3.316689 1_545
Cs0 F10 3.368148 1_555
Cs0 O10 3.399931 1_555
Cs0 O4 3.636334 1_555
Cs0 O9 3.685344 1_555
Cs1 O2 3.050625 1_565
Cs1 F9 3.149108 1_555
Cs1 F2 3.181510 1_565
Cs1 O15 3.194522 1_555
Cs1 F7 3.229265 1_555
Cs1 O12 3.237373 1_555
Cs1 F1 3.272613 1_555
Cs1 O4 3.316689 1_565
Cs1 F6 3.368148 1_555
Cs1 O13 3.399931 1_555
Cs1 O8 3.636334 1_555
Cs1 O0 3.685344 1_555
Cs2 O12 3.050625 1_455
Cs2 F2 3.149108 1_555
Cs2 F9 3.181510 1_455
Cs2 O6 3.194522 1_555
Cs2 F4 3.229265 1_556
Cs2 O2 3.237373 1_555
Cs2 F11 3.272613 1_556
Cs2 O13 3.316689 1_455
Cs2 F8 3.368148 1_555
Cs2 O4 3.399931 1_555
Cs2 O10 3.636334 1_556
Cs2 O3 3.685344 1_555
Cs3 F8 3.118354 1_555
Cs3 F3 3.118354 1_555
Cs3 F6 3.133443 1_555
Cs3 F10 3.133443 1_555
Cs3 F1 3.245003 1_555
Cs3 F5 3.245003 1_555
Cs3 O3 3.288942 1_555
Cs3 O7 3.288942 1_555
Cs4 O1 3.050625 1_655
Cs4 F7 3.149108 1_555
Cs4 F4 3.181510 1_655
Cs4 O11 3.194522 1_555
Cs4 F9 3.229265 1_554
Cs4 O17 3.237373 1_555
Cs4 F0 3.272613 1_554
Cs4 O10 3.316689 1_655
Cs4 F3 3.368148 1_555
Cs4 O8 3.399931 1_555
Cs4 O13 3.636334 1_554
Cs4 O7 3.685344 1_555
Cs5 F10 3.118354 1_555
Cs5 F6 3.118354 1_554
Cs5 F3 3.133443 1_555
Cs5 F8 3.133443 1_554
Cs5 F0 3.245003 1_554
Cs5 F11 3.245003 1_555
Cs5 O0 3.288942 1_554
Cs5 O9 3.288942 1_555
N0 O0 1.262409 1_555
N0 O3 1.262409 1_555
N0 O16 1.301575 1_465
N1 O4 1.260989 1_555
N1 O15 1.272404 1_455
N1 O1 1.281566 1_555
N2 O7 1.262409 1_555
N2 O9 1.262409 1_555
N2 O5 1.301575 1_645
N3 O8 1.260989 1_555
N3 O14 1.272404 1_655
N3 O12 1.281566 1_555
N4 O10 1.260989 1_555
N4 O11 1.272404 1_545
N4 O2 1.281566 1_554
N5 O13 1.260989 1_555
N5 O6 1.272404 1_565
N5 O17 1.281566 1_556
F0 Sb2 1.992749 1_555
F1 Sb0 1.992749 1_555
F2 Sb3 1.993034 1_555
F3 Sb0 1.994495 1_555
F4 Sb1 1.993034 1_555
F5 Sb3 1.992749 1_555
F6 Sb2 1.994495 1_555
F7 Sb0 1.993034 1_555
F8 Sb3 1.994495 1_555
F9 Sb2 1.993034 1_555
F10 Sb1 1.994495 1_555
F11 Sb1 1.992749 1_555
