# generated using pymatgen
data_Ca2B5H2ClO10
_symmetry_space_group_name_H-M   'P 1'
_cell_length_a   6.53458456
_cell_length_b   6.53458456
_cell_length_c   11.53456526
_cell_angle_alpha   89.96870699
_cell_angle_beta   89.96870699
_cell_angle_gamma   121.75276444
_symmetry_Int_Tables_number   1
_chemical_formula_structural   Ca2B5H2ClO10
_chemical_formula_sum   'Ca4 B10 H4 Cl2 O20'
_cell_volume   418.81555892
_cell_formula_units_Z   2
loop_
 _symmetry_equiv_pos_site_id
 _symmetry_equiv_pos_as_xyz
  1  'x, y, z'
loop_
 _atom_site_type_symbol
 _atom_site_label
 _atom_site_symmetry_multiplicity
 _atom_site_fract_x
 _atom_site_fract_y
 _atom_site_fract_z
 _atom_site_occupancy
  Ca  Ca0  1  0.74828800  0.25097200  0.50048200  1
  Ca  Ca1  1  0.25097200  0.74828800  0.00048200  1
  Ca  Ca2  1  0.37150200  0.31282200  0.22609700  1
  Ca  Ca3  1  0.31282200  0.37150200  0.72609700  1
  B  B0  1  0.45044300  0.84151000  0.23943400  1
  B  B1  1  0.84151000  0.45044300  0.73943400  1
  B  B2  1  0.85507300  0.91083500  0.22828100  1
  B  B3  1  0.91083500  0.85507300  0.72828000  1
  B  B4  1  0.01411500  0.62687500  0.27481000  1
  B  B5  1  0.62687500  0.01411500  0.77481000  1
  B  B6  1  0.77883600  0.23755000  0.16394000  1
  B  B7  1  0.23755000  0.77883600  0.66394000  1
  B  B8  1  0.28400800  0.79825300  0.43987200  1
  B  B9  1  0.79825300  0.28400800  0.93987200  1
  H  H0  1  0.75475000  0.80421900  0.46469400  1
  H  H1  1  0.80421900  0.75475000  0.96469400  1
  H  H2  1  0.02653600  0.01586600  0.45979400  1
  H  H3  1  0.01586600  0.02653600  0.95979400  1
  Cl  Cl0  1  0.40921200  0.39225900  0.47570900  1
  Cl  Cl1  1  0.39225900  0.40921200  0.97570900  1
  O  O0  1  0.61291500  0.74300300  0.23324700  1
  O  O1  1  0.74300300  0.61291500  0.73324700  1
  O  O2  1  0.52479700  0.03785100  0.15426900  1
  O  O3  1  0.03785100  0.52479700  0.65426900  1
  O  O4  1  0.46161000  0.93483100  0.35863500  1
  O  O5  1  0.93483100  0.46161000  0.85863500  1
  O  O6  1  0.21485100  0.63947700  0.21048400  1
  O  O7  1  0.63947700  0.21485100  0.71048400  1
  O  O8  1  0.93748500  0.14895500  0.20494900  1
  O  O9  1  0.14895500  0.93748500  0.70494900  1
  O  O10  1  0.86993600  0.35739700  0.05092000  1
  O  O11  1  0.35739700  0.86993600  0.55092000  1
  O  O12  1  0.78511600  0.41329600  0.24711900  1
  O  O13  1  0.41329600  0.78511600  0.74711900  1
  O  O14  1  0.03008400  0.86256200  0.25259300  1
  O  O15  1  0.86256200  0.03008400  0.75259300  1
  O  O16  1  0.05543100  0.62194500  0.40506000  1
  O  O17  1  0.62194500  0.05543100  0.90506000  1
  O  O18  1  0.86787200  0.96802200  0.49090100  1
  O  O19  1  0.96802200  0.86787200  0.99090100  1
loop_
_geom_bond_atom_site_label_1
_geom_bond_atom_site_label_2
_geom_bond_distance
_geom_bond_site_symmetry_2
Ca0 O18 2.358461 1_545
Ca0 O16 2.447448 1_655
Ca0 O7 2.499917 1_555
Ca0 O11 2.522985 1_545
Ca0 O3 2.524333 1_655
Ca0 O4 2.527422 1_545
Ca0 Cl0 2.827888 1_555
Ca1 O19 2.358461 1_454
Ca1 O17 2.447448 1_564
Ca1 O6 2.499917 1_555
Ca1 O10 2.522985 1_455
Ca1 O2 2.524333 1_565
Ca1 O5 2.527422 1_454
Ca1 Cl1 2.827888 1_554
Ca2 O0 2.393835 1_555
Ca2 O12 2.434777 1_555
Ca2 O8 2.460559 1_455
Ca2 O2 2.610282 1_555
Ca2 O14 2.610959 1_545
Ca2 O6 2.817120 1_555
Ca2 Cl0 2.913340 1_555
Ca2 Cl1 2.943470 1_554
Ca3 O1 2.393835 1_555
Ca3 O13 2.434777 1_555
Ca3 O9 2.460559 1_545
Ca3 O3 2.610282 1_555
Ca3 O15 2.610959 1_455
Ca3 O7 2.817120 1_555
Ca3 Cl1 2.913340 1_555
Ca3 Cl0 2.943470 1_555
B0 O6 1.444424 1_555
B0 O2 1.479582 1_565
B0 O4 1.490579 1_555
B0 O0 1.505287 1_555
B1 O7 1.444424 1_555
B1 O3 1.479582 1_655
B1 O5 1.490579 1_555
B1 O1 1.505287 1_555
B2 O14 1.366004 1_655
B2 O0 1.372341 1_555
B2 O8 1.378785 1_565
B3 O15 1.366006 1_565
B3 O1 1.372341 1_555
B3 O9 1.378783 1_655
B4 O12 1.446370 1_455
B4 O6 1.470751 1_555
B4 O14 1.509605 1_555
B4 O16 1.529905 1_555
B5 O13 1.446370 1_545
B5 O7 1.470751 1_555
B5 O15 1.509605 1_555
B5 O17 1.529905 1_555
B6 O10 1.474626 1_555
B6 O2 1.480342 1_555
B6 O12 1.480785 1_555
B6 O8 1.505192 1_555
B7 O11 1.474626 1_555
B7 O3 1.480342 1_555
B7 O13 1.480785 1_555
B7 O9 1.505192 1_555
B8 O11 1.361974 1_555
B8 O16 1.381859 1_555
B8 O4 1.388949 1_555
B9 O10 1.361974 1_556
B9 O17 1.381859 1_555
B9 O5 1.388949 1_555
H0 O18 0.975367 1_555
H1 O19 0.975367 1_555
H2 O18 0.979668 1_445
H3 O19 0.979668 1_445
