# generated using pymatgen
data_V2Bi4O11
_symmetry_space_group_name_H-M   'P 1'
_cell_length_a   5.53156400
_cell_length_b   6.77319724
_cell_length_c   7.92508239
_cell_angle_alpha   83.50845000
_cell_angle_beta   87.49190399
_cell_angle_gamma   73.03612437
_symmetry_Int_Tables_number   1
_chemical_formula_structural   V2Bi4O11
_chemical_formula_sum   'V2 Bi4 O11'
_cell_volume   282.16558892
_cell_formula_units_Z   1
loop_
 _symmetry_equiv_pos_site_id
 _symmetry_equiv_pos_as_xyz
  1  'x, y, z'
loop_
 _atom_site_type_symbol
 _atom_site_label
 _atom_site_symmetry_multiplicity
 _atom_site_fract_x
 _atom_site_fract_y
 _atom_site_fract_z
 _atom_site_occupancy
  V  V0  1  0.94887100  0.54354200  0.58893300  1
  V  V1  1  0.13639500  0.05809400  0.18138500  1
  Bi  Bi0  1  0.12655400  0.98233100  0.63747100  1
  Bi  Bi1  1  0.67892200  0.80587400  0.96814900  1
  Bi  Bi2  1  0.43243600  0.39074900  0.84385700  1
  Bi  Bi3  1  0.58828200  0.27802500  0.32480100  1
  O  O0  1  0.34111000  0.93648700  0.34408500  1
  O  O1  1  0.77522800  0.04011500  0.79334900  1
  O  O2  1  0.89934700  0.94582300  0.16050300  1
  O  O3  1  0.32501300  0.08397100  0.99188700  1
  O  O4  1  0.92534700  0.79940000  0.51508000  1
  O  O5  1  0.48297200  0.47051500  0.09579300  1
  O  O6  1  0.70756000  0.44496700  0.53594100  1
  O  O7  1  0.97919500  0.52565600  0.81449400  1
  O  O8  1  0.23997400  0.38001200  0.53775800  1
  O  O9  1  0.40042800  0.73899400  0.78475000  1
  O  O10  1  0.97896500  0.29944500  0.24486600  1
loop_
_geom_bond_atom_site_label_1
_geom_bond_atom_site_label_2
_geom_bond_distance
_geom_bond_site_symmetry_2
Bi0 O9 2.153285 1_555
Bi0 O4 2.210361 1_455
Bi0 O1 2.216159 1_465
Bi0 O0 2.572508 1_555
Bi1 O1 2.156776 1_565
Bi1 O3 2.304766 1_565
Bi1 O9 2.333011 1_555
Bi1 O2 2.423408 1_556
Bi1 O7 2.519919 1_555
Bi2 O5 2.176556 1_556
Bi2 O9 2.308272 1_555
Bi2 O7 2.416808 1_455
Bi2 O3 2.480969 1_555
Bi2 O1 2.629948 1_555
Bi2 O8 2.708246 1_555
Bi3 O5 2.108876 1_555
Bi3 O10 2.266058 1_555
Bi3 O6 2.339575 1_555
Bi3 O8 2.498003 1_555
O0 V1 1.722411 1_565
O2 V1 1.718812 1_665
O3 V1 1.812381 1_556
O4 V0 1.734485 1_555
O6 V0 1.742539 1_555
O7 V0 1.789890 1_555
O8 V0 1.728547 1_455
O10 V1 1.732243 1_655
