# generated using pymatgen
data_Rb2Sn(H2N)6
_symmetry_space_group_name_H-M   'P 1'
_cell_length_a   6.79299591
_cell_length_b   6.79299591
_cell_length_c   5.71732500
_cell_angle_alpha   90.00000000
_cell_angle_beta   90.00000000
_cell_angle_gamma   119.99999912
_symmetry_Int_Tables_number   1
_chemical_formula_structural   Rb2Sn(H2N)6
_chemical_formula_sum   'Rb2 Sn1 H12 N6'
_cell_volume   228.47896462
_cell_formula_units_Z   1
loop_
 _symmetry_equiv_pos_site_id
 _symmetry_equiv_pos_as_xyz
  1  'x, y, z'
loop_
 _atom_site_type_symbol
 _atom_site_label
 _atom_site_symmetry_multiplicity
 _atom_site_fract_x
 _atom_site_fract_y
 _atom_site_fract_z
 _atom_site_occupancy
  Rb  Rb0  1  0.66666700  0.33333300  0.79495300  1
  Rb  Rb1  1  0.33333300  0.66666700  0.20504700  1
  Sn  Sn0  1  0.00000000  0.00000000  0.00000000  1
  H  H0  1  0.26536900  0.41513700  0.78308900  1
  H  H1  1  0.14976800  0.73463100  0.78308900  1
  H  H2  1  0.58486300  0.85023200  0.78308900  1
  H  H3  1  0.73463100  0.58486300  0.21691100  1
  H  H4  1  0.85023200  0.26536900  0.21691100  1
  H  H5  1  0.41513700  0.14976800  0.21691100  1
  H  H6  1  0.05463500  0.25499600  0.61107600  1
  H  H7  1  0.20036100  0.94536500  0.61107600  1
  H  H8  1  0.74500400  0.79963900  0.61107600  1
  H  H9  1  0.94536500  0.74500400  0.38892400  1
  H  H10  1  0.79963900  0.05463500  0.38892400  1
  H  H11  1  0.25499600  0.20036100  0.38892400  1
  N  N0  1  0.09232300  0.30552300  0.78231500  1
  N  N1  1  0.21320000  0.90767700  0.78231500  1
  N  N2  1  0.69447700  0.78680000  0.78231500  1
  N  N3  1  0.90767700  0.69447700  0.21768500  1
  N  N4  1  0.78680000  0.09232300  0.21768500  1
  N  N5  1  0.30552300  0.21320000  0.21768500  1
loop_
_geom_bond_atom_site_label_1
_geom_bond_atom_site_label_2
_geom_bond_distance
_geom_bond_site_symmetry_2
H0 N0 1.030037 1_555
H0 Rb1 2.857233 1_556
H0 Rb0 3.042925 1_555
H1 N1 1.030037 1_555
H1 Rb1 2.857229 1_556
H1 Rb0 3.042920 1_455
H2 N2 1.030037 1_555
H2 Rb1 2.857232 1_556
H2 Rb0 3.042918 1_565
H3 N3 1.030037 1_555
H3 Rb0 2.857233 1_554
H3 Rb1 3.042925 1_555
H4 N4 1.030037 1_555
H4 Rb0 2.857229 1_554
H4 Rb1 3.042920 1_655
H5 N5 1.030037 1_555
H5 Rb0 2.857232 1_554
H5 Rb1 3.042918 1_545
H6 N0 1.026633 1_555
H7 N1 1.026633 1_555
H8 N2 1.026633 1_555
H9 N3 1.026633 1_555
H10 N4 1.026633 1_555
H11 N5 1.026633 1_555
N0 Sn0 2.224420 1_556
N0 Rb0 2.991288 1_455
N1 Sn0 2.224420 1_566
N1 Rb0 2.991291 1_565
N2 Sn0 2.224420 1_666
N2 Rb0 2.991294 1_555
N3 Sn0 2.224420 1_665
N3 Rb1 2.991288 1_655
N4 Sn0 2.224420 1_655
N4 Rb1 2.991291 1_545
N5 Sn0 2.224420 1_555
N5 Rb1 2.991294 1_555
