# generated using pymatgen
data_Cs
_symmetry_space_group_name_H-M   'P 1'
_cell_length_a   9.05579894
_cell_length_b   10.45729290
_cell_length_c   10.45729290
_cell_angle_alpha   90.00000000
_cell_angle_beta   90.00000000
_cell_angle_gamma   90.00000000
_symmetry_Int_Tables_number   1
_chemical_formula_structural   Cs
_chemical_formula_sum   Cs8
_cell_volume   990.29666484
_cell_formula_units_Z   8
loop_
 _symmetry_equiv_pos_site_id
 _symmetry_equiv_pos_as_xyz
  1  'x, y, z'
loop_
 _atom_site_type_symbol
 _atom_site_label
 _atom_site_symmetry_multiplicity
 _atom_site_fract_x
 _atom_site_fract_y
 _atom_site_fract_z
 _atom_site_occupancy
  Cs  Cs0  1  0.00000000  0.44013904  0.74627577  1
  Cs  Cs1  1  -0.00000000  0.55986096  0.25372423  1
  Cs  Cs2  1  0.50000000  0.74627577  0.55986096  1
  Cs  Cs3  1  0.50000000  0.25372423  0.44013904  1
  Cs  Cs4  1  0.00000000  0.94013904  0.75372423  1
  Cs  Cs5  1  -0.00000000  0.05986096  0.24627577  1
  Cs  Cs6  1  0.50000000  0.75372423  0.05986096  1
  Cs  Cs7  1  0.50000000  0.24627577  0.94013904  1
loop_
_geom_bond_atom_site_label_1
_geom_bond_atom_site_label_2
_geom_bond_distance
_geom_bond_site_symmetry_2
Cs0 Cs4 5.229227 1_545
Cs0 Cs4 5.229227 1_555
Cs0 Cs1 5.300727 1_555
Cs0 Cs7 5.359258 1_455
Cs0 Cs7 5.359258 1_555
Cs0 Cs1 5.452225 1_556
Cs1 Cs5 5.229227 1_555
Cs1 Cs5 5.229227 1_565
Cs1 Cs6 5.359258 1_555
Cs1 Cs6 5.359258 1_455
Cs2 Cs6 5.229227 1_555
Cs2 Cs6 5.229227 1_556
Cs2 Cs3 5.300727 1_555
Cs2 Cs4 5.359258 1_655
Cs2 Cs4 5.359258 1_555
Cs2 Cs3 5.452225 1_565
Cs3 Cs7 5.229227 1_554
Cs3 Cs7 5.229227 1_555
Cs3 Cs5 5.359258 1_655
Cs3 Cs5 5.359258 1_555
Cs4 Cs5 5.300727 1_566
Cs4 Cs5 5.452225 1_565
Cs6 Cs7 5.300727 1_564
Cs6 Cs7 5.452225 1_554
