# generated using pymatgen
data_In8Cu7Se16
_symmetry_space_group_name_H-M   'P 1'
_cell_length_a   8.60687000
_cell_length_b   10.09886869
_cell_length_c   10.80159721
_cell_angle_alpha   116.11912947
_cell_angle_beta   111.63044430
_cell_angle_gamma   93.59655387
_symmetry_Int_Tables_number   1
_chemical_formula_structural   In8Cu7Se16
_chemical_formula_sum   'In8 Cu7 Se16'
_cell_volume   754.61819118
_cell_formula_units_Z   1
loop_
 _symmetry_equiv_pos_site_id
 _symmetry_equiv_pos_as_xyz
  1  'x, y, z'
loop_
 _atom_site_type_symbol
 _atom_site_label
 _atom_site_symmetry_multiplicity
 _atom_site_fract_x
 _atom_site_fract_y
 _atom_site_fract_z
 _atom_site_occupancy
  In  In0  1  0.49143800  0.00333500  0.00103600  1
  In  In1  1  0.74762400  0.74848500  0.50682100  1
  In  In2  1  0.87199800  0.87525400  0.24991700  1
  In  In3  1  0.99025700  0.49663600  0.00132100  1
  In  In4  1  0.11981600  0.62494400  0.74934800  1
  In  In5  1  0.24146700  0.24254300  0.49925800  1
  In  In6  1  0.36938200  0.36767800  0.24768000  1
  In  In7  1  0.61905800  0.12373500  0.75057900  1
  Cu  Cu0  1  0.24547300  0.75226800  0.50206400  1
  Cu  Cu1  1  0.49654400  0.49758500  0.00308200  1
  Cu  Cu2  1  0.36537300  0.87067700  0.24781600  1
  Cu  Cu3  1  0.74458100  0.25212800  0.49982000  1
  Cu  Cu4  1  0.62048600  0.62453800  0.74921300  1
  Cu  Cu5  1  0.87021400  0.37001400  0.24889200  1
  Cu  Cu6  1  0.12352500  0.12642500  0.75174600  1
  Se  Se0  1  0.02776400  0.88551500  0.51548400  1
  Se  Se1  1  0.13614800  0.99942900  0.23304600  1
  Se  Se2  1  0.48499600  0.86724200  0.48527200  1
  Se  Se3  1  0.27529200  0.62942100  0.01316400  1
  Se  Se4  1  0.39119100  0.74568900  0.73647200  1
  Se  Se5  1  0.73118800  0.61866500  0.98421200  1
  Se  Se6  1  0.88167300  0.76543500  0.77262500  1
  Se  Se7  1  0.52596700  0.38250900  0.51611000  1
  Se  Se8  1  0.64120200  0.49774200  0.23996500  1
  Se  Se9  1  0.98517700  0.36745900  0.48605700  1
  Se  Se10  1  0.12644300  0.50811600  0.26831300  1
  Se  Se11  1  0.77454000  0.13063400  0.01202600  1
  Se  Se12  1  0.88782400  0.24570800  0.73493900  1
  Se  Se13  1  0.22358400  0.10937000  0.98632500  1
  Se  Se14  1  0.37655400  0.26089500  0.76757800  1
  Se  Se15  1  0.62358200  0.00682200  0.26684500  1
loop_
_geom_bond_atom_site_label_1
_geom_bond_atom_site_label_2
_geom_bond_distance
_geom_bond_site_symmetry_2
In0 Se13 2.583835 1_554
In0 Se11 2.619791 1_555
In0 Se4 2.652305 1_544
In0 Se15 2.652709 1_555
In1 Se6 2.589222 1_555
In1 Se2 2.607676 1_555
In1 Se8 2.625955 1_555
In1 Se0 2.652992 1_655
In2 Se15 2.607868 1_565
In2 Se5 2.629462 1_554
In2 Se0 2.631025 1_655
In2 Se1 2.631269 1_655
In3 Se5 2.601196 1_554
In3 Se10 2.626953 1_655
In3 Se12 2.628225 1_554
In3 Se3 2.652909 1_655
In4 Se6 2.589987 1_455
In4 Se9 2.621751 1_455
In4 Se3 2.642124 1_556
In4 Se4 2.644463 1_555
In5 Se1 2.588669 1_545
In5 Se9 2.598682 1_455
In5 Se14 2.608048 1_555
In5 Se7 2.652853 1_555
In6 Se13 2.615862 1_554
In6 Se10 2.621164 1_555
In6 Se7 2.637639 1_555
In6 Se8 2.657094 1_555
In7 Se14 2.594247 1_555
In7 Se11 2.607645 1_556
In7 Se2 2.627700 1_545
In7 Se12 2.647779 1_555
Cu0 Se0 2.384893 1_555
Cu0 Se2 2.406620 1_555
Cu0 Se10 2.408056 1_555
Cu0 Se4 2.409510 1_555
Cu1 Se14 2.377154 1_554
Cu1 Se8 2.396814 1_555
Cu1 Se3 2.398770 1_555
Cu1 Se5 2.414207 1_554
Cu2 Se2 2.403314 1_555
Cu2 Se3 2.416291 1_555
Cu2 Se1 2.425059 1_555
Cu2 Se15 2.429530 1_565
Cu3 Se7 2.378220 1_555
Cu3 Se9 2.396580 1_555
Cu3 Se15 2.410309 1_555
Cu3 Se12 2.412616 1_555
Cu4 Se4 2.379405 1_555
Cu4 Se5 2.389820 1_555
Cu4 Se7 2.407797 1_555
Cu4 Se6 2.450483 1_555
Cu5 Se9 2.394786 1_555
Cu5 Se11 2.412347 1_555
Cu5 Se8 2.417991 1_555
Cu5 Se10 2.422406 1_655
Cu6 Se14 2.401265 1_555
Cu6 Se12 2.413943 1_455
Cu6 Se0 2.417054 1_545
Cu6 Se13 2.446575 1_555
