# generated using pymatgen
data_Yb2Ce8O19
_symmetry_space_group_name_H-M   'P 1'
_cell_length_a   3.82669910
_cell_length_b   3.82669910
_cell_length_c   26.88820609
_cell_angle_alpha   90.00000000
_cell_angle_beta   90.00000000
_cell_angle_gamma   90.00000000
_symmetry_Int_Tables_number   1
_chemical_formula_structural   Yb2Ce8O19
_chemical_formula_sum   'Yb2 Ce8 O19'
_cell_volume   393.74083472
_cell_formula_units_Z   1
loop_
 _symmetry_equiv_pos_site_id
 _symmetry_equiv_pos_as_xyz
  1  'x, y, z'
loop_
 _atom_site_type_symbol
 _atom_site_label
 _atom_site_symmetry_multiplicity
 _atom_site_fract_x
 _atom_site_fract_y
 _atom_site_fract_z
 _atom_site_occupancy
  Yb  Yb0  1  0.00000000  0.50000000  0.44720269  1
  Yb  Yb1  1  0.50000000  0.00000000  0.55279731  1
  Ce  Ce0  1  0.50000000  0.00000000  0.74679410  1
  Ce  Ce1  1  0.00000000  0.50000000  0.64510405  1
  Ce  Ce2  1  0.50000000  0.00000000  0.94939052  1
  Ce  Ce3  1  0.00000000  0.50000000  0.84814698  1
  Ce  Ce4  1  0.00000000  0.50000000  0.05060948  1
  Ce  Ce5  1  0.50000000  0.00000000  0.15185302  1
  Ce  Ce6  1  0.50000000  0.00000000  0.35489595  1
  Ce  Ce7  1  0.00000000  0.50000000  0.25320590  1
  O  O0  1  0.00000000  0.00000000  0.69237475  1
  O  O1  1  0.50000000  0.50000000  0.79904450  1
  O  O2  1  0.00000000  0.00000000  0.89816133  1
  O  O3  1  0.50000000  0.50000000  0.00000000  1
  O  O4  1  0.00000000  0.00000000  0.10183867  1
  O  O5  1  0.50000000  0.50000000  0.20095550  1
  O  O6  1  0.00000000  0.00000000  0.20414498  1
  O  O7  1  0.00000000  0.00000000  0.30762525  1
  O  O8  1  0.50000000  0.50000000  0.30059889  1
  O  O9  1  0.50000000  0.50000000  0.39925636  1
  O  O10  1  0.00000000  0.00000000  0.41431623  1
  O  O11  1  0.50000000  0.50000000  0.50000000  1
  O  O12  1  0.50000000  0.50000000  0.60074364  1
  O  O13  1  0.00000000  0.00000000  0.58568377  1
  O  O14  1  0.50000000  0.50000000  0.69940111  1
  O  O15  1  0.00000000  0.00000000  0.79585502  1
  O  O16  1  0.50000000  0.50000000  0.89939427  1
  O  O17  1  0.00000000  0.00000000  0.00000000  1
  O  O18  1  0.50000000  0.50000000  0.10060573  1
loop_
_geom_bond_atom_site_label_1
_geom_bond_atom_site_label_2
_geom_bond_distance
_geom_bond_site_symmetry_2
Ce0 O14 2.298865 1_555
Ce0 O14 2.298865 1_545
Ce0 O15 2.324025 1_555
Ce0 O15 2.324025 1_655
Ce0 O1 2.373753 1_555
Ce0 O1 2.373753 1_545
Ce0 O0 2.408729 1_555
Ce0 O0 2.408729 1_655
Ce1 O12 2.254687 1_455
Ce1 O12 2.254687 1_555
Ce1 O0 2.297044 1_555
Ce1 O0 2.297044 1_565
Ce1 O14 2.406733 1_455
Ce1 O14 2.406733 1_555
Ce1 O13 2.492703 1_565
Ce1 O13 2.492703 1_555
Ce2 O16 2.338391 1_545
Ce2 O16 2.338391 1_555
Ce2 O3 2.347909 1_546
Ce2 O3 2.347909 1_556
Ce2 O17 2.347909 1_656
Ce2 O17 2.347909 1_556
Ce2 O2 2.357606 1_555
Ce2 O2 2.357606 1_655
Ce3 O1 2.324659 1_455
Ce3 O1 2.324659 1_555
Ce3 O2 2.338671 1_555
Ce3 O2 2.338671 1_565
Ce3 O16 2.357890 1_455
Ce3 O16 2.357890 1_555
Ce3 O15 2.374415 1_555
Ce3 O15 2.374415 1_565
Ce4 O18 2.338391 1_455
Ce4 O18 2.338391 1_555
Ce4 O17 2.347909 1_565
Ce4 O3 2.347909 1_555
Ce4 O17 2.347909 1_555
Ce4 O3 2.347909 1_455
Ce4 O4 2.357606 1_555
Ce4 O4 2.357606 1_565
Ce5 O5 2.324659 1_555
Ce5 O5 2.324659 1_545
Ce5 O4 2.338671 1_555
Ce5 O4 2.338671 1_655
Ce5 O18 2.357890 1_555
Ce5 O18 2.357890 1_545
Ce5 O6 2.374415 1_655
Ce5 O6 2.374415 1_555
Ce6 O9 2.254687 1_555
Ce6 O9 2.254687 1_545
Ce6 O7 2.297044 1_655
Ce6 O7 2.297044 1_555
Ce6 O8 2.406733 1_545
Ce6 O8 2.406733 1_555
Ce6 O10 2.492703 1_655
Ce6 O10 2.492703 1_555
Ce7 O8 2.298865 1_455
Ce7 O8 2.298865 1_555
Ce7 O6 2.324025 1_555
Ce7 O6 2.324025 1_565
Ce7 O5 2.373753 1_455
Ce7 O5 2.373753 1_555
Ce7 O7 2.408729 1_555
Ce7 O7 2.408729 1_565
O9 Yb0 2.307145 1_555
O9 Yb0 2.307145 1_655
O10 Yb0 2.107799 1_555
O10 Yb0 2.107799 1_545
O11 Yb1 2.382486 1_555
O11 Yb1 2.382486 1_565
O11 Yb0 2.382486 1_555
O11 Yb0 2.382486 1_655
O12 Yb1 2.307145 1_555
O12 Yb1 2.307145 1_565
O13 Yb1 2.107799 1_555
O13 Yb1 2.107799 1_455
