# generated using pymatgen
data_SiO2
_symmetry_space_group_name_H-M   'P 1'
_cell_length_a   8.49887142
_cell_length_b   8.49887142
_cell_length_c   13.97640642
_cell_angle_alpha   90.00000000
_cell_angle_beta   90.00000000
_cell_angle_gamma   90.00000000
_symmetry_Int_Tables_number   1
_chemical_formula_structural   SiO2
_chemical_formula_sum   'Si20 O40'
_cell_volume   1009.52723227
_cell_formula_units_Z   20
loop_
 _symmetry_equiv_pos_site_id
 _symmetry_equiv_pos_as_xyz
  1  'x, y, z'
loop_
 _atom_site_type_symbol
 _atom_site_label
 _atom_site_symmetry_multiplicity
 _atom_site_fract_x
 _atom_site_fract_y
 _atom_site_fract_z
 _atom_site_occupancy
  Si  Si0  1  0.24943458  0.42726650  0.10860187  1
  Si  Si1  1  0.57273350  0.24943458  0.10860187  1
  Si  Si2  1  0.42726650  0.75056542  0.10860187  1
  Si  Si3  1  0.24943458  0.57273350  0.39139813  1
  Si  Si4  1  0.75056542  0.42726650  0.39139813  1
  Si  Si5  1  0.75056542  0.57273350  0.10860187  1
  Si  Si6  1  0.42726650  0.24943458  0.39139813  1
  Si  Si7  1  0.57273350  0.75056542  0.39139813  1
  Si  Si8  1  0.75056542  0.57273350  0.89139813  1
  Si  Si9  1  0.42726650  0.75056542  0.89139813  1
  Si  Si10  1  0.57273350  0.24943458  0.89139813  1
  Si  Si11  1  0.75056542  0.42726650  0.60860187  1
  Si  Si12  1  0.24943458  0.57273350  0.60860187  1
  Si  Si13  1  0.24943458  0.42726650  0.89139813  1
  Si  Si14  1  0.57273350  0.75056542  0.60860187  1
  Si  Si15  1  0.42726650  0.24943458  0.60860187  1
  Si  Si16  1  -0.00000000  0.50000000  0.25000000  1
  Si  Si17  1  0.50000000  0.00000000  0.25000000  1
  Si  Si18  1  -0.00000000  0.50000000  0.75000000  1
  Si  Si19  1  0.50000000  0.00000000  0.75000000  1
  O  O0  1  0.10886084  0.61016716  0.31756535  1
  O  O1  1  0.38983284  0.10886084  0.31756535  1
  O  O2  1  0.61016716  0.89113916  0.31756535  1
  O  O3  1  0.10886084  0.38983284  0.18243465  1
  O  O4  1  0.89113916  0.61016716  0.18243465  1
  O  O5  1  0.89113916  0.38983284  0.31756535  1
  O  O6  1  0.61016716  0.10886084  0.18243465  1
  O  O7  1  0.38983284  0.89113916  0.18243465  1
  O  O8  1  0.89113916  0.38983284  0.68243465  1
  O  O9  1  0.61016716  0.89113916  0.68243465  1
  O  O10  1  0.38983284  0.10886084  0.68243465  1
  O  O11  1  0.89113916  0.61016716  0.81756535  1
  O  O12  1  0.10886084  0.38983284  0.81756535  1
  O  O13  1  0.10886084  0.61016716  0.68243465  1
  O  O14  1  0.38983284  0.89113916  0.81756535  1
  O  O15  1  0.61016716  0.10886084  0.81756535  1
  O  O16  1  0.18691349  0.40854732  0.00000000  1
  O  O17  1  0.59145268  0.18691349  0.00000000  1
  O  O18  1  0.40854732  0.81308651  0.00000000  1
  O  O19  1  0.18691349  0.59145268  0.50000000  1
  O  O20  1  0.81308651  0.40854732  0.50000000  1
  O  O21  1  0.81308651  0.59145268  0.00000000  1
  O  O22  1  0.40854732  0.18691349  0.50000000  1
  O  O23  1  0.59145268  0.81308651  0.50000000  1
  O  O24  1  0.39394821  0.30808990  0.12644668  1
  O  O25  1  0.69191010  0.39394821  0.12644668  1
  O  O26  1  0.30808990  0.60605179  0.12644668  1
  O  O27  1  0.39394821  0.69191010  0.37355332  1
  O  O28  1  0.60605179  0.30808990  0.37355332  1
  O  O29  1  0.60605179  0.69191010  0.12644668  1
  O  O30  1  0.30808990  0.39394821  0.37355332  1
  O  O31  1  0.69191010  0.60605179  0.37355332  1
  O  O32  1  0.60605179  0.69191010  0.87355332  1
  O  O33  1  0.30808990  0.60605179  0.87355332  1
  O  O34  1  0.69191010  0.39394821  0.87355332  1
  O  O35  1  0.60605179  0.30808990  0.62644668  1
  O  O36  1  0.39394821  0.69191010  0.62644668  1
  O  O37  1  0.39394821  0.30808990  0.87355332  1
  O  O38  1  0.69191010  0.60605179  0.62644668  1
  O  O39  1  0.30808990  0.39394821  0.62644668  1
loop_
_geom_bond_atom_site_label_1
_geom_bond_atom_site_label_2
_geom_bond_distance
_geom_bond_site_symmetry_2
O0 Si3 1.610410 1_555
O0 Si16 1.619993 1_555
O1 Si6 1.610410 1_555
O1 Si17 1.619993 1_555
O2 Si7 1.610410 1_555
O2 Si17 1.619993 1_565
O3 Si0 1.610410 1_555
O3 Si16 1.619993 1_555
O4 Si5 1.610410 1_555
O4 Si16 1.619993 1_655
O5 Si4 1.610410 1_555
O5 Si16 1.619993 1_655
O6 Si1 1.610410 1_555
O6 Si17 1.619993 1_555
O7 Si2 1.610410 1_555
O7 Si17 1.619993 1_565
O8 Si11 1.610410 1_555
O8 Si18 1.619993 1_655
O9 Si14 1.610410 1_555
O9 Si19 1.619993 1_565
O10 Si15 1.610410 1_555
O10 Si19 1.619993 1_555
O11 Si8 1.610410 1_555
O11 Si18 1.619993 1_655
O12 Si13 1.610410 1_555
O12 Si18 1.619993 1_555
O13 Si12 1.610410 1_555
O13 Si18 1.619993 1_555
O14 Si9 1.610410 1_555
O14 Si19 1.619993 1_565
O15 Si10 1.610410 1_555
O15 Si19 1.619993 1_555
O16 Si13 1.616033 1_554
O16 Si0 1.616033 1_555
O17 Si10 1.616033 1_554
O17 Si1 1.616033 1_555
O18 Si9 1.616033 1_554
O18 Si2 1.616033 1_555
O19 Si3 1.616033 1_555
O19 Si12 1.616033 1_555
O20 Si11 1.616033 1_555
O20 Si4 1.616033 1_555
O21 Si8 1.616033 1_554
O21 Si5 1.616033 1_555
O22 Si6 1.616033 1_555
O22 Si15 1.616033 1_555
O23 Si14 1.616033 1_555
O23 Si7 1.616033 1_555
O24 Si0 1.611392 1_555
O24 Si1 1.618490 1_555
O25 Si1 1.611392 1_555
O25 Si5 1.618490 1_555
O26 Si2 1.611392 1_555
O26 Si0 1.618490 1_555
O27 Si3 1.611392 1_555
O27 Si7 1.618490 1_555
O28 Si4 1.611392 1_555
O28 Si6 1.618490 1_555
O29 Si5 1.611392 1_555
O29 Si2 1.618490 1_555
O30 Si6 1.611392 1_555
O30 Si3 1.618490 1_555
O31 Si7 1.611392 1_555
O31 Si4 1.618490 1_555
O32 Si8 1.611392 1_555
O32 Si9 1.618490 1_555
O33 Si9 1.611392 1_555
O33 Si13 1.618490 1_555
O34 Si10 1.611392 1_555
O34 Si8 1.618490 1_555
O35 Si11 1.611392 1_555
O35 Si15 1.618490 1_555
O36 Si12 1.611392 1_555
O36 Si14 1.618490 1_555
O37 Si13 1.611392 1_555
O37 Si10 1.618490 1_555
O38 Si14 1.611392 1_555
O38 Si11 1.618490 1_555
O39 Si15 1.611392 1_555
O39 Si12 1.618490 1_555
