# generated using pymatgen
data_P2H6C5N2Cl4O
_symmetry_space_group_name_H-M   'P 1'
_cell_length_a   8.43096800
_cell_length_b   8.84455700
_cell_length_c   16.28861574
_cell_angle_alpha   89.83722232
_cell_angle_beta   90.00000000
_cell_angle_gamma   90.00000000
_symmetry_Int_Tables_number   1
_chemical_formula_structural   P2H6C5N2Cl4O
_chemical_formula_sum   'P8 H24 C20 N8 Cl16 O4'
_cell_volume   1214.60748014
_cell_formula_units_Z   4
loop_
 _symmetry_equiv_pos_site_id
 _symmetry_equiv_pos_as_xyz
  1  'x, y, z'
loop_
 _atom_site_type_symbol
 _atom_site_label
 _atom_site_symmetry_multiplicity
 _atom_site_fract_x
 _atom_site_fract_y
 _atom_site_fract_z
 _atom_site_occupancy
  P  P0  1  0.18111700  0.24341500  0.18785500  1
  P  P1  1  0.68111700  0.75658500  0.31214500  1
  P  P2  1  0.81888300  0.75658500  0.81214500  1
  P  P3  1  0.31888300  0.24341500  0.68785500  1
  P  P4  1  0.41918000  0.29075200  0.07227800  1
  P  P5  1  0.91918000  0.70924800  0.42772200  1
  P  P6  1  0.58082000  0.70924800  0.92772200  1
  P  P7  1  0.08082000  0.29075200  0.57227800  1
  H  H0  1  0.87076000  0.17855000  0.18297200  1
  H  H1  1  0.37076000  0.82145000  0.31702800  1
  H  H2  1  0.12924000  0.82145000  0.81702800  1
  H  H3  1  0.62924000  0.17855000  0.68297200  1
  H  H4  1  0.86676900  0.06609100  0.09185100  1
  H  H5  1  0.36676900  0.93390900  0.40814900  1
  H  H6  1  0.13323100  0.93390900  0.90814900  1
  H  H7  1  0.63323100  0.06609100  0.59185100  1
  H  H8  1  0.81967800  0.26331500  0.08675300  1
  H  H9  1  0.31967800  0.73668500  0.41324700  1
  H  H10  1  0.18032200  0.73668500  0.91324700  1
  H  H11  1  0.68032200  0.26331500  0.58675300  1
  H  H12  1  0.43076900  0.30523800  0.90820700  1
  H  H13  1  0.93076900  0.69476200  0.59179300  1
  H  H14  1  0.56923100  0.69476200  0.09179300  1
  H  H15  1  0.06923100  0.30523800  0.40820700  1
  H  H16  1  0.23052000  0.35997500  0.88747400  1
  H  H17  1  0.73052000  0.64002500  0.61252600  1
  H  H18  1  0.76948000  0.64002500  0.11252600  1
  H  H19  1  0.26948000  0.35997500  0.38747400  1
  H  H20  1  0.28663400  0.16565400  0.88258700  1
  H  H21  1  0.78663400  0.83434600  0.61741300  1
  H  H22  1  0.71336600  0.83434600  0.11741300  1
  H  H23  1  0.21336600  0.16565400  0.38258700  1
  C  C0  1  0.11076000  0.21918600  0.02070600  1
  C  C1  1  0.61076000  0.78081400  0.47929400  1
  C  C2  1  0.88924000  0.78081400  0.97929400  1
  C  C3  1  0.38924000  0.21918600  0.52070600  1
  C  C4  1  0.36556100  0.13648700  0.15048600  1
  C  C5  1  0.86556100  0.86351300  0.34951400  1
  C  C6  1  0.63443900  0.86351300  0.84951400  1
  C  C7  1  0.13443900  0.13648700  0.65048600  1
  C  C8  1  0.29806400  0.41312200  0.14635100  1
  C  C9  1  0.79806400  0.58687800  0.35364900  1
  C  C10  1  0.70193600  0.58687800  0.85364900  1
  C  C11  1  0.20193600  0.41312200  0.64635100  1
  C  C12  1  0.89497200  0.17810900  0.11679700  1
  C  C13  1  0.39497200  0.82189100  0.38320300  1
  C  C14  1  0.10502800  0.82189100  0.88320300  1
  C  C15  1  0.60502800  0.17810900  0.61679700  1
  C  C16  1  0.30605700  0.27245500  0.91526200  1
  C  C17  1  0.80605700  0.72754500  0.58473800  1
  C  C18  1  0.69394300  0.72754500  0.08473800  1
  C  C19  1  0.19394300  0.27245500  0.41526200  1
  N  N0  1  0.06408700  0.21337200  0.10300500  1
  N  N1  1  0.56408700  0.78662800  0.39699500  1
  N  N2  1  0.93591300  0.78662800  0.89699500  1
  N  N3  1  0.43591300  0.21337200  0.60300500  1
  N  N4  1  0.26913500  0.25546600  0.00332800  1
  N  N5  1  0.76913500  0.74453400  0.49667200  1
  N  N6  1  0.73086500  0.74453400  0.99667200  1
  N  N7  1  0.23086500  0.25546600  0.50332800  1
  Cl  Cl0  1  0.32525300  0.95668700  0.10947600  1
  Cl  Cl1  1  0.82525300  0.04331300  0.39052400  1
  Cl  Cl2  1  0.67474700  0.04331300  0.89052400  1
  Cl  Cl3  1  0.17474700  0.95668700  0.60947600  1
  Cl  Cl4  1  0.51087100  0.12484800  0.22962200  1
  Cl  Cl5  1  0.01087100  0.87515200  0.27037800  1
  Cl  Cl6  1  0.48912900  0.87515200  0.77037800  1
  Cl  Cl7  1  0.98912900  0.12484800  0.72962200  1
  Cl  Cl8  1  0.18425200  0.55588800  0.09935700  1
  Cl  Cl9  1  0.68425200  0.44411200  0.40064300  1
  Cl  Cl10  1  0.81574800  0.44411200  0.90064300  1
  Cl  Cl11  1  0.31574800  0.55588800  0.59935700  1
  Cl  Cl12  1  0.41916400  0.49174300  0.22515500  1
  Cl  Cl13  1  0.91916400  0.50825700  0.27484500  1
  Cl  Cl14  1  0.58083600  0.50825700  0.77484500  1
  Cl  Cl15  1  0.08083600  0.49174300  0.72515500  1
  O  O0  1  0.01550600  0.19470500  0.96489100  1
  O  O1  1  0.51550600  0.80529500  0.53510900  1
  O  O2  1  0.98449400  0.80529500  0.03510900  1
  O  O3  1  0.48449400  0.19470500  0.46489100  1
loop_
_geom_bond_atom_site_label_1
_geom_bond_atom_site_label_2
_geom_bond_distance
_geom_bond_site_symmetry_2
C0 O0 1.232678 1_554
C0 N0 1.397903 1_555
C0 N4 1.401955 1_555
C1 O1 1.232678 1_555
C1 N1 1.397903 1_555
C1 N5 1.401955 1_555
C2 O2 1.232678 1_556
C2 N2 1.397903 1_555
C2 N6 1.401955 1_555
C3 O3 1.232678 1_555
C3 N3 1.397903 1_555
C3 N7 1.401955 1_555
C4 Cl0 1.759728 1_545
C4 Cl4 1.781091 1_555
C4 P4 1.918048 1_555
C4 P0 1.919983 1_555
C5 Cl1 1.759728 1_565
C5 Cl5 1.781091 1_655
C5 P5 1.918048 1_555
C5 P1 1.919983 1_555
C6 Cl2 1.759728 1_565
C6 Cl6 1.781091 1_555
C6 P6 1.918048 1_555
C6 P2 1.919983 1_555
C7 Cl3 1.759728 1_545
C7 Cl7 1.781091 1_455
C7 P7 1.918048 1_555
C7 P3 1.919983 1_555
C8 Cl8 1.759429 1_555
C8 Cl12 1.782885 1_555
C8 P0 1.917386 1_555
C8 P4 1.917619 1_555
C9 Cl9 1.759429 1_555
C9 Cl13 1.782885 1_555
C9 P1 1.917386 1_555
C9 P5 1.917619 1_555
C10 Cl10 1.759429 1_555
C10 Cl14 1.782885 1_555
C10 P2 1.917386 1_555
C10 P6 1.917619 1_555
C11 Cl11 1.759429 1_555
C11 Cl15 1.782885 1_555
C11 P3 1.917386 1_555
C11 P7 1.917619 1_555
C12 H0 1.097076 1_555
C12 H4 1.097962 1_555
C12 H8 1.099223 1_555
C12 N0 1.476570 1_655
C13 H1 1.097076 1_555
C13 H5 1.097962 1_555
C13 H9 1.099223 1_555
C13 N1 1.476570 1_555
C14 H2 1.097076 1_555
C14 H6 1.097962 1_555
C14 H10 1.099223 1_555
C14 N2 1.476570 1_455
C15 H3 1.097076 1_555
C15 H7 1.097962 1_555
C15 H11 1.099223 1_555
C15 N3 1.476570 1_555
C16 H12 1.096640 1_555
C16 H20 1.097827 1_555
C16 H16 1.098932 1_555
C16 N4 1.475116 1_556
C17 H13 1.096640 1_555
C17 H21 1.097827 1_555
C17 H17 1.098932 1_555
C17 N5 1.475116 1_555
C18 H14 1.096640 1_555
C18 H22 1.097827 1_555
C18 H18 1.098932 1_555
C18 N6 1.475116 1_554
C19 H15 1.096640 1_555
C19 H23 1.097827 1_555
C19 H19 1.098932 1_555
C19 N7 1.475116 1_555
N0 P0 1.719416 1_555
N1 P1 1.719416 1_555
N2 P2 1.719416 1_555
N3 P3 1.719416 1_555
N4 P4 1.720765 1_555
N5 P5 1.720765 1_555
N6 P6 1.720765 1_555
N7 P7 1.720765 1_555
