# generated using pymatgen
data_Cu18S11
_symmetry_space_group_name_H-M   'P 1'
_cell_length_a   3.83947600
_cell_length_b   3.85277390
_cell_length_c   35.09439750
_cell_angle_alpha   92.75187463
_cell_angle_beta   88.84361584
_cell_angle_gamma   119.57706128
_symmetry_Int_Tables_number   1
_chemical_formula_structural   Cu18S11
_chemical_formula_sum   'Cu18 S11'
_cell_volume   450.96660617
_cell_formula_units_Z   1
loop_
 _symmetry_equiv_pos_site_id
 _symmetry_equiv_pos_as_xyz
  1  'x, y, z'
loop_
 _atom_site_type_symbol
 _atom_site_label
 _atom_site_symmetry_multiplicity
 _atom_site_fract_x
 _atom_site_fract_y
 _atom_site_fract_z
 _atom_site_occupancy
  Cu  Cu0  1  0.03229400  0.06084700  0.08075200  1
  Cu  Cu1  1  0.31877200  0.72419000  0.15252000  1
  Cu  Cu2  1  0.58310000  0.90763700  0.21707900  1
  Cu  Cu3  1  0.82924000  0.54616900  0.25649200  1
  Cu  Cu4  1  0.07807300  0.14179200  0.33594900  1
  Cu  Cu5  1  0.19265400  0.38005000  0.40237200  1
  Cu  Cu6  1  0.52020500  0.03995000  0.43903000  1
  Cu  Cu7  1  0.85055500  0.69658500  0.52441100  1
  Cu  Cu8  1  0.88118100  0.76699900  0.65274000  1
  Cu  Cu9  1  0.24240000  0.49117800  0.74513500  1
  Cu  Cu10  1  0.20693300  0.40731900  0.60432700  1
  Cu  Cu11  1  0.56717900  0.13118700  0.69665700  1
  Cu  Cu12  1  0.60931900  0.22507200  0.83726900  1
  Cu  Cu13  1  0.99516900  0.98603000  0.93133100  1
  Cu  Cu14  1  0.93777300  0.86852000  0.79111500  1
  Cu  Cu15  1  0.32272100  0.63113800  0.88565400  1
  Cu  Cu16  1  0.33529500  0.67298800  0.96598100  1
  Cu  Cu17  1  0.67756000  0.36688600  0.99951900  1
  S  S0  1  0.01244800  0.03530500  0.00390300  1
  S  S1  1  0.36538900  0.72941600  0.08993500  1
  S  S2  1  0.71109400  0.45479400  0.18391900  1
  S  S3  1  0.48330200  0.95866000  0.36841000  1
  S  S4  1  0.14022400  0.20591600  0.27392600  1
  S  S5  1  0.85203600  0.70471200  0.45816100  1
  S  S6  1  0.54744300  0.09415800  0.63056600  1
  S  S7  1  0.18589600  0.37158600  0.54127000  1
  S  S8  1  0.90885600  0.81975100  0.72270900  1
  S  S9  1  0.64922700  0.29721400  0.90242600  1
  S  S10  1  0.27384500  0.54832000  0.81298800  1
loop_
_geom_bond_atom_site_label_1
_geom_bond_atom_site_label_2
_geom_bond_distance
_geom_bond_site_symmetry_2
Cu0 S1 2.244621 1_545
Cu0 S1 2.249291 1_555
Cu0 S1 2.251520 1_445
Cu0 S0 2.695281 1_555
Cu1 S1 2.200309 1_555
Cu1 S2 2.313141 1_455
Cu1 S2 2.506137 1_555
Cu1 S2 2.643871 1_565
Cu2 S2 2.286815 1_565
Cu2 S2 2.295240 1_555
Cu3 S4 2.268275 1_665
Cu3 S4 2.273813 1_655
Cu3 S4 2.383159 1_555
Cu3 S2 2.572804 1_555
Cu4 S4 2.197339 1_555
Cu4 S3 2.322079 1_445
Cu4 S3 2.334254 1_545
Cu4 S3 2.918354 1_555
Cu5 S3 2.319713 1_555
Cu5 S3 2.617392 1_545
Cu5 S3 2.655975 1_445
Cu6 S5 2.298206 1_555
Cu6 S5 2.333040 1_445
Cu6 S5 2.341898 1_545
Cu6 S3 2.481189 1_545
Cu7 S7 2.295449 1_655
Cu7 S7 2.299145 1_555
Cu7 S7 2.312697 1_665
Cu7 S5 2.326572 1_555
Cu8 S6 2.352642 1_555
Cu8 S6 2.359060 1_565
Cu8 S6 2.359864 1_665
Cu8 S8 2.454275 1_555
Cu9 S8 2.350761 1_445
Cu9 S8 2.363521 1_555
Cu9 S8 2.366165 1_455
Cu9 S10 2.380855 1_555
Cu10 S7 2.211243 1_555
Cu10 S6 2.389945 1_455
Cu10 S6 2.392780 1_555
Cu10 S6 2.441118 1_565
Cu11 S6 2.317428 1_555
Cu11 S8 2.383809 1_445
Cu11 S8 2.388368 1_545
Cu11 S8 2.444291 1_555
Cu12 S9 2.289225 1_555
Cu12 S10 2.379969 1_655
Cu12 S10 2.380333 1_555
Cu12 S10 2.387289 1_545
Cu13 S9 2.411330 1_665
Cu13 S9 2.444146 1_565
Cu13 S9 2.480376 1_555
Cu13 S0 2.544593 1_666
Cu14 S10 2.340616 1_655
Cu14 S10 2.348771 1_555
Cu14 S10 2.371637 1_665
Cu14 S8 2.399518 1_555
Cu15 S9 2.283085 1_565
Cu15 S9 2.295171 1_555
Cu15 S9 2.327105 1_455
Cu15 S10 2.553911 1_555
Cu16 S0 2.566079 1_556
Cu16 S0 2.592197 1_566
Cu16 S0 2.618741 1_666
Cu17 S0 2.226518 1_656
Cu17 S0 2.226983 1_556
Cu17 S0 2.238312 1_666
