# generated using pymatgen
data_C7F3
_symmetry_space_group_name_H-M   'P 1'
_cell_length_a   11.06877700
_cell_length_b   11.46539617
_cell_length_c   20.52810948
_cell_angle_alpha   82.33476696
_cell_angle_beta   77.00459712
_cell_angle_gamma   65.54614045
_symmetry_Int_Tables_number   1
_chemical_formula_structural   C7F3
_chemical_formula_sum   'C140 F60'
_cell_volume   2308.35771133
_cell_formula_units_Z   20
loop_
 _symmetry_equiv_pos_site_id
 _symmetry_equiv_pos_as_xyz
  1  'x, y, z'
loop_
 _atom_site_type_symbol
 _atom_site_label
 _atom_site_symmetry_multiplicity
 _atom_site_fract_x
 _atom_site_fract_y
 _atom_site_fract_z
 _atom_site_occupancy
  C  C0  1  0.41626700  0.07215500  0.26834700  1
  C  C1  1  0.73873900  0.03555500  0.72911200  1
  C  C2  1  0.10121600  0.81896200  0.39237500  1
  C  C3  1  0.38652000  0.62507900  0.18462400  1
  C  C4  1  0.94107500  0.60567800  0.24802400  1
  C  C5  1  0.53029400  0.45868300  0.24686600  1
  C  C6  1  0.43750300  0.48328400  0.62820600  1
  C  C7  1  0.56652700  0.27977600  0.98601000  1
  C  C8  1  0.08570700  0.43959000  0.85416500  1
  C  C9  1  0.14175100  0.56252000  0.75222600  1
  C  C10  1  0.18663700  0.19566500  0.22947400  1
  C  C11  1  0.51436300  0.03900800  0.15460900  1
  C  C12  1  0.86921600  0.83695500  0.22665600  1
  C  C13  1  0.67863900  0.35896200  0.74686900  1
  C  C14  1  0.44787800  0.72061100  0.40826200  1
  C  C15  1  0.85824900  0.43748000  0.24777400  1
  C  C16  1  0.62568300  0.51189700  0.13218000  1
  C  C17  1  0.61695300  0.62194200  0.08551400  1
  C  C18  1  0.25195200  0.76350400  0.27702500  1
  C  C19  1  0.50867400  0.14118100  0.91793500  1
  C  C20  1  0.18914000  0.25215100  0.65947800  1
  C  C21  1  0.33960400  0.96149000  0.37817300  1
  C  C22  1  0.39005800  0.02588500  0.16431400  1
  C  C23  1  0.74461100  0.57143400  0.47929000  1
  C  C24  1  0.32007400  0.43409700  0.31553300  1
  C  C25  1  0.89878400  0.18103800  0.60762500  1
  C  C26  1  0.82672000  0.53860000  0.11544500  1
  C  C27  1  0.20876700  0.04714500  0.81624100  1
  C  C28  1  0.64222300  0.30784900  0.62322000  1
  C  C29  1  0.62580400  0.26917200  0.85975900  1
  C  C30  1  0.88269300  0.61991800  0.31627000  1
  C  C31  1  0.75625700  0.45970600  0.14995200  1
  C  C32  1  0.75201900  0.76279200  0.05468200  1
  C  C33  1  0.24959800  0.87068100  0.23337500  1
  C  C34  1  0.38013400  0.93409600  0.13038700  1
  C  C35  1  0.69767700  0.75056900  0.39102500  1
  C  C36  1  0.81086000  0.74784900  0.34052200  1
  C  C37  1  0.83329100  0.78727600  0.10012100  1
  C  C38  1  0.55242600  0.15918600  0.59442500  1
  C  C39  1  0.26126100  0.96444500  0.27088800  1
  C  C40  1  0.66010000  0.01913100  0.23450300  1
  C  C41  1  0.22966000  0.58905600  0.78463300  1
  C  C42  1  0.75301800  0.94923100  0.56346500  1
  C  C43  1  0.24278300  0.79633700  0.34873100  1
  C  C44  1  0.13078400  0.16304500  0.77334400  1
  C  C45  1  0.74804800  0.23649600  0.72297500  1
  C  C46  1  0.18780200  0.22706200  0.02075200  1
  C  C47  1  0.09010400  0.64881200  0.09048100  1
  C  C48  1  0.81219800  0.77293800  0.97924800  1
  C  C49  1  0.57382700  0.60678100  0.40535300  1
  C  C50  1  0.48522600  0.48766000  0.81944100  1
  C  C51  1  0.18380000  0.46097200  0.64818000  1
  C  C52  1  0.69180600  0.93329600  0.76523300  1
  C  C53  1  0.48563700  0.96099200  0.84539100  1
  C  C54  1  0.05892500  0.39432200  0.75197600  1
  C  C55  1  0.67992600  0.56590300  0.68446700  1
  C  C56  1  0.32317500  0.03530200  0.70009300  1
  C  C57  1  0.43638100  0.03471100  0.65151900  1
  C  C58  1  0.37419600  0.73082800  0.14024100  1
  C  C59  1  0.80416400  0.44946500  0.31802200  1
  C  C60  1  0.23907500  0.09465700  0.87371800  1
  C  C61  1  0.26277200  0.36262700  0.92467800  1
  C  C62  1  0.37445600  0.03895400  0.89015800  1
  C  C63  1  0.73722800  0.63737300  0.07532200  1
  C  C64  1  0.32136100  0.64103800  0.25313100  1
  C  C65  1  0.81336300  0.80433500  0.77052600  1
  C  C66  1  0.13721700  0.95417400  0.84113300  1
  C  C67  1  0.27910700  0.72411500  0.62793600  1
  C  C68  1  0.61270600  0.87293000  0.07233600  1
  C  C69  1  0.80310000  0.85393800  0.29577600  1
  C  C70  1  0.43347300  0.72022400  0.01399000  1
  C  C71  1  0.86278300  0.04582600  0.15886700  1
  C  C72  1  0.69258700  0.14479900  0.83468600  1
  C  C73  1  0.91429300  0.56041000  0.14583500  1
  C  C74  1  0.16670900  0.21272400  0.89987900  1
  C  C75  1  0.42458600  0.14411700  0.60583600  1
  C  C76  1  0.34327200  0.59230800  0.73566500  1
  C  C77  1  0.46970600  0.54131700  0.75313400  1
  C  C78  1  0.07162200  0.48792100  0.78696700  1
  C  C79  1  0.38304700  0.37805800  0.91448600  1
  C  C80  1  0.92837800  0.51207900  0.21303300  1
  C  C81  1  0.79123300  0.95285500  0.18375900  1
  C  C82  1  0.81620000  0.53902800  0.35182000  1
  C  C83  1  0.26751300  0.92198200  0.33586600  1
  C  C84  1  0.77034000  0.41094400  0.21536700  1
  C  C85  1  0.58373300  0.92784500  0.73165300  1
  C  C86  1  0.56361900  0.96528900  0.34848100  1
  C  C87  1  0.68258500  0.40967000  0.33494800  1
  C  C88  1  0.76092500  0.90534300  0.12628200  1
  C  C89  1  0.55212200  0.27938900  0.59173800  1
  C  C90  1  0.48265000  0.72927700  0.07752300  1
  C  C91  1  0.49132600  0.85881900  0.08206500  1
  C  C92  1  0.70573400  0.61317400  0.40944700  1
  C  C93  1  0.25538900  0.42856600  0.52071000  1
  C  C94  1  0.57231100  0.42990600  0.64636600  1
  C  C95  1  0.24798100  0.23720800  0.94531800  1
  C  C96  1  0.56249700  0.51671600  0.37179400  1
  C  C97  1  0.73248700  0.07801800  0.66413400  1
  C  C98  1  0.42617300  0.39321900  0.59464700  1
  C  C99  1  0.29426600  0.38682600  0.59055300  1
  C  C100  1  0.56860200  0.97765100  0.66762000  1
  C  C101  1  0.75721700  0.20366300  0.65126900  1
  C  C102  1  0.94455900  0.68189500  0.13129700  1
  C  C103  1  0.31741500  0.59033000  0.66505200  1
  C  C104  1  0.05544100  0.31810500  0.86870300  1
  C  C105  1  0.90989600  0.35118800  0.90951900  1
  C  C106  1  0.30819400  0.06670400  0.23476700  1
  C  C107  1  0.44757400  0.84081400  0.40557500  1
  C  C108  1  0.75040200  0.12931900  0.76662500  1
  C  C109  1  0.53265200  0.06636100  0.21857400  1
  C  C110  1  0.19690000  0.14606200  0.70422400  1
  C  C111  1  0.06383500  0.28494000  0.79681500  1
  C  C112  1  0.43139800  0.02234900  0.33238000  1
  C  C113  1  0.46734800  0.93363900  0.78142600  1
  C  C114  1  0.38729400  0.12707000  0.92766400  1
  C  C115  1  0.60292200  0.47640400  0.70381200  1
  C  C116  1  0.51477400  0.51234000  0.18055900  1
  C  C117  1  0.66039600  0.03851000  0.62182700  1
  C  C118  1  0.93616500  0.71506000  0.20318500  1
  C  C119  1  0.24698200  0.05076900  0.43653500  1
  C  C120  1  0.19583600  0.55053500  0.68197800  1
  C  C121  1  0.57541400  0.85588300  0.39416400  1
  C  C122  1  0.60994200  0.97411500  0.83568600  1
  C  C123  1  0.51735000  0.27072300  0.92247700  1
  C  C124  1  0.61348000  0.37492100  0.81537600  1
  C  C125  1  0.62554400  0.96104600  0.10984200  1
  C  C126  1  0.42768900  0.57009400  0.35363400  1
  C  C127  1  0.67682500  0.96469800  0.29990700  1
  C  C128  1  0.72089300  0.27588500  0.37206400  1
  C  C129  1  0.11730700  0.38008200  0.68373000  1
  C  C130  1  0.61986600  0.06590400  0.86961300  1
  C  C131  1  0.17328000  0.46140000  0.88455500  1
  C  C132  1  0.65672800  0.40769200  0.26433500  1
  C  C133  1  0.24374300  0.54029400  0.85004800  1
  C  C134  1  0.33990000  0.98086900  0.76549700  1
  C  C135  1  0.30741300  0.85520100  0.16531400  1
  C  C136  1  0.39707800  0.52359600  0.29618800  1
  C  C137  1  0.30232300  0.24943100  0.60897500  1
  C  C138  1  0.35777700  0.69215100  0.37678000  1
  C  C139  1  0.37431700  0.48810300  0.86782000  1
  F  F0  1  0.84114000  0.87890100  0.96416900  1
  F  F1  1  0.83177500  0.18737400  0.33570400  1
  F  F2  1  0.92702600  0.66926300  0.95973300  1
  F  F3  1  0.88976800  0.08626500  0.21114500  1
  F  F4  1  0.15886000  0.12109900  0.03583100  1
  F  F5  1  0.28345500  0.41401200  0.26027800  1
  F  F6  1  0.01895600  0.00911200  0.88395900  1
  F  F7  1  0.99625300  0.07441200  0.63036200  1
  F  F8  1  0.85456300  0.84666600  0.58484900  1
  F  F9  1  0.52860700  0.70715500  0.95767000  1
  F  F10  1  0.14109200  0.41352600  0.51808700  1
  F  F11  1  0.78247500  0.15173500  0.12661700  1
  F  F12  1  0.10902200  0.59820300  0.03119000  1
  F  F13  1  0.32218400  0.82708200  0.00440000  1
  F  F14  1  0.35659700  0.35520000  0.47332800  1
  F  F15  1  0.20595200  0.48371000  0.36176900  1
  F  F16  1  0.18239700  0.56067400  0.12532700  1
  F  F17  1  0.89097800  0.40179700  0.96881000  1
  F  F18  1  0.87710000  0.75503600  0.70964700  1
  F  F19  1  0.14543700  0.15333400  0.41515100  1
  F  F20  1  0.67781600  0.17291800  0.99560000  1
  F  F21  1  0.76593600  0.44726200  0.49627800  1
  F  F22  1  0.39977500  0.61733100  0.02002300  1
  F  F23  1  0.39750700  0.31743600  0.33975700  1
  F  F24  1  0.09692500  0.83413900  0.45713400  1
  F  F25  1  0.81760300  0.43932600  0.87467300  1
  F  F26  1  0.25022100  0.72259900  0.56748300  1
  F  F27  1  0.23406400  0.55273800  0.50372200  1
  F  F28  1  0.67943300  0.90461100  0.53619500  1
  F  F29  1  0.07297400  0.33073700  0.04026700  1
  F  F30  1  0.00374700  0.92558800  0.36963800  1
  F  F31  1  0.11859400  0.75451200  0.07766800  1
  F  F32  1  0.90539500  0.82083300  0.79880900  1
  F  F33  1  0.74977900  0.27740100  0.43251700  1
  F  F34  1  0.71654500  0.58598800  0.73972200  1
  F  F35  1  0.85890800  0.58647400  0.48191300  1
  F  F36  1  0.98104400  0.99088800  0.11604100  1
  F  F37  1  0.93316900  0.28129700  0.60909800  1
  F  F38  1  0.77517700  0.71593000  0.80954400  1
  F  F39  1  0.47139300  0.29284500  0.04233000  1
  F  F40  1  0.16822500  0.81262600  0.66429600  1
  F  F41  1  0.60249300  0.68256400  0.66024300  1
  F  F42  1  0.27680700  0.21850500  0.05881800  1
  F  F43  1  0.06683100  0.71870300  0.39090200  1
  F  F44  1  0.80795800  0.01204300  0.51331900  1
  F  F45  1  0.90307500  0.16586100  0.54286600  1
  F  F46  1  0.12290000  0.24496400  0.29035300  1
  F  F47  1  0.79404800  0.51629000  0.63823100  1
  F  F48  1  0.88140600  0.24548800  0.92233200  1
  F  F49  1  0.19204200  0.98795700  0.48668100  1
  F  F50  1  0.64340300  0.64480000  0.52667200  1
  F  F51  1  0.21752500  0.84826500  0.87338300  1
  F  F52  1  0.38007000  0.76633700  0.61753600  1
  F  F53  1  0.72319300  0.78149500  0.94118200  1
  F  F54  1  0.60022500  0.38266900  0.97997700  1
  F  F55  1  0.22482300  0.28407000  0.19045600  1
  F  F56  1  0.09460500  0.17916700  0.20119100  1
  F  F57  1  0.61993000  0.23366300  0.38246400  1
  F  F58  1  0.11023200  0.91373500  0.78885500  1
  F  F59  1  0.32056700  0.09538900  0.46380500  1
loop_
_geom_bond_atom_site_label_1
_geom_bond_atom_site_label_2
_geom_bond_distance
_geom_bond_site_symmetry_2
C0 C112 1.378977 1_555
C0 C109 1.436389 1_555
C0 C106 1.534380 1_555
C1 C97 1.364339 1_555
C1 C108 1.464871 1_555
C1 C52 1.514399 1_545
C2 F24 1.351391 1_555
C2 F43 1.357869 1_555
C2 F30 1.363312 1_555
C2 C43 1.555460 1_555
C3 C58 1.393925 1_555
C3 C64 1.426396 1_555
C4 C80 1.436406 1_555
C6 C98 1.375678 1_555
C6 C94 1.474216 1_555
C7 F39 1.354993 1_556
C7 F54 1.360416 1_555
C7 F20 1.361040 1_555
C10 F55 1.354045 1_555
C10 F46 1.356761 1_555
C10 F56 1.365801 1_555
C10 C106 1.544077 1_555
C11 C125 1.399201 1_545
C11 C22 1.412642 1_555
C12 C69 1.440654 1_555
C12 C81 1.538304 1_555
C13 C45 1.386910 1_555
C14 C49 1.458553 1_555
C15 C80 1.407369 1_555
C15 C59 1.432932 1_555
C15 C84 1.439504 1_555
C16 C31 1.429308 1_555
C16 C17 1.461917 1_555
C17 C63 1.381046 1_555
C17 C90 1.514090 1_555
C18 C64 1.386910 1_555
C18 C33 1.415577 1_555
C18 C43 1.538754 1_555
C21 C83 1.520550 1_555
C22 C34 1.389354 1_545
C23 F21 1.352978 1_555
C23 F35 1.359013 1_555
C23 F50 1.362587 1_555
C23 C92 1.547179 1_555
C24 F15 1.352774 1_555
C24 F23 1.355016 1_555
C24 F5 1.362955 1_555
C25 F45 1.351391 1_555
C25 F37 1.357869 1_555
C25 F7 1.363312 1_555
C26 C73 1.380425 1_555
C26 C31 1.446714 1_555
C26 C63 1.459955 1_555
C27 C60 1.517307 1_555
C27 C44 1.538304 1_555
C27 C66 1.547964 1_545
C28 C94 1.377836 1_555
C28 C89 1.460929 1_555
C29 C72 1.413065 1_555
C30 C4 1.404794 1_555
C30 C82 1.441322 1_555
C30 C36 1.443158 1_555
C31 C84 1.400647 1_555
C32 C63 1.508405 1_555
C32 C68 1.537002 1_555
C32 C48 1.551558 1_554
C32 C37 1.553845 1_555
C33 C39 1.464871 1_555
C34 C91 1.429518 1_555
C35 C36 1.427385 1_555
C35 C92 1.540270 1_555
C36 C69 1.407677 1_555
C37 C88 1.365733 1_555
C38 C89 1.370542 1_555
C38 C75 1.459306 1_555
C39 C83 1.364339 1_555
C40 C81 1.545093 1_545
C41 C76 1.433029 1_555
C41 C9 1.439504 1_555
C42 F8 1.352323 1_555
C42 F44 1.353289 1_565
C42 F28 1.365631 1_555
C43 C83 1.553185 1_555
C46 F29 1.355024 1_555
C46 F42 1.355204 1_555
C46 F4 1.360790 1_555
C46 C95 1.551558 1_554
C47 F31 1.353284 1_555
C47 F12 1.354671 1_555
C47 F16 1.362939 1_555
C48 F2 1.355024 1_555
C48 F53 1.355204 1_555
C48 F0 1.360790 1_555
C49 C96 1.375678 1_555
C49 C92 1.513146 1_555
C50 C77 1.433530 1_555
C51 C99 1.540887 1_555
C52 C85 1.534380 1_555
C52 C65 1.544077 1_555
C53 C62 1.399201 1_565
C54 C78 1.436406 1_555
C55 F47 1.352774 1_555
C55 F41 1.355016 1_555
C55 F34 1.362955 1_555
C56 C57 1.413256 1_555
C57 C75 1.440704 1_555
C58 C90 1.546718 1_555
C59 C82 1.377856 1_555
C59 C87 1.547793 1_555
C60 C74 1.365733 1_555
C60 C62 1.464543 1_555
C61 C79 1.381046 1_555
C61 C95 1.508405 1_555
C65 F38 1.354045 1_555
C65 F18 1.356761 1_555
C65 F32 1.365801 1_555
C66 F6 1.353016 1_565
C66 F58 1.359204 1_555
C66 F51 1.363637 1_555
C67 F26 1.353286 1_555
C67 F52 1.357143 1_555
C67 F40 1.360948 1_555
C68 C91 1.386288 1_555
C70 F9 1.354993 1_554
C70 F22 1.360416 1_555
C70 F13 1.361040 1_555
C70 C90 1.552486 1_555
C71 F36 1.353016 1_545
C71 F3 1.359204 1_555
C71 F11 1.363637 1_555
C71 C81 1.547964 1_545
C73 C80 1.433711 1_555
C74 C95 1.553845 1_555
C76 C77 1.386111 1_555
C78 C9 1.407369 1_555
C78 C8 1.433711 1_555
C81 C88 1.517307 1_555
C82 C92 1.540887 1_555
C87 C96 1.513304 1_555
C89 C98 1.458553 1_555
C90 C91 1.543678 1_555
C93 F27 1.352978 1_555
C93 F10 1.359013 1_555
C93 F14 1.362587 1_555
C93 C99 1.547179 1_555
C98 C99 1.513146 1_555
C100 C85 1.378977 1_555
C100 C57 1.430495 1_565
C100 C117 1.544455 1_565
C101 C28 1.505288 1_555
C101 C45 1.538754 1_555
C101 C97 1.553185 1_555
C101 C25 1.555460 1_555
C102 C37 1.517388 1_555
C102 C73 1.540085 1_555
C102 C118 1.545887 1_555
C102 C47 1.553396 1_655
C103 C6 1.513304 1_555
C103 C76 1.544136 1_555
C103 C120 1.547793 1_555
C103 C67 1.551838 1_555
C104 C74 1.517388 1_555
C104 C8 1.540085 1_555
C104 C111 1.545887 1_555
C104 C105 1.553396 1_455
C105 F48 1.353284 1_555
C105 F17 1.354671 1_555
C105 F25 1.362939 1_555
C106 C39 1.514399 1_545
C106 C22 1.540086 1_555
C107 C14 1.370542 1_555
C107 C121 1.459306 1_555
C107 C21 1.544261 1_555
C108 C72 1.401103 1_555
C108 C45 1.415577 1_555
C109 C40 1.384913 1_555
C109 C11 1.464746 1_555
C110 C20 1.407677 1_555
C110 C44 1.440654 1_555
C110 C56 1.441992 1_555
C111 C44 1.376995 1_555
C111 C54 1.442605 1_555
C112 C86 1.430495 1_545
C112 C21 1.544455 1_545
C113 C134 1.384913 1_555
C113 C85 1.436389 1_555
C113 C53 1.464746 1_555
C114 C19 1.386288 1_555
C114 C62 1.417472 1_555
C114 C95 1.537002 1_555
C115 C94 1.512162 1_555
C115 C77 1.540875 1_555
C115 C13 1.542110 1_555
C115 C55 1.549300 1_555
C116 C16 1.393290 1_555
C116 C5 1.433530 1_555
C116 C3 1.466065 1_555
C117 C97 1.520550 1_555
C117 C38 1.544261 1_555
C117 C42 1.562086 1_545
C118 C12 1.376995 1_555
C118 C4 1.442605 1_555
C119 F19 1.352323 1_555
C119 F49 1.353289 1_545
C119 F59 1.365631 1_555
C119 C21 1.562086 1_545
C120 C51 1.377856 1_555
C120 C9 1.432932 1_555
C121 C35 1.386439 1_555
C121 C86 1.440704 1_555
C122 C130 1.389354 1_565
C122 C53 1.412642 1_555
C122 C52 1.540086 1_555
C123 C79 1.514090 1_555
C123 C19 1.543678 1_555
C123 C29 1.546718 1_555
C123 C7 1.552486 1_555
C124 C29 1.393925 1_555
C124 C13 1.426396 1_555
C124 C50 1.466065 1_555
C125 C68 1.417472 1_555
C125 C88 1.464543 1_555
C126 C138 1.377836 1_555
C126 C96 1.474216 1_555
C126 C136 1.512162 1_555
C127 C86 1.413256 1_555
C127 C40 1.420914 1_565
C127 C69 1.441992 1_555
C128 F33 1.353286 1_555
C128 F57 1.357143 1_555
C128 F1 1.360948 1_555
C128 C87 1.551838 1_555
C129 C54 1.404794 1_555
C129 C51 1.441322 1_555
C129 C20 1.443158 1_555
C130 C19 1.429518 1_555
C130 C72 1.466445 1_555
C131 C8 1.380425 1_555
C131 C133 1.446714 1_555
C131 C61 1.459955 1_555
C132 C5 1.386111 1_555
C132 C84 1.433029 1_555
C132 C87 1.544136 1_555
C133 C41 1.400647 1_555
C133 C139 1.429308 1_555
C134 C56 1.420914 1_565
C134 C27 1.545093 1_565
C135 C33 1.401103 1_555
C135 C58 1.413065 1_555
C135 C34 1.466445 1_555
C136 C5 1.540875 1_555
C136 C64 1.542110 1_555
C136 C24 1.549300 1_555
C137 C75 1.386439 1_555
C137 C20 1.427385 1_555
C137 C99 1.540270 1_555
C138 C14 1.460929 1_555
C138 C43 1.505288 1_555
C139 C50 1.393290 1_555
C139 C79 1.461917 1_555
