# generated using pymatgen
data_Na3HoTi2Nb2O12
_symmetry_space_group_name_H-M   'P 1'
_cell_length_a   5.45865400
_cell_length_b   5.63778100
_cell_length_c   15.43889300
_cell_angle_alpha   90.00000000
_cell_angle_beta   90.00000000
_cell_angle_gamma   90.00000000
_symmetry_Int_Tables_number   1
_chemical_formula_structural   Na3HoTi2Nb2O12
_chemical_formula_sum   'Na6 Ho2 Ti4 Nb4 O24'
_cell_volume   475.12723567
_cell_formula_units_Z   2
loop_
 _symmetry_equiv_pos_site_id
 _symmetry_equiv_pos_as_xyz
  1  'x, y, z'
loop_
 _atom_site_type_symbol
 _atom_site_label
 _atom_site_symmetry_multiplicity
 _atom_site_fract_x
 _atom_site_fract_y
 _atom_site_fract_z
 _atom_site_occupancy
  Na  Na0  1  0.75739700  0.96319100  0.24813700  1
  Na  Na1  1  0.75739700  0.96319100  0.75186300  1
  Na  Na2  1  0.24260300  0.46319100  0.75186300  1
  Na  Na3  1  0.24260300  0.46319100  0.24813700  1
  Na  Na4  1  0.26009600  0.52111000  0.50000000  1
  Na  Na5  1  0.73990400  0.02111000  0.50000000  1
  Ho  Ho0  1  0.26378800  0.56868000  0.00000000  1
  Ho  Ho1  1  0.73621200  0.06868000  0.00000000  1
  Ti  Ti0  1  0.76360000  0.52911700  0.87322600  1
  Ti  Ti1  1  0.76360000  0.52911700  0.12677400  1
  Ti  Ti2  1  0.23640000  0.02911700  0.12677400  1
  Ti  Ti3  1  0.23640000  0.02911700  0.87322600  1
  Nb  Nb0  1  0.74759600  0.48079800  0.37248500  1
  Nb  Nb1  1  0.74759600  0.48079800  0.62751500  1
  Nb  Nb2  1  0.25240400  0.98079800  0.62751500  1
  Nb  Nb3  1  0.25240400  0.98079800  0.37248500  1
  O  O0  1  0.85261300  0.46118200  0.00000000  1
  O  O1  1  0.83376200  0.49040800  0.50000000  1
  O  O2  1  0.96621400  0.22162000  0.35031300  1
  O  O3  1  0.94804300  0.19427900  0.13764700  1
  O  O4  1  0.96621400  0.22162000  0.64968700  1
  O  O5  1  0.94804300  0.19427900  0.86235300  1
  O  O6  1  0.05195700  0.69427900  0.13764700  1
  O  O7  1  0.03378600  0.72162000  0.35031300  1
  O  O8  1  0.03378600  0.72162000  0.64968700  1
  O  O9  1  0.05195700  0.69427900  0.86235300  1
  O  O10  1  0.14738700  0.96118200  0.00000000  1
  O  O11  1  0.16623800  0.99040800  0.50000000  1
  O  O12  1  0.33014300  0.02275700  0.24547400  1
  O  O13  1  0.33014300  0.02275700  0.75452600  1
  O  O14  1  0.46460200  0.28638200  0.39502700  1
  O  O15  1  0.45075600  0.28118800  0.90860400  1
  O  O16  1  0.45075600  0.28118800  0.09139600  1
  O  O17  1  0.46460200  0.28638200  0.60497300  1
  O  O18  1  0.54924400  0.78118800  0.90860400  1
  O  O19  1  0.54924400  0.78118800  0.09139600  1
  O  O20  1  0.53539800  0.78638200  0.39502700  1
  O  O21  1  0.53539800  0.78638200  0.60497300  1
  O  O22  1  0.66985700  0.52275700  0.24547400  1
  O  O23  1  0.66985700  0.52275700  0.75452600  1
loop_
_geom_bond_atom_site_label_1
_geom_bond_atom_site_label_2
_geom_bond_distance
_geom_bond_site_symmetry_2
Na0 O12 2.356644 1_565
Na0 O3 2.385424 1_565
Na0 O2 2.431149 1_565
Na0 O22 2.528966 1_555
Na0 O7 2.572840 1_655
Na0 O20 2.757740 1_555
Na0 O6 2.791721 1_655
Na0 O19 2.863538 1_555
Na1 O13 2.356644 1_565
Na1 O5 2.385424 1_565
Na1 O4 2.431149 1_565
Na1 O23 2.528966 1_555
Na1 O8 2.572840 1_655
Na1 O21 2.757740 1_555
Na1 O9 2.791721 1_655
Na1 O18 2.863538 1_555
Na2 O23 2.356644 1_555
Na2 O9 2.385424 1_555
Na2 O8 2.431149 1_555
Na2 O13 2.528966 1_555
Na2 O4 2.572840 1_455
Na2 O17 2.757740 1_555
Na2 O5 2.791721 1_455
Na2 O15 2.863538 1_555
Na3 O22 2.356644 1_555
Na3 O6 2.385424 1_555
Na3 O7 2.431149 1_555
Na3 O12 2.528966 1_555
Na3 O2 2.572840 1_455
Na3 O14 2.757740 1_555
Na3 O3 2.791721 1_455
Na3 O16 2.863538 1_555
Na4 O1 2.333638 1_455
Na4 O17 2.371495 1_555
Na4 O14 2.371495 1_555
Na4 O20 2.668625 1_555
Na4 O21 2.668625 1_555
Na4 O11 2.694948 1_555
Na4 O8 2.853890 1_555
Na4 O7 2.853890 1_555
Na5 O11 2.333638 1_645
Na5 O21 2.371495 1_545
Na5 O20 2.371495 1_545
Na5 O14 2.668625 1_555
Na5 O17 2.668625 1_555
Na5 O1 2.694948 1_555
Na5 O4 2.853890 1_555
Na5 O2 2.853890 1_555
Ho0 O10 2.302257 1_555
Ho0 O0 2.324846 1_455
Ho0 O16 2.379019 1_555
Ho0 O15 2.379019 1_554
Ho0 O19 2.419598 1_555
Ho0 O18 2.419598 1_554
Ho0 O9 2.520831 1_554
Ho0 O6 2.520831 1_555
Ho1 O0 2.302257 1_555
Ho1 O10 2.324846 1_645
Ho1 O19 2.379019 1_545
Ho1 O18 2.379019 1_544
Ho1 O16 2.419598 1_555
Ho1 O15 2.419598 1_554
Ho1 O5 2.520831 1_554
Ho1 O3 2.520831 1_555
Nb0 O2 1.917383 1_555
Nb0 O14 1.925825 1_555
Nb0 O22 2.020197 1_555
Nb0 O1 2.024823 1_555
Nb0 O7 2.097865 1_655
Nb0 O20 2.104972 1_555
Nb1 O4 1.917383 1_555
Nb1 O17 1.925825 1_555
Nb1 O23 2.020197 1_555
Nb1 O1 2.024823 1_555
Nb1 O8 2.097865 1_655
Nb1 O21 2.104972 1_555
Nb2 O8 1.917383 1_555
Nb2 O21 1.925825 1_555
Nb2 O13 2.020197 1_565
Nb2 O11 2.024823 1_555
Nb2 O4 2.097865 1_465
Nb2 O17 2.104972 1_565
Nb3 O7 1.917383 1_555
Nb3 O20 1.925825 1_555
Nb3 O12 2.020197 1_565
Nb3 O11 2.024823 1_555
Nb3 O2 2.097865 1_465
Nb3 O14 2.104972 1_565
O0 Ti1 2.052708 1_555
O0 Ti0 2.052708 1_554
O3 Ti2 1.836524 1_655
O3 Ti1 2.146025 1_555
O5 Ti3 1.836524 1_655
O5 Ti0 2.146025 1_555
O6 Ti1 1.836524 1_455
O6 Ti2 2.146025 1_565
O9 Ti0 1.836524 1_455
O9 Ti3 2.146025 1_565
O10 Ti2 2.052708 1_565
O10 Ti3 2.052708 1_564
O12 Ti2 1.903035 1_555
O13 Ti3 1.903035 1_555
O15 Ti3 1.920166 1_555
O15 Ti0 2.273401 1_555
O16 Ti2 1.920166 1_555
O16 Ti1 2.273401 1_555
O18 Ti0 1.920166 1_555
O18 Ti3 2.273401 1_565
O19 Ti1 1.920166 1_555
O19 Ti2 2.273401 1_565
O22 Ti1 1.903035 1_555
O23 Ti0 1.903035 1_555
