# generated using pymatgen
data_SrGa2(SiO4)2
_symmetry_space_group_name_H-M   'P 1'
_cell_length_a   8.50534085
_cell_length_b   9.33035852
_cell_length_c   9.33035740
_cell_angle_alpha   89.72862243
_cell_angle_beta   82.94665988
_cell_angle_gamma   82.94666186
_symmetry_Int_Tables_number   1
_chemical_formula_structural   SrGa2(SiO4)2
_chemical_formula_sum   'Sr4 Ga8 Si8 O32'
_cell_volume   729.23271708
_cell_formula_units_Z   4
loop_
 _symmetry_equiv_pos_site_id
 _symmetry_equiv_pos_as_xyz
  1  'x, y, z'
loop_
 _atom_site_type_symbol
 _atom_site_label
 _atom_site_symmetry_multiplicity
 _atom_site_fract_x
 _atom_site_fract_y
 _atom_site_fract_z
 _atom_site_occupancy
  Sr  Sr0  1  0.30114651  0.43788256  0.42982766  1
  Sr  Sr1  1  0.19885349  0.07017234  0.06211744  1
  Sr  Sr2  1  0.69885349  0.56211744  0.57017234  1
  Sr  Sr3  1  0.80114651  0.92982766  0.93788256  1
  Ga  Ga0  1  0.12011870  0.70149435  0.05940471  1
  Ga  Ga1  1  0.37988130  0.44059529  0.79850565  1
  Ga  Ga2  1  0.87988130  0.29850565  0.94059529  1
  Ga  Ga3  1  0.62011870  0.55940471  0.20149435  1
  Ga  Ga4  1  0.52398939  0.04601079  0.29308105  1
  Ga  Ga5  1  0.97601061  0.20691895  0.45398921  1
  Ga  Ga6  1  0.47601061  0.95398921  0.70691895  1
  Ga  Ga7  1  0.02398939  0.79308105  0.54601079  1
  Si  Si0  1  0.49251035  0.71889420  0.93980244  1
  Si  Si1  1  0.00748965  0.56019756  0.78110580  1
  Si  Si2  1  0.50748965  0.28110580  0.06019756  1
  Si  Si3  1  0.99251035  0.43980244  0.21889420  1
  Si  Si4  1  0.90184093  0.93462214  0.27671320  1
  Si  Si5  1  0.59815907  0.22328680  0.56537786  1
  Si  Si6  1  0.09815907  0.06537786  0.72328680  1
  Si  Si7  1  0.40184093  0.77671320  0.43462214  1
  O  O0  1  0.00210585  0.67718259  0.91059265  1
  O  O1  1  0.49789415  0.58940735  0.82281741  1
  O  O2  1  0.99789415  0.32281741  0.08940735  1
  O  O3  1  0.50210585  0.41059265  0.17718259  1
  O  O4  1  0.50350920  0.18518223  0.43223405  1
  O  O5  1  0.99649080  0.06776595  0.31481777  1
  O  O6  1  0.49649080  0.81481777  0.56776595  1
  O  O7  1  0.00350920  0.93223405  0.68518223  1
  O  O8  1  0.12107428  0.55425520  0.18444171  1
  O  O9  1  0.37892572  0.31555829  0.94574480  1
  O  O10  1  0.87892572  0.44574480  0.81555829  1
  O  O11  1  0.62107428  0.68444171  0.05425520  1
  O  O12  1  0.60837808  0.09271705  0.67797084  1
  O  O13  1  0.89162192  0.82202916  0.40728295  1
  O  O14  1  0.39162192  0.90728295  0.32202916  1
  O  O15  1  0.10837808  0.17797084  0.59271705  1
  O  O16  1  0.31211641  0.76817306  0.01476112  1
  O  O17  1  0.18788359  0.48523888  0.73182694  1
  O  O18  1  0.68788359  0.23182694  0.98523888  1
  O  O19  1  0.81211641  0.51476112  0.26817306  1
  O  O20  1  0.99340869  0.12479172  0.87530519  1
  O  O21  1  0.50659131  0.62469481  0.37520828  1
  O  O22  1  0.00659131  0.87520828  0.12469481  1
  O  O23  1  0.49340869  0.37530519  0.62479172  1
  O  O24  1  0.55970123  0.85806900  0.85782785  1
  O  O25  1  0.94029877  0.64217215  0.64193100  1
  O  O26  1  0.44029877  0.14193100  0.14217215  1
  O  O27  1  0.05970223  0.35782785  0.35806900  1
  O  O28  1  0.27092865  0.01911023  0.77714517  1
  O  O29  1  0.22907135  0.72285483  0.48088977  1
  O  O30  1  0.72907135  0.98088977  0.22285483  1
  O  O31  1  0.77092865  0.27714517  0.51911023  1
loop_
_geom_bond_atom_site_label_1
_geom_bond_atom_site_label_2
_geom_bond_distance
_geom_bond_site_symmetry_2
Ga0 O8 1.798007 1_555
Ga0 O16 1.818589 1_555
Ga0 O0 1.840642 1_554
Ga0 O22 1.846900 1_555
Ga1 O9 1.798007 1_555
Ga1 O17 1.818589 1_555
Ga1 O1 1.840642 1_555
Ga1 O23 1.846900 1_555
Ga2 O10 1.798007 1_555
Ga2 O18 1.818589 1_555
Ga2 O2 1.840642 1_556
Ga2 O20 1.846900 1_555
Ga3 O11 1.798007 1_555
Ga3 O19 1.818589 1_555
Ga3 O3 1.840642 1_555
Ga3 O21 1.846900 1_555
Ga4 O14 1.815422 1_545
Ga4 O30 1.817656 1_545
Ga4 O4 1.818538 1_555
Ga4 O26 1.835202 1_555
Ga5 O15 1.815422 1_655
Ga5 O31 1.817656 1_555
Ga5 O5 1.818538 1_555
Ga5 O27 1.835206 1_655
Ga6 O12 1.815422 1_565
Ga6 O28 1.817656 1_565
Ga6 O6 1.818538 1_555
Ga6 O24 1.835202 1_555
Ga7 O13 1.815422 1_455
Ga7 O29 1.817656 1_555
Ga7 O7 1.818538 1_555
Ga7 O25 1.835202 1_455
O0 Si1 1.624738 1_555
O0 Sr3 2.729894 1_455
O1 Si0 1.624738 1_555
O1 Sr2 2.729893 1_555
O2 Si3 1.624738 1_555
O2 Sr1 2.729894 1_655
O3 Si2 1.624738 1_555
O3 Sr0 2.729893 1_555
O4 Si5 1.624133 1_555
O4 Sr0 2.744890 1_555
O5 Si4 1.624133 1_545
O5 Sr1 2.744890 1_655
O6 Si7 1.624133 1_555
O6 Sr2 2.744890 1_555
O7 Si6 1.624133 1_565
O7 Sr3 2.744890 1_455
O8 Si3 1.623764 1_455
O8 Sr0 3.032472 1_555
O9 Si2 1.623764 1_556
O9 Sr1 3.032472 1_556
O10 Si1 1.623764 1_655
O10 Sr2 3.032472 1_555
O11 Si0 1.623764 1_554
O11 Sr3 3.032472 1_554
O12 Si5 1.606124 1_555
O13 Si4 1.606124 1_555
O14 Si7 1.606124 1_555
O15 Si6 1.606124 1_555
O16 Si0 1.618928 1_554
O16 Sr1 2.881607 1_565
O17 Si1 1.618928 1_555
O17 Sr0 2.881607 1_555
O18 Si2 1.618928 1_556
O18 Sr3 2.881607 1_545
O19 Si3 1.618928 1_555
O19 Sr2 2.881607 1_555
O20 Si6 1.639727 1_655
O20 Sr3 2.609603 1_545
O20 Sr1 2.621461 1_656
O21 Si7 1.639727 1_555
O21 Sr2 2.609603 1_555
O21 Sr0 2.621461 1_555
O22 Si4 1.639727 1_455
O22 Sr1 2.609603 1_565
O22 Sr3 2.621461 1_454
O23 Si5 1.639727 1_555
O23 Sr0 2.609603 1_555
O23 Sr2 2.621461 1_555
O24 Si0 1.631968 1_555
O24 Sr3 2.437718 1_555
O25 Si1 1.631968 1_655
O25 Sr2 2.437718 1_555
O26 Si2 1.631968 1_555
O26 Sr1 2.437718 1_555
O27 Si3 1.631971 1_455
O27 Sr0 2.437710 1_555
O28 Si6 1.619170 1_555
O28 Sr1 2.685604 1_556
O29 Si7 1.619170 1_555
O29 Sr0 2.685605 1_555
O30 Si4 1.619170 1_555
O30 Sr3 2.685604 1_554
O31 Si5 1.619170 1_555
O31 Sr2 2.685605 1_555
