# generated using pymatgen
data_Na6CaZr(SiO3)6
_symmetry_space_group_name_H-M   'P 1'
_cell_length_a   10.73084149
_cell_length_b   10.73084149
_cell_length_c   10.73084132
_cell_angle_alpha   58.35446728
_cell_angle_beta   58.35446728
_cell_angle_gamma   58.35446455
_symmetry_Int_Tables_number   1
_chemical_formula_structural   Na6CaZr(SiO3)6
_chemical_formula_sum   'Na12 Ca2 Zr2 Si12 O36'
_cell_volume   840.83106049
_cell_formula_units_Z   2
loop_
 _symmetry_equiv_pos_site_id
 _symmetry_equiv_pos_as_xyz
  1  'x, y, z'
loop_
 _atom_site_type_symbol
 _atom_site_label
 _atom_site_symmetry_multiplicity
 _atom_site_fract_x
 _atom_site_fract_y
 _atom_site_fract_z
 _atom_site_occupancy
  Na  Na0  1  0.42745300  0.01758700  0.02818500  1
  Na  Na1  1  0.01758700  0.02818500  0.42745300  1
  Na  Na2  1  0.02818500  0.42745300  0.01758700  1
  Na  Na3  1  0.92745300  0.52818500  0.51758700  1
  Na  Na4  1  0.52818500  0.51758700  0.92745300  1
  Na  Na5  1  0.77524600  0.23993200  0.23295000  1
  Na  Na6  1  0.23993200  0.23295000  0.77524600  1
  Na  Na7  1  0.23295000  0.77524600  0.23993200  1
  Na  Na8  1  0.73993200  0.27524600  0.73295000  1
  Na  Na9  1  0.73295000  0.73993200  0.27524600  1
  Na  Na10  1  0.27524600  0.73295000  0.73993200  1
  Na  Na11  1  0.51758700  0.92745300  0.52818500  1
  Ca  Ca0  1  0.37697500  0.37697500  0.37697500  1
  Ca  Ca1  1  0.87697500  0.87697500  0.87697500  1
  Zr  Zr0  1  0.00439300  0.00439300  0.00439300  1
  Zr  Zr1  1  0.50439300  0.50439300  0.50439300  1
  Si  Si0  1  0.13346300  0.13249200  0.58874600  1
  Si  Si1  1  0.58874600  0.13346300  0.13249200  1
  Si  Si2  1  0.13249200  0.58874600  0.13346300  1
  Si  Si3  1  0.63346300  0.08874600  0.63249200  1
  Si  Si4  1  0.08874600  0.63249200  0.63346300  1
  Si  Si5  1  0.63249200  0.63346300  0.08874600  1
  Si  Si6  1  0.36879300  0.36459200  0.91709700  1
  Si  Si7  1  0.91709700  0.36879300  0.36459200  1
  Si  Si8  1  0.36459200  0.91709700  0.36879300  1
  Si  Si9  1  0.86879300  0.41709700  0.86459200  1
  Si  Si10  1  0.41709700  0.86459200  0.86879300  1
  Si  Si11  1  0.86459200  0.86879300  0.41709700  1
  O  O0  1  0.50077200  0.00107300  0.25151200  1
  O  O1  1  0.03684600  0.04715800  0.76955100  1
  O  O2  1  0.76955100  0.03684600  0.04715800  1
  O  O3  1  0.00107300  0.25151200  0.50077200  1
  O  O4  1  0.25151200  0.50077200  0.00107300  1
  O  O5  1  0.23027600  0.22222000  0.56455100  1
  O  O6  1  0.56455100  0.23027600  0.22222000  1
  O  O7  1  0.75248500  0.01321300  0.49000700  1
  O  O8  1  0.22222000  0.56455100  0.23027600  1
  O  O9  1  0.04715800  0.76955100  0.03684600  1
  O  O10  1  0.73027600  0.06455100  0.72222000  1
  O  O11  1  0.53684600  0.26955100  0.54715800  1
  O  O12  1  0.01321300  0.49000700  0.75248500  1
  O  O13  1  0.28039200  0.27041800  0.93869500  1
  O  O14  1  0.93869500  0.28039200  0.27041800  1
  O  O15  1  0.26955100  0.54715800  0.53684600  1
  O  O16  1  0.54715800  0.53684600  0.26955100  1
  O  O17  1  0.49000700  0.75248500  0.01321300  1
  O  O18  1  0.51321300  0.25248500  0.99000700  1
  O  O19  1  0.45332000  0.46017100  0.73613700  1
  O  O20  1  0.73613700  0.45332000  0.46017100  1
  O  O21  1  0.06455100  0.72222000  0.73027600  1
  O  O22  1  0.72222000  0.73027600  0.06455100  1
  O  O23  1  0.99000700  0.51321300  0.25248500  1
  O  O24  1  0.46017100  0.73613700  0.45332000  1
  O  O25  1  0.27041800  0.93869500  0.28039200  1
  O  O26  1  0.95332000  0.23613700  0.96017100  1
  O  O27  1  0.78039200  0.43869500  0.77041800  1
  O  O28  1  0.25248500  0.99000700  0.51321300  1
  O  O29  1  0.43869500  0.77041800  0.78039200  1
  O  O30  1  0.77041800  0.78039200  0.43869500  1
  O  O31  1  0.75151200  0.50107300  0.00077200  1
  O  O32  1  0.00077200  0.75151200  0.50107300  1
  O  O33  1  0.23613700  0.96017100  0.95332000  1
  O  O34  1  0.96017100  0.95332000  0.23613700  1
  O  O35  1  0.50107300  0.00077200  0.75151200  1
loop_
_geom_bond_atom_site_label_1
_geom_bond_atom_site_label_2
_geom_bond_distance
_geom_bond_site_symmetry_2
Na0 O13 2.266498 1_554
Na0 O25 2.277740 1_545
Na1 O25 2.266498 1_545
Na1 O14 2.277740 1_455
Na2 O14 2.266498 1_455
Na2 O13 2.277740 1_554
Na3 O27 2.266498 1_555
Na3 O30 2.277740 1_555
Na4 O29 2.266498 1_555
Na4 O27 2.277740 1_555
Na5 O14 2.269077 1_555
Na5 O6 2.380616 1_555
Na5 O26 2.528917 1_554
Na5 O7 2.542075 1_555
Na5 O31 2.591479 1_555
Na5 O34 2.637206 1_545
Na5 O16 2.901340 1_555
Na6 O13 2.269077 1_555
Na6 O5 2.380616 1_555
Na6 O33 2.528917 1_545
Na6 O12 2.542075 1_555
Na6 O35 2.591479 1_555
Na6 O26 2.637207 1_455
Na6 O11 2.901341 1_555
Na7 O25 2.269077 1_555
Na7 O8 2.380616 1_555
Na7 O34 2.528917 1_455
Na7 O17 2.542075 1_555
Na7 O32 2.591479 1_555
Na7 O33 2.637206 1_554
Na7 O15 2.901340 1_555
Na8 O27 2.269077 1_555
Na8 O10 2.380616 1_555
Na8 O20 2.528917 1_555
Na8 O18 2.542075 1_555
Na8 O3 2.591479 1_655
Na8 O19 2.637206 1_555
Na8 O1 2.901340 1_655
Na9 O30 2.269077 1_555
Na9 O22 2.380616 1_555
Na9 O24 2.528917 1_555
Na9 O23 2.542075 1_555
Na9 O0 2.591479 1_565
Na9 O20 2.637207 1_555
Na9 O2 2.901341 1_565
Na10 O29 2.269077 1_555
Na10 O21 2.380616 1_555
Na10 O19 2.528917 1_555
Na10 O28 2.542075 1_555
Na10 O4 2.591479 1_556
Na10 O24 2.637206 1_555
Na10 O9 2.901340 1_556
Na11 O30 2.266498 1_555
Na11 O29 2.277740 1_555
Ca0 O8 2.279944 1_555
Ca0 O6 2.279944 1_555
Ca0 O5 2.279944 1_555
Ca0 O15 2.571054 1_555
Ca0 O11 2.571054 1_555
Ca0 O16 2.571054 1_555
Ca1 O21 2.279944 1_655
Ca1 O10 2.279944 1_565
Ca1 O22 2.279944 1_556
Ca1 O9 2.571054 1_656
Ca1 O2 2.571054 1_566
Ca1 O1 2.571054 1_665
O0 Si1 1.666989 1_555
O0 Si8 1.671327 1_545
O1 Si0 1.642844 1_555
O1 Zr0 2.171597 1_556
O2 Si1 1.642844 1_555
O2 Zr0 2.171597 1_655
O3 Si0 1.666989 1_555
O3 Si7 1.671327 1_455
O4 Si2 1.666989 1_555
O4 Si6 1.671327 1_554
O5 Si0 1.605637 1_555
O6 Si1 1.605637 1_555
O7 Si11 1.670156 1_545
O7 Si3 1.670628 1_555
O8 Si2 1.605637 1_555
O9 Si2 1.642844 1_555
O9 Zr0 2.171597 1_565
O10 Si3 1.605637 1_555
O11 Si3 1.642844 1_555
O11 Zr1 2.171597 1_555
O12 Si9 1.670156 1_455
O12 Si4 1.670628 1_555
O13 Si6 1.582496 1_555
O14 Si7 1.582496 1_555
O15 Si4 1.642844 1_555
O15 Zr1 2.171597 1_555
O16 Si5 1.642844 1_555
O16 Zr1 2.171597 1_555
O17 Si10 1.670156 1_554
O17 Si5 1.670628 1_555
O18 Si6 1.670156 1_555
O18 Si1 1.670628 1_556
O19 Si6 1.638153 1_555
O19 Zr1 2.077074 1_555
O20 Si7 1.638153 1_555
O20 Zr1 2.077074 1_555
O21 Si4 1.605637 1_555
O22 Si5 1.605637 1_555
O23 Si7 1.670156 1_555
O23 Si2 1.670628 1_655
O24 Si8 1.638153 1_555
O24 Zr1 2.077074 1_555
O25 Si8 1.582496 1_555
O26 Si9 1.638153 1_555
O26 Zr0 2.077074 1_656
O27 Si9 1.582496 1_555
O28 Si8 1.670156 1_555
O28 Si0 1.670628 1_565
O29 Si10 1.582496 1_555
O30 Si11 1.582496 1_555
O31 Si5 1.666989 1_555
O31 Si9 1.671327 1_554
O32 Si4 1.666989 1_555
O32 Si11 1.671327 1_455
O33 Si10 1.638153 1_555
O33 Zr0 2.077074 1_566
O34 Si11 1.638153 1_555
O34 Zr0 2.077074 1_665
O35 Si3 1.666989 1_555
O35 Si10 1.671327 1_545
