# generated using pymatgen
data_LaGaNi
_symmetry_space_group_name_H-M   'P 1'
_cell_length_a   7.65490700
_cell_length_b   5.58185800
_cell_length_c   6.42274563
_cell_angle_alpha   65.85772341
_cell_angle_beta   90.00000000
_cell_angle_gamma   90.00000000
_symmetry_Int_Tables_number   1
_chemical_formula_structural   LaGaNi
_chemical_formula_sum   'La4 Ga4 Ni4'
_cell_volume   250.43085182
_cell_formula_units_Z   4
loop_
 _symmetry_equiv_pos_site_id
 _symmetry_equiv_pos_as_xyz
  1  'x, y, z'
loop_
 _atom_site_type_symbol
 _atom_site_label
 _atom_site_symmetry_multiplicity
 _atom_site_fract_x
 _atom_site_fract_y
 _atom_site_fract_z
 _atom_site_occupancy
  La  La0  1  0.90217000  0.17943500  0.65152800  1
  La  La1  1  0.40217000  0.32056500  0.34847200  1
  La  La2  1  0.59783000  0.67943500  0.65152800  1
  La  La3  1  0.09783000  0.82056500  0.34847200  1
  Ga  Ga0  1  0.75428700  0.68400900  0.11722700  1
  Ga  Ga1  1  0.25428700  0.81599100  0.88277300  1
  Ga  Ga2  1  0.24571300  0.31599100  0.88277300  1
  Ga  Ga3  1  0.74571300  0.18400900  0.11722700  1
  Ni  Ni0  1  0.04007300  0.37954700  0.18821400  1
  Ni  Ni1  1  0.45992700  0.87954700  0.18821400  1
  Ni  Ni2  1  0.54007300  0.12045300  0.81178600  1
  Ni  Ni3  1  0.95992700  0.62045300  0.81178600  1
loop_
_geom_bond_atom_site_label_1
_geom_bond_atom_site_label_2
_geom_bond_distance
_geom_bond_site_symmetry_2
La0 Ni3 2.891924 1_545
La0 Ni0 2.915158 1_655
La0 Ni2 2.928075 1_555
La0 Ni3 3.063915 1_555
La1 Ni1 2.891924 1_555
La1 Ni2 2.915158 1_555
La1 Ni0 2.928075 1_555
La1 Ni1 3.063915 1_545
La2 Ni2 2.891924 1_555
La2 Ni1 2.915158 1_555
La2 Ni3 2.928075 1_555
La2 Ni2 3.063915 1_565
La3 Ni0 2.891924 1_565
La3 Ni3 2.915158 1_455
La3 Ni1 2.928075 1_555
La3 Ni0 3.063915 1_555
Ga0 Ni1 2.623660 1_555
Ga0 Ni3 2.649841 1_554
Ga0 Ni0 2.692231 1_655
Ga0 Ga3 2.791701 1_555
Ga0 Ga3 2.791701 1_565
Ga0 Ni2 2.926250 1_564
Ga0 La2 3.231717 1_554
Ga0 La3 3.260178 1_655
Ga0 La0 3.333055 1_564
Ga0 La1 3.334979 1_555
Ga0 La0 3.617204 1_555
Ga0 La2 3.624887 1_555
Ga1 Ni3 2.623660 1_455
Ga1 Ni1 2.649841 1_556
Ga1 Ni2 2.692231 1_565
Ga1 Ga2 2.791701 1_565
Ga1 Ga2 2.791701 1_555
Ga1 Ni0 2.926250 1_556
Ga1 La3 3.231717 1_556
Ga1 La2 3.260178 1_555
Ga1 La1 3.333055 1_556
Ga1 La0 3.334979 1_465
Ga1 La1 3.617204 1_565
Ga1 La3 3.624887 1_555
Ga2 Ni2 2.623660 1_555
Ga2 Ni0 2.649841 1_556
Ga2 Ni3 2.692231 1_455
Ga2 Ni1 2.926250 1_546
Ga2 La1 3.231717 1_556
Ga2 La0 3.260178 1_455
Ga2 La3 3.333055 1_546
Ga2 La2 3.334979 1_555
Ga2 La3 3.617204 1_555
Ga2 La1 3.624887 1_555
Ga3 Ni0 2.623660 1_655
Ga3 Ni2 2.649841 1_554
Ga3 Ni1 2.692231 1_545
Ga3 Ni3 2.926250 1_554
Ga3 La0 3.231717 1_554
Ga3 La1 3.260178 1_555
Ga3 La2 3.333055 1_554
Ga3 La3 3.334979 1_645
Ga3 La2 3.617204 1_545
Ga3 La0 3.624887 1_555
Ni0 Ni3 2.317430 1_454
Ni1 Ni2 2.317430 1_564
