# generated using pymatgen
data_H8PtO6
_symmetry_space_group_name_H-M   'P 1'
_cell_length_a   5.59898200
_cell_length_b   5.65291118
_cell_length_c   7.40608401
_cell_angle_alpha   88.37080081
_cell_angle_beta   86.07286704
_cell_angle_gamma   81.53932514
_symmetry_Int_Tables_number   1
_chemical_formula_structural   H8PtO6
_chemical_formula_sum   'H16 Pt2 O12'
_cell_volume   231.27116604
_cell_formula_units_Z   2
loop_
 _symmetry_equiv_pos_site_id
 _symmetry_equiv_pos_as_xyz
  1  'x, y, z'
loop_
 _atom_site_type_symbol
 _atom_site_label
 _atom_site_symmetry_multiplicity
 _atom_site_fract_x
 _atom_site_fract_y
 _atom_site_fract_z
 _atom_site_occupancy
  H  H0  1  0.72373900  0.12554100  0.74810800  1
  H  H1  1  0.42241500  0.20680100  0.87931000  1
  H  H2  1  0.08707500  0.37809300  0.67388100  1
  H  H3  1  0.40137400  0.10099600  0.16173300  1
  H  H4  1  0.51658000  0.82040200  0.17017200  1
  H  H5  1  0.14929500  0.44741800  0.34253400  1
  H  H6  1  0.86729900  0.59286800  0.35176200  1
  H  H7  1  0.62760800  0.74899500  0.91575400  1
  H  H8  1  0.45626800  0.44769600  0.49246100  1
  H  H9  1  0.46192200  0.44739900  0.99872400  1
  H  H10  1  0.73990400  0.60110600  0.60579400  1
  H  H11  1  0.12649000  0.80921200  0.80051700  1
  H  H12  1  0.17530400  0.75021100  0.50965100  1
  H  H13  1  0.85233200  0.13891200  0.22614400  1
  H  H14  1  0.97458600  0.00866200  0.02204700  1
  H  H15  1  0.94418400  0.04477200  0.47757900  1
  Pt  Pt0  1  0.49846500  0.00256200  0.49994600  1
  Pt  Pt1  1  0.99180200  0.47748100  0.00337500  1
  O  O0  1  0.57844900  0.04287600  0.75807300  1
  O  O1  1  0.93148800  0.40323700  0.74947600  1
  O  O2  1  0.40904800  0.95349400  0.24041500  1
  O  O3  1  0.02886800  0.56256800  0.27039300  1
  O  O4  1  0.64235000  0.63357900  0.01953800  1
  O  O5  1  0.32475400  0.34445600  0.49252000  1
  O  O6  1  0.34990500  0.31689500  0.99211900  1
  O  O7  1  0.65836600  0.65467700  0.49278200  1
  O  O8  1  0.10853600  0.78856600  0.93573900  1
  O  O9  1  0.17672000  0.89188800  0.58214300  1
  O  O10  1  0.87219400  0.16082900  0.08076400  1
  O  O11  1  0.80419800  0.13060800  0.41245600  1
loop_
_geom_bond_atom_site_label_1
_geom_bond_atom_site_label_2
_geom_bond_distance
_geom_bond_site_symmetry_2
H0 O0 0.993596 1_555
H1 O6 1.076529 1_555
H1 O0 1.459374 1_555
H2 O1 0.996895 1_455
H3 O2 1.000961 1_545
H4 O2 1.022363 1_555
H4 O4 1.611316 1_555
H5 O3 1.031614 1_555
H5 O5 1.575504 1_555
H6 O3 1.047110 1_655
H6 O7 1.521332 1_555
H7 O4 0.993786 1_556
H8 O5 1.004587 1_555
H9 O6 1.040383 1_555
H9 O4 1.579677 1_556
H10 O7 0.998950 1_555
H11 O8 1.004826 1_555
H12 O9 0.978073 1_555
H13 O10 1.080306 1_555
H13 O11 1.388489 1_555
H14 O10 1.048666 1_555
H14 O8 1.491317 1_644
H15 O11 1.004457 1_555
O0 Pt0 2.019701 1_555
O1 Pt1 1.999909 1_556
O2 Pt0 2.055498 1_565
O3 Pt1 2.079623 1_455
O4 Pt1 2.021644 1_555
O5 Pt0 2.032842 1_555
O6 Pt1 2.072898 1_456
O7 Pt0 2.037905 1_565
O8 Pt1 2.003454 1_456
O9 Pt0 2.041317 1_565
O10 Pt1 2.054976 1_555
O11 Pt0 2.014951 1_555
