# generated using pymatgen
data_H4N2O3
_symmetry_space_group_name_H-M   'P 1'
_cell_length_a   5.69339000
_cell_length_b   6.99851800
_cell_length_c   8.37585300
_cell_angle_alpha   90.00000000
_cell_angle_beta   90.00000000
_cell_angle_gamma   90.00000000
_symmetry_Int_Tables_number   1
_chemical_formula_structural   H4N2O3
_chemical_formula_sum   'H16 N8 O12'
_cell_volume   333.73831185
_cell_formula_units_Z   4
loop_
 _symmetry_equiv_pos_site_id
 _symmetry_equiv_pos_as_xyz
  1  'x, y, z'
loop_
 _atom_site_type_symbol
 _atom_site_label
 _atom_site_symmetry_multiplicity
 _atom_site_fract_x
 _atom_site_fract_y
 _atom_site_fract_z
 _atom_site_occupancy
  H  H0  1  0.60346700  0.68069900  0.51599500  1
  H  H1  1  0.89653300  0.68069900  0.51599500  1
  H  H2  1  0.60346700  0.81930100  0.01599500  1
  H  H3  1  0.89653300  0.81930100  0.01599500  1
  H  H4  1  0.39653300  0.31930100  0.48400500  1
  H  H5  1  0.10346700  0.31930100  0.48400500  1
  H  H6  1  0.10346700  0.18069900  0.98400500  1
  H  H7  1  0.39653300  0.18069900  0.98400500  1
  H  H8  1  0.99521900  0.62513700  0.21451800  1
  H  H9  1  0.50478100  0.87486300  0.71451800  1
  H  H10  1  0.49521900  0.37486300  0.78548200  1
  H  H11  1  0.00478100  0.12513700  0.28548200  1
  H  H12  1  0.00478100  0.37486300  0.78548200  1
  H  H13  1  0.49521900  0.12513700  0.28548200  1
  H  H14  1  0.50478100  0.62513700  0.21451800  1
  H  H15  1  0.99521900  0.87486300  0.71451800  1
  N  N0  1  0.25000000  0.18455300  0.91107600  1
  N  N1  1  0.25000000  0.31544700  0.41107600  1
  N  N2  1  0.75000000  0.81544700  0.08892400  1
  N  N3  1  0.75000000  0.68455300  0.58892400  1
  N  N4  1  0.25000000  0.50548700  0.33552400  1
  N  N5  1  0.25000000  0.99451300  0.83552400  1
  N  N6  1  0.75000000  0.49451300  0.66447600  1
  N  N7  1  0.75000000  0.00548700  0.16447600  1
  O  O0  1  0.25000000  0.65158300  0.42391100  1
  O  O1  1  0.25000000  0.84841700  0.92391100  1
  O  O2  1  0.75000000  0.34841700  0.57608900  1
  O  O3  1  0.75000000  0.15158300  0.07608900  1
  O  O4  1  0.04311300  0.49033600  0.23009000  1
  O  O5  1  0.45688700  0.00966400  0.73009000  1
  O  O6  1  0.54311300  0.50966400  0.76991000  1
  O  O7  1  0.95688700  0.99033600  0.26991000  1
  O  O8  1  0.95688700  0.50966400  0.76991000  1
  O  O9  1  0.54311300  0.99033600  0.26991000  1
  O  O10  1  0.45688700  0.49033600  0.23009000  1
  O  O11  1  0.04311300  0.00966400  0.73009000  1
loop_
_geom_bond_atom_site_label_1
_geom_bond_atom_site_label_2
_geom_bond_distance
_geom_bond_site_symmetry_2
H0 N3 1.034341 1_555
H1 N3 1.034341 1_555
H2 N2 1.034341 1_555
H3 N2 1.034341 1_555
H4 N1 1.034341 1_555
H5 N1 1.034341 1_555
H6 N0 1.034341 1_555
H7 N0 1.034341 1_555
H8 O4 0.990648 1_655
H9 O5 0.990648 1_565
H10 O6 0.990648 1_555
H11 O7 0.990648 1_445
H12 O8 0.990648 1_455
H13 O9 0.990648 1_545
H14 O10 0.990648 1_555
H15 O11 0.990648 1_665
N0 N5 1.472870 1_545
N1 N4 1.472870 1_555
N2 N7 1.472870 1_565
N3 N6 1.472870 1_555
N4 O0 1.262333 1_555
N4 O4 1.475984 1_555
N4 O10 1.475984 1_555
N5 O1 1.262333 1_555
N5 O11 1.475984 1_565
N5 O5 1.475984 1_565
N6 O2 1.262333 1_555
N6 O8 1.475984 1_555
N6 O6 1.475984 1_555
N7 O3 1.262333 1_555
N7 O9 1.475984 1_545
N7 O7 1.475984 1_545
