# generated using pymatgen
data_In3Ru
_symmetry_space_group_name_H-M   'P 1'
_cell_length_a   7.09215400
_cell_length_b   7.09215400
_cell_length_c   7.35549700
_cell_angle_alpha   90.00000000
_cell_angle_beta   90.00000000
_cell_angle_gamma   90.00000000
_symmetry_Int_Tables_number   1
_chemical_formula_structural   In3Ru
_chemical_formula_sum   'In12 Ru4'
_cell_volume   369.97155711
_cell_formula_units_Z   4
loop_
 _symmetry_equiv_pos_site_id
 _symmetry_equiv_pos_as_xyz
  1  'x, y, z'
loop_
 _atom_site_type_symbol
 _atom_site_label
 _atom_site_symmetry_multiplicity
 _atom_site_fract_x
 _atom_site_fract_y
 _atom_site_fract_z
 _atom_site_occupancy
  In  In0  1  0.50000000  0.50000000  0.25688700  1
  In  In1  1  0.00000000  0.00000000  0.75688700  1
  In  In2  1  0.84091900  0.65219400  0.98866100  1
  In  In3  1  0.00000000  0.00000000  0.24311300  1
  In  In4  1  0.65908100  0.15219400  0.48866100  1
  In  In5  1  0.34091900  0.84780600  0.48866100  1
  In  In6  1  0.15908100  0.34780600  0.98866100  1
  In  In7  1  0.34780600  0.84091900  0.01133900  1
  In  In8  1  0.84780600  0.65908100  0.51133900  1
  In  In9  1  0.65219400  0.15908100  0.01133900  1
  In  In10  1  0.15219400  0.34091900  0.51133900  1
  In  In11  1  0.50000000  0.50000000  0.74311300  1
  Ru  Ru0  1  0.34581900  0.15418100  0.25000000  1
  Ru  Ru1  1  0.65418100  0.84581900  0.25000000  1
  Ru  Ru2  1  0.15418100  0.65418100  0.75000000  1
  Ru  Ru3  1  0.84581900  0.34581900  0.75000000  1
loop_
_geom_bond_atom_site_label_1
_geom_bond_atom_site_label_2
_geom_bond_distance
_geom_bond_site_symmetry_2
In0 Ru1 2.685798 1_555
In0 Ru0 2.685798 1_555
In0 In4 3.203726 1_555
In0 In5 3.203726 1_555
In0 In9 3.205178 1_555
In0 In7 3.205178 1_555
In0 In8 3.295518 1_555
In0 In10 3.295518 1_555
In0 In2 3.302051 1_554
In0 In6 3.302051 1_554
In1 Ru2 2.685798 1_545
In1 Ru3 2.685798 1_455
In1 In6 3.203726 1_555
In1 In2 3.203726 1_445
In1 In10 3.205178 1_555
In1 In8 3.205178 1_445
In1 In7 3.295518 1_546
In1 In9 3.295518 1_456
In1 In5 3.302051 1_545
In1 In4 3.302051 1_455
In2 Ru1 2.708293 1_556
In2 Ru3 2.793600 1_555
In2 Ru2 2.831578 1_655
In2 In6 3.122796 1_655
In2 In3 3.295518 1_666
In3 Ru0 2.685798 1_555
In3 Ru1 2.685798 1_445
In3 In7 3.203726 1_545
In3 In9 3.203726 1_455
In3 In5 3.205178 1_545
In3 In4 3.205178 1_455
In3 In6 3.295518 1_554
In3 In8 3.302051 1_445
In4 Ru3 2.708293 1_555
In4 Ru1 2.793600 1_545
In4 Ru0 2.831578 1_555
In4 In5 3.122796 1_545
In5 Ru2 2.708293 1_555
In5 Ru0 2.793600 1_565
In5 Ru1 2.831578 1_555
In6 Ru0 2.708293 1_556
In6 Ru2 2.793600 1_555
In6 Ru3 2.831578 1_455
In7 Ru2 2.708293 1_554
In7 Ru1 2.793600 1_555
In7 Ru0 2.831578 1_565
In7 In9 3.122796 1_565
In8 Ru1 2.708293 1_555
In8 Ru2 2.793600 1_655
In8 Ru3 2.831578 1_555
In9 Ru3 2.708293 1_554
In9 Ru0 2.793600 1_555
In9 Ru1 2.831578 1_545
In10 Ru0 2.708293 1_555
In10 Ru3 2.793600 1_455
In10 Ru2 2.831578 1_555
In10 In8 3.122796 1_455
In10 In11 3.203726 1_555
In10 In3 3.302051 1_555
In11 Ru3 2.685798 1_555
In11 Ru2 2.685798 1_555
In11 In8 3.203726 1_555
In11 In2 3.205178 1_555
In11 In6 3.205178 1_555
In11 In4 3.295518 1_555
In11 In5 3.295518 1_555
In11 In9 3.302051 1_556
In11 In7 3.302051 1_556
Ru0 Ru1 3.092815 1_545
Ru2 Ru3 3.092815 1_455
