# generated using pymatgen
data_Cd18Sn19O56
_symmetry_space_group_name_H-M   'P 1'
_cell_length_a   6.55087092
_cell_length_b   6.68834848
_cell_length_c   46.53825665
_cell_angle_alpha   59.00051121
_cell_angle_beta   58.73646288
_cell_angle_gamma   58.82751901
_symmetry_Int_Tables_number   1
_chemical_formula_structural   Cd18Sn19O56
_chemical_formula_sum   'Cd18 Sn19 O56'
_cell_volume   1404.11577363
_cell_formula_units_Z   1
loop_
 _symmetry_equiv_pos_site_id
 _symmetry_equiv_pos_as_xyz
  1  'x, y, z'
loop_
 _atom_site_type_symbol
 _atom_site_label
 _atom_site_symmetry_multiplicity
 _atom_site_fract_x
 _atom_site_fract_y
 _atom_site_fract_z
 _atom_site_occupancy
  Cd  Cd0  1  0.12687875  0.11507571  0.30518954  1
  Cd  Cd1  1  0.50020501  0.50177043  0.21312420  1
  Cd  Cd2  1  0.15045472  0.11158774  0.44145409  1
  Cd  Cd3  1  0.86706836  0.87742841  0.12604660  1
  Cd  Cd4  1  0.50055788  0.50032936  0.35697343  1
  Cd  Cd5  1  0.12826201  0.11535303  0.59051049  1
  Cd  Cd6  1  0.85366577  0.89080744  0.27199491  1
  Cd  Cd7  1  0.49988148  0.49989503  0.50004369  1
  Cd  Cd8  1  0.14999511  0.11109498  0.72733796  1
  Cd  Cd9  1  0.87148905  0.88476710  0.40954272  1
  Cd  Cd10  1  0.50006673  0.49990553  0.64285654  1
  Cd  Cd11  1  0.13017986  0.11584197  0.87569024  1
  Cd  Cd12  1  0.84990665  0.88884286  0.55837909  1
  Cd  Cd13  1  0.50004136  0.50005257  0.78569717  1
  Cd  Cd14  1  0.87198227  0.88462038  0.69515836  1
  Cd  Cd15  1  0.49087506  0.49190759  0.93040528  1
  Cd  Cd16  1  0.84898144  0.88675843  0.84479796  1
  Cd  Cd17  1  0.87778803  0.88264377  0.97950175  1
  Sn  Sn0  1  0.01324768  0.49882666  0.07047889  1
  Sn  Sn1  1  0.50055218  0.00979534  0.07059640  1
  Sn  Sn2  1  0.00062067  0.50421857  0.21404233  1
  Sn  Sn3  1  0.49917183  0.49737179  0.07061648  1
  Sn  Sn4  1  0.50017272  0.00309768  0.21395706  1
  Sn  Sn5  1  0.49104692  0.48731767  0.14519992  1
  Sn  Sn6  1  0.47554401  0.50173617  0.28828661  1
  Sn  Sn7  1  -0.00040626  0.49993831  0.50005827  1
  Sn  Sn8  1  0.50004063  -0.00024781  0.50003967  1
  Sn  Sn9  1  0.50092091  0.00059739  0.35691152  1
  Sn  Sn10  1  0.52450455  0.49818191  0.42574179  1
  Sn  Sn11  1  0.47619741  0.50109942  0.57408708  1
  Sn  Sn12  1  -0.00002605  0.49934069  0.78571242  1
  Sn  Sn13  1  0.52365513  0.49915944  0.71165326  1
  Sn  Sn14  1  0.49982259  0.00016523  0.64288220  1
  Sn  Sn15  1  0.50001907  0.00032622  0.78560114  1
  Sn  Sn16  1  0.47844647  0.50169359  0.85970176  1
  Sn  Sn17  1  0.53535781  0.50067518  0.99633104  1
  Sn  Sn18  1  0.49643677  0.00113962  0.92841792  1
  O  O0  1  0.26286435  0.26397124  0.04101347  1
  O  O1  1  0.26795947  0.26244475  0.10066995  1
  O  O2  1  0.26677922  0.69124337  0.04033331  1
  O  O3  1  0.70240242  0.26097267  0.04034906  1
  O  O4  1  0.30093859  0.73020586  0.10430193  1
  O  O5  1  0.25787036  0.26573778  0.18161821  1
  O  O6  1  0.73210434  0.72873083  0.04475425  1
  O  O7  1  0.25309486  0.25205083  0.24320372  1
  O  O8  1  0.25198686  0.70057153  0.17720490  1
  O  O9  1  0.73014775  0.30293915  0.10430960  1
  O  O10  1  0.73271679  0.73018992  0.10475977  1
  O  O11  1  0.70688926  0.24613479  0.17717630  1
  O  O12  1  0.30001305  0.24544035  0.31844016  1
  O  O13  1  0.29204294  0.75806306  0.24818221  1
  O  O14  1  0.29207230  0.23346068  0.38516209  1
  O  O15  1  0.30724297  0.72597734  0.31528012  1
  O  O16  1  0.74357459  0.31507961  0.24827178  1
  O  O17  1  0.74455717  0.75235972  0.18398500  1
  O  O18  1  0.74948842  0.74785365  0.24448476  1
  O  O19  1  0.71575476  0.25027039  0.31902387  1
  O  O20  1  0.28504184  0.75150010  0.39455570  1
  O  O21  1  0.25052810  0.25474205  0.46891905  1
  O  O22  1  0.25832796  0.68949755  0.46473986  1
  O  O23  1  0.25455846  0.25033489  0.52874114  1
  O  O24  1  0.69474158  0.27522846  0.39841686  1
  O  O25  1  0.70942091  0.76861750  0.32820522  1
  O  O26  1  0.70192511  0.75610684  0.39525128  1
  O  O27  1  0.71247762  0.24409098  0.46498869  1
  O  O28  1  0.29895514  0.24397008  0.60451098  1
  O  O29  1  0.28782498  0.75639734  0.53487586  1
  O  O30  1  0.74217642  0.31089693  0.53509594  1
  O  O31  1  0.29154407  0.23355886  0.67109548  1
  O  O32  1  0.30579734  0.72570943  0.60144987  1
  O  O33  1  0.74563356  0.74990106  0.47113609  1
  O  O34  1  0.74983029  0.74562378  0.53092493  1
  O  O35  1  0.71581923  0.24903181  0.60517858  1
  O  O36  1  0.25023355  0.25431078  0.75469910  1
  O  O37  1  0.28418577  0.75100077  0.68054336  1
  O  O38  1  0.25527225  0.25031387  0.81433625  1
  O  O39  1  0.69419886  0.27384388  0.68428090  1
  O  O40  1  0.25764832  0.68919021  0.75062612  1
  O  O41  1  0.70866729  0.76631971  0.61458955  1
  O  O42  1  0.70107637  0.75617298  0.68121348  1
  O  O43  1  0.71236012  0.24367696  0.75076816  1
  O  O44  1  0.29781960  0.24701908  0.88974132  1
  O  O45  1  0.28709649  0.75676988  0.82072990  1
  O  O46  1  0.30287082  0.72434638  0.88769102  1
  O  O47  1  0.74536416  0.74982319  0.75693313  1
  O  O48  1  0.29808405  0.22271682  0.95744624  1
  O  O49  1  0.74265675  0.30970777  0.82073530  1
  O  O50  1  0.71893056  0.24841230  0.89024021  1
  O  O51  1  0.74883198  0.74511407  0.81682303  1
  O  O52  1  0.28545301  0.74260178  0.96797901  1
  O  O53  1  0.70704119  0.26819986  0.97047978  1
  O  O54  1  0.69738757  0.76339651  0.90121606  1
  O  O55  1  0.70611365  0.75504265  0.96615633  1
loop_
_geom_bond_atom_site_label_1
_geom_bond_atom_site_label_2
_geom_bond_distance
_geom_bond_site_symmetry_2
Cd0 O15 2.126746 1_545
Cd0 O12 2.174958 1_555
Cd0 O19 2.182747 1_455
Cd0 O7 2.330403 1_555
Cd1 O16 2.306184 1_555
Cd1 O17 2.322383 1_555
Cd1 O7 2.325564 1_555
Cd1 O8 2.345179 1_555
Cd1 O13 2.368861 1_555
Cd1 O11 2.398767 1_555
Cd2 O14 2.109200 1_555
Cd2 O22 2.285140 1_545
Cd2 O27 2.307108 1_455
Cd2 O21 2.400073 1_555
Cd3 O17 2.177093 1_555
Cd3 O4 2.283783 1_655
Cd3 O9 2.293689 1_565
Cd3 O10 2.352221 1_555
Cd4 O14 2.241477 1_555
Cd4 O25 2.247247 1_555
Cd4 O24 2.275438 1_555
Cd4 O15 2.280748 1_555
Cd4 O20 2.425412 1_555
Cd4 O19 2.433353 1_555
Cd5 O32 2.124533 1_545
Cd5 O28 2.178126 1_555
Cd5 O35 2.186075 1_455
Cd5 O23 2.322610 1_555
Cd6 O25 2.106067 1_555
Cd6 O16 2.296124 1_565
Cd6 O13 2.309561 1_655
Cd6 O18 2.421219 1_555
Cd7 O30 2.294477 1_555
Cd7 O22 2.299230 1_555
Cd7 O23 2.324949 1_555
Cd7 O33 2.327929 1_555
Cd7 O29 2.358135 1_555
Cd7 O27 2.361854 1_555
Cd8 O31 2.107229 1_555
Cd8 O40 2.284230 1_545
Cd8 O43 2.305181 1_455
Cd8 O36 2.396977 1_555
Cd9 O24 2.127902 1_565
Cd9 O26 2.182343 1_555
Cd9 O20 2.190807 1_655
Cd9 O33 2.315923 1_555
Cd10 O31 2.238496 1_555
Cd10 O41 2.239046 1_555
Cd10 O39 2.274107 1_555
Cd10 O32 2.274147 1_555
Cd10 O35 2.427120 1_555
Cd10 O37 2.428443 1_555
Cd11 O46 2.128590 1_545
Cd11 O44 2.176501 1_555
Cd11 O50 2.180516 1_455
Cd11 O38 2.307019 1_555
Cd12 O41 2.106015 1_555
Cd12 O30 2.285018 1_565
Cd12 O29 2.306767 1_655
Cd12 O34 2.399999 1_555
Cd13 O49 2.294043 1_555
Cd13 O40 2.295502 1_555
Cd13 O38 2.323526 1_555
Cd13 O47 2.325570 1_555
Cd13 O43 2.360639 1_555
Cd13 O45 2.365476 1_555
Cd14 O39 2.122602 1_565
Cd14 O42 2.176429 1_555
Cd14 O37 2.185045 1_655
Cd14 O47 2.322726 1_555
Cd15 O48 2.188781 1_555
Cd15 O54 2.251099 1_555
Cd15 O46 2.293679 1_555
Cd15 O53 2.322848 1_555
Cd15 O52 2.433475 1_555
Cd15 O50 2.469121 1_555
Cd16 O54 2.114508 1_555
Cd16 O49 2.290904 1_565
Cd16 O45 2.308857 1_655
Cd16 O51 2.413156 1_555
Cd17 O53 2.112684 1_565
Cd17 O55 2.154860 1_555
Cd17 O52 2.176742 1_655
Cd17 O6 2.445640 1_556
O0 Sn0 2.062507 1_555
O0 Sn1 2.069734 1_555
O0 Sn17 2.387193 1_554
O1 Sn0 2.161515 1_555
O1 Sn1 2.166352 1_555
O1 Sn3 2.172662 1_555
O2 Sn3 2.070310 1_555
O2 Sn0 2.077827 1_555
O2 Sn17 2.353916 1_554
O3 Sn3 2.103566 1_555
O3 Sn1 2.117552 1_555
O3 Sn17 2.256505 1_554
O4 Sn3 2.208427 1_555
O4 Sn5 2.234639 1_555
O4 Sn1 2.246838 1_565
O5 Sn5 2.114530 1_555
O5 Sn2 2.172133 1_555
O5 Sn4 2.177168 1_555
O6 Sn0 2.156445 1_655
O6 Sn1 2.182759 1_565
O6 Sn3 2.188884 1_555
O7 Sn4 2.121948 1_555
O7 Sn2 2.122758 1_555
O8 Sn5 2.039657 1_555
O8 Sn2 2.089195 1_555
O9 Sn3 2.182764 1_555
O9 Sn5 2.217939 1_555
O9 Sn0 2.234872 1_655
O10 Sn1 2.200204 1_565
O10 Sn0 2.207461 1_655
O10 Sn5 2.260022 1_555
O11 Sn5 2.041081 1_555
O11 Sn4 2.100679 1_555
O12 Sn6 2.029237 1_555
O12 Sn9 2.194062 1_555
O13 Sn4 2.110007 1_565
O13 Sn6 2.183327 1_555
O14 Sn9 2.015525 1_555
O15 Sn6 1.958165 1_555
O16 Sn2 2.078123 1_655
O16 Sn6 2.200231 1_555
O17 Sn4 2.152511 1_565
O17 Sn2 2.164953 1_655
O18 Sn2 2.133667 1_655
O18 Sn4 2.150338 1_565
O18 Sn6 2.426988 1_555
O19 Sn6 2.114115 1_555
O19 Sn9 2.168531 1_555
O20 Sn10 2.125217 1_555
O20 Sn9 2.169311 1_565
O21 Sn7 2.162488 1_555
O21 Sn8 2.169068 1_555
O21 Sn10 2.412855 1_555
O22 Sn7 2.090045 1_555
O22 Sn10 2.183864 1_555
O23 Sn8 2.113148 1_555
O23 Sn7 2.119114 1_555
O24 Sn10 1.960656 1_555
O25 Sn9 2.026062 1_565
O26 Sn10 2.045158 1_555
O26 Sn9 2.189879 1_565
O27 Sn8 2.126144 1_555
O27 Sn10 2.170532 1_555
O28 Sn11 2.040363 1_555
O28 Sn14 2.190327 1_555
O29 Sn8 2.120200 1_565
O29 Sn11 2.171347 1_555
O30 Sn7 2.081025 1_655
O30 Sn11 2.179083 1_555
O31 Sn14 2.017230 1_555
O32 Sn11 1.970671 1_555
O33 Sn8 2.115704 1_565
O33 Sn7 2.121663 1_655
O34 Sn7 2.156225 1_655
O34 Sn8 2.162874 1_565
O34 Sn11 2.415881 1_555
O35 Sn11 2.122521 1_555
O35 Sn14 2.168939 1_555
O36 Sn12 2.157708 1_555
O36 Sn15 2.163315 1_555
O36 Sn13 2.415818 1_555
O37 Sn13 2.122311 1_555
O37 Sn14 2.168679 1_565
O38 Sn15 2.111171 1_555
O38 Sn12 2.118711 1_555
O39 Sn13 1.974634 1_555
O40 Sn12 2.085719 1_555
O40 Sn13 2.177797 1_555
O41 Sn14 2.021874 1_565
O42 Sn13 2.040489 1_555
O42 Sn14 2.190579 1_565
O43 Sn15 2.120715 1_555
O43 Sn13 2.169452 1_555
O44 Sn16 2.042695 1_555
O44 Sn18 2.191764 1_555
O45 Sn15 2.124621 1_565
O45 Sn16 2.174842 1_555
O46 Sn16 1.976643 1_555
O47 Sn15 2.111737 1_565
O47 Sn12 2.120645 1_655
O48 Sn18 1.989075 1_555
O49 Sn12 2.082989 1_655
O49 Sn16 2.184727 1_555
O50 Sn16 2.110116 1_555
O50 Sn18 2.190236 1_555
O51 Sn12 2.164370 1_655
O51 Sn15 2.169056 1_565
O51 Sn16 2.395872 1_555
O52 Sn17 2.083225 1_555
O52 Sn18 2.200835 1_565
O53 Sn17 1.960107 1_555
O54 Sn18 2.010154 1_565
O55 Sn17 1.999111 1_555
O55 Sn18 2.205935 1_565
