# generated using pymatgen
data_Cs2NaCo(CN)6
_symmetry_space_group_name_H-M   'P 1'
_cell_length_a   7.68256300
_cell_length_b   7.58328800
_cell_length_c   13.23972853
_cell_angle_alpha   55.04211729
_cell_angle_beta   90.00000000
_cell_angle_gamma   90.00000000
_symmetry_Int_Tables_number   1
_chemical_formula_structural   Cs2NaCo(CN)6
_chemical_formula_sum   'Cs4 Na2 Co2 C12 N12'
_cell_volume   632.16528366
_cell_formula_units_Z   2
loop_
 _symmetry_equiv_pos_site_id
 _symmetry_equiv_pos_as_xyz
  1  'x, y, z'
loop_
 _atom_site_type_symbol
 _atom_site_label
 _atom_site_symmetry_multiplicity
 _atom_site_fract_x
 _atom_site_fract_y
 _atom_site_fract_z
 _atom_site_occupancy
  Cs  Cs0  1  0.46449800  0.24234100  0.75003500  1
  Cs  Cs1  1  0.53550200  0.75765900  0.24996500  1
  Cs  Cs2  1  0.96449800  0.75765900  0.74996500  1
  Cs  Cs3  1  0.03550200  0.24234100  0.25003500  1
  Na  Na0  1  0.50000000  0.50000000  0.00000000  1
  Na  Na1  1  0.00000000  0.50000000  0.50000000  1
  Co  Co0  1  0.50000000  0.00000000  0.50000000  1
  Co  Co1  1  0.00000000  0.00000000  0.00000000  1
  C  C0  1  0.00584500  0.20949900  0.82895700  1
  C  C1  1  0.19883400  0.12089200  0.02066200  1
  C  C2  1  0.49415500  0.20949900  0.32895700  1
  C  C3  1  0.69883400  0.87910800  0.47933800  1
  C  C4  1  0.50584500  0.79050100  0.67104300  1
  C  C5  1  0.85863100  0.18371700  0.01686400  1
  C  C6  1  0.30116600  0.12089200  0.52066200  1
  C  C7  1  0.99415500  0.79050100  0.17104300  1
  C  C8  1  0.14136900  0.81628300  0.98313600  1
  C  C9  1  0.80116600  0.87910800  0.97933800  1
  C  C10  1  0.64136900  0.18371700  0.51686400  1
  C  C11  1  0.35863100  0.81628300  0.48313600  1
  N  N0  1  0.67602700  0.80543800  0.96520500  1
  N  N1  1  0.48803100  0.34200200  0.22208800  1
  N  N2  1  0.27096600  0.70088200  0.47192900  1
  N  N3  1  0.77096600  0.29911800  0.02807100  1
  N  N4  1  0.72903400  0.29911800  0.52807100  1
  N  N5  1  0.17602700  0.19456200  0.53479500  1
  N  N6  1  0.51196900  0.65799800  0.77791200  1
  N  N7  1  0.01196900  0.34200200  0.72208800  1
  N  N8  1  0.32397300  0.19456200  0.03479500  1
  N  N9  1  0.22903400  0.70088200  0.97192900  1
  N  N10  1  0.82397300  0.80543800  0.46520500  1
  N  N11  1  0.98803100  0.65799800  0.27791200  1
loop_
_geom_bond_atom_site_label_1
_geom_bond_atom_site_label_2
_geom_bond_distance
_geom_bond_site_symmetry_2
Cs0 N0 3.304166 1_545
Cs0 N4 3.391450 1_555
Cs0 N6 3.396732 1_555
Cs1 N8 3.304166 1_565
Cs1 N2 3.391450 1_555
Cs1 N1 3.396732 1_555
Cs2 N5 3.304166 1_665
Cs2 N9 3.391450 1_655
Cs2 N7 3.396732 1_655
Cs3 N10 3.304166 1_445
Cs3 N3 3.391450 1_455
Cs3 N11 3.396732 1_455
C0 N7 1.176701 1_555
C0 Co1 1.879211 1_556
C1 N8 1.179480 1_555
C1 Co1 1.880451 1_555
C2 N1 1.176701 1_555
C2 Co0 1.879211 1_555
C3 N10 1.179480 1_555
C3 Co0 1.880451 1_565
C4 N6 1.176701 1_555
C4 Co0 1.879211 1_565
C5 N3 1.179084 1_555
C5 Co1 1.877983 1_655
C6 N5 1.179480 1_555
C6 Co0 1.880451 1_555
C7 N11 1.176701 1_555
C7 Co1 1.879211 1_665
C8 N9 1.179084 1_555
C8 Co1 1.877983 1_566
C9 N0 1.179480 1_555
C9 Co1 1.880451 1_666
C10 N4 1.179084 1_555
C10 Co0 1.877983 1_555
C11 N2 1.179084 1_555
C11 Co0 1.877983 1_565
N0 Na0 2.486599 1_556
N1 Na0 2.460221 1_555
N2 Na1 2.478599 1_555
N3 Na0 2.478599 1_555
N4 Na1 2.478599 1_655
N5 Na1 2.486599 1_555
N6 Na0 2.460221 1_556
N7 Na1 2.460221 1_555
N8 Na0 2.486599 1_555
N9 Na0 2.478599 1_556
N10 Na1 2.486599 1_655
N11 Na1 2.460221 1_655
