# generated using pymatgen
data_P4S3I2
_symmetry_space_group_name_H-M   'P 1'
_cell_length_a   6.82686974
_cell_length_b   9.54797158
_cell_length_c   16.42339228
_cell_angle_alpha   90.00000000
_cell_angle_beta   90.00000000
_cell_angle_gamma   90.00000000
_symmetry_Int_Tables_number   1
_chemical_formula_structural   P4S3I2
_chemical_formula_sum   'P16 S12 I8'
_cell_volume   1070.52200876
_cell_formula_units_Z   4
loop_
 _symmetry_equiv_pos_site_id
 _symmetry_equiv_pos_as_xyz
  1  'x, y, z'
loop_
 _atom_site_type_symbol
 _atom_site_label
 _atom_site_symmetry_multiplicity
 _atom_site_fract_x
 _atom_site_fract_y
 _atom_site_fract_z
 _atom_site_occupancy
  P  P0  1  0.45282736  0.48059150  0.35116863  1
  P  P1  1  0.04717264  0.98059150  0.35116863  1
  P  P2  1  0.80790870  0.13354582  0.75000000  1
  P  P3  1  0.30790870  0.36645418  0.25000000  1
  P  P4  1  0.95282736  0.01940850  0.64883137  1
  P  P5  1  0.24500932  0.24909887  0.75000000  1
  P  P6  1  0.54717264  0.51940850  0.64883137  1
  P  P7  1  0.54717264  0.51940850  0.85116863  1
  P  P8  1  0.74500932  0.25090113  0.25000000  1
  P  P9  1  0.25499068  0.74909887  0.75000000  1
  P  P10  1  0.95282736  0.01940850  0.85116863  1
  P  P11  1  0.45282736  0.48059150  0.14883137  1
  P  P12  1  0.75499068  0.75090113  0.25000000  1
  P  P13  1  0.69209130  0.63354582  0.75000000  1
  P  P14  1  0.19209130  0.86645418  0.25000000  1
  P  P15  1  0.04717264  0.98059150  0.14883137  1
  S  S0  1  0.76378749  0.88829807  0.14881792  1
  S  S1  1  0.73621251  0.38829807  0.14881792  1
  S  S2  1  0.23621251  0.11170193  0.85118208  1
  S  S3  1  0.54187859  0.82507340  0.75000000  1
  S  S4  1  0.26378749  0.61170193  0.85118208  1
  S  S5  1  0.76378749  0.88829807  0.35118208  1
  S  S6  1  0.04187859  0.67492660  0.25000000  1
  S  S7  1  0.26378749  0.61170193  0.64881792  1
  S  S8  1  0.73621251  0.38829807  0.35118208  1
  S  S9  1  0.95812141  0.32507340  0.75000000  1
  S  S10  1  0.45812141  0.17492660  0.25000000  1
  S  S11  1  0.23621251  0.11170193  0.64881792  1
  I  I0  1  0.72046997  0.64876703  0.96069286  1
  I  I1  1  0.27953003  0.35123297  0.03930714  1
  I  I2  1  0.27953003  0.35123297  0.46069386  1
  I  I3  1  0.77953003  0.14876703  0.96069286  1
  I  I4  1  0.77953003  0.14876703  0.53930714  1
  I  I5  1  0.22046997  0.85123297  0.03930714  1
  I  I6  1  0.22046997  0.85123297  0.46069386  1
  I  I7  1  0.72046997  0.64876703  0.53930714  1
loop_
_geom_bond_atom_site_label_1
_geom_bond_atom_site_label_2
_geom_bond_distance
_geom_bond_site_symmetry_2
P0 S8 2.125876 1_555
P0 P3 2.219708 1_555
P1 S5 2.125876 1_455
P1 P14 2.219708 1_555
P2 S9 2.096606 1_555
P2 P4 2.219708 1_555
P3 S10 2.096606 1_555
P4 S11 2.125876 1_655
P5 S9 2.088567 1_455
P5 S11 2.118021 1_555
P5 S2 2.118021 1_555
P6 S7 2.125876 1_555
P7 S4 2.125876 1_555
P8 S10 2.088567 1_555
P8 S1 2.118021 1_555
P8 S8 2.118021 1_555
P9 S3 2.088567 1_555
P9 S7 2.118021 1_555
P9 S4 2.118021 1_555
P10 S2 2.125876 1_655
P10 P2 2.219708 1_555
P11 S1 2.125876 1_555
P11 P3 2.219708 1_555
P12 S6 2.088567 1_655
P12 S5 2.118021 1_555
P12 S0 2.118021 1_555
P13 S3 2.096606 1_555
P13 P7 2.219708 1_555
P13 P6 2.219708 1_555
P14 S6 2.096606 1_555
P14 P15 2.219708 1_555
P15 S0 2.125876 1_455
I0 P7 2.482078 1_555
I1 P11 2.482078 1_555
I2 P0 2.482090 1_555
I3 P10 2.482078 1_555
I4 P4 2.482078 1_555
I5 P15 2.482078 1_555
I6 P1 2.482090 1_555
I7 P6 2.482078 1_555
