# generated using pymatgen
data_H8N2O
_symmetry_space_group_name_H-M   'P 1'
_cell_length_a   9.05584400
_cell_length_b   4.42880100
_cell_length_c   10.73228277
_cell_angle_alpha   69.28359116
_cell_angle_beta   90.00000000
_cell_angle_gamma   90.00000000
_symmetry_Int_Tables_number   1
_chemical_formula_structural   H8N2O
_chemical_formula_sum   'H32 N8 O4'
_cell_volume   402.60391648
_cell_formula_units_Z   4
loop_
 _symmetry_equiv_pos_site_id
 _symmetry_equiv_pos_as_xyz
  1  'x, y, z'
loop_
 _atom_site_type_symbol
 _atom_site_label
 _atom_site_symmetry_multiplicity
 _atom_site_fract_x
 _atom_site_fract_y
 _atom_site_fract_z
 _atom_site_occupancy
  H  H0  1  0.05777100  0.03767000  0.46022000  1
  H  H1  1  0.16921800  0.14569400  0.25989500  1
  H  H2  1  0.91183500  0.09194900  0.37485200  1
  H  H3  1  0.86570700  0.13652600  0.60920900  1
  H  H4  1  0.13662600  0.80640300  0.24072700  1
  H  H5  1  0.80278900  0.62657000  0.37094900  1
  H  H6  1  0.06355400  0.48901700  0.53700600  1
  H  H7  1  0.91037400  0.57328900  0.17326400  1
  H  H8  1  0.77124200  0.55659500  0.07904200  1
  H  H9  1  0.61427100  0.48392700  0.97308700  1
  H  H10  1  0.43579600  0.39830000  0.34495500  1
  H  H11  1  0.37950300  0.50552300  0.13827000  1
  H  H12  1  0.32478000  0.83843700  0.91290100  1
  H  H13  1  0.70756800  0.89872900  0.25423300  1
  H  H14  1  0.56718200  0.11181500  0.99302800  1
  H  H15  1  0.34863900  0.84134600  0.15306500  1
  H  H16  1  0.22875800  0.55659500  0.57904200  1
  H  H17  1  0.38572900  0.48392700  0.47308700  1
  H  H18  1  0.43281800  0.11181500  0.49302800  1
  H  H19  1  0.65136100  0.84134600  0.65306500  1
  H  H20  1  0.29243200  0.89872900  0.75423300  1
  H  H21  1  0.62049700  0.50552300  0.63827000  1
  H  H22  1  0.67522000  0.83843700  0.41290100  1
  H  H23  1  0.56420400  0.39830000  0.84495500  1
  H  H24  1  0.94222900  0.03767000  0.96022000  1
  H  H25  1  0.13429300  0.13652600  0.10920900  1
  H  H26  1  0.83078200  0.14569400  0.75989500  1
  H  H27  1  0.86337400  0.80640300  0.74072700  1
  H  H28  1  0.08962600  0.57328900  0.67326400  1
  H  H29  1  0.93644600  0.48901700  0.03700600  1
  H  H30  1  0.08816500  0.09194900  0.87485200  1
  H  H31  1  0.19721100  0.62657000  0.87094900  1
  N  N0  1  0.87800400  0.63375600  0.07601600  1
  N  N1  1  0.37640000  0.30928000  0.43164600  1
  N  N2  1  0.62360000  0.30928000  0.93164600  1
  N  N3  1  0.12199600  0.63375600  0.57601600  1
  N  N4  1  0.80959500  0.02241300  0.69658900  1
  N  N5  1  0.24282300  0.85244100  0.84480400  1
  N  N6  1  0.75717700  0.85244100  0.34480400  1
  N  N7  1  0.19040500  0.02241300  0.19658900  1
  O  O0  1  0.99247200  0.21346400  0.40116800  1
  O  O1  1  0.42366000  0.71737400  0.11984000  1
  O  O2  1  0.57634000  0.71737400  0.61984000  1
  O  O3  1  0.00752800  0.21346400  0.90116800  1
loop_
_geom_bond_atom_site_label_1
_geom_bond_atom_site_label_2
_geom_bond_distance
_geom_bond_site_symmetry_2
H0 O0 1.004190 1_455
H1 N7 1.029061 1_555
H2 O0 1.005071 1_555
H3 N4 1.028473 1_555
H4 N7 1.027702 1_565
H5 N6 1.025397 1_555
H6 N3 1.027694 1_555
H7 N0 1.024304 1_555
H8 N0 1.022117 1_555
H9 N2 1.023031 1_555
H10 N1 1.025119 1_555
H11 O1 0.973671 1_555
H12 N5 1.027981 1_555
H13 N6 1.023583 1_555
H14 N2 1.025779 1_555
H15 O1 1.014233 1_555
H16 N3 1.022117 1_555
H17 N1 1.023031 1_555
H18 N1 1.025779 1_555
H19 O2 1.014233 1_555
H20 N5 1.023583 1_555
H21 O2 0.973671 1_555
H22 N6 1.027981 1_555
H23 N2 1.025119 1_555
H24 O3 1.004190 1_655
H25 N7 1.028473 1_555
H26 N4 1.029061 1_555
H27 N4 1.027702 1_565
H28 N3 1.024304 1_555
H29 N0 1.027694 1_555
H30 O3 1.005071 1_555
H31 N5 1.025397 1_555
