# generated using pymatgen
data_K2P4PbO12
_symmetry_space_group_name_H-M   'P 1'
_cell_length_a   9.33453900
_cell_length_b   15.65595700
_cell_length_c   15.68322400
_cell_angle_alpha   90.00000000
_cell_angle_beta   90.00000000
_cell_angle_gamma   90.00000000
_symmetry_Int_Tables_number   1
_chemical_formula_structural   K2P4PbO12
_chemical_formula_sum   'K16 P32 Pb8 O96'
_cell_volume   2291.96425304
_cell_formula_units_Z   8
loop_
 _symmetry_equiv_pos_site_id
 _symmetry_equiv_pos_as_xyz
  1  'x, y, z'
loop_
 _atom_site_type_symbol
 _atom_site_label
 _atom_site_symmetry_multiplicity
 _atom_site_fract_x
 _atom_site_fract_y
 _atom_site_fract_z
 _atom_site_occupancy
  K  K0  1  0.80629700  0.69479100  0.26054700  1
  K  K1  1  0.69370300  0.69479100  0.76054700  1
  K  K2  1  0.69370300  0.19479100  0.73945300  1
  K  K3  1  0.13426000  0.10014400  0.39439100  1
  K  K4  1  0.86574000  0.89985600  0.60560900  1
  K  K5  1  0.36574000  0.60014400  0.60560900  1
  K  K6  1  0.63426000  0.39985600  0.39439100  1
  K  K7  1  0.13426000  0.60014400  0.10560900  1
  K  K8  1  0.30629700  0.30520900  0.23945300  1
  K  K9  1  0.19370300  0.80520900  0.76054700  1
  K  K10  1  0.86574000  0.39985600  0.89439100  1
  K  K11  1  0.63426000  0.89985600  0.10560900  1
  K  K12  1  0.36574000  0.10014400  0.89439100  1
  K  K13  1  0.30629700  0.80520900  0.26054700  1
  K  K14  1  0.19370300  0.30520900  0.73945300  1
  K  K15  1  0.80629700  0.19479100  0.23945300  1
  P  P0  1  0.97100300  0.16224300  0.88724900  1
  P  P1  1  0.75039000  0.09913200  0.00392100  1
  P  P2  1  0.02899700  0.33775700  0.38724900  1
  P  P3  1  0.94455300  0.94757300  0.25865000  1
  P  P4  1  0.74961000  0.09913200  0.50392100  1
  P  P5  1  0.24961000  0.90086800  0.99607900  1
  P  P6  1  0.99851400  0.67001700  0.90204300  1
  P  P7  1  0.44455300  0.55242700  0.25865000  1
  P  P8  1  0.47100300  0.33775700  0.88724900  1
  P  P9  1  0.00148600  0.82998300  0.40204300  1
  P  P10  1  0.49851400  0.32998300  0.59795700  1
  P  P11  1  0.52899700  0.66224300  0.11275100  1
  P  P12  1  0.74961000  0.59913200  0.99607900  1
  P  P13  1  0.44455300  0.05242700  0.24135000  1
  P  P14  1  0.02899700  0.83775700  0.11275100  1
  P  P15  1  0.49851400  0.82998300  0.90204300  1
  P  P16  1  0.97100300  0.66224300  0.61275100  1
  P  P17  1  0.50148600  0.67001700  0.40204300  1
  P  P18  1  0.94455300  0.44757300  0.24135000  1
  P  P19  1  0.05544700  0.05242700  0.74135000  1
  P  P20  1  0.25039000  0.40086800  0.00392100  1
  P  P21  1  0.75039000  0.59913200  0.49607900  1
  P  P22  1  0.99851400  0.17001700  0.59795700  1
  P  P23  1  0.24961000  0.40086800  0.50392100  1
  P  P24  1  0.25039000  0.90086800  0.49607900  1
  P  P25  1  0.52899700  0.16224300  0.38724900  1
  P  P26  1  0.00148600  0.32998300  0.09795700  1
  P  P27  1  0.50148600  0.17001700  0.09795700  1
  P  P28  1  0.55544700  0.94757300  0.75865000  1
  P  P29  1  0.05544700  0.55242700  0.75865000  1
  P  P30  1  0.47100300  0.83775700  0.61275100  1
  P  P31  1  0.55544700  0.44757300  0.74135000  1
  Pb  Pb0  1  0.62129500  0.89889500  0.39390900  1
  Pb  Pb1  1  0.37870500  0.60110500  0.89390900  1
  Pb  Pb2  1  0.12129500  0.60110500  0.39390900  1
  Pb  Pb3  1  0.87870500  0.39889500  0.60609100  1
  Pb  Pb4  1  0.12129500  0.10110500  0.10609100  1
  Pb  Pb5  1  0.62129500  0.39889500  0.10609100  1
  Pb  Pb6  1  0.37870500  0.10110500  0.60609100  1
  Pb  Pb7  1  0.87870500  0.89889500  0.89390900  1
  O  O0  1  0.30404800  0.09949700  0.24778300  1
  O  O1  1  0.69595200  0.90050300  0.75221700  1
  O  O2  1  0.80404800  0.40050300  0.24778300  1
  O  O3  1  0.48595500  0.25376800  0.84328500  1
  O  O4  1  0.03022400  0.41451300  0.15614800  1
  O  O5  1  0.18877900  0.33925500  0.42844700  1
  O  O6  1  0.80404800  0.90050300  0.25221700  1
  O  O7  1  0.09524300  0.35423100  0.01487700  1
  O  O8  1  0.34869200  0.17448700  0.06820100  1
  O  O9  1  0.27937600  0.98822700  0.03208700  1
  O  O10  1  0.18877900  0.83925500  0.07155300  1
  O  O11  1  0.05329900  0.41412000  0.31624600  1
  O  O12  1  0.91914200  0.36849900  0.45087600  1
  O  O13  1  0.94670100  0.08588000  0.81624600  1
  O  O14  1  0.84869200  0.32551300  0.06820100  1
  O  O15  1  0.06469700  0.25400900  0.14348900  1
  O  O16  1  0.59524300  0.14576900  0.01487700  1
  O  O17  1  0.81122100  0.66074500  0.57155300  1
  O  O18  1  0.09524300  0.85423100  0.48512300  1
  O  O19  1  0.55329900  0.08588000  0.31624600  1
  O  O20  1  0.68877900  0.66074500  0.07155300  1
  O  O21  1  0.22062400  0.98822700  0.53208700  1
  O  O22  1  0.15130800  0.17448700  0.56820100  1
  O  O23  1  0.16221600  0.39287600  0.58403400  1
  O  O24  1  0.01404500  0.25376800  0.34328500  1
  O  O25  1  0.31122100  0.83925500  0.57155300  1
  O  O26  1  0.40475700  0.85423100  0.98512300  1
  O  O27  1  0.04399500  0.95713400  0.74026700  1
  O  O28  1  0.94670100  0.58588000  0.68375400  1
  O  O29  1  0.30404800  0.59949700  0.25221700  1
  O  O30  1  0.33778400  0.39287600  0.08403400  1
  O  O31  1  0.53022400  0.08548700  0.15614800  1
  O  O32  1  0.46977600  0.41451300  0.65614800  1
  O  O33  1  0.81122100  0.16074500  0.92844700  1
  O  O34  1  0.91914200  0.86849900  0.04912400  1
  O  O35  1  0.51404500  0.74623200  0.15671500  1
  O  O36  1  0.40475700  0.35423100  0.51487700  1
  O  O37  1  0.83778400  0.60712400  0.41596600  1
  O  O38  1  0.41914200  0.13150100  0.45087600  1
  O  O39  1  0.51404500  0.24623200  0.34328500  1
  O  O40  1  0.84869200  0.82551300  0.43179900  1
  O  O41  1  0.33778400  0.89287600  0.41596600  1
  O  O42  1  0.95600500  0.54286600  0.24026700  1
  O  O43  1  0.45600500  0.95713400  0.24026700  1
  O  O44  1  0.56469700  0.74599100  0.35651100  1
  O  O45  1  0.43530300  0.25400900  0.64348900  1
  O  O46  1  0.34869200  0.67448700  0.43179900  1
  O  O47  1  0.95600500  0.04286600  0.25973300  1
  O  O48  1  0.65130800  0.32551300  0.56820100  1
  O  O49  1  0.72062400  0.51177300  0.53208700  1
  O  O50  1  0.27937600  0.48822700  0.46791300  1
  O  O51  1  0.22062400  0.48822700  0.96791300  1
  O  O52  1  0.96977600  0.58548700  0.84385200  1
  O  O53  1  0.66221600  0.60712400  0.91596600  1
  O  O54  1  0.98595500  0.74623200  0.65671500  1
  O  O55  1  0.03022400  0.91451300  0.34385200  1
  O  O56  1  0.16221600  0.89287600  0.91596600  1
  O  O57  1  0.93530300  0.24599100  0.64348900  1
  O  O58  1  0.96977600  0.08548700  0.65614800  1
  O  O59  1  0.08085800  0.63150100  0.54912400  1
  O  O60  1  0.90475700  0.64576900  0.98512300  1
  O  O61  1  0.05329900  0.91412000  0.18375400  1
  O  O62  1  0.66221600  0.10712400  0.58403400  1
  O  O63  1  0.48595500  0.75376800  0.65671500  1
  O  O64  1  0.31122100  0.33925500  0.92844700  1
  O  O65  1  0.54399500  0.54286600  0.74026700  1
  O  O66  1  0.44670100  0.91412000  0.68375400  1
  O  O67  1  0.59524300  0.64576900  0.48512300  1
  O  O68  1  0.93530300  0.74599100  0.85651100  1
  O  O69  1  0.83778400  0.10712400  0.08403400  1
  O  O70  1  0.56469700  0.24599100  0.14348900  1
  O  O71  1  0.44670100  0.41412000  0.81624600  1
  O  O72  1  0.90475700  0.14576900  0.51487700  1
  O  O73  1  0.46977600  0.91451300  0.84385200  1
  O  O74  1  0.54399500  0.04286600  0.75973300  1
  O  O75  1  0.08085800  0.13150100  0.95087600  1
  O  O76  1  0.65130800  0.82551300  0.93179900  1
  O  O77  1  0.01404500  0.75376800  0.15671500  1
  O  O78  1  0.41914200  0.63150100  0.04912400  1
  O  O79  1  0.15130800  0.67448700  0.93179900  1
  O  O80  1  0.69595200  0.40050300  0.74778300  1
  O  O81  1  0.43530300  0.75400900  0.85651100  1
  O  O82  1  0.98595500  0.24623200  0.84328500  1
  O  O83  1  0.04399500  0.45713400  0.75973300  1
  O  O84  1  0.55329900  0.58588000  0.18375400  1
  O  O85  1  0.77937600  0.01177300  0.46791300  1
  O  O86  1  0.58085800  0.36849900  0.95087600  1
  O  O87  1  0.06469700  0.75400900  0.35651100  1
  O  O88  1  0.19595200  0.09949700  0.74778300  1
  O  O89  1  0.58085800  0.86849900  0.54912400  1
  O  O90  1  0.45600500  0.45713400  0.25973300  1
  O  O91  1  0.77937600  0.51177300  0.03208700  1
  O  O92  1  0.68877900  0.16074500  0.42844700  1
  O  O93  1  0.19595200  0.59949700  0.75221700  1
  O  O94  1  0.53022400  0.58548700  0.34385200  1
  O  O95  1  0.72062400  0.01177300  0.96791300  1
loop_
_geom_bond_atom_site_label_1
_geom_bond_atom_site_label_2
_geom_bond_distance
_geom_bond_site_symmetry_2
K0 O77 2.695354 1_655
K0 O42 2.776950 1_555
K0 O37 2.812728 1_555
K0 O44 2.827309 1_555
K0 O87 2.990418 1_655
K0 O84 3.152003 1_555
K0 O20 3.205148 1_555
K0 O6 3.223335 1_555
K0 O35 3.277582 1_555
K1 O63 2.695354 1_555
K1 O65 2.776950 1_555
K1 O53 2.812728 1_555
K1 O68 2.827309 1_555
K1 O81 2.990418 1_555
K1 O28 3.152003 1_555
K1 O17 3.205148 1_555
K1 O1 3.223335 1_555
K1 O54 3.277582 1_555
K2 O3 2.695354 1_555
K2 O74 2.776950 1_555
K2 O62 2.812728 1_555
K2 O57 2.827309 1_555
K2 O45 2.990418 1_555
K2 O13 3.152003 1_555
K2 O33 3.205148 1_555
K2 O80 3.223335 1_555
K2 O82 3.277582 1_555
K3 O24 2.772416 1_555
K3 O0 2.792616 1_555
K3 O47 2.834220 1_455
K3 O38 2.845582 1_555
K3 O21 2.895430 1_545
K3 O72 2.944541 1_455
K3 O22 2.968257 1_555
K3 O55 3.165044 1_545
K4 O54 2.772416 1_555
K4 O1 2.792616 1_555
K4 O27 2.834220 1_655
K4 O89 2.845582 1_555
K4 O85 2.895430 1_565
K4 O18 2.944541 1_655
K4 O40 2.968257 1_555
K4 O58 3.165044 1_565
K5 O63 2.772416 1_555
K5 O93 2.792616 1_555
K5 O65 2.834220 1_555
K5 O59 2.845582 1_555
K5 O50 2.895430 1_555
K5 O67 2.944541 1_555
K5 O46 2.968257 1_555
K5 O32 3.165044 1_555
K6 O39 2.772416 1_555
K6 O2 2.792616 1_555
K6 O90 2.834220 1_555
K6 O12 2.845582 1_555
K6 O49 2.895430 1_555
K6 O36 2.944541 1_555
K6 O48 2.968257 1_555
K6 O94 3.165044 1_555
K7 O77 2.772416 1_555
K7 O29 2.792616 1_555
K7 O42 2.834220 1_455
K7 O78 2.845582 1_555
K7 O51 2.895430 1_554
K7 O60 2.944541 1_454
K7 O79 2.968257 1_554
K7 O4 3.165044 1_555
K8 O39 2.695354 1_555
K8 O90 2.776950 1_555
K8 O30 2.812728 1_555
K8 O15 2.827309 1_555
K8 O70 2.990418 1_555
K8 O11 3.152003 1_555
K8 O5 3.205148 1_555
K8 O0 3.223335 1_555
K8 O24 3.277582 1_555
K9 O54 2.695354 1_455
K9 O27 2.776950 1_555
K9 O56 2.812728 1_555
K9 O81 2.827309 1_555
K9 O68 2.990418 1_455
K9 O66 3.152003 1_555
K9 O25 3.205148 1_555
K9 O93 3.223335 1_555
K9 O63 3.277582 1_555
K10 O82 2.772416 1_555
K10 O80 2.792616 1_555
K10 O83 2.834220 1_655
K10 O86 2.845582 1_555
K10 O91 2.895430 1_556
K10 O7 2.944541 1_656
K10 O14 2.968257 1_556
K10 O52 3.165044 1_555
K11 O35 2.772416 1_555
K11 O6 2.792616 1_555
K11 O43 2.834220 1_555
K11 O34 2.845582 1_555
K11 O95 2.895430 1_564
K11 O26 2.944541 1_554
K11 O76 2.968257 1_554
K11 O31 3.165044 1_565
K12 O3 2.772416 1_555
K12 O88 2.792616 1_555
K12 O74 2.834220 1_555
K12 O75 2.845582 1_555
K12 O9 2.895430 1_546
K12 O16 2.944541 1_556
K12 O8 2.968257 1_556
K12 O73 3.165044 1_545
K13 O35 2.695354 1_555
K13 O43 2.776950 1_555
K13 O41 2.812728 1_555
K13 O87 2.827309 1_555
K13 O44 2.990418 1_555
K13 O61 3.152003 1_555
K13 O10 3.205148 1_555
K13 O29 3.223335 1_555
K13 O77 3.277582 1_555
K14 O82 2.695354 1_455
K14 O83 2.776950 1_555
K14 O23 2.812728 1_555
K14 O45 2.827309 1_555
K14 O57 2.990418 1_455
K14 O71 3.152003 1_555
K14 O64 3.205148 1_555
K14 O88 3.223335 1_555
K14 O3 3.277582 1_555
K15 O24 2.695354 1_655
K15 O47 2.776950 1_555
K15 O69 2.812728 1_555
K15 O70 2.827309 1_555
K15 O15 2.990418 1_655
K15 O19 3.152003 1_555
K15 O92 3.205148 1_555
K15 O2 3.223335 1_555
K15 O39 3.277582 1_555
O0 P13 1.507780 1_555
O0 Pb4 2.801588 1_555
O1 P28 1.507780 1_555
O1 Pb7 2.801588 1_555
O2 P18 1.507780 1_555
O2 Pb5 2.801588 1_555
O3 P8 1.491282 1_555
O4 P26 1.629792 1_555
O4 P18 1.641023 1_455
O5 P2 1.625597 1_555
O5 P23 1.629108 1_555
O6 P3 1.507780 1_555
O6 Pb0 2.801588 1_555
O7 P26 1.614857 1_555
O7 P20 1.630949 1_555
O8 P27 1.502298 1_555
O8 Pb4 2.485686 1_555
O9 P5 1.505551 1_554
O9 Pb4 2.578278 1_565
O10 P14 1.625597 1_555
O10 P5 1.629108 1_554
O11 P18 1.638422 1_455
O11 P2 1.649477 1_555
O12 P2 1.509616 1_655
O12 Pb3 2.508907 1_555
O13 P19 1.638422 1_655
O13 P0 1.649477 1_555
O14 P26 1.502298 1_655
O14 Pb5 2.485686 1_555
O15 P26 1.507600 1_555
O15 Pb4 2.520651 1_555
O16 P27 1.614857 1_555
O16 P1 1.630949 1_555
O17 P16 1.625597 1_555
O17 P21 1.629108 1_555
O18 P9 1.614857 1_555
O18 P24 1.630949 1_555
O19 P13 1.638422 1_555
O19 P25 1.649477 1_555
O20 P11 1.625597 1_555
O20 P12 1.629108 1_554
O21 P24 1.505551 1_555
O21 Pb6 2.578278 1_565
O22 P22 1.502298 1_455
O22 Pb6 2.485686 1_555
O23 P23 1.503254 1_555
O23 Pb3 2.670620 1_455
O24 P2 1.491282 1_555
O25 P30 1.625597 1_555
O25 P24 1.629108 1_555
O26 P15 1.614857 1_555
O26 P5 1.630949 1_555
O27 P19 1.495824 1_565
O28 P29 1.638422 1_655
O28 P16 1.649477 1_555
O29 P7 1.507780 1_555
O29 Pb2 2.801588 1_555
O30 P20 1.503254 1_555
O30 Pb5 2.670620 1_555
O31 P27 1.629792 1_555
O31 P13 1.641023 1_555
O32 P10 1.629792 1_555
O32 P31 1.641023 1_555
O33 P0 1.625597 1_555
O33 P1 1.629108 1_556
O34 P14 1.509616 1_655
O34 Pb7 2.508907 1_554
O35 P11 1.491282 1_555
O36 P10 1.614857 1_555
O36 P23 1.630949 1_555
O37 P21 1.503254 1_555
O37 Pb2 2.670620 1_655
O38 P25 1.509616 1_555
O38 Pb6 2.508907 1_555
O39 P25 1.491282 1_555
O40 P9 1.502298 1_655
O40 Pb0 2.485686 1_555
O41 P24 1.503254 1_555
O41 Pb0 2.670620 1_555
O42 P18 1.495824 1_555
O43 P13 1.495824 1_565
O44 P17 1.507600 1_555
O44 Pb0 2.520651 1_555
O45 P10 1.507600 1_555
O45 Pb6 2.520651 1_555
O46 P17 1.502298 1_555
O46 Pb2 2.485686 1_555
O47 P3 1.495824 1_545
O48 P10 1.502298 1_555
O48 Pb3 2.485686 1_555
O49 P21 1.505551 1_555
O49 Pb3 2.578278 1_555
O50 P23 1.505551 1_555
O50 Pb2 2.578278 1_555
O51 P20 1.505551 1_556
O51 Pb1 2.578278 1_555
O52 P6 1.629792 1_555
O52 P29 1.641023 1_655
O53 P12 1.503254 1_555
O53 Pb1 2.670620 1_555
O54 P16 1.491282 1_555
O55 P9 1.629792 1_555
O55 P3 1.641023 1_455
O56 P5 1.503254 1_555
O56 Pb7 2.670620 1_455
O57 P22 1.507600 1_555
O57 Pb3 2.520651 1_555
O58 P22 1.629792 1_555
O58 P19 1.641023 1_655
O59 P16 1.509616 1_455
O59 Pb2 2.508907 1_555
O60 P6 1.614857 1_555
O60 P12 1.630949 1_555
O61 P3 1.638422 1_455
O61 P14 1.649477 1_555
O62 P4 1.503254 1_555
O62 Pb6 2.670620 1_555
O63 P30 1.491282 1_555
O64 P8 1.625597 1_555
O64 P20 1.629108 1_556
O65 P31 1.495824 1_555
O66 P28 1.638422 1_555
O66 P30 1.649477 1_555
O67 P17 1.614857 1_555
O67 P21 1.630949 1_555
O68 P6 1.507600 1_555
O68 Pb7 2.520651 1_555
O69 P1 1.503254 1_555
O69 Pb4 2.670620 1_655
O70 P27 1.507600 1_555
O70 Pb5 2.520651 1_555
O71 P31 1.638422 1_555
O71 P8 1.649477 1_555
O72 P22 1.614857 1_555
O72 P4 1.630949 1_555
O73 P15 1.629792 1_555
O73 P28 1.641023 1_555
O74 P28 1.495824 1_545
O75 P0 1.509616 1_455
O75 Pb4 2.508907 1_556
O76 P15 1.502298 1_555
O76 Pb7 2.485686 1_555
O77 P14 1.491282 1_555
O78 P11 1.509616 1_555
O78 Pb1 2.508907 1_554
O79 P6 1.502298 1_455
O79 Pb1 2.485686 1_555
O80 P31 1.507780 1_555
O80 Pb3 2.801588 1_555
O81 P15 1.507600 1_555
O81 Pb1 2.520651 1_555
O82 P0 1.491282 1_555
O83 P29 1.495824 1_555
O84 P7 1.638422 1_555
O84 P11 1.649477 1_555
O85 P4 1.505551 1_555
O85 Pb0 2.578278 1_545
O86 P8 1.509616 1_555
O86 Pb5 2.508907 1_556
O87 P9 1.507600 1_555
O87 Pb2 2.520651 1_555
O88 P19 1.507780 1_555
O88 Pb6 2.801588 1_555
O89 P30 1.509616 1_555
O89 Pb0 2.508907 1_555
O90 P7 1.495824 1_555
O91 P12 1.505551 1_554
O91 Pb5 2.578278 1_555
O92 P25 1.625597 1_555
O92 P4 1.629108 1_555
O93 P29 1.507780 1_555
O93 Pb1 2.801588 1_555
O94 P17 1.629792 1_555
O94 P7 1.641023 1_555
O95 P1 1.505551 1_556
O95 Pb7 2.578278 1_545
