# generated using pymatgen
data_Ni3(PO4)4
_symmetry_space_group_name_H-M   'P 1'
_cell_length_a   9.94079521
_cell_length_b   9.94079521
_cell_length_c   10.65030586
_cell_angle_alpha   88.58141442
_cell_angle_beta   88.58141442
_cell_angle_gamma   37.38257225
_symmetry_Int_Tables_number   1
_chemical_formula_structural   Ni3(PO4)4
_chemical_formula_sum   'Ni6 P8 O32'
_cell_volume   638.76431145
_cell_formula_units_Z   2
loop_
 _symmetry_equiv_pos_site_id
 _symmetry_equiv_pos_as_xyz
  1  'x, y, z'
loop_
 _atom_site_type_symbol
 _atom_site_label
 _atom_site_symmetry_multiplicity
 _atom_site_fract_x
 _atom_site_fract_y
 _atom_site_fract_z
 _atom_site_occupancy
  Ni  Ni0  1  0.36561500  0.32719600  0.25156100  1
  Ni  Ni1  1  0.67280400  0.63438500  0.24843900  1
  Ni  Ni2  1  0.32719600  0.36561500  0.75156100  1
  Ni  Ni3  1  0.63438500  0.67280400  0.74843900  1
  Ni  Ni4  1  0.50000000  0.00000000  0.00000000  1
  Ni  Ni5  1  0.00000000  0.50000000  0.50000000  1
  P  P0  1  0.18374900  0.21921100  0.75422200  1
  P  P1  1  0.81625100  0.78078900  0.24577800  1
  P  P2  1  0.24707900  0.58529600  0.49369800  1
  P  P3  1  0.58529600  0.24707900  0.99369800  1
  P  P4  1  0.21921100  0.18374900  0.25422200  1
  P  P5  1  0.75292100  0.41470400  0.50630200  1
  P  P6  1  0.78078900  0.81625100  0.74577800  1
  P  P7  1  0.41470400  0.75292100  0.00630200  1
  O  O0  1  0.03433700  0.66866300  0.49289600  1
  O  O1  1  0.78850200  0.69245900  0.35611700  1
  O  O2  1  0.52539700  0.63411200  0.87887500  1
  O  O3  1  0.98593900  0.32044500  0.22483700  1
  O  O4  1  0.77563500  0.19526000  0.96418900  1
  O  O5  1  0.63411200  0.52539700  0.37887500  1
  O  O6  1  0.66866300  0.03433700  0.99289600  1
  O  O7  1  0.58859800  0.58625700  0.61251400  1
  O  O8  1  0.01406100  0.67955500  0.77516300  1
  O  O9  1  0.76158300  0.72572900  0.63761900  1
  O  O10  1  0.72572900  0.76158300  0.13761900  1
  O  O11  1  0.96566300  0.33133700  0.50710400  1
  O  O12  1  0.05298600  0.64060600  0.21857200  1
  O  O13  1  0.19526000  0.77563500  0.46418900  1
  O  O14  1  0.58625700  0.58859800  0.11251400  1
  O  O15  1  0.47460300  0.36588800  0.12112500  1
  O  O16  1  0.69245900  0.78850200  0.85611700  1
  O  O17  1  0.64060600  0.05298600  0.71857200  1
  O  O18  1  0.35939400  0.94701400  0.28142800  1
  O  O19  1  0.27427100  0.23841700  0.86238100  1
  O  O20  1  0.32044500  0.98593900  0.72483700  1
  O  O21  1  0.41140200  0.41374300  0.38748600  1
  O  O22  1  0.67955500  0.01406100  0.27516300  1
  O  O23  1  0.23841700  0.27427100  0.36238100  1
  O  O24  1  0.36588800  0.47460300  0.62112500  1
  O  O25  1  0.41374300  0.41140200  0.88748600  1
  O  O26  1  0.21149800  0.30754100  0.64388300  1
  O  O27  1  0.94701400  0.35939400  0.78142800  1
  O  O28  1  0.33133700  0.96566300  0.00710400  1
  O  O29  1  0.22436500  0.80474000  0.03581100  1
  O  O30  1  0.80474000  0.22436500  0.53581100  1
  O  O31  1  0.30754100  0.21149800  0.14388300  1
loop_
_geom_bond_atom_site_label_1
_geom_bond_atom_site_label_2
_geom_bond_distance
_geom_bond_site_symmetry_2
Ni0 O21 1.938981 1_555
Ni0 O15 1.952653 1_555
Ni0 O22 2.013475 1_555
Ni0 O12 2.025073 1_555
Ni0 O31 2.030888 1_555
Ni0 O23 2.054564 1_555
Ni1 O14 1.938981 1_555
Ni1 O5 1.952653 1_555
Ni1 O3 2.013475 1_555
Ni1 O18 2.025073 1_555
Ni1 O1 2.030888 1_555
Ni1 O10 2.054564 1_555
Ni2 O25 1.938981 1_555
Ni2 O24 1.952653 1_555
Ni2 O8 2.013475 1_555
Ni2 O17 2.025073 1_555
Ni2 O26 2.030888 1_555
Ni2 O19 2.054564 1_555
Ni3 O7 1.938981 1_555
Ni3 O2 1.952653 1_555
Ni3 O20 2.013475 1_555
Ni3 O27 2.025073 1_555
Ni3 O16 2.030888 1_555
Ni3 O9 2.054564 1_555
Ni4 O6 1.958395 1_554
Ni4 O28 1.958395 1_545
Ni4 O31 2.012669 1_555
Ni4 O16 2.012669 1_544
Ni4 O10 2.083200 1_545
Ni4 O19 2.083200 1_554
Ni5 O0 1.958395 1_555
Ni5 O11 1.958395 1_455
Ni5 O26 2.012669 1_555
Ni5 O1 2.012669 1_455
Ni5 O9 2.083200 1_455
Ni5 O23 2.083200 1_555
O0 P2 1.540983 1_555
O1 P1 1.595571 1_555
O2 P7 1.545196 1_556
O3 P4 1.526097 1_655
O4 P3 1.540736 1_555
O5 P5 1.545196 1_555
O6 P3 1.540983 1_555
O7 P5 1.559860 1_555
O8 P6 1.526097 1_455
O9 P6 1.583786 1_555
O10 P1 1.583786 1_555
O11 P5 1.540983 1_555
O12 P1 1.529251 1_455
O13 P2 1.540736 1_555
O14 P7 1.559860 1_555
O15 P3 1.545196 1_554
O16 P6 1.595571 1_555
O17 P6 1.529251 1_545
O18 P4 1.529251 1_565
O19 P0 1.583786 1_555
O20 P0 1.526097 1_565
O21 P2 1.559860 1_555
O22 P1 1.526097 1_545
O23 P4 1.583786 1_555
O24 P2 1.545196 1_555
O25 P3 1.559860 1_555
O26 P0 1.595571 1_555
O27 P0 1.529251 1_655
O28 P7 1.540983 1_555
O29 P7 1.540736 1_555
O30 P5 1.540736 1_555
O31 P4 1.595571 1_555
