# generated using pymatgen
data_Ba25(Bi5O18)3
_symmetry_space_group_name_H-M   'P 1'
_cell_length_a   6.33651571
_cell_length_b   6.33651571
_cell_length_c   51.98508236
_cell_angle_alpha   85.68276019
_cell_angle_beta   85.68276019
_cell_angle_gamma   61.20260678
_symmetry_Int_Tables_number   1
_chemical_formula_structural   Ba25(Bi5O18)3
_chemical_formula_sum   'Ba25 Bi15 O54'
_cell_volume   1822.13011292
_cell_formula_units_Z   1
loop_
 _symmetry_equiv_pos_site_id
 _symmetry_equiv_pos_as_xyz
  1  'x, y, z'
loop_
 _atom_site_type_symbol
 _atom_site_label
 _atom_site_symmetry_multiplicity
 _atom_site_fract_x
 _atom_site_fract_y
 _atom_site_fract_z
 _atom_site_occupancy
  Ba  Ba0  1  0.07676300  0.07676300  0.92346900  1
  Ba  Ba1  1  0.38544100  0.38544100  0.97086200  1
  Ba  Ba2  1  0.75915900  0.75915900  0.87397100  1
  Ba  Ba3  1  0.44938300  0.44938300  0.82590700  1
  Ba  Ba4  1  0.13708200  0.13708200  0.77708200  1
  Ba  Ba5  1  0.82429100  0.82429100  0.72761900  1
  Ba  Ba6  1  0.22053300  0.22053300  0.63438600  1
  Ba  Ba7  1  0.51654600  0.51654600  0.68147700  1
  Ba  Ba8  1  0.65384000  0.65384000  0.53052300  1
  Ba  Ba9  1  0.95541300  0.95541300  0.57426800  1
  Ba  Ba10  1  0.12540400  0.12540400  0.35360000  1
  Ba  Ba11  1  0.33376800  0.33376800  0.48777900  1
  Ba  Ba12  1  0.08793200  0.08793200  0.43463200  1
  Ba  Ba13  1  0.29483100  0.29483100  0.55975900  1
  Ba  Ba14  1  0.78934000  0.78934000  0.38520400  1
  Ba  Ba15  1  0.48040100  0.48040100  0.33168000  1
  Ba  Ba16  1  0.88784700  0.88784700  0.22660700  1
  Ba  Ba17  1  0.18863800  0.18863800  0.27613200  1
  Ba  Ba18  1  0.34018600  0.34018600  0.04909100  1
  Ba  Ba19  1  0.28173000  0.28173000  0.12674900  1
  Ba  Ba20  1  0.59291700  0.59291700  0.17829400  1
  Ba  Ba21  1  0.52767600  0.52767600  0.25245600  1
  Ba  Ba22  1  0.99578900  0.99578900  0.06801200  1
  Ba  Ba23  1  0.68147200  0.68147200  0.01836900  1
  Ba  Ba24  1  0.92780800  0.92780800  0.14554600  1
  Bi  Bi0  1  0.79640700  0.79640700  0.80062200  1
  Bi  Bi1  1  0.48407100  0.48407100  0.75167000  1
  Bi  Bi2  1  0.72556300  0.72556300  0.94792100  1
  Bi  Bi3  1  0.86297600  0.86297600  0.65025300  1
  Bi  Bi4  1  0.41693000  0.41693000  0.89892300  1
  Bi  Bi5  1  0.10417300  0.10417300  0.84997600  1
  Bi  Bi6  1  0.17634100  0.17634100  0.70198400  1
  Bi  Bi7  1  0.42216100  0.42216100  0.40528000  1
  Bi  Bi8  1  0.55788700  0.55788700  0.60456400  1
  Bi  Bi9  1  0.98768000  0.98768000  0.50244100  1
  Bi  Bi10  1  0.71142200  0.71142200  0.45471600  1
  Bi  Bi11  1  0.21917900  0.21917900  0.19999900  1
  Bi  Bi12  1  0.61228700  0.61228700  0.09698600  1
  Bi  Bi13  1  0.81549300  0.81549300  0.30221900  1
  Bi  Bi14  1  0.04010800  0.04010800  0.99705800  1
  O  O0  1  0.86582300  0.86582300  0.97959000  1
  O  O1  1  0.85812200  0.35264500  0.97024800  1
  O  O2  1  0.58229800  0.58229800  0.91934200  1
  O  O3  1  0.35264500  0.85812200  0.97024800  1
  O  O4  1  0.25758100  0.74519000  0.87358600  1
  O  O5  1  0.95040700  0.45603800  0.82513000  1
  O  O6  1  0.08926900  0.56763500  0.92478000  1
  O  O7  1  0.74519000  0.25758100  0.87358600  1
  O  O8  1  0.56763500  0.08926900  0.92478000  1
  O  O9  1  0.45603800  0.95040700  0.82513000  1
  O  O10  1  0.25629300  0.25629300  0.87668900  1
  O  O11  1  0.13844700  0.65007900  0.77616400  1
  O  O12  1  0.82182800  0.33824500  0.72494200  1
  O  O13  1  0.64580100  0.64580100  0.77532800  1
  O  O14  1  0.66867300  0.66867300  0.63624200  1
  O  O15  1  0.53791700  0.04717000  0.67674900  1
  O  O16  1  0.95172500  0.95172500  0.82429600  1
  O  O17  1  0.65007900  0.13844700  0.77616400  1
  O  O18  1  0.33824500  0.82182800  0.72494200  1
  O  O19  1  0.15931300  0.67432200  0.61969400  1
  O  O20  1  0.03375000  0.03375000  0.67066600  1
  O  O21  1  0.86372000  0.40440800  0.57581200  1
  O  O22  1  0.32539000  0.32539000  0.72809700  1
  O  O23  1  0.85006000  0.35579300  0.47555300  1
  O  O24  1  0.67432200  0.15931300  0.61969400  1
  O  O25  1  0.04717000  0.53791700  0.67674900  1
  O  O26  1  0.64475800  0.11875000  0.52620200  1
  O  O27  1  0.35579300  0.85006000  0.47555300  1
  O  O28  1  0.24312100  0.71357700  0.37415700  1
  O  O29  1  0.11875000  0.64475800  0.52620200  1
  O  O30  1  0.40440800  0.86372000  0.57581200  1
  O  O31  1  0.05046400  0.53755500  0.42559900  1
  O  O32  1  0.93368700  0.93368700  0.32991300  1
  O  O33  1  0.71357700  0.24312100  0.37415700  1
  O  O34  1  0.13472200  0.13472200  0.52559300  1
  O  O35  1  0.65630700  0.10280400  0.27444000  1
  O  O36  1  0.53755500  0.05046400  0.42559900  1
  O  O37  1  0.45263900  0.90629800  0.31568500  1
  O  O38  1  0.10280400  0.65630700  0.27444000  1
  O  O39  1  0.58690300  0.58690300  0.42440000  1
  O  O40  1  0.06591000  0.54280000  0.17144000  1
  O  O41  1  0.90629800  0.45263900  0.31568500  1
  O  O42  1  0.83741700  0.31886600  0.21690400  1
  O  O43  1  0.54280000  0.06591000  0.17144000  1
  O  O44  1  0.46432300  0.92303700  0.07232000  1
  O  O45  1  0.31886600  0.83741700  0.21690400  1
  O  O46  1  0.24918700  0.69052900  0.10797500  1
  O  O47  1  0.92303700  0.46432300  0.07232000  1
  O  O48  1  0.32494200  0.32494200  0.23183700  1
  O  O49  1  0.69052900  0.24918700  0.10797500  1
  O  O50  1  0.74297800  0.21482700  0.02489500  1
  O  O51  1  0.70766200  0.70766200  0.12898200  1
  O  O52  1  0.21482700  0.74297800  0.02489500  1
  O  O53  1  0.21593100  0.21593100  0.01219400  1
loop_
_geom_bond_atom_site_label_1
_geom_bond_atom_site_label_2
_geom_bond_distance
_geom_bond_site_symmetry_2
Ba0 O3 2.947631 1_545
Ba0 O1 2.947631 1_455
Ba0 O10 2.985961 1_555
Ba0 O6 3.155285 1_555
Ba0 O8 3.155285 1_555
Ba0 O6 3.184343 1_545
Ba0 O8 3.184343 1_455
Ba0 O2 3.233013 1_455
Ba0 O2 3.233013 1_545
Ba0 O4 3.241190 1_545
Ba0 O7 3.241190 1_455
Ba1 O53 2.709363 1_556
Ba1 O3 2.898633 1_555
Ba1 O1 2.898633 1_555
Ba1 O6 2.960865 1_555
Ba1 O8 2.960865 1_555
Ba1 O2 3.283014 1_555
Ba1 O1 3.448908 1_455
Ba1 O3 3.448908 1_545
Ba2 O2 2.913588 1_555
Ba2 O5 3.103675 1_555
Ba2 O9 3.103675 1_555
Ba2 O4 3.115165 1_655
Ba2 O7 3.115165 1_565
Ba2 O16 3.183074 1_555
Ba2 O4 3.223419 1_555
Ba2 O7 3.223419 1_555
Ba2 O10 3.228798 1_655
Ba2 O10 3.228798 1_565
Ba2 O8 3.275402 1_565
Ba2 O6 3.275402 1_655
Ba3 O7 3.030685 1_555
Ba3 O4 3.030685 1_555
Ba3 O9 3.144950 1_545
Ba3 O5 3.144950 1_455
Ba3 O17 3.169226 1_555
Ba3 O11 3.169226 1_555
Ba3 O5 3.192467 1_555
Ba3 O9 3.192467 1_555
Ba3 O16 3.226803 1_545
Ba3 O16 3.226803 1_455
Ba3 O10 3.229977 1_555
Ba3 O13 3.243235 1_555
Ba4 O16 3.040424 1_445
Ba4 O17 3.085699 1_455
Ba4 O11 3.085699 1_545
Ba4 O9 3.120062 1_545
Ba4 O5 3.120062 1_455
Ba4 O22 3.128721 1_555
Ba4 O13 3.228128 1_455
Ba4 O13 3.228128 1_545
Ba4 O17 3.251540 1_555
Ba4 O11 3.251540 1_555
Ba4 O12 3.286930 1_455
Ba4 O18 3.286930 1_545
Ba5 O13 3.016166 1_555
Ba5 O18 3.100996 1_555
Ba5 O12 3.100996 1_555
Ba5 O11 3.125659 1_655
Ba5 O17 3.125659 1_565
Ba5 O25 3.157817 1_655
Ba5 O15 3.157817 1_565
Ba5 O22 3.225799 1_565
Ba5 O22 3.225799 1_655
Ba5 O18 3.241710 1_655
Ba5 O12 3.241710 1_565
Ba6 O20 2.652561 1_555
Ba6 O24 2.764288 1_555
Ba6 O19 2.764288 1_555
Ba6 O25 2.876686 1_555
Ba6 O15 2.876686 1_555
Ba6 O14 3.274864 1_455
Ba6 O14 3.274864 1_545
Ba7 O14 2.756963 1_555
Ba7 O12 2.879595 1_555
Ba7 O18 2.879595 1_555
Ba7 O15 2.939674 1_555
Ba7 O25 2.939674 1_555
Ba7 O22 3.055724 1_555
Ba7 O20 3.276826 1_655
Ba7 O20 3.276826 1_565
Ba7 O15 3.419516 1_565
Ba7 O25 3.419516 1_655
Ba8 O21 2.774127 1_555
Ba8 O30 2.774127 1_555
Ba8 O26 2.910522 1_565
Ba8 O29 2.910522 1_655
Ba8 O34 3.243992 1_565
Ba8 O34 3.243992 1_655
Ba8 O27 3.360648 1_555
Ba8 O23 3.360648 1_555
Ba8 O26 3.443048 1_555
Ba8 O29 3.443048 1_555
Ba9 O30 2.621679 1_655
Ba9 O21 2.621679 1_565
Ba9 O24 2.833253 1_565
Ba9 O19 2.833253 1_655
Ba9 O34 3.059851 1_665
Ba9 O26 3.094834 1_565
Ba9 O29 3.094834 1_655
Ba10 O33 2.516545 1_455
Ba10 O28 2.516545 1_545
Ba10 O32 2.517952 1_445
Ba10 O41 2.671166 1_455
Ba10 O37 2.671166 1_545
Ba11 O26 2.706558 1_555
Ba11 O29 2.706558 1_555
Ba11 O34 2.798535 1_555
Ba11 O27 3.112172 1_545
Ba11 O23 3.112172 1_455
Ba11 O27 3.352546 1_555
Ba11 O23 3.352546 1_555
Ba12 O27 2.697068 1_545
Ba12 O23 2.697068 1_455
Ba12 O31 2.749111 1_555
Ba12 O36 2.749111 1_555
Ba12 O39 3.269414 1_455
Ba12 O39 3.269414 1_545
Ba13 O26 2.555726 1_555
Ba13 O29 2.555726 1_555
Ba13 O30 2.560775 1_545
Ba13 O21 2.560775 1_455
Ba13 O34 2.597574 1_555
Ba14 O36 2.677374 1_565
Ba14 O31 2.677374 1_655
Ba14 O33 2.700207 1_565
Ba14 O28 2.700207 1_655
Ba14 O39 2.870703 1_555
Ba14 O32 3.154236 1_555
Ba15 O33 2.677833 1_555
Ba15 O28 2.677833 1_555
Ba15 O37 2.689263 1_555
Ba15 O41 2.689263 1_555
Ba15 O32 3.268217 1_545
Ba15 O32 3.268217 1_455
Ba16 O42 2.606109 1_565
Ba16 O45 2.606109 1_655
Ba16 O35 2.868164 1_565
Ba16 O38 2.868164 1_655
Ba17 O48 2.629465 1_555
Ba17 O37 2.703259 1_545
Ba17 O41 2.703259 1_455
Ba17 O38 2.738685 1_555
Ba17 O35 2.738685 1_555
Ba18 O53 2.443540 1_555
Ba18 O52 2.537948 1_555
Ba18 O50 2.537948 1_555
Ba18 O44 2.592897 1_545
Ba18 O47 2.592897 1_455
Ba19 O46 2.615351 1_555
Ba19 O49 2.615351 1_555
Ba19 O40 2.815156 1_555
Ba19 O43 2.815156 1_555
Ba19 O51 3.324876 1_455
Ba19 O51 3.324876 1_545
Ba20 O45 2.606888 1_555
Ba20 O42 2.606888 1_555
Ba20 O51 2.752608 1_555
Ba20 O40 2.854795 1_655
Ba20 O43 2.854795 1_565
Ba21 O45 2.517670 1_555
Ba21 O42 2.517670 1_555
Ba21 O48 2.540472 1_555
Ba21 O38 2.604099 1_555
Ba21 O35 2.604099 1_555
Ba22 O50 2.728879 1_565
Ba22 O52 2.728879 1_655
Ba22 O46 2.746001 1_655
Ba22 O49 2.746001 1_565
Ba22 O47 2.800510 1_565
Ba22 O44 2.800510 1_655
Ba23 O0 2.720045 1_554
Ba23 O52 2.787271 1_555
Ba23 O50 2.787271 1_555
Ba23 O1 3.157286 1_554
Ba23 O3 3.157286 1_554
Ba23 O44 3.184102 1_555
Ba23 O47 3.184102 1_555
Ba23 O53 3.260091 1_655
Ba23 O53 3.260091 1_565
Ba24 O40 2.481047 1_655
Ba24 O43 2.481047 1_565
Ba24 O51 2.621014 1_555
Ba24 O49 2.667543 1_565
Ba24 O46 2.667543 1_655
Bi0 O16 2.179381 1_555
Bi0 O13 2.192190 1_555
Bi0 O5 2.229991 1_555
Bi0 O9 2.229991 1_555
Bi0 O11 2.236112 1_655
Bi0 O17 2.236112 1_565
Bi1 O22 2.206527 1_555
Bi1 O13 2.237039 1_555
Bi1 O11 2.255331 1_555
Bi1 O17 2.255331 1_555
Bi1 O18 2.281488 1_555
Bi1 O12 2.281488 1_555
Bi2 O2 2.248451 1_555
Bi2 O8 2.302570 1_565
Bi2 O6 2.302570 1_655
Bi2 O1 2.336253 1_555
Bi2 O3 2.336253 1_555
Bi2 O0 2.343445 1_555
Bi3 O20 2.223046 1_665
Bi3 O15 2.236244 1_565
Bi3 O25 2.236244 1_655
Bi3 O24 2.269986 1_565
Bi3 O19 2.269986 1_655
Bi3 O14 2.300585 1_555
Bi4 O2 2.171527 1_555
Bi4 O10 2.181871 1_555
Bi4 O4 2.201188 1_555
Bi4 O7 2.201188 1_555
Bi4 O8 2.211870 1_555
Bi4 O6 2.211870 1_555
Bi5 O16 2.221655 1_445
Bi5 O10 2.254967 1_555
Bi5 O9 2.291657 1_545
Bi5 O5 2.291657 1_455
Bi5 O4 2.292292 1_545
Bi5 O7 2.292292 1_455
Bi6 O22 2.207298 1_555
Bi6 O12 2.254658 1_455
Bi6 O18 2.254658 1_545
Bi6 O20 2.347934 1_555
Bi6 O15 2.354273 1_555
Bi6 O25 2.354273 1_555
Bi7 O39 2.128296 1_555
Bi7 O33 2.263364 1_555
Bi7 O28 2.263364 1_555
Bi7 O31 2.297868 1_555
Bi7 O36 2.297868 1_555
Bi8 O14 2.126117 1_555
Bi8 O21 2.214133 1_555
Bi8 O30 2.214133 1_555
Bi8 O24 2.352568 1_555
Bi8 O19 2.352568 1_555
Bi9 O34 2.087788 1_665
Bi9 O29 2.224599 1_655
Bi9 O26 2.224599 1_565
Bi9 O27 2.426518 1_655
Bi9 O23 2.426518 1_565
Bi10 O39 2.168643 1_555
Bi10 O27 2.211710 1_555
Bi10 O23 2.211710 1_555
Bi10 O36 2.366744 1_565
Bi10 O31 2.366744 1_655
Bi11 O48 2.098645 1_555
Bi11 O40 2.278697 1_555
Bi11 O43 2.278697 1_555
Bi11 O42 2.305305 1_455
Bi11 O45 2.305305 1_545
Bi12 O51 2.037558 1_555
Bi12 O47 2.103027 1_555
Bi12 O44 2.103027 1_555
Bi12 O49 2.147453 1_555
Bi12 O46 2.147453 1_555
Bi13 O32 2.014831 1_555
Bi13 O38 2.114601 1_655
Bi13 O35 2.114601 1_565
Bi13 O37 2.156693 1_555
Bi13 O41 2.156693 1_555
Bi14 O53 2.135741 1_556
Bi14 O52 2.165050 1_546
Bi14 O50 2.165050 1_456
Bi14 O0 2.177337 1_445
Bi14 O1 2.195546 1_455
Bi14 O3 2.195546 1_545
