# generated using pymatgen
data_SrPrGaCuO5
_symmetry_space_group_name_H-M   'P 1'
_cell_length_a   5.83057500
_cell_length_b   6.07413258
_cell_length_c   8.17753001
_cell_angle_alpha   105.84025664
_cell_angle_beta   108.66344551
_cell_angle_gamma   88.69702671
_symmetry_Int_Tables_number   1
_chemical_formula_structural   SrPrGaCuO5
_chemical_formula_sum   'Sr2 Pr2 Ga2 Cu2 O10'
_cell_volume   263.30008033
_cell_formula_units_Z   2
loop_
 _symmetry_equiv_pos_site_id
 _symmetry_equiv_pos_as_xyz
  1  'x, y, z'
loop_
 _atom_site_type_symbol
 _atom_site_label
 _atom_site_symmetry_multiplicity
 _atom_site_fract_x
 _atom_site_fract_y
 _atom_site_fract_z
 _atom_site_occupancy
  Sr  Sr0  1  0.17438000  0.64828800  0.25171800  1
  Sr  Sr1  1  0.69821200  0.00330800  0.27453100  1
  Pr  Pr0  1  0.36317800  0.86647900  0.77529100  1
  Pr  Pr1  1  0.86905300  0.42125600  0.82266200  1
  Ga  Ga0  1  0.77360700  0.58044400  0.46253600  1
  Ga  Ga1  1  0.29875500  0.28011700  0.52892100  1
  Cu  Cu0  1  0.51100800  0.35925100  0.01347300  1
  Cu  Cu1  1  0.99252000  0.00032400  0.99236400  1
  O  O0  1  0.17082500  0.73094200  0.93765300  1
  O  O1  1  0.00255100  0.81456200  0.51412500  1
  O  O2  1  0.97248200  0.34393000  0.52822200  1
  O  O3  1  0.57087600  0.58439700  0.24289000  1
  O  O4  1  0.74755500  0.78503600  0.98669100  1
  O  O5  1  0.19034700  0.19382500  0.94013100  1
  O  O6  1  0.84698100  0.27632600  0.07077400  1
  O  O7  1  0.52187300  0.55608500  0.57224300  1
  O  O8  1  0.32111900  0.05465100  0.34143400  1
  O  O9  1  0.47467600  0.22478100  0.74434100  1
loop_
_geom_bond_atom_site_label_1
_geom_bond_atom_site_label_2
_geom_bond_distance
_geom_bond_site_symmetry_2
Ga0 O3 1.813119 1_555
Ga0 O1 1.838623 1_655
Ga0 O2 1.908884 1_555
Ga0 O7 1.976395 1_555
Ga1 O8 1.793538 1_555
Ga1 O9 1.849170 1_555
Ga1 O2 1.931310 1_455
Ga1 O7 2.026759 1_555
Cu0 O3 1.927088 1_555
Cu0 O6 1.951186 1_555
Cu0 O5 1.975777 1_554
Cu0 O9 2.069742 1_554
Cu1 O5 1.882917 1_655
Cu1 O6 1.907482 1_556
Cu1 O4 1.939490 1_545
Cu1 O0 1.943969 1_645
O0 Pr0 2.300041 1_555
O0 Pr1 2.375813 1_455
O0 Sr0 2.741876 1_556
O1 Pr0 2.422854 1_555
O1 Sr0 2.602921 1_555
O1 Sr1 2.685245 1_465
O2 Pr1 2.584724 1_555
O2 Sr1 2.612623 1_555
O3 Sr0 2.356046 1_555
O3 Sr1 2.587722 1_565
O4 Sr1 2.468490 1_566
O4 Pr1 2.470331 1_555
O4 Pr0 2.488522 1_555
O4 Sr0 3.002843 1_656
O5 Pr1 2.407391 1_455
O5 Pr0 2.470042 1_545
O6 Pr1 2.460788 1_554
O6 Sr0 2.738868 1_655
O6 Sr1 2.962723 1_555
O7 Pr0 2.522456 1_555
O7 Pr1 2.673752 1_555
O7 Sr0 2.939348 1_555
O8 Sr1 2.424102 1_555
O8 Sr0 2.463432 1_545
O9 Pr0 2.386135 1_545
O9 Pr1 2.426283 1_555
