# generated using pymatgen
data_Rb2NaNb6(PO8)3
_symmetry_space_group_name_H-M   'P 1'
_cell_length_a   8.57708915
_cell_length_b   8.57708915
_cell_length_c   8.57702942
_cell_angle_alpha   75.52917762
_cell_angle_beta   75.52917762
_cell_angle_gamma   104.44916863
_symmetry_Int_Tables_number   1
_chemical_formula_structural   Rb2NaNb6(PO8)3
_chemical_formula_sum   'Rb2 Na1 Nb6 P3 O24'
_cell_volume   557.87144481
_cell_formula_units_Z   1
loop_
 _symmetry_equiv_pos_site_id
 _symmetry_equiv_pos_as_xyz
  1  'x, y, z'
loop_
 _atom_site_type_symbol
 _atom_site_label
 _atom_site_symmetry_multiplicity
 _atom_site_fract_x
 _atom_site_fract_y
 _atom_site_fract_z
 _atom_site_occupancy
  Rb  Rb0  1  0.89477900  0.58831400  0.79963000  1
  Rb  Rb1  1  0.41168600  0.10522100  0.20037000  1
  Na  Na0  1  0.99950400  0.00049600  0.00000000  1
  Nb  Nb0  1  0.65639400  0.85342200  0.46348000  1
  Nb  Nb1  1  0.34486300  0.46473000  0.85130600  1
  Nb  Nb2  1  0.53527000  0.65513700  0.14869400  1
  Nb  Nb3  1  0.14657800  0.34360600  0.53652000  1
  Nb  Nb4  1  0.85319100  0.53615400  0.34465800  1
  Nb  Nb5  1  0.46384600  0.14680900  0.65534200  1
  P  P0  1  0.22854300  0.77145700  0.00000000  1
  P  P1  1  0.99935100  0.22857100  0.22866300  1
  P  P2  1  0.77142900  0.00064900  0.77133700  1
  O  O0  1  0.26127300  0.94366200  0.86117900  1
  O  O1  1  0.52531000  0.00048400  0.52386900  1
  O  O2  1  0.73934800  0.86023400  0.94271500  1
  O  O3  1  0.78879300  0.91969400  0.62878000  1
  O  O4  1  0.21021700  0.62810600  0.92051200  1
  O  O5  1  0.05633800  0.73872700  0.13882100  1
  O  O6  1  0.57074800  0.81444900  0.28961800  1
  O  O7  1  0.37189400  0.78978300  0.07948800  1
  O  O8  1  0.50047300  0.65258700  0.65287900  1
  O  O9  1  0.81297600  0.70919200  0.43004100  1
  O  O10  1  0.18555100  0.42925200  0.71038200  1
  O  O11  1  0.34741300  0.49952700  0.34712100  1
  O  O12  1  0.71034300  0.57095600  0.18526100  1
  O  O13  1  0.47573600  0.52426400  0.00000000  1
  O  O14  1  0.42904400  0.28965700  0.81473900  1
  O  O15  1  0.99951600  0.47469000  0.47613100  1
  O  O16  1  0.65263700  0.34736300  0.50000000  1
  O  O17  1  0.08030600  0.21120700  0.37122000  1
  O  O18  1  0.29080800  0.18702400  0.56995900  1
  O  O19  1  0.13976600  0.26065200  0.05728500  1
  O  O20  1  0.92048600  0.37223800  0.21042400  1
  O  O21  1  0.62776200  0.07951400  0.78957600  1
  O  O22  1  0.94354900  0.13962200  0.73843500  1
  O  O23  1  0.86037800  0.05645100  0.26156500  1
loop_
_geom_bond_atom_site_label_1
_geom_bond_atom_site_label_2
_geom_bond_distance
_geom_bond_site_symmetry_2
Na0 O19 2.484245 1_655
Na0 O2 2.484245 1_544
Na0 O23 2.484617 1_555
Na0 O22 2.484617 1_554
Na0 O0 2.489284 1_644
Na0 O5 2.489284 1_645
Nb0 O6 1.883921 1_555
Nb0 O8 1.939280 1_555
Nb0 O1 1.966372 1_565
Nb0 O9 2.056753 1_555
Nb0 O3 2.123224 1_555
Nb0 O23 2.133257 1_565
Nb1 O14 1.880906 1_555
Nb1 O8 1.922269 1_555
Nb1 O13 1.975397 1_556
Nb1 O10 2.054865 1_555
Nb1 O4 2.128471 1_555
Nb1 O19 2.155056 1_556
Nb2 O12 1.880906 1_555
Nb2 O11 1.922269 1_555
Nb2 O13 1.975397 1_555
Nb2 O6 2.054865 1_555
Nb2 O7 2.128471 1_555
Nb2 O2 2.155056 1_554
Nb3 O10 1.883921 1_555
Nb3 O11 1.939280 1_555
Nb3 O15 1.966372 1_455
Nb3 O18 2.056753 1_555
Nb3 O17 2.123224 1_555
Nb3 O22 2.133257 1_455
Nb4 O9 1.878951 1_555
Nb4 O16 1.934560 1_555
Nb4 O15 1.965967 1_555
Nb4 O12 2.067628 1_555
Nb4 O20 2.125359 1_555
Nb4 O5 2.142543 1_655
Nb5 O18 1.878951 1_555
Nb5 O16 1.934560 1_555
Nb5 O1 1.965967 1_555
Nb5 O14 2.067628 1_555
Nb5 O21 2.125359 1_555
Nb5 O0 2.142543 1_545
O0 P0 1.557302 1_556
O1 Rb1 3.161982 1_555
O2 P2 1.560308 1_565
O2 Rb0 3.299609 1_555
O3 P2 1.544103 1_565
O3 Rb0 3.305428 1_555
O4 P0 1.541858 1_556
O4 Rb0 3.103122 1_455
O5 P0 1.557302 1_555
O6 Rb1 3.151663 1_565
O7 P0 1.541858 1_555
O7 Rb1 3.103122 1_565
O9 Rb0 3.383490 1_555
O10 Rb0 3.151663 1_455
O12 Rb0 3.238216 1_554
O13 Rb0 3.410150 1_554
O13 Rb1 3.410150 1_555
O14 Rb1 3.238216 1_556
O15 Rb0 3.161982 1_555
O17 P1 1.544103 1_455
O17 Rb1 3.305428 1_555
O18 Rb1 3.383490 1_555
O19 P1 1.560308 1_455
O19 Rb1 3.299609 1_555
O20 P1 1.540445 1_555
O21 P2 1.540445 1_555
O22 P2 1.557368 1_555
O23 P1 1.557368 1_555
