# generated using pymatgen
data_Yb7Mg3Ge8
_symmetry_space_group_name_H-M   'P 1'
_cell_length_a   7.66619400
_cell_length_b   14.91107500
_cell_length_c   16.06260064
_cell_angle_alpha   72.54090562
_cell_angle_beta   90.00000000
_cell_angle_gamma   90.00000000
_symmetry_Int_Tables_number   1
_chemical_formula_structural   Yb7Mg3Ge8
_chemical_formula_sum   'Yb28 Mg12 Ge32'
_cell_volume   1751.54686848
_cell_formula_units_Z   4
loop_
 _symmetry_equiv_pos_site_id
 _symmetry_equiv_pos_as_xyz
  1  'x, y, z'
loop_
 _atom_site_type_symbol
 _atom_site_label
 _atom_site_symmetry_multiplicity
 _atom_site_fract_x
 _atom_site_fract_y
 _atom_site_fract_z
 _atom_site_occupancy
  Yb  Yb0  1  0.01190800  0.38557700  0.51283800  1
  Yb  Yb1  1  0.99934900  0.25628700  0.36475100  1
  Yb  Yb2  1  0.97141100  0.87437500  0.01072800  1
  Yb  Yb3  1  0.07253600  0.71674500  0.88679800  1
  Yb  Yb4  1  0.78590400  0.08603600  0.78694700  1
  Yb  Yb5  1  0.78668100  0.49081500  0.15820400  1
  Yb  Yb6  1  0.80941900  0.96348400  0.64503000  1
  Yb  Yb7  1  0.71409600  0.58603600  0.78694700  1
  Yb  Yb8  1  0.69058100  0.46348400  0.64503000  1
  Yb  Yb9  1  0.71331900  0.99081500  0.15820400  1
  Yb  Yb10  1  0.42746400  0.21674500  0.88679800  1
  Yb  Yb11  1  0.52858900  0.37437500  0.01072800  1
  Yb  Yb12  1  0.48809200  0.88557700  0.51283800  1
  Yb  Yb13  1  0.50065100  0.75628700  0.36475100  1
  Yb  Yb14  1  0.51190800  0.11442300  0.48716200  1
  Yb  Yb15  1  0.49934900  0.24371300  0.63524900  1
  Yb  Yb16  1  0.47141100  0.62562500  0.98927200  1
  Yb  Yb17  1  0.57253600  0.78325500  0.11320200  1
  Yb  Yb18  1  0.28668100  0.00918500  0.84179600  1
  Yb  Yb19  1  0.28590400  0.41396400  0.21305300  1
  Yb  Yb20  1  0.30941900  0.53651600  0.35497000  1
  Yb  Yb21  1  0.19058100  0.03651600  0.35497000  1
  Yb  Yb22  1  0.21331900  0.50918500  0.84179600  1
  Yb  Yb23  1  0.21409600  0.91396400  0.21305300  1
  Yb  Yb24  1  0.92746400  0.28325500  0.11320200  1
  Yb  Yb25  1  0.02858900  0.12562500  0.98927200  1
  Yb  Yb26  1  0.00065100  0.74371300  0.63524900  1
  Yb  Yb27  1  0.98809200  0.61442300  0.48716200  1
  Mg  Mg0  1  0.85822100  0.34184700  0.86930600  1
  Mg  Mg1  1  0.85328300  0.86050900  0.39905000  1
  Mg  Mg2  1  0.75801900  0.62067400  0.28467000  1
  Mg  Mg3  1  0.74198100  0.12067400  0.28467000  1
  Mg  Mg4  1  0.64671700  0.36050900  0.39905000  1
  Mg  Mg5  1  0.64177900  0.84184700  0.86930600  1
  Mg  Mg6  1  0.35822100  0.15815300  0.13069400  1
  Mg  Mg7  1  0.35328300  0.63949100  0.60095000  1
  Mg  Mg8  1  0.25801900  0.87932600  0.71533000  1
  Mg  Mg9  1  0.24198100  0.37932600  0.71533000  1
  Mg  Mg10  1  0.14671700  0.13949100  0.60095000  1
  Mg  Mg11  1  0.14177900  0.65815300  0.13069400  1
  Ge  Ge0  1  0.03198000  0.09030000  0.18463500  1
  Ge  Ge1  1  0.03810000  0.53184100  0.67789900  1
  Ge  Ge2  1  0.84962000  0.52584900  0.96658200  1
  Ge  Ge3  1  0.87691900  0.27821500  0.68388900  1
  Ge  Ge4  1  0.85996500  0.04365200  0.46045700  1
  Ge  Ge5  1  0.86507700  0.80502600  0.23246700  1
  Ge  Ge6  1  0.82124300  0.19902200  0.54464400  1
  Ge  Ge7  1  0.82318400  0.67939200  0.02877800  1
  Ge  Ge8  1  0.67681600  0.17939200  0.02877800  1
  Ge  Ge9  1  0.67875700  0.69902200  0.54464400  1
  Ge  Ge10  1  0.63492300  0.30502600  0.23246700  1
  Ge  Ge11  1  0.62308100  0.77821500  0.68388900  1
  Ge  Ge12  1  0.64003500  0.54365200  0.46045700  1
  Ge  Ge13  1  0.65038000  0.02584900  0.96658200  1
  Ge  Ge14  1  0.46190000  0.03184100  0.67789900  1
  Ge  Ge15  1  0.46802000  0.59030000  0.18463500  1
  Ge  Ge16  1  0.53198000  0.40970000  0.81536500  1
  Ge  Ge17  1  0.53810000  0.96815900  0.32210100  1
  Ge  Ge18  1  0.34962000  0.97415100  0.03341800  1
  Ge  Ge19  1  0.35996500  0.45634800  0.53954300  1
  Ge  Ge20  1  0.37691900  0.22178500  0.31611100  1
  Ge  Ge21  1  0.36507700  0.69497400  0.76753300  1
  Ge  Ge22  1  0.32124300  0.30097800  0.45535600  1
  Ge  Ge23  1  0.32318400  0.82060800  0.97122200  1
  Ge  Ge24  1  0.17681600  0.32060800  0.97122200  1
  Ge  Ge25  1  0.17875700  0.80097800  0.45535600  1
  Ge  Ge26  1  0.14003500  0.95634800  0.53954300  1
  Ge  Ge27  1  0.13492300  0.19497400  0.76753300  1
  Ge  Ge28  1  0.15038000  0.47415100  0.03341800  1
  Ge  Ge29  1  0.12308100  0.72178500  0.31611100  1
  Ge  Ge30  1  0.96190000  0.46815900  0.32210100  1
  Ge  Ge31  1  0.96802000  0.90970000  0.81536500  1
loop_
_geom_bond_atom_site_label_1
_geom_bond_atom_site_label_2
_geom_bond_distance
_geom_bond_site_symmetry_2
Mg1 Yb13 3.246608 1_555
Mg2 Yb13 3.346232 1_555
Mg3 Yb1 3.346232 1_555
Mg4 Yb1 3.246608 1_555
Mg7 Yb26 3.246608 1_555
Mg8 Yb26 3.346232 1_555
Mg9 Yb15 3.346232 1_555
Mg10 Yb15 3.246608 1_555
Ge0 Mg6 2.739249 1_555
Ge0 Mg3 2.857666 1_455
Ge0 Yb24 2.873270 1_455
Ge0 Yb21 2.879353 1_555
Ge0 Yb23 2.889793 1_545
Ge0 Yb9 2.954074 1_445
Ge0 Yb25 3.022181 1_554
Ge1 Mg9 2.675031 1_555
Ge1 Yb22 2.883655 1_555
Ge1 Yb8 2.956055 1_455
Ge1 Mg7 2.958391 1_555
Ge1 Yb27 2.964114 1_455
Ge1 Yb26 3.038725 1_555
Ge1 Yb7 3.277212 1_455
Ge2 Ge28 2.562493 1_656
Ge2 Ge7 2.766474 1_556
Ge2 Yb7 2.942205 1_555
Ge2 Yb5 3.002440 1_556
Ge2 Yb3 3.236697 1_655
Ge2 Yb11 3.271113 1_556
Ge2 Yb16 3.328409 1_555
Ge2 Yb22 3.485994 1_655
Ge3 Ge6 2.857263 1_555
Ge3 Yb0 2.922898 1_655
Ge3 Yb4 2.931268 1_555
Ge3 Yb8 3.004542 1_555
Ge3 Yb15 3.081321 1_555
Ge3 Mg9 3.288978 1_655
Ge3 Mg0 3.389190 1_555
Ge4 Mg3 2.857260 1_555
Ge4 Yb6 2.870908 1_545
Ge4 Yb14 2.947693 1_555
Ge4 Ge6 3.027184 1_555
Ge4 Yb21 3.068307 1_655
Ge4 Mg1 3.170080 1_545
Ge4 Yb1 3.260846 1_555
Ge4 Yb12 3.633322 1_545
Ge5 Mg2 2.747722 1_555
Ge5 Yb9 2.910007 1_555
Ge5 Yb17 3.029534 1_555
Ge5 Mg1 3.029952 1_555
Ge5 Yb23 3.096934 1_655
Ge5 Yb13 3.452758 1_555
Ge5 Yb2 3.494216 1_555
Ge6 Mg10 2.711081 1_655
Ge6 Yb14 2.960798 1_555
Ge6 Yb15 3.038688 1_555
Ge6 Yb0 3.046767 1_655
Ge6 Yb1 3.076100 1_555
Ge6 Mg4 3.111014 1_555
Ge7 Yb3 2.898820 1_654
Ge7 Mg11 2.904215 1_655
Ge7 Yb16 2.936533 1_554
Ge7 Yb5 2.966347 1_555
Ge7 Yb17 3.031476 1_555
Ge7 Yb2 3.053281 1_555
Ge7 Mg5 3.261913 1_554
Ge8 Yb10 2.898820 1_554
Ge8 Mg6 2.904215 1_555
Ge8 Yb25 2.936533 1_654
Ge8 Yb9 2.966347 1_545
Ge8 Yb24 3.031476 1_555
Ge8 Yb11 3.053281 1_555
Ge8 Mg0 3.261913 1_554
Ge9 Mg7 2.711081 1_555
Ge9 Yb27 2.960798 1_555
Ge9 Yb26 3.038688 1_655
Ge9 Yb12 3.046767 1_555
Ge9 Yb13 3.076100 1_555
Ge9 Mg1 3.111014 1_555
Ge10 Ge20 2.501435 1_555
Ge10 Mg3 2.747722 1_555
Ge10 Yb5 2.910007 1_555
Ge10 Yb24 3.029534 1_555
Ge10 Mg4 3.029952 1_555
Ge10 Yb19 3.096934 1_555
Ge10 Yb1 3.452758 1_555
Ge10 Yb11 3.494216 1_555
Ge11 Ge21 2.501435 1_555
Ge11 Ge9 2.857263 1_555
Ge11 Yb12 2.922898 1_555
Ge11 Yb7 2.931268 1_555
Ge11 Yb6 3.004542 1_555
Ge11 Yb26 3.081321 1_655
Ge11 Mg8 3.288978 1_555
Ge11 Mg5 3.389190 1_555
Ge12 Ge19 2.631732 1_555
Ge12 Mg2 2.857260 1_555
Ge12 Yb8 2.870908 1_555
Ge12 Yb27 2.947693 1_555
Ge12 Ge9 3.027184 1_555
Ge12 Yb20 3.068307 1_555
Ge12 Mg4 3.170080 1_555
Ge12 Yb13 3.260846 1_555
Ge12 Yb0 3.633322 1_655
Ge13 Ge18 2.562493 1_546
Ge13 Ge8 2.766474 1_556
Ge13 Yb4 2.942205 1_555
Ge13 Yb9 3.002440 1_546
Ge13 Yb10 3.236697 1_555
Ge13 Yb2 3.271113 1_546
Ge13 Yb25 3.328409 1_655
Ge13 Yb18 3.485994 1_555
Ge14 Mg8 2.675031 1_545
Ge14 Yb18 2.883655 1_555
Ge14 Yb6 2.956055 1_545
Ge14 Mg10 2.958391 1_555
Ge14 Yb14 2.964114 1_555
Ge14 Yb15 3.038725 1_555
Ge14 Yb4 3.277212 1_555
Ge15 Mg11 2.739249 1_555
Ge15 Mg2 2.857666 1_555
Ge15 Yb17 2.873270 1_555
Ge15 Yb20 2.879353 1_555
Ge15 Yb19 2.889793 1_555
Ge15 Yb5 2.954074 1_555
Ge15 Yb16 3.022181 1_554
Ge16 Mg0 2.739249 1_555
Ge16 Mg9 2.857666 1_555
Ge16 Yb10 2.873270 1_555
Ge16 Yb8 2.879353 1_555
Ge16 Yb7 2.889793 1_555
Ge16 Yb22 2.954074 1_555
Ge16 Yb11 3.022181 1_556
Ge17 Mg3 2.675031 1_565
Ge17 Yb9 2.883655 1_555
Ge17 Yb21 2.956055 1_565
Ge17 Mg1 2.958391 1_555
Ge17 Yb12 2.964114 1_555
Ge17 Yb13 3.038725 1_555
Ge17 Yb23 3.277212 1_555
Ge18 Ge23 2.766474 1_554
Ge18 Yb23 2.942205 1_555
Ge18 Yb18 3.002440 1_564
Ge18 Yb17 3.236697 1_555
Ge18 Yb25 3.271113 1_564
Ge18 Yb2 3.328409 1_455
Ge18 Yb9 3.485994 1_555
Ge19 Mg9 2.857260 1_555
Ge19 Yb20 2.870908 1_555
Ge19 Yb0 2.947693 1_555
Ge19 Ge22 3.027184 1_555
Ge19 Yb8 3.068307 1_555
Ge19 Mg7 3.170080 1_555
Ge19 Yb15 3.260846 1_555
Ge19 Yb27 3.633322 1_455
Ge20 Ge22 2.857263 1_555
Ge20 Yb14 2.922898 1_555
Ge20 Yb19 2.931268 1_555
Ge20 Yb21 3.004542 1_555
Ge20 Yb1 3.081321 1_455
Ge20 Mg3 3.288978 1_555
Ge20 Mg6 3.389190 1_555
Ge21 Mg8 2.747722 1_555
Ge21 Yb22 2.910007 1_555
Ge21 Yb3 3.029534 1_555
Ge21 Mg7 3.029952 1_555
Ge21 Yb7 3.096934 1_555
Ge21 Yb26 3.452758 1_555
Ge21 Yb16 3.494216 1_555
Ge22 Mg4 2.711081 1_555
Ge22 Yb0 2.960798 1_555
Ge22 Yb1 3.038688 1_455
Ge22 Yb14 3.046767 1_555
Ge22 Yb15 3.076100 1_555
Ge22 Mg10 3.111014 1_555
Ge23 Yb17 2.898820 1_556
Ge23 Mg5 2.904215 1_555
Ge23 Yb2 2.936533 1_456
Ge23 Yb18 2.966347 1_565
Ge23 Yb3 3.031476 1_555
Ge23 Yb16 3.053281 1_555
Ge23 Mg11 3.261913 1_556
Ge24 Ge28 2.766474 1_556
Ge24 Yb24 2.898820 1_456
Ge24 Mg0 2.904215 1_455
Ge24 Yb11 2.936533 1_556
Ge24 Yb22 2.966347 1_555
Ge24 Yb10 3.031476 1_555
Ge24 Yb25 3.053281 1_555
Ge24 Mg6 3.261913 1_556
Ge25 Mg1 2.711081 1_455
Ge25 Ge29 2.857263 1_555
Ge25 Yb12 2.960798 1_555
Ge25 Ge26 3.027184 1_555
Ge25 Yb13 3.038688 1_555
Ge25 Yb27 3.046767 1_455
Ge25 Yb26 3.076100 1_555
Ge25 Mg7 3.111014 1_555
Ge26 Ge4 2.631732 1_465
Ge26 Mg8 2.857260 1_555
Ge26 Yb21 2.870908 1_565
Ge26 Yb12 2.947693 1_555
Ge26 Yb6 3.068307 1_455
Ge26 Mg10 3.170080 1_565
Ge26 Yb26 3.260846 1_555
Ge26 Yb14 3.633322 1_565
Ge27 Ge3 2.501435 1_455
Ge27 Mg9 2.747722 1_555
Ge27 Yb18 2.910007 1_555
Ge27 Yb10 3.029534 1_555
Ge27 Mg10 3.029952 1_555
Ge27 Yb4 3.096934 1_455
Ge27 Yb15 3.452758 1_555
Ge27 Yb25 3.494216 1_555
Ge28 Yb19 2.942205 1_555
Ge28 Yb22 3.002440 1_554
Ge28 Yb24 3.236697 1_455
Ge28 Yb16 3.271113 1_554
Ge28 Yb11 3.328409 1_555
Ge28 Yb5 3.485994 1_455
Ge29 Ge5 2.501435 1_455
Ge29 Yb27 2.922898 1_455
Ge29 Yb23 2.931268 1_555
Ge29 Yb20 3.004542 1_555
Ge29 Yb13 3.081321 1_555
Ge29 Mg2 3.288978 1_455
Ge29 Mg11 3.389190 1_555
Ge30 Mg2 2.675031 1_555
Ge30 Yb5 2.883655 1_555
Ge30 Yb20 2.956055 1_655
Ge30 Mg4 2.958391 1_555
Ge30 Yb0 2.964114 1_655
Ge30 Yb1 3.038725 1_555
Ge30 Yb19 3.277212 1_655
Ge31 Mg5 2.739249 1_555
Ge31 Mg8 2.857666 1_655
Ge31 Yb3 2.873270 1_655
Ge31 Yb6 2.879353 1_555
Ge31 Yb4 2.889793 1_565
Ge31 Yb18 2.954074 1_665
Ge31 Yb2 3.022181 1_556
