# generated using pymatgen
data_Fe2Os(CO)12
_symmetry_space_group_name_H-M   'P 1'
_cell_length_a   22.36156600
_cell_length_b   8.25202600
_cell_length_c   11.46889022
_cell_angle_alpha   50.47409963
_cell_angle_beta   90.00000000
_cell_angle_gamma   90.00000000
_symmetry_Int_Tables_number   1
_chemical_formula_structural   Fe2Os(CO)12
_chemical_formula_sum   'Fe8 Os4 C48 O48'
_cell_volume   1632.40660599
_cell_formula_units_Z   4
loop_
 _symmetry_equiv_pos_site_id
 _symmetry_equiv_pos_as_xyz
  1  'x, y, z'
loop_
 _atom_site_type_symbol
 _atom_site_label
 _atom_site_symmetry_multiplicity
 _atom_site_fract_x
 _atom_site_fract_y
 _atom_site_fract_z
 _atom_site_occupancy
  Fe  Fe0  1  0.13516000  0.98033600  0.74979500  1
  Fe  Fe1  1  0.64160300  0.07174800  0.55826900  1
  Fe  Fe2  1  0.90267600  0.65415600  0.28630500  1
  Fe  Fe3  1  0.86484000  0.98033600  0.24979500  1
  Fe  Fe4  1  0.62549500  0.71556300  0.61811700  1
  Fe  Fe5  1  0.09732400  0.65415600  0.78630500  1
  Fe  Fe6  1  0.37450500  0.71556300  0.11811700  1
  Fe  Fe7  1  0.35839700  0.07174800  0.05826900  1
  Os  Os0  1  0.61195100  0.72779900  0.85461600  1
  Os  Os1  1  0.86534700  0.00008400  0.99843300  1
  Os  Os2  1  0.38804900  0.72779900  0.35461600  1
  Os  Os3  1  0.13465300  0.00008400  0.49843300  1
  C  C0  1  0.90287500  0.22833600  0.12266400  1
  C  C1  1  0.33379700  0.47877200  0.25610600  1
  C  C2  1  0.58605300  0.21585500  0.57035100  1
  C  C3  1  0.59423100  0.44077500  0.01790900  1
  C  C4  1  0.66620300  0.47877200  0.75610600  1
  C  C5  1  0.87000700  0.90391100  0.88473800  1
  C  C6  1  0.41394700  0.21585500  0.07035100  1
  C  C7  1  0.47178300  0.80122100  0.29344000  1
  C  C8  1  0.30221300  0.67233200  0.39224800  1
  C  C9  1  0.85167400  0.51742000  0.25483900  1
  C  C10  1  0.40576900  0.44077500  0.51790900  1
  C  C11  1  0.69778700  0.67233200  0.89224800  1
  C  C12  1  0.82636200  0.71060300  0.35815700  1
  C  C13  1  0.05044100  0.08246800  0.46396600  1
  C  C14  1  0.39269600  0.83692400  0.45973100  1
  C  C15  1  0.15829100  0.28266400  0.34008800  1
  C  C16  1  0.52821700  0.80122100  0.79344000  1
  C  C17  1  0.63862900  0.72243400  0.46117100  1
  C  C18  1  0.94955900  0.08246800  0.96396600  1
  C  C19  1  0.17363800  0.71060300  0.85815700  1
  C  C20  1  0.09712500  0.22833600  0.62266400  1
  C  C21  1  0.70134400  0.11379100  0.64157800  1
  C  C22  1  0.55308900  0.59285600  0.67087600  1
  C  C23  1  0.92028500  0.44079600  0.47789100  1
  C  C24  1  0.79081100  0.08760600  0.20351400  1
  C  C25  1  0.78262900  0.90446400  0.05485400  1
  C  C26  1  0.96728700  0.63016800  0.20542700  1
  C  C27  1  0.07971500  0.44079600  0.97789100  1
  C  C28  1  0.66198500  0.28259900  0.36838300  1
  C  C29  1  0.20918900  0.08760600  0.70351400  1
  C  C30  1  0.69944000  0.87285100  0.57113400  1
  C  C31  1  0.21737100  0.90446400  0.55485400  1
  C  C32  1  0.14832600  0.51742000  0.75483900  1
  C  C33  1  0.57618900  0.98240200  0.49537100  1
  C  C34  1  0.33801500  0.28259900  0.86838300  1
  C  C35  1  0.87391200  0.95620800  0.41531000  1
  C  C36  1  0.42381100  0.98240200  0.99537100  1
  C  C37  1  0.84170900  0.28266400  0.84008800  1
  C  C38  1  0.12608800  0.95620800  0.91531000  1
  C  C39  1  0.03271300  0.63016800  0.70542700  1
  C  C40  1  0.94869800  0.84906400  0.28989800  1
  C  C41  1  0.36137100  0.72243400  0.96117100  1
  C  C42  1  0.60730400  0.83692400  0.95973100  1
  C  C43  1  0.12999300  0.90391100  0.38473800  1
  C  C44  1  0.05130200  0.84906400  0.78989800  1
  C  C45  1  0.44691100  0.59285600  0.17087600  1
  C  C46  1  0.30056000  0.87285100  0.07113400  1
  C  C47  1  0.29865600  0.11379100  0.14157800  1
  O  O0  1  0.50594100  0.51707000  0.69986000  1
  O  O1  1  0.49405900  0.51707000  0.19986000  1
  O  O2  1  0.06859100  0.30133300  0.10281500  1
  O  O3  1  0.78395300  0.60975400  0.42981800  1
  O  O4  1  0.26684600  0.85042000  0.58253700  1
  O  O5  1  0.12994100  0.84410300  0.31669600  1
  O  O6  1  0.87005900  0.84410300  0.81669600  1
  O  O7  1  0.92628800  0.39153600  0.04617900  1
  O  O8  1  0.30879600  0.32075600  0.34272800  1
  O  O9  1  0.74819200  0.63400000  0.91985700  1
  O  O10  1  0.25749000  0.15328500  0.67936700  1
  O  O11  1  0.32465300  0.42596700  0.74626800  1
  O  O12  1  0.64821600  0.72031400  0.36306600  1
  O  O13  1  0.24872100  0.86808700  0.05372400  1
  O  O14  1  0.69120400  0.32075600  0.84272800  1
  O  O15  1  0.25180800  0.63400000  0.41985700  1
  O  O16  1  0.44899400  0.32148500  0.06847400  1
  O  O17  1  0.17088600  0.45716200  0.24315700  1
  O  O18  1  0.81990400  0.41825700  0.24168700  1
  O  O19  1  0.07371200  0.39153600  0.54617900  1
  O  O20  1  0.35178400  0.72031400  0.86306600  1
  O  O21  1  0.01041700  0.60738300  0.16103200  1
  O  O22  1  0.67534700  0.42596700  0.24626800  1
  O  O23  1  0.41515900  0.26432000  0.61684000  1
  O  O24  1  0.18009600  0.41825700  0.74168700  1
  O  O25  1  0.74043000  0.14985500  0.68875100  1
  O  O26  1  0.00300500  0.88776100  0.80798900  1
  O  O27  1  0.11908600  0.94661400  0.01929800  1
  O  O28  1  0.00110700  0.13866900  0.43675700  1
  O  O29  1  0.93140900  0.30133300  0.60281500  1
  O  O30  1  0.25957000  0.14985500  0.18875100  1
  O  O31  1  0.58484100  0.26432000  0.11684000  1
  O  O32  1  0.73315400  0.85042000  0.08253700  1
  O  O33  1  0.47811100  0.84134800  0.76230400  1
  O  O34  1  0.74251000  0.15328500  0.17936700  1
  O  O35  1  0.99699500  0.88776100  0.30798900  1
  O  O36  1  0.52188900  0.84134800  0.26230400  1
  O  O37  1  0.75127900  0.86808700  0.55372400  1
  O  O38  1  0.55100600  0.32148500  0.56847400  1
  O  O39  1  0.60352100  0.90307400  0.02342600  1
  O  O40  1  0.82911400  0.45716200  0.74315700  1
  O  O41  1  0.46870800  0.04373300  0.92469400  1
  O  O42  1  0.99889300  0.13866900  0.93675700  1
  O  O43  1  0.21604700  0.60975400  0.92981800  1
  O  O44  1  0.53129200  0.04373300  0.42469400  1
  O  O45  1  0.98958300  0.60738300  0.66103200  1
  O  O46  1  0.88091400  0.94661400  0.51929800  1
  O  O47  1  0.39647900  0.90307400  0.52342600  1
loop_
_geom_bond_atom_site_label_1
_geom_bond_atom_site_label_2
_geom_bond_distance
_geom_bond_site_symmetry_2
C0 O7 1.163435 1_555
C0 Fe3 1.799833 1_545
C1 O8 1.162290 1_555
C1 Fe6 1.793097 1_555
C2 O38 1.162139 1_555
C2 Fe1 1.784966 1_555
C3 O31 1.161375 1_555
C3 Os0 1.904787 1_554
C4 O14 1.162290 1_555
C4 Fe4 1.793097 1_555
C5 O6 1.158783 1_555
C5 Os1 1.912643 1_565
C6 O16 1.162139 1_555
C6 Fe7 1.784966 1_555
C7 O36 1.158473 1_555
C7 Os2 1.955567 1_555
C8 O15 1.158993 1_555
C8 Os2 1.956663 1_555
C9 O18 1.163691 1_555
C9 Fe2 1.795109 1_555
C10 O23 1.161375 1_555
C10 Os2 1.904787 1_555
C11 O9 1.158993 1_555
C11 Os0 1.956663 1_555
C12 O3 1.181857 1_555
C12 Fe3 1.928264 1_555
C12 Fe2 2.072868 1_555
C13 O28 1.159858 1_555
C13 Os3 1.955117 1_555
C14 O47 1.160322 1_555
C14 Os2 1.912295 1_555
C15 O17 1.162366 1_555
C15 Os3 1.903877 1_555
C16 O33 1.158473 1_555
C16 Os0 1.955567 1_555
C17 O12 1.156414 1_555
C17 Fe4 1.788730 1_555
C18 O42 1.159858 1_555
C18 Os1 1.955117 1_555
C19 O43 1.181857 1_555
C19 Fe0 1.928264 1_555
C19 Fe5 2.072868 1_555
C20 O19 1.163435 1_555
C20 Fe0 1.799833 1_545
C21 O25 1.161951 1_555
C21 Fe1 1.799957 1_555
C22 O0 1.161272 1_555
C22 Fe4 1.798081 1_555
C23 O29 1.157717 1_555
C23 Fe2 1.777291 1_555
C24 O34 1.160163 1_555
C24 Fe3 1.790982 1_545
C25 O32 1.159073 1_555
C25 Os1 1.952648 1_564
C26 O21 1.160442 1_655
C26 Fe2 1.794648 1_555
C27 O2 1.157717 1_556
C27 Fe5 1.777291 1_555
C28 O22 1.158184 1_555
C28 Fe1 1.776161 1_555
C29 O10 1.160163 1_555
C29 Fe0 1.790982 1_545
C30 O37 1.181166 1_555
C30 Fe4 1.954211 1_555
C30 Fe1 2.019924 1_565
C31 O4 1.159073 1_555
C31 Os3 1.952648 1_565
C32 O24 1.163691 1_555
C32 Fe5 1.795109 1_555
C33 O44 1.182779 1_565
C33 Fe1 1.969925 1_565
C33 Fe4 2.024951 1_555
C34 O11 1.158184 1_555
C34 Fe7 1.776161 1_556
C35 O46 1.154539 1_555
C35 Fe3 1.789736 1_555
C36 O41 1.182779 1_565
C36 Fe7 1.969925 1_566
C36 Fe6 2.024951 1_556
C37 O40 1.162366 1_555
C37 Os1 1.903877 1_555
C38 O27 1.154539 1_556
C38 Fe0 1.789736 1_555
C39 O45 1.160442 1_455
C39 Fe5 1.794648 1_555
C40 O35 1.181417 1_555
C40 Fe2 1.931854 1_555
C40 Fe3 2.065715 1_555
C41 O20 1.156414 1_555
C41 Fe6 1.788730 1_556
C42 O39 1.160322 1_556
C42 Os0 1.912295 1_555
C43 O5 1.158783 1_555
C43 Os3 1.912643 1_565
C44 O26 1.181417 1_555
C44 Fe5 1.931854 1_555
C44 Fe0 2.065715 1_555
C45 O1 1.161272 1_555
C45 Fe6 1.798081 1_555
C46 O13 1.181166 1_555
C46 Fe6 1.954211 1_555
C46 Fe7 2.019924 1_565
C47 O30 1.161951 1_555
C47 Fe7 1.799957 1_555
