# generated using pymatgen
data_Na2Si3(HO4)2
_symmetry_space_group_name_H-M   'P 1'
_cell_length_a   12.87120900
_cell_length_b   7.40063100
_cell_length_c   9.22499638
_cell_angle_alpha   61.01230574
_cell_angle_beta   90.00000000
_cell_angle_gamma   90.00000000
_symmetry_Int_Tables_number   1
_chemical_formula_structural   Na2Si3(HO4)2
_chemical_formula_sum   'Na8 Si12 H8 O32'
_cell_volume   768.64400902
_cell_formula_units_Z   4
loop_
 _symmetry_equiv_pos_site_id
 _symmetry_equiv_pos_as_xyz
  1  'x, y, z'
loop_
 _atom_site_type_symbol
 _atom_site_label
 _atom_site_symmetry_multiplicity
 _atom_site_fract_x
 _atom_site_fract_y
 _atom_site_fract_z
 _atom_site_occupancy
  Na  Na0  1  0.33232600  0.85613800  0.48691200  1
  Na  Na1  1  0.83232600  0.14386200  0.01308800  1
  Na  Na2  1  0.66767400  0.14386200  0.51308800  1
  Na  Na3  1  0.16767400  0.85613800  0.98691200  1
  Na  Na4  1  0.92067300  0.70270500  0.96337600  1
  Na  Na5  1  0.42067300  0.29729500  0.53662400  1
  Na  Na6  1  0.07932700  0.29729500  0.03662400  1
  Na  Na7  1  0.57932700  0.70270500  0.46337600  1
  Si  Si0  1  0.10111200  0.74376400  0.67604300  1
  Si  Si1  1  0.60111200  0.25623600  0.82395700  1
  Si  Si2  1  0.89888800  0.25623600  0.32395700  1
  Si  Si3  1  0.39888800  0.74376400  0.17604300  1
  Si  Si4  1  0.80687300  0.64463800  0.30908100  1
  Si  Si5  1  0.30687300  0.35536200  0.19091900  1
  Si  Si6  1  0.19312700  0.35536200  0.69091900  1
  Si  Si7  1  0.69312700  0.64463800  0.80908100  1
  Si  Si8  1  0.86785600  0.78236800  0.56201700  1
  Si  Si9  1  0.36785600  0.21763200  0.93798300  1
  Si  Si10  1  0.13214400  0.21763200  0.43798300  1
  Si  Si11  1  0.63214400  0.78236800  0.06201700  1
  H  H0  1  0.49391900  0.83693200  0.70335700  1
  H  H1  1  0.99391900  0.16306800  0.79664300  1
  H  H2  1  0.50608100  0.16306800  0.29664300  1
  H  H3  1  0.00608100  0.83693200  0.20335700  1
  H  H4  1  0.39616200  0.78712300  0.81933200  1
  H  H5  1  0.89616200  0.21287700  0.68066800  1
  H  H6  1  0.60383800  0.21287700  0.18066800  1
  H  H7  1  0.10383800  0.78712300  0.31933200  1
  O  O0  1  0.08608600  0.67964500  0.86552300  1
  O  O1  1  0.58608600  0.32035500  0.63447700  1
  O  O2  1  0.91391400  0.32035500  0.13447700  1
  O  O3  1  0.41391400  0.67964500  0.36552300  1
  O  O4  1  0.99192800  0.73969000  0.58176700  1
  O  O5  1  0.49192800  0.26031000  0.91823300  1
  O  O6  1  0.00807200  0.26031000  0.41823300  1
  O  O7  1  0.50807200  0.73969000  0.08176700  1
  O  O8  1  0.88779500  0.79145000  0.17233700  1
  O  O9  1  0.38779500  0.20855000  0.32766300  1
  O  O10  1  0.11220500  0.20855000  0.82766300  1
  O  O11  1  0.61220500  0.79145000  0.67233700  1
  O  O12  1  0.15604700  0.97323500  0.55976100  1
  O  O13  1  0.65604700  0.02676500  0.94023900  1
  O  O14  1  0.84395300  0.02676500  0.44023900  1
  O  O15  1  0.34395300  0.97323500  0.05976100  1
  O  O16  1  0.81060300  0.64987200  0.48617300  1
  O  O17  1  0.31060300  0.35012800  0.01382700  1
  O  O18  1  0.18939700  0.35012800  0.51382700  1
  O  O19  1  0.68939700  0.64987200  0.98617300  1
  O  O20  1  0.18453200  0.60311600  0.63502600  1
  O  O21  1  0.68453200  0.39688400  0.86497400  1
  O  O22  1  0.81546800  0.39688400  0.36497400  1
  O  O23  1  0.31546800  0.60311600  0.13502600  1
  O  O24  1  0.68404800  0.71066400  0.24502300  1
  O  O25  1  0.18404800  0.28933600  0.25497700  1
  O  O26  1  0.31595200  0.28933600  0.75497700  1
  O  O27  1  0.81595200  0.71066400  0.74502300  1
  O  O28  1  0.41790900  0.87398300  0.70483200  1
  O  O29  1  0.91790900  0.12601700  0.79516800  1
  O  O30  1  0.58209100  0.12601700  0.29516800  1
  O  O31  1  0.08209100  0.87398300  0.20483200  1
loop_
_geom_bond_atom_site_label_1
_geom_bond_atom_site_label_2
_geom_bond_distance
_geom_bond_site_symmetry_2
Na0 O3 2.341044 1_555
Na0 O28 2.351498 1_555
Na0 O9 2.399236 1_565
Na0 O20 2.551886 1_555
Na0 O12 2.629656 1_555
Na1 O2 2.341044 1_555
Na1 O29 2.351498 1_554
Na1 O8 2.399236 1_545
Na1 O21 2.551886 1_554
Na1 O13 2.629656 1_554
Na2 O1 2.341044 1_555
Na2 O30 2.351498 1_555
Na2 O11 2.399236 1_545
Na2 O22 2.551886 1_555
Na2 O14 2.629656 1_555
Na3 O0 2.341044 1_555
Na3 O31 2.351498 1_556
Na3 O10 2.399236 1_565
Na3 O23 2.551886 1_556
Na3 O15 2.629656 1_556
Na4 O0 2.350790 1_655
Na4 O8 2.356567 1_556
Na4 O27 2.400562 1_555
Na4 O2 2.485318 1_556
Na4 O29 2.740749 1_565
Na5 O1 2.350790 1_555
Na5 O9 2.356567 1_555
Na5 O26 2.400562 1_555
Na5 O3 2.485318 1_555
Na5 O28 2.740749 1_545
Na6 O2 2.350790 1_455
Na6 O10 2.356567 1_554
Na6 O25 2.400562 1_555
Na6 O0 2.485318 1_554
Na6 O31 2.740749 1_545
Na7 O3 2.350790 1_555
Na7 O11 2.356567 1_555
Na7 O24 2.400562 1_555
Na7 O1 2.485318 1_555
Na7 O30 2.740749 1_565
H0 O28 1.017909 1_555
H0 O11 1.614465 1_555
H1 O29 1.017909 1_555
H1 O10 1.614465 1_655
H2 O30 1.017909 1_555
H2 O9 1.614465 1_555
H3 O31 1.017909 1_555
H3 O8 1.614465 1_455
H4 O28 0.974245 1_555
H5 O29 0.974245 1_555
H6 O30 0.974245 1_555
H7 O31 0.974245 1_555
O0 Si0 1.585554 1_555
O1 Si1 1.585554 1_555
O2 Si2 1.585554 1_555
O3 Si3 1.585554 1_555
O4 Si8 1.620940 1_555
O4 Si0 1.660617 1_655
O5 Si9 1.620940 1_555
O5 Si1 1.660617 1_555
O6 Si10 1.620940 1_555
O6 Si2 1.660617 1_455
O7 Si11 1.620940 1_555
O7 Si3 1.660617 1_555
O8 Si4 1.590032 1_555
O9 Si5 1.590032 1_555
O10 Si6 1.590032 1_555
O11 Si7 1.590032 1_555
O12 Si10 1.630540 1_565
O12 Si0 1.664022 1_555
O13 Si11 1.630540 1_546
O13 Si1 1.664022 1_555
O14 Si8 1.630540 1_545
O14 Si2 1.664022 1_555
O15 Si9 1.630540 1_564
O15 Si3 1.664022 1_555
O16 Si8 1.630647 1_555
O16 Si4 1.653489 1_555
O17 Si9 1.630647 1_554
O17 Si5 1.653489 1_555
O18 Si10 1.630647 1_555
O18 Si6 1.653489 1_555
O19 Si11 1.630647 1_556
O19 Si7 1.653489 1_555
O20 Si6 1.650343 1_555
O20 Si0 1.661691 1_555
O21 Si7 1.650343 1_555
O21 Si1 1.661691 1_555
O22 Si4 1.650343 1_555
O22 Si2 1.661691 1_555
O23 Si5 1.650343 1_555
O23 Si3 1.661691 1_555
O24 Si11 1.646121 1_555
O24 Si4 1.675518 1_555
O25 Si10 1.646121 1_555
O25 Si5 1.675518 1_555
O26 Si9 1.646121 1_555
O26 Si6 1.675518 1_555
O27 Si8 1.646121 1_555
O27 Si7 1.675518 1_555
