# generated using pymatgen
data_Ba8Bi4O17
_symmetry_space_group_name_H-M   'P 1'
_cell_length_a   6.42356200
_cell_length_b   6.42507374
_cell_length_c   14.47282691
_cell_angle_alpha   102.54376192
_cell_angle_beta   102.70844893
_cell_angle_gamma   90.11408202
_symmetry_Int_Tables_number   1
_chemical_formula_structural   Ba8Bi4O17
_chemical_formula_sum   'Ba8 Bi4 O17'
_cell_volume   568.00143718
_cell_formula_units_Z   1
loop_
 _symmetry_equiv_pos_site_id
 _symmetry_equiv_pos_as_xyz
  1  'x, y, z'
loop_
 _atom_site_type_symbol
 _atom_site_label
 _atom_site_symmetry_multiplicity
 _atom_site_fract_x
 _atom_site_fract_y
 _atom_site_fract_z
 _atom_site_occupancy
  Ba  Ba0  1  0.75421900  0.27017900  0.50992900  1
  Ba  Ba1  1  0.84294200  0.84124100  0.67134200  1
  Ba  Ba2  1  0.44541100  0.94764400  0.88106400  1
  Ba  Ba3  1  0.94101200  0.43613400  0.88107300  1
  Ba  Ba4  1  0.09364300  0.60268600  0.19486800  1
  Ba  Ba5  1  0.58410200  0.09269400  0.19462400  1
  Ba  Ba6  1  0.17327500  0.18052100  0.35744100  1
  Ba  Ba7  1  0.27175400  0.75807200  0.51018100  1
  Bi  Bi0  1  0.00667600  0.00664600  0.01213200  1
  Bi  Bi1  1  0.66394200  0.66655100  0.33619000  1
  Bi  Bi2  1  0.33398300  0.33461500  0.66775700  1
  Bi  Bi3  1  0.50790500  0.51210900  0.01764400  1
  O  O0  1  0.41587600  0.43115700  0.31651200  1
  O  O1  1  0.08567100  0.09129700  0.61121500  1
  O  O2  1  0.43419400  0.90318000  0.32916400  1
  O  O3  1  0.92200800  0.94713500  0.85656000  1
  O  O4  1  0.72033400  0.71553800  0.48693000  1
  O  O5  1  0.75614000  0.75701800  0.99738500  1
  O  O6  1  0.24003100  0.75570900  0.99431000  1
  O  O7  1  0.09498000  0.53855000  0.61965800  1
  O  O8  1  0.40063000  0.40195000  0.81988300  1
  O  O9  1  0.57981200  0.61163700  0.17027900  1
  O  O10  1  0.88141300  0.42085300  0.31918900  1
  O  O11  1  0.24641800  0.24438100  0.00210700  1
  O  O12  1  0.76082600  0.24892100  0.00572600  1
  O  O13  1  0.09443700  0.06778300  0.16338800  1
  O  O14  1  0.53496800  0.08974900  0.62301600  1
  O  O15  1  0.90050700  0.88879800  0.32935800  1
  O  O16  1  0.53964700  0.53341000  0.62471500  1
loop_
_geom_bond_atom_site_label_1
_geom_bond_atom_site_label_2
_geom_bond_distance
_geom_bond_site_symmetry_2
Ba0 O16 2.704869 1_555
Ba0 O1 2.715006 1_655
Ba0 O7 2.748199 1_655
Ba0 O14 2.799648 1_555
Ba0 O4 2.954738 1_555
Ba0 O2 3.400778 1_545
Ba1 O3 2.552257 1_555
Ba1 O4 2.555825 1_555
Ba1 O14 2.615547 1_565
Ba1 O7 2.622286 1_655
Ba1 O1 2.638913 1_665
Ba1 O16 2.643728 1_555
Ba2 O5 2.783012 1_555
Ba2 O6 2.787537 1_555
Ba2 O11 2.807480 1_566
Ba2 O12 2.822458 1_566
Ba2 O3 3.158400 1_555
Ba2 O8 3.225060 1_565
Ba2 O3 3.302184 1_455
Ba2 O8 3.419809 1_555
Ba3 O6 2.780078 1_655
Ba3 O11 2.805365 1_656
Ba3 O5 2.806483 1_555
Ba3 O12 2.810164 1_556
Ba3 O3 3.083385 1_545
Ba3 O8 3.258460 1_655
Ba3 O3 3.377690 1_555
Ba3 O8 3.382535 1_555
Ba4 O0 2.801256 1_555
Ba4 O15 2.867827 1_455
Ba4 O10 2.906334 1_455
Ba4 O2 2.961953 1_555
Ba4 O13 3.119260 1_565
Ba4 O9 3.221776 1_555
Ba4 O9 3.242981 1_455
Ba4 O13 3.367504 1_555
Ba4 O12 3.454479 1_455
Ba4 O5 3.516482 1_454
Ba4 O11 3.531245 1_555
Ba4 O6 3.565535 1_554
Ba5 O2 2.837530 1_545
Ba5 O10 2.856746 1_555
Ba5 O0 2.861901 1_555
Ba5 O15 3.004327 1_545
Ba5 O9 3.033226 1_545
Ba5 O13 3.076431 1_555
Ba5 O13 3.405741 1_655
Ba6 O15 2.468003 1_445
Ba6 O10 2.476275 1_455
Ba6 O2 2.479671 1_545
Ba6 O0 2.486590 1_555
Ba6 O13 2.675425 1_555
Ba7 O14 2.706673 1_565
Ba7 O7 2.746843 1_555
Ba7 O1 2.751390 1_565
Ba7 O16 2.754411 1_555
Ba7 O4 2.980045 1_555
Ba7 O2 3.328867 1_555
Bi0 O13 2.084922 1_555
Bi0 O3 2.144291 1_444
Bi0 O5 2.213106 1_444
Bi0 O11 2.216077 1_555
Bi0 O6 2.216306 1_544
Bi0 O12 2.221203 1_455
Bi1 O4 2.084079 1_555
Bi1 O15 2.115840 1_555
Bi1 O10 2.120221 1_555
Bi1 O2 2.123648 1_555
Bi1 O0 2.123984 1_555
Bi1 O9 2.289673 1_555
Bi2 O8 2.094924 1_555
Bi2 O16 2.113233 1_555
Bi2 O7 2.119543 1_555
Bi2 O14 2.120067 1_555
Bi2 O1 2.125543 1_555
Bi3 O9 2.106775 1_555
Bi3 O11 2.342044 1_555
Bi3 O5 2.345373 1_554
Bi3 O6 2.347170 1_554
Bi3 O12 2.352930 1_555
Bi3 O8 2.723621 1_554
