# generated using pymatgen
data_Ba5(InSb3)2
_symmetry_space_group_name_H-M   'P 1'
_cell_length_a   4.84861304
_cell_length_b   13.54266498
_cell_length_c   15.51295787
_cell_angle_alpha   90.00000000
_cell_angle_beta   90.00000000
_cell_angle_gamma   90.00000000
_symmetry_Int_Tables_number   1
_chemical_formula_structural   Ba5(InSb3)2
_chemical_formula_sum   'Ba10 In4 Sb12'
_cell_volume   1018.62955574
_cell_formula_units_Z   2
loop_
 _symmetry_equiv_pos_site_id
 _symmetry_equiv_pos_as_xyz
  1  'x, y, z'
loop_
 _atom_site_type_symbol
 _atom_site_label
 _atom_site_symmetry_multiplicity
 _atom_site_fract_x
 _atom_site_fract_y
 _atom_site_fract_z
 _atom_site_occupancy
  Ba  Ba0  1  0.50000000  0.32790796  0.51763723  1
  Ba  Ba1  1  0.50000000  0.17209204  0.01763723  1
  Ba  Ba2  1  0.50000000  0.58714996  0.74768181  1
  Ba  Ba3  1  0.50000000  0.08714996  0.75231819  1
  Ba  Ba4  1  0.50000000  0.67209204  0.48236277  1
  Ba  Ba5  1  0.50000000  0.82790796  0.98236277  1
  Ba  Ba6  1  0.50000000  0.41285004  0.25231819  1
  Ba  Ba7  1  0.50000000  0.50000000  -0.00000000  1
  Ba  Ba8  1  0.50000000  0.00000000  0.50000000  1
  Ba  Ba9  1  0.50000000  0.91285004  0.24768181  1
  In  In0  1  -0.00000000  0.67402993  0.28899839  1
  In  In1  1  0.00000000  0.32597007  0.71100161  1
  In  In2  1  0.00000000  0.82597007  0.78899839  1
  In  In3  1  -0.00000000  0.17402993  0.21100161  1
  Sb  Sb0  1  -0.00000000  0.15760916  0.59731764  1
  Sb  Sb1  1  0.50000000  0.83715861  0.68412024  1
  Sb  Sb2  1  0.50000000  0.33715861  0.81587976  1
  Sb  Sb3  1  0.50000000  0.16284139  0.31587976  1
  Sb  Sb4  1  0.50000000  0.66284139  0.18412024  1
  Sb  Sb5  1  -0.00000000  0.84239084  0.40268236  1
  Sb  Sb6  1  0.00000000  0.48664877  0.40783844  1
  Sb  Sb7  1  -0.00000000  0.01335123  0.90783844  1
  Sb  Sb8  1  0.00000000  0.51335123  0.59216156  1
  Sb  Sb9  1  0.00000000  0.65760916  0.90268236  1
  Sb  Sb10  1  -0.00000000  0.98664877  0.09216156  1
  Sb  Sb11  1  0.00000000  0.34239084  0.09731764  1
loop_
_geom_bond_atom_site_label_1
_geom_bond_atom_site_label_2
_geom_bond_distance
_geom_bond_site_symmetry_2
Ba0 Sb0 3.567096 1_655
Ba0 Sb0 3.567096 1_555
Ba0 Sb6 3.660606 1_555
Ba0 Sb6 3.660606 1_655
Ba0 Sb8 3.677081 1_555
Ba0 Sb8 3.677081 1_655
Ba0 Sb3 3.846192 1_555
Ba0 In1 3.856925 1_555
Ba0 In1 3.856925 1_655
Ba1 Sb11 3.567096 1_555
Ba1 Sb11 3.567096 1_655
Ba1 Sb7 3.660606 1_654
Ba1 Sb7 3.660606 1_554
Ba1 Sb10 3.677081 1_645
Ba1 Sb10 3.677081 1_545
Ba1 Sb2 3.846192 1_554
Ba1 In3 3.856925 1_655
Ba1 In3 3.856925 1_555
Ba2 Sb1 3.526440 1_555
Ba2 Sb9 3.545345 1_655
Ba2 Sb9 3.545345 1_555
Ba2 Sb2 3.546999 1_555
Ba2 Sb8 3.563238 1_555
Ba2 Sb8 3.563238 1_655
Ba3 Sb2 3.526440 1_555
Ba3 Sb0 3.545345 1_655
Ba3 Sb0 3.545345 1_555
Ba3 Sb1 3.546999 1_545
Ba3 Sb7 3.563238 1_555
Ba3 Sb7 3.563238 1_655
Ba4 Sb5 3.567096 1_555
Ba4 Sb5 3.567096 1_655
Ba4 Sb8 3.660606 1_555
Ba4 Sb8 3.660606 1_655
Ba4 Sb6 3.677081 1_555
Ba4 Sb6 3.677081 1_655
Ba4 Sb1 3.846192 1_555
Ba4 In0 3.856925 1_555
Ba4 In0 3.856925 1_655
Ba5 Sb9 3.567096 1_555
Ba5 Sb9 3.567096 1_655
Ba5 Sb10 3.660606 1_556
Ba5 Sb10 3.660606 1_656
Ba5 Sb7 3.677081 1_565
Ba5 Sb7 3.677081 1_665
Ba5 Sb4 3.846192 1_556
Ba5 In2 3.856925 1_555
Ba5 In2 3.856925 1_655
Ba6 Sb3 3.526440 1_555
Ba6 Sb11 3.545345 1_555
Ba6 Sb11 3.545345 1_655
Ba6 Sb4 3.546999 1_555
Ba6 Sb6 3.563238 1_555
Ba6 Sb6 3.563238 1_655
Ba7 Sb11 3.565428 1_555
Ba7 Sb11 3.565428 1_655
Ba7 Sb9 3.565428 1_554
Ba7 Sb9 3.565428 1_654
Ba7 Sb2 3.608537 1_554
Ba7 Sb4 3.608537 1_555
Ba8 Sb5 3.565428 1_545
Ba8 Sb0 3.565428 1_555
Ba8 Sb0 3.565428 1_655
Ba8 Sb5 3.565428 1_645
Ba8 Sb3 3.608537 1_555
Ba8 Sb1 3.608537 1_545
Ba9 Sb4 3.526440 1_555
Ba9 Sb5 3.545345 1_655
Ba9 Sb5 3.545345 1_555
Ba9 Sb3 3.546999 1_565
Ba9 Sb10 3.563238 1_555
Ba9 Sb10 3.563238 1_655
In0 Sb5 2.882507 1_555
In0 Sb4 2.923569 1_455
In0 Sb4 2.923569 1_555
In0 Sb6 3.136612 1_555
In1 Sb0 2.882507 1_555
In1 Sb2 2.923569 1_455
In1 Sb2 2.923569 1_555
In1 Sb8 3.136612 1_555
In2 Sb9 2.882507 1_555
In2 Sb1 2.923569 1_455
In2 Sb1 2.923569 1_555
In2 Sb7 3.136612 1_565
In3 Sb11 2.882507 1_555
In3 Sb3 2.923569 1_455
In3 Sb3 2.923569 1_555
In3 Sb10 3.136612 1_545
Sb6 Sb8 2.882173 1_555
Sb10 Sb7 2.882173 1_564
