# generated using pymatgen
data_Nd5In11Ni6
_symmetry_space_group_name_H-M   'P 1'
_cell_length_a   10.37499519
_cell_length_b   10.37499519
_cell_length_c   4.41144000
_cell_angle_alpha   90.00000000
_cell_angle_beta   90.00000000
_cell_angle_gamma   90.19343759
_symmetry_Int_Tables_number   1
_chemical_formula_structural   Nd5In11Ni6
_chemical_formula_sum   'Nd5 In11 Ni6'
_cell_volume   474.84701209
_cell_formula_units_Z   1
loop_
 _symmetry_equiv_pos_site_id
 _symmetry_equiv_pos_as_xyz
  1  'x, y, z'
loop_
 _atom_site_type_symbol
 _atom_site_label
 _atom_site_symmetry_multiplicity
 _atom_site_fract_x
 _atom_site_fract_y
 _atom_site_fract_z
 _atom_site_occupancy
  Nd  Nd0  1  0.96314300  0.68982000  0.00000000  1
  Nd  Nd1  1  0.03685700  0.31018000  0.00000000  1
  Nd  Nd2  1  0.68982000  0.96314300  0.00000000  1
  Nd  Nd3  1  0.50000000  0.50000000  0.50000000  1
  Nd  Nd4  1  0.31018000  0.03685700  0.00000000  1
  In  In0  1  0.15089600  0.53638300  0.50000000  1
  In  In1  1  0.16047800  0.83952200  0.50000000  1
  In  In2  1  0.27506000  0.27506000  0.50000000  1
  In  In3  1  0.53638300  0.15089600  0.50000000  1
  In  In4  1  0.72494000  0.72494000  0.50000000  1
  In  In5  1  0.30395800  0.69604200  0.00000000  1
  In  In6  1  0.69604200  0.30395800  0.00000000  1
  In  In7  1  0.46361700  0.84910400  0.50000000  1
  In  In8  1  0.84910400  0.46361700  0.50000000  1
  In  In9  1  0.83952200  0.16047800  0.50000000  1
  In  In10  1  0.00000000  0.00000000  0.00000000  1
  Ni  Ni0  1  0.09403600  0.09403600  0.50000000  1
  Ni  Ni1  1  0.90596400  0.90596400  0.50000000  1
  Ni  Ni2  1  0.72074100  0.55471700  0.00000000  1
  Ni  Ni3  1  0.27925900  0.44528300  0.00000000  1
  Ni  Ni4  1  0.44528300  0.27925900  0.00000000  1
  Ni  Ni5  1  0.55471700  0.72074100  0.00000000  1
loop_
_geom_bond_atom_site_label_1
_geom_bond_atom_site_label_2
_geom_bond_distance
_geom_bond_site_symmetry_2
Nd0 Ni2 2.875024 1_555
Nd0 Ni1 3.202324 1_555
Nd0 Ni1 3.202324 1_554
Nd1 Ni3 2.875024 1_555
Nd1 Ni0 3.202324 1_555
Nd1 Ni0 3.202324 1_554
Nd2 Ni5 2.875024 1_555
Nd2 Ni1 3.202324 1_555
Nd2 Ni1 3.202324 1_554
Nd3 Ni5 3.228567 1_555
Nd3 Ni5 3.228567 1_556
Nd3 Ni2 3.228567 1_555
Nd3 Ni2 3.228567 1_556
Nd3 Ni4 3.228567 1_555
Nd3 Ni4 3.228567 1_556
Nd3 Ni3 3.228567 1_556
Nd3 Ni3 3.228567 1_555
Nd4 Ni4 2.875024 1_555
Nd4 Ni0 3.202324 1_555
Nd4 Ni0 3.202324 1_554
In0 Ni3 2.746021 1_556
In0 Ni3 2.746021 1_555
In0 In2 3.005626 1_555
In0 In1 3.146301 1_555
In0 In5 3.180111 1_556
In0 In5 3.180111 1_555
In0 In8 3.218340 1_455
In0 Nd0 3.348846 1_456
In0 Nd0 3.348846 1_455
In0 Nd1 3.428416 1_555
In0 Nd1 3.428416 1_556
In0 Nd3 3.642836 1_555
In1 Ni1 2.731327 1_455
In1 Ni0 2.731327 1_565
In1 In5 3.051565 1_556
In1 In5 3.051565 1_555
In1 In7 3.146301 1_555
In1 In10 3.229256 1_565
In1 In10 3.229256 1_566
In1 Nd4 3.383440 1_566
In1 Nd4 3.383440 1_565
In1 Nd0 3.383440 1_456
In1 Nd0 3.383440 1_455
In2 Ni0 2.651580 1_555
In2 Ni4 2.825873 1_555
In2 Ni4 2.825873 1_556
In2 Ni3 2.825873 1_556
In2 Ni3 2.825873 1_555
In2 In3 3.005626 1_555
In2 Nd3 3.294847 1_555
In2 Nd4 3.333413 1_556
In2 Nd1 3.333413 1_555
In2 Nd1 3.333413 1_556
In2 Nd4 3.333413 1_555
In3 Ni4 2.746021 1_555
In3 Ni4 2.746021 1_556
In3 In9 3.146301 1_555
In3 In6 3.180111 1_556
In3 In6 3.180111 1_555
In3 In7 3.218340 1_545
In3 Nd2 3.348846 1_545
In3 Nd2 3.348846 1_546
In3 Nd4 3.428416 1_556
In3 Nd4 3.428416 1_555
In3 Nd3 3.642836 1_555
In4 Ni1 2.651580 1_555
In4 Ni2 2.825873 1_556
In4 Ni5 2.825873 1_555
In4 Ni2 2.825873 1_555
In4 Ni5 2.825873 1_556
In4 In7 3.005626 1_555
In4 In8 3.005626 1_555
In4 Nd3 3.294847 1_555
In4 Nd2 3.333413 1_555
In4 Nd2 3.333413 1_556
In4 Nd0 3.333413 1_555
In4 Nd0 3.333413 1_556
In5 Ni5 2.613352 1_555
In5 Ni3 2.613352 1_555
In5 In7 3.180111 1_555
In5 In7 3.180111 1_554
In5 Nd4 3.536325 1_565
In5 Nd0 3.536325 1_455
In5 Nd3 3.628624 1_555
In5 Nd3 3.628624 1_554
In6 Ni2 2.613352 1_555
In6 Ni4 2.613352 1_555
In6 In9 3.051565 1_554
In6 In9 3.051565 1_555
In6 In8 3.180111 1_555
In6 In8 3.180111 1_554
In6 Nd1 3.536325 1_655
In6 Nd2 3.536325 1_545
In6 Nd3 3.628624 1_555
In6 Nd3 3.628624 1_554
In7 Ni5 2.746021 1_555
In7 Ni5 2.746021 1_556
In7 Nd4 3.348846 1_566
In7 Nd4 3.348846 1_565
In7 Nd2 3.428416 1_555
In7 Nd2 3.428416 1_556
In7 Nd3 3.642836 1_555
In8 Ni2 2.746021 1_555
In8 Ni2 2.746021 1_556
In8 In9 3.146301 1_555
In8 Nd1 3.348846 1_656
In8 Nd1 3.348846 1_655
In8 Nd0 3.428416 1_555
In8 Nd0 3.428416 1_556
In8 Nd3 3.642836 1_555
In9 Ni0 2.731327 1_655
In9 Ni1 2.731327 1_545
In9 Nd1 3.383440 1_655
In9 Nd1 3.383440 1_656
In9 Nd2 3.383440 1_545
In9 Nd2 3.383440 1_546
In10 Ni1 2.600472 1_445
In10 Ni0 2.600472 1_554
In10 Ni0 2.600472 1_555
In10 Ni1 2.600472 1_444
In10 In9 3.229256 1_454
In10 In9 3.229256 1_455
In10 Nd4 3.239473 1_555
In10 Nd2 3.239473 1_445
In10 Nd1 3.239473 1_555
In10 Nd0 3.239473 1_445
Ni0 Ni1 2.754817 1_445
Ni2 Ni5 2.440089 1_555
Ni3 Ni4 2.440089 1_555
