# generated using pymatgen
data_Re3C14NO16
_symmetry_space_group_name_H-M   'P 1'
_cell_length_a   17.73315400
_cell_length_b   9.38765200
_cell_length_c   14.17004881
_cell_angle_alpha   84.04177536
_cell_angle_beta   90.00000000
_cell_angle_gamma   90.00000000
_symmetry_Int_Tables_number   1
_chemical_formula_structural   Re3C14NO16
_chemical_formula_sum   'Re12 C56 N4 O64'
_cell_volume   2346.18269605
_cell_formula_units_Z   4
loop_
 _symmetry_equiv_pos_site_id
 _symmetry_equiv_pos_as_xyz
  1  'x, y, z'
loop_
 _atom_site_type_symbol
 _atom_site_label
 _atom_site_symmetry_multiplicity
 _atom_site_fract_x
 _atom_site_fract_y
 _atom_site_fract_z
 _atom_site_occupancy
  Re  Re0  1  0.11735400  0.78187400  0.12340200  1
  Re  Re1  1  0.08953600  0.71560000  0.59863300  1
  Re  Re2  1  0.41046400  0.71560000  0.09863300  1
  Re  Re3  1  0.88264600  0.21812600  0.87659800  1
  Re  Re4  1  0.21735400  0.11827900  0.00235800  1
  Re  Re5  1  0.58953600  0.28440000  0.90136700  1
  Re  Re6  1  0.91046400  0.28440000  0.40136700  1
  Re  Re7  1  0.28264600  0.11827900  0.50235800  1
  Re  Re8  1  0.71735400  0.88172100  0.49764200  1
  Re  Re9  1  0.61735400  0.21812600  0.37659800  1
  Re  Re10  1  0.38264600  0.78187400  0.62340200  1
  Re  Re11  1  0.78264600  0.88172100  0.99764200  1
  C  C0  1  0.81150800  0.97210100  0.11497600  1
  C  C1  1  0.24679200  0.19581500  0.12344600  1
  C  C2  1  0.84093100  0.70749300  0.03333000  1
  C  C3  1  0.11277200  0.01428200  0.06985000  1
  C  C4  1  0.14181100  0.83069000  0.25290900  1
  C  C5  1  0.47703000  0.79204000  0.98928300  1
  C  C6  1  0.31150800  0.02789900  0.38502400  1
  C  C7  1  0.48659300  0.78440800  0.66147400  1
  C  C8  1  0.88722800  0.98571800  0.93015000  1
  C  C9  1  0.65920800  0.35186300  0.79221300  1
  C  C10  1  0.41195700  0.73917400  0.49172900  1
  C  C11  1  0.37435800  0.57569400  0.66303900  1
  C  C12  1  0.97176900  0.16792400  0.31601600  1
  C  C13  1  0.34678700  0.60526100  0.01307200  1
  C  C14  1  0.52297000  0.20796000  0.01071700  1
  C  C15  1  0.68849200  0.97210100  0.61497600  1
  C  C16  1  0.52823100  0.16792400  0.81601600  1
  C  C17  1  0.47176900  0.83207600  0.18398400  1
  C  C18  1  0.58804300  0.26082600  0.50827100  1
  C  C19  1  0.80929600  0.80518700  0.55847000  1
  C  C20  1  0.30929600  0.19481300  0.94153000  1
  C  C21  1  0.69070400  0.80518700  0.05847000  1
  C  C22  1  0.61277200  0.98571800  0.43015000  1
  C  C23  1  0.35818900  0.83069000  0.75290900  1
  C  C24  1  0.34093100  0.29250700  0.46667000  1
  C  C25  1  0.84079200  0.35186300  0.29221300  1
  C  C26  1  0.52304200  0.44720600  0.87174700  1
  C  C27  1  0.02297000  0.79204000  0.48928300  1
  C  C28  1  0.98659300  0.21559200  0.83852600  1
  C  C29  1  0.64181100  0.16931000  0.24709100  1
  C  C30  1  0.65906900  0.70749300  0.53333000  1
  C  C31  1  0.25320800  0.19581500  0.62344600  1
  C  C32  1  0.15920800  0.64813700  0.70778700  1
  C  C33  1  0.74679200  0.80418500  0.37655400  1
  C  C34  1  0.02823100  0.83207600  0.68398400  1
  C  C35  1  0.62564200  0.42430600  0.33696100  1
  C  C36  1  0.08804300  0.73917400  0.99172900  1
  C  C37  1  0.01340700  0.78440800  0.16147400  1
  C  C38  1  0.15906900  0.29250700  0.96667000  1
  C  C39  1  0.97703000  0.20796000  0.51071700  1
  C  C40  1  0.19070400  0.19481300  0.44153000  1
  C  C41  1  0.38722800  0.01428200  0.56985000  1
  C  C42  1  0.18849200  0.02789900  0.88502400  1
  C  C43  1  0.85818900  0.16931000  0.74709100  1
  C  C44  1  0.97695800  0.44720600  0.37174700  1
  C  C45  1  0.02304200  0.55279400  0.62825300  1
  C  C46  1  0.15321300  0.60526100  0.51307200  1
  C  C47  1  0.51340700  0.21559200  0.33852600  1
  C  C48  1  0.91195700  0.26082600  0.00827100  1
  C  C49  1  0.75320800  0.80418500  0.87655400  1
  C  C50  1  0.65321300  0.39473900  0.98692800  1
  C  C51  1  0.87435800  0.42430600  0.83696100  1
  C  C52  1  0.12564200  0.57569400  0.16303900  1
  C  C53  1  0.84678700  0.39473900  0.48692800  1
  C  C54  1  0.47695800  0.55279400  0.12825300  1
  C  C55  1  0.34079200  0.64813700  0.20778700  1
  N  N0  1  0.72807500  0.08194800  0.94462800  1
  N  N1  1  0.22807500  0.91805200  0.55537200  1
  N  N2  1  0.77192500  0.08194800  0.44462800  1
  N  N3  1  0.27192500  0.91805200  0.05537200  1
  O  O0  1  0.94487800  0.91751100  0.92955000  1
  O  O1  1  0.76892000  0.75780800  0.30878200  1
  O  O2  1  0.68945000  0.45937600  0.03530100  1
  O  O3  1  0.48292900  0.54508700  0.85612900  1
  O  O4  1  0.55512200  0.91751100  0.42955000  1
  O  O5  1  0.81055000  0.45937600  0.53530100  1
  O  O6  1  0.36544400  0.23733200  0.90594700  1
  O  O7  1  0.87208200  0.54678000  0.81231700  1
  O  O8  1  0.69854200  0.39361500  0.73062700  1
  O  O9  1  0.63455600  0.76266800  0.09405300  1
  O  O10  1  0.54882700  0.79023800  0.68847200  1
  O  O11  1  0.45117300  0.20976200  0.31152800  1
  O  O12  1  0.51574500  0.83894500  0.92815500  1
  O  O13  1  0.99194300  0.89730000  0.73153300  1
  O  O14  1  0.62434400  0.60266400  0.55132500  1
  O  O15  1  0.12434400  0.39733600  0.94867500  1
  O  O16  1  0.84525100  0.08894900  0.44270000  1
  O  O17  1  0.82450300  0.03018500  0.18179300  1
  O  O18  1  0.37565600  0.39733600  0.44867500  1
  O  O19  1  0.56950100  0.29360100  0.58155700  1
  O  O20  1  0.12791800  0.45322000  0.18768300  1
  O  O21  1  0.67549700  0.03018500  0.68179300  1
  O  O22  1  0.51707100  0.45491300  0.14387100  1
  O  O23  1  0.15434900  0.85503800  0.33050200  1
  O  O24  1  0.86544400  0.76266800  0.59405300  1
  O  O25  1  0.01574500  0.16105500  0.57184500  1
  O  O26  1  0.15474900  0.91105100  0.55730000  1
  O  O27  1  0.17549700  0.96981500  0.81820700  1
  O  O28  1  0.18945000  0.54062400  0.46469900  1
  O  O29  1  0.04882700  0.20976200  0.81152800  1
  O  O30  1  0.73802400  0.20027100  0.41479000  1
  O  O31  1  0.50805700  0.89730000  0.23153300  1
  O  O32  1  0.65474900  0.08894900  0.94270000  1
  O  O33  1  0.00805700  0.10270000  0.26846700  1
  O  O34  1  0.01707100  0.54508700  0.35612900  1
  O  O35  1  0.34565100  0.85503800  0.83050200  1
  O  O36  1  0.19854200  0.60638500  0.76937300  1
  O  O37  1  0.76197600  0.20027100  0.91479000  1
  O  O38  1  0.73108000  0.75780800  0.80878200  1
  O  O39  1  0.98292900  0.45491300  0.64387100  1
  O  O40  1  0.84565100  0.14496200  0.66949800  1
  O  O41  1  0.31055000  0.54062400  0.96469900  1
  O  O42  1  0.95117300  0.79023800  0.18847200  1
  O  O43  1  0.13455600  0.23733200  0.40594700  1
  O  O44  1  0.65434900  0.14496200  0.16949800  1
  O  O45  1  0.48425500  0.16105500  0.07184500  1
  O  O46  1  0.93049900  0.29360100  0.08155700  1
  O  O47  1  0.32450300  0.96981500  0.31820700  1
  O  O48  1  0.34525100  0.91105100  0.05730000  1
  O  O49  1  0.80145800  0.39361500  0.23062700  1
  O  O50  1  0.44487800  0.08248900  0.57045000  1
  O  O51  1  0.98425500  0.83894500  0.42815500  1
  O  O52  1  0.23108000  0.24219200  0.69121800  1
  O  O53  1  0.37208200  0.45322000  0.68768300  1
  O  O54  1  0.26892000  0.24219200  0.19121800  1
  O  O55  1  0.87565600  0.60266400  0.05132500  1
  O  O56  1  0.23802400  0.79972900  0.08521000  1
  O  O57  1  0.49194300  0.10270000  0.76846700  1
  O  O58  1  0.62791800  0.54678000  0.31231700  1
  O  O59  1  0.26197600  0.79972900  0.58521000  1
  O  O60  1  0.05512200  0.08248900  0.07045000  1
  O  O61  1  0.43049900  0.70639900  0.41844300  1
  O  O62  1  0.06950100  0.70639900  0.91844300  1
  O  O63  1  0.30145800  0.60638500  0.26937300  1
loop_
_geom_bond_atom_site_label_1
_geom_bond_atom_site_label_2
_geom_bond_distance
_geom_bond_site_symmetry_2
C0 O17 1.163631 1_565
C0 Re11 2.009734 1_554
C1 O54 1.162998 1_555
C1 Re4 2.001413 1_555
C2 O55 1.166432 1_555
C2 Re11 1.956389 1_554
C3 O60 1.206782 1_555
C3 Re0 2.235804 1_545
C3 Re4 2.261273 1_555
C4 O23 1.167367 1_555
C4 Re0 1.985035 1_555
C5 O12 1.155994 1_555
C5 Re2 2.019514 1_556
C6 O47 1.163631 1_545
C6 Re7 2.009734 1_555
C7 O10 1.171171 1_555
C7 Re10 1.921472 1_555
C8 O0 1.206782 1_555
C8 Re3 2.235804 1_565
C8 Re11 2.261273 1_555
C9 O8 1.153563 1_555
C9 Re5 2.028925 1_555
C10 O61 1.160831 1_555
C10 Re10 2.016775 1_555
C11 O53 1.167103 1_555
C11 Re10 1.964105 1_555
C12 O33 1.152658 1_655
C12 Re6 2.028477 1_555
C13 O41 1.156421 1_554
C13 Re2 2.019568 1_555
C14 O45 1.155994 1_555
C14 Re5 2.019514 1_554
C15 O21 1.163631 1_565
C15 Re8 2.009734 1_555
C16 O57 1.152658 1_555
C16 Re5 2.028477 1_555
C17 O31 1.152658 1_555
C17 Re2 2.028477 1_555
C18 O19 1.160831 1_555
C18 Re9 2.016775 1_555
C19 O24 1.167541 1_555
C19 Re8 1.946496 1_555
C20 O6 1.167541 1_555
C20 Re4 1.946496 1_556
C21 O9 1.167541 1_555
C21 Re11 1.946496 1_554
C22 O4 1.206782 1_555
C22 Re9 2.235804 1_565
C22 Re8 2.261273 1_555
C23 O35 1.167367 1_555
C23 Re10 1.985035 1_555
C24 O18 1.166432 1_555
C24 Re7 1.956389 1_555
C25 O49 1.153563 1_555
C25 Re6 2.028925 1_555
C26 O3 1.164937 1_555
C26 Re5 1.941463 1_555
C27 O51 1.155994 1_455
C27 Re1 2.019514 1_555
C28 O29 1.171171 1_655
C28 Re3 1.921472 1_555
C29 O44 1.167367 1_555
C29 Re9 1.985035 1_555
C30 O14 1.166432 1_555
C30 Re8 1.956389 1_555
C31 O52 1.162998 1_555
C31 Re7 2.001413 1_555
C32 O36 1.153563 1_555
C32 Re1 2.028925 1_555
C33 O1 1.162998 1_555
C33 Re8 2.001413 1_555
C34 O13 1.152658 1_455
C34 Re1 2.028477 1_555
C35 O58 1.167103 1_555
C35 Re9 1.964105 1_555
C36 O62 1.160831 1_555
C36 Re0 2.016775 1_556
C37 O42 1.171171 1_455
C37 Re0 1.921472 1_555
C38 O15 1.166432 1_555
C38 Re4 1.956389 1_556
C39 O25 1.155994 1_655
C39 Re6 2.019514 1_555
C40 O43 1.167541 1_555
C40 Re7 1.946496 1_555
C41 O50 1.206782 1_555
C41 Re10 2.235804 1_545
C41 Re7 2.261273 1_555
C42 O27 1.163631 1_545
C42 Re4 2.009734 1_556
C43 O40 1.167367 1_555
C43 Re3 1.985035 1_555
C44 O34 1.164937 1_655
C44 Re6 1.941463 1_555
C45 O39 1.164937 1_455
C45 Re1 1.941463 1_555
C46 O28 1.156421 1_555
C46 Re1 2.019568 1_555
C47 O11 1.171171 1_555
C47 Re9 1.921472 1_555
C48 O46 1.160831 1_555
C48 Re3 2.016775 1_554
C49 O38 1.162998 1_555
C49 Re11 2.001413 1_555
C50 O2 1.156421 1_556
C50 Re5 2.019568 1_555
C51 O7 1.167103 1_555
C51 Re3 1.964105 1_555
C52 O20 1.167103 1_555
C52 Re0 1.964105 1_555
C53 O5 1.156421 1_555
C53 Re6 2.019568 1_555
C54 O22 1.164937 1_555
C54 Re2 1.941463 1_555
C55 O63 1.153563 1_555
C55 Re2 2.028925 1_555
N0 O37 1.294794 1_555
N0 O32 1.302105 1_555
N0 Re11 2.177332 1_545
N1 O59 1.294794 1_555
N1 O26 1.302105 1_555
N1 Re7 2.177332 1_565
N2 O30 1.294794 1_555
N2 O16 1.302105 1_555
N2 Re8 2.177332 1_545
N3 O56 1.294794 1_555
N3 O48 1.302105 1_555
N3 Re4 2.177332 1_565
O16 Re6 2.196327 1_555
O26 Re1 2.196327 1_555
O30 Re9 2.209330 1_555
O32 Re5 2.196327 1_555
O37 Re3 2.209330 1_555
O48 Re2 2.196327 1_555
O56 Re0 2.209330 1_555
O59 Re10 2.209330 1_555
