# generated using pymatgen
data_LiFePO4
_symmetry_space_group_name_H-M   'P 1'
_cell_length_a   10.15055244
_cell_length_b   10.15055244
_cell_length_c   17.64961797
_cell_angle_alpha   71.55459347
_cell_angle_beta   71.55459347
_cell_angle_gamma   58.71652485
_symmetry_Int_Tables_number   1
_chemical_formula_structural   LiFePO4
_chemical_formula_sum   'Li16 Fe16 P16 O64'
_cell_volume   1448.08915086
_cell_formula_units_Z   16
loop_
 _symmetry_equiv_pos_site_id
 _symmetry_equiv_pos_as_xyz
  1  'x, y, z'
loop_
 _atom_site_type_symbol
 _atom_site_label
 _atom_site_symmetry_multiplicity
 _atom_site_fract_x
 _atom_site_fract_y
 _atom_site_fract_z
 _atom_site_occupancy
  Li  Li0  1  0.49560900  0.87866400  0.68704400  1
  Li  Li1  1  0.93881400  0.36934400  0.68702700  1
  Li  Li2  1  0.37292300  0.44173200  0.18480600  1
  Li  Li3  1  0.36934400  0.93881400  0.18702700  1
  Li  Li4  1  0.87866400  0.49560900  0.18704400  1
  Li  Li5  1  0.44173200  0.37292300  0.68480600  1
  Li  Li6  1  0.75969700  0.62151600  0.93716800  1
  Li  Li7  1  0.99468000  0.87378400  0.68705000  1
  Li  Li8  1  0.62151600  0.75969700  0.43716800  1
  Li  Li9  1  0.25899100  0.68246400  0.93678500  1
  Li  Li10  1  0.75930500  0.12204000  0.93720500  1
  Li  Li11  1  0.68246400  0.25899100  0.43678500  1
  Li  Li12  1  0.87378400  0.99468000  0.18705000  1
  Li  Li13  1  0.18128200  0.25945700  0.43666500  1
  Li  Li14  1  0.25945700  0.18128200  0.93666500  1
  Li  Li15  1  0.12204000  0.75930500  0.43720500  1
  Fe  Fe0  1  0.81338400  0.74416900  0.56313700  1
  Fe  Fe1  1  0.13080100  0.00236700  0.81207800  1
  Fe  Fe2  1  0.74413500  0.31258700  0.06295500  1
  Fe  Fe3  1  0.63137900  0.05868300  0.81265600  1
  Fe  Fe4  1  0.62632700  0.55734800  0.81344400  1
  Fe  Fe5  1  0.24263800  0.37433400  0.06186700  1
  Fe  Fe6  1  0.05868300  0.63137900  0.31265600  1
  Fe  Fe7  1  0.50393600  0.12617200  0.31132400  1
  Fe  Fe8  1  0.12617200  0.50393600  0.81132400  1
  Fe  Fe9  1  0.55734800  0.62632700  0.31344400  1
  Fe  Fe10  1  0.24606400  0.87262500  0.06218500  1
  Fe  Fe11  1  0.87262500  0.24606400  0.56218500  1
  Fe  Fe12  1  0.37433400  0.24263800  0.56186700  1
  Fe  Fe13  1  0.00236700  0.13080100  0.31207800  1
  Fe  Fe14  1  0.31258700  0.74413500  0.56295500  1
  Fe  Fe15  1  0.74416900  0.81338400  0.06313700  1
  P  P0  1  0.43501500  0.37176700  0.87297400  1
  P  P1  1  0.56213500  0.12770700  0.12443900  1
  P  P2  1  0.93844200  0.81551400  0.87524000  1
  P  P3  1  0.18498400  0.06175400  0.62345500  1
  P  P4  1  0.87233700  0.43844900  0.37316300  1
  P  P5  1  0.56492500  0.62714800  0.12455800  1
  P  P6  1  0.06226100  0.68645200  0.12277600  1
  P  P7  1  0.93564000  0.31552600  0.87471000  1
  P  P8  1  0.81551400  0.93844200  0.37524000  1
  P  P9  1  0.31552600  0.93564000  0.37471000  1
  P  P10  1  0.12770700  0.56213500  0.62443900  1
  P  P11  1  0.06175400  0.18498400  0.12345500  1
  P  P12  1  0.43844900  0.87233700  0.87316300  1
  P  P13  1  0.68645200  0.06226100  0.62277600  1
  P  P14  1  0.62714800  0.56492500  0.62455800  1
  P  P15  1  0.37176700  0.43501500  0.37297400  1
  O  O0  1  0.44643700  0.51227100  0.88277000  1
  O  O1  1  0.36354100  0.41239400  0.79720000  1
  O  O2  1  0.32386200  0.32914400  0.94808200  1
  O  O3  1  0.67034000  0.16965000  0.04730000  1
  O  O4  1  0.39573100  0.27107800  0.13789200  1
  O  O5  1  0.08246700  0.13611300  0.70059900  1
  O  O6  1  0.82145100  0.89749500  0.94746300  1
  O  O7  1  0.95613500  0.14721700  0.88935900  1
  O  O8  1  0.10175100  0.80544300  0.86346900  1
  O  O9  1  0.63773100  0.08554000  0.19906400  1
  O  O10  1  0.16965000  0.67034000  0.54730000  1
  O  O11  1  0.00975500  0.45359400  0.38407800  1
  O  O12  1  0.45359400  0.00975500  0.88407800  1
  O  O13  1  0.10720300  0.17556700  0.54936800  1
  O  O14  1  0.19087500  0.89923900  0.63833400  1
  O  O15  1  0.95656900  0.64804000  0.89012200  1
  O  O16  1  0.72847000  0.60401600  0.36274000  1
  O  O17  1  0.27107800  0.39573100  0.63789200  1
  O  O18  1  0.86827400  0.91832100  0.79685800  1
  O  O19  1  0.14106400  0.58255600  0.19819000  1
  O  O20  1  0.81979700  0.39668300  0.94729300  1
  O  O21  1  0.69356500  0.89890900  0.63901300  1
  O  O22  1  0.85505400  0.04154600  0.60776300  1
  O  O23  1  0.60325200  0.23098700  0.86262000  1
  O  O24  1  0.67183600  0.67010300  0.54640700  1
  O  O25  1  0.41790800  0.86234500  0.29733900  1
  O  O26  1  0.54937100  0.48894400  0.11557900  1
  O  O27  1  0.64415100  0.58338100  0.19759200  1
  O  O28  1  0.39668300  0.81979700  0.44729300  1
  O  O29  1  0.67010300  0.67183600  0.04640700  1
  O  O30  1  0.98930300  0.54649600  0.61583700  1
  O  O31  1  0.86234500  0.41790800  0.79733900  1
  O  O32  1  0.14721700  0.95613500  0.38935900  1
  O  O33  1  0.58255600  0.14106400  0.69819000  1
  O  O34  1  0.51227100  0.44643700  0.38277000  1
  O  O35  1  0.17249800  0.60932300  0.04801900  1
  O  O36  1  0.48894400  0.54937100  0.61557900  1
  O  O37  1  0.35343500  0.04009900  0.60862700  1
  O  O38  1  0.32448400  0.83152300  0.94746600  1
  O  O39  1  0.41239400  0.36354100  0.29720000  1
  O  O40  1  0.89749500  0.82145100  0.44746300  1
  O  O41  1  0.17556700  0.10720300  0.04936800  1
  O  O42  1  0.60932300  0.17249800  0.54801900  1
  O  O43  1  0.54649600  0.98930300  0.11583700  1
  O  O44  1  0.83152300  0.32448400  0.44746600  1
  O  O45  1  0.76900000  0.39745400  0.63889900  1
  O  O46  1  0.23098700  0.60325200  0.36262000  1
  O  O47  1  0.91832100  0.86827400  0.29685800  1
  O  O48  1  0.08554000  0.63773100  0.69906400  1
  O  O49  1  0.60401600  0.72847000  0.86274000  1
  O  O50  1  0.13611300  0.08246700  0.20059900  1
  O  O51  1  0.09855500  0.30688500  0.86279900  1
  O  O52  1  0.91777300  0.36761700  0.29646000  1
  O  O53  1  0.04154600  0.85505400  0.10776300  1
  O  O54  1  0.89890900  0.69356500  0.13901300  1
  O  O55  1  0.39745400  0.76900000  0.13889900  1
  O  O56  1  0.58338100  0.64415100  0.69759200  1
  O  O57  1  0.89923900  0.19087500  0.13833400  1
  O  O58  1  0.04009900  0.35343500  0.10862700  1
  O  O59  1  0.30688500  0.09855500  0.36279900  1
  O  O60  1  0.64804000  0.95656900  0.39012200  1
  O  O61  1  0.32914400  0.32386200  0.44808200  1
  O  O62  1  0.80544300  0.10175100  0.36346900  1
  O  O63  1  0.36761700  0.91777300  0.79646000  1
loop_
_geom_bond_atom_site_label_1
_geom_bond_atom_site_label_2
_geom_bond_distance
_geom_bond_site_symmetry_2
Li0 O63 1.984103 1_555
Li0 O21 2.009751 1_555
Li0 O37 2.014000 1_565
Li0 O56 2.029006 1_555
Li1 O31 1.972259 1_555
Li1 O45 2.009106 1_555
Li1 O5 2.016267 1_655
Li1 O30 2.048103 1_555
Li2 O39 1.975335 1_555
Li2 O19 2.001515 1_555
Li2 O26 2.016544 1_555
Li2 O4 2.027232 1_555
Li3 O25 1.972259 1_555
Li3 O55 2.009106 1_555
Li3 O50 2.016267 1_565
Li3 O43 2.048103 1_555
Li4 O52 1.984103 1_555
Li4 O54 2.009751 1_555
Li4 O58 2.014000 1_655
Li4 O27 2.029006 1_555
Li5 O1 1.975335 1_555
Li5 O33 2.001515 1_555
Li5 O36 2.016544 1_555
Li5 O17 2.027232 1_555
Li6 O29 1.958683 1_556
Li6 O20 1.994352 1_555
Li6 O49 2.007698 1_555
Li6 O15 2.030436 1_555
Li7 O18 1.996303 1_555
Li7 O14 2.020477 1_655
Li7 O22 2.026664 1_565
Li7 O48 2.035664 1_655
Li8 O24 1.958683 1_555
Li8 O28 1.994352 1_555
Li8 O16 2.007698 1_555
Li8 O60 2.030436 1_555
Li9 O35 1.959635 1_556
Li9 O0 1.998541 1_555
Li9 O8 1.998933 1_555
Li9 O38 2.017713 1_555
Li10 O3 1.963520 1_556
Li10 O6 1.985861 1_545
Li10 O23 2.010981 1_555
Li10 O7 2.023913 1_555
Li11 O42 1.959635 1_555
Li11 O34 1.998541 1_555
Li11 O62 1.998933 1_555
Li11 O44 2.017713 1_555
Li12 O47 1.996303 1_555
Li12 O57 2.020477 1_565
Li12 O53 2.026664 1_655
Li12 O9 2.035664 1_565
Li13 O13 1.973300 1_555
Li13 O61 2.003595 1_555
Li13 O11 2.019423 1_555
Li13 O59 2.031171 1_555
Li14 O41 1.973300 1_556
Li14 O2 2.003595 1_555
Li14 O12 2.019423 1_555
Li14 O51 2.031171 1_555
Li15 O10 1.963520 1_555
Li15 O40 1.985861 1_455
Li15 O46 2.010981 1_555
Li15 O32 2.023913 1_555
Fe0 O21 2.013986 1_555
Fe0 O40 2.022751 1_555
Fe0 O30 2.056398 1_555
Fe0 O24 2.060959 1_555
Fe1 O63 2.044125 1_545
Fe1 O5 2.045454 1_555
Fe1 O7 2.048689 1_455
Fe1 O8 2.049584 1_545
Fe2 O57 2.010058 1_555
Fe2 O20 2.017877 1_554
Fe2 O26 2.047033 1_555
Fe2 O3 2.062974 1_555
Fe3 O18 2.039341 1_545
Fe3 O33 2.039737 1_555
Fe3 O12 2.046324 1_555
Fe3 O23 2.053333 1_555
Fe4 O31 2.031173 1_555
Fe4 O0 2.034774 1_555
Fe4 O56 2.042652 1_555
Fe4 O49 2.061191 1_555
Fe5 O4 2.012923 1_555
Fe5 O2 2.016354 1_554
Fe5 O58 2.054565 1_555
Fe5 O35 2.057584 1_555
Fe6 O47 2.039341 1_455
Fe6 O19 2.039737 1_555
Fe6 O11 2.046324 1_555
Fe6 O46 2.053333 1_555
Fe7 O39 2.042609 1_555
Fe7 O9 2.042761 1_555
Fe7 O59 2.043507 1_555
Fe7 O60 2.048055 1_545
Fe8 O1 2.042609 1_555
Fe8 O48 2.042761 1_555
Fe8 O51 2.043507 1_555
Fe8 O15 2.048055 1_455
Fe9 O25 2.031173 1_555
Fe9 O34 2.034774 1_555
Fe9 O27 2.042652 1_555
Fe9 O16 2.061191 1_555
Fe10 O55 2.009426 1_555
Fe10 O38 2.019170 1_554
Fe10 O41 2.055453 1_565
Fe10 O53 2.055615 1_555
Fe11 O45 2.009426 1_555
Fe11 O44 2.019170 1_555
Fe11 O13 2.055453 1_655
Fe11 O22 2.055615 1_555
Fe12 O17 2.012923 1_555
Fe12 O61 2.016354 1_555
Fe12 O37 2.054565 1_555
Fe12 O42 2.057584 1_555
Fe13 O52 2.044125 1_455
Fe13 O50 2.045454 1_555
Fe13 O32 2.048689 1_545
Fe13 O62 2.049584 1_455
Fe14 O14 2.010058 1_555
Fe14 O28 2.017877 1_555
Fe14 O36 2.047033 1_555
Fe14 O10 2.062974 1_555
Fe15 O54 2.013986 1_555
Fe15 O6 2.022751 1_554
Fe15 O43 2.056398 1_555
Fe15 O29 2.060959 1_555
O0 P0 1.554931 1_555
O1 P0 1.561817 1_555
O2 P0 1.554034 1_555
O3 P1 1.553639 1_555
O4 P1 1.561822 1_555
O5 P3 1.563471 1_555
O6 P2 1.553906 1_555
O7 P7 1.553790 1_555
O8 P2 1.555964 1_455
O9 P1 1.564765 1_555
O10 P10 1.553639 1_555
O11 P4 1.554956 1_455
O12 P12 1.554956 1_545
O13 P3 1.554965 1_555
O14 P3 1.557927 1_565
O15 P2 1.554307 1_555
O16 P4 1.554459 1_555
O17 P10 1.561822 1_555
O18 P2 1.564663 1_555
O19 P6 1.559818 1_555
O20 P7 1.552738 1_555
O21 P13 1.557160 1_565
O22 P13 1.554959 1_555
O23 P0 1.557264 1_555
O24 P14 1.556689 1_555
O25 P9 1.562110 1_555
O26 P5 1.550664 1_555
O27 P5 1.558273 1_555
O28 P9 1.552738 1_555
O29 P5 1.556689 1_555
O30 P10 1.550408 1_655
O31 P7 1.562110 1_555
O32 P9 1.553790 1_555
O33 P13 1.559818 1_555
O34 P15 1.554931 1_555
O35 P6 1.554195 1_555
O36 P14 1.550664 1_555
O37 P3 1.550278 1_555
O38 P12 1.556784 1_555
O39 P15 1.561817 1_555
O40 P8 1.553906 1_555
O41 P11 1.554965 1_555
O42 P13 1.554195 1_555
O43 P1 1.550408 1_565
O44 P4 1.556784 1_555
O45 P14 1.563129 1_555
O46 P15 1.557264 1_555
O47 P8 1.564663 1_555
O48 P10 1.564765 1_555
O49 P12 1.554459 1_555
O50 P11 1.563471 1_555
O51 P7 1.558069 1_455
O52 P4 1.561672 1_555
O53 P6 1.554959 1_555
O54 P6 1.557160 1_655
O55 P5 1.563129 1_555
O56 P14 1.558273 1_555
O57 P11 1.557927 1_655
O58 P11 1.550278 1_555
O59 P9 1.558069 1_545
O60 P8 1.554307 1_555
O61 P15 1.554034 1_555
O62 P8 1.555964 1_545
O63 P12 1.561672 1_555
