# generated using pymatgen
data_H24PtC8(NF3)2
_symmetry_space_group_name_H-M   'P 1'
_cell_length_a   8.19035381
_cell_length_b   8.19035381
_cell_length_c   8.19035381
_cell_angle_alpha   119.91603695
_cell_angle_beta   119.91603695
_cell_angle_gamma   90.14548989
_symmetry_Int_Tables_number   1
_chemical_formula_structural   H24PtC8(NF3)2
_chemical_formula_sum   'H24 Pt1 C8 N2 F6'
_cell_volume   388.99345046
_cell_formula_units_Z   1
loop_
 _symmetry_equiv_pos_site_id
 _symmetry_equiv_pos_as_xyz
  1  'x, y, z'
loop_
 _atom_site_type_symbol
 _atom_site_label
 _atom_site_symmetry_multiplicity
 _atom_site_fract_x
 _atom_site_fract_y
 _atom_site_fract_z
 _atom_site_occupancy
  H  H0  1  0.31251300  0.51548800  0.29036800  1
  H  H1  1  0.22512000  0.02214500  0.70963200  1
  H  H2  1  0.02214500  0.31251300  0.79702500  1
  H  H3  1  0.51548800  0.22512000  0.20297500  1
  H  H4  1  0.68748700  0.48451200  0.70963200  1
  H  H5  1  0.77488000  0.97785500  0.29036800  1
  H  H6  1  0.97785500  0.68748700  0.20297500  1
  H  H7  1  0.48451200  0.77488000  0.79702500  1
  H  H8  1  0.30994900  0.72263400  0.26620200  1
  H  H9  1  0.45643300  0.04374800  0.73379800  1
  H  H10  1  0.04374800  0.30994900  0.58731500  1
  H  H11  1  0.72263400  0.45643300  0.41268500  1
  H  H12  1  0.69005100  0.27736600  0.73379800  1
  H  H13  1  0.54356700  0.95625200  0.26620200  1
  H  H14  1  0.95625200  0.69005100  0.41268500  1
  H  H15  1  0.27736600  0.54356700  0.58731500  1
  H  H16  1  0.51770800  0.74928000  0.51813600  1
  H  H17  1  0.23114300  0.99957200  0.48186400  1
  H  H18  1  0.99957200  0.51770800  0.76842900  1
  H  H19  1  0.74928000  0.23114400  0.23157100  1
  H  H20  1  0.48229200  0.25072000  0.48186400  1
  H  H21  1  0.76885600  0.00042800  0.51813600  1
  H  H22  1  0.00042800  0.48229200  0.23157100  1
  H  H23  1  0.25072000  0.76885700  0.76842900  1
  Pt  Pt0  1  0.00000000  0.00000000  0.00000000  1
  C  C0  1  0.35607300  0.67856400  0.38499500  1
  C  C1  1  0.29356900  0.97107800  0.61500500  1
  C  C2  1  0.97107800  0.35607300  0.67750800  1
  C  C3  1  0.67856400  0.29356900  0.32249200  1
  C  C4  1  0.64392700  0.32143600  0.61500500  1
  C  C5  1  0.70643100  0.02892200  0.38499500  1
  C  C6  1  0.02892200  0.64392700  0.32249200  1
  C  C7  1  0.32143600  0.70643100  0.67750800  1
  N  N0  1  0.25000000  0.75000000  0.50000000  1
  N  N1  1  0.75000000  0.25000000  0.50000000  1
  F  F0  1  0.82900500  0.82900500  0.00000000  1
  F  F1  1  0.17099500  0.17099500  0.00000000  1
  F  F2  1  0.20337700  0.87030100  0.07367800  1
  F  F3  1  0.79662300  0.12969900  0.92632200  1
  F  F4  1  0.12969900  0.20337700  0.33307600  1
  F  F5  1  0.87030100  0.79662300  0.66692400  1
loop_
_geom_bond_atom_site_label_1
_geom_bond_atom_site_label_2
_geom_bond_distance
_geom_bond_site_symmetry_2
C0 H0 1.095971 1_555
C0 H16 1.096964 1_555
C0 H8 1.097272 1_555
C0 N0 1.501150 1_555
C1 H1 1.095971 1_565
C1 H17 1.096963 1_555
C1 H9 1.097279 1_565
C1 N0 1.501150 1_555
C2 H2 1.095978 1_655
C2 H18 1.096963 1_555
C2 H10 1.097273 1_655
C2 N1 1.501149 1_555
C3 H3 1.095971 1_555
C3 H19 1.096975 1_555
C3 H11 1.097280 1_555
C3 N1 1.501142 1_555
C4 H4 1.095971 1_555
C4 H20 1.096964 1_555
C4 H12 1.097272 1_555
C4 N1 1.501150 1_555
C5 H5 1.095971 1_545
C5 H21 1.096964 1_555
C5 H13 1.097279 1_545
C5 N1 1.501150 1_555
C6 H6 1.095978 1_455
C6 H22 1.096963 1_555
C6 H14 1.097273 1_455
C6 N0 1.501149 1_555
C7 H7 1.095971 1_555
C7 H23 1.096976 1_555
C7 H15 1.097280 1_555
C7 N0 1.501142 1_555
F0 Pt0 1.978103 1_665
F1 Pt0 1.978103 1_555
F2 Pt0 1.978132 1_565
F3 Pt0 1.978132 1_656
F4 Pt0 1.978132 1_555
F5 Pt0 1.978132 1_666
