# generated using pymatgen
data_FeHO2
_symmetry_space_group_name_H-M   'P 1'
_cell_length_a   11.02345256
_cell_length_b   5.95477667
_cell_length_c   10.97242749
_cell_angle_alpha   94.20262426
_cell_angle_beta   90.77416086
_cell_angle_gamma   84.70870923
_symmetry_Int_Tables_number   1
_chemical_formula_structural   FeHO2
_chemical_formula_sum   'Fe16 H16 O32'
_cell_volume   715.24009851
_cell_formula_units_Z   16
loop_
 _symmetry_equiv_pos_site_id
 _symmetry_equiv_pos_as_xyz
  1  'x, y, z'
loop_
 _atom_site_type_symbol
 _atom_site_label
 _atom_site_symmetry_multiplicity
 _atom_site_fract_x
 _atom_site_fract_y
 _atom_site_fract_z
 _atom_site_occupancy
  Fe  Fe0  1  0.35757200  0.04840000  0.08852400  1
  Fe  Fe1  1  0.14466800  0.98339900  0.64910800  1
  Fe  Fe2  1  0.85963600  0.28526500  0.57923400  1
  Fe  Fe3  1  0.69483200  0.25226700  0.10322400  1
  Fe  Fe4  1  0.67532800  0.97088400  0.83189200  1
  Fe  Fe5  1  0.86495100  0.98369900  0.29958100  1
  Fe  Fe6  1  0.17343600  0.21911700  0.38716800  1
  Fe  Fe7  1  0.34627200  0.22305300  0.81429000  1
  Fe  Fe8  1  0.33629600  0.51045400  0.09747400  1
  Fe  Fe9  1  0.15213600  0.50421900  0.65625800  1
  Fe  Fe10  1  0.84460500  0.82700200  0.58989800  1
  Fe  Fe11  1  0.70241500  0.74537700  0.12261400  1
  Fe  Fe12  1  0.67978600  0.47255200  0.82834600  1
  Fe  Fe13  1  0.88068900  0.50673100  0.29994500  1
  Fe  Fe14  1  0.17838800  0.71174200  0.36669900  1
  Fe  Fe15  1  0.39042000  0.72188600  0.80641200  1
  H  H0  1  0.01994600  0.98987500  0.45005700  1
  H  H1  1  0.36219000  0.95166500  0.59233800  1
  H  H2  1  0.53021000  0.24866700  0.92228700  1
  H  H3  1  0.94394100  0.23776400  0.10552900  1
  H  H4  1  0.68364200  0.14511600  0.64177200  1
  H  H5  1  0.63440400  0.97295900  0.33063700  1
  H  H6  1  0.19246700  0.33316600  0.20504500  1
  H  H7  1  0.49980200  0.23489700  0.23025000  1
  H  H8  1  0.10155900  0.23546700  0.85066300  1
  H  H9  1  0.38367500  0.43661200  0.59828200  1
  H  H10  1  0.80764300  0.65432700  0.75033800  1
  H  H11  1  0.99804300  0.53312100  0.50732800  1
  H  H12  1  0.64176000  0.48364600  0.31967500  1
  H  H13  1  0.20767200  0.85942400  0.18011800  1
  H  H14  1  0.49987600  0.72848600  0.04353600  1
  H  H15  1  0.11350200  0.78765000  0.85750100  1
  O  O0  1  0.27204700  0.96004600  0.36595500  1
  O  O1  1  0.04878000  0.97986000  0.36372800  1
  O  O2  1  0.32920300  0.95698500  0.67473000  1
  O  O3  1  0.33197500  0.97507300  0.92003300  1
  O  O4  1  0.76824800  0.20601700  0.84860200  1
  O  O5  1  0.53401000  0.19726600  0.83505800  1
  O  O6  1  0.88015900  0.24163800  0.16621000  1
  O  O7  1  0.84386100  0.27703000  0.40521300  1
  O  O8  1  0.68949500  0.97981700  0.65223000  1
  O  O9  1  0.97335300  0.02880800  0.61877800  1
  O  O10  1  0.67546500  0.00604000  0.25708200  1
  O  O11  1  0.67209800  0.97501900  0.00707000  1
  O  O12  1  0.21757900  0.25807000  0.12523800  1
  O  O13  1  0.47580000  0.27021600  0.14691600  1
  O  O14  1  0.15158500  0.23946600  0.77866300  1
  O  O15  1  0.16311400  0.21913500  0.55267300  1
  O  O16  1  0.27186000  0.44121300  0.37491800  1
  O  O17  1  0.05616800  0.47639200  0.35185200  1
  O  O18  1  0.34578300  0.46314500  0.67833700  1
  O  O19  1  0.34321000  0.49913600  0.92298200  1
  O  O20  1  0.81171000  0.75170300  0.82765300  1
  O  O21  1  0.56419300  0.72970000  0.81170800  1
  O  O22  1  0.87313800  0.71607100  0.17668400  1
  O  O23  1  0.83770200  0.75392000  0.41774100  1
  O  O24  1  0.72657800  0.44566900  0.66053600  1
  O  O25  1  0.97197900  0.54010900  0.59514400  1
  O  O26  1  0.68514200  0.49585900  0.24497700  1
  O  O27  1  0.65804700  0.50276300  0.00188300  1
  O  O28  1  0.19907600  0.69918400  0.18654000  1
  O  O29  1  0.45118300  0.76297300  0.11873300  1
  O  O30  1  0.14436400  0.76187800  0.77477600  1
  O  O31  1  0.16572200  0.73694600  0.53537700  1
loop_
_geom_bond_atom_site_label_1
_geom_bond_atom_site_label_2
_geom_bond_distance
_geom_bond_site_symmetry_2
Fe0 O3 1.891688 1_544
Fe0 O12 1.921023 1_555
Fe0 O29 1.952790 1_545
Fe0 O13 2.006147 1_555
Fe1 O15 1.845988 1_565
Fe1 O31 1.855124 1_555
Fe1 O9 1.911088 1_465
Fe1 O30 1.977096 1_555
Fe1 O14 2.013074 1_565
Fe1 O2 2.042991 1_555
Fe2 O24 1.873928 1_555
Fe2 O7 1.912447 1_555
Fe2 O9 1.954781 1_555
Fe2 O25 2.041814 1_555
Fe3 O11 1.927544 1_545
Fe3 O27 1.935265 1_555
Fe3 O26 2.044478 1_555
Fe3 O6 2.144683 1_555
Fe3 O10 2.340016 1_555
Fe3 O13 2.459102 1_555
Fe4 O4 1.806954 1_565
Fe4 O20 1.896561 1_555
Fe4 O11 1.921250 1_556
Fe4 O5 1.962781 1_565
Fe4 O21 1.970564 1_555
Fe4 O8 1.984584 1_555
Fe5 O23 1.997418 1_555
Fe5 O22 2.007010 1_555
Fe5 O7 2.020918 1_565
Fe5 O10 2.128312 1_565
Fe5 O1 2.134858 1_655
Fe5 O6 2.216399 1_565
Fe6 O16 1.799714 1_555
Fe6 O0 1.805736 1_545
Fe6 O15 1.821078 1_555
Fe6 O17 1.968884 1_555
Fe6 O1 2.069317 1_545
Fe7 O19 1.956969 1_555
Fe7 O3 1.962284 1_545
Fe7 O5 2.071762 1_555
Fe7 O18 2.140158 1_555
Fe7 O2 2.140599 1_545
Fe7 O14 2.170818 1_555
Fe8 O19 1.913147 1_554
Fe8 O28 2.017818 1_555
Fe8 O29 2.052133 1_555
Fe8 O13 2.095506 1_555
Fe8 O12 2.122436 1_555
Fe9 O30 1.933615 1_555
Fe9 O15 1.967580 1_555
Fe9 O31 2.003811 1_555
Fe9 O25 2.084726 1_455
Fe9 O18 2.138619 1_555
Fe9 O14 2.145164 1_555
Fe10 O23 1.909230 1_555
Fe10 O9 1.950739 1_565
Fe10 O8 1.967947 1_555
Fe10 O25 2.112628 1_555
Fe10 H10 2.164329 1_555
Fe11 O11 1.935802 1_555
Fe11 O22 1.961791 1_555
Fe11 O27 1.978275 1_555
Fe11 O10 2.065334 1_565
Fe11 O26 2.097148 1_555
Fe12 O4 1.811016 1_555
Fe12 O24 1.910299 1_555
Fe12 O27 1.915631 1_556
Fe12 O21 1.917438 1_555
Fe13 O22 1.901310 1_555
Fe13 O23 1.915942 1_555
Fe13 O7 1.927828 1_555
Fe13 O17 2.004924 1_655
Fe13 O6 2.075363 1_555
Fe13 O26 2.235949 1_555
Fe14 O16 1.837821 1_555
Fe14 O31 1.852002 1_555
Fe14 O0 1.880374 1_555
Fe14 O28 1.988124 1_555
Fe14 O17 2.028462 1_555
Fe14 O1 2.043784 1_555
Fe15 O21 1.920421 1_555
Fe15 O3 1.951787 1_555
Fe15 O19 2.014992 1_555
Fe15 O18 2.096344 1_555
Fe15 O2 2.144484 1_555
H0 O1 0.999103 1_555
H1 O2 0.976258 1_555
H2 O5 0.983508 1_555
H3 O6 0.972419 1_555
H4 O8 0.995417 1_545
H5 O10 0.971944 1_565
H6 O12 0.984751 1_555
H7 O13 0.980667 1_555
H8 O14 0.972497 1_555
H9 O18 0.973869 1_555
H10 O20 0.994775 1_555
H11 O25 1.006041 1_555
H12 O26 0.965142 1_555
H13 O28 0.975265 1_555
H14 O29 0.988874 1_555
H15 O30 0.970308 1_555
