# generated using pymatgen
data_Na2Cu(HO)4
_symmetry_space_group_name_H-M   'P 1'
_cell_length_a   6.73428000
_cell_length_b   6.73945300
_cell_length_c   9.06177000
_cell_angle_alpha   90.00000000
_cell_angle_beta   90.00000000
_cell_angle_gamma   90.00000000
_symmetry_Int_Tables_number   1
_chemical_formula_structural   Na2Cu(HO)4
_chemical_formula_sum   'Na8 Cu4 H16 O16'
_cell_volume   411.27172585
_cell_formula_units_Z   4
loop_
 _symmetry_equiv_pos_site_id
 _symmetry_equiv_pos_as_xyz
  1  'x, y, z'
loop_
 _atom_site_type_symbol
 _atom_site_label
 _atom_site_symmetry_multiplicity
 _atom_site_fract_x
 _atom_site_fract_y
 _atom_site_fract_z
 _atom_site_occupancy
  Na  Na0  1  0.79152500  0.00148700  0.74893100  1
  Na  Na1  1  0.20847500  0.99851300  0.24893100  1
  Na  Na2  1  0.29152500  0.49851300  0.24893100  1
  Na  Na3  1  0.70847500  0.50148700  0.74893100  1
  Na  Na4  1  0.49612100  0.75159300  0.49817500  1
  Na  Na5  1  0.50387900  0.24840700  0.99817500  1
  Na  Na6  1  0.99612100  0.74840700  0.99817500  1
  Na  Na7  1  0.00387900  0.25159300  0.49817500  1
  Cu  Cu0  1  0.49693500  0.76386100  0.99936200  1
  Cu  Cu1  1  0.50306500  0.23613900  0.49936200  1
  Cu  Cu2  1  0.99693500  0.73613900  0.49936200  1
  Cu  Cu3  1  0.00306500  0.26386100  0.99936200  1
  H  H0  1  0.53845600  0.09041100  0.25592500  1
  H  H1  1  0.46154400  0.90958900  0.75592500  1
  H  H2  1  0.03845600  0.40958900  0.75592500  1
  H  H3  1  0.96154400  0.59041100  0.25592500  1
  H  H4  1  0.16095900  0.74561000  0.73745200  1
  H  H5  1  0.83904100  0.25439000  0.23745200  1
  H  H6  1  0.66095900  0.75439000  0.23745200  1
  H  H7  1  0.33904100  0.24561000  0.73745200  1
  H  H8  1  0.23548300  0.98985500  0.59511900  1
  H  H9  1  0.76451700  0.01014500  0.09511900  1
  H  H10  1  0.73548300  0.51014500  0.09511900  1
  H  H11  1  0.26451700  0.48985500  0.59511900  1
  H  H12  1  0.25050700  0.99986300  0.90427100  1
  H  H13  1  0.74949300  0.00013700  0.40427100  1
  H  H14  1  0.75050700  0.50013700  0.40427100  1
  H  H15  1  0.24949300  0.49986300  0.90427100  1
  O  O0  1  0.48452400  0.76748900  0.77700000  1
  O  O1  1  0.51547600  0.23251100  0.27700000  1
  O  O2  1  0.98452400  0.73251100  0.27700000  1
  O  O3  1  0.01547600  0.26748900  0.77700000  1
  O  O4  1  0.52067900  0.78974600  0.22031200  1
  O  O5  1  0.47932100  0.21025400  0.72031200  1
  O  O6  1  0.02067900  0.71025400  0.72031200  1
  O  O7  1  0.97932100  0.28974600  0.22031200  1
  O  O8  1  0.69822600  0.55129900  0.99567800  1
  O  O9  1  0.30177400  0.44870100  0.49567800  1
  O  O10  1  0.19822600  0.94870100  0.49567800  1
  O  O11  1  0.80177400  0.05129900  0.99567800  1
  O  O12  1  0.28478000  0.96319500  0.00597600  1
  O  O13  1  0.71522000  0.03680500  0.50597600  1
  O  O14  1  0.78478000  0.53680500  0.50597600  1
  O  O15  1  0.21522000  0.46319500  0.00597600  1
loop_
_geom_bond_atom_site_label_1
_geom_bond_atom_site_label_2
_geom_bond_distance
_geom_bond_site_symmetry_2
Na0 O11 2.262079 1_555
Na0 O13 2.273271 1_555
Na0 O3 2.356483 1_655
Na0 O6 2.510194 1_645
Na0 O5 2.543072 1_555
Na1 O10 2.262079 1_555
Na1 O12 2.273271 1_555
Na1 O2 2.356483 1_455
Na1 O7 2.510194 1_465
Na1 O4 2.543072 1_555
Na2 O9 2.262079 1_555
Na2 O15 2.273271 1_555
Na2 O1 2.356483 1_555
Na2 O4 2.510194 1_555
Na2 O7 2.543072 1_455
Na3 O8 2.262079 1_555
Na3 O14 2.273271 1_555
Na3 O0 2.356483 1_555
Na3 O5 2.510194 1_555
Na3 O6 2.543072 1_655
Na4 O10 2.406165 1_555
Na4 O13 2.424205 1_565
Na4 O14 2.424706 1_555
Na4 O9 2.424964 1_555
Na4 O0 2.530124 1_555
Na4 O4 2.536423 1_555
Na5 O11 2.406165 1_555
Na5 O12 2.424205 1_546
Na5 O15 2.424706 1_556
Na5 O8 2.424964 1_555
Na5 O1 2.530124 1_556
Na5 O5 2.536423 1_555
Na6 O8 2.406165 1_555
Na6 O15 2.424205 1_656
Na6 O12 2.424706 1_656
Na6 O11 2.424964 1_565
Na6 O2 2.530124 1_556
Na6 O6 2.536423 1_655
Na7 O9 2.406165 1_555
Na7 O14 2.424205 1_455
Na7 O13 2.424706 1_455
Na7 O10 2.424964 1_545
Na7 O3 2.530124 1_555
Na7 O7 2.536423 1_455
Cu0 O12 1.962024 1_556
Cu0 O8 1.972520 1_555
Cu0 O4 2.016134 1_556
Cu0 O0 2.016874 1_555
Cu1 O13 1.962024 1_555
Cu1 O9 1.972520 1_555
Cu1 O5 2.016134 1_555
Cu1 O1 2.016874 1_555
Cu2 O14 1.962024 1_555
Cu2 O10 1.972520 1_655
Cu2 O6 2.016134 1_655
Cu2 O2 2.016874 1_555
Cu3 O15 1.962024 1_556
Cu3 O11 1.972520 1_455
Cu3 O7 2.016134 1_456
Cu3 O3 2.016874 1_555
H0 O1 0.988719 1_555
H0 Na1 2.307749 1_545
H0 Na5 2.577478 1_554
H1 O0 0.988719 1_555
H1 Na0 2.307749 1_565
H1 Na4 2.577478 1_555
H2 O3 0.988719 1_555
H2 Na3 2.307749 1_455
H2 Na7 2.577478 1_555
H3 O2 0.988719 1_555
H3 Na2 2.307749 1_655
H3 Na6 2.577478 1_554
H4 O6 0.986575 1_555
H4 Na6 2.610466 1_455
H5 O7 0.986575 1_555
H5 Na7 2.610466 1_655
H6 O4 0.986575 1_555
H6 Na4 2.610466 1_555
H7 O5 0.986575 1_555
H7 Na5 2.610466 1_555
H8 O10 0.975642 1_555
H8 Na7 2.513155 1_565
H8 Na4 2.535931 1_555
H9 O11 0.975642 1_554
H9 Na6 2.513155 1_544
H9 Na5 2.535931 1_554
H10 O8 0.975642 1_554
H10 Na5 2.513155 1_554
H10 Na6 2.535931 1_554
H11 O9 0.975642 1_555
H11 Na4 2.513155 1_555
H11 Na7 2.535931 1_555
H12 O12 0.981701 1_556
H12 Na5 2.537966 1_565
H12 Na6 2.555534 1_455
H13 O13 0.981701 1_555
H13 Na4 2.537966 1_545
H13 Na7 2.555534 1_655
H14 O14 0.981701 1_555
H14 Na7 2.537966 1_655
H14 Na4 2.555534 1_555
H15 O15 0.981701 1_556
H15 Na6 2.537966 1_455
H15 Na5 2.555534 1_555
