# generated using pymatgen
data_TiNiO3
_symmetry_space_group_name_H-M   'P 1'
_cell_length_a   5.01276711
_cell_length_b   5.42244376
_cell_length_c   12.47200758
_cell_angle_alpha   93.13921939
_cell_angle_beta   90.20380297
_cell_angle_gamma   117.33718318
_symmetry_Int_Tables_number   1
_chemical_formula_structural   TiNiO3
_chemical_formula_sum   'Ti6 Ni6 O18'
_cell_volume   300.53728898
_cell_formula_units_Z   6
loop_
 _symmetry_equiv_pos_site_id
 _symmetry_equiv_pos_as_xyz
  1  'x, y, z'
loop_
 _atom_site_type_symbol
 _atom_site_label
 _atom_site_symmetry_multiplicity
 _atom_site_fract_x
 _atom_site_fract_y
 _atom_site_fract_z
 _atom_site_occupancy
  Ti  Ti0  1  0.47986044  0.93878616  0.89088072  1
  Ti  Ti1  1  0.52568413  0.04547441  0.61647448  1
  Ti  Ti2  1  0.85025807  0.71303435  0.28450826  1
  Ti  Ti3  1  0.13960530  0.28132762  0.71836880  1
  Ti  Ti4  1  0.46536383  0.94102016  0.38090618  1
  Ti  Ti5  1  0.82436622  0.60367309  0.04885375  1
  Ni  Ni0  1  0.19623771  0.39342365  0.95153161  1
  Ni  Ni1  1  0.79356336  0.59252830  0.55040060  1
  Ni  Ni2  1  0.86512907  0.73026673  0.78172691  1
  Ni  Ni3  1  0.12862782  0.26454454  0.21649833  1
  Ni  Ni4  1  0.19489669  0.39393810  0.45112169  1
  Ni  Ni5  1  0.53555409  0.06543439  0.11690318  1
  O  O0  1  0.88133790  0.09586486  0.84985270  1
  O  O1  1  0.31783941  0.00154610  0.75094768  1
  O  O2  1  0.46939398  0.22362800  0.97559958  1
  O  O3  1  0.87762046  0.42408632  0.68452928  1
  O  O4  1  0.03199979  0.67676784  0.91956936  1
  O  O5  1  0.24147563  0.77120134  0.52300387  1
  O  O6  1  0.42253163  0.55847365  0.80976236  1
  O  O7  1  0.63523407  0.66163941  0.41167296  1
  O  O8  1  0.79053197  0.90260417  0.64747514  1
  O  O9  1  0.20449222  0.08858008  0.35190977  1
  O  O10  1  0.35216136  0.32183875  0.59085381  1
  O  O11  1  0.57191352  0.44603330  0.18630036  1
  O  O12  1  0.74697472  0.21334245  0.48137380  1
  O  O13  1  0.96705780  0.34017236  0.08503006  1
  O  O14  1  0.11734209  0.57047402  0.31796403  1
  O  O15  1  0.55185805  0.76284982  0.01472244  1
  O  O16  1  0.68657828  0.99476982  0.25714906  1
  O  O17  1  0.08610739  0.88587622  0.14620725  1
loop_
_geom_bond_atom_site_label_1
_geom_bond_atom_site_label_2
_geom_bond_distance
_geom_bond_site_symmetry_2
Ni0 O13 1.984180 1_456
Ni0 O2 1.999485 1_555
Ni0 O0 2.031180 1_455
Ni0 O15 2.085436 1_556
Ni0 O4 2.103282 1_555
Ni0 O6 2.114059 1_555
Ni1 O8 2.023290 1_555
Ni1 O7 2.024451 1_555
Ni1 O5 2.034816 1_655
Ni1 O3 2.079910 1_555
Ni1 O12 2.094510 1_555
Ni1 O10 2.100229 1_555
Ni2 O4 2.001668 1_655
Ni2 O6 2.013793 1_555
Ni2 O3 2.026197 1_555
Ni2 O8 2.074740 1_555
Ni2 O0 2.079824 1_565
Ni2 O1 2.112616 1_665
Ni3 O13 1.970256 1_455
Ni3 O11 2.021409 1_555
Ni3 O14 2.052638 1_555
Ni3 O9 2.100583 1_555
Ni3 O16 2.102185 1_445
Ni3 O17 2.104664 1_545
Ni4 O9 2.030815 1_555
Ni4 O10 2.039454 1_555
Ni4 O12 2.042020 1_455
Ni4 O14 2.082515 1_555
Ni4 O7 2.089145 1_555
Ni4 O5 2.098106 1_555
Ni5 O16 2.027283 1_545
Ni5 O13 2.041434 1_555
Ni5 O17 2.046353 1_545
Ni5 O15 2.053707 1_545
Ni5 O2 2.091493 1_554
Ni5 O11 2.121152 1_555
O0 Ti0 1.875690 1_545
O0 Ti3 2.092017 1_655
O1 Ti1 1.945079 1_555
O1 Ti0 2.032275 1_545
O1 Ti3 2.138874 1_555
O2 Ti0 1.844144 1_545
O2 Ti5 2.159182 1_556
O3 Ti3 1.862142 1_655
O3 Ti1 2.125924 1_555
O4 Ti5 1.882390 1_456
O4 Ti0 2.078120 1_555
O5 Ti1 1.858176 1_565
O5 Ti4 2.119445 1_555
O6 Ti3 1.847289 1_555
O6 Ti0 2.141033 1_555
O7 Ti2 1.881365 1_555
O7 Ti4 2.100826 1_555
O8 Ti1 1.867092 1_565
O8 Ti3 2.133232 1_665
O9 Ti4 1.862896 1_545
O9 Ti2 2.118340 1_445
O10 Ti3 1.883654 1_555
O10 Ti1 2.086167 1_555
O11 Ti2 1.865863 1_555
O11 Ti5 2.110245 1_555
O12 Ti4 1.900943 1_545
O12 Ti1 2.037671 1_555
O13 Ti5 1.940024 1_555
O14 Ti2 1.883095 1_455
O14 Ti4 2.072424 1_555
O15 Ti0 1.974761 1_554
O15 Ti5 1.977678 1_555
O16 Ti4 1.860537 1_555
O16 Ti2 2.080824 1_555
O17 Ti5 1.865074 1_455
O17 Ti2 2.103629 1_455
