# generated using pymatgen
data_Gd2CdS4
_symmetry_space_group_name_H-M   'P 1'
_cell_length_a   7.33415593
_cell_length_b   7.33415593
_cell_length_c   7.33415593
_cell_angle_alpha   110.40187037
_cell_angle_beta   110.40187037
_cell_angle_gamma   107.62553760
_symmetry_Int_Tables_number   1
_chemical_formula_structural   Gd2CdS4
_chemical_formula_sum   'Gd4 Cd2 S8'
_cell_volume   303.45321544
_cell_formula_units_Z   2
loop_
 _symmetry_equiv_pos_site_id
 _symmetry_equiv_pos_as_xyz
  1  'x, y, z'
loop_
 _atom_site_type_symbol
 _atom_site_label
 _atom_site_symmetry_multiplicity
 _atom_site_fract_x
 _atom_site_fract_y
 _atom_site_fract_z
 _atom_site_occupancy
  Gd  Gd0  1  0.01428100  0.62500000  0.88928100  1
  Gd  Gd1  1  0.87500000  0.98571900  0.61071900  1
  Gd  Gd2  1  0.73571900  0.12500000  0.11071900  1
  Gd  Gd3  1  0.37500000  0.26428100  0.38928100  1
  Cd  Cd0  1  0.50000000  0.50000000  0.00000000  1
  Cd  Cd1  1  0.25000000  0.75000000  0.50000000  1
  S  S0  1  0.11520300  0.37656500  0.12569500  1
  S  S1  1  0.12656500  0.36520300  0.62569500  1
  S  S2  1  0.62343500  0.74913000  0.73863800  1
  S  S3  1  0.01049200  0.88479700  0.26136200  1
  S  S4  1  0.73950800  0.50087000  0.37430500  1
  S  S5  1  0.63479700  0.26049200  0.76136200  1
  S  S6  1  0.49913000  0.87343500  0.23863800  1
  S  S7  1  0.25087000  0.98950800  0.87430500  1
loop_
_geom_bond_atom_site_label_1
_geom_bond_atom_site_label_2
_geom_bond_distance
_geom_bond_site_symmetry_2
Gd0 S1 2.745527 1_555
Gd0 S3 2.745527 1_556
Gd0 S5 2.774559 1_455
Gd0 S7 2.774559 1_555
Gd0 S6 2.999794 1_556
Gd0 S0 2.999794 1_556
Gd0 S4 3.215589 1_455
Gd0 S2 3.215589 1_455
Gd1 S7 2.745527 1_655
Gd1 S6 2.745527 1_555
Gd1 S1 2.774559 1_665
Gd1 S2 2.774559 1_555
Gd1 S3 2.999794 1_655
Gd1 S4 2.999794 1_555
Gd1 S0 3.215589 1_666
Gd1 S5 3.215589 1_565
Gd2 S2 2.745527 1_544
Gd2 S4 2.745527 1_555
Gd2 S0 2.774559 1_655
Gd2 S6 2.774559 1_545
Gd2 S7 2.999794 1_544
Gd2 S5 2.999794 1_554
Gd2 S1 3.215589 1_655
Gd2 S3 3.215589 1_645
Gd3 S5 2.745527 1_555
Gd3 S0 2.745527 1_555
Gd3 S4 2.774559 1_555
Gd3 S3 2.774559 1_545
Gd3 S1 2.999794 1_555
Gd3 S2 2.999794 1_555
Gd3 S7 3.215589 1_544
Gd3 S6 3.215589 1_545
Cd0 S5 2.690866 1_554
Cd0 S6 2.690866 1_555
Cd0 S4 2.690866 1_555
Cd0 S1 2.690866 1_554
Cd1 S3 2.690866 1_555
Cd1 S2 2.690866 1_555
Cd1 S0 2.690866 1_555
Cd1 S7 2.690866 1_555
