# generated using pymatgen
data_Cs2NpBr6
_symmetry_space_group_name_H-M   'P 1'
_cell_length_a   7.92902430
_cell_length_b   7.92902878
_cell_length_c   7.85017236
_cell_angle_alpha   60.32841197
_cell_angle_beta   60.32845054
_cell_angle_gamma   59.34313591
_symmetry_Int_Tables_number   1
_chemical_formula_structural   Cs2NpBr6
_chemical_formula_sum   'Cs2 Np1 Br6'
_cell_volume   348.91437614
_cell_formula_units_Z   1
loop_
 _symmetry_equiv_pos_site_id
 _symmetry_equiv_pos_as_xyz
  1  'x, y, z'
loop_
 _atom_site_type_symbol
 _atom_site_label
 _atom_site_symmetry_multiplicity
 _atom_site_fract_x
 _atom_site_fract_y
 _atom_site_fract_z
 _atom_site_occupancy
  Cs  Cs0  1  0.25000000  0.25000000  0.25000000  1
  Cs  Cs1  1  0.75000000  0.75000000  0.75000000  1
  Np  Np0  1  0.00000000  -0.00000000  0.00000000  1
  Br  Br0  1  0.24715658  0.75284342  0.75284342  1
  Br  Br1  1  0.75284342  0.24715658  0.24715658  1
  Br  Br2  1  0.75284542  0.24715458  0.75284542  1
  Br  Br3  1  0.24715458  0.75284542  0.24715458  1
  Br  Br4  1  0.24653685  0.24653685  0.75346315  1
  Br  Br5  1  0.75346315  0.75346315  0.24653685  1
loop_
_geom_bond_atom_site_label_1
_geom_bond_atom_site_label_2
_geom_bond_distance
_geom_bond_site_symmetry_2
Br0 Np0 2.743889 1_566
Br0 Cs1 3.964638 1_555
Br0 Cs1 3.964638 1_455
Br0 Cs0 3.964638 1_565
Br0 Cs0 3.964638 1_556
Br1 Np0 2.743889 1_655
Br1 Cs0 3.964638 1_555
Br1 Cs0 3.964638 1_655
Br1 Cs1 3.964638 1_545
Br1 Cs1 3.964638 1_554
Br2 Np0 2.743865 1_656
Br2 Cs0 3.964639 1_655
Br2 Cs0 3.964639 1_556
Br2 Cs1 3.964640 1_545
Br2 Cs1 3.964640 1_555
Br3 Np0 2.743865 1_565
Br3 Cs1 3.964639 1_455
Br3 Cs1 3.964639 1_554
Br3 Cs0 3.964640 1_565
Br3 Cs0 3.964640 1_555
Br4 Np0 2.791723 1_556
Br4 Cs0 3.925282 1_555
Br4 Cs0 3.925282 1_556
Br4 Cs1 3.925283 1_545
Br4 Cs1 3.925283 1_455
Br5 Np0 2.791723 1_665
Br5 Cs1 3.925282 1_555
Br5 Cs1 3.925282 1_554
Br5 Cs0 3.925283 1_565
Br5 Cs0 3.925283 1_655
