# generated using pymatgen
data_CsCdCl3
_symmetry_space_group_name_H-M   'P 1'
_cell_length_a   7.46646916
_cell_length_b   7.46641652
_cell_length_c   18.57527651
_cell_angle_alpha   90.00006120
_cell_angle_beta   89.99979472
_cell_angle_gamma   119.99985708
_symmetry_Int_Tables_number   1
_chemical_formula_structural   CsCdCl3
_chemical_formula_sum   'Cs6 Cd6 Cl18'
_cell_volume   896.79676696
_cell_formula_units_Z   6
loop_
 _symmetry_equiv_pos_site_id
 _symmetry_equiv_pos_as_xyz
  1  'x, y, z'
loop_
 _atom_site_type_symbol
 _atom_site_label
 _atom_site_symmetry_multiplicity
 _atom_site_fract_x
 _atom_site_fract_y
 _atom_site_fract_z
 _atom_site_occupancy
  Cs  Cs0  1  0.33333340  0.66666658  0.08793351  1
  Cs  Cs1  1  0.66666782  0.33333319  0.91206429  1
  Cs  Cs2  1  0.66666733  0.33333308  0.58793282  1
  Cs  Cs3  1  0.00000073  -0.00000006  0.24999971  1
  Cs  Cs4  1  0.33333361  0.66666667  0.41206573  1
  Cs  Cs5  1  0.00000071  0.00000050  0.74999927  1
  Cd  Cd0  1  0.66666679  0.33333322  0.33975237  1
  Cd  Cd1  1  0.33330749  0.66665658  0.66024816  1
  Cd  Cd2  1  0.66666666  0.33333321  0.16024402  1
  Cd  Cd3  1  0.00000268  0.00000276  0.49999870  1
  Cd  Cd4  1  0.33333348  0.66666430  0.83975563  1
  Cd  Cd5  1  0.00000017  -0.00000071  0.00000053  1
  Cl  Cl0  1  0.83439060  0.16560973  0.08186059  1
  Cl  Cl1  1  0.83439071  0.66878016  0.08186060  1
  Cl  Cl2  1  0.83439187  0.16560851  0.41813937  1
  Cl  Cl3  1  0.16561097  0.33122021  0.58186040  1
  Cl  Cl4  1  0.83439257  0.66878320  0.41813947  1
  Cl  Cl5  1  0.98690947  0.49345456  0.24999963  1
  Cl  Cl6  1  0.33122006  0.16560932  0.08186060  1
  Cl  Cl7  1  0.50654557  0.49345482  0.24999961  1
  Cl  Cl8  1  0.33121772  0.16560847  0.41813952  1
  Cl  Cl9  1  0.66878213  0.83439093  0.91813908  1
  Cl  Cl10  1  0.16561016  0.83439060  0.91813921  1
  Cl  Cl11  1  0.16560958  0.83439178  0.58185962  1
  Cl  Cl12  1  0.66878949  0.83439447  0.58185991  1
  Cl  Cl13  1  0.50654571  0.01309040  0.24999938  1
  Cl  Cl14  1  0.16560960  0.33121825  0.91813931  1
  Cl  Cl15  1  0.49345891  0.98691634  0.75000418  1
  Cl  Cl16  1  0.49345727  0.50654420  0.75000337  1
  Cl  Cl17  1  0.01308776  0.50654373  0.75000339  1
loop_
_geom_bond_atom_site_label_1
_geom_bond_atom_site_label_2
_geom_bond_distance
_geom_bond_site_symmetry_2
Cd0 Cl4 2.612458 1_555
Cd0 Cl2 2.612461 1_555
Cd0 Cl8 2.612461 1_555
Cd0 Cl13 2.658463 1_555
Cd0 Cl7 2.658465 1_555
Cd0 Cl5 2.658466 1_555
Cd1 Cl11 2.612387 1_555
Cd1 Cl3 2.612392 1_555
Cd1 Cl12 2.612649 1_555
Cd1 Cl17 2.658379 1_555
Cd1 Cl15 2.658584 1_555
Cd1 Cl16 2.658591 1_555
Cd2 Cl1 2.612402 1_555
Cd2 Cl0 2.612404 1_555
Cd2 Cl6 2.612418 1_555
Cd2 Cl13 2.658489 1_555
Cd2 Cl7 2.658491 1_555
Cd2 Cl5 2.658509 1_555
Cd3 Cl8 2.626577 1_555
Cd3 Cl2 2.626584 1_455
Cd3 Cl12 2.626589 1_445
Cd3 Cl4 2.626594 1_445
Cd3 Cl11 2.626608 1_545
Cd3 Cl3 2.626610 1_555
Cd4 Cl14 2.612399 1_555
Cd4 Cl10 2.612418 1_555
Cd4 Cl9 2.612429 1_555
Cd4 Cl16 2.658458 1_555
Cd4 Cl17 2.658484 1_555
Cd4 Cl15 2.658490 1_555
Cd5 Cl1 2.626599 1_445
Cd5 Cl0 2.626604 1_455
Cd5 Cl10 2.626610 1_544
Cd5 Cl14 2.626610 1_554
Cd5 Cl6 2.626621 1_555
Cd5 Cl9 2.626626 1_444
Cl0 Cs0 3.734957 1_655
Cl0 Cs0 3.734960 1_545
Cl0 Cs3 3.787020 1_655
Cl0 Cs1 3.827866 1_554
Cl1 Cs0 3.734960 1_655
Cl1 Cs0 3.734967 1_555
Cl1 Cs3 3.787015 1_665
Cl1 Cs1 3.827864 1_554
Cl2 Cs4 3.734958 1_655
Cl2 Cs4 3.734960 1_545
Cl2 Cs3 3.787010 1_655
Cl2 Cs2 3.827823 1_555
Cl3 Cs2 3.734963 1_555
Cl3 Cs2 3.734963 1_455
Cl3 Cs5 3.787008 1_555
Cl3 Cs4 3.827834 1_555
Cl4 Cs4 3.734958 1_655
Cl4 Cs4 3.734970 1_555
Cl4 Cs3 3.787011 1_665
Cl4 Cs2 3.827827 1_555
Cl5 Cs3 3.734166 1_665
Cl5 Cs3 3.734170 1_655
Cl5 Cs0 3.752379 1_655
Cl5 Cs4 3.752392 1_655
Cl6 Cs0 3.734933 1_545
Cl6 Cs0 3.734941 1_555
Cl6 Cs3 3.787014 1_555
Cl6 Cs1 3.827868 1_554
Cl7 Cs3 3.734189 1_555
Cl7 Cs3 3.734189 1_665
Cl7 Cs4 3.752372 1_555
Cl7 Cs0 3.752382 1_555
Cl8 Cs4 3.734936 1_545
Cl8 Cs4 3.734940 1_555
Cl8 Cs3 3.787029 1_555
Cl8 Cs2 3.827841 1_555
Cl9 Cs1 3.734934 1_565
Cl9 Cs1 3.734942 1_555
Cl9 Cs5 3.787022 1_665
Cl9 Cs0 3.827842 1_556
Cl10 Cs1 3.734959 1_455
Cl10 Cs1 3.734960 1_565
Cl10 Cs5 3.787031 1_565
Cl10 Cs0 3.827839 1_556
Cl11 Cs2 3.734955 1_565
Cl11 Cs2 3.734962 1_455
Cl11 Cs5 3.787011 1_565
Cl11 Cs4 3.827830 1_555
Cl12 Cs2 3.734935 1_565
Cl12 Cs2 3.734940 1_555
Cl12 Cs5 3.787001 1_665
Cl12 Cs4 3.827877 1_555
Cl13 Cs3 3.734193 1_555
Cl13 Cs3 3.734195 1_655
Cl13 Cs0 3.752373 1_545
Cl13 Cs4 3.752377 1_545
Cl14 Cs1 3.734959 1_455
Cl14 Cs1 3.734970 1_555
Cl14 Cs5 3.787022 1_555
Cl14 Cs0 3.827837 1_556
Cl15 Cs5 3.734192 1_665
Cl15 Cs5 3.734195 1_565
Cl15 Cs1 3.752260 1_565
Cl15 Cs2 3.752425 1_565
Cl16 Cs5 3.734188 1_665
Cl16 Cs5 3.734189 1_555
Cl16 Cs1 3.752296 1_555
Cl16 Cs2 3.752428 1_555
Cl17 Cs5 3.734165 1_555
Cl17 Cs5 3.734170 1_565
Cl17 Cs1 3.752286 1_455
Cl17 Cs2 3.752444 1_455
