# generated using pymatgen
data_U4Ga20Ni11
_symmetry_space_group_name_H-M   'P 1'
_cell_length_a   4.12243147
_cell_length_b   10.57140799
_cell_length_c   12.88068800
_cell_angle_alpha   80.93566873
_cell_angle_beta   80.83423418
_cell_angle_gamma   78.80059416
_symmetry_Int_Tables_number   1
_chemical_formula_structural   U4Ga20Ni11
_chemical_formula_sum   'U4 Ga20 Ni11'
_cell_volume   538.95328720
_cell_formula_units_Z   1
loop_
 _symmetry_equiv_pos_site_id
 _symmetry_equiv_pos_as_xyz
  1  'x, y, z'
loop_
 _atom_site_type_symbol
 _atom_site_label
 _atom_site_symmetry_multiplicity
 _atom_site_fract_x
 _atom_site_fract_y
 _atom_site_fract_z
 _atom_site_occupancy
  U  U0  1  0.12013100  0.09346500  0.66945000  1
  U  U1  1  0.22943600  0.36696700  0.17727900  1
  U  U2  1  0.77778800  0.63198900  0.82228800  1
  U  U3  1  0.88832900  0.90365300  0.33089000  1
  Ga  Ga0  1  0.06982500  0.66611700  0.20318500  1
  Ga  Ga1  1  0.30134500  0.90268900  0.50029100  1
  Ga  Ga2  1  0.60270600  0.79570700  0.00377600  1
  Ga  Ga3  1  0.25756600  0.79344200  0.70216000  1
  Ga  Ga4  1  0.89004500  0.67075800  0.54851800  1
  Ga  Ga5  1  0.74656800  0.20590400  0.29792300  1
  Ga  Ga6  1  0.63248300  0.93953000  0.80671500  1
  Ga  Ga7  1  0.70098200  0.09777700  0.49884100  1
  Ga  Ga8  1  0.40286700  0.20597700  0.99511800  1
  Ga  Ga9  1  0.93424500  0.33534300  0.79408700  1
  Ga  Ga10  1  0.46401300  0.70294100  0.37750300  1
  Ga  Ga11  1  0.99842900  0.92241200  0.08838200  1
  Ga  Ga12  1  0.80417600  0.39218700  0.00258600  1
  Ga  Ga13  1  0.54300400  0.29554000  0.62153700  1
  Ga  Ga14  1  0.00611100  0.08047900  0.91021100  1
  Ga  Ga15  1  0.19953900  0.60731100  0.99767400  1
  Ga  Ga16  1  0.10555800  0.32923200  0.45082200  1
  Ga  Ga17  1  0.37861900  0.06005000  0.19487500  1
  Ga  Ga18  1  0.61349100  0.47131700  0.30801500  1
  Ga  Ga19  1  0.39555400  0.52847000  0.69002700  1
  Ni  Ni0  1  0.13974800  0.83871800  0.89338700  1
  Ni  Ni1  1  0.50063300  0.18034600  0.80826500  1
  Ni  Ni2  1  0.87167100  0.16039300  0.10620200  1
  Ni  Ni3  1  0.97891400  0.43641600  0.61080000  1
  Ni  Ni4  1  0.50315800  0.49887000  0.49898200  1
  Ni  Ni5  1  0.65914900  0.57605600  0.11281600  1
  Ni  Ni6  1  0.02739100  0.56380500  0.38733500  1
  Ni  Ni7  1  0.34334200  0.42595800  0.88636300  1
  Ni  Ni8  1  0.24471100  0.11958700  0.38612100  1
  Ni  Ni9  1  0.50129000  0.82067900  0.19028500  1
  Ni  Ni10  1  0.75598900  0.88184000  0.61293100  1
loop_
_geom_bond_atom_site_label_1
_geom_bond_atom_site_label_2
_geom_bond_distance
_geom_bond_site_symmetry_2
Ga0 Ni6 2.441241 1_555
Ga0 Ni5 2.591016 1_555
Ga0 Ni5 2.594357 1_455
Ga0 Ni9 2.596432 1_455
Ga0 Ni9 2.609658 1_555
Ga0 Ga15 2.760089 1_554
Ga0 Ga11 2.860182 1_455
Ga0 U3 3.122618 1_455
Ga0 U1 3.162207 1_555
Ga1 Ni10 2.502110 1_455
Ga1 Ni10 2.504297 1_555
Ga1 Ni8 2.512686 1_565
Ga1 Ga3 2.666968 1_555
Ga1 Ga7 2.875016 1_565
Ga1 Ga7 2.898089 1_465
Ga1 U3 2.971534 1_455
Ga1 U3 2.989503 1_555
Ga1 U0 3.107050 1_565
Ga2 Ni9 2.419259 1_555
Ga2 Ni0 2.488908 1_554
Ga2 Ni5 2.507033 1_555
Ga2 Ni0 2.512843 1_654
Ga2 Ga6 2.743507 1_554
Ga2 U2 3.038619 1_554
Ga3 Ni10 2.463978 1_555
Ga3 Ni10 2.477458 1_455
Ga3 Ni0 2.536150 1_555
Ga3 U2 2.951231 1_555
Ga3 U2 2.953547 1_455
Ga3 Ga6 2.972066 1_555
Ga3 Ga6 2.973690 1_455
Ga3 U0 3.084631 1_565
Ga4 Ni10 2.435432 1_555
Ga4 Ni6 2.454748 1_655
Ga4 Ni3 2.455569 1_555
Ga4 Ni4 2.840424 1_555
Ga4 Ni4 2.857411 1_655
Ga4 U3 3.427028 1_555
Ga5 Ni8 2.455417 1_655
Ga5 Ni8 2.461990 1_555
Ga5 Ni2 2.543246 1_555
Ga5 Ga7 2.652519 1_555
Ga5 U1 2.944552 1_555
Ga5 U1 2.962053 1_655
Ga5 U3 3.107646 1_545
Ga6 Ni0 2.500344 1_555
Ga6 Ni1 2.500360 1_565
Ga6 Ni0 2.501650 1_655
Ga6 Ni10 2.610687 1_555
Ga6 U0 3.007878 1_665
Ga6 U0 3.030401 1_565
Ga6 U2 3.169428 1_555
Ga7 Ni8 2.498785 1_655
Ga7 Ni10 2.504014 1_545
Ga7 Ni8 2.509036 1_555
Ga7 U0 2.983202 1_555
Ga7 U0 2.994094 1_655
Ga7 U3 3.120691 1_545
Ga8 Ni1 2.425396 1_555
Ga8 Ni2 2.503851 1_456
Ga8 Ni7 2.508377 1_555
Ga8 Ni2 2.513255 1_556
Ga8 U1 3.027230 1_556
Ga9 Ni3 2.427416 1_555
Ga9 Ni1 2.593322 1_655
Ga9 Ni7 2.606558 1_555
Ga9 Ni7 2.607573 1_655
Ga9 Ni1 2.617804 1_555
Ga9 U0 3.137377 1_655
Ga9 U2 3.143378 1_555
Ga10 Ni4 2.451540 1_555
Ga10 Ni6 2.506286 1_655
Ga10 Ni6 2.513239 1_555
Ga10 Ni9 2.529548 1_555
Ga10 U3 2.931080 1_455
Ga10 U3 2.937353 1_555
Ga11 Ni2 2.507596 1_565
Ga11 Ni9 2.575655 1_555
Ga11 Ni9 2.594785 1_655
Ga11 Ga14 2.617091 1_664
Ga11 Ni0 2.732123 1_654
Ga11 Ga2 2.736095 1_655
Ga11 Ga2 2.741923 1_555
Ga11 Ga17 2.931800 1_565
Ga11 Ga17 2.941897 1_665
Ga11 U3 3.064433 1_555
Ga12 Ni5 2.509839 1_555
Ga12 Ni7 2.527573 1_654
Ga12 Ni7 2.540045 1_554
Ga12 Ni2 2.585751 1_555
Ga12 Ga9 2.790285 1_554
Ga12 Ga8 2.827823 1_554
Ga12 Ga8 2.841194 1_654
Ga12 U1 3.015602 1_655
Ga12 U1 3.017599 1_555
Ga12 Ga15 3.031786 1_554
Ga12 Ga15 3.032140 1_654
Ga12 U2 3.154363 1_554
Ga13 Ni4 2.452659 1_555
Ga13 Ni1 2.514813 1_555
Ga13 Ni3 2.517322 1_455
Ga13 Ni3 2.522252 1_555
Ga13 Ga7 2.734383 1_555
Ga13 U0 2.944775 1_555
Ga13 U0 2.946668 1_655
Ga14 Ni0 2.543990 1_545
Ga14 Ni1 2.557598 1_555
Ga14 Ni1 2.600285 1_455
Ga14 Ni2 2.727329 1_456
Ga14 Ga8 2.729405 1_455
Ga14 Ga8 2.738859 1_555
Ga14 Ga9 2.854029 1_455
Ga14 Ga6 2.922543 1_445
Ga14 Ga6 2.949514 1_545
Ga14 U0 3.046893 1_555
Ga15 Ni7 2.497284 1_555
Ga15 Ni5 2.520011 1_456
Ga15 Ni5 2.529103 1_556
Ga15 Ni0 2.585616 1_555
Ga15 Ga2 2.847899 1_456
Ga15 Ga2 2.848118 1_556
Ga15 U2 3.013942 1_455
Ga15 U2 3.032204 1_555
Ga15 U1 3.152753 1_556
Ga16 Ni8 2.423047 1_555
Ga16 Ni3 2.442497 1_455
Ga16 Ni6 2.460978 1_555
Ga16 Ni4 2.810274 1_455
Ga16 Ni4 2.846683 1_555
Ga16 U0 3.454002 1_555
Ga17 Ni9 2.490608 1_545
Ga17 Ni2 2.505455 1_555
Ga17 Ni2 2.512936 1_455
Ga17 Ni8 2.586395 1_555
Ga17 Ga8 2.781626 1_554
Ga17 Ga5 2.938502 1_555
Ga17 Ga5 2.985085 1_455
Ga17 U3 3.021385 1_545
Ga17 U3 3.024134 1_445
Ga17 U1 3.161370 1_555
Ga18 Ni4 2.481960 1_555
Ga18 Ni6 2.535619 1_655
Ga18 Ni6 2.539348 1_555
Ga18 Ni5 2.576064 1_555
Ga18 Ga5 2.772110 1_555
Ga18 U1 2.938563 1_655
Ga18 U1 2.944897 1_555
Ga19 Ni4 2.488197 1_555
Ga19 Ni3 2.528589 1_555
Ga19 Ni3 2.541465 1_455
Ga19 Ni7 2.582623 1_555
Ga19 Ga3 2.772179 1_555
Ga19 U2 2.948779 1_555
Ga19 U2 2.950964 1_455
Ni0 U2 3.188010 1_555
Ni0 U2 3.189665 1_455
Ni1 U0 2.910620 1_555
Ni1 U0 2.951992 1_655
Ni2 U1 3.177028 1_655
Ni2 U1 3.198208 1_555
Ni3 Ni4 2.538492 1_655
Ni3 Ni4 2.540521 1_555
Ni4 Ni6 2.539809 1_555
Ni4 Ni6 2.546535 1_655
Ni5 U1 3.021134 1_655
Ni5 U1 3.031064 1_555
Ni7 U2 2.989113 1_455
Ni7 U2 3.018370 1_555
Ni8 U3 3.165878 1_445
Ni8 U3 3.211608 1_545
Ni9 U3 2.925745 1_555
Ni9 U3 2.935337 1_455
Ni10 U0 3.155038 1_665
Ni10 U0 3.167540 1_565
