# generated using pymatgen
data_V2CuBr
_symmetry_space_group_name_H-M   'P 1'
_cell_length_a   4.32110974
_cell_length_b   4.32110974
_cell_length_c   4.32110974
_cell_angle_alpha   60.00000000
_cell_angle_beta   60.00000000
_cell_angle_gamma   60.00000000
_symmetry_Int_Tables_number   1
_chemical_formula_structural   V2CuBr
_chemical_formula_sum   'V2 Cu1 Br1'
_cell_volume   57.05200218
_cell_formula_units_Z   1
loop_
 _symmetry_equiv_pos_site_id
 _symmetry_equiv_pos_as_xyz
  1  'x, y, z'
loop_
 _atom_site_type_symbol
 _atom_site_label
 _atom_site_symmetry_multiplicity
 _atom_site_fract_x
 _atom_site_fract_y
 _atom_site_fract_z
 _atom_site_occupancy
  V  V0  1  0.75000000  0.75000000  0.75000000  1
  V  V1  1  0.25000000  0.25000000  0.25000000  1
  Cu  Cu0  1  0.50000000  0.50000000  0.50000000  1
  Br  Br0  1  0.00000000  0.00000000  0.00000000  1
loop_
_geom_bond_atom_site_label_1
_geom_bond_atom_site_label_2
_geom_bond_distance
_geom_bond_site_symmetry_2
Cu0 V0 2.646128 1_455
Cu0 V1 2.646128 1_565
Cu0 V0 2.646128 1_545
Cu0 V0 2.646128 1_555
Cu0 V1 2.646128 1_655
Cu0 V0 2.646128 1_554
Cu0 V1 2.646128 1_555
Cu0 V1 2.646128 1_556
Br0 V0 2.646128 1_445
Br0 V0 2.646128 1_444
Br0 V1 2.646128 1_554
Br0 V0 2.646128 1_544
Br0 V1 2.646128 1_545
Br0 V1 2.646128 1_555
Br0 V1 2.646128 1_455
Br0 V0 2.646128 1_454
Br0 Cu0 3.055486 1_545
Br0 Cu0 3.055486 1_544
Br0 Cu0 3.055486 1_554
Br0 Cu0 3.055486 1_454
Br0 Cu0 3.055486 1_445
Br0 Cu0 3.055486 1_455
