# generated using pymatgen
data_Zr4CdO9
_symmetry_space_group_name_H-M   'P 1'
_cell_length_a   16.88440222
_cell_length_b   16.88440222
_cell_length_c   6.11260378
_cell_angle_alpha   88.94133497
_cell_angle_beta   88.94133497
_cell_angle_gamma   11.91900221
_symmetry_Int_Tables_number   1
_chemical_formula_structural   Zr4CdO9
_chemical_formula_sum   'Zr8 Cd2 O18'
_cell_volume   359.83473439
_cell_formula_units_Z   2
loop_
 _symmetry_equiv_pos_site_id
 _symmetry_equiv_pos_as_xyz
  1  'x, y, z'
loop_
 _atom_site_type_symbol
 _atom_site_label
 _atom_site_symmetry_multiplicity
 _atom_site_fract_x
 _atom_site_fract_y
 _atom_site_fract_z
 _atom_site_occupancy
  Zr  Zr0  1  0.41161000  0.41161000  0.68922800  1
  Zr  Zr1  1  0.89403400  0.89403400  0.18888900  1
  Zr  Zr2  1  0.58839000  0.58839000  0.31077200  1
  Zr  Zr3  1  0.10596600  0.10596600  0.81111100  1
  Zr  Zr4  1  0.20744900  0.20744900  0.10973300  1
  Zr  Zr5  1  0.79255100  0.79255100  0.89026700  1
  Zr  Zr6  1  0.69150500  0.69150500  0.59397700  1
  Zr  Zr7  1  0.30849500  0.30849500  0.40602300  1
  Cd  Cd0  1  0.00000000  0.00000000  0.50000000  1
  Cd  Cd1  1  0.50000000  0.50000000  0.00000000  1
  O  O0  1  0.93115500  0.93115500  0.45988100  1
  O  O1  1  0.42345000  0.42345000  0.06873900  1
  O  O2  1  0.52556700  0.52556700  0.29645000  1
  O  O3  1  0.11201200  0.11201200  0.17214000  1
  O  O4  1  0.62924300  0.62924300  0.58601600  1
  O  O5  1  0.73005700  0.73005700  0.87782700  1
  O  O6  1  0.47443300  0.47443300  0.70355000  1
  O  O7  1  0.57655000  0.57655000  0.93126100  1
  O  O8  1  0.31759300  0.31759300  0.76720300  1
  O  O9  1  0.16914400  0.16914400  0.82718800  1
  O  O10  1  0.06884500  0.06884500  0.54011900  1
  O  O11  1  0.21629800  0.21629800  0.46974500  1
  O  O12  1  0.78370200  0.78370200  0.53025500  1
  O  O13  1  0.68240700  0.68240700  0.23279700  1
  O  O14  1  0.83085600  0.83085600  0.17281200  1
  O  O15  1  0.26994300  0.26994300  0.12217300  1
  O  O16  1  0.37075700  0.37075700  0.41398400  1
  O  O17  1  0.88798800  0.88798800  0.82786000  1
loop_
_geom_bond_atom_site_label_1
_geom_bond_atom_site_label_2
_geom_bond_distance
_geom_bond_site_symmetry_2
Cd0 O6 2.306269 1_545
Cd0 O2 2.306269 1_455
Cd0 O6 2.306269 1_455
Cd0 O2 2.306269 1_545
Cd0 O10 2.329743 1_555
Cd0 O0 2.329743 1_445
Cd1 O6 2.019608 1_554
Cd1 O2 2.019608 1_555
Cd1 O1 2.597424 1_555
Cd1 O7 2.597424 1_554
O0 Zr1 2.091653 1_555
O0 Zr0 2.331349 1_655
O0 Zr0 2.331349 1_565
O1 Zr1 2.135800 1_455
O1 Zr1 2.135800 1_545
O1 Zr0 2.360907 1_554
O2 Zr2 2.113432 1_555
O3 Zr2 2.096587 1_455
O3 Zr2 2.096587 1_545
O3 Zr3 2.219903 1_554
O4 Zr6 2.092620 1_555
O4 Zr2 2.190683 1_555
O4 Zr3 2.353188 1_565
O4 Zr3 2.353188 1_655
O5 Zr5 2.101730 1_555
O5 Zr6 2.184140 1_555
O5 Zr4 2.370472 1_656
O5 Zr4 2.370472 1_566
O6 Zr0 2.113432 1_555
O7 Zr3 2.135800 1_655
O7 Zr3 2.135800 1_565
O7 Zr2 2.360907 1_556
O8 Zr5 2.079152 1_455
O8 Zr5 2.079152 1_545
O8 Zr7 2.234412 1_555
O9 Zr3 2.126013 1_555
O9 Zr4 2.172675 1_556
O9 Zr6 2.372657 1_545
O9 Zr6 2.372657 1_455
O10 Zr3 2.091653 1_555
O10 Zr2 2.331349 1_545
O10 Zr2 2.331349 1_455
O11 Zr6 2.078384 1_545
O11 Zr6 2.078384 1_455
O11 Zr4 2.226054 1_555
O12 Zr7 2.078384 1_565
O12 Zr7 2.078384 1_655
O12 Zr5 2.226054 1_555
O13 Zr4 2.079152 1_655
O13 Zr4 2.079152 1_565
O13 Zr6 2.234412 1_555
O14 Zr1 2.126013 1_555
O14 Zr5 2.172675 1_554
O14 Zr7 2.372657 1_565
O14 Zr7 2.372657 1_655
O15 Zr4 2.101730 1_555
O15 Zr7 2.184140 1_555
O15 Zr5 2.370472 1_454
O15 Zr5 2.370472 1_544
O16 Zr7 2.092620 1_555
O16 Zr0 2.190683 1_555
O16 Zr1 2.353188 1_455
O16 Zr1 2.353188 1_545
O17 Zr0 2.096587 1_655
O17 Zr0 2.096587 1_565
O17 Zr1 2.219903 1_556
