# generated using pymatgen
data_Cu3B7IO13
_symmetry_space_group_name_H-M   'P 1'
_cell_length_a   8.58392701
_cell_length_b   8.58392701
_cell_length_c   8.58392701
_cell_angle_alpha   60.00000000
_cell_angle_beta   60.00000000
_cell_angle_gamma   60.00000000
_symmetry_Int_Tables_number   1
_chemical_formula_structural   Cu3B7IO13
_chemical_formula_sum   'Cu6 B14 I2 O26'
_cell_volume   447.24248408
_cell_formula_units_Z   2
loop_
 _symmetry_equiv_pos_site_id
 _symmetry_equiv_pos_as_xyz
  1  'x, y, z'
loop_
 _atom_site_type_symbol
 _atom_site_label
 _atom_site_symmetry_multiplicity
 _atom_site_fract_x
 _atom_site_fract_y
 _atom_site_fract_z
 _atom_site_occupancy
  Cu  Cu0  1  0.50000000  0.00000000  0.00000000  1
  Cu  Cu1  1  0.00000000  0.50000000  0.00000000  1
  Cu  Cu2  1  0.00000000  0.00000000  0.50000000  1
  Cu  Cu3  1  0.50000000  0.50000000  0.00000000  1
  Cu  Cu4  1  0.00000000  0.50000000  0.50000000  1
  Cu  Cu5  1  0.50000000  0.00000000  0.50000000  1
  B  B0  1  0.91951000  0.91951000  0.24147000  1
  B  B1  1  0.41951000  0.41951000  0.41951000  1
  B  B2  1  0.91951000  0.91951000  0.91951000  1
  B  B3  1  0.75000000  0.25000000  0.25000000  1
  B  B4  1  0.25000000  0.75000000  0.25000000  1
  B  B5  1  0.75000000  0.75000000  0.25000000  1
  B  B6  1  0.41951000  0.41951000  0.74147000  1
  B  B7  1  0.91951000  0.24147000  0.91951000  1
  B  B8  1  0.41951000  0.74147000  0.41951000  1
  B  B9  1  0.25000000  0.75000000  0.75000000  1
  B  B10  1  0.75000000  0.25000000  0.75000000  1
  B  B11  1  0.24147000  0.91951000  0.91951000  1
  B  B12  1  0.25000000  0.25000000  0.75000000  1
  B  B13  1  0.74147000  0.41951000  0.41951000  1
  I  I0  1  0.75000000  0.75000000  0.75000000  1
  I  I1  1  0.25000000  0.25000000  0.25000000  1
  O  O0  1  0.74129700  0.29520800  0.89911600  1
  O  O1  1  0.39911600  0.24129700  0.56437900  1
  O  O2  1  0.89911600  0.29520800  0.06437900  1
  O  O3  1  0.24129700  0.56437900  0.39911600  1
  O  O4  1  0.00000000  0.00000000  0.00000000  1
  O  O5  1  0.29520800  0.06437900  0.89911600  1
  O  O6  1  0.24129700  0.79520800  0.56437900  1
  O  O7  1  0.50000000  0.50000000  0.50000000  1
  O  O8  1  0.56437900  0.79520800  0.39911600  1
  O  O9  1  0.74129700  0.06437900  0.29520800  1
  O  O10  1  0.79520800  0.24129700  0.39911600  1
  O  O11  1  0.74129700  0.89911600  0.06437900  1
  O  O12  1  0.39911600  0.79520800  0.24129700  1
  O  O13  1  0.06437900  0.29520800  0.74129700  1
  O  O14  1  0.79520800  0.56437900  0.24129700  1
  O  O15  1  0.39911600  0.56437900  0.79520800  1
  O  O16  1  0.79520800  0.39911600  0.56437900  1
  O  O17  1  0.06437900  0.89911600  0.29520800  1
  O  O18  1  0.89911600  0.74129700  0.29520800  1
  O  O19  1  0.56437900  0.39911600  0.24129700  1
  O  O20  1  0.06437900  0.74129700  0.89911600  1
  O  O21  1  0.56437900  0.24129700  0.79520800  1
  O  O22  1  0.29520800  0.74129700  0.06437900  1
  O  O23  1  0.89911600  0.06437900  0.74129700  1
  O  O24  1  0.24129700  0.39911600  0.79520800  1
  O  O25  1  0.29520800  0.89911600  0.74129700  1
loop_
_geom_bond_atom_site_label_1
_geom_bond_atom_site_label_2
_geom_bond_distance
_geom_bond_site_symmetry_2
Cu0 O5 2.053750 1_554
Cu0 O11 2.053750 1_545
Cu0 O12 2.053750 1_545
Cu0 O21 2.053750 1_554
Cu0 I1 3.034877 1_555
Cu0 I0 3.034877 1_544
Cu1 O2 2.053750 1_455
Cu1 O14 2.053750 1_455
Cu1 O20 2.053750 1_554
Cu1 O24 2.053750 1_554
Cu1 I1 3.034877 1_555
Cu1 I0 3.034877 1_454
Cu2 O17 2.053750 1_545
Cu2 O23 2.053750 1_455
Cu2 O6 2.053750 1_545
Cu2 O10 2.053750 1_455
Cu2 I1 3.034877 1_555
Cu2 I0 3.034877 1_445
Cu3 O15 2.053750 1_554
Cu3 O0 2.053750 1_554
Cu3 O19 2.053750 1_555
Cu3 O22 2.053750 1_555
Cu3 I1 3.034877 1_555
Cu3 I0 3.034877 1_554
Cu4 O16 2.053750 1_455
Cu4 O13 2.053750 1_555
Cu4 O3 2.053750 1_555
Cu4 O18 2.053750 1_455
Cu4 I1 3.034877 1_555
Cu4 I0 3.034877 1_455
Cu5 O9 2.053750 1_555
Cu5 O8 2.053750 1_545
Cu5 O1 2.053750 1_555
Cu5 O25 2.053750 1_545
Cu5 I1 3.034877 1_555
Cu5 I0 3.034877 1_545
B0 O17 1.437014 1_655
B0 O9 1.437014 1_565
B0 O18 1.437014 1_555
B0 O4 1.692402 1_665
B1 O19 1.437014 1_555
B1 O1 1.437014 1_555
B1 O3 1.437014 1_555
B1 O7 1.692402 1_555
B2 O20 1.437014 1_655
B2 O11 1.437014 1_556
B2 O23 1.437014 1_565
B2 O4 1.692402 1_666
B3 O2 1.471965 1_555
B3 O9 1.471965 1_555
B3 O10 1.471965 1_555
B3 O19 1.471965 1_555
B4 O17 1.471965 1_555
B4 O22 1.471965 1_555
B4 O12 1.471965 1_555
B4 O3 1.471965 1_555
B5 O8 1.471965 1_555
B5 O11 1.471965 1_555
B5 O14 1.471965 1_555
B5 O18 1.471965 1_555
B6 O24 1.437014 1_555
B6 O21 1.437014 1_555
B6 O15 1.437014 1_555
B6 O7 1.692402 1_555
B7 O2 1.437014 1_556
B7 O13 1.437014 1_655
B7 O0 1.437014 1_555
B7 O4 1.692402 1_656
B8 O12 1.437014 1_555
B8 O6 1.437014 1_555
B8 O8 1.437014 1_555
B8 O7 1.692402 1_555
B9 O20 1.471965 1_555
B9 O15 1.471965 1_555
B9 O6 1.471965 1_555
B9 O25 1.471965 1_555
B10 O23 1.471965 1_555
B10 O21 1.471965 1_555
B10 O16 1.471965 1_555
B10 O0 1.471965 1_555
B11 O5 1.437014 1_565
B11 O22 1.437014 1_556
B11 O25 1.437014 1_555
B11 O4 1.692402 1_566
B12 O13 1.471965 1_555
B12 O1 1.471965 1_555
B12 O5 1.471965 1_555
B12 O24 1.471965 1_555
B13 O10 1.437014 1_555
B13 O14 1.437014 1_555
B13 O16 1.437014 1_555
B13 O7 1.692402 1_555
