# generated using pymatgen
data_EuIn2
_symmetry_space_group_name_H-M   'P 1'
_cell_length_a   4.99559845
_cell_length_b   4.99559811
_cell_length_c   7.86999071
_cell_angle_alpha   90.00000000
_cell_angle_beta   90.00000000
_cell_angle_gamma   120.00002786
_symmetry_Int_Tables_number   1
_chemical_formula_structural   EuIn2
_chemical_formula_sum   'Eu2 In4'
_cell_volume   170.09037738
_cell_formula_units_Z   2
loop_
 _symmetry_equiv_pos_site_id
 _symmetry_equiv_pos_as_xyz
  1  'x, y, z'
loop_
 _atom_site_type_symbol
 _atom_site_label
 _atom_site_symmetry_multiplicity
 _atom_site_fract_x
 _atom_site_fract_y
 _atom_site_fract_z
 _atom_site_occupancy
  Eu  Eu0  1  -0.00000000  0.00000000  0.24999900  1
  Eu  Eu1  1  -0.00000000  0.00000000  0.75000100  1
  In  In0  1  0.33333300  0.66666700  0.45515700  1
  In  In1  1  0.66666700  0.33333300  0.95511736  1
  In  In2  1  0.66666700  0.33333300  0.54488264  1
  In  In3  1  0.33333300  0.66666700  0.04484300  1
loop_
_geom_bond_atom_site_label_1
_geom_bond_atom_site_label_2
_geom_bond_distance
_geom_bond_site_symmetry_2
Eu0 In3 3.305376 1_545
Eu0 In3 3.305378 1_555
Eu0 In3 3.305378 1_445
Eu0 In0 3.305383 1_545
Eu0 In0 3.305386 1_555
Eu0 In0 3.305386 1_445
Eu0 In1 3.701942 1_454
Eu0 In1 3.701944 1_444
Eu0 In1 3.701945 1_554
Eu0 In2 3.701952 1_455
Eu0 In2 3.701954 1_445
Eu0 In2 3.701954 1_555
Eu0 Eu1 3.934980 1_554
Eu0 Eu1 3.935011 1_555
Eu1 In1 3.305223 1_455
Eu1 In1 3.305226 1_445
Eu1 In1 3.305226 1_555
Eu1 In2 3.305231 1_455
Eu1 In2 3.305234 1_445
Eu1 In2 3.305234 1_555
Eu1 In3 3.701746 1_546
Eu1 In3 3.701749 1_556
Eu1 In3 3.701749 1_446
Eu1 In0 3.701756 1_545
Eu1 In0 3.701759 1_555
Eu1 In0 3.701759 1_445
In0 In2 2.969390 1_565
In0 In2 2.969391 1_455
In0 In2 2.969400 1_555
In0 In3 3.229167 1_555
In1 In3 2.969390 1_546
In1 In3 2.969391 1_656
In1 In3 2.969400 1_556
In1 In2 3.228543 1_555
