# generated using pymatgen
data_Eu3(AsPd)4
_symmetry_space_group_name_H-M   'P 1'
_cell_length_a   4.18328903
_cell_length_b   4.30909592
_cell_length_c   12.76069103
_cell_angle_alpha   89.99946479
_cell_angle_beta   89.99971457
_cell_angle_gamma   89.99993355
_symmetry_Int_Tables_number   1
_chemical_formula_structural   Eu3(AsPd)4
_chemical_formula_sum   'Eu3 As4 Pd4'
_cell_volume   230.02668827
_cell_formula_units_Z   1
loop_
 _symmetry_equiv_pos_site_id
 _symmetry_equiv_pos_as_xyz
  1  'x, y, z'
loop_
 _atom_site_type_symbol
 _atom_site_label
 _atom_site_symmetry_multiplicity
 _atom_site_fract_x
 _atom_site_fract_y
 _atom_site_fract_z
 _atom_site_occupancy
  Eu  Eu0  1  0.99980898  0.99997070  0.79892271  1
  Eu  Eu1  1  0.00020139  0.00002676  0.20106489  1
  Eu  Eu2  1  0.00000766  0.49999342  0.50003035  1
  As  As0  1  0.49980094  0.49996935  0.88303434  1
  As  As1  1  0.49965021  0.99998493  0.60020931  1
  As  As2  1  0.50018337  0.50004276  0.11696815  1
  As  As3  1  0.50031638  0.00000272  0.39979613  1
  Pd  Pd0  1  0.50008467  0.49998064  0.30998270  1
  Pd  Pd1  1  0.49996379  0.50001005  0.69004332  1
  Pd  Pd2  1  0.99998767  0.50000852  0.99997940  1
  Pd  Pd3  1  0.49999395  0.00001014  0.99996869  1
loop_
_geom_bond_atom_site_label_1
_geom_bond_atom_site_label_2
_geom_bond_distance
_geom_bond_site_symmetry_2
Eu0 Pd1 3.308183 1_555
Eu0 Pd1 3.308384 1_565
Eu0 Pd1 3.308990 1_655
Eu0 Pd1 3.309197 1_665
Eu0 Pd3 3.309593 1_565
Eu0 Pd3 3.310587 1_665
Eu0 Pd2 3.350178 1_555
Eu0 Pd2 3.350418 1_565
Eu1 Pd0 3.308471 1_555
Eu1 Pd0 3.308710 1_545
Eu1 Pd0 3.309076 1_455
Eu1 Pd0 3.309321 1_445
Eu1 Pd3 3.310030 1_554
Eu1 Pd3 3.311143 1_454
Eu1 Pd2 3.350513 1_454
Eu1 Pd2 3.350645 1_444
Eu2 Pd1 3.202095 1_555
Eu2 Pd1 3.202319 1_455
Eu2 Pd0 3.202340 1_455
Eu2 Pd0 3.202745 1_555
As0 Pd1 2.462699 1_555
As0 Pd2 2.568781 1_455
As0 Pd2 2.570065 1_555
As0 Pd3 2.620651 1_555
As0 Pd3 2.620963 1_565
As0 Eu0 3.188876 1_455
As0 Eu0 3.188885 1_445
As0 Eu0 3.188916 1_555
As0 Eu0 3.188918 1_545
As1 Pd1 2.440424 1_555
As1 Pd1 2.440634 1_565
As1 As3 2.557412 1_565
As1 Eu2 3.262655 1_555
As1 Eu2 3.262684 1_565
As1 Eu2 3.264560 1_655
As1 Eu2 3.264596 1_665
As1 Eu0 3.286643 1_455
As1 Eu0 3.287505 1_555
As2 Pd0 2.462999 1_555
As2 Pd2 2.569075 1_554
As2 Pd2 2.570419 1_454
As2 Pd3 2.621153 1_564
As2 Pd3 2.621407 1_554
As2 Eu1 3.188740 1_565
As2 Eu1 3.188823 1_555
As2 Eu1 3.188850 1_665
As2 Eu1 3.188926 1_655
As3 Pd0 2.440312 1_555
As3 Pd0 2.440499 1_545
As3 Eu2 3.263060 1_655
As3 Eu2 3.263094 1_645
As3 Eu2 3.264703 1_555
As3 Eu2 3.264744 1_545
As3 Eu1 3.286935 1_655
As3 Eu1 3.287564 1_555
Pd2 Pd3 3.002819 1_555
Pd2 Pd3 3.002826 1_565
Pd2 Pd3 3.002852 1_655
Pd2 Pd3 3.002866 1_665
