# generated using pymatgen
data_K4Hf3Mn(PO4)6
_symmetry_space_group_name_H-M   'P 1'
_cell_length_a   10.13326227
_cell_length_b   10.16632623
_cell_length_c   10.18081186
_cell_angle_alpha   90.03586557
_cell_angle_beta   90.00000000
_cell_angle_gamma   90.00000000
_symmetry_Int_Tables_number   1
_chemical_formula_structural   K4Hf3Mn(PO4)6
_chemical_formula_sum   'K8 Hf6 Mn2 P12 O48'
_cell_volume   1048.80718002
_cell_formula_units_Z   2
loop_
 _symmetry_equiv_pos_site_id
 _symmetry_equiv_pos_as_xyz
  1  'x, y, z'
loop_
 _atom_site_type_symbol
 _atom_site_label
 _atom_site_symmetry_multiplicity
 _atom_site_fract_x
 _atom_site_fract_y
 _atom_site_fract_z
 _atom_site_occupancy
  K  K0  1  0.56886568  0.17337936  0.42745215  1
  K  K1  1  0.29964045  0.04045763  0.81527997  1
  K  K2  1  0.79964045  0.95954237  0.18472003  1
  K  K3  1  0.06886568  0.82662064  0.57254785  1
  K  K4  1  0.43691409  0.69872078  0.05693510  1
  K  K5  1  0.69642241  0.56347677  0.71966793  1
  K  K6  1  0.19642241  0.43652323  0.28033207  1
  K  K7  1  0.93691409  0.30127922  0.94306490  1
  Hf  Hf0  1  0.91195280  0.16027113  0.58705781  1
  Hf  Hf1  1  0.41195280  0.83972887  0.41294219  1
  Hf  Hf2  1  0.08439468  0.66745156  0.91385167  1
  Hf  Hf3  1  0.85751023  0.60645193  0.35568414  1
  Hf  Hf4  1  0.35751023  0.39354807  0.64431586  1
  Hf  Hf5  1  0.58439468  0.33254844  0.08614833  1
  Mn  Mn0  1  0.14885022  0.10031394  0.14493321  1
  Mn  Mn1  1  0.64885022  0.89968606  0.85506679  1
  P  P0  1  0.62313830  0.21035451  0.76980433  1
  P  P1  1  0.23167903  0.12709035  0.46009797  1
  P  P2  1  0.46205473  0.01748228  0.12630906  1
  P  P3  1  0.96205473  0.98251772  0.87369094  1
  P  P4  1  0.73167903  0.87290965  0.53990203  1
  P  P5  1  0.12313830  0.78964549  0.23019567  1
  P  P6  1  0.37038023  0.71462685  0.72709369  1
  P  P7  1  0.77345039  0.61942676  0.03953345  1
  P  P8  1  0.53688076  0.52336900  0.37170600  1
  P  P9  1  0.03688076  0.47663100  0.62829400  1
  P  P10  1  0.27345039  0.38057324  0.96046655  1
  P  P11  1  0.87038023  0.28537315  0.27290631  1
  O  O0  1  0.84946780  0.24853175  0.41787186  1
  O  O1  1  0.75655988  0.22353263  0.69860303  1
  O  O2  1  0.30123389  0.22295044  0.55642261  1
  O  O3  1  0.97086017  0.20243117  0.20380635  1
  O  O4  1  0.24534605  0.17678827  0.32198082  1
  O  O5  1  0.49643214  0.16533768  0.14286682  1
  O  O6  1  0.08714760  0.11078597  0.50181178  1
  O  O7  1  0.56522314  0.07485565  0.75936479  1
  O  O8  1  0.97832179  0.04235622  0.73340347  1
  O  O9  1  0.06163035  0.05098089  0.96029978  1
  O  O10  1  0.32201601  0.00126877  0.07802115  1
  O  O11  1  0.79967920  0.00681004  0.51707735  1
  O  O12  1  0.29967920  0.99318996  0.48292265  1
  O  O13  1  0.82201601  0.99873123  0.92197885  1
  O  O14  1  0.56163035  0.94901911  0.03970022  1
  O  O15  1  0.47832179  0.95764378  0.26659653  1
  O  O16  1  0.06522314  0.92514435  0.24063521  1
  O  O17  1  0.58714760  0.88921403  0.49818822  1
  O  O18  1  0.99643214  0.83466232  0.85713318  1
  O  O19  1  0.74534605  0.82321173  0.67801918  1
  O  O20  1  0.47086017  0.79756883  0.79619365  1
  O  O21  1  0.80123389  0.77704956  0.44357739  1
  O  O22  1  0.25655988  0.77646737  0.30139697  1
  O  O23  1  0.34946780  0.75146825  0.58212814  1
  O  O24  1  0.14543597  0.74575689  0.08746341  1
  O  O25  1  0.23559122  0.73334052  0.79510681  1
  O  O26  1  0.70407799  0.71458910  0.95096389  1
  O  O27  1  0.03193720  0.68735406  0.29821505  1
  O  O28  1  0.77099587  0.66664454  0.18406855  1
  O  O29  1  0.49327027  0.66488957  0.34775567  1
  O  O30  1  0.91829793  0.59571127  0.00041630  1
  O  O31  1  0.41031282  0.56796694  0.73158117  1
  O  O32  1  0.02028355  0.55422621  0.75570505  1
  O  O33  1  0.94884545  0.54356596  0.52563430  1
  O  O34  1  0.68040327  0.52123981  0.41947525  1
  O  O35  1  0.20449544  0.51507537  0.97003660  1
  O  O36  1  0.70449544  0.48492463  0.02996340  1
  O  O37  1  0.18040327  0.47876019  0.58052475  1
  O  O38  1  0.44884545  0.45643404  0.47436570  1
  O  O39  1  0.52028355  0.44577379  0.24429495  1
  O  O40  1  0.91031282  0.43203306  0.26841883  1
  O  O41  1  0.41829793  0.40428873  -0.00041630  1
  O  O42  1  0.99327027  0.33511043  0.65224433  1
  O  O43  1  0.27099587  0.33335546  0.81593145  1
  O  O44  1  0.53193720  0.31264594  0.70178495  1
  O  O45  1  0.20407799  0.28541090  0.04903611  1
  O  O46  1  0.73559122  0.26665948  0.20489319  1
  O  O47  1  0.64543597  0.25424311  0.91253659  1
loop_
_geom_bond_atom_site_label_1
_geom_bond_atom_site_label_2
_geom_bond_distance
_geom_bond_site_symmetry_2
K0 O15 2.886084 1_545
K0 O0 2.945903 1_555
K0 O46 2.981661 1_555
K0 O17 2.983519 1_545
K0 O5 2.989905 1_555
K0 O11 3.028619 1_555
K0 O2 3.054837 1_555
K0 O44 3.152795 1_555
K0 O38 3.160105 1_555
K1 O10 2.714159 1_556
K1 O7 2.772951 1_555
K1 O9 2.829829 1_555
K1 O43 2.991812 1_555
K1 O20 3.024039 1_545
K1 O25 3.195478 1_545
K1 O2 3.223921 1_555
K1 O8 3.361072 1_455
K1 O12 3.417322 1_545
K2 O13 2.714159 1_554
K2 O16 2.772951 1_655
K2 O14 2.829829 1_555
K2 O28 2.991812 1_555
K2 O3 3.024039 1_565
K2 O46 3.195478 1_565
K2 O21 3.223921 1_555
K2 O15 3.361072 1_555
K2 O11 3.417322 1_565
K3 O8 2.886084 1_465
K3 O23 2.945903 1_555
K3 O25 2.981661 1_555
K3 O6 2.983519 1_565
K3 O18 2.989905 1_455
K3 O12 3.028619 1_555
K3 O21 3.054837 1_455
K3 O27 3.152795 1_555
K3 O33 3.160105 1_455
K4 O14 2.846675 1_555
K4 O20 2.859759 1_554
K4 O26 2.918796 1_554
K4 O24 3.008150 1_555
K4 O29 3.035122 1_555
K4 O41 3.055179 1_555
K4 O35 3.132584 1_554
K4 O22 3.186931 1_555
K4 O10 3.295662 1_565
K4 O39 3.312269 1_555
K5 O19 2.720197 1_555
K5 O26 2.811862 1_555
K5 O31 2.902117 1_555
K5 O44 3.051776 1_555
K5 O34 3.090223 1_555
K5 O33 3.238124 1_555
K5 O36 3.259946 1_556
K5 O32 3.303560 1_655
K6 O4 2.720197 1_555
K6 O45 2.811862 1_555
K6 O40 2.902117 1_455
K6 O27 3.051776 1_555
K6 O37 3.090223 1_555
K6 O38 3.238124 1_555
K6 O35 3.259946 1_554
K6 O39 3.303560 1_555
K7 O9 2.846675 1_655
K7 O3 2.859759 1_556
K7 O45 2.918796 1_656
K7 O47 3.008150 1_555
K7 O42 3.035122 1_555
K7 O30 3.055179 1_556
K7 O36 3.132584 1_556
K7 O1 3.186931 1_555
K7 O13 3.295662 1_545
K7 O32 3.312269 1_655
Hf0 O8 2.027664 1_555
Hf0 O6 2.038976 1_655
Hf0 O0 2.043234 1_555
Hf0 O1 2.044952 1_555
Hf0 O11 2.057810 1_555
Hf0 O42 2.068179 1_555
Hf1 O15 2.027664 1_555
Hf1 O17 2.038976 1_555
Hf1 O23 2.043234 1_555
Hf1 O22 2.044952 1_555
Hf1 O12 2.057810 1_555
Hf1 O29 2.068179 1_555
Hf2 O18 2.004717 1_455
Hf2 O24 2.034371 1_556
Hf2 O30 2.035253 1_456
Hf2 O35 2.051622 1_555
Hf2 O25 2.063630 1_555
Hf2 O32 2.082553 1_555
Hf3 O21 2.032718 1_555
Hf3 O27 2.035559 1_655
Hf3 O28 2.048663 1_555
Hf3 O40 2.053744 1_555
Hf3 O33 2.064075 1_555
Hf3 O34 2.096138 1_555
Hf4 O2 2.032718 1_555
Hf4 O44 2.035559 1_555
Hf4 O43 2.048663 1_555
Hf4 O31 2.053744 1_555
Hf4 O38 2.064075 1_555
Hf4 O37 2.096138 1_555
Hf5 O5 2.004717 1_555
Hf5 O47 2.034371 1_554
Hf5 O41 2.035253 1_555
Hf5 O36 2.051622 1_555
Hf5 O46 2.063630 1_555
Hf5 O39 2.082553 1_555
Mn0 O10 2.134524 1_555
Mn0 O9 2.136549 1_554
Mn0 O3 2.165476 1_455
Mn0 O4 2.192666 1_555
Mn0 O45 2.193099 1_555
Mn0 O16 2.200216 1_545
Mn1 O13 2.134524 1_555
Mn1 O14 2.136549 1_556
Mn1 O20 2.165476 1_555
Mn1 O19 2.192666 1_555
Mn1 O26 2.193099 1_555
Mn1 O7 2.200216 1_565
O0 P11 1.537551 1_555
O1 P0 1.539943 1_555
O2 P1 1.551454 1_555
O3 P11 1.497292 1_555
O4 P1 1.500861 1_555
O5 P2 1.552063 1_555
O6 P1 1.533915 1_555
O7 P0 1.501035 1_555
O8 P3 1.561475 1_545
O9 P3 1.509731 1_445
O10 P2 1.510778 1_555
O11 P4 1.543461 1_545
O12 P1 1.543461 1_565
O13 P3 1.510778 1_555
O14 P2 1.509731 1_565
O15 P2 1.561475 1_565
O16 P5 1.501035 1_555
O17 P4 1.533915 1_555
O18 P3 1.552063 1_555
O19 P4 1.500861 1_555
O20 P6 1.497292 1_555
O21 P4 1.551454 1_555
O22 P5 1.539943 1_555
O23 P6 1.537551 1_555
O24 P5 1.536525 1_555
O25 P6 1.543062 1_555
O26 P7 1.498099 1_556
O27 P5 1.554342 1_555
O28 P7 1.547718 1_555
O29 P8 1.524851 1_555
O30 P7 1.539799 1_555
O31 P6 1.545630 1_555
O32 P9 1.527054 1_555
O33 P9 1.533662 1_655
O34 P8 1.533667 1_555
O35 P10 1.538611 1_555
O36 P7 1.538611 1_555
O37 P9 1.533667 1_555
O38 P8 1.533662 1_555
O39 P8 1.527054 1_555
O40 P11 1.545630 1_555
O41 P10 1.539799 1_554
O42 P9 1.524851 1_655
O43 P10 1.547718 1_555
O44 P0 1.554342 1_555
O45 P10 1.498099 1_554
O46 P11 1.543062 1_555
O47 P0 1.536525 1_555
