# generated using pymatgen
data_Tb8O13
_symmetry_space_group_name_H-M   'P 1'
_cell_length_a   9.36972500
_cell_length_b   9.39560156
_cell_length_c   9.44104663
_cell_angle_alpha   108.66311825
_cell_angle_beta   111.40925785
_cell_angle_gamma   108.08350655
_symmetry_Int_Tables_number   1
_chemical_formula_structural   Tb8O13
_chemical_formula_sum   'Tb16 O26'
_cell_volume   641.36861910
_cell_formula_units_Z   2
loop_
 _symmetry_equiv_pos_site_id
 _symmetry_equiv_pos_as_xyz
  1  'x, y, z'
loop_
 _atom_site_type_symbol
 _atom_site_label
 _atom_site_symmetry_multiplicity
 _atom_site_fract_x
 _atom_site_fract_y
 _atom_site_fract_z
 _atom_site_occupancy
  Tb  Tb0  1  0.27458700  0.52702400  0.74453500  1
  Tb  Tb1  1  0.19260300  0.72591800  0.47888700  1
  Tb  Tb2  1  0.01066800  0.49261900  0.02134500  1
  Tb  Tb3  1  0.99945300  0.77352800  0.74032700  1
  Tb  Tb4  1  0.47336500  0.72941700  0.22041800  1
  Tb  Tb5  1  0.24086900  0.96999300  0.26408800  1
  Tb  Tb6  1  0.75565400  0.76808400  0.97400200  1
  Tb  Tb7  1  0.49076500  0.99523800  0.00875300  1
  Tb  Tb8  1  0.52579400  0.50003200  0.51220100  1
  Tb  Tb9  1  0.26715700  0.26791000  0.00779300  1
  Tb  Tb10  1  0.81241300  0.03918200  0.77383400  1
  Tb  Tb11  1  0.52463700  0.26433500  0.74612600  1
  Tb  Tb12  1  0.98433900  0.24704900  0.25971200  1
  Tb  Tb13  1  0.99870100  0.00373700  0.49198200  1
  Tb  Tb14  1  0.72930900  0.21972700  0.48304500  1
  Tb  Tb15  1  0.73246800  0.46806300  0.24901400  1
  O  O0  1  0.02372900  0.26920700  0.53906600  1
  O  O1  1  0.26760700  0.50339500  0.48003200  1
  O  O2  1  0.99088600  0.99321300  0.23924100  1
  O  O3  1  0.04173200  0.25453500  0.04323500  1
  O  O4  1  0.22819100  0.48224500  0.95385300  1
  O  O5  1  0.50240300  0.49227000  0.75207700  1
  O  O6  1  0.24152000  0.75537300  0.74687000  1
  O  O7  1  0.26789500  0.01107400  0.54248200  1
  O  O8  1  0.53137400  0.75790000  0.01842800  1
  O  O9  1  0.26202900  0.73623900  0.27461800  1
  O  O10  1  0.24894100  0.02405200  0.04096500  1
  O  O11  1  0.71330300  0.00866000  0.95522800  1
  O  O12  1  0.48389500  0.23450900  0.96277000  1
  O  O13  1  0.47946600  0.98305700  0.23772000  1
  O  O14  1  0.72765000  0.95645000  0.47200100  1
  O  O15  1  0.47465100  0.23892900  0.47146700  1
  O  O16  1  0.73909200  0.23209100  0.24995000  1
  O  O17  1  0.50271700  0.50784000  0.26579200  1
  O  O18  1  0.75789600  0.53593400  0.02585700  1
  O  O19  1  0.97474900  0.48445300  0.23993400  1
  O  O20  1  0.00109900  0.72249500  0.97279800  1
  O  O21  1  0.76381300  0.25696300  0.75638600  1
  O  O22  1  0.04244200  0.03596700  0.75409300  1
  O  O23  1  0.78791300  0.49475900  0.53763200  1
  O  O24  1  0.74233100  0.76728000  0.72756000  1
  O  O25  1  0.95069400  0.74055100  0.46018500  1
loop_
_geom_bond_atom_site_label_1
_geom_bond_atom_site_label_2
_geom_bond_distance
_geom_bond_site_symmetry_2
O0 Tb0 2.298853 1_555
O0 Tb13 2.307607 1_455
O0 Tb12 2.454723 1_455
O0 Tb14 2.467229 1_455
O1 Tb8 2.337241 1_555
O1 Tb1 2.405463 1_555
O1 Tb0 2.409655 1_555
O1 Tb12 2.442693 1_455
O2 Tb6 2.299813 1_554
O2 Tb13 2.329323 1_565
O2 Tb12 2.352349 1_565
O2 Tb5 2.353236 1_655
O3 Tb9 2.228703 1_555
O3 Tb10 2.279788 1_454
O3 Tb12 2.311279 1_455
O3 Tb2 2.405721 1_555
O4 Tb0 2.305869 1_555
O4 Tb9 2.329185 1_556
O4 Tb2 2.366682 1_556
O4 Tb4 2.393919 1_556
O5 Tb11 2.200332 1_555
O5 Tb0 2.237125 1_555
O5 Tb8 2.374925 1_555
O5 Tb6 2.411226 1_555
O6 Tb0 2.255423 1_555
O6 Tb1 2.305280 1_555
O6 Tb3 2.306910 1_455
O6 Tb7 2.365802 1_556
O7 Tb11 2.299439 1_555
O7 Tb1 2.350366 1_545
O7 Tb13 2.363689 1_455
O7 Tb5 2.434209 1_545
O8 Tb4 2.235331 1_555
O8 Tb6 2.268361 1_554
O8 Tb7 2.399469 1_555
O8 Tb0 2.410158 1_554
O9 Tb4 2.232604 1_555
O9 Tb1 2.268943 1_555
O9 Tb5 2.295304 1_555
O9 Tb2 2.354324 1_555
O10 Tb5 2.340584 1_545
O10 Tb9 2.373240 1_555
O10 Tb7 2.476069 1_545
O10 Tb3 2.554509 1_444
O11 Tb10 2.277596 1_555
O11 Tb7 2.294728 1_546
O11 Tb6 2.461704 1_545
O11 Tb12 2.597693 1_556
O12 Tb11 2.297421 1_555
O12 Tb9 2.311638 1_556
O12 Tb7 2.437334 1_546
O12 Tb15 2.445353 1_556
O13 Tb7 2.239441 1_555
O13 Tb14 2.302836 1_565
O13 Tb5 2.308765 1_555
O13 Tb4 2.317022 1_555
O14 Tb4 2.310676 1_555
O14 Tb13 2.361998 1_565
O14 Tb10 2.429437 1_565
O14 Tb14 2.437194 1_565
O15 Tb8 2.219834 1_555
O15 Tb5 2.298464 1_545
O15 Tb11 2.376584 1_555
O15 Tb14 2.413982 1_555
O16 Tb12 2.223778 1_555
O16 Tb15 2.239871 1_555
O16 Tb14 2.273560 1_555
O16 Tb7 2.285977 1_545
O17 Tb8 2.283840 1_555
O17 Tb9 2.314814 1_555
O17 Tb4 2.330975 1_555
O17 Tb15 2.347213 1_555
O18 Tb6 2.387898 1_554
O18 Tb15 2.456453 1_555
O18 Tb11 2.504757 1_554
O18 Tb2 2.537265 1_655
O19 Tb1 2.211476 1_655
O19 Tb2 2.229441 1_655
O19 Tb15 2.262287 1_555
O19 Tb12 2.323155 1_555
O20 Tb2 2.367851 1_556
O20 Tb3 2.387583 1_455
O20 Tb6 2.469811 1_455
O20 Tb5 2.484148 1_556
O21 Tb11 2.231255 1_555
O21 Tb10 2.271733 1_555
O21 Tb2 2.358307 1_656
O21 Tb14 2.372639 1_555
O22 Tb10 2.238544 1_455
O22 Tb9 2.246849 1_556
O22 Tb13 2.255275 1_455
O22 Tb3 2.323632 1_445
O23 Tb3 2.291518 1_555
O23 Tb14 2.303224 1_555
O23 Tb8 2.396792 1_555
O23 Tb15 2.491160 1_555
O24 Tb8 2.261319 1_555
O24 Tb10 2.276687 1_565
O24 Tb6 2.281482 1_555
O24 Tb3 2.348981 1_555
O25 Tb1 2.259308 1_655
O25 Tb13 2.267808 1_565
O25 Tb15 2.284199 1_555
O25 Tb3 2.409437 1_555
