# generated using pymatgen
data_Mn2InC10IO10
_symmetry_space_group_name_H-M   'P 1'
_cell_length_a   9.15926700
_cell_length_b   10.05481196
_cell_length_c   10.55866419
_cell_angle_alpha   117.06946396
_cell_angle_beta   92.42683595
_cell_angle_gamma   92.99118858
_symmetry_Int_Tables_number   1
_chemical_formula_structural   Mn2InC10IO10
_chemical_formula_sum   'Mn4 In2 C20 I2 O20'
_cell_volume   862.30511031
_cell_formula_units_Z   2
loop_
 _symmetry_equiv_pos_site_id
 _symmetry_equiv_pos_as_xyz
  1  'x, y, z'
loop_
 _atom_site_type_symbol
 _atom_site_label
 _atom_site_symmetry_multiplicity
 _atom_site_fract_x
 _atom_site_fract_y
 _atom_site_fract_z
 _atom_site_occupancy
  Mn  Mn0  1  0.24918400  0.71820500  0.07002700  1
  Mn  Mn1  1  0.75711000  0.75596000  0.59055900  1
  Mn  Mn2  1  0.75081600  0.28179500  0.92997300  1
  Mn  Mn3  1  0.24289000  0.24404000  0.40944100  1
  In  In0  1  0.16035300  0.99955400  0.15722600  1
  In  In1  1  0.83964700  0.00044600  0.84277400  1
  C  C0  1  0.60917400  0.21536600  0.01369700  1
  C  C1  1  0.30978700  0.40035400  0.57824400  1
  C  C2  1  0.37552700  0.78690100  0.23366000  1
  C  C3  1  0.20774800  0.10737800  0.48049800  1
  C  C4  1  0.43040600  0.18110300  0.36774700  1
  C  C5  1  0.90289500  0.29698800  0.82532600  1
  C  C6  1  0.73452200  0.64702600  0.69260300  1
  C  C7  1  0.04647900  0.28626000  0.43070400  1
  C  C8  1  0.62447300  0.21309900  0.76634000  1
  C  C9  1  0.26547800  0.35297400  0.30739700  1
  C  C10  1  0.11803300  0.67192900  0.91331800  1
  C  C11  1  0.79225200  0.89262200  0.51950200  1
  C  C12  1  0.30399800  0.52711400  0.99847900  1
  C  C13  1  0.69021300  0.59964600  0.42175600  1
  C  C14  1  0.56959400  0.81889700  0.63225300  1
  C  C15  1  0.95352100  0.71374000  0.56929600  1
  C  C16  1  0.09710500  0.70301200  0.17467400  1
  C  C17  1  0.69600200  0.47288600  0.00152100  1
  C  C18  1  0.39082600  0.78463400  0.98630300  1
  C  C19  1  0.88196700  0.32807100  0.08668200  1
  I  I0  1  0.83631000  0.95201300  0.10052300  1
  I  I1  1  0.16369000  0.04798700  0.89947700  1
  O  O0  1  0.35627500  0.50121300  0.68459200  1
  O  O1  1  0.47952300  0.82294900  0.93235000  1
  O  O2  1  0.71703800  0.57369200  0.74972300  1
  O  O3  1  0.54833600  0.14510500  0.34606800  1
  O  O4  1  0.07359800  0.68463300  0.54963600  1
  O  O5  1  0.92640200  0.31536700  0.45036400  1
  O  O6  1  0.52047700  0.17705100  0.06765000  1
  O  O7  1  0.45500100  0.82584500  0.33457400  1
  O  O8  1  0.03914400  0.63798100  0.81292900  1
  O  O9  1  0.64372500  0.49878700  0.31540800  1
  O  O10  1  0.99724800  0.30646100  0.75929600  1
  O  O11  1  0.81414900  0.97720200  0.47495500  1
  O  O12  1  0.45166400  0.85489500  0.65393200  1
  O  O13  1  0.34062000  0.40612800  0.94913600  1
  O  O14  1  0.18585100  0.02279800  0.52504500  1
  O  O15  1  0.28296200  0.42630800  0.25027700  1
  O  O16  1  0.00275200  0.69353900  0.24070400  1
  O  O17  1  0.96085600  0.36201900  0.18707100  1
  O  O18  1  0.65938000  0.59387200  0.05086400  1
  O  O19  1  0.54499900  0.17415500  0.66542600  1
loop_
_geom_bond_atom_site_label_1
_geom_bond_atom_site_label_2
_geom_bond_distance
_geom_bond_site_symmetry_2
In0 Mn3 2.717304 1_565
In0 Mn0 2.728650 1_555
In1 Mn1 2.717304 1_545
In1 Mn2 2.728650 1_555
C0 O6 1.157243 1_555
C0 Mn2 1.858706 1_554
C1 O0 1.161314 1_555
C1 Mn3 1.811032 1_555
C2 O7 1.159034 1_555
C2 Mn0 1.860763 1_555
C3 O14 1.157132 1_555
C3 Mn3 1.862065 1_555
C4 O3 1.156058 1_555
C4 Mn3 1.862260 1_555
C5 O10 1.159684 1_555
C5 Mn2 1.856403 1_555
C6 O2 1.154855 1_555
C6 Mn1 1.863525 1_555
C7 O5 1.155844 1_455
C7 Mn3 1.869254 1_555
C8 O19 1.159034 1_555
C8 Mn2 1.860763 1_555
C9 O15 1.154855 1_555
C9 Mn3 1.863525 1_555
C10 O8 1.158558 1_555
C10 Mn0 1.862779 1_556
C11 O11 1.157132 1_555
C11 Mn1 1.862065 1_555
C12 O13 1.159462 1_555
C12 Mn0 1.823787 1_556
C13 O9 1.161314 1_555
C13 Mn1 1.811032 1_555
C14 O12 1.156058 1_555
C14 Mn1 1.862260 1_555
C15 O4 1.155844 1_655
C15 Mn1 1.869254 1_555
C16 O16 1.159684 1_555
C16 Mn0 1.856403 1_555
C17 O18 1.159462 1_555
C17 Mn2 1.823787 1_554
C18 O1 1.157243 1_555
C18 Mn0 1.858706 1_556
C19 O17 1.158558 1_555
C19 Mn2 1.862779 1_554
I0 In0 2.972696 1_655
I0 In1 2.975952 1_564
I1 In1 2.972696 1_455
I1 In0 2.975952 1_546
