# generated using pymatgen
data_Mn11Ge8
_symmetry_space_group_name_H-M   'P 1'
_cell_length_a   5.00442400
_cell_length_b   12.96860800
_cell_length_c   15.68556800
_cell_angle_alpha   90.00000000
_cell_angle_beta   90.00000000
_cell_angle_gamma   90.00000000
_symmetry_Int_Tables_number   1
_chemical_formula_structural   Mn11Ge8
_chemical_formula_sum   'Mn44 Ge32'
_cell_volume   1017.99984325
_cell_formula_units_Z   4
loop_
 _symmetry_equiv_pos_site_id
 _symmetry_equiv_pos_as_xyz
  1  'x, y, z'
loop_
 _atom_site_type_symbol
 _atom_site_label
 _atom_site_symmetry_multiplicity
 _atom_site_fract_x
 _atom_site_fract_y
 _atom_site_fract_z
 _atom_site_occupancy
  Mn  Mn0  1  0.75000000  0.63486300  0.84294300  1
  Mn  Mn1  1  0.25000000  0.86513700  0.34294300  1
  Mn  Mn2  1  0.75000000  0.13486300  0.65705700  1
  Mn  Mn3  1  0.25000000  0.63044700  0.95830200  1
  Mn  Mn4  1  0.25000000  0.19490900  0.24780100  1
  Mn  Mn5  1  0.75000000  0.80509100  0.75219900  1
  Mn  Mn6  1  0.50116800  0.43975500  0.87918200  1
  Mn  Mn7  1  0.00726300  0.86496200  0.17550800  1
  Mn  Mn8  1  0.25000000  0.25199500  0.96924700  1
  Mn  Mn9  1  0.50726300  0.13503800  0.82449200  1
  Mn  Mn10  1  0.25000000  0.37702400  0.49482000  1
  Mn  Mn11  1  0.99883200  0.93975500  0.62081800  1
  Mn  Mn12  1  0.25000000  0.75199500  0.53075300  1
  Mn  Mn13  1  0.99273700  0.13503800  0.82449200  1
  Mn  Mn14  1  0.49883200  0.56024500  0.12081800  1
  Mn  Mn15  1  0.00116800  0.56024500  0.12081800  1
  Mn  Mn16  1  0.75000000  0.62297600  0.50518000  1
  Mn  Mn17  1  0.25000000  0.93315800  0.80567900  1
  Mn  Mn18  1  0.75000000  0.30509100  0.74780100  1
  Mn  Mn19  1  0.50726300  0.63503800  0.67550800  1
  Mn  Mn20  1  0.75000000  0.56684200  0.30567900  1
  Mn  Mn21  1  0.49883200  0.06024500  0.37918200  1
  Mn  Mn22  1  0.99883200  0.43975500  0.87918200  1
  Mn  Mn23  1  0.75000000  0.86955300  0.45830200  1
  Mn  Mn24  1  0.25000000  0.87702400  0.00518000  1
  Mn  Mn25  1  0.25000000  0.13044700  0.54169800  1
  Mn  Mn26  1  0.25000000  0.69490900  0.25219900  1
  Mn  Mn27  1  0.99273700  0.63503800  0.67550800  1
  Mn  Mn28  1  0.75000000  0.06684200  0.19432100  1
  Mn  Mn29  1  0.75000000  0.24800500  0.46924700  1
  Mn  Mn30  1  0.49273700  0.86496200  0.17550800  1
  Mn  Mn31  1  0.25000000  0.04635700  0.09356500  1
  Mn  Mn32  1  0.49273700  0.36496200  0.32449200  1
  Mn  Mn33  1  0.25000000  0.54635700  0.40643500  1
  Mn  Mn34  1  0.75000000  0.74800500  0.03075300  1
  Mn  Mn35  1  0.25000000  0.36513700  0.15705700  1
  Mn  Mn36  1  0.50116800  0.93975500  0.62081800  1
  Mn  Mn37  1  0.75000000  0.95364300  0.90643500  1
  Mn  Mn38  1  0.75000000  0.45364300  0.59356500  1
  Mn  Mn39  1  0.00726300  0.36496200  0.32449200  1
  Mn  Mn40  1  0.25000000  0.43315800  0.69432100  1
  Mn  Mn41  1  0.75000000  0.12297600  0.99482000  1
  Mn  Mn42  1  0.00116800  0.06024500  0.37918200  1
  Mn  Mn43  1  0.75000000  0.36955300  0.04169800  1
  Ge  Ge0  1  0.25000000  0.29504200  0.80446300  1
  Ge  Ge1  1  0.75000000  0.55595500  0.98348300  1
  Ge  Ge2  1  0.75000000  0.99104500  0.75537800  1
  Ge  Ge3  1  0.75000000  0.94834300  0.06322000  1
  Ge  Ge4  1  0.25000000  0.72594400  0.09630800  1
  Ge  Ge5  1  0.99673100  0.71358400  0.38786300  1
  Ge  Ge6  1  0.75000000  0.70495800  0.19553700  1
  Ge  Ge7  1  0.75000000  0.91545800  0.30385800  1
  Ge  Ge8  1  0.25000000  0.05165700  0.93678000  1
  Ge  Ge9  1  0.25000000  0.50895500  0.25537800  1
  Ge  Ge10  1  0.50326900  0.71358400  0.38786300  1
  Ge  Ge11  1  0.75000000  0.41545800  0.19614200  1
  Ge  Ge12  1  0.75000000  0.27405600  0.90369200  1
  Ge  Ge13  1  0.75000000  0.77405600  0.59630800  1
  Ge  Ge14  1  0.25000000  0.58454200  0.80385800  1
  Ge  Ge15  1  0.75000000  0.49104500  0.74462200  1
  Ge  Ge16  1  0.75000000  0.20495800  0.30446300  1
  Ge  Ge17  1  0.75000000  0.05595500  0.51651700  1
  Ge  Ge18  1  0.25000000  0.44404500  0.01651700  1
  Ge  Ge19  1  0.49673100  0.78641600  0.88786300  1
  Ge  Ge20  1  0.49673100  0.28641600  0.61213700  1
  Ge  Ge21  1  0.25000000  0.79504200  0.69553700  1
  Ge  Ge22  1  0.25000000  0.55165700  0.56322000  1
  Ge  Ge23  1  0.25000000  0.08454200  0.69614200  1
  Ge  Ge24  1  0.99673100  0.21358400  0.11213700  1
  Ge  Ge25  1  0.75000000  0.44834300  0.43678000  1
  Ge  Ge26  1  0.00326900  0.28641600  0.61213700  1
  Ge  Ge27  1  0.25000000  0.22594400  0.40369200  1
  Ge  Ge28  1  0.00326900  0.78641600  0.88786300  1
  Ge  Ge29  1  0.25000000  0.94404500  0.48348300  1
  Ge  Ge30  1  0.50326900  0.21358400  0.11213700  1
  Ge  Ge31  1  0.25000000  0.00895500  0.24462200  1
loop_
_geom_bond_atom_site_label_1
_geom_bond_atom_site_label_2
_geom_bond_distance
_geom_bond_site_symmetry_2
Ge0 Mn9 2.462109 1_555
Ge0 Mn13 2.462109 1_455
Ge0 Mn40 2.488581 1_555
Ge0 Mn22 2.544727 1_455
Ge0 Mn6 2.544727 1_555
Ge0 Mn8 2.644331 1_555
Ge0 Mn18 2.658566 1_455
Ge0 Mn18 2.658566 1_555
Ge1 Mn0 2.430390 1_555
Ge1 Mn14 2.494695 1_556
Ge1 Mn15 2.494695 1_656
Ge1 Mn6 2.549145 1_555
Ge1 Mn22 2.549145 1_555
Ge1 Mn43 2.584089 1_556
Ge1 Mn34 2.598644 1_556
Ge1 Mn3 2.711151 1_555
Ge1 Mn3 2.711151 1_655
Ge2 Mn5 2.412080 1_555
Ge2 Mn37 2.418554 1_555
Ge2 Mn2 2.420148 1_565
Ge2 Mn9 2.477506 1_565
Ge2 Mn13 2.477506 1_565
Ge2 Mn36 2.539283 1_555
Ge2 Mn11 2.539283 1_555
Ge2 Mn17 2.728948 1_555
Ge2 Mn17 2.728948 1_655
Ge3 Mn30 2.434955 1_555
Ge3 Mn7 2.434955 1_655
Ge3 Mn37 2.460222 1_554
Ge3 Mn41 2.506028 1_564
Ge3 Mn28 2.567179 1_565
Ge3 Mn34 2.647546 1_555
Ge3 Mn24 2.818746 1_555
Ge3 Mn24 2.818746 1_655
Ge3 Mn31 2.846635 1_665
Ge3 Mn31 2.846635 1_565
Ge4 Mn24 2.425286 1_555
Ge4 Mn26 2.478141 1_555
Ge4 Mn3 2.493938 1_554
Ge4 Mn7 2.503853 1_555
Ge4 Mn30 2.503853 1_555
Ge4 Mn14 2.513203 1_555
Ge4 Mn15 2.513203 1_555
Ge4 Mn34 2.720340 1_455
Ge4 Mn34 2.720340 1_555
Ge5 Mn1 2.442508 1_655
Ge5 Mn26 2.488648 1_655
Ge5 Mn16 2.508314 1_555
Ge5 Mn33 2.528754 1_655
Ge5 Mn20 2.609204 1_555
Ge5 Mn23 2.614702 1_555
Ge5 Mn12 2.622610 1_655
Ge6 Mn30 2.462109 1_555
Ge6 Mn7 2.462109 1_655
Ge6 Mn20 2.488581 1_555
Ge6 Mn15 2.544727 1_655
Ge6 Mn14 2.544727 1_555
Ge6 Mn34 2.644331 1_555
Ge6 Mn26 2.658566 1_555
Ge6 Mn26 2.658566 1_655
Ge7 Mn30 2.477807 1_555
Ge7 Mn7 2.477807 1_655
Ge7 Mn23 2.494618 1_555
Ge7 Mn21 2.549818 1_565
Ge7 Mn42 2.549818 1_665
Ge7 Mn28 2.608898 1_565
Ge7 Mn1 2.657593 1_655
Ge7 Mn1 2.657593 1_555
Ge8 Mn13 2.434955 1_455
Ge8 Mn9 2.434955 1_555
Ge8 Mn31 2.460222 1_556
Ge8 Mn24 2.506028 1_546
Ge8 Mn17 2.567179 1_545
Ge8 Mn8 2.647546 1_555
Ge8 Mn41 2.818746 1_455
Ge8 Mn41 2.818746 1_555
Ge8 Mn37 2.846635 1_445
Ge8 Mn37 2.846635 1_545
Ge9 Mn26 2.412080 1_555
Ge9 Mn33 2.418554 1_555
Ge9 Mn35 2.420148 1_555
Ge9 Mn32 2.477506 1_555
Ge9 Mn39 2.477506 1_555
Ge9 Mn14 2.539283 1_555
Ge9 Mn15 2.539283 1_555
Ge9 Mn20 2.728948 1_555
Ge9 Mn20 2.728948 1_455
Ge10 Mn1 2.442508 1_555
Ge10 Ge5 2.469493 1_555
Ge10 Mn26 2.488648 1_555
Ge10 Mn16 2.508314 1_555
Ge10 Mn33 2.528754 1_555
Ge10 Ge5 2.534931 1_455
Ge10 Mn20 2.609204 1_555
Ge10 Mn23 2.614702 1_555
Ge10 Mn12 2.622610 1_555
Ge11 Mn32 2.477807 1_555
Ge11 Mn39 2.477807 1_655
Ge11 Mn43 2.494618 1_555
Ge11 Mn14 2.549818 1_555
Ge11 Mn15 2.549818 1_655
Ge11 Mn20 2.608898 1_555
Ge11 Mn35 2.657593 1_555
Ge11 Mn35 2.657593 1_655
Ge12 Mn41 2.425286 1_555
Ge12 Mn18 2.478141 1_555
Ge12 Mn43 2.493938 1_556
Ge12 Mn9 2.503853 1_555
Ge12 Mn13 2.503853 1_555
Ge12 Mn22 2.513203 1_555
Ge12 Mn6 2.513203 1_555
Ge12 Mn8 2.720340 1_655
Ge12 Mn8 2.720340 1_555
Ge13 Mn16 2.425286 1_555
Ge13 Mn5 2.478141 1_555
Ge13 Mn23 2.493938 1_555
Ge13 Mn19 2.503853 1_555
Ge13 Mn27 2.503853 1_555
Ge13 Mn36 2.513203 1_555
Ge13 Mn11 2.513203 1_555
Ge13 Mn12 2.720340 1_655
Ge13 Mn12 2.720340 1_555
Ge14 Mn19 2.477807 1_555
Ge14 Mn27 2.477807 1_455
Ge14 Mn3 2.494618 1_555
Ge14 Mn6 2.549818 1_555
Ge14 Mn22 2.549818 1_455
Ge14 Mn40 2.608898 1_555
Ge14 Mn0 2.657593 1_455
Ge14 Mn0 2.657593 1_555
Ge15 Mn18 2.412080 1_555
Ge15 Mn38 2.418554 1_555
Ge15 Mn0 2.420148 1_555
Ge15 Mn19 2.477506 1_555
Ge15 Mn27 2.477506 1_555
Ge15 Mn22 2.539283 1_555
Ge15 Mn6 2.539283 1_555
Ge15 Mn40 2.728948 1_555
Ge15 Mn40 2.728948 1_655
Ge16 Mn32 2.462109 1_555
Ge16 Mn39 2.462109 1_655
Ge16 Mn28 2.488581 1_555
Ge16 Mn21 2.544727 1_555
Ge16 Mn42 2.544727 1_655
Ge16 Mn29 2.644331 1_555
Ge16 Mn4 2.658566 1_555
Ge16 Mn4 2.658566 1_655
Ge17 Mn2 2.430390 1_555
Ge17 Mn21 2.494695 1_555
Ge17 Mn42 2.494695 1_655
Ge17 Mn36 2.549145 1_545
Ge17 Mn11 2.549145 1_545
Ge17 Mn23 2.584089 1_545
Ge17 Mn29 2.598644 1_555
Ge17 Mn25 2.711151 1_555
Ge17 Mn25 2.711151 1_655
Ge18 Mn35 2.430390 1_555
Ge18 Mn22 2.494695 1_454
Ge18 Mn6 2.494695 1_554
Ge18 Mn14 2.549145 1_555
Ge18 Mn15 2.549145 1_555
Ge18 Mn3 2.584089 1_554
Ge18 Mn8 2.598644 1_554
Ge18 Mn43 2.711151 1_555
Ge18 Mn43 2.711151 1_455
Ge19 Mn0 2.442508 1_555
Ge19 Ge28 2.469493 1_555
Ge19 Mn5 2.488648 1_555
Ge19 Mn24 2.508314 1_556
Ge19 Mn37 2.528754 1_555
Ge19 Ge28 2.534931 1_655
Ge19 Mn17 2.609204 1_555
Ge19 Mn3 2.614702 1_555
Ge19 Mn34 2.622610 1_556
Ge20 Mn2 2.442508 1_555
Ge20 Ge26 2.469493 1_555
Ge20 Mn18 2.488648 1_555
Ge20 Mn10 2.508314 1_555
Ge20 Mn38 2.528754 1_555
Ge20 Ge26 2.534931 1_655
Ge20 Mn40 2.609204 1_555
Ge20 Mn25 2.614702 1_555
Ge20 Mn29 2.622610 1_555
Ge21 Mn19 2.462109 1_555
Ge21 Mn27 2.462109 1_455
Ge21 Mn17 2.488581 1_555
Ge21 Mn36 2.544727 1_555
Ge21 Mn11 2.544727 1_455
Ge21 Mn12 2.644331 1_555
Ge21 Mn5 2.658566 1_555
Ge21 Mn5 2.658566 1_455
Ge22 Mn19 2.434955 1_555
Ge22 Mn27 2.434955 1_455
Ge22 Mn33 2.460222 1_555
Ge22 Mn10 2.506028 1_555
Ge22 Mn40 2.567179 1_555
Ge22 Mn12 2.647546 1_555
Ge22 Mn16 2.818746 1_455
Ge22 Mn16 2.818746 1_555
Ge22 Mn38 2.846635 1_455
Ge22 Mn38 2.846635 1_555
Ge23 Mn9 2.477807 1_555
Ge23 Mn13 2.477807 1_455
Ge23 Mn25 2.494618 1_555
Ge23 Mn11 2.549818 1_445
Ge23 Mn36 2.549818 1_545
Ge23 Mn17 2.608898 1_545
Ge23 Mn2 2.657593 1_455
Ge23 Mn2 2.657593 1_555
Ge24 Mn35 2.442508 1_655
Ge24 Ge30 2.469493 1_555
Ge24 Mn4 2.488648 1_655
Ge24 Mn41 2.508314 1_554
Ge24 Mn31 2.528754 1_655
Ge24 Ge30 2.534931 1_655
Ge24 Mn28 2.609204 1_555
Ge24 Mn43 2.614702 1_555
Ge24 Mn8 2.622610 1_654
Ge25 Mn39 2.434955 1_655
Ge25 Mn32 2.434955 1_555
Ge25 Mn38 2.460222 1_555
Ge25 Mn16 2.506028 1_555
Ge25 Mn20 2.567179 1_555
Ge25 Mn29 2.647546 1_555
Ge25 Mn10 2.818746 1_555
Ge25 Mn10 2.818746 1_655
Ge25 Mn33 2.846635 1_655
Ge25 Mn33 2.846635 1_555
Ge26 Mn2 2.442508 1_455
Ge26 Mn18 2.488648 1_455
Ge26 Mn10 2.508314 1_555
Ge26 Mn38 2.528754 1_455
Ge26 Mn40 2.609204 1_555
Ge26 Mn25 2.614702 1_555
Ge26 Mn29 2.622610 1_455
Ge27 Mn10 2.425286 1_555
Ge27 Mn4 2.478141 1_555
Ge27 Mn25 2.493938 1_555
Ge27 Mn39 2.503853 1_555
Ge27 Mn32 2.503853 1_555
Ge27 Mn42 2.513203 1_555
Ge27 Mn21 2.513203 1_555
Ge27 Mn29 2.720340 1_555
Ge27 Mn29 2.720340 1_455
Ge28 Mn0 2.442508 1_455
Ge28 Mn5 2.488648 1_455
Ge28 Mn24 2.508314 1_556
Ge28 Mn37 2.528754 1_455
Ge28 Mn17 2.609204 1_555
Ge28 Mn3 2.614702 1_555
Ge28 Mn34 2.622610 1_456
Ge29 Mn1 2.430390 1_555
Ge29 Mn11 2.494695 1_455
Ge29 Mn36 2.494695 1_555
Ge29 Mn21 2.549145 1_565
Ge29 Mn42 2.549145 1_565
Ge29 Mn25 2.584089 1_565
Ge29 Mn12 2.598644 1_555
Ge29 Mn23 2.711151 1_455
Ge29 Mn23 2.711151 1_555
Ge30 Mn35 2.442508 1_555
Ge30 Mn4 2.488648 1_555
Ge30 Mn41 2.508314 1_554
Ge30 Mn31 2.528754 1_555
Ge30 Mn28 2.609204 1_555
Ge30 Mn43 2.614702 1_555
Ge30 Mn8 2.622610 1_554
Ge31 Mn4 2.412080 1_555
Ge31 Mn31 2.418554 1_555
Ge31 Mn1 2.420148 1_545
Ge31 Mn30 2.477506 1_545
Ge31 Mn7 2.477506 1_545
Ge31 Mn21 2.539283 1_555
Ge31 Mn42 2.539283 1_555
Ge31 Mn28 2.728948 1_555
Ge31 Mn28 2.728948 1_455
