# generated using pymatgen
data_Cu2P8Se3Br2
_symmetry_space_group_name_H-M   'P 1'
_cell_length_a   8.95478400
_cell_length_b   12.24628100
_cell_length_c   13.94853500
_cell_angle_alpha   90.00000000
_cell_angle_beta   90.00000000
_cell_angle_gamma   90.00000000
_symmetry_Int_Tables_number   1
_chemical_formula_structural   Cu2P8Se3Br2
_chemical_formula_sum   'Cu8 P32 Se12 Br8'
_cell_volume   1529.63542015
_cell_formula_units_Z   4
loop_
 _symmetry_equiv_pos_site_id
 _symmetry_equiv_pos_as_xyz
  1  'x, y, z'
loop_
 _atom_site_type_symbol
 _atom_site_label
 _atom_site_symmetry_multiplicity
 _atom_site_fract_x
 _atom_site_fract_y
 _atom_site_fract_z
 _atom_site_occupancy
  Cu  Cu0  1  0.79402300  0.07496700  0.25000000  1
  Cu  Cu1  1  0.01141200  0.62702400  0.75000000  1
  Cu  Cu2  1  0.79402300  0.42503300  0.75000000  1
  Cu  Cu3  1  0.98858800  0.12702400  0.75000000  1
  Cu  Cu4  1  0.01141200  0.87297600  0.25000000  1
  Cu  Cu5  1  0.98858800  0.37297600  0.25000000  1
  Cu  Cu6  1  0.20597700  0.92503300  0.75000000  1
  Cu  Cu7  1  0.20597700  0.57496700  0.25000000  1
  P  P0  1  0.09000600  0.69533400  0.60902100  1
  P  P1  1  0.90999400  0.19533400  0.60902100  1
  P  P2  1  0.25301200  0.66237600  0.11179400  1
  P  P3  1  0.20168900  0.56738800  0.52252800  1
  P  P4  1  0.52641000  0.25823900  0.57911100  1
  P  P5  1  0.20168900  0.93261200  0.02252800  1
  P  P6  1  0.52641000  0.25823900  0.92088900  1
  P  P7  1  0.47359000  0.75823900  0.92088900  1
  P  P8  1  0.52641000  0.24176100  0.42088900  1
  P  P9  1  0.25301200  0.66237600  0.38820600  1
  P  P10  1  0.90999400  0.30466600  0.39097900  1
  P  P11  1  0.47359000  0.74176100  0.42088900  1
  P  P12  1  0.74698800  0.33762400  0.61179400  1
  P  P13  1  0.90999400  0.19533400  0.89097900  1
  P  P14  1  0.79831100  0.06738800  0.97747200  1
  P  P15  1  0.79831100  0.43261200  0.02252800  1
  P  P16  1  0.74698800  0.16237600  0.11179400  1
  P  P17  1  0.47359000  0.75823900  0.57911100  1
  P  P18  1  0.09000600  0.80466600  0.39097900  1
  P  P19  1  0.47359000  0.74176100  0.07911100  1
  P  P20  1  0.74698800  0.33762400  0.88820600  1
  P  P21  1  0.52641000  0.24176100  0.07911100  1
  P  P22  1  0.09000600  0.80466600  0.10902100  1
  P  P23  1  0.90999400  0.30466600  0.10902100  1
  P  P24  1  0.20168900  0.93261200  0.47747200  1
  P  P25  1  0.79831100  0.06738800  0.52252800  1
  P  P26  1  0.25301200  0.83762400  0.61179400  1
  P  P27  1  0.25301200  0.83762400  0.88820600  1
  P  P28  1  0.20168900  0.56738800  0.97747200  1
  P  P29  1  0.74698800  0.16237600  0.38820600  1
  P  P30  1  0.09000600  0.69533400  0.89097900  1
  P  P31  1  0.79831100  0.43261200  0.47747200  1
  Se  Se0  1  0.41969600  0.92092800  0.39033000  1
  Se  Se1  1  0.91479400  0.75000000  0.50000000  1
  Se  Se2  1  0.58030400  0.42092800  0.10967000  1
  Se  Se3  1  0.91479400  0.75000000  0.00000000  1
  Se  Se4  1  0.58030400  0.07907200  0.60967000  1
  Se  Se5  1  0.41969600  0.57907200  0.60967000  1
  Se  Se6  1  0.41969600  0.57907200  0.89033000  1
  Se  Se7  1  0.58030400  0.42092800  0.39033000  1
  Se  Se8  1  0.08520600  0.25000000  0.50000000  1
  Se  Se9  1  0.41969600  0.92092800  0.10967000  1
  Se  Se10  1  0.58030400  0.07907200  0.89033000  1
  Se  Se11  1  0.08520600  0.25000000  0.00000000  1
  Br  Br0  1  0.26745800  0.37787600  0.25000000  1
  Br  Br1  1  0.92128800  0.92861600  0.75000000  1
  Br  Br2  1  0.92128800  0.57138400  0.25000000  1
  Br  Br3  1  0.07871200  0.42861600  0.75000000  1
  Br  Br4  1  0.07871200  0.07138400  0.25000000  1
  Br  Br5  1  0.73254200  0.62212400  0.75000000  1
  Br  Br6  1  0.73254200  0.87787600  0.25000000  1
  Br  Br7  1  0.26745800  0.12212400  0.75000000  1
loop_
_geom_bond_atom_site_label_1
_geom_bond_atom_site_label_2
_geom_bond_distance
_geom_bond_site_symmetry_2
Cu0 P16 2.244890 1_555
Cu0 P29 2.244890 1_555
Cu1 P0 2.249901 1_555
Cu1 P30 2.249901 1_555
Cu2 P20 2.244890 1_555
Cu2 P12 2.244890 1_555
Cu3 P1 2.249901 1_555
Cu3 P13 2.249901 1_555
Cu4 P22 2.249901 1_555
Cu4 P18 2.249901 1_555
Cu5 P23 2.249901 1_555
Cu5 P10 2.249901 1_555
Cu6 P27 2.244890 1_555
Cu6 P26 2.244890 1_555
Cu7 P9 2.244890 1_555
Cu7 P2 2.244890 1_555
P0 P3 2.216027 1_555
P0 P26 2.273447 1_555
P0 Se1 2.285249 1_455
P1 P25 2.216027 1_555
P1 P12 2.273447 1_555
P1 Se8 2.285249 1_655
P2 P28 2.252716 1_554
P2 P22 2.273447 1_555
P3 P9 2.252716 1_555
P3 Se5 2.304133 1_555
P4 P8 2.216171 1_555
P4 Se4 2.286659 1_555
P5 Se9 2.304133 1_555
P6 Se10 2.286659 1_555
P7 Se6 2.286659 1_555
P8 Se7 2.286659 1_555
P10 P31 2.216027 1_555
P10 P29 2.273447 1_555
P10 Se8 2.285249 1_655
P11 P17 2.216171 1_555
P11 P9 2.248215 1_555
P11 Se0 2.286659 1_555
P12 P4 2.248215 1_555
P12 P31 2.252716 1_555
P13 P14 2.216027 1_555
P13 P20 2.273447 1_555
P13 Se11 2.285249 1_656
P14 P16 2.252716 1_556
P14 Se10 2.304133 1_555
P15 P23 2.216027 1_555
P15 P20 2.252716 1_554
P15 Se2 2.304133 1_555
P16 P21 2.248215 1_555
P16 P23 2.273447 1_555
P17 P26 2.248215 1_555
P17 Se5 2.286659 1_555
P18 P24 2.216027 1_555
P18 P9 2.273447 1_555
P18 Se1 2.285249 1_455
P19 P7 2.216171 1_554
P19 P2 2.248215 1_555
P19 Se9 2.286659 1_555
P20 P6 2.248215 1_555
P21 P6 2.216171 1_554
P21 Se2 2.286659 1_555
P22 P5 2.216027 1_555
P22 Se3 2.285249 1_455
P23 Se11 2.285249 1_655
P24 P26 2.252716 1_555
P24 Se0 2.304133 1_555
P25 P29 2.252716 1_555
P25 Se4 2.304133 1_555
P27 P7 2.248215 1_555
P27 P5 2.252716 1_556
P27 P30 2.273447 1_555
P28 P30 2.216027 1_555
P28 Se6 2.304133 1_555
P29 P8 2.248215 1_555
P30 Se3 2.285249 1_456
P31 Se7 2.304133 1_555
Br0 Cu7 2.475626 1_555
Br0 Cu5 2.497941 1_455
Br1 Cu3 2.503384 1_565
Br1 Cu6 2.549706 1_655
Br2 Cu5 2.503384 1_555
Br2 Cu7 2.549706 1_655
Br3 Cu1 2.503384 1_555
Br3 Cu2 2.549706 1_455
Br4 Cu4 2.503384 1_545
Br4 Cu0 2.549706 1_455
Br5 Cu2 2.475626 1_555
Br5 Cu1 2.497941 1_655
Br6 Cu0 2.475626 1_565
Br6 Cu4 2.497941 1_655
Br7 Cu6 2.475626 1_545
Br7 Cu3 2.497941 1_455
