# generated using pymatgen
data_Al(HO)3
_symmetry_space_group_name_H-M   'P 1'
_cell_length_a   4.94031000
_cell_length_b   9.00204500
_cell_length_c   13.15224841
_cell_angle_alpha   47.54472013
_cell_angle_beta   90.00000000
_cell_angle_gamma   90.00000000
_symmetry_Int_Tables_number   1
_chemical_formula_structural   Al(HO)3
_chemical_formula_sum   'Al8 H24 O24'
_cell_volume   431.55548030
_cell_formula_units_Z   8
loop_
 _symmetry_equiv_pos_site_id
 _symmetry_equiv_pos_as_xyz
  1  'x, y, z'
loop_
 _atom_site_type_symbol
 _atom_site_label
 _atom_site_symmetry_multiplicity
 _atom_site_fract_x
 _atom_site_fract_y
 _atom_site_fract_z
 _atom_site_occupancy
  Al  Al0  1  0.02787800  0.83580400  0.49978500  1
  Al  Al1  1  0.47212200  0.83580400  0.99978500  1
  Al  Al2  1  0.97212200  0.16419600  0.50021500  1
  Al  Al3  1  0.52787800  0.16419600  0.00021500  1
  Al  Al4  1  0.52487400  0.66090000  0.49990500  1
  Al  Al5  1  0.97512600  0.66090000  0.99990500  1
  Al  Al6  1  0.47512600  0.33910000  0.50009500  1
  Al  Al7  1  0.02487400  0.33910000  0.00009500  1
  H  H0  1  0.60143700  0.77505600  0.62327100  1
  H  H1  1  0.89856300  0.77505600  0.12327100  1
  H  H2  1  0.39856300  0.22494400  0.37672900  1
  H  H3  1  0.10143700  0.22494400  0.87672900  1
  H  H4  1  0.16035400  0.11069100  0.70235800  1
  H  H5  1  0.33964600  0.11069100  0.20235800  1
  H  H6  1  0.83964600  0.88930900  0.29764200  1
  H  H7  1  0.66035400  0.88930900  0.79764200  1
  H  H8  1  0.83792600  0.37211000  0.60471800  1
  H  H9  1  0.66207400  0.37211000  0.10471800  1
  H  H10  1  0.16207400  0.62789000  0.39528200  1
  H  H11  1  0.33792600  0.62789000  0.89528200  1
  H  H12  1  0.12486000  0.79991600  0.70496000  1
  H  H13  1  0.37514000  0.79991600  0.20496000  1
  H  H14  1  0.87514000  0.20008400  0.29504000  1
  H  H15  1  0.62486000  0.20008400  0.79504000  1
  H  H16  1  0.22566100  0.49456900  0.70493200  1
  H  H17  1  0.27433900  0.49456900  0.20493200  1
  H  H18  1  0.77433900  0.50543100  0.29506800  1
  H  H19  1  0.72566100  0.50543100  0.79506800  1
  H  H20  1  0.50396900  0.99365800  0.61147800  1
  H  H21  1  0.99603100  0.99365800  0.11147800  1
  H  H22  1  0.49603100  0.00634200  0.38852200  1
  H  H23  1  0.00396900  0.00634200  0.88852200  1
  O  O0  1  0.71360500  0.69672500  0.61316500  1
  O  O1  1  0.78639500  0.69672500  0.11316500  1
  O  O2  1  0.28639500  0.30327500  0.38683500  1
  O  O3  1  0.21360500  0.30327500  0.88683500  1
  O  O4  1  0.14367700  0.22171000  0.60080300  1
  O  O5  1  0.35632300  0.22171000  0.10080300  1
  O  O6  1  0.85632300  0.77829000  0.39919700  1
  O  O7  1  0.64367700  0.77829000  0.89919700  1
  O  O8  1  0.64129400  0.38782700  0.60762000  1
  O  O9  1  0.85870600  0.38782700  0.10762000  1
  O  O10  1  0.35870600  0.61217300  0.39238000  1
  O  O11  1  0.14129400  0.61217300  0.89238000  1
  O  O12  1  0.14871600  0.90631100  0.60291000  1
  O  O13  1  0.35128400  0.90631100  0.10291000  1
  O  O14  1  0.85128400  0.09368900  0.39709000  1
  O  O15  1  0.64871600  0.09368900  0.89709000  1
  O  O16  1  0.21109800  0.58959000  0.60348500  1
  O  O17  1  0.28890200  0.58959000  0.10348500  1
  O  O18  1  0.78890200  0.41041000  0.39651500  1
  O  O19  1  0.71109800  0.41041000  0.89651500  1
  O  O20  1  0.64474000  0.07030500  0.61254400  1
  O  O21  1  0.85526000  0.07030500  0.11254400  1
  O  O22  1  0.35526000  0.92969500  0.38745600  1
  O  O23  1  0.14474000  0.92969500  0.88745600  1
loop_
_geom_bond_atom_site_label_1
_geom_bond_atom_site_label_2
_geom_bond_distance
_geom_bond_site_symmetry_2
Al0 O16 1.873762 1_555
Al0 O6 1.913452 1_455
Al0 O0 1.918668 1_455
Al0 O14 1.934337 1_465
Al0 O12 1.939343 1_555
Al0 O22 1.956306 1_555
Al1 O17 1.873762 1_556
Al1 O7 1.913452 1_555
Al1 O1 1.918668 1_556
Al1 O15 1.934337 1_565
Al1 O13 1.939343 1_556
Al1 O23 1.956306 1_555
Al2 O18 1.873762 1_555
Al2 O4 1.913452 1_655
Al2 O2 1.918668 1_655
Al2 O12 1.934337 1_645
Al2 O14 1.939343 1_555
Al2 O20 1.956306 1_555
Al3 O19 1.873762 1_554
Al3 O5 1.913452 1_555
Al3 O3 1.918668 1_554
Al3 O13 1.934337 1_545
Al3 O15 1.939343 1_554
Al3 O21 1.956306 1_555
Al4 O16 1.868239 1_555
Al4 O6 1.913832 1_555
Al4 O8 1.918102 1_555
Al4 O10 1.924507 1_555
Al4 O0 1.959819 1_555
Al4 O22 1.978174 1_555
Al5 O17 1.868239 1_656
Al5 O7 1.913832 1_555
Al5 O9 1.918102 1_556
Al5 O11 1.924507 1_655
Al5 O1 1.959819 1_556
Al5 O23 1.978174 1_655
Al6 O18 1.868239 1_555
Al6 O4 1.913832 1_555
Al6 O10 1.918102 1_555
Al6 O8 1.924507 1_555
Al6 O2 1.959819 1_555
Al6 O20 1.978174 1_555
Al7 O19 1.868239 1_454
Al7 O5 1.913832 1_555
Al7 O11 1.918102 1_554
Al7 O9 1.924507 1_455
Al7 O3 1.959819 1_554
Al7 O21 1.978174 1_455
H0 O0 0.973907 1_555
H1 O1 0.973907 1_555
H2 O2 0.973907 1_555
H3 O3 0.973907 1_555
H4 O4 0.993730 1_555
H5 O5 0.993730 1_555
H6 O6 0.993730 1_555
H7 O7 0.993730 1_555
H8 O8 0.986118 1_555
H9 O9 0.986118 1_555
H10 O10 0.986118 1_555
H11 O11 0.986118 1_555
H12 O12 0.998603 1_555
H13 O13 0.998603 1_555
H14 O14 0.998603 1_555
H15 O15 0.998603 1_555
H16 O16 0.988083 1_555
H17 O17 0.988083 1_555
H18 O18 0.988083 1_555
H19 O19 0.988083 1_555
H20 O20 0.986399 1_565
H21 O21 0.986399 1_565
H22 O22 0.986399 1_545
H23 O23 0.986399 1_545
