# generated using pymatgen
data_AlTlSiO4
_symmetry_space_group_name_H-M   'P 1'
_cell_length_a   5.57979300
_cell_length_b   7.36809300
_cell_length_c   9.12810000
_cell_angle_alpha   90.00000000
_cell_angle_beta   90.00000000
_cell_angle_gamma   90.00000000
_symmetry_Int_Tables_number   1
_chemical_formula_structural   AlTlSiO4
_chemical_formula_sum   'Al4 Tl4 Si4 O16'
_cell_volume   375.27840647
_cell_formula_units_Z   4
loop_
 _symmetry_equiv_pos_site_id
 _symmetry_equiv_pos_as_xyz
  1  'x, y, z'
loop_
 _atom_site_type_symbol
 _atom_site_label
 _atom_site_symmetry_multiplicity
 _atom_site_fract_x
 _atom_site_fract_y
 _atom_site_fract_z
 _atom_site_occupancy
  Al  Al0  1  0.25000000  0.99931700  0.56776900  1
  Al  Al1  1  0.25000000  0.50068300  0.06776900  1
  Al  Al2  1  0.75000000  0.49931700  0.93223100  1
  Al  Al3  1  0.75000000  0.00068300  0.43223100  1
  Tl  Tl0  1  0.25000000  0.62621400  0.74817900  1
  Tl  Tl1  1  0.75000000  0.12621400  0.75182100  1
  Tl  Tl2  1  0.75000000  0.37378600  0.25182100  1
  Tl  Tl3  1  0.25000000  0.87378600  0.24817900  1
  Si  Si0  1  0.75000000  0.81343700  0.08670600  1
  Si  Si1  1  0.75000000  0.68656300  0.58670600  1
  Si  Si2  1  0.25000000  0.31343700  0.41329400  1
  Si  Si3  1  0.25000000  0.18656300  0.91329400  1
  O  O0  1  0.03131100  0.14809500  0.44246800  1
  O  O1  1  0.25000000  0.10764100  0.74414100  1
  O  O2  1  0.75000000  0.60764100  0.75585900  1
  O  O3  1  0.75000000  0.54111700  0.46271900  1
  O  O4  1  0.25000000  0.04111700  0.03728100  1
  O  O5  1  0.96868900  0.64809500  0.05753200  1
  O  O6  1  0.46868900  0.35190500  0.94246800  1
  O  O7  1  0.46868900  0.14809500  0.44246800  1
  O  O8  1  0.25000000  0.39235900  0.24414100  1
  O  O9  1  0.75000000  0.95888300  0.96271900  1
  O  O10  1  0.25000000  0.45888300  0.53728100  1
  O  O11  1  0.53131100  0.64809500  0.05753200  1
  O  O12  1  0.53131100  0.85190500  0.55753200  1
  O  O13  1  0.03131100  0.35190500  0.94246800  1
  O  O14  1  0.75000000  0.89235900  0.25585900  1
  O  O15  1  0.96868900  0.85190500  0.55753200  1
loop_
_geom_bond_atom_site_label_1
_geom_bond_atom_site_label_2
_geom_bond_distance
_geom_bond_site_symmetry_2
Al0 O1 1.796925 1_565
Al0 O12 1.911091 1_555
Al0 O15 1.911091 1_455
Al0 O7 1.999712 1_565
Al0 O0 1.999712 1_565
Al1 O8 1.796925 1_555
Al1 O11 1.911091 1_555
Al1 O5 1.911091 1_455
Al1 O6 1.999712 1_554
Al1 O13 1.999712 1_554
Al2 O2 1.796925 1_555
Al2 O13 1.911091 1_655
Al2 O6 1.911091 1_555
Al2 O5 1.999712 1_556
Al2 O11 1.999712 1_556
Al3 O14 1.796925 1_545
Al3 O0 1.911091 1_655
Al3 O7 1.911091 1_555
Al3 O15 1.999712 1_545
Al3 O12 1.999712 1_545
O0 Si2 1.744720 1_555
O1 Si3 1.649916 1_555
O2 Si1 1.649916 1_555
O3 Si1 1.558637 1_555
O3 Tl2 2.286060 1_555
O4 Si3 1.558637 1_554
O4 Tl3 2.286060 1_545
O5 Si0 1.744720 1_555
O6 Si3 1.744720 1_555
O7 Si2 1.744720 1_555
O8 Si2 1.649916 1_555
O9 Si0 1.558637 1_556
O9 Tl1 2.286060 1_565
O10 Si2 1.558637 1_555
O10 Tl0 2.286060 1_555
O11 Si0 1.744720 1_555
O12 Si1 1.744720 1_555
O13 Si3 1.744720 1_555
O14 Si0 1.649916 1_555
O15 Si1 1.744720 1_555
