# generated using pymatgen
data_CuH2(CO2)2
_symmetry_space_group_name_H-M   'P 1'
_cell_length_a   6.76561700
_cell_length_b   11.48053000
_cell_length_c   12.12011800
_cell_angle_alpha   90.00000000
_cell_angle_beta   90.00000000
_cell_angle_gamma   90.00000000
_symmetry_Int_Tables_number   1
_chemical_formula_structural   CuH2(CO2)2
_chemical_formula_sum   'Cu8 H16 C16 O32'
_cell_volume   941.40433692
_cell_formula_units_Z   8
loop_
 _symmetry_equiv_pos_site_id
 _symmetry_equiv_pos_as_xyz
  1  'x, y, z'
loop_
 _atom_site_type_symbol
 _atom_site_label
 _atom_site_symmetry_multiplicity
 _atom_site_fract_x
 _atom_site_fract_y
 _atom_site_fract_z
 _atom_site_occupancy
  Cu  Cu0  1  0.70518100  0.88704600  0.48016800  1
  Cu  Cu1  1  0.70518100  0.38704600  0.01983200  1
  Cu  Cu2  1  0.79481900  0.88704600  0.98016800  1
  Cu  Cu3  1  0.20518100  0.11295400  0.01983200  1
  Cu  Cu4  1  0.20518100  0.61295400  0.48016800  1
  Cu  Cu5  1  0.79481900  0.38704600  0.51983200  1
  Cu  Cu6  1  0.29481900  0.11295400  0.51983200  1
  Cu  Cu7  1  0.29481900  0.61295400  0.98016800  1
  H  H0  1  0.48102000  0.82885500  0.21223900  1
  H  H1  1  0.48102000  0.32885500  0.28776100  1
  H  H2  1  0.98102000  0.67114500  0.21223900  1
  H  H3  1  0.51898000  0.67114500  0.71223900  1
  H  H4  1  0.01898000  0.82885500  0.71223900  1
  H  H5  1  0.51898000  0.17114500  0.78776100  1
  H  H6  1  0.56293600  0.65601600  0.41634300  1
  H  H7  1  0.93706400  0.65601600  0.91634300  1
  H  H8  1  0.56293600  0.15601600  0.08365700  1
  H  H9  1  0.98102000  0.17114500  0.28776100  1
  H  H10  1  0.43706400  0.84398400  0.91634300  1
  H  H11  1  0.06293600  0.34398400  0.08365700  1
  H  H12  1  0.43706400  0.34398400  0.58365700  1
  H  H13  1  0.06293600  0.84398400  0.41634300  1
  H  H14  1  0.01898000  0.32885500  0.78776100  1
  H  H15  1  0.93706400  0.15601600  0.58365700  1
  C  C0  1  0.16235500  0.61269900  0.32089800  1
  C  C1  1  0.66235500  0.88730100  0.32089800  1
  C  C2  1  0.18117100  0.85584700  0.47795900  1
  C  C3  1  0.33764500  0.61269900  0.82089800  1
  C  C4  1  0.66235500  0.38730100  0.17910200  1
  C  C5  1  0.83764500  0.88730100  0.82089800  1
  C  C6  1  0.16235500  0.11269900  0.17910200  1
  C  C7  1  0.18117100  0.35584700  0.02204100  1
  C  C8  1  0.68117100  0.14415300  0.02204100  1
  C  C9  1  0.68117100  0.64415300  0.47795900  1
  C  C10  1  0.81882900  0.64415300  0.97795900  1
  C  C11  1  0.81882900  0.14415300  0.52204100  1
  C  C12  1  0.31882900  0.35584700  0.52204100  1
  C  C13  1  0.83764500  0.38730100  0.67910200  1
  C  C14  1  0.31882900  0.85584700  0.97795900  1
  C  C15  1  0.33764500  0.11269900  0.67910200  1
  O  O0  1  0.52304800  0.31050300  0.21194200  1
  O  O1  1  0.52304800  0.81050300  0.28805800  1
  O  O2  1  0.74215700  0.04528700  0.51152900  1
  O  O3  1  0.74215700  0.54528700  0.98847100  1
  O  O4  1  0.76324100  0.73287900  0.03401200  1
  O  O5  1  0.74404400  0.45680900  0.24010600  1
  O  O6  1  0.24215700  0.95471300  0.98847100  1
  O  O7  1  0.23675900  0.76712100  0.53401200  1
  O  O8  1  0.25595600  0.04319100  0.74010600  1
  O  O9  1  0.26324100  0.26712100  0.46598800  1
  O  O10  1  0.73675900  0.23287900  0.96598800  1
  O  O11  1  0.47695200  0.18949700  0.71194200  1
  O  O12  1  0.25784300  0.45471300  0.01152900  1
  O  O13  1  0.47695200  0.68949700  0.78805800  1
  O  O14  1  0.75595600  0.95680900  0.75989400  1
  O  O15  1  0.74404400  0.95680900  0.25989400  1
  O  O16  1  0.23675900  0.26712100  0.96598800  1
  O  O17  1  0.97695200  0.81050300  0.78805800  1
  O  O18  1  0.25595600  0.54319100  0.75989400  1
  O  O19  1  0.25784300  0.95471300  0.48847100  1
  O  O20  1  0.73675900  0.73287900  0.53401200  1
  O  O21  1  0.75784300  0.54528700  0.48847100  1
  O  O22  1  0.24404400  0.54319100  0.25989400  1
  O  O23  1  0.26324100  0.76712100  0.03401200  1
  O  O24  1  0.24215700  0.45471300  0.51152900  1
  O  O25  1  0.75784300  0.04528700  0.01152900  1
  O  O26  1  0.75595600  0.45680900  0.74010600  1
  O  O27  1  0.02304800  0.68949700  0.28805800  1
  O  O28  1  0.02304800  0.18949700  0.21194200  1
  O  O29  1  0.24404400  0.04319100  0.24010600  1
  O  O30  1  0.76324100  0.23287900  0.46598800  1
  O  O31  1  0.97695200  0.31050300  0.71194200  1
loop_
_geom_bond_atom_site_label_1
_geom_bond_atom_site_label_2
_geom_bond_distance
_geom_bond_site_symmetry_2
Cu0 O2 1.872811 1_565
Cu0 O20 1.898457 1_555
Cu1 O3 1.872811 1_554
Cu1 O10 1.898457 1_554
Cu2 O25 1.872811 1_566
Cu2 O4 1.898457 1_556
Cu3 O6 1.872811 1_544
Cu3 O16 1.898457 1_554
Cu4 O24 1.872811 1_555
Cu4 O7 1.898457 1_555
Cu5 O21 1.872811 1_555
Cu5 O30 1.898457 1_555
Cu6 O19 1.872811 1_545
Cu6 O9 1.898457 1_555
Cu7 O12 1.872811 1_556
Cu7 O23 1.898457 1_556
H0 O1 0.984726 1_555
H1 O0 0.984726 1_555
H2 O27 0.984726 1_655
H3 O13 0.984726 1_555
H4 O17 0.984726 1_455
H5 O11 0.984726 1_555
H9 O28 0.984726 1_655
H14 O31 0.984726 1_455
C0 O22 1.220210 1_555
C0 O27 1.350588 1_555
C0 Cu4 1.951997 1_555
C1 O15 1.220210 1_555
C1 O1 1.350588 1_555
C1 Cu0 1.951997 1_555
C2 H13 1.102788 1_555
C2 O19 1.254440 1_555
C2 O7 1.280849 1_555
C3 O18 1.220210 1_555
C3 O13 1.350588 1_555
C3 Cu7 1.951997 1_555
C4 O5 1.220210 1_555
C4 O0 1.350588 1_555
C4 Cu1 1.951997 1_555
C5 O14 1.220210 1_555
C5 O17 1.350588 1_555
C5 Cu2 1.951997 1_555
C6 O29 1.220210 1_555
C6 O28 1.350588 1_555
C6 Cu3 1.951997 1_555
C7 H11 1.102788 1_555
C7 O12 1.254440 1_555
C7 O16 1.280849 1_554
C8 H8 1.102788 1_555
C8 O25 1.254440 1_555
C8 O10 1.280849 1_554
C9 H6 1.102788 1_555
C9 O21 1.254440 1_555
C9 O20 1.280849 1_555
C10 H7 1.102788 1_555
C10 O3 1.254440 1_555
C10 O4 1.280849 1_556
C11 H15 1.102788 1_555
C11 O2 1.254440 1_555
C11 O30 1.280849 1_555
C12 H12 1.102788 1_555
C12 O24 1.254440 1_555
C12 O9 1.280849 1_555
C13 O26 1.220210 1_555
C13 O31 1.350588 1_555
C13 Cu5 1.951997 1_555
C14 H10 1.102788 1_555
C14 O6 1.254440 1_555
C14 O23 1.280849 1_556
C15 O8 1.220210 1_555
C15 O11 1.350588 1_555
C15 Cu6 1.951997 1_555
