# generated using pymatgen
data_Eu(CoSi)2
_symmetry_space_group_name_H-M   'P 1'
_cell_length_a   5.76695131
_cell_length_b   5.76695131
_cell_length_c   5.76695131
_cell_angle_alpha   140.52985095
_cell_angle_beta   140.52985095
_cell_angle_gamma   57.04967241
_symmetry_Int_Tables_number   1
_chemical_formula_structural   Eu(CoSi)2
_chemical_formula_sum   'Eu1 Co2 Si2'
_cell_volume   76.85709727
_cell_formula_units_Z   1
loop_
 _symmetry_equiv_pos_site_id
 _symmetry_equiv_pos_as_xyz
  1  'x, y, z'
loop_
 _atom_site_type_symbol
 _atom_site_label
 _atom_site_symmetry_multiplicity
 _atom_site_fract_x
 _atom_site_fract_y
 _atom_site_fract_z
 _atom_site_occupancy
  Eu  Eu0  1  -0.00000000  -0.00000000  0.00000000  1
  Co  Co0  1  0.75000000  0.25000000  0.50000000  1
  Co  Co1  1  0.25000000  0.75000000  0.50000000  1
  Si  Si0  1  0.36253935  0.36253935  0.00000000  1
  Si  Si1  1  0.63746065  0.63746065  -0.00000000  1
loop_
_geom_bond_atom_site_label_1
_geom_bond_atom_site_label_2
_geom_bond_distance
_geom_bond_site_symmetry_2
Eu0 Si0 3.086207 1_545
Eu0 Si1 3.086207 1_455
Eu0 Si1 3.086207 1_444
Eu0 Si1 3.086207 1_545
Eu0 Si1 3.086207 1_556
Eu0 Si0 3.086207 1_455
Eu0 Si0 3.086207 1_444
Eu0 Si0 3.086207 1_556
Co0 Si0 2.256711 1_555
Co0 Si1 2.256711 1_556
Co0 Si1 2.256711 1_545
Co0 Si0 2.256711 1_656
Co0 Eu0 3.195386 1_655
Co0 Eu0 3.195386 1_666
Co0 Eu0 3.195386 1_656
Co0 Eu0 3.195386 1_555
Co1 Si0 2.256711 1_555
Co1 Si0 2.256711 1_566
Co1 Si1 2.256711 1_556
Co1 Si1 2.256711 1_455
Co1 Eu0 3.195386 1_666
Co1 Eu0 3.195386 1_565
Co1 Eu0 3.195386 1_555
Co1 Eu0 3.195386 1_566
Si0 Si1 2.785999 1_555
