# generated using pymatgen
data_Cs2LiMn(CN)6
_symmetry_space_group_name_H-M   'P 1'
_cell_length_a   7.58827824
_cell_length_b   7.58827824
_cell_length_c   7.58827824
_cell_angle_alpha   60.00000000
_cell_angle_beta   60.00000000
_cell_angle_gamma   60.00000000
_symmetry_Int_Tables_number   1
_chemical_formula_structural   Cs2LiMn(CN)6
_chemical_formula_sum   'Cs2 Li1 Mn1 C6 N6'
_cell_volume   308.96888271
_cell_formula_units_Z   1
loop_
 _symmetry_equiv_pos_site_id
 _symmetry_equiv_pos_as_xyz
  1  'x, y, z'
loop_
 _atom_site_type_symbol
 _atom_site_label
 _atom_site_symmetry_multiplicity
 _atom_site_fract_x
 _atom_site_fract_y
 _atom_site_fract_z
 _atom_site_occupancy
  Cs  Cs0  1  0.75000000  0.75000000  0.75000000  1
  Cs  Cs1  1  0.25000000  0.25000000  0.25000000  1
  Li  Li0  1  0.50000000  0.50000000  0.50000000  1
  Mn  Mn0  1  0.00000000  0.00000000  0.00000000  1
  C  C0  1  0.81746300  0.81746300  0.18253700  1
  C  C1  1  0.18253700  0.18253700  0.81746300  1
  C  C2  1  0.81746300  0.18253700  0.81746300  1
  C  C3  1  0.18253700  0.81746300  0.18253700  1
  C  C4  1  0.18253700  0.81746300  0.81746300  1
  C  C5  1  0.81746300  0.18253700  0.18253700  1
  N  N0  1  0.70772500  0.70772500  0.29227500  1
  N  N1  1  0.70772500  0.29227500  0.70772500  1
  N  N2  1  0.29227500  0.29227500  0.70772500  1
  N  N3  1  0.29227500  0.70772500  0.29227500  1
  N  N4  1  0.29227500  0.70772500  0.70772500  1
  N  N5  1  0.70772500  0.29227500  0.29227500  1
loop_
_geom_bond_atom_site_label_1
_geom_bond_atom_site_label_2
_geom_bond_distance
_geom_bond_site_symmetry_2
Cs0 N0 3.821166 1_556
Cs0 N4 3.821166 1_655
Cs0 N1 3.821166 1_565
Cs0 N5 3.821166 1_565
Cs0 N3 3.821166 1_556
Cs0 N2 3.821166 1_565
Cs0 N5 3.821166 1_556
Cs0 N3 3.821166 1_655
Cs0 N2 3.821166 1_655
Cs0 N0 3.821166 1_555
Cs0 N4 3.821166 1_555
Cs0 N1 3.821166 1_555
Cs1 N5 3.821166 1_555
Cs1 N3 3.821166 1_555
Cs1 N2 3.821166 1_555
Cs1 N1 3.821166 1_554
Cs1 N0 3.821166 1_455
Cs1 N4 3.821166 1_545
Cs1 N0 3.821166 1_545
Cs1 N4 3.821166 1_554
Cs1 N1 3.821166 1_455
Cs1 N2 3.821166 1_554
Cs1 N3 3.821166 1_545
Cs1 N5 3.821166 1_455
Li0 N1 2.229190 1_555
Li0 N0 2.229190 1_555
Li0 N4 2.229190 1_555
Li0 N2 2.229190 1_555
Li0 N5 2.229190 1_555
Li0 N3 2.229190 1_555
C0 N0 1.177647 1_555
C0 Mn0 1.958886 1_665
C0 Cs0 3.862594 1_554
C0 Cs1 3.862594 1_565
C0 Cs1 3.862594 1_655
C0 Cs0 3.862594 1_555
C1 N2 1.177647 1_555
C1 Mn0 1.958886 1_556
C1 Cs1 3.862594 1_555
C1 Cs0 3.862594 1_455
C1 Cs0 3.862594 1_545
C1 Cs1 3.862594 1_556
C2 N1 1.177647 1_555
C2 Mn0 1.958886 1_656
C2 Cs0 3.862594 1_545
C2 Cs1 3.862594 1_556
C2 Cs1 3.862594 1_655
C2 Cs0 3.862594 1_555
C3 N3 1.177647 1_555
C3 Mn0 1.958886 1_565
C3 Cs1 3.862594 1_555
C3 Cs0 3.862594 1_455
C3 Cs0 3.862594 1_554
C3 Cs1 3.862594 1_565
C4 N4 1.177647 1_555
C4 Mn0 1.958886 1_566
C4 Cs0 3.862594 1_455
C4 Cs1 3.862594 1_556
C4 Cs1 3.862594 1_565
C4 Cs0 3.862594 1_555
C5 N5 1.177647 1_555
C5 Mn0 1.958886 1_655
C5 Cs1 3.862594 1_555
C5 Cs0 3.862594 1_554
C5 Cs0 3.862594 1_545
C5 Cs1 3.862594 1_655
