# generated using pymatgen
data_Sr4Nb2O9
_symmetry_space_group_name_H-M   'P 1'
_cell_length_a   10.45569073
_cell_length_b   10.45569073
_cell_length_c   10.44811469
_cell_angle_alpha   79.43548546
_cell_angle_beta   79.43548546
_cell_angle_gamma   118.05549367
_symmetry_Int_Tables_number   1
_chemical_formula_structural   Sr4Nb2O9
_chemical_formula_sum   'Sr16 Nb8 O36'
_cell_volume   941.84642690
_cell_formula_units_Z   4
loop_
 _symmetry_equiv_pos_site_id
 _symmetry_equiv_pos_as_xyz
  1  'x, y, z'
loop_
 _atom_site_type_symbol
 _atom_site_label
 _atom_site_symmetry_multiplicity
 _atom_site_fract_x
 _atom_site_fract_y
 _atom_site_fract_z
 _atom_site_occupancy
  Sr  Sr0  1  0.65985300  0.12862500  0.13663000  1
  Sr  Sr1  1  0.24772200  0.75227800  0.25000000  1
  Sr  Sr2  1  0.24140200  0.41716200  0.13557200  1
  Sr  Sr3  1  0.12862500  0.65985300  0.63663000  1
  Sr  Sr4  1  0.87137500  0.34014700  0.36337000  1
  Sr  Sr5  1  0.96106000  0.79273900  0.12128800  1
  Sr  Sr6  1  0.75227800  0.24772200  0.75000000  1
  Sr  Sr7  1  0.58283800  0.75859800  0.36442800  1
  Sr  Sr8  1  0.79273900  0.96106000  0.62128700  1
  Sr  Sr9  1  0.57636500  0.42363500  0.25000000  1
  Sr  Sr10  1  0.34014700  0.87137500  0.86337000  1
  Sr  Sr11  1  0.42363500  0.57636500  0.75000000  1
  Sr  Sr12  1  0.41716200  0.24140200  0.63557200  1
  Sr  Sr13  1  0.20726100  0.03894000  0.37871300  1
  Sr  Sr14  1  0.03894000  0.20726100  0.87871300  1
  Sr  Sr15  1  0.75859800  0.58283800  0.86442800  1
  Nb  Nb0  1  0.00000000  0.50000000  0.00000000  1
  Nb  Nb1  1  0.50000000  0.00000000  0.50000000  1
  Nb  Nb2  1  0.16484200  0.33503800  0.49590100  1
  Nb  Nb3  1  0.92361800  0.07638200  0.25000000  1
  Nb  Nb4  1  0.83515800  0.66496200  0.50409900  1
  Nb  Nb5  1  0.66496200  0.83515800  0.00409900  1
  Nb  Nb6  1  0.33503800  0.16484200  0.99590100  1
  Nb  Nb7  1  0.07638200  0.92361800  0.75000000  1
  O  O0  1  0.49921900  0.81692600  0.13218600  1
  O  O1  1  0.39611700  0.89913300  0.37593300  1
  O  O2  1  0.10754800  0.12009400  0.12214600  1
  O  O3  1  0.95512700  0.28924800  0.12735900  1
  O  O4  1  0.18307400  0.50078100  0.36781400  1
  O  O5  1  0.03085000  0.20337800  0.35745600  1
  O  O6  1  0.79662200  0.96915000  0.14254400  1
  O  O7  1  0.95371600  0.24447300  0.60073600  1
  O  O8  1  0.68775300  0.68301700  0.11940300  1
  O  O9  1  0.80013800  0.45206300  0.11184200  1
  O  O10  1  0.71075200  0.04487300  0.37264100  1
  O  O11  1  0.87990600  0.89245200  0.37785400  1
  O  O12  1  0.72309800  0.57147800  0.38926100  1
  O  O13  1  0.89913300  0.39611700  0.87593300  1
  O  O14  1  0.42852200  0.27690200  0.11073900  1
  O  O15  1  0.68301700  0.68775300  0.61940300  1
  O  O16  1  0.45206300  0.80013800  0.61184200  1
  O  O17  1  0.24447300  0.95371600  0.10073600  1
  O  O18  1  0.54793700  0.19986200  0.38815800  1
  O  O19  1  0.75552700  0.04628400  0.89926400  1
  O  O20  1  0.31698300  0.31224700  0.38059700  1
  O  O21  1  0.57147800  0.72309800  0.88926100  1
  O  O22  1  0.27690200  0.42852200  0.61073900  1
  O  O23  1  0.10086700  0.60388300  0.12406700  1
  O  O24  1  0.12009400  0.10754800  0.62214600  1
  O  O25  1  0.28924800  0.95512700  0.62735900  1
  O  O26  1  0.04628400  0.75552700  0.39926400  1
  O  O27  1  0.19986200  0.54793700  0.88815800  1
  O  O28  1  0.31224700  0.31698300  0.88059700  1
  O  O29  1  0.20337800  0.03085000  0.85745600  1
  O  O30  1  0.96915000  0.79662200  0.64254400  1
  O  O31  1  0.81692600  0.49921900  0.63218600  1
  O  O32  1  0.89245200  0.87990600  0.87785400  1
  O  O33  1  0.04487300  0.71075200  0.87264100  1
  O  O34  1  0.60388300  0.10086700  0.62406700  1
  O  O35  1  0.50078100  0.18307400  0.86781400  1
loop_
_geom_bond_atom_site_label_1
_geom_bond_atom_site_label_2
_geom_bond_distance
_geom_bond_site_symmetry_2
Nb0 O27 1.971834 1_554
Nb0 O9 1.971834 1_455
Nb0 O23 1.977969 1_555
Nb0 O13 1.977969 1_454
Nb0 O33 2.137717 1_554
Nb0 O3 2.137717 1_455
Nb1 O18 1.971834 1_555
Nb1 O16 1.971834 1_545
Nb1 O34 1.977969 1_555
Nb1 O1 1.977969 1_545
Nb1 O10 2.137717 1_555
Nb1 O25 2.137717 1_545
Nb2 O4 1.890965 1_555
Nb2 O22 1.906847 1_555
Nb2 O7 1.932911 1_455
Nb2 O20 1.948766 1_555
Nb2 O24 2.278761 1_555
Nb2 O5 2.368376 1_555
Nb3 O11 1.923294 1_545
Nb3 O2 1.923294 1_655
Nb3 O6 1.971927 1_545
Nb3 O5 1.971927 1_655
Nb3 O10 2.194024 1_555
Nb3 O3 2.194024 1_555
Nb4 O31 1.890965 1_555
Nb4 O12 1.906847 1_555
Nb4 O26 1.932911 1_655
Nb4 O15 1.948766 1_555
Nb4 O11 2.278761 1_555
Nb4 O30 2.368376 1_555
Nb5 O0 1.890965 1_555
Nb5 O21 1.906847 1_554
Nb5 O19 1.932911 1_564
Nb5 O8 1.948766 1_555
Nb5 O32 2.278761 1_554
Nb5 O6 2.368376 1_555
Nb6 O35 1.890965 1_555
Nb6 O14 1.906847 1_556
Nb6 O17 1.932911 1_546
Nb6 O28 1.948766 1_555
Nb6 O2 2.278761 1_556
Nb6 O29 2.368376 1_555
Nb7 O32 1.923294 1_455
Nb7 O24 1.923294 1_565
Nb7 O30 1.971927 1_455
Nb7 O29 1.971927 1_565
Nb7 O33 2.194024 1_555
Nb7 O25 2.194024 1_555
O0 Sr1 2.392241 1_555
O0 Sr7 2.785860 1_555
O0 Sr0 2.894743 1_565
O1 Sr1 2.396806 1_555
O1 Sr0 2.942940 1_565
O1 Sr7 2.943157 1_555
O1 Sr13 2.957441 1_565
O1 Sr3 3.102633 1_555
O2 Sr2 2.787228 1_555
O2 Sr14 2.871966 1_554
O2 Sr5 3.024245 1_445
O2 Sr13 3.164752 1_555
O3 Sr2 2.669455 1_655
O3 Sr4 2.694130 1_555
O3 Sr0 2.704580 1_555
O3 Sr14 2.990020 1_654
O4 Sr1 2.392241 1_555
O4 Sr2 2.785860 1_555
O4 Sr4 2.894743 1_455
O5 Sr2 2.610910 1_555
O5 Sr4 2.658308 1_455
O5 Sr8 3.033990 1_445
O5 Sr13 3.066072 1_555
O6 Sr7 2.610910 1_555
O6 Sr0 2.658308 1_565
O6 Sr14 3.033990 1_664
O6 Sr5 3.066072 1_555
O7 Sr6 2.398238 1_555
O7 Sr8 2.569559 1_545
O7 Sr4 2.928439 1_555
O7 Sr14 3.200203 1_655
O8 Sr9 2.379611 1_555
O8 Sr5 2.535276 1_555
O8 Sr7 2.984825 1_555
O8 Sr15 3.126051 1_554
O9 Sr9 2.365650 1_555
O9 Sr15 2.900825 1_554
O9 Sr0 2.920358 1_555
O9 Sr4 3.039799 1_555
O9 Sr5 3.175029 1_555
O10 Sr7 2.669455 1_545
O10 Sr0 2.694130 1_555
O10 Sr4 2.704580 1_555
O10 Sr8 2.990020 1_545
O11 Sr7 2.787228 1_555
O11 Sr8 2.871966 1_555
O11 Sr13 3.024248 1_665
O11 Sr5 3.164743 1_555
O12 Sr9 2.504553 1_555
O12 Sr7 2.949247 1_555
O12 Sr5 3.006252 1_555
O13 Sr6 2.396806 1_555
O13 Sr3 2.942940 1_655
O13 Sr15 2.943157 1_555
O13 Sr14 2.957441 1_655
O13 Sr0 3.102633 1_556
O14 Sr9 2.504553 1_555
O14 Sr2 2.949247 1_555
O14 Sr13 3.006259 1_555
O15 Sr11 2.379611 1_555
O15 Sr8 2.535273 1_555
O15 Sr15 2.984825 1_555
O15 Sr7 3.126051 1_555
O16 Sr11 2.365650 1_555
O16 Sr7 2.900825 1_555
O16 Sr3 2.920358 1_555
O16 Sr10 3.039799 1_555
O16 Sr8 3.175025 1_555
O17 Sr1 2.398238 1_555
O17 Sr5 2.569556 1_455
O17 Sr10 2.928439 1_554
O17 Sr13 3.200203 1_565
O18 Sr9 2.365650 1_555
O18 Sr12 2.900825 1_555
O18 Sr4 2.920358 1_555
O18 Sr0 3.039799 1_555
O18 Sr13 3.175025 1_555
O19 Sr6 2.398238 1_555
O19 Sr14 2.569559 1_655
O19 Sr0 2.928439 1_556
O19 Sr8 3.200203 1_545
O20 Sr9 2.379611 1_555
O20 Sr13 2.535273 1_555
O20 Sr2 2.984825 1_555
O20 Sr12 3.126051 1_555
O21 Sr11 2.504553 1_555
O21 Sr15 2.949247 1_555
O21 Sr8 3.006259 1_555
O22 Sr11 2.504553 1_555
O22 Sr12 2.949247 1_555
O22 Sr14 3.006259 1_555
O23 Sr1 2.396806 1_555
O23 Sr4 2.942940 1_455
O23 Sr2 2.943157 1_555
O23 Sr5 2.957441 1_455
O23 Sr10 3.102633 1_554
O24 Sr12 2.787228 1_555
O24 Sr13 2.871966 1_555
O24 Sr8 3.024248 1_445
O24 Sr14 3.164752 1_555
O25 Sr12 2.669455 1_565
O25 Sr10 2.694130 1_555
O25 Sr3 2.704580 1_555
O25 Sr13 2.990020 1_565
O26 Sr1 2.398238 1_555
O26 Sr13 2.569559 1_565
O26 Sr3 2.928439 1_555
O26 Sr5 3.200193 1_455
O27 Sr11 2.365650 1_555
O27 Sr2 2.900825 1_556
O27 Sr10 2.920358 1_555
O27 Sr3 3.039799 1_555
O27 Sr14 3.175025 1_555
O28 Sr11 2.379611 1_555
O28 Sr14 2.535273 1_555
O28 Sr12 2.984825 1_555
O28 Sr2 3.126051 1_556
O29 Sr12 2.610910 1_555
O29 Sr10 2.658308 1_545
O29 Sr5 3.033996 1_446
O29 Sr14 3.066072 1_555
O30 Sr15 2.610910 1_555
O30 Sr3 2.658308 1_655
O30 Sr13 3.033990 1_665
O30 Sr8 3.066072 1_555
O31 Sr6 2.392241 1_555
O31 Sr15 2.785860 1_555
O31 Sr3 2.894743 1_655
O32 Sr15 2.787228 1_555
O32 Sr5 2.871975 1_556
O32 Sr14 3.024248 1_665
O32 Sr8 3.164752 1_555
O33 Sr15 2.669455 1_455
O33 Sr3 2.694130 1_555
O33 Sr10 2.704580 1_555
O33 Sr5 2.990029 1_456
O34 Sr6 2.396806 1_555
O34 Sr10 2.942940 1_545
O34 Sr12 2.943157 1_555
O34 Sr8 2.957441 1_545
O34 Sr4 3.102633 1_555
O35 Sr6 2.392241 1_555
O35 Sr12 2.785860 1_555
O35 Sr10 2.894743 1_545
