# generated using pymatgen
data_Sr2DyGaCu2O7
_symmetry_space_group_name_H-M   'P 1'
_cell_length_a   5.40663200
_cell_length_b   5.51196324
_cell_length_c   12.18687043
_cell_angle_alpha   103.06399721
_cell_angle_beta   102.79971152
_cell_angle_gamma   90.03848157
_symmetry_Int_Tables_number   1
_chemical_formula_structural   Sr2DyGaCu2O7
_chemical_formula_sum   'Sr4 Dy2 Ga2 Cu4 O14'
_cell_volume   344.49897104
_cell_formula_units_Z   2
loop_
 _symmetry_equiv_pos_site_id
 _symmetry_equiv_pos_as_xyz
  1  'x, y, z'
loop_
 _atom_site_type_symbol
 _atom_site_label
 _atom_site_symmetry_multiplicity
 _atom_site_fract_x
 _atom_site_fract_y
 _atom_site_fract_z
 _atom_site_occupancy
  Sr  Sr0  1  0.15093500  0.13454500  0.69781900  1
  Sr  Sr1  1  0.65020200  0.66705500  0.69695800  1
  Sr  Sr2  1  0.34474800  0.33281800  0.30223100  1
  Sr  Sr3  1  0.84500600  0.86465800  0.30269100  1
  Dy  Dy0  1  0.50053600  0.49924800  0.99980600  1
  Dy  Dy1  1  0.99909000  0.99900100  0.00053800  1
  Ga  Ga0  1  0.20946300  0.68113700  0.49948100  1
  Ga  Ga1  1  0.70803300  0.31763500  0.49990300  1
  Cu  Cu0  1  0.92787900  0.42865900  0.14394900  1
  Cu  Cu1  1  0.57265600  0.07123300  0.85679800  1
  Cu  Cu2  1  0.07203000  0.56971200  0.85643700  1
  Cu  Cu3  1  0.42740100  0.92744300  0.14373000  1
  O  O0  1  0.68817700  0.18897800  0.12241400  1
  O  O1  1  0.20139000  0.72014200  0.64696600  1
  O  O2  1  0.68473900  0.68561400  0.12861000  1
  O  O3  1  0.85831700  0.63199100  0.49952100  1
  O  O4  1  0.81552400  0.31200300  0.87239000  1
  O  O5  1  0.30896500  0.81142300  0.87886300  1
  O  O6  1  0.18893100  0.18817500  0.12156500  1
  O  O7  1  0.35698800  0.36603900  0.49933900  1
  O  O8  1  0.31638400  0.31404400  0.87094100  1
  O  O9  1  0.34895400  0.86970100  0.35278400  1
  O  O10  1  0.69674600  0.13252500  0.64794900  1
  O  O11  1  0.18439800  0.68606300  0.12948100  1
  O  O12  1  0.84859300  0.27589400  0.35336200  1
  O  O13  1  0.80984000  0.80808300  0.87754500  1
loop_
_geom_bond_atom_site_label_1
_geom_bond_atom_site_label_2
_geom_bond_distance
_geom_bond_site_symmetry_2
Dy0 O8 1.755224 1_555
Dy0 O2 1.757290 1_556
Dy0 O0 2.583128 1_556
Dy0 O5 2.584285 1_555
Dy1 O6 1.717184 1_665
Dy1 O13 1.734062 1_554
Dy1 O5 2.546507 1_654
Dy1 O0 2.556139 1_565
Ga0 O1 1.771661 1_555
Ga0 O7 1.911494 1_555
Ga0 O3 1.917688 1_455
Ga0 O9 2.506308 1_555
Ga1 O3 1.914673 1_555
Ga1 O7 1.915530 1_555
Ga1 O12 2.058071 1_555
Ga1 O10 2.276159 1_555
Cu0 O0 1.784386 1_555
Cu0 O2 1.944820 1_555
Cu0 O6 1.957854 1_655
Cu0 O11 2.046067 1_655
Cu1 O4 1.815122 1_555
Cu1 O8 1.935136 1_555
Cu1 O13 1.958799 1_545
Cu1 O5 2.120587 1_545
Cu2 O5 1.780086 1_555
Cu2 O8 1.942733 1_555
Cu2 O13 1.952756 1_455
Cu2 O4 2.054397 1_455
Cu3 O11 1.821698 1_555
Cu3 O2 1.936897 1_555
Cu3 O6 1.955600 1_565
Cu3 O0 2.112425 1_565
O1 Sr0 2.260913 1_565
O1 Sr1 2.402395 1_555
O2 Sr3 2.112668 1_555
O6 Sr2 2.139329 1_555
O7 Sr2 2.353473 1_555
O8 Sr0 2.109333 1_555
O9 Sr3 2.655646 1_455
O9 Sr2 2.757011 1_565
O9 Sr3 2.878247 1_555
O9 Sr2 2.882169 1_555
O10 Sr0 2.394839 1_655
O10 Sr1 2.785878 1_545
O10 Sr1 2.893588 1_555
O10 Sr0 3.141584 1_555
O12 Sr3 2.209425 1_545
O12 Sr2 2.691634 1_555
O12 Sr2 2.917292 1_655
O13 Sr1 2.139331 1_555
