# generated using pymatgen
data_VSb2NCl14
_symmetry_space_group_name_H-M   'P 1'
_cell_length_a   6.43426200
_cell_length_b   13.09297100
_cell_length_c   25.23974594
_cell_angle_alpha   72.42829339
_cell_angle_beta   90.00000000
_cell_angle_gamma   90.00000000
_symmetry_Int_Tables_number   1
_chemical_formula_structural   VSb2NCl14
_chemical_formula_sum   'V4 Sb8 N4 Cl56'
_cell_volume   2027.07435974
_cell_formula_units_Z   4
loop_
 _symmetry_equiv_pos_site_id
 _symmetry_equiv_pos_as_xyz
  1  'x, y, z'
loop_
 _atom_site_type_symbol
 _atom_site_label
 _atom_site_symmetry_multiplicity
 _atom_site_fract_x
 _atom_site_fract_y
 _atom_site_fract_z
 _atom_site_occupancy
  V  V0  1  0.94889300  0.87243100  0.13812400  1
  V  V1  1  0.55110700  0.87243100  0.63812400  1
  V  V2  1  0.05110700  0.12756900  0.86187600  1
  V  V3  1  0.44889300  0.12756900  0.36187600  1
  Sb  Sb0  1  0.42900300  0.29578200  0.46603700  1
  Sb  Sb1  1  0.60059100  0.29800400  0.21219000  1
  Sb  Sb2  1  0.10059100  0.70199600  0.28781000  1
  Sb  Sb3  1  0.39940900  0.70199600  0.78781000  1
  Sb  Sb4  1  0.89940900  0.29800400  0.71219000  1
  Sb  Sb5  1  0.92900300  0.70421800  0.03396300  1
  Sb  Sb6  1  0.57099700  0.70421800  0.53396300  1
  Sb  Sb7  1  0.07099700  0.29578200  0.96603700  1
  N  N0  1  0.41659000  0.97523600  0.64626600  1
  N  N1  1  0.08341000  0.97523600  0.14626600  1
  N  N2  1  0.58341000  0.02476400  0.35373400  1
  N  N3  1  0.91659000  0.02476400  0.85373400  1
  Cl  Cl0  1  0.29092800  0.19119100  0.27025100  1
  Cl  Cl1  1  0.71755400  0.92869100  0.34680600  1
  Cl  Cl2  1  0.77719000  0.69674900  0.12582000  1
  Cl  Cl3  1  0.42042300  0.31565500  0.12816700  1
  Cl  Cl4  1  0.83993100  0.95511500  0.60484400  1
  Cl  Cl5  1  0.25804300  0.44253800  0.97506900  1
  Cl  Cl6  1  0.16492700  0.16935100  0.50711300  1
  Cl  Cl7  1  0.61792900  0.12852800  0.44258800  1
  Cl  Cl8  1  0.07957700  0.31565500  0.62816700  1
  Cl  Cl9  1  0.83507300  0.83064900  0.49288700  1
  Cl  Cl10  1  0.38170800  0.74963100  0.44995600  1
  Cl  Cl11  1  0.40906500  0.61470700  0.32475800  1
  Cl  Cl12  1  0.57957700  0.68434500  0.87183300  1
  Cl  Cl13  1  0.78766300  0.39732000  0.91773400  1
  Cl  Cl14  1  0.21755400  0.07130900  0.15319400  1
  Cl  Cl15  1  0.88170800  0.25036900  0.05004400  1
  Cl  Cl16  1  0.71233700  0.39732000  0.41773400  1
  Cl  Cl17  1  0.75804300  0.55746200  0.52493100  1
  Cl  Cl18  1  0.76934100  0.25824000  0.81080600  1
  Cl  Cl19  1  0.22281000  0.30325100  0.87418000  1
  Cl  Cl20  1  0.24195700  0.44253800  0.47506900  1
  Cl  Cl21  1  0.72821100  0.12624400  0.21296500  1
  Cl  Cl22  1  0.11829200  0.74963100  0.94995600  1
  Cl  Cl23  1  0.66492700  0.83064900  0.99288700  1
  Cl  Cl24  1  0.79092800  0.80880900  0.22974900  1
  Cl  Cl25  1  0.70907200  0.80880900  0.72974900  1
  Cl  Cl26  1  0.66006900  0.95511500  0.10484400  1
  Cl  Cl27  1  0.74195700  0.55746200  0.02493100  1
  Cl  Cl28  1  0.61829200  0.25036900  0.55004400  1
  Cl  Cl29  1  0.05817800  0.45328500  0.72280800  1
  Cl  Cl30  1  0.78244600  0.92869100  0.84680600  1
  Cl  Cl31  1  0.55817800  0.54671500  0.77719200  1
  Cl  Cl32  1  0.72281000  0.69674900  0.62582000  1
  Cl  Cl33  1  0.28766300  0.60268000  0.58226600  1
  Cl  Cl34  1  0.44182200  0.45328500  0.22280800  1
  Cl  Cl35  1  0.27719000  0.30325100  0.37418000  1
  Cl  Cl36  1  0.21233700  0.60268000  0.08226600  1
  Cl  Cl37  1  0.11792900  0.87147200  0.05741200  1
  Cl  Cl38  1  0.90906500  0.38529300  0.17524200  1
  Cl  Cl39  1  0.92042300  0.68434500  0.37183300  1
  Cl  Cl40  1  0.59093500  0.38529300  0.67524200  1
  Cl  Cl41  1  0.33993100  0.04488500  0.89515600  1
  Cl  Cl42  1  0.22821100  0.87375600  0.28703500  1
  Cl  Cl43  1  0.38207100  0.87147200  0.55741200  1
  Cl  Cl44  1  0.20907200  0.19119100  0.77025100  1
  Cl  Cl45  1  0.16006900  0.04488500  0.39515600  1
  Cl  Cl46  1  0.23065900  0.74176000  0.18919400  1
  Cl  Cl47  1  0.94182200  0.54671500  0.27719200  1
  Cl  Cl48  1  0.33507300  0.16935100  0.00711300  1
  Cl  Cl49  1  0.28244600  0.07130900  0.65319400  1
  Cl  Cl50  1  0.26934100  0.74176000  0.68919400  1
  Cl  Cl51  1  0.73065900  0.25824000  0.31080600  1
  Cl  Cl52  1  0.27178900  0.87375600  0.78703500  1
  Cl  Cl53  1  0.09093500  0.61470700  0.82475800  1
  Cl  Cl54  1  0.77178900  0.12624400  0.71296500  1
  Cl  Cl55  1  0.88207100  0.12852800  0.94258800  1
loop_
_geom_bond_atom_site_label_1
_geom_bond_atom_site_label_2
_geom_bond_distance
_geom_bond_site_symmetry_2
N0 V1 1.664376 1_555
N1 V0 1.664376 1_455
N2 V3 1.664376 1_555
N3 V2 1.664376 1_655
Cl0 V3 2.431433 1_555
Cl0 Sb1 2.614529 1_555
Cl1 N2 1.578170 1_565
Cl2 Sb5 2.490384 1_555
Cl2 V0 2.653151 1_555
Cl3 Sb1 2.366176 1_555
Cl4 V1 2.186783 1_555
Cl5 Sb7 2.336006 1_555
Cl6 Sb0 2.380311 1_555
Cl7 V3 2.312684 1_555
Cl7 Sb0 2.721392 1_555
Cl8 Sb4 2.366176 1_455
Cl9 Sb6 2.380311 1_555
Cl10 Sb6 2.360386 1_555
Cl11 Sb2 2.339175 1_555
Cl12 Sb3 2.366176 1_555
Cl13 Sb7 2.366136 1_655
Cl14 N1 1.578170 1_545
Cl15 Sb7 2.360386 1_654
Cl16 Sb0 2.366136 1_555
Cl17 Sb6 2.336006 1_555
Cl18 Sb4 2.526724 1_555
Cl18 V2 2.558093 1_655
Cl19 Sb7 2.490384 1_555
Cl19 V2 2.653151 1_555
Cl20 Sb0 2.336006 1_555
Cl21 Sb1 2.388601 1_555
Cl22 Sb5 2.360386 1_456
Cl23 Sb5 2.380311 1_556
Cl24 V0 2.431433 1_555
Cl24 Sb2 2.614529 1_655
Cl25 V1 2.431433 1_555
Cl25 Sb3 2.614529 1_555
Cl26 V0 2.186783 1_555
Cl27 Sb5 2.336006 1_555
Cl28 Sb0 2.360386 1_555
Cl29 Sb4 2.361747 1_455
Cl30 N3 1.578170 1_565
Cl31 Sb3 2.361747 1_555
Cl32 Sb6 2.490384 1_555
Cl32 V1 2.653151 1_555
Cl33 Sb6 2.366136 1_555
Cl34 Sb1 2.361747 1_555
Cl35 Sb0 2.490384 1_555
Cl35 V3 2.653151 1_555
Cl36 Sb5 2.366136 1_455
Cl37 V0 2.312684 1_455
Cl37 Sb5 2.721392 1_455
Cl38 Sb1 2.339175 1_555
Cl39 Sb2 2.366176 1_655
Cl40 Sb4 2.339175 1_555
Cl41 V2 2.186783 1_555
Cl42 Sb2 2.388601 1_555
Cl43 V1 2.312684 1_555
Cl43 Sb6 2.721392 1_555
Cl44 V2 2.431433 1_555
Cl44 Sb4 2.614529 1_455
Cl45 V3 2.186783 1_555
Cl46 Sb2 2.526724 1_555
Cl46 V0 2.558093 1_455
Cl47 Sb2 2.361747 1_655
Cl48 Sb7 2.380311 1_554
Cl49 N0 1.578170 1_545
Cl50 Sb3 2.526724 1_555
Cl50 V1 2.558093 1_555
Cl51 Sb1 2.526724 1_555
Cl51 V3 2.558093 1_555
Cl52 Sb3 2.388601 1_555
Cl53 Sb3 2.339175 1_555
Cl54 Sb4 2.388601 1_555
Cl55 V2 2.312684 1_655
Cl55 Sb7 2.721392 1_655
