# generated using pymatgen
data_Mg5V2(MoO8)2
_symmetry_space_group_name_H-M   'P 1'
_cell_length_a   10.47882500
_cell_length_b   10.23045000
_cell_length_c   17.68322297
_cell_angle_alpha   89.88284039
_cell_angle_beta   90.00000000
_cell_angle_gamma   90.00000000
_symmetry_Int_Tables_number   1
_chemical_formula_structural   Mg5V2(MoO8)2
_chemical_formula_sum   'Mg30 V12 Mo12 O96'
_cell_volume   1895.69227257
_cell_formula_units_Z   6
loop_
 _symmetry_equiv_pos_site_id
 _symmetry_equiv_pos_as_xyz
  1  'x, y, z'
loop_
 _atom_site_type_symbol
 _atom_site_label
 _atom_site_symmetry_multiplicity
 _atom_site_fract_x
 _atom_site_fract_y
 _atom_site_fract_z
 _atom_site_occupancy
  Mg  Mg0  1  0.07410700  0.11523900  0.97350900  1
  Mg  Mg1  1  0.75000000  0.11844100  0.29990500  1
  Mg  Mg2  1  0.25000000  0.11211100  0.80233200  1
  Mg  Mg3  1  0.25000000  0.36424200  0.69454800  1
  Mg  Mg4  1  0.57814100  0.36432800  0.02721300  1
  Mg  Mg5  1  0.07486900  0.88567600  0.52648600  1
  Mg  Mg6  1  0.75000000  0.88788900  0.19766800  1
  Mg  Mg7  1  0.92589300  0.88476100  0.02649100  1
  Mg  Mg8  1  0.42513100  0.88567600  0.52648600  1
  Mg  Mg9  1  0.75000000  0.05479200  0.75096600  1
  Mg  Mg10  1  0.75000000  0.78720600  0.75064700  1
  Mg  Mg11  1  0.57486900  0.11432400  0.47351400  1
  Mg  Mg12  1  0.75000000  0.36456000  0.19671700  1
  Mg  Mg13  1  0.92224400  0.63606100  0.47271100  1
  Mg  Mg14  1  0.42224400  0.36393900  0.52728900  1
  Mg  Mg15  1  0.57775600  0.63606100  0.47271100  1
  Mg  Mg16  1  0.92185900  0.36432800  0.02721300  1
  Mg  Mg17  1  0.07814100  0.63567200  0.97278700  1
  Mg  Mg18  1  0.57410700  0.88476100  0.02649100  1
  Mg  Mg19  1  0.07775600  0.36393900  0.52728900  1
  Mg  Mg20  1  0.42589300  0.11523900  0.97350900  1
  Mg  Mg21  1  0.42185900  0.63567200  0.97278700  1
  Mg  Mg22  1  0.25000000  0.21279400  0.24935300  1
  Mg  Mg23  1  0.25000000  0.94520800  0.24903400  1
  Mg  Mg24  1  0.75000000  0.63575800  0.30545200  1
  Mg  Mg25  1  0.75000000  0.32338400  0.74727600  1
  Mg  Mg26  1  0.25000000  0.88155900  0.70009500  1
  Mg  Mg27  1  0.92513100  0.11432400  0.47351400  1
  Mg  Mg28  1  0.25000000  0.67661600  0.25272400  1
  Mg  Mg29  1  0.25000000  0.63544000  0.80328300  1
  V  V0  1  0.02499600  0.88592200  0.84218600  1
  V  V1  1  0.75000000  0.88795100  0.56146700  1
  V  V2  1  0.52499600  0.11407800  0.15781400  1
  V  V3  1  0.47332900  0.13923900  0.65785900  1
  V  V4  1  0.02667100  0.13923900  0.65785900  1
  V  V5  1  0.25000000  0.11204900  0.43853300  1
  V  V6  1  0.52667100  0.86076100  0.34214100  1
  V  V7  1  0.97332900  0.86076100  0.34214100  1
  V  V8  1  0.47500400  0.88592200  0.84218600  1
  V  V9  1  0.97500400  0.11407800  0.15781400  1
  V  V10  1  0.25000000  0.85839800  0.05929300  1
  V  V11  1  0.75000000  0.14160200  0.94070700  1
  Mo  Mo0  1  0.53188100  0.60853800  0.15620600  1
  Mo  Mo1  1  0.97138800  0.36192400  0.34385400  1
  Mo  Mo2  1  0.96811900  0.60853800  0.15620600  1
  Mo  Mo3  1  0.03188100  0.39146200  0.84379400  1
  Mo  Mo4  1  0.25000000  0.60746400  0.44770300  1
  Mo  Mo5  1  0.25000000  0.35843000  0.05500200  1
  Mo  Mo6  1  0.47138800  0.63807600  0.65614600  1
  Mo  Mo7  1  0.02861200  0.63807600  0.65614600  1
  Mo  Mo8  1  0.75000000  0.39253600  0.55229700  1
  Mo  Mo9  1  0.46811900  0.39146200  0.84379400  1
  Mo  Mo10  1  0.75000000  0.64157000  0.94499800  1
  Mo  Mo11  1  0.52861200  0.36192400  0.34385400  1
  O  O0  1  0.37316800  0.04233400  0.71338300  1
  O  O1  1  0.88801400  0.67495700  0.70411800  1
  O  O2  1  0.88368000  0.04786600  0.96316000  1
  O  O3  1  0.75000000  0.78066200  0.01179000  1
  O  O4  1  0.51317100  0.79235800  0.92305500  1
  O  O5  1  0.87175800  0.46592900  0.28458900  1
  O  O6  1  0.61384100  0.29192800  0.53170900  1
  O  O7  1  0.38594700  0.20763300  0.45834700  1
  O  O8  1  0.75000000  0.53398400  0.48617800  1
  O  O9  1  0.62398000  0.21196600  0.21576500  1
  O  O10  1  0.12063300  0.53732200  0.87399300  1
  O  O11  1  0.38615900  0.70807200  0.46829100  1
  O  O12  1  0.38443800  0.07898200  0.20509600  1
  O  O13  1  0.62683200  0.95766600  0.28661700  1
  O  O14  1  0.11476400  0.81732400  0.29572400  1
  O  O15  1  0.99791600  0.29211700  0.92571700  1
  O  O16  1  0.87316800  0.95766600  0.28661700  1
  O  O17  1  0.49791600  0.70788300  0.07428300  1
  O  O18  1  0.38523600  0.81732400  0.29572400  1
  O  O19  1  0.11632000  0.95213400  0.03684000  1
  O  O20  1  0.60995900  0.43273300  0.79707200  1
  O  O21  1  0.88594700  0.79236700  0.54165300  1
  O  O22  1  0.88773600  0.71942200  0.37123400  1
  O  O23  1  0.38368000  0.95213400  0.03684000  1
  O  O24  1  0.61476400  0.18267600  0.70427600  1
  O  O25  1  0.98682900  0.79235800  0.92305500  1
  O  O26  1  0.25000000  0.56608300  0.35162100  1
  O  O27  1  0.37936700  0.53732200  0.87399300  1
  O  O28  1  0.62824200  0.46592900  0.28458900  1
  O  O29  1  0.37602000  0.78803400  0.78423500  1
  O  O30  1  0.88615900  0.29192800  0.53170900  1
  O  O31  1  0.48682900  0.20764200  0.07694500  1
  O  O32  1  0.12683200  0.04233400  0.71338300  1
  O  O33  1  0.61632000  0.04786600  0.96316000  1
  O  O34  1  0.61556200  0.92101800  0.79490400  1
  O  O35  1  0.75000000  0.92251900  0.65735500  1
  O  O36  1  0.87936700  0.46267800  0.12600700  1
  O  O37  1  0.11556200  0.07898200  0.20509600  1
  O  O38  1  0.88523600  0.18267600  0.70427600  1
  O  O39  1  0.25000000  0.46601600  0.51382200  1
  O  O40  1  0.75000000  0.68416100  0.84965100  1
  O  O41  1  0.87602000  0.21196600  0.21576500  1
  O  O42  1  0.75000000  0.02584800  0.49949200  1
  O  O43  1  0.25000000  0.72011200  0.99699700  1
  O  O44  1  0.75000000  0.18447000  0.84495100  1
  O  O45  1  0.13110200  0.28766200  0.78651100  1
  O  O46  1  0.36889800  0.28766200  0.78651100  1
  O  O47  1  0.88008200  0.21815300  0.37372600  1
  O  O48  1  0.61405300  0.79236700  0.54165300  1
  O  O49  1  0.25000000  0.97415200  0.50050800  1
  O  O50  1  0.61201000  0.53910000  0.96358900  1
  O  O51  1  0.25000000  0.07748100  0.34264500  1
  O  O52  1  0.01317100  0.20764200  0.07694500  1
  O  O53  1  0.11384100  0.70807200  0.46829100  1
  O  O54  1  0.38008200  0.78184700  0.62627400  1
  O  O55  1  0.63110200  0.71233800  0.21348900  1
  O  O56  1  0.88443800  0.92101800  0.79490400  1
  O  O57  1  0.86889800  0.71233800  0.21348900  1
  O  O58  1  0.50476100  0.04744400  0.57693900  1
  O  O59  1  0.10995900  0.56726700  0.20292800  1
  O  O60  1  0.38801400  0.02523300  0.87113800  1
  O  O61  1  0.00476100  0.95255600  0.42306100  1
  O  O62  1  0.12398000  0.78803400  0.78423500  1
  O  O63  1  0.61198600  0.97476700  0.12886200  1
  O  O64  1  0.11405300  0.20763300  0.45834700  1
  O  O65  1  0.12824200  0.53407100  0.71541100  1
  O  O66  1  0.88801400  0.97476700  0.12886200  1
  O  O67  1  0.25000000  0.81553000  0.15504900  1
  O  O68  1  0.51069400  0.53780600  0.57431700  1
  O  O69  1  0.01069400  0.46219400  0.42568300  1
  O  O70  1  0.62063300  0.46267800  0.12600700  1
  O  O71  1  0.50208400  0.29211700  0.92571700  1
  O  O72  1  0.61991800  0.21815300  0.37372600  1
  O  O73  1  0.00208400  0.70788300  0.07428300  1
  O  O74  1  0.11198600  0.32504300  0.29588200  1
  O  O75  1  0.99523900  0.04744400  0.57693900  1
  O  O76  1  0.37175800  0.53407100  0.71541100  1
  O  O77  1  0.98930600  0.53780600  0.57431700  1
  O  O78  1  0.38801400  0.32504300  0.29588200  1
  O  O79  1  0.25000000  0.21933800  0.98821000  1
  O  O80  1  0.11991800  0.78184700  0.62627400  1
  O  O81  1  0.61226400  0.71942200  0.37123400  1
  O  O82  1  0.88799000  0.53910000  0.96358900  1
  O  O83  1  0.49523900  0.95255600  0.42306100  1
  O  O84  1  0.38799000  0.46090000  0.03641100  1
  O  O85  1  0.61198600  0.67495700  0.70411800  1
  O  O86  1  0.75000000  0.43391700  0.64837900  1
  O  O87  1  0.89004100  0.43273300  0.79707200  1
  O  O88  1  0.39004100  0.56726700  0.20292800  1
  O  O89  1  0.38773600  0.28057800  0.62876600  1
  O  O90  1  0.25000000  0.31583900  0.15034900  1
  O  O91  1  0.48930600  0.46219400  0.42568300  1
  O  O92  1  0.75000000  0.27988800  0.00300300  1
  O  O93  1  0.11226400  0.28057800  0.62876600  1
  O  O94  1  0.11198600  0.02523300  0.87113800  1
  O  O95  1  0.11201000  0.46090000  0.03641100  1
loop_
_geom_bond_atom_site_label_1
_geom_bond_atom_site_label_2
_geom_bond_distance
_geom_bond_site_symmetry_2
Mg0 O19 2.055856 1_546
Mg0 O94 2.071050 1_555
Mg0 O2 2.119176 1_455
Mg0 O79 2.144785 1_555
Mg0 O15 2.149381 1_455
Mg0 O52 2.157309 1_556
Mg1 O16 2.104271 1_545
Mg1 O13 2.104271 1_545
Mg1 O47 2.146662 1_555
Mg1 O72 2.146662 1_555
Mg1 O9 2.206179 1_555
Mg1 O41 2.206179 1_555
Mg2 O60 2.087462 1_555
Mg2 O94 2.087462 1_555
Mg2 O32 2.157312 1_555
Mg2 O0 2.157312 1_555
Mg2 O46 2.203180 1_555
Mg2 O45 2.203180 1_555
Mg3 O89 2.042778 1_555
Mg3 O93 2.042778 1_555
Mg3 O65 2.187522 1_555
Mg3 O76 2.187522 1_555
Mg3 O46 2.192124 1_555
Mg3 O45 2.192124 1_555
Mg4 O92 2.043089 1_555
Mg4 O31 2.062201 1_555
Mg4 O70 2.066353 1_555
Mg4 O71 2.099426 1_554
Mg4 O50 2.140201 1_554
Mg4 O84 2.230134 1_555
Mg5 O75 2.058439 1_465
Mg5 O61 2.085082 1_555
Mg5 O49 2.096773 1_555
Mg5 O80 2.111208 1_555
Mg5 O53 2.129505 1_555
Mg5 O21 2.213881 1_455
Mg6 O66 2.087462 1_555
Mg6 O63 2.087462 1_555
Mg6 O16 2.157312 1_555
Mg6 O13 2.157312 1_555
Mg6 O57 2.203180 1_555
Mg6 O55 2.203180 1_555
Mg7 O2 2.055856 1_564
Mg7 O66 2.071050 1_555
Mg7 O19 2.119176 1_655
Mg7 O3 2.144785 1_555
Mg7 O73 2.149381 1_655
Mg7 O25 2.157309 1_554
Mg8 O58 2.058439 1_565
Mg8 O83 2.085082 1_555
Mg8 O49 2.096773 1_555
Mg8 O54 2.111208 1_555
Mg8 O11 2.129505 1_555
Mg8 O48 2.213881 1_555
Mg9 O38 2.096935 1_555
Mg9 O24 2.096935 1_555
Mg9 O56 2.111134 1_545
Mg9 O34 2.111134 1_545
Mg9 O44 2.128652 1_555
Mg9 O35 2.140212 1_545
Mg10 O1 2.022653 1_555
Mg10 O85 2.022653 1_555
Mg10 O40 2.041756 1_555
Mg10 O56 2.115533 1_555
Mg10 O34 2.115533 1_555
Mg10 O35 2.151396 1_555
Mg11 O83 2.058439 1_545
Mg11 O58 2.085082 1_555
Mg11 O42 2.096773 1_555
Mg11 O72 2.111208 1_555
Mg11 O6 2.129505 1_555
Mg11 O7 2.213881 1_555
Mg12 O9 2.071759 1_555
Mg12 O41 2.071759 1_555
Mg12 O70 2.098477 1_555
Mg12 O36 2.098477 1_555
Mg12 O5 2.263718 1_555
Mg12 O28 2.263718 1_555
Mg13 O22 2.017875 1_555
Mg13 O21 2.048400 1_555
Mg13 O8 2.098561 1_555
Mg13 O53 2.139980 1_655
Mg13 O69 2.172690 1_655
Mg13 O77 2.173722 1_555
Mg14 O89 2.017875 1_555
Mg14 O7 2.048400 1_555
Mg14 O39 2.098561 1_555
Mg14 O6 2.139980 1_555
Mg14 O68 2.172690 1_555
Mg14 O91 2.173722 1_555
Mg15 O81 2.017875 1_555
Mg15 O48 2.048400 1_555
Mg15 O8 2.098561 1_555
Mg15 O11 2.139980 1_555
Mg15 O91 2.172690 1_555
Mg15 O68 2.173722 1_555
Mg16 O92 2.043089 1_555
Mg16 O52 2.062201 1_655
Mg16 O36 2.066353 1_555
Mg16 O15 2.099426 1_554
Mg16 O82 2.140201 1_554
Mg16 O95 2.230134 1_655
Mg17 O43 2.043089 1_555
Mg17 O25 2.062201 1_455
Mg17 O10 2.066353 1_555
Mg17 O73 2.099426 1_556
Mg17 O95 2.140201 1_556
Mg17 O82 2.230134 1_455
Mg18 O33 2.055856 1_564
Mg18 O63 2.071050 1_555
Mg18 O23 2.119176 1_555
Mg18 O3 2.144785 1_555
Mg18 O17 2.149381 1_555
Mg18 O4 2.157309 1_554
Mg19 O93 2.017875 1_555
Mg19 O64 2.048400 1_555
Mg19 O39 2.098561 1_555
Mg19 O30 2.139980 1_455
Mg19 O77 2.172690 1_455
Mg19 O69 2.173722 1_555
Mg20 O23 2.055856 1_546
Mg20 O60 2.071050 1_555
Mg20 O33 2.119176 1_555
Mg20 O79 2.144785 1_555
Mg20 O71 2.149381 1_555
Mg20 O31 2.157309 1_556
Mg21 O43 2.043089 1_555
Mg21 O4 2.062201 1_555
Mg21 O27 2.066353 1_555
Mg21 O17 2.099426 1_556
Mg21 O84 2.140201 1_556
Mg21 O50 2.230134 1_555
Mg22 O78 2.022653 1_555
Mg22 O74 2.022653 1_555
Mg22 O90 2.041756 1_555
Mg22 O37 2.115533 1_555
Mg22 O12 2.115533 1_555
Mg22 O51 2.151396 1_555
Mg23 O18 2.096935 1_555
Mg23 O14 2.096935 1_555
Mg23 O37 2.111134 1_565
Mg23 O12 2.111134 1_565
Mg23 O67 2.128652 1_555
Mg23 O51 2.140212 1_565
Mg24 O22 2.042778 1_555
Mg24 O81 2.042778 1_555
Mg24 O5 2.187522 1_555
Mg24 O28 2.187522 1_555
Mg24 O57 2.192124 1_555
Mg24 O55 2.192124 1_555
Mg25 O87 2.045562 1_555
Mg25 O20 2.045562 1_555
Mg25 O86 2.080622 1_555
Mg25 O38 2.159408 1_555
Mg25 O24 2.159408 1_555
Mg25 O44 2.234477 1_555
Mg26 O0 2.104271 1_565
Mg26 O32 2.104271 1_565
Mg26 O54 2.146662 1_555
Mg26 O80 2.146662 1_555
Mg26 O62 2.206179 1_555
Mg26 O29 2.206179 1_555
Mg27 O61 2.058439 1_645
Mg27 O75 2.085082 1_555
Mg27 O42 2.096773 1_555
Mg27 O47 2.111208 1_555
Mg27 O30 2.129505 1_555
Mg27 O64 2.213881 1_655
Mg28 O88 2.045562 1_555
Mg28 O59 2.045562 1_555
Mg28 O26 2.080622 1_555
Mg28 O18 2.159408 1_555
Mg28 O14 2.159408 1_555
Mg28 O67 2.234477 1_555
Mg29 O62 2.071759 1_555
Mg29 O29 2.071759 1_555
Mg29 O27 2.098477 1_555
Mg29 O10 2.098477 1_555
Mg29 O76 2.263718 1_555
Mg29 O65 2.263718 1_555
Mo0 O88 1.751736 1_555
Mo0 O55 1.799765 1_555
Mo0 O17 1.803394 1_555
Mo0 O70 1.838495 1_555
Mo1 O74 1.741810 1_655
Mo1 O5 1.820939 1_555
Mo1 O69 1.822582 1_655
Mo1 O47 1.831572 1_555
Mo2 O59 1.751736 1_655
Mo2 O57 1.799765 1_555
Mo2 O73 1.803394 1_655
Mo2 O36 1.838495 1_555
Mo3 O87 1.751736 1_455
Mo3 O45 1.799765 1_555
Mo3 O15 1.803394 1_455
Mo3 O10 1.838495 1_555
Mo4 O26 1.751827 1_555
Mo4 O11 1.796992 1_555
Mo4 O53 1.796992 1_555
Mo4 O39 1.858530 1_555
Mo5 O90 1.740572 1_555
Mo5 O95 1.815618 1_555
Mo5 O84 1.815618 1_555
Mo5 O79 1.851140 1_554
Mo6 O85 1.741810 1_555
Mo6 O76 1.820939 1_555
Mo6 O68 1.822582 1_555
Mo6 O54 1.831572 1_555
Mo7 O1 1.741810 1_455
Mo7 O65 1.820939 1_555
Mo7 O77 1.822582 1_455
Mo7 O80 1.831572 1_555
Mo8 O86 1.751827 1_555
Mo8 O30 1.796992 1_555
Mo8 O6 1.796992 1_555
Mo8 O8 1.858530 1_555
Mo9 O20 1.751736 1_555
Mo9 O46 1.799765 1_555
Mo9 O71 1.803394 1_555
Mo9 O27 1.838495 1_555
Mo10 O40 1.740572 1_555
Mo10 O50 1.815618 1_555
Mo10 O82 1.815618 1_555
Mo10 O3 1.851140 1_556
Mo11 O78 1.741810 1_555
Mo11 O28 1.820939 1_555
Mo11 O91 1.822582 1_555
Mo11 O72 1.831572 1_555
O0 V3 1.744841 1_555
O2 V11 1.742974 1_555
O4 V8 1.765096 1_555
O7 V5 1.763455 1_555
O9 V2 1.770047 1_555
O12 V2 1.730934 1_555
O13 V6 1.744841 1_555
O14 V7 1.751919 1_455
O16 V7 1.744841 1_555
O18 V6 1.751919 1_555
O19 V10 1.742974 1_555
O21 V1 1.763455 1_555
O22 V7 1.776762 1_555
O23 V10 1.742974 1_555
O24 V3 1.751919 1_555
O25 V0 1.765096 1_655
O29 V8 1.770047 1_555
O31 V2 1.765096 1_555
O32 V4 1.744841 1_555
O33 V11 1.742974 1_555
O34 V8 1.730934 1_555
O35 V1 1.732803 1_555
O37 V9 1.730934 1_455
O38 V4 1.751919 1_655
O41 V9 1.770047 1_555
O42 V1 1.784635 1_545
O43 V10 1.794809 1_556
O44 V11 1.748278 1_555
O48 V1 1.763455 1_555
O49 V5 1.784635 1_565
O51 V5 1.732803 1_555
O52 V9 1.765096 1_455
O56 V0 1.730934 1_655
O58 V3 1.744548 1_555
O60 V8 1.768405 1_545
O61 V7 1.744548 1_455
O62 V0 1.770047 1_555
O63 V2 1.768405 1_565
O64 V5 1.763455 1_555
O66 V9 1.768405 1_565
O67 V10 1.748278 1_555
O75 V4 1.744548 1_655
O81 V6 1.776762 1_555
O83 V6 1.744548 1_555
O89 V3 1.776762 1_555
O92 V11 1.794809 1_554
O93 V4 1.776762 1_555
O94 V0 1.768405 1_545
