# generated using pymatgen
data_Pr2C3
_symmetry_space_group_name_H-M   'P 1'
_cell_length_a   7.53077247
_cell_length_b   7.53077302
_cell_length_c   7.53077381
_cell_angle_alpha   109.47121439
_cell_angle_beta   109.47121588
_cell_angle_gamma   109.47123576
_symmetry_Int_Tables_number   1
_chemical_formula_structural   Pr2C3
_chemical_formula_sum   'Pr8 C12'
_cell_volume   328.77347709
_cell_formula_units_Z   4
loop_
 _symmetry_equiv_pos_site_id
 _symmetry_equiv_pos_as_xyz
  1  'x, y, z'
loop_
 _atom_site_type_symbol
 _atom_site_label
 _atom_site_symmetry_multiplicity
 _atom_site_fract_x
 _atom_site_fract_y
 _atom_site_fract_z
 _atom_site_occupancy
  Pr  Pr0  1  0.10342398  0.10342398  0.10342398  1
  Pr  Pr1  1  0.89657602  0.50000000  -0.00000000  1
  Pr  Pr2  1  -0.00000000  0.89657602  0.50000000  1
  Pr  Pr3  1  0.50000000  0.00000000  0.89657602  1
  Pr  Pr4  1  -0.00000000  0.39657602  0.50000000  1
  Pr  Pr5  1  0.50000000  0.00000000  0.39657602  1
  Pr  Pr6  1  0.39657602  0.50000000  -0.00000000  1
  Pr  Pr7  1  0.60342398  0.60342398  0.60342398  1
  C  C0  1  0.25000000  0.54905848  0.29905848  1
  C  C1  1  0.45094152  0.25000000  0.70094152  1
  C  C2  1  0.04905848  0.75000000  0.79905848  1
  C  C3  1  0.79905848  0.04905848  0.75000000  1
  C  C4  1  0.70094152  0.45094152  0.25000000  1
  C  C5  1  0.25000000  0.70094152  0.45094152  1
  C  C6  1  0.95094152  0.20094152  0.75000000  1
  C  C7  1  0.20094152  0.75000000  0.95094152  1
  C  C8  1  0.54905848  0.29905848  0.25000000  1
  C  C9  1  0.29905848  0.25000000  0.54905848  1
  C  C10  1  0.75000000  0.95094152  0.20094152  1
  C  C11  1  0.75000000  0.79905848  0.04905848  1
loop_
_geom_bond_atom_site_label_1
_geom_bond_atom_site_label_2
_geom_bond_distance
_geom_bond_site_symmetry_2
C0 C5 1.320743 1_555
C0 Pr1 2.661981 1_455
C0 Pr7 2.661981 1_555
C0 Pr0 2.793129 1_555
C0 Pr6 2.793129 1_555
C1 C9 1.320743 1_555
C1 Pr6 2.661981 1_556
C1 Pr5 2.661981 1_555
C1 Pr1 2.793129 1_556
C1 Pr3 2.793129 1_555
C2 C7 1.320743 1_555
C2 Pr4 2.661981 1_555
C2 Pr0 2.661981 1_566
C2 Pr7 2.793129 1_455
C2 Pr2 2.793129 1_555
C3 C6 1.320742 1_555
C3 Pr0 2.661981 1_656
C3 Pr5 2.661981 1_555
C3 Pr7 2.793129 1_545
C3 Pr3 2.793129 1_555
C4 C8 1.320742 1_555
C4 Pr6 2.661981 1_555
C4 Pr4 2.661981 1_655
C4 Pr2 2.793129 1_655
C4 Pr1 2.793129 1_555
C5 Pr4 2.661980 1_555
C5 Pr5 2.661980 1_565
C5 Pr2 2.793129 1_555
C5 Pr3 2.793129 1_565
C6 Pr2 2.661981 1_645
C6 Pr1 2.661981 1_556
C6 Pr6 2.793129 1_656
C6 Pr4 2.793129 1_655
C7 Pr1 2.661980 1_456
C7 Pr3 2.661980 1_565
C7 Pr6 2.793129 1_556
C7 Pr5 2.793129 1_566
C8 Pr7 2.661981 1_555
C8 Pr3 2.661981 1_554
C8 Pr0 2.793129 1_555
C8 Pr5 2.793129 1_555
C9 Pr7 2.661980 1_555
C9 Pr2 2.661980 1_545
C9 Pr4 2.793129 1_555
C9 Pr0 2.793130 1_555
C10 C11 1.320743 1_555
C10 Pr2 2.661981 1_655
C10 Pr3 2.661981 1_564
C10 Pr4 2.793129 1_665
C10 Pr5 2.793129 1_565
C11 Pr0 2.661980 1_665
C11 Pr6 2.661980 1_555
C11 Pr1 2.793129 1_555
C11 Pr7 2.793130 1_554
