# generated using pymatgen
data_Na3Ca2BiO6
_symmetry_space_group_name_H-M   'P 1'
_cell_length_a   11.20859652
_cell_length_b   10.64879257
_cell_length_c   5.94066965
_cell_angle_alpha   79.50049970
_cell_angle_beta   69.09102403
_cell_angle_gamma   31.40847627
_symmetry_Int_Tables_number   1
_chemical_formula_structural   Na3Ca2BiO6
_chemical_formula_sum   'Na6 Ca4 Bi2 O12'
_cell_volume   334.10434933
_cell_formula_units_Z   2
loop_
 _symmetry_equiv_pos_site_id
 _symmetry_equiv_pos_as_xyz
  1  'x, y, z'
loop_
 _atom_site_type_symbol
 _atom_site_label
 _atom_site_symmetry_multiplicity
 _atom_site_fract_x
 _atom_site_fract_y
 _atom_site_fract_z
 _atom_site_occupancy
  Na  Na0  1  0.84148800  0.83384200  0.15408500  1
  Na  Na1  1  0.15493000  0.17028200  0.83632000  1
  Na  Na2  1  0.40548900  0.41748700  0.09221700  1
  Na  Na3  1  0.08174900  0.08704900  0.41519200  1
  Na  Na4  1  0.25899400  0.24351000  0.24603100  1
  Na  Na5  1  0.00106200  0.99985800  0.00758200  1
  Ca  Ca0  1  0.33800300  0.32693700  0.66649000  1
  Ca  Ca1  1  0.58464300  0.57759600  0.92514200  1
  Ca  Ca2  1  0.67334200  0.66212700  0.32737300  1
  Ca  Ca3  1  0.92255200  0.91778400  0.57125300  1
  Bi  Bi0  1  0.49605600  0.50698900  0.50459000  1
  Bi  Bi1  1  0.74923800  0.74667600  0.75620500  1
  O  O0  1  0.65373800  0.19603300  0.35240500  1
  O  O1  1  0.35286100  0.80529500  0.65050100  1
  O  O2  1  0.78827100  0.36514500  0.19792900  1
  O  O3  1  0.88450100  0.46084500  0.60385500  1
  O  O4  1  0.53496300  0.96429600  0.52151000  1
  O  O5  1  0.05936200  0.59281900  0.44637700  1
  O  O6  1  0.71617300  0.28151000  0.72067900  1
  O  O7  1  0.28297100  0.71880400  0.28081200  1
  O  O8  1  0.44982600  0.89095300  0.06340500  1
  O  O9  1  0.60306600  0.04905000  0.88853600  1
  O  O10  1  0.18839100  0.65546000  0.80670500  1
  O  O11  1  0.98036800  0.51854000  0.97394700  1
loop_
_geom_bond_atom_site_label_1
_geom_bond_atom_site_label_2
_geom_bond_distance
_geom_bond_site_symmetry_2
Na0 O11 2.457789 1_554
Na0 O10 2.465686 1_654
Na0 O4 2.470574 1_555
Na0 O9 2.473818 1_564
Na0 O5 2.503968 1_655
Na0 O0 2.593111 1_565
Na1 O11 2.413996 1_455
Na1 O3 2.467814 1_455
Na1 O4 2.512692 1_545
Na1 O1 2.518694 1_545
Na1 O8 2.555564 1_546
Na1 O2 2.564543 1_456
Na2 O10 2.464458 1_554
Na2 O7 2.475329 1_555
Na2 O6 2.483253 1_554
Na2 O5 2.491007 1_555
Na2 O0 2.496707 1_555
Na2 O9 2.597700 1_554
Na3 O7 2.420802 1_545
Na3 O6 2.439247 1_455
Na3 O1 2.476065 1_545
Na3 O2 2.503133 1_455
Na3 O8 2.545528 1_545
Na3 O3 2.612255 1_455
Na4 O5 2.401042 1_555
Na4 O9 2.407592 1_554
Na4 O8 2.442907 1_545
Na4 O3 2.517167 1_455
Na4 O11 2.684867 1_454
Na4 O4 2.688430 1_545
Na5 O0 2.387762 1_465
Na5 O2 2.437195 1_465
Na5 O10 2.438248 1_554
Na5 O1 2.455043 1_554
Na5 O7 2.706337 1_555
Na5 O6 2.787622 1_464
Ca0 O9 2.385631 1_555
Ca0 O11 2.395653 1_455
Ca0 O0 2.400594 1_555
Ca0 O10 2.407422 1_555
Ca0 O4 2.414750 1_545
Ca0 O5 2.439690 1_555
Ca1 O2 2.333147 1_556
Ca1 O7 2.353374 1_556
Ca1 O8 2.366165 1_556
Ca1 O3 2.374516 1_555
Ca1 O6 2.402743 1_555
Ca1 O1 2.474195 1_555
Ca2 O2 2.340405 1_555
Ca2 O11 2.370643 1_554
Ca2 O4 2.376188 1_555
Ca2 O8 2.379985 1_555
Ca2 O1 2.389443 1_555
Ca2 O3 2.392904 1_555
Ca3 O7 2.352155 1_655
Ca3 O6 2.373759 1_565
Ca3 O0 2.387696 1_565
Ca3 O9 2.434823 1_565
Ca3 O5 2.437728 1_655
Ca3 O10 2.445655 1_655
Bi0 O6 2.127346 1_555
Bi0 O7 2.130047 1_555
Bi0 O2 2.151108 1_555
Bi0 O1 2.173904 1_555
Bi0 O0 2.206045 1_555
Bi0 O10 2.218748 1_555
Bi1 O3 2.128323 1_555
Bi1 O9 2.160662 1_565
Bi1 O11 2.188656 1_555
Bi1 O4 2.189668 1_555
Bi1 O8 2.191540 1_556
Bi1 O5 2.228477 1_655
