# generated using pymatgen
data_PbN6
_symmetry_space_group_name_H-M   'P 1'
_cell_length_a   6.69631700
_cell_length_b   11.81823100
_cell_length_c   16.38686700
_cell_angle_alpha   90.00000000
_cell_angle_beta   90.00000000
_cell_angle_gamma   90.00000000
_symmetry_Int_Tables_number   1
_chemical_formula_structural   PbN6
_chemical_formula_sum   'Pb12 N72'
_cell_volume   1296.83405943
_cell_formula_units_Z   12
loop_
 _symmetry_equiv_pos_site_id
 _symmetry_equiv_pos_as_xyz
  1  'x, y, z'
loop_
 _atom_site_type_symbol
 _atom_site_label
 _atom_site_symmetry_multiplicity
 _atom_site_fract_x
 _atom_site_fract_y
 _atom_site_fract_z
 _atom_site_occupancy
  Pb  Pb0  1  0.14984600  0.62377900  0.90642700  1
  Pb  Pb1  1  0.16393900  0.62703600  0.58363500  1
  Pb  Pb2  1  0.66393900  0.87296400  0.58363500  1
  Pb  Pb3  1  0.94077800  0.13126300  0.74155800  1
  Pb  Pb4  1  0.83606100  0.37296400  0.08363500  1
  Pb  Pb5  1  0.64984600  0.87622100  0.90642700  1
  Pb  Pb6  1  0.33606100  0.12703600  0.08363500  1
  Pb  Pb7  1  0.44077800  0.36873700  0.74155800  1
  Pb  Pb8  1  0.35015400  0.12377900  0.40642700  1
  Pb  Pb9  1  0.55922200  0.63126300  0.24155800  1
  Pb  Pb10  1  0.85015400  0.37622100  0.40642700  1
  Pb  Pb11  1  0.05922200  0.86873700  0.24155800  1
  N  N0  1  0.65125800  0.22782100  0.32186900  1
  N  N1  1  0.21033000  0.50271000  0.44380400  1
  N  N2  1  0.63450400  0.21981200  0.85415900  1
  N  N3  1  0.99441100  0.99727900  0.86406200  1
  N  N4  1  0.11147900  0.26327800  0.56209900  1
  N  N5  1  0.17273000  0.58825500  0.24160700  1
  N  N6  1  0.71033000  0.99729000  0.44380400  1
  N  N7  1  0.58177400  0.26357500  0.49275200  1
  N  N8  1  0.17101200  0.99469800  0.58294100  1
  N  N9  1  0.82457200  0.50219400  0.54701300  1
  N  N10  1  0.82898800  0.00530200  0.08294100  1
  N  N11  1  0.10552400  0.26344200  0.92396400  1
  N  N12  1  0.89447600  0.73655800  0.42396400  1
  N  N13  1  0.15528000  0.27483100  0.24941300  1
  N  N14  1  0.82727000  0.41174500  0.74160700  1
  N  N15  1  0.86356500  0.71058500  0.13053700  1
  N  N16  1  0.28967000  0.00271000  0.94380400  1
  N  N17  1  0.17542800  0.49780600  0.04701300  1
  N  N18  1  0.08177400  0.23642500  0.49275200  1
  N  N19  1  0.65693900  0.21997400  0.17745500  1
  N  N20  1  0.67273000  0.91174500  0.24160700  1
  N  N21  1  0.15125800  0.27217900  0.32186900  1
  N  N22  1  0.48198800  0.49179800  0.11923100  1
  N  N23  1  0.34874200  0.77217900  0.82186900  1
  N  N24  1  0.84306100  0.71997400  0.67745500  1
  N  N25  1  0.13450400  0.28018800  0.85415900  1
  N  N26  1  0.78967000  0.49729000  0.94380400  1
  N  N27  1  0.32457200  0.99780600  0.54701300  1
  N  N28  1  0.00558900  0.00272100  0.36406200  1
  N  N29  1  0.65528000  0.22516900  0.24941300  1
  N  N30  1  0.67101200  0.50530200  0.58294100  1
  N  N31  1  0.36356500  0.78941500  0.13053700  1
  N  N32  1  0.86911100  0.48519800  0.24322600  1
  N  N33  1  0.85774700  0.99949400  0.40425400  1
  N  N34  1  0.36911100  0.01480200  0.24322600  1
  N  N35  1  0.13088900  0.51480200  0.74322600  1
  N  N36  1  0.47554700  0.03634000  0.74234300  1
  N  N37  1  0.02445300  0.53634000  0.24234300  1
  N  N38  1  0.50558900  0.49727900  0.36406200  1
  N  N39  1  0.86549600  0.71981200  0.35415900  1
  N  N40  1  0.97554700  0.46366000  0.74234300  1
  N  N41  1  0.61147900  0.23672200  0.56209900  1
  N  N42  1  0.13643500  0.28941500  0.63053700  1
  N  N43  1  0.64225300  0.49949400  0.90425400  1
  N  N44  1  0.32898800  0.49469800  0.08294100  1
  N  N45  1  0.84472000  0.72516900  0.74941300  1
  N  N46  1  0.63643500  0.21058500  0.63053700  1
  N  N47  1  0.07486600  0.24532500  0.99464900  1
  N  N48  1  0.92513400  0.75467500  0.49464900  1
  N  N49  1  0.34306100  0.78002600  0.67745500  1
  N  N50  1  0.51801200  0.50820200  0.61923100  1
  N  N51  1  0.42513400  0.74532500  0.49464900  1
  N  N52  1  0.84874200  0.72782100  0.82186900  1
  N  N53  1  0.39447600  0.76344200  0.42396400  1
  N  N54  1  0.14225300  0.00050600  0.90425400  1
  N  N55  1  0.35774700  0.50050600  0.40425400  1
  N  N56  1  0.98198800  0.00820200  0.11923100  1
  N  N57  1  0.41822600  0.73642500  0.99275200  1
  N  N58  1  0.63088900  0.98519800  0.74322600  1
  N  N59  1  0.52445300  0.96366000  0.24234300  1
  N  N60  1  0.57486600  0.25467500  0.99464900  1
  N  N61  1  0.91822600  0.76357500  0.99275200  1
  N  N62  1  0.36549600  0.78018800  0.35415900  1
  N  N63  1  0.32727000  0.08825500  0.74160700  1
  N  N64  1  0.67542800  0.00219400  0.04701300  1
  N  N65  1  0.49441100  0.50272100  0.86406200  1
  N  N66  1  0.38852100  0.76327800  0.06209900  1
  N  N67  1  0.88852100  0.73672200  0.06209900  1
  N  N68  1  0.34472000  0.77483100  0.74941300  1
  N  N69  1  0.60552400  0.23655800  0.92396400  1
  N  N70  1  0.15693900  0.28002600  0.17745500  1
  N  N71  1  0.01801200  0.99179800  0.61923100  1
loop_
_geom_bond_atom_site_label_1
_geom_bond_atom_site_label_2
_geom_bond_distance
_geom_bond_site_symmetry_2
N0 N29 1.188046 1_555
N0 Pb10 2.601881 1_555
N0 Pb8 2.738122 1_555
N1 N55 1.181177 1_555
N1 Pb1 2.739683 1_555
N1 Pb10 2.902901 1_455
N2 N69 1.176988 1_555
N2 Pb7 2.860987 1_555
N2 Pb3 2.950602 1_555
N3 N54 1.189676 1_665
N3 Pb3 2.581897 1_565
N3 Pb5 2.802239 1_555
N4 N42 1.175189 1_555
N5 Pb9 2.637512 1_555
N6 Pb2 2.739683 1_555
N6 Pb8 2.902901 1_565
N7 Pb10 2.646347 1_555
N7 Pb8 2.671378 1_555
N9 Pb10 2.748297 1_555
N9 Pb1 2.775118 1_655
N10 N56 1.185113 1_555
N10 N64 1.185473 1_555
N11 N25 1.176988 1_555
N11 N47 1.195685 1_555
N12 N39 1.176988 1_555
N12 N48 1.195685 1_555
N13 N70 1.180816 1_555
N13 N21 1.188046 1_555
N14 N40 1.167241 1_555
N14 Pb7 2.637512 1_555
N15 N67 1.175189 1_555
N15 Pb9 2.888245 1_555
N15 Pb11 2.918874 1_655
N16 N54 1.181177 1_555
N16 Pb6 2.739683 1_556
N16 Pb5 2.902901 1_545
N17 N44 1.185473 1_555
N17 Pb0 2.748297 1_554
N17 Pb4 2.775118 1_455
N18 N4 1.196512 1_555
N18 Pb8 2.646347 1_555
N18 Pb10 2.671378 1_455
N19 N29 1.180816 1_555
N19 Pb4 2.659223 1_555
N19 Pb6 2.861287 1_555
N20 N59 1.167241 1_555
N20 Pb11 2.637512 1_655
N21 Pb8 2.601881 1_555
N21 Pb10 2.738122 1_455
N22 N44 1.185113 1_555
N22 Pb9 2.646202 1_555
N22 Pb4 2.816767 1_555
N23 N68 1.188046 1_555
N23 Pb0 2.601881 1_555
N23 Pb5 2.738122 1_555
N24 N45 1.180816 1_555
N24 Pb2 2.659223 1_555
N24 Pb1 2.861287 1_655
N25 Pb3 2.860987 1_455
N25 Pb7 2.950602 1_555
N26 N43 1.181177 1_555
N26 Pb4 2.739683 1_556
N26 Pb0 2.902901 1_655
N27 N8 1.185473 1_555
N27 Pb8 2.748297 1_565
N27 Pb2 2.775118 1_555
N28 N33 1.189676 1_445
N28 Pb11 2.581897 1_545
N28 Pb8 2.802239 1_555
N30 N50 1.185113 1_555
N30 N9 1.185473 1_555
N31 N66 1.175189 1_555
N31 Pb11 2.888245 1_555
N31 Pb9 2.918874 1_555
N32 N37 1.203152 1_655
N32 Pb9 2.699392 1_555
N32 Pb4 2.940678 1_555
N33 N6 1.181177 1_555
N34 N59 1.203152 1_545
N34 Pb11 2.699392 1_545
N34 Pb6 2.940678 1_555
N35 N40 1.203152 1_455
N35 Pb7 2.699392 1_555
N35 Pb1 2.940678 1_555
N36 N63 1.167241 1_555
N36 N58 1.203152 1_545
N37 N5 1.167241 1_555
N38 N55 1.189676 1_555
N38 Pb9 2.581897 1_555
N38 Pb10 2.802239 1_555
N39 Pb11 2.860987 1_655
N39 Pb9 2.950602 1_555
N41 N46 1.175189 1_555
N41 N7 1.196512 1_555
N42 Pb7 2.888245 1_555
N42 Pb3 2.918874 1_455
N43 N65 1.189676 1_555
N45 N52 1.188046 1_555
N46 Pb3 2.888245 1_555
N46 Pb7 2.918874 1_555
N47 Pb4 2.637990 1_456
N47 Pb6 2.672044 1_556
N48 Pb1 2.637990 1_655
N48 Pb2 2.672044 1_555
N49 N68 1.180816 1_555
N49 Pb1 2.659223 1_555
N49 Pb2 2.861287 1_555
N50 Pb7 2.646202 1_555
N50 Pb1 2.816767 1_555
N51 N53 1.195685 1_555
N51 Pb2 2.637990 1_555
N51 Pb1 2.672044 1_555
N52 Pb5 2.601881 1_555
N52 Pb0 2.738122 1_655
N53 N62 1.176988 1_555
N56 Pb11 2.646202 1_645
N56 Pb6 2.816767 1_655
N57 N66 1.196512 1_556
N57 Pb0 2.646347 1_555
N57 Pb5 2.671378 1_555
N58 Pb3 2.699392 1_565
N58 Pb2 2.940678 1_555
N60 N69 1.195685 1_555
N60 Pb6 2.637990 1_556
N60 Pb4 2.672044 1_556
N61 N67 1.196512 1_556
N61 Pb5 2.646347 1_555
N61 Pb0 2.671378 1_655
N62 Pb9 2.860987 1_555
N62 Pb11 2.950602 1_555
N63 Pb3 2.637512 1_455
N64 Pb5 2.748297 1_544
N64 Pb6 2.775118 1_555
N65 Pb7 2.581897 1_555
N65 Pb0 2.802239 1_555
N70 Pb6 2.659223 1_555
N70 Pb4 2.861287 1_455
N71 N8 1.185113 1_555
N71 Pb3 2.646202 1_465
N71 Pb2 2.816767 1_455
