# generated using pymatgen
data_FeCu2SnS4
_symmetry_space_group_name_H-M   'P 1'
_cell_length_a   5.46691800
_cell_length_b   5.46691800
_cell_length_c   5.38419100
_cell_angle_alpha   90.00000000
_cell_angle_beta   90.00000000
_cell_angle_gamma   90.00000000
_symmetry_Int_Tables_number   1
_chemical_formula_structural   FeCu2SnS4
_chemical_formula_sum   'Fe1 Cu2 Sn1 S4'
_cell_volume   160.91835244
_cell_formula_units_Z   1
loop_
 _symmetry_equiv_pos_site_id
 _symmetry_equiv_pos_as_xyz
  1  'x, y, z'
loop_
 _atom_site_type_symbol
 _atom_site_label
 _atom_site_symmetry_multiplicity
 _atom_site_fract_x
 _atom_site_fract_y
 _atom_site_fract_z
 _atom_site_occupancy
  Fe  Fe0  1  0.50000000  0.50000000  0.00000000  1
  Cu  Cu0  1  0.50000000  0.00000000  0.50000000  1
  Cu  Cu1  1  0.00000000  0.50000000  0.50000000  1
  Sn  Sn0  1  0.00000000  0.00000000  0.00000000  1
  S  S0  1  0.26447200  0.26447200  0.26367700  1
  S  S1  1  0.73552800  0.26447200  0.73632300  1
  S  S2  1  0.26447200  0.73552800  0.73632300  1
  S  S3  1  0.73552800  0.73552800  0.26367700  1
loop_
_geom_bond_atom_site_label_1
_geom_bond_atom_site_label_2
_geom_bond_distance
_geom_bond_site_symmetry_2
Fe0 S3 2.308983 1_555
Fe0 S2 2.308983 1_554
Fe0 S1 2.308983 1_554
Fe0 S0 2.308983 1_555
Cu0 S1 2.316774 1_555
Cu0 S3 2.316774 1_545
Cu0 S2 2.316774 1_545
Cu0 S0 2.316774 1_555
Cu1 S2 2.316774 1_555
Cu1 S0 2.316774 1_555
Cu1 S3 2.316774 1_455
Cu1 S1 2.316774 1_455
S0 Sn0 2.489269 1_555
S1 Sn0 2.489269 1_656
S2 Sn0 2.489269 1_566
S3 Sn0 2.489269 1_665
