# generated using pymatgen
data_Ga6SnTe10
_symmetry_space_group_name_H-M   'P 1'
_cell_length_a   10.45662381
_cell_length_b   10.45662381
_cell_length_c   10.47087823
_cell_angle_alpha   89.86306786
_cell_angle_beta   89.86306786
_cell_angle_gamma   89.43900053
_symmetry_Int_Tables_number   1
_chemical_formula_structural   Ga6SnTe10
_chemical_formula_sum   'Ga12 Sn2 Te20'
_cell_volume   1144.83474779
_cell_formula_units_Z   2
loop_
 _symmetry_equiv_pos_site_id
 _symmetry_equiv_pos_as_xyz
  1  'x, y, z'
loop_
 _atom_site_type_symbol
 _atom_site_label
 _atom_site_symmetry_multiplicity
 _atom_site_fract_x
 _atom_site_fract_y
 _atom_site_fract_z
 _atom_site_occupancy
  Ga  Ga0  1  0.57379400  0.84092100  0.87784900  1
  Ga  Ga1  1  0.87359400  0.57189500  0.83955600  1
  Ga  Ga2  1  0.25609000  0.65557500  0.82907400  1
  Ga  Ga3  1  0.16976800  0.34167700  0.74458600  1
  Ga  Ga4  1  0.82741200  0.25798100  0.66222400  1
  Ga  Ga5  1  0.83880500  0.87718800  0.57546600  1
  Ga  Ga6  1  0.12281200  0.16119500  0.42453400  1
  Ga  Ga7  1  0.74201900  0.17258800  0.33777600  1
  Ga  Ga8  1  0.65832300  0.83023200  0.25541400  1
  Ga  Ga9  1  0.34442500  0.74391000  0.17092600  1
  Ga  Ga10  1  0.42810500  0.12640600  0.16044400  1
  Ga  Ga11  1  0.15907900  0.42620600  0.12215100  1
  Sn  Sn0  1  0.26155700  0.00389400  0.74556700  1
  Sn  Sn1  1  0.99610600  0.73844300  0.25443300  1
  Te  Te0  1  0.17404900  0.82595100  0.00000000  1
  Te  Te1  1  0.33081000  0.42829100  0.92912000  1
  Te  Te2  1  0.50199200  0.08319500  0.91675100  1
  Te  Te3  1  0.83115300  0.83033900  0.83132100  1
  Te  Te4  1  0.00092000  0.17607700  0.82969000  1
  Te  Te5  1  0.68113400  0.44077800  0.75044900  1
  Te  Te6  1  0.43755100  0.75477700  0.68016900  1
  Te  Te7  1  0.07125600  0.57134000  0.67114600  1
  Te  Te8  1  0.67185000  0.07147200  0.57005500  1
  Te  Te9  1  0.32097800  0.24325900  0.56304100  1
  Te  Te10  1  0.08244100  0.91755900  0.50000000  1
  Te  Te11  1  0.75674100  0.67902200  0.43695900  1
  Te  Te12  1  0.92852800  0.32815000  0.42994500  1
  Te  Te13  1  0.42866000  0.92874400  0.32885400  1
  Te  Te14  1  0.24522300  0.56244900  0.31983100  1
  Te  Te15  1  0.55922200  0.31886600  0.24955100  1
  Te  Te16  1  0.82392300  0.99908000  0.17031000  1
  Te  Te17  1  0.16966100  0.16884700  0.16867900  1
  Te  Te18  1  0.91680500  0.49800800  0.08324900  1
  Te  Te19  1  0.57170900  0.66919000  0.07088000  1
loop_
_geom_bond_atom_site_label_1
_geom_bond_atom_site_label_2
_geom_bond_distance
_geom_bond_site_symmetry_2
Ga0 Te2 2.667173 1_565
Ga0 Te6 2.678349 1_555
Ga0 Te19 2.700663 1_556
Ga0 Te3 2.734924 1_555
Ga1 Te5 2.620973 1_555
Ga1 Te18 2.702111 1_556
Ga1 Te7 2.713667 1_655
Ga1 Te3 2.735546 1_555
Ga2 Te0 2.662903 1_556
Ga2 Te6 2.669099 1_555
Ga2 Te7 2.702116 1_555
Ga2 Te1 2.704043 1_555
Ga3 Te4 2.637201 1_555
Ga3 Te9 2.671289 1_555
Ga3 Te7 2.714067 1_555
Ga3 Te1 2.728239 1_555
Ga4 Te5 2.605960 1_555
Ga4 Te4 2.660380 1_655
Ga4 Te8 2.731211 1_555
Ga4 Te12 2.750656 1_555
Ga5 Te8 2.666208 1_565
Ga5 Te11 2.681161 1_555
Ga5 Te10 2.702365 1_655
Ga5 Te3 2.723424 1_555
Ga6 Te12 2.666208 1_455
Ga6 Te9 2.681161 1_555
Ga6 Te10 2.702365 1_545
Ga6 Te17 2.723424 1_555
Ga7 Te15 2.605960 1_555
Ga7 Te16 2.660380 1_545
Ga7 Te12 2.731211 1_555
Ga7 Te8 2.750656 1_555
Ga8 Te16 2.637201 1_555
Ga8 Te11 2.671289 1_555
Ga8 Te13 2.714067 1_555
Ga8 Te19 2.728239 1_555
Ga9 Te0 2.662903 1_555
Ga9 Te14 2.669099 1_555
Ga9 Te13 2.702116 1_555
Ga9 Te19 2.704043 1_555
Ga10 Te15 2.620973 1_555
Ga10 Te2 2.702111 1_554
Ga10 Te13 2.713667 1_545
Ga10 Te17 2.735546 1_555
Ga11 Te18 2.667173 1_455
Ga11 Te14 2.678349 1_555
Ga11 Te1 2.700663 1_554
Ga11 Te17 2.734924 1_555
Sn0 Te2 3.207933 1_555
Sn0 Te9 3.210211 1_555
Sn0 Te6 3.248058 1_545
Sn0 Te10 3.316889 1_545
Sn0 Te4 3.368270 1_555
Sn0 Te0 3.375656 1_546
Sn1 Te18 3.207933 1_555
Sn1 Te11 3.210211 1_555
Sn1 Te14 3.248058 1_655
Sn1 Te10 3.316889 1_655
Sn1 Te16 3.368270 1_555
Sn1 Te0 3.375656 1_655
