# generated using pymatgen
data_SrLa11Mg3Ga9O34
_symmetry_space_group_name_H-M   'P 1'
_cell_length_a   5.59928242
_cell_length_b   5.59928242
_cell_length_c   27.35344434
_cell_angle_alpha   89.94912904
_cell_angle_beta   89.94912904
_cell_angle_gamma   59.78520715
_symmetry_Int_Tables_number   1
_chemical_formula_structural   SrLa11Mg3Ga9O34
_chemical_formula_sum   'Sr1 La11 Mg3 Ga9 O34'
_cell_volume   741.07661725
_cell_formula_units_Z   1
loop_
 _symmetry_equiv_pos_site_id
 _symmetry_equiv_pos_as_xyz
  1  'x, y, z'
loop_
 _atom_site_type_symbol
 _atom_site_label
 _atom_site_symmetry_multiplicity
 _atom_site_fract_x
 _atom_site_fract_y
 _atom_site_fract_z
 _atom_site_occupancy
  Sr  Sr0  1  0.32720200  0.32720200  0.79745900  1
  La  La0  1  0.68922300  0.68922300  0.96494400  1
  La  La1  1  0.00550000  0.00550000  0.62522800  1
  La  La2  1  0.98477900  0.98477900  0.87307000  1
  La  La3  1  0.67020400  0.67020400  0.46049200  1
  La  La4  1  0.65269300  0.65269300  0.70469800  1
  La  La5  1  0.33684000  0.33684000  0.29328400  1
  La  La6  1  0.33035800  0.33035800  0.53839400  1
  La  La7  1  0.00447900  0.00447900  0.12627700  1
  La  La8  1  0.99634000  0.99634000  0.37340800  1
  La  La9  1  0.66305100  0.66305100  0.20730700  1
  La  La10  1  0.33624900  0.33624900  0.03994900  1
  Mg  Mg0  1  0.31156500  0.31156500  0.91927200  1
  Mg  Mg1  1  0.67827200  0.67827200  0.82755600  1
  Mg  Mg2  1  0.34920200  0.34920200  0.66081400  1
  Ga  Ga0  1  0.00380700  0.00380700  0.99982000  1
  Ga  Ga1  1  0.00091300  0.00091300  0.49996400  1
  Ga  Ga2  1  0.97780700  0.97780700  0.75417500  1
  Ga  Ga3  1  0.66640700  0.66640700  0.58458900  1
  Ga  Ga4  1  0.33334800  0.33334800  0.41620300  1
  Ga  Ga5  1  0.00000600  0.00000600  0.24989800  1
  Ga  Ga6  1  0.66644700  0.66644700  0.33351500  1
  Ga  Ga7  1  0.66814300  0.66814300  0.08465300  1
  Ga  Ga8  1  0.33343400  0.33343400  0.16692400  1
  O  O0  1  0.02688600  0.54391700  0.87003300  1
  O  O1  1  0.14389000  0.63799200  0.96688800  1
  O  O2  1  0.12757500  0.12757500  0.94575900  1
  O  O3  1  0.71784700  0.20017200  0.70065900  1
  O  O4  1  0.80959700  0.29204700  0.80040200  1
  O  O5  1  0.54391700  0.02688600  0.87003300  1
  O  O6  1  0.63799200  0.14389000  0.96688800  1
  O  O7  1  0.79572500  0.79572500  0.77168900  1
  O  O8  1  0.36330000  0.86921800  0.53342600  1
  O  O9  1  0.46168600  0.96606800  0.63602800  1
  O  O10  1  0.20017200  0.71784700  0.70065900  1
  O  O11  1  0.29204700  0.80959700  0.80040200  1
  O  O12  1  0.85732700  0.85732700  0.55606200  1
  O  O13  1  0.47727000  0.47727000  0.60677400  1
  O  O14  1  0.03167000  0.53193800  0.36695300  1
  O  O15  1  0.13466000  0.63757500  0.46573700  1
  O  O16  1  0.86921800  0.36330000  0.53342600  1
  O  O17  1  0.96606800  0.46168600  0.63602800  1
  O  O18  1  0.52821200  0.52821200  0.38908100  1
  O  O19  1  0.13980000  0.13980000  0.44396000  1
  O  O20  1  0.69921100  0.19807500  0.20023700  1
  O  O21  1  0.80158300  0.30254300  0.29935600  1
  O  O22  1  0.53193800  0.03167000  0.36695300  1
  O  O23  1  0.63757500  0.13466000  0.46573700  1
  O  O24  1  0.19501100  0.19501100  0.22243400  1
  O  O25  1  0.80579300  0.80579300  0.27783700  1
  O  O26  1  0.36949300  0.86925400  0.03491100  1
  O  O27  1  0.46964300  0.96856200  0.13344300  1
  O  O28  1  0.19807500  0.69921100  0.20023700  1
  O  O29  1  0.30254300  0.80158300  0.29935600  1
  O  O30  1  0.86112200  0.86112200  0.05453700  1
  O  O31  1  0.47279100  0.47279100  0.11128600  1
  O  O32  1  0.86925400  0.36949300  0.03491100  1
  O  O33  1  0.96856200  0.46964300  0.13344300  1
loop_
_geom_bond_atom_site_label_1
_geom_bond_atom_site_label_2
_geom_bond_distance
_geom_bond_site_symmetry_2
La0 O1 2.414840 1_655
La0 O6 2.414840 1_565
La0 O32 2.462708 1_556
La0 O26 2.462708 1_556
La1 O12 2.377909 1_445
La1 O9 2.468631 1_545
La1 O17 2.468631 1_455
La1 O10 2.504117 1_545
La1 O3 2.504117 1_455
La2 O0 2.360210 1_655
La2 O5 2.360210 1_565
La2 O2 2.425072 1_665
La2 O11 2.484365 1_655
La2 O4 2.484365 1_565
La3 O18 2.391959 1_555
La3 O16 2.499063 1_555
La3 O8 2.499063 1_555
La3 O23 2.517855 1_565
La3 O15 2.517855 1_655
La4 O7 2.300304 1_555
La4 O3 2.373914 1_555
La4 O10 2.373914 1_555
La4 O17 2.420718 1_555
La4 O9 2.420718 1_555
La5 O24 2.378518 1_555
La5 O14 2.508547 1_555
La5 O22 2.508547 1_555
La5 O21 2.516703 1_555
La5 O29 2.516703 1_555
La6 O13 2.353376 1_555
La6 O15 2.492037 1_555
La6 O23 2.492037 1_555
La6 O8 2.498142 1_545
La6 O16 2.498142 1_455
La7 O30 2.406969 1_445
La7 O20 2.514428 1_455
La7 O28 2.514428 1_545
La7 O33 2.517213 1_455
La7 O27 2.517213 1_545
La8 O19 2.381117 1_665
La8 O14 2.512962 1_655
La8 O22 2.512962 1_565
La8 O29 2.519458 1_655
La8 O21 2.519458 1_565
La9 O25 2.376551 1_555
La9 O27 2.512852 1_555
La9 O33 2.512852 1_555
La9 O28 2.515361 1_555
La9 O20 2.515361 1_555
La10 O31 2.360140 1_555
La10 O1 2.484912 1_554
La10 O6 2.484912 1_554
La10 O32 2.530161 1_455
La10 O26 2.530161 1_545
Mg0 O2 1.926956 1_555
Mg0 O5 1.990205 1_555
Mg0 O0 1.990205 1_555
Mg0 O6 2.047798 1_555
Mg0 O1 2.047798 1_555
Mg1 O7 1.905784 1_555
Mg1 O11 2.042185 1_555
Mg1 O4 2.042185 1_555
Mg1 O5 2.061718 1_565
Mg1 O0 2.061718 1_655
Mg2 O13 1.930605 1_555
Mg2 O9 2.024958 1_545
Mg2 O17 2.024958 1_455
Mg2 O10 2.100872 1_555
Mg2 O3 2.100872 1_555
Ga0 O2 1.904465 1_555
Ga0 O6 2.001799 1_455
Ga0 O1 2.001799 1_545
Ga0 O26 2.032505 1_546
Ga0 O32 2.032505 1_456
Ga0 O30 2.038353 1_446
Ga1 O16 1.998735 1_455
Ga1 O8 1.998735 1_545
Ga1 O15 2.011209 1_545
Ga1 O23 2.011209 1_455
Ga1 O19 2.039784 1_555
Ga1 O12 2.072092 1_445
Ga2 O7 1.831073 1_555
Ga2 O11 1.978826 1_655
Ga2 O4 1.978826 1_565
Ga2 O3 1.997069 1_565
Ga2 O10 1.997069 1_655
Ga3 O13 1.933361 1_555
Ga3 O12 2.010402 1_555
Ga3 O17 2.043168 1_555
Ga3 O9 2.043168 1_555
Ga3 O8 2.046984 1_555
Ga3 O16 2.046984 1_555
Ga4 O22 2.003875 1_555
Ga4 O14 2.003875 1_555
Ga4 O15 2.017244 1_555
Ga4 O23 2.017244 1_555
Ga4 O19 2.025973 1_555
Ga4 O18 2.031433 1_555
Ga5 O28 2.008298 1_545
Ga5 O20 2.008298 1_455
Ga5 O21 2.010299 1_455
Ga5 O29 2.010299 1_545
Ga5 O25 2.033821 1_445
Ga5 O24 2.036132 1_555
Ga6 O22 2.009404 1_565
Ga6 O14 2.009404 1_655
Ga6 O21 2.011901 1_555
Ga6 O29 2.011901 1_555
Ga6 O18 2.026617 1_555
Ga6 O25 2.036056 1_555
Ga7 O33 1.991381 1_555
Ga7 O27 1.991381 1_555
Ga7 O32 2.005421 1_555
Ga7 O26 2.005421 1_555
Ga7 O31 2.031021 1_555
Ga7 O30 2.045909 1_555
Ga8 O33 2.007026 1_455
Ga8 O27 2.007026 1_545
Ga8 O28 2.009770 1_555
Ga8 O20 2.009770 1_555
Ga8 O24 2.026678 1_555
Ga8 O31 2.035309 1_555
O0 Sr0 2.487073 1_555
O4 Sr0 2.608871 1_555
O4 Sr0 3.003105 1_655
O5 Sr0 2.487073 1_555
O7 Sr0 2.894455 1_565
O7 Sr0 2.894455 1_655
O11 Sr0 2.608871 1_555
O11 Sr0 3.003105 1_565
