# generated using pymatgen
data_W43N38
_symmetry_space_group_name_H-M   'P 1'
_cell_length_a   7.94539901
_cell_length_b   7.94539926
_cell_length_c   151.28650206
_cell_angle_alpha   20.74338779
_cell_angle_beta   20.74338309
_cell_angle_gamma   21.02731532
_symmetry_Int_Tables_number   1
_chemical_formula_structural   W43N38
_chemical_formula_sum   'W43 N38'
_cell_volume   1058.03840848
_cell_formula_units_Z   1
loop_
 _symmetry_equiv_pos_site_id
 _symmetry_equiv_pos_as_xyz
  1  'x, y, z'
loop_
 _atom_site_type_symbol
 _atom_site_label
 _atom_site_symmetry_multiplicity
 _atom_site_fract_x
 _atom_site_fract_y
 _atom_site_fract_z
 _atom_site_occupancy
  W  W0  1  0.00962470  0.00962470  0.00002689  1
  W  W1  1  0.00185046  0.00185046  0.05239054  1
  W  W2  1  0.11866509  0.11866509  0.05900423  1
  W  W3  1  0.03638285  0.03638285  0.10273900  1
  W  W4  1  0.87871060  0.87871060  0.04632847  1
  W  W5  1  0.99695166  0.99695166  0.15944182  1
  W  W6  1  0.86779880  0.86779880  0.10029012  1
  W  W7  1  0.00972305  0.00972305  0.21043729  1
  W  W8  1  0.87794814  0.87794814  0.15203733  1
  W  W9  1  0.87462953  0.87462953  0.20490481  1
  W  W10  1  0.00841442  0.00841442  0.31586088  1
  W  W11  1  0.00815943  0.00815943  0.26353623  1
  W  W12  1  0.87447258  0.87447258  0.25743432  1
  W  W13  1  0.87602128  0.87602128  0.30989607  1
  W  W14  1  0.01277227  0.01277227  0.42076896  1
  W  W15  1  0.01190805  0.01190805  0.36825922  1
  W  W16  1  0.87569080  0.87569080  0.36255721  1
  W  W17  1  0.87570806  0.87570806  0.41518930  1
  W  W18  1  0.01246838  0.01246838  0.47343455  1
  W  W19  1  0.87456251  0.87456251  0.46796328  1
  W  W20  1  0.01415203  0.01415203  0.52586674  1
  W  W21  1  0.87271565  0.87271565  0.52085558  1
  W  W22  1  0.99444507  0.99444507  0.63301535  1
  W  W23  1  0.01198173  0.01198173  0.57900810  1
  W  W24  1  0.87232929  0.87232929  0.57359904  1
  W  W25  1  0.11194052  0.11194052  0.69116497  1
  W  W26  1  0.87583136  0.87583136  0.62555749  1
  W  W27  1  0.87574559  0.87574559  0.67801512  1
  W  W28  1  0.00211961  0.00211961  0.78925898  1
  W  W29  1  0.01179065  0.01179065  0.73667056  1
  W  W30  1  0.00033237  0.00033237  0.68402327  1
  W  W31  1  0.11550527  0.11550527  0.79619578  1
  W  W32  1  0.86770828  0.86770828  0.73163049  1
  W  W33  1  0.01779031  0.01779031  0.84134474  1
  W  W34  1  0.87618365  0.87618365  0.78340720  1
  W  W35  1  0.12502531  0.12502531  0.90045096  1
  W  W36  1  0.87233086  0.87233086  0.83641083  1
  W  W37  1  -0.00026998  -0.00026998  0.89477286  1
  W  W38  1  0.11315176  0.11315176  0.95422208  1
  W  W39  1  0.88458885  0.88458885  0.88788713  1
  W  W40  1  0.00581531  0.00581531  0.94663094  1
  W  W41  1  0.87623225  0.87623225  0.94126998  1
  W  W42  1  0.86633129  0.86633129  0.99514079  1
  N  N0  1  0.28144208  0.28144208  0.01330677  1
  N  N1  1  0.27027854  0.27027854  0.06699416  1
  N  N2  1  0.72464651  0.72464651  0.03840021  1
  N  N3  1  0.27734719  0.27734719  0.11899076  1
  N  N4  1  0.74574976  0.74574976  0.08915439  1
  N  N5  1  0.27286720  0.27286720  0.17218673  1
  N  N6  1  0.72950306  0.72950306  0.14180516  1
  N  N7  1  0.27021325  0.27021325  0.22490505  1
  N  N8  1  0.72184711  0.72184711  0.19616638  1
  N  N9  1  0.27249231  0.27249231  0.27728825  1
  N  N10  1  0.71764746  0.71764746  0.24895639  1
  N  N11  1  0.27256582  0.27256582  0.32990061  1
  N  N12  1  0.71963575  0.71963575  0.30148202  1
  N  N13  1  0.27267707  0.27267707  0.38250235  1
  N  N14  1  0.71868651  0.71868651  0.35418571  1
  N  N15  1  0.27165921  0.27165921  0.43523674  1
  N  N16  1  0.72023964  0.72023964  0.40667221  1
  N  N17  1  0.27105863  0.27105863  0.48796961  1
  N  N18  1  0.72038613  0.72038613  0.45923559  1
  N  N19  1  0.27076664  0.27076664  0.54070609  1
  N  N20  1  0.71942660  0.71942660  0.51197236  1
  N  N21  1  0.26890170  0.26890170  0.59357022  1
  N  N22  1  0.71742070  0.71742070  0.56482229  1
  N  N23  1  0.27815801  0.27815801  0.64500127  1
  N  N24  1  0.71409138  0.71409138  0.61752649  1
  N  N25  1  0.26863344  0.26863344  0.69863051  1
  N  N26  1  0.71209697  0.71209697  0.67128474  1
  N  N27  1  0.28140240  0.28140240  0.75005403  1
  N  N28  1  0.73381357  0.73381357  0.72158311  1
  N  N29  1  0.26906941  0.26906941  0.80399312  1
  N  N30  1  0.71990861  0.71990861  0.77571951  1
  N  N31  1  0.28154996  0.28154996  0.85558549  1
  N  N32  1  0.73810610  0.73810610  0.82649681  1
  N  N33  1  0.27723455  0.27723455  0.90836849  1
  N  N34  1  0.72278824  0.72278824  0.88073122  1
  N  N35  1  0.26911502  0.26911502  0.96191972  1
  N  N36  1  0.72280855  0.72280855  0.93362789  1
  N  N37  1  0.73752524  0.73752524  0.98416702  1
loop_
_geom_bond_atom_site_label_1
_geom_bond_atom_site_label_2
_geom_bond_distance
_geom_bond_site_symmetry_2
N0 W42 2.116609 1_544
N0 W42 2.116609 1_454
N0 W4 2.180032 1_445
N0 W1 2.215695 1_555
N0 W0 2.285410 1_655
N0 W0 2.285411 1_565
N1 W6 2.158792 1_445
N1 W4 2.161231 1_545
N1 W4 2.161231 1_455
N1 W1 2.206252 1_655
N1 W1 2.206253 1_565
N1 W3 2.237207 1_555
N2 W0 2.087082 1_665
N2 W1 2.164128 1_565
N2 W1 2.164129 1_655
N2 W2 2.177501 1_565
N2 W2 2.177501 1_655
N3 W6 2.120721 1_545
N3 W6 2.120721 1_455
N3 W8 2.141907 1_445
N3 W3 2.365914 1_655
N3 W3 2.365914 1_565
N3 W5 2.375505 1_445
N4 W2 2.048737 1_665
N4 W3 2.058498 1_565
N4 W3 2.058498 1_655
N4 W1 2.147061 1_665
N5 W8 2.137591 1_545
N5 W8 2.137591 1_455
N5 W9 2.151273 1_445
N5 W7 2.265338 1_555
N5 W5 2.288173 1_545
N5 W5 2.288174 1_455
N6 W5 1.995190 1_455
N6 W5 1.995190 1_545
N6 W3 2.003298 1_665
N7 W9 2.128024 1_545
N7 W9 2.128024 1_455
N7 W12 2.136673 1_445
N7 W7 2.305439 1_655
N7 W7 2.305440 1_565
N7 W11 2.323954 1_555
N8 W5 1.978687 1_555
N8 W7 2.033626 1_565
N8 W7 2.033626 1_655
N9 W12 2.135054 1_545
N9 W12 2.135054 1_455
N9 W13 2.139359 1_445
N9 W10 2.296780 1_555
N9 W11 2.327114 1_655
N9 W11 2.327114 1_565
N10 W11 1.986576 1_565
N10 W11 1.986576 1_655
N10 W7 2.048457 1_665
N11 W13 2.137306 1_545
N11 W13 2.137306 1_455
N11 W16 2.140486 1_445
N11 W10 2.302829 1_655
N11 W10 2.302829 1_565
N11 W15 2.303104 1_555
N12 W11 2.012057 1_665
N12 W10 2.017060 1_565
N12 W10 2.017061 1_655
N13 W16 2.135122 1_545
N13 W16 2.135122 1_455
N13 W17 2.139464 1_445
N13 W14 2.298836 1_555
N13 W15 2.322634 1_655
N13 W15 2.322634 1_565
N14 W15 1.996872 1_565
N14 W15 1.996872 1_655
N14 W10 2.044694 1_665
N15 W17 2.136355 1_545
N15 W17 2.136355 1_455
N15 W19 2.138195 1_445
N15 W18 2.297128 1_555
N15 W14 2.323542 1_655
N15 W14 2.323542 1_565
N16 W14 2.001717 1_565
N16 W14 2.001717 1_655
N16 W15 2.039853 1_665
N17 W19 2.137048 1_545
N17 W19 2.137048 1_455
N17 W21 2.141106 1_445
N17 W20 2.281449 1_555
N17 W18 2.320802 1_655
N17 W18 2.320802 1_565
N18 W18 1.998657 1_565
N18 W18 1.998657 1_655
N18 W14 2.040398 1_665
N19 W21 2.134982 1_545
N19 W21 2.134982 1_455
N19 W24 2.141668 1_445
N19 W23 2.314387 1_555
N19 W20 2.315681 1_655
N19 W20 2.315681 1_565
N20 W20 1.995512 1_565
N20 W20 1.995512 1_655
N20 W18 2.043326 1_665
N21 W24 2.134049 1_545
N21 W24 2.134049 1_455
N21 W26 2.144613 1_445
N21 W22 2.306676 1_445
N21 W23 2.337295 1_655
N21 W23 2.337295 1_565
N22 W23 1.976454 1_565
N22 W23 1.976455 1_655
N22 W20 2.061694 1_665
N23 W26 2.131728 1_545
N23 W26 2.131728 1_455
N23 W27 2.177049 1_445
N23 W30 2.223982 1_555
N23 W22 2.269998 1_545
N23 W22 2.269999 1_455
N24 W23 2.006536 1_665
N24 W22 2.018040 1_455
N24 W22 2.018041 1_545
N25 W32 2.161645 1_445
N25 W27 2.168138 1_545
N25 W27 2.168138 1_455
N25 W30 2.207311 1_655
N25 W30 2.207311 1_565
N25 W29 2.300266 1_555
N26 W22 2.096452 1_555
N26 W30 2.152517 1_565
N26 W30 2.152518 1_655
N26 W25 2.154843 1_565
N26 W25 2.154844 1_655
N27 W32 2.130554 1_545
N27 W32 2.130554 1_455
N27 W34 2.184809 1_445
N27 W28 2.233026 1_555
N27 W29 2.300914 1_655
N27 W29 2.300914 1_565
N28 W29 2.069547 1_565
N28 W29 2.069547 1_655
N28 W25 2.088573 1_665
N28 W30 2.148707 1_665
N29 W36 2.155374 1_445
N29 W34 2.164980 1_545
N29 W34 2.164981 1_455
N29 W28 2.211111 1_655
N29 W28 2.211112 1_565
N29 W33 2.267747 1_555
N30 W29 2.108882 1_665
N30 W28 2.148802 1_565
N30 W28 2.148802 1_655
N30 W31 2.178651 1_565
N30 W31 2.178651 1_655
N31 W39 2.166001 1_445
N31 W36 2.168354 1_545
N31 W36 2.168354 1_455
N31 W37 2.208483 1_555
N31 W33 2.289109 1_655
N31 W33 2.289109 1_565
N32 W33 2.070669 1_565
N32 W33 2.070670 1_655
N32 W31 2.088883 1_665
N32 W28 2.132276 1_665
N33 W39 2.151669 1_545
N33 W39 2.151670 1_455
N33 W41 2.169192 1_445
N33 W40 2.189671 1_555
N33 W37 2.194392 1_655
N33 W37 2.194392 1_565
N34 W33 2.122443 1_665
N34 W35 2.160268 1_565
N34 W35 2.160268 1_655
N34 W37 2.162626 1_565
N34 W37 2.162626 1_655
N35 W42 2.167083 1_445
N35 W41 2.171754 1_545
N35 W41 2.171754 1_455
N35 W40 2.203761 1_655
N35 W40 2.203761 1_565
N35 W0 2.282704 1_556
N36 W38 2.142441 1_565
N36 W38 2.142441 1_655
N36 W35 2.163857 1_665
N36 W40 2.186058 1_565
N36 W40 2.186058 1_655
N36 W37 2.211921 1_665
N37 W0 2.070123 1_566
N37 W0 2.070124 1_656
N37 W38 2.095119 1_665
N37 W40 2.129993 1_665
