# generated using pymatgen
data_Tb2S3
_symmetry_space_group_name_H-M   'P 1'
_cell_length_a   21.66918828
_cell_length_b   8.35067565
_cell_length_c   8.35067066
_cell_angle_alpha   89.99945809
_cell_angle_beta   54.68613951
_cell_angle_gamma   54.68627775
_symmetry_Int_Tables_number   1
_chemical_formula_structural   Tb2S3
_chemical_formula_sum   'Tb16 S24'
_cell_volume   870.29618858
_cell_formula_units_Z   8
loop_
 _symmetry_equiv_pos_site_id
 _symmetry_equiv_pos_as_xyz
  1  'x, y, z'
loop_
 _atom_site_type_symbol
 _atom_site_label
 _atom_site_symmetry_multiplicity
 _atom_site_fract_x
 _atom_site_fract_y
 _atom_site_fract_z
 _atom_site_occupancy
  Tb  Tb0  1  0.99333839  0.40083143  0.24921979  1
  Tb  Tb1  1  0.99332769  0.11918241  0.77077046  1
  Tb  Tb2  1  0.08784507  0.61822405  0.36821198  1
  Tb  Tb3  1  0.16671329  0.24991074  0.63158740  1
  Tb  Tb4  1  0.34001142  0.38078812  0.25079088  1
  Tb  Tb5  1  0.24555754  0.88166723  0.13168356  1
  Tb  Tb6  1  0.34003524  0.09911658  0.72918840  1
  Tb  Tb7  1  0.16669355  0.74999151  0.86831931  1
  Tb  Tb8  1  0.49329655  0.27082115  0.61923144  1
  Tb  Tb9  1  0.66662649  0.36841574  0.25008612  1
  Tb  Tb10  1  0.58778820  0.86829738  0.11830796  1
  Tb  Tb11  1  0.66664494  0.13169660  0.75002042  1
  Tb  Tb12  1  0.49330878  0.74926419  0.90087462  1
  Tb  Tb13  1  0.74550060  0.63176901  0.38174856  1
  Tb  Tb14  1  0.84000776  0.22923326  0.59916214  1
  Tb  Tb15  1  0.83998043  0.75083258  0.88082837  1
  S  S0  1  0.04771580  0.99710839  0.36355562  1
  S  S1  1  0.12993008  0.48536966  0.98946746  1
  S  S2  1  0.04767126  0.35987398  0.49333921  1
  S  S3  1  0.28567508  0.14007637  0.13631232  1
  S  S4  1  0.28570834  0.50275276  0.00660752  1
  S  S5  1  0.20345710  0.01455841  0.87928038  1
  S  S6  1  0.12990812  0.62484571  0.62069649  1
  S  S7  1  0.38186346  0.00228088  0.34893548  1
  S  S8  1  0.20348374  0.87503733  0.51038028  1
  S  S9  1  0.45146424  0.49454323  0.99774387  1
  S  S10  1  0.38186867  0.35209980  0.50546942  1
  S  S11  1  0.62984644  0.12078737  0.12493624  1
  S  S12  1  0.62986968  0.48955859  0.98546304  1
  S  S13  1  0.54762866  0.99339674  0.85994169  1
  S  S14  1  0.45148177  0.65103085  0.64789736  1
  S  S15  1  0.70341370  0.01048116  0.37514071  1
  S  S16  1  0.54767156  0.86362876  0.49717434  1
  S  S17  1  0.78565943  0.50667130  0.00283062  1
  S  S18  1  0.70338189  0.37940034  0.51467550  1
  S  S19  1  0.95149230  0.14787605  0.15101378  1
  S  S20  1  0.95147263  0.49772602  0.99452429  1
  S  S21  1  0.78562787  0.63638677  0.64014156  1
  S  S22  1  0.88185190  0.00549527  0.85212753  1
  S  S23  1  0.88184335  0.84896727  0.50231389  1
loop_
_geom_bond_atom_site_label_1
_geom_bond_atom_site_label_2
_geom_bond_distance
_geom_bond_site_symmetry_2
S0 Tb14 2.749917 1_465
S0 Tb2 2.761615 1_555
S0 Tb1 2.823025 1_465
S0 Tb5 2.946646 1_555
S0 Tb7 3.087221 1_554
S0 Tb0 3.220876 1_465
S1 Tb6 2.727321 1_555
S1 Tb2 2.749806 1_556
S1 Tb7 2.764885 1_555
S1 Tb3 2.977768 1_555
S1 Tb0 2.992857 1_456
S2 Tb15 2.749712 1_455
S2 Tb2 2.761089 1_555
S2 Tb0 2.822780 1_455
S2 Tb5 2.947302 1_545
S2 Tb3 3.087789 1_555
S2 Tb1 3.221186 1_455
S3 Tb12 2.749017 1_544
S3 Tb5 2.760664 1_545
S3 Tb6 2.822627 1_554
S3 Tb2 2.946836 1_555
S3 Tb3 3.087491 1_555
S3 Tb4 3.221535 1_555
S4 Tb8 2.748619 1_554
S4 Tb5 2.761657 1_555
S4 Tb4 2.822810 1_555
S4 Tb2 2.946761 1_555
S4 Tb7 3.087799 1_554
S4 Tb6 3.220813 1_554
S5 Tb0 2.727330 1_456
S5 Tb5 2.749339 1_546
S5 Tb7 2.764623 1_545
S5 Tb3 2.978192 1_555
S5 Tb6 2.992645 1_555
S6 Tb4 2.727115 1_555
S6 Tb2 2.749416 1_555
S6 Tb3 2.764821 1_555
S6 Tb7 2.978603 1_555
S6 Tb1 2.992998 1_465
S7 Tb6 2.717293 1_555
S7 Tb3 2.777608 1_555
S7 Tb12 2.819687 1_544
S7 Tb4 3.004999 1_555
S7 Tb10 3.027389 1_545
S8 Tb1 2.727855 1_465
S8 Tb5 2.749541 1_555
S8 Tb3 2.764606 1_565
S8 Tb7 2.977870 1_555
S8 Tb4 2.992582 1_555
S9 Tb12 2.717136 1_555
S9 Tb11 2.777898 1_555
S9 Tb4 2.820019 1_556
S9 Tb8 3.005427 1_555
S9 Tb5 3.027287 1_556
S10 Tb4 2.716977 1_555
S10 Tb7 2.778012 1_555
S10 Tb8 2.819649 1_555
S10 Tb6 3.005153 1_555
S10 Tb10 3.027504 1_545
S11 Tb15 2.727484 1_544
S11 Tb10 2.749390 1_545
S11 Tb11 2.764744 1_554
S11 Tb9 2.978558 1_555
S11 Tb8 2.992796 1_555
S12 Tb14 2.727713 1_555
S12 Tb10 2.749790 1_556
S12 Tb9 2.764809 1_556
S12 Tb11 2.977692 1_555
S12 Tb12 2.992670 1_555
S13 Tb4 2.748873 1_566
S13 Tb10 2.761005 1_556
S13 Tb12 2.822694 1_555
S13 Tb13 2.947173 1_555
S13 Tb11 3.087730 1_565
S13 Tb8 3.221213 1_565
S14 Tb8 2.717037 1_555
S14 Tb9 2.777582 1_555
S14 Tb6 2.819903 1_565
S14 Tb12 3.005061 1_555
S14 Tb5 3.027376 1_556
S15 Tb8 2.727370 1_555
S15 Tb13 2.749539 1_545
S15 Tb11 2.764689 1_555
S15 Tb9 2.977886 1_555
S15 Tb15 2.992885 1_544
S16 Tb6 2.749101 1_565
S16 Tb10 2.761579 1_555
S16 Tb8 2.822969 1_565
S16 Tb13 2.946490 1_555
S16 Tb9 3.087176 1_555
S16 Tb12 3.220856 1_555
S17 Tb1 2.749534 1_554
S17 Tb13 2.761619 1_555
S17 Tb15 2.822911 1_554
S17 Tb10 2.946891 1_555
S17 Tb9 3.087848 1_555
S17 Tb14 3.220813 1_554
S18 Tb12 2.726762 1_555
S18 Tb13 2.749340 1_555
S18 Tb9 2.764708 1_555
S18 Tb11 2.978193 1_555
S18 Tb14 2.992984 1_555
S19 Tb1 2.717108 1_554
S19 Tb7 2.778252 1_644
S19 Tb14 2.820150 1_555
S19 Tb0 3.005156 1_555
S19 Tb13 3.028125 1_555
S20 Tb0 2.717234 1_556
S20 Tb3 2.778615 1_655
S20 Tb15 2.820267 1_555
S20 Tb1 3.005448 1_555
S20 Tb13 3.027955 1_556
S21 Tb0 2.749900 1_555
S21 Tb13 2.760680 1_555
S21 Tb14 2.822700 1_555
S21 Tb10 2.946954 1_556
S21 Tb11 3.087628 1_565
S21 Tb15 3.221537 1_555
S22 Tb15 2.717063 1_545
S22 Tb9 2.778597 1_556
S22 Tb1 2.819907 1_555
S22 Tb14 3.005176 1_555
S22 Tb2 3.028290 1_645
S23 Tb14 2.717332 1_565
S23 Tb11 2.778178 1_565
S23 Tb0 2.820006 1_555
S23 Tb15 3.004976 1_555
S23 Tb2 3.028195 1_655
