# generated using pymatgen
data_Zr5ZnPb3
_symmetry_space_group_name_H-M   'P 1'
_cell_length_a   8.78241924
_cell_length_b   8.78241924
_cell_length_c   5.93808752
_cell_angle_alpha   90.00000000
_cell_angle_beta   90.00000000
_cell_angle_gamma   119.99999685
_symmetry_Int_Tables_number   1
_chemical_formula_structural   Zr5ZnPb3
_chemical_formula_sum   'Zr10 Zn2 Pb6'
_cell_volume   396.64827481
_cell_formula_units_Z   2
loop_
 _symmetry_equiv_pos_site_id
 _symmetry_equiv_pos_as_xyz
  1  'x, y, z'
loop_
 _atom_site_type_symbol
 _atom_site_label
 _atom_site_symmetry_multiplicity
 _atom_site_fract_x
 _atom_site_fract_y
 _atom_site_fract_z
 _atom_site_occupancy
  Zr  Zr0  1  0.33333300  0.66666700  0.00000000  1
  Zr  Zr1  1  0.66666700  0.33333300  0.50000000  1
  Zr  Zr2  1  0.66666700  0.33333300  0.00000000  1
  Zr  Zr3  1  0.33333300  0.66666700  0.50000000  1
  Zr  Zr4  1  0.26410095  1.00000000  0.25000000  1
  Zr  Zr5  1  0.26410095  0.26410095  0.75000000  1
  Zr  Zr6  1  0.00000000  0.73589905  0.75000000  1
  Zr  Zr7  1  1.00000000  0.26410095  0.25000000  1
  Zr  Zr8  1  0.73589905  0.73589905  0.25000000  1
  Zr  Zr9  1  0.73589905  0.00000000  0.75000000  1
  Zn  Zn0  1  0.00000000  0.00000000  0.00000000  1
  Zn  Zn1  1  0.00000000  0.00000000  0.50000000  1
  Pb  Pb0  1  0.61468225  1.00000000  0.25000000  1
  Pb  Pb1  1  0.61468225  0.61468225  0.75000000  1
  Pb  Pb2  1  0.00000000  0.38531775  0.75000000  1
  Pb  Pb3  1  1.00000000  0.61468225  0.25000000  1
  Pb  Pb4  1  0.38531775  0.38531775  0.25000000  1
  Pb  Pb5  1  0.38531775  0.00000000  0.75000000  1
loop_
_geom_bond_atom_site_label_1
_geom_bond_atom_site_label_2
_geom_bond_distance
_geom_bond_site_symmetry_2
Zn0 Zr4 2.753839 1_545
Zn0 Zr7 2.753839 1_455
Zn0 Zr6 2.753839 1_544
Zn0 Zr9 2.753839 1_454
Zn0 Zr5 2.753840 1_554
Zn0 Zr8 2.753840 1_445
Zn1 Zr6 2.753839 1_545
Zn1 Zr4 2.753839 1_545
Zn1 Zr7 2.753839 1_455
Zn1 Zr9 2.753839 1_455
Zn1 Zr5 2.753840 1_555
Zn1 Zr8 2.753840 1_445
Pb0 Zr8 2.997061 1_555
Pb0 Zr7 2.997062 1_565
Pb0 Zr4 3.078952 1_555
Pb0 Zr1 3.105766 1_565
Pb0 Zr2 3.105766 1_565
Pb0 Zr0 3.105769 1_555
Pb0 Zr3 3.105769 1_555
Pb0 Zr9 3.154131 1_565
Pb0 Zr9 3.154131 1_564
Pb1 Zr9 2.997062 1_565
Pb1 Zr6 2.997062 1_655
Pb1 Zr5 3.078952 1_555
Pb1 Zr1 3.105774 1_555
Pb1 Zr3 3.105774 1_555
Pb1 Zr0 3.105774 1_556
Pb1 Zr2 3.105774 1_556
Pb1 Zr8 3.154131 1_556
Pb1 Zr8 3.154131 1_555
Pb2 Zr5 2.997061 1_555
Pb2 Zr9 2.997062 1_455
Pb2 Zr6 3.078952 1_555
Pb2 Zr1 3.105766 1_455
Pb2 Zr2 3.105766 1_456
Pb2 Zr0 3.105769 1_556
Pb2 Zr3 3.105769 1_555
Pb2 Zr7 3.154131 1_455
Pb2 Zr7 3.154131 1_456
Pb3 Zr8 2.997061 1_555
Pb3 Zr4 2.997062 1_655
Pb3 Zr7 3.078952 1_555
Pb3 Zr0 3.105766 1_655
Pb3 Zr3 3.105766 1_655
Pb3 Zr2 3.105769 1_555
Pb3 Zr1 3.105769 1_555
Pb3 Zr6 3.154131 1_655
Pb3 Zr6 3.154131 1_654
Pb4 Zr4 2.997062 1_545
Pb4 Zr7 2.997062 1_455
Pb4 Zr8 3.078952 1_555
Pb4 Zr2 3.105774 1_555
Pb4 Zr1 3.105774 1_555
Pb4 Zr3 3.105774 1_555
Pb4 Zr0 3.105774 1_555
Pb4 Zr5 3.154131 1_555
Pb4 Zr5 3.154131 1_554
Pb5 Zr5 2.997061 1_555
Pb5 Zr6 2.997062 1_545
Pb5 Zr9 3.078952 1_555
Pb5 Zr0 3.105766 1_546
Pb5 Zr3 3.105766 1_545
Pb5 Zr2 3.105769 1_556
Pb5 Zr1 3.105769 1_555
Pb5 Zr4 3.154131 1_546
Pb5 Zr4 3.154131 1_545
