# generated using pymatgen
data_LiNi9S10
_symmetry_space_group_name_H-M   'P 1'
_cell_length_a   5.99834300
_cell_length_b   8.60174300
_cell_length_c   11.63630495
_cell_angle_alpha   64.17932958
_cell_angle_beta   90.00000000
_cell_angle_gamma   90.00000000
_symmetry_Int_Tables_number   1
_chemical_formula_structural   LiNi9S10
_chemical_formula_sum   'Li2 Ni18 S20'
_cell_volume   540.44733774
_cell_formula_units_Z   2
loop_
 _symmetry_equiv_pos_site_id
 _symmetry_equiv_pos_as_xyz
  1  'x, y, z'
loop_
 _atom_site_type_symbol
 _atom_site_label
 _atom_site_symmetry_multiplicity
 _atom_site_fract_x
 _atom_site_fract_y
 _atom_site_fract_z
 _atom_site_occupancy
  Li  Li0  1  0.00000000  0.50000000  0.50000000  1
  Li  Li1  1  0.50000000  0.50000000  0.00000000  1
  Ni  Ni0  1  0.49544000  0.59416400  0.59715900  1
  Ni  Ni1  1  0.00000000  0.00000000  0.50000000  1
  Ni  Ni2  1  0.00730400  0.70055100  0.69407800  1
  Ni  Ni3  1  0.50140800  0.79330300  0.79918100  1
  Ni  Ni4  1  0.50187400  0.09119300  0.59817900  1
  Ni  Ni5  1  0.00187400  0.90880700  0.90182100  1
  Ni  Ni6  1  0.00140800  0.20669700  0.70081900  1
  Ni  Ni7  1  0.50730400  0.29944900  0.80592200  1
  Ni  Ni8  1  0.50000000  0.00000000  0.00000000  1
  Ni  Ni9  1  0.99812600  0.09119300  0.09817900  1
  Ni  Ni10  1  0.99544000  0.40583600  0.90284100  1
  Ni  Ni11  1  0.49859200  0.20669700  0.20081900  1
  Ni  Ni12  1  0.99269600  0.29944900  0.30592200  1
  Ni  Ni13  1  0.00456000  0.59416400  0.09715900  1
  Ni  Ni14  1  0.49269600  0.70055100  0.19407800  1
  Ni  Ni15  1  0.50456000  0.40583600  0.40284100  1
  Ni  Ni16  1  0.99859200  0.79330300  0.29918100  1
  Ni  Ni17  1  0.49812600  0.90880700  0.40182100  1
  S  S0  1  0.16373900  0.76708400  0.48899300  1
  S  S1  1  0.66436900  0.83548500  0.60523100  1
  S  S2  1  0.17577800  0.95440000  0.69379000  1
  S  S3  1  0.34657300  0.33692500  0.60694500  1
  S  S4  1  0.67577800  0.04560000  0.80621000  1
  S  S5  1  0.82897100  0.44261500  0.71053000  1
  S  S6  1  0.16436900  0.16451500  0.89476900  1
  S  S7  1  0.32897100  0.55738500  0.78947000  1
  S  S8  1  0.66373900  0.23291600  0.01100700  1
  S  S9  1  0.15342700  0.33692500  0.10694500  1
  S  S10  1  0.84657300  0.66307500  0.89305500  1
  S  S11  1  0.67102900  0.44261500  0.21053000  1
  S  S12  1  0.33626100  0.76708400  0.98899300  1
  S  S13  1  0.17102900  0.55738500  0.28947000  1
  S  S14  1  0.83563100  0.83548500  0.10523100  1
  S  S15  1  0.65342700  0.66307500  0.39305500  1
  S  S16  1  0.32422200  0.95440000  0.19379000  1
  S  S17  1  0.82422200  0.04560000  0.30621000  1
  S  S18  1  0.33563100  0.16451500  0.39476900  1
  S  S19  1  0.83626100  0.23291600  0.51100700  1
loop_
_geom_bond_atom_site_label_1
_geom_bond_atom_site_label_2
_geom_bond_distance
_geom_bond_site_symmetry_2
Li0 S0 2.450044 1_555
Li0 S19 2.450044 1_455
Li0 S13 2.498839 1_555
Li0 S5 2.498839 1_455
Li0 S3 2.513431 1_555
Li0 S15 2.513431 1_455
Li0 Ni6 2.586524 1_555
Li0 Ni16 2.586524 1_455
Li1 S12 2.450044 1_554
Li1 S8 2.450044 1_555
Li1 S11 2.498839 1_555
Li1 S7 2.498839 1_554
Li1 S10 2.513431 1_554
Li1 S9 2.513431 1_555
Li1 Ni11 2.586524 1_555
Li1 Ni3 2.586524 1_554
Ni0 S3 2.342414 1_555
Ni0 S7 2.342682 1_555
Ni0 S1 2.348255 1_555
Ni0 S15 2.379867 1_555
Ni0 S5 2.438062 1_555
Ni0 S0 2.474772 1_555
Ni1 S19 2.284410 1_455
Ni1 S0 2.284410 1_545
Ni1 S17 2.362221 1_455
Ni1 S2 2.362221 1_545
Ni1 S18 2.458775 1_555
Ni1 S1 2.458775 1_445
Ni2 S7 2.297986 1_555
Ni2 S1 2.366880 1_455
Ni2 S0 2.390264 1_555
Ni2 S5 2.394480 1_455
Ni2 S10 2.396694 1_455
Ni2 S2 2.404733 1_555
Ni3 S7 2.323889 1_555
Ni3 S1 2.338213 1_555
Ni3 S12 2.340223 1_555
Ni3 S10 2.380914 1_555
Ni3 S2 2.399783 1_555
Ni3 S4 2.442341 1_565
Ni4 S2 2.303913 1_545
Ni4 S19 2.336869 1_555
Ni4 S3 2.352410 1_555
Ni4 S1 2.374342 1_545
Ni4 S18 2.386241 1_555
Ni4 S4 2.504953 1_555
Ni5 S4 2.303913 1_465
Ni5 S12 2.336869 1_555
Ni5 S10 2.352410 1_455
Ni5 S6 2.374342 1_565
Ni5 S14 2.386241 1_456
Ni5 S2 2.504953 1_555
Ni6 S5 2.323889 1_455
Ni6 S6 2.338213 1_555
Ni6 S19 2.340223 1_455
Ni6 S3 2.380914 1_555
Ni6 S4 2.399783 1_455
Ni6 S2 2.442341 1_545
Ni7 S5 2.297986 1_555
Ni7 S6 2.366880 1_555
Ni7 S8 2.390264 1_556
Ni7 S7 2.394480 1_555
Ni7 S3 2.396694 1_555
Ni7 S4 2.404733 1_555
Ni8 S8 2.284410 1_555
Ni8 S12 2.284410 1_544
Ni8 S4 2.362221 1_554
Ni8 S16 2.362221 1_545
Ni8 S14 2.458775 1_545
Ni8 S6 2.458775 1_554
Ni9 S16 2.303913 1_645
Ni9 S8 2.336869 1_555
Ni9 S9 2.352410 1_655
Ni9 S14 2.374342 1_545
Ni9 S6 2.386241 1_654
Ni9 S17 2.504953 1_555
Ni10 S10 2.342414 1_555
Ni10 S5 2.342682 1_555
Ni10 S6 2.348255 1_655
Ni10 S9 2.379867 1_656
Ni10 S7 2.438062 1_655
Ni10 S8 2.474772 1_556
Ni11 S11 2.323889 1_555
Ni11 S18 2.338213 1_555
Ni11 S8 2.340223 1_555
Ni11 S9 2.380914 1_555
Ni11 S17 2.399783 1_555
Ni11 S16 2.442341 1_545
Ni12 S11 2.297986 1_555
Ni12 S18 2.366880 1_655
Ni12 S19 2.390264 1_555
Ni12 S13 2.394480 1_655
Ni12 S9 2.396694 1_655
Ni12 S17 2.404733 1_555
Ni13 S9 2.342414 1_555
Ni13 S13 2.342682 1_555
Ni13 S14 2.348255 1_455
Ni13 S10 2.379867 1_454
Ni13 S11 2.438062 1_455
Ni13 S12 2.474772 1_554
Ni14 S13 2.297986 1_555
Ni14 S14 2.366880 1_555
Ni14 S12 2.390264 1_554
Ni14 S11 2.394480 1_555
Ni14 S15 2.396694 1_555
Ni14 S16 2.404733 1_555
Ni15 S15 2.342414 1_555
Ni15 S11 2.342682 1_555
Ni15 S18 2.348255 1_555
Ni15 S3 2.379867 1_555
Ni15 S13 2.438062 1_555
Ni15 S19 2.474772 1_555
Ni16 S13 2.323889 1_655
Ni16 S14 2.338213 1_555
Ni16 S0 2.340223 1_655
Ni16 S15 2.380914 1_555
Ni16 S16 2.399783 1_655
Ni16 S17 2.442341 1_565
Ni17 S17 2.303913 1_565
Ni17 S0 2.336869 1_555
Ni17 S15 2.352410 1_555
Ni17 S18 2.374342 1_565
Ni17 S1 2.386241 1_555
Ni17 S16 2.504953 1_555
