# generated using pymatgen
data_Ba32Sb7Pb25O96
_symmetry_space_group_name_H-M   'P 1'
_cell_length_a   8.67067660
_cell_length_b   17.31815469
_cell_length_c   19.39413451
_cell_angle_alpha   63.47175189
_cell_angle_beta   89.98544954
_cell_angle_gamma   89.99162449
_symmetry_Int_Tables_number   1
_chemical_formula_structural   Ba32Sb7Pb25O96
_chemical_formula_sum   'Ba32 Sb7 Pb25 O96'
_cell_volume   2605.60965359
_cell_formula_units_Z   1
loop_
 _symmetry_equiv_pos_site_id
 _symmetry_equiv_pos_as_xyz
  1  'x, y, z'
loop_
 _atom_site_type_symbol
 _atom_site_label
 _atom_site_symmetry_multiplicity
 _atom_site_fract_x
 _atom_site_fract_y
 _atom_site_fract_z
 _atom_site_occupancy
  Ba  Ba0  1  0.25006211  0.06185879  0.12562238  1
  Ba  Ba1  1  0.24857012  0.56341385  0.12349614  1
  Ba  Ba2  1  0.24937950  0.31240975  0.62490480  1
  Ba  Ba3  1  0.24873186  0.81146910  0.62622264  1
  Ba  Ba4  1  0.24913802  0.31454811  0.12427126  1
  Ba  Ba5  1  0.24922192  0.06303601  0.62470433  1
  Ba  Ba6  1  0.24978446  0.43873497  0.37449832  1
  Ba  Ba7  1  0.25113956  0.18773213  0.37526988  1
  Ba  Ba8  1  0.25157230  0.81277086  0.12531002  1
  Ba  Ba9  1  0.24795720  0.56145906  0.62551589  1
  Ba  Ba10  1  0.25017851  0.93800676  0.37558385  1
  Ba  Ba11  1  0.25057006  0.18659877  0.87671075  1
  Ba  Ba12  1  0.24898450  0.68799468  0.37532629  1
  Ba  Ba13  1  0.25092161  0.68697664  0.87554501  1
  Ba  Ba14  1  0.25222423  0.43662472  0.87498009  1
  Ba  Ba15  1  0.24902545  0.93721450  0.87548234  1
  Ba  Ba16  1  0.75036291  0.06244698  0.12555785  1
  Ba  Ba17  1  0.75102970  0.31406456  0.12424625  1
  Ba  Ba18  1  0.75075709  0.06286210  0.62535735  1
  Ba  Ba19  1  0.74959149  0.56382479  0.12481232  1
  Ba  Ba20  1  0.75042763  0.31298024  0.62431071  1
  Ba  Ba21  1  0.75117768  0.81340940  0.12416937  1
  Ba  Ba22  1  0.75149733  0.43782888  0.37515158  1
  Ba  Ba23  1  0.75037948  0.18677726  0.87531243  1
  Ba  Ba24  1  0.75130408  0.56209126  0.62541872  1
  Ba  Ba25  1  0.75060294  0.93714672  0.37594217  1
  Ba  Ba26  1  0.74907271  0.81242531  0.62580183  1
  Ba  Ba27  1  0.74911294  0.68704467  0.87583537  1
  Ba  Ba28  1  0.75061606  0.18842765  0.37387900  1
  Ba  Ba29  1  0.75027230  0.68677653  0.37538716  1
  Ba  Ba30  1  0.75291418  0.43669236  0.87614351  1
  Ba  Ba31  1  0.74756068  0.93774744  0.87531512  1
  Sb  Sb0  1  0.00061265  0.99944516  0.00028452  1
  Sb  Sb1  1  0.50010923  0.12486913  0.25050303  1
  Sb  Sb2  1  0.49940741  0.87524904  0.74962813  1
  Sb  Sb3  1  0.00076451  0.49990915  0.00005077  1
  Sb  Sb4  1  0.00041111  0.25150292  0.50000761  1
  Sb  Sb5  1  0.00049063  0.50004561  0.50004088  1
  Sb  Sb6  1  -0.00001961  0.74848330  0.50057129  1
  Pb  Pb0  1  0.99912262  0.87448956  0.75037257  1
  Pb  Pb1  1  0.50061597  0.62547470  0.24974307  1
  Pb  Pb2  1  0.49982925  0.37428559  0.75052207  1
  Pb  Pb3  1  0.50052534  0.24901266  0.00222651  1
  Pb  Pb4  1  0.50000717  0.37387395  0.24994402  1
  Pb  Pb5  1  0.50074933  0.87656798  0.25062403  1
  Pb  Pb6  1  0.50014960  -0.00005588  0.00023362  1
  Pb  Pb7  1  0.49870757  0.12317379  0.75002599  1
  Pb  Pb8  1  0.50011781  0.75103272  0.99832405  1
  Pb  Pb9  1  0.50026436  0.50017327  0.00009434  1
  Pb  Pb10  1  0.50049799  0.25066402  0.49983343  1
  Pb  Pb11  1  0.49961691  0.50020292  0.49989565  1
  Pb  Pb12  1  0.50084556  0.62607068  0.75012728  1
  Pb  Pb13  1  0.49943988  0.00023664  0.50029892  1
  Pb  Pb14  1  0.50022549  0.74961446  0.50043190  1
  Pb  Pb15  1  0.00027391  0.12539197  0.25009787  1
  Pb  Pb16  1  0.00047467  0.24974995  0.00016065  1
  Pb  Pb17  1  -0.00004600  0.37528823  0.25000213  1
  Pb  Pb18  1  0.99983942  0.74985151  -0.00009017  1
  Pb  Pb19  1  0.00072213  0.62471431  0.25089286  1
  Pb  Pb20  1  0.99927589  0.12421753  0.75043960  1
  Pb  Pb21  1  0.99949636  0.37499686  0.74888318  1
  Pb  Pb22  1  0.00059306  0.87518555  0.25007068  1
  Pb  Pb23  1  0.00064137  0.62449015  0.75070675  1
  Pb  Pb24  1  0.99931255  0.00019895  0.50013901  1
  O  O0  1  0.00278313  0.11645873  0.00114199  1
  O  O1  1  0.99979738  0.38303242  0.99904615  1
  O  O2  1  0.99911739  0.88145512  0.00110683  1
  O  O3  1  0.00042433  0.94081778  0.11750481  1
  O  O4  1  0.00095328  0.05803296  0.88288764  1
  O  O5  1  0.99970344  0.80631883  0.38396911  1
  O  O6  1  0.24934646  0.25088597  0.00058014  1
  O  O7  1  0.24921414  0.75054216  0.99643487  1
  O  O8  1  0.24938695  0.00123121  0.49956905  1
  O  O9  1  0.23193771  0.50101778  0.49972150  1
  O  O10  1  0.24862713  0.37312672  0.24975503  1
  O  O11  1  0.24756693  0.12207661  0.74862698  1
  O  O12  1  0.24923394  0.87715594  0.25052411  1
  O  O13  1  0.24939084  0.62595468  0.74872160  1
  O  O14  1  0.26537814  0.12546703  0.25114563  1
  O  O15  1  0.24792463  0.62320840  0.25104020  1
  O  O16  1  0.24684637  0.37666250  0.74878274  1
  O  O17  1  0.26481372  0.87272343  0.75145737  1
  O  O18  1  0.23544413  0.99787772  0.00028244  1
  O  O19  1  0.23545780  0.49934990  0.00073858  1
  O  O20  1  0.23398264  0.25100161  0.50178269  1
  O  O21  1  0.23362251  0.74753920  0.49955246  1
  O  O22  1  0.50192751  0.24304756  0.24866895  1
  O  O23  1  0.50007370  0.06752072  0.36789949  1
  O  O24  1  0.49664853  0.99251975  0.74989674  1
  O  O25  1  0.50124313  0.37539378  0.00081174  1
  O  O26  1  0.49801196  0.74965099  0.25259677  1
  O  O27  1  0.49759895  0.12443281  0.00004108  1
  O  O28  1  0.49961749  0.12583405  0.49922578  1
  O  O29  1  0.49973427  0.31050243  0.37587563  1
  O  O30  1  0.50160865  0.56119050  0.37690924  1
  O  O31  1  0.49916695  0.31139894  0.87635795  1
  O  O32  1  0.50079924  0.18163505  0.13287754  1
  O  O33  1  0.49981718  0.37555687  0.49911339  1
  O  O34  1  0.49942811  0.62525755  0.99889412  1
  O  O35  1  0.50037849  0.50034130  0.74942912  1
  O  O36  1  0.50345880  0.87589498  0.99936295  1
  O  O37  1  0.50437482  0.81453766  0.37662176  1
  O  O38  1  0.49614719  0.05953126  0.87594267  1
  O  O39  1  0.50150474  0.49935305  0.25098875  1
  O  O40  1  0.49966399  0.24863445  0.75073864  1
  O  O41  1  0.49990565  0.68957272  0.12413653  1
  O  O42  1  0.50095740  0.62565280  0.49877205  1
  O  O43  1  0.49830413  0.87484394  0.50102800  1
  O  O44  1  0.49703874  0.00690886  0.25149142  1
  O  O45  1  0.50297734  0.81631885  0.86719857  1
  O  O46  1  0.49604991  0.43716699  0.62282847  1
  O  O47  1  0.50067055  0.93905246  0.12458685  1
  O  O48  1  0.49956153  0.56415748  0.87592051  1
  O  O49  1  0.50079228  0.75830616  0.74863243  1
  O  O50  1  0.49808523  0.93538693  0.63232111  1
  O  O51  1  0.49912491  0.43787552  0.12422127  1
  O  O52  1  0.50212608  0.18801280  0.62389239  1
  O  O53  1  0.50277795  0.68871140  0.62415622  1
  O  O54  1  0.76566077  0.00088442  0.99924075  1
  O  O55  1  0.76596759  0.50003281  0.00044332  1
  O  O56  1  0.76695811  0.25353727  0.49979692  1
  O  O57  1  0.76682744  0.74706526  0.50075746  1
  O  O58  1  0.73460266  0.12244498  0.25075324  1
  O  O59  1  0.75203640  0.37655099  0.74630508  1
  O  O60  1  0.75348469  0.62563826  0.25163744  1
  O  O61  1  0.73415623  0.87597250  0.74863959  1
  O  O62  1  0.75112081  0.37198417  0.25097939  1
  O  O63  1  0.75030543  0.12163262  0.75127914  1
  O  O64  1  0.75222043  0.87660633  0.24879151  1
  O  O65  1  0.75205560  0.62719607  0.75098281  1
  O  O66  1  0.75140881  0.25016677  0.00192485  1
  O  O67  1  0.75080015  0.74875393  0.99944886  1
  O  O68  1  0.76891441  0.49963613  0.49977878  1
  O  O69  1  0.74912536  0.99822499  0.50039368  1
  O  O70  1  0.00075065  0.18903794  0.12504701  1
  O  O71  1  0.99850887  0.06243876  0.37553176  1
  O  O72  1  0.99851562  0.13437550  0.49831559  1
  O  O73  1  0.99608889  0.24956529  0.25123974  1
  O  O74  1  0.00179354  0.44006107  0.11751014  1
  O  O75  1  0.00289729  0.31204142  0.38377053  1
  O  O76  1  0.99664995  0.49819492  0.25234791  1
  O  O77  1  0.00200595  0.37557904  0.50033687  1
  O  O78  1  0.00138593  0.61682451  0.00043340  1
  O  O79  1  -0.00002302  0.68638144  0.12356297  1
  O  O80  1  0.00104742  0.55812706  0.38451363  1
  O  O81  1  0.99935384  0.62367844  0.50107399  1
  O  O82  1  0.00471411  0.74979232  0.25212210  1
  O  O83  1  0.99699389  0.99934902  0.74966120  1
  O  O84  1  0.99835049  0.19218820  0.61653400  1
  O  O85  1  0.00064109  0.24992751  0.74749086  1
  O  O86  1  0.00027797  0.44144427  0.61542456  1
  O  O87  1  0.99614798  0.30996929  0.87624478  1
  O  O88  1  0.99753398  0.50140217  0.74780686  1
  O  O89  1  0.00142929  0.68892065  0.61688865  1
  O  O90  1  0.00241337  0.55853681  0.88281912  1
  O  O91  1  0.00113527  0.00008481  0.25081909  1
  O  O92  1  0.00300778  0.75112507  0.74787422  1
  O  O93  1  0.00024342  0.86625061  0.50099060  1
  O  O94  1  0.99645321  0.81045300  0.87532113  1
  O  O95  1  0.99990010  0.93855189  0.62467840  1
loop_
_geom_bond_atom_site_label_1
_geom_bond_atom_site_label_2
_geom_bond_distance
_geom_bond_site_symmetry_2
Ba0 O12 3.029544 1_545
Ba0 O47 3.046648 1_545
Ba0 O0 3.046695 1_555
Ba0 O32 3.051437 1_555
Ba0 O27 3.058305 1_555
Ba0 O91 3.062067 1_555
Ba0 O44 3.062260 1_555
Ba0 O3 3.065998 1_545
Ba0 O70 3.082333 1_555
Ba0 O6 3.083185 1_555
Ba0 O14 3.090824 1_555
Ba0 O18 3.091780 1_545
Ba1 O78 3.029096 1_555
Ba1 O79 3.030223 1_555
Ba1 O19 3.044934 1_555
Ba1 O74 3.062419 1_555
Ba1 O34 3.066585 1_554
Ba1 O51 3.068854 1_555
Ba1 O7 3.072642 1_554
Ba1 O15 3.078832 1_555
Ba1 O41 3.090056 1_555
Ba1 O10 3.106058 1_555
Ba1 O39 3.115444 1_555
Ba1 O76 3.125453 1_455
Ba2 O20 3.019805 1_555
Ba2 O46 3.027824 1_555
Ba2 O85 3.028975 1_555
Ba2 O77 3.045481 1_555
Ba2 O86 3.053567 1_555
Ba2 O16 3.065734 1_555
Ba2 O84 3.066289 1_455
Ba2 O33 3.078589 1_555
Ba2 O40 3.078854 1_555
Ba2 O52 3.079040 1_555
Ba2 O9 3.082604 1_555
Ba2 O11 3.091551 1_555
Ba3 O92 2.998934 1_555
Ba3 O13 3.024561 1_555
Ba3 O49 3.051201 1_555
Ba3 O17 3.057073 1_555
Ba3 O93 3.063474 1_555
Ba3 O43 3.065984 1_555
Ba3 O95 3.072350 1_455
Ba3 O53 3.073763 1_555
Ba3 O89 3.078902 1_555
Ba3 O50 3.085799 1_555
Ba3 O8 3.102055 1_565
Ba3 O21 3.115755 1_555
Ba4 O74 3.014239 1_555
Ba4 O19 3.024471 1_555
Ba4 O10 3.026088 1_555
Ba4 O51 3.042935 1_555
Ba4 O6 3.054947 1_555
Ba4 O70 3.055371 1_555
Ba4 O25 3.060383 1_555
Ba4 O1 3.067222 1_454
Ba4 O22 3.080811 1_555
Ba4 O14 3.098324 1_555
Ba4 O73 3.109141 1_455
Ba4 O32 3.121402 1_555
Ba5 O11 3.002826 1_555
Ba5 O50 3.044995 1_545
Ba5 O95 3.053406 1_445
Ba5 O24 3.056519 1_545
Ba5 O8 3.058729 1_555
Ba5 O20 3.060243 1_555
Ba5 O84 3.072719 1_455
Ba5 O28 3.074483 1_555
Ba5 O52 3.076402 1_555
Ba5 O83 3.079412 1_445
Ba5 O72 3.091420 1_455
Ba5 O17 3.112340 1_545
Ba6 O75 3.012912 1_555
Ba6 O15 3.017713 1_555
Ba6 O76 3.051681 1_455
Ba6 O80 3.053126 1_555
Ba6 O39 3.058635 1_555
Ba6 O30 3.058948 1_555
Ba6 O33 3.062343 1_555
Ba6 O77 3.062956 1_555
Ba6 O9 3.070047 1_555
Ba6 O20 3.084407 1_555
Ba6 O29 3.094347 1_555
Ba6 O10 3.098309 1_555
Ba7 O29 3.031576 1_555
Ba7 O10 3.041887 1_555
Ba7 O28 3.044686 1_555
Ba7 O23 3.045924 1_555
Ba7 O8 3.047680 1_555
Ba7 O14 3.048214 1_555
Ba7 O72 3.061814 1_455
Ba7 O71 3.081885 1_455
Ba7 O73 3.086185 1_455
Ba7 O22 3.093791 1_555
Ba7 O75 3.100034 1_555
Ba7 O20 3.105510 1_555
Ba8 O41 3.038251 1_555
Ba8 O18 3.038453 1_555
Ba8 O3 3.062895 1_555
Ba8 O82 3.069457 1_555
Ba8 O47 3.069516 1_555
Ba8 O26 3.073496 1_555
Ba8 O2 3.074286 1_455
Ba8 O36 3.089369 1_554
Ba8 O12 3.091872 1_555
Ba8 O15 3.094097 1_555
Ba8 O79 3.101413 1_555
Ba8 O7 3.132905 1_554
Ba9 O16 3.020445 1_555
Ba9 O89 3.023023 1_555
Ba9 O88 3.035801 1_455
Ba9 O81 3.051419 1_455
Ba9 O86 3.055329 1_555
Ba9 O21 3.055492 1_555
Ba9 O13 3.056366 1_555
Ba9 O9 3.057500 1_555
Ba9 O46 3.059769 1_555
Ba9 O35 3.068499 1_555
Ba9 O42 3.106005 1_555
Ba9 O53 3.112645 1_555
Ba10 O44 3.038132 1_565
Ba10 O12 3.045736 1_555
Ba10 O8 3.054965 1_565
Ba10 O91 3.058085 1_565
Ba10 O43 3.060847 1_555
Ba10 O14 3.063081 1_565
Ba10 O37 3.064408 1_555
Ba10 O71 3.066297 1_465
Ba10 O23 3.074169 1_565
Ba10 O93 3.074778 1_555
Ba10 O21 3.097944 1_555
Ba10 O5 3.100674 1_455
Ba11 O27 3.028134 1_556
Ba11 O0 3.048735 1_556
Ba11 O31 3.050515 1_555
Ba11 O6 3.065945 1_556
Ba11 O38 3.066700 1_555
Ba11 O87 3.068028 1_455
Ba11 O4 3.069066 1_555
Ba11 O40 3.072655 1_555
Ba11 O18 3.073387 1_546
Ba11 O16 3.113844 1_555
Ba11 O85 3.118715 1_555
Ba11 O11 3.146335 1_555
Ba12 O82 3.009695 1_555
Ba12 O21 3.017405 1_555
Ba12 O26 3.032442 1_555
Ba12 O5 3.033856 1_455
Ba12 O9 3.057628 1_555
Ba12 O80 3.058572 1_555
Ba12 O42 3.060020 1_555
Ba12 O81 3.073218 1_455
Ba12 O15 3.079754 1_555
Ba12 O12 3.083380 1_555
Ba12 O30 3.091889 1_555
Ba12 O37 3.123699 1_555
Ba13 O7 3.002416 1_555
Ba13 O48 3.026024 1_555
Ba13 O34 3.037431 1_555
Ba13 O17 3.039499 1_555
Ba13 O90 3.054736 1_555
Ba13 O78 3.064874 1_556
Ba13 O19 3.069852 1_556
Ba13 O94 3.071041 1_455
Ba13 O13 3.080370 1_555
Ba13 O45 3.081786 1_555
Ba13 O92 3.087166 1_555
Ba13 O49 3.091962 1_555
Ba14 O31 3.038973 1_555
Ba14 O6 3.046614 1_556
Ba14 O16 3.056323 1_555
Ba14 O35 3.061730 1_555
Ba14 O25 3.071213 1_556
Ba14 O1 3.073189 1_455
Ba14 O90 3.075317 1_555
Ba14 O48 3.084641 1_555
Ba14 O19 3.084834 1_556
Ba14 O13 3.094426 1_555
Ba14 O87 3.113693 1_455
Ba14 O88 3.122321 1_455
Ba15 O38 3.016078 1_565
Ba15 O7 3.029791 1_555
Ba15 O18 3.040906 1_556
Ba15 O11 3.044105 1_565
Ba15 O4 3.048299 1_565
Ba15 O24 3.061631 1_555
Ba15 O17 3.074316 1_555
Ba15 O2 3.075724 1_456
Ba15 O36 3.080558 1_555
Ba15 O83 3.089396 1_455
Ba15 O45 3.091408 1_555
Ba15 O94 3.102058 1_455
Ba16 O64 3.033065 1_545
Ba16 O32 3.037009 1_555
Ba16 O58 3.040919 1_555
Ba16 O47 3.048201 1_545
Ba16 O66 3.058585 1_555
Ba16 O91 3.074776 1_655
Ba16 O3 3.074857 1_645
Ba16 O0 3.077204 1_655
Ba16 O54 3.080383 1_554
Ba16 O70 3.082487 1_655
Ba16 O27 3.090166 1_555
Ba16 O44 3.100699 1_555
Ba17 O66 3.032732 1_555
Ba17 O55 3.040823 1_555
Ba17 O62 3.041315 1_555
Ba17 O74 3.041785 1_655
Ba17 O25 3.046367 1_555
Ba17 O70 3.057021 1_655
Ba17 O22 3.057399 1_555
Ba17 O51 3.060370 1_555
Ba17 O73 3.061549 1_555
Ba17 O1 3.063086 1_554
Ba17 O32 3.107032 1_555
Ba17 O58 3.127189 1_555
Ba18 O83 3.035338 1_545
Ba18 O63 3.036499 1_555
Ba18 O52 3.047863 1_555
Ba18 O61 3.049616 1_545
Ba18 O84 3.051740 1_555
Ba18 O95 3.053752 1_545
Ba18 O50 3.070274 1_545
Ba18 O72 3.080856 1_555
Ba18 O28 3.087714 1_555
Ba18 O24 3.089027 1_545
Ba18 O69 3.090359 1_545
Ba18 O56 3.109780 1_555
Ba19 O79 3.028874 1_655
Ba19 O67 3.035234 1_554
Ba19 O41 3.066394 1_555
Ba19 O39 3.069100 1_555
Ba19 O55 3.072238 1_555
Ba19 O78 3.073741 1_655
Ba19 O34 3.079239 1_554
Ba19 O76 3.080477 1_555
Ba19 O51 3.081863 1_555
Ba19 O60 3.090170 1_555
Ba19 O74 3.108954 1_655
Ba19 O62 3.124666 1_555
Ba20 O56 3.021944 1_555
Ba20 O59 3.022727 1_555
Ba20 O85 3.045991 1_655
Ba20 O84 3.049617 1_555
Ba20 O86 3.054693 1_655
Ba20 O68 3.055174 1_555
Ba20 O52 3.055498 1_555
Ba20 O77 3.063362 1_655
Ba20 O46 3.071560 1_555
Ba20 O33 3.072995 1_555
Ba20 O40 3.088476 1_555
Ba20 O63 3.123404 1_555
Ba21 O2 3.031897 1_555
Ba21 O3 3.049961 1_655
Ba21 O36 3.050493 1_554
Ba21 O41 3.057568 1_555
Ba21 O54 3.066006 1_564
Ba21 O64 3.066340 1_555
Ba21 O47 3.076825 1_555
Ba21 O60 3.083068 1_555
Ba21 O79 3.084660 1_655
Ba21 O67 3.086091 1_554
Ba21 O82 3.124794 1_655
Ba21 O26 3.127739 1_555
Ba22 O76 3.009577 1_555
Ba22 O56 3.025906 1_555
Ba22 O75 3.032900 1_655
Ba22 O68 3.053178 1_555
Ba22 O30 3.053460 1_555
Ba22 O39 3.056543 1_555
Ba22 O60 3.059015 1_555
Ba22 O33 3.063830 1_555
Ba22 O80 3.065060 1_655
Ba22 O77 3.072230 1_655
Ba22 O62 3.090767 1_555
Ba22 O29 3.098631 1_555
Ba23 O87 3.021399 1_555
Ba23 O54 3.040812 1_555
Ba23 O40 3.066010 1_555
Ba23 O4 3.069086 1_655
Ba23 O31 3.072538 1_555
Ba23 O63 3.079539 1_555
Ba23 O27 3.079961 1_556
Ba23 O0 3.094378 1_656
Ba23 O85 3.102618 1_655
Ba23 O66 3.105299 1_556
Ba23 O38 3.113337 1_555
Ba23 O59 3.117070 1_555
Ba24 O88 3.011687 1_555
Ba24 O59 3.015302 1_555
Ba24 O57 3.034277 1_555
Ba24 O89 3.038402 1_655
Ba24 O81 3.046209 1_555
Ba24 O35 3.059766 1_555
Ba24 O53 3.066484 1_555
Ba24 O86 3.069791 1_655
Ba24 O68 3.079710 1_555
Ba24 O42 3.089223 1_555
Ba24 O65 3.107119 1_555
Ba24 O46 3.111267 1_555
Ba25 O37 3.007196 1_555
Ba25 O69 3.037301 1_555
Ba25 O58 3.041740 1_565
Ba25 O71 3.051973 1_565
Ba25 O93 3.068616 1_655
Ba25 O91 3.070964 1_665
Ba25 O64 3.080582 1_555
Ba25 O43 3.081356 1_555
Ba25 O5 3.083233 1_555
Ba25 O44 3.084801 1_565
Ba25 O23 3.086261 1_565
Ba25 O57 3.098024 1_555
Ba26 O49 3.031701 1_555
Ba26 O53 3.035507 1_555
Ba26 O65 3.037793 1_555
Ba26 O61 3.040589 1_555
Ba26 O69 3.046033 1_555
Ba26 O92 3.055607 1_655
Ba26 O43 3.068774 1_555
Ba26 O93 3.074652 1_655
Ba26 O95 3.075768 1_555
Ba26 O50 3.086360 1_555
Ba26 O57 3.104516 1_555
Ba26 O89 3.117878 1_655
Ba27 O94 3.024793 1_555
Ba27 O67 3.029584 1_555
Ba27 O65 3.029845 1_555
Ba27 O48 3.034682 1_555
Ba27 O34 3.040510 1_555
Ba27 O45 3.042809 1_555
Ba27 O55 3.059295 1_556
Ba27 O78 3.078913 1_656
Ba27 O90 3.086165 1_655
Ba27 O49 3.086624 1_555
Ba27 O61 3.097992 1_555
Ba27 O92 3.126419 1_655
Ba28 O62 3.003016 1_555
Ba28 O73 3.009469 1_555
Ba28 O29 3.045438 1_555
Ba28 O72 3.050357 1_555
Ba28 O71 3.052507 1_555
Ba28 O23 3.055383 1_555
Ba28 O22 3.064541 1_555
Ba28 O58 3.076502 1_555
Ba28 O28 3.076560 1_555
Ba28 O69 3.106613 1_545
Ba28 O56 3.116919 1_555
Ba28 O75 3.126185 1_655
Ba29 O60 3.025200 1_555
Ba29 O42 3.042220 1_555
Ba29 O57 3.048050 1_555
Ba29 O5 3.049650 1_555
Ba29 O30 3.053493 1_555
Ba29 O26 3.053939 1_555
Ba29 O68 3.060321 1_555
Ba29 O80 3.060992 1_655
Ba29 O81 3.069665 1_555
Ba29 O82 3.072589 1_655
Ba29 O37 3.080239 1_555
Ba29 O64 3.102565 1_555
Ba30 O1 3.025029 1_555
Ba30 O87 3.042861 1_555
Ba30 O66 3.057221 1_556
Ba30 O55 3.064285 1_556
Ba30 O90 3.065105 1_655
Ba30 O25 3.072439 1_556
Ba30 O88 3.075062 1_555
Ba30 O31 3.089062 1_555
Ba30 O65 3.102112 1_555
Ba30 O35 3.103425 1_555
Ba30 O48 3.112655 1_555
Ba30 O59 3.125463 1_555
Ba31 O63 3.014233 1_565
Ba31 O36 3.018452 1_555
Ba31 O38 3.036770 1_565
Ba31 O45 3.040000 1_555
Ba31 O54 3.056861 1_565
Ba31 O83 3.070830 1_555
Ba31 O4 3.076189 1_665
Ba31 O67 3.077433 1_555
Ba31 O24 3.080657 1_555
Ba31 O94 3.084716 1_555
Ba31 O2 3.088235 1_556
Ba31 O61 3.088967 1_555
O0 Sb0 2.034031 1_545
O0 Pb16 2.300005 1_555
O1 Sb3 2.032885 1_656
O1 Pb16 2.298640 1_656
O2 Sb0 2.036340 1_655
O2 Pb18 2.289602 1_555
O3 Sb0 2.034031 1_555
O3 Pb22 2.300341 1_555
O4 Sb0 2.037098 1_546
O4 Pb20 2.298315 1_455
O5 Sb6 2.023325 1_655
O5 Pb22 2.323676 1_655
O6 Pb16 2.158030 1_555
O6 Pb3 2.178157 1_555
O7 Pb18 2.163149 1_456
O7 Pb8 2.175904 1_555
O8 Pb13 2.168194 1_555
O8 Pb24 2.168375 1_455
O9 Sb5 2.006861 1_555
O9 Pb11 2.320995 1_555
O10 Pb17 2.156525 1_555
O10 Pb4 2.179689 1_555
O11 Pb20 2.153713 1_455
O11 Pb7 2.177927 1_555
O12 Pb22 2.156242 1_555
O12 Pb5 2.180828 1_555
O13 Pb23 2.157111 1_555
O13 Pb12 2.180472 1_555
O14 Sb1 2.035366 1_555
O14 Pb15 2.298734 1_555
O15 Pb19 2.143555 1_555
O15 Pb1 2.191299 1_555
O16 Pb21 2.144879 1_455
O16 Pb2 2.193898 1_555
O17 Sb2 2.034522 1_555
O17 Pb0 2.303897 1_455
O18 Sb0 2.036325 1_555
O18 Pb6 2.295453 1_565
O19 Sb3 2.034990 1_555
O19 Pb9 2.296095 1_555
O20 Sb4 2.025476 1_555
O20 Pb10 2.311217 1_555
O21 Sb6 2.026061 1_555
O21 Pb14 2.312099 1_555
O22 Sb1 2.031058 1_555
O22 Pb4 2.276882 1_555
O23 Sb1 2.037226 1_555
O23 Pb13 2.297501 1_555
O24 Sb2 2.033382 1_555
O24 Pb7 2.263881 1_565
O25 Pb9 2.154788 1_555
O25 Pb3 2.176581 1_555
O26 Pb1 2.175901 1_555
O26 Pb5 2.181281 1_555
O27 Pb6 2.154359 1_555
O27 Pb3 2.176906 1_555
O28 Pb13 2.165900 1_555
O28 Pb10 2.167129 1_555
O29 Pb10 2.151279 1_555
O29 Pb4 2.185202 1_555
O30 Pb11 2.134172 1_555
O30 Pb1 2.206664 1_555
O31 Pb2 2.183537 1_555
O31 Pb3 2.184154 1_556
O32 Sb1 2.041384 1_555
O32 Pb3 2.267358 1_555
O33 Pb10 2.156720 1_555
O33 Pb11 2.165459 1_555
O34 Pb9 2.155944 1_556
O34 Pb8 2.173287 1_555
O35 Pb2 2.173674 1_555
O35 Pb12 2.183486 1_555
O36 Pb6 2.156084 1_566
O36 Pb8 2.171655 1_555
O37 Pb14 2.149300 1_555
O37 Pb5 2.186639 1_555
O38 Pb6 2.157472 1_556
O38 Pb7 2.185071 1_555
O39 Pb1 2.173524 1_555
O39 Pb4 2.182232 1_555
O40 Pb2 2.174174 1_555
O40 Pb7 2.178972 1_555
O41 Pb1 2.179672 1_555
O41 Pb8 2.183273 1_554
O42 Pb14 2.161365 1_555
O42 Pb11 2.162948 1_555
O43 Pb13 2.165316 1_565
O43 Pb14 2.173993 1_555
O44 Sb1 2.034543 1_555
O44 Pb5 2.265051 1_545
O45 Sb2 2.040349 1_555
O45 Pb8 2.275452 1_555
O46 Pb11 2.133542 1_555
O46 Pb2 2.216081 1_555
O47 Pb6 2.157928 1_565
O47 Pb5 2.187045 1_555
O48 Pb9 2.154945 1_556
O48 Pb12 2.182886 1_555
O49 Sb2 2.033967 1_555
O49 Pb12 2.277274 1_555
O50 Sb2 2.035728 1_555
O50 Pb13 2.290996 1_565
O51 Pb9 2.153900 1_555
O51 Pb4 2.181668 1_555
O52 Pb10 2.152771 1_555
O52 Pb7 2.189101 1_555
O53 Pb14 2.147076 1_555
O53 Pb12 2.185946 1_555
O54 Sb0 2.037336 1_646
O54 Pb6 2.302236 1_556
O55 Sb3 2.035865 1_655
O55 Pb9 2.303836 1_555
O56 Sb4 2.024470 1_655
O56 Pb10 2.310926 1_555
O57 Sb6 2.021729 1_655
O57 Pb14 2.311991 1_555
O58 Sb1 2.033606 1_555
O58 Pb15 2.304028 1_655
O59 Pb21 2.146125 1_555
O59 Pb2 2.188017 1_555
O60 Pb19 2.143866 1_655
O60 Pb1 2.192883 1_555
O61 Sb2 2.035504 1_555
O61 Pb0 2.297664 1_555
O62 Pb17 2.158173 1_655
O62 Pb4 2.177529 1_555
O63 Pb20 2.159119 1_555
O63 Pb7 2.181692 1_555
O64 Pb22 2.153718 1_655
O64 Pb5 2.180701 1_555
O65 Pb23 2.155967 1_655
O65 Pb12 2.178385 1_555
O66 Pb16 2.159894 1_655
O66 Pb3 2.175407 1_555
O67 Pb18 2.159481 1_556
O67 Pb8 2.173876 1_555
O68 Sb5 2.007952 1_655
O68 Pb11 2.335016 1_555
O69 Pb13 2.165205 1_565
O69 Pb24 2.169536 1_565
O70 Pb16 2.167269 1_555
O70 Pb15 2.169995 1_555
O71 Pb24 2.162224 1_555
O71 Pb15 2.176609 1_655
O72 Sb4 2.043367 1_655
O72 Pb24 2.308122 1_555
O73 Pb15 2.160734 1_655
O73 Pb17 2.166939 1_655
O74 Sb3 2.038290 1_555
O74 Pb17 2.299227 1_555
O75 Sb4 2.017509 1_555
O75 Pb17 2.322189 1_555
O76 Pb17 2.149409 1_655
O76 Pb19 2.178916 1_655
O77 Sb4 2.151676 1_555
O77 Sb5 2.153012 1_555
O78 Sb3 2.028092 1_555
O78 Pb18 2.299302 1_455
O79 Pb18 2.145839 1_455
O79 Pb19 2.209743 1_555
O80 Sb5 2.004664 1_555
O80 Pb19 2.318622 1_555
O81 Sb5 2.150137 1_655
O81 Sb6 2.157061 1_655
O82 Pb22 2.154395 1_555
O82 Pb19 2.177153 1_555
O83 Pb0 2.156285 1_555
O83 Pb20 2.169370 1_565
O84 Sb4 2.022144 1_655
O84 Pb20 2.323637 1_555
O85 Pb20 2.152165 1_455
O85 Pb21 2.178186 1_455
O86 Sb5 2.002221 1_555
O86 Pb21 2.315816 1_455
O87 Pb16 2.150765 1_656
O87 Pb21 2.210309 1_555
O88 Pb23 2.157535 1_655
O88 Pb21 2.179927 1_555
O89 Sb6 2.018547 1_555
O89 Pb23 2.322453 1_555
O90 Sb3 2.034275 1_556
O90 Pb23 2.292497 1_555
O91 Pb15 2.163889 1_555
O91 Pb22 2.169552 1_545
O92 Pb0 2.158780 1_455
O92 Pb23 2.169204 1_555
O93 Sb6 2.043159 1_555
O93 Pb24 2.312422 1_465
O94 Pb18 2.162299 1_556
O94 Pb0 2.168416 1_555
O95 Pb24 2.161069 1_565
O95 Pb0 2.181178 1_555
