# generated using pymatgen
data_CoPO4
_symmetry_space_group_name_H-M   'P 1'
_cell_length_a   5.12593700
_cell_length_b   6.53013400
_cell_length_c   10.58669000
_cell_angle_alpha   90.00000000
_cell_angle_beta   90.00000000
_cell_angle_gamma   90.00000000
_symmetry_Int_Tables_number   1
_chemical_formula_structural   CoPO4
_chemical_formula_sum   'Co4 P4 O16'
_cell_volume   354.36886178
_cell_formula_units_Z   4
loop_
 _symmetry_equiv_pos_site_id
 _symmetry_equiv_pos_as_xyz
  1  'x, y, z'
loop_
 _atom_site_type_symbol
 _atom_site_label
 _atom_site_symmetry_multiplicity
 _atom_site_fract_x
 _atom_site_fract_y
 _atom_site_fract_z
 _atom_site_occupancy
  Co  Co0  1  0.99502900  0.53211500  0.83386600  1
  Co  Co1  1  0.49502900  0.03211500  0.66613400  1
  Co  Co2  1  0.99502900  0.96788500  0.33386600  1
  Co  Co3  1  0.49502900  0.46788500  0.16613400  1
  P  P0  1  0.49474200  0.22027500  0.40468500  1
  P  P1  1  0.99474200  0.72027500  0.09531500  1
  P  P2  1  0.99474200  0.77972500  0.59531500  1
  P  P3  1  0.49474200  0.27972500  0.90468500  1
  O  O0  1  0.79170700  0.31393500  0.88699600  1
  O  O1  1  0.29170700  0.68606500  0.11300400  1
  O  O2  1  0.42035300  0.07869900  0.83597300  1
  O  O3  1  0.34752200  0.46553900  0.84716500  1
  O  O4  1  0.84752200  0.96553900  0.65283500  1
  O  O5  1  0.93005300  0.73940100  0.95284900  1
  O  O6  1  0.29170700  0.81393500  0.61300400  1
  O  O7  1  0.93005300  0.76059900  0.45284900  1
  O  O8  1  0.43005300  0.26059900  0.04715100  1
  O  O9  1  0.43005300  0.23940100  0.54715100  1
  O  O10  1  0.79170700  0.18606500  0.38699600  1
  O  O11  1  0.92035300  0.92130100  0.16402700  1
  O  O12  1  0.42035300  0.42130100  0.33597300  1
  O  O13  1  0.84752200  0.53446100  0.15283500  1
  O  O14  1  0.92035300  0.57869900  0.66402700  1
  O  O15  1  0.34752200  0.03446100  0.34716500  1
loop_
_geom_bond_atom_site_label_1
_geom_bond_atom_site_label_2
_geom_bond_distance
_geom_bond_site_symmetry_2
Co0 O0 1.852697 1_555
Co0 O14 1.863326 1_555
Co0 O3 1.863749 1_655
Co0 O5 1.878793 1_555
Co1 O6 1.852697 1_545
Co1 O2 1.863326 1_555
Co1 O4 1.863749 1_545
Co1 O9 1.878793 1_555
Co2 O10 1.852697 1_565
Co2 O11 1.863326 1_555
Co2 O15 1.863749 1_665
Co2 O7 1.878793 1_555
Co3 O1 1.852697 1_555
Co3 O12 1.863326 1_555
Co3 O13 1.863749 1_555
Co3 O8 1.878793 1_555
O0 P3 1.549884 1_555
O1 P1 1.549884 1_455
O2 P3 1.548486 1_555
O3 P3 1.553259 1_555
O4 P2 1.553259 1_555
O5 P1 1.549306 1_556
O6 P2 1.549884 1_455
O7 P2 1.549306 1_555
O8 P3 1.549306 1_554
O9 P0 1.549306 1_555
O10 P0 1.549884 1_555
O11 P1 1.548486 1_555
O12 P0 1.548486 1_555
O13 P1 1.553259 1_555
O14 P2 1.548486 1_555
O15 P0 1.553259 1_555
