# generated using pymatgen
data_Ca(PPd)2
_symmetry_space_group_name_H-M   'P 1'
_cell_length_a   4.15545192
_cell_length_b   4.15545075
_cell_length_c   5.65812872
_cell_angle_alpha   111.54371017
_cell_angle_beta   111.54370714
_cell_angle_gamma   89.99998884
_symmetry_Int_Tables_number   1
_chemical_formula_structural   Ca(PPd)2
_chemical_formula_sum   'Ca1 P2 Pd2'
_cell_volume   83.49559282
_cell_formula_units_Z   1
loop_
 _symmetry_equiv_pos_site_id
 _symmetry_equiv_pos_as_xyz
  1  'x, y, z'
loop_
 _atom_site_type_symbol
 _atom_site_label
 _atom_site_symmetry_multiplicity
 _atom_site_fract_x
 _atom_site_fract_y
 _atom_site_fract_z
 _atom_site_occupancy
  Ca  Ca0  1  0.00000000  -0.00000000  -0.00000000  1
  P  P0  1  0.61189818  0.61189818  0.22379737  1
  P  P1  1  0.38810182  0.38810182  0.77620263  1
  Pd  Pd0  1  0.25000000  0.75000000  0.50000000  1
  Pd  Pd1  1  0.75000000  0.25000000  0.50000000  1
loop_
_geom_bond_atom_site_label_1
_geom_bond_atom_site_label_2
_geom_bond_distance
_geom_bond_site_symmetry_2
Ca0 P0 3.131276 1_555
Ca0 P1 3.131276 1_444
Ca0 P0 3.131279 1_455
Ca0 P1 3.131279 1_544
Ca0 P1 3.131279 1_454
Ca0 P0 3.131279 1_545
Ca0 P1 3.131282 1_554
Ca0 P0 3.131282 1_445
Ca0 Pd1 3.187801 1_444
Ca0 Pd0 3.187801 1_555
Ca0 Pd1 3.187801 1_454
Ca0 Pd0 3.187801 1_545
Ca0 Pd1 3.187801 1_555
Ca0 Pd0 3.187801 1_444
Ca0 Pd0 3.187801 1_544
Ca0 Pd1 3.187801 1_455
P0 P1 2.164273 1_554
P0 Pd1 2.469936 1_555
P0 Pd0 2.469937 1_555
P0 Pd1 2.469940 1_565
P0 Pd0 2.469940 1_655
P1 Pd0 2.469936 1_555
P1 Pd1 2.469937 1_555
P1 Pd0 2.469940 1_545
P1 Pd1 2.469940 1_455
