# generated using pymatgen
data_YSeF
_symmetry_space_group_name_H-M   'P 1'
_cell_length_a   4.09429256
_cell_length_b   9.98036654
_cell_length_c   13.06861731
_cell_angle_alpha   74.93515613
_cell_angle_beta   90.00000000
_cell_angle_gamma   90.00000000
_symmetry_Int_Tables_number   1
_chemical_formula_structural   YSeF
_chemical_formula_sum   'Y8 Se8 F8'
_cell_volume   515.66396668
_cell_formula_units_Z   8
loop_
 _symmetry_equiv_pos_site_id
 _symmetry_equiv_pos_as_xyz
  1  'x, y, z'
loop_
 _atom_site_type_symbol
 _atom_site_label
 _atom_site_symmetry_multiplicity
 _atom_site_fract_x
 _atom_site_fract_y
 _atom_site_fract_z
 _atom_site_occupancy
  Y  Y0  1  0.25000000  0.54449973  0.12685338  1
  Y  Y1  1  0.75000000  0.45550027  0.87314662  1
  Y  Y2  1  0.25000000  0.03945250  0.12084718  1
  Y  Y3  1  0.75000000  0.96054750  0.87915282  1
  Y  Y4  1  0.25000000  0.88172671  0.63825130  1
  Y  Y5  1  0.75000000  0.11827329  0.36174870  1
  Y  Y6  1  0.25000000  0.37650358  0.61403021  1
  Y  Y7  1  0.75000000  0.62349642  0.38596979  1
  Se  Se0  1  0.25000000  0.75754016  0.23460005  1
  Se  Se1  1  0.75000000  0.24245984  0.76539995  1
  Se  Se2  1  0.25000000  0.32850325  0.01856807  1
  Se  Se3  1  0.75000000  0.67149675  0.98143193  1
  Se  Se4  1  0.25000000  0.58528530  0.72990838  1
  Se  Se5  1  0.75000000  0.41471470  0.27009162  1
  Se  Se6  1  0.25000000  0.16033639  0.51221512  1
  Se  Se7  1  0.75000000  0.83966361  0.48778488  1
  F  F0  1  0.25000000  0.10016655  0.29090212  1
  F  F1  1  0.75000000  0.89983345  0.70909788  1
  F  F2  1  0.25000000  0.55178064  0.45623461  1
  F  F3  1  0.75000000  0.44821936  0.54376539  1
  F  F4  1  0.25000000  0.93205170  0.79671357  1
  F  F5  1  0.75000000  0.06794830  0.20328643  1
  F  F6  1  0.25000000  0.98481494  0.96072247  1
  F  F7  1  0.75000000  0.01518506  0.03927753  1
loop_
_geom_bond_atom_site_label_1
_geom_bond_atom_site_label_2
_geom_bond_distance
_geom_bond_site_symmetry_2
Se0 Y2 2.819927 1_565
Se0 Y0 2.838993 1_555
Se0 Y7 2.918578 1_555
Se0 Y7 2.918578 1_455
Se1 Y3 2.819927 1_545
Se1 Y1 2.838993 1_555
Se1 Y6 2.918578 1_555
Se1 Y6 2.918578 1_655
Se2 Y2 2.846830 1_555
Se2 Y1 2.856028 1_454
Se2 Y1 2.856028 1_554
Se2 Y0 2.869768 1_555
Se3 Y3 2.846830 1_555
Se3 Y0 2.856028 1_656
Se3 Y0 2.856028 1_556
Se3 Y1 2.869768 1_555
Se4 Y1 2.848210 1_455
Se4 Y1 2.848210 1_555
Se4 Y6 2.876717 1_555
Se4 Y4 2.888923 1_555
Se5 Y0 2.848210 1_655
Se5 Y0 2.848210 1_555
Se5 Y7 2.876717 1_555
Se5 Y5 2.888923 1_555
Se6 Y6 2.813747 1_555
Se6 Y4 2.839732 1_545
Se6 Y5 2.943270 1_455
Se6 Y5 2.943270 1_555
Se7 Y7 2.813747 1_555
Se7 Y5 2.839732 1_565
Se7 Y4 2.943270 1_555
Se7 Y4 2.943270 1_655
F0 Y5 2.273251 1_555
F0 Y5 2.273251 1_455
F0 Y2 2.450751 1_555
F1 Y4 2.273251 1_655
F1 Y4 2.273251 1_555
F1 Y3 2.450751 1_555
F2 Y7 2.281373 1_555
F2 Y7 2.281373 1_455
F2 Y6 2.331840 1_555
F3 Y6 2.281373 1_555
F3 Y6 2.281373 1_655
F3 Y7 2.331840 1_555
F4 Y4 2.254219 1_555
F4 Y3 2.364674 1_555
F4 Y3 2.364674 1_455
F5 Y5 2.254219 1_555
F5 Y2 2.364674 1_555
F5 Y2 2.364674 1_655
F6 Y2 2.295548 1_566
F6 Y3 2.349476 1_555
F6 Y3 2.349476 1_455
F7 Y3 2.295548 1_544
F7 Y2 2.349476 1_655
F7 Y2 2.349476 1_555
