# generated using pymatgen
data_Cu3Mo2(HO5)2
_symmetry_space_group_name_H-M   'P 1'
_cell_length_a   14.20494600
_cell_length_b   5.46982600
_cell_length_c   7.38017725
_cell_angle_alpha   50.10078911
_cell_angle_beta   90.00000000
_cell_angle_gamma   90.00000000
_symmetry_Int_Tables_number   1
_chemical_formula_structural   Cu3Mo2(HO5)2
_chemical_formula_sum   'Cu6 Mo4 H4 O20'
_cell_volume   439.92005289
_cell_formula_units_Z   2
loop_
 _symmetry_equiv_pos_site_id
 _symmetry_equiv_pos_as_xyz
  1  'x, y, z'
loop_
 _atom_site_type_symbol
 _atom_site_label
 _atom_site_symmetry_multiplicity
 _atom_site_fract_x
 _atom_site_fract_y
 _atom_site_fract_z
 _atom_site_occupancy
  Cu  Cu0  1  0.50000000  0.00000000  0.50000000  1
  Cu  Cu1  1  0.00000000  0.00000000  0.00000000  1
  Cu  Cu2  1  0.59620500  0.62238400  0.01075600  1
  Cu  Cu3  1  0.90379500  0.62238400  0.51075600  1
  Cu  Cu4  1  0.40379500  0.37761600  0.98924400  1
  Cu  Cu5  1  0.09620500  0.37761600  0.48924400  1
  Mo  Mo0  1  0.65390900  0.42111300  0.62192600  1
  Mo  Mo1  1  0.84609100  0.42111300  0.12192600  1
  Mo  Mo2  1  0.34609100  0.57888700  0.37807400  1
  Mo  Mo3  1  0.15390900  0.57888700  0.87807400  1
  H  H0  1  0.55802400  0.06891100  0.14003800  1
  H  H1  1  0.94197600  0.06891100  0.64003800  1
  H  H2  1  0.44197600  0.93108900  0.85996200  1
  H  H3  1  0.05802400  0.93108900  0.35996200  1
  O  O0  1  0.72244100  0.45468100  0.06363800  1
  O  O1  1  0.77755900  0.45468100  0.56363800  1
  O  O2  1  0.27755900  0.54531900  0.93636200  1
  O  O3  1  0.22244100  0.54531900  0.43636200  1
  O  O4  1  0.59160800  0.44720000  0.40159700  1
  O  O5  1  0.90839200  0.44720000  0.90159700  1
  O  O6  1  0.40839200  0.55280000  0.59840300  1
  O  O7  1  0.09160800  0.55280000  0.09840300  1
  O  O8  1  0.62786900  0.03868100  0.90892000  1
  O  O9  1  0.87213100  0.03868100  0.40892000  1
  O  O10  1  0.37213100  0.96131900  0.09108000  1
  O  O11  1  0.12786900  0.96131900  0.59108000  1
  O  O12  1  0.61282900  0.73822900  0.61846800  1
  O  O13  1  0.88717100  0.73822900  0.11846800  1
  O  O14  1  0.38717100  0.26177100  0.38153200  1
  O  O15  1  0.11282900  0.26177100  0.88153200  1
  O  O16  1  0.52694400  0.20876300  0.16237000  1
  O  O17  1  0.97305600  0.20876300  0.66237000  1
  O  O18  1  0.47305600  0.79123700  0.83763000  1
  O  O19  1  0.02694400  0.79123700  0.33763000  1
loop_
_geom_bond_atom_site_label_1
_geom_bond_atom_site_label_2
_geom_bond_distance
_geom_bond_site_symmetry_2
Cu0 O12 1.943535 1_545
Cu0 O14 1.943535 1_555
Cu0 O16 2.002274 1_555
Cu0 O18 2.002274 1_545
Cu0 O4 2.434181 1_555
Cu0 O6 2.434181 1_545
Cu1 O13 1.943535 1_445
Cu1 O15 1.943535 1_554
Cu1 O19 2.002274 1_545
Cu1 O17 2.002274 1_454
Cu1 O7 2.434181 1_545
Cu1 O5 2.434181 1_454
Cu2 O0 1.936484 1_555
Cu2 O8 1.938230 1_564
Cu2 O18 2.007931 1_554
Cu2 O16 2.022611 1_555
Cu2 O4 2.386800 1_555
Cu2 O12 2.546710 1_554
Cu3 O1 1.936484 1_555
Cu3 O9 1.938230 1_565
Cu3 O19 2.007931 1_655
Cu3 O17 2.022611 1_555
Cu3 O5 2.386800 1_555
Cu3 O13 2.546710 1_555
Cu4 O2 1.936484 1_555
Cu4 O10 1.938230 1_546
Cu4 O16 2.007931 1_556
Cu4 O18 2.022611 1_555
Cu4 O6 2.386800 1_555
Cu4 O14 2.546710 1_556
Cu5 O3 1.936484 1_555
Cu5 O11 1.938230 1_545
Cu5 O17 2.007931 1_455
Cu5 O19 2.022611 1_555
Cu5 O7 2.386800 1_555
Cu5 O15 2.546710 1_555
Mo0 O4 1.774821 1_555
Mo0 O1 1.789559 1_555
Mo0 O12 1.814693 1_555
Mo0 O8 1.820667 1_555
Mo1 O5 1.774821 1_554
Mo1 O0 1.789559 1_555
Mo1 O13 1.814693 1_555
Mo1 O9 1.820667 1_555
Mo2 O6 1.774821 1_555
Mo2 O3 1.789559 1_555
Mo2 O14 1.814693 1_555
Mo2 O10 1.820667 1_555
Mo3 O7 1.774821 1_556
Mo3 O2 1.789559 1_555
Mo3 O15 1.814693 1_555
Mo3 O11 1.820667 1_555
H0 O16 0.984374 1_555
H1 O17 0.984374 1_555
H2 O18 0.984374 1_555
H3 O19 0.984374 1_555
