# generated using pymatgen
data_SiO2
_symmetry_space_group_name_H-M   'P 1'
_cell_length_a   9.88295788
_cell_length_b   9.88295788
_cell_length_c   9.88295788
_cell_angle_alpha   90.00000000
_cell_angle_beta   90.00000000
_cell_angle_gamma   90.00000000
_symmetry_Int_Tables_number   1
_chemical_formula_structural   SiO2
_chemical_formula_sum   'Si16 O32'
_cell_volume   965.29672639
_cell_formula_units_Z   16
loop_
 _symmetry_equiv_pos_site_id
 _symmetry_equiv_pos_as_xyz
  1  'x, y, z'
loop_
 _atom_site_type_symbol
 _atom_site_label
 _atom_site_symmetry_multiplicity
 _atom_site_fract_x
 _atom_site_fract_y
 _atom_site_fract_z
 _atom_site_occupancy
  Si  Si0  1  0.15693940  0.15693940  0.15693940  1
  Si  Si1  1  0.15693940  0.84306060  0.15693940  1
  Si  Si2  1  0.15693940  0.15693940  0.84306060  1
  Si  Si3  1  0.84306060  0.15693940  0.15693940  1
  Si  Si4  1  0.84306060  0.84306060  0.15693940  1
  Si  Si5  1  0.15693940  0.84306060  0.84306060  1
  Si  Si6  1  0.84306060  0.15693940  0.84306060  1
  Si  Si7  1  0.84306060  0.84306060  0.84306060  1
  Si  Si8  1  0.65693940  0.65693940  0.65693940  1
  Si  Si9  1  0.65693940  0.34306060  0.65693940  1
  Si  Si10  1  0.65693940  0.65693940  0.34306060  1
  Si  Si11  1  0.34306060  0.65693940  0.65693940  1
  Si  Si12  1  0.34306060  0.34306060  0.65693940  1
  Si  Si13  1  0.65693940  0.34306060  0.34306060  1
  Si  Si14  1  0.34306060  0.65693940  0.34306060  1
  Si  Si15  1  0.34306060  0.34306060  0.34306060  1
  O  O0  1  0.25000000  0.25000000  0.25000000  1
  O  O1  1  0.25000000  0.75000000  0.25000000  1
  O  O2  1  0.25000000  0.25000000  0.75000000  1
  O  O3  1  0.75000000  0.25000000  0.25000000  1
  O  O4  1  0.75000000  0.75000000  0.25000000  1
  O  O5  1  0.25000000  0.75000000  0.75000000  1
  O  O6  1  0.75000000  0.25000000  0.75000000  1
  O  O7  1  0.75000000  0.75000000  0.75000000  1
  O  O8  1  0.18888488  0.18888488  -0.00000000  1
  O  O9  1  0.18888488  -0.00000000  0.18888488  1
  O  O10  1  0.18888488  -0.00000000  0.81111512  1
  O  O11  1  0.00000000  0.18888488  0.81111512  1
  O  O12  1  0.00000000  0.18888488  0.18888488  1
  O  O13  1  0.81111512  0.18888488  -0.00000000  1
  O  O14  1  0.18888488  0.81111512  -0.00000000  1
  O  O15  1  0.81111512  -0.00000000  0.18888488  1
  O  O16  1  -0.00000000  0.81111512  0.81111512  1
  O  O17  1  0.81111512  -0.00000000  0.81111512  1
  O  O18  1  0.00000000  0.81111512  0.18888488  1
  O  O19  1  0.81111512  0.81111512  -0.00000000  1
  O  O20  1  0.68888488  0.68888488  0.50000000  1
  O  O21  1  0.68888488  0.50000000  0.68888488  1
  O  O22  1  0.68888488  0.50000000  0.31111512  1
  O  O23  1  0.50000000  0.68888488  0.31111512  1
  O  O24  1  0.50000000  0.68888488  0.68888488  1
  O  O25  1  0.31111512  0.68888488  0.50000000  1
  O  O26  1  0.68888488  0.31111512  0.50000000  1
  O  O27  1  0.31111512  0.50000000  0.68888488  1
  O  O28  1  0.50000000  0.31111512  0.31111512  1
  O  O29  1  0.31111512  0.50000000  0.31111512  1
  O  O30  1  0.50000000  0.31111512  0.68888488  1
  O  O31  1  0.31111512  0.31111512  0.50000000  1
loop_
_geom_bond_atom_site_label_1
_geom_bond_atom_site_label_2
_geom_bond_distance
_geom_bond_site_symmetry_2
O0 Si15 1.592991 1_555
O0 Si0 1.592991 1_555
O1 Si1 1.592991 1_555
O1 Si14 1.592991 1_555
O2 Si2 1.592991 1_555
O2 Si12 1.592991 1_555
O3 Si3 1.592991 1_555
O3 Si13 1.592991 1_555
O4 Si4 1.592991 1_555
O4 Si10 1.592991 1_555
O5 Si5 1.592991 1_555
O5 Si11 1.592991 1_555
O6 Si6 1.592991 1_555
O6 Si9 1.592991 1_555
O7 Si7 1.592991 1_555
O7 Si8 1.592991 1_555
O8 Si0 1.614011 1_555
O8 Si2 1.614011 1_554
O9 Si0 1.614011 1_555
O9 Si1 1.614011 1_545
O10 Si2 1.614011 1_555
O10 Si5 1.614011 1_545
O11 Si2 1.614011 1_555
O11 Si6 1.614011 1_455
O12 Si0 1.614011 1_555
O12 Si3 1.614011 1_455
O13 Si3 1.614011 1_555
O13 Si6 1.614011 1_554
O14 Si1 1.614011 1_555
O14 Si5 1.614011 1_554
O15 Si3 1.614011 1_555
O15 Si4 1.614011 1_545
O16 Si5 1.614011 1_555
O16 Si7 1.614011 1_455
O17 Si6 1.614011 1_555
O17 Si7 1.614011 1_545
O18 Si1 1.614011 1_555
O18 Si4 1.614011 1_455
O19 Si4 1.614011 1_555
O19 Si7 1.614011 1_554
O20 Si8 1.614011 1_555
O20 Si10 1.614011 1_555
O21 Si8 1.614011 1_555
O21 Si9 1.614011 1_555
O22 Si10 1.614011 1_555
O22 Si13 1.614011 1_555
O23 Si10 1.614011 1_555
O23 Si14 1.614011 1_555
O24 Si8 1.614011 1_555
O24 Si11 1.614011 1_555
O25 Si11 1.614011 1_555
O25 Si14 1.614011 1_555
O26 Si9 1.614011 1_555
O26 Si13 1.614011 1_555
O27 Si11 1.614011 1_555
O27 Si12 1.614011 1_555
O28 Si13 1.614011 1_555
O28 Si15 1.614011 1_555
O29 Si14 1.614011 1_555
O29 Si15 1.614011 1_555
O30 Si9 1.614011 1_555
O30 Si12 1.614011 1_555
O31 Si12 1.614011 1_555
O31 Si15 1.614011 1_555
