# generated using pymatgen
data_BaLuFeCuO5
_symmetry_space_group_name_H-M   'P 1'
_cell_length_a   3.85540500
_cell_length_b   3.85540500
_cell_length_c   7.94957200
_cell_angle_alpha   90.00000000
_cell_angle_beta   90.00000000
_cell_angle_gamma   90.00000000
_symmetry_Int_Tables_number   1
_chemical_formula_structural   BaLuFeCuO5
_chemical_formula_sum   'Ba1 Lu1 Fe1 Cu1 O5'
_cell_volume   118.16361247
_cell_formula_units_Z   1
loop_
 _symmetry_equiv_pos_site_id
 _symmetry_equiv_pos_as_xyz
  1  'x, y, z'
loop_
 _atom_site_type_symbol
 _atom_site_label
 _atom_site_symmetry_multiplicity
 _atom_site_fract_x
 _atom_site_fract_y
 _atom_site_fract_z
 _atom_site_occupancy
  Ba  Ba0  1  0.00000000  0.00000000  0.97936900  1
  Lu  Lu0  1  0.00000000  0.00000000  0.51461500  1
  Fe  Fe0  1  0.50000000  0.50000000  0.27921700  1
  Cu  Cu0  1  0.50000000  0.50000000  0.72096600  1
  O  O0  1  0.50000000  0.50000000  0.04282400  1
  O  O1  1  0.50000000  0.00000000  0.69838400  1
  O  O2  1  0.50000000  0.00000000  0.35312100  1
  O  O3  1  0.00000000  0.50000000  0.69838400  1
  O  O4  1  0.00000000  0.50000000  0.35312100  1
loop_
_geom_bond_atom_site_label_1
_geom_bond_atom_site_label_2
_geom_bond_distance
_geom_bond_site_symmetry_2
Ba0 O0 2.772460 1_446
Ba0 O0 2.772460 1_456
Ba0 O0 2.772460 1_556
Ba0 O0 2.772460 1_546
Ba0 O1 2.950508 1_555
Ba0 O1 2.950508 1_455
Ba0 O3 2.950508 1_545
Ba0 O3 2.950508 1_555
Lu0 O4 2.316074 1_555
Lu0 O2 2.316074 1_455
Lu0 O4 2.316074 1_545
Lu0 O2 2.316074 1_555
Lu0 O1 2.418723 1_455
Lu0 O1 2.418723 1_555
Lu0 O3 2.418723 1_545
Lu0 O3 2.418723 1_555
Fe0 O0 1.879223 1_555
Fe0 O2 2.015242 1_555
Fe0 O2 2.015242 1_565
Fe0 O4 2.015242 1_555
Fe0 O4 2.015242 1_655
Cu0 O1 1.936043 1_565
Cu0 O3 1.936043 1_555
Cu0 O1 1.936043 1_555
Cu0 O3 1.936043 1_655
Cu0 O0 2.558633 1_556
