# generated using pymatgen
data_Ho3Se3N
_symmetry_space_group_name_H-M   'P 1'
_cell_length_a   7.65622822
_cell_length_b   7.65622822
_cell_length_c   12.50163631
_cell_angle_alpha   72.98344540
_cell_angle_beta   72.98344540
_cell_angle_gamma   82.39269855
_symmetry_Int_Tables_number   1
_chemical_formula_structural   Ho3Se3N
_chemical_formula_sum   'Ho12 Se12 N4'
_cell_volume   669.18209647
_cell_formula_units_Z   4
loop_
 _symmetry_equiv_pos_site_id
 _symmetry_equiv_pos_as_xyz
  1  'x, y, z'
loop_
 _atom_site_type_symbol
 _atom_site_label
 _atom_site_symmetry_multiplicity
 _atom_site_fract_x
 _atom_site_fract_y
 _atom_site_fract_z
 _atom_site_occupancy
  Ho  Ho0  1  0.75184842  0.60919880  0.61274505  1
  Ho  Ho1  1  0.06298392  0.78729377  0.12292075  1
  Ho  Ho2  1  0.21270623  0.93701608  0.37707925  1
  Ho  Ho3  1  0.65997397  0.97872387  0.38283933  1
  Ho  Ho4  1  0.93701608  0.21270623  0.87707925  1
  Ho  Ho5  1  0.39080120  0.24815158  0.88725495  1
  Ho  Ho6  1  0.78729377  0.06298392  0.62292075  1
  Ho  Ho7  1  0.60919880  0.75184842  0.11274505  1
  Ho  Ho8  1  0.02127613  0.34002603  0.11716067  1
  Ho  Ho9  1  0.24815158  0.39080120  0.38725495  1
  Ho  Ho10  1  0.97872387  0.65997397  0.88283933  1
  Ho  Ho11  1  0.34002603  0.02127613  0.61716067  1
  Se  Se0  1  0.92671500  0.21796372  0.37317864  1
  Se  Se1  1  0.33415692  0.50519257  0.14106307  1
  Se  Se2  1  0.50519257  0.33415692  0.64106307  1
  Se  Se3  1  0.69346030  0.95907919  0.87209990  1
  Se  Se4  1  0.21796372  0.92671500  0.87317864  1
  Se  Se5  1  0.07328500  0.78203628  0.62682136  1
  Se  Se6  1  0.04092081  0.30653970  0.62790010  1
  Se  Se7  1  0.78203628  0.07328500  0.12682136  1
  Se  Se8  1  0.30653970  0.04092081  0.12790010  1
  Se  Se9  1  0.66584308  0.49480743  0.85893693  1
  Se  Se10  1  0.95907919  0.69346030  0.37209990  1
  Se  Se11  1  0.49480743  0.66584308  0.35893693  1
  N  N0  1  0.10951888  0.37532622  0.92411220  1
  N  N1  1  0.62467378  0.89048112  0.57588780  1
  N  N2  1  0.37532622  0.10951888  0.42411220  1
  N  N3  1  0.89048112  0.62467378  0.07588780  1
loop_
_geom_bond_atom_site_label_1
_geom_bond_atom_site_label_2
_geom_bond_distance
_geom_bond_site_symmetry_2
Ho0 N1 2.219191 1_555
Ho0 Se9 2.839416 1_555
Ho0 Se10 2.885413 1_555
Ho0 Se2 2.889838 1_555
Ho0 Se6 2.989034 1_655
Ho0 Se5 3.015051 1_655
Ho1 N3 2.226786 1_455
Ho1 Se1 2.797929 1_555
Ho1 Se7 2.859664 1_465
Ho1 Se10 2.871254 1_455
Ho1 Se8 2.889487 1_565
Ho1 Se4 2.917495 1_554
Ho2 N2 2.226786 1_565
Ho2 Se11 2.797929 1_555
Ho2 Se0 2.859664 1_465
Ho2 Se8 2.871254 1_565
Ho2 Se10 2.889487 1_455
Ho2 Se5 2.917495 1_555
Ho3 N1 2.250851 1_555
Ho3 N2 2.254983 1_565
Ho3 Se0 2.873481 1_565
Ho3 Se10 2.949525 1_555
Ho3 Se7 2.951918 1_565
Ho3 Se11 2.978071 1_555
Ho4 N0 2.226786 1_655
Ho4 Se9 2.797929 1_555
Ho4 Se4 2.859664 1_645
Ho4 Se6 2.871254 1_655
Ho4 Se3 2.889487 1_545
Ho4 Se7 2.917495 1_556
Ho5 N0 2.219191 1_555
Ho5 Se2 2.839416 1_555
Ho5 Se8 2.885413 1_556
Ho5 Se9 2.889838 1_555
Ho5 Se3 2.989034 1_545
Ho5 Se4 3.015051 1_545
Ho6 N1 2.226786 1_545
Ho6 Se2 2.797929 1_555
Ho6 Se5 2.859664 1_645
Ho6 Se3 2.871254 1_545
Ho6 Se6 2.889487 1_655
Ho6 Se0 2.917495 1_555
Ho7 N3 2.219191 1_555
Ho7 Se11 2.839416 1_555
Ho7 Se3 2.885413 1_554
Ho7 Se1 2.889838 1_555
Ho7 Se8 2.989034 1_565
Ho7 Se7 3.015051 1_565
Ho8 N0 2.250851 1_554
Ho8 N3 2.254983 1_455
Ho8 Se7 2.873481 1_455
Ho8 Se8 2.949525 1_555
Ho8 Se0 2.951918 1_455
Ho8 Se1 2.978071 1_555
Ho9 N2 2.219191 1_555
Ho9 Se1 2.839416 1_555
Ho9 Se6 2.885413 1_555
Ho9 Se11 2.889838 1_555
Ho9 Se10 2.989034 1_455
Ho9 Se0 3.015051 1_455
Ho10 N3 2.250851 1_556
Ho10 N0 2.254983 1_655
Ho10 Se4 2.873481 1_655
Ho10 Se3 2.949525 1_555
Ho10 Se5 2.951918 1_655
Ho10 Se9 2.978071 1_555
Ho11 N2 2.250851 1_555
Ho11 N1 2.254983 1_545
Ho11 Se5 2.873481 1_545
Ho11 Se6 2.949525 1_555
Ho11 Se4 2.951918 1_545
Ho11 Se2 2.978071 1_555
