# generated using pymatgen
data_K3UH6C5SNO13
_symmetry_space_group_name_H-M   'P 1'
_cell_length_a   12.26611300
_cell_length_b   10.91951300
_cell_length_c   14.32736333
_cell_angle_alpha   66.06655437
_cell_angle_beta   90.00000000
_cell_angle_gamma   90.00000000
_symmetry_Int_Tables_number   1
_chemical_formula_structural   K3UH6C5SNO13
_chemical_formula_sum   'K12 U4 H24 C20 S4 N4 O52'
_cell_volume   1754.00538736
_cell_formula_units_Z   4
loop_
 _symmetry_equiv_pos_site_id
 _symmetry_equiv_pos_as_xyz
  1  'x, y, z'
loop_
 _atom_site_type_symbol
 _atom_site_label
 _atom_site_symmetry_multiplicity
 _atom_site_fract_x
 _atom_site_fract_y
 _atom_site_fract_z
 _atom_site_occupancy
  K  K0  1  0.40050500  0.13562500  0.08268400  1
  K  K1  1  0.10840000  0.12761000  0.89637600  1
  K  K2  1  0.07701800  0.48096200  0.65605400  1
  K  K3  1  0.59949500  0.86437500  0.91731600  1
  K  K4  1  0.09949500  0.13562500  0.58268400  1
  K  K5  1  0.42298200  0.48096200  0.15605400  1
  K  K6  1  0.57701800  0.51903800  0.84394600  1
  K  K7  1  0.39160000  0.12761000  0.39637600  1
  K  K8  1  0.89160000  0.87239000  0.10362400  1
  K  K9  1  0.92298200  0.51903800  0.34394600  1
  K  K10  1  0.90050500  0.86437500  0.41731600  1
  K  K11  1  0.60840000  0.87239000  0.60362400  1
  U  U0  1  0.10615400  0.77057400  0.81374300  1
  U  U1  1  0.60615400  0.22942600  0.68625700  1
  U  U2  1  0.39384600  0.77057400  0.31374300  1
  U  U3  1  0.89384600  0.22942600  0.18625700  1
  H  H0  1  0.33947500  0.32334300  0.51474500  1
  H  H1  1  0.35139600  0.55918600  0.94010200  1
  H  H2  1  0.31925100  0.42025800  0.94786700  1
  H  H3  1  0.14683500  0.43493100  0.90538400  1
  H  H4  1  0.35203600  0.77106000  0.96629500  1
  H  H5  1  0.86381200  0.18950300  0.44117800  1
  H  H6  1  0.14796400  0.77106000  0.46629500  1
  H  H7  1  0.63618800  0.18950300  0.94117800  1
  H  H8  1  0.16052500  0.32334300  0.01474500  1
  H  H9  1  0.64860400  0.44081400  0.05989800  1
  H  H10  1  0.81925100  0.57974200  0.55213300  1
  H  H11  1  0.18074900  0.42025800  0.44786700  1
  H  H12  1  0.68074900  0.57974200  0.05213300  1
  H  H13  1  0.85316500  0.56506900  0.09461600  1
  H  H14  1  0.85139600  0.44081400  0.55989800  1
  H  H15  1  0.66052500  0.67665700  0.48525500  1
  H  H16  1  0.35316500  0.43493100  0.40538400  1
  H  H17  1  0.85203600  0.22894000  0.53370500  1
  H  H18  1  0.36381200  0.81049700  0.05882200  1
  H  H19  1  0.13618800  0.81049700  0.55882200  1
  H  H20  1  0.64796400  0.22894000  0.03370500  1
  H  H21  1  0.14860400  0.55918600  0.44010200  1
  H  H22  1  0.64683500  0.56506900  0.59461600  1
  H  H23  1  0.83947500  0.67665700  0.98525500  1
  C  C0  1  0.17547000  0.87317600  0.16686300  1
  C  C1  1  0.13174400  0.59682800  0.08322000  1
  C  C2  1  0.82453000  0.12682400  0.83313700  1
  C  C3  1  0.36825600  0.59682800  0.58322000  1
  C  C4  1  0.15987800  0.21043000  0.21919700  1
  C  C5  1  0.34012200  0.21043000  0.71919700  1
  C  C6  1  0.38864400  0.14378800  0.82963800  1
  C  C7  1  0.65987800  0.78957000  0.28080300  1
  C  C8  1  0.67547000  0.12682400  0.33313700  1
  C  C9  1  0.11135600  0.14378800  0.32963800  1
  C  C10  1  0.63174400  0.40317200  0.41678000  1
  C  C11  1  0.32453000  0.87317600  0.66686300  1
  C  C12  1  0.86825600  0.40317200  0.91678000  1
  C  C13  1  0.62643400  0.20891400  0.22532700  1
  C  C14  1  0.61135600  0.85621200  0.17036200  1
  C  C15  1  0.84012200  0.78957000  0.78080300  1
  C  C16  1  0.87356600  0.20891400  0.72532700  1
  C  C17  1  0.37356600  0.79108600  0.77467300  1
  C  C18  1  0.12643400  0.79108600  0.27467300  1
  C  C19  1  0.88864400  0.85621200  0.67036200  1
  S  S0  1  0.65389400  0.46542700  0.29573800  1
  S  S1  1  0.15389400  0.53457300  0.20426200  1
  S  S2  1  0.34610600  0.53457300  0.70426200  1
  S  S3  1  0.84610600  0.46542700  0.79573800  1
  N  N0  1  0.61579000  0.35699000  0.50637500  1
  N  N1  1  0.88421000  0.35699000  0.00637500  1
  N  N2  1  0.38421000  0.64301000  0.49362500  1
  N  N3  1  0.11579000  0.64301000  0.99362500  1
  O  O0  1  0.39410300  0.61178800  0.29805700  1
  O  O1  1  0.97366500  0.22740400  0.71385700  1
  O  O2  1  0.52633500  0.22740400  0.21385700  1
  O  O3  1  0.41380500  0.24753600  0.64806900  1
  O  O4  1  0.49245200  0.12123100  0.83111100  1
  O  O5  1  0.38988200  0.92768300  0.32943300  1
  O  O6  1  0.10589700  0.61178800  0.79805700  1
  O  O7  1  0.99245200  0.87876900  0.66888900  1
  O  O8  1  0.81082900  0.64634900  0.05550700  1
  O  O9  1  0.08619500  0.24753600  0.14806900  1
  O  O10  1  0.80145900  0.25094800  0.65255500  1
  O  O11  1  0.19854100  0.74905200  0.34744500  1
  O  O12  1  0.50754800  0.87876900  0.16888900  1
  O  O13  1  0.18917100  0.35365100  0.94449300  1
  O  O14  1  0.26025000  0.22116600  0.20565500  1
  O  O15  1  0.21884500  0.87594200  0.66575600  1
  O  O16  1  0.11904700  0.46815100  0.46310500  1
  O  O17  1  0.68917100  0.64634900  0.55550700  1
  O  O18  1  0.89726400  0.24379100  0.47352600  1
  O  O19  1  0.69854100  0.25094800  0.15255500  1
  O  O20  1  0.38553300  0.92993400  0.59272500  1
  O  O21  1  0.78115500  0.12405800  0.33424400  1
  O  O22  1  0.39726400  0.75620900  0.02647400  1
  O  O23  1  0.67028600  0.88388500  0.09407000  1
  O  O24  1  0.11446700  0.92993400  0.09272500  1
  O  O25  1  0.10273600  0.75620900  0.52647400  1
  O  O26  1  0.61904700  0.53184900  0.03689500  1
  O  O27  1  0.31082900  0.35365100  0.44449300  1
  O  O28  1  0.61011800  0.07231700  0.67056700  1
  O  O29  1  0.82971400  0.88388500  0.59407000  1
  O  O30  1  0.11011800  0.92768300  0.82943300  1
  O  O31  1  0.60589700  0.38821200  0.70194300  1
  O  O32  1  0.23975000  0.22116600  0.70565500  1
  O  O33  1  0.91380500  0.75246400  0.85193100  1
  O  O34  1  0.88988200  0.07231700  0.17056700  1
  O  O35  1  0.32971400  0.11611500  0.90593000  1
  O  O36  1  0.88095300  0.53184900  0.53689500  1
  O  O37  1  0.00754800  0.12123100  0.33111100  1
  O  O38  1  0.02633500  0.77259600  0.28614300  1
  O  O39  1  0.58619500  0.75246400  0.35193100  1
  O  O40  1  0.88553300  0.07006600  0.90727500  1
  O  O41  1  0.60273600  0.24379100  0.97352600  1
  O  O42  1  0.28115500  0.87594200  0.16575600  1
  O  O43  1  0.76025000  0.77883400  0.29434500  1
  O  O44  1  0.61446700  0.07006600  0.40727500  1
  O  O45  1  0.38095300  0.46815100  0.96310500  1
  O  O46  1  0.73975000  0.77883400  0.79434500  1
  O  O47  1  0.17028600  0.11611500  0.40593000  1
  O  O48  1  0.47366500  0.77259600  0.78614300  1
  O  O49  1  0.89410300  0.38821200  0.20194300  1
  O  O50  1  0.71884500  0.12405800  0.83424400  1
  O  O51  1  0.30145900  0.74905200  0.84744500  1
loop_
_geom_bond_atom_site_label_1
_geom_bond_atom_site_label_2
_geom_bond_distance
_geom_bond_site_symmetry_2
K0 O35 2.765910 1_554
K0 O14 2.876029 1_555
K0 O12 2.881908 1_545
K0 O2 2.906329 1_555
K0 O41 2.914714 1_554
K0 O42 2.976943 1_545
K1 O30 2.717563 1_545
K1 O35 2.718445 1_555
K1 O24 2.766208 1_546
K1 O40 2.795135 1_455
K1 O1 2.906042 1_455
K1 O32 2.973428 1_555
K1 O13 2.988264 1_555
K2 O25 2.837670 1_555
K2 O1 2.845784 1_455
K2 O36 2.870111 1_455
K2 O16 2.870765 1_555
K2 O6 2.943416 1_555
K2 O32 3.301727 1_555
K2 S3 3.432345 1_455
K2 S2 3.470187 1_555
K3 O23 2.765910 1_556
K3 O46 2.876029 1_555
K3 O4 2.881908 1_565
K3 O48 2.906329 1_555
K3 O22 2.914714 1_556
K3 O50 2.976943 1_565
K4 O47 2.765910 1_555
K4 O32 2.876029 1_555
K4 O7 2.881908 1_445
K4 O1 2.906329 1_455
K4 O18 2.914714 1_455
K4 O15 2.976943 1_545
K5 O22 2.837670 1_555
K5 O2 2.845784 1_555
K5 O26 2.870111 1_555
K5 O45 2.870765 1_554
K5 O0 2.943416 1_555
K5 O14 3.301727 1_555
K5 S0 3.432345 1_555
K5 S1 3.470187 1_555
K6 O41 2.837670 1_555
K6 O48 2.845784 1_555
K6 O45 2.870111 1_555
K6 O26 2.870765 1_556
K6 O31 2.943416 1_555
K6 O46 3.301727 1_555
K6 S2 3.432345 1_555
K6 S3 3.470187 1_555
K7 O5 2.717563 1_545
K7 O47 2.718445 1_555
K7 O20 2.766208 1_545
K7 O44 2.795135 1_555
K7 O2 2.906042 1_555
K7 O14 2.973428 1_555
K7 O27 2.988264 1_555
K8 O34 2.717563 1_565
K8 O23 2.718445 1_555
K8 O40 2.766208 1_564
K8 O24 2.795135 1_655
K8 O38 2.906042 1_655
K8 O43 2.973428 1_555
K8 O8 2.988264 1_555
K9 O18 2.837670 1_555
K9 O38 2.845784 1_655
K9 O16 2.870111 1_655
K9 O36 2.870765 1_555
K9 O49 2.943416 1_555
K9 O43 3.301727 1_555
K9 S1 3.432345 1_655
K9 S0 3.470187 1_555
K10 O29 2.765910 1_555
K10 O43 2.876029 1_555
K10 O37 2.881908 1_665
K10 O38 2.906329 1_655
K10 O25 2.914714 1_655
K10 O21 2.976943 1_565
K11 O28 2.717563 1_565
K11 O29 2.718445 1_555
K11 O44 2.766208 1_565
K11 O20 2.795135 1_555
K11 O48 2.906042 1_555
K11 O46 2.973428 1_555
K11 O17 2.988264 1_555
H0 O27 0.987835 1_555
H1 O45 0.981021 1_555
H1 K5 2.988203 1_556
H2 O45 0.993281 1_555
H3 O13 0.983803 1_555
H4 O22 0.981848 1_556
H5 O18 0.978511 1_555
H6 O25 0.981848 1_555
H7 O41 0.978511 1_555
H8 O13 0.987835 1_554
H9 O26 0.981021 1_555
H9 K6 2.988203 1_554
H10 O36 0.993281 1_555
H11 O16 0.993281 1_555
H12 O26 0.993281 1_555
H13 O8 0.983803 1_555
H14 O36 0.981021 1_555
H14 K9 2.988203 1_555
H15 O17 0.987835 1_555
H16 O27 0.983803 1_555
H17 O18 0.981848 1_555
H18 O22 0.978511 1_555
H19 O25 0.978511 1_555
H20 O41 0.981848 1_554
H21 O16 0.981021 1_555
H21 K2 2.988203 1_555
H22 O17 0.983803 1_555
H23 O8 0.987835 1_556
C0 O24 1.240228 1_555
C0 O42 1.296643 1_555
C1 N3 1.189609 1_554
C1 S1 1.608392 1_555
C2 O40 1.240228 1_555
C2 O50 1.296643 1_555
C3 N2 1.189609 1_555
C3 S2 1.608392 1_555
C4 O14 1.244477 1_555
C4 O9 1.297897 1_555
C5 O32 1.244477 1_555
C5 O3 1.297897 1_555
C6 O35 1.241214 1_555
C6 O4 1.295470 1_555
C7 O43 1.244477 1_555
C7 O39 1.297897 1_555
C8 O44 1.240228 1_555
C8 O21 1.296643 1_555
C9 O47 1.241214 1_555
C9 O37 1.295470 1_555
C10 N0 1.189609 1_555
C10 S0 1.608392 1_555
C11 O20 1.240228 1_555
C11 O15 1.296643 1_555
C12 N1 1.189609 1_556
C12 S3 1.608392 1_555
C13 O2 1.244350 1_555
C13 O19 1.300679 1_555
C14 O23 1.241214 1_555
C14 O12 1.295470 1_555
C15 O46 1.244477 1_555
C15 O33 1.297897 1_555
C16 O1 1.244350 1_555
C16 O10 1.300679 1_555
C17 O48 1.244350 1_555
C17 O51 1.300679 1_555
C18 O38 1.244350 1_555
C18 O11 1.300679 1_555
C19 O29 1.241214 1_555
C19 O7 1.295470 1_555
N0 U1 2.384050 1_555
N1 U3 2.384050 1_555
N2 U2 2.384050 1_555
N3 U0 2.384050 1_555
O0 U2 1.836563 1_555
O3 U1 2.411913 1_555
O4 U1 2.378811 1_555
O5 U2 1.819044 1_555
O6 U0 1.836563 1_555
O7 U0 2.378811 1_655
O9 U3 2.411913 1_455
O10 U1 2.436262 1_555
O11 U2 2.436262 1_555
O12 U2 2.378811 1_555
O15 U0 2.398068 1_555
O19 U3 2.436262 1_555
O21 U3 2.398068 1_555
O28 U1 1.819044 1_555
O30 U0 1.819044 1_555
O31 U1 1.836563 1_555
O33 U0 2.411913 1_655
O34 U3 1.819044 1_555
O37 U3 2.378811 1_455
O39 U2 2.411913 1_555
O42 U2 2.398068 1_555
O49 U3 1.836563 1_555
O50 U1 2.398068 1_555
O51 U0 2.436262 1_555
