# generated using pymatgen
data_CdI2
_symmetry_space_group_name_H-M   'P 1'
_cell_length_a   4.34230214
_cell_length_b   4.34230214
_cell_length_c   103.17152200
_cell_angle_alpha   90.00000000
_cell_angle_beta   90.00000000
_cell_angle_gamma   120.00000207
_symmetry_Int_Tables_number   1
_chemical_formula_structural   CdI2
_chemical_formula_sum   'Cd14 I28'
_cell_volume   1684.73088081
_cell_formula_units_Z   14
loop_
 _symmetry_equiv_pos_site_id
 _symmetry_equiv_pos_as_xyz
  1  'x, y, z'
loop_
 _atom_site_type_symbol
 _atom_site_label
 _atom_site_symmetry_multiplicity
 _atom_site_fract_x
 _atom_site_fract_y
 _atom_site_fract_z
 _atom_site_occupancy
  Cd  Cd0  1  0.00000000  0.00000000  0.80356900  1
  Cd  Cd1  1  0.00000000  0.00000000  0.51784800  1
  Cd  Cd2  1  0.66666700  0.33333300  0.30358000  1
  Cd  Cd3  1  0.66666700  0.33333300  0.16071200  1
  Cd  Cd4  1  0.66666700  0.33333300  0.58928200  1
  Cd  Cd5  1  0.66666700  0.33333300  0.37499100  1
  Cd  Cd6  1  0.00000000  0.00000000  0.23214600  1
  Cd  Cd7  1  0.00000000  0.00000000  0.94643100  1
  Cd  Cd8  1  0.00000000  0.00000000  0.66071300  1
  Cd  Cd9  1  0.00000000  0.00000000  0.73214900  1
  Cd  Cd10  1  0.66666700  0.33333300  0.01785700  1
  Cd  Cd11  1  0.66666700  0.33333300  0.44644000  1
  Cd  Cd12  1  0.00000000  0.00000000  0.08928400  1
  Cd  Cd13  1  0.00000000  0.00000000  0.87499900  1
  I  I0  1  0.66666700  0.33333300  0.07253300  1
  I  I1  1  0.33333300  0.66666700  0.53460100  1
  I  I2  1  0.33333300  0.66666700  0.17746700  1
  I  I3  1  0.33333300  0.66666700  0.10604800  1
  I  I4  1  0.33333300  0.66666700  0.46318000  1
  I  I5  1  0.66666700  0.33333300  0.78682200  1
  I  I6  1  0.33333300  0.66666700  0.82033100  1
  I  I7  1  0.00000000  0.00000000  0.28681100  1
  I  I8  1  0.66666700  0.33333300  0.64394600  1
  I  I9  1  0.33333300  0.66666700  0.32033800  1
  I  I10  1  0.33333300  0.66666700  0.60604800  1
  I  I11  1  0.00000000  0.00000000  0.14395100  1
  I  I12  1  0.33333300  0.66666700  0.96317400  1
  I  I13  1  0.00000000  0.00000000  0.35823300  1
  I  I14  1  0.00000000  0.00000000  0.00112000  1
  I  I15  1  0.66666700  0.33333300  0.85825500  1
  I  I16  1  0.66666700  0.33333300  0.92967200  1
  I  I17  1  0.33333300  0.66666700  0.67746400  1
  I  I18  1  0.66666700  0.33333300  0.71539600  1
  I  I19  1  0.66666700  0.33333300  0.21539400  1
  I  I20  1  0.33333300  0.66666700  0.03461300  1
  I  I21  1  0.33333300  0.66666700  0.89174300  1
  I  I22  1  0.33333300  0.66666700  0.24890700  1
  I  I23  1  0.33333300  0.66666700  0.39173600  1
  I  I24  1  0.66666700  0.33333300  0.50108800  1
  I  I25  1  0.00000000  0.00000000  0.57254000  1
  I  I26  1  0.00000000  0.00000000  0.42967700  1
  I  I27  1  0.33333300  0.66666700  0.74890900  1
loop_
_geom_bond_atom_site_label_1
_geom_bond_atom_site_label_2
_geom_bond_distance
_geom_bond_site_symmetry_2
Cd0 I5 3.044753 1_455
Cd0 I5 3.044756 1_445
Cd0 I5 3.044756 1_555
Cd0 I6 3.045632 1_545
Cd0 I6 3.045635 1_445
Cd0 I6 3.045635 1_555
Cd1 I1 3.045105 1_545
Cd1 I1 3.045108 1_555
Cd1 I1 3.045108 1_445
Cd1 I24 3.045515 1_455
Cd1 I24 3.045518 1_445
Cd1 I24 3.045518 1_555
Cd2 I9 3.045397 1_545
Cd2 I9 3.045397 1_655
Cd2 I9 3.045404 1_555
Cd2 I7 3.046042 1_655
Cd2 I7 3.046045 1_665
Cd2 I7 3.046045 1_555
Cd3 I2 3.045222 1_545
Cd3 I2 3.045222 1_655
Cd3 I2 3.045228 1_555
Cd3 I11 3.045573 1_655
Cd3 I11 3.045576 1_555
Cd3 I11 3.045576 1_665
Cd4 I25 3.044461 1_655
Cd4 I25 3.044464 1_555
Cd4 I25 3.044464 1_665
Cd4 I10 3.045866 1_545
Cd4 I10 3.045866 1_655
Cd4 I10 3.045872 1_555
Cd5 I23 3.044636 1_655
Cd5 I23 3.044636 1_545
Cd5 I23 3.044642 1_555
Cd5 I13 3.045398 1_655
Cd5 I13 3.045401 1_555
Cd5 I13 3.045401 1_665
Cd6 I19 3.045046 1_455
Cd6 I19 3.045049 1_445
Cd6 I19 3.045049 1_555
Cd6 I22 3.045573 1_545
Cd6 I22 3.045576 1_445
Cd6 I22 3.045576 1_555
Cd7 I12 3.044519 1_545
Cd7 I12 3.044522 1_445
Cd7 I12 3.044522 1_555
Cd7 I16 3.045456 1_455
Cd7 I16 3.045459 1_445
Cd7 I16 3.045459 1_555
Cd8 I17 3.044988 1_545
Cd8 I17 3.044991 1_445
Cd8 I17 3.044991 1_555
Cd8 I8 3.045925 1_455
Cd8 I8 3.045928 1_555
Cd8 I8 3.045928 1_445
Cd9 I18 3.045105 1_455
Cd9 I18 3.045108 1_445
Cd9 I18 3.045108 1_555
Cd9 I27 3.045515 1_545
Cd9 I27 3.045518 1_445
Cd9 I27 3.045518 1_555
Cd10 I14 3.044168 1_655
Cd10 I14 3.044171 1_555
Cd10 I14 3.044171 1_665
Cd10 I20 3.045280 1_545
Cd10 I20 3.045280 1_655
Cd10 I20 3.045287 1_555
Cd11 I4 3.044344 1_545
Cd11 I4 3.044344 1_655
Cd11 I4 3.044350 1_555
Cd11 I26 3.045690 1_655
Cd11 I26 3.045693 1_665
Cd11 I26 3.045693 1_555
Cd12 I0 3.044988 1_455
Cd12 I0 3.044991 1_555
Cd12 I0 3.044991 1_445
Cd12 I3 3.045749 1_545
Cd12 I3 3.045752 1_555
Cd12 I3 3.045752 1_445
Cd13 I21 3.044578 1_545
Cd13 I15 3.044578 1_455
Cd13 I21 3.044581 1_555
Cd13 I21 3.044581 1_445
Cd13 I15 3.044581 1_445
Cd13 I15 3.044581 1_555
