# generated using pymatgen
data_DyCuSb2
_symmetry_space_group_name_H-M   'P 1'
_cell_length_a   4.32335664
_cell_length_b   4.31838166
_cell_length_c   9.77440128
_cell_angle_alpha   90.41928086
_cell_angle_beta   89.83641711
_cell_angle_gamma   90.15052230
_symmetry_Int_Tables_number   1
_chemical_formula_structural   DyCuSb2
_chemical_formula_sum   'Dy2 Cu2 Sb4'
_cell_volume   182.48088431
_cell_formula_units_Z   2
loop_
 _symmetry_equiv_pos_site_id
 _symmetry_equiv_pos_as_xyz
  1  'x, y, z'
loop_
 _atom_site_type_symbol
 _atom_site_label
 _atom_site_symmetry_multiplicity
 _atom_site_fract_x
 _atom_site_fract_y
 _atom_site_fract_z
 _atom_site_occupancy
  Dy  Dy0  1  0.25137000  0.24882600  0.25026600  1
  Dy  Dy1  1  0.74864600  0.75099600  0.74972400  1
  Cu  Cu0  1  0.74566200  0.24139500  0.00027200  1
  Cu  Cu1  1  0.25397500  0.76076800  0.99975400  1
  Sb  Sb0  1  0.24780600  0.25527200  0.83854800  1
  Sb  Sb1  1  0.75238000  0.74495400  0.16142500  1
  Sb  Sb2  1  0.25010800  0.74901900  0.50000400  1
  Sb  Sb3  1  0.75005200  0.24877100  0.50000700  1
loop_
_geom_bond_atom_site_label_1
_geom_bond_atom_site_label_2
_geom_bond_distance
_geom_bond_site_symmetry_2
Dy0 Sb1 3.166717 1_555
Dy0 Sb1 3.171820 1_455
Dy0 Sb1 3.178211 1_445
Dy0 Sb1 3.188538 1_545
Dy0 Sb2 3.247649 1_555
Dy0 Sb3 3.259775 1_455
Dy0 Sb3 3.261461 1_555
Dy0 Sb2 3.270196 1_545
Dy1 Sb0 3.164989 1_555
Dy1 Sb0 3.171091 1_655
Dy1 Sb0 3.179852 1_665
Dy1 Sb0 3.189184 1_565
Dy1 Sb3 3.253292 1_555
Dy1 Sb2 3.260013 1_655
Dy1 Sb2 3.260842 1_555
Dy1 Sb3 3.264207 1_565
Cu0 Sb1 2.669831 1_545
Cu0 Sb0 2.675208 1_554
Cu0 Sb1 2.675916 1_555
Cu0 Sb0 2.682629 1_654
Cu0 Cu1 2.967043 1_544
Cu0 Cu1 3.026736 1_644
Cu0 Cu1 3.094260 1_554
Cu0 Cu1 3.135943 1_654
Cu0 Dy1 3.225895 1_544
Cu0 Dy0 3.241619 1_555
Cu0 Dy0 3.283454 1_655
Cu0 Dy1 3.304386 1_554
Cu1 Sb0 2.663359 1_565
Cu1 Sb1 2.677069 1_556
Cu1 Sb1 2.680627 1_456
Cu1 Sb0 2.682959 1_555
Cu1 Dy0 3.219052 1_566
Cu1 Dy1 3.243038 1_555
Cu1 Dy1 3.282664 1_455
Cu1 Dy0 3.310920 1_556
Sb2 Sb3 3.050373 1_565
Sb2 Sb3 3.052227 1_455
Sb2 Sb3 3.058741 1_465
Sb2 Sb3 3.059914 1_555
