# generated using pymatgen
data_Dy2O3
_symmetry_space_group_name_H-M   'P 1'
_cell_length_a   4.49752000
_cell_length_b   4.49752000
_cell_length_c   4.49752000
_cell_angle_alpha   90.00000000
_cell_angle_beta   90.00000000
_cell_angle_gamma   90.00000000
_symmetry_Int_Tables_number   1
_chemical_formula_structural   Dy2O3
_chemical_formula_sum   'Dy4 O6'
_cell_volume   90.97442302
_cell_formula_units_Z   2
loop_
 _symmetry_equiv_pos_site_id
 _symmetry_equiv_pos_as_xyz
  1  'x, y, z'
loop_
 _atom_site_type_symbol
 _atom_site_label
 _atom_site_symmetry_multiplicity
 _atom_site_fract_x
 _atom_site_fract_y
 _atom_site_fract_z
 _atom_site_occupancy
  Dy  Dy0  1  0.75000000  0.25000000  0.25000000  1
  Dy  Dy1  1  0.25000000  0.75000000  0.25000000  1
  Dy  Dy2  1  0.75000000  0.75000000  0.75000000  1
  Dy  Dy3  1  0.25000000  0.25000000  0.75000000  1
  O  O0  1  0.50000000  0.00000000  0.00000000  1
  O  O1  1  0.00000000  0.50000000  0.00000000  1
  O  O2  1  0.50000000  0.50000000  0.00000000  1
  O  O3  1  0.00000000  0.00000000  0.50000000  1
  O  O4  1  0.50000000  0.00000000  0.50000000  1
  O  O5  1  0.00000000  0.50000000  0.50000000  1
loop_
_geom_bond_atom_site_label_1
_geom_bond_atom_site_label_2
_geom_bond_distance
_geom_bond_site_symmetry_2
Dy0 O4 1.947483 1_555
Dy0 O3 1.947483 1_655
Dy0 O1 1.947483 1_655
Dy0 O5 1.947483 1_655
Dy0 O0 1.947483 1_555
Dy0 O2 1.947483 1_555
Dy1 O3 1.947483 1_565
Dy1 O1 1.947483 1_555
Dy1 O0 1.947483 1_565
Dy1 O5 1.947483 1_555
Dy1 O4 1.947483 1_565
Dy1 O2 1.947483 1_555
Dy2 O3 1.947483 1_665
Dy2 O0 1.947483 1_566
Dy2 O2 1.947483 1_556
Dy2 O5 1.947483 1_655
Dy2 O1 1.947483 1_656
Dy2 O4 1.947483 1_565
Dy3 O4 1.947483 1_555
Dy3 O1 1.947483 1_556
Dy3 O5 1.947483 1_555
Dy3 O2 1.947483 1_556
Dy3 O0 1.947483 1_556
Dy3 O3 1.947483 1_555
