# generated using pymatgen
data_Li4CO4
_symmetry_space_group_name_H-M   'P 1'
_cell_length_a   5.77284000
_cell_length_b   4.65350200
_cell_length_c   7.27210844
_cell_angle_alpha   52.24013897
_cell_angle_beta   90.00000000
_cell_angle_gamma   90.00000000
_symmetry_Int_Tables_number   1
_chemical_formula_structural   Li4CO4
_chemical_formula_sum   'Li8 C2 O8'
_cell_volume   154.44643925
_cell_formula_units_Z   2
loop_
 _symmetry_equiv_pos_site_id
 _symmetry_equiv_pos_as_xyz
  1  'x, y, z'
loop_
 _atom_site_type_symbol
 _atom_site_label
 _atom_site_symmetry_multiplicity
 _atom_site_fract_x
 _atom_site_fract_y
 _atom_site_fract_z
 _atom_site_occupancy
  Li  Li0  1  0.69448000  0.34203400  0.05410900  1
  Li  Li1  1  0.92709700  0.55585600  0.37503200  1
  Li  Li2  1  0.51195500  0.74179800  0.68715200  1
  Li  Li3  1  0.30552000  0.34203400  0.55410900  1
  Li  Li4  1  0.10324700  0.94393300  0.01660200  1
  Li  Li5  1  0.48804500  0.74179800  0.18715200  1
  Li  Li6  1  0.07290300  0.55585600  0.87503200  1
  Li  Li7  1  0.89675300  0.94393300  0.51660200  1
  C  C0  1  0.78501100  0.14711900  0.75428300  1
  C  C1  1  0.21498900  0.14711900  0.25428300  1
  O  O0  1  0.78913600  0.45460600  0.74917100  1
  O  O1  1  0.64954900  0.22236200  0.56321400  1
  O  O2  1  0.70848300  0.83644300  0.96699400  1
  O  O3  1  0.35045100  0.22236200  0.06321400  1
  O  O4  1  0.29151700  0.83644300  0.46699400  1
  O  O5  1  0.01942200  0.08012000  0.71475200  1
  O  O6  1  0.21086400  0.45460600  0.24917100  1
  O  O7  1  0.98057800  0.08012000  0.21475200  1
loop_
_geom_bond_atom_site_label_1
_geom_bond_atom_site_label_2
_geom_bond_distance
_geom_bond_site_symmetry_2
Li0 O7 1.958119 1_555
Li0 O2 1.978936 1_554
Li0 O0 2.016880 1_554
Li0 O3 2.052717 1_555
Li1 O7 1.980721 1_565
Li1 O1 2.060913 1_555
Li1 O6 2.066733 1_655
Li1 O5 2.142475 1_655
Li2 O4 1.874308 1_555
Li2 O0 1.952358 1_555
Li2 O1 1.993951 1_565
Li2 O3 2.468835 1_556
Li3 O5 1.958119 1_555
Li3 O4 1.978936 1_555
Li3 O6 2.016880 1_555
Li3 O1 2.052717 1_555
Li4 O6 1.927412 1_555
Li4 O5 1.936616 1_564
Li4 O7 2.024330 1_465
Li4 O3 2.089992 1_565
Li4 O2 2.407234 1_454
Li5 O2 1.874308 1_554
Li5 O6 1.952358 1_555
Li5 O3 1.993951 1_565
Li5 O1 2.468835 1_555
Li6 O5 1.980721 1_565
Li6 O3 2.060913 1_556
Li6 O0 2.066733 1_455
Li6 O7 2.142475 1_456
Li7 O0 1.927412 1_555
Li7 O7 1.936616 1_565
Li7 O5 2.024330 1_665
Li7 O1 2.089992 1_565
Li7 O4 2.407234 1_655
C0 O2 1.392559 1_545
C0 O0 1.408635 1_555
C0 O1 1.438376 1_555
C0 O5 1.456301 1_655
C1 O4 1.392559 1_545
C1 O6 1.408635 1_555
C1 O3 1.438376 1_555
C1 O7 1.456301 1_455
