# generated using pymatgen
data_Cu29Se19
_symmetry_space_group_name_H-M   'P 1'
_cell_length_a   4.03782508
_cell_length_b   4.03782514
_cell_length_c   76.70165803
_cell_angle_alpha   60.00478037
_cell_angle_beta   60.00477987
_cell_angle_gamma   59.97669355
_symmetry_Int_Tables_number   1
_chemical_formula_structural   Cu29Se19
_chemical_formula_sum   'Cu29 Se19'
_cell_volume   884.17772888
_cell_formula_units_Z   1
loop_
 _symmetry_equiv_pos_site_id
 _symmetry_equiv_pos_as_xyz
  1  'x, y, z'
loop_
 _atom_site_type_symbol
 _atom_site_label
 _atom_site_symmetry_multiplicity
 _atom_site_fract_x
 _atom_site_fract_y
 _atom_site_fract_z
 _atom_site_occupancy
  Cu  Cu0  1  0.24356900  0.24356900  0.06681100  1
  Cu  Cu1  1  0.75706900  0.75706900  0.03835800  1
  Cu  Cu2  1  0.74187100  0.74187100  0.09338500  1
  Cu  Cu3  1  0.73920200  0.73920200  0.14644100  1
  Cu  Cu4  1  0.74981700  0.74981700  0.19741200  1
  Cu  Cu5  1  0.74936800  0.74936800  0.25010100  1
  Cu  Cu6  1  0.74947600  0.74947600  0.30270500  1
  Cu  Cu7  1  0.74943900  0.74943900  0.35535500  1
  Cu  Cu8  1  0.74943200  0.74943200  0.40799000  1
  Cu  Cu9  1  0.24415400  0.24415400  0.48776700  1
  Cu  Cu10  1  0.76738700  0.76738700  0.45777300  1
  Cu  Cu11  1  0.25612300  0.25612300  0.59113400  1
  Cu  Cu12  1  0.74076700  0.74076700  0.51462700  1
  Cu  Cu13  1  0.25340100  0.25340100  0.64417900  1
  Cu  Cu14  1  0.75618700  0.75618700  0.56481700  1
  Cu  Cu15  1  0.25214100  0.25214100  0.69701900  1
  Cu  Cu16  1  0.76096500  0.76096500  0.61668700  1
  Cu  Cu17  1  0.25162700  0.25162700  0.74974700  1
  Cu  Cu18  1  0.75001100  0.75001100  0.67105400  1
  Cu  Cu19  1  0.74938100  0.74938100  0.72379400  1
  Cu  Cu20  1  0.25127000  0.25127000  0.80241500  1
  Cu  Cu21  1  0.74892300  0.74892300  0.77647500  1
  Cu  Cu22  1  0.25065500  0.25065500  0.85515200  1
  Cu  Cu23  1  0.74857400  0.74857400  0.82918100  1
  Cu  Cu24  1  0.24847100  0.24847100  0.90814900  1
  Cu  Cu25  1  0.74800900  0.74800900  0.88190200  1
  Cu  Cu26  1  0.24135000  0.24135000  0.96188900  1
  Cu  Cu27  1  0.74709800  0.74709800  0.93465600  1
  Cu  Cu28  1  0.72868000  0.72868000  0.99021100  1
  Se  Se0  1  0.99866300  0.99866300  0.00021900  1
  Se  Se1  1  0.00916300  0.00916300  0.05123000  1
  Se  Se2  1  0.99356400  0.99356400  0.10624200  1
  Se  Se3  1  0.99999000  0.99999000  0.15788900  1
  Se  Se4  1  0.99938400  0.99938400  0.21066300  1
  Se  Se5  1  0.00035400  0.00035400  0.26307900  1
  Se  Se6  1  0.00093600  0.00093600  0.31562200  1
  Se  Se7  1  0.00548700  0.00548700  0.42018200  1
  Se  Se8  1  0.00139000  0.00139000  0.36822900  1
  Se  Se9  1  0.99758400  0.99758400  0.52671500  1
  Se  Se10  1  0.00941800  0.00941800  0.47218100  1
  Se  Se11  1  0.01066900  0.01066900  0.57727300  1
  Se  Se12  1  0.99706200  0.99706200  0.63199900  1
  Se  Se13  1  0.99781000  0.99781000  0.68456300  1
  Se  Se14  1  0.99970200  0.99970200  0.78948400  1
  Se  Se15  1  0.99891900  0.99891900  0.73703700  1
  Se  Se16  1  0.00142500  0.00142500  0.84190100  1
  Se  Se17  1  0.00288600  0.00288600  0.89432000  1
  Se  Se18  1  0.00117800  0.00117800  0.94714500  1
loop_
_geom_bond_atom_site_label_1
_geom_bond_atom_site_label_2
_geom_bond_distance
_geom_bond_site_symmetry_2
Cu0 Se2 2.469756 1_445
Cu0 Se1 2.525540 1_555
Cu0 Se1 2.527754 1_655
Cu0 Se1 2.527754 1_565
Cu1 Se0 2.388831 1_555
Cu1 Se1 2.465425 1_565
Cu1 Se1 2.465425 1_655
Cu1 Se1 2.468525 1_665
Cu2 Se2 2.464939 1_555
Cu2 Se2 2.466758 1_455
Cu2 Se2 2.466758 1_545
Cu2 Se1 2.640374 1_665
Cu3 Se3 2.438716 1_555
Cu3 Se3 2.438783 1_455
Cu3 Se3 2.438783 1_545
Cu3 Se2 2.517858 1_555
Cu4 Se4 2.473712 1_455
Cu4 Se4 2.473712 1_545
Cu4 Se3 2.475517 1_555
Cu4 Se4 2.475535 1_555
Cu5 Se5 2.467815 1_665
Cu5 Se5 2.469048 1_565
Cu5 Se5 2.469048 1_655
Cu5 Se4 2.470194 1_555
Cu6 Se6 2.467140 1_665
Cu6 Se6 2.467502 1_565
Cu6 Se6 2.467502 1_655
Cu6 Se5 2.481968 1_665
Cu7 Se8 2.465897 1_565
Cu7 Se8 2.465897 1_655
Cu7 Se8 2.467704 1_665
Cu7 Se6 2.488670 1_665
Cu8 Se7 2.452664 1_665
Cu8 Se7 2.452968 1_565
Cu8 Se7 2.452968 1_655
Cu8 Se8 2.490425 1_665
Cu9 Se9 2.439502 1_445
Cu9 Se10 2.526708 1_655
Cu9 Se10 2.526708 1_565
Cu9 Se10 2.527994 1_555
Cu10 Se7 2.354507 1_665
Cu10 Se10 2.499377 1_665
Cu10 Se10 2.499653 1_565
Cu10 Se10 2.499653 1_655
Cu11 Se11 2.486954 1_555
Cu11 Se11 2.487618 1_655
Cu11 Se11 2.487618 1_565
Cu11 Se12 2.559574 1_445
Cu12 Se9 2.450602 1_455
Cu12 Se9 2.450602 1_545
Cu12 Se9 2.451333 1_555
Cu12 Se10 2.658598 1_665
Cu13 Se12 2.452042 1_545
Cu13 Se12 2.452042 1_455
Cu13 Se12 2.453813 1_445
Cu13 Se13 2.529445 1_445
Cu14 Se9 2.386513 1_555
Cu14 Se11 2.457841 1_565
Cu14 Se11 2.457841 1_655
Cu14 Se11 2.458512 1_665
Cu15 Se13 2.457511 1_445
Cu15 Se13 2.458342 1_545
Cu15 Se13 2.458342 1_455
Cu15 Se15 2.506521 1_445
Cu16 Se11 2.468690 1_665
Cu16 Se12 2.519002 1_555
Cu16 Se12 2.521335 1_455
Cu16 Se12 2.521335 1_545
Cu17 Se15 2.462506 1_445
Cu17 Se15 2.463488 1_545
Cu17 Se15 2.463488 1_455
Cu17 Se14 2.488922 1_445
Cu18 Se12 2.446204 1_555
Cu18 Se13 2.479624 1_455
Cu18 Se13 2.479624 1_545
Cu18 Se13 2.480113 1_555
Cu19 Se13 2.457228 1_555
Cu19 Se15 2.473806 1_455
Cu19 Se15 2.473806 1_545
Cu19 Se15 2.474843 1_555
Cu20 Se14 2.467140 1_545
Cu20 Se14 2.467140 1_455
Cu20 Se14 2.468726 1_445
Cu20 Se16 2.473199 1_555
Cu21 Se14 2.468384 1_555
Cu21 Se14 2.469724 1_455
Cu21 Se14 2.469724 1_545
Cu21 Se15 2.470194 1_555
Cu22 Se17 2.453282 1_555
Cu22 Se16 2.473315 1_555
Cu22 Se16 2.474823 1_655
Cu22 Se16 2.474823 1_565
Cu23 Se16 2.463007 1_565
Cu23 Se16 2.463007 1_655
Cu23 Se16 2.464074 1_665
Cu23 Se14 2.486415 1_555
Cu24 Se18 2.442510 1_555
Cu24 Se17 2.485786 1_555
Cu24 Se17 2.487154 1_655
Cu24 Se17 2.487154 1_565
Cu25 Se17 2.456574 1_565
Cu25 Se17 2.456574 1_655
Cu25 Se17 2.458783 1_665
Cu25 Se16 2.505457 1_665
Cu26 Se0 2.400793 1_446
Cu26 Se18 2.506457 1_655
Cu26 Se18 2.506457 1_565
Cu26 Se18 2.508793 1_555
Cu27 Se18 2.457888 1_665
Cu27 Se18 2.459138 1_565
Cu27 Se18 2.459138 1_655
Cu27 Se17 2.526441 1_665
Cu28 Se0 2.413532 1_456
Cu28 Se0 2.413532 1_546
Cu28 Se0 2.414280 1_556
Cu28 Se18 2.697432 1_665
