# generated using pymatgen
data_H4N2O3
_symmetry_space_group_name_H-M   'P 1'
_cell_length_a   4.96836000
_cell_length_b   5.36556100
_cell_length_c   5.93590300
_cell_angle_alpha   90.00000000
_cell_angle_beta   90.00000000
_cell_angle_gamma   90.00000000
_symmetry_Int_Tables_number   1
_chemical_formula_structural   H4N2O3
_chemical_formula_sum   'H8 N4 O6'
_cell_volume   158.23953160
_cell_formula_units_Z   2
loop_
 _symmetry_equiv_pos_site_id
 _symmetry_equiv_pos_as_xyz
  1  'x, y, z'
loop_
 _atom_site_type_symbol
 _atom_site_label
 _atom_site_symmetry_multiplicity
 _atom_site_fract_x
 _atom_site_fract_y
 _atom_site_fract_z
 _atom_site_occupancy
  H  H0  1  0.16813500  0.14895100  0.50000000  1
  H  H1  1  0.83186500  0.14895100  0.50000000  1
  H  H2  1  0.66813500  0.85104900  0.00000000  1
  H  H3  1  0.33186500  0.85104900  0.00000000  1
  H  H4  1  0.86029600  0.86805000  0.50000000  1
  H  H5  1  0.13970400  0.86805000  0.50000000  1
  H  H6  1  0.63970400  0.13195000  0.00000000  1
  H  H7  1  0.36029600  0.13195000  0.00000000  1
  N  N0  1  0.00000000  0.03016500  0.50000000  1
  N  N1  1  0.50000000  0.96983500  0.00000000  1
  N  N2  1  0.50000000  0.50744500  0.50000000  1
  N  N3  1  0.00000000  0.49255500  0.00000000  1
  O  O0  1  0.50000000  0.26973600  0.50000000  1
  O  O1  1  0.00000000  0.73026400  0.00000000  1
  O  O2  1  0.72438300  0.61666600  0.50000000  1
  O  O3  1  0.27561700  0.61666600  0.50000000  1
  O  O4  1  0.77561700  0.38333400  0.00000000  1
  O  O5  1  0.22438300  0.38333400  0.00000000  1
loop_
_geom_bond_atom_site_label_1
_geom_bond_atom_site_label_2
_geom_bond_distance
_geom_bond_site_symmetry_2
H0 N0 1.050732 1_555
H1 N0 1.050732 1_655
H2 N1 1.050732 1_555
H3 N1 1.050732 1_555
H4 N0 1.112831 1_665
H4 O2 1.508406 1_555
H5 N0 1.112831 1_565
H5 O3 1.508406 1_555
H6 N1 1.112831 1_545
H6 O4 1.508406 1_555
H7 N1 1.112831 1_545
H7 O5 1.508406 1_555
N2 O2 1.259463 1_555
N2 O3 1.259463 1_555
N2 O0 1.275442 1_555
N3 O4 1.259463 1_455
N3 O5 1.259463 1_555
N3 O1 1.275442 1_555
