# generated using pymatgen
data_Yb11(Ce2Se11)2
_symmetry_space_group_name_H-M   'P 1'
_cell_length_a   20.87865376
_cell_length_b   20.87865376
_cell_length_c   11.88875123
_cell_angle_alpha   85.90797491
_cell_angle_beta   85.90797491
_cell_angle_gamma   11.40363119
_symmetry_Int_Tables_number   1
_chemical_formula_structural   Yb11(Ce2Se11)2
_chemical_formula_sum   'Yb11 Ce4 Se22'
_cell_volume   1022.04736607
_cell_formula_units_Z   1
loop_
 _symmetry_equiv_pos_site_id
 _symmetry_equiv_pos_as_xyz
  1  'x, y, z'
loop_
 _atom_site_type_symbol
 _atom_site_label
 _atom_site_symmetry_multiplicity
 _atom_site_fract_x
 _atom_site_fract_y
 _atom_site_fract_z
 _atom_site_occupancy
  Yb  Yb0  1  0.34208700  0.34208700  0.80827600  1
  Yb  Yb1  1  0.65791300  0.65791300  0.19172400  1
  Yb  Yb2  1  0.26509100  0.26509100  0.14555500  1
  Yb  Yb3  1  0.53759300  0.53759300  0.77082600  1
  Yb  Yb4  1  0.93204800  0.93204800  0.85486200  1
  Yb  Yb5  1  0.06795200  0.06795200  0.14513800  1
  Yb  Yb6  1  0.80162400  0.80162400  0.43814900  1
  Yb  Yb7  1  0.73490900  0.73490900  0.85444500  1
  Yb  Yb8  1  0.00000000  0.00000000  0.50000000  1
  Yb  Yb9  1  0.46240700  0.46240700  0.22917400  1
  Yb  Yb10  1  0.19837600  0.19837600  0.56185100  1
  Ce  Ce0  1  0.62985600  0.62985600  0.85552200  1
  Ce  Ce1  1  0.89420700  0.89420700  0.51137100  1
  Ce  Ce2  1  0.10579300  0.10579300  0.48862900  1
  Ce  Ce3  1  0.37014400  0.37014400  0.14447800  1
  Se  Se0  1  0.44838800  0.44838800  0.47834400  1
  Se  Se1  1  0.35557500  0.35557500  0.40686800  1
  Se  Se2  1  0.86547900  0.86547900  0.96360800  1
  Se  Se3  1  0.55161200  0.55161200  0.52165600  1
  Se  Se4  1  0.40730300  0.40730300  0.68840100  1
  Se  Se5  1  0.83457000  0.83457000  0.64621800  1
  Se  Se6  1  0.59269700  0.59269700  0.31159900  1
  Se  Se7  1  0.43512400  0.43512400  0.01831000  1
  Se  Se8  1  0.64442500  0.64442500  0.59313200  1
  Se  Se9  1  0.99339700  0.99339700  0.73752300  1
  Se  Se10  1  0.56487600  0.56487600  0.98169000  1
  Se  Se11  1  0.72058600  0.72058600  0.09208200  1
  Se  Se12  1  0.00660300  0.00660300  0.26247700  1
  Se  Se13  1  0.27941400  0.27941400  0.90791800  1
  Se  Se14  1  0.81690600  0.81690600  0.18868900  1
  Se  Se15  1  0.16543000  0.16543000  0.35378200  1
  Se  Se16  1  0.74560200  0.74560200  0.60729200  1
  Se  Se17  1  0.90870100  0.90870100  0.25421000  1
  Se  Se18  1  0.13452100  0.13452100  0.03639200  1
  Se  Se19  1  0.25439800  0.25439800  0.39270800  1
  Se  Se20  1  0.18309400  0.18309400  0.81131100  1
  Se  Se21  1  0.09129900  0.09129900  0.74579000  1
loop_
_geom_bond_atom_site_label_1
_geom_bond_atom_site_label_2
_geom_bond_distance
_geom_bond_site_symmetry_2
Ce0 Se21 2.978443 1_655
Ce0 Se21 2.978443 1_565
Ce0 Se10 2.993140 1_555
Ce0 Se18 3.004002 1_566
Ce0 Se18 3.004002 1_656
Ce0 Se20 3.050508 1_565
Ce0 Se20 3.050508 1_655
Ce0 Se8 3.134776 1_555
Ce1 Se5 2.853181 1_555
Ce1 Se1 2.951110 1_655
Ce1 Se1 2.951110 1_565
Ce1 Se4 3.031960 1_565
Ce1 Se4 3.031960 1_655
Ce1 Se0 3.065675 1_655
Ce1 Se0 3.065675 1_565
Ce1 Se17 3.073407 1_555
Ce2 Se15 2.853181 1_555
Ce2 Se8 2.951110 1_545
Ce2 Se8 2.951110 1_455
Ce2 Se6 3.031960 1_455
Ce2 Se6 3.031960 1_545
Ce2 Se3 3.065675 1_545
Ce2 Se3 3.065675 1_455
Ce2 Se21 3.073407 1_555
Ce3 Se17 2.978443 1_545
Ce3 Se17 2.978443 1_455
Ce3 Se7 2.993140 1_555
Ce3 Se2 3.004002 1_454
Ce3 Se2 3.004002 1_544
Ce3 Se14 3.050508 1_455
Ce3 Se14 3.050508 1_545
Ce3 Se1 3.134776 1_555
Se0 Yb9 2.977777 1_555
Se0 Yb8 3.007862 1_565
Se0 Yb8 3.007862 1_655
Se1 Yb6 3.057249 1_455
Se1 Yb6 3.057249 1_545
Se2 Yb4 2.968042 1_555
Se2 Yb0 2.985842 1_565
Se2 Yb0 2.985842 1_655
Se3 Yb3 2.977777 1_555
Se3 Yb8 3.007862 1_565
Se3 Yb8 3.007862 1_655
Se4 Yb0 2.969858 1_555
Se4 Yb4 3.093264 1_455
Se4 Yb4 3.093264 1_545
Se5 Yb0 2.863340 1_565
Se5 Yb0 2.863340 1_655
Se5 Yb6 2.911829 1_555
Se6 Yb1 2.969858 1_555
Se6 Yb5 3.093264 1_565
Se6 Yb5 3.093264 1_655
Se7 Yb9 2.824414 1_555
Se7 Yb4 2.851449 1_454
Se7 Yb4 2.851449 1_544
Se8 Yb10 3.057249 1_565
Se8 Yb10 3.057249 1_655
Se9 Yb4 2.816721 1_555
Se9 Yb3 2.817113 1_655
Se9 Yb3 2.817113 1_565
Se9 Yb8 2.817498 1_665
Se10 Yb3 2.824414 1_555
Se10 Yb5 2.851449 1_566
Se10 Yb5 2.851449 1_656
Se11 Yb1 2.782489 1_555
Se11 Yb7 2.845140 1_554
Se11 Yb2 2.880132 1_655
Se11 Yb2 2.880132 1_565
Se12 Yb5 2.816721 1_555
Se12 Yb9 2.817113 1_455
Se12 Yb9 2.817113 1_545
Se12 Yb8 2.817498 1_555
Se13 Yb0 2.782489 1_555
Se13 Yb2 2.845140 1_556
Se13 Yb7 2.880132 1_455
Se13 Yb7 2.880132 1_545
Se14 Yb6 2.988122 1_555
Se14 Yb2 3.059302 1_565
Se14 Yb2 3.059302 1_655
Se15 Yb1 2.863340 1_455
Se15 Yb1 2.863340 1_545
Se15 Yb10 2.911829 1_555
Se16 Yb10 2.932103 1_565
Se16 Yb10 2.932103 1_655
Se16 Yb7 2.940069 1_555
Se16 Yb6 2.964927 1_555
Se17 Yb9 3.045625 1_565
Se17 Yb9 3.045625 1_655
Se18 Yb5 2.968042 1_555
Se18 Yb1 2.985842 1_545
Se18 Yb1 2.985842 1_455
Se19 Yb6 2.932103 1_455
Se19 Yb6 2.932103 1_545
Se19 Yb2 2.940069 1_555
Se19 Yb10 2.964927 1_555
Se20 Yb10 2.988122 1_555
Se20 Yb7 3.059302 1_455
Se20 Yb7 3.059302 1_545
Se21 Yb3 3.045625 1_455
Se21 Yb3 3.045625 1_545
