# generated using pymatgen
data_CsTaCo(OF2)2
_symmetry_space_group_name_H-M   'P 1'
_cell_length_a   7.52160339
_cell_length_b   7.51971067
_cell_length_c   7.55343314
_cell_angle_alpha   61.06729881
_cell_angle_beta   118.93900978
_cell_angle_gamma   88.38146121
_symmetry_Int_Tables_number   1
_chemical_formula_structural   CsTaCo(OF2)2
_chemical_formula_sum   'Cs2 Ta2 Co2 O4 F8'
_cell_volume   307.42198533
_cell_formula_units_Z   2
loop_
 _symmetry_equiv_pos_site_id
 _symmetry_equiv_pos_as_xyz
  1  'x, y, z'
loop_
 _atom_site_type_symbol
 _atom_site_label
 _atom_site_symmetry_multiplicity
 _atom_site_fract_x
 _atom_site_fract_y
 _atom_site_fract_z
 _atom_site_occupancy
  Cs  Cs0  1  0.12713200  0.62255300  0.75442500  1
  Cs  Cs1  1  0.88016100  0.37013700  0.26001000  1
  Ta  Ta0  1  0.52556100  0.48468800  0.51778300  1
  Ta  Ta1  1  0.49220600  0.99765000  0.51776400  1
  Co  Co0  1  0.50058300  0.99760200  0.99877800  1
  Co  Co1  1  0.99821100  0.00341200  0.99888200  1
  O  O0  1  0.53711100  0.71281700  0.57441300  1
  O  O1  1  0.44514300  0.30504700  0.39002800  1
  O  O2  1  0.80727100  0.31242200  0.75931700  1
  O  O3  1  0.45110000  0.92878600  0.75853200  1
  F  F0  1  0.82137000  0.92750100  0.14265000  1
  F  F1  1  0.18563900  0.06558800  0.87141700  1
  F  F2  1  0.81300800  0.92277900  0.73125800  1
  F  F3  1  0.41812300  0.34594200  0.73109200  1
  F  F4  1  0.57643200  0.65763500  0.25694600  1
  F  F5  1  0.18067100  0.08568300  0.25670400  1
  F  F6  1  0.55269300  0.07934400  0.24028200  1
  F  F7  1  0.18758800  0.68041400  0.23971900  1
loop_
_geom_bond_atom_site_label_1
_geom_bond_atom_site_label_2
_geom_bond_distance
_geom_bond_site_symmetry_2
Cs0 F3 3.101441 1_555
Cs0 F2 3.102607 1_455
Cs0 F0 3.326515 1_455
Cs0 O2 3.398211 1_455
Cs0 O3 3.399194 1_555
Cs0 O1 3.456072 1_556
Cs1 F4 3.084615 1_555
Cs1 F5 3.085160 1_655
Cs1 F1 3.324518 1_655
Cs1 F7 3.334061 1_655
Cs1 F6 3.336898 1_555
Co0 O3 1.991287 1_555
Co0 F1 2.012150 1_565
Co0 F0 2.029025 1_556
Co0 F6 2.065354 1_566
Co0 F4 2.163582 1_556
Co0 F3 2.214578 1_565
Co1 O2 1.991114 1_555
Co1 F1 2.012022 1_655
Co1 F0 2.028629 1_546
Co1 F7 2.063818 1_646
Co1 F5 2.164698 1_656
Co1 F2 2.214277 1_545
O0 Ta0 1.953402 1_555
O0 Ta1 1.953779 1_555
O1 Ta0 1.965813 1_555
O1 Ta1 1.965896 1_545
O2 Ta0 1.820289 1_555
O3 Ta1 1.820204 1_555
F2 Ta1 2.004723 1_555
F3 Ta0 2.004685 1_555
F4 Ta0 1.999494 1_555
F5 Ta1 1.998772 1_545
F6 Ta1 2.161052 1_545
F7 Ta0 2.161113 1_555
