# generated using pymatgen
data_Fe6Sn2(CO)23
_symmetry_space_group_name_H-M   'P 1'
_cell_length_a   8.97468000
_cell_length_b   12.67073573
_cell_length_c   16.63837170
_cell_angle_alpha   95.52997658
_cell_angle_beta   104.39067546
_cell_angle_gamma   100.60199221
_symmetry_Int_Tables_number   1
_chemical_formula_structural   Fe6Sn2(CO)23
_chemical_formula_sum   'Fe12 Sn4 C46 O46'
_cell_volume   1781.21968031
_cell_formula_units_Z   2
loop_
 _symmetry_equiv_pos_site_id
 _symmetry_equiv_pos_as_xyz
  1  'x, y, z'
loop_
 _atom_site_type_symbol
 _atom_site_label
 _atom_site_symmetry_multiplicity
 _atom_site_fract_x
 _atom_site_fract_y
 _atom_site_fract_z
 _atom_site_occupancy
  Fe  Fe0  1  0.64474200  0.77061000  0.73500100  1
  Fe  Fe1  1  0.17435700  0.86459000  0.14336700  1
  Fe  Fe2  1  0.72647700  0.87746300  0.59912800  1
  Fe  Fe3  1  0.27352300  0.12253700  0.40087200  1
  Fe  Fe4  1  0.10305700  0.08144100  0.83844900  1
  Fe  Fe5  1  0.35525800  0.22939000  0.26499900  1
  Fe  Fe6  1  0.82564300  0.13541000  0.85663300  1
  Fe  Fe7  1  0.17154900  0.45792100  0.83477300  1
  Fe  Fe8  1  0.02383600  0.63357600  0.33418900  1
  Fe  Fe9  1  0.82845100  0.54207900  0.16522700  1
  Fe  Fe10  1  0.89694300  0.91855900  0.16155100  1
  Fe  Fe11  1  0.97616400  0.36642400  0.66581100  1
  Sn  Sn0  1  0.17674000  0.03695700  0.24395400  1
  Sn  Sn1  1  0.98758000  0.74034100  0.20742300  1
  Sn  Sn2  1  0.82326000  0.96304300  0.75604600  1
  Sn  Sn3  1  0.01242000  0.25965900  0.79257700  1
  C  C0  1  0.18581100  0.02061600  0.45090600  1
  C  C1  1  0.86920600  0.69294300  0.35783000  1
  C  C2  1  0.81418900  0.97938400  0.54909400  1
  C  C3  1  0.70646700  0.04129600  0.90054500  1
  C  C4  1  0.16004500  0.71390500  0.42480700  1
  C  C5  1  0.50702600  0.15298600  0.26558300  1
  C  C6  1  0.14312300  0.06600600  0.73759400  1
  C  C7  1  0.66831700  0.59177100  0.19239300  1
  C  C8  1  0.00046000  0.48762300  0.86280100  1
  C  C9  1  0.29353300  0.95870400  0.09945500  1
  C  C10  1  0.43588700  0.05673700  0.40386800  1
  C  C11  1  0.38736200  0.23728500  0.47877600  1
  C  C12  1  0.81249100  0.40596700  0.69636000  1
  C  C13  1  0.09303200  0.17091800  0.38390600  1
  C  C14  1  0.52093700  0.65322700  0.66368700  1
  C  C15  1  0.49297400  0.84701400  0.73441700  1
  C  C16  1  0.29222200  0.16458400  0.89241100  1
  C  C17  1  0.23156500  0.59092300  0.80973000  1
  C  C18  1  0.33168300  0.40822900  0.80760700  1
  C  C19  1  0.76843500  0.40907700  0.19027000  1
  C  C20  1  0.85549700  0.04393800  0.13168600  1
  C  C21  1  0.96460900  0.50880600  0.37156000  1
  C  C22  1  0.83866300  0.24894900  0.93188800  1
  C  C23  1  0.56411300  0.94326300  0.59613200  1
  C  C24  1  0.83995500  0.28609500  0.57519300  1
  C  C25  1  0.61263800  0.76271500  0.52122400  1
  C  C26  1  0.32848900  0.83953500  0.22638500  1
  C  C27  1  0.13079400  0.30705700  0.64217000  1
  C  C28  1  0.90696800  0.82908200  0.61609400  1
  C  C29  1  0.63939500  0.74063300  0.83626100  1
  C  C30  1  0.26820600  0.46640700  0.94268000  1
  C  C31  1  0.70777800  0.83541700  0.10758900  1
  C  C32  1  0.97167000  0.88821100  0.06207900  1
  C  C33  1  0.03539100  0.49119400  0.62844000  1
  C  C34  1  0.85687700  0.93399400  0.26240600  1
  C  C35  1  0.82127200  0.71993600  0.74620100  1
  C  C36  1  0.02833000  0.11178900  0.93792100  1
  C  C37  1  0.99954000  0.51237700  0.13719900  1
  C  C38  1  0.36060500  0.25936700  0.16373900  1
  C  C39  1  0.47906300  0.34677300  0.33631300  1
  C  C40  1  0.18750900  0.59403300  0.30364000  1
  C  C41  1  0.16133700  0.75105100  0.06811200  1
  C  C42  1  0.67151100  0.16046500  0.77361500  1
  C  C43  1  0.73179400  0.53359300  0.05732000  1
  C  C44  1  0.14450300  0.95606200  0.86831400  1
  C  C45  1  0.17872800  0.28006400  0.25379900  1
  O  O0  1  0.75094400  0.24052600  0.51296900  1
  O  O1  1  0.55716700  0.61898700  0.20287800  1
  O  O2  1  0.10168500  0.48791600  0.11381000  1
  O  O3  1  0.44283300  0.38101300  0.79712200  1
  O  O4  1  0.22338600  0.26809000  0.61951500  1
  O  O5  1  0.55652100  0.42476800  0.38013000  1
  O  O6  1  0.43489800  0.81984300  0.27456700  1
  O  O7  1  0.41980600  0.21292000  0.92550900  1
  O  O8  1  0.72486200  0.32196500  0.20308400  1
  O  O9  1  0.12493000  0.95402100  0.48252800  1
  O  O10  1  0.16307700  0.68281500  0.01645800  1
  O  O11  1  0.06946400  0.31931800  0.24385600  1
  O  O12  1  0.60532700  0.10577900  0.26290600  1
  O  O13  1  0.89831500  0.51208400  0.88619000  1
  O  O14  1  0.92921800  0.88116100  0.98811100  1
  O  O15  1  0.97603700  0.19998400  0.37791900  1
  O  O16  1  0.39467300  0.89422100  0.73709400  1
  O  O17  1  0.33499000  0.47684600  0.01318200  1
  O  O18  1  0.02396300  0.80001600  0.62208100  1
  O  O19  1  0.27513800  0.67803500  0.79691600  1
  O  O20  1  0.66501000  0.52315400  0.98681800  1
  O  O21  1  0.44347900  0.57523200  0.61987000  1
  O  O22  1  0.63229800  0.71630800  0.90086100  1
  O  O23  1  0.62203600  0.98751800  0.93076800  1
  O  O24  1  0.81977000  0.94656100  0.32433100  1
  O  O25  1  0.18283000  0.87734900  0.88796400  1
  O  O26  1  0.36770200  0.28369200  0.09913900  1
  O  O27  1  0.56510200  0.18015700  0.72543300  1
  O  O28  1  0.46081400  0.98802100  0.58956800  1
  O  O29  1  0.70224800  0.43266200  0.70869100  1
  O  O30  1  0.29775200  0.56733800  0.29130900  1
  O  O31  1  0.54068000  0.68887100  0.47126500  1
  O  O32  1  0.92982700  0.43085100  0.40005400  1
  O  O33  1  0.37796400  0.01248200  0.06923200  1
  O  O34  1  0.87507000  0.04597900  0.51747200  1
  O  O35  1  0.77661400  0.73191000  0.38048500  1
  O  O36  1  0.18023000  0.05343900  0.67566900  1
  O  O37  1  0.83692300  0.31718500  0.98354200  1
  O  O38  1  0.45932000  0.31112900  0.52873500  1
  O  O39  1  0.53918600  0.01197900  0.41043200  1
  O  O40  1  0.93053600  0.68068200  0.75614400  1
  O  O41  1  0.07017300  0.56914900  0.59994600  1
  O  O42  1  0.81717000  0.12265100  0.11203600  1
  O  O43  1  0.24905600  0.75947400  0.48703100  1
  O  O44  1  0.07078200  0.11883900  0.01188900  1
  O  O45  1  0.58019400  0.78708000  0.07449100  1
loop_
_geom_bond_atom_site_label_1
_geom_bond_atom_site_label_2
_geom_bond_distance
_geom_bond_site_symmetry_2
Fe0 Sn2 2.598799 1_555
Fe1 Sn1 2.581590 1_455
Fe1 Sn0 2.613787 1_565
Fe2 Sn2 2.593728 1_555
Fe3 Sn0 2.593728 1_555
Fe4 Sn2 2.634768 1_445
Fe4 Sn3 2.653857 1_555
Fe5 Sn0 2.598799 1_555
Fe6 Sn3 2.581590 1_655
Fe6 Sn2 2.613787 1_545
Fe7 Sn3 2.585495 1_555
Fe8 Sn1 2.599100 1_455
Fe9 Sn1 2.585495 1_555
Fe10 Sn0 2.634768 1_665
Fe10 Sn1 2.653857 1_555
Fe11 Sn3 2.599100 1_655
C0 O9 1.160250 1_545
C0 Fe3 1.771810 1_555
C1 O35 1.160690 1_555
C1 Fe8 1.801349 1_655
C2 O34 1.160250 1_565
C2 Fe2 1.771810 1_555
C3 O23 1.164819 1_545
C3 Fe6 1.785175 1_555
C4 O43 1.160759 1_555
C4 Fe8 1.770262 1_555
C5 O12 1.160453 1_555
C5 Fe5 1.809138 1_555
C6 O36 1.164599 1_555
C6 Fe4 1.801664 1_555
C7 O1 1.160137 1_555
C7 Fe9 1.807527 1_555
C8 O13 1.160391 1_455
C8 Fe7 1.803195 1_555
C9 O33 1.164819 1_565
C9 Fe1 1.785175 1_555
C10 O39 1.161074 1_555
C10 Fe3 1.799966 1_555
C11 O38 1.159479 1_555
C11 Fe3 1.808258 1_555
C12 O29 1.160206 1_555
C12 Fe11 1.805535 1_555
C13 O15 1.159922 1_455
C13 Fe3 1.803012 1_555
C14 O21 1.160961 1_555
C14 Fe0 1.803067 1_555
C15 O16 1.160453 1_555
C15 Fe0 1.809138 1_555
C16 O7 1.163171 1_555
C16 Fe4 1.788867 1_555
C17 O19 1.159596 1_555
C17 Fe7 1.793496 1_555
C18 O3 1.160137 1_555
C18 Fe7 1.807527 1_555
C19 O8 1.159596 1_555
C19 Fe9 1.793496 1_555
C20 O42 1.163229 1_555
C20 Fe10 1.785154 1_545
C21 O32 1.161124 1_555
C21 Fe8 1.792490 1_655
C22 O37 1.163975 1_555
C22 Fe6 1.780263 1_555
C23 O28 1.161074 1_555
C23 Fe2 1.799966 1_555
C24 O0 1.160759 1_555
C24 Fe11 1.770262 1_555
C25 O31 1.159479 1_555
C25 Fe2 1.808258 1_555
C26 O6 1.167312 1_555
C26 Fe1 1.794038 1_555
C27 O4 1.160690 1_555
C27 Fe11 1.801349 1_455
C28 O18 1.159922 1_655
C28 Fe2 1.803012 1_555
C29 O22 1.159736 1_555
C29 Fe0 1.772554 1_555
C30 O17 1.159397 1_556
C30 Fe7 1.772520 1_555
C31 O45 1.163175 1_555
C31 Fe10 1.788862 1_555
C32 O14 1.183636 1_554
C32 Fe10 1.964890 1_555
C32 Fe1 2.069595 1_655
C33 O41 1.161124 1_555
C33 Fe11 1.792490 1_455
C34 O24 1.164599 1_555
C34 Fe10 1.801664 1_555
C35 O40 1.162343 1_555
C35 Fe0 1.790984 1_555
C36 O44 1.183636 1_556
C36 Fe4 1.964890 1_555
C36 Fe6 2.069595 1_455
C37 O2 1.160391 1_655
C37 Fe9 1.803195 1_555
C38 O26 1.159736 1_555
C38 Fe5 1.772554 1_555
C39 O5 1.160961 1_555
C39 Fe5 1.803067 1_555
C40 O30 1.160206 1_555
C40 Fe8 1.805535 1_555
C41 O10 1.163975 1_555
C41 Fe1 1.780263 1_555
C42 O27 1.167312 1_555
C42 Fe6 1.794038 1_555
C43 O20 1.159397 1_554
C43 Fe9 1.772520 1_555
C44 O25 1.163229 1_555
C44 Fe4 1.785154 1_565
C45 O11 1.162343 1_555
C45 Fe5 1.790984 1_555
