# generated using pymatgen
data_SrEu2Fe2O7
_symmetry_space_group_name_H-M   'P 1'
_cell_length_a   5.58774500
_cell_length_b   5.58774500
_cell_length_c   20.01151700
_cell_angle_alpha   90.00000000
_cell_angle_beta   90.00000000
_cell_angle_gamma   90.00000000
_symmetry_Int_Tables_number   1
_chemical_formula_structural   SrEu2Fe2O7
_chemical_formula_sum   'Sr4 Eu8 Fe8 O28'
_cell_volume   624.81747777
_cell_formula_units_Z   4
loop_
 _symmetry_equiv_pos_site_id
 _symmetry_equiv_pos_as_xyz
  1  'x, y, z'
loop_
 _atom_site_type_symbol
 _atom_site_label
 _atom_site_symmetry_multiplicity
 _atom_site_fract_x
 _atom_site_fract_y
 _atom_site_fract_z
 _atom_site_occupancy
  Sr  Sr0  1  0.25524700  0.74475300  0.50000000  1
  Sr  Sr1  1  0.75524700  0.75524700  0.00000000  1
  Sr  Sr2  1  0.74475300  0.25524700  0.50000000  1
  Sr  Sr3  1  0.24475300  0.24475300  0.00000000  1
  Eu  Eu0  1  0.27051600  0.72948400  0.31594100  1
  Eu  Eu1  1  0.27051600  0.72948400  0.68405900  1
  Eu  Eu2  1  0.72948400  0.27051600  0.68405900  1
  Eu  Eu3  1  0.77051600  0.77051600  0.18405900  1
  Eu  Eu4  1  0.22948400  0.22948400  0.18405900  1
  Eu  Eu5  1  0.72948400  0.27051600  0.31594100  1
  Eu  Eu6  1  0.77051600  0.77051600  0.81594100  1
  Eu  Eu7  1  0.22948400  0.22948400  0.81594100  1
  Fe  Fe0  1  0.24551500  0.24551500  0.40087500  1
  Fe  Fe1  1  0.25448500  0.74551500  0.90087500  1
  Fe  Fe2  1  0.74551500  0.25448500  0.90087500  1
  Fe  Fe3  1  0.24551500  0.24551500  0.59912500  1
  Fe  Fe4  1  0.75448500  0.75448500  0.59912500  1
  Fe  Fe5  1  0.25448500  0.74551500  0.09912500  1
  Fe  Fe6  1  0.74551500  0.25448500  0.09912500  1
  Fe  Fe7  1  0.75448500  0.75448500  0.40087500  1
  O  O0  1  0.70223900  0.70223900  0.29571600  1
  O  O1  1  0.50000000  0.50000000  0.41077900  1
  O  O2  1  0.71285600  0.28714400  0.00000000  1
  O  O3  1  0.79776100  0.20223900  0.79571600  1
  O  O4  1  0.50000000  0.50000000  0.12010300  1
  O  O5  1  0.20223900  0.79776100  0.20428400  1
  O  O6  1  0.20223900  0.79776100  0.79571600  1
  O  O7  1  0.50000000  0.50000000  0.58922100  1
  O  O8  1  0.28714400  0.71285600  0.00000000  1
  O  O9  1  0.00000000  0.50000000  0.89516700  1
  O  O10  1  0.00000000  0.00000000  0.62010300  1
  O  O11  1  0.21285600  0.21285600  0.50000000  1
  O  O12  1  0.00000000  0.00000000  0.08922100  1
  O  O13  1  0.00000000  0.00000000  0.91077900  1
  O  O14  1  0.50000000  0.00000000  0.60483300  1
  O  O15  1  0.79776100  0.20223900  0.20428400  1
  O  O16  1  0.29776100  0.29776100  0.70428400  1
  O  O17  1  0.00000000  0.50000000  0.60483300  1
  O  O18  1  0.29776100  0.29776100  0.29571600  1
  O  O19  1  0.50000000  0.00000000  0.10483300  1
  O  O20  1  0.50000000  0.50000000  0.87989700  1
  O  O21  1  0.50000000  0.00000000  0.39516700  1
  O  O22  1  0.00000000  0.00000000  0.37989700  1
  O  O23  1  0.00000000  0.50000000  0.10483300  1
  O  O24  1  0.70223900  0.70223900  0.70428400  1
  O  O25  1  0.78714400  0.78714400  0.50000000  1
  O  O26  1  0.00000000  0.50000000  0.39516700  1
  O  O27  1  0.50000000  0.00000000  0.89516700  1
loop_
_geom_bond_atom_site_label_1
_geom_bond_atom_site_label_2
_geom_bond_distance
_geom_bond_site_symmetry_2
Eu0 O5 2.298644 1_555
Eu0 O0 2.450807 1_555
Eu0 O18 2.450807 1_555
Eu0 O22 2.491535 1_565
Eu0 O21 2.538256 1_565
Eu0 O26 2.538256 1_555
Eu0 O1 2.624961 1_555
Eu1 O6 2.298644 1_555
Eu1 O24 2.450807 1_555
Eu1 O16 2.450807 1_555
Eu1 O10 2.491535 1_565
Eu1 O14 2.538256 1_565
Eu1 O17 2.538256 1_555
Eu1 O7 2.624961 1_555
Eu2 O3 2.298644 1_555
Eu2 O24 2.450807 1_555
Eu2 O16 2.450807 1_555
Eu2 O10 2.491535 1_655
Eu2 O14 2.538256 1_555
Eu2 O17 2.538256 1_655
Eu2 O7 2.624961 1_555
Eu3 O0 2.298644 1_555
Eu3 O15 2.450807 1_565
Eu3 O5 2.450807 1_655
Eu3 O4 2.491535 1_555
Eu3 O19 2.538256 1_565
Eu3 O23 2.538256 1_655
Eu3 O12 2.624961 1_665
Eu4 O18 2.298644 1_555
Eu4 O15 2.450807 1_455
Eu4 O5 2.450807 1_545
Eu4 O4 2.491535 1_555
Eu4 O19 2.538256 1_555
Eu4 O23 2.538256 1_555
Eu4 O12 2.624961 1_555
Eu5 O15 2.298644 1_555
Eu5 O18 2.450807 1_555
Eu5 O0 2.450807 1_555
Eu5 O22 2.491535 1_655
Eu5 O26 2.538256 1_655
Eu5 O21 2.538256 1_555
Eu5 O1 2.624961 1_555
Eu6 O24 2.298644 1_555
Eu6 O3 2.450807 1_565
Eu6 O6 2.450807 1_655
Eu6 O20 2.491535 1_555
Eu6 O9 2.538256 1_655
Eu6 O27 2.538256 1_565
Eu6 O13 2.624961 1_665
Eu7 O16 2.298644 1_555
Eu7 O3 2.450807 1_455
Eu7 O6 2.450807 1_545
Eu7 O20 2.491535 1_555
Eu7 O9 2.538256 1_555
Eu7 O27 2.538256 1_555
Eu7 O13 2.624961 1_555
Fe0 O26 1.979183 1_555
Fe0 O21 1.979183 1_555
Fe0 O22 1.985023 1_555
Fe0 O11 2.000360 1_555
Fe0 O1 2.020751 1_555
Fe0 O18 2.144509 1_555
Fe1 O9 1.979183 1_555
Fe1 O27 1.979183 1_565
Fe1 O20 1.985023 1_555
Fe1 O8 2.000360 1_556
Fe1 O13 2.020751 1_565
Fe1 O6 2.144509 1_555
Fe2 O27 1.979183 1_555
Fe2 O9 1.979183 1_655
Fe2 O20 1.985023 1_555
Fe2 O2 2.000360 1_556
Fe2 O13 2.020751 1_655
Fe2 O3 2.144509 1_555
Fe3 O17 1.979183 1_555
Fe3 O14 1.979183 1_555
Fe3 O10 1.985023 1_555
Fe3 O11 2.000360 1_555
Fe3 O7 2.020751 1_555
Fe3 O16 2.144509 1_555
Fe4 O14 1.979183 1_565
Fe4 O17 1.979183 1_655
Fe4 O10 1.985023 1_665
Fe4 O25 2.000360 1_555
Fe4 O7 2.020751 1_555
Fe4 O24 2.144509 1_555
Fe5 O23 1.979183 1_555
Fe5 O19 1.979183 1_565
Fe5 O4 1.985023 1_555
Fe5 O8 2.000360 1_555
Fe5 O12 2.020751 1_565
Fe5 O5 2.144509 1_555
Fe6 O19 1.979183 1_555
Fe6 O23 1.979183 1_655
Fe6 O4 1.985023 1_555
Fe6 O2 2.000360 1_555
Fe6 O12 2.020751 1_655
Fe6 O15 2.144509 1_555
Fe7 O21 1.979183 1_565
Fe7 O26 1.979183 1_655
Fe7 O22 1.985023 1_665
Fe7 O25 2.000360 1_555
Fe7 O1 2.020751 1_555
Fe7 O0 2.144509 1_555
O1 Sr2 2.632219 1_555
O1 Sr0 2.632219 1_555
O2 Sr3 2.626344 1_555
O2 Sr1 2.626344 1_555
O2 Sr1 2.981529 1_545
O2 Sr3 2.981529 1_655
O4 Sr3 3.137666 1_555
O4 Sr1 3.137666 1_555
O7 Sr2 2.632219 1_555
O7 Sr0 2.632219 1_555
O8 Sr3 2.626344 1_555
O8 Sr1 2.626344 1_555
O8 Sr1 2.981529 1_455
O8 Sr3 2.981529 1_565
O9 Sr3 2.881949 1_556
O9 Sr1 2.881949 1_456
O10 Sr2 3.137666 1_455
O10 Sr0 3.137666 1_545
O11 Sr2 2.626344 1_455
O11 Sr0 2.626344 1_545
O11 Sr2 2.981529 1_555
O11 Sr0 2.981529 1_555
O12 Sr1 2.632219 1_445
O12 Sr3 2.632219 1_555
O13 Sr1 2.632219 1_446
O13 Sr3 2.632219 1_556
O14 Sr2 2.881949 1_555
O14 Sr0 2.881949 1_545
O17 Sr2 2.881949 1_455
O17 Sr0 2.881949 1_555
O19 Sr3 2.881949 1_555
O19 Sr1 2.881949 1_545
O20 Sr1 3.137666 1_556
O20 Sr3 3.137666 1_556
O21 Sr0 2.881949 1_545
O21 Sr2 2.881949 1_555
O22 Sr2 3.137666 1_455
O22 Sr0 3.137666 1_545
O23 Sr3 2.881949 1_555
O23 Sr1 2.881949 1_455
O25 Sr0 2.626344 1_655
O25 Sr2 2.626344 1_565
O25 Sr2 2.981529 1_555
O25 Sr0 2.981529 1_555
O26 Sr0 2.881949 1_555
O26 Sr2 2.881949 1_455
O27 Sr1 2.881949 1_546
O27 Sr3 2.881949 1_556
