# generated using pymatgen
data_ScF3
_symmetry_space_group_name_H-M   'P 1'
_cell_length_a   3.96217442
_cell_length_b   3.96217442
_cell_length_c   3.44025400
_cell_angle_alpha   90.00000000
_cell_angle_beta   90.00000000
_cell_angle_gamma   125.32674301
_symmetry_Int_Tables_number   1
_chemical_formula_structural   ScF3
_chemical_formula_sum   'Sc1 F3'
_cell_volume   44.06334592
_cell_formula_units_Z   1
loop_
 _symmetry_equiv_pos_site_id
 _symmetry_equiv_pos_as_xyz
  1  'x, y, z'
loop_
 _atom_site_type_symbol
 _atom_site_label
 _atom_site_symmetry_multiplicity
 _atom_site_fract_x
 _atom_site_fract_y
 _atom_site_fract_z
 _atom_site_occupancy
  Sc  Sc0  1  0.00000000  0.00000000  0.00000000  1
  F  F0  1  0.50000000  0.00000000  0.18671400  1
  F  F1  1  0.00000000  0.50000000  0.81328600  1
  F  F2  1  0.50000000  0.50000000  0.50000000  1
loop_
_geom_bond_atom_site_label_1
_geom_bond_atom_site_label_2
_geom_bond_distance
_geom_bond_site_symmetry_2
F0 Sc0 2.082621 1_655
F0 Sc0 2.082621 1_555
F1 Sc0 2.082621 1_556
F1 Sc0 2.082621 1_566
F2 Sc0 2.503880 1_666
F2 Sc0 2.503880 1_556
F2 Sc0 2.503880 1_665
F2 Sc0 2.503880 1_555
