# generated using pymatgen
data_Cu11S16
_symmetry_space_group_name_H-M   'P 1'
_cell_length_a   5.94236571
_cell_length_b   5.94236571
_cell_length_c   23.34192003
_cell_angle_alpha   81.04027067
_cell_angle_beta   81.04027067
_cell_angle_gamma   36.97118070
_symmetry_Int_Tables_number   1
_chemical_formula_structural   Cu11S16
_chemical_formula_sum   'Cu11 S16'
_cell_volume   488.98139811
_cell_formula_units_Z   1
loop_
 _symmetry_equiv_pos_site_id
 _symmetry_equiv_pos_as_xyz
  1  'x, y, z'
loop_
 _atom_site_type_symbol
 _atom_site_label
 _atom_site_symmetry_multiplicity
 _atom_site_fract_x
 _atom_site_fract_y
 _atom_site_fract_z
 _atom_site_occupancy
  Cu  Cu0  1  0.07491100  0.07491100  0.07091500  1
  Cu  Cu1  1  0.79495400  0.79495400  0.26155700  1
  Cu  Cu2  1  0.56459400  0.56459400  0.20373200  1
  Cu  Cu3  1  0.03764500  0.03764500  0.34147500  1
  Cu  Cu4  1  0.57587300  0.57587300  0.44399500  1
  Cu  Cu5  1  0.29550300  0.29550300  0.63321400  1
  Cu  Cu6  1  0.06645800  0.06645800  0.57655700  1
  Cu  Cu7  1  0.53937700  0.53937700  0.71334000  1
  Cu  Cu8  1  0.30204800  0.30204800  0.89644200  1
  Cu  Cu9  1  0.06531800  0.06531800  0.82274300  1
  Cu  Cu10  1  0.53985100  0.53985100  0.96996100  1
  S  S0  1  0.94154800  0.94154800  0.00646400  1
  S  S1  1  0.51076300  0.51076300  0.11521600  1
  S  S2  1  0.26219100  0.26219100  0.10603400  1
  S  S3  1  0.99914300  0.99914300  0.24811200  1
  S  S4  1  0.76033100  0.76033100  0.15556900  1
  S  S5  1  0.44661400  0.44661400  0.37872100  1
  S  S6  1  0.23661500  0.23661500  0.30885000  1
  S  S7  1  0.01056200  0.01056200  0.48855200  1
  S  S8  1  0.76258900  0.76258900  0.47861700  1
  S  S9  1  0.49890100  0.49890100  0.62122600  1
  S  S10  1  0.26084000  0.26084000  0.52870500  1
  S  S11  1  0.94085800  0.94085800  0.75650100  1
  S  S12  1  0.73661000  0.73661000  0.67967000  1
  S  S13  1  0.51171700  0.51171700  0.87603500  1
  S  S14  1  0.26389600  0.26389600  0.80740600  1
  S  S15  1  0.74279500  0.74279500  0.94851200  1
loop_
_geom_bond_atom_site_label_1
_geom_bond_atom_site_label_2
_geom_bond_distance
_geom_bond_site_symmetry_2
Cu0 S1 2.212794 1_545
Cu0 S1 2.212794 1_455
Cu0 S0 2.294686 1_445
Cu0 S2 2.386697 1_555
Cu1 S6 2.227674 1_565
Cu1 S6 2.227674 1_655
Cu1 S3 2.271182 1_555
Cu1 S4 2.567076 1_555
Cu2 S3 2.217272 1_455
Cu2 S3 2.217272 1_545
Cu2 S1 2.246951 1_555
Cu2 S4 2.305823 1_555
Cu3 S6 2.246930 1_555
Cu3 S5 2.250686 1_455
Cu3 S5 2.250686 1_545
Cu3 S3 2.290888 1_445
Cu4 S7 2.218577 1_655
Cu4 S7 2.218577 1_565
Cu4 S5 2.274458 1_555
Cu4 S8 2.375060 1_555
Cu5 S12 2.220366 1_455
Cu5 S12 2.220366 1_545
Cu5 S9 2.263547 1_555
Cu5 S10 2.533090 1_555
Cu6 S9 2.226239 1_545
Cu6 S9 2.226239 1_455
Cu6 S7 2.245386 1_555
Cu6 S10 2.290034 1_555
Cu7 S12 2.232956 1_555
Cu7 S9 2.270091 1_555
Cu7 S11 2.330363 1_455
Cu7 S11 2.330363 1_545
Cu8 S14 2.190356 1_555
Cu8 S15 2.281799 1_455
Cu8 S15 2.281799 1_545
Cu8 S13 2.332876 1_555
Cu9 S14 2.207912 1_555
Cu9 S11 2.251927 1_445
Cu9 S13 2.283744 1_455
Cu9 S13 2.283744 1_545
Cu10 S15 2.259896 1_555
Cu10 S13 2.266180 1_555
Cu10 S0 2.278939 1_456
Cu10 S0 2.278939 1_546
S2 S4 2.208912 1_545
S2 S4 2.208912 1_455
S10 S8 2.215773 1_455
S10 S8 2.215773 1_545
