# generated using pymatgen
data_Ge6Bi7O22
_symmetry_space_group_name_H-M   'P 1'
_cell_length_a   9.13807200
_cell_length_b   9.24570445
_cell_length_c   9.26325696
_cell_angle_alpha   107.84723580
_cell_angle_beta   110.32254898
_cell_angle_gamma   109.36182821
_symmetry_Int_Tables_number   1
_chemical_formula_structural   Ge6Bi7O22
_chemical_formula_sum   'Ge6 Bi7 O22'
_cell_volume   608.72438435
_cell_formula_units_Z   1
loop_
 _symmetry_equiv_pos_site_id
 _symmetry_equiv_pos_as_xyz
  1  'x, y, z'
loop_
 _atom_site_type_symbol
 _atom_site_label
 _atom_site_symmetry_multiplicity
 _atom_site_fract_x
 _atom_site_fract_y
 _atom_site_fract_z
 _atom_site_occupancy
  Ge  Ge0  1  0.92016700  0.23853500  0.12305300  1
  Ge  Ge1  1  0.26386000  0.88035100  0.62666900  1
  Ge  Ge2  1  0.62083200  0.73903500  0.36853200  1
  Ge  Ge3  1  0.12422100  0.37250700  0.75229800  1
  Ge  Ge4  1  0.75084200  0.62267600  0.87970700  1
  Ge  Ge5  1  0.37354400  0.13738400  0.24384100  1
  Bi  Bi0  1  0.83456500  0.50891600  0.51870700  1
  Bi  Bi1  1  0.99509300  0.99229600  0.80574800  1
  Bi  Bi2  1  0.99903600  0.99336900  0.33190300  1
  Bi  Bi3  1  0.17132200  0.68200700  0.16952600  1
  Bi  Bi4  1  0.65956200  0.18284600  0.68128300  1
  Bi  Bi5  1  0.33418200  0.50738300  0.51593000  1
  Bi  Bi6  1  0.48876300  0.81521600  0.99271000  1
  O  O0  1  0.06267000  0.45083100  0.28307800  1
  O  O1  1  0.28776400  0.70465400  0.65583600  1
  O  O2  1  0.64659300  0.55655900  0.34735800  1
  O  O3  1  0.06504400  0.83694200  0.64191700  1
  O  O4  1  0.87383400  0.19038900  0.91218600  1
  O  O5  1  0.19324800  0.86509700  0.41236700  1
  O  O6  1  0.46514200  0.06910400  0.77824900  1
  O  O7  1  0.93944700  0.78987700  0.08633200  1
  O  O8  1  0.40760200  0.68904200  0.35149600  1
  O  O9  1  0.76932100  0.93464100  0.57561500  1
  O  O10  1  0.66696400  0.80744000  0.22075500  1
  O  O11  1  0.71807300  0.42437200  0.87659100  1
  O  O12  1  0.15773500  0.21339800  0.80070300  1
  O  O13  1  0.20196200  0.16506200  0.28580300  1
  O  O14  1  0.81956500  0.07108200  0.15790300  1
  O  O15  1  0.35264000  0.92238000  0.18175000  1
  O  O16  1  0.14865300  0.33534500  0.56244400  1
  O  O17  1  0.91449600  0.36391200  0.69317100  1
  O  O18  1  0.27226400  0.58207300  0.94468200  1
  O  O19  1  0.55353100  0.64181700  0.82475200  1
  O  O20  1  0.57800600  0.27976100  0.45064300  1
  O  O21  1  0.81255600  0.66520300  0.72746300  1
loop_
_geom_bond_atom_site_label_1
_geom_bond_atom_site_label_2
_geom_bond_distance
_geom_bond_site_symmetry_2
Ge0 O14 1.707366 1_555
Ge0 O0 1.710761 1_655
Ge0 O4 1.720598 1_554
Ge1 O6 1.725092 1_565
Ge1 O3 1.792006 1_555
Ge1 O1 1.795226 1_555
Ge1 O5 1.804249 1_555
Ge2 O2 1.741504 1_555
Ge2 O8 1.783189 1_555
Ge2 O10 1.790619 1_555
Ge2 O9 1.797224 1_555
Ge3 O12 1.751160 1_555
Ge3 O17 1.767040 1_455
Ge3 O16 1.792768 1_555
Ge3 O18 1.797519 1_555
Ge4 O11 1.746310 1_555
Ge4 O7 1.775388 1_556
Ge4 O19 1.780637 1_555
Ge4 O21 1.790758 1_555
Ge5 O20 1.797443 1_555
Ge5 O15 1.813830 1_545
Ge5 O13 1.817523 1_555
Bi0 O21 2.148938 1_555
Bi0 O2 2.168032 1_555
Bi0 O20 2.289923 1_555
Bi0 O17 2.469842 1_555
Bi0 O3 2.628632 1_655
Bi1 O12 2.117137 1_665
Bi1 O9 2.145779 1_555
Bi1 O3 2.172861 1_655
Bi1 O4 2.559692 1_565
Bi1 O21 2.631490 1_555
Bi2 O7 2.201784 1_555
Bi2 O13 2.270381 1_665
Bi2 O14 2.336434 1_565
Bi2 O5 2.475947 1_655
Bi2 O10 2.551364 1_555
Bi2 O16 2.719124 1_665
Bi3 O8 2.195250 1_555
Bi3 O15 2.229592 1_555
Bi3 O5 2.256960 1_555
Bi3 O18 2.600493 1_554
Bi3 O7 2.610817 1_455
Bi3 O0 2.712379 1_555
Bi4 O11 2.146085 1_555
Bi4 O4 2.307089 1_555
Bi4 O17 2.316165 1_555
Bi4 O6 2.348985 1_555
Bi4 O20 2.536356 1_555
Bi4 O9 2.839291 1_545
Bi5 O1 2.152225 1_555
Bi5 O16 2.174723 1_555
Bi5 O0 2.411008 1_555
Bi5 O19 2.435539 1_555
Bi5 O8 2.668708 1_555
Bi5 O13 2.749738 1_555
Bi6 O18 2.175210 1_555
Bi6 O10 2.213733 1_556
Bi6 O19 2.254112 1_555
Bi6 O15 2.619571 1_556
Bi6 O14 2.627199 1_566
Bi6 O1 2.641006 1_555
