# generated using pymatgen
data_Rb3Ta5O14
_symmetry_space_group_name_H-M   'P 1'
_cell_length_a   7.45541500
_cell_length_b   14.93442300
_cell_length_c   25.64832100
_cell_angle_alpha   90.00000000
_cell_angle_beta   90.00000000
_cell_angle_gamma   90.00000000
_symmetry_Int_Tables_number   1
_chemical_formula_structural   Rb3Ta5O14
_chemical_formula_sum   'Rb24 Ta40 O112'
_cell_volume   2855.74359632
_cell_formula_units_Z   8
loop_
 _symmetry_equiv_pos_site_id
 _symmetry_equiv_pos_as_xyz
  1  'x, y, z'
loop_
 _atom_site_type_symbol
 _atom_site_label
 _atom_site_symmetry_multiplicity
 _atom_site_fract_x
 _atom_site_fract_y
 _atom_site_fract_z
 _atom_site_occupancy
  Rb  Rb0  1  0.27241100  0.01324300  0.48063500  1
  Rb  Rb1  1  0.87047500  0.00282400  0.38188900  1
  Rb  Rb2  1  0.22758900  0.51324300  0.98063500  1
  Rb  Rb3  1  0.37689400  0.75000000  0.20602800  1
  Rb  Rb4  1  0.27241100  0.48675700  0.48063500  1
  Rb  Rb5  1  0.72758900  0.98675700  0.51936500  1
  Rb  Rb6  1  0.12310600  0.25000000  0.70602800  1
  Rb  Rb7  1  0.37047500  0.00282400  0.11811100  1
  Rb  Rb8  1  0.65157600  0.75000000  0.79254600  1
  Rb  Rb9  1  0.72758900  0.51324300  0.51936500  1
  Rb  Rb10  1  0.37047500  0.49717600  0.11811100  1
  Rb  Rb11  1  0.87689400  0.75000000  0.29397200  1
  Rb  Rb12  1  0.87047500  0.49717600  0.38188900  1
  Rb  Rb13  1  0.84842400  0.25000000  0.29254600  1
  Rb  Rb14  1  0.22758900  0.98675700  0.98063500  1
  Rb  Rb15  1  0.62952500  0.99717600  0.88188900  1
  Rb  Rb16  1  0.77241100  0.01324300  0.01936500  1
  Rb  Rb17  1  0.77241100  0.48675700  0.01936500  1
  Rb  Rb18  1  0.12952500  0.99717600  0.61811100  1
  Rb  Rb19  1  0.12952500  0.50282400  0.61811100  1
  Rb  Rb20  1  0.34842400  0.25000000  0.20745400  1
  Rb  Rb21  1  0.62310600  0.25000000  0.79397200  1
  Rb  Rb22  1  0.62952500  0.50282400  0.88188900  1
  Rb  Rb23  1  0.15157600  0.75000000  0.70745400  1
  Ta  Ta0  1  0.37026200  0.61929500  0.35642900  1
  Ta  Ta1  1  0.91680600  0.25000000  0.93863400  1
  Ta  Ta2  1  0.41680600  0.25000000  0.56136600  1
  Ta  Ta3  1  0.89286300  0.75000000  0.94501000  1
  Ta  Ta4  1  0.41010100  0.75000000  0.94467100  1
  Ta  Ta5  1  0.62912300  0.62313700  0.65297900  1
  Ta  Ta6  1  0.08319400  0.75000000  0.06136600  1
  Ta  Ta7  1  0.39286300  0.75000000  0.55499000  1
  Ta  Ta8  1  0.12973800  0.11929500  0.85642900  1
  Ta  Ta9  1  0.91010100  0.75000000  0.55532900  1
  Ta  Ta10  1  0.87026200  0.61929500  0.14357100  1
  Ta  Ta11  1  0.14256400  0.51082800  0.24442700  1
  Ta  Ta12  1  0.56488100  0.75000000  0.05640800  1
  Ta  Ta13  1  0.87026200  0.88070500  0.14357100  1
  Ta  Ta14  1  0.14256400  0.98917200  0.24442700  1
  Ta  Ta15  1  0.43511900  0.25000000  0.94359200  1
  Ta  Ta16  1  0.08989900  0.25000000  0.44467100  1
  Ta  Ta17  1  0.06488100  0.75000000  0.44359200  1
  Ta  Ta18  1  0.85743600  0.01082800  0.75557300  1
  Ta  Ta19  1  0.62973800  0.11929500  0.64357100  1
  Ta  Ta20  1  0.12912300  0.87686300  0.84702100  1
  Ta  Ta21  1  0.93511900  0.25000000  0.55640800  1
  Ta  Ta22  1  0.35743600  0.01082800  0.74442700  1
  Ta  Ta23  1  0.87087700  0.37686300  0.15297900  1
  Ta  Ta24  1  0.37087700  0.37686300  0.34702100  1
  Ta  Ta25  1  0.12912300  0.62313700  0.84702100  1
  Ta  Ta26  1  0.87087700  0.12313700  0.15297900  1
  Ta  Ta27  1  0.10713700  0.25000000  0.05499000  1
  Ta  Ta28  1  0.64256400  0.51082800  0.25557300  1
  Ta  Ta29  1  0.60713700  0.25000000  0.44501000  1
  Ta  Ta30  1  0.12973800  0.38070500  0.85642900  1
  Ta  Ta31  1  0.37087700  0.12313700  0.34702100  1
  Ta  Ta32  1  0.64256400  0.98917200  0.25557300  1
  Ta  Ta33  1  0.37026200  0.88070500  0.35642900  1
  Ta  Ta34  1  0.58989900  0.25000000  0.05532900  1
  Ta  Ta35  1  0.62973800  0.38070500  0.64357100  1
  Ta  Ta36  1  0.58319400  0.75000000  0.43863400  1
  Ta  Ta37  1  0.35743600  0.48917200  0.74442700  1
  Ta  Ta38  1  0.62912300  0.87686300  0.65297900  1
  Ta  Ta39  1  0.85743600  0.48917200  0.75557300  1
  O  O0  1  0.71378500  0.60877100  0.20368300  1
  O  O1  1  0.98752900  0.83809800  0.49917600  1
  O  O2  1  0.17725600  0.34408800  0.39961200  1
  O  O3  1  0.85053900  0.25000000  0.01395100  1
  O  O4  1  0.90817900  0.25000000  0.17071800  1
  O  O5  1  0.41911500  0.40157900  0.69029900  1
  O  O6  1  0.14946100  0.75000000  0.98604900  1
  O  O7  1  0.65626700  0.65403900  0.10010600  1
  O  O8  1  0.46543600  0.37475800  0.57541200  1
  O  O9  1  0.70546300  0.09421200  0.20655100  1
  O  O10  1  0.48752900  0.83809800  0.00082400  1
  O  O11  1  0.34771500  0.00180800  0.37749900  1
  O  O12  1  0.79453700  0.59421200  0.70655100  1
  O  O13  1  0.04419200  0.14175700  0.08601600  1
  O  O14  1  0.91911500  0.09842100  0.80970100  1
  O  O15  1  0.84373300  0.34596100  0.60010600  1
  O  O16  1  0.45580800  0.64175700  0.58601600  1
  O  O17  1  0.15626700  0.65403900  0.39989400  1
  O  O18  1  0.58336100  0.08432900  0.30762400  1
  O  O19  1  0.01247100  0.33809800  0.50082400  1
  O  O20  1  0.58088500  0.90157900  0.30970100  1
  O  O21  1  0.21378500  0.89122900  0.29631700  1
  O  O22  1  0.28621500  0.39122900  0.79631700  1
  O  O23  1  0.67598200  0.25000000  0.91214200  1
  O  O24  1  0.67633200  0.25000000  0.51856800  1
  O  O25  1  0.84771500  0.49819200  0.12250100  1
  O  O26  1  0.08336100  0.41567100  0.19237600  1
  O  O27  1  0.34373300  0.15403900  0.89989400  1
  O  O28  1  0.82401800  0.75000000  0.41214200  1
  O  O29  1  0.09844700  0.01112600  0.72498300  1
  O  O30  1  0.44918300  0.75000000  0.36239100  1
  O  O31  1  0.48752900  0.66190200  0.00082400  1
  O  O32  1  0.96543600  0.37475800  0.92458800  1
  O  O33  1  0.59844700  0.01112600  0.77501700  1
  O  O34  1  0.96543600  0.12524200  0.92458800  1
  O  O35  1  0.09844700  0.48887400  0.72498300  1
  O  O36  1  0.71378500  0.89122900  0.20368300  1
  O  O37  1  0.90155300  0.51112600  0.27501700  1
  O  O38  1  0.82366800  0.75000000  0.01856800  1
  O  O39  1  0.84771500  0.00180800  0.12250100  1
  O  O40  1  0.91911500  0.40157900  0.80970100  1
  O  O41  1  0.82274400  0.65591200  0.60038800  1
  O  O42  1  0.20546300  0.40578800  0.29344900  1
  O  O43  1  0.08088500  0.59842100  0.19029900  1
  O  O44  1  0.08088500  0.90157900  0.19029900  1
  O  O45  1  0.84744200  0.25000000  0.41594500  1
  O  O46  1  0.46543600  0.12524200  0.57541200  1
  O  O47  1  0.40155300  0.98887400  0.22498300  1
  O  O48  1  0.29453700  0.59421200  0.79344900  1
  O  O49  1  0.91663900  0.91567100  0.80762400  1
  O  O50  1  0.78621500  0.39122900  0.70368300  1
  O  O51  1  0.32366800  0.75000000  0.48143200  1
  O  O52  1  0.17598200  0.25000000  0.58785800  1
  O  O53  1  0.34744200  0.25000000  0.08405500  1
  O  O54  1  0.41911500  0.09842100  0.69029900  1
  O  O55  1  0.08336100  0.08432900  0.19237600  1
  O  O56  1  0.58088500  0.59842100  0.30970100  1
  O  O57  1  0.32401800  0.75000000  0.08785800  1
  O  O58  1  0.64946100  0.75000000  0.51395100  1
  O  O59  1  0.84373300  0.15403900  0.60010600  1
  O  O60  1  0.41663900  0.58432900  0.69237600  1
  O  O61  1  0.15255800  0.75000000  0.58405500  1
  O  O62  1  0.94918300  0.75000000  0.13760900  1
  O  O63  1  0.51247100  0.16190200  0.99917600  1
  O  O64  1  0.91663900  0.58432900  0.80762400  1
  O  O65  1  0.05081700  0.25000000  0.86239100  1
  O  O66  1  0.59182100  0.75000000  0.67071800  1
  O  O67  1  0.58336100  0.41567100  0.30762400  1
  O  O68  1  0.53456400  0.87475800  0.42458800  1
  O  O69  1  0.40155300  0.51112600  0.22498300  1
  O  O70  1  0.35053900  0.25000000  0.48604900  1
  O  O71  1  0.95580800  0.85824300  0.91398400  1
  O  O72  1  0.95580800  0.64175700  0.91398400  1
  O  O73  1  0.67725600  0.34408800  0.10038800  1
  O  O74  1  0.90155300  0.98887400  0.27501700  1
  O  O75  1  0.32274400  0.84408800  0.89961200  1
  O  O76  1  0.70546300  0.40578800  0.20655100  1
  O  O77  1  0.28621500  0.10877100  0.79631700  1
  O  O78  1  0.21378500  0.60877100  0.29631700  1
  O  O79  1  0.79453700  0.90578800  0.70655100  1
  O  O80  1  0.40817900  0.25000000  0.32928200  1
  O  O81  1  0.41663900  0.91567100  0.69237600  1
  O  O82  1  0.01247100  0.16190200  0.50082400  1
  O  O83  1  0.29453700  0.90578800  0.79344900  1
  O  O84  1  0.51247100  0.33809800  0.99917600  1
  O  O85  1  0.03456400  0.62524200  0.07541200  1
  O  O86  1  0.82274400  0.84408800  0.60038800  1
  O  O87  1  0.15626700  0.84596100  0.39989400  1
  O  O88  1  0.32274400  0.65591200  0.89961200  1
  O  O89  1  0.09182100  0.75000000  0.82928200  1
  O  O90  1  0.98752900  0.66190200  0.49917600  1
  O  O91  1  0.67725600  0.15591200  0.10038800  1
  O  O92  1  0.04419200  0.35824300  0.08601600  1
  O  O93  1  0.65255800  0.75000000  0.91594500  1
  O  O94  1  0.34373300  0.34596100  0.89989400  1
  O  O95  1  0.17725600  0.15591200  0.39961200  1
  O  O96  1  0.65228500  0.50180800  0.62250100  1
  O  O97  1  0.55081700  0.25000000  0.63760900  1
  O  O98  1  0.65228500  0.99819200  0.62250100  1
  O  O99  1  0.15228500  0.99819200  0.87749900  1
  O  O100  1  0.34771500  0.49819200  0.37749900  1
  O  O101  1  0.15228500  0.50180800  0.87749900  1
  O  O102  1  0.03456400  0.87475800  0.07541200  1
  O  O103  1  0.54419200  0.35824300  0.41398400  1
  O  O104  1  0.20546300  0.09421200  0.29344900  1
  O  O105  1  0.78621500  0.10877100  0.70368300  1
  O  O106  1  0.45580800  0.85824300  0.58601600  1
  O  O107  1  0.17633200  0.25000000  0.98143200  1
  O  O108  1  0.65626700  0.84596100  0.10010600  1
  O  O109  1  0.54419200  0.14175700  0.41398400  1
  O  O110  1  0.59844700  0.48887400  0.77501700  1
  O  O111  1  0.53456400  0.62524200  0.42458800  1
loop_
_geom_bond_atom_site_label_1
_geom_bond_atom_site_label_2
_geom_bond_distance
_geom_bond_site_symmetry_2
O0 Ta10 1.939773 1_555
O0 Ta28 2.047625 1_555
O0 Rb3 3.280347 1_555
O0 Rb11 3.360079 1_555
O1 Ta17 2.023872 1_655
O1 Ta9 2.034339 1_555
O1 Rb5 2.992128 1_555
O1 Rb0 3.402791 1_665
O2 Ta16 1.932416 1_555
O2 Ta24 2.035388 1_555
O2 Rb4 3.059671 1_555
O2 Rb12 3.265716 1_455
O3 Ta1 1.993931 1_554
O3 Ta27 2.183499 1_655
O3 Ta34 2.214103 1_555
O4 Ta26 1.968235 1_555
O4 Ta23 1.968235 1_555
O4 Rb13 3.156282 1_555
O4 Rb20 3.414772 1_655
O5 Ta37 1.962159 1_555
O5 Ta35 1.999839 1_555
O5 Rb6 3.187094 1_555
O5 Rb19 3.221125 1_555
O6 Ta6 1.993931 1_556
O6 Ta3 2.183499 1_455
O6 Ta4 2.214103 1_555
O7 Ta12 1.942726 1_555
O7 Ta10 2.014298 1_555
O7 Rb10 3.200184 1_555
O7 Rb17 3.358511 1_555
O8 Ta2 1.932021 1_555
O8 Ta35 2.136456 1_555
O8 Rb9 3.188068 1_555
O8 Rb4 3.282958 1_555
O8 Rb19 3.336042 1_555
O9 Ta26 1.896161 1_555
O9 Ta32 2.064375 1_545
O9 Rb13 3.378443 1_555
O9 Rb20 3.535420 1_555
O10 Ta12 2.023872 1_555
O10 Ta4 2.034339 1_554
O10 Rb14 2.992128 1_554
O10 Rb16 3.402791 1_565
O11 Ta33 1.895085 1_545
O11 Ta31 1.980948 1_555
O11 Rb0 2.709573 1_555
O12 Ta5 1.896161 1_555
O12 Ta39 2.064375 1_555
O12 Rb8 3.378443 1_555
O12 Rb23 3.535420 1_655
O13 Ta27 1.861905 1_555
O13 Ta26 2.167189 1_455
O13 Rb16 3.272864 1_455
O13 Rb7 3.301545 1_555
O14 Ta18 1.962159 1_555
O14 Ta8 1.999839 1_655
O14 Rb21 3.187094 1_555
O14 Rb15 3.221125 1_545
O15 Ta21 1.942726 1_555
O15 Ta35 2.014298 1_555
O15 Rb19 3.200184 1_655
O15 Rb9 3.358511 1_555
O16 Ta7 1.861905 1_555
O16 Ta5 2.167189 1_555
O16 Rb9 3.272864 1_555
O16 Rb19 3.301545 1_555
O17 Ta17 1.942726 1_555
O17 Ta0 2.014298 1_555
O17 Rb12 3.200184 1_455
O17 Rb4 3.358511 1_555
O18 Ta31 1.966342 1_555
O18 Ta32 1.999167 1_545
O18 Rb1 3.113162 1_555
O18 Rb13 3.190049 1_555
O19 Ta21 2.023872 1_455
O19 Ta16 2.034339 1_555
O19 Rb4 2.992128 1_555
O19 Rb9 3.402791 1_455
O20 Ta32 1.962159 1_555
O20 Ta33 1.999839 1_555
O20 Rb11 3.187094 1_555
O20 Rb1 3.221125 1_565
O21 Ta33 1.939773 1_555
O21 Ta14 2.047625 1_555
O21 Rb11 3.280347 1_455
O21 Rb3 3.360079 1_555
O22 Ta30 1.939773 1_555
O22 Ta37 2.047625 1_555
O22 Rb21 3.280347 1_555
O22 Rb6 3.360079 1_555
O23 Ta1 1.919714 1_555
O23 Ta15 1.968585 1_555
O23 Rb21 3.056391 1_555
O24 Ta29 1.955898 1_555
O24 Ta21 2.159718 1_555
O24 Ta2 2.224562 1_555
O25 Ta10 1.895085 1_555
O25 Ta23 1.980948 1_555
O25 Rb17 2.709573 1_555
O26 Ta23 1.966342 1_455
O26 Ta11 1.999167 1_555
O26 Rb10 3.113162 1_555
O26 Rb20 3.190049 1_555
O27 Ta15 1.942726 1_555
O27 Ta8 2.014298 1_555
O27 Rb15 3.200184 1_545
O27 Rb14 3.358511 1_545
O28 Ta36 1.919714 1_555
O28 Ta17 1.968585 1_655
O28 Rb11 3.056391 1_555
O29 Ta18 1.960666 1_455
O29 Ta22 1.994239 1_555
O29 Rb18 2.758740 1_545
O30 Ta33 2.044481 1_555
O30 Ta0 2.044481 1_555
O30 Ta36 2.195954 1_555
O31 Ta12 2.023872 1_555
O31 Ta4 2.034339 1_554
O31 Rb2 2.992128 1_554
O31 Rb17 3.402791 1_555
O32 Ta1 1.932021 1_555
O32 Ta30 2.136456 1_655
O32 Rb2 3.188068 1_655
O32 Rb17 3.282958 1_556
O32 Rb22 3.336042 1_555
O33 Ta22 1.960666 1_555
O33 Ta18 1.994239 1_555
O33 Rb15 2.758740 1_545
O34 Ta1 1.932021 1_555
O34 Ta8 2.136456 1_655
O34 Rb14 3.188068 1_645
O34 Rb16 3.282958 1_556
O34 Rb15 3.336042 1_545
O35 Ta39 1.960666 1_455
O35 Ta37 1.994239 1_555
O35 Rb19 2.758740 1_555
O36 Ta13 1.939773 1_555
O36 Ta32 2.047625 1_555
O36 Rb3 3.280347 1_555
O36 Rb11 3.360079 1_555
O37 Ta11 1.960666 1_655
O37 Ta28 1.994239 1_555
O37 Rb12 2.758740 1_555
O38 Ta3 1.955898 1_554
O38 Ta12 2.159718 1_555
O38 Ta6 2.224562 1_655
O39 Ta13 1.895085 1_545
O39 Ta26 1.980948 1_555
O39 Rb16 2.709573 1_555
O40 Ta39 1.962159 1_555
O40 Ta30 1.999839 1_655
O40 Rb21 3.187094 1_555
O40 Rb22 3.221125 1_555
O41 Ta9 1.932416 1_555
O41 Ta5 2.035388 1_555
O41 Rb9 3.059671 1_555
O41 Rb19 3.265716 1_655
O42 Ta24 1.896161 1_555
O42 Ta11 2.064375 1_555
O42 Rb20 3.378443 1_555
O42 Rb13 3.535420 1_455
O43 Ta11 1.962159 1_555
O43 Ta10 1.999839 1_455
O43 Rb3 3.187094 1_555
O43 Rb10 3.221125 1_555
O44 Ta14 1.962159 1_555
O44 Ta13 1.999839 1_455
O44 Rb3 3.187094 1_555
O44 Rb7 3.221125 1_565
O45 Ta29 1.940479 1_555
O45 Ta16 1.952003 1_655
O45 Rb13 3.164986 1_555
O46 Ta2 1.932021 1_555
O46 Ta19 2.136456 1_555
O46 Rb5 3.188068 1_545
O46 Rb0 3.282958 1_555
O46 Rb18 3.336042 1_545
O47 Ta32 1.960666 1_555
O47 Ta14 1.994239 1_555
O47 Rb7 2.758740 1_565
O48 Ta25 1.896161 1_555
O48 Ta37 2.064375 1_555
O48 Rb23 3.378443 1_555
O48 Rb8 3.535420 1_555
O49 Ta20 1.966342 1_655
O49 Ta18 1.999167 1_565
O49 Rb15 3.113162 1_555
O49 Rb8 3.190049 1_555
O50 Ta35 1.939773 1_555
O50 Ta39 2.047625 1_555
O50 Rb6 3.280347 1_655
O50 Rb21 3.360079 1_555
O51 Ta7 1.955898 1_555
O51 Ta17 2.159718 1_555
O51 Ta36 2.224562 1_555
O52 Ta2 1.919714 1_555
O52 Ta21 1.968585 1_455
O52 Rb6 3.056391 1_555
O53 Ta27 1.940479 1_555
O53 Ta34 1.952003 1_555
O53 Rb20 3.164986 1_555
O54 Ta22 1.962159 1_555
O54 Ta19 1.999839 1_555
O54 Rb6 3.187094 1_555
O54 Rb18 3.221125 1_545
O55 Ta26 1.966342 1_455
O55 Ta14 1.999167 1_545
O55 Rb7 3.113162 1_555
O55 Rb20 3.190049 1_555
O56 Ta28 1.962159 1_555
O56 Ta0 1.999839 1_555
O56 Rb11 3.187094 1_555
O56 Rb12 3.221125 1_555
O57 Ta6 1.919714 1_555
O57 Ta12 1.968585 1_555
O57 Rb3 3.056391 1_555
O58 Ta36 1.993931 1_555
O58 Ta7 2.183499 1_555
O58 Ta9 2.214103 1_555
O59 Ta21 1.942726 1_555
O59 Ta19 2.014298 1_555
O59 Rb18 3.200184 1_645
O59 Rb5 3.358511 1_545
O60 Ta5 1.966342 1_555
O60 Ta37 1.999167 1_555
O60 Rb19 3.113162 1_555
O60 Rb23 3.190049 1_555
O61 Ta7 1.940479 1_555
O61 Ta9 1.952003 1_455
O61 Rb23 3.164986 1_555
O62 Ta13 2.044481 1_555
O62 Ta10 2.044481 1_555
O62 Ta6 2.195954 1_655
O63 Ta15 2.023872 1_555
O63 Ta34 2.034339 1_556
O63 Rb16 2.992128 1_556
O63 Rb14 3.402791 1_545
O64 Ta25 1.966342 1_655
O64 Ta39 1.999167 1_555
O64 Rb22 3.113162 1_555
O64 Rb8 3.190049 1_555
O65 Ta30 2.044481 1_555
O65 Ta8 2.044481 1_555
O65 Ta1 2.195954 1_455
O66 Ta38 1.968235 1_555
O66 Ta5 1.968235 1_555
O66 Rb8 3.156282 1_555
O66 Rb23 3.414772 1_555
O67 Ta24 1.966342 1_555
O67 Ta28 1.999167 1_555
O67 Rb12 3.113162 1_555
O67 Rb13 3.190049 1_555
O68 Ta36 1.932021 1_555
O68 Ta33 2.136456 1_555
O68 Rb0 3.188068 1_565
O68 Rb5 3.282958 1_555
O68 Rb1 3.336042 1_565
O69 Ta28 1.960666 1_555
O69 Ta11 1.994239 1_555
O69 Rb10 2.758740 1_555
O70 Ta2 1.993931 1_555
O70 Ta29 2.183499 1_555
O70 Ta16 2.214103 1_555
O71 Ta3 1.861905 1_555
O71 Ta20 2.167189 1_655
O71 Rb14 3.272864 1_655
O71 Rb15 3.301545 1_555
O72 Ta3 1.861905 1_555
O72 Ta25 2.167189 1_655
O72 Rb2 3.272864 1_655
O72 Rb22 3.301545 1_555
O73 Ta34 1.932416 1_555
O73 Ta23 2.035388 1_555
O73 Rb17 3.059671 1_555
O73 Rb10 3.265716 1_555
O74 Ta14 1.960666 1_655
O74 Ta32 1.994239 1_555
O74 Rb1 2.758740 1_565
O75 Ta4 1.932416 1_555
O75 Ta20 2.035388 1_555
O75 Rb14 3.059671 1_555
O75 Rb15 3.265716 1_555
O76 Ta23 1.896161 1_555
O76 Ta28 2.064375 1_555
O76 Rb13 3.378443 1_555
O76 Rb20 3.535420 1_555
O77 Ta8 1.939773 1_555
O77 Ta22 2.047625 1_555
O77 Rb21 3.280347 1_555
O77 Rb6 3.360079 1_555
O78 Ta0 1.939773 1_555
O78 Ta11 2.047625 1_555
O78 Rb11 3.280347 1_455
O78 Rb3 3.360079 1_555
O79 Ta38 1.896161 1_555
O79 Ta18 2.064375 1_565
O79 Rb8 3.378443 1_555
O79 Rb23 3.535420 1_655
O80 Ta31 1.968235 1_555
O80 Ta24 1.968235 1_555
O80 Rb20 3.156282 1_555
O80 Rb13 3.414772 1_555
O81 Ta38 1.966342 1_555
O81 Ta22 1.999167 1_565
O81 Rb18 3.113162 1_555
O81 Rb23 3.190049 1_555
O82 Ta21 2.023872 1_455
O82 Ta16 2.034339 1_555
O82 Rb0 2.992128 1_555
O82 Rb5 3.402791 1_445
O83 Ta20 1.896161 1_555
O83 Ta22 2.064375 1_565
O83 Rb23 3.378443 1_555
O83 Rb8 3.535420 1_555
O84 Ta15 2.023872 1_555
O84 Ta34 2.034339 1_556
O84 Rb17 2.992128 1_556
O84 Rb2 3.402791 1_555
O85 Ta6 1.932021 1_555
O85 Ta10 2.136456 1_455
O85 Rb17 3.188068 1_455
O85 Rb2 3.282958 1_554
O85 Rb10 3.336042 1_555
O86 Ta9 1.932416 1_555
O86 Ta38 2.035388 1_555
O86 Rb5 3.059671 1_555
O86 Rb18 3.265716 1_655
O87 Ta17 1.942726 1_555
O87 Ta33 2.014298 1_555
O87 Rb1 3.200184 1_465
O87 Rb0 3.358511 1_565
O88 Ta4 1.932416 1_555
O88 Ta25 2.035388 1_555
O88 Rb2 3.059671 1_555
O88 Rb22 3.265716 1_555
O89 Ta20 1.968235 1_555
O89 Ta25 1.968235 1_555
O89 Rb23 3.156282 1_555
O89 Rb8 3.414772 1_455
O90 Ta17 2.023872 1_655
O90 Ta9 2.034339 1_555
O90 Rb9 2.992128 1_555
O90 Rb4 3.402791 1_655
O91 Ta34 1.932416 1_555
O91 Ta26 2.035388 1_555
O91 Rb16 3.059671 1_555
O91 Rb7 3.265716 1_555
O92 Ta27 1.861905 1_555
O92 Ta23 2.167189 1_455
O92 Rb17 3.272864 1_455
O92 Rb10 3.301545 1_555
O93 Ta3 1.940479 1_555
O93 Ta4 1.952003 1_555
O93 Rb8 3.164986 1_555
O94 Ta15 1.942726 1_555
O94 Ta30 2.014298 1_555
O94 Rb22 3.200184 1_555
O94 Rb2 3.358511 1_555
O95 Ta16 1.932416 1_555
O95 Ta31 2.035388 1_555
O95 Rb0 3.059671 1_555
O95 Rb1 3.265716 1_455
O96 Ta35 1.895085 1_555
O96 Ta5 1.980948 1_555
O96 Rb9 2.709573 1_555
O97 Ta35 2.044481 1_555
O97 Ta19 2.044481 1_555
O97 Ta2 2.195954 1_555
O98 Ta19 1.895085 1_565
O98 Ta38 1.980948 1_555
O98 Rb5 2.709573 1_555
O99 Ta8 1.895085 1_565
O99 Ta20 1.980948 1_555
O99 Rb14 2.709573 1_555
O100 Ta0 1.895085 1_555
O100 Ta24 1.980948 1_555
O100 Rb4 2.709573 1_555
O101 Ta30 1.895085 1_555
O101 Ta25 1.980948 1_555
O101 Rb2 2.709573 1_555
O102 Ta6 1.932021 1_555
O102 Ta13 2.136456 1_455
O102 Rb16 3.188068 1_465
O102 Rb14 3.282958 1_554
O102 Rb7 3.336042 1_565
O103 Ta29 1.861905 1_555
O103 Ta24 2.167189 1_555
O103 Rb4 3.272864 1_555
O103 Rb12 3.301545 1_555
O104 Ta31 1.896161 1_555
O104 Ta14 2.064375 1_545
O104 Rb20 3.378443 1_555
O104 Rb13 3.535420 1_455
O105 Ta19 1.939773 1_555
O105 Ta18 2.047625 1_555
O105 Rb6 3.280347 1_655
O105 Rb21 3.360079 1_555
O106 Ta7 1.861905 1_555
O106 Ta38 2.167189 1_555
O106 Rb5 3.272864 1_555
O106 Rb18 3.301545 1_555
O107 Ta27 1.955898 1_556
O107 Ta15 2.159718 1_555
O107 Ta1 2.224562 1_455
O108 Ta12 1.942726 1_555
O108 Ta13 2.014298 1_555
O108 Rb7 3.200184 1_565
O108 Rb16 3.358511 1_565
O109 Ta29 1.861905 1_555
O109 Ta31 2.167189 1_555
O109 Rb0 3.272864 1_555
O109 Rb1 3.301545 1_555
O110 Ta37 1.960666 1_555
O110 Ta39 1.994239 1_555
O110 Rb22 2.758740 1_555
O111 Ta36 1.932021 1_555
O111 Ta0 2.136456 1_555
O111 Rb4 3.188068 1_555
O111 Rb9 3.282958 1_555
O111 Rb12 3.336042 1_555
