# generated using pymatgen
data_LiCa3RuO6
_symmetry_space_group_name_H-M   'P 1'
_cell_length_a   6.47996068
_cell_length_b   6.47996068
_cell_length_c   6.47996090
_cell_angle_alpha   91.94370985
_cell_angle_beta   91.94370985
_cell_angle_gamma   91.94371286
_symmetry_Int_Tables_number   1
_chemical_formula_structural   LiCa3RuO6
_chemical_formula_sum   'Li2 Ca6 Ru2 O12'
_cell_volume   271.61228062
_cell_formula_units_Z   2
loop_
 _symmetry_equiv_pos_site_id
 _symmetry_equiv_pos_as_xyz
  1  'x, y, z'
loop_
 _atom_site_type_symbol
 _atom_site_label
 _atom_site_symmetry_multiplicity
 _atom_site_fract_x
 _atom_site_fract_y
 _atom_site_fract_z
 _atom_site_occupancy
  Li  Li0  1  0.25000000  0.25000000  0.25000000  1
  Li  Li1  1  0.75000000  0.75000000  0.75000000  1
  Ca  Ca0  1  0.89459300  0.60540700  0.25000000  1
  Ca  Ca1  1  0.60540700  0.25000000  0.89459300  1
  Ca  Ca2  1  0.75000000  0.10540700  0.39459300  1
  Ca  Ca3  1  0.39459300  0.75000000  0.10540700  1
  Ca  Ca4  1  0.10540700  0.39459300  0.75000000  1
  Ca  Ca5  1  0.25000000  0.89459300  0.60540700  1
  Ru  Ru0  1  0.00000000  0.00000000  0.00000000  1
  Ru  Ru1  1  0.50000000  0.50000000  0.50000000  1
  O  O0  1  0.79154600  0.45009300  0.57706800  1
  O  O1  1  0.92293200  0.04990700  0.70845400  1
  O  O2  1  0.70845400  0.92293200  0.04990700  1
  O  O3  1  0.04990700  0.70845400  0.92293200  1
  O  O4  1  0.57706800  0.79154600  0.45009300  1
  O  O5  1  0.45009300  0.57706800  0.79154600  1
  O  O6  1  0.42293200  0.20845400  0.54990700  1
  O  O7  1  0.54990700  0.42293200  0.20845400  1
  O  O8  1  0.95009300  0.29154600  0.07706800  1
  O  O9  1  0.29154600  0.07706800  0.95009300  1
  O  O10  1  0.07706800  0.95009300  0.29154600  1
  O  O11  1  0.20845400  0.54990700  0.42293200  1
loop_
_geom_bond_atom_site_label_1
_geom_bond_atom_site_label_2
_geom_bond_distance
_geom_bond_site_symmetry_2
Li0 O10 2.239013 1_545
Li0 O7 2.239013 1_555
Li0 O11 2.239013 1_555
Li0 O8 2.239013 1_455
Li0 O9 2.239013 1_554
Li0 O6 2.239013 1_555
Li1 O1 2.239013 1_565
Li1 O5 2.239013 1_555
Li1 O3 2.239013 1_655
Li1 O0 2.239013 1_555
Li1 O2 2.239013 1_556
Li1 O4 2.239013 1_555
Ca0 O11 2.333193 1_655
Ca0 O8 2.333193 1_555
Ca0 O3 2.479050 1_654
Ca0 O0 2.479050 1_555
Ca0 O7 2.493559 1_555
Ca0 O10 2.493559 1_655
Ca0 O4 2.759122 1_555
Ca0 O2 2.759122 1_555
Ca1 O9 2.333193 1_555
Ca1 O7 2.333194 1_556
Ca1 O2 2.479050 1_546
Ca1 O5 2.479050 1_555
Ca1 O8 2.493559 1_556
Ca1 O6 2.493559 1_555
Ca1 O0 2.759122 1_555
Ca1 O1 2.759122 1_555
Ca2 O4 2.333193 1_545
Ca2 O1 2.333194 1_555
Ca2 O6 2.479050 1_555
Ca2 O10 2.479050 1_645
Ca2 O0 2.493559 1_555
Ca2 O2 2.493559 1_545
Ca2 O8 2.759122 1_555
Ca2 O7 2.759122 1_555
Ca3 O2 2.333193 1_555
Ca3 O5 2.333194 1_554
Ca3 O9 2.479050 1_564
Ca3 O7 2.479050 1_555
Ca3 O3 2.493559 1_554
Ca3 O4 2.493559 1_555
Ca3 O11 2.759122 1_555
Ca3 O10 2.759122 1_555
Ca4 O3 2.333193 1_555
Ca4 O0 2.333193 1_455
Ca4 O8 2.479050 1_456
Ca4 O11 2.479050 1_555
Ca4 O5 2.493559 1_555
Ca4 O1 2.493559 1_455
Ca4 O6 2.759122 1_555
Ca4 O9 2.759122 1_555
Ca5 O6 2.333193 1_565
Ca5 O10 2.333194 1_555
Ca5 O4 2.479050 1_555
Ca5 O1 2.479050 1_465
Ca5 O11 2.493559 1_555
Ca5 O9 2.493559 1_565
Ca5 O3 2.759122 1_555
Ca5 O5 2.759122 1_555
O0 Ru1 1.977747 1_555
O1 Ru0 1.977747 1_656
O2 Ru0 1.977747 1_665
O3 Ru0 1.977747 1_566
O4 Ru1 1.977747 1_555
O5 Ru1 1.977747 1_555
O6 Ru1 1.977747 1_555
O7 Ru1 1.977747 1_555
O8 Ru0 1.977747 1_655
O9 Ru0 1.977747 1_556
O10 Ru0 1.977747 1_565
O11 Ru1 1.977747 1_555
