# generated using pymatgen
data_Al2RhC4Cl7O4
_symmetry_space_group_name_H-M   'P 1'
_cell_length_a   9.82398100
_cell_length_b   9.88263761
_cell_length_c   10.35704163
_cell_angle_alpha   76.48075929
_cell_angle_beta   76.07330937
_cell_angle_gamma   66.15696771
_symmetry_Int_Tables_number   1
_chemical_formula_structural   Al2RhC4Cl7O4
_chemical_formula_sum   'Al4 Rh2 C8 Cl14 O8'
_cell_volume   882.06901289
_cell_formula_units_Z   2
loop_
 _symmetry_equiv_pos_site_id
 _symmetry_equiv_pos_as_xyz
  1  'x, y, z'
loop_
 _atom_site_type_symbol
 _atom_site_label
 _atom_site_symmetry_multiplicity
 _atom_site_fract_x
 _atom_site_fract_y
 _atom_site_fract_z
 _atom_site_occupancy
  Al  Al0  1  0.83054600  0.19646600  0.82316400  1
  Al  Al1  1  0.29956600  0.43315900  0.41882200  1
  Al  Al2  1  0.70043400  0.56684100  0.58117800  1
  Al  Al3  1  0.16945400  0.80353400  0.17683600  1
  Rh  Rh0  1  0.50000000  0.00000000  0.50000000  1
  Rh  Rh1  1  0.00000000  0.50000000  0.00000000  1
  C  C0  1  0.21004700  0.35826100  0.97794300  1
  C  C1  1  0.93875500  0.35445400  0.14208600  1
  C  C2  1  0.53422400  0.02225600  0.30208900  1
  C  C3  1  0.69966100  0.00721000  0.48780800  1
  C  C4  1  0.06124500  0.64554600  0.85791400  1
  C  C5  1  0.78995300  0.64173900  0.02205700  1
  C  C6  1  0.30033900  0.99279000  0.51219200  1
  C  C7  1  0.46577600  0.97774400  0.69791100  1
  Cl  Cl0  1  0.73723600  0.63422500  0.36836600  1
  Cl  Cl1  1  0.18001300  0.68489800  0.39593400  1
  Cl  Cl2  1  0.06262300  0.12141400  0.84058400  1
  Cl  Cl3  1  0.93737700  0.87858600  0.15941600  1
  Cl  Cl4  1  0.31478400  0.64673400  0.04708200  1
  Cl  Cl5  1  0.18834300  0.34817200  0.32129400  1
  Cl  Cl6  1  0.53226900  0.38074000  0.33663100  1
  Cl  Cl7  1  0.81165700  0.65182800  0.67870600  1
  Cl  Cl8  1  0.24481600  0.97845800  0.17476900  1
  Cl  Cl9  1  0.81998700  0.31510200  0.60406600  1
  Cl  Cl10  1  0.68521600  0.35326600  0.95291800  1
  Cl  Cl11  1  0.75518400  0.02154200  0.82523100  1
  Cl  Cl12  1  0.46773100  0.61926000  0.66336900  1
  Cl  Cl13  1  0.26276400  0.36577500  0.63163400  1
  O  O0  1  0.18449400  0.98684700  0.52155600  1
  O  O1  1  0.09588500  0.72937700  0.77428200  1
  O  O2  1  0.55458400  0.03836300  0.18723700  1
  O  O3  1  0.33292900  0.27732900  0.96485200  1
  O  O4  1  0.81550600  0.01315300  0.47844400  1
  O  O5  1  0.66707100  0.72267100  0.03514800  1
  O  O6  1  0.44541600  0.96163700  0.81276300  1
  O  O7  1  0.90411500  0.27062300  0.22571800  1
loop_
_geom_bond_atom_site_label_1
_geom_bond_atom_site_label_2
_geom_bond_distance
_geom_bond_site_symmetry_2
Al0 Cl10 2.122980 1_555
Al0 Cl11 2.132326 1_555
Al0 Cl2 2.132841 1_655
Al0 Cl9 2.303421 1_555
Al1 Cl6 2.128641 1_555
Al1 Cl13 2.134727 1_555
Al1 Cl5 2.142309 1_555
Al1 Cl1 2.262959 1_555
Al2 Cl12 2.128641 1_555
Al2 Cl0 2.134727 1_555
Al2 Cl7 2.142309 1_555
Al2 Cl9 2.262959 1_555
Al3 Cl4 2.122980 1_555
Al3 Cl8 2.132326 1_555
Al3 Cl3 2.132841 1_455
Al3 Cl1 2.303421 1_555
C0 O3 1.143118 1_555
C0 Rh1 1.964229 1_556
C1 O7 1.141477 1_555
C1 Rh1 1.969856 1_655
C2 O2 1.141492 1_555
C2 Rh0 1.969834 1_555
C3 O4 1.142926 1_555
C3 Rh0 1.964162 1_555
C4 O1 1.141477 1_555
C4 Rh1 1.969856 1_556
C5 O5 1.143118 1_555
C5 Rh1 1.964229 1_655
C6 O0 1.142926 1_555
C6 Rh0 1.964162 1_565
C7 O6 1.141492 1_555
C7 Rh0 1.969834 1_565
