# generated using pymatgen
data_NaU2Cl6
_symmetry_space_group_name_H-M   'P 1'
_cell_length_a   4.10953500
_cell_length_b   7.73044400
_cell_length_c   15.49762053
_cell_angle_alpha   60.60474461
_cell_angle_beta   90.00000000
_cell_angle_gamma   90.00000000
_symmetry_Int_Tables_number   1
_chemical_formula_structural   NaU2Cl6
_chemical_formula_sum   'Na2 U4 Cl12'
_cell_volume   428.95048066
_cell_formula_units_Z   2
loop_
 _symmetry_equiv_pos_site_id
 _symmetry_equiv_pos_as_xyz
  1  'x, y, z'
loop_
 _atom_site_type_symbol
 _atom_site_label
 _atom_site_symmetry_multiplicity
 _atom_site_fract_x
 _atom_site_fract_y
 _atom_site_fract_z
 _atom_site_occupancy
  Na  Na0  1  0.25084700  0.99852000  0.00108000  1
  Na  Na1  1  0.74915300  0.99852000  0.50108000  1
  U  U0  1  0.00607000  0.33461300  0.16653800  1
  U  U1  1  0.99393000  0.33461300  0.66653800  1
  U  U2  1  0.50143100  0.66942200  0.33314600  1
  U  U3  1  0.49856900  0.66942200  0.83314600  1
  Cl  Cl0  1  0.50246600  0.61730800  0.03780100  1
  Cl  Cl1  1  0.50299500  0.29678500  0.30832600  1
  Cl  Cl2  1  0.00082100  0.91691000  0.34911300  1
  Cl  Cl3  1  0.50295500  0.07903100  0.14989400  1
  Cl  Cl4  1  0.49753400  0.61730800  0.53780100  1
  Cl  Cl5  1  0.49700500  0.29678500  0.80832600  1
  Cl  Cl6  1  0.00221800  0.69391000  0.19053400  1
  Cl  Cl7  1  0.00317500  0.38048800  0.45866300  1
  Cl  Cl8  1  0.99917900  0.91691000  0.84911300  1
  Cl  Cl9  1  0.49704500  0.07903100  0.64989400  1
  Cl  Cl10  1  0.99778200  0.69391000  0.69053400  1
  Cl  Cl11  1  0.99682500  0.38048800  0.95866300  1
loop_
_geom_bond_atom_site_label_1
_geom_bond_atom_site_label_2
_geom_bond_distance
_geom_bond_site_symmetry_2
Cl0 Na0 2.903657 1_555
Cl0 U0 2.938981 1_555
Cl0 U0 2.959618 1_655
Cl0 U3 2.994611 1_554
Cl1 U0 2.907488 1_555
Cl1 Na1 2.915783 1_545
Cl1 U0 2.925295 1_655
Cl1 U2 3.087696 1_555
Cl2 U2 2.897939 1_455
Cl2 U2 2.901491 1_555
Cl2 Na1 2.910815 1_455
Cl2 U0 3.076379 1_565
Cl3 Na0 2.861585 1_545
Cl3 U0 2.939402 1_555
Cl3 U0 2.957245 1_655
Cl3 U2 3.043712 1_545
Cl4 Na1 2.903657 1_555
Cl4 U1 2.938981 1_555
Cl4 U1 2.959618 1_455
Cl4 U2 2.994611 1_555
Cl5 U1 2.907488 1_555
Cl5 Na0 2.915783 1_546
Cl5 U1 2.925295 1_455
Cl5 U3 3.087696 1_555
Cl6 Na0 2.902152 1_555
Cl6 U2 2.952737 1_555
Cl6 U2 2.957235 1_455
Cl6 U0 2.977778 1_555
Cl7 Na1 2.887100 1_445
Cl7 U2 2.949628 1_555
Cl7 U2 2.959597 1_455
Cl7 U1 3.063361 1_455
Cl8 U3 2.897939 1_655
Cl8 U3 2.901491 1_555
Cl8 Na0 2.910815 1_656
Cl8 U1 3.076379 1_565
Cl9 Na1 2.861585 1_545
Cl9 U1 2.939402 1_555
Cl9 U1 2.957245 1_455
Cl9 U3 3.043712 1_545
Cl10 Na1 2.902152 1_555
Cl10 U3 2.952737 1_555
Cl10 U3 2.957235 1_655
Cl10 U1 2.977778 1_555
Cl11 Na0 2.887100 1_646
Cl11 U3 2.949628 1_555
Cl11 U3 2.959597 1_655
Cl11 U0 3.063361 1_656
