# generated using pymatgen
data_I
_symmetry_space_group_name_H-M   'P 1'
_cell_length_a   6.46982400
_cell_length_b   6.46982400
_cell_length_c   9.67903200
_cell_angle_alpha   109.52502514
_cell_angle_beta   109.52502514
_cell_angle_gamma   90.00000000
_symmetry_Int_Tables_number   1
_chemical_formula_structural   I
_chemical_formula_sum   I8
_cell_volume   357.03797699
_cell_formula_units_Z   8
loop_
 _symmetry_equiv_pos_site_id
 _symmetry_equiv_pos_as_xyz
  1  'x, y, z'
loop_
 _atom_site_type_symbol
 _atom_site_label
 _atom_site_symmetry_multiplicity
 _atom_site_fract_x
 _atom_site_fract_y
 _atom_site_fract_z
 _atom_site_occupancy
  I  I0_0  1  0.00000000  0.00000000  0.00000000  1
  I  I0_1  1  0.00000000  0.00000000  0.50000000  1
  I  I0_2  1  0.00000000  0.50000000  0.00000000  1
  I  I0_3  1  0.00000000  0.50000000  0.50000000  1
  I  I0_4  1  0.50000000  0.00000000  0.00000000  1
  I  I0_5  1  0.50000000  0.00000000  0.50000000  1
  I  I0_6  1  0.50000000  0.50000000  0.00000000  1
  I  I0_7  1  0.50000000  0.50000000  0.50000000  1
loop_
_geom_bond_atom_site_label_1
_geom_bond_atom_site_label_2
_geom_bond_distance
_geom_bond_site_symmetry_2
I0_0 I0_4 3.234912 1_555
I0_0 I0_2 3.234912 1_545
I0_0 I0_4 3.234912 1_455
I0_0 I0_2 3.234912 1_555
I0_1 I0_3 3.234912 1_555
I0_1 I0_5 3.234912 1_455
I0_1 I0_5 3.234912 1_555
I0_1 I0_3 3.234912 1_545
I0_2 I0_6 3.234912 1_455
I0_2 I0_6 3.234912 1_555
I0_3 I0_7 3.234912 1_555
I0_3 I0_7 3.234912 1_455
I0_4 I0_6 3.234912 1_545
I0_4 I0_6 3.234912 1_555
I0_5 I0_7 3.234912 1_555
I0_5 I0_7 3.234912 1_545
