# generated using pymatgen
data_Nd10Si10N17ClO9
_symmetry_space_group_name_H-M   'P 1'
_cell_length_a   10.55572800
_cell_length_b   11.25574872
_cell_length_c   11.64479662
_cell_angle_alpha   89.92288467
_cell_angle_beta   89.99348062
_cell_angle_gamma   89.96016795
_symmetry_Int_Tables_number   1
_chemical_formula_structural   Nd10Si10N17ClO9
_chemical_formula_sum   'Nd20 Si20 N34 Cl2 O18'
_cell_volume   1383.54722207
_cell_formula_units_Z   2
loop_
 _symmetry_equiv_pos_site_id
 _symmetry_equiv_pos_as_xyz
  1  'x, y, z'
loop_
 _atom_site_type_symbol
 _atom_site_label
 _atom_site_symmetry_multiplicity
 _atom_site_fract_x
 _atom_site_fract_y
 _atom_site_fract_z
 _atom_site_occupancy
  Nd  Nd0  1  0.99172600  0.00081200  0.83045500  1
  Nd  Nd1  1  0.99255500  0.99995100  0.16960400  1
  Nd  Nd2  1  0.10825100  0.36864500  0.99983200  1
  Nd  Nd3  1  0.13863700  0.11409300  0.49894300  1
  Nd  Nd4  1  0.13899100  0.60346800  0.75473500  1
  Nd  Nd5  1  0.13768500  0.60251400  0.24495700  1
  Nd  Nd6  1  0.36006400  0.09819400  0.75805500  1
  Nd  Nd7  1  0.36375700  0.10244200  0.24228300  1
  Nd  Nd8  1  0.36264100  0.61798700  0.50187200  1
  Nd  Nd9  1  0.37362200  0.87109500  0.99570000  1
  Nd  Nd10  1  0.49923400  0.49899000  0.82687100  1
  Nd  Nd11  1  0.50184900  0.49692000  0.17329600  1
  Nd  Nd12  1  0.64279000  0.12931700  0.00408800  1
  Nd  Nd13  1  0.62415100  0.38157200  0.49769000  1
  Nd  Nd14  1  0.64305800  0.89498900  0.76777300  1
  Nd  Nd15  1  0.64540000  0.89880700  0.23224200  1
  Nd  Nd16  1  0.85781300  0.39993000  0.77216500  1
  Nd  Nd17  1  0.85701100  0.39868500  0.22821900  1
  Nd  Nd18  1  0.87686800  0.88023900  0.50047000  1
  Nd  Nd19  1  0.87404800  0.62726100  0.00023400  1
  Si  Si0  1  0.11530800  0.25488600  0.75414500  1
  Si  Si1  1  0.11623400  0.25481600  0.24524600  1
  Si  Si2  1  0.15165800  0.85688300  0.36285800  1
  Si  Si3  1  0.15100100  0.85743600  0.63609700  1
  Si  Si4  1  0.21512900  0.11114300  0.99983400  1
  Si  Si5  1  0.28562100  0.60871900  0.00027800  1
  Si  Si6  1  0.34857300  0.35568800  0.36477100  1
  Si  Si7  1  0.34719600  0.35425300  0.63568000  1
  Si  Si8  1  0.38518300  0.76139700  0.75635300  1
  Si  Si9  1  0.38478200  0.75591200  0.24371700  1
  Si  Si10  1  0.61544900  0.24432700  0.75445200  1
  Si  Si11  1  0.61562200  0.23850500  0.24529300  1
  Si  Si12  1  0.65056000  0.64621100  0.36482900  1
  Si  Si13  1  0.64949600  0.64488000  0.63471900  1
  Si  Si14  1  0.71706500  0.39050800  0.99990300  1
  Si  Si15  1  0.78820800  0.89177900  0.00021600  1
  Si  Si16  1  0.84909600  0.14761300  0.63495600  1
  Si  Si17  1  0.84994600  0.14700300  0.36597600  1
  Si  Si18  1  0.88451000  0.73769900  0.75483900  1
  Si  Si19  1  0.88484200  0.73750100  0.24565800  1
  N  N0  1  0.02145800  0.81096400  0.71457400  1
  N  N1  1  0.02330400  0.80913900  0.28416500  1
  N  N2  1  0.10317400  0.88942100  0.49916400  1
  N  N3  1  0.17074600  0.18344300  0.87774200  1
  N  N4  1  0.17166500  0.18495000  0.12108300  1
  N  N5  1  0.22865700  0.25265600  0.35118000  1
  N  N6  1  0.22620400  0.25221100  0.64702600  1
  N  N7  1  0.27312900  0.75428900  0.35083300  1
  N  N8  1  0.27135700  0.75402800  0.64906900  1
  N  N9  1  0.32574600  0.68162700  0.87735300  1
  N  N10  1  0.32685400  0.68418200  0.12158400  1
  N  N11  1  0.39666200  0.38999800  0.50059300  1
  N  N12  1  0.41997500  0.90092700  0.80261900  1
  N  N13  1  0.47373800  0.30475600  0.71634800  1
  N  N14  1  0.47719300  0.30779000  0.28670000  1
  N  N15  1  0.52429600  0.69018200  0.72003500  1
  N  N16  1  0.52699900  0.69331600  0.27760800  1
  N  N17  1  0.58377500  0.09887200  0.19775100  1
  N  N18  1  0.59483800  0.61548100  0.49942100  1
  N  N19  1  0.66345300  0.32062600  0.87768800  1
  N  N20  1  0.66448900  0.32269000  0.12323800  1
  N  N21  1  0.73020900  0.25066600  0.35240500  1
  N  N22  1  0.72802900  0.25023800  0.64755700  1
  N  N23  1  0.77046100  0.75016700  0.35371200  1
  N  N24  1  0.76858400  0.74981100  0.64780600  1
  N  N25  1  0.82764800  0.81643800  0.87706500  1
  N  N26  1  0.82871800  0.81778500  0.12402900  1
  N  N27  1  0.84817400  0.03355300  0.99969000  1
  N  N28  1  0.87990900  0.40528500  0.99892600  1
  N  N29  1  0.90601000  0.11779100  0.50084600  1
  N  N30  1  0.92051800  0.59819500  0.79940900  1
  N  N31  1  0.91936700  0.59772700  0.20108800  1
  N  N32  1  0.97159700  0.19478300  0.72254600  1
  N  N33  1  0.97384500  0.19317300  0.27889000  1
  Cl  Cl0  1  0.08075600  0.54943700  0.49964600  1
  Cl  Cl1  1  0.42512500  0.04994100  0.49951400  1
  O  O0  1  0.08730000  0.39423100  0.79727200  1
  O  O1  1  0.08668600  0.39405800  0.20252300  1
  O  O2  1  0.12903000  0.58243000  0.00217400  1
  O  O3  1  0.15457500  0.97283600  0.00049500  1
  O  O4  1  0.18214100  0.99219700  0.30930600  1
  O  O5  1  0.17907400  0.99440300  0.68723700  1
  O  O6  1  0.31971800  0.48928400  0.69137300  1
  O  O7  1  0.32074200  0.49076200  0.30897300  1
  O  O8  1  0.35201300  0.47344600  0.00108600  1
  O  O9  1  0.37168000  0.08738200  0.99924100  1
  O  O10  1  0.41671100  0.89453800  0.20002000  1
  O  O11  1  0.58643400  0.10574400  0.79967000  1
  O  O12  1  0.62531300  0.90552200  0.00089700  1
  O  O13  1  0.65154400  0.52836900  0.99899200  1
  O  O14  1  0.68087200  0.50674500  0.68354000  1
  O  O15  1  0.68122600  0.50809200  0.31593100  1
  O  O16  1  0.81446100  0.01057300  0.68428400  1
  O  O17  1  0.81818800  0.00837600  0.31877400  1
loop_
_geom_bond_atom_site_label_1
_geom_bond_atom_site_label_2
_geom_bond_distance
_geom_bond_site_symmetry_2
Nd0 O16 2.531897 1_555
Nd0 O5 2.587824 1_645
Nd0 O3 2.640672 1_646
Nd1 O17 2.532494 1_565
Nd1 O4 2.580521 1_655
Nd1 O3 2.626042 1_655
Nd2 O0 2.386178 1_555
Nd2 O1 2.388773 1_556
Nd2 O2 2.416629 1_556
Nd2 O8 2.831386 1_556
Nd3 O5 2.606971 1_545
Nd3 O4 2.641385 1_545
Nd4 O6 2.415445 1_555
Nd4 O0 2.467437 1_555
Nd4 O2 2.892679 1_556
Nd5 O7 2.422003 1_555
Nd5 O1 2.458488 1_555
Nd5 O2 2.837972 1_555
Nd6 O5 2.387647 1_545
Nd6 O11 2.439759 1_555
Nd6 O9 2.813717 1_555
Nd7 O4 2.413407 1_545
Nd7 O10 2.456015 1_545
Nd7 O9 2.836694 1_554
Nd8 O6 2.676841 1_555
Nd8 O7 2.702177 1_555
Nd9 O9 2.434949 1_565
Nd9 O10 2.437110 1_556
Nd9 O3 2.580168 1_556
Nd9 O12 2.685859 1_556
Nd10 O6 2.468542 1_555
Nd10 O14 2.543347 1_555
Nd10 O8 2.571305 1_556
Nd10 O13 2.591278 1_555
Nd11 O7 2.480897 1_555
Nd11 O15 2.522175 1_555
Nd11 O8 2.568174 1_555
Nd11 O13 2.596167 1_554
Nd12 O11 2.468371 1_554
Nd12 O12 2.526178 1_545
Nd12 O9 2.901320 1_554
Nd13 O15 2.619833 1_555
Nd13 O14 2.652715 1_555
Nd14 O16 2.431200 1_565
Nd14 O11 2.474455 1_565
Nd14 O12 2.723850 1_556
Nd15 O17 2.422777 1_565
Nd15 O10 2.443524 1_555
Nd15 O12 2.703272 1_555
Nd16 O0 2.440803 1_655
Nd16 O14 2.448057 1_555
Nd17 O1 2.443277 1_655
Nd17 O15 2.450005 1_555
Nd18 O17 2.632744 1_565
Nd18 O16 2.678524 1_565
Nd19 O13 2.599855 1_554
Nd19 O2 2.738159 1_655
N0 Si3 1.725686 1_555
N0 Si18 1.729184 1_455
N0 Nd0 2.548019 1_465
N0 Nd4 2.684352 1_555
N0 Nd18 3.024476 1_455
N1 Si2 1.722443 1_555
N1 Si19 1.729217 1_455
N1 Nd1 2.547387 1_455
N1 Nd5 2.659701 1_555
N1 Nd18 3.062201 1_455
N2 Si2 1.707792 1_555
N2 Si3 1.710404 1_555
N2 Nd18 2.391177 1_455
N2 Nd3 2.556663 1_565
N3 Si4 1.702817 1_555
N3 Si0 1.748425 1_555
N3 Nd2 2.609177 1_555
N3 Nd6 2.618600 1_555
N3 Nd0 2.847543 1_455
N4 Si4 1.701952 1_554
N4 Si1 1.747425 1_555
N4 Nd2 2.589818 1_554
N4 Nd7 2.638243 1_555
N4 Nd1 2.869111 1_445
N5 Si1 1.711957 1_555
N5 Si6 1.724758 1_555
N5 Nd3 2.508096 1_555
N5 Nd7 2.549990 1_555
N6 Si0 1.710806 1_555
N6 Si7 1.723186 1_555
N6 Nd3 2.500872 1_555
N6 Nd6 2.581554 1_555
N7 Si9 1.716066 1_555
N7 Si2 1.730756 1_555
N7 Nd8 2.516152 1_555
N7 Nd5 2.547944 1_555
N8 Si3 1.728903 1_555
N8 Si8 1.735521 1_555
N8 Nd8 2.493166 1_555
N8 Nd4 2.517028 1_555
N9 Si5 1.702653 1_556
N9 Si8 1.783906 1_555
N9 Nd4 2.589464 1_555
N9 Nd9 2.590791 1_555
N9 Nd10 2.814773 1_555
N10 Si5 1.705925 1_555
N10 Si9 1.747118 1_555
N10 Nd9 2.609923 1_554
N10 Nd5 2.625754 1_555
N10 Nd11 2.865117 1_555
N11 Si7 1.705121 1_555
N11 Si6 1.705999 1_555
N11 Nd13 2.403354 1_555
N11 Nd8 2.591008 1_555
N12 Si8 1.701405 1_555
N12 Nd9 2.324941 1_555
N12 Nd6 2.365243 1_565
N12 Nd14 2.390367 1_555
N13 Si10 1.701484 1_555
N13 Si7 1.724773 1_555
N13 Nd10 2.552842 1_555
N13 Nd6 2.661211 1_555
N13 Nd13 3.121980 1_555
N14 Si6 1.720601 1_555
N14 Si11 1.724846 1_555
N14 Nd11 2.517250 1_555
N14 Nd7 2.655337 1_555
N14 Nd13 3.023366 1_555
N15 Si8 1.725350 1_555
N15 Si13 1.730236 1_555
N15 Nd10 2.498476 1_555
N15 Nd14 2.683732 1_555
N15 Nd8 3.167730 1_555
N16 Si9 1.704022 1_555
N16 Si12 1.735433 1_555
N16 Nd11 2.537864 1_555
N16 Nd15 2.681686 1_555
N16 Nd8 3.247134 1_555
N17 Si11 1.700817 1_555
N17 Nd12 2.364141 1_555
N17 Nd15 2.377187 1_545
N17 Nd7 2.379906 1_555
N18 Si12 1.708986 1_555
N18 Si13 1.710704 1_555
N18 Nd8 2.451314 1_555
N18 Nd13 2.650830 1_555
N19 Si14 1.722841 1_555
N19 Si10 1.748652 1_555
N19 Nd16 2.552419 1_555
N19 Nd12 2.615900 1_556
N19 Nd10 2.716203 1_555
N20 Si14 1.717804 1_554
N20 Si11 1.783523 1_555
N20 Nd17 2.522264 1_555
N20 Nd12 2.593040 1_555
N20 Nd11 2.670426 1_555
N21 Si17 1.726667 1_555
N21 Si11 1.743138 1_555
N21 Nd13 2.508104 1_555
N21 Nd17 2.579682 1_555
N22 Si10 1.722103 1_555
N22 Si16 1.728397 1_555
N22 Nd13 2.534649 1_555
N22 Nd16 2.613699 1_555
N23 Si12 1.728978 1_555
N23 Si19 1.749632 1_555
N23 Nd18 2.516958 1_555
N23 Nd15 2.556086 1_555
N24 Si13 1.732328 1_555
N24 Si18 1.751885 1_555
N24 Nd14 2.525908 1_555
N24 Nd18 2.529906 1_555
N25 Si15 1.718039 1_556
N25 Si18 1.781563 1_555
N25 Nd14 2.488607 1_555
N25 Nd19 2.611814 1_556
N25 Nd0 2.757313 1_565
N26 Si15 1.718033 1_555
N26 Si19 1.780338 1_555
N26 Nd15 2.482760 1_555
N26 Nd19 2.629191 1_555
N26 Nd1 2.735839 1_555
N27 Si15 1.717141 1_546
N27 Nd12 2.421050 1_556
N27 Nd0 2.513189 1_555
N27 Nd1 2.525579 1_546
N28 Si14 1.727115 1_555
N28 Nd2 2.445083 1_655
N28 Nd19 2.499296 1_556
N28 Nd16 2.651663 1_555
N28 Nd17 2.681895 1_556
N29 Si16 1.706860 1_555
N29 Si17 1.709813 1_555
N29 Nd3 2.455969 1_655
N29 Nd18 2.691684 1_545
N30 Si18 1.696012 1_555
N30 Nd16 2.350084 1_555
N30 Nd4 2.364799 1_655
N30 Nd19 2.412077 1_556
N31 Si19 1.696671 1_555
N31 Nd17 2.356353 1_555
N31 Nd5 2.361171 1_655
N31 Nd19 2.409930 1_555
N32 Si0 1.701908 1_655
N32 Si16 1.731188 1_555
N32 Nd0 2.526443 1_555
N32 Nd16 2.666060 1_555
N33 Si1 1.701339 1_655
N33 Si17 1.734400 1_555
N33 Nd1 2.528904 1_545
N33 Nd17 2.685608 1_555
Cl0 Nd8 3.074554 1_555
Cl0 Nd5 3.083720 1_555
Cl0 Nd4 3.094698 1_555
Cl1 Nd3 3.108619 1_555
Cl1 Nd7 3.120323 1_555
Cl1 Nd6 3.135937 1_555
O0 Si0 1.673630 1_555
O1 Si1 1.672839 1_555
O2 Si5 1.679549 1_555
O3 Si4 1.683283 1_564
O4 Si2 1.676367 1_555
O5 Si3 1.679980 1_555
O6 Si7 1.678315 1_555
O7 Si6 1.678315 1_555
O8 Si5 1.675714 1_555
O9 Si4 1.673844 1_555
O10 Si9 1.675030 1_555
O11 Si10 1.674105 1_555
O12 Si15 1.726330 1_555
O13 Si14 1.698464 1_555
O14 Si13 1.687390 1_555
O15 Si12 1.687463 1_555
O16 Si16 1.685596 1_555
O17 Si17 1.688868 1_555
