# generated using pymatgen
data_Mn14Sb13
_symmetry_space_group_name_H-M   'P 1'
_cell_length_a   9.04995822
_cell_length_b   9.04995822
_cell_length_c   18.60643859
_cell_angle_alpha   75.53407177
_cell_angle_beta   75.53407177
_cell_angle_gamma   46.34057891
_symmetry_Int_Tables_number   1
_chemical_formula_structural   Mn14Sb13
_chemical_formula_sum   'Mn28 Sb26'
_cell_volume   1060.99527395
_cell_formula_units_Z   2
loop_
 _symmetry_equiv_pos_site_id
 _symmetry_equiv_pos_as_xyz
  1  'x, y, z'
loop_
 _atom_site_type_symbol
 _atom_site_label
 _atom_site_symmetry_multiplicity
 _atom_site_fract_x
 _atom_site_fract_y
 _atom_site_fract_z
 _atom_site_occupancy
  Mn  Mn0  1  0.42483800  0.41946400  0.88409500  1
  Mn  Mn1  1  0.80470600  0.80992400  0.96353900  1
  Mn  Mn2  1  0.19529400  0.19007600  0.03646100  1
  Mn  Mn3  1  0.11799700  0.11280300  0.92219600  1
  Mn  Mn4  1  0.57516200  0.58053600  0.11590500  1
  Mn  Mn5  1  0.50000000  0.50000000  0.00000000  1
  Mn  Mn6  1  0.95857800  0.96768500  0.19226400  1
  Mn  Mn7  1  0.88200300  0.88719700  0.07780400  1
  Mn  Mn8  1  0.34652400  0.34594200  0.27129300  1
  Mn  Mn9  1  0.27386500  0.27022000  0.15453600  1
  Mn  Mn10  1  0.72978000  0.72613500  0.34546400  1
  Mn  Mn11  1  0.65405800  0.65347600  0.22870700  1
  Mn  Mn12  1  0.11280300  0.11799700  0.42219600  1
  Mn  Mn13  1  0.03231500  0.04142200  0.30773600  1
  Mn  Mn14  1  0.66563400  0.33436600  0.25000000  1
  Mn  Mn15  1  0.50000000  0.50000000  0.50000000  1
  Mn  Mn16  1  0.41946400  0.42483800  0.38409500  1
  Mn  Mn17  1  0.88719700  0.88200300  0.57780400  1
  Mn  Mn18  1  0.80992400  0.80470600  0.46353900  1
  Mn  Mn19  1  0.27022000  0.27386500  0.65453600  1
  Mn  Mn20  1  0.19007600  0.19529400  0.53646100  1
  Mn  Mn21  1  0.65347600  0.65405800  0.72870700  1
  Mn  Mn22  1  0.58053600  0.57516200  0.61590500  1
  Mn  Mn23  1  0.04142200  0.03231500  0.80773600  1
  Mn  Mn24  1  0.96768500  0.95857800  0.69226400  1
  Mn  Mn25  1  0.33436600  0.66563400  0.75000000  1
  Mn  Mn26  1  0.34594200  0.34652400  0.77129300  1
  Mn  Mn27  1  0.72613500  0.72978000  0.84546400  1
  Sb  Sb0  1  0.43674200  0.10228100  0.90399600  1
  Sb  Sb1  1  0.82109500  0.48716600  0.98124900  1
  Sb  Sb2  1  0.79620300  0.12818400  0.94151200  1
  Sb  Sb3  1  0.20379700  0.87181600  0.05848800  1
  Sb  Sb4  1  0.17890500  0.51283400  0.01875100  1
  Sb  Sb5  1  0.58903200  0.26208700  0.13708700  1
  Sb  Sb6  1  0.56325800  0.89771900  0.09600400  1
  Sb  Sb7  1  0.97396800  0.64266600  0.21201800  1
  Sb  Sb8  1  0.96458200  0.28208600  0.16782100  1
  Sb  Sb9  1  0.35733400  0.02603200  0.28798200  1
  Sb  Sb10  1  0.31204000  0.68796000  0.25000000  1
  Sb  Sb11  1  0.73791300  0.41096800  0.36291300  1
  Sb  Sb12  1  0.71791400  0.03541800  0.33217900  1
  Sb  Sb13  1  0.12818400  0.79620300  0.44151200  1
  Sb  Sb14  1  0.10228100  0.43674200  0.40399600  1
  Sb  Sb15  1  0.51283400  0.17890500  0.51875100  1
  Sb  Sb16  1  0.48716600  0.82109500  0.48124900  1
  Sb  Sb17  1  0.89771900  0.56325800  0.59600400  1
  Sb  Sb18  1  0.87181600  0.20379700  0.55848800  1
  Sb  Sb19  1  0.28208600  0.96458200  0.66782100  1
  Sb  Sb20  1  0.26208700  0.58903200  0.63708700  1
  Sb  Sb21  1  0.68796000  0.31204000  0.75000000  1
  Sb  Sb22  1  0.64266600  0.97396800  0.71201800  1
  Sb  Sb23  1  0.03541800  0.71791400  0.83217900  1
  Sb  Sb24  1  0.02603200  0.35733400  0.78798200  1
  Sb  Sb25  1  0.41096800  0.73791300  0.86291300  1
loop_
_geom_bond_atom_site_label_1
_geom_bond_atom_site_label_2
_geom_bond_distance
_geom_bond_site_symmetry_2
Mn0 Sb25 2.726625 1_555
Mn0 Mn26 2.728066 1_555
Mn0 Sb0 2.729535 1_555
Mn0 Sb2 2.745855 1_555
Mn0 Sb4 2.760440 1_556
Mn0 Sb21 2.808517 1_555
Mn0 Sb23 2.811196 1_555
Mn1 Sb23 2.663328 1_655
Mn1 Sb6 2.714998 1_556
Mn1 Sb0 2.744167 1_565
Mn1 Sb4 2.745703 1_656
Mn1 Sb2 2.754931 1_565
Mn1 Sb1 2.758236 1_555
Mn2 Sb8 2.663328 1_455
Mn2 Sb0 2.714998 1_554
Mn2 Sb6 2.744167 1_545
Mn2 Sb1 2.745703 1_454
Mn2 Sb3 2.754931 1_545
Mn2 Sb4 2.758236 1_555
Mn3 Sb24 2.749643 1_555
Mn3 Sb2 2.751716 1_455
Mn3 Sb0 2.755654 1_555
Mn3 Sb3 2.769945 1_546
Mn3 Sb1 2.778642 1_455
Mn3 Sb25 2.783054 1_545
Mn4 Sb5 2.726625 1_555
Mn4 Sb6 2.729535 1_555
Mn4 Sb3 2.745855 1_555
Mn4 Sb1 2.760440 1_554
Mn4 Sb10 2.808517 1_555
Mn4 Sb8 2.811196 1_555
Mn5 Sb3 2.758692 1_555
Mn5 Sb2 2.758692 1_554
Mn5 Sb1 2.761731 1_554
Mn5 Sb4 2.761731 1_555
Mn5 Sb5 2.771058 1_555
Mn5 Sb25 2.771058 1_554
Mn6 Sb10 2.640482 1_655
Mn6 Sb5 2.717205 1_565
Mn6 Sb3 2.744805 1_655
Mn6 Sb7 2.779597 1_555
Mn6 Sb8 2.803609 1_565
Mn6 Sb12 2.831570 1_565
Mn7 Sb7 2.749643 1_555
Mn7 Sb3 2.751716 1_655
Mn7 Sb6 2.755654 1_555
Mn7 Sb2 2.769945 1_564
Mn7 Sb4 2.778642 1_655
Mn7 Sb5 2.783054 1_565
Mn8 Sb14 2.727034 1_555
Mn8 Sb5 2.745385 1_555
Mn8 Sb9 2.768206 1_555
Mn8 Sb7 2.769881 1_455
Mn8 Mn9 2.775088 1_555
Mn8 Sb12 2.783472 1_555
Mn8 Sb10 2.819625 1_555
Mn9 Sb8 2.675743 1_455
Mn9 Sb5 2.739629 1_555
Mn9 Sb9 2.740451 1_555
Mn9 Sb7 2.755147 1_455
Mn9 Sb6 2.761958 1_545
Mn9 Sb4 2.765947 1_555
Mn10 Sb12 2.675743 1_565
Mn10 Sb11 2.739629 1_555
Mn10 Sb7 2.740451 1_555
Mn10 Sb9 2.755147 1_565
Mn10 Sb14 2.761958 1_655
Mn10 Sb16 2.765947 1_555
Mn10 Mn11 2.775088 1_555
Mn11 Sb6 2.727034 1_555
Mn11 Mn4 2.728066 1_555
Mn11 Sb11 2.745385 1_555
Mn11 Mn14 2.745807 1_555
Mn11 Sb7 2.768206 1_555
Mn11 Sb9 2.769881 1_565
Mn11 Sb8 2.783472 1_555
Mn11 Sb10 2.819625 1_555
Mn12 Sb9 2.749643 1_555
Mn12 Sb13 2.751716 1_545
Mn12 Sb14 2.755654 1_555
Mn12 Sb18 2.769945 1_455
Mn12 Sb16 2.778642 1_545
Mn12 Sb11 2.783054 1_455
Mn13 Sb10 2.640482 1_545
Mn13 Sb11 2.717205 1_455
Mn13 Sb13 2.744805 1_545
Mn13 Sb9 2.779597 1_555
Mn13 Sb12 2.803609 1_455
Mn13 Sb8 2.831570 1_455
Mn14 Sb10 2.518186 1_555
Mn14 Sb8 2.531535 1_555
Mn14 Sb12 2.531535 1_555
Mn14 Sb11 2.713419 1_555
Mn14 Sb5 2.713419 1_555
Mn14 Mn8 2.745807 1_555
Mn15 Sb18 2.758692 1_555
Mn15 Sb13 2.758692 1_555
Mn15 Sb16 2.761731 1_555
Mn15 Sb15 2.761731 1_555
Mn15 Sb11 2.771058 1_555
Mn15 Sb20 2.771058 1_555
Mn16 Sb11 2.726625 1_555
Mn16 Mn8 2.728066 1_555
Mn16 Sb14 2.729535 1_555
Mn16 Sb13 2.745855 1_555
Mn16 Sb15 2.760440 1_555
Mn16 Sb10 2.808517 1_555
Mn16 Sb12 2.811196 1_555
Mn17 Sb22 2.749643 1_555
Mn17 Sb18 2.751716 1_565
Mn17 Sb17 2.755654 1_555
Mn17 Sb13 2.769945 1_655
Mn17 Sb15 2.778642 1_565
Mn17 Sb20 2.783054 1_655
Mn18 Sb12 2.663328 1_565
Mn18 Sb17 2.714998 1_555
Mn18 Sb14 2.744167 1_655
Mn18 Sb15 2.745703 1_565
Mn18 Sb13 2.754931 1_655
Mn18 Sb16 2.758236 1_555
Mn19 Sb19 2.675743 1_545
Mn19 Sb20 2.739629 1_555
Mn19 Sb24 2.740451 1_555
Mn19 Sb22 2.755147 1_545
Mn19 Sb17 2.761958 1_455
Mn19 Sb15 2.765947 1_555
Mn19 Mn26 2.775088 1_555
Mn20 Sb19 2.663328 1_545
Mn20 Sb14 2.714998 1_555
Mn20 Sb17 2.744167 1_455
Mn20 Sb16 2.745703 1_545
Mn20 Sb18 2.754931 1_455
Mn20 Sb15 2.758236 1_555
Mn21 Sb17 2.727034 1_555
Mn21 Mn22 2.728066 1_555
Mn21 Sb25 2.745385 1_555
Mn21 Mn25 2.745807 1_555
Mn21 Sb22 2.768206 1_555
Mn21 Sb24 2.769881 1_655
Mn21 Mn27 2.775088 1_555
Mn21 Sb19 2.783472 1_555
Mn21 Sb21 2.819625 1_555
Mn22 Sb20 2.726625 1_555
Mn22 Sb17 2.729535 1_555
Mn22 Sb18 2.745855 1_555
Mn22 Sb16 2.760440 1_555
Mn22 Sb21 2.808517 1_555
Mn22 Sb19 2.811196 1_555
Mn23 Sb21 2.640482 1_455
Mn23 Sb25 2.717205 1_545
Mn23 Sb2 2.744805 1_455
Mn23 Sb24 2.779597 1_555
Mn23 Sb23 2.803609 1_545
Mn23 Sb19 2.831570 1_545
Mn24 Sb21 2.640482 1_565
Mn24 Sb20 2.717205 1_655
Mn24 Sb18 2.744805 1_565
Mn24 Sb22 2.779597 1_555
Mn24 Sb19 2.803609 1_655
Mn24 Sb23 2.831570 1_655
Mn25 Sb21 2.518186 1_555
Mn25 Sb19 2.531535 1_555
Mn25 Sb23 2.531535 1_555
Mn25 Sb25 2.713419 1_555
Mn25 Sb20 2.713419 1_555
Mn25 Mn26 2.745807 1_555
Mn26 Sb0 2.727034 1_555
Mn26 Sb20 2.745385 1_555
Mn26 Sb24 2.768206 1_555
Mn26 Sb22 2.769881 1_545
Mn26 Sb23 2.783472 1_555
Mn26 Sb21 2.819625 1_555
Mn27 Sb23 2.675743 1_655
Mn27 Sb25 2.739629 1_555
Mn27 Sb22 2.740451 1_555
Mn27 Sb24 2.755147 1_655
Mn27 Sb0 2.761958 1_565
Mn27 Sb1 2.765947 1_555
