# generated using pymatgen
data_NaCa2V3(CoO6)2
_symmetry_space_group_name_H-M   'P 1'
_cell_length_a   10.87736625
_cell_length_b   10.87736625
_cell_length_c   10.87736625
_cell_angle_alpha   109.35183260
_cell_angle_beta   109.35183260
_cell_angle_gamma   109.71026148
_symmetry_Int_Tables_number   1
_chemical_formula_structural   NaCa2V3(CoO6)2
_chemical_formula_sum   'Na4 Ca8 V12 Co8 O48'
_cell_volume   990.70348801
_cell_formula_units_Z   4
loop_
 _symmetry_equiv_pos_site_id
 _symmetry_equiv_pos_as_xyz
  1  'x, y, z'
loop_
 _atom_site_type_symbol
 _atom_site_label
 _atom_site_symmetry_multiplicity
 _atom_site_fract_x
 _atom_site_fract_y
 _atom_site_fract_z
 _atom_site_occupancy
  Na  Na0  1  0.50000000  0.00000000  0.50000000  1
  Na  Na1  1  0.25000000  0.25000000  0.00000000  1
  Na  Na2  1  0.00000000  0.50000000  0.50000000  1
  Na  Na3  1  0.75000000  0.75000000  0.00000000  1
  Ca  Ca0  1  0.99800200  0.12500000  0.37300200  1
  Ca  Ca1  1  0.37500000  0.00199800  0.12699800  1
  Ca  Ca2  1  0.49800200  0.12500000  0.87300200  1
  Ca  Ca3  1  0.37500000  0.50199800  0.62699800  1
  Ca  Ca4  1  0.75199800  0.62500000  0.62699800  1
  Ca  Ca5  1  0.87500000  0.24800200  0.87300200  1
  Ca  Ca6  1  0.87500000  0.74800200  0.37300200  1
  Ca  Ca7  1  0.25199800  0.62500000  0.12699800  1
  V  V0  1  0.00000000  0.00000000  0.00000000  1
  V  V1  1  0.87500000  0.99935600  0.62435600  1
  V  V2  1  0.24935600  0.12500000  0.62435600  1
  V  V3  1  0.74935600  0.12500000  0.12435600  1
  V  V4  1  0.37500000  0.25064400  0.37564400  1
  V  V5  1  0.75000000  0.25000000  0.50000000  1
  V  V6  1  0.50000000  0.50000000  0.00000000  1
  V  V7  1  0.00064400  0.62500000  0.87564400  1
  V  V8  1  0.87500000  0.49935600  0.12435600  1
  V  V9  1  0.50064400  0.62500000  0.37564400  1
  V  V10  1  0.37500000  0.75064400  0.87564400  1
  V  V11  1  0.25000000  0.75000000  0.50000000  1
  Co  Co0  1  0.12500000  0.87500000  0.75000000  1
  Co  Co1  1  0.62500000  0.87500000  0.75000000  1
  Co  Co2  1  0.62500000  0.37500000  0.75000000  1
  Co  Co3  1  0.12500000  0.37500000  0.75000000  1
  Co  Co4  1  0.62500000  0.37500000  0.25000000  1
  Co  Co5  1  0.12500000  0.37500000  0.25000000  1
  Co  Co6  1  0.12500000  0.87500000  0.25000000  1
  Co  Co7  1  0.62500000  0.87500000  0.25000000  1
  O  O0  1  0.74182800  0.98062700  0.16392800  1
  O  O1  1  0.13965800  0.98859500  0.95719100  1
  O  O2  1  0.33290200  0.89277700  0.87100000  1
  O  O3  1  0.01140500  0.96859600  0.15106300  1
  O  O4  1  0.83290200  0.96190200  0.44012500  1
  O  O5  1  0.10722300  0.97822300  0.44012500  1
  O  O6  1  0.32790000  0.06669800  0.33607200  1
  O  O7  1  0.22822300  0.28809800  0.37100000  1
  O  O8  1  0.42210000  0.25817200  0.23879800  1
  O  O9  1  0.60722300  0.16709800  0.12900000  1
  O  O10  1  0.43246700  0.88965800  0.65106300  1
  O  O11  1  0.01937300  0.18330200  0.76120200  1
  O  O12  1  0.61034200  0.06753300  0.34893700  1
  O  O13  1  0.24182800  0.07790000  0.76120200  1
  O  O14  1  0.21190200  0.27177700  0.62900000  1
  O  O15  1  0.43330200  0.17210000  0.66392800  1
  O  O16  1  0.03140400  0.18246700  0.04280900  1
  O  O17  1  0.73062700  0.99182800  0.66392800  1
  O  O18  1  0.93330200  0.26937300  0.26120200  1
  O  O19  1  0.52177700  0.39277700  0.55987500  1
  O  O20  1  0.73859500  0.38965800  0.45719100  1
  O  O21  1  0.71859600  0.26140500  0.65106300  1
  O  O22  1  0.71190200  0.08290200  0.94012500  1
  O  O23  1  0.31753300  0.46859600  0.95719100  1
  O  O24  1  0.93246700  0.28140400  0.54280900  1
  O  O25  1  0.53809800  0.66709800  0.55987500  1
  O  O26  1  0.53140400  0.48859500  0.84893700  1
  O  O27  1  0.51140500  0.36034200  0.04280900  1
  O  O28  1  0.72822300  0.35722300  0.94012500  1
  O  O29  1  0.31669800  0.48062700  0.23879800  1
  O  O30  1  0.51937300  0.75817200  0.83607200  1
  O  O31  1  0.21859600  0.56753300  0.45719100  1
  O  O32  1  0.81669800  0.57790000  0.83607200  1
  O  O33  1  0.03809800  0.47822300  0.87100000  1
  O  O34  1  0.00817200  0.67210000  0.73879800  1
  O  O35  1  0.63965800  0.68246700  0.15106300  1
  O  O36  1  0.23062700  0.56669800  0.73879800  1
  O  O37  1  0.81753300  0.86034200  0.84893700  1
  O  O38  1  0.64277700  0.58290200  0.37100000  1
  O  O39  1  0.82790000  0.49182800  0.26120200  1
  O  O40  1  0.02177700  0.46190200  0.12900000  1
  O  O41  1  0.92210000  0.68330200  0.16392800  1
  O  O42  1  0.14277700  0.77177700  0.05987500  1
  O  O43  1  0.41709800  0.78809800  0.05987500  1
  O  O44  1  0.23859500  0.78140400  0.34893700  1
  O  O45  1  0.91709800  0.85722300  0.62900000  1
  O  O46  1  0.11034200  0.76140500  0.54280900  1
  O  O47  1  0.50817200  0.76937300  0.33607200  1
loop_
_geom_bond_atom_site_label_1
_geom_bond_atom_site_label_2
_geom_bond_distance
_geom_bond_site_symmetry_2
Na0 O44 2.488461 1_545
Na0 O12 2.488461 1_555
Na0 O21 2.488461 1_555
Na0 O10 2.488461 1_545
Na0 O15 2.602196 1_555
Na0 O6 2.602196 1_555
Na0 O17 2.602204 1_545
Na0 O47 2.602204 1_545
Na1 O27 2.488461 1_555
Na1 O23 2.488461 1_554
Na1 O1 2.488461 1_544
Na1 O16 2.488461 1_555
Na1 O13 2.602196 1_554
Na1 O8 2.602196 1_555
Na1 O11 2.602202 1_554
Na1 O29 2.602202 1_555
Na2 O20 2.488461 1_455
Na2 O46 2.488461 1_555
Na2 O31 2.488461 1_555
Na2 O24 2.488461 1_455
Na2 O34 2.602196 1_555
Na2 O39 2.602196 1_455
Na2 O36 2.602202 1_555
Na2 O18 2.602202 1_455
Na3 O37 2.488461 1_554
Na3 O35 2.488461 1_555
Na3 O26 2.488461 1_554
Na3 O3 2.488461 1_655
Na3 O32 2.602196 1_554
Na3 O41 2.602196 1_555
Na3 O30 2.602204 1_554
Na3 O0 2.602204 1_555
Ca0 O18 2.425748 1_555
Ca0 O0 2.425758 1_545
Ca0 O14 2.443472 1_655
Ca0 O5 2.443472 1_645
Ca0 O24 2.534197 1_555
Ca0 O3 2.534197 1_645
Ca0 O4 2.546349 1_545
Ca0 O7 2.546349 1_655
Ca1 O8 2.425758 1_555
Ca1 O6 2.425758 1_555
Ca1 O2 2.443472 1_544
Ca1 O43 2.443472 1_545
Ca1 O12 2.534197 1_555
Ca1 O1 2.534197 1_544
Ca1 O9 2.546349 1_555
Ca1 O42 2.546349 1_545
Ca2 O15 2.425758 1_555
Ca2 O13 2.425758 1_555
Ca2 O9 2.443472 1_556
Ca2 O22 2.443472 1_555
Ca2 O10 2.534197 1_545
Ca2 O27 2.534197 1_556
Ca2 O28 2.546349 1_555
Ca2 O2 2.546349 1_545
Ca3 O36 2.425748 1_555
Ca3 O30 2.425758 1_555
Ca3 O7 2.443472 1_555
Ca3 O19 2.443472 1_555
Ca3 O31 2.534197 1_555
Ca3 O26 2.534197 1_555
Ca3 O25 2.546349 1_555
Ca3 O14 2.546349 1_555
Ca4 O34 2.425758 1_655
Ca4 O32 2.425758 1_555
Ca4 O25 2.443472 1_555
Ca4 O38 2.443472 1_555
Ca4 O20 2.534197 1_555
Ca4 O37 2.534197 1_555
Ca4 O45 2.546349 1_555
Ca4 O19 2.546349 1_555
Ca5 O11 2.425748 1_655
Ca5 O17 2.425758 1_545
Ca5 O40 2.443472 1_656
Ca5 O28 2.443472 1_555
Ca5 O21 2.534197 1_555
Ca5 O16 2.534197 1_656
Ca5 O33 2.546349 1_655
Ca5 O22 2.546349 1_555
Ca6 O39 2.425758 1_555
Ca6 O41 2.425758 1_555
Ca6 O45 2.443472 1_555
Ca6 O4 2.443472 1_555
Ca6 O46 2.534197 1_655
Ca6 O35 2.534197 1_555
Ca6 O38 2.546349 1_555
Ca6 O5 2.546349 1_655
Ca7 O29 2.425748 1_555
Ca7 O47 2.425758 1_555
Ca7 O33 2.443472 1_554
Ca7 O42 2.443472 1_555
Ca7 O44 2.534197 1_555
Ca7 O23 2.534197 1_554
Ca7 O43 2.546349 1_555
Ca7 O40 2.546349 1_555
Co0 O34 2.080387 1_555
Co0 O13 2.080387 1_565
Co0 O1 2.101130 1_555
Co0 O46 2.101130 1_555
Co0 O2 2.108915 1_555
Co0 O45 2.108915 1_455
Co1 O30 2.080392 1_555
Co1 O17 2.080392 1_555
Co1 O37 2.101130 1_555
Co1 O10 2.101130 1_555
Co1 O25 2.108915 1_555
Co1 O22 2.108915 1_565
Co2 O15 2.080387 1_555
Co2 O32 2.080387 1_555
Co2 O21 2.101130 1_555
Co2 O26 2.101130 1_555
Co2 O28 2.108915 1_555
Co2 O19 2.108915 1_555
Co3 O36 2.080389 1_555
Co3 O11 2.080389 1_555
Co3 O24 2.101130 1_455
Co3 O23 2.101130 1_555
Co3 O33 2.108915 1_555
Co3 O14 2.108915 1_555
Co4 O8 2.080387 1_555
Co4 O39 2.080387 1_555
Co4 O27 2.101130 1_555
Co4 O20 2.101130 1_555
Co4 O38 2.108915 1_555
Co4 O9 2.108915 1_555
Co5 O29 2.080389 1_555
Co5 O18 2.080389 1_455
Co5 O31 2.101130 1_555
Co5 O16 2.101130 1_555
Co5 O40 2.108915 1_555
Co5 O7 2.108915 1_555
Co6 O41 2.080387 1_455
Co6 O6 2.080387 1_565
Co6 O3 2.101130 1_555
Co6 O44 2.101130 1_555
Co6 O42 2.108915 1_555
Co6 O5 2.108915 1_555
Co7 O47 2.080392 1_555
Co7 O0 2.080392 1_555
Co7 O35 2.101130 1_555
Co7 O12 2.101130 1_565
Co7 O43 2.108915 1_555
Co7 O4 2.108915 1_555
O0 V3 1.744344 1_565
O1 V0 1.759987 1_566
O2 V10 1.765337 1_555
O3 V0 1.759987 1_565
O4 V1 1.765337 1_555
O5 V2 1.765337 1_565
O6 V4 1.744355 1_555
O7 V4 1.765337 1_555
O8 V4 1.744355 1_555
O9 V3 1.765337 1_555
O10 V11 1.759987 1_555
O11 V1 1.744352 1_445
O12 V5 1.759987 1_555
O13 V2 1.744355 1_555
O14 V2 1.765337 1_555
O15 V2 1.744355 1_555
O16 V0 1.759987 1_555
O17 V1 1.744344 1_555
O18 V3 1.744352 1_555
O19 V4 1.765337 1_555
O20 V5 1.759987 1_555
O21 V5 1.759987 1_555
O22 V3 1.765337 1_556
O23 V6 1.759987 1_556
O24 V5 1.759987 1_555
O25 V9 1.765337 1_555
O26 V6 1.759987 1_556
O27 V6 1.759987 1_555
O28 V8 1.765337 1_556
O29 V9 1.744352 1_555
O30 V10 1.744344 1_555
O31 V11 1.759987 1_555
O32 V7 1.744355 1_655
O33 V7 1.765337 1_555
O34 V7 1.744355 1_555
O35 V6 1.759987 1_555
O36 V10 1.744352 1_555
O37 V0 1.759987 1_666
O38 V9 1.765337 1_555
O39 V8 1.744355 1_555
O40 V8 1.765337 1_455
O41 V8 1.744355 1_555
O42 V7 1.765337 1_554
O43 V10 1.765337 1_554
O44 V11 1.759987 1_555
O45 V1 1.765337 1_555
O46 V11 1.759987 1_555
O47 V9 1.744344 1_555
