# generated using pymatgen
data_Ce3NCl6
_symmetry_space_group_name_H-M   'P 1'
_cell_length_a   10.65817981
_cell_length_b   11.25835733
_cell_length_c   16.52225887
_cell_angle_alpha   90.00000000
_cell_angle_beta   90.00000000
_cell_angle_gamma   90.00000000
_symmetry_Int_Tables_number   1
_chemical_formula_structural   Ce3NCl6
_chemical_formula_sum   'Ce24 N8 Cl48'
_cell_volume   1982.56526888
_cell_formula_units_Z   8
loop_
 _symmetry_equiv_pos_site_id
 _symmetry_equiv_pos_as_xyz
  1  'x, y, z'
loop_
 _atom_site_type_symbol
 _atom_site_label
 _atom_site_symmetry_multiplicity
 _atom_site_fract_x
 _atom_site_fract_y
 _atom_site_fract_z
 _atom_site_occupancy
  Ce  Ce0  1  0.51314675  0.21207243  0.45187792  1
  Ce  Ce1  1  0.65737888  0.46410986  0.32410709  1
  Ce  Ce2  1  0.36078816  0.97820280  0.93752674  1
  Ce  Ce3  1  0.65737888  0.03589014  0.82410709  1
  Ce  Ce4  1  0.15737888  0.03589014  0.67589291  1
  Ce  Ce5  1  0.01314675  0.21207243  0.04812208  1
  Ce  Ce6  1  0.98685325  0.78792757  0.95187792  1
  Ce  Ce7  1  0.48685325  0.78792757  0.54812208  1
  Ce  Ce8  1  0.63921184  0.47820280  0.56247326  1
  Ce  Ce9  1  0.34262112  0.53589014  0.67589291  1
  Ce  Ce10  1  0.86078816  0.52179720  0.06247326  1
  Ce  Ce11  1  0.01314675  0.28792757  0.54812208  1
  Ce  Ce12  1  0.34262112  0.96410986  0.17589291  1
  Ce  Ce13  1  0.15737888  0.46410986  0.17589291  1
  Ce  Ce14  1  0.13921184  0.02179720  0.43752674  1
  Ce  Ce15  1  0.84262112  0.96410986  0.32410709  1
  Ce  Ce16  1  0.36078816  0.52179720  0.43752674  1
  Ce  Ce17  1  0.51314675  0.28792757  0.95187792  1
  Ce  Ce18  1  0.98685325  0.71207243  0.45187792  1
  Ce  Ce19  1  0.13921184  0.47820280  0.93752674  1
  Ce  Ce20  1  0.86078816  0.97820280  0.56247326  1
  Ce  Ce21  1  0.84262112  0.53589014  0.82410709  1
  Ce  Ce22  1  0.63921184  0.02179720  0.06247326  1
  Ce  Ce23  1  0.48685325  0.71207243  0.04812208  1
  N  N0  1  0.94989709  0.59095670  0.93994079  1
  N  N1  1  0.05010291  0.40904330  0.06005921  1
  N  N2  1  0.55010291  0.09095670  0.93994079  1
  N  N3  1  0.94989709  0.90904330  0.43994079  1
  N  N4  1  0.44989709  0.90904330  0.06005921  1
  N  N5  1  0.05010291  0.09095670  0.56005921  1
  N  N6  1  0.55010291  0.40904330  0.43994079  1
  N  N7  1  0.44989709  0.59095670  0.56005921  1
  Cl  Cl0  1  0.62981090  0.56103353  0.16021797  1
  Cl  Cl1  1  0.87018910  0.06103353  0.16021797  1
  Cl  Cl2  1  0.66727856  0.21400178  0.31376264  1
  Cl  Cl3  1  0.66727856  0.28599822  0.81376264  1
  Cl  Cl4  1  0.14336209  0.53024820  0.55300842  1
  Cl  Cl5  1  0.89718472  0.42071638  0.22597472  1
  Cl  Cl6  1  0.35663791  0.03024820  0.55300842  1
  Cl  Cl7  1  0.16727856  0.28599822  0.68623736  1
  Cl  Cl8  1  0.46943924  0.18592567  0.12349384  1
  Cl  Cl9  1  0.24895006  0.28383098  0.45450162  1
  Cl  Cl10  1  0.03056076  0.68592567  0.12349384  1
  Cl  Cl11  1  0.25104994  0.78383098  0.45450162  1
  Cl  Cl12  1  0.10281528  0.92071638  0.27402528  1
  Cl  Cl13  1  0.96943924  0.31407433  0.87650616  1
  Cl  Cl14  1  0.37018910  0.43896647  0.83978203  1
  Cl  Cl15  1  0.96943924  0.18592567  0.37650616  1
  Cl  Cl16  1  0.16727856  0.21400178  0.18623736  1
  Cl  Cl17  1  0.12981090  0.93896647  0.83978203  1
  Cl  Cl18  1  0.33272144  0.71400178  0.18623736  1
  Cl  Cl19  1  0.03056076  0.81407433  0.62349384  1
  Cl  Cl20  1  0.14336209  0.96975180  0.05300842  1
  Cl  Cl21  1  0.25104994  0.71616902  0.95450162  1
  Cl  Cl22  1  0.62981090  0.93896647  0.66021797  1
  Cl  Cl23  1  0.64336209  0.96975180  0.44699158  1
  Cl  Cl24  1  0.12981090  0.56103353  0.33978203  1
  Cl  Cl25  1  0.89718472  0.07928362  0.72597472  1
  Cl  Cl26  1  0.60281528  0.57928362  0.72597472  1
  Cl  Cl27  1  0.39718472  0.42071638  0.27402528  1
  Cl  Cl28  1  0.75104994  0.78383098  0.04549838  1
  Cl  Cl29  1  0.24895006  0.21616902  0.95450162  1
  Cl  Cl30  1  0.39718472  0.07928362  0.77402528  1
  Cl  Cl31  1  0.83272144  0.78599822  0.81376264  1
  Cl  Cl32  1  0.85663791  0.46975180  0.44699158  1
  Cl  Cl33  1  0.64336209  0.53024820  0.94699158  1
  Cl  Cl34  1  0.33272144  0.78599822  0.68623736  1
  Cl  Cl35  1  0.35663791  0.46975180  0.05300842  1
  Cl  Cl36  1  0.10281528  0.57928362  0.77402528  1
  Cl  Cl37  1  0.60281528  0.92071638  0.22597472  1
  Cl  Cl38  1  0.53056076  0.81407433  0.87650616  1
  Cl  Cl39  1  0.53056076  0.68592567  0.37650616  1
  Cl  Cl40  1  0.83272144  0.71400178  0.31376264  1
  Cl  Cl41  1  0.37018910  0.06103353  0.33978203  1
  Cl  Cl42  1  0.87018910  0.43896647  0.66021797  1
  Cl  Cl43  1  0.75104994  0.71616902  0.54549838  1
  Cl  Cl44  1  0.74895006  0.21616902  0.54549838  1
  Cl  Cl45  1  0.85663791  0.03024820  0.94699158  1
  Cl  Cl46  1  0.74895006  0.28383098  0.04549838  1
  Cl  Cl47  1  0.46943924  0.31407433  0.62349384  1
loop_
_geom_bond_atom_site_label_1
_geom_bond_atom_site_label_2
_geom_bond_distance
_geom_bond_site_symmetry_2
Ce0 N6 2.260897 1_555
Ce0 Cl2 2.811861 1_555
Ce0 Cl9 2.929778 1_555
Ce0 Cl41 2.939947 1_555
Ce0 Cl44 2.951462 1_555
Ce0 Cl23 3.061923 1_545
Ce0 Cl47 3.094468 1_555
Ce0 Cl6 3.124877 1_555
Ce1 N6 2.313957 1_555
Ce1 Cl2 2.822961 1_555
Ce1 Cl0 2.934167 1_555
Ce1 Cl27 2.934959 1_555
Ce1 Cl32 2.938799 1_555
Ce1 Cl39 2.968653 1_555
Ce1 Cl5 3.065958 1_555
Ce1 Cl40 3.381836 1_555
Ce2 N4 2.367892 1_556
Ce2 N2 2.384186 1_565
Ce2 Cl38 2.775799 1_555
Ce2 Cl29 2.945696 1_565
Ce2 Cl30 2.956885 1_565
Ce2 Cl17 2.977194 1_555
Ce2 Cl20 3.003293 1_556
Ce2 Cl21 3.185837 1_555
Ce3 N2 2.313957 1_555
Ce3 Cl3 2.822961 1_555
Ce3 Cl22 2.934167 1_545
Ce3 Cl30 2.934959 1_555
Ce3 Cl45 2.938799 1_555
Ce3 Cl38 2.968653 1_545
Ce3 Cl25 3.065958 1_555
Ce3 Cl31 3.381836 1_545
Ce4 N5 2.313957 1_555
Ce4 Cl7 2.822961 1_555
Ce4 Cl17 2.934167 1_545
Ce4 Cl25 2.934959 1_455
Ce4 Cl6 2.938799 1_555
Ce4 Cl19 2.968653 1_545
Ce4 Cl30 3.065958 1_555
Ce4 Cl34 3.381836 1_545
Ce5 N1 2.260897 1_555
Ce5 Cl16 2.811861 1_555
Ce5 Cl46 2.929778 1_455
Ce5 Cl1 2.939947 1_455
Ce5 Cl29 2.951462 1_554
Ce5 Cl20 3.061923 1_545
Ce5 Cl13 3.094468 1_454
Ce5 Cl45 3.124877 1_454
Ce6 N0 2.260897 1_555
Ce6 Cl31 2.811861 1_555
Ce6 Cl21 2.929778 1_655
Ce6 Cl17 2.939947 1_655
Ce6 Cl28 2.951462 1_556
Ce6 Cl45 3.061923 1_565
Ce6 Cl10 3.094468 1_656
Ce6 Cl20 3.124877 1_656
Ce7 N7 2.260897 1_555
Ce7 Cl34 2.811861 1_555
Ce7 Cl43 2.929778 1_555
Ce7 Cl22 2.939947 1_555
Ce7 Cl11 2.951462 1_555
Ce7 Cl6 3.061923 1_565
Ce7 Cl39 3.094468 1_555
Ce7 Cl23 3.124877 1_555
Ce8 N6 2.367892 1_555
Ce8 N7 2.384186 1_555
Ce8 Cl47 2.775799 1_555
Ce8 Cl43 2.945696 1_555
Ce8 Cl26 2.956885 1_555
Ce8 Cl42 2.977194 1_555
Ce8 Cl32 3.003293 1_555
Ce8 Cl44 3.185837 1_555
Ce9 N7 2.313957 1_555
Ce9 Cl34 2.822961 1_555
Ce9 Cl14 2.934167 1_555
Ce9 Cl26 2.934959 1_555
Ce9 Cl4 2.938799 1_555
Ce9 Cl47 2.968653 1_555
Ce9 Cl36 3.065958 1_555
Ce9 Cl7 3.381836 1_555
Ce10 N0 2.367892 1_554
Ce10 N1 2.384186 1_655
Ce10 Cl10 2.775799 1_655
Ce10 Cl46 2.945696 1_555
Ce10 Cl5 2.956885 1_555
Ce10 Cl0 2.977194 1_555
Ce10 Cl33 3.003293 1_554
Ce10 Cl28 3.185837 1_555
Ce11 N5 2.260897 1_555
Ce11 Cl7 2.811861 1_555
Ce11 Cl44 2.929778 1_455
Ce11 Cl42 2.939947 1_455
Ce11 Cl9 2.951462 1_555
Ce11 Cl4 3.061923 1_555
Ce11 Cl15 3.094468 1_455
Ce11 Cl32 3.124877 1_455
Ce12 N4 2.313957 1_555
Ce12 Cl18 2.822961 1_555
Ce12 Cl41 2.934167 1_565
Ce12 Cl37 2.934959 1_555
Ce12 Cl20 2.938799 1_555
Ce12 Cl8 2.968653 1_565
Ce12 Cl12 3.065958 1_555
Ce12 Cl16 3.381836 1_565
Ce13 N1 2.313957 1_555
Ce13 Cl16 2.822961 1_555
Ce13 Cl24 2.934167 1_555
Ce13 Cl5 2.934959 1_455
Ce13 Cl35 2.938799 1_555
Ce13 Cl10 2.968653 1_555
Ce13 Cl27 3.065958 1_555
Ce13 Cl18 3.381836 1_555
Ce14 N5 2.367892 1_555
Ce14 N3 2.384186 1_445
Ce14 Cl15 2.775799 1_455
Ce14 Cl11 2.945696 1_545
Ce14 Cl12 2.956885 1_545
Ce14 Cl41 2.977194 1_555
Ce14 Cl6 3.003293 1_555
Ce14 Cl9 3.185837 1_555
Ce15 N3 2.313957 1_555
Ce15 Cl40 2.822961 1_555
Ce15 Cl1 2.934167 1_565
Ce15 Cl12 2.934959 1_655
Ce15 Cl23 2.938799 1_555
Ce15 Cl15 2.968653 1_565
Ce15 Cl37 3.065958 1_555
Ce15 Cl2 3.381836 1_565
Ce16 N7 2.367892 1_555
Ce16 N6 2.384186 1_555
Ce16 Cl39 2.775799 1_555
Ce16 Cl9 2.945696 1_555
Ce16 Cl27 2.956885 1_555
Ce16 Cl24 2.977194 1_555
Ce16 Cl4 3.003293 1_555
Ce16 Cl11 3.185837 1_555
Ce17 N2 2.260897 1_555
Ce17 Cl3 2.811861 1_555
Ce17 Cl29 2.929778 1_555
Ce17 Cl14 2.939947 1_555
Ce17 Cl46 2.951462 1_556
Ce17 Cl33 3.061923 1_555
Ce17 Cl8 3.094468 1_556
Ce17 Cl35 3.124877 1_556
Ce18 N3 2.260897 1_555
Ce18 Cl40 2.811861 1_555
Ce18 Cl11 2.929778 1_655
Ce18 Cl24 2.939947 1_655
Ce18 Cl43 2.951462 1_555
Ce18 Cl32 3.061923 1_555
Ce18 Cl19 3.094468 1_655
Ce18 Cl4 3.124877 1_655
Ce19 N1 2.367892 1_556
Ce19 N0 2.384186 1_455
Ce19 Cl13 2.775799 1_455
Ce19 Cl21 2.945696 1_555
Ce19 Cl36 2.956885 1_555
Ce19 Cl14 2.977194 1_555
Ce19 Cl35 3.003293 1_556
Ce19 Cl29 3.185837 1_555
Ce20 N3 2.367892 1_555
Ce20 N5 2.384186 1_665
Ce20 Cl19 2.775799 1_655
Ce20 Cl44 2.945696 1_565
Ce20 Cl25 2.956885 1_565
Ce20 Cl22 2.977194 1_555
Ce20 Cl23 3.003293 1_555
Ce20 Cl43 3.185837 1_555
Ce21 N0 2.313957 1_555
Ce21 Cl31 2.822961 1_555
Ce21 Cl42 2.934167 1_555
Ce21 Cl36 2.934959 1_655
Ce21 Cl33 2.938799 1_555
Ce21 Cl13 2.968653 1_555
Ce21 Cl26 3.065958 1_555
Ce21 Cl3 3.381836 1_555
Ce22 N2 2.367892 1_554
Ce22 N4 2.384186 1_545
Ce22 Cl8 2.775799 1_555
Ce22 Cl28 2.945696 1_545
Ce22 Cl37 2.956885 1_545
Ce22 Cl1 2.977194 1_555
Ce22 Cl45 3.003293 1_554
Ce22 Cl46 3.185837 1_555
Ce23 N4 2.260897 1_555
Ce23 Cl18 2.811861 1_555
Ce23 Cl28 2.929778 1_555
Ce23 Cl0 2.939947 1_555
Ce23 Cl21 2.951462 1_554
Ce23 Cl35 3.061923 1_555
Ce23 Cl38 3.094468 1_554
Ce23 Cl33 3.124877 1_554
