# generated using pymatgen
data_LaZr9O20
_symmetry_space_group_name_H-M   'P 1'
_cell_length_a   6.49391600
_cell_length_b   7.44586394
_cell_length_c   8.24292230
_cell_angle_alpha   77.37059099
_cell_angle_beta   75.44417822
_cell_angle_gamma   71.97038043
_symmetry_Int_Tables_number   1
_chemical_formula_structural   LaZr9O20
_chemical_formula_sum   'La1 Zr9 O20'
_cell_volume   362.51136905
_cell_formula_units_Z   1
loop_
 _symmetry_equiv_pos_site_id
 _symmetry_equiv_pos_as_xyz
  1  'x, y, z'
loop_
 _atom_site_type_symbol
 _atom_site_label
 _atom_site_symmetry_multiplicity
 _atom_site_fract_x
 _atom_site_fract_y
 _atom_site_fract_z
 _atom_site_occupancy
  La  La0  1  0.39880600  0.34898900  0.70047800  1
  Zr  Zr0  1  0.19193900  0.54939400  0.10390500  1
  Zr  Zr1  1  0.20309100  0.04419700  0.10091400  1
  Zr  Zr2  1  0.59552600  0.14684300  0.29896100  1
  Zr  Zr3  1  0.60336200  0.64981800  0.29834100  1
  Zr  Zr4  1  0.00479000  0.76034700  0.49183300  1
  Zr  Zr5  1  0.99599700  0.25505800  0.49472800  1
  Zr  Zr6  1  0.39392400  0.85138300  0.70422000  1
  Zr  Zr7  1  0.80943100  0.95023800  0.89873100  1
  Zr  Zr8  1  0.79583000  0.44997700  0.90283500  1
  O  O0  1  0.58459800  0.47199200  0.14070800  1
  O  O1  1  0.87786100  0.67394700  0.03639100  1
  O  O2  1  0.00149900  0.06105300  0.34043200  1
  O  O3  1  0.28123000  0.27664200  0.24194300  1
  O  O4  1  0.81060700  0.12760000  0.06549400  1
  O  O5  1  0.51084600  0.93006100  0.17398200  1
  O  O6  1  0.38254400  0.68080200  0.53214800  1
  O  O7  1  0.68996100  0.87249600  0.43949300  1
  O  O8  1  0.21935100  0.72773000  0.25440600  1
  O  O9  1  0.92067900  0.53158300  0.35057000  1
  O  O10  1  0.79354900  0.26145400  0.74479500  1
  O  O11  1  0.04870200  0.48386300  0.63264100  1
  O  O12  1  0.64779900  0.32263600  0.44153300  1
  O  O13  1  0.31691700  0.12264300  0.55439400  1
  O  O14  1  0.16518800  0.88334800  0.93682600  1
  O  O15  1  0.48604400  0.03722200  0.85392600  1
  O  O16  1  0.01917300  0.92484900  0.66206000  1
  O  O17  1  0.72079800  0.72613300  0.75653300  1
  O  O18  1  0.42073300  0.54955700  0.87491200  1
  O  O19  1  0.10922600  0.32814300  0.97186700  1
loop_
_geom_bond_atom_site_label_1
_geom_bond_atom_site_label_2
_geom_bond_distance
_geom_bond_site_symmetry_2
La0 O12 2.336856 1_555
La0 O11 2.338872 1_555
La0 O18 2.343385 1_555
La0 O15 2.360451 1_555
La0 O13 2.517391 1_555
La0 O6 2.540377 1_555
La0 O10 2.541998 1_555
La0 O19 2.545402 1_555
O0 Zr3 2.094783 1_555
O0 Zr8 2.098222 1_554
O0 Zr2 2.475308 1_555
O0 Zr0 2.515715 1_555
O1 Zr7 2.093801 1_554
O1 Zr0 2.122190 1_655
O1 Zr8 2.433988 1_554
O1 Zr3 2.442552 1_555
O2 Zr1 2.082070 1_555
O2 Zr5 2.110490 1_455
O2 Zr4 2.309331 1_545
O2 Zr2 2.605823 1_455
O3 Zr0 2.085075 1_555
O3 Zr2 2.093601 1_555
O3 Zr5 2.428241 1_455
O3 Zr1 2.514824 1_555
O4 Zr2 2.078578 1_555
O4 Zr7 2.106890 1_544
O4 Zr8 2.466463 1_554
O4 Zr1 2.506400 1_655
O5 Zr3 2.089027 1_555
O5 Zr1 2.099757 1_565
O5 Zr2 2.351693 1_565
O5 Zr7 2.598074 1_554
O6 Zr3 2.103408 1_555
O6 Zr6 2.128153 1_555
O6 Zr4 2.429659 1_555
O7 Zr4 2.071793 1_655
O7 Zr2 2.106571 1_565
O7 Zr3 2.483691 1_555
O7 Zr6 2.531920 1_555
O8 Zr0 2.076438 1_555
O8 Zr4 2.111469 1_555
O8 Zr1 2.402884 1_565
O8 Zr3 2.480519 1_555
O9 Zr3 2.088971 1_555
O9 Zr5 2.118834 1_555
O9 Zr0 2.341170 1_655
O9 Zr4 2.513671 1_655
O10 Zr8 2.118941 1_555
O10 Zr5 2.149785 1_555
O10 Zr7 2.371183 1_545
O11 Zr4 2.103488 1_555
O11 Zr5 2.390674 1_455
O11 Zr8 2.427554 1_455
O12 Zr2 2.087554 1_555
O12 Zr5 2.292580 1_555
O12 Zr3 2.426913 1_555
O13 Zr6 2.109309 1_545
O13 Zr5 2.142051 1_455
O13 Zr2 2.420785 1_555
O14 Zr1 2.093465 1_566
O14 Zr6 2.118595 1_555
O14 Zr7 2.295200 1_455
O14 Zr0 2.542698 1_556
O15 Zr7 2.099853 1_545
O15 Zr6 2.329277 1_545
O15 Zr1 2.372912 1_556
O16 Zr7 2.088788 1_455
O16 Zr4 2.089531 1_555
O16 Zr6 2.420814 1_555
O16 Zr5 2.522421 1_465
O17 Zr8 2.123818 1_555
O17 Zr6 2.149493 1_555
O17 Zr4 2.500380 1_655
O17 Zr7 2.505693 1_555
O18 Zr0 2.088273 1_556
O18 Zr6 2.357706 1_555
O18 Zr8 2.371768 1_555
O19 Zr8 2.121829 1_455
O19 Zr1 2.125496 1_556
O19 Zr0 2.410950 1_556
