# generated using pymatgen
data_Ba3Y(BO3)3
_symmetry_space_group_name_H-M   'P 1'
_cell_length_a   9.50763574
_cell_length_b   9.50763574
_cell_length_c   18.11366400
_cell_angle_alpha   90.00000000
_cell_angle_beta   90.00000000
_cell_angle_gamma   119.99999816
_symmetry_Int_Tables_number   1
_chemical_formula_structural   Ba3Y(BO3)3
_chemical_formula_sum   'Ba18 Y6 B18 O54'
_cell_volume   1418.01888866
_cell_formula_units_Z   6
loop_
 _symmetry_equiv_pos_site_id
 _symmetry_equiv_pos_as_xyz
  1  'x, y, z'
loop_
 _atom_site_type_symbol
 _atom_site_label
 _atom_site_symmetry_multiplicity
 _atom_site_fract_x
 _atom_site_fract_y
 _atom_site_fract_z
 _atom_site_occupancy
  Ba  Ba0  1  0.33333300  0.66666700  0.27810200  1
  Ba  Ba1  1  0.00000000  0.65130900  0.13211700  1
  Ba  Ba2  1  0.65130900  0.00000000  0.13211700  1
  Ba  Ba3  1  0.34869100  0.00000000  0.63211700  1
  Ba  Ba4  1  0.00000000  0.34869100  0.63211700  1
  Ba  Ba5  1  0.34869100  0.34869100  0.13211700  1
  Ba  Ba6  1  0.65130900  0.65130900  0.63211700  1
  Ba  Ba7  1  0.66666700  0.33333300  0.77810200  1
  Ba  Ba8  1  0.33333300  0.66666700  0.77810200  1
  Ba  Ba9  1  0.66666700  0.33333300  0.27810200  1
  Ba  Ba10  1  0.00000000  0.00000000  0.71707800  1
  Ba  Ba11  1  0.00000000  0.00000000  0.21707800  1
  Ba  Ba12  1  0.31700100  0.31700100  0.36925800  1
  Ba  Ba13  1  0.00000000  0.31700100  0.86925800  1
  Ba  Ba14  1  0.31700100  0.00000000  0.86925800  1
  Ba  Ba15  1  0.68299900  0.00000000  0.36925800  1
  Ba  Ba16  1  0.00000000  0.68299900  0.36925800  1
  Ba  Ba17  1  0.68299900  0.68299900  0.86925800  1
  Y  Y0  1  0.00000000  0.00000000  0.00359600  1
  Y  Y1  1  0.00000000  0.00000000  0.50359600  1
  Y  Y2  1  0.66666700  0.33333300  0.99768700  1
  Y  Y3  1  0.33333300  0.66666700  0.49768700  1
  Y  Y4  1  0.66666700  0.33333300  0.49768700  1
  Y  Y5  1  0.33333300  0.66666700  0.99768700  1
  B  B0  1  0.65967000  0.65967000  0.42107100  1
  B  B1  1  0.00000000  0.65967000  0.92107100  1
  B  B2  1  0.65967000  0.00000000  0.92107100  1
  B  B3  1  0.34033000  0.00000000  0.42107100  1
  B  B4  1  0.00000000  0.34033000  0.42107100  1
  B  B5  1  0.34033000  0.34033000  0.92107100  1
  B  B6  1  0.66739900  0.66739900  0.24983700  1
  B  B7  1  0.00000000  0.66739900  0.74983700  1
  B  B8  1  0.66739900  0.00000000  0.74983700  1
  B  B9  1  0.33260100  0.00000000  0.24983700  1
  B  B10  1  0.00000000  0.33260100  0.24983700  1
  B  B11  1  0.33260100  0.33260100  0.74983700  1
  B  B12  1  0.67397400  0.67397400  0.07513200  1
  B  B13  1  0.00000000  0.67397400  0.57513200  1
  B  B14  1  0.67397400  0.00000000  0.57513200  1
  B  B15  1  0.32602600  0.00000000  0.07513200  1
  B  B16  1  0.00000000  0.32602600  0.07513200  1
  B  B17  1  0.32602600  0.32602600  0.57513200  1
  O  O0  1  0.85313700  0.66728500  0.75028900  1
  O  O1  1  0.00000000  0.80538200  0.93093000  1
  O  O2  1  0.80538200  0.00000000  0.93093000  1
  O  O3  1  0.19461800  0.00000000  0.43093000  1
  O  O4  1  0.00000000  0.19461800  0.43093000  1
  O  O5  1  0.66084000  0.14660000  0.91571800  1
  O  O6  1  0.18110400  0.18110400  0.58511400  1
  O  O7  1  0.00000000  0.18110400  0.08511400  1
  O  O8  1  0.18110400  0.00000000  0.08511400  1
  O  O9  1  0.81889600  0.00000000  0.58511400  1
  O  O10  1  0.00000000  0.81889600  0.58511400  1
  O  O11  1  0.81889600  0.81889600  0.08511400  1
  O  O12  1  0.32584100  0.47184500  0.57042000  1
  O  O13  1  0.85399500  0.32584100  0.07042000  1
  O  O14  1  0.47184500  0.14600500  0.07042000  1
  O  O15  1  0.52815500  0.85399500  0.57042000  1
  O  O16  1  0.14600500  0.67415900  0.57042000  1
  O  O17  1  0.67415900  0.52815500  0.07042000  1
  O  O18  1  0.14600500  0.47184500  0.07042000  1
  O  O19  1  0.32584100  0.85399500  0.07042000  1
  O  O20  1  0.52815500  0.67415900  0.07042000  1
  O  O21  1  0.47184500  0.32584100  0.57042000  1
  O  O22  1  0.85399500  0.52815500  0.57042000  1
  O  O23  1  0.67415900  0.14600500  0.57042000  1
  O  O24  1  0.18585200  0.33271500  0.75028900  1
  O  O25  1  0.85313700  0.18585200  0.25028900  1
  O  O26  1  0.33271500  0.14686300  0.25028900  1
  O  O27  1  0.66728500  0.85313700  0.75028900  1
  O  O28  1  0.14686300  0.81414800  0.75028900  1
  O  O29  1  0.81414800  0.66728500  0.25028900  1
  O  O30  1  0.14686300  0.33271500  0.25028900  1
  O  O31  1  0.18585200  0.85313700  0.25028900  1
  O  O32  1  0.66728500  0.81414800  0.25028900  1
  O  O33  1  0.33271500  0.18585200  0.75028900  1
  O  O34  1  0.80538200  0.80538200  0.43093000  1
  O  O35  1  0.81414800  0.14686300  0.75028900  1
  O  O36  1  0.47946700  0.47946700  0.74963400  1
  O  O37  1  0.00000000  0.47946700  0.24963400  1
  O  O38  1  0.47946700  0.00000000  0.24963400  1
  O  O39  1  0.52053300  0.00000000  0.74963400  1
  O  O40  1  0.00000000  0.52053300  0.74963400  1
  O  O41  1  0.52053300  0.52053300  0.24963400  1
  O  O42  1  0.33916000  0.48576000  0.91571800  1
  O  O43  1  0.85340000  0.33916000  0.41571800  1
  O  O44  1  0.48576000  0.14660000  0.41571800  1
  O  O45  1  0.51424000  0.85340000  0.91571800  1
  O  O46  1  0.14660000  0.66084000  0.91571800  1
  O  O47  1  0.66084000  0.51424000  0.41571800  1
  O  O48  1  0.14660000  0.48576000  0.41571800  1
  O  O49  1  0.33916000  0.85340000  0.41571800  1
  O  O50  1  0.51424000  0.66084000  0.41571800  1
  O  O51  1  0.48576000  0.33916000  0.91571800  1
  O  O52  1  0.85340000  0.51424000  0.91571800  1
  O  O53  1  0.19461800  0.19461800  0.93093000  1
loop_
_geom_bond_atom_site_label_1
_geom_bond_atom_site_label_2
_geom_bond_distance
_geom_bond_site_symmetry_2
Ba0 O38 2.799451 1_565
Ba0 O37 2.799452 1_555
Ba0 O41 2.799460 1_555
Ba0 O31 2.801613 1_555
Ba0 O30 2.801621 1_555
Ba0 O32 2.801621 1_555
Ba0 O49 3.044737 1_555
Ba0 O48 3.044739 1_555
Ba0 O50 3.044742 1_555
Ba1 O37 2.683383 1_555
Ba1 O29 2.827661 1_455
Ba1 O31 2.827661 1_555
Ba1 O13 2.907897 1_455
Ba1 O18 2.907905 1_555
Ba1 O19 2.930866 1_555
Ba1 O17 2.930868 1_455
Ba1 O11 2.995338 1_455
Ba1 O8 2.995339 1_565
Ba2 O38 2.683383 1_555
Ba2 O32 2.827661 1_545
Ba2 O25 2.827661 1_555
Ba2 O19 2.907897 1_545
Ba2 O14 2.907905 1_555
Ba2 O13 2.930866 1_555
Ba2 O20 2.930868 1_545
Ba2 O11 2.995338 1_545
Ba2 O7 2.995339 1_655
Ba3 O39 2.683383 1_555
Ba3 O33 2.827661 1_555
Ba3 O28 2.827661 1_545
Ba3 O23 2.907897 1_555
Ba3 O15 2.907905 1_545
Ba3 O16 2.930866 1_545
Ba3 O21 2.930868 1_555
Ba3 O6 2.995338 1_555
Ba3 O10 2.995339 1_545
Ba4 O40 2.683383 1_555
Ba4 O24 2.827661 1_555
Ba4 O35 2.827661 1_455
Ba4 O16 2.907897 1_555
Ba4 O22 2.907905 1_455
Ba4 O23 2.930866 1_455
Ba4 O12 2.930868 1_555
Ba4 O6 2.995338 1_555
Ba4 O9 2.995339 1_455
Ba5 O41 2.683384 1_555
Ba5 O26 2.827661 1_555
Ba5 O30 2.827661 1_555
Ba5 O20 2.907897 1_555
Ba5 O17 2.907897 1_555
Ba5 O18 2.930859 1_555
Ba5 O14 2.930859 1_555
Ba5 O8 2.995339 1_555
Ba5 O7 2.995339 1_555
Ba6 O36 2.683384 1_555
Ba6 O27 2.827661 1_555
Ba6 O0 2.827661 1_555
Ba6 O12 2.907897 1_555
Ba6 O21 2.907897 1_555
Ba6 O22 2.930859 1_555
Ba6 O15 2.930859 1_555
Ba6 O9 2.995339 1_565
Ba6 O10 2.995339 1_655
Ba7 O39 2.799451 1_555
Ba7 O40 2.799452 1_655
Ba7 O36 2.799460 1_555
Ba7 O35 2.801613 1_555
Ba7 O0 2.801621 1_555
Ba7 O33 2.801621 1_555
Ba7 O5 3.044737 1_555
Ba7 O52 3.044739 1_555
Ba7 O51 3.044742 1_555
Ba8 O40 2.799451 1_555
Ba8 O39 2.799452 1_565
Ba8 O36 2.799460 1_555
Ba8 O28 2.801613 1_555
Ba8 O27 2.801621 1_555
Ba8 O24 2.801621 1_555
Ba8 O46 3.044737 1_555
Ba8 O45 3.044739 1_555
Ba8 O42 3.044742 1_555
Ba9 O37 2.799451 1_655
Ba9 O38 2.799452 1_555
Ba9 O41 2.799460 1_555
Ba9 O25 2.801613 1_555
Ba9 O26 2.801621 1_555
Ba9 O29 2.801621 1_555
Ba9 O43 3.044737 1_555
Ba9 O44 3.044739 1_555
Ba9 O47 3.044742 1_555
Ba10 O28 2.810916 1_545
Ba10 O35 2.810916 1_455
Ba10 O27 2.810916 1_445
Ba10 O0 2.810916 1_445
Ba10 O33 2.810916 1_555
Ba10 O24 2.810916 1_555
Ba10 O10 2.945950 1_545
Ba10 O9 2.945950 1_455
Ba10 O6 2.945950 1_555
Ba11 O25 2.810916 1_455
Ba11 O31 2.810916 1_545
Ba11 O26 2.810916 1_555
Ba11 O30 2.810916 1_555
Ba11 O32 2.810916 1_445
Ba11 O29 2.810916 1_445
Ba11 O7 2.945950 1_555
Ba11 O8 2.945950 1_555
Ba11 O11 2.945950 1_445
Ba12 O30 2.743088 1_555
Ba12 O26 2.743088 1_555
Ba12 O3 2.859838 1_555
Ba12 O4 2.859838 1_555
Ba12 O41 2.905132 1_555
Ba12 O48 2.916653 1_555
Ba12 O44 2.916653 1_555
Ba12 O50 2.963345 1_555
Ba12 O47 2.963345 1_555
Ba13 O24 2.743088 1_555
Ba13 O35 2.743088 1_455
Ba13 O53 2.859838 1_555
Ba13 O2 2.859838 1_455
Ba13 O40 2.905132 1_555
Ba13 O42 2.916653 1_555
Ba13 O5 2.916653 1_455
Ba13 O52 2.963345 1_455
Ba13 O46 2.963345 1_555
Ba14 O33 2.743088 1_555
Ba14 O28 2.743088 1_545
Ba14 O53 2.859838 1_555
Ba14 O1 2.859838 1_545
Ba14 O39 2.905132 1_555
Ba14 O51 2.916653 1_555
Ba14 O46 2.916653 1_545
Ba14 O45 2.963345 1_545
Ba14 O5 2.963345 1_555
Ba15 O32 2.743088 1_545
Ba15 O25 2.743088 1_555
Ba15 O34 2.859838 1_545
Ba15 O4 2.859838 1_655
Ba15 O38 2.905132 1_555
Ba15 O50 2.916653 1_545
Ba15 O43 2.916653 1_555
Ba15 O44 2.963345 1_555
Ba15 O49 2.963345 1_545
Ba16 O29 2.743088 1_455
Ba16 O31 2.743088 1_555
Ba16 O34 2.859838 1_455
Ba16 O3 2.859838 1_565
Ba16 O37 2.905132 1_555
Ba16 O47 2.916653 1_455
Ba16 O49 2.916653 1_555
Ba16 O48 2.963345 1_555
Ba16 O43 2.963345 1_455
Ba17 O0 2.743088 1_555
Ba17 O27 2.743088 1_555
Ba17 O2 2.859838 1_565
Ba17 O1 2.859838 1_655
Ba17 O36 2.905132 1_555
Ba17 O52 2.916653 1_555
Ba17 O45 2.916653 1_555
Ba17 O51 2.963345 1_555
Ba17 O42 2.963345 1_555
B0 O50 1.391673 1_555
B0 O47 1.391673 1_555
B0 O34 1.396839 1_555
B1 O46 1.391673 1_555
B1 O52 1.391673 1_455
B1 O1 1.396839 1_555
B2 O5 1.391673 1_555
B2 O45 1.391673 1_545
B2 O2 1.396839 1_555
B3 O49 1.391673 1_545
B3 O44 1.391673 1_555
B3 O3 1.396839 1_555
B4 O43 1.391673 1_455
B4 O48 1.391673 1_555
B4 O4 1.396839 1_555
B5 O42 1.391673 1_555
B5 O51 1.391673 1_555
B5 O53 1.396839 1_555
B6 O29 1.395802 1_555
B6 O32 1.395802 1_555
B6 O41 1.396353 1_555
B7 O0 1.395802 1_455
B7 O28 1.395802 1_555
B7 O40 1.396353 1_555
B8 O27 1.395802 1_545
B8 O35 1.395802 1_555
B8 O39 1.396353 1_555
B9 O26 1.395802 1_555
B9 O31 1.395802 1_545
B9 O38 1.396353 1_555
B10 O30 1.395802 1_555
B10 O25 1.395802 1_455
B10 O37 1.396353 1_555
B11 O24 1.395802 1_555
B11 O33 1.395802 1_555
B11 O36 1.396353 1_555
B12 O11 1.389678 1_555
B12 O20 1.389897 1_555
B12 O17 1.389897 1_555
B13 O10 1.389678 1_555
B13 O22 1.389902 1_455
B13 O16 1.389907 1_555
B14 O9 1.389678 1_555
B14 O15 1.389902 1_545
B14 O23 1.389907 1_555
B15 O8 1.389678 1_555
B15 O14 1.389902 1_555
B15 O19 1.389907 1_545
B16 O7 1.389678 1_555
B16 O18 1.389902 1_555
B16 O13 1.389907 1_455
B17 O6 1.389678 1_555
B17 O12 1.389897 1_555
B17 O21 1.389897 1_555
O1 Y0 2.270755 1_566
O2 Y0 2.270755 1_656
O3 Y1 2.270755 1_555
O4 Y1 2.270755 1_555
O5 Y2 2.293737 1_555
O6 Y1 2.268294 1_555
O7 Y0 2.268294 1_555
O8 Y0 2.268294 1_555
O9 Y1 2.268294 1_655
O10 Y1 2.268294 1_565
O11 Y0 2.268294 1_665
O12 Y3 2.244959 1_555
O13 Y2 2.244943 1_554
O14 Y2 2.244951 1_554
O15 Y3 2.244951 1_555
O16 Y3 2.244943 1_555
O17 Y2 2.244959 1_554
O18 Y5 2.244951 1_554
O19 Y5 2.244943 1_554
O20 Y5 2.244959 1_554
O21 Y4 2.244959 1_555
O22 Y4 2.244951 1_555
O23 Y4 2.244943 1_555
O34 Y1 2.270755 1_665
O42 Y5 2.293744 1_555
O43 Y4 2.293737 1_555
O44 Y4 2.293740 1_555
O45 Y5 2.293740 1_555
O46 Y5 2.293737 1_555
O47 Y4 2.293744 1_555
O48 Y3 2.293740 1_555
O49 Y3 2.293737 1_555
O50 Y3 2.293744 1_555
O51 Y2 2.293744 1_555
O52 Y2 2.293740 1_555
O53 Y0 2.270755 1_556
