# generated using pymatgen
data_U3Se5
_symmetry_space_group_name_H-M   'P 1'
_cell_length_a   7.84139946
_cell_length_b   8.38042145
_cell_length_c   12.47414929
_cell_angle_alpha   90.00000000
_cell_angle_beta   90.00000000
_cell_angle_gamma   90.00000000
_symmetry_Int_Tables_number   1
_chemical_formula_structural   U3Se5
_chemical_formula_sum   'U12 Se20'
_cell_volume   819.72914335
_cell_formula_units_Z   4
loop_
 _symmetry_equiv_pos_site_id
 _symmetry_equiv_pos_as_xyz
  1  'x, y, z'
loop_
 _atom_site_type_symbol
 _atom_site_label
 _atom_site_symmetry_multiplicity
 _atom_site_fract_x
 _atom_site_fract_y
 _atom_site_fract_z
 _atom_site_occupancy
  U  U0  1  0.52108460  0.49942922  0.32107835  1
  U  U1  1  0.97891540  0.00057078  0.82107835  1
  U  U2  1  0.47891540  -0.00057078  0.67892165  1
  U  U3  1  0.02108460  0.50057078  0.17892165  1
  U  U4  1  0.47891540  0.50057078  0.67892165  1
  U  U5  1  0.02108460  -0.00057078  0.17892165  1
  U  U6  1  0.52108460  0.00057078  0.32107835  1
  U  U7  1  0.97891540  0.49942922  0.82107835  1
  U  U8  1  0.07409679  0.75000000  0.49166453  1
  U  U9  1  0.42590321  0.75000000  0.99166453  1
  U  U10  1  0.92590321  0.25000000  0.50833547  1
  U  U11  1  0.57409679  0.25000000  0.00833547  1
  Se  Se0  1  0.83565106  0.95573932  0.59900779  1
  Se  Se1  1  0.66434894  0.54426068  0.09900779  1
  Se  Se2  1  0.16434894  0.45573932  0.40099221  1
  Se  Se3  1  0.33565106  0.04426068  0.90099221  1
  Se  Se4  1  0.16434894  0.04426068  0.40099221  1
  Se  Se5  1  0.33565106  0.45573932  0.90099221  1
  Se  Se6  1  0.83565106  0.54426068  0.59900779  1
  Se  Se7  1  0.66434894  0.95573932  0.09900779  1
  Se  Se8  1  0.82752006  0.75000000  0.31482329  1
  Se  Se9  1  0.67247994  0.75000000  0.81482329  1
  Se  Se10  1  0.17247994  0.25000000  0.68517671  1
  Se  Se11  1  0.32752006  0.25000000  0.18517671  1
  Se  Se12  1  0.45887839  0.75000000  0.50098772  1
  Se  Se13  1  0.04112161  0.75000000  0.00098772  1
  Se  Se14  1  0.54112161  0.25000000  0.49901228  1
  Se  Se15  1  0.95887839  0.25000000  0.99901228  1
  Se  Se16  1  0.19814811  0.75000000  0.71615425  1
  Se  Se17  1  0.30185189  0.75000000  0.21615425  1
  Se  Se18  1  0.80185189  0.25000000  0.28384575  1
  Se  Se19  1  0.69814811  0.25000000  0.78384575  1
loop_
_geom_bond_atom_site_label_1
_geom_bond_atom_site_label_2
_geom_bond_distance
_geom_bond_site_symmetry_2
Se0 U10 2.803825 1_565
Se0 U8 2.874322 1_655
Se0 U2 2.992108 1_565
Se0 U1 3.012781 1_565
Se1 U11 2.803825 1_555
Se1 U9 2.874322 1_554
Se1 U3 2.992108 1_655
Se1 U0 3.012781 1_555
Se2 U8 2.803825 1_555
Se2 U10 2.874322 1_455
Se2 U0 2.992108 1_555
Se2 U3 3.012781 1_555
Se3 U9 2.803825 1_545
Se3 U11 2.874322 1_556
Se3 U1 2.992108 1_455
Se3 U2 3.012781 1_555
Se4 U8 2.803825 1_545
Se4 U10 2.874322 1_455
Se4 U6 2.992108 1_555
Se4 U5 3.012781 1_555
Se5 U9 2.803825 1_555
Se5 U11 2.874322 1_556
Se5 U7 2.992108 1_455
Se5 U4 3.012781 1_555
Se6 U10 2.803825 1_555
Se6 U8 2.874322 1_655
Se6 U4 2.992108 1_555
Se6 U7 3.012781 1_555
Se7 U11 2.803825 1_565
Se7 U9 2.874322 1_554
Se7 U5 2.992108 1_665
Se7 U6 3.012781 1_565
Se8 U8 2.933366 1_655
Se8 U5 3.089840 1_665
Se8 U3 3.089840 1_655
Se8 U0 3.192094 1_555
Se8 U6 3.192094 1_565
Se9 U9 2.933366 1_555
Se9 U2 3.089840 1_565
Se9 U4 3.089840 1_555
Se9 U7 3.192094 1_555
Se9 U1 3.192094 1_565
Se10 U10 2.933366 1_455
Se10 U7 3.089840 1_455
Se10 U1 3.089840 1_455
Se10 U2 3.192094 1_555
Se10 U4 3.192094 1_555
Se11 U11 2.933366 1_555
Se11 U6 3.089840 1_555
Se11 U0 3.089840 1_555
Se11 U5 3.192094 1_555
Se11 U3 3.192094 1_555
Se12 U8 3.019467 1_555
Se12 U4 3.052973 1_555
Se12 U2 3.052973 1_565
Se12 U0 3.111908 1_555
Se12 U6 3.111908 1_565
Se13 U9 3.019467 1_554
Se13 U3 3.052973 1_555
Se13 U5 3.052973 1_565
Se13 U7 3.111908 1_454
Se13 U1 3.111908 1_464
Se14 U10 3.019467 1_555
Se14 U0 3.052973 1_555
Se14 U6 3.052973 1_555
Se14 U4 3.111908 1_555
Se14 U2 3.111908 1_555
Se15 U11 3.019467 1_556
Se15 U7 3.052973 1_555
Se15 U1 3.052973 1_555
Se15 U5 3.111908 1_656
Se15 U3 3.111908 1_656
Se16 U8 2.964456 1_555
Se16 U7 3.012950 1_455
Se16 U1 3.012950 1_465
Se16 U2 3.071194 1_565
Se16 U4 3.071194 1_555
Se17 U9 2.964456 1_554
Se17 U0 3.012950 1_555
Se17 U6 3.012950 1_565
Se17 U5 3.071194 1_565
Se17 U3 3.071194 1_555
Se18 U10 2.964456 1_555
Se18 U5 3.012950 1_655
Se18 U3 3.012950 1_655
Se18 U6 3.071194 1_555
Se18 U0 3.071194 1_555
Se19 U11 2.964456 1_556
Se19 U4 3.012950 1_555
Se19 U2 3.012950 1_555
Se19 U7 3.071194 1_555
Se19 U1 3.071194 1_555
