# generated using pymatgen
data_Sr2La6TiCu3O16
_symmetry_space_group_name_H-M   'P 1'
_cell_length_a   7.08741243
_cell_length_b   7.08741243
_cell_length_c   10.86787700
_cell_angle_alpha   90.00000000
_cell_angle_beta   90.00000000
_cell_angle_gamma   134.86514904
_symmetry_Int_Tables_number   1
_chemical_formula_structural   Sr2La6TiCu3O16
_chemical_formula_sum   'Sr2 La6 Ti1 Cu3 O16'
_cell_volume   386.92329642
_cell_formula_units_Z   1
loop_
 _symmetry_equiv_pos_site_id
 _symmetry_equiv_pos_as_xyz
  1  'x, y, z'
loop_
 _atom_site_type_symbol
 _atom_site_label
 _atom_site_symmetry_multiplicity
 _atom_site_fract_x
 _atom_site_fract_y
 _atom_site_fract_z
 _atom_site_occupancy
  Sr  Sr0  1  0.14435000  0.85565000  0.00000000  1
  Sr  Sr1  1  0.85565000  0.14435000  0.00000000  1
  La  La0  1  0.64075400  0.35924600  0.74325000  1
  La  La1  1  0.35924600  0.64075400  0.25675000  1
  La  La2  1  0.64075400  0.35924600  0.25675000  1
  La  La3  1  0.13898500  0.86101500  0.50000000  1
  La  La4  1  0.86101500  0.13898500  0.50000000  1
  La  La5  1  0.35924600  0.64075400  0.74325000  1
  Ti  Ti0  1  0.50000000  0.50000000  0.00000000  1
  Cu  Cu0  1  0.00000000  0.00000000  0.75083800  1
  Cu  Cu1  1  0.00000000  0.00000000  0.24916200  1
  Cu  Cu2  1  0.50000000  0.50000000  0.50000000  1
  O  O0  1  0.81333500  0.18666500  0.74426700  1
  O  O1  1  0.25473100  0.25473100  0.87300800  1
  O  O2  1  0.74526900  0.74526900  0.87300800  1
  O  O3  1  0.34146200  0.65853800  0.00000000  1
  O  O4  1  0.65853800  0.34146200  0.00000000  1
  O  O5  1  0.25473100  0.25473100  0.12699200  1
  O  O6  1  0.74526900  0.74526900  0.12699200  1
  O  O7  1  0.18666500  0.81333500  0.25573300  1
  O  O8  1  0.81333500  0.18666500  0.25573300  1
  O  O9  1  0.24853300  0.24853300  0.37467300  1
  O  O10  1  0.75146700  0.75146700  0.37467300  1
  O  O11  1  0.31599700  0.68400300  0.50000000  1
  O  O12  1  0.68400300  0.31599700  0.50000000  1
  O  O13  1  0.24853300  0.24853300  0.62532700  1
  O  O14  1  0.75146700  0.75146700  0.62532700  1
  O  O15  1  0.18666500  0.81333500  0.74426700  1
loop_
_geom_bond_atom_site_label_1
_geom_bond_atom_site_label_2
_geom_bond_distance
_geom_bond_site_symmetry_2
La0 O0 2.259015 1_555
La0 O14 2.628330 1_555
La0 O13 2.628330 1_555
La0 O1 2.676421 1_555
La0 O2 2.676421 1_555
La0 O12 2.703545 1_555
La0 O15 2.785557 1_545
La0 O15 2.785557 1_655
La0 O4 2.800021 1_556
La1 O7 2.259015 1_555
La1 O10 2.628330 1_555
La1 O9 2.628330 1_555
La1 O5 2.676421 1_555
La1 O6 2.676421 1_555
La1 O11 2.703545 1_555
La1 O8 2.785557 1_455
La1 O8 2.785557 1_565
La1 O3 2.800021 1_555
La2 O8 2.259015 1_555
La2 O10 2.628330 1_555
La2 O9 2.628330 1_555
La2 O5 2.676421 1_555
La2 O6 2.676421 1_555
La2 O12 2.703545 1_555
La2 O7 2.785557 1_545
La2 O7 2.785557 1_655
La2 O4 2.800021 1_555
La3 O11 2.316988 1_555
La3 O13 2.644360 1_565
La3 O9 2.644360 1_565
La3 O14 2.644360 1_455
La3 O10 2.644360 1_455
La3 O7 2.727040 1_555
La3 O15 2.727040 1_555
La3 O12 2.783037 1_565
La3 O12 2.783037 1_455
La4 O12 2.316988 1_555
La4 O13 2.644360 1_655
La4 O9 2.644360 1_655
La4 O14 2.644360 1_545
La4 O10 2.644360 1_545
La4 O0 2.727040 1_555
La4 O8 2.727040 1_555
La4 O11 2.783037 1_655
La4 O11 2.783037 1_545
La5 O15 2.259015 1_555
La5 O14 2.628330 1_555
La5 O13 2.628330 1_555
La5 O1 2.676421 1_555
La5 O2 2.676421 1_555
La5 O11 2.703545 1_555
La5 O0 2.785557 1_455
La5 O0 2.785557 1_565
La5 O3 2.800021 1_556
Cu0 O1 1.919126 1_555
Cu0 O2 1.919126 1_445
Cu0 O13 1.920540 1_555
Cu0 O14 1.920540 1_445
Cu0 O0 2.444383 1_455
Cu0 O15 2.444383 1_545
Cu1 O5 1.919126 1_555
Cu1 O6 1.919126 1_445
Cu1 O9 1.920540 1_555
Cu1 O10 1.920540 1_445
Cu1 O7 2.444383 1_545
Cu1 O8 2.444383 1_455
Cu2 O14 1.930398 1_555
Cu2 O10 1.930398 1_555
Cu2 O13 1.930398 1_555
Cu2 O9 1.930398 1_555
Cu2 O12 2.408496 1_555
Cu2 O11 2.408496 1_555
O0 Sr1 2.833929 1_556
O1 Ti0 1.919622 1_556
O1 Sr1 2.719377 1_456
O1 Sr0 2.719377 1_546
O2 Ti0 1.919622 1_556
O2 Sr0 2.719377 1_656
O2 Sr1 2.719377 1_566
O3 Ti0 2.075173 1_555
O3 Sr0 2.580085 1_555
O3 Sr1 2.726272 1_565
O3 Sr1 2.726272 1_455
O4 Ti0 2.075173 1_555
O4 Sr1 2.580085 1_555
O4 Sr0 2.726272 1_545
O4 Sr0 2.726272 1_655
O5 Ti0 1.919622 1_555
O5 Sr1 2.719377 1_455
O5 Sr0 2.719377 1_545
O6 Ti0 1.919622 1_555
O6 Sr0 2.719377 1_655
O6 Sr1 2.719377 1_565
O7 Sr0 2.833929 1_555
O8 Sr1 2.833929 1_555
O15 Sr0 2.833929 1_556
