# generated using pymatgen
data_KCo(CO)4
_symmetry_space_group_name_H-M   'P 1'
_cell_length_a   5.73825200
_cell_length_b   11.35681686
_cell_length_c   12.15439749
_cell_angle_alpha   97.83149546
_cell_angle_beta   103.54278819
_cell_angle_gamma   104.57674144
_symmetry_Int_Tables_number   1
_chemical_formula_structural   KCo(CO)4
_chemical_formula_sum   'K4 Co4 C16 O16'
_cell_volume   729.05668227
_cell_formula_units_Z   4
loop_
 _symmetry_equiv_pos_site_id
 _symmetry_equiv_pos_as_xyz
  1  'x, y, z'
loop_
 _atom_site_type_symbol
 _atom_site_label
 _atom_site_symmetry_multiplicity
 _atom_site_fract_x
 _atom_site_fract_y
 _atom_site_fract_z
 _atom_site_occupancy
  K  K0  1  0.94252800  0.21453100  0.05868600  1
  K  K1  1  0.66460400  0.29024500  0.44471400  1
  K  K2  1  0.06618100  0.78645000  0.93903600  1
  K  K3  1  0.33622500  0.71372700  0.55590900  1
  Co  Co0  1  0.43460600  0.51115600  0.25570500  1
  Co  Co1  1  0.33265300  0.01019000  0.75584000  1
  Co  Co2  1  0.66695500  0.99155100  0.24461800  1
  Co  Co3  1  0.57225700  0.49027600  0.74384000  1
  C  C0  1  0.46347600  0.60096800  0.81229200  1
  C  C1  1  0.54346300  0.92155700  0.34629300  1
  C  C2  1  0.70955200  0.62420700  0.33860600  1
  C  C3  1  0.27766000  0.58104100  0.15456900  1
  C  C4  1  0.76545000  0.53726300  0.65759100  1
  C  C5  1  0.73935600  0.87566300  0.16194600  1
  C  C6  1  0.72784400  0.42064300  0.84568700  1
  C  C7  1  0.25204200  0.12423400  0.83709700  1
  C  C8  1  0.54530900  0.39983400  0.18946200  1
  C  C9  1  0.43281400  0.03839100  0.15978800  1
  C  C10  1  0.29846600  0.37554500  0.66296100  1
  C  C11  1  0.23153400  0.46250200  0.33719400  1
  C  C12  1  0.46057400  0.08003800  0.65529600  1
  C  C13  1  0.04507500  0.89984100  0.68785700  1
  C  C14  1  0.95620300  0.10158800  0.31071900  1
  C  C15  1  0.56696000  0.96206300  0.83907200  1
  O  O0  1  0.89767000  0.56082400  0.59729700  1
  O  O1  1  0.45884500  0.86911000  0.41118000  1
  O  O2  1  0.55035400  0.12988900  0.59043000  1
  O  O3  1  0.37555700  0.67128400  0.85604100  1
  O  O4  1  0.84193000  0.83108000  0.64428400  1
  O  O5  1  0.19123000  0.20084000  0.88839100  1
  O  O6  1  0.63482300  0.32887200  0.14758300  1
  O  O7  1  0.89908400  0.69956900  0.39074300  1
  O  O8  1  0.11029300  0.29983800  0.61002300  1
  O  O9  1  0.26359200  0.06101500  0.09884300  1
  O  O10  1  0.17070900  0.62976400  0.08933800  1
  O  O11  1  0.82113600  0.36883300  0.91223900  1
  O  O12  1  0.15966900  0.17110100  0.35209100  1
  O  O13  1  0.73467300  0.93530600  0.89646600  1
  O  O14  1  0.09332200  0.43576200  0.39433200  1
  O  O15  1  0.79400300  0.79787400  0.10865700  1
loop_
_geom_bond_atom_site_label_1
_geom_bond_atom_site_label_2
_geom_bond_distance
_geom_bond_site_symmetry_2
K0 O11 2.758286 1_554
K0 O6 2.763439 1_555
K0 O5 2.784324 1_654
K0 O9 2.845987 1_655
K1 O12 2.752675 1_555
K1 O2 2.775773 1_555
K1 O8 2.825430 1_655
K1 O14 2.844833 1_655
K1 O0 3.144439 1_555
K2 O3 2.743675 1_555
K2 O10 2.788098 1_556
K2 O13 2.853135 1_455
K2 O15 2.871172 1_456
K3 O1 2.739373 1_555
K3 O4 2.748483 1_555
K3 O7 2.774651 1_455
K3 O0 2.869277 1_455
C0 O3 1.178002 1_555
C0 Co3 1.736479 1_555
C1 O1 1.172314 1_555
C1 Co2 1.748011 1_555
C2 O7 1.173797 1_555
C2 Co0 1.742458 1_555
C3 O10 1.172191 1_555
C3 Co0 1.749061 1_555
C4 O0 1.181502 1_555
C4 Co3 1.735404 1_555
C5 O15 1.173426 1_555
C5 Co2 1.739193 1_555
C6 O11 1.171563 1_555
C6 Co3 1.749112 1_555
C7 O5 1.172282 1_555
C7 Co1 1.741777 1_555
C8 O6 1.179593 1_555
C8 Co0 1.736818 1_555
C9 O9 1.182462 1_555
C9 Co2 1.735408 1_545
C10 O8 1.172910 1_555
C10 Co3 1.740579 1_555
C11 O14 1.182253 1_555
C11 Co0 1.734867 1_555
C12 O2 1.171570 1_555
C12 Co1 1.747193 1_555
C13 O4 1.178601 1_455
C13 Co1 1.736284 1_565
C14 O12 1.179890 1_655
C14 Co2 1.737766 1_545
C15 O13 1.181396 1_555
C15 Co1 1.735921 1_565
