# generated using pymatgen
data_SrZrZn
_symmetry_space_group_name_H-M   'P 1'
_cell_length_a   4.92936582
_cell_length_b   4.92936582
_cell_length_c   4.92936582
_cell_angle_alpha   60.00000000
_cell_angle_beta   60.00000000
_cell_angle_gamma   60.00000000
_symmetry_Int_Tables_number   1
_chemical_formula_structural   SrZrZn
_chemical_formula_sum   'Sr1 Zr1 Zn1'
_cell_volume   84.69507383
_cell_formula_units_Z   1
loop_
 _symmetry_equiv_pos_site_id
 _symmetry_equiv_pos_as_xyz
  1  'x, y, z'
loop_
 _atom_site_type_symbol
 _atom_site_label
 _atom_site_symmetry_multiplicity
 _atom_site_fract_x
 _atom_site_fract_y
 _atom_site_fract_z
 _atom_site_occupancy
  Sr  Sr0  1  0.00000000  0.00000000  0.00000000  1
  Zr  Zr0  1  0.75000000  0.75000000  0.75000000  1
  Zn  Zn0  1  0.50000000  0.50000000  0.50000000  1
loop_
_geom_bond_atom_site_label_1
_geom_bond_atom_site_label_2
_geom_bond_distance
_geom_bond_site_symmetry_2
Sr0 Zr0 3.018608 1_544
Sr0 Zr0 3.018608 1_454
Sr0 Zr0 3.018608 1_444
Sr0 Zr0 3.018608 1_445
Sr0 Zn0 3.485588 1_445
Sr0 Zn0 3.485588 1_544
Sr0 Zn0 3.485588 1_455
Sr0 Zn0 3.485588 1_545
Sr0 Zn0 3.485588 1_554
Sr0 Zn0 3.485588 1_454
Zn0 Zr0 3.018608 1_555
Zn0 Zr0 3.018608 1_455
Zn0 Zr0 3.018608 1_545
Zn0 Zr0 3.018608 1_554
