# generated using pymatgen
data_Mo9Se11
_symmetry_space_group_name_H-M   'P 1'
_cell_length_a   9.54666216
_cell_length_b   9.54666216
_cell_length_c   12.29101500
_cell_angle_alpha   90.00000000
_cell_angle_beta   90.00000000
_cell_angle_gamma   120.00000112
_symmetry_Int_Tables_number   1
_chemical_formula_structural   Mo9Se11
_chemical_formula_sum   'Mo18 Se22'
_cell_volume   970.11112150
_cell_formula_units_Z   2
loop_
 _symmetry_equiv_pos_site_id
 _symmetry_equiv_pos_as_xyz
  1  'x, y, z'
loop_
 _atom_site_type_symbol
 _atom_site_label
 _atom_site_symmetry_multiplicity
 _atom_site_fract_x
 _atom_site_fract_y
 _atom_site_fract_z
 _atom_site_occupancy
  Mo  Mo0  1  0.83942200  0.35631100  0.43876900  1
  Mo  Mo1  1  0.68071700  0.17850300  0.25000000  1
  Mo  Mo2  1  0.64368900  0.48311100  0.06123100  1
  Mo  Mo3  1  0.51688900  0.16057800  0.43876900  1
  Mo  Mo4  1  0.48311100  0.83942200  0.56123100  1
  Mo  Mo5  1  0.64368900  0.48311100  0.43876900  1
  Mo  Mo6  1  0.35631100  0.51688900  0.93876900  1
  Mo  Mo7  1  0.82149700  0.50221500  0.25000000  1
  Mo  Mo8  1  0.16057800  0.64368900  0.93876900  1
  Mo  Mo9  1  0.16057800  0.64368900  0.56123100  1
  Mo  Mo10  1  0.17850300  0.49778500  0.75000000  1
  Mo  Mo11  1  0.83942200  0.35631100  0.06123100  1
  Mo  Mo12  1  0.49778500  0.31928300  0.25000000  1
  Mo  Mo13  1  0.35631100  0.51688900  0.56123100  1
  Mo  Mo14  1  0.48311100  0.83942200  0.93876900  1
  Mo  Mo15  1  0.50221500  0.68071700  0.75000000  1
  Mo  Mo16  1  0.31928300  0.82149700  0.75000000  1
  Mo  Mo17  1  0.51688900  0.16057800  0.06123100  1
  Se  Se0  1  0.66666700  0.33333300  0.60219200  1
  Se  Se1  1  0.33333300  0.66666700  0.39780800  1
  Se  Se2  1  0.70710200  0.04049700  0.42173600  1
  Se  Se3  1  0.63004300  0.99380000  0.75000000  1
  Se  Se4  1  0.66660600  0.70710200  0.92173600  1
  Se  Se5  1  0.29289800  0.95950300  0.92173600  1
  Se  Se6  1  0.70710200  0.04049700  0.07826400  1
  Se  Se7  1  0.04049700  0.33339400  0.57826400  1
  Se  Se8  1  0.04049700  0.33339400  0.92173600  1
  Se  Se9  1  0.63624300  0.63004300  0.25000000  1
  Se  Se10  1  0.36375700  0.36995700  0.75000000  1
  Se  Se11  1  0.36995700  0.00620000  0.25000000  1
  Se  Se12  1  0.33339400  0.29289800  0.07826400  1
  Se  Se13  1  0.33339400  0.29289800  0.42173600  1
  Se  Se14  1  0.29289800  0.95950300  0.57826400  1
  Se  Se15  1  0.99380000  0.36375700  0.25000000  1
  Se  Se16  1  0.33333300  0.66666700  0.10219200  1
  Se  Se17  1  0.95950300  0.66660600  0.07826400  1
  Se  Se18  1  0.95950300  0.66660600  0.42173600  1
  Se  Se19  1  0.66660600  0.70710200  0.57826400  1
  Se  Se20  1  0.00620000  0.63624300  0.75000000  1
  Se  Se21  1  0.66666700  0.33333300  0.89780800  1
loop_
_geom_bond_atom_site_label_1
_geom_bond_atom_site_label_2
_geom_bond_distance
_geom_bond_site_symmetry_2
Mo0 Se0 2.537897 1_555
Mo0 Se18 2.595618 1_555
Mo0 Se2 2.630785 1_555
Mo0 Se7 2.663139 1_655
Mo0 Se15 2.730479 1_555
Mo1 Se2 2.566442 1_555
Mo1 Se6 2.566442 1_555
Mo1 Se11 2.574330 1_555
Mo1 Se15 2.602934 1_555
Mo2 Se21 2.537903 1_554
Mo2 Se12 2.595617 1_555
Mo2 Se17 2.630785 1_555
Mo2 Se4 2.663132 1_554
Mo2 Se9 2.730479 1_555
Mo3 Se0 2.537900 1_555
Mo3 Se2 2.595609 1_555
Mo3 Se13 2.630793 1_555
Mo3 Se14 2.663135 1_545
Mo3 Se11 2.730479 1_555
Mo4 Se1 2.537900 1_555
Mo4 Se14 2.595609 1_555
Mo4 Se19 2.630793 1_555
Mo4 Se2 2.663135 1_565
Mo4 Se3 2.730479 1_555
Mo5 Se0 2.537903 1_555
Mo5 Se13 2.595617 1_555
Mo5 Se18 2.630785 1_555
Mo5 Se19 2.663132 1_555
Mo5 Se9 2.730479 1_555
Mo6 Se16 2.537903 1_556
Mo6 Se4 2.595617 1_555
Mo6 Se8 2.630785 1_555
Mo6 Se12 2.663132 1_556
Mo6 Se10 2.730479 1_555
Mo7 Se18 2.566442 1_555
Mo7 Se17 2.566442 1_555
Mo7 Se15 2.574338 1_555
Mo7 Se9 2.602927 1_555
Mo8 Se16 2.537897 1_556
Mo8 Se8 2.595618 1_555
Mo8 Se5 2.630785 1_555
Mo8 Se17 2.663139 1_456
Mo8 Se20 2.730479 1_555
Mo9 Se1 2.537897 1_555
Mo9 Se7 2.595618 1_555
Mo9 Se14 2.630785 1_555
Mo9 Se18 2.663139 1_455
Mo9 Se20 2.730479 1_555
Mo10 Se7 2.566442 1_555
Mo10 Se8 2.566442 1_555
Mo10 Se20 2.574338 1_555
Mo10 Se10 2.602927 1_555
Mo11 Se21 2.537897 1_554
Mo11 Se17 2.595618 1_555
Mo11 Se6 2.630785 1_555
Mo11 Se8 2.663139 1_654
Mo11 Se15 2.730479 1_555
Mo12 Se12 2.566442 1_555
Mo12 Se13 2.566442 1_555
Mo12 Se9 2.574329 1_555
Mo12 Se11 2.602935 1_555
Mo13 Se1 2.537903 1_555
Mo13 Se19 2.595617 1_555
Mo13 Se7 2.630785 1_555
Mo13 Se13 2.663132 1_555
Mo13 Se10 2.730479 1_555
Mo14 Se16 2.537900 1_556
Mo14 Se5 2.595609 1_555
Mo14 Se4 2.630793 1_555
Mo14 Se6 2.663135 1_566
Mo14 Se3 2.730479 1_555
Mo15 Se19 2.566442 1_555
Mo15 Se4 2.566442 1_555
Mo15 Se10 2.574329 1_555
Mo15 Se3 2.602935 1_555
Mo16 Se14 2.566442 1_555
Mo16 Se5 2.566442 1_555
Mo16 Se3 2.574330 1_555
Mo16 Se20 2.602934 1_555
Mo17 Se21 2.537900 1_554
Mo17 Se6 2.595609 1_555
Mo17 Se12 2.630793 1_555
Mo17 Se5 2.663135 1_544
Mo17 Se11 2.730479 1_555
