# generated using pymatgen
data_ReN(OF2)3
_symmetry_space_group_name_H-M   'P 1'
_cell_length_a   10.21027700
_cell_length_b   10.60908600
_cell_length_c   12.25945790
_cell_angle_alpha   64.41524570
_cell_angle_beta   90.00000000
_cell_angle_gamma   90.00000000
_symmetry_Int_Tables_number   1
_chemical_formula_structural   ReN(OF2)3
_chemical_formula_sum   'Re8 N8 O24 F48'
_cell_volume   1197.75503233
_cell_formula_units_Z   8
loop_
 _symmetry_equiv_pos_site_id
 _symmetry_equiv_pos_as_xyz
  1  'x, y, z'
loop_
 _atom_site_type_symbol
 _atom_site_label
 _atom_site_symmetry_multiplicity
 _atom_site_fract_x
 _atom_site_fract_y
 _atom_site_fract_z
 _atom_site_occupancy
  Re  Re0  1  0.26947500  0.56897200  0.84517400  1
  Re  Re1  1  0.23052500  0.06897200  0.84517400  1
  Re  Re2  1  0.26590600  0.32001300  0.34595300  1
  Re  Re3  1  0.23409400  0.82001300  0.34595300  1
  Re  Re4  1  0.73409400  0.67998700  0.65404700  1
  Re  Re5  1  0.76590600  0.17998700  0.65404700  1
  Re  Re6  1  0.76947500  0.93102800  0.15482600  1
  Re  Re7  1  0.73052500  0.43102800  0.15482600  1
  N  N0  1  0.52344900  0.80145700  0.96271400  1
  N  N1  1  0.97655100  0.30145700  0.96271400  1
  N  N2  1  0.02344900  0.69854300  0.03728600  1
  N  N3  1  0.00000000  0.00000000  0.50000000  1
  N  N4  1  0.00000000  0.50000000  0.50000000  1
  N  N5  1  0.50000000  0.50000000  0.50000000  1
  N  N6  1  0.47655100  0.19854300  0.03728600  1
  N  N7  1  0.50000000  0.00000000  0.50000000  1
  O  O0  1  0.97369400  0.06890300  0.40177600  1
  O  O1  1  0.27062600  0.21321400  0.71621000  1
  O  O2  1  0.41786600  0.96938900  0.56961200  1
  O  O3  1  0.52630600  0.56890300  0.40177600  1
  O  O4  1  0.72937400  0.78678600  0.28379000  1
  O  O5  1  0.96531500  0.75861800  0.95101900  1
  O  O6  1  0.58108400  0.86164000  0.87607100  1
  O  O7  1  0.91891600  0.36164000  0.87607100  1
  O  O8  1  0.08108400  0.63836000  0.12392900  1
  O  O9  1  0.32253500  0.46192600  0.22287500  1
  O  O10  1  0.58213400  0.03061100  0.43038800  1
  O  O11  1  0.67746500  0.53807400  0.77712500  1
  O  O12  1  0.17746500  0.96192600  0.22287500  1
  O  O13  1  0.47369400  0.43109700  0.59822400  1
  O  O14  1  0.46531500  0.74138200  0.04898100  1
  O  O15  1  0.53468500  0.25861800  0.95101900  1
  O  O16  1  0.03468500  0.24138200  0.04898100  1
  O  O17  1  0.22937400  0.71321400  0.71621000  1
  O  O18  1  0.08213400  0.46938900  0.56961200  1
  O  O19  1  0.77062600  0.28678600  0.28379000  1
  O  O20  1  0.02630600  0.93109700  0.59822400  1
  O  O21  1  0.41891600  0.13836000  0.12392900  1
  O  O22  1  0.82253500  0.03807400  0.77712500  1
  O  O23  1  0.91786600  0.53061100  0.43038800  1
  F  F0  1  0.81038500  0.09882300  0.00618000  1
  F  F1  1  0.24549300  0.16282900  0.95011600  1
  F  F2  1  0.14110000  0.68193100  0.31227900  1
  F  F3  1  0.35890000  0.18193100  0.31227900  1
  F  F4  1  0.60654600  0.50589000  0.22941200  1
  F  F5  1  0.82534000  0.55487400  0.20607200  1
  F  F6  1  0.43413000  0.28091400  0.43086600  1
  F  F7  1  0.27240100  0.41705800  0.44904100  1
  F  F8  1  0.77240100  0.08294200  0.55095900  1
  F  F9  1  0.94132500  0.86301000  0.13906200  1
  F  F10  1  0.15147500  0.25997200  0.25205600  1
  F  F11  1  0.31038500  0.40117700  0.99382000  1
  F  F12  1  0.85890000  0.31806900  0.68772100  1
  F  F13  1  0.09355100  0.39894700  0.34406300  1
  F  F14  1  0.34852500  0.75997200  0.25205600  1
  F  F15  1  0.65147500  0.24002800  0.74794400  1
  F  F16  1  0.29836200  0.65876100  0.49069200  1
  F  F17  1  0.25450700  0.66282900  0.95011600  1
  F  F18  1  0.05867500  0.13699000  0.86093800  1
  F  F19  1  0.75450700  0.83717100  0.04988400  1
  F  F20  1  0.68961500  0.59882300  0.00618000  1
  F  F21  1  0.09110200  0.54480800  0.91074700  1
  F  F22  1  0.40644900  0.89894700  0.34406300  1
  F  F23  1  0.74549300  0.33717100  0.04988400  1
  F  F24  1  0.32534000  0.94512600  0.79392800  1
  F  F25  1  0.18961500  0.90117700  0.99382000  1
  F  F26  1  0.89345400  0.00589000  0.22941200  1
  F  F27  1  0.17466000  0.44512600  0.79392800  1
  F  F28  1  0.90889800  0.45519200  0.08925300  1
  F  F29  1  0.40889800  0.04480800  0.91074700  1
  F  F30  1  0.90644900  0.60105300  0.65593700  1
  F  F31  1  0.84852500  0.74002800  0.74794400  1
  F  F32  1  0.56587000  0.71908600  0.56913400  1
  F  F33  1  0.59355100  0.10105300  0.65593700  1
  F  F34  1  0.72759900  0.58294200  0.55095900  1
  F  F35  1  0.06587000  0.78091400  0.43086600  1
  F  F36  1  0.22759900  0.91705800  0.44904100  1
  F  F37  1  0.59110200  0.95519200  0.08925300  1
  F  F38  1  0.67466000  0.05487400  0.20607200  1
  F  F39  1  0.39345400  0.49411000  0.77058800  1
  F  F40  1  0.44132500  0.63699000  0.86093800  1
  F  F41  1  0.93413000  0.21908600  0.56913400  1
  F  F42  1  0.64110000  0.81806900  0.68772100  1
  F  F43  1  0.55867500  0.36301000  0.13906200  1
  F  F44  1  0.20163800  0.15876100  0.49069200  1
  F  F45  1  0.10654600  0.99411000  0.77058800  1
  F  F46  1  0.79836200  0.84123900  0.50930800  1
  F  F47  1  0.70163800  0.34123900  0.50930800  1
loop_
_geom_bond_atom_site_label_1
_geom_bond_atom_site_label_2
_geom_bond_distance
_geom_bond_site_symmetry_2
N0 O14 1.137913 1_556
N0 O6 1.138626 1_555
N1 O16 1.137913 1_656
N1 O7 1.138626 1_555
N2 O5 1.137913 1_454
N2 O8 1.138626 1_555
N3 O0 1.138538 1_455
N3 O20 1.138538 1_545
N4 O18 1.139151 1_555
N4 O23 1.139151 1_455
N5 O13 1.138538 1_555
N5 O3 1.138538 1_555
N6 O15 1.137913 1_554
N6 O21 1.138626 1_555
N7 O2 1.139151 1_545
N7 O10 1.139151 1_555
O1 Re1 1.708630 1_555
O4 Re6 1.708630 1_555
O9 Re2 1.707536 1_555
O11 Re4 1.707536 1_555
O12 Re3 1.707536 1_555
O17 Re0 1.708630 1_555
O19 Re7 1.708630 1_555
O22 Re5 1.707536 1_555
F0 Re6 1.965310 1_545
F1 Re1 1.943307 1_555
F2 Re3 1.933983 1_555
F3 Re2 1.933983 1_555
F4 Re7 1.922631 1_555
F5 Re7 1.941942 1_555
F6 Re2 1.957796 1_555
F7 Re2 1.945607 1_555
F8 Re5 1.945607 1_555
F9 Re6 1.938366 1_555
F10 Re2 1.931120 1_555
F11 Re0 1.965310 1_555
F12 Re5 1.933983 1_555
F13 Re2 1.944715 1_555
F14 Re3 1.931120 1_555
F15 Re5 1.931120 1_555
F16 Re3 1.970784 1_555
F17 Re0 1.943307 1_555
F18 Re1 1.938366 1_555
F19 Re6 1.943307 1_555
F20 Re7 1.965310 1_555
F21 Re0 1.962364 1_555
F22 Re3 1.944715 1_555
F23 Re7 1.943307 1_555
F24 Re1 1.941942 1_565
F25 Re1 1.965310 1_565
F26 Re6 1.922631 1_545
F27 Re0 1.941942 1_555
F28 Re7 1.962364 1_555
F29 Re1 1.962364 1_555
F30 Re4 1.944715 1_555
F31 Re4 1.931120 1_555
F32 Re4 1.957796 1_555
F33 Re5 1.944715 1_555
F34 Re4 1.945607 1_555
F35 Re3 1.957796 1_555
F36 Re3 1.945607 1_555
F37 Re6 1.962364 1_555
F38 Re6 1.941942 1_545
F39 Re0 1.922631 1_555
F40 Re0 1.938366 1_555
F41 Re5 1.957796 1_555
F42 Re4 1.933983 1_555
F43 Re7 1.938366 1_555
F44 Re2 1.970784 1_555
F45 Re1 1.922631 1_565
F46 Re4 1.970784 1_555
F47 Re5 1.970784 1_555
