# generated using pymatgen
data_Cs2MnFe(CN)6
_symmetry_space_group_name_H-M   'P 1'
_cell_length_a   7.12120027
_cell_length_b   7.12120027
_cell_length_c   7.12120027
_cell_angle_alpha   60.00000000
_cell_angle_beta   60.00000000
_cell_angle_gamma   60.00000000
_symmetry_Int_Tables_number   1
_chemical_formula_structural   Cs2MnFe(CN)6
_chemical_formula_sum   'Cs2 Mn1 Fe1 C6 N6'
_cell_volume   255.35513804
_cell_formula_units_Z   1
loop_
 _symmetry_equiv_pos_site_id
 _symmetry_equiv_pos_as_xyz
  1  'x, y, z'
loop_
 _atom_site_type_symbol
 _atom_site_label
 _atom_site_symmetry_multiplicity
 _atom_site_fract_x
 _atom_site_fract_y
 _atom_site_fract_z
 _atom_site_occupancy
  Cs  Cs0  1  0.75000000  0.75000000  0.75000000  1
  Cs  Cs1  1  0.25000000  0.25000000  0.25000000  1
  Mn  Mn0  1  0.50000000  0.50000000  0.50000000  1
  Fe  Fe0  1  0.00000000  0.00000000  0.00000000  1
  C  C0  1  0.81220400  0.18779600  0.18779600  1
  C  C1  1  0.81220400  0.18779600  0.81220400  1
  C  C2  1  0.81220400  0.81220400  0.18779600  1
  C  C3  1  0.18779600  0.18779600  0.81220400  1
  C  C4  1  0.18779600  0.81220400  0.18779600  1
  C  C5  1  0.18779600  0.81220400  0.81220400  1
  N  N0  1  0.30517400  0.69482600  0.69482600  1
  N  N1  1  0.30517400  0.30517400  0.69482600  1
  N  N2  1  0.69482600  0.30517400  0.30517400  1
  N  N3  1  0.69482600  0.30517400  0.69482600  1
  N  N4  1  0.69482600  0.69482600  0.30517400  1
  N  N5  1  0.30517400  0.69482600  0.30517400  1
loop_
_geom_bond_atom_site_label_1
_geom_bond_atom_site_label_2
_geom_bond_distance
_geom_bond_site_symmetry_2
Cs0 N4 3.603696 1_556
Cs0 N0 3.603696 1_655
Cs0 N3 3.603696 1_565
Cs0 N1 3.603696 1_565
Cs0 N5 3.603696 1_655
Cs0 N2 3.603696 1_556
Cs0 N2 3.603696 1_565
Cs0 N5 3.603696 1_556
Cs0 N1 3.603696 1_655
Cs0 N0 3.603696 1_555
Cs0 N4 3.603696 1_555
Cs0 N3 3.603696 1_555
Cs1 N5 3.603696 1_555
Cs1 N2 3.603696 1_555
Cs1 N1 3.603696 1_555
Cs1 N4 3.603696 1_545
Cs1 N0 3.603696 1_545
Cs1 N3 3.603696 1_554
Cs1 N3 3.603696 1_455
Cs1 N0 3.603696 1_554
Cs1 N4 3.603696 1_455
Cs1 N5 3.603696 1_545
Cs1 N1 3.603696 1_554
Cs1 N2 3.603696 1_455
Mn0 N3 1.962073 1_555
Mn0 N0 1.962073 1_555
Mn0 N4 1.962073 1_555
Mn0 N1 1.962073 1_555
Mn0 N5 1.962073 1_555
Mn0 N2 1.962073 1_555
C0 N2 1.182102 1_555
C0 Fe0 1.891274 1_655
C0 Cs1 3.615289 1_555
C0 Cs0 3.615289 1_545
C0 Cs0 3.615289 1_554
C0 Cs1 3.615289 1_655
C1 N3 1.182102 1_555
C1 Fe0 1.891274 1_656
C1 Cs0 3.615289 1_545
C1 Cs1 3.615289 1_556
C1 Cs1 3.615289 1_655
C1 Cs0 3.615289 1_555
C2 N4 1.182102 1_555
C2 Fe0 1.891274 1_665
C2 Cs0 3.615289 1_554
C2 Cs1 3.615289 1_565
C2 Cs1 3.615289 1_655
C2 Cs0 3.615289 1_555
C3 N1 1.182102 1_555
C3 Fe0 1.891274 1_556
C3 Cs1 3.615289 1_555
C3 Cs0 3.615289 1_455
C3 Cs0 3.615289 1_545
C3 Cs1 3.615289 1_556
C4 N5 1.182102 1_555
C4 Fe0 1.891274 1_565
C4 Cs1 3.615289 1_555
C4 Cs0 3.615289 1_455
C4 Cs0 3.615289 1_554
C4 Cs1 3.615289 1_565
C5 N0 1.182102 1_555
C5 Fe0 1.891274 1_566
C5 Cs0 3.615289 1_455
C5 Cs1 3.615289 1_556
C5 Cs1 3.615289 1_565
C5 Cs0 3.615289 1_555
