# generated using pymatgen
data_Ho(FeSn)6
_symmetry_space_group_name_H-M   'P 1'
_cell_length_a   5.40756483
_cell_length_b   8.94004686
_cell_length_c   14.98010502
_cell_angle_alpha   107.34516350
_cell_angle_beta   100.40964044
_cell_angle_gamma   90.02654439
_symmetry_Int_Tables_number   1
_chemical_formula_structural   Ho(FeSn)6
_chemical_formula_sum   'Ho3 Fe18 Sn18'
_cell_volume   678.74749284
_cell_formula_units_Z   3
loop_
 _symmetry_equiv_pos_site_id
 _symmetry_equiv_pos_as_xyz
  1  'x, y, z'
loop_
 _atom_site_type_symbol
 _atom_site_label
 _atom_site_symmetry_multiplicity
 _atom_site_fract_x
 _atom_site_fract_y
 _atom_site_fract_z
 _atom_site_occupancy
  Ho  Ho0  1  0.66682861  0.16938321  0.33511264  1
  Ho  Ho1  1  0.33301406  0.83064196  0.66366171  1
  Ho  Ho2  1  0.99948096  0.99778608  0.99954511  1
  Fe  Fe0  1  0.00014035  0.00160003  0.50058725  1
  Fe  Fe1  1  0.49459304  0.24449557  0.99872523  1
  Fe  Fe2  1  0.66389384  0.16306031  0.83381274  1
  Fe  Fe3  1  0.16310837  0.16132638  0.83395494  1
  Fe  Fe4  1  0.33392913  0.32859908  0.16474846  1
  Fe  Fe5  1  0.50466957  0.00131629  0.50018404  1
  Fe  Fe6  1  0.16982714  0.41588053  0.33414465  1
  Fe  Fe7  1  0.82911201  0.08051159  0.66571295  1
  Fe  Fe8  1  0.83163597  0.58301358  0.66703042  1
  Fe  Fe9  1  0.33653360  0.83456367  0.16573401  1
  Fe  Fe10  1  0.16994332  0.91858217  0.33360806  1
  Fe  Fe11  1  0.83737261  0.83556640  0.16727307  1
  Fe  Fe12  1  0.49919014  0.75287821  0.00073677  1
  Fe  Fe13  1  0.17003881  0.66809886  0.83385648  1
  Fe  Fe14  1  0.99883794  0.50046614  0.50108452  1
  Fe  Fe15  1  0.49565916  0.50047010  0.49940627  1
  Fe  Fe16  1  0.66602435  0.67062472  0.83391749  1
  Fe  Fe17  1  0.83544264  0.33027368  0.16640892  1
  Sn  Sn0  1  0.44419118  0.94302660  0.88794514  1
  Sn  Sn1  1  0.77622151  0.27980924  0.55749286  1
  Sn  Sn2  1  0.11590653  0.61021514  0.22138461  1
  Sn  Sn3  1  0.99894899  0.66153625  0.99873167  1
  Sn  Sn4  1  0.99579550  0.33506092  0.99990144  1
  Sn  Sn5  1  0.33087077  0.16936425  0.66738758  1
  Sn  Sn6  1  0.22385632  0.72258351  0.44207843  1
  Sn  Sn7  1  0.67046192  0.50450831  0.33313943  1
  Sn  Sn8  1  0.55745551  0.05512535  0.11174041  1
  Sn  Sn9  1  0.88928229  0.38734001  0.77849916  1
  Sn  Sn10  1  0.77904070  0.77652874  0.55414044  1
  Sn  Sn11  1  0.88915557  0.88633360  0.77630759  1
  Sn  Sn12  1  0.11303752  0.11125792  0.22258273  1
  Sn  Sn13  1  0.55705727  0.55340176  0.10990242  1
  Sn  Sn14  1  0.22078647  0.22253727  0.44521101  1
  Sn  Sn15  1  0.67078597  0.83057793  0.33284913  1
  Sn  Sn16  1  0.44468006  0.44305757  0.88770300  1
  Sn  Sn17  1  0.33413429  0.49580705  0.66749021  1
loop_
_geom_bond_atom_site_label_1
_geom_bond_atom_site_label_2
_geom_bond_distance
_geom_bond_site_symmetry_2
Ho0 Sn7 3.005069 1_555
Ho0 Sn15 3.019129 1_545
Ho0 Sn14 3.108918 1_655
Ho0 Sn12 3.119561 1_555
Ho0 Sn14 3.120099 1_555
Ho0 Sn1 3.122241 1_555
Ho0 Sn8 3.136262 1_555
Ho0 Sn12 3.143639 1_655
Ho1 Sn17 3.011024 1_555
Ho1 Sn5 3.012091 1_565
Ho1 Sn10 3.106284 1_455
Ho1 Sn6 3.111134 1_555
Ho1 Sn10 3.114625 1_555
Ho1 Sn11 3.131046 1_555
Ho1 Sn11 3.133700 1_455
Ho1 Sn0 3.148944 1_555
Ho2 Sn3 3.002477 1_555
Ho2 Sn4 3.013747 1_565
Ho2 Sn8 3.120919 1_566
Ho2 Sn0 3.122130 1_555
Ho2 Sn0 3.127855 1_655
Ho2 Sn12 3.131514 1_666
Ho2 Sn11 3.134263 1_555
Ho2 Sn8 3.137487 1_666
Fe0 Fe5 2.678204 1_455
Fe0 Fe7 2.694168 1_455
Fe0 Sn14 2.710276 1_555
Fe0 Fe10 2.715602 1_545
Fe0 Sn10 2.725557 1_445
Fe0 Fe5 2.729373 1_555
Fe0 Sn1 2.736901 1_455
Fe0 Sn6 2.745219 1_545
Fe0 Sn5 2.799922 1_555
Fe0 Sn15 2.813016 1_445
Fe0 Ho1 3.490471 1_545
Fe0 Ho0 3.499740 1_455
Fe1 Fe3 2.676566 1_555
Fe1 Fe4 2.678058 1_556
Fe1 Fe2 2.686376 1_555
Fe1 Sn0 2.694643 1_545
Fe1 Sn8 2.710986 1_556
Fe1 Fe17 2.733516 1_556
Fe1 Sn13 2.750981 1_556
Fe1 Sn16 2.754734 1_555
Fe1 Sn4 2.818132 1_455
Fe1 Sn4 2.823775 1_555
Fe1 Ho2 3.472113 1_445
Fe1 Ho2 3.511194 1_545
Fe2 Sn0 2.689921 1_545
Fe2 Fe3 2.699206 1_655
Fe2 Fe3 2.708456 1_555
Fe2 Fe7 2.718361 1_555
Fe2 Sn11 2.730858 1_545
Fe2 Sn16 2.732495 1_555
Fe2 Sn9 2.746940 1_555
Fe2 Sn4 2.806886 1_555
Fe2 Sn5 2.814792 1_555
Fe2 Ho2 3.493098 1_545
Fe2 Ho1 3.515750 1_545
Fe3 Sn11 2.693097 1_445
Fe3 Sn0 2.696827 1_545
Fe3 Fe7 2.721030 1_455
Fe3 Sn9 2.743082 1_455
Fe3 Sn16 2.766713 1_555
Fe3 Sn4 2.814703 1_455
Fe3 Sn5 2.824713 1_555
Fe3 Ho2 3.468156 1_445
Fe3 Ho1 3.527673 1_545
Fe4 Sn8 2.694621 1_555
Fe4 Sn12 2.707088 1_555
Fe4 Fe6 2.733014 1_555
Fe4 Sn13 2.740523 1_555
Fe4 Sn2 2.745723 1_555
Fe4 Sn4 2.810375 1_454
Fe4 Sn7 2.849763 1_555
Fe4 Ho2 3.486494 1_444
Fe4 Ho0 3.505412 1_555
Fe5 Fe7 2.666070 1_555
Fe5 Sn1 2.712697 1_555
Fe5 Sn10 2.725996 1_545
Fe5 Sn14 2.731888 1_555
Fe5 Sn6 2.738356 1_545
Fe5 Sn15 2.820269 1_545
Fe5 Sn5 2.832363 1_555
Fe5 Ho0 3.484090 1_555
Fe5 Ho1 3.497872 1_545
Fe6 Sn14 2.716859 1_555
Fe6 Sn6 2.720842 1_555
Fe6 Sn12 2.721007 1_555
Fe6 Sn2 2.743901 1_555
Fe6 Sn7 2.813239 1_455
Fe6 Sn7 2.824340 1_555
Fe6 Ho0 3.477064 1_555
Fe6 Ho0 3.504658 1_455
Fe7 Sn10 2.716570 1_545
Fe7 Sn11 2.717474 1_545
Fe7 Sn1 2.727573 1_555
Fe7 Sn9 2.742622 1_555
Fe7 Sn5 2.811626 1_555
Fe7 Sn5 2.820479 1_655
Fe7 Ho1 3.480162 1_545
Fe7 Ho1 3.522921 1_645
Fe8 Sn11 2.701518 1_555
Fe8 Sn1 2.701753 1_555
Fe8 Sn9 2.738559 1_555
Fe8 Sn10 2.739495 1_555
Fe8 Sn17 2.802390 1_555
Fe8 Sn17 2.826650 1_655
Fe8 Ho1 3.492373 1_555
Fe8 Ho1 3.516359 1_655
Fe9 Sn8 2.695823 1_565
Fe9 Sn12 2.724610 1_565
Fe9 Sn2 2.737754 1_555
Fe9 Sn13 2.747623 1_555
Fe9 Sn15 2.820179 1_555
Fe9 Sn3 2.832580 1_454
Fe9 Ho2 3.489678 1_454
Fe9 Ho0 3.523745 1_565
Fe10 Fe11 2.696385 1_455
Fe10 Fe5 2.704831 1_565
Fe10 Sn6 2.706024 1_555
Fe10 Sn12 2.711397 1_565
Fe10 Sn14 2.716457 1_565
Fe10 Fe9 2.718970 1_555
Fe10 Sn2 2.751355 1_555
Fe10 Sn15 2.808301 1_455
Fe10 Sn15 2.821700 1_555
Fe10 Ho0 3.491403 1_565
Fe10 Ho0 3.525242 1_465
Fe11 Fe9 2.703502 1_655
Fe11 Fe9 2.704237 1_555
Fe11 Sn12 2.704806 1_665
Fe11 Sn8 2.712454 1_565
Fe11 Fe12 2.713844 1_555
Fe11 Sn2 2.742231 1_655
Fe11 Sn13 2.762735 1_555
Fe11 Sn15 2.799812 1_555
Fe11 Sn3 2.831036 1_554
Fe11 Ho2 3.485998 1_554
Fe11 Ho0 3.527717 1_565
Fe12 Fe9 2.669479 1_555
Fe12 Fe13 2.693143 1_554
Fe12 Sn8 2.701202 1_565
Fe12 Fe16 2.705388 1_554
Fe12 Sn0 2.713772 1_554
Fe12 Sn13 2.739869 1_555
Fe12 Sn16 2.765557 1_554
Fe12 Sn3 2.817658 1_454
Fe12 Sn3 2.826284 1_554
Fe12 Ho2 3.479579 1_454
Fe12 Ho2 3.485454 1_554
Fe13 Fe16 2.681991 1_555
Fe13 Sn0 2.696391 1_555
Fe13 Fe8 2.717591 1_455
Fe13 Sn11 2.718306 1_455
Fe13 Fe16 2.725758 1_455
Fe13 Sn16 2.727900 1_555
Fe13 Sn9 2.755569 1_455
Fe13 Sn3 2.805645 1_455
Fe13 Sn17 2.807574 1_555
Fe13 Ho2 3.488010 1_455
Fe13 Ho1 3.522534 1_555
Fe14 Fe15 2.691249 1_655
Fe14 Fe8 2.694576 1_555
Fe14 Sn10 2.703696 1_555
Fe14 Fe15 2.716542 1_555
Fe14 Fe6 2.718335 1_655
Fe14 Sn1 2.722862 1_555
Fe14 Sn14 2.727732 1_655
Fe14 Sn6 2.763707 1_655
Fe14 Sn7 2.814921 1_555
Fe14 Sn17 2.816347 1_655
Fe14 Ho1 3.468163 1_655
Fe14 Ho0 3.487116 1_555
Fe15 Fe6 2.666713 1_555
Fe15 Fe8 2.719549 1_555
Fe15 Sn14 2.720308 1_555
Fe15 Sn6 2.721059 1_555
Fe15 Sn10 2.728983 1_555
Fe15 Sn1 2.738567 1_555
Fe15 Sn17 2.821678 1_555
Fe15 Sn7 2.828913 1_555
Fe15 Ho1 3.463325 1_555
Fe15 Ho0 3.486733 1_555
Fe16 Sn0 2.683836 1_555
Fe16 Sn11 2.699262 1_555
Fe16 Fe8 2.703258 1_555
Fe16 Sn16 2.746720 1_555
Fe16 Sn9 2.769851 1_555
Fe16 Sn3 2.803011 1_555
Fe16 Sn17 2.817157 1_555
Fe16 Ho2 3.466056 1_555
Fe16 Ho1 3.508884 1_555
Fe17 Fe4 2.700210 1_655
Fe17 Sn12 2.706274 1_655
Fe17 Fe4 2.707576 1_555
Fe17 Sn8 2.707722 1_555
Fe17 Fe6 2.716471 1_655
Fe17 Sn13 2.740607 1_555
Fe17 Sn2 2.749189 1_655
Fe17 Sn4 2.796509 1_554
Fe17 Sn7 2.819085 1_555
Fe17 Ho2 3.499147 1_544
Fe17 Ho0 3.505124 1_555
Sn3 Sn4 2.924037 1_555
Sn15 Sn7 2.916377 1_555
Sn17 Sn5 2.917999 1_555
