# generated using pymatgen
data_Zr3S4
_symmetry_space_group_name_H-M   'P 1'
_cell_length_a   7.33405256
_cell_length_b   7.29740337
_cell_length_c   29.28893273
_cell_angle_alpha   60.09577949
_cell_angle_beta   60.17805391
_cell_angle_gamma   59.86443726
_symmetry_Int_Tables_number   1
_chemical_formula_structural   Zr3S4
_chemical_formula_sum   'Zr24 S32'
_cell_volume   1109.55134242
_cell_formula_units_Z   8
loop_
 _symmetry_equiv_pos_site_id
 _symmetry_equiv_pos_as_xyz
  1  'x, y, z'
loop_
 _atom_site_type_symbol
 _atom_site_label
 _atom_site_symmetry_multiplicity
 _atom_site_fract_x
 _atom_site_fract_y
 _atom_site_fract_z
 _atom_site_occupancy
  Zr  Zr0  1  0.98192534  0.99181048  0.99754449  1
  Zr  Zr1  1  0.51253254  0.99089888  0.00308499  1
  Zr  Zr2  1  -0.00000000  0.50000000  0.12500000  1
  Zr  Zr3  1  0.98391643  0.01637222  0.36902547  1
  Zr  Zr4  1  -0.00000000  0.00000000  0.12500000  1
  Zr  Zr5  1  0.50000000  0.50000000  0.12500000  1
  Zr  Zr6  1  0.01807466  0.00818952  0.25245551  1
  Zr  Zr7  1  0.98300898  0.54299656  -0.00058982  1
  Zr  Zr8  1  0.51896604  0.00116605  0.37716662  1
  Zr  Zr9  1  0.51948873  0.46433048  0.37758629  1
  Zr  Zr10  1  0.48746746  0.00910112  0.24691501  1
  Zr  Zr11  1  0.98058614  0.98994389  0.74782082  1
  Zr  Zr12  1  0.01941386  0.01005611  0.50217918  1
  Zr  Zr13  1  0.01699102  0.45700344  0.25058982  1
  Zr  Zr14  1  -0.00000000  0.00000000  0.62500000  1
  Zr  Zr15  1  0.50000000  0.50000000  0.62500000  1
  Zr  Zr16  1  0.51896277  0.98327747  0.75426169  1
  Zr  Zr17  1  0.48103723  0.01672253  0.49573831  1
  Zr  Zr18  1  0.01975571  0.45953339  0.50191068  1
  Zr  Zr19  1  0.50000000  0.00000000  0.62500000  1
  Zr  Zr20  1  0.01608357  0.98362778  0.88097453  1
  Zr  Zr21  1  0.48051127  0.53566952  0.87241371  1
  Zr  Zr22  1  0.98024429  0.54046661  0.74808932  1
  Zr  Zr23  1  0.48103396  0.99883395  0.87283338  1
  S  S0  1  0.24566231  0.25571653  0.06173514  1
  S  S1  1  0.27416855  0.23540923  0.17925500  1
  S  S2  1  0.25213147  0.75071857  0.06005106  1
  S  S3  1  0.24173204  0.74077753  0.19011747  1
  S  S4  1  0.25822051  0.23893717  0.31358205  1
  S  S5  1  0.75826796  0.25922247  0.05988253  1
  S  S6  1  0.72583145  0.76459077  0.07074500  1
  S  S7  1  0.26155129  0.73978688  0.31382067  1
  S  S8  1  0.74786853  0.24928143  0.18994894  1
  S  S9  1  0.23865149  0.26701592  0.43055499  1
  S  S10  1  0.24772120  0.75169447  0.43621971  1
  S  S11  1  0.72954239  0.26758726  0.30699295  1
  S  S12  1  0.25427575  0.25064134  0.56381214  1
  S  S13  1  0.75433769  0.74428347  0.18826486  1
  S  S14  1  0.75903476  0.23850461  0.43931424  1
  S  S15  1  0.75367808  0.74892643  0.31045612  1
  S  S16  1  0.24381304  0.24770527  0.69059201  1
  S  S17  1  0.25522320  0.73834014  0.56369243  1
  S  S18  1  0.26308465  0.74298872  0.68801738  1
  S  S19  1  0.73691535  0.25701128  0.56198262  1
  S  S20  1  0.24142953  0.25952294  0.81073414  1
  S  S21  1  0.75857047  0.74047706  0.43926586  1
  S  S22  1  0.74477680  0.26165986  0.68630757  1
  S  S23  1  0.75618696  0.75229373  0.55940799  1
  S  S24  1  0.24096524  0.76149539  0.81068576  1
  S  S25  1  0.24632192  0.25107357  0.93954388  1
  S  S26  1  0.27045761  0.73241274  0.94300705  1
  S  S27  1  0.75227880  0.24830553  0.81378029  1
  S  S28  1  0.74572425  0.74935866  0.68618786  1
  S  S29  1  0.73844871  0.26021312  0.93617933  1
  S  S30  1  0.76134851  0.73298408  0.81944501  1
  S  S31  1  0.74177949  0.76106283  0.93641795  1
loop_
_geom_bond_atom_site_label_1
_geom_bond_atom_site_label_2
_geom_bond_distance
_geom_bond_site_symmetry_2
S0 Zr2 2.570124 1_555
S0 Zr1 2.585393 1_545
S0 Zr4 2.601812 1_555
S0 Zr7 2.657927 1_455
S1 Zr10 2.515492 1_555
S1 Zr6 2.539855 1_555
S1 Zr2 2.552799 1_555
S1 Zr5 2.555467 1_555
S1 Zr13 2.631432 1_555
S2 Zr1 2.603636 1_555
S2 Zr2 2.610269 1_555
S2 Zr5 2.626853 1_555
S2 Zr4 2.630854 1_565
S2 Zr0 2.696329 1_454
S3 Zr5 2.592114 1_555
S3 Zr4 2.599468 1_565
S3 Zr13 2.647365 1_555
S3 Zr6 2.681795 1_565
S4 Zr13 2.560952 1_555
S4 Zr10 2.573175 1_555
S4 Zr3 2.593021 1_455
S4 Zr8 2.669148 1_555
S5 Zr5 2.592114 1_555
S5 Zr4 2.599468 1_655
S5 Zr7 2.647365 1_555
S5 Zr0 2.681795 1_544
S6 Zr1 2.515492 1_555
S6 Zr0 2.539855 1_554
S6 Zr2 2.552799 1_655
S6 Zr5 2.555467 1_555
S6 Zr7 2.631432 1_555
S7 Zr6 2.534850 1_565
S7 Zr10 2.578351 1_565
S7 Zr3 2.585927 1_465
S7 Zr9 2.657028 1_555
S8 Zr10 2.603636 1_555
S8 Zr2 2.610269 1_655
S8 Zr5 2.626853 1_555
S8 Zr4 2.630854 1_655
S8 Zr6 2.696329 1_655
S9 Zr18 2.498934 1_555
S9 Zr12 2.500497 1_555
S9 Zr8 2.501595 1_555
S9 Zr9 2.508920 1_555
S9 Zr17 2.603737 1_555
S10 Zr9 2.703489 1_555
S10 Zr18 2.707795 1_555
S10 Zr12 2.708329 1_565
S10 Zr8 2.708820 1_565
S10 Zr3 2.755325 1_465
S11 Zr6 2.498703 1_655
S11 Zr8 2.502539 1_555
S11 Zr13 2.503841 1_655
S11 Zr9 2.506095 1_555
S11 Zr3 2.599671 1_555
S12 Zr18 2.506460 1_555
S12 Zr19 2.537532 1_555
S12 Zr14 2.620545 1_555
S12 Zr17 2.626791 1_555
S13 Zr2 2.570124 1_655
S13 Zr10 2.585393 1_565
S13 Zr4 2.601812 1_665
S13 Zr13 2.657927 1_655
S14 Zr9 2.520368 1_555
S14 Zr17 2.608150 1_555
S14 Zr3 2.617608 1_555
S14 Zr12 2.656322 1_655
S15 Zr8 2.688543 1_565
S15 Zr10 2.692368 1_565
S15 Zr9 2.698198 1_555
S15 Zr6 2.725449 1_665
S15 Zr13 2.750956 1_655
S16 Zr19 2.636400 1_555
S16 Zr15 2.639526 1_555
S16 Zr22 2.709194 1_455
S16 Zr11 2.712666 1_445
S16 Zr16 2.741933 1_545
S17 Zr12 2.502468 1_565
S17 Zr15 2.535569 1_555
S17 Zr14 2.619336 1_565
S17 Zr17 2.626619 1_565
S18 Zr11 2.529271 1_455
S18 Zr22 2.537365 1_455
S18 Zr15 2.559273 1_555
S18 Zr19 2.563993 1_565
S18 Zr14 2.665323 1_565
S19 Zr12 2.529271 1_655
S19 Zr18 2.537365 1_655
S19 Zr15 2.559273 1_555
S19 Zr19 2.563993 1_555
S19 Zr14 2.665323 1_655
S20 Zr23 2.527319 1_545
S20 Zr16 2.607425 1_545
S20 Zr20 2.616598 1_545
S20 Zr22 2.653428 1_455
S21 Zr8 2.527319 1_565
S21 Zr17 2.607425 1_565
S21 Zr3 2.616598 1_565
S21 Zr18 2.653428 1_655
S22 Zr11 2.502468 1_545
S22 Zr15 2.535569 1_555
S22 Zr14 2.619336 1_655
S22 Zr16 2.626619 1_545
S23 Zr19 2.636405 1_565
S23 Zr15 2.639521 1_555
S23 Zr18 2.709189 1_655
S23 Zr12 2.712672 1_665
S23 Zr17 2.741932 1_565
S24 Zr21 2.520368 1_555
S24 Zr16 2.608150 1_555
S24 Zr20 2.617608 1_555
S24 Zr11 2.656322 1_455
S25 Zr23 2.688543 1_545
S25 Zr1 2.692368 1_546
S25 Zr21 2.698198 1_555
S25 Zr0 2.725449 1_445
S25 Zr7 2.750956 1_456
S26 Zr0 2.498703 1_455
S26 Zr23 2.502539 1_555
S26 Zr7 2.503841 1_456
S26 Zr21 2.506095 1_555
S26 Zr20 2.599671 1_555
S27 Zr21 2.703489 1_555
S27 Zr22 2.707795 1_555
S27 Zr11 2.708329 1_545
S27 Zr23 2.708820 1_545
S27 Zr20 2.755325 1_645
S28 Zr22 2.506460 1_555
S28 Zr19 2.537532 1_565
S28 Zr14 2.620545 1_665
S28 Zr16 2.626791 1_555
S29 Zr0 2.534850 1_545
S29 Zr1 2.578351 1_546
S29 Zr20 2.585927 1_645
S29 Zr21 2.657028 1_555
S30 Zr22 2.498934 1_555
S30 Zr11 2.500497 1_555
S30 Zr23 2.501595 1_555
S30 Zr21 2.508920 1_555
S30 Zr16 2.603737 1_555
S31 Zr7 2.560952 1_556
S31 Zr1 2.573175 1_556
S31 Zr20 2.593021 1_655
S31 Zr23 2.669148 1_555
