# generated using pymatgen
data_Al(HO)3
_symmetry_space_group_name_H-M   'P 1'
_cell_length_a   5.00549900
_cell_length_b   8.85289735
_cell_length_c   9.59730121
_cell_angle_alpha   87.91465481
_cell_angle_beta   89.63022827
_cell_angle_gamma   87.64432505
_symmetry_Int_Tables_number   1
_chemical_formula_structural   Al(HO)3
_chemical_formula_sum   'Al8 H24 O24'
_cell_volume   424.64077986
_cell_formula_units_Z   8
loop_
 _symmetry_equiv_pos_site_id
 _symmetry_equiv_pos_as_xyz
  1  'x, y, z'
loop_
 _atom_site_type_symbol
 _atom_site_label
 _atom_site_symmetry_multiplicity
 _atom_site_fract_x
 _atom_site_fract_y
 _atom_site_fract_z
 _atom_site_occupancy
  Al  Al0  1  0.99720500  0.32442300  0.50243700  1
  Al  Al1  1  0.50156100  0.83860500  0.00553000  1
  Al  Al2  1  0.98120200  0.66840500  0.50567000  1
  Al  Al3  1  0.51616500  0.17509300  0.01060300  1
  Al  Al4  1  0.50929700  0.16285500  0.49875900  1
  Al  Al5  1  0.02151900  0.66568000  0.00192600  1
  Al  Al6  1  0.47831400  0.83396000  0.50236900  1
  Al  Al7  1  0.98469800  0.33258100  0.00691700  1
  H  H0  1  0.69214600  0.31513300  0.28589000  1
  H  H1  1  0.89104700  0.92354400  0.88590700  1
  H  H2  1  0.29102300  0.68655600  0.70433900  1
  H  H3  1  0.20053500  0.19436500  0.20724200  1
  H  H4  1  0.01004600  0.90150400  0.38928800  1
  H  H5  1  0.42978300  0.40602700  0.88708100  1
  H  H6  1  0.92874900  0.07374900  0.61658700  1
  H  H7  1  0.64074300  0.57282700  0.11921800  1
  H  H8  1  0.61832100  0.00115300  0.29153700  1
  H  H9  1  0.90199900  0.50488100  0.79490500  1
  H  H10  1  0.37350200  0.99909000  0.70596600  1
  H  H11  1  0.34807300  0.44667100  0.11161400  1
  H  H12  1  0.35800900  0.50491800  0.39571200  1
  H  H13  1  0.13708300  0.50122100  0.27331300  1
  H  H14  1  0.18611200  0.04196900  0.89873900  1
  H  H15  1  0.66470200  0.48953500  0.60026100  1
  H  H16  1  0.84648700  0.98854100  0.11350900  1
  H  H17  1  0.09005800  0.10011500  0.38109600  1
  H  H18  1  0.47495800  0.60895700  0.88266400  1
  H  H19  1  0.79076600  0.80331400  0.71401100  1
  H  H20  1  0.68570400  0.69512000  0.29354200  1
  H  H21  1  0.81475500  0.19147100  0.79599000  1
  H  H22  1  0.31514400  0.31012900  0.70350600  1
  H  H23  1  0.18689800  0.81020000  0.21135900  1
  O  O0  1  0.68952200  0.31637300  0.39235900  1
  O  O1  1  0.82183200  0.82181400  0.89225300  1
  O  O2  1  0.30005800  0.67493400  0.60236200  1
  O  O3  1  0.18580000  0.17924900  0.10621600  1
  O  O4  1  0.15625100  0.82328800  0.38886300  1
  O  O5  1  0.31498900  0.31960000  0.88601100  1
  O  O6  1  0.82267600  0.16991600  0.61097000  1
  O  O7  1  0.70556600  0.67606200  0.11215600  1
  O  O8  1  0.64267800  0.99616200  0.39448800  1
  O  O9  1  0.86437500  0.51109100  0.89601100  1
  O  O10  1  0.34936500  0.00050400  0.60333700  1
  O  O11  1  0.15918100  0.48968200  0.11554400  1
  O  O12  1  0.16159600  0.50448900  0.38219800  1
  O  O13  1  0.37518500  0.01065000  0.89542900  1
  O  O14  1  0.86084800  0.48891000  0.60290600  1
  O  O15  1  0.65090500  0.99356900  0.11372800  1
  O  O16  1  0.19436400  0.19102400  0.38549200  1
  O  O17  1  0.33531100  0.69020900  0.89090400  1
  O  O18  1  0.78973000  0.80533200  0.61073400  1
  O  O19  1  0.66941900  0.32812800  0.10679600  1
  O  O20  1  0.66848800  0.68372300  0.39636600  1
  O  O21  1  0.83757600  0.17831400  0.89809700  1
  O  O22  1  0.32127500  0.31478100  0.59951100  1
  O  O23  1  0.18723100  0.81229400  0.10708900  1
loop_
_geom_bond_atom_site_label_1
_geom_bond_atom_site_label_2
_geom_bond_distance
_geom_bond_site_symmetry_2
Al0 O22 1.873207 1_655
Al0 O14 1.878314 1_555
Al0 O0 1.878457 1_555
Al0 O16 1.901225 1_655
Al0 O6 1.924041 1_555
Al0 O12 2.124056 1_655
Al1 O23 1.863763 1_555
Al1 O13 1.910191 1_564
Al1 O15 1.927995 1_555
Al1 O1 1.934853 1_554
Al1 O17 1.958439 1_554
Al1 O7 1.986482 1_555
Al2 O18 1.840025 1_555
Al2 O2 1.855376 1_655
Al2 O20 1.887422 1_555
Al2 O14 1.929350 1_555
Al2 O4 1.969457 1_655
Al2 O12 2.080616 1_655
Al3 O19 1.860602 1_555
Al3 O3 1.885681 1_555
Al3 O21 1.932382 1_554
Al3 O15 1.954656 1_545
Al3 O5 1.969459 1_554
Al3 O13 2.012653 1_554
Al4 O22 1.899623 1_555
Al4 O8 1.908606 1_545
Al4 O6 1.912851 1_555
Al4 O0 1.921343 1_555
Al4 O10 1.921772 1_555
Al4 O16 1.923274 1_555
Al5 O23 1.893677 1_555
Al5 O7 1.897974 1_455
Al5 O17 1.907648 1_554
Al5 O9 1.930025 1_454
Al5 O1 1.952349 1_454
Al5 O11 1.972128 1_555
Al6 O18 1.882805 1_555
Al6 O10 1.883383 1_565
Al6 O20 1.921461 1_555
Al6 O2 1.921714 1_555
Al6 O8 1.946473 1_555
Al6 O4 1.958855 1_555
Al7 O19 1.842210 1_555
Al7 O3 1.889450 1_655
Al7 O21 1.922136 1_554
Al7 O9 1.949549 1_554
Al7 O11 2.000273 1_655
Al7 O5 2.015514 1_654
H0 O0 1.022267 1_555
H0 O19 1.722664 1_555
H1 O1 0.977863 1_555
H2 O2 0.988366 1_555
H3 O3 0.987221 1_555
H4 O4 0.986697 1_555
H5 O5 0.975953 1_555
H6 O6 0.984627 1_555
H7 O7 0.982205 1_555
H8 O8 0.995489 1_545
H9 O9 0.990319 1_555
H10 O10 0.992682 1_565
H11 O11 1.005667 1_555
H12 O12 0.992673 1_555
H13 O12 1.054547 1_555
H13 O11 1.524305 1_555
H14 O13 0.975832 1_555
H15 O14 0.982084 1_555
H16 O15 0.978160 1_555
H17 O16 0.979482 1_555
H18 O17 0.987100 1_555
H19 O18 0.990734 1_555
H20 O20 0.991875 1_555
H21 O21 0.989427 1_555
H22 O22 0.997748 1_555
H23 O23 1.000200 1_555
