# generated using pymatgen
data_Li7Zr3Nb(TeO6)4
_symmetry_space_group_name_H-M   'P 1'
_cell_length_a   5.26610100
_cell_length_b   5.53573144
_cell_length_c   34.71059395
_cell_angle_alpha   92.43400749
_cell_angle_beta   90.00297946
_cell_angle_gamma   118.36488486
_symmetry_Int_Tables_number   1
_chemical_formula_structural   Li7Zr3Nb(TeO6)4
_chemical_formula_sum   'Li14 Zr6 Nb2 Te8 O48'
_cell_volume   889.34909438
_cell_formula_units_Z   2
loop_
 _symmetry_equiv_pos_site_id
 _symmetry_equiv_pos_as_xyz
  1  'x, y, z'
loop_
 _atom_site_type_symbol
 _atom_site_label
 _atom_site_symmetry_multiplicity
 _atom_site_fract_x
 _atom_site_fract_y
 _atom_site_fract_z
 _atom_site_occupancy
  Li  Li0  1  0.38956400  0.78081600  0.03429700  1
  Li  Li1  1  0.76415900  0.52806800  0.15998200  1
  Li  Li2  1  0.06154100  0.12301800  0.09419400  1
  Li  Li3  1  0.13944400  0.27937100  0.28565400  1
  Li  Li4  1  0.43785600  0.87614000  0.22154200  1
  Li  Li5  1  0.51450700  0.02951000  0.41075000  1
  Li  Li6  1  0.81360800  0.62664200  0.34682600  1
  Li  Li7  1  0.88950000  0.77950800  0.53580800  1
  Li  Li8  1  0.18858200  0.37657400  0.47187600  1
  Li  Li9  1  0.26449700  0.52895200  0.66152100  1
  Li  Li10  1  0.56298000  0.12617400  0.59698200  1
  Li  Li11  1  0.64446300  0.28139900  0.78591200  1
  Li  Li12  1  0.93510300  0.87463400  0.72286800  1
  Li  Li13  1  0.01546100  0.03590000  0.90941200  1
  Zr  Zr0  1  0.37870700  0.75525000  0.12491500  1
  Zr  Zr1  1  0.75295400  0.50527300  0.25029200  1
  Zr  Zr2  1  0.12828500  0.25554900  0.37551600  1
  Zr  Zr3  1  0.50334100  0.00564500  0.50056400  1
  Zr  Zr4  1  0.87801600  0.75593000  0.62574400  1
  Zr  Zr5  1  0.25230200  0.50915000  0.75189400  1
  Nb  Nb0  1  0.62726400  0.25903200  0.87480600  1
  Nb  Nb1  1  0.00501800  0.00405500  0.99763600  1
  Te  Te0  1  0.68571100  0.37725600  0.06088600  1
  Te  Te1  1  0.06225100  0.12515100  0.18707900  1
  Te  Te2  1  0.43738300  0.87564600  0.31255200  1
  Te  Te3  1  0.81241500  0.62579100  0.43768200  1
  Te  Te4  1  0.18737800  0.37591000  0.56272700  1
  Te  Te5  1  0.56215800  0.12652600  0.68803200  1
  Te  Te6  1  0.94803700  0.88102200  0.81386900  1
  Te  Te7  1  0.32002500  0.63183900  0.93701700  1
  O  O0  1  0.41241400  0.06423200  0.08937100  1
  O  O1  1  0.40093100  0.18950300  0.01818200  1
  O  O2  1  0.86020500  0.14308200  0.04434000  1
  O  O3  1  0.47873100  0.57355600  0.07527500  1
  O  O4  1  0.93816500  0.50800200  0.10587600  1
  O  O5  1  0.77694200  0.81059000  0.21429400  1
  O  O6  1  0.95521000  0.67617600  0.03092100  1
  O  O7  1  0.81638500  0.95627100  0.14066200  1
  O  O8  1  0.23919400  0.89203800  0.17310000  1
  O  O9  1  0.85477700  0.32363000  0.20079600  1
  O  O10  1  0.30981200  0.26044600  0.23262200  1
  O  O11  1  0.15164100  0.56054800  0.33956800  1
  O  O12  1  0.33360200  0.41384200  0.15597000  1
  O  O13  1  0.18959400  0.70744900  0.26636800  1
  O  O14  1  0.61528100  0.64363200  0.29859700  1
  O  O15  1  0.23050700  0.07453400  0.32616500  1
  O  O16  1  0.68466400  0.01131700  0.35800100  1
  O  O17  1  0.52653900  0.31055200  0.46459000  1
  O  O18  1  0.70825700  0.16340100  0.28123100  1
  O  O19  1  0.56491000  0.45780800  0.39145700  1
  O  O20  1  0.99048600  0.39388200  0.42373600  1
  O  O21  1  0.60555500  0.82462800  0.45121100  1
  O  O22  1  0.05963500  0.76144800  0.48305400  1
  O  O23  1  0.90124800  0.06031100  0.58968400  1
  O  O24  1  0.08341200  0.91328200  0.40628500  1
  O  O25  1  0.93996200  0.20805300  0.51654600  1
  O  O26  1  0.36543500  0.14414200  0.54880800  1
  O  O27  1  0.98053100  0.57495800  0.57639400  1
  O  O28  1  0.43461500  0.51188000  0.60824100  1
  O  O29  1  0.27646400  0.81030300  0.71499200  1
  O  O30  1  0.45811900  0.66314400  0.53134900  1
  O  O31  1  0.31474600  0.95996500  0.64191300  1
  O  O32  1  0.74104400  0.89557300  0.67416200  1
  O  O33  1  0.35906400  0.32816600  0.70235800  1
  O  O34  1  0.81007600  0.26140900  0.73375400  1
  O  O35  1  0.68253300  0.55572900  0.84292600  1
  O  O36  1  0.83294400  0.41386100  0.65674800  1
  O  O37  1  0.68593600  0.71736200  0.76959100  1
  O  O38  1  0.11040800  0.64974900  0.79761700  1
  O  O39  1  0.74198100  0.08353800  0.82974300  1
  O  O40  1  0.19812100  0.02557300  0.85958800  1
  O  O41  1  0.06509300  0.30864400  0.96709800  1
  O  O42  1  0.21379100  0.16751200  0.78261800  1
  O  O43  1  0.02334700  0.44439000  0.89665700  1
  O  O44  1  0.48127100  0.39846000  0.91851600  1
  O  O45  1  0.11010400  0.83051700  0.95269200  1
  O  O46  1  0.57175800  0.77488200  0.98241700  1
  O  O47  1  0.58404700  0.92629900  0.90708500  1
loop_
_geom_bond_atom_site_label_1
_geom_bond_atom_site_label_2
_geom_bond_distance
_geom_bond_site_symmetry_2
Li0 O46 2.046841 1_554
Li0 O3 2.051938 1_555
Li0 O6 2.077622 1_455
Li0 O1 2.326725 1_565
Li0 O2 2.346012 1_565
Li0 O0 2.386678 1_565
Li1 O9 2.040767 1_555
Li1 O12 2.047036 1_555
Li1 O4 2.111458 1_555
Li1 O5 2.377820 1_555
Li1 O8 2.378582 1_655
Li1 O7 2.379039 1_555
Li2 O7 2.028469 1_445
Li2 O0 2.028492 1_555
Li2 O2 2.063736 1_455
Li2 O4 2.524024 1_455
Li2 O3 2.532027 1_555
Li2 O12 2.599479 1_555
Li3 O15 2.035944 1_555
Li3 O18 2.048945 1_455
Li3 O10 2.068197 1_555
Li3 O11 2.363589 1_555
Li3 O14 2.380936 1_555
Li3 O13 2.381930 1_555
Li4 O13 1.991431 1_555
Li4 O5 1.997878 1_555
Li4 O8 2.007329 1_555
Li4 O18 2.533225 1_565
Li4 O10 2.534172 1_565
Li4 O9 2.541524 1_565
Li5 O21 2.034839 1_545
Li5 O24 2.048262 1_545
Li5 O16 2.058083 1_555
Li5 O17 2.361419 1_555
Li5 O20 2.381859 1_555
Li5 O19 2.382689 1_555
Li6 O19 1.987162 1_555
Li6 O11 1.994296 1_655
Li6 O14 2.002157 1_555
Li6 O24 2.524959 1_655
Li6 O16 2.539669 1_565
Li6 O15 2.541804 1_665
Li7 O27 2.036612 1_555
Li7 O30 2.049531 1_555
Li7 O22 2.058023 1_655
Li7 O23 2.361991 1_565
Li7 O26 2.382274 1_665
Li7 O25 2.383533 1_565
Li8 O25 1.987736 1_455
Li8 O17 1.993780 1_555
Li8 O20 1.999489 1_455
Li8 O30 2.524846 1_555
Li8 O22 2.540748 1_555
Li8 O21 2.542523 1_555
Li9 O33 2.037734 1_555
Li9 O36 2.052637 1_455
Li9 O28 2.073035 1_555
Li9 O29 2.352807 1_555
Li9 O32 2.386242 1_555
Li9 O31 2.400865 1_555
Li10 O31 1.991723 1_545
Li10 O23 1.994904 1_555
Li10 O26 2.000111 1_555
Li10 O36 2.535504 1_555
Li10 O28 2.543458 1_555
Li10 O27 2.545211 1_555
Li11 O34 2.031105 1_555
Li11 O42 2.046816 1_555
Li11 O39 2.110447 1_555
Li11 O38 2.349290 1_655
Li11 O35 2.391276 1_555
Li11 O37 2.410048 1_555
Li12 O29 2.008265 1_655
Li12 O32 2.011213 1_555
Li12 O37 2.035820 1_555
Li12 O34 2.535995 1_565
Li12 O42 2.556752 1_665
Li12 O33 2.573070 1_665
Li13 O40 1.990842 1_555
Li13 O47 2.054784 1_445
Li13 O45 2.116905 1_545
Li13 O43 2.303689 1_555
Li13 O44 2.326668 1_555
Li13 O41 2.392780 1_555
Nb0 O35 1.925357 1_555
Nb0 O43 1.969490 1_655
Nb0 O44 1.988263 1_555
Nb0 O39 2.045487 1_555
Nb0 O40 2.055048 1_555
Nb0 O47 2.115851 1_545
Nb1 O41 1.926571 1_555
Nb1 O1 1.952775 1_556
Nb1 O45 2.010160 1_545
Nb1 O2 2.062457 1_456
Nb1 O46 2.070467 1_445
Nb1 O6 2.103286 1_446
O0 Te0 1.956431 1_555
O0 Zr0 2.090465 1_545
O1 Te0 1.978468 1_555
O2 Te0 1.980743 1_555
O3 Te0 1.922945 1_555
O3 Zr0 2.148078 1_555
O4 Te0 1.928595 1_555
O4 Zr0 2.144323 1_655
O5 Te1 1.958553 1_665
O5 Zr1 2.100091 1_555
O6 Te0 1.936252 1_555
O7 Te1 1.966711 1_665
O7 Zr0 2.088208 1_555
O8 Te1 1.964266 1_565
O8 Zr0 2.081266 1_555
O9 Te1 1.929734 1_655
O9 Zr1 2.148470 1_555
O10 Te1 1.931580 1_555
O10 Zr1 2.140777 1_555
O11 Te2 1.957381 1_555
O11 Zr2 2.098662 1_555
O12 Te1 1.933593 1_555
O12 Zr0 2.129970 1_555
O13 Te2 1.964199 1_555
O13 Zr1 2.086326 1_455
O14 Te2 1.962742 1_555
O14 Zr1 2.083802 1_555
O15 Te2 1.928175 1_545
O15 Zr2 2.143618 1_555
O16 Te2 1.928310 1_545
O16 Zr2 2.141045 1_655
O17 Te3 1.956116 1_555
O17 Zr3 2.099091 1_555
O18 Te2 1.934523 1_545
O18 Zr1 2.130653 1_555
O19 Te3 1.964529 1_555
O19 Zr2 2.085119 1_555
O20 Te3 1.962886 1_555
O20 Zr2 2.081750 1_655
O21 Te3 1.927228 1_555
O21 Zr3 2.143658 1_565
O22 Te3 1.926008 1_455
O22 Zr3 2.141335 1_565
O23 Te4 1.958545 1_655
O23 Zr4 2.098580 1_545
O24 Te3 1.935598 1_455
O24 Zr2 2.129049 1_565
O25 Te4 1.963021 1_655
O25 Zr3 2.085448 1_555
O26 Te4 1.961944 1_555
O26 Zr3 2.083156 1_555
O27 Te4 1.929196 1_655
O27 Zr4 2.144190 1_555
O28 Te4 1.930063 1_555
O28 Zr4 2.139919 1_555
O29 Te5 1.959700 1_565
O29 Zr5 2.101413 1_555
O30 Te4 1.934031 1_555
O30 Zr3 2.129889 1_565
O31 Te5 1.960425 1_565
O31 Zr4 2.087558 1_455
O32 Te5 1.961093 1_565
O32 Zr4 2.088520 1_555
O33 Te5 1.929852 1_555
O33 Zr5 2.159922 1_555
O34 Te5 1.937416 1_555
O34 Zr5 2.143006 1_655
O35 Te6 1.994218 1_555
O36 Te5 1.932441 1_555
O36 Zr4 2.132196 1_555
O37 Te6 1.944568 1_555
O37 Zr5 2.087895 1_555
O38 Te6 1.915020 1_455
O38 Zr5 2.032421 1_555
O39 Te6 1.959934 1_545
O40 Te6 1.945168 1_445
O41 Te7 1.992503 1_555
O42 Te6 1.920362 1_445
O42 Zr5 2.135893 1_555
O43 Te7 1.953490 1_555
O44 Te7 1.942792 1_555
O45 Te7 1.957596 1_555
O46 Te7 1.940129 1_555
O47 Te7 1.913160 1_555
