# generated using pymatgen
data_Li2Fe(PO4)2
_symmetry_space_group_name_H-M   'P 1'
_cell_length_a   8.64610900
_cell_length_b   4.96785400
_cell_length_c   6.77786329
_cell_angle_alpha   85.03968376
_cell_angle_beta   90.00000000
_cell_angle_gamma   90.00000000
_symmetry_Int_Tables_number   1
_chemical_formula_structural   Li2Fe(PO4)2
_chemical_formula_sum   'Li4 Fe2 P4 O16'
_cell_volume   290.03657798
_cell_formula_units_Z   2
loop_
 _symmetry_equiv_pos_site_id
 _symmetry_equiv_pos_as_xyz
  1  'x, y, z'
loop_
 _atom_site_type_symbol
 _atom_site_label
 _atom_site_symmetry_multiplicity
 _atom_site_fract_x
 _atom_site_fract_y
 _atom_site_fract_z
 _atom_site_occupancy
  Li  Li0  1  0.64433400  0.74145500  0.92437500  1
  Li  Li1  1  0.49845800  0.24237500  0.73796700  1
  Li  Li2  1  0.14433400  0.25854500  0.07562500  1
  Li  Li3  1  0.99845800  0.75762500  0.26203300  1
  Fe  Fe0  1  0.99818900  0.75545800  0.74021100  1
  Fe  Fe1  1  0.49818900  0.24454200  0.25978900  1
  P  P0  1  0.82146300  0.22422600  0.97605900  1
  P  P1  1  0.67771200  0.71551500  0.47321900  1
  P  P2  1  0.17771200  0.28448500  0.52678100  1
  P  P3  1  0.32146300  0.77577400  0.02394100  1
  O  O0  1  0.85550600  0.06111600  0.79584700  1
  O  O1  1  0.62816400  0.57182500  0.28962900  1
  O  O2  1  0.42697500  0.88899800  0.85423600  1
  O  O3  1  0.14492500  0.81925500  0.97873500  1
  O  O4  1  0.35688500  0.29997700  0.50307000  1
  O  O5  1  0.62513100  0.01387500  0.45030200  1
  O  O6  1  0.12513100  0.98612500  0.54969800  1
  O  O7  1  0.92697500  0.11100200  0.14576400  1
  O  O8  1  0.35544600  0.46888600  0.06594700  1
  O  O9  1  0.64492500  0.18074500  0.02126500  1
  O  O10  1  0.12816400  0.42817500  0.71037100  1
  O  O11  1  0.35550600  0.93888400  0.20415300  1
  O  O12  1  0.85688500  0.70002300  0.49693000  1
  O  O13  1  0.60949800  0.58001200  0.66783000  1
  O  O14  1  0.10949800  0.41998800  0.33217000  1
  O  O15  1  0.85544600  0.53111400  0.93405300  1
loop_
_geom_bond_atom_site_label_1
_geom_bond_atom_site_label_2
_geom_bond_distance
_geom_bond_site_symmetry_2
Li0 O13 1.999662 1_555
Li0 O2 2.057861 1_555
Li0 O15 2.101444 1_555
Li0 O9 2.332742 1_566
Li0 O0 2.524896 1_565
Li0 O1 2.549061 1_556
Li1 O13 1.955315 1_555
Li1 O2 1.961031 1_545
Li1 O4 2.009028 1_555
Li1 O9 2.298426 1_556
Li1 O5 2.583096 1_555
Li2 O14 1.999662 1_555
Li2 O7 2.057861 1_455
Li2 O8 2.101444 1_555
Li2 O3 2.332742 1_544
Li2 O11 2.524896 1_545
Li2 O10 2.549061 1_554
Li3 O14 1.955315 1_655
Li3 O7 1.961031 1_565
Li3 O12 2.009028 1_555
Li3 O3 2.298426 1_654
Li3 O6 2.583096 1_655
Fe0 O6 1.982234 1_655
Fe0 O10 2.001045 1_655
Fe0 O0 2.017140 1_565
Fe0 O15 2.058701 1_555
Fe0 O12 2.089485 1_555
Fe0 O3 2.100549 1_655
Fe1 O5 1.982234 1_555
Fe1 O1 2.001045 1_555
Fe1 O11 2.017140 1_545
Fe1 O8 2.058701 1_555
Fe1 O4 2.089485 1_555
Fe1 O9 2.100549 1_555
O0 P0 1.551237 1_555
O1 P1 1.547607 1_555
O2 P3 1.536157 1_556
O3 P3 1.568085 1_556
O4 P2 1.558677 1_555
O5 P1 1.545295 1_545
O6 P2 1.545295 1_565
O7 P0 1.536157 1_554
O8 P3 1.554560 1_555
O9 P0 1.568085 1_554
O10 P2 1.547607 1_555
O11 P3 1.551237 1_555
O12 P1 1.558677 1_555
O13 P1 1.545097 1_555
O14 P2 1.545097 1_555
O15 P0 1.554560 1_555
