# generated using pymatgen
data_ZnAs4(HO2)8
_symmetry_space_group_name_H-M   'P 1'
_cell_length_a   5.63059200
_cell_length_b   7.45949912
_cell_length_c   8.17820322
_cell_angle_alpha   96.42591137
_cell_angle_beta   96.16135720
_cell_angle_gamma   92.72469471
_symmetry_Int_Tables_number   1
_chemical_formula_structural   ZnAs4(HO2)8
_chemical_formula_sum   'Zn1 As4 H8 O16'
_cell_volume   338.74918981
_cell_formula_units_Z   1
loop_
 _symmetry_equiv_pos_site_id
 _symmetry_equiv_pos_as_xyz
  1  'x, y, z'
loop_
 _atom_site_type_symbol
 _atom_site_label
 _atom_site_symmetry_multiplicity
 _atom_site_fract_x
 _atom_site_fract_y
 _atom_site_fract_z
 _atom_site_occupancy
  Zn  Zn0  1  0.00000000  0.00000000  0.00000000  1
  As  As0  1  0.07901800  0.31094600  0.74433700  1
  As  As1  1  0.44464500  0.82796000  0.79593000  1
  As  As2  1  0.55535500  0.17204000  0.20407000  1
  As  As3  1  0.92098200  0.68905400  0.25566300  1
  H  H0  1  0.01798700  0.61916100  0.77471000  1
  H  H1  1  0.27715400  0.27837400  0.51005700  1
  H  H2  1  0.37319700  0.42591900  0.31014600  1
  H  H3  1  0.35294200  0.92251400  0.27260400  1
  H  H4  1  0.64705800  0.07748600  0.72739600  1
  H  H5  1  0.62680300  0.57408100  0.68985400  1
  H  H6  1  0.72284600  0.72162600  0.48994300  1
  H  H7  1  0.98201300  0.38083900  0.22529000  1
  O  O0  1  0.16009600  0.80199300  0.83924900  1
  O  O1  1  0.11767800  0.23983000  0.53792600  1
  O  O2  1  0.09539700  0.85441100  0.19589100  1
  O  O3  1  0.08988000  0.49712000  0.26337100  1
  O  O4  1  0.34178700  0.37884600  0.87138600  1
  O  O5  1  0.49318000  0.64564400  0.64556400  1
  O  O6  1  0.47896500  0.01710700  0.69277600  1
  O  O7  1  0.32925600  0.15622000  0.04077600  1
  O  O8  1  0.67074400  0.84378000  0.95922400  1
  O  O9  1  0.52103500  0.98289300  0.30722400  1
  O  O10  1  0.50682000  0.35435600  0.35443600  1
  O  O11  1  0.65821300  0.62115400  0.12861400  1
  O  O12  1  0.91012000  0.50288000  0.73662900  1
  O  O13  1  0.90460200  0.14558900  0.80410900  1
  O  O14  1  0.88232200  0.76017000  0.46207400  1
  O  O15  1  0.83990400  0.19800700  0.16075100  1
loop_
_geom_bond_atom_site_label_1
_geom_bond_atom_site_label_2
_geom_bond_distance
_geom_bond_site_symmetry_2
As0 O13 1.687520 1_455
As0 O4 1.733824 1_555
As0 O1 1.751513 1_555
As0 O12 1.759263 1_455
As1 O0 1.684548 1_555
As1 O8 1.733079 1_555
As1 O6 1.736458 1_565
As1 O5 1.780335 1_555
As2 O15 1.684548 1_555
As2 O7 1.733079 1_555
As2 O9 1.736458 1_545
As2 O10 1.780335 1_555
As3 O2 1.687517 1_655
As3 O11 1.733824 1_555
As3 O14 1.751513 1_555
As3 O3 1.759263 1_655
H0 O12 1.033003 1_455
H0 O0 1.556710 1_555
H1 O1 0.987407 1_555
H2 O10 1.002599 1_555
H3 O9 1.025777 1_555
H3 O2 1.554955 1_555
H4 O6 1.025777 1_555
H4 O13 1.554951 1_555
H5 O5 1.002599 1_555
H6 O14 0.987407 1_555
H7 O3 1.033003 1_655
H7 O15 1.556710 1_555
O0 Zn0 2.160754 1_566
O2 Zn0 2.072358 1_565
O7 Zn0 2.116852 1_555
O8 Zn0 2.116852 1_666
O13 Zn0 2.072359 1_656
O15 Zn0 2.160754 1_655
