# generated using pymatgen
data_Ca4(H4Rh)3
_symmetry_space_group_name_H-M   'P 1'
_cell_length_a   6.29643391
_cell_length_b   6.29643450
_cell_length_c   6.29643509
_cell_angle_alpha   109.47121685
_cell_angle_beta   109.47115611
_cell_angle_gamma   109.47130039
_symmetry_Int_Tables_number   1
_chemical_formula_structural   Ca4(H4Rh)3
_chemical_formula_sum   'Ca4 H12 Rh3'
_cell_volume   192.15961410
_cell_formula_units_Z   1
loop_
 _symmetry_equiv_pos_site_id
 _symmetry_equiv_pos_as_xyz
  1  'x, y, z'
loop_
 _atom_site_type_symbol
 _atom_site_label
 _atom_site_symmetry_multiplicity
 _atom_site_fract_x
 _atom_site_fract_y
 _atom_site_fract_z
 _atom_site_occupancy
  Ca  Ca0  1  -0.00000000  -0.00000000  0.50000000  1
  Ca  Ca1  1  -0.00000000  0.50000000  0.00000000  1
  Ca  Ca2  1  0.50000000  -0.00000000  0.00000000  1
  Ca  Ca3  1  0.50000000  0.50000000  0.50000000  1
  H  H0  1  0.73282306  0.73282306  -0.00000000  1
  H  H1  1  0.26717694  0.00000000  0.26717694  1
  H  H2  1  0.00000000  0.26717694  0.26717694  1
  H  H3  1  0.26717694  0.26717694  0.00000000  1
  H  H4  1  0.73282306  -0.00000000  0.73282306  1
  H  H5  1  -0.00000000  0.73282306  0.73282306  1
  H  H6  1  0.75000000  0.25000000  0.50000000  1
  H  H7  1  0.75000000  0.50000000  0.25000000  1
  H  H8  1  0.50000000  0.25000000  0.75000000  1
  H  H9  1  0.25000000  0.50000000  0.75000000  1
  H  H10  1  0.25000000  0.75000000  0.50000000  1
  H  H11  1  0.50000000  0.75000000  0.25000000  1
  Rh  Rh0  1  -0.00000000  0.50000000  0.50000000  1
  Rh  Rh1  1  0.50000000  0.50000000  0.00000000  1
  Rh  Rh2  1  0.50000000  -0.00000000  0.50000000  1
loop_
_geom_bond_atom_site_label_1
_geom_bond_atom_site_label_2
_geom_bond_distance
_geom_bond_site_symmetry_2
Ca0 H7 2.570507 1_445
Ca0 H9 2.570507 1_555
Ca0 H8 2.570508 1_555
Ca0 H11 2.570508 1_445
Ca0 H10 2.570510 1_545
Ca0 H6 2.570510 1_455
Ca0 H4 2.573539 1_455
Ca0 H1 2.573539 1_555
Ca0 H2 2.573541 1_555
Ca0 H5 2.573541 1_545
Ca0 H3 2.573542 1_556
Ca0 H0 2.573542 1_445
Ca1 H7 2.570508 1_455
Ca1 H9 2.570508 1_554
Ca1 H8 2.570508 1_454
Ca1 H11 2.570508 1_555
Ca1 H10 2.570510 1_555
Ca1 H6 2.570510 1_454
Ca1 H4 2.573539 1_454
Ca1 H1 2.573539 1_565
Ca1 H2 2.573541 1_555
Ca1 H5 2.573541 1_554
Ca1 H0 2.573542 1_455
Ca1 H3 2.573542 1_555
Ca2 H7 2.570507 1_555
Ca2 H9 2.570507 1_544
Ca2 H11 2.570509 1_545
Ca2 H8 2.570509 1_554
Ca2 H6 2.570510 1_555
Ca2 H10 2.570510 1_544
Ca2 H4 2.573540 1_554
Ca2 H1 2.573540 1_555
Ca2 H5 2.573540 1_544
Ca2 H2 2.573540 1_655
Ca2 H0 2.573542 1_545
Ca2 H3 2.573542 1_555
Ca3 H9 2.570508 1_555
Ca3 H7 2.570508 1_555
Ca3 H11 2.570509 1_555
Ca3 H8 2.570509 1_555
Ca3 H6 2.570510 1_555
Ca3 H10 2.570510 1_555
Ca3 H1 2.573539 1_555
Ca3 H4 2.573539 1_565
Ca3 H2 2.573540 1_555
Ca3 H5 2.573540 1_655
Ca3 H0 2.573542 1_556
Ca3 H3 2.573542 1_555
H0 Rh1 1.692737 1_555
H1 Rh2 1.692741 1_555
H2 Rh0 1.692739 1_555
H3 Rh1 1.692737 1_555
H4 Rh2 1.692741 1_555
H5 Rh0 1.692739 1_555
H6 Rh2 1.817622 1_555
H6 Rh0 1.817622 1_655
H7 Rh0 1.817626 1_655
H7 Rh1 1.817626 1_555
H8 Rh2 1.817624 1_555
H8 Rh1 1.817624 1_556
H9 Rh0 1.817626 1_555
H9 Rh1 1.817626 1_556
H10 Rh0 1.817622 1_555
H10 Rh2 1.817622 1_565
H11 Rh2 1.817624 1_565
H11 Rh1 1.817624 1_555
