# generated using pymatgen
data_Cs4Sb14S23
_symmetry_space_group_name_H-M   'P 1'
_cell_length_a   12.24768200
_cell_length_b   14.39536782
_cell_length_c   15.08294575
_cell_angle_alpha   93.56290057
_cell_angle_beta   94.56028289
_cell_angle_gamma   110.06878934
_symmetry_Int_Tables_number   1
_chemical_formula_structural   Cs4Sb14S23
_chemical_formula_sum   'Cs8 Sb28 S46'
_cell_volume   2478.51469291
_cell_formula_units_Z   2
loop_
 _symmetry_equiv_pos_site_id
 _symmetry_equiv_pos_as_xyz
  1  'x, y, z'
loop_
 _atom_site_type_symbol
 _atom_site_label
 _atom_site_symmetry_multiplicity
 _atom_site_fract_x
 _atom_site_fract_y
 _atom_site_fract_z
 _atom_site_occupancy
  Cs  Cs0  1  0.35637700  0.26686300  0.02116300  1
  Cs  Cs1  1  0.84050800  0.24023200  0.00751400  1
  Cs  Cs2  1  0.64362300  0.73313700  0.97883700  1
  Cs  Cs3  1  0.24561000  0.97248400  0.71843800  1
  Cs  Cs4  1  0.26160600  0.00490600  0.43131900  1
  Cs  Cs5  1  0.73839400  0.99509400  0.56868100  1
  Cs  Cs6  1  0.75439000  0.02751600  0.28156200  1
  Cs  Cs7  1  0.15949200  0.75976800  0.99248600  1
  Sb  Sb0  1  0.60596900  0.61388700  0.28952700  1
  Sb  Sb1  1  0.41530700  0.70613500  0.71458800  1
  Sb  Sb2  1  0.58586200  0.23475400  0.78066600  1
  Sb  Sb3  1  0.91022600  0.77393000  0.22640400  1
  Sb  Sb4  1  0.39454800  0.02789900  0.19313200  1
  Sb  Sb5  1  0.08977400  0.22607000  0.77359600  1
  Sb  Sb6  1  0.08892100  0.30457500  0.27932600  1
  Sb  Sb7  1  0.41413800  0.76524600  0.21933400  1
  Sb  Sb8  1  0.89028300  0.37235900  0.70681200  1
  Sb  Sb9  1  0.88452400  0.38904100  0.40844100  1
  Sb  Sb10  1  0.76467200  0.47374200  0.11907800  1
  Sb  Sb11  1  0.10971700  0.62764100  0.29318800  1
  Sb  Sb12  1  0.11054400  0.04400300  0.19493700  1
  Sb  Sb13  1  0.61973600  0.62121200  0.58782800  1
  Sb  Sb14  1  0.40479600  0.71699300  0.45957000  1
  Sb  Sb15  1  0.58469300  0.29386500  0.28541200  1
  Sb  Sb16  1  0.90381600  0.71724700  0.46705800  1
  Sb  Sb17  1  0.11547600  0.61095900  0.59155900  1
  Sb  Sb18  1  0.23532800  0.52625800  0.88092200  1
  Sb  Sb19  1  0.88945600  0.95599700  0.80506300  1
  Sb  Sb20  1  0.74509300  0.52275200  0.88440300  1
  Sb  Sb21  1  0.39403100  0.38611300  0.71047300  1
  Sb  Sb22  1  0.60545200  0.97210100  0.80686800  1
  Sb  Sb23  1  0.38026400  0.37878800  0.41217200  1
  Sb  Sb24  1  0.59520400  0.28300700  0.54043000  1
  Sb  Sb25  1  0.09618400  0.28275300  0.53294200  1
  Sb  Sb26  1  0.91107900  0.69542500  0.72067400  1
  Sb  Sb27  1  0.25490700  0.47724800  0.11559700  1
  S  S0  1  0.38401800  0.25729600  0.52779700  1
  S  S1  1  0.40813800  0.54824100  0.57509300  1
  S  S2  1  0.62769800  0.74441100  0.72282100  1
  S  S3  1  0.88537400  0.25618500  0.51645600  1
  S  S4  1  0.55743500  0.16624300  0.15101700  1
  S  S5  1  0.90347200  0.53737100  0.57585500  1
  S  S6  1  0.42114300  0.50346200  0.84995100  1
  S  S7  1  0.91986600  0.82383500  0.61444300  1
  S  S8  1  0.61598200  0.74270400  0.47220300  1
  S  S9  1  0.76636800  0.97897100  0.92406400  1
  S  S10  1  0.44256500  0.83375700  0.84898300  1
  S  S11  1  0.57885700  0.49653800  0.15004900  1
  S  S12  1  0.11955700  0.71622400  0.73721200  1
  S  S13  1  0.93455200  0.86697400  0.37841100  1
  S  S14  1  0.89785400  0.57513200  0.29879600  1
  S  S15  1  0.45280600  0.86775400  0.36839100  1
  S  S16  1  0.85637800  0.61891200  0.03875700  1
  S  S17  1  0.46547200  0.90679200  0.11835000  1
  S  S18  1  0.61418800  0.76765200  0.20890900  1
  S  S19  1  0.41195200  0.82646000  0.60231300  1
  S  S20  1  0.35001000  0.62159600  0.03472000  1
  S  S21  1  0.14362200  0.38108800  0.96124300  1
  S  S22  1  0.06544800  0.13302600  0.62158900  1
  S  S23  1  0.58804800  0.17354000  0.39768700  1
  S  S24  1  0.06130700  0.18220600  0.13780500  1
  S  S25  1  0.88244100  0.20799400  0.77560800  1
  S  S26  1  0.92152900  0.91908700  0.13646800  1
  S  S27  1  0.09652800  0.46262900  0.42414500  1
  S  S28  1  0.10214600  0.42486800  0.70120400  1
  S  S29  1  0.93869300  0.81779400  0.86219500  1
  S  S30  1  0.07847100  0.08091300  0.86353200  1
  S  S31  1  0.38581200  0.23234800  0.79109100  1
  S  S32  1  0.23363200  0.02102900  0.07593600  1
  S  S33  1  0.60579500  0.43284300  0.70536000  1
  S  S34  1  0.54719400  0.13224600  0.63160900  1
  S  S35  1  0.59186200  0.45175900  0.42490700  1
  S  S36  1  0.53452800  0.09320800  0.88165000  1
  S  S37  1  0.11462600  0.74381500  0.48354400  1
  S  S38  1  0.08013400  0.17616500  0.38555700  1
  S  S39  1  0.07894200  0.51314800  0.14971100  1
  S  S40  1  0.11755900  0.79200600  0.22439200  1
  S  S41  1  0.39420500  0.56715700  0.29464000  1
  S  S42  1  0.64999000  0.37840400  0.96528000  1
  S  S43  1  0.92105800  0.48685200  0.85028900  1
  S  S44  1  0.37230200  0.25558900  0.27717900  1
  S  S45  1  0.88044300  0.28377600  0.26278800  1
loop_
_geom_bond_atom_site_label_1
_geom_bond_atom_site_label_2
_geom_bond_distance
_geom_bond_site_symmetry_2
Cs0 S32 3.517929 1_555
Cs0 S31 3.539271 1_554
Cs0 S42 3.592750 1_554
Cs0 S21 3.614041 1_554
Cs0 S4 3.745868 1_555
Cs0 S11 3.783015 1_555
Cs0 S44 3.867199 1_555
Cs0 Sb27 3.882512 1_555
Cs0 S24 3.986939 1_555
Cs0 S30 4.009054 1_554
Cs1 S24 3.575188 1_655
Cs1 S42 3.593494 1_554
Cs1 S25 3.600194 1_554
Cs1 S9 3.666014 1_544
Cs1 S21 3.715168 1_654
Cs1 S45 3.827139 1_555
Cs1 S36 3.879869 1_554
Cs1 Sb10 4.084348 1_555
Cs1 S4 4.096926 1_555
Cs2 S9 3.517929 1_555
Cs2 S18 3.539271 1_556
Cs2 S20 3.592750 1_556
Cs2 S16 3.614041 1_556
Cs2 S10 3.745868 1_555
Cs2 S6 3.783015 1_555
Cs2 S2 3.867199 1_555
Cs2 Sb20 3.882512 1_555
Cs2 S29 3.986939 1_555
Cs2 S26 4.009054 1_556
Cs3 S12 3.516080 1_555
Cs3 S31 3.595289 1_565
Cs3 S30 3.727839 1_565
Cs3 S19 3.832232 1_555
Cs3 S36 3.932482 1_565
Cs3 S7 3.960429 1_455
Cs3 S22 3.968702 1_565
Cs3 S34 3.995171 1_565
Cs3 S10 4.089443 1_555
Cs4 S0 3.580974 1_555
Cs4 S15 3.684610 1_545
Cs4 S37 3.733287 1_545
Cs4 S13 3.802747 1_445
Cs4 S38 3.901588 1_555
Cs4 S23 3.993762 1_555
Cs4 Sb12 4.045563 1_555
Cs4 Sb4 4.046639 1_555
Cs4 S40 4.058472 1_545
Cs5 S8 3.580974 1_555
Cs5 S34 3.684610 1_565
Cs5 S3 3.733287 1_565
Cs5 S22 3.802747 1_665
Cs5 S7 3.901588 1_555
Cs5 S19 3.993762 1_555
Cs5 Sb19 4.045563 1_555
Cs5 Sb22 4.046639 1_555
Cs5 S25 4.058472 1_565
Cs6 S45 3.516080 1_555
Cs6 S18 3.595289 1_545
Cs6 S26 3.727839 1_545
Cs6 S23 3.832232 1_555
Cs6 S17 3.932482 1_545
Cs6 S38 3.960429 1_655
Cs6 S13 3.968702 1_545
Cs6 S15 3.995171 1_545
Cs6 S4 4.089443 1_555
Cs7 S29 3.575188 1_455
Cs7 S20 3.593494 1_556
Cs7 S40 3.600194 1_556
Cs7 S32 3.666014 1_566
Cs7 S16 3.715168 1_456
Cs7 S12 3.827139 1_555
Cs7 S17 3.879869 1_556
Cs7 Sb18 4.084348 1_555
Cs7 S10 4.096926 1_555
S0 Sb24 2.473728 1_555
S0 Sb23 2.554169 1_555
S1 Sb13 2.425715 1_555
S1 Sb1 2.973222 1_555
S1 Sb14 3.085767 1_555
S2 Sb1 2.458093 1_555
S2 Sb13 2.588705 1_555
S3 Sb25 2.466348 1_655
S3 Sb9 2.590420 1_555
S4 Sb4 2.445744 1_555
S4 Sb15 2.569875 1_555
S5 Sb17 2.429748 1_655
S5 Sb26 3.026722 1_555
S5 Sb9 3.144190 1_555
S5 Sb16 3.149517 1_555
S5 Sb8 3.152887 1_555
S6 Sb18 2.483489 1_555
S6 Sb21 2.540060 1_555
S7 Sb26 2.500974 1_555
S7 Sb16 2.575703 1_555
S8 Sb14 2.473728 1_555
S8 Sb13 2.554169 1_555
S9 Sb19 2.510446 1_555
S9 Sb22 2.511807 1_555
S10 Sb22 2.445744 1_555
S10 Sb1 2.569875 1_555
S11 Sb10 2.483489 1_555
S11 Sb0 2.540060 1_555
S12 Sb26 2.456896 1_455
S12 Sb17 2.577167 1_555
S13 Sb3 2.524903 1_555
S13 Sb16 2.540954 1_555
S14 Sb11 2.451207 1_655
S14 Sb10 3.051232 1_555
S14 Sb3 3.085770 1_555
S15 Sb7 2.528839 1_555
S15 Sb14 2.563363 1_555
S16 Sb10 2.452865 1_555
S16 Sb20 2.644622 1_554
S17 Sb4 2.452935 1_565
S17 Sb7 2.554581 1_555
S18 Sb7 2.456187 1_555
S18 Sb0 2.566973 1_555
S19 Sb1 2.504400 1_555
S19 Sb14 2.565104 1_555
S20 Sb27 2.458160 1_555
S20 Sb18 2.645898 1_554
S21 Sb18 2.452865 1_555
S21 Sb27 2.644622 1_556
S22 Sb5 2.524903 1_555
S22 Sb25 2.540954 1_555
S23 Sb15 2.504400 1_555
S23 Sb24 2.565104 1_555
S24 Sb12 2.453177 1_555
S24 Sb6 2.604369 1_555
S25 Sb5 2.465092 1_655
S25 Sb8 2.617130 1_555
S26 Sb12 2.447816 1_665
S26 Sb3 2.531653 1_555
S27 Sb9 2.429748 1_455
S27 Sb6 3.026722 1_555
S27 Sb17 3.144190 1_555
S27 Sb25 3.149517 1_555
S27 Sb11 3.152887 1_555
S28 Sb8 2.451207 1_455
S28 Sb18 3.051232 1_555
S28 Sb5 3.085770 1_555
S29 Sb19 2.453177 1_555
S29 Sb26 2.604369 1_555
S30 Sb19 2.447816 1_445
S30 Sb5 2.531653 1_555
S31 Sb2 2.456187 1_555
S31 Sb21 2.566973 1_555
S32 Sb12 2.510446 1_555
S32 Sb4 2.511807 1_555
S33 Sb21 2.454829 1_555
S33 Sb20 3.032499 1_555
S33 Sb24 3.153937 1_555
S34 Sb2 2.528839 1_555
S34 Sb24 2.563363 1_555
S35 Sb23 2.425715 1_555
S35 Sb15 2.973222 1_555
S35 Sb24 3.085767 1_555
S36 Sb22 2.452935 1_545
S36 Sb2 2.554581 1_555
S37 Sb16 2.466348 1_455
S37 Sb17 2.590420 1_555
S38 Sb6 2.500974 1_555
S38 Sb25 2.575703 1_555
S39 Sb27 2.466621 1_555
S39 Sb11 2.557794 1_555
S40 Sb3 2.465092 1_455
S40 Sb11 2.617130 1_555
S41 Sb0 2.454829 1_555
S41 Sb27 3.032499 1_555
S41 Sb14 3.153937 1_555
S42 Sb20 2.458160 1_555
S42 Sb10 2.645898 1_556
S43 Sb20 2.466621 1_555
S43 Sb8 2.557794 1_555
S44 Sb15 2.458093 1_555
S44 Sb23 2.588705 1_555
S45 Sb6 2.456896 1_655
S45 Sb9 2.577167 1_555
