# generated using pymatgen
data_Nd3Sn13Rh4
_symmetry_space_group_name_H-M   'P 1'
_cell_length_a   9.75777589
_cell_length_b   9.75778602
_cell_length_c   9.75777751
_cell_angle_alpha   90.00002079
_cell_angle_beta   89.99997187
_cell_angle_gamma   90.00005390
_symmetry_Int_Tables_number   1
_chemical_formula_structural   Nd3Sn13Rh4
_chemical_formula_sum   'Nd6 Sn26 Rh8'
_cell_volume   929.07984945
_cell_formula_units_Z   2
loop_
 _symmetry_equiv_pos_site_id
 _symmetry_equiv_pos_as_xyz
  1  'x, y, z'
loop_
 _atom_site_type_symbol
 _atom_site_label
 _atom_site_symmetry_multiplicity
 _atom_site_fract_x
 _atom_site_fract_y
 _atom_site_fract_z
 _atom_site_occupancy
  Nd  Nd0  1  0.50000675  0.99999452  0.74999999  1
  Nd  Nd1  1  0.50000445  0.99999653  0.25000003  1
  Nd  Nd2  1  0.24999992  0.50000707  0.99999417  1
  Nd  Nd3  1  0.75000020  0.50000123  0.99999256  1
  Nd  Nd4  1  0.99999133  0.24999983  0.50000571  1
  Nd  Nd5  1  0.99999706  0.75000012  0.50000769  1
  Sn  Sn0  1  0.50000338  0.34647538  0.19289180  1
  Sn  Sn1  1  0.19289305  0.50000462  0.34647700  1
  Sn  Sn2  1  0.30710560  0.84646798  0.99998640  1
  Sn  Sn3  1  1.00000615  0.69289722  0.84646698  1
  Sn  Sn4  1  0.34647807  0.19289111  0.50000246  1
  Sn  Sn5  1  0.19289283  0.50001590  0.65353113  1
  Sn  Sn6  1  0.99999532  0.99999598  0.99999198  1
  Sn  Sn7  1  0.65352743  0.80710488  0.50000508  1
  Sn  Sn8  1  0.99999612  0.30710612  0.15352273  1
  Sn  Sn9  1  0.80710018  0.49999384  0.65353246  1
  Sn  Sn10  1  0.65353227  0.19289491  0.50001489  1
  Sn  Sn11  1  0.49999485  0.65353064  0.80710141  1
  Sn  Sn12  1  0.69289533  0.84647283  0.99999493  1
  Sn  Sn13  1  0.34647147  0.80710241  0.50001375  1
  Sn  Sn14  1  0.30710899  0.15352163  0.99999723  1
  Sn  Sn15  1  0.84646898  1.00000626  0.69289816  1
  Sn  Sn16  1  0.50000284  0.65352875  0.19289188  1
  Sn  Sn17  1  0.84647185  0.99999621  0.30710913  1
  Sn  Sn18  1  0.99999679  0.69289835  0.15352264  1
  Sn  Sn19  1  0.50000474  0.50000390  0.50000802  1
  Sn  Sn20  1  0.99998325  0.30710594  0.84646824  1
  Sn  Sn21  1  0.15352557  0.99998445  0.69289753  1
  Sn  Sn22  1  0.69289824  0.15352844  0.99998482  1
  Sn  Sn23  1  0.50001670  0.34647378  0.80710196  1
  Sn  Sn24  1  0.80710367  0.50000417  0.34647719  1
  Sn  Sn25  1  0.15352485  0.99999571  0.30710830  1
  Rh  Rh0  1  0.24999972  0.74999935  0.24999959  1
  Rh  Rh1  1  0.75000051  0.24999989  0.25000034  1
  Rh  Rh2  1  0.75000043  0.75000007  0.25000050  1
  Rh  Rh3  1  0.25000086  0.24999927  0.75000029  1
  Rh  Rh4  1  0.74999991  0.24999945  0.74999999  1
  Rh  Rh5  1  0.74999987  0.75000070  0.74999957  1
  Rh  Rh6  1  0.25000005  0.25000046  0.24999934  1
  Rh  Rh7  1  0.25000041  0.75000012  0.75000014  1
loop_
_geom_bond_atom_site_label_1
_geom_bond_atom_site_label_2
_geom_bond_distance
_geom_bond_site_symmetry_2
Nd0 Sn22 3.425969 1_565
Nd0 Sn7 3.425974 1_555
Nd0 Sn12 3.425974 1_555
Nd0 Sn10 3.425983 1_565
Nd0 Sn13 3.425989 1_555
Nd0 Sn2 3.426000 1_555
Nd0 Sn14 3.426060 1_565
Nd0 Sn4 3.426065 1_565
Nd0 Sn15 3.426309 1_555
Nd0 Sn11 3.426328 1_555
Nd0 Sn23 3.426477 1_565
Nd0 Sn21 3.426493 1_555
Nd0 Rh5 3.449808 1_555
Nd0 Rh4 3.449882 1_565
Nd0 Rh7 3.449900 1_555
Nd0 Rh3 3.449972 1_565
Nd1 Sn12 3.426064 1_554
Nd1 Sn7 3.426067 1_555
Nd1 Sn4 3.426077 1_565
Nd1 Sn14 3.426080 1_564
Nd1 Sn13 3.426180 1_555
Nd1 Sn22 3.426184 1_564
Nd1 Sn2 3.426186 1_554
Nd1 Sn10 3.426189 1_565
Nd1 Sn17 3.426371 1_555
Nd1 Sn16 3.426376 1_555
Nd1 Sn0 3.426483 1_565
Nd1 Sn25 3.426486 1_555
Nd1 Rh2 3.449846 1_555
Nd1 Rh1 3.449891 1_565
Nd1 Rh0 3.449908 1_555
Nd1 Rh6 3.449956 1_565
Nd2 Sn3 3.425998 1_455
Nd2 Sn11 3.426001 1_555
Nd2 Sn18 3.426073 1_456
Nd2 Sn16 3.426076 1_556
Nd2 Sn0 3.426125 1_556
Nd2 Sn8 3.426128 1_456
Nd2 Sn23 3.426193 1_555
Nd2 Sn20 3.426208 1_455
Nd2 Sn2 3.426306 1_555
Nd2 Sn5 3.426326 1_555
Nd2 Sn1 3.426516 1_556
Nd2 Sn14 3.426548 1_555
Nd2 Rh7 3.449808 1_555
Nd2 Rh0 3.449880 1_556
Nd2 Rh3 3.449908 1_555
Nd2 Rh6 3.449979 1_556
Nd3 Sn23 3.425928 1_555
Nd3 Sn20 3.425938 1_555
Nd3 Sn8 3.426053 1_556
Nd3 Sn0 3.426059 1_556
Nd3 Sn18 3.426065 1_556
Nd3 Sn16 3.426072 1_556
Nd3 Sn11 3.426093 1_555
Nd3 Sn3 3.426104 1_555
Nd3 Sn9 3.426286 1_555
Nd3 Sn12 3.426408 1_555
Nd3 Sn22 3.426414 1_555
Nd3 Sn24 3.426528 1_556
Nd3 Rh5 3.449845 1_555
Nd3 Rh4 3.449857 1_555
Nd3 Rh2 3.449943 1_556
Nd3 Rh1 3.449960 1_556
Nd4 Sn15 3.425987 1_545
Nd4 Sn9 3.426003 1_555
Nd4 Sn24 3.426065 1_555
Nd4 Sn17 3.426066 1_545
Nd4 Sn25 3.426135 1_645
Nd4 Sn1 3.426141 1_655
Nd4 Sn21 3.426188 1_645
Nd4 Sn5 3.426204 1_655
Nd4 Sn10 3.426283 1_555
Nd4 Sn20 3.426319 1_555
Nd4 Sn8 3.426517 1_555
Nd4 Sn4 3.426557 1_655
Nd4 Rh4 3.449796 1_555
Nd4 Rh1 3.449870 1_555
Nd4 Rh3 3.449924 1_655
Nd4 Rh6 3.449998 1_655
Nd5 Sn21 3.425934 1_655
Nd5 Sn5 3.425947 1_655
Nd5 Sn24 3.426042 1_555
Nd5 Sn17 3.426052 1_555
Nd5 Sn1 3.426056 1_655
Nd5 Sn25 3.426061 1_655
Nd5 Sn15 3.426089 1_555
Nd5 Sn9 3.426108 1_555
Nd5 Sn3 3.426283 1_555
Nd5 Sn7 3.426386 1_555
Nd5 Sn13 3.426427 1_655
Nd5 Sn18 3.426529 1_555
Nd5 Rh5 3.449819 1_555
Nd5 Rh7 3.449867 1_655
Nd5 Rh2 3.449922 1_555
Nd5 Rh0 3.449968 1_655
Sn0 Sn19 3.350364 1_555
Sn1 Sn19 3.350335 1_555
Sn2 Sn6 3.350311 1_455
Sn3 Sn6 3.350198 1_555
Sn6 Sn8 3.350322 1_566
Sn10 Sn19 3.350300 1_555
Sn11 Sn19 3.350157 1_555
Sn12 Sn6 3.350197 1_555
Sn13 Sn19 3.350233 1_555
Sn14 Sn6 3.350328 1_445
Sn15 Sn6 3.350159 1_555
Sn16 Sn19 3.350348 1_555
Sn17 Sn6 3.350349 1_554
Sn18 Sn6 3.350213 1_554
Sn19 Sn9 3.350165 1_555
Sn19 Sn23 3.350177 1_555
Sn19 Sn7 3.350206 1_555
Sn19 Sn24 3.350222 1_555
Sn19 Sn5 3.350301 1_555
Sn19 Sn4 3.350327 1_555
Sn20 Sn6 3.350291 1_545
Sn21 Sn6 3.350180 1_455
Sn22 Sn6 3.350215 1_545
Sn25 Sn6 3.350369 1_454
Rh0 Sn1 2.673462 1_555
Rh0 Sn25 2.673473 1_555
Rh0 Sn16 2.673514 1_555
Rh0 Sn18 2.673520 1_455
Rh0 Sn2 2.673593 1_554
Rh0 Sn13 2.673607 1_555
Rh1 Sn8 2.673467 1_555
Rh1 Sn0 2.673480 1_555
Rh1 Sn17 2.673527 1_545
Rh1 Sn24 2.673538 1_555
Rh1 Sn10 2.673602 1_555
Rh1 Sn22 2.673616 1_554
Rh2 Sn17 2.673458 1_555
Rh2 Sn24 2.673464 1_555
Rh2 Sn18 2.673466 1_555
Rh2 Sn16 2.673468 1_555
Rh2 Sn7 2.673529 1_555
Rh2 Sn12 2.673539 1_554
Rh3 Sn14 2.673485 1_555
Rh3 Sn4 2.673490 1_555
Rh3 Sn21 2.673625 1_545
Rh3 Sn23 2.673628 1_555
Rh3 Sn20 2.673632 1_455
Rh3 Sn5 2.673633 1_555
Rh4 Sn20 2.673327 1_555
Rh4 Sn10 2.673337 1_555
Rh4 Sn23 2.673338 1_555
Rh4 Sn22 2.673340 1_555
Rh4 Sn15 2.673411 1_545
Rh4 Sn9 2.673412 1_555
Rh5 Sn7 2.673437 1_555
Rh5 Sn12 2.673444 1_555
Rh5 Sn11 2.673516 1_555
Rh5 Sn15 2.673519 1_555
Rh5 Sn9 2.673522 1_555
Rh5 Sn3 2.673523 1_555
Rh6 Sn0 2.673529 1_555
Rh6 Sn14 2.673536 1_554
Rh6 Sn8 2.673538 1_455
Rh6 Sn4 2.673544 1_555
Rh6 Sn25 2.673548 1_545
Rh6 Sn1 2.673548 1_555
Rh7 Sn5 2.673341 1_555
Rh7 Sn2 2.673349 1_555
Rh7 Sn21 2.673354 1_555
Rh7 Sn13 2.673355 1_555
Rh7 Sn3 2.673411 1_455
Rh7 Sn11 2.673421 1_555
