# generated using pymatgen
data_MnHg2C6(SN)6
_symmetry_space_group_name_H-M   'P 1'
_cell_length_a   11.70680104
_cell_length_b   14.38688000
_cell_length_c   20.91700237
_cell_angle_alpha   90.00000000
_cell_angle_beta   100.57950731
_cell_angle_gamma   90.00000000
_symmetry_Int_Tables_number   1
_chemical_formula_structural   MnHg2C6(SN)6
_chemical_formula_sum   'Mn8 Hg16 C48 S48 N48'
_cell_volume   3463.04630606
_cell_formula_units_Z   8
loop_
 _symmetry_equiv_pos_site_id
 _symmetry_equiv_pos_as_xyz
  1  'x, y, z'
loop_
 _atom_site_type_symbol
 _atom_site_label
 _atom_site_symmetry_multiplicity
 _atom_site_fract_x
 _atom_site_fract_y
 _atom_site_fract_z
 _atom_site_occupancy
  Mn  Mn0  1  0.95270500  0.22292600  0.48853200  1
  Mn  Mn1  1  0.04729500  0.77707400  0.51146800  1
  Mn  Mn2  1  0.95270500  0.27707400  0.98853200  1
  Mn  Mn3  1  0.04729500  0.72292600  0.01146800  1
  Mn  Mn4  1  0.66352700  0.76161400  0.31741000  1
  Mn  Mn5  1  0.66352700  0.73838600  0.81741000  1
  Mn  Mn6  1  0.33647300  0.23838600  0.68259000  1
  Mn  Mn7  1  0.33647300  0.26161400  0.18259000  1
  Hg  Hg0  1  0.34147300  0.04474500  0.93796800  1
  Hg  Hg1  1  0.15615800  0.63662000  0.27190000  1
  Hg  Hg2  1  0.82637300  0.40870600  0.22802700  1
  Hg  Hg3  1  0.56854400  0.61636500  0.05814200  1
  Hg  Hg4  1  0.84384200  0.36338000  0.72810000  1
  Hg  Hg5  1  0.17362700  0.90870600  0.27197300  1
  Hg  Hg6  1  0.84384200  0.13662000  0.22810000  1
  Hg  Hg7  1  0.15615800  0.86338000  0.77190000  1
  Hg  Hg8  1  0.34147300  0.45525500  0.43796800  1
  Hg  Hg9  1  0.43145600  0.11636500  0.44185800  1
  Hg  Hg10  1  0.82637300  0.09129400  0.72802700  1
  Hg  Hg11  1  0.56854400  0.88363500  0.55814200  1
  Hg  Hg12  1  0.43145600  0.38363500  0.94185800  1
  Hg  Hg13  1  0.65852700  0.54474500  0.56203200  1
  Hg  Hg14  1  0.17362700  0.59129400  0.77197300  1
  Hg  Hg15  1  0.65852700  0.95525500  0.06203200  1
  C  C0  1  0.44014500  0.68911900  0.50808500  1
  C  C1  1  0.89602300  0.76630100  0.26595900  1
  C  C2  1  0.95227600  0.11359900  0.10098400  1
  C  C3  1  0.94534800  0.07058900  0.60555400  1
  C  C4  1  0.60635500  0.89997200  0.71795800  1
  C  C5  1  0.81492500  0.74221700  0.06813900  1
  C  C6  1  0.95227600  0.38640100  0.60098400  1
  C  C7  1  0.80339600  0.14301200  0.87451400  1
  C  C8  1  0.81492500  0.75778300  0.56813900  1
  C  C9  1  0.59765200  0.91219100  0.20848700  1
  C  C10  1  0.10397700  0.26630100  0.23404100  1
  C  C11  1  0.89602300  0.73369900  0.76595900  1
  C  C12  1  0.69319600  0.59419800  0.92940800  1
  C  C13  1  0.30680400  0.40580200  0.07059200  1
  C  C14  1  0.25900800  0.11591100  0.07213600  1
  C  C15  1  0.39364500  0.10002800  0.28204200  1
  C  C16  1  0.44014500  0.81088100  0.00808500  1
  C  C17  1  0.30680400  0.09419800  0.57059200  1
  C  C18  1  0.55985500  0.31088100  0.49191500  1
  C  C19  1  0.10397700  0.23369900  0.73404100  1
  C  C20  1  0.39364500  0.39997200  0.78204200  1
  C  C21  1  0.94534800  0.42941100  0.10555400  1
  C  C22  1  0.40234800  0.41219100  0.29151300  1
  C  C23  1  0.69319600  0.90580200  0.42940800  1
  C  C24  1  0.80339600  0.35698800  0.37451400  1
  C  C25  1  0.60635500  0.60002800  0.21795800  1
  C  C26  1  0.80356000  0.10632000  0.37135000  1
  C  C27  1  0.05465200  0.57058900  0.89444600  1
  C  C28  1  0.05465200  0.92941100  0.39444600  1
  C  C29  1  0.80356000  0.39368000  0.87135000  1
  C  C30  1  0.74099200  0.88408900  0.92786400  1
  C  C31  1  0.18507500  0.25778300  0.93186100  1
  C  C32  1  0.04772400  0.88640100  0.89901600  1
  C  C33  1  0.40868400  0.76186900  0.34154500  1
  C  C34  1  0.55985500  0.18911900  0.99191500  1
  C  C35  1  0.40868400  0.73813100  0.84154500  1
  C  C36  1  0.25900800  0.38408900  0.57213600  1
  C  C37  1  0.74099200  0.61591100  0.42786400  1
  C  C38  1  0.19644000  0.60632000  0.12865000  1
  C  C39  1  0.19660400  0.85698800  0.12548600  1
  C  C40  1  0.59131600  0.23813100  0.65845500  1
  C  C41  1  0.18507500  0.24221700  0.43186100  1
  C  C42  1  0.04772400  0.61359900  0.39901600  1
  C  C43  1  0.59765200  0.58780900  0.70848700  1
  C  C44  1  0.19660400  0.64301200  0.62548600  1
  C  C45  1  0.19644000  0.89368000  0.62865000  1
  C  C46  1  0.40234800  0.08780900  0.79151300  1
  C  C47  1  0.59131600  0.26186900  0.15845500  1
  S  S0  1  0.27596500  0.76587600  0.35790200  1
  S  S1  1  0.71583700  0.76198200  0.11146900  1
  S  S2  1  0.27596500  0.73412400  0.85790200  1
  S  S3  1  0.93472700  0.99103500  0.66098700  1
  S  S4  1  0.61781700  0.28475900  0.96942700  1
  S  S5  1  0.06527300  0.49103500  0.83901300  1
  S  S6  1  0.28904400  0.59162600  0.68345600  1
  S  S7  1  0.71095600  0.40837400  0.31654400  1
  S  S8  1  0.99658300  0.73118900  0.72024700  1
  S  S9  1  0.56045600  0.50315400  0.65518400  1
  S  S10  1  0.05056600  0.53268300  0.34364600  1
  S  S11  1  0.69527700  0.52446200  0.99205400  1
  S  S12  1  0.57421000  0.51453400  0.16557200  1
  S  S13  1  0.28830200  0.58800300  0.19653300  1
  S  S14  1  0.99658300  0.76881100  0.22024700  1
  S  S15  1  0.06527300  0.00896500  0.33901300  1
  S  S16  1  0.56045600  0.99684600  0.15518400  1
  S  S17  1  0.30472300  0.02446200  0.50794600  1
  S  S18  1  0.20768100  0.03708900  0.01691300  1
  S  S19  1  0.94943400  0.46731700  0.65635400  1
  S  S20  1  0.57421000  0.98546600  0.66557200  1
  S  S21  1  0.79231900  0.53708900  0.48308700  1
  S  S22  1  0.00341700  0.23118900  0.77975300  1
  S  S23  1  0.72403500  0.23412400  0.64209800  1
  S  S24  1  0.71583700  0.73801800  0.61146900  1
  S  S25  1  0.42579000  0.48546600  0.83442800  1
  S  S26  1  0.43954400  0.00315400  0.84481600  1
  S  S27  1  0.61781700  0.21524100  0.46942700  1
  S  S28  1  0.30472300  0.47553800  0.00794600  1
  S  S29  1  0.69527700  0.97553800  0.49205400  1
  S  S30  1  0.28830200  0.91199700  0.69653300  1
  S  S31  1  0.94943400  0.03268300  0.15635400  1
  S  S32  1  0.38218300  0.71524100  0.03057300  1
  S  S33  1  0.93472700  0.50896500  0.16098700  1
  S  S34  1  0.28416300  0.26198200  0.38853100  1
  S  S35  1  0.43954400  0.49684600  0.34481600  1
  S  S36  1  0.71095600  0.09162600  0.81654400  1
  S  S37  1  0.42579000  0.01453400  0.33442800  1
  S  S38  1  0.20768100  0.46291100  0.51691300  1
  S  S39  1  0.28416300  0.23801800  0.88853100  1
  S  S40  1  0.00341700  0.26881100  0.27975300  1
  S  S41  1  0.05056600  0.96731700  0.84364600  1
  S  S42  1  0.71169800  0.41199700  0.80346700  1
  S  S43  1  0.72403500  0.26587600  0.14209800  1
  S  S44  1  0.38218300  0.78475900  0.53057300  1
  S  S45  1  0.71169800  0.08800300  0.30346700  1
  S  S46  1  0.28904400  0.90837400  0.18345600  1
  S  S47  1  0.79231900  0.96291100  0.98308700  1
  N  N0  1  0.48142100  0.87991000  0.99155800  1
  N  N1  1  0.95165900  0.37375700  0.06523100  1
  N  N2  1  0.61981300  0.85436100  0.24870600  1
  N  N3  1  0.18144200  0.23425000  0.70541000  1
  N  N4  1  0.11237800  0.22760200  0.46274900  1
  N  N5  1  0.38018700  0.14563900  0.75129400  1
  N  N6  1  0.49531900  0.24084100  0.66807500  1
  N  N7  1  0.04777200  0.82985800  0.93964600  1
  N  N8  1  0.04777200  0.67014200  0.43964600  1
  N  N9  1  0.69210100  0.85709900  0.38407400  1
  N  N10  1  0.04834100  0.87375700  0.43476900  1
  N  N11  1  0.13325500  0.82074600  0.08248700  1
  N  N12  1  0.11237800  0.27239800  0.96274900  1
  N  N13  1  0.28989400  0.17050200  0.11375300  1
  N  N14  1  0.88762200  0.72760200  0.03725100  1
  N  N15  1  0.37224500  0.33876600  0.74429800  1
  N  N16  1  0.81855800  0.73425000  0.79459000  1
  N  N17  1  0.48142100  0.62009000  0.49155800  1
  N  N18  1  0.86674500  0.17925400  0.91751300  1
  N  N19  1  0.86815500  0.38075700  0.92087800  1
  N  N20  1  0.62775500  0.66123400  0.25570200  1
  N  N21  1  0.04834100  0.62624300  0.93476900  1
  N  N22  1  0.81855800  0.76575000  0.29459000  1
  N  N23  1  0.28989400  0.32949800  0.61375300  1
  N  N24  1  0.38018700  0.35436100  0.25129400  1
  N  N25  1  0.51857900  0.12009000  0.00844200  1
  N  N26  1  0.86815500  0.11924300  0.42087800  1
  N  N27  1  0.50468100  0.74084100  0.83192500  1
  N  N28  1  0.71010600  0.82949800  0.88624700  1
  N  N29  1  0.95165900  0.12624300  0.56523100  1
  N  N30  1  0.61981300  0.64563900  0.74870600  1
  N  N31  1  0.13184500  0.61924300  0.07912200  1
  N  N32  1  0.30789900  0.14290100  0.61592600  1
  N  N33  1  0.13325500  0.67925400  0.58248700  1
  N  N34  1  0.30789900  0.35709900  0.11592600  1
  N  N35  1  0.50468100  0.75915900  0.33192500  1
  N  N36  1  0.13184500  0.88075700  0.57912200  1
  N  N37  1  0.51857900  0.37991000  0.50844200  1
  N  N38  1  0.86674500  0.32074600  0.41751300  1
  N  N39  1  0.37224500  0.16123400  0.24429800  1
  N  N40  1  0.49531900  0.25915900  0.16807500  1
  N  N41  1  0.95222800  0.32985800  0.56035400  1
  N  N42  1  0.71010600  0.67050200  0.38624700  1
  N  N43  1  0.88762200  0.77239800  0.53725100  1
  N  N44  1  0.62775500  0.83876600  0.75570200  1
  N  N45  1  0.18144200  0.26575000  0.20541000  1
  N  N46  1  0.95222800  0.17014200  0.06035400  1
  N  N47  1  0.69210100  0.64290100  0.88407400  1
loop_
_geom_bond_atom_site_label_1
_geom_bond_atom_site_label_2
_geom_bond_distance
_geom_bond_site_symmetry_2
Mn0 N4 2.039529 1_655
Mn0 N29 2.125082 1_555
Mn0 N41 2.150988 1_555
Mn0 N38 2.156626 1_555
Mn0 N26 2.166343 1_555
Mn1 N43 2.039529 1_455
Mn1 N10 2.125082 1_555
Mn1 N8 2.150988 1_555
Mn1 N33 2.156626 1_555
Mn1 N36 2.166343 1_555
Mn2 N12 2.039529 1_655
Mn2 N1 2.125082 1_556
Mn2 N46 2.150988 1_556
Mn2 N18 2.156626 1_555
Mn2 N19 2.166343 1_555
Mn3 N14 2.039529 1_455
Mn3 N21 2.125082 1_554
Mn3 N7 2.150988 1_554
Mn3 N11 2.156626 1_555
Mn3 N31 2.166343 1_555
Mn4 N20 1.930932 1_555
Mn4 N35 1.938756 1_555
Mn4 N9 1.942199 1_555
Mn4 N42 1.949484 1_555
Mn4 N2 1.958956 1_555
Mn4 N22 1.960462 1_555
Mn5 N44 1.930932 1_555
Mn5 N27 1.938756 1_555
Mn5 N47 1.942199 1_555
Mn5 N28 1.949484 1_555
Mn5 N30 1.958956 1_555
Mn5 N16 1.960462 1_555
Mn6 N15 1.930932 1_555
Mn6 N6 1.938756 1_555
Mn6 N32 1.942199 1_555
Mn6 N23 1.949484 1_555
Mn6 N5 1.958956 1_555
Mn6 N3 1.960462 1_555
Mn7 N39 1.930932 1_555
Mn7 N40 1.938756 1_555
Mn7 N34 1.942199 1_555
Mn7 N13 1.949484 1_555
Mn7 N24 1.958956 1_555
Mn7 N45 1.960462 1_555
Hg0 S18 2.478273 1_556
Hg0 S26 2.508805 1_555
Hg0 N25 2.554305 1_556
Hg0 S39 2.999399 1_555
Hg1 S13 2.502617 1_555
Hg1 S10 2.587931 1_555
Hg1 S14 2.744618 1_455
Hg1 S0 2.781156 1_555
Hg2 S7 2.484427 1_555
Hg2 S33 2.511799 1_555
Hg2 S43 2.845647 1_555
Hg2 S40 2.948509 1_655
Hg3 S11 2.571656 1_554
Hg3 S32 2.579515 1_555
Hg3 S12 2.673107 1_555
Hg3 S1 2.810724 1_555
Hg4 S42 2.502617 1_555
Hg4 S19 2.587931 1_555
Hg4 S22 2.744618 1_655
Hg4 S23 2.781156 1_555
Hg5 S46 2.484427 1_555
Hg5 S15 2.511799 1_565
Hg5 S0 2.845647 1_555
Hg5 S14 2.948509 1_455
Hg6 S45 2.502617 1_555
Hg6 S31 2.587931 1_555
Hg6 S40 2.744618 1_655
Hg6 S43 2.781156 1_555
Hg7 S30 2.502617 1_555
Hg7 S41 2.587931 1_555
Hg7 S8 2.744618 1_455
Hg7 S2 2.781156 1_555
Hg8 S38 2.478273 1_555
Hg8 S35 2.508805 1_555
Hg8 N37 2.554305 1_555
Hg8 S34 2.999399 1_555
Hg9 S17 2.571656 1_555
Hg9 S27 2.579515 1_555
Hg9 S37 2.673107 1_555
Hg9 S34 2.810724 1_555
Hg10 S36 2.484427 1_555
Hg10 S3 2.511799 1_545
Hg10 S23 2.845647 1_555
Hg10 S22 2.948509 1_655
Hg11 S29 2.571656 1_555
Hg11 S44 2.579515 1_555
Hg11 S20 2.673107 1_555
Hg11 S24 2.810724 1_555
Hg12 S28 2.571656 1_556
Hg12 S4 2.579515 1_555
Hg12 S25 2.673107 1_555
Hg12 S39 2.810724 1_555
Hg13 S21 2.478273 1_555
Hg13 S9 2.508805 1_555
Hg13 N17 2.554305 1_555
Hg13 S24 2.999399 1_555
Hg14 S6 2.484427 1_555
Hg14 S5 2.511799 1_555
Hg14 S2 2.845647 1_555
Hg14 S8 2.948509 1_455
Hg15 S47 2.478273 1_554
Hg15 S16 2.508805 1_555
Hg15 N0 2.554305 1_554
Hg15 S1 2.999399 1_555
C0 N17 1.183472 1_555
C0 S44 1.640780 1_555
C1 N22 1.174967 1_555
C1 S14 1.647651 1_555
C2 N46 1.176362 1_555
C2 S31 1.646761 1_555
C3 N29 1.175085 1_555
C3 S3 1.650084 1_545
C4 N44 1.178484 1_555
C4 S20 1.644313 1_555
C5 N14 1.178060 1_555
C5 S1 1.622949 1_555
C6 N41 1.176362 1_555
C6 S19 1.646761 1_555
C7 N18 1.177230 1_555
C7 S36 1.645025 1_555
C8 N43 1.178060 1_555
C8 S24 1.622949 1_555
C9 N2 1.177751 1_555
C9 S16 1.654618 1_555
C10 N45 1.174967 1_555
C10 S40 1.647651 1_555
C11 N16 1.174967 1_555
C11 S8 1.647651 1_555
C12 N47 1.177217 1_555
C12 S11 1.646970 1_555
C13 N34 1.177217 1_555
C13 S28 1.646970 1_555
C14 N13 1.178889 1_555
C14 S18 1.651183 1_555
C15 N39 1.178484 1_555
C15 S37 1.644313 1_555
C16 N0 1.183472 1_554
C16 S32 1.640780 1_555
C17 N32 1.177217 1_555
C17 S17 1.646970 1_555
C18 N37 1.183472 1_555
C18 S27 1.640780 1_555
C19 N3 1.174967 1_555
C19 S22 1.647651 1_555
C20 N15 1.178484 1_555
C20 S25 1.644313 1_555
C21 N1 1.175085 1_555
C21 S33 1.650084 1_555
C22 N24 1.177751 1_555
C22 S35 1.654618 1_555
C23 N9 1.177217 1_555
C23 S29 1.646970 1_555
C24 N38 1.177230 1_555
C24 S7 1.645025 1_555
C25 N20 1.178484 1_555
C25 S12 1.644313 1_555
C26 N26 1.179826 1_555
C26 S45 1.637494 1_555
C27 N21 1.175085 1_555
C27 S5 1.650084 1_555
C28 N10 1.175085 1_555
C28 S15 1.650084 1_565
C29 N19 1.179826 1_555
C29 S42 1.637494 1_555
C30 N28 1.178889 1_555
C30 S47 1.651183 1_555
C31 N12 1.178060 1_555
C31 S39 1.622949 1_555
C32 N7 1.176362 1_555
C32 S41 1.646761 1_555
C33 N35 1.178140 1_555
C33 S0 1.652154 1_555
C34 N25 1.183472 1_556
C34 S4 1.640780 1_555
C35 N27 1.178140 1_555
C35 S2 1.652154 1_555
C36 N23 1.178889 1_555
C36 S38 1.651183 1_555
C37 N42 1.178889 1_555
C37 S21 1.651183 1_555
C38 N31 1.179826 1_555
C38 S13 1.637494 1_555
C39 N11 1.177230 1_555
C39 S46 1.645025 1_555
C40 N6 1.178140 1_555
C40 S23 1.652154 1_555
C41 N4 1.178060 1_555
C41 S34 1.622949 1_555
C42 N8 1.176362 1_555
C42 S10 1.646761 1_555
C43 N30 1.177751 1_555
C43 S9 1.654618 1_555
C44 N33 1.177230 1_555
C44 S6 1.645025 1_555
C45 N36 1.179826 1_555
C45 S30 1.637494 1_555
C46 N5 1.177751 1_555
C46 S26 1.654618 1_555
C47 N40 1.178140 1_555
C47 S43 1.652154 1_555
