# generated using pymatgen
data_Ca3TaGa3(SiO7)2
_symmetry_space_group_name_H-M   'P 1'
_cell_length_a   8.21188163
_cell_length_b   8.21188163
_cell_length_c   5.02681200
_cell_angle_alpha   90.00000000
_cell_angle_beta   90.00000000
_cell_angle_gamma   119.99999704
_symmetry_Int_Tables_number   1
_chemical_formula_structural   Ca3TaGa3(SiO7)2
_chemical_formula_sum   'Ca3 Ta1 Ga3 Si2 O14'
_cell_volume   293.56795617
_cell_formula_units_Z   1
loop_
 _symmetry_equiv_pos_site_id
 _symmetry_equiv_pos_as_xyz
  1  'x, y, z'
loop_
 _atom_site_type_symbol
 _atom_site_label
 _atom_site_symmetry_multiplicity
 _atom_site_fract_x
 _atom_site_fract_y
 _atom_site_fract_z
 _atom_site_occupancy
  Ca  Ca0  1  0.00000000  0.42219500  0.00000000  1
  Ca  Ca1  1  0.57780500  0.57780500  0.00000000  1
  Ca  Ca2  1  0.42219500  0.00000000  0.00000000  1
  Ta  Ta0  1  0.00000000  0.00000000  0.00000000  1
  Ga  Ga0  1  0.25681500  0.25681500  0.50000000  1
  Ga  Ga1  1  0.74318500  0.00000000  0.50000000  1
  Ga  Ga2  1  0.00000000  0.74318500  0.50000000  1
  Si  Si0  1  0.33333300  0.66666700  0.55037400  1
  Si  Si1  1  0.66666700  0.33333300  0.44962600  1
  O  O0  1  0.08628500  0.22532300  0.23484400  1
  O  O1  1  0.77467700  0.86096200  0.23484400  1
  O  O2  1  0.13903800  0.91371500  0.23484400  1
  O  O3  1  0.86096200  0.77467700  0.76515600  1
  O  O4  1  0.91371500  0.13903800  0.76515600  1
  O  O5  1  0.22532300  0.08628500  0.76515600  1
  O  O6  1  0.32381900  0.47836100  0.69046800  1
  O  O7  1  0.52163900  0.84545800  0.69046800  1
  O  O8  1  0.15454200  0.67618100  0.69046800  1
  O  O9  1  0.33333300  0.66666700  0.22994300  1
  O  O10  1  0.66666700  0.33333300  0.77005700  1
  O  O11  1  0.47836100  0.32381900  0.30953200  1
  O  O12  1  0.67618100  0.15454200  0.30953200  1
  O  O13  1  0.84545800  0.52163900  0.30953200  1
loop_
_geom_bond_atom_site_label_1
_geom_bond_atom_site_label_2
_geom_bond_distance
_geom_bond_site_symmetry_2
Ca0 O0 2.378001 1_555
Ca0 O4 2.378001 1_454
Ca0 O13 2.394746 1_455
Ca0 O8 2.394746 1_554
Ca0 O10 2.713642 1_454
Ca0 O9 2.713644 1_555
Ca0 O6 2.911771 1_554
Ca0 O12 2.911771 1_455
Ca1 O1 2.378001 1_555
Ca1 O3 2.378001 1_554
Ca1 O11 2.394746 1_555
Ca1 O6 2.394746 1_554
Ca1 O9 2.713649 1_555
Ca1 O10 2.713649 1_554
Ca1 O13 2.911771 1_555
Ca1 O7 2.911771 1_554
Ca2 O5 2.378001 1_554
Ca2 O2 2.378001 1_545
Ca2 O7 2.394746 1_544
Ca2 O12 2.394746 1_555
Ca2 O9 2.713642 1_545
Ca2 O10 2.713644 1_554
Ca2 O11 2.911771 1_555
Ca2 O8 2.911771 1_544
Ga0 O5 1.855362 1_555
Ga0 O0 1.855362 1_555
Ga0 O11 1.878379 1_555
Ga0 O6 1.878379 1_555
Ga1 O1 1.855362 1_545
Ga1 O4 1.855362 1_555
Ga1 O12 1.878379 1_555
Ga1 O7 1.878379 1_545
Ga2 O3 1.855362 1_455
Ga2 O2 1.855362 1_555
Ga2 O8 1.878379 1_555
Ga2 O13 1.878379 1_455
O0 Ta0 2.002078 1_555
O1 Ta0 2.002078 1_665
O2 Ta0 2.002078 1_565
O3 Ta0 2.002078 1_666
O4 Ta0 2.002078 1_656
O5 Ta0 2.002078 1_556
O6 Si0 1.665057 1_555
O7 Si0 1.665053 1_555
O8 Si0 1.665049 1_555
O9 Si0 1.610746 1_555
O10 Si1 1.610746 1_555
O11 Si1 1.665057 1_555
O12 Si1 1.665049 1_555
O13 Si1 1.665053 1_555
