# generated using pymatgen
data_Sr(H8O5)2
_symmetry_space_group_name_H-M   'P 1'
_cell_length_a   6.26216600
_cell_length_b   6.47381677
_cell_length_c   11.32660316
_cell_angle_alpha   89.36276308
_cell_angle_beta   89.95290017
_cell_angle_gamma   89.28379924
_symmetry_Int_Tables_number   1
_chemical_formula_structural   Sr(H8O5)2
_chemical_formula_sum   'Sr2 H32 O20'
_cell_volume   459.11741994
_cell_formula_units_Z   2
loop_
 _symmetry_equiv_pos_site_id
 _symmetry_equiv_pos_as_xyz
  1  'x, y, z'
loop_
 _atom_site_type_symbol
 _atom_site_label
 _atom_site_symmetry_multiplicity
 _atom_site_fract_x
 _atom_site_fract_y
 _atom_site_fract_z
 _atom_site_occupancy
  Sr  Sr0  1  0.00280400  0.01108300  0.74774600  1
  Sr  Sr1  1  0.99390300  0.99805300  0.24289000  1
  H  H0  1  0.72743700  0.38371500  0.64550700  1
  H  H1  1  0.85820000  0.31038100  0.53095600  1
  H  H2  1  0.27921300  0.62069500  0.65636300  1
  H  H3  1  0.09862800  0.67153900  0.56032500  1
  H  H4  1  0.40221000  0.28470700  0.65072800  1
  H  H5  1  0.31767300  0.15115800  0.54226400  1
  H  H6  1  0.55403000  0.96100700  0.62478000  1
  H  H7  1  0.61212700  0.71958300  0.64158600  1
  H  H8  1  0.27845000  0.38362800  0.15042300  1
  H  H9  1  0.03876400  0.45600900  0.12853100  1
  H  H10  1  0.73310400  0.61267100  0.14091300  1
  H  H11  1  0.86733400  0.68979000  0.02790200  1
  H  H12  1  0.55773200  0.03992900  0.11776200  1
  H  H13  1  0.62647600  0.27450900  0.13616000  1
  H  H14  1  0.39423100  0.73481400  0.14595700  1
  H  H15  1  0.32142900  0.86334600  0.03070000  1
  H  H16  1  0.26539100  0.62765200  0.37012300  1
  H  H17  1  0.01985500  0.57279800  0.37827200  1
  H  H18  1  0.70151100  0.42223000  0.33044900  1
  H  H19  1  0.04363400  0.30782700  0.37733100  1
  H  H20  1  0.61392900  0.73452400  0.35471700  1
  H  H21  1  0.67844800  0.86484300  0.46825800  1
  H  H22  1  0.44179300  0.03454600  0.37424700  1
  H  H23  1  0.40184300  0.27194500  0.35261600  1
  H  H24  1  0.96874400  0.56021400  0.86900200  1
  H  H25  1  0.72439900  0.62012200  0.85498300  1
  H  H26  1  0.27994300  0.39677800  0.85407500  1
  H  H27  1  0.14434500  0.31431700  0.96460800  1
  H  H28  1  0.45615600  0.96631100  0.87234100  1
  H  H29  1  0.39243500  0.72791700  0.85783900  1
  H  H30  1  0.69456300  0.14518700  0.95492400  1
  H  H31  1  0.60954600  0.28238000  0.84639900  1
  O  O0  1  0.50019700  0.50557800  0.68698400  1
  O  O1  1  0.51746800  0.49397600  0.18421400  1
  O  O2  1  0.54505100  0.48576000  0.31450800  1
  O  O3  1  0.50252900  0.50670200  0.81891300  1
  O  O4  1  0.85299900  0.29836900  0.61912200  1
  O  O5  1  0.14475800  0.70552300  0.64023800  1
  O  O6  1  0.34451600  0.14337000  0.62797600  1
  O  O7  1  0.67202500  0.85722900  0.61306500  1
  O  O8  1  0.13457100  0.33066900  0.12691900  1
  O  O9  1  0.87346000  0.67709100  0.11728100  1
  O  O10  1  0.68271800  0.13438100  0.11126300  1
  O  O11  1  0.33585100  0.87223600  0.11994700  1
  O  O12  1  0.12342400  0.69048600  0.37962000  1
  O  O13  1  0.89026600  0.33028800  0.38111300  1
  O  O14  1  0.66001500  0.87435300  0.37855500  1
  O  O15  1  0.32448500  0.14284000  0.37431800  1
  O  O16  1  0.86722300  0.67846300  0.88120600  1
  O  O17  1  0.13747700  0.33294200  0.87775700  1
  O  O18  1  0.33523100  0.86814800  0.88449400  1
  O  O19  1  0.66862600  0.13896300  0.86845800  1
loop_
_geom_bond_atom_site_label_1
_geom_bond_atom_site_label_2
_geom_bond_distance
_geom_bond_site_symmetry_2
H0 O4 1.002628 1_555
H0 O0 1.687350 1_555
H1 O4 1.001317 1_555
H2 O5 1.015051 1_555
H2 O0 1.599985 1_555
H3 O5 0.978561 1_555
H4 O6 1.023626 1_555
H4 O0 1.620222 1_555
H5 O6 0.986037 1_555
H6 O7 1.002181 1_555
H7 O7 1.020224 1_555
H7 O0 1.637972 1_555
H8 O8 1.005164 1_555
H8 O1 1.711985 1_555
H9 O8 1.003415 1_555
H10 O9 1.012121 1_555
H10 O1 1.634291 1_555
H11 O9 1.015499 1_555
H12 O10 1.001384 1_555
H13 O10 1.011954 1_555
H13 O1 1.665297 1_555
H14 O11 0.999064 1_555
H14 O1 1.780365 1_555
H15 O11 1.017296 1_555
H16 O12 0.979373 1_555
H17 O12 1.006964 1_555
H18 O2 1.072513 1_555
H18 O13 1.434111 1_555
H19 O13 0.970545 1_455
H19 Sr1 2.553784 1_445
H20 O14 0.993843 1_555
H21 O14 1.023746 1_555
H22 O15 1.009101 1_555
H23 O15 0.999507 1_555
H24 O16 0.999671 1_555
H25 O16 1.020869 1_555
H25 O3 1.633878 1_555
H26 O17 1.022262 1_555
H26 O3 1.620335 1_555
H27 O17 0.990660 1_555
H28 O18 1.003065 1_555
H29 O18 1.020498 1_555
H29 O3 1.646053 1_555
H30 O19 0.994216 1_555
H31 O19 1.023591 1_555
H31 O3 1.618929 1_555
O0 O3 1.494490 1_555
O1 O2 1.486290 1_555
O4 Sr0 2.521879 1_655
O5 Sr0 2.488751 1_565
O6 Sr0 2.677301 1_555
O7 Sr0 2.774956 1_665
O8 Sr1 2.668459 1_445
O9 Sr1 2.648994 1_555
O10 Sr1 2.594528 1_545
O11 Sr1 2.676678 1_455
O12 Sr1 2.629447 1_455
O13 Sr1 2.745302 1_545
O14 Sr1 2.717245 1_555
O15 Sr1 2.732174 1_445
O16 Sr0 2.759333 1_665
O17 Sr0 2.708427 1_555
O18 Sr0 2.741186 1_565
O19 Sr0 2.628921 1_655
