# generated using pymatgen
data_TlPbCl3
_symmetry_space_group_name_H-M   'P 1'
_cell_length_a   12.10245801
_cell_length_b   11.68587727
_cell_length_c   11.57326289
_cell_angle_alpha   62.70674612
_cell_angle_beta   59.10192143
_cell_angle_gamma   58.19133245
_symmetry_Int_Tables_number   1
_chemical_formula_structural   TlPbCl3
_chemical_formula_sum   'Tl8 Pb8 Cl24'
_cell_volume   1153.25999934
_cell_formula_units_Z   8
loop_
 _symmetry_equiv_pos_site_id
 _symmetry_equiv_pos_as_xyz
  1  'x, y, z'
loop_
 _atom_site_type_symbol
 _atom_site_label
 _atom_site_symmetry_multiplicity
 _atom_site_fract_x
 _atom_site_fract_y
 _atom_site_fract_z
 _atom_site_occupancy
  Tl  Tl0  1  0.52574800  0.15539000  0.47425200  1
  Tl  Tl1  1  0.15539000  0.52574800  0.84461000  1
  Tl  Tl2  1  0.34870200  0.64957200  0.97491500  1
  Tl  Tl3  1  0.02508500  0.97318900  0.65129800  1
  Tl  Tl4  1  0.49735000  0.99595800  0.00404200  1
  Tl  Tl5  1  0.97318900  0.02508500  0.35042800  1
  Tl  Tl6  1  0.64957200  0.34870200  0.02681100  1
  Tl  Tl7  1  0.99595800  0.49735000  0.50265000  1
  Pb  Pb0  1  0.74720600  0.74720600  0.75279400  1
  Pb  Pb1  1  0.86575100  0.86575100  0.13424900  1
  Pb  Pb2  1  0.34216000  0.63858700  0.36141300  1
  Pb  Pb3  1  0.83932700  0.49235700  0.16067300  1
  Pb  Pb4  1  0.63858700  0.34216000  0.65784000  1
  Pb  Pb5  1  0.49235700  0.83932700  0.50764300  1
  Pb  Pb6  1  0.14967100  0.14967100  0.85032900  1
  Pb  Pb7  1  0.24720600  0.24720600  0.25279400  1
  Cl  Cl0  1  0.78522100  0.83999800  0.43867400  1
  Cl  Cl1  1  0.05899900  0.69966800  0.57324200  1
  Cl  Cl2  1  0.31346900  0.31346900  0.68653100  1
  Cl  Cl3  1  0.83999800  0.78522100  0.93610800  1
  Cl  Cl4  1  0.06389200  0.56132600  0.16000200  1
  Cl  Cl5  1  0.19740100  0.81470800  0.18529200  1
  Cl  Cl6  1  0.69966800  0.05899900  0.66809100  1
  Cl  Cl7  1  0.33190900  0.42675800  0.30033200  1
  Cl  Cl8  1  0.11103200  0.89008500  0.88896800  1
  Cl  Cl9  1  0.63660000  0.38420200  0.36340000  1
  Cl  Cl10  1  0.56132600  0.06389200  0.21477900  1
  Cl  Cl11  1  0.42675800  0.33190900  0.94100100  1
  Cl  Cl12  1  0.58578400  0.65539300  0.06556100  1
  Cl  Cl13  1  0.44144600  0.91978100  0.78216500  1
  Cl  Cl14  1  0.89008500  0.11103200  0.10991500  1
  Cl  Cl15  1  0.38420200  0.63660000  0.61579800  1
  Cl  Cl16  1  0.65539300  0.58578400  0.69326200  1
  Cl  Cl17  1  0.30673800  0.93443900  0.34460700  1
  Cl  Cl18  1  0.81470800  0.19740100  0.80259900  1
  Cl  Cl19  1  0.91978100  0.44144600  0.85660800  1
  Cl  Cl20  1  0.14339200  0.21783500  0.08021900  1
  Cl  Cl21  1  0.68666600  0.68666600  0.31333400  1
  Cl  Cl22  1  0.93443900  0.30673800  0.41421600  1
  Cl  Cl23  1  0.21783500  0.14339200  0.55855400  1
loop_
_geom_bond_atom_site_label_1
_geom_bond_atom_site_label_2
_geom_bond_distance
_geom_bond_site_symmetry_2
Cl0 Pb1 3.043613 1_555
Cl0 Pb0 3.129938 1_555
Cl0 Pb5 3.212127 1_555
Cl1 Pb2 2.943019 1_555
Cl1 Pb0 3.108281 1_455
Cl2 Pb6 2.828434 1_555
Cl2 Tl1 2.953865 1_555
Cl2 Tl0 2.953865 1_555
Cl3 Pb1 3.043602 1_556
Cl3 Pb0 3.129949 1_555
Cl3 Pb3 3.212124 1_556
Cl4 Pb1 3.043611 1_455
Cl4 Pb7 3.129941 1_555
Cl4 Pb3 3.212116 1_455
Cl5 Pb2 2.734778 1_555
Cl5 Tl2 3.001677 1_554
Cl5 Tl5 3.001677 1_465
Cl6 Pb4 2.943019 1_555
Cl6 Pb0 3.108281 1_545
Cl7 Pb2 2.943019 1_555
Cl7 Pb7 3.108281 1_555
Cl8 Pb1 2.906241 1_456
Cl8 Tl3 3.002458 1_555
Cl8 Tl2 3.002458 1_555
Cl8 Pb6 3.107616 1_565
Cl9 Pb3 2.785533 1_555
Cl9 Tl0 3.076236 1_555
Cl9 Pb2 3.223392 1_555
Cl9 Pb4 3.223392 1_555
Cl10 Pb1 3.043610 1_545
Cl10 Pb7 3.129939 1_555
Cl10 Pb5 3.212122 1_545
Cl11 Pb4 2.943019 1_555
Cl11 Pb7 3.108281 1_556
Cl12 Pb0 3.074976 1_554
Cl12 Pb3 3.104833 1_555
Cl12 Pb2 3.175060 1_555
Cl13 Pb0 3.057095 1_555
Cl13 Pb6 3.064487 1_565
Cl14 Pb1 2.906241 1_545
Cl14 Tl5 3.002458 1_555
Cl14 Tl6 3.002458 1_555
Cl14 Pb6 3.107616 1_654
Cl15 Pb5 2.785533 1_555
Cl15 Tl1 3.076236 1_555
Cl15 Pb2 3.223392 1_555
Cl15 Pb4 3.223392 1_555
Cl16 Pb0 3.074976 1_555
Cl16 Pb5 3.104833 1_555
Cl16 Pb4 3.175060 1_555
Cl17 Pb7 3.074976 1_565
Cl17 Pb5 3.104833 1_555
Cl17 Pb2 3.175060 1_555
Cl18 Pb4 2.734778 1_555
Cl18 Tl6 3.001677 1_556
Cl18 Tl3 3.001677 1_645
Cl19 Pb0 3.057095 1_555
Cl19 Pb6 3.064487 1_655
Cl20 Pb7 3.057095 1_555
Cl20 Pb6 3.064487 1_554
Cl21 Pb5 2.755942 1_555
Cl21 Pb3 2.755942 1_555
Cl21 Pb1 3.092408 1_555
Cl22 Pb7 3.074976 1_655
Cl22 Pb3 3.104833 1_555
Cl22 Pb4 3.175060 1_555
Cl23 Pb7 3.057095 1_555
Cl23 Pb6 3.064487 1_555
