# generated using pymatgen
data_Bi14MoO24
_symmetry_space_group_name_H-M   'P 1'
_cell_length_a   8.71499705
_cell_length_b   8.74164288
_cell_length_c   10.54621914
_cell_angle_alpha   114.23333629
_cell_angle_beta   114.26283792
_cell_angle_gamma   89.74103282
_symmetry_Int_Tables_number   1
_chemical_formula_structural   Bi14MoO24
_chemical_formula_sum   'Bi14 Mo1 O24'
_cell_volume   654.78406160
_cell_formula_units_Z   1
loop_
 _symmetry_equiv_pos_site_id
 _symmetry_equiv_pos_as_xyz
  1  'x, y, z'
loop_
 _atom_site_type_symbol
 _atom_site_label
 _atom_site_symmetry_multiplicity
 _atom_site_fract_x
 _atom_site_fract_y
 _atom_site_fract_z
 _atom_site_occupancy
  Bi  Bi0  1  0.12418634  0.94525165  0.65885970  1
  Bi  Bi1  1  0.05222125  0.46972450  0.33539462  1
  Bi  Bi2  1  0.34440560  0.34353363  0.68267890  1
  Bi  Bi3  1  0.26746406  0.87296193  0.32967718  1
  Bi  Bi4  1  0.20947881  0.44858637  0.99526255  1
  Bi  Bi5  1  0.52473680  0.72255000  0.65406027  1
  Bi  Bi6  1  0.45880899  0.28133732  0.33133180  1
  Bi  Bi7  1  0.44026068  0.78952847  0.99616438  1
  Bi  Bi8  1  0.71502633  0.13167651  0.65720006  1
  Bi  Bi9  1  0.65223247  0.65997238  0.31741105  1
  Bi  Bi10  1  0.55551671  0.21781097  0.00121505  1
  Bi  Bi11  1  0.93211024  0.53229834  0.65370286  1
  Bi  Bi12  1  0.86613391  0.06168731  0.33165323  1
  Bi  Bi13  1  0.78699076  0.56084840  0.00166074  1
  Mo  Mo0  1  0.98249429  0.97398240  0.96723474  1
  O  O0  1  0.19779293  0.06267921  0.03169632  1
  O  O1  1  0.99569164  0.33341651  0.49594372  1
  O  O2  1  0.23497037  0.55045524  0.84084412  1
  O  O3  1  0.29448384  0.24646459  0.84144446  1
  O  O4  1  0.17299113  0.01038860  0.50445270  1
  O  O5  1  0.10922332  0.62903688  0.23893484  1
  O  O6  1  0.37506805  0.88213441  0.75571252  1
  O  O7  1  0.32499885  0.50625423  0.50473280  1
  O  O8  1  0.54285931  0.60594316  0.84124521  1
  O  O9  1  0.59661077  0.29879657  0.84006196  1
  O  O10  1  0.48493696  0.82071969  0.48122665  1
  O  O11  1  0.49745838  0.18653689  0.50854352  1
  O  O12  1  0.38934655  0.70376280  0.15150503  1
  O  O13  1  0.45066154  0.40513213  0.15733009  1
  O  O14  1  0.87208441  0.13094050  0.04021798  1
  O  O15  1  0.66230970  0.49952776  0.48123229  1
  O  O16  1  0.61499086  0.12300004  0.23757628  1
  O  O17  1  0.87520214  0.37774011  0.75326049  1
  O  O18  1  0.88222630  0.88541789  0.76187764  1
  O  O19  1  0.81957385  0.00192227  0.48758127  1
  O  O20  1  0.69823826  0.76530145  0.15341752  1
  O  O21  1  0.75352316  0.46033024  0.16042964  1
  O  O22  1  0.99049048  0.67273577  0.49042642  1
  O  O23  1  0.97559695  0.80801187  0.02159942  1
loop_
_geom_bond_atom_site_label_1
_geom_bond_atom_site_label_2
_geom_bond_distance
_geom_bond_site_symmetry_2
Bi0 O4 2.118827 1_565
Bi0 O6 2.178199 1_555
Bi0 O22 2.244621 1_455
Bi0 O3 2.523522 1_565
Bi0 O19 2.708765 1_465
Bi0 O18 2.873983 1_455
Bi1 O22 2.108174 1_455
Bi1 O5 2.192194 1_555
Bi1 O7 2.234334 1_555
Bi1 O21 2.473434 1_455
Bi1 O1 2.622299 1_455
Bi2 O9 2.294726 1_555
Bi2 O3 2.341196 1_555
Bi2 O8 2.357872 1_555
Bi2 O2 2.403923 1_555
Bi2 O11 2.638735 1_555
Bi2 O4 2.735660 1_555
Bi2 O7 2.739004 1_555
Bi2 O1 2.839487 1_455
Bi3 O10 2.111151 1_555
Bi3 O5 2.152021 1_555
Bi3 O4 2.222401 1_565
Bi3 O12 2.488251 1_555
Bi3 O11 2.790595 1_565
Bi4 O3 2.219260 1_555
Bi4 O2 2.232504 1_555
Bi4 O12 2.244922 1_556
Bi4 O13 2.248752 1_556
Bi5 O7 2.101821 1_555
Bi5 O6 2.168370 1_555
Bi5 O10 2.222820 1_555
Bi5 O8 2.520957 1_555
Bi5 O15 2.723655 1_555
Bi6 O15 2.129218 1_555
Bi6 O16 2.170643 1_555
Bi6 O11 2.246016 1_555
Bi6 O13 2.462924 1_555
Bi6 O7 2.711124 1_555
Bi6 O0 2.826136 1_555
Bi7 O12 2.247571 1_556
Bi7 O2 2.250947 1_555
Bi7 O20 2.251589 1_556
Bi7 O8 2.253787 1_555
Bi7 O6 2.811702 1_555
Bi7 O16 2.838996 1_566
Bi8 O11 2.109267 1_555
Bi8 O17 2.162820 1_555
Bi8 O19 2.231855 1_555
Bi8 O9 2.495513 1_555
Bi8 O10 2.775562 1_545
Bi9 O21 2.319735 1_555
Bi9 O13 2.325834 1_555
Bi9 O12 2.388361 1_555
Bi9 O20 2.424917 1_555
Bi9 O15 2.612121 1_555
Bi9 O10 2.672772 1_555
Bi9 O22 2.728962 1_555
Bi9 O19 2.787035 1_565
Bi10 O9 2.237896 1_554
Bi10 O21 2.240805 1_555
Bi10 O13 2.288436 1_555
Bi10 O3 2.295236 1_554
Bi10 O14 2.768060 1_555
Bi10 O16 2.792751 1_555
Bi10 O6 2.871548 1_544
Bi11 O1 2.114750 1_555
Bi11 O17 2.184577 1_555
Bi11 O15 2.232178 1_555
Bi11 O2 2.520398 1_655
Bi11 O22 2.681815 1_555
Bi12 O19 2.096997 1_555
Bi12 O16 2.168721 1_555
Bi12 O1 2.226460 1_555
Bi12 O20 2.482534 1_545
Bi12 O4 2.707133 1_655
Bi13 O20 2.238472 1_555
Bi13 O8 2.264047 1_554
Bi13 O21 2.296152 1_555
Bi13 O9 2.326052 1_554
Bi13 O23 2.605631 1_555
Bi13 O5 2.742027 1_655
Bi13 O17 2.866638 1_554
Mo0 O0 1.765237 1_666
Mo0 O18 1.768544 1_555
Mo0 O14 1.769373 1_566
Mo0 O23 1.774623 1_556
