# generated using pymatgen
data_In2O3
_symmetry_space_group_name_H-M   'P 1'
_cell_length_a   3.20068400
_cell_length_b   5.86131100
_cell_length_c   12.94807200
_cell_angle_alpha   90.00000000
_cell_angle_beta   90.00000000
_cell_angle_gamma   90.00000000
_symmetry_Int_Tables_number   1
_chemical_formula_structural   In2O3
_chemical_formula_sum   'In8 O12'
_cell_volume   242.90847649
_cell_formula_units_Z   4
loop_
 _symmetry_equiv_pos_site_id
 _symmetry_equiv_pos_as_xyz
  1  'x, y, z'
loop_
 _atom_site_type_symbol
 _atom_site_label
 _atom_site_symmetry_multiplicity
 _atom_site_fract_x
 _atom_site_fract_y
 _atom_site_fract_z
 _atom_site_occupancy
  In  In0  1  0.75000000  0.23436300  0.54833800  1
  In  In1  1  0.75000000  0.73436300  0.95166200  1
  In  In2  1  0.75000000  0.32618800  0.30504200  1
  In  In3  1  0.25000000  0.17381200  0.80504200  1
  In  In4  1  0.25000000  0.76563700  0.45166200  1
  In  In5  1  0.25000000  0.26563700  0.04833800  1
  In  In6  1  0.25000000  0.67381200  0.69495800  1
  In  In7  1  0.75000000  0.82618800  0.19495800  1
  O  O0  1  0.75000000  0.47924000  0.09924900  1
  O  O1  1  0.75000000  0.62017900  0.56742200  1
  O  O2  1  0.75000000  0.35026700  0.72157500  1
  O  O3  1  0.25000000  0.87982100  0.06742200  1
  O  O4  1  0.75000000  0.85026700  0.77842500  1
  O  O5  1  0.75000000  0.97924000  0.40075100  1
  O  O6  1  0.25000000  0.64973300  0.27842500  1
  O  O7  1  0.25000000  0.37982100  0.43257800  1
  O  O8  1  0.25000000  0.14973300  0.22157500  1
  O  O9  1  0.25000000  0.52076000  0.90075100  1
  O  O10  1  0.25000000  0.02076000  0.59924900  1
  O  O11  1  0.75000000  0.12017900  0.93257800  1
loop_
_geom_bond_atom_site_label_1
_geom_bond_atom_site_label_2
_geom_bond_distance
_geom_bond_site_symmetry_2
In0 O10 2.136148 1_655
In0 O10 2.136148 1_555
In0 O1 2.274848 1_555
In0 O2 2.343704 1_555
In0 O7 2.352570 1_555
In0 O7 2.352570 1_655
In0 O5 2.426496 1_545
In1 O9 2.136148 1_555
In1 O9 2.136148 1_655
In1 O11 2.274848 1_565
In1 O4 2.343704 1_555
In1 O3 2.352570 1_556
In1 O3 2.352570 1_656
In1 O0 2.426496 1_556
In2 O8 2.190611 1_555
In2 O8 2.190611 1_655
In2 O7 2.320961 1_655
In2 O7 2.320961 1_555
In2 O5 2.381416 1_545
In2 O6 2.505234 1_555
In2 O6 2.505234 1_655
In3 O2 2.190611 1_455
In3 O2 2.190611 1_555
In3 O11 2.320961 1_455
In3 O11 2.320961 1_555
In3 O9 2.381416 1_555
In3 O4 2.505234 1_545
In3 O4 2.505234 1_445
In4 O5 2.136148 1_455
In4 O5 2.136148 1_555
In4 O7 2.274848 1_555
In4 O6 2.343704 1_555
In4 O1 2.352570 1_455
In4 O1 2.352570 1_555
In4 O10 2.426496 1_565
In5 O0 2.136148 1_455
In5 O0 2.136148 1_555
In5 O3 2.274848 1_545
In5 O8 2.343704 1_555
In5 O11 2.352570 1_554
In5 O11 2.352570 1_454
In5 O9 2.426496 1_554
In6 O4 2.190611 1_555
In6 O4 2.190611 1_455
In6 O1 2.320961 1_455
In6 O1 2.320961 1_555
In6 O10 2.381416 1_565
In6 O2 2.505234 1_455
In6 O2 2.505234 1_555
In7 O6 2.190611 1_555
In7 O6 2.190611 1_655
In7 O3 2.320961 1_655
In7 O3 2.320961 1_555
In7 O0 2.381416 1_555
In7 O8 2.505234 1_665
In7 O8 2.505234 1_565
