# generated using pymatgen
data_Sb(PO3)4
_symmetry_space_group_name_H-M   'P 1'
_cell_length_a   7.41314817
_cell_length_b   7.41314817
_cell_length_c   10.28576954
_cell_angle_alpha   64.33409870
_cell_angle_beta   64.33409870
_cell_angle_gamma   68.84239873
_symmetry_Int_Tables_number   1
_chemical_formula_structural   Sb(PO3)4
_chemical_formula_sum   'Sb2 P8 O24'
_cell_volume   448.63884563
_cell_formula_units_Z   2
loop_
 _symmetry_equiv_pos_site_id
 _symmetry_equiv_pos_as_xyz
  1  'x, y, z'
loop_
 _atom_site_type_symbol
 _atom_site_label
 _atom_site_symmetry_multiplicity
 _atom_site_fract_x
 _atom_site_fract_y
 _atom_site_fract_z
 _atom_site_occupancy
  Sb  Sb0  1  0.94039978  0.05960022  0.75000000  1
  Sb  Sb1  1  0.05960022  0.94039978  0.25000000  1
  P  P0  1  0.26458338  0.72753805  0.97472376  1
  P  P1  1  0.28965408  0.29803645  0.18345632  1
  P  P2  1  0.72753805  0.26458338  0.47472376  1
  P  P3  1  0.29803645  0.28965408  0.68345632  1
  P  P4  1  0.73541662  0.27246195  0.02527624  1
  P  P5  1  0.27246195  0.73541662  0.52527624  1
  P  P6  1  0.70196355  0.71034592  0.31654368  1
  P  P7  1  0.71034592  0.70196355  0.81654368  1
  O  O0  1  0.83919144  0.09094597  0.41374496  1
  O  O1  1  0.16456007  0.33670163  0.32660988  1
  O  O2  1  0.87371806  0.73134695  0.34836454  1
  O  O3  1  0.73543103  0.21972444  0.89927113  1
  O  O4  1  0.49127313  0.26872228  0.53331846  1
  O  O5  1  0.26456897  0.78027556  0.10072887  1
  O  O6  1  0.16080856  0.90905403  0.58625504  1
  O  O7  1  0.73127772  0.50872687  0.96668154  1
  O  O8  1  0.47162192  0.74490695  0.83890618  1
  O  O9  1  0.74490695  0.47162192  0.33890618  1
  O  O10  1  0.33670163  0.16456007  0.82660988  1
  O  O11  1  0.83543993  0.66329837  0.67339012  1
  O  O12  1  0.52837808  0.25509305  0.16109382  1
  O  O13  1  0.73134695  0.87371806  0.84836454  1
  O  O14  1  0.09094597  0.83919144  0.91374496  1
  O  O15  1  0.26865305  0.12628194  0.15163546  1
  O  O16  1  0.25509305  0.52837808  0.66109382  1
  O  O17  1  0.26872228  0.49127313  0.03331846  1
  O  O18  1  0.66329837  0.83543993  0.17339012  1
  O  O19  1  0.12628194  0.26865305  0.65163546  1
  O  O20  1  0.90905403  0.16080856  0.08625504  1
  O  O21  1  0.78027556  0.26456897  0.60072887  1
  O  O22  1  0.50872687  0.73127772  0.46668154  1
  O  O23  1  0.21972444  0.73543103  0.39927113  1
loop_
_geom_bond_atom_site_label_1
_geom_bond_atom_site_label_2
_geom_bond_distance
_geom_bond_site_symmetry_2
O0 P2 1.488601 1_555
O0 Sb1 2.163321 1_645
O1 P1 1.449521 1_555
O2 P6 1.516817 1_555
O2 Sb1 2.073588 1_655
O3 P4 1.507112 1_556
O3 Sb0 2.081109 1_555
O4 P2 1.579442 1_555
O4 P3 1.609893 1_555
O5 P0 1.507112 1_554
O5 Sb1 2.081109 1_555
O6 P5 1.488601 1_555
O6 Sb0 2.163321 1_465
O7 P4 1.579442 1_556
O7 P7 1.609893 1_555
O8 P0 1.566303 1_555
O8 P7 1.609413 1_555
O9 P2 1.566303 1_555
O9 P6 1.609413 1_555
O10 P3 1.449521 1_555
O11 P7 1.449521 1_555
O12 P4 1.566303 1_555
O12 P1 1.609413 1_555
O13 P7 1.516817 1_555
O13 Sb0 2.073588 1_565
O14 P0 1.488601 1_555
O14 Sb0 2.163321 1_465
O15 P1 1.516817 1_555
O15 Sb1 2.073588 1_545
O16 P5 1.566303 1_555
O16 P3 1.609413 1_555
O17 P0 1.579442 1_554
O17 P1 1.609893 1_555
O18 P6 1.449521 1_555
O19 P3 1.516817 1_555
O19 Sb0 2.073588 1_455
O20 P4 1.488601 1_555
O20 Sb1 2.163321 1_645
O21 P2 1.507112 1_555
O21 Sb0 2.081109 1_555
O22 P5 1.579442 1_555
O22 P6 1.609893 1_555
O23 P5 1.507112 1_555
O23 Sb1 2.081109 1_555
