# generated using pymatgen
data_SrFeMoO5
_symmetry_space_group_name_H-M   'P 1'
_cell_length_a   4.85784600
_cell_length_b   4.98565564
_cell_length_c   6.08018983
_cell_angle_alpha   111.48612735
_cell_angle_beta   109.56889161
_cell_angle_gamma   93.42875658
_symmetry_Int_Tables_number   1
_chemical_formula_structural   SrFeMoO5
_chemical_formula_sum   'Sr1 Fe1 Mo1 O5'
_cell_volume   126.28352100
_cell_formula_units_Z   1
loop_
 _symmetry_equiv_pos_site_id
 _symmetry_equiv_pos_as_xyz
  1  'x, y, z'
loop_
 _atom_site_type_symbol
 _atom_site_label
 _atom_site_symmetry_multiplicity
 _atom_site_fract_x
 _atom_site_fract_y
 _atom_site_fract_z
 _atom_site_occupancy
  Sr  Sr0  1  0.28235100  0.27249300  0.48888400  1
  Fe  Fe0  1  0.92274000  0.92545800  0.86199500  1
  Mo  Mo0  1  0.55551000  0.55653700  0.11236900  1
  O  O0  1  0.85410600  0.87429900  0.17614500  1
  O  O1  1  0.66986500  0.27729100  0.88482000  1
  O  O2  1  0.68361000  0.68668200  0.48258700  1
  O  O3  1  0.25646900  0.64659800  0.88875300  1
  O  O4  1  0.27244800  0.25774200  0.09864600  1
loop_
_geom_bond_atom_site_label_1
_geom_bond_atom_site_label_2
_geom_bond_distance
_geom_bond_site_symmetry_2
Fe0 O4 1.995142 1_666
Fe0 O2 2.028788 1_555
Fe0 O0 2.144296 1_556
Fe0 O1 2.190626 1_565
Fe0 O3 2.201437 1_655
Mo0 O1 1.832322 1_554
Mo0 O3 1.833757 1_554
Mo0 O0 1.913786 1_555
Mo0 O4 1.924584 1_555
Mo0 O2 1.954136 1_555
O0 Sr0 2.444492 1_665
O1 Sr0 2.501275 1_555
O2 Sr0 2.773398 1_555
O3 Sr0 2.513295 1_555
O4 Sr0 2.330840 1_555
