# generated using pymatgen
data_Nb25S48
_symmetry_space_group_name_H-M   'P 1'
_cell_length_a   12.58618525
_cell_length_b   12.58618525
_cell_length_c   11.67508923
_cell_angle_alpha   71.94209477
_cell_angle_beta   71.94209477
_cell_angle_gamma   107.81804492
_symmetry_Int_Tables_number   1
_chemical_formula_structural   Nb25S48
_chemical_formula_sum   'Nb25 S48'
_cell_volume   1497.26424778
_cell_formula_units_Z   1
loop_
 _symmetry_equiv_pos_site_id
 _symmetry_equiv_pos_as_xyz
  1  'x, y, z'
loop_
 _atom_site_type_symbol
 _atom_site_label
 _atom_site_symmetry_multiplicity
 _atom_site_fract_x
 _atom_site_fract_y
 _atom_site_fract_z
 _atom_site_occupancy
  Nb  Nb0  1  0.99737000  0.66514500  0.00389600  1
  Nb  Nb1  1  0.49969200  0.16547000  0.50211000  1
  Nb  Nb2  1  0.08105800  0.58457900  0.74773800  1
  Nb  Nb3  1  0.66514500  0.99737000  0.00389600  1
  Nb  Nb4  1  0.58032700  0.08229900  0.25019300  1
  Nb  Nb5  1  0.08229900  0.58032700  0.25019300  1
  Nb  Nb6  1  0.25842200  0.42420500  0.24294000  1
  Nb  Nb7  1  0.16547000  0.49969200  0.50211000  1
  Nb  Nb8  1  0.66766700  0.99703400  0.50484400  1
  Nb  Nb9  1  0.83186400  0.83186400  0.50521100  1
  Nb  Nb10  1  0.58457900  0.08105800  0.74773800  1
  Nb  Nb11  1  0.74905400  0.91256400  0.74821800  1
  Nb  Nb12  1  0.24859100  0.41500600  0.74623500  1
  Nb  Nb13  1  0.41500600  0.24859100  0.74623500  1
  Nb  Nb14  1  0.16785600  0.49848600  0.00070400  1
  Nb  Nb15  1  0.33257000  0.33257000  0.00129500  1
  Nb  Nb16  1  0.82964400  0.82964400  0.00144700  1
  Nb  Nb17  1  0.74627900  0.91452900  0.24976600  1
  Nb  Nb18  1  0.91452900  0.74627900  0.24976600  1
  Nb  Nb19  1  0.56100200  0.56100200  0.18082100  1
  Nb  Nb20  1  0.42420500  0.25842200  0.24294000  1
  Nb  Nb21  1  0.34013800  0.34013800  0.49491000  1
  Nb  Nb22  1  0.91256400  0.74905400  0.74821800  1
  Nb  Nb23  1  0.49848600  0.16785600  0.00070400  1
  Nb  Nb24  1  0.99703400  0.66766700  0.50484400  1
  S  S0  1  0.12241400  0.79174100  0.58720100  1
  S  S1  1  0.87325200  0.54231100  0.75117200  1
  S  S2  1  0.70368700  0.20360000  0.83703800  1
  S  S3  1  0.62664600  0.29007000  0.08162900  1
  S  S4  1  0.45890900  0.96041700  0.99948600  1
  S  S5  1  0.37482000  0.04677600  0.25066500  1
  S  S6  1  0.29007000  0.62664600  0.08162900  1
  S  S7  1  0.12198300  0.78951000  0.08604000  1
  S  S8  1  0.20264000  0.70644900  0.33699300  1
  S  S9  1  0.04677600  0.37482000  0.25066500  1
  S  S10  1  0.87649400  0.53956400  0.25239400  1
  S  S11  1  0.96067100  0.46112400  0.50034300  1
  S  S12  1  0.87141000  0.03774200  0.33289200  1
  S  S13  1  0.70644900  0.20264000  0.33699300  1
  S  S14  1  0.62340300  0.28718400  0.58782500  1
  S  S15  1  0.79174100  0.12241400  0.58720100  1
  S  S16  1  0.62574500  0.79251400  0.49789800  1
  S  S17  1  0.46112400  0.96067100  0.50034300  1
  S  S18  1  0.54231100  0.87325200  0.75117200  1
  S  S19  1  0.37366300  0.03864500  0.75105000  1
  S  S20  1  0.28718400  0.62340300  0.58782500  1
  S  S21  1  0.20360000  0.70368700  0.83703800  1
  S  S22  1  0.37050400  0.53826700  0.83146500  1
  S  S23  1  0.03864500  0.37366300  0.75105000  1
  S  S24  1  0.21053100  0.21053100  0.74359900  1
  S  S25  1  0.96041700  0.45890900  0.99948600  1
  S  S26  1  0.12587000  0.29268400  0.99778000  1
  S  S27  1  0.86704600  0.03369200  0.83872400  1
  S  S28  1  0.95281900  0.95281900  0.08559400  1
  S  S29  1  0.78951000  0.12198300  0.08604000  1
  S  S30  1  0.62078900  0.78522400  0.00432300  1
  S  S31  1  0.53956400  0.87649400  0.25239400  1
  S  S32  1  0.70204800  0.70204800  0.25309700  1
  S  S33  1  0.37452200  0.55269700  0.33440900  1
  S  S34  1  0.55269700  0.37452200  0.33440900  1
  S  S35  1  0.45849800  0.45849800  0.58500600  1
  S  S36  1  0.21478800  0.21478800  0.24785100  1
  S  S37  1  0.13417700  0.30006300  0.49187200  1
  S  S38  1  0.30006300  0.13417700  0.49187200  1
  S  S39  1  0.95747700  0.95747700  0.58376200  1
  S  S40  1  0.03369200  0.86704600  0.83872400  1
  S  S41  1  0.70635400  0.70635400  0.74876700  1
  S  S42  1  0.78522400  0.62078900  0.00432300  1
  S  S43  1  0.53826700  0.37050400  0.83146500  1
  S  S44  1  0.46551300  0.46551300  0.06484000  1
  S  S45  1  0.29268400  0.12587000  0.99778000  1
  S  S46  1  0.03774200  0.87141000  0.33289200  1
  S  S47  1  0.79251400  0.62574500  0.49789800  1
loop_
_geom_bond_atom_site_label_1
_geom_bond_atom_site_label_2
_geom_bond_distance
_geom_bond_site_symmetry_2
Nb0 S40 2.467734 1_654
Nb0 S10 2.485773 1_555
Nb0 S7 2.488068 1_655
Nb0 S21 2.505286 1_654
Nb0 S25 2.513089 1_554
Nb0 S42 2.553220 1_555
Nb1 S38 2.468230 1_555
Nb1 S34 2.474624 1_555
Nb1 S17 2.480666 1_545
Nb1 S19 2.495474 1_555
Nb1 S14 2.495854 1_555
Nb1 S13 2.508538 1_555
Nb2 S20 2.472004 1_555
Nb2 S0 2.473296 1_555
Nb2 S1 2.489100 1_455
Nb2 S21 2.502796 1_555
Nb2 S25 2.515437 1_455
Nb2 S23 2.527811 1_555
Nb3 S27 2.467734 1_564
Nb3 S31 2.485773 1_555
Nb3 S29 2.488068 1_565
Nb3 S2 2.505286 1_564
Nb3 S4 2.513089 1_554
Nb3 S30 2.553220 1_555
Nb4 S31 2.472001 1_545
Nb4 S5 2.484365 1_555
Nb4 S3 2.493297 1_555
Nb4 S17 2.496015 1_545
Nb4 S13 2.513639 1_555
Nb4 S29 2.515507 1_555
Nb5 S10 2.472001 1_455
Nb5 S9 2.484365 1_555
Nb5 S6 2.493297 1_555
Nb5 S11 2.496015 1_455
Nb5 S8 2.513639 1_555
Nb5 S7 2.515507 1_555
Nb6 S6 2.477201 1_555
Nb6 S37 2.491022 1_555
Nb6 S36 2.500609 1_555
Nb6 S9 2.508665 1_555
Nb6 S33 2.546173 1_555
Nb6 S44 2.555024 1_555
Nb7 S37 2.468230 1_555
Nb7 S33 2.474624 1_555
Nb7 S11 2.480666 1_455
Nb7 S23 2.495474 1_555
Nb7 S20 2.495854 1_555
Nb7 S8 2.508538 1_555
Nb8 S18 2.468251 1_555
Nb8 S15 2.493366 1_565
Nb8 S12 2.497066 1_565
Nb8 S16 2.497166 1_555
Nb8 S13 2.503052 1_565
Nb8 S17 2.518247 1_555
Nb9 S41 2.445364 1_555
Nb9 S39 2.471473 1_555
Nb9 S16 2.521893 1_555
Nb9 S47 2.521893 1_555
Nb9 S46 2.523419 1_655
Nb9 S12 2.523419 1_565
Nb10 S14 2.472004 1_555
Nb10 S15 2.473296 1_555
Nb10 S18 2.489100 1_545
Nb10 S2 2.502796 1_555
Nb10 S4 2.515437 1_545
Nb10 S19 2.527811 1_555
Nb11 S41 2.481709 1_555
Nb11 S18 2.482501 1_555
Nb11 S39 2.486884 1_555
Nb11 S15 2.495164 1_565
Nb11 S27 2.496432 1_565
Nb11 S30 2.562874 1_556
Nb12 S24 2.481411 1_555
Nb12 S20 2.488394 1_555
Nb12 S22 2.489619 1_555
Nb12 S35 2.493147 1_555
Nb12 S23 2.510896 1_555
Nb12 S26 2.512024 1_555
Nb13 S24 2.481411 1_555
Nb13 S14 2.488394 1_555
Nb13 S43 2.489619 1_555
Nb13 S35 2.493147 1_555
Nb13 S19 2.510896 1_555
Nb13 S45 2.512024 1_555
Nb14 S22 2.478099 1_554
Nb14 S6 2.487569 1_555
Nb14 S26 2.493629 1_554
Nb14 S21 2.494074 1_554
Nb14 S9 2.497355 1_555
Nb14 S25 2.509272 1_454
Nb15 S44 2.444519 1_555
Nb15 S36 2.458734 1_555
Nb15 S26 2.510285 1_554
Nb15 S45 2.510285 1_554
Nb15 S43 2.517182 1_554
Nb15 S22 2.517182 1_554
Nb16 S40 2.471300 1_654
Nb16 S27 2.471300 1_564
Nb16 S28 2.487893 1_555
Nb16 S30 2.501585 1_555
Nb16 S42 2.501585 1_555
Nb16 S32 2.522203 1_555
Nb17 S16 2.478656 1_555
Nb17 S29 2.481743 1_565
Nb17 S31 2.485639 1_555
Nb17 S12 2.492613 1_565
Nb17 S28 2.497074 1_555
Nb17 S32 2.544487 1_555
Nb18 S47 2.478656 1_555
Nb18 S7 2.481743 1_655
Nb18 S10 2.485639 1_555
Nb18 S46 2.492613 1_655
Nb18 S28 2.497074 1_555
Nb18 S32 2.544487 1_555
Nb19 S44 2.419972 1_555
Nb19 S33 2.420649 1_555
Nb19 S34 2.420649 1_555
Nb19 S42 2.628787 1_555
Nb19 S30 2.628787 1_555
Nb19 S32 2.635083 1_555
Nb20 S3 2.477201 1_555
Nb20 S38 2.491022 1_555
Nb20 S36 2.500609 1_555
Nb20 S5 2.508665 1_555
Nb20 S34 2.546173 1_555
Nb20 S44 2.555024 1_555
Nb21 S35 2.475814 1_555
Nb21 S37 2.498680 1_555
Nb21 S38 2.498680 1_555
Nb21 S24 2.500203 1_555
Nb21 S33 2.556694 1_555
Nb21 S34 2.556694 1_555
Nb22 S41 2.481709 1_555
Nb22 S1 2.482501 1_555
Nb22 S39 2.486884 1_555
Nb22 S0 2.495164 1_655
Nb22 S40 2.496432 1_655
Nb22 S42 2.562874 1_556
Nb23 S43 2.478099 1_554
Nb23 S3 2.487569 1_555
Nb23 S45 2.493629 1_554
Nb23 S2 2.494074 1_554
Nb23 S5 2.497355 1_555
Nb23 S4 2.509272 1_544
Nb24 S1 2.468251 1_555
Nb24 S0 2.493366 1_655
Nb24 S46 2.497066 1_655
Nb24 S47 2.497166 1_555
Nb24 S8 2.503052 1_655
Nb24 S11 2.518247 1_555
