# generated using pymatgen
data_GaAs2W
_symmetry_space_group_name_H-M   'P 1'
_cell_length_a   4.58251015
_cell_length_b   4.58251015
_cell_length_c   4.58251085
_cell_angle_alpha   59.99999490
_cell_angle_beta   60.00000510
_cell_angle_gamma   60.00000000
_symmetry_Int_Tables_number   1
_chemical_formula_structural   GaAs2W
_chemical_formula_sum   'Ga1 As2 W1'
_cell_volume   68.04486787
_cell_formula_units_Z   1
loop_
 _symmetry_equiv_pos_site_id
 _symmetry_equiv_pos_as_xyz
  1  'x, y, z'
loop_
 _atom_site_type_symbol
 _atom_site_label
 _atom_site_symmetry_multiplicity
 _atom_site_fract_x
 _atom_site_fract_y
 _atom_site_fract_z
 _atom_site_occupancy
  Ga  Ga0  1  0.50000000  0.50000000  0.50000000  1
  As  As0  1  0.00000000  0.00000000  0.00000000  1
  As  As1  1  0.75000000  0.75000000  0.75000000  1
  W  W0  1  0.25000000  0.25000000  0.25000000  1
loop_
_geom_bond_atom_site_label_1
_geom_bond_atom_site_label_2
_geom_bond_distance
_geom_bond_site_symmetry_2
Ga0 W0 2.806203 1_565
Ga0 W0 2.806203 1_655
Ga0 W0 2.806203 1_555
Ga0 W0 2.806203 1_556
As0 W0 2.806203 1_545
As0 As1 2.806203 1_454
As0 W0 2.806203 1_455
As0 As1 2.806203 1_544
As0 W0 2.806203 1_555
As0 As1 2.806203 1_444
As0 As1 2.806203 1_445
As0 W0 2.806203 1_554
As1 Ga0 2.806203 1_565
As1 Ga0 2.806203 1_655
As1 Ga0 2.806203 1_555
As1 Ga0 2.806203 1_556
