# generated using pymatgen
data_Cs2MgH4
_symmetry_space_group_name_H-M   'P 1'
_cell_length_a   6.63419700
_cell_length_b   8.65690800
_cell_length_c   11.70448500
_cell_angle_alpha   90.00000000
_cell_angle_beta   90.00000000
_cell_angle_gamma   90.00000000
_symmetry_Int_Tables_number   1
_chemical_formula_structural   Cs2MgH4
_chemical_formula_sum   'Cs8 Mg4 H16'
_cell_volume   672.20768794
_cell_formula_units_Z   4
loop_
 _symmetry_equiv_pos_site_id
 _symmetry_equiv_pos_as_xyz
  1  'x, y, z'
loop_
 _atom_site_type_symbol
 _atom_site_label
 _atom_site_symmetry_multiplicity
 _atom_site_fract_x
 _atom_site_fract_y
 _atom_site_fract_z
 _atom_site_occupancy
  Cs  Cs0  1  0.25000000  0.15888400  0.91809400  1
  Cs  Cs1  1  0.25000000  0.65888400  0.58190600  1
  Cs  Cs2  1  0.75000000  0.84111600  0.08190600  1
  Cs  Cs3  1  0.75000000  0.34111600  0.41809400  1
  Cs  Cs4  1  0.25000000  0.49162400  0.19059900  1
  Cs  Cs5  1  0.25000000  0.99162400  0.30940100  1
  Cs  Cs6  1  0.75000000  0.50837600  0.80940100  1
  Cs  Cs7  1  0.75000000  0.00837600  0.69059900  1
  Mg  Mg0  1  0.25000000  0.73581000  0.91150900  1
  Mg  Mg1  1  0.25000000  0.23581000  0.58849100  1
  Mg  Mg2  1  0.75000000  0.26419000  0.08849100  1
  Mg  Mg3  1  0.75000000  0.76419000  0.41150900  1
  H  H0  1  0.25000000  0.52185300  0.91271300  1
  H  H1  1  0.25000000  0.02185300  0.58728700  1
  H  H2  1  0.75000000  0.47814700  0.08728700  1
  H  H3  1  0.75000000  0.97814700  0.41271300  1
  H  H4  1  0.25000000  0.81815100  0.05964700  1
  H  H5  1  0.25000000  0.31815100  0.44035300  1
  H  H6  1  0.75000000  0.18184900  0.94035300  1
  H  H7  1  0.75000000  0.68184900  0.55964700  1
  H  H8  1  0.02053400  0.81280900  0.84062800  1
  H  H9  1  0.47946600  0.31280900  0.65937200  1
  H  H10  1  0.52053400  0.18719100  0.15937200  1
  H  H11  1  0.97946600  0.68719100  0.34062800  1
  H  H12  1  0.97946600  0.18719100  0.15937200  1
  H  H13  1  0.52053400  0.68719100  0.34062800  1
  H  H14  1  0.47946600  0.81280900  0.84062800  1
  H  H15  1  0.02053400  0.31280900  0.65937200  1
loop_
_geom_bond_atom_site_label_1
_geom_bond_atom_site_label_2
_geom_bond_distance
_geom_bond_site_symmetry_2
Cs0 H0 3.142820 1_555
Cs0 H6 3.333248 1_455
Cs0 H6 3.333248 1_555
Cs0 H10 3.355062 1_556
Cs0 H12 3.355062 1_456
Cs0 H4 3.383149 1_546
Cs0 H8 3.480693 1_545
Cs0 H14 3.480693 1_545
Cs1 H1 3.142820 1_565
Cs1 H7 3.333248 1_555
Cs1 H7 3.333248 1_455
Cs1 H13 3.355062 1_555
Cs1 H11 3.355062 1_455
Cs1 H5 3.383149 1_555
Cs1 H9 3.480693 1_555
Cs1 H15 3.480693 1_555
Cs2 H2 3.142820 1_555
Cs2 H4 3.333248 1_655
Cs2 H4 3.333248 1_555
Cs2 H8 3.355062 1_654
Cs2 H14 3.355062 1_554
Cs2 H6 3.383149 1_564
Cs2 H12 3.480693 1_565
Cs2 H10 3.480693 1_565
Cs3 H3 3.142820 1_545
Cs3 H5 3.333248 1_555
Cs3 H5 3.333248 1_655
Cs3 H9 3.355062 1_555
Cs3 H15 3.355062 1_655
Cs3 H7 3.383149 1_555
Cs3 H11 3.480693 1_555
Cs3 H13 3.480693 1_555
Cs4 H13 3.028377 1_555
Cs4 H11 3.028377 1_455
Cs4 H10 3.209423 1_555
Cs4 H12 3.209423 1_455
Cs4 H4 3.215519 1_555
Cs4 H0 3.263023 1_554
Cs4 H5 3.286421 1_555
Cs5 H10 3.028377 1_565
Cs5 H12 3.028377 1_465
Cs5 H13 3.209423 1_555
Cs5 H11 3.209423 1_455
Cs5 H5 3.215519 1_565
Cs5 H1 3.263023 1_565
Cs5 H4 3.286421 1_555
Cs6 H9 3.028377 1_555
Cs6 H15 3.028377 1_655
Cs6 H14 3.209423 1_555
Cs6 H8 3.209423 1_655
Cs6 H6 3.215519 1_555
Cs6 H2 3.263023 1_556
Cs6 H7 3.286421 1_555
Cs7 H14 3.028377 1_545
Cs7 H8 3.028377 1_645
Cs7 H9 3.209423 1_555
Cs7 H15 3.209423 1_655
Cs7 H7 3.215519 1_545
Cs7 H3 3.263023 1_545
Cs7 H6 3.286421 1_555
H0 Mg0 1.852260 1_555
H1 Mg1 1.852260 1_555
H2 Mg2 1.852260 1_555
H3 Mg3 1.852260 1_555
H4 Mg0 1.874686 1_554
H5 Mg1 1.874686 1_555
H6 Mg2 1.874686 1_556
H7 Mg3 1.874686 1_555
H8 Mg0 1.857435 1_555
H9 Mg1 1.857435 1_555
H10 Mg2 1.857435 1_555
H11 Mg3 1.857435 1_555
H12 Mg2 1.857435 1_555
H13 Mg3 1.857435 1_555
H14 Mg0 1.857435 1_555
H15 Mg1 1.857435 1_555
