# generated using pymatgen
data_CsAl(H2N)4
_symmetry_space_group_name_H-M   'P 1'
_cell_length_a   7.50607588
_cell_length_b   7.50607588
_cell_length_c   5.26208998
_cell_angle_alpha   90.00000000
_cell_angle_beta   90.00000000
_cell_angle_gamma   90.00000000
_symmetry_Int_Tables_number   1
_chemical_formula_structural   CsAl(H2N)4
_chemical_formula_sum   'Cs2 Al2 H16 N8'
_cell_volume   296.47233304
_cell_formula_units_Z   2
loop_
 _symmetry_equiv_pos_site_id
 _symmetry_equiv_pos_as_xyz
  1  'x, y, z'
loop_
 _atom_site_type_symbol
 _atom_site_label
 _atom_site_symmetry_multiplicity
 _atom_site_fract_x
 _atom_site_fract_y
 _atom_site_fract_z
 _atom_site_occupancy
  Cs  Cs0  1  0.00000000  0.50000000  0.75450577  1
  Cs  Cs1  1  0.50000000  0.00000000  0.24549423  1
  Al  Al0  1  0.50000000  0.50000000  -0.00000000  1
  Al  Al1  1  0.00000000  0.00000000  -0.00000000  1
  H  H0  1  0.17762754  0.02338670  0.59940600  1
  H  H1  1  0.82237246  0.97661330  0.59940600  1
  H  H2  1  0.52338670  0.32237246  0.59940600  1
  H  H3  1  0.47661330  0.67762754  0.59940600  1
  H  H4  1  0.32237246  0.47661330  0.40059400  1
  H  H5  1  0.67762754  0.52338670  0.40059400  1
  H  H6  1  0.97661330  0.17762754  0.40059400  1
  H  H7  1  0.02338670  0.82237246  0.40059400  1
  H  H8  1  0.27854072  0.15952487  0.79857792  1
  H  H9  1  0.72145928  0.84047513  0.79857792  1
  H  H10  1  0.65952487  0.22145928  0.79857792  1
  H  H11  1  0.34047513  0.77854072  0.79857792  1
  H  H12  1  0.22145928  0.34047513  0.20142208  1
  H  H13  1  0.77854072  0.65952487  0.20142208  1
  H  H14  1  0.84047513  0.27854072  0.20142208  1
  H  H15  1  0.15952487  0.72145928  0.20142208  1
  N  N0  1  0.17008202  0.08087684  0.77359565  1
  N  N1  1  0.82991798  0.91912316  0.77359565  1
  N  N2  1  0.58087684  0.32991798  0.77359565  1
  N  N3  1  0.41912316  0.67008202  0.77359565  1
  N  N4  1  0.32991798  0.41912316  0.22640435  1
  N  N5  1  0.67008202  0.58087684  0.22640435  1
  N  N6  1  0.91912316  0.17008202  0.22640435  1
  N  N7  1  0.08087684  0.82991798  0.22640435  1
loop_
_geom_bond_atom_site_label_1
_geom_bond_atom_site_label_2
_geom_bond_distance
_geom_bond_site_symmetry_2
Cs0 H5 3.058469 1_455
Cs0 H4 3.058469 1_555
Cs0 H6 3.058469 1_455
Cs0 H7 3.058469 1_555
Cs0 H13 3.118902 1_456
Cs0 H15 3.118902 1_556
Cs0 H12 3.118902 1_556
Cs0 H14 3.118902 1_456
Cs0 H10 3.310025 1_455
Cs0 H9 3.310025 1_455
Cs0 H11 3.310025 1_555
Cs0 H8 3.310025 1_555
Cs0 N3 3.396623 1_555
Cs0 N0 3.396623 1_555
Cs0 N1 3.396623 1_455
Cs0 N2 3.396623 1_455
Cs1 H0 3.058469 1_555
Cs1 H1 3.058469 1_545
Cs1 H2 3.058469 1_555
Cs1 H3 3.058469 1_545
Cs1 H8 3.118902 1_554
Cs1 H11 3.118902 1_544
Cs1 H10 3.118902 1_554
Cs1 H9 3.118902 1_544
Cs1 H15 3.310025 1_545
Cs1 H13 3.310025 1_545
Cs1 H14 3.310025 1_555
Cs1 H12 3.310025 1_555
Cs1 N4 3.396623 1_555
Cs1 N7 3.396623 1_545
Cs1 N5 3.396623 1_545
Cs1 N6 3.396623 1_555
Al0 N5 1.848703 1_555
Al0 N3 1.848703 1_554
Al0 N4 1.848703 1_555
Al0 N2 1.848703 1_554
Al1 N7 1.848703 1_545
Al1 N1 1.848703 1_444
Al1 N6 1.848703 1_455
Al1 N0 1.848703 1_554
H0 N0 1.014682 1_555
H1 N1 1.014682 1_555
H2 N2 1.014682 1_555
H3 N3 1.014682 1_555
H4 N4 1.014682 1_555
H5 N5 1.014682 1_555
H6 N6 1.014682 1_555
H7 N7 1.014682 1_555
H8 N0 1.014169 1_555
H9 N1 1.014169 1_555
H10 N2 1.014169 1_555
H11 N3 1.014169 1_555
H12 N4 1.014169 1_555
H13 N5 1.014169 1_555
H14 N6 1.014169 1_555
H15 N7 1.014169 1_555
