# generated using pymatgen
data_CsH3O2
_symmetry_space_group_name_H-M   'P 1'
_cell_length_a   4.42520097
_cell_length_b   4.59119314
_cell_length_c   4.25023165
_cell_angle_alpha   90.00000000
_cell_angle_beta   90.00000000
_cell_angle_gamma   118.79308370
_symmetry_Int_Tables_number   1
_chemical_formula_structural   CsH3O2
_chemical_formula_sum   'Cs1 H3 O2'
_cell_volume   75.67563999
_cell_formula_units_Z   1
loop_
 _symmetry_equiv_pos_site_id
 _symmetry_equiv_pos_as_xyz
  1  'x, y, z'
loop_
 _atom_site_type_symbol
 _atom_site_label
 _atom_site_symmetry_multiplicity
 _atom_site_fract_x
 _atom_site_fract_y
 _atom_site_fract_z
 _atom_site_occupancy
  Cs  Cs0  1  0.98524883  0.97057989  0.00000000  1
  H  H0  1  0.55847345  0.11686371  0.50000000  1
  H  H1  1  0.07109470  0.52379543  0.50000000  1
  H  H2  1  0.45282315  0.52381013  0.50000000  1
  O  O0  1  0.67955366  0.35893505  0.50000000  1
  O  O1  1  0.33397521  0.66803979  0.50000000  1
loop_
_geom_bond_atom_site_label_1
_geom_bond_atom_site_label_2
_geom_bond_distance
_geom_bond_site_symmetry_2
Cs0 H1 3.101419 1_655
Cs0 H1 3.101419 1_654
Cs0 H2 3.101497 1_554
Cs0 H2 3.101497 1_555
Cs0 H0 3.123413 1_564
Cs0 H0 3.123413 1_565
Cs0 H0 3.124193 1_664
Cs0 H0 3.124193 1_665
Cs0 H1 3.190949 1_665
Cs0 H1 3.190949 1_664
Cs0 H2 3.191591 1_665
Cs0 H2 3.191591 1_664
Cs0 O0 3.251552 1_554
Cs0 O0 3.251552 1_555
Cs0 O1 3.300265 1_655
Cs0 O1 3.300265 1_654
Cs0 O1 3.300798 1_555
Cs0 O1 3.300798 1_554
H0 O0 0.973989 1_555
H1 O1 1.024560 1_555
H1 O0 1.520414 1_455
H2 O1 1.024972 1_555
H2 O0 1.520293 1_555
