# generated using pymatgen
data_K2Ti(SiO3)3
_symmetry_space_group_name_H-M   'P 1'
_cell_length_a   6.87019664
_cell_length_b   6.87019664
_cell_length_c   10.07936900
_cell_angle_alpha   90.00000000
_cell_angle_beta   90.00000000
_cell_angle_gamma   120.00000613
_symmetry_Int_Tables_number   1
_chemical_formula_structural   K2Ti(SiO3)3
_chemical_formula_sum   'K4 Ti2 Si6 O18'
_cell_volume   412.00480839
_cell_formula_units_Z   2
loop_
 _symmetry_equiv_pos_site_id
 _symmetry_equiv_pos_as_xyz
  1  'x, y, z'
loop_
 _atom_site_type_symbol
 _atom_site_label
 _atom_site_symmetry_multiplicity
 _atom_site_fract_x
 _atom_site_fract_y
 _atom_site_fract_z
 _atom_site_occupancy
  K  K0  1  0.33333300  0.66666700  0.05735700  1
  K  K1  1  0.66666700  0.33333300  0.55735700  1
  K  K2  1  0.33333300  0.66666700  0.44264300  1
  K  K3  1  0.66666700  0.33333300  0.94264300  1
  Ti  Ti0  1  0.00000000  0.00000000  0.00000000  1
  Ti  Ti1  1  0.00000000  0.00000000  0.50000000  1
  Si  Si0  1  0.62288000  0.75228700  0.75000000  1
  Si  Si1  1  0.87059200  0.62288000  0.25000000  1
  Si  Si2  1  0.75228700  0.12940800  0.25000000  1
  Si  Si3  1  0.24771300  0.87059200  0.75000000  1
  Si  Si4  1  0.12940800  0.37712000  0.75000000  1
  Si  Si5  1  0.37712000  0.24771300  0.25000000  1
  O  O0  1  0.24526600  0.22311400  0.38743300  1
  O  O1  1  0.02215200  0.24526600  0.88743300  1
  O  O2  1  0.22311400  0.97784800  0.88743300  1
  O  O3  1  0.77688600  0.02215200  0.38743300  1
  O  O4  1  0.97784800  0.75473400  0.38743300  1
  O  O5  1  0.75473400  0.77688600  0.88743300  1
  O  O6  1  0.75473400  0.77688600  0.61256700  1
  O  O7  1  0.97784800  0.75473400  0.11256700  1
  O  O8  1  0.77688600  0.02215200  0.11256700  1
  O  O9  1  0.22311400  0.97784800  0.61256700  1
  O  O10  1  0.02215200  0.24526600  0.61256700  1
  O  O11  1  0.24526600  0.22311400  0.11256700  1
  O  O12  1  0.48823200  0.08145400  0.25000000  1
  O  O13  1  0.40677800  0.48823200  0.75000000  1
  O  O14  1  0.08145400  0.59322200  0.75000000  1
  O  O15  1  0.91854600  0.40677800  0.25000000  1
  O  O16  1  0.59322200  0.51176800  0.25000000  1
  O  O17  1  0.51176800  0.91854600  0.75000000  1
loop_
_geom_bond_atom_site_label_1
_geom_bond_atom_site_label_2
_geom_bond_distance
_geom_bond_site_symmetry_2
K0 O7 2.849209 1_455
K0 O8 2.849213 1_565
K0 O11 2.849215 1_555
K0 O2 3.113870 1_554
K0 O1 3.113874 1_554
K0 O5 3.113876 1_554
K0 O12 3.160823 1_565
K0 O15 3.160823 1_455
K0 O16 3.160828 1_555
K1 O10 2.849209 1_655
K1 O9 2.849213 1_545
K1 O6 2.849215 1_555
K1 O3 3.113870 1_555
K1 O4 3.113874 1_555
K1 O0 3.113876 1_555
K1 O17 3.160823 1_545
K1 O14 3.160823 1_655
K1 O13 3.160828 1_555
K2 O4 2.849209 1_455
K2 O3 2.849213 1_565
K2 O0 2.849215 1_555
K2 O9 3.113870 1_555
K2 O10 3.113874 1_555
K2 O6 3.113876 1_555
K2 O12 3.160823 1_565
K2 O15 3.160823 1_455
K2 O16 3.160828 1_555
K3 O1 2.849209 1_655
K3 O2 2.849213 1_545
K3 O5 2.849215 1_555
K3 O8 3.113870 1_556
K3 O7 3.113874 1_556
K3 O11 3.113876 1_556
K3 O17 3.160823 1_545
K3 O14 3.160823 1_655
K3 O13 3.160828 1_555
O0 Si5 1.617078 1_555
O0 Ti1 1.973159 1_555
O1 Si4 1.617079 1_555
O1 Ti0 1.973159 1_556
O2 Si3 1.617082 1_555
O2 Ti0 1.973159 1_566
O3 Si2 1.617082 1_555
O3 Ti1 1.973159 1_655
O4 Si1 1.617079 1_555
O4 Ti1 1.973159 1_665
O5 Si0 1.617078 1_555
O5 Ti0 1.973159 1_666
O6 Si0 1.617078 1_555
O6 Ti1 1.973159 1_665
O7 Si1 1.617079 1_555
O7 Ti0 1.973159 1_665
O8 Si2 1.617082 1_555
O8 Ti0 1.973159 1_655
O9 Si3 1.617082 1_555
O9 Ti1 1.973159 1_565
O10 Si4 1.617079 1_555
O10 Ti1 1.973159 1_555
O11 Si5 1.617078 1_555
O11 Ti0 1.973159 1_555
O12 Si5 1.661129 1_555
O12 Si2 1.673878 1_555
O13 Si4 1.661123 1_555
O13 Si0 1.673881 1_555
O14 Si3 1.661124 1_555
O14 Si4 1.673885 1_555
O15 Si2 1.661124 1_555
O15 Si1 1.673885 1_555
O16 Si1 1.661123 1_555
O16 Si5 1.673881 1_555
O17 Si0 1.661129 1_555
O17 Si3 1.673878 1_555
