# generated using pymatgen
data_Na3Al2P2O8F3
_symmetry_space_group_name_H-M   'P 1'
_cell_length_a   6.88502796
_cell_length_b   6.88502796
_cell_length_c   8.85687800
_cell_angle_alpha   90.00000000
_cell_angle_beta   90.00000000
_cell_angle_gamma   99.71440106
_symmetry_Int_Tables_number   1
_chemical_formula_structural   Na3Al2P2O8F3
_chemical_formula_sum   'Na6 Al4 P4 O16 F6'
_cell_volume   413.82782788
_cell_formula_units_Z   2
loop_
 _symmetry_equiv_pos_site_id
 _symmetry_equiv_pos_as_xyz
  1  'x, y, z'
loop_
 _atom_site_type_symbol
 _atom_site_label
 _atom_site_symmetry_multiplicity
 _atom_site_fract_x
 _atom_site_fract_y
 _atom_site_fract_z
 _atom_site_occupancy
  Na  Na0  1  0.52537100  0.52537100  0.98914700  1
  Na  Na1  1  0.76119600  0.76119600  0.22189000  1
  Na  Na2  1  0.11134200  0.11134200  0.35562900  1
  Na  Na3  1  0.23880400  0.23880400  0.72189000  1
  Na  Na4  1  0.47462900  0.47462900  0.48914700  1
  Na  Na5  1  0.88865800  0.88865800  0.85562900  1
  Al  Al0  1  0.42612500  0.06610000  0.00445000  1
  Al  Al1  1  0.06610000  0.42612500  0.00445000  1
  Al  Al2  1  0.93390000  0.57387500  0.50445000  1
  Al  Al3  1  0.57387500  0.93390000  0.50445000  1
  P  P0  1  0.74761700  0.25111200  0.24839500  1
  P  P1  1  0.25111200  0.74761700  0.24839500  1
  P  P2  1  0.25238300  0.74888800  0.74839500  1
  P  P3  1  0.74888800  0.25238300  0.74839500  1
  O  O0  1  0.56471700  0.24209100  0.14774100  1
  O  O1  1  0.73662700  0.06354500  0.34846600  1
  O  O2  1  0.93686500  0.25815500  0.15409900  1
  O  O3  1  0.76181200  0.43917100  0.34812300  1
  O  O4  1  0.24209100  0.56471700  0.14774100  1
  O  O5  1  0.06354500  0.73662700  0.34846600  1
  O  O6  1  0.25815500  0.93686500  0.15409900  1
  O  O7  1  0.43917100  0.76181200  0.34812300  1
  O  O8  1  0.06313500  0.74184500  0.65409900  1
  O  O9  1  0.23818800  0.56082900  0.84812300  1
  O  O10  1  0.43528300  0.75790900  0.64774100  1
  O  O11  1  0.26337300  0.93645500  0.84846600  1
  O  O12  1  0.74184500  0.06313500  0.65409900  1
  O  O13  1  0.56082900  0.23818800  0.84812300  1
  O  O14  1  0.75790900  0.43528300  0.64774100  1
  O  O15  1  0.93645500  0.26337300  0.84846600  1
  F  F0  1  0.24979500  0.24979500  0.99609000  1
  F  F1  1  0.59879200  0.88795700  0.00446100  1
  F  F2  1  0.88795700  0.59879200  0.00446100  1
  F  F3  1  0.75020500  0.75020500  0.49609000  1
  F  F4  1  0.11204300  0.40120800  0.50446100  1
  F  F5  1  0.40120800  0.11204300  0.50446100  1
loop_
_geom_bond_atom_site_label_1
_geom_bond_atom_site_label_2
_geom_bond_distance
_geom_bond_site_symmetry_2
Na0 O13 2.385823 1_555
Na0 O9 2.385823 1_555
Na0 O0 2.455352 1_556
Na0 O4 2.455352 1_556
Na1 O1 2.395337 1_565
Na1 O5 2.395337 1_655
Na1 O3 2.483736 1_555
Na1 O7 2.483736 1_555
Na2 O6 2.461820 1_545
Na2 O2 2.461820 1_455
Na2 O1 2.545939 1_455
Na2 O5 2.545939 1_545
Na3 O15 2.395337 1_455
Na3 O11 2.395337 1_545
Na3 O13 2.483736 1_555
Na3 O9 2.483736 1_555
Na4 O7 2.385823 1_555
Na4 O3 2.385823 1_555
Na4 O10 2.455352 1_555
Na4 O14 2.455352 1_555
Na5 O8 2.461820 1_655
Na5 O12 2.461820 1_565
Na5 O11 2.545939 1_655
Na5 O15 2.545939 1_565
Al0 F1 1.846540 1_545
Al0 O6 1.881127 1_545
Al0 F0 1.896608 1_554
Al0 O0 1.897153 1_555
Al0 O11 1.903542 1_544
Al0 O13 1.951964 1_554
Al1 F2 1.846540 1_455
Al1 O2 1.881127 1_455
Al1 F0 1.896608 1_554
Al1 O4 1.897153 1_555
Al1 O15 1.903542 1_454
Al1 O9 1.951964 1_554
Al2 F4 1.846540 1_655
Al2 O8 1.881127 1_655
Al2 F3 1.896608 1_555
Al2 O14 1.897153 1_555
Al2 O5 1.903542 1_655
Al2 O3 1.951964 1_555
Al3 F5 1.846540 1_565
Al3 O12 1.881127 1_565
Al3 F3 1.896608 1_555
Al3 O10 1.897153 1_555
Al3 O1 1.903542 1_565
Al3 O7 1.951964 1_555
O0 P0 1.535567 1_555
O1 P0 1.557572 1_555
O2 P0 1.541521 1_555
O3 P0 1.556764 1_555
O4 P1 1.535567 1_555
O5 P1 1.557572 1_555
O6 P1 1.541521 1_555
O7 P1 1.556764 1_555
O8 P2 1.541521 1_555
O9 P2 1.556764 1_555
O10 P2 1.535567 1_555
O11 P2 1.557572 1_555
O12 P3 1.541521 1_555
O13 P3 1.556764 1_555
O14 P3 1.535567 1_555
O15 P3 1.557572 1_555
F0 Na3 2.430515 1_555
F0 Na0 2.447194 1_555
F1 Na5 2.391098 1_554
F1 Na1 2.459631 1_555
F1 Na0 2.465795 1_554
F2 Na5 2.391098 1_554
F2 Na1 2.459631 1_555
F2 Na0 2.465795 1_554
F3 Na1 2.430515 1_555
F3 Na4 2.447194 1_555
F4 Na2 2.391098 1_555
F4 Na3 2.459631 1_555
F4 Na4 2.465795 1_555
F5 Na2 2.391098 1_555
F5 Na3 2.459631 1_555
F5 Na4 2.465795 1_555
