# generated using pymatgen
data_Yb2(SeO4)3
_symmetry_space_group_name_H-M   'P 1'
_cell_length_a   9.87727600
_cell_length_b   9.56402500
_cell_length_c   16.27036294
_cell_angle_alpha   55.38493033
_cell_angle_beta   90.00000000
_cell_angle_gamma   90.00000000
_symmetry_Int_Tables_number   1
_chemical_formula_structural   Yb2(SeO4)3
_chemical_formula_sum   'Yb8 Se12 O48'
_cell_volume   1264.93468699
_cell_formula_units_Z   4
loop_
 _symmetry_equiv_pos_site_id
 _symmetry_equiv_pos_as_xyz
  1  'x, y, z'
loop_
 _atom_site_type_symbol
 _atom_site_label
 _atom_site_symmetry_multiplicity
 _atom_site_fract_x
 _atom_site_fract_y
 _atom_site_fract_z
 _atom_site_occupancy
  Yb  Yb0  1  0.46530200  0.86762200  0.88329200  1
  Yb  Yb1  1  0.96530200  0.13237800  0.61670800  1
  Yb  Yb2  1  0.03469800  0.86762200  0.38329200  1
  Yb  Yb3  1  0.53469800  0.13237800  0.11670800  1
  Yb  Yb4  1  0.53389000  0.36942100  0.38240100  1
  Yb  Yb5  1  0.96611000  0.36942100  0.88240100  1
  Yb  Yb6  1  0.46611000  0.63057900  0.61759900  1
  Yb  Yb7  1  0.03389000  0.63057900  0.11759900  1
  Se  Se0  1  0.88329000  0.96478500  0.14323500  1
  Se  Se1  1  0.38329000  0.03521500  0.35676500  1
  Se  Se2  1  0.11671000  0.03521500  0.85676500  1
  Se  Se3  1  0.87988300  0.25517300  0.34854200  1
  Se  Se4  1  0.75295600  0.54200000  0.49487100  1
  Se  Se5  1  0.74704400  0.54200000  0.99487100  1
  Se  Se6  1  0.25295600  0.45800000  0.00512900  1
  Se  Se7  1  0.24704400  0.45800000  0.50512900  1
  Se  Se8  1  0.12011700  0.74482700  0.65145800  1
  Se  Se9  1  0.62011700  0.25517300  0.84854200  1
  Se  Se10  1  0.37988300  0.74482700  0.15145800  1
  Se  Se11  1  0.61671000  0.96478500  0.64323500  1
  O  O0  1  0.71612700  0.30418200  0.32215000  1
  O  O1  1  0.87060700  0.52245400  0.07018700  1
  O  O2  1  0.78387300  0.30418200  0.82215000  1
  O  O3  1  0.50476200  0.90262600  0.73406900  1
  O  O4  1  0.89160300  0.83388300  0.10643100  1
  O  O5  1  0.39160300  0.16611700  0.39356900  1
  O  O6  1  0.99523800  0.90262600  0.23406900  1
  O  O7  1  0.91799800  0.11689700  0.32031900  1
  O  O8  1  0.97599000  0.42824500  0.28002200  1
  O  O9  1  0.33152900  0.27322100  0.05319500  1
  O  O10  1  0.02401000  0.57175500  0.71997800  1
  O  O11  1  0.81024800  0.53126500  0.90327400  1
  O  O12  1  0.12939300  0.47754600  0.92981300  1
  O  O13  1  0.27289100  0.03817800  0.81652900  1
  O  O14  1  0.37060700  0.47754600  0.42981300  1
  O  O15  1  0.13802500  0.61610100  0.43648700  1
  O  O16  1  0.41799800  0.88310300  0.17968100  1
  O  O17  1  0.10839700  0.16611700  0.89356900  1
  O  O18  1  0.68975200  0.53126500  0.40327400  1
  O  O19  1  0.31024800  0.46873500  0.59672600  1
  O  O20  1  0.86197500  0.38389900  0.56351300  1
  O  O21  1  0.57905200  0.16270700  0.54778100  1
  O  O22  1  0.62939300  0.52245400  0.57018700  1
  O  O23  1  0.72710900  0.96182200  0.18347100  1
  O  O24  1  0.22710900  0.03817800  0.31652900  1
  O  O25  1  0.16847100  0.27322100  0.55319500  1
  O  O26  1  0.63802500  0.38389900  0.06351300  1
  O  O27  1  0.28387300  0.69581800  0.67785000  1
  O  O28  1  0.09104000  0.82944300  0.53094400  1
  O  O29  1  0.60839700  0.83388300  0.60643100  1
  O  O30  1  0.21612700  0.69581800  0.17785000  1
  O  O31  1  0.42094800  0.83729300  0.45221900  1
  O  O32  1  0.83152900  0.72677900  0.44680500  1
  O  O33  1  0.90896000  0.17055700  0.46905600  1
  O  O34  1  0.92094800  0.16270700  0.04778100  1
  O  O35  1  0.49523800  0.09737400  0.26593100  1
  O  O36  1  0.52401000  0.42824500  0.78002200  1
  O  O37  1  0.36197500  0.61610100  0.93648700  1
  O  O38  1  0.58200200  0.11689700  0.82031900  1
  O  O39  1  0.00476200  0.09737400  0.76593100  1
  O  O40  1  0.77289100  0.96182200  0.68347100  1
  O  O41  1  0.18975200  0.46873500  0.09672600  1
  O  O42  1  0.59104000  0.17055700  0.96905600  1
  O  O43  1  0.08200200  0.88310300  0.67968100  1
  O  O44  1  0.40896000  0.82944300  0.03094400  1
  O  O45  1  0.66847100  0.72677900  0.94680500  1
  O  O46  1  0.07905200  0.83729300  0.95221900  1
  O  O47  1  0.47599000  0.57175500  0.21997800  1
loop_
_geom_bond_atom_site_label_1
_geom_bond_atom_site_label_2
_geom_bond_distance
_geom_bond_site_symmetry_2
O0 Se3 1.670811 1_555
O0 Yb4 2.298966 1_555
O1 Se5 1.663092 1_554
O1 Yb7 2.274173 1_655
O2 Se9 1.670811 1_555
O2 Yb5 2.298966 1_555
O3 Se11 1.661952 1_555
O3 Yb0 2.288076 1_555
O4 Se0 1.668662 1_555
O4 Yb7 2.321097 1_655
O5 Se1 1.668662 1_555
O5 Yb4 2.321097 1_555
O6 Se0 1.661952 1_555
O6 Yb2 2.288076 1_655
O7 Se3 1.670771 1_555
O7 Yb2 2.299359 1_645
O8 Se3 1.669536 1_555
O8 Yb7 2.290308 1_655
O9 Se6 1.663379 1_555
O9 Yb3 2.308237 1_555
O10 Se8 1.669536 1_555
O10 Yb5 2.290308 1_455
O11 Se5 1.671871 1_555
O11 Yb5 2.340628 1_555
O12 Se6 1.663092 1_556
O12 Yb5 2.274173 1_455
O13 Se2 1.669744 1_555
O13 Yb0 2.332287 1_545
O14 Se7 1.663092 1_555
O14 Yb4 2.274173 1_555
O15 Se7 1.665717 1_555
O15 Yb2 2.282973 1_555
O16 Se10 1.670771 1_555
O16 Yb3 2.299359 1_565
O17 Se2 1.668662 1_555
O17 Yb5 2.321097 1_455
O18 Se4 1.671871 1_555
O18 Yb4 2.340628 1_555
O19 Se7 1.671871 1_555
O19 Yb6 2.340628 1_555
O20 Se4 1.665717 1_555
O20 Yb1 2.282973 1_555
O21 Se11 1.671389 1_545
O21 Yb4 2.303059 1_555
O22 Se4 1.663092 1_555
O22 Yb6 2.274173 1_555
O23 Se0 1.669744 1_555
O23 Yb3 2.332287 1_565
O24 Se1 1.669744 1_555
O24 Yb2 2.332287 1_545
O25 Se7 1.663379 1_555
O25 Yb1 2.308237 1_455
O26 Se5 1.665717 1_554
O26 Yb3 2.282973 1_555
O27 Se8 1.670811 1_555
O27 Yb6 2.298966 1_555
O28 Se8 1.667137 1_555
O28 Yb2 2.284231 1_555
O29 Se11 1.668662 1_555
O29 Yb6 2.321097 1_555
O30 Se10 1.670811 1_555
O30 Yb7 2.298966 1_555
O31 Se1 1.671389 1_565
O31 Yb6 2.303059 1_555
O32 Se4 1.663379 1_555
O32 Yb2 2.308237 1_655
O33 Se3 1.667137 1_555
O33 Yb1 2.284231 1_555
O34 Se0 1.671389 1_545
O34 Yb5 2.303059 1_554
O35 Se1 1.661952 1_555
O35 Yb3 2.288076 1_555
O36 Se9 1.669536 1_555
O36 Yb6 2.290308 1_555
O37 Se6 1.665717 1_556
O37 Yb0 2.282973 1_555
O38 Se9 1.670771 1_555
O38 Yb0 2.299359 1_545
O39 Se2 1.661952 1_555
O39 Yb1 2.288076 1_455
O40 Se11 1.669744 1_555
O40 Yb1 2.332287 1_565
O41 Se6 1.671871 1_555
O41 Yb7 2.340628 1_555
O42 Se9 1.667137 1_555
O42 Yb3 2.284231 1_556
O43 Se8 1.670771 1_555
O43 Yb1 2.299359 1_465
O44 Se10 1.667137 1_555
O44 Yb0 2.284231 1_554
O45 Se5 1.663379 1_555
O45 Yb0 2.308237 1_555
O46 Se2 1.671389 1_565
O46 Yb7 2.303059 1_556
O47 Se10 1.669536 1_555
O47 Yb4 2.290308 1_555
