# generated using pymatgen
data_LaSc3(BO3)4
_symmetry_space_group_name_H-M   'P 1'
_cell_length_a   6.26764588
_cell_length_b   6.26764371
_cell_length_c   12.03028692
_cell_angle_alpha   99.24492044
_cell_angle_beta   99.24440919
_cell_angle_gamma   103.90564366
_symmetry_Int_Tables_number   1
_chemical_formula_structural   LaSc3(BO3)4
_chemical_formula_sum   'La2 Sc6 B8 O24'
_cell_volume   442.88094674
_cell_formula_units_Z   2
loop_
 _symmetry_equiv_pos_site_id
 _symmetry_equiv_pos_as_xyz
  1  'x, y, z'
loop_
 _atom_site_type_symbol
 _atom_site_label
 _atom_site_symmetry_multiplicity
 _atom_site_fract_x
 _atom_site_fract_y
 _atom_site_fract_z
 _atom_site_occupancy
  La  La0  1  0.03487026  0.96513186  0.25000029  1
  La  La1  1  0.96512940  0.03487162  0.75000009  1
  Sc  Sc0  1  0.20158599  0.70076696  0.97446250  1
  Sc  Sc1  1  0.29923356  0.79841389  0.52553745  1
  Sc  Sc2  1  0.79841543  0.29923429  0.02553762  1
  Sc  Sc3  1  0.70076578  0.20158464  0.47446231  1
  Sc  Sc4  1  0.57526079  0.42473892  0.25000019  1
  Sc  Sc5  1  0.42473812  0.57526173  0.75000024  1
  B  B0  1  0.77862022  0.72878036  0.49947085  1
  B  B1  1  0.27122031  0.22137964  0.00052925  1
  B  B2  1  0.22137925  0.27121948  0.50052870  1
  B  B3  1  0.72878087  0.77862038  0.99947133  1
  B  B4  1  0.10353755  0.49387979  0.27424035  1
  B  B5  1  0.50612070  0.89646093  0.22575924  1
  B  B6  1  0.89646010  0.50612183  0.72575895  1
  B  B7  1  0.49387886  0.10353931  0.77424094  1
  O  O0  1  0.43326023  0.89136603  0.70581721  1
  O  O1  1  0.10863366  0.56673924  0.79418280  1
  O  O2  1  0.56674040  0.10863328  0.29418172  1
  O  O3  1  0.89136695  0.43325882  0.20581853  1
  O  O4  1  0.19054816  0.00814663  0.93337790  1
  O  O5  1  0.99185238  0.80945128  0.56662237  1
  O  O6  1  0.80945101  0.99185203  0.06662254  1
  O  O7  1  0.00814762  0.19054863  0.43337786  1
  O  O8  1  0.24072562  0.35607446  0.25943422  1
  O  O9  1  0.64392541  0.75927427  0.24056577  1
  O  O10  1  0.75927542  0.64392448  0.74056541  1
  O  O11  1  0.35607600  0.24072464  0.75943499  1
  O  O12  1  0.63901172  0.86832260  0.50530676  1
  O  O13  1  0.13167839  0.36098877  0.99469309  1
  O  O14  1  0.36098858  0.13167811  0.49469251  1
  O  O15  1  0.86832247  0.63901129  0.00530732  1
  O  O16  1  0.69323655  0.16836603  0.85245163  1
  O  O17  1  0.83163294  0.30676312  0.64754803  1
  O  O18  1  0.30676444  0.83163456  0.14754875  1
  O  O19  1  0.16836478  0.69323641  0.35245109  1
  O  O20  1  0.51606335  0.70481753  0.93145241  1
  O  O21  1  0.29518273  0.48393749  0.56854723  1
  O  O22  1  0.48393748  0.29518299  0.06854699  1
  O  O23  1  0.70481751  0.51606270  0.43145257  1
loop_
_geom_bond_atom_site_label_1
_geom_bond_atom_site_label_2
_geom_bond_distance
_geom_bond_site_symmetry_2
La0 O8 2.454700 1_565
La0 O9 2.454716 1_455
La0 O7 2.474256 1_565
La0 O6 2.474271 1_455
La0 O18 2.480343 1_555
La0 O19 2.480349 1_555
La1 O11 2.454716 1_655
La1 O10 2.454720 1_545
La1 O5 2.474268 1_545
La1 O4 2.474281 1_655
La1 O16 2.480329 1_555
La1 O17 2.480341 1_555
B0 O5 1.375313 1_555
B0 O23 1.375683 1_555
B0 O12 1.379621 1_555
B1 O4 1.375312 1_554
B1 O22 1.375683 1_555
B1 O13 1.379623 1_554
B2 O7 1.375307 1_555
B2 O21 1.375686 1_555
B2 O14 1.379621 1_555
B3 O6 1.375304 1_556
B3 O20 1.375690 1_555
B3 O15 1.379621 1_556
B4 O19 1.366391 1_555
B4 O8 1.368868 1_555
B4 O3 1.376689 1_455
B5 O18 1.366393 1_555
B5 O9 1.368861 1_555
B5 O2 1.376697 1_565
B6 O17 1.366401 1_555
B6 O10 1.368839 1_555
B6 O1 1.376715 1_655
B7 O16 1.366401 1_555
B7 O11 1.368844 1_555
B7 O0 1.376708 1_545
O0 Sc5 2.123035 1_555
O0 Sc1 2.126562 1_555
O1 Sc5 2.123030 1_555
O1 Sc0 2.126560 1_555
O2 Sc4 2.123038 1_555
O2 Sc3 2.126570 1_555
O3 Sc4 2.123038 1_555
O3 Sc2 2.126570 1_555
O4 Sc0 2.078386 1_545
O5 Sc1 2.078393 1_655
O6 Sc2 2.078401 1_565
O7 Sc3 2.078393 1_455
O8 Sc4 2.062251 1_555
O9 Sc4 2.062253 1_555
O10 Sc5 2.062267 1_555
O11 Sc5 2.062265 1_555
O12 Sc1 2.130434 1_555
O12 Sc3 2.134725 1_565
O13 Sc0 2.130435 1_555
O13 Sc2 2.134729 1_456
O14 Sc3 2.130427 1_555
O14 Sc1 2.134740 1_545
O15 Sc2 2.130427 1_555
O15 Sc0 2.134733 1_654
O16 Sc2 2.047808 1_556
O17 Sc3 2.047805 1_555
O18 Sc0 2.047810 1_554
O19 Sc1 2.047813 1_555
O20 Sc0 2.112152 1_555
O20 Sc5 2.134889 1_555
O21 Sc1 2.112148 1_555
O21 Sc5 2.134900 1_555
O22 Sc2 2.112151 1_555
O22 Sc4 2.134900 1_555
O23 Sc3 2.112156 1_555
O23 Sc4 2.134894 1_555
