# generated using pymatgen
data_TaSbO4
_symmetry_space_group_name_H-M   'P 1'
_cell_length_a   6.23327900
_cell_length_b   6.35488100
_cell_length_c   10.46808000
_cell_angle_alpha   90.00000000
_cell_angle_beta   90.00000000
_cell_angle_gamma   90.00000000
_symmetry_Int_Tables_number   1
_chemical_formula_structural   TaSbO4
_chemical_formula_sum   'Ta4 Sb4 O16'
_cell_volume   414.65892905
_cell_formula_units_Z   4
loop_
 _symmetry_equiv_pos_site_id
 _symmetry_equiv_pos_as_xyz
  1  'x, y, z'
loop_
 _atom_site_type_symbol
 _atom_site_label
 _atom_site_symmetry_multiplicity
 _atom_site_fract_x
 _atom_site_fract_y
 _atom_site_fract_z
 _atom_site_occupancy
  Ta  Ta0  1  0.75000000  0.99476500  0.50000000  1
  Ta  Ta1  1  0.25000000  0.00523500  0.50000000  1
  Ta  Ta2  1  0.75000000  0.50523500  0.00000000  1
  Ta  Ta3  1  0.25000000  0.49476500  0.00000000  1
  Sb  Sb0  1  0.98026100  0.75000000  0.25000000  1
  Sb  Sb1  1  0.51973900  0.75000000  0.75000000  1
  Sb  Sb2  1  0.01973900  0.25000000  0.75000000  1
  Sb  Sb3  1  0.48026100  0.25000000  0.25000000  1
  O  O0  1  0.48176400  0.70399000  0.97940600  1
  O  O1  1  0.98176400  0.29601000  0.97940600  1
  O  O2  1  0.75503300  0.95074100  0.68769400  1
  O  O3  1  0.74496700  0.95074100  0.31230600  1
  O  O4  1  0.51823600  0.20399000  0.47940600  1
  O  O5  1  0.24496700  0.45074100  0.18769400  1
  O  O6  1  0.48176400  0.79601000  0.52059400  1
  O  O7  1  0.25503300  0.04925900  0.68769400  1
  O  O8  1  0.98176400  0.20399000  0.52059400  1
  O  O9  1  0.01823600  0.79601000  0.47940600  1
  O  O10  1  0.25503300  0.45074100  0.81230600  1
  O  O11  1  0.24496700  0.04925900  0.31230600  1
  O  O12  1  0.51823600  0.29601000  0.02059400  1
  O  O13  1  0.75503300  0.54925900  0.81230600  1
  O  O14  1  0.01823600  0.70399000  0.02059400  1
  O  O15  1  0.74496700  0.54925900  0.18769400  1
loop_
_geom_bond_atom_site_label_1
_geom_bond_atom_site_label_2
_geom_bond_distance
_geom_bond_site_symmetry_2
O0 Ta3 1.975177 1_556
O0 Ta2 2.106503 1_556
O0 Sb1 2.430728 1_555
O1 Ta2 1.975177 1_556
O1 Ta3 2.106503 1_656
O1 Sb2 2.430728 1_655
O2 Ta0 1.984862 1_555
O2 Sb1 2.050327 1_555
O2 Sb2 2.600870 1_665
O3 Ta0 1.984862 1_555
O3 Sb0 2.050327 1_555
O3 Sb3 2.600870 1_565
O4 Ta0 1.975177 1_545
O4 Ta1 2.106503 1_555
O4 Sb3 2.430728 1_555
O5 Ta3 1.984862 1_555
O5 Sb3 2.050327 1_555
O5 Sb0 2.600870 1_455
O6 Ta1 1.975177 1_565
O6 Ta0 2.106503 1_555
O6 Sb1 2.430728 1_555
O7 Ta1 1.984862 1_555
O7 Sb2 2.050327 1_555
O7 Sb1 2.600870 1_545
O8 Ta0 1.975177 1_545
O8 Ta1 2.106503 1_655
O8 Sb2 2.430728 1_655
O9 Ta1 1.975177 1_565
O9 Ta0 2.106503 1_455
O9 Sb0 2.430728 1_455
O10 Ta3 1.984862 1_556
O10 Sb2 2.050327 1_555
O10 Sb1 2.600870 1_555
O11 Ta1 1.984862 1_555
O11 Sb3 2.050327 1_555
O11 Sb0 2.600870 1_445
O12 Ta2 1.975177 1_555
O12 Ta3 2.106503 1_555
O12 Sb3 2.430728 1_555
O13 Ta2 1.984862 1_556
O13 Sb1 2.050327 1_555
O13 Sb2 2.600870 1_655
O14 Ta3 1.975177 1_555
O14 Ta2 2.106503 1_455
O14 Sb0 2.430728 1_455
O15 Ta2 1.984862 1_555
O15 Sb0 2.050327 1_555
O15 Sb3 2.600870 1_555
