# generated using pymatgen
data_KAlSiO4
_symmetry_space_group_name_H-M   'P 1'
_cell_length_a   18.30003594
_cell_length_b   18.30003594
_cell_length_c   8.55255700
_cell_angle_alpha   90.00000000
_cell_angle_beta   90.00000000
_cell_angle_gamma   119.99999979
_symmetry_Int_Tables_number   1
_chemical_formula_structural   KAlSiO4
_chemical_formula_sum   'K24 Al24 Si24 O96'
_cell_volume   2480.45010410
_cell_formula_units_Z   24
loop_
 _symmetry_equiv_pos_site_id
 _symmetry_equiv_pos_as_xyz
  1  'x, y, z'
loop_
 _atom_site_type_symbol
 _atom_site_label
 _atom_site_symmetry_multiplicity
 _atom_site_fract_x
 _atom_site_fract_y
 _atom_site_fract_z
 _atom_site_occupancy
  K  K0  1  0.47283300  0.47749800  0.99175400  1
  K  K1  1  0.00000000  0.00000000  0.48631300  1
  K  K2  1  0.66751200  0.86268000  0.99559000  1
  K  K3  1  0.33248800  0.13732000  0.49559000  1
  K  K4  1  0.14600100  0.33350300  0.49457900  1
  K  K5  1  0.86268000  0.19516900  0.49559000  1
  K  K6  1  0.66666700  0.33333300  0.50516300  1
  K  K7  1  0.52716700  0.52250200  0.49175400  1
  K  K8  1  0.33333300  0.66666700  0.00516300  1
  K  K9  1  0.19516900  0.33248800  0.99559000  1
  K  K10  1  0.85399900  0.66649700  0.99457900  1
  K  K11  1  0.33333300  0.66666700  0.50469500  1
  K  K12  1  0.00000000  0.00000000  0.98631300  1
  K  K13  1  0.99533500  0.47283300  0.49175400  1
  K  K14  1  0.13732000  0.80483100  0.99559000  1
  K  K15  1  0.80483100  0.66751200  0.49559000  1
  K  K16  1  0.52250200  0.99533500  0.99175400  1
  K  K17  1  0.00466500  0.52716700  0.99175400  1
  K  K18  1  0.18750200  0.85399900  0.49457900  1
  K  K19  1  0.47749800  0.00466500  0.49175400  1
  K  K20  1  0.66649700  0.81249800  0.49457900  1
  K  K21  1  0.66666700  0.33333300  0.00469500  1
  K  K22  1  0.81249800  0.14600100  0.99457900  1
  K  K23  1  0.33350300  0.18750200  0.99457900  1
  Al  Al0  1  0.49153700  0.83612400  0.29600900  1
  Al  Al1  1  0.32387700  0.82529400  0.79597400  1
  Al  Al2  1  0.00788800  0.16978100  0.81129300  1
  Al  Al3  1  0.16387600  0.65541300  0.29600900  1
  Al  Al4  1  0.99980200  0.33173700  0.18385200  1
  Al  Al5  1  0.16978100  0.16189200  0.31129300  1
  Al  Al6  1  0.16189200  0.99211200  0.81129300  1
  Al  Al7  1  0.00019800  0.66826300  0.68385200  1
  Al  Al8  1  0.66806500  0.99980200  0.68385200  1
  Al  Al9  1  0.34458700  0.50846300  0.29600900  1
  Al  Al10  1  0.83021900  0.83810800  0.81129300  1
  Al  Al11  1  0.49858300  0.32387700  0.29597400  1
  Al  Al12  1  0.33173700  0.33193500  0.68385200  1
  Al  Al13  1  0.99211200  0.83021900  0.31129300  1
  Al  Al14  1  0.66826300  0.66806500  0.18385200  1
  Al  Al15  1  0.67612300  0.17470600  0.29597400  1
  Al  Al16  1  0.82529400  0.50141700  0.29597400  1
  Al  Al17  1  0.83612400  0.34458700  0.79600900  1
  Al  Al18  1  0.33193500  0.00019800  0.18385200  1
  Al  Al19  1  0.83810800  0.00788800  0.31129300  1
  Al  Al20  1  0.50141700  0.67612300  0.79597400  1
  Al  Al21  1  0.50846300  0.16387600  0.79600900  1
  Al  Al22  1  0.17470600  0.49858300  0.79597400  1
  Al  Al23  1  0.65541300  0.49153700  0.79600900  1
  Si  Si0  1  0.33439800  0.33487200  0.29368600  1
  Si  Si1  1  0.32229100  0.82634200  0.17796100  1
  Si  Si2  1  0.50577800  0.16367000  0.17799600  1
  Si  Si3  1  0.82634200  0.50405100  0.67796100  1
  Si  Si4  1  0.99128800  0.83180700  0.69437800  1
  Si  Si5  1  0.83180700  0.84051900  0.19437800  1
  Si  Si6  1  0.17365800  0.49594900  0.17796100  1
  Si  Si7  1  0.65789100  0.49422200  0.17799600  1
  Si  Si8  1  0.66560200  0.66512800  0.79368600  1
  Si  Si9  1  0.16819300  0.15948100  0.69437800  1
  Si  Si10  1  0.84051900  0.00871200  0.69437800  1
  Si  Si11  1  0.50405100  0.67770900  0.17796100  1
  Si  Si12  1  0.00047400  0.66560200  0.29368600  1
  Si  Si13  1  0.33487200  0.00047400  0.79368600  1
  Si  Si14  1  0.99952600  0.33439800  0.79368600  1
  Si  Si15  1  0.83633000  0.34210900  0.17799600  1
  Si  Si16  1  0.49422200  0.83633000  0.67799600  1
  Si  Si17  1  0.00871200  0.16819300  0.19437800  1
  Si  Si18  1  0.34210900  0.50577800  0.67799600  1
  Si  Si19  1  0.49594900  0.32229100  0.67796100  1
  Si  Si20  1  0.66512800  0.99952600  0.29368600  1
  Si  Si21  1  0.16367000  0.65789100  0.67799600  1
  Si  Si22  1  0.67770900  0.17365800  0.67796100  1
  Si  Si23  1  0.15948100  0.99128800  0.19437800  1
  O  O0  1  0.03752700  0.18412200  0.01016300  1
  O  O1  1  0.09335700  0.68783800  0.22494700  1
  O  O2  1  0.35915200  0.92997200  0.73317000  1
  O  O3  1  0.97619000  0.73508800  0.22504200  1
  O  O4  1  0.93114700  0.86723600  0.21754100  1
  O  O5  1  0.33013200  0.33499900  0.48195100  1
  O  O6  1  0.24119700  0.47479500  0.68495800  1
  O  O7  1  0.39572700  0.59519800  0.77294400  1
  O  O8  1  0.43304900  0.07436100  0.25665900  1
  O  O9  1  0.81587800  0.85340500  0.01016300  1
  O  O10  1  0.40480200  0.80052900  0.77294400  1
  O  O11  1  0.73661800  0.46735400  0.77160400  1
  O  O12  1  0.18412200  0.14659500  0.51016300  1
  O  O13  1  0.73508800  0.75889800  0.72504200  1
  O  O14  1  0.60427300  0.40480200  0.27294400  1
  O  O15  1  0.99513300  0.33013200  0.98195100  1
  O  O16  1  0.66986800  0.66500100  0.98195100  1
  O  O17  1  0.19026300  0.48341500  0.99389300  1
  O  O18  1  0.13276400  0.06391100  0.21754100  1
  O  O19  1  0.89796200  0.59503800  0.75272300  1
  O  O20  1  0.97162400  0.22950400  0.25113700  1
  O  O21  1  0.06391100  0.93114700  0.71754100  1
  O  O22  1  0.85079800  0.37314400  0.99509000  1
  O  O23  1  0.86723600  0.93608900  0.71754100  1
  O  O24  1  0.76640200  0.24119700  0.18495800  1
  O  O25  1  0.22950400  0.25788000  0.75113700  1
  O  O26  1  0.26926400  0.73661800  0.27160400  1
  O  O27  1  0.25788000  0.02837600  0.25113700  1
  O  O28  1  0.07436100  0.64131200  0.75665900  1
  O  O29  1  0.42918000  0.35915200  0.23317000  1
  O  O30  1  0.14659500  0.96247300  0.01016300  1
  O  O31  1  0.96247300  0.81587800  0.51016300  1
  O  O32  1  0.35868800  0.43304900  0.75665900  1
  O  O33  1  0.92997200  0.57082000  0.23317000  1
  O  O34  1  0.46735400  0.73073600  0.27160400  1
  O  O35  1  0.59503800  0.69707600  0.25272300  1
  O  O36  1  0.24110200  0.97619000  0.72504200  1
  O  O37  1  0.52520500  0.76640200  0.68495800  1
  O  O38  1  0.47479500  0.23359800  0.18495800  1
  O  O39  1  0.40496200  0.30292400  0.75272300  1
  O  O40  1  0.26491200  0.24110200  0.22504200  1
  O  O41  1  0.30292400  0.89796200  0.25272300  1
  O  O42  1  0.31216200  0.40551900  0.22494700  1
  O  O43  1  0.90664300  0.31216200  0.72494700  1
  O  O44  1  0.57082000  0.64084800  0.73317000  1
  O  O45  1  0.06885300  0.13276400  0.71754100  1
  O  O46  1  0.19947100  0.60427300  0.77294400  1
  O  O47  1  0.37314400  0.52234600  0.49509000  1
  O  O48  1  0.09953000  0.90759800  0.29999400  1
  O  O49  1  0.14061600  0.56409600  0.18912300  1
  O  O50  1  0.09240200  0.19193200  0.29999400  1
  O  O51  1  0.73073600  0.26338200  0.77160400  1
  O  O52  1  0.52234600  0.14920200  0.99509000  1
  O  O53  1  0.02381000  0.26491200  0.72504200  1
  O  O54  1  0.80052900  0.39572700  0.27294400  1
  O  O55  1  0.92563900  0.35868800  0.25665900  1
  O  O56  1  0.07002800  0.42918000  0.73317000  1
  O  O57  1  0.75889800  0.02381000  0.22504200  1
  O  O58  1  0.29315200  0.80973700  0.99389300  1
  O  O59  1  0.48341500  0.29315200  0.49389300  1
  O  O60  1  0.47765400  0.85079800  0.49509000  1
  O  O61  1  0.93608900  0.06885300  0.21754100  1
  O  O62  1  0.85938400  0.43590400  0.68912300  1
  O  O63  1  0.00486700  0.66986800  0.48195100  1
  O  O64  1  0.51658500  0.70684800  0.99389300  1
  O  O65  1  0.57652000  0.14061600  0.68912300  1
  O  O66  1  0.14920200  0.62685600  0.49509000  1
  O  O67  1  0.10203800  0.40496200  0.25272300  1
  O  O68  1  0.70684800  0.19026300  0.49389300  1
  O  O69  1  0.43590400  0.57652000  0.18912300  1
  O  O70  1  0.66500100  0.99513300  0.48195100  1
  O  O71  1  0.90047000  0.09240200  0.79999400  1
  O  O72  1  0.80973700  0.51658500  0.49389300  1
  O  O73  1  0.68783800  0.59448100  0.72494700  1
  O  O74  1  0.85340500  0.03752700  0.51016300  1
  O  O75  1  0.19193200  0.09953000  0.79999400  1
  O  O76  1  0.69707600  0.10203800  0.75272300  1
  O  O77  1  0.33499900  0.00486700  0.98195100  1
  O  O78  1  0.02837600  0.77049600  0.75113700  1
  O  O79  1  0.75880300  0.52520500  0.18495800  1
  O  O80  1  0.64131200  0.56695100  0.25665900  1
  O  O81  1  0.90759800  0.80806800  0.79999400  1
  O  O82  1  0.42348000  0.85938400  0.18912300  1
  O  O83  1  0.74212000  0.97162400  0.75113700  1
  O  O84  1  0.56409600  0.42348000  0.68912300  1
  O  O85  1  0.23359800  0.75880300  0.68495800  1
  O  O86  1  0.77049600  0.74212000  0.25113700  1
  O  O87  1  0.56695100  0.92563900  0.75665900  1
  O  O88  1  0.80806800  0.90047000  0.29999400  1
  O  O89  1  0.59448100  0.90664300  0.22494700  1
  O  O90  1  0.59519800  0.19947100  0.27294400  1
  O  O91  1  0.62685600  0.47765400  0.99509000  1
  O  O92  1  0.53264600  0.26926400  0.77160400  1
  O  O93  1  0.26338200  0.53264600  0.27160400  1
  O  O94  1  0.40551900  0.09335700  0.72494700  1
  O  O95  1  0.64084800  0.07002800  0.23317000  1
loop_
_geom_bond_atom_site_label_1
_geom_bond_atom_site_label_2
_geom_bond_distance
_geom_bond_site_symmetry_2
K0 O32 2.714522 1_555
K0 O69 2.795432 1_556
K0 O29 2.803847 1_556
K0 O91 2.817345 1_555
K1 O21 2.887919 1_545
K1 O23 2.887919 1_445
K1 O45 2.887919 1_555
K1 O74 3.090696 1_455
K1 O31 3.090696 1_445
K1 O12 3.090696 1_555
K1 O61 3.116597 1_455
K1 O18 3.116597 1_555
K1 O4 3.116597 1_445
K2 O89 2.712280 1_556
K2 O83 2.736397 1_555
K2 O9 2.806594 1_556
K2 O64 2.807964 1_555
K3 O94 2.712280 1_555
K3 O27 2.736397 1_555
K3 O12 2.806594 1_555
K3 O59 2.807964 1_555
K4 O53 2.766578 1_555
K4 O67 2.772736 1_555
K4 O6 2.804844 1_555
K4 O50 2.811136 1_555
K5 O43 2.712269 1_555
K5 O20 2.736400 1_555
K5 O74 2.806612 1_555
K5 O68 2.807955 1_555
K6 O54 2.907241 1_555
K6 O90 2.907241 1_555
K6 O14 2.907253 1_555
K6 O68 3.054515 1_555
K6 O72 3.054528 1_555
K6 O59 3.054533 1_555
K6 O51 3.115595 1_555
K6 O11 3.115606 1_555
K6 O92 3.115606 1_555
K7 O80 2.714522 1_555
K7 O84 2.795432 1_555
K7 O44 2.803847 1_555
K7 O47 2.817345 1_555
K8 O46 2.907241 1_554
K8 O10 2.907241 1_554
K8 O7 2.907253 1_554
K8 O58 3.054515 1_554
K8 O17 3.054528 1_554
K8 O64 3.054533 1_554
K8 O26 3.115595 1_555
K8 O93 3.115606 1_555
K8 O34 3.115606 1_555
K9 O42 2.712270 1_556
K9 O25 2.736389 1_555
K9 O0 2.806604 1_556
K9 O17 2.807974 1_555
K10 O3 2.766578 1_556
K10 O19 2.772736 1_555
K10 O79 2.804844 1_556
K10 O81 2.811136 1_555
K11 O26 2.913479 1_555
K11 O93 2.913491 1_555
K11 O34 2.913491 1_555
K11 O66 3.071946 1_555
K11 O60 3.071952 1_555
K11 O47 3.071964 1_555
K11 O46 3.125862 1_555
K11 O10 3.125862 1_555
K11 O7 3.125873 1_555
K12 O61 2.887919 1_456
K12 O18 2.887919 1_556
K12 O4 2.887919 1_446
K12 O30 3.090696 1_546
K12 O0 3.090696 1_556
K12 O9 3.090696 1_446
K12 O21 3.116597 1_545
K12 O23 3.116597 1_445
K12 O45 3.116597 1_555
K13 O55 2.714522 1_555
K13 O62 2.795432 1_555
K13 O56 2.803847 1_655
K13 O66 2.817345 1_655
K14 O1 2.712269 1_556
K14 O78 2.736400 1_555
K14 O30 2.806612 1_556
K14 O58 2.807955 1_555
K15 O73 2.712270 1_555
K15 O86 2.736389 1_555
K15 O31 2.806604 1_555
K15 O72 2.807974 1_555
K16 O87 2.714522 1_555
K16 O82 2.795432 1_556
K16 O95 2.803847 1_566
K16 O52 2.817345 1_565
K17 O28 2.714522 1_555
K17 O49 2.795432 1_556
K17 O33 2.803847 1_456
K17 O22 2.817345 1_455
K18 O36 2.766578 1_555
K18 O41 2.772736 1_555
K18 O85 2.804844 1_555
K18 O48 2.811136 1_555
K19 O8 2.714522 1_555
K19 O65 2.795432 1_555
K19 O2 2.803847 1_545
K19 O60 2.817345 1_545
K20 O13 2.766578 1_555
K20 O35 2.772736 1_555
K20 O37 2.804844 1_555
K20 O88 2.811136 1_555
K21 O51 2.913479 1_554
K21 O11 2.913491 1_554
K21 O92 2.913491 1_554
K21 O22 3.071946 1_554
K21 O52 3.071952 1_554
K21 O91 3.071964 1_554
K21 O54 3.125862 1_555
K21 O90 3.125862 1_555
K21 O14 3.125873 1_555
K22 O57 2.766578 1_556
K22 O76 2.772736 1_555
K22 O24 2.804844 1_556
K22 O71 2.811136 1_555
K23 O40 2.766578 1_556
K23 O39 2.772736 1_555
K23 O38 2.804844 1_556
K23 O75 2.811136 1_555
Al0 O82 1.760148 1_555
Al0 O60 1.761790 1_555
Al0 O34 1.762222 1_555
Al0 O89 1.775562 1_555
Al1 O85 1.761041 1_555
Al1 O58 1.761363 1_555
Al1 O10 1.763094 1_555
Al1 O2 1.771497 1_555
Al2 O71 1.759292 1_455
Al2 O45 1.761325 1_555
Al2 O0 1.764540 1_556
Al2 O53 1.775538 1_555
Al3 O49 1.760148 1_555
Al3 O66 1.761790 1_555
Al3 O26 1.762222 1_555
Al3 O1 1.775562 1_555
Al4 O15 1.728406 1_554
Al4 O20 1.769879 1_555
Al4 O67 1.770841 1_655
Al4 O55 1.772656 1_555
Al5 O50 1.759305 1_555
Al5 O18 1.761310 1_555
Al5 O12 1.764536 1_555
Al5 O40 1.775544 1_555
Al6 O75 1.759287 1_565
Al6 O21 1.761312 1_555
Al6 O30 1.764540 1_556
Al6 O36 1.775554 1_555
Al7 O63 1.728406 1_555
Al7 O78 1.769879 1_555
Al7 O19 1.770841 1_455
Al7 O28 1.772656 1_555
Al8 O70 1.728406 1_555
Al8 O83 1.769879 1_555
Al8 O76 1.770841 1_565
Al8 O87 1.772656 1_555
Al9 O69 1.760148 1_555
Al9 O47 1.761790 1_555
Al9 O93 1.762222 1_555
Al9 O42 1.775562 1_555
Al10 O81 1.759305 1_555
Al10 O23 1.761310 1_555
Al10 O9 1.764536 1_556
Al10 O13 1.775544 1_555
Al11 O38 1.761041 1_555
Al11 O59 1.761363 1_555
Al11 O14 1.763094 1_555
Al11 O29 1.771497 1_555
Al12 O5 1.728406 1_555
Al12 O25 1.769879 1_555
Al12 O39 1.770841 1_555
Al12 O32 1.772656 1_555
Al13 O48 1.759292 1_655
Al13 O4 1.761325 1_555
Al13 O31 1.764540 1_555
Al13 O3 1.775538 1_555
Al14 O16 1.728406 1_554
Al14 O86 1.769879 1_555
Al14 O35 1.770841 1_555
Al14 O80 1.772656 1_555
Al15 O24 1.761041 1_555
Al15 O68 1.761363 1_555
Al15 O90 1.763094 1_555
Al15 O95 1.771497 1_555
Al16 O79 1.761041 1_555
Al16 O72 1.761363 1_555
Al16 O54 1.763094 1_555
Al16 O33 1.771497 1_555
Al17 O62 1.760148 1_555
Al17 O22 1.761790 1_555
Al17 O51 1.762222 1_555
Al17 O43 1.775562 1_555
Al18 O77 1.728406 1_554
Al18 O27 1.769879 1_555
Al18 O41 1.770841 1_545
Al18 O8 1.772656 1_555
Al19 O88 1.759287 1_545
Al19 O61 1.761312 1_555
Al19 O74 1.764540 1_555
Al19 O57 1.775554 1_555
Al20 O37 1.761041 1_555
Al20 O64 1.761363 1_555
Al20 O7 1.763094 1_555
Al20 O44 1.771497 1_555
Al21 O65 1.760148 1_555
Al21 O52 1.761790 1_555
Al21 O92 1.762222 1_555
Al21 O94 1.775562 1_555
Al22 O6 1.761041 1_555
Al22 O17 1.761363 1_555
Al22 O46 1.763094 1_555
Al22 O56 1.771497 1_555
Al23 O84 1.760148 1_555
Al23 O91 1.761790 1_555
Al23 O11 1.762222 1_555
Al23 O73 1.775562 1_555
O0 Si17 1.640595 1_555
O1 Si12 1.645821 1_555
O2 Si13 1.644126 1_565
O3 Si12 1.650517 1_655
O4 Si5 1.641438 1_555
O5 Si0 1.612097 1_555
O6 Si18 1.639586 1_555
O7 Si18 1.641440 1_555
O8 Si2 1.649217 1_555
O9 Si5 1.640595 1_555
O10 Si16 1.641441 1_555
O11 Si3 1.638826 1_555
O12 Si9 1.640595 1_555
O13 Si8 1.650517 1_555
O14 Si7 1.641440 1_555
O15 Si14 1.612097 1_555
O16 Si8 1.612097 1_555
O17 Si6 1.641012 1_556
O18 Si23 1.641438 1_545
O19 Si3 1.648262 1_555
O20 Si17 1.648234 1_655
O21 Si4 1.641438 1_455
O22 Si15 1.639928 1_556
O23 Si10 1.641438 1_565
O24 Si15 1.639582 1_555
O25 Si9 1.648234 1_555
O26 Si1 1.638826 1_555
O27 Si23 1.648234 1_545
O28 Si21 1.649223 1_555
O29 Si0 1.644126 1_555
O30 Si23 1.640595 1_555
O31 Si4 1.640595 1_555
O32 Si18 1.649206 1_555
O33 Si12 1.644126 1_655
O34 Si11 1.638826 1_555
O35 Si11 1.648262 1_555
O36 Si13 1.650517 1_565
O37 Si16 1.639569 1_555
O38 Si2 1.639569 1_555
O39 Si19 1.648262 1_555
O40 Si0 1.650517 1_555
O41 Si1 1.648262 1_555
O42 Si0 1.645821 1_555
O43 Si14 1.645821 1_555
O44 Si8 1.644126 1_555
O45 Si9 1.641438 1_555
O46 Si21 1.641427 1_555
O47 Si18 1.639929 1_555
O48 Si23 1.638567 1_555
O49 Si6 1.638309 1_555
O50 Si17 1.638567 1_555
O51 Si22 1.638826 1_555
O52 Si2 1.639933 1_556
O53 Si14 1.650517 1_455
O54 Si15 1.641427 1_555
O55 Si15 1.649223 1_555
O56 Si14 1.644126 1_455
O57 Si20 1.650517 1_545
O58 Si1 1.641012 1_556
O59 Si19 1.641012 1_555
O60 Si16 1.639933 1_555
O61 Si17 1.641438 1_655
O62 Si3 1.638309 1_555
O63 Si12 1.612097 1_555
O64 Si11 1.641012 1_556
O65 Si22 1.638309 1_555
O66 Si21 1.639928 1_555
O67 Si6 1.648262 1_555
O68 Si22 1.641012 1_555
O69 Si11 1.638309 1_555
O70 Si20 1.612097 1_555
O71 Si10 1.638567 1_555
O72 Si3 1.641012 1_555
O73 Si8 1.645821 1_555
O74 Si10 1.640595 1_555
O75 Si9 1.638567 1_555
O76 Si22 1.648262 1_555
O77 Si13 1.612097 1_555
O78 Si4 1.648234 1_455
O79 Si7 1.639586 1_555
O80 Si7 1.649206 1_555
O81 Si4 1.638567 1_555
O82 Si1 1.638309 1_555
O83 Si10 1.648234 1_565
O84 Si19 1.638309 1_555
O85 Si21 1.639582 1_555
O86 Si5 1.648234 1_555
O87 Si16 1.649217 1_555
O88 Si5 1.638567 1_555
O89 Si20 1.645821 1_555
O90 Si2 1.641441 1_555
O91 Si7 1.639929 1_556
O92 Si19 1.638826 1_555
O93 Si6 1.638826 1_555
O94 Si13 1.645821 1_555
O95 Si20 1.644126 1_545
