# generated using pymatgen
data_Hf5CuPb3
_symmetry_space_group_name_H-M   'P 1'
_cell_length_a   8.63955811
_cell_length_b   8.63955811
_cell_length_c   5.85539612
_cell_angle_alpha   90.00000000
_cell_angle_beta   90.00000000
_cell_angle_gamma   120.00000053
_symmetry_Int_Tables_number   1
_chemical_formula_structural   Hf5CuPb3
_chemical_formula_sum   'Hf10 Cu2 Pb6'
_cell_volume   378.50356124
_cell_formula_units_Z   2
loop_
 _symmetry_equiv_pos_site_id
 _symmetry_equiv_pos_as_xyz
  1  'x, y, z'
loop_
 _atom_site_type_symbol
 _atom_site_label
 _atom_site_symmetry_multiplicity
 _atom_site_fract_x
 _atom_site_fract_y
 _atom_site_fract_z
 _atom_site_occupancy
  Hf  Hf0  1  0.66666700  0.33333300  0.00000000  1
  Hf  Hf1  1  0.00000000  0.25434457  0.25000000  1
  Hf  Hf2  1  0.74565543  -0.00000000  0.75000000  1
  Hf  Hf3  1  0.25434457  0.25434457  0.75000000  1
  Hf  Hf4  1  0.33333300  0.66666700  0.50000000  1
  Hf  Hf5  1  0.33333300  0.66666700  0.00000000  1
  Hf  Hf6  1  -0.00000000  0.74565543  0.75000000  1
  Hf  Hf7  1  0.66666700  0.33333300  0.50000000  1
  Hf  Hf8  1  0.74565543  0.74565543  0.25000000  1
  Hf  Hf9  1  0.25434457  0.00000000  0.25000000  1
  Cu  Cu0  1  0.00000000  0.00000000  0.00000000  1
  Cu  Cu1  1  0.00000000  0.00000000  0.50000000  1
  Pb  Pb0  1  0.61095352  0.61095352  0.75000000  1
  Pb  Pb1  1  0.38904648  0.00000000  0.75000000  1
  Pb  Pb2  1  -0.00000000  0.61095352  0.25000000  1
  Pb  Pb3  1  0.38904648  0.38904648  0.25000000  1
  Pb  Pb4  1  0.00000000  0.38904648  0.75000000  1
  Pb  Pb5  1  0.61095352  -0.00000000  0.25000000  1
loop_
_geom_bond_atom_site_label_1
_geom_bond_atom_site_label_2
_geom_bond_distance
_geom_bond_site_symmetry_2
Hf0 Pb5 3.046620 1_555
Hf0 Pb4 3.046620 1_654
Hf0 Pb1 3.046622 1_554
Hf0 Pb2 3.046622 1_655
Hf0 Pb0 3.046627 1_554
Hf0 Pb3 3.046627 1_555
Hf1 Pb5 2.956402 1_455
Hf1 Pb3 2.956402 1_555
Hf1 Pb2 3.080944 1_555
Hf1 Pb4 3.150518 1_554
Hf1 Pb4 3.150518 1_555
Hf2 Pb4 2.956402 1_655
Hf2 Pb0 2.956402 1_545
Hf2 Pb1 3.080944 1_555
Hf2 Pb5 3.150518 1_555
Hf2 Pb5 3.150518 1_556
Hf3 Pb4 2.956402 1_555
Hf3 Pb1 2.956402 1_555
Hf3 Pb0 3.080944 1_555
Hf3 Pb3 3.150518 1_555
Hf3 Pb3 3.150518 1_556
Hf4 Pb1 3.046620 1_565
Hf4 Pb2 3.046620 1_555
Hf4 Pb5 3.046622 1_565
Hf4 Pb4 3.046622 1_555
Hf4 Pb0 3.046627 1_555
Hf4 Pb3 3.046627 1_555
Hf5 Pb2 3.046620 1_555
Hf5 Pb1 3.046620 1_564
Hf5 Pb5 3.046622 1_565
Hf5 Pb4 3.046622 1_554
Hf5 Pb0 3.046627 1_554
Hf5 Pb3 3.046627 1_555
Hf6 Pb1 2.956402 1_565
Hf6 Pb0 2.956402 1_455
Hf6 Pb4 3.080944 1_555
Hf6 Pb2 3.150518 1_555
Hf6 Pb2 3.150518 1_556
Hf7 Pb5 3.046620 1_555
Hf7 Pb4 3.046620 1_655
Hf7 Pb1 3.046622 1_555
Hf7 Pb2 3.046622 1_655
Hf7 Pb0 3.046627 1_555
Hf7 Pb3 3.046627 1_555
Hf8 Pb5 2.956402 1_565
Hf8 Pb2 2.956402 1_655
Hf8 Pb3 3.080944 1_555
Hf8 Pb0 3.150518 1_554
Hf8 Pb0 3.150518 1_555
Hf9 Pb2 2.956402 1_545
Hf9 Pb3 2.956402 1_555
Hf9 Pb5 3.080944 1_555
Hf9 Pb1 3.150518 1_554
Hf9 Pb1 3.150518 1_555
Cu0 Hf8 2.640365 1_445
Cu0 Hf3 2.640365 1_554
Cu0 Hf1 2.640365 1_555
Cu0 Hf9 2.640365 1_555
Cu0 Hf6 2.640365 1_544
Cu0 Hf2 2.640365 1_454
Cu1 Hf8 2.640365 1_445
Cu1 Hf3 2.640365 1_555
Cu1 Hf6 2.640365 1_545
Cu1 Hf1 2.640365 1_555
Cu1 Hf9 2.640365 1_555
Cu1 Hf2 2.640365 1_455
