# generated using pymatgen
data_Fe2CuS3
_symmetry_space_group_name_H-M   'P 1'
_cell_length_a   6.21355700
_cell_length_b   6.53551800
_cell_length_c   10.60665400
_cell_angle_alpha   90.00000000
_cell_angle_beta   90.00000000
_cell_angle_gamma   90.00000000
_symmetry_Int_Tables_number   1
_chemical_formula_structural   Fe2CuS3
_chemical_formula_sum   'Fe8 Cu4 S12'
_cell_volume   430.72363539
_cell_formula_units_Z   4
loop_
 _symmetry_equiv_pos_site_id
 _symmetry_equiv_pos_as_xyz
  1  'x, y, z'
loop_
 _atom_site_type_symbol
 _atom_site_label
 _atom_site_symmetry_multiplicity
 _atom_site_fract_x
 _atom_site_fract_y
 _atom_site_fract_z
 _atom_site_occupancy
  Fe  Fe0  1  0.45215900  0.91038500  0.09432100  1
  Fe  Fe1  1  0.95215900  0.58961500  0.09432100  1
  Fe  Fe2  1  0.04784100  0.41038500  0.90567900  1
  Fe  Fe3  1  0.04784100  0.41038500  0.59432100  1
  Fe  Fe4  1  0.95215900  0.58961500  0.40567900  1
  Fe  Fe5  1  0.54784100  0.08961500  0.90567900  1
  Fe  Fe6  1  0.45215900  0.91038500  0.40567900  1
  Fe  Fe7  1  0.54784100  0.08961500  0.59432100  1
  Cu  Cu0  1  0.04788300  0.93326400  0.75000000  1
  Cu  Cu1  1  0.45211700  0.43326400  0.25000000  1
  Cu  Cu2  1  0.95211700  0.06673600  0.25000000  1
  Cu  Cu3  1  0.54788300  0.56673600  0.75000000  1
  S  S0  1  0.59787400  0.60237400  0.08070000  1
  S  S1  1  0.90212600  0.10237400  0.58070000  1
  S  S2  1  0.58846200  0.10646600  0.25000000  1
  S  S3  1  0.41153800  0.89353400  0.75000000  1
  S  S4  1  0.09787400  0.89762600  0.41930000  1
  S  S5  1  0.40212600  0.39762600  0.91930000  1
  S  S6  1  0.40212600  0.39762600  0.58070000  1
  S  S7  1  0.59787400  0.60237400  0.41930000  1
  S  S8  1  0.09787400  0.89762600  0.08070000  1
  S  S9  1  0.90212600  0.10237400  0.91930000  1
  S  S10  1  0.08846200  0.39353400  0.25000000  1
  S  S11  1  0.91153800  0.60646600  0.75000000  1
loop_
_geom_bond_atom_site_label_1
_geom_bond_atom_site_label_2
_geom_bond_distance
_geom_bond_site_symmetry_2
Fe0 S8 2.207681 1_555
Fe0 S0 2.211979 1_555
Fe0 S2 2.255233 1_565
Fe1 S0 2.207681 1_555
Fe1 S8 2.211979 1_655
Fe1 S10 2.255233 1_655
Fe2 S5 2.207681 1_555
Fe2 S9 2.211979 1_455
Fe2 S11 2.255233 1_455
Fe3 S6 2.207681 1_555
Fe3 S1 2.211979 1_455
Fe3 S11 2.255233 1_455
Fe4 S7 2.207681 1_555
Fe4 S4 2.211979 1_655
Fe4 S10 2.255233 1_655
Fe5 S9 2.207681 1_555
Fe5 S5 2.211979 1_555
Fe5 S3 2.255233 1_545
Fe6 S4 2.207681 1_555
Fe6 S7 2.211979 1_555
Fe6 S2 2.255233 1_565
Fe7 S1 2.207681 1_555
Fe7 S6 2.211979 1_555
Fe7 S3 2.255233 1_545
Cu0 S3 2.274461 1_555
Cu0 S1 2.294845 1_465
Cu0 S9 2.294845 1_465
Cu0 S11 2.297682 1_455
Cu1 S10 2.274461 1_555
Cu1 S0 2.294845 1_555
Cu1 S7 2.294845 1_555
Cu1 S2 2.297682 1_555
Cu2 S2 2.274461 1_555
Cu2 S4 2.294845 1_645
Cu2 S8 2.294845 1_645
Cu2 S10 2.297682 1_655
Cu3 S11 2.274461 1_555
Cu3 S5 2.294845 1_555
Cu3 S6 2.294845 1_555
Cu3 S3 2.297682 1_555
