# generated using pymatgen
data_Ce5(In2Pt)2
_symmetry_space_group_name_H-M   'P 1'
_cell_length_a   3.84125935
_cell_length_b   8.16774424
_cell_length_c   18.69451533
_cell_angle_alpha   90.00000000
_cell_angle_beta   90.00000000
_cell_angle_gamma   90.00000000
_symmetry_Int_Tables_number   1
_chemical_formula_structural   Ce5(In2Pt)2
_chemical_formula_sum   'Ce10 In8 Pt4'
_cell_volume   586.52964914
_cell_formula_units_Z   2
loop_
 _symmetry_equiv_pos_site_id
 _symmetry_equiv_pos_as_xyz
  1  'x, y, z'
loop_
 _atom_site_type_symbol
 _atom_site_label
 _atom_site_symmetry_multiplicity
 _atom_site_fract_x
 _atom_site_fract_y
 _atom_site_fract_z
 _atom_site_occupancy
  Ce  Ce0  1  0.50000000  0.63526284  0.41700287  1
  Ce  Ce1  1  0.50000000  0.24330318  0.77641889  1
  Ce  Ce2  1  0.50000000  0.75669682  0.22358111  1
  Ce  Ce3  1  0.50000000  0.36473716  0.58299713  1
  Ce  Ce4  1  0.50000000  0.13526284  0.08299713  1
  Ce  Ce5  1  0.50000000  0.50000000  -0.00000000  1
  Ce  Ce6  1  0.50000000  0.86473716  0.91700287  1
  Ce  Ce7  1  0.50000000  0.25669682  0.27641889  1
  Ce  Ce8  1  0.50000000  -0.00000000  0.50000000  1
  Ce  Ce9  1  0.50000000  0.74330318  0.72358111  1
  In  In0  1  0.00000000  0.05167621  0.64901462  1
  In  In1  1  -0.00000000  0.94832379  0.35098538  1
  In  In2  1  0.00000000  0.79893370  0.07053561  1
  In  In3  1  0.00000000  0.20106630  0.92946439  1
  In  In4  1  0.00000000  0.70106630  0.57053561  1
  In  In5  1  -0.00000000  0.55167621  0.85098538  1
  In  In6  1  0.00000000  0.44832379  0.14901462  1
  In  In7  1  -0.00000000  0.29893370  0.42946439  1
  Pt  Pt0  1  0.00000000  0.46848767  0.69553707  1
  Pt  Pt1  1  -0.00000000  0.03151233  0.19553707  1
  Pt  Pt2  1  0.00000000  0.96848767  0.80446293  1
  Pt  Pt3  1  -0.00000000  0.53151233  0.30446293  1
loop_
_geom_bond_atom_site_label_1
_geom_bond_atom_site_label_2
_geom_bond_distance
_geom_bond_site_symmetry_2
Ce0 Pt3 2.972075 1_655
Ce0 Pt3 2.972075 1_555
Ce0 In7 3.359967 1_555
Ce0 In7 3.359967 1_655
Ce0 In1 3.427862 1_555
Ce0 In1 3.427862 1_655
Ce0 In4 3.495118 1_555
Ce0 In4 3.495118 1_655
Ce1 Pt2 3.000335 1_645
Ce1 Pt2 3.000335 1_545
Ce1 Pt0 3.059075 1_655
Ce1 Pt0 3.059075 1_555
Ce1 In0 3.436762 1_555
Ce1 In0 3.436762 1_655
Ce1 In5 3.460624 1_555
Ce1 In5 3.460624 1_655
Ce1 In3 3.463205 1_555
Ce1 In3 3.463205 1_655
Ce2 Pt1 3.000335 1_665
Ce2 Pt1 3.000335 1_565
Ce2 Pt3 3.059075 1_555
Ce2 Pt3 3.059075 1_655
Ce2 In1 3.436762 1_555
Ce2 In1 3.436762 1_655
Ce2 In6 3.460624 1_555
Ce2 In6 3.460624 1_655
Ce2 In2 3.463205 1_555
Ce2 In2 3.463205 1_655
Ce3 Pt0 2.972075 1_655
Ce3 Pt0 2.972075 1_555
Ce3 In4 3.359967 1_555
Ce3 In4 3.359967 1_655
Ce3 In0 3.427862 1_555
Ce3 In0 3.427862 1_655
Ce3 In7 3.495118 1_555
Ce3 In7 3.495118 1_655
Ce4 Pt1 2.972075 1_655
Ce4 Pt1 2.972075 1_555
Ce4 In2 3.359967 1_645
Ce4 In2 3.359967 1_545
Ce4 In6 3.427862 1_555
Ce4 In6 3.427862 1_655
Ce4 In3 3.495118 1_554
Ce4 In3 3.495118 1_654
Ce5 In3 3.374771 1_554
Ce5 In3 3.374771 1_654
Ce5 In2 3.374771 1_555
Ce5 In2 3.374771 1_655
Ce5 In5 3.409898 1_554
Ce5 In6 3.409898 1_555
Ce5 In6 3.409898 1_655
Ce5 In5 3.409898 1_654
Ce6 Pt2 2.972075 1_555
Ce6 Pt2 2.972075 1_655
Ce6 In3 3.359967 1_565
Ce6 In3 3.359967 1_665
Ce6 In5 3.427862 1_555
Ce6 In5 3.427862 1_655
Ce6 In2 3.495118 1_656
Ce6 In2 3.495118 1_556
Ce7 Pt3 3.000335 1_555
Ce7 Pt3 3.000335 1_655
Ce7 Pt1 3.059075 1_655
Ce7 Pt1 3.059075 1_555
Ce7 In6 3.436762 1_555
Ce7 In6 3.436762 1_655
Ce7 In1 3.460624 1_545
Ce7 In1 3.460624 1_645
Ce7 In7 3.463205 1_555
Ce7 In7 3.463205 1_655
Ce8 In7 3.374771 1_555
Ce8 In7 3.374771 1_655
Ce8 In4 3.374771 1_645
Ce8 In4 3.374771 1_545
Ce8 In1 3.409898 1_645
Ce8 In0 3.409898 1_555
Ce8 In0 3.409898 1_655
Ce8 In1 3.409898 1_545
Ce9 Pt0 3.000335 1_555
Ce9 Pt0 3.000335 1_655
Ce9 Pt2 3.059075 1_655
Ce9 Pt2 3.059075 1_555
Ce9 In5 3.436762 1_655
Ce9 In5 3.436762 1_555
Ce9 In0 3.460624 1_565
Ce9 In0 3.460624 1_665
Ce9 In4 3.463205 1_655
Ce9 In4 3.463205 1_555
In0 Pt2 2.984407 1_545
In0 In4 3.217638 1_545
In0 Pt0 3.513745 1_555
In1 Pt1 2.984407 1_565
In1 In7 3.217638 1_565
In1 Pt3 3.513745 1_555
In2 Pt1 3.011556 1_565
In2 In6 3.217638 1_555
In3 Pt2 3.011556 1_545
In3 In5 3.217638 1_555
In4 Pt0 3.011556 1_555
In5 Pt0 2.984407 1_555
In5 Pt2 3.513745 1_555
In6 Pt3 2.984407 1_555
In6 Pt1 3.513745 1_555
In7 Pt3 3.011556 1_555
