# generated using pymatgen
data_Si6O13
_symmetry_space_group_name_H-M   'P 1'
_cell_length_a   7.66671200
_cell_length_b   13.80132300
_cell_length_c   13.82113865
_cell_angle_alpha   61.21279722
_cell_angle_beta   90.00000000
_cell_angle_gamma   90.00000000
_symmetry_Int_Tables_number   1
_chemical_formula_structural   Si6O13
_chemical_formula_sum   'Si24 O52'
_cell_volume   1281.69039064
_cell_formula_units_Z   4
loop_
 _symmetry_equiv_pos_site_id
 _symmetry_equiv_pos_as_xyz
  1  'x, y, z'
loop_
 _atom_site_type_symbol
 _atom_site_label
 _atom_site_symmetry_multiplicity
 _atom_site_fract_x
 _atom_site_fract_y
 _atom_site_fract_z
 _atom_site_occupancy
  Si  Si0  1  0.34490600  0.54247400  0.32973900  1
  Si  Si1  1  0.65509400  0.54247400  0.32973900  1
  Si  Si2  1  0.78954200  0.33537400  0.53501400  1
  Si  Si3  1  0.21045800  0.33537400  0.53501400  1
  Si  Si4  1  0.15314300  0.54785500  0.12442000  1
  Si  Si5  1  0.84685700  0.54785500  0.12442000  1
  Si  Si6  1  0.71728900  0.33797000  0.11927000  1
  Si  Si7  1  0.28271100  0.33797000  0.11927000  1
  Si  Si8  1  0.65114900  0.11761700  0.54619000  1
  Si  Si9  1  0.34885100  0.11761700  0.54619000  1
  Si  Si10  1  0.78967900  0.11613800  0.33053600  1
  Si  Si11  1  0.21032100  0.11613800  0.33053600  1
  Si  Si12  1  0.79102200  0.87559200  0.66206600  1
  Si  Si13  1  0.20897800  0.87559200  0.66206600  1
  Si  Si14  1  0.65407000  0.86981200  0.44596500  1
  Si  Si15  1  0.34593000  0.86981200  0.44596500  1
  Si  Si16  1  0.70609500  0.65878000  0.88183700  1
  Si  Si17  1  0.29390500  0.65878000  0.88183700  1
  Si  Si18  1  0.15636500  0.44850000  0.87283600  1
  Si  Si19  1  0.84363500  0.44850000  0.87283600  1
  Si  Si20  1  0.83936500  0.66038600  0.45819000  1
  Si  Si21  1  0.16063500  0.66038600  0.45819000  1
  Si  Si22  1  0.65870000  0.46406600  0.66244700  1
  Si  Si23  1  0.34130000  0.46406600  0.66244700  1
  O  O0  1  0.58062600  0.99996700  0.99965900  1
  O  O1  1  0.24494000  0.61655200  0.37702100  1
  O  O2  1  0.74082900  0.57727600  0.20959000  1
  O  O3  1  0.25917100  0.57727600  0.20959000  1
  O  O4  1  0.27375200  0.37711700  0.62109800  1
  O  O5  1  0.70202100  0.41191600  0.41452500  1
  O  O6  1  0.29797900  0.41191600  0.41452500  1
  O  O7  1  0.00000000  0.34336800  0.52335600  1
  O  O8  1  0.82156200  0.41580300  0.15535200  1
  O  O9  1  0.17843800  0.41580300  0.15535200  1
  O  O10  1  0.27428200  0.20829300  0.58007000  1
  O  O11  1  0.72571800  0.20829300  0.58007000  1
  O  O12  1  0.91973500  0.00157000  0.99583900  1
  O  O13  1  0.08026500  0.00157000  0.99583900  1
  O  O14  1  0.50000000  0.37074900  0.12222200  1
  O  O15  1  0.27890300  0.15041600  0.42160700  1
  O  O16  1  0.72109700  0.15041600  0.42160700  1
  O  O17  1  0.71669000  0.99511500  0.63929500  1
  O  O18  1  0.28331000  0.99511500  0.63929500  1
  O  O19  1  0.72788900  0.20770100  0.20603900  1
  O  O20  1  0.27211100  0.20770100  0.20603900  1
  O  O21  1  0.00000000  0.11509500  0.33291900  1
  O  O22  1  0.74016700  0.78535900  0.78691900  1
  O  O23  1  0.25983300  0.78535900  0.78691900  1
  O  O24  1  0.71385400  0.99683300  0.35422600  1
  O  O25  1  0.28614600  0.99683300  0.35422600  1
  O  O26  1  0.79136900  0.63765900  0.99791700  1
  O  O27  1  0.20863100  0.63765900  0.99791700  1
  O  O28  1  0.29396300  0.84766800  0.57045500  1
  O  O29  1  0.70603700  0.84766800  0.57045500  1
  O  O30  1  0.50000000  0.47915500  0.12449200  1
  O  O31  1  0.50000000  0.23174000  0.81628400  1
  O  O32  1  0.50000000  0.63457400  0.89683900  1
  O  O33  1  0.76780900  0.78655200  0.41675900  1
  O  O34  1  0.23219100  0.78655200  0.41675900  1
  O  O35  1  0.79978500  0.57472600  0.84585000  1
  O  O36  1  0.20021500  0.57472600  0.84585000  1
  O  O37  1  0.00000000  0.80397700  0.22023100  1
  O  O38  1  0.00000000  0.88286500  0.64518500  1
  O  O39  1  0.00000000  0.74572700  0.17521900  1
  O  O40  1  0.00000000  0.08712500  0.65874700  1
  O  O41  1  0.75733400  0.58276900  0.58284300  1
  O  O42  1  0.24266600  0.58276900  0.58284300  1
  O  O43  1  0.76862500  0.35980600  0.99719900  1
  O  O44  1  0.23137500  0.35980600  0.99719900  1
  O  O45  1  0.75506000  0.61655200  0.37702100  1
  O  O46  1  0.26475100  0.42015200  0.78754500  1
  O  O47  1  0.73524900  0.42015200  0.78754500  1
  O  O48  1  0.50000000  0.68293600  0.64612100  1
  O  O49  1  0.50000000  0.17856700  0.76594900  1
  O  O50  1  0.72624800  0.37711700  0.62109800  1
  O  O51  1  0.41937400  0.99996700  0.99965900  1
loop_
_geom_bond_atom_site_label_1
_geom_bond_atom_site_label_2
_geom_bond_distance
_geom_bond_site_symmetry_2
O0 O51 1.236273 1_555
O1 Si21 1.641930 1_555
O1 Si0 1.644127 1_555
O2 Si1 1.628540 1_555
O2 Si5 1.634528 1_555
O3 Si0 1.628540 1_555
O3 Si4 1.634528 1_555
O4 Si3 1.625764 1_555
O4 Si23 1.641742 1_555
O5 Si2 1.626372 1_555
O5 Si1 1.647959 1_555
O6 Si3 1.626372 1_555
O6 Si0 1.647959 1_555
O7 Si3 1.620019 1_555
O7 Si2 1.620019 1_455
O8 Si6 1.599258 1_555
O8 Si5 1.670764 1_555
O9 Si7 1.599258 1_555
O9 Si4 1.670764 1_555
O10 Si3 1.628322 1_555
O10 Si9 1.636038 1_555
O11 Si2 1.628322 1_555
O11 Si8 1.636038 1_555
O12 O13 1.230737 1_655
O14 O30 1.511505 1_555
O14 Si6 1.731848 1_555
O14 Si7 1.731848 1_555
O15 Si11 1.630373 1_555
O15 Si9 1.645196 1_555
O16 Si10 1.630373 1_555
O16 Si8 1.645196 1_555
O17 Si12 1.626317 1_555
O17 Si8 1.634459 1_565
O18 Si13 1.626317 1_555
O18 Si9 1.634459 1_565
O19 Si6 1.612639 1_555
O19 Si10 1.639478 1_555
O20 Si7 1.612639 1_555
O20 Si11 1.639478 1_555
O21 Si11 1.612730 1_555
O21 Si10 1.612730 1_455
O22 Si12 1.615830 1_555
O22 Si16 1.622915 1_555
O23 Si13 1.615830 1_555
O23 Si17 1.622915 1_555
O24 Si10 1.623913 1_565
O24 Si14 1.658365 1_555
O25 Si11 1.623913 1_565
O25 Si15 1.658365 1_555
O26 Si16 1.623556 1_555
O26 Si5 1.639206 1_556
O27 Si17 1.623556 1_555
O27 Si4 1.639206 1_556
O28 Si13 1.626714 1_555
O28 Si15 1.645033 1_555
O29 Si12 1.626714 1_555
O29 Si14 1.645033 1_555
O31 O49 1.230541 1_555
O32 Si16 1.607641 1_555
O32 Si17 1.607641 1_555
O33 Si14 1.640273 1_555
O33 Si20 1.643329 1_555
O34 Si15 1.640273 1_555
O34 Si21 1.643329 1_555
O35 Si19 1.631319 1_555
O35 Si16 1.632414 1_555
O36 Si18 1.631319 1_555
O36 Si17 1.632414 1_555
O37 O39 1.230861 1_555
O38 Si12 1.615214 1_455
O38 Si13 1.615214 1_555
O41 Si22 1.652346 1_555
O41 Si20 1.653409 1_555
O42 Si23 1.652346 1_555
O42 Si21 1.653409 1_555
O43 Si6 1.613238 1_556
O43 Si19 1.660456 1_555
O44 Si7 1.613238 1_556
O44 Si18 1.660456 1_555
O45 Si20 1.641930 1_555
O45 Si1 1.644127 1_555
O46 Si18 1.636268 1_555
O46 Si23 1.640712 1_555
O47 Si19 1.636268 1_555
O47 Si22 1.640712 1_555
O50 Si2 1.625764 1_555
O50 Si22 1.641742 1_555
