# generated using pymatgen
data_RbAuC2(SN)2
_symmetry_space_group_name_H-M   'P 1'
_cell_length_a   7.40940440
_cell_length_b   7.40940440
_cell_length_c   18.05169928
_cell_angle_alpha   73.22321541
_cell_angle_beta   73.22321541
_cell_angle_gamma   50.38955752
_symmetry_Int_Tables_number   1
_chemical_formula_structural   RbAuC2(SN)2
_chemical_formula_sum   'Rb4 Au4 C8 S8 N8'
_cell_volume   723.59686138
_cell_formula_units_Z   4
loop_
 _symmetry_equiv_pos_site_id
 _symmetry_equiv_pos_as_xyz
  1  'x, y, z'
loop_
 _atom_site_type_symbol
 _atom_site_label
 _atom_site_symmetry_multiplicity
 _atom_site_fract_x
 _atom_site_fract_y
 _atom_site_fract_z
 _atom_site_occupancy
  Rb  Rb0  1  0.19085200  0.16208300  0.43948700  1
  Rb  Rb1  1  0.83791700  0.80914800  0.06051300  1
  Rb  Rb2  1  0.16208300  0.19085200  0.93948700  1
  Rb  Rb3  1  0.80914800  0.83791700  0.56051300  1
  Au  Au0  1  0.66385100  0.33614900  0.25000000  1
  Au  Au1  1  0.33614900  0.66385100  0.75000000  1
  Au  Au2  1  0.16551400  0.83448600  0.25000000  1
  Au  Au3  1  0.83448600  0.16551400  0.75000000  1
  C  C0  1  0.58484500  0.45533800  0.58705000  1
  C  C1  1  0.82728300  0.71725800  0.35641800  1
  C  C2  1  0.17271700  0.28274200  0.64358200  1
  C  C3  1  0.54466200  0.41515500  0.91295000  1
  C  C4  1  0.41515500  0.54466200  0.41295000  1
  C  C5  1  0.28274200  0.17271700  0.14358200  1
  C  C6  1  0.71725800  0.82728300  0.85641800  1
  C  C7  1  0.45533800  0.58484500  0.08705000  1
  S  S0  1  0.70787400  0.33643400  0.11531100  1
  S  S1  1  0.00495200  0.36052700  0.72922700  1
  S  S2  1  0.33643400  0.70787400  0.61531100  1
  S  S3  1  0.29212600  0.66356600  0.88468900  1
  S  S4  1  0.63947300  0.99504800  0.77077300  1
  S  S5  1  0.36052700  0.00495200  0.22922700  1
  S  S6  1  0.66356600  0.29212600  0.38468900  1
  S  S7  1  0.99504800  0.63947300  0.27077300  1
  N  N0  1  0.76024400  0.28014700  0.56423600  1
  N  N1  1  0.28571700  0.23963400  0.58112500  1
  N  N2  1  0.71985300  0.23975600  0.93576400  1
  N  N3  1  0.76036600  0.71428300  0.91887500  1
  N  N4  1  0.23963400  0.28571700  0.08112500  1
  N  N5  1  0.28014700  0.76024400  0.06423600  1
  N  N6  1  0.71428300  0.76036600  0.41887500  1
  N  N7  1  0.23975600  0.71985300  0.43576400  1
loop_
_geom_bond_atom_site_label_1
_geom_bond_atom_site_label_2
_geom_bond_distance
_geom_bond_site_symmetry_2
Au0 S6 2.357546 1_555
Au0 S0 2.357546 1_555
Au1 S3 2.357546 1_555
Au1 S2 2.357546 1_555
Au2 S7 2.358954 1_455
Au2 S5 2.358954 1_565
Au3 S4 2.358954 1_545
Au3 S1 2.358954 1_655
C0 N0 1.179861 1_555
C0 S2 1.663322 1_555
C1 N6 1.181577 1_555
C1 S7 1.661022 1_555
C2 N1 1.181577 1_555
C2 S1 1.661022 1_555
C3 N2 1.179861 1_555
C3 S3 1.663322 1_555
C4 N7 1.179861 1_555
C4 S6 1.663322 1_555
C5 N4 1.181577 1_555
C5 S5 1.661022 1_555
C6 N3 1.181577 1_555
C6 S4 1.661022 1_555
C7 N5 1.179861 1_555
C7 S0 1.663322 1_555
N0 Rb0 3.073530 1_655
N0 Rb3 3.077569 1_545
N1 Rb3 3.020885 1_545
N1 Rb0 3.124437 1_555
N2 Rb1 3.073530 1_546
N2 Rb2 3.077569 1_655
N3 Rb2 3.020885 1_655
N3 Rb1 3.124437 1_556
N4 Rb1 3.020885 1_455
N4 Rb2 3.124437 1_554
N5 Rb2 3.073530 1_564
N5 Rb1 3.077569 1_455
N6 Rb0 3.020885 1_565
N6 Rb3 3.124437 1_555
N7 Rb3 3.073530 1_455
N7 Rb0 3.077569 1_565
