# generated using pymatgen
data_Hg8Br3O4
_symmetry_space_group_name_H-M   'P 1'
_cell_length_a   6.52432500
_cell_length_b   6.93628600
_cell_length_c   39.49308845
_cell_angle_alpha   89.35770887
_cell_angle_beta   90.00000000
_cell_angle_gamma   90.00000000
_symmetry_Int_Tables_number   1
_chemical_formula_structural   Hg8Br3O4
_chemical_formula_sum   'Hg32 Br12 O16'
_cell_volume   1787.13099789
_cell_formula_units_Z   4
loop_
 _symmetry_equiv_pos_site_id
 _symmetry_equiv_pos_as_xyz
  1  'x, y, z'
loop_
 _atom_site_type_symbol
 _atom_site_label
 _atom_site_symmetry_multiplicity
 _atom_site_fract_x
 _atom_site_fract_y
 _atom_site_fract_z
 _atom_site_occupancy
  Hg  Hg0  1  0.81047100  0.52281500  0.67122800  1
  Hg  Hg1  1  0.23315600  0.65367500  0.73623200  1
  Hg  Hg2  1  0.64181800  0.26001000  0.88927100  1
  Hg  Hg3  1  0.11222200  0.96669000  0.68322300  1
  Hg  Hg4  1  0.31047100  0.47718500  0.82877200  1
  Hg  Hg5  1  0.92362600  0.95153900  0.12876800  1
  Hg  Hg6  1  0.25506800  0.36718800  0.60849200  1
  Hg  Hg7  1  0.85818200  0.26001000  0.38927100  1
  Hg  Hg8  1  0.07637400  0.04846100  0.87123200  1
  Hg  Hg9  1  0.35818200  0.73999000  0.11072900  1
  Hg  Hg10  1  0.74493200  0.63281200  0.39150800  1
  Hg  Hg11  1  0.38777800  0.96669000  0.18322300  1
  Hg  Hg12  1  0.61222200  0.03331000  0.81677700  1
  Hg  Hg13  1  0.42362600  0.04846100  0.37123200  1
  Hg  Hg14  1  0.69244200  0.03914400  0.99232600  1
  Hg  Hg15  1  0.80755800  0.03914400  0.49232600  1
  Hg  Hg16  1  0.23289500  0.13985700  0.25757400  1
  Hg  Hg17  1  0.76710500  0.86014300  0.74242600  1
  Hg  Hg18  1  0.30755800  0.96085600  0.00767400  1
  Hg  Hg19  1  0.73315600  0.34632500  0.76376800  1
  Hg  Hg20  1  0.57637400  0.95153900  0.62876800  1
  Hg  Hg21  1  0.14181800  0.73999000  0.61072900  1
  Hg  Hg22  1  0.68952900  0.52281500  0.17122800  1
  Hg  Hg23  1  0.76684400  0.34632500  0.26376800  1
  Hg  Hg24  1  0.26710500  0.13985700  0.75757400  1
  Hg  Hg25  1  0.73289500  0.86014300  0.24242600  1
  Hg  Hg26  1  0.88777800  0.03331000  0.31677700  1
  Hg  Hg27  1  0.19244200  0.96085600  0.50767400  1
  Hg  Hg28  1  0.75506800  0.63281200  0.89150800  1
  Hg  Hg29  1  0.26684400  0.65367500  0.23623200  1
  Hg  Hg30  1  0.24493200  0.36718800  0.10849200  1
  Hg  Hg31  1  0.18952900  0.47718500  0.32877200  1
  Br  Br0  1  0.24204800  0.64120200  0.38870400  1
  Br  Br1  1  0.48724200  0.19398600  0.46507000  1
  Br  Br2  1  0.59560600  0.61571100  0.31095400  1
  Br  Br3  1  0.01275800  0.19398600  0.96507000  1
  Br  Br4  1  0.25795200  0.64120200  0.88870400  1
  Br  Br5  1  0.51275800  0.80601400  0.53493000  1
  Br  Br6  1  0.75795200  0.35879800  0.61129600  1
  Br  Br7  1  0.09560600  0.38428900  0.18904600  1
  Br  Br8  1  0.40439400  0.38428900  0.68904600  1
  Br  Br9  1  0.98724200  0.80601400  0.03493000  1
  Br  Br10  1  0.74204800  0.35879800  0.11129600  1
  Br  Br11  1  0.90439400  0.61571100  0.81095400  1
  O  O0  1  0.05886900  0.86311000  0.25836900  1
  O  O1  1  0.78516100  0.94563900  0.88336000  1
  O  O2  1  0.84550900  0.82923700  0.64330000  1
  O  O3  1  0.15449100  0.17076300  0.35670000  1
  O  O4  1  0.09544900  0.42178900  0.27685100  1
  O  O5  1  0.94113100  0.13689000  0.74163100  1
  O  O6  1  0.28516100  0.05436100  0.61664000  1
  O  O7  1  0.65449100  0.82923700  0.14330000  1
  O  O8  1  0.34550900  0.17076300  0.85670000  1
  O  O9  1  0.90455100  0.57821100  0.72314900  1
  O  O10  1  0.21483900  0.05436100  0.11664000  1
  O  O11  1  0.59544900  0.57821100  0.22314900  1
  O  O12  1  0.55886900  0.13689000  0.24163100  1
  O  O13  1  0.44113100  0.86311000  0.75836900  1
  O  O14  1  0.40455100  0.42178900  0.77685100  1
  O  O15  1  0.71483900  0.94563900  0.38336000  1
loop_
_geom_bond_atom_site_label_1
_geom_bond_atom_site_label_2
_geom_bond_distance
_geom_bond_site_symmetry_2
Hg0 O9 2.178693 1_555
Hg0 O2 2.394511 1_555
Hg1 O13 2.178144 1_555
Hg1 O9 2.267915 1_455
Hg1 O14 2.520517 1_555
Hg2 O1 2.386506 1_545
Hg2 O8 2.406872 1_555
Hg3 O2 2.540994 1_455
Hg4 O14 2.178693 1_555
Hg4 O8 2.394511 1_555
Hg5 O7 2.030118 1_555
Hg5 O10 2.083337 1_665
Hg6 O6 2.198801 1_555
Hg7 O15 2.386506 1_545
Hg7 O3 2.406872 1_655
Hg8 O8 2.030118 1_555
Hg8 O1 2.083337 1_445
Hg9 O10 2.386506 1_565
Hg9 O7 2.406872 1_555
Hg10 O15 2.198801 1_555
Hg11 O7 2.540994 1_555
Hg12 O8 2.540994 1_555
Hg13 O3 2.030118 1_555
Hg13 O15 2.083337 1_545
Hg14 Hg18 2.638289 1_546
Hg15 Hg27 2.638289 1_645
Hg16 O12 2.218168 1_555
Hg16 O0 2.230162 1_545
Hg16 O4 2.289396 1_555
Hg17 O13 2.218168 1_555
Hg17 O5 2.230162 1_565
Hg17 O9 2.289396 1_555
Hg19 O5 2.178144 1_555
Hg19 O14 2.267915 1_555
Hg19 O9 2.520517 1_555
Hg20 O2 2.030118 1_555
Hg20 O6 2.083337 1_565
Hg21 O6 2.386506 1_565
Hg21 O2 2.406872 1_455
Hg22 O11 2.178693 1_555
Hg22 O7 2.394511 1_555
Hg23 O12 2.178144 1_555
Hg23 O4 2.267915 1_655
Hg23 O11 2.520517 1_555
Hg24 O5 2.218168 1_455
Hg24 O13 2.230162 1_545
Hg24 O14 2.289396 1_555
Hg25 O0 2.218168 1_655
Hg25 O12 2.230162 1_565
Hg25 O11 2.289396 1_555
Hg26 O3 2.540994 1_655
Hg28 O1 2.198801 1_555
Hg29 O0 2.178144 1_555
Hg29 O11 2.267915 1_555
Hg29 O4 2.520517 1_555
Hg30 O10 2.198801 1_555
Hg31 O4 2.178693 1_555
Hg31 O3 2.394511 1_555
Br0 Hg31 2.659753 1_555
Br0 Hg13 3.133009 1_565
Br0 Hg10 3.245736 1_455
Br0 Hg10 3.283341 1_555
Br1 Hg15 2.579488 1_555
Br1 Hg27 3.014009 1_545
Br2 Hg23 2.879301 1_555
Br2 Hg31 2.902149 1_555
Br3 Hg14 2.579488 1_455
Br3 Hg18 3.014009 1_546
Br4 Hg4 2.659753 1_555
Br4 Hg8 3.133009 1_565
Br4 Hg28 3.245736 1_555
Br4 Hg28 3.283341 1_455
Br5 Hg27 2.579488 1_555
Br5 Hg15 3.014009 1_565
Br6 Hg0 2.659753 1_555
Br6 Hg20 3.133009 1_545
Br6 Hg6 3.245736 1_655
Br6 Hg6 3.283341 1_555
Br7 Hg29 2.879301 1_555
Br7 Hg22 2.902149 1_455
Br8 Hg1 2.879301 1_555
Br8 Hg0 2.902149 1_555
Br9 Hg18 2.579488 1_655
Br9 Hg14 3.014009 1_564
Br10 Hg22 2.659753 1_555
Br10 Hg5 3.133009 1_545
Br10 Hg30 3.245736 1_555
Br10 Hg30 3.283341 1_655
Br11 Hg19 2.879301 1_555
Br11 Hg4 2.902149 1_655
