# generated using pymatgen
data_NaPrS2
_symmetry_space_group_name_H-M   'P 1'
_cell_length_a   7.22552775
_cell_length_b   7.22552775
_cell_length_c   7.22552775
_cell_angle_alpha   133.14762147
_cell_angle_beta   133.14762147
_cell_angle_gamma   68.42241226
_symmetry_Int_Tables_number   1
_chemical_formula_structural   NaPrS2
_chemical_formula_sum   'Na2 Pr2 S4'
_cell_volume   197.23328296
_cell_formula_units_Z   2
loop_
 _symmetry_equiv_pos_site_id
 _symmetry_equiv_pos_as_xyz
  1  'x, y, z'
loop_
 _atom_site_type_symbol
 _atom_site_label
 _atom_site_symmetry_multiplicity
 _atom_site_fract_x
 _atom_site_fract_y
 _atom_site_fract_z
 _atom_site_occupancy
  Na  Na0  1  0.25000000  0.75000000  0.50000000  1
  Na  Na1  1  0.50000000  0.50000000  -0.00000000  1
  Pr  Pr0  1  -0.00000000  -0.00000000  -0.00000000  1
  Pr  Pr1  1  0.75000000  0.25000000  0.50000000  1
  S  S0  1  0.76110499  0.76110499  -0.00000000  1
  S  S1  1  0.51110499  0.01110499  0.50000000  1
  S  S2  1  0.23889501  0.23889501  0.00000000  1
  S  S3  1  0.98889501  0.48889501  0.50000000  1
loop_
_geom_bond_atom_site_label_1
_geom_bond_atom_site_label_2
_geom_bond_distance
_geom_bond_site_symmetry_2
Na0 S0 2.875698 1_455
Na0 S2 2.875698 1_566
Na0 S0 2.875698 1_556
Na0 S2 2.875698 1_555
Na0 S3 3.120361 1_455
Na0 S1 3.120361 1_565
Na1 S1 2.875698 1_565
Na1 S3 2.875698 1_454
Na1 S3 2.875698 1_555
Na1 S1 2.875698 1_554
Na1 S0 3.120361 1_555
Na1 S2 3.120361 1_555
Pr0 S0 2.854938 1_445
Pr0 S2 2.854938 1_555
Pr0 S3 2.875698 1_455
Pr0 S3 2.875698 1_444
Pr0 S1 2.875698 1_555
Pr0 S1 2.875698 1_454
Pr1 S1 2.854938 1_555
Pr1 S3 2.854938 1_555
Pr1 S2 2.875698 1_555
Pr1 S0 2.875698 1_556
Pr1 S0 2.875698 1_545
Pr1 S2 2.875698 1_656
