# generated using pymatgen
data_ZrFe12Si2B
_symmetry_space_group_name_H-M   'P 1'
_cell_length_a   9.92532490
_cell_length_b   9.92532490
_cell_length_c   9.92532490
_cell_angle_alpha   109.47122063
_cell_angle_beta   109.47122063
_cell_angle_gamma   109.47122063
_symmetry_Int_Tables_number   1
_chemical_formula_structural   ZrFe12Si2B
_chemical_formula_sum   'Zr4 Fe48 Si8 B4'
_cell_volume   752.68334238
_cell_formula_units_Z   4
loop_
 _symmetry_equiv_pos_site_id
 _symmetry_equiv_pos_as_xyz
  1  'x, y, z'
loop_
 _atom_site_type_symbol
 _atom_site_label
 _atom_site_symmetry_multiplicity
 _atom_site_fract_x
 _atom_site_fract_y
 _atom_site_fract_z
 _atom_site_occupancy
  Zr  Zr0  1  0.00000000  0.50000000  0.50000000  1
  Zr  Zr1  1  0.00000000  0.00000000  0.00000000  1
  Zr  Zr2  1  0.50000000  0.50000000  0.00000000  1
  Zr  Zr3  1  0.50000000  0.00000000  0.50000000  1
  Fe  Fe0  1  0.25410900  0.25410900  0.49121800  1
  Fe  Fe1  1  0.00000000  0.49235500  0.23341400  1
  Fe  Fe2  1  0.49900300  0.75599600  0.00000000  1
  Fe  Fe3  1  0.49235500  0.00000000  0.23341400  1
  Fe  Fe4  1  0.76947100  0.76947100  0.00000000  1
  Fe  Fe5  1  0.50099700  0.50099700  0.25699300  1
  Fe  Fe6  1  0.24400400  0.24400400  0.74300700  1
  Fe  Fe7  1  0.49900300  0.00000000  0.75599600  1
  Fe  Fe8  1  0.76289100  0.50878200  0.76289100  1
  Fe  Fe9  1  0.74105800  0.50764500  0.50764500  1
  Fe  Fe10  1  0.74300700  0.24400400  0.24400400  1
  Fe  Fe11  1  0.50000000  0.25000000  0.75000000  1
  Fe  Fe12  1  0.25000000  0.75000000  0.50000000  1
  Fe  Fe13  1  0.49235500  0.23341400  0.00000000  1
  Fe  Fe14  1  0.50000000  0.75000000  0.25000000  1
  Fe  Fe15  1  0.76658600  0.76658600  0.25894200  1
  Fe  Fe16  1  0.50764500  0.74105800  0.50764500  1
  Fe  Fe17  1  0.23710900  0.00000000  0.74589100  1
  Fe  Fe18  1  0.00000000  0.23052900  0.23052900  1
  Fe  Fe19  1  0.23341400  0.00000000  0.49235500  1
  Fe  Fe20  1  0.50099700  0.25699300  0.50099700  1
  Fe  Fe21  1  0.23710900  0.74589100  0.00000000  1
  Fe  Fe22  1  0.23052900  0.00000000  0.23052900  1
  Fe  Fe23  1  0.50764500  0.50764500  0.74105800  1
  Fe  Fe24  1  0.75000000  0.50000000  0.25000000  1
  Fe  Fe25  1  0.49121800  0.25410900  0.25410900  1
  Fe  Fe26  1  0.25410900  0.49121800  0.25410900  1
  Fe  Fe27  1  0.25894200  0.76658600  0.76658600  1
  Fe  Fe28  1  0.74589100  0.23710900  0.00000000  1
  Fe  Fe29  1  0.50878200  0.76289100  0.76289100  1
  Fe  Fe30  1  0.74589100  0.00000000  0.23710900  1
  Fe  Fe31  1  0.76947100  0.00000000  0.76947100  1
  Fe  Fe32  1  0.00000000  0.74589100  0.23710900  1
  Fe  Fe33  1  0.76658600  0.25894200  0.76658600  1
  Fe  Fe34  1  0.75599600  0.49900300  0.00000000  1
  Fe  Fe35  1  0.76289100  0.76289100  0.50878200  1
  Fe  Fe36  1  0.00000000  0.23341400  0.49235500  1
  Fe  Fe37  1  0.25000000  0.50000000  0.75000000  1
  Fe  Fe38  1  0.00000000  0.49900300  0.75599600  1
  Fe  Fe39  1  0.75599600  0.00000000  0.49900300  1
  Fe  Fe40  1  0.24400400  0.74300700  0.24400400  1
  Fe  Fe41  1  0.00000000  0.75599600  0.49900300  1
  Fe  Fe42  1  0.75000000  0.25000000  0.50000000  1
  Fe  Fe43  1  0.00000000  0.23710900  0.74589100  1
  Fe  Fe44  1  0.25699300  0.50099700  0.50099700  1
  Fe  Fe45  1  0.00000000  0.76947100  0.76947100  1
  Fe  Fe46  1  0.23052900  0.23052900  0.00000000  1
  Fe  Fe47  1  0.23341400  0.49235500  0.00000000  1
  Si  Si0  1  0.00000000  0.27809600  0.00000000  1
  Si  Si1  1  0.00000000  0.00000000  0.52553200  1
  Si  Si2  1  0.47446800  0.47446800  0.47446800  1
  Si  Si3  1  0.00000000  0.00000000  0.27809600  1
  Si  Si4  1  0.00000000  0.52553200  0.00000000  1
  Si  Si5  1  0.52553200  0.00000000  0.00000000  1
  Si  Si6  1  0.27809600  0.00000000  0.00000000  1
  Si  Si7  1  0.72190400  0.72190400  0.72190400  1
  B  B0  1  0.26294600  0.26294600  0.26294600  1
  B  B1  1  0.73705400  0.00000000  0.00000000  1
  B  B2  1  0.00000000  0.73705400  0.00000000  1
  B  B3  1  0.00000000  0.00000000  0.73705400  1
loop_
_geom_bond_atom_site_label_1
_geom_bond_atom_site_label_2
_geom_bond_distance
_geom_bond_site_symmetry_2
Fe0 Si3 2.417135 1_555
Fe0 Fe19 2.465468 1_555
Fe0 Fe36 2.465468 1_555
Fe0 Fe23 2.504438 1_555
Fe0 Si2 2.624982 1_555
Fe1 Si4 2.446255 1_555
Fe1 Fe26 2.465468 1_555
Fe1 Fe28 2.465468 1_455
Fe1 Fe32 2.504441 1_555
Fe1 Fe12 2.565029 1_555
Fe1 Fe24 2.565029 1_455
Fe1 Si0 2.570033 1_555
Fe1 Fe18 2.589304 1_555
Fe1 Zr0 2.621636 1_555
Fe2 Si5 2.347214 1_565
Fe2 Fe37 2.498622 1_554
Fe2 Zr2 2.544159 1_555
Fe3 Si5 2.446255 1_555
Fe3 Fe30 2.504441 1_555
Fe3 Fe42 2.565029 1_555
Fe3 Si6 2.570033 1_555
Fe3 Zr3 2.621636 1_555
Fe4 Si3 2.485628 1_665
Fe4 Si7 2.485628 1_554
Fe4 Zr1 2.642042 1_665
Fe5 Si2 2.347214 1_555
Fe5 Zr2 2.544159 1_555
Fe6 Si1 2.347214 1_555
Fe6 Zr2 2.544159 1_556
Fe7 Si5 2.347214 1_556
Fe7 Zr3 2.544159 1_555
Fe8 Si7 2.417135 1_555
Fe8 Fe9 2.465465 1_555
Fe8 Si4 2.624982 1_656
Fe9 Si2 2.446245 1_555
Fe9 Si7 2.570027 1_555
Fe9 Zr0 2.621646 1_655
Fe10 Si5 2.347214 1_555
Fe10 Fe42 2.498622 1_555
Fe10 Fe24 2.498622 1_555
Fe10 Zr0 2.544159 1_655
Fe11 Fe20 2.498622 1_555
Fe11 Fe34 2.498622 1_556
Fe11 Fe7 2.498622 1_555
Fe11 Fe6 2.498622 1_555
Fe11 Fe33 2.565026 1_555
Fe11 Fe19 2.565029 1_555
Fe11 Fe13 2.565029 1_556
Fe11 Fe23 2.565033 1_555
Fe11 Zr3 2.865194 1_555
Fe11 Zr2 2.865194 1_556
Fe12 Fe40 2.498622 1_555
Fe12 Fe44 2.498622 1_555
Fe12 Fe41 2.498622 1_555
Fe12 Fe7 2.498622 1_565
Fe12 Fe27 2.565026 1_555
Fe12 Fe19 2.565029 1_565
Fe12 Fe16 2.565033 1_555
Fe12 Zr0 2.865194 1_555
Fe12 Zr3 2.865194 1_565
Fe13 Si5 2.446255 1_555
Fe13 Fe25 2.465468 1_555
Fe13 Fe17 2.465468 1_554
Fe13 Fe28 2.504441 1_555
Fe13 Fe24 2.565029 1_555
Fe13 Si6 2.570033 1_555
Fe13 Fe46 2.589304 1_555
Fe13 Zr2 2.621636 1_555
Fe14 Fe5 2.498622 1_555
Fe14 Fe2 2.498622 1_555
Fe14 Fe39 2.498622 1_565
Fe14 Fe40 2.498622 1_555
Fe14 Fe15 2.565026 1_555
Fe14 Fe47 2.565029 1_555
Fe14 Fe3 2.565029 1_565
Fe14 Fe16 2.565033 1_555
Fe14 Zr2 2.865194 1_555
Fe14 Zr3 2.865194 1_565
Fe15 Si1 2.446250 1_665
Fe15 Fe32 2.465471 1_655
Fe15 Fe30 2.465471 1_565
Fe15 Fe35 2.504431 1_555
Fe15 Fe24 2.565026 1_555
Fe15 Si3 2.570038 1_665
Fe15 Fe4 2.589314 1_555
Fe15 Zr2 2.621639 1_555
Fe16 Si2 2.446245 1_555
Fe16 Fe35 2.465465 1_555
Fe16 Fe29 2.465465 1_555
Fe16 Fe26 2.504438 1_555
Fe16 Si7 2.570027 1_555
Fe16 Fe31 2.589307 1_565
Fe16 Zr3 2.621646 1_565
Fe17 Si6 2.417135 1_556
Fe17 Fe27 2.465471 1_545
Fe17 Fe19 2.504441 1_555
Fe17 Si1 2.624982 1_555
Fe18 Si0 2.485628 1_555
Fe18 Si3 2.485628 1_555
Fe18 Fe36 2.589304 1_555
Fe18 Zr1 2.642042 1_555
Fe19 Si1 2.446255 1_555
Fe19 Fe32 2.465468 1_545
Fe19 Si3 2.570033 1_555
Fe19 Fe22 2.589304 1_555
Fe19 Zr3 2.621636 1_555
Fe20 Si2 2.347214 1_555
Fe20 Fe42 2.498622 1_555
Fe20 Zr3 2.544159 1_555
Fe21 Si6 2.417135 1_565
Fe21 Fe3 2.465468 1_565
Fe21 Fe27 2.465471 1_554
Fe21 Fe47 2.504441 1_555
Fe21 Si4 2.624982 1_555
Fe22 Si6 2.485628 1_555
Fe22 Si3 2.485628 1_555
Fe22 Fe3 2.589304 1_555
Fe22 Zr1 2.642042 1_555
Fe23 Si2 2.446245 1_555
Fe23 Fe29 2.465465 1_555
Fe23 Fe8 2.465465 1_555
Fe23 Fe37 2.565033 1_555
Fe23 Si7 2.570027 1_555
Fe23 Fe4 2.589307 1_556
Fe23 Zr2 2.621646 1_556
Fe24 Fe34 2.498622 1_555
Fe24 Fe41 2.498622 1_655
Fe24 Fe5 2.498622 1_555
Fe24 Fe9 2.565033 1_555
Fe24 Zr2 2.865194 1_555
Fe24 Zr0 2.865194 1_655
Fe25 Si6 2.417135 1_555
Fe25 Fe3 2.465468 1_555
Fe25 Fe9 2.504438 1_555
Fe25 Si2 2.624982 1_555
Fe26 Si0 2.417135 1_555
Fe26 Fe47 2.465468 1_555
Fe26 Si2 2.624982 1_555
Fe27 Si5 2.446250 1_566
Fe27 Fe29 2.504431 1_555
Fe27 Fe37 2.565026 1_555
Fe27 Si6 2.570038 1_566
Fe27 Fe45 2.589314 1_555
Fe27 Zr0 2.621639 1_555
Fe28 Si0 2.417135 1_655
Fe28 Fe33 2.465471 1_554
Fe28 Si5 2.624982 1_555
Fe29 Si7 2.417135 1_555
Fe29 Si5 2.624982 1_566
Fe30 Si3 2.417135 1_655
Fe30 Fe36 2.465468 1_655
Fe30 Si5 2.624982 1_555
Fe31 Si7 2.485628 1_545
Fe31 Si0 2.485628 1_656
Fe31 Fe33 2.589314 1_555
Fe31 Zr1 2.642042 1_656
Fe32 Si3 2.417135 1_565
Fe32 Si4 2.624982 1_555
Fe33 Si4 2.446250 1_656
Fe33 Fe43 2.465471 1_655
Fe33 Fe8 2.504431 1_555
Fe33 Fe42 2.565026 1_555
Fe33 Si0 2.570038 1_656
Fe33 Zr3 2.621639 1_555
Fe34 Si4 2.347214 1_655
Fe34 Zr2 2.544159 1_555
Fe35 Si7 2.417135 1_555
Fe35 Fe9 2.465465 1_555
Fe35 Si1 2.624982 1_665
Fe36 Si1 2.446255 1_555
Fe36 Fe43 2.504441 1_555
Fe36 Fe42 2.565029 1_455
Fe36 Fe37 2.565029 1_555
Fe36 Si3 2.570033 1_555
Fe36 Zr0 2.621636 1_555
Fe37 Fe6 2.498622 1_555
Fe37 Fe44 2.498622 1_555
Fe37 Fe38 2.498622 1_555
Fe37 Fe47 2.565029 1_556
Fe37 Zr0 2.865194 1_555
Fe37 Zr2 2.865194 1_556
Fe38 Si4 2.347214 1_556
Fe38 Fe42 2.498622 1_455
Fe38 Zr0 2.544159 1_555
Fe39 Si1 2.347214 1_655
Fe39 Fe42 2.498622 1_555
Fe39 Zr3 2.544159 1_555
Fe40 Si4 2.347214 1_555
Fe40 Zr3 2.544159 1_565
Fe41 Si1 2.347214 1_565
Fe41 Zr0 2.544159 1_555
Fe42 Fe9 2.565033 1_555
Fe42 Zr3 2.865194 1_555
Fe42 Zr0 2.865194 1_655
Fe43 Si0 2.417135 1_556
Fe43 Fe47 2.465468 1_556
Fe43 Si1 2.624982 1_555
Fe44 Si2 2.347214 1_555
Fe44 Zr0 2.544159 1_555
Fe45 Si6 2.485628 1_566
Fe45 Si7 2.485628 1_455
Fe45 Fe9 2.589307 1_455
Fe45 Zr1 2.642042 1_566
Fe46 Si6 2.485628 1_555
Fe46 Si0 2.485628 1_555
Fe46 Fe47 2.589304 1_555
Fe46 Zr1 2.642042 1_555
Fe47 Si4 2.446255 1_555
Fe47 Si0 2.570033 1_555
Fe47 Zr2 2.621636 1_555
Si0 Si4 2.455883 1_555
Si0 Zr1 2.760193 1_555
Si1 Si3 2.455883 1_555
Si2 Si7 2.455883 1_555
Si3 Zr1 2.760193 1_555
Si5 Si6 2.455883 1_555
Si6 Zr1 2.760193 1_555
Si7 Zr1 2.760193 1_666
B0 Si2 2.099425 1_555
B0 Fe0 2.325618 1_555
B0 Fe25 2.325618 1_555
B0 Fe26 2.325618 1_555
B0 Fe46 2.414457 1_555
B0 Fe18 2.414457 1_555
B0 Fe22 2.414457 1_555
B0 Zr1 2.609824 1_555
B1 Si5 2.099425 1_555
B1 Fe30 2.325618 1_555
B1 Fe28 2.325618 1_555
B1 Fe29 2.325618 1_544
B1 Fe4 2.414457 1_545
B1 Fe31 2.414457 1_554
B1 Fe18 2.414457 1_655
B1 Zr1 2.609824 1_655
B2 Si4 2.099425 1_555
B2 Fe21 2.325618 1_555
B2 Fe32 2.325618 1_555
B2 Fe8 2.325618 1_454
B2 Fe4 2.414457 1_455
B2 Fe45 2.414457 1_554
B2 Fe22 2.414457 1_565
B2 Zr1 2.609824 1_565
B3 Si1 2.099425 1_555
B3 Fe17 2.325618 1_555
B3 Fe43 2.325618 1_555
B3 Fe35 2.325618 1_445
B3 Fe31 2.414457 1_455
B3 Fe45 2.414457 1_545
B3 Fe46 2.414457 1_556
B3 Zr1 2.609824 1_556
