# generated using pymatgen
data_YbBi2IO4
_symmetry_space_group_name_H-M   'P 1'
_cell_length_a   3.94739400
_cell_length_b   3.94739400
_cell_length_c   9.74092800
_cell_angle_alpha   90.00000000
_cell_angle_beta   90.00000000
_cell_angle_gamma   90.00000000
_symmetry_Int_Tables_number   1
_chemical_formula_structural   YbBi2IO4
_chemical_formula_sum   'Yb1 Bi2 I1 O4'
_cell_volume   151.78235489
_cell_formula_units_Z   1
loop_
 _symmetry_equiv_pos_site_id
 _symmetry_equiv_pos_as_xyz
  1  'x, y, z'
loop_
 _atom_site_type_symbol
 _atom_site_label
 _atom_site_symmetry_multiplicity
 _atom_site_fract_x
 _atom_site_fract_y
 _atom_site_fract_z
 _atom_site_occupancy
  Yb  Yb0  1  0.00000000  0.00000000  0.00000000  1
  Bi  Bi0  1  0.50000000  0.50000000  0.75107400  1
  Bi  Bi1  1  0.50000000  0.50000000  0.24892600  1
  I  I0  1  0.00000000  0.00000000  0.50000000  1
  O  O0  1  0.50000000  0.00000000  0.85600300  1
  O  O1  1  0.00000000  0.50000000  0.14399700  1
  O  O2  1  0.50000000  0.00000000  0.14399700  1
  O  O3  1  0.00000000  0.50000000  0.85600300  1
loop_
_geom_bond_atom_site_label_1
_geom_bond_atom_site_label_2
_geom_bond_distance
_geom_bond_site_symmetry_2
Bi0 O0 2.222652 1_555
Bi0 O3 2.222652 1_655
Bi0 O0 2.222652 1_565
Bi0 O3 2.222652 1_555
Bi1 O2 2.222652 1_555
Bi1 O2 2.222652 1_565
Bi1 O1 2.222652 1_555
Bi1 O1 2.222652 1_655
O0 Yb0 2.421352 1_656
O0 Yb0 2.421352 1_556
O1 Yb0 2.421352 1_555
O1 Yb0 2.421352 1_565
O2 Yb0 2.421352 1_555
O2 Yb0 2.421352 1_655
O3 Yb0 2.421352 1_566
O3 Yb0 2.421352 1_556
