# generated using pymatgen
data_NaCaAlSi2O7
_symmetry_space_group_name_H-M   'P 1'
_cell_length_a   7.69734500
_cell_length_b   7.76927600
_cell_length_c   9.89091400
_cell_angle_alpha   90.00000000
_cell_angle_beta   90.00000000
_cell_angle_gamma   90.00000000
_symmetry_Int_Tables_number   1
_chemical_formula_structural   NaCaAlSi2O7
_chemical_formula_sum   'Na4 Ca4 Al4 Si8 O28'
_cell_volume   591.50432972
_cell_formula_units_Z   4
loop_
 _symmetry_equiv_pos_site_id
 _symmetry_equiv_pos_as_xyz
  1  'x, y, z'
loop_
 _atom_site_type_symbol
 _atom_site_label
 _atom_site_symmetry_multiplicity
 _atom_site_fract_x
 _atom_site_fract_y
 _atom_site_fract_z
 _atom_site_occupancy
  Na  Na0  1  0.60379600  0.33992700  0.00712900  1
  Na  Na1  1  0.39620400  0.83992700  0.49287100  1
  Na  Na2  1  0.89620400  0.66007300  0.50712900  1
  Na  Na3  1  0.10379600  0.16007300  0.99287100  1
  Ca  Ca0  1  0.87248300  0.62001400  0.05271700  1
  Ca  Ca1  1  0.12751700  0.12001400  0.44728300  1
  Ca  Ca2  1  0.62751700  0.37998600  0.55271700  1
  Ca  Ca3  1  0.37248300  0.87998600  0.94728300  1
  Al  Al0  1  0.75822700  0.00034000  0.99977400  1
  Al  Al1  1  0.74177300  0.99966000  0.49977400  1
  Al  Al2  1  0.24177300  0.50034000  0.50022600  1
  Al  Al3  1  0.25822700  0.49966000  0.00022600  1
  Si  Si0  1  0.38942100  0.14449500  0.68317300  1
  Si  Si1  1  0.09480000  0.84852400  0.68264600  1
  Si  Si2  1  0.90520000  0.34852400  0.81735400  1
  Si  Si3  1  0.61057900  0.64449500  0.81682700  1
  Si  Si4  1  0.11057900  0.85550500  0.18317300  1
  Si  Si5  1  0.40520000  0.15147600  0.18264600  1
  Si  Si6  1  0.88942100  0.35550500  0.31682700  1
  Si  Si7  1  0.59480000  0.65147600  0.31735400  1
  O  O0  1  0.25422500  0.00335900  0.13405900  1
  O  O1  1  0.92648700  0.91151700  0.10515000  1
  O  O2  1  0.57755400  0.07581100  0.09941700  1
  O  O3  1  0.33837700  0.32791400  0.10226400  1
  O  O4  1  0.17312700  0.67693600  0.10183700  1
  O  O5  1  0.89855700  0.35288400  0.15683900  1
  O  O6  1  0.59876600  0.65919200  0.15712600  1
  O  O7  1  0.40123400  0.15919200  0.34287400  1
  O  O8  1  0.10144300  0.85288400  0.34316100  1
  O  O9  1  0.66162300  0.82791400  0.39773600  1
  O  O10  1  0.42244600  0.57581100  0.40058300  1
  O  O11  1  0.07351300  0.41151700  0.39485000  1
  O  O12  1  0.82687300  0.17693600  0.39816300  1
  O  O13  1  0.74577500  0.50335900  0.36594100  1
  O  O14  1  0.24577500  0.99664100  0.63405900  1
  O  O15  1  0.57351300  0.08848300  0.60515000  1
  O  O16  1  0.32687300  0.32306400  0.60183700  1
  O  O17  1  0.16162300  0.67208600  0.60226400  1
  O  O18  1  0.92244600  0.92418900  0.59941700  1
  O  O19  1  0.90123400  0.34080800  0.65712600  1
  O  O20  1  0.60144300  0.64711600  0.65683900  1
  O  O21  1  0.09876600  0.84080800  0.84287400  1
  O  O22  1  0.39855700  0.14711600  0.84316100  1
  O  O23  1  0.67312700  0.82306400  0.89816300  1
  O  O24  1  0.42648700  0.58848300  0.89485000  1
  O  O25  1  0.07755400  0.42418900  0.90058300  1
  O  O26  1  0.83837700  0.17208600  0.89773600  1
  O  O27  1  0.75422500  0.49664100  0.86594100  1
loop_
_geom_bond_atom_site_label_1
_geom_bond_atom_site_label_2
_geom_bond_distance
_geom_bond_site_symmetry_2
Na0 O27 2.184796 1_554
Na0 O3 2.251239 1_555
Na0 O2 2.254926 1_555
Na0 O26 2.476190 1_554
Na0 O24 2.612499 1_554
Na0 O5 2.711201 1_555
Na0 O22 2.714770 1_554
Na0 O6 2.890547 1_555
Na1 O14 2.184796 1_555
Na1 O9 2.251239 1_555
Na1 O10 2.254926 1_555
Na1 O17 2.476190 1_555
Na1 O15 2.612499 1_565
Na1 O8 2.711201 1_555
Na1 O20 2.714770 1_555
Na1 O7 2.890547 1_565
Na2 O13 2.184796 1_555
Na2 O17 2.251239 1_655
Na2 O18 2.254926 1_555
Na2 O9 2.476190 1_555
Na2 O11 2.612499 1_655
Na2 O20 2.711201 1_555
Na2 O8 2.714770 1_655
Na2 O19 2.890547 1_555
Na3 O0 2.184796 1_556
Na3 O26 2.251239 1_455
Na3 O25 2.254926 1_555
Na3 O3 2.476190 1_556
Na3 O1 2.612499 1_446
Na3 O22 2.711201 1_555
Na3 O5 2.714770 1_456
Na3 O21 2.890547 1_545
Ca0 O27 2.271605 1_554
Ca0 O5 2.325556 1_555
Ca0 O1 2.360280 1_555
Ca0 O6 2.366035 1_555
Ca0 O4 2.405610 1_655
Ca0 O25 2.659067 1_654
Ca0 O23 2.679601 1_554
Ca1 O14 2.271605 1_545
Ca1 O8 2.325556 1_545
Ca1 O11 2.360280 1_555
Ca1 O7 2.366035 1_555
Ca1 O12 2.405610 1_455
Ca1 O18 2.659067 1_445
Ca1 O16 2.679601 1_555
Ca2 O13 2.271605 1_555
Ca2 O20 2.325556 1_555
Ca2 O15 2.360280 1_555
Ca2 O19 2.366035 1_555
Ca2 O16 2.405610 1_555
Ca2 O10 2.659067 1_555
Ca2 O12 2.679601 1_555
Ca3 O0 2.271605 1_566
Ca3 O22 2.325556 1_565
Ca3 O24 2.360280 1_555
Ca3 O21 2.366035 1_555
Ca3 O23 2.405610 1_555
Ca3 O2 2.659067 1_566
Ca3 O4 2.679601 1_556
Al0 O26 1.783163 1_555
Al0 O1 1.799991 1_546
Al0 O2 1.802552 1_556
Al0 O23 1.826508 1_545
Al1 O9 1.783163 1_555
Al1 O15 1.799991 1_565
Al1 O18 1.802552 1_555
Al1 O12 1.826508 1_565
Al2 O17 1.783163 1_555
Al2 O11 1.799991 1_555
Al2 O10 1.802552 1_555
Al2 O16 1.826508 1_555
Al3 O3 1.783163 1_555
Al3 O24 1.799991 1_554
Al3 O25 1.802552 1_554
Al3 O4 1.826508 1_555
O0 Si4 1.666762 1_545
O0 Si5 1.704609 1_555
O1 Si4 1.671188 1_655
O2 Si5 1.668325 1_555
O3 Si5 1.666059 1_555
O4 Si4 1.674438 1_555
O5 Si6 1.584120 1_555
O6 Si7 1.586229 1_555
O7 Si5 1.586229 1_555
O8 Si4 1.584120 1_555
O9 Si7 1.666059 1_555
O10 Si7 1.668325 1_555
O11 Si6 1.671188 1_455
O12 Si6 1.674438 1_555
O13 Si6 1.666762 1_555
O13 Si7 1.704609 1_555
O14 Si0 1.666762 1_565
O14 Si1 1.704609 1_555
O15 Si0 1.671188 1_555
O16 Si0 1.674438 1_555
O17 Si1 1.666059 1_555
O18 Si1 1.668325 1_655
O19 Si2 1.586229 1_555
O20 Si3 1.584120 1_555
O21 Si1 1.586229 1_555
O22 Si0 1.584120 1_555
O23 Si3 1.674438 1_555
O24 Si3 1.671188 1_555
O25 Si2 1.668325 1_455
O26 Si2 1.666059 1_555
O27 Si3 1.666762 1_555
O27 Si2 1.704609 1_555
