# generated using pymatgen
data_K2HfF6
_symmetry_space_group_name_H-M   'P 1'
_cell_length_a   6.47701600
_cell_length_b   13.30017700
_cell_length_c   13.54808264
_cell_angle_alpha   64.95416005
_cell_angle_beta   90.00000000
_cell_angle_gamma   90.00000000
_symmetry_Int_Tables_number   1
_chemical_formula_structural   K2HfF6
_chemical_formula_sum   'K12 Hf6 F36'
_cell_volume   1057.36211614
_cell_formula_units_Z   6
loop_
 _symmetry_equiv_pos_site_id
 _symmetry_equiv_pos_as_xyz
  1  'x, y, z'
loop_
 _atom_site_type_symbol
 _atom_site_label
 _atom_site_symmetry_multiplicity
 _atom_site_fract_x
 _atom_site_fract_y
 _atom_site_fract_z
 _atom_site_occupancy
  K  K0  1  0.50000000  0.79548700  0.21513100  1
  K  K1  1  0.50000000  0.42722300  0.28353000  1
  K  K2  1  0.00000000  0.67202400  0.50299800  1
  K  K3  1  0.00000000  0.81771200  0.11368400  1
  K  K4  1  0.00000000  0.96018500  0.53240800  1
  K  K5  1  0.50000000  0.04004700  0.20759000  1
  K  K6  1  0.50000000  0.93165200  0.74046200  1
  K  K7  1  0.50000000  0.21658800  0.76698100  1
  K  K8  1  0.00000000  0.09631600  0.02329800  1
  K  K9  1  0.00000000  0.36088500  0.51987500  1
  K  K10  1  0.00000000  0.56575900  0.89477400  1
  K  K11  1  0.50000000  0.58918900  0.74237800  1
  Hf  Hf0  1  0.50000000  0.34271900  0.01057800  1
  Hf  Hf1  1  0.00000000  0.25537500  0.24384000  1
  Hf  Hf2  1  0.50000000  0.83903100  0.49729100  1
  Hf  Hf3  1  0.50000000  0.50043200  0.50907100  1
  Hf  Hf4  1  0.00000000  0.07701800  0.74276700  1
  Hf  Hf5  1  0.50000000  0.66638500  0.00242300  1
  F  F0  1  0.28610200  0.60319300  0.11640900  1
  F  F1  1  0.27716100  0.28754300  0.13294700  1
  F  F2  1  0.72283900  0.28754300  0.13294700  1
  F  F3  1  0.71389800  0.60319300  0.11640900  1
  F  F4  1  0.72370300  0.87729600  0.38789700  1
  F  F5  1  0.74055000  0.95656300  0.12252200  1
  F  F6  1  0.71255000  0.52534800  0.39474400  1
  F  F7  1  0.00000000  0.11725100  0.22451000  1
  F  F8  1  0.00000000  0.71798900  0.30773900  1
  F  F9  1  0.00000000  0.41583400  0.17991000  1
  F  F10  1  0.25945000  0.95656300  0.12252200  1
  F  F11  1  0.28745000  0.52534800  0.39474400  1
  F  F12  1  0.22030700  0.12279200  0.62683000  1
  F  F13  1  0.27629700  0.87729600  0.38789700  1
  F  F14  1  0.28873100  0.79015500  0.61605100  1
  F  F15  1  0.21347200  0.22881600  0.35278800  1
  F  F16  1  0.50000000  0.98663900  0.49492400  1
  F  F17  1  0.50000000  0.66830400  0.50236900  1
  F  F18  1  0.50000000  0.34406700  0.53345800  1
  F  F19  1  0.78652800  0.22881600  0.35278800  1
  F  F20  1  0.71126900  0.79015500  0.61605100  1
  F  F21  1  0.77969300  0.12279200  0.62683000  1
  F  F22  1  0.71857100  0.40091300  0.90300000  1
  F  F23  1  0.77039800  0.03943800  0.85157500  1
  F  F24  1  0.71965100  0.46451200  0.62023300  1
  F  F25  1  0.00000000  0.23156100  0.73378400  1
  F  F26  1  0.00000000  0.92920900  0.73897000  1
  F  F27  1  0.00000000  0.59927700  0.70826100  1
  F  F28  1  0.22960200  0.03943800  0.85157500  1
  F  F29  1  0.28034900  0.46451200  0.62023300  1
  F  F30  1  0.28142900  0.40091300  0.90300000  1
  F  F31  1  0.29662300  0.70051800  0.88124500  1
  F  F32  1  0.50000000  0.49473700  0.01280000  1
  F  F33  1  0.50000000  0.20121000  0.00017000  1
  F  F34  1  0.50000000  0.81235200  0.00157300  1
  F  F35  1  0.70337700  0.70051800  0.88124500  1
loop_
_geom_bond_atom_site_label_1
_geom_bond_atom_site_label_2
_geom_bond_distance
_geom_bond_site_symmetry_2
F0 Hf5 1.977796 1_555
F0 K1 2.834920 1_555
F1 Hf0 2.083305 1_555
F1 Hf1 2.262441 1_555
F2 Hf0 2.083305 1_555
F2 Hf1 2.262441 1_655
F3 Hf5 1.977796 1_555
F3 K1 2.834920 1_555
F4 Hf2 1.978971 1_555
F4 K5 2.876670 1_565
F4 K4 3.174685 1_655
F5 K8 2.443437 1_665
F5 K5 2.464176 1_565
F5 K0 2.513064 1_555
F5 K3 2.536922 1_655
F6 Hf3 1.992392 1_555
F6 K1 2.744758 1_555
F6 K9 2.825827 1_655
F7 Hf1 1.962337 1_555
F7 K8 2.855078 1_555
F8 K3 2.391394 1_555
F8 K2 2.450002 1_555
F9 Hf1 1.933820 1_555
F10 K8 2.443437 1_565
F10 K5 2.464176 1_565
F10 K0 2.513064 1_555
F10 K3 2.536922 1_555
F11 Hf3 1.992392 1_555
F11 K1 2.744758 1_555
F11 K9 2.825827 1_555
F12 Hf4 2.016010 1_555
F12 K6 2.966637 1_545
F12 K9 3.206020 1_555
F12 K4 3.269910 1_545
F13 Hf2 1.978971 1_555
F13 K5 2.876670 1_565
F13 K4 3.174685 1_555
F14 Hf2 1.999572 1_555
F14 K4 2.779528 1_555
F14 K11 2.841256 1_555
F14 K6 3.307708 1_555
F15 Hf1 1.942616 1_555
F15 K1 3.031776 1_555
F16 Hf2 1.949853 1_555
F16 K6 3.088861 1_555
F16 K4 3.273888 1_555
F16 K4 3.273888 1_655
F17 Hf3 2.195829 1_555
F17 Hf2 2.242441 1_555
F17 K11 2.963705 1_555
F18 Hf3 1.962770 1_555
F18 K7 2.888335 1_555
F18 K1 3.085082 1_555
F18 K9 3.246072 1_655
F18 K9 3.246072 1_555
F19 Hf1 1.942616 1_655
F19 K1 3.031776 1_555
F20 Hf2 1.999572 1_555
F20 K4 2.779528 1_655
F20 K11 2.841256 1_555
F20 K6 3.307708 1_555
F21 Hf4 2.016010 1_655
F21 K6 2.966637 1_545
F21 K9 3.206020 1_655
F21 K4 3.269910 1_645
F22 Hf0 1.942253 1_556
F22 K10 2.816946 1_655
F22 K11 2.897657 1_555
F23 Hf4 2.002658 1_655
F23 K7 2.765108 1_555
F23 K6 3.035748 1_545
F23 K8 3.112343 1_656
F24 Hf3 1.977678 1_555
F24 K9 2.938051 1_655
F24 K11 3.136173 1_555
F25 Hf4 2.006958 1_555
F25 K9 2.671465 1_555
F26 Hf4 1.988210 1_565
F26 K4 2.650519 1_555
F26 K6 3.238820 1_555
F26 K6 3.238820 1_455
F27 K10 2.372794 1_555
F27 K2 2.528143 1_555
F28 Hf4 2.002658 1_555
F28 K7 2.765108 1_555
F28 K6 3.035748 1_545
F28 K8 3.112343 1_556
F29 Hf3 1.977678 1_555
F29 K9 2.938051 1_555
F29 K11 3.136173 1_555
F30 Hf0 1.942253 1_556
F30 K10 2.816946 1_555
F30 K11 2.897657 1_555
F31 Hf5 2.001386 1_556
F31 K10 2.580500 1_555
F31 K11 3.134634 1_555
F31 K6 3.139894 1_555
F32 Hf0 2.034793 1_555
F32 Hf5 2.227077 1_555
F33 Hf0 1.945987 1_555
F33 K5 2.718720 1_555
F33 K7 3.078260 1_554
F34 Hf5 1.936540 1_555
F34 K0 2.805711 1_555
F34 K6 3.206154 1_554
F35 Hf5 2.001386 1_556
F35 K10 2.580500 1_655
F35 K11 3.134634 1_555
F35 K6 3.139894 1_555
