# generated using pymatgen
data_CsCoH18N6(ClO2)4
_symmetry_space_group_name_H-M   'P 1'
_cell_length_a   10.41388640
_cell_length_b   10.41388640
_cell_length_c   10.41388560
_cell_angle_alpha   44.35201066
_cell_angle_beta   44.35201066
_cell_angle_gamma   44.35201315
_symmetry_Int_Tables_number   1
_chemical_formula_structural   CsCoH18N6(ClO2)4
_chemical_formula_sum   'Cs1 Co1 H18 N6 Cl4 O8'
_cell_volume   501.65813255
_cell_formula_units_Z   1
loop_
 _symmetry_equiv_pos_site_id
 _symmetry_equiv_pos_as_xyz
  1  'x, y, z'
loop_
 _atom_site_type_symbol
 _atom_site_label
 _atom_site_symmetry_multiplicity
 _atom_site_fract_x
 _atom_site_fract_y
 _atom_site_fract_z
 _atom_site_occupancy
  Cs  Cs0  1  0.50233200  0.50233200  0.50233200  1
  Co  Co0  1  0.97645300  0.97645300  0.97645300  1
  H  H0  1  0.64436700  0.98194000  0.18821800  1
  H  H1  1  0.98194000  0.64436700  0.18821800  1
  H  H2  1  0.98194000  0.18821800  0.64436700  1
  H  H3  1  0.18821800  0.98194000  0.64436700  1
  H  H4  1  0.64436700  0.18821800  0.98194000  1
  H  H5  1  0.18821800  0.64436700  0.98194000  1
  H  H6  1  0.79633100  0.79633100  0.50233400  1
  H  H7  1  0.79261500  0.01005600  0.29552900  1
  H  H8  1  0.01005600  0.79261500  0.29552900  1
  H  H9  1  0.91841400  0.91841400  0.41172300  1
  H  H10  1  0.79633100  0.50233400  0.79633100  1
  H  H11  1  0.50233400  0.79633100  0.79633100  1
  H  H12  1  0.29552900  0.01005600  0.79261500  1
  H  H13  1  0.01005600  0.29552900  0.79261500  1
  H  H14  1  0.79261500  0.29552900  0.01005600  1
  H  H15  1  0.29552900  0.79261500  0.01005600  1
  H  H16  1  0.41172300  0.91841400  0.91841400  1
  H  H17  1  0.91841400  0.41172300  0.91841400  1
  N  N0  1  0.70818700  0.08340800  0.08340800  1
  N  N1  1  0.08340800  0.70818700  0.08340800  1
  N  N2  1  0.08340800  0.08340800  0.70818700  1
  N  N3  1  0.88180300  0.88180300  0.37493100  1
  N  N4  1  0.37493100  0.88180300  0.88180300  1
  N  N5  1  0.88180300  0.37493100  0.88180300  1
  Cl  Cl0  1  0.18618200  0.18618200  0.18618200  1
  Cl  Cl1  1  0.38316100  0.38316100  0.38316100  1
  Cl  Cl2  1  0.63912000  0.63912000  0.63912000  1
  Cl  Cl3  1  0.80937800  0.80937800  0.80937800  1
  O  O0  1  0.13353600  0.13353600  0.13353600  1
  O  O1  1  0.68936300  0.68936300  0.99350200  1
  O  O2  1  0.99350200  0.68936300  0.68936300  1
  O  O3  1  0.68936300  0.99350200  0.68936300  1
  O  O4  1  0.30481300  0.00023000  0.30481300  1
  O  O5  1  0.00023000  0.30481300  0.30481300  1
  O  O6  1  0.30481300  0.30481300  0.00023000  1
  O  O7  1  0.86061400  0.86061400  0.86061400  1
loop_
_geom_bond_atom_site_label_1
_geom_bond_atom_site_label_2
_geom_bond_distance
_geom_bond_site_symmetry_2
Cs0 O6 3.300338 1_556
Cs0 O5 3.300338 1_655
Cs0 O4 3.300338 1_565
Cs0 O1 3.401623 1_554
Cs0 O2 3.401624 1_455
Cs0 O3 3.401624 1_545
Co0 N2 1.777638 1_665
Co0 N1 1.777638 1_656
Co0 N0 1.777638 1_566
H0 N0 1.033012 1_565
H1 N1 1.033012 1_655
H2 N2 1.033012 1_655
H3 N2 1.033012 1_565
H4 N0 1.033012 1_556
H5 N1 1.033012 1_556
H6 N3 1.048856 1_555
H7 N3 1.036872 1_545
H8 N3 1.036872 1_455
H9 N3 1.031131 1_555
H10 N5 1.048856 1_555
H11 N4 1.048856 1_555
H12 N4 1.036872 1_545
H13 N5 1.036872 1_455
H14 N5 1.036872 1_554
H15 N4 1.036872 1_554
H16 N4 1.031131 1_555
H17 N5 1.031131 1_555
Cl0 O6 1.463714 1_555
Cl0 O5 1.463714 1_555
Cl0 O4 1.463714 1_555
Cl0 O0 1.480309 1_555
Cl1 Cs0 3.350870 1_555
Cl2 Cs0 3.846228 1_555
Cl3 O7 1.440662 1_555
Cl3 O1 1.476543 1_555
Cl3 O3 1.476543 1_555
Cl3 O2 1.476543 1_555
