# generated using pymatgen
data_Mn5V2Pb3O16
_symmetry_space_group_name_H-M   'P 1'
_cell_length_a   5.84865988
_cell_length_b   5.84865988
_cell_length_c   11.44968500
_cell_angle_alpha   90.00000000
_cell_angle_beta   90.00000000
_cell_angle_gamma   119.99999865
_symmetry_Int_Tables_number   1
_chemical_formula_structural   Mn5V2Pb3O16
_chemical_formula_sum   'Mn5 V2 Pb3 O16'
_cell_volume   339.18521176
_cell_formula_units_Z   1
loop_
 _symmetry_equiv_pos_site_id
 _symmetry_equiv_pos_as_xyz
  1  'x, y, z'
loop_
 _atom_site_type_symbol
 _atom_site_label
 _atom_site_symmetry_multiplicity
 _atom_site_fract_x
 _atom_site_fract_y
 _atom_site_fract_z
 _atom_site_occupancy
  Mn  Mn0  1  0.00000000  0.50000000  0.50000000  1
  Mn  Mn1  1  0.00000000  0.00000000  0.31021500  1
  Mn  Mn2  1  0.00000000  0.00000000  0.68978500  1
  Mn  Mn3  1  0.50000000  0.50000000  0.50000000  1
  Mn  Mn4  1  0.50000000  0.00000000  0.50000000  1
  V  V0  1  0.33333300  0.66666700  0.85938800  1
  V  V1  1  0.66666700  0.33333300  0.14061200  1
  Pb  Pb0  1  0.33333300  0.66666700  0.23525600  1
  Pb  Pb1  1  0.66666700  0.33333300  0.76474400  1
  Pb  Pb2  1  0.00000000  0.00000000  0.00000000  1
  O  O0  1  0.17790300  0.35580600  0.40574900  1
  O  O1  1  0.66666700  0.33333300  0.99305500  1
  O  O2  1  0.16549800  0.83450200  0.81516400  1
  O  O3  1  0.35580600  0.17790300  0.59425100  1
  O  O4  1  0.33333300  0.66666700  0.58482800  1
  O  O5  1  0.16549800  0.33099500  0.81516400  1
  O  O6  1  0.82209700  0.64419400  0.59425100  1
  O  O7  1  0.64419400  0.82209700  0.40574900  1
  O  O8  1  0.82209700  0.17790300  0.59425100  1
  O  O9  1  0.33333300  0.66666700  0.00694500  1
  O  O10  1  0.33099500  0.16549800  0.18483600  1
  O  O11  1  0.17790300  0.82209700  0.40574900  1
  O  O12  1  0.83450200  0.16549800  0.18483600  1
  O  O13  1  0.83450200  0.66900500  0.18483600  1
  O  O14  1  0.66900500  0.83450200  0.81516400  1
  O  O15  1  0.66666700  0.33333300  0.41517200  1
loop_
_geom_bond_atom_site_label_1
_geom_bond_atom_site_label_2
_geom_bond_distance
_geom_bond_site_symmetry_2
Mn0 O4 1.947793 1_555
Mn0 O15 1.947793 1_455
Mn0 O6 1.958545 1_455
Mn0 O0 1.958545 1_555
Mn0 O8 1.958545 1_455
Mn0 O11 1.958545 1_555
Mn1 O11 2.108164 1_545
Mn1 O0 2.108164 1_555
Mn1 O7 2.108164 1_445
Mn1 O10 2.207152 1_555
Mn1 O13 2.207152 1_445
Mn1 O12 2.207156 1_455
Mn2 O8 2.108164 1_455
Mn2 O3 2.108164 1_555
Mn2 O6 2.108164 1_445
Mn2 O5 2.207152 1_555
Mn2 O14 2.207152 1_445
Mn2 O2 2.207156 1_545
Mn3 O4 1.947797 1_555
Mn3 O15 1.947797 1_555
Mn3 O3 1.958545 1_555
Mn3 O6 1.958545 1_555
Mn3 O0 1.958545 1_555
Mn3 O7 1.958545 1_555
Mn4 O15 1.947793 1_555
Mn4 O4 1.947793 1_545
Mn4 O3 1.958545 1_555
Mn4 O7 1.958545 1_545
Mn4 O8 1.958545 1_555
Mn4 O11 1.958545 1_545
O0 Pb0 2.507954 1_555
O1 V1 1.689481 1_556
O1 Pb1 2.614089 1_555
O2 V0 1.773997 1_555
O2 Pb2 2.699911 1_566
O3 Pb1 2.507954 1_555
O5 V0 1.774007 1_555
O5 Pb2 2.699907 1_556
O6 Pb1 2.507954 1_555
O7 Pb0 2.507954 1_555
O8 Pb1 2.507950 1_555
O9 V0 1.689481 1_554
O9 Pb0 2.614089 1_555
O10 V1 1.774007 1_555
O10 Pb2 2.699907 1_555
O11 Pb0 2.507950 1_555
O12 V1 1.773997 1_555
O12 Pb2 2.699911 1_655
O13 V1 1.774007 1_555
O13 Pb2 2.699907 1_665
O14 V0 1.774007 1_555
O14 Pb2 2.699907 1_666
