# generated using pymatgen
data_Na2CO5
_symmetry_space_group_name_H-M   'P 1'
_cell_length_a   5.30925809
_cell_length_b   5.30925809
_cell_length_c   6.13626216
_cell_angle_alpha   74.31810944
_cell_angle_beta   74.31810944
_cell_angle_gamma   58.77137024
_symmetry_Int_Tables_number   1
_chemical_formula_structural   Na2CO5
_chemical_formula_sum   'Na2 C1 O5'
_cell_volume   140.61131631
_cell_formula_units_Z   1
loop_
 _symmetry_equiv_pos_site_id
 _symmetry_equiv_pos_as_xyz
  1  'x, y, z'
loop_
 _atom_site_type_symbol
 _atom_site_label
 _atom_site_symmetry_multiplicity
 _atom_site_fract_x
 _atom_site_fract_y
 _atom_site_fract_z
 _atom_site_occupancy
  Na  Na0  1  0.95416100  0.95416100  0.00528800  1
  Na  Na1  1  0.02930100  0.02930100  0.52674900  1
  C  C0  1  0.66034100  0.66034100  0.76886200  1
  O  O0  1  0.49160900  0.24641100  0.29690900  1
  O  O1  1  0.24641100  0.49160900  0.29690900  1
  O  O2  1  0.80994100  0.38197600  0.75047000  1
  O  O3  1  0.38197600  0.80994100  0.75047000  1
  O  O4  1  0.79226100  0.79226100  0.79834400  1
loop_
_geom_bond_atom_site_label_1
_geom_bond_atom_site_label_2
_geom_bond_distance
_geom_bond_site_symmetry_2
Na0 O4 2.244225 1_554
Na0 O3 2.261479 1_654
Na0 O2 2.261479 1_564
Na0 O0 2.610538 1_565
Na0 O1 2.610538 1_655
Na1 O2 2.238551 1_455
Na1 O3 2.238551 1_545
Na1 O4 2.306465 1_445
C0 O3 1.285437 1_555
C0 O2 1.285437 1_555
C0 O4 1.288215 1_555
O0 O1 1.277569 1_555
