# generated using pymatgen
data_K3CaP2HO8
_symmetry_space_group_name_H-M   'P 1'
_cell_length_a   5.77567645
_cell_length_b   5.77567645
_cell_length_c   7.52155213
_cell_angle_alpha   86.00061077
_cell_angle_beta   86.00061077
_cell_angle_gamma   60.41966383
_symmetry_Int_Tables_number   1
_chemical_formula_structural   K3CaP2HO8
_chemical_formula_sum   'K3 Ca1 P2 H1 O8'
_cell_volume   217.49327937
_cell_formula_units_Z   1
loop_
 _symmetry_equiv_pos_site_id
 _symmetry_equiv_pos_as_xyz
  1  'x, y, z'
loop_
 _atom_site_type_symbol
 _atom_site_label
 _atom_site_symmetry_multiplicity
 _atom_site_fract_x
 _atom_site_fract_y
 _atom_site_fract_z
 _atom_site_occupancy
  K  K0  1  0.00000000  0.00000000  0.50000000  1
  K  K1  1  0.33030700  0.33030700  0.19049300  1
  K  K2  1  0.66969300  0.66969300  0.80950700  1
  Ca  Ca0  1  0.00000000  0.00000000  0.00000000  1
  P  P0  1  0.34024900  0.34024900  0.74861400  1
  P  P1  1  0.65975100  0.65975100  0.25138600  1
  H  H0  1  0.50000000  0.50000000  0.50000000  1
  O  O0  1  0.18518100  0.18518100  0.78091100  1
  O  O1  1  0.81481900  0.81481900  0.21908900  1
  O  O2  1  0.37919000  0.37919000  0.54022300  1
  O  O3  1  0.62081000  0.62081000  0.45977700  1
  O  O4  1  0.18222700  0.62044200  0.82827200  1
  O  O5  1  0.62044200  0.18222700  0.82827200  1
  O  O6  1  0.81777300  0.37955800  0.17172800  1
  O  O7  1  0.37955800  0.81777300  0.17172800  1
loop_
_geom_bond_atom_site_label_1
_geom_bond_atom_site_label_2
_geom_bond_distance
_geom_bond_site_symmetry_2
K0 O0 2.917531 1_555
K0 O1 2.917531 1_445
K0 O6 3.056066 1_455
K0 O7 3.056066 1_545
K0 O4 3.056066 1_545
K0 O5 3.056066 1_455
K0 O2 3.151616 1_455
K0 O3 3.151616 1_545
K0 O3 3.151616 1_455
K0 O2 3.151616 1_545
K1 O2 2.713837 1_555
K1 O6 2.843436 1_455
K1 O7 2.843436 1_545
K1 O1 2.917264 1_545
K1 O1 2.917264 1_455
K1 O7 2.959263 1_555
K1 O6 2.959263 1_555
K1 O4 3.038990 1_554
K1 O5 3.038990 1_554
K2 O3 2.713837 1_555
K2 O5 2.843436 1_565
K2 O4 2.843436 1_655
K2 O0 2.917264 1_565
K2 O0 2.917264 1_655
K2 O5 2.959263 1_555
K2 O4 2.959263 1_555
K2 O7 3.038990 1_556
K2 O6 3.038990 1_556
Ca0 O4 2.347188 1_544
Ca0 O5 2.347188 1_454
Ca0 O7 2.347188 1_545
Ca0 O6 2.347188 1_455
Ca0 O0 2.375094 1_554
Ca0 O1 2.375094 1_445
H0 O3 1.219447 1_555
H0 O2 1.219447 1_555
H0 K0 2.906137 1_655
H0 K0 2.906137 1_565
O0 P0 1.547429 1_555
O1 P1 1.547429 1_555
O2 P0 1.584165 1_555
O3 P1 1.584165 1_555
O4 P0 1.552944 1_555
O5 P0 1.552944 1_555
O6 P1 1.552944 1_555
O7 P1 1.552944 1_555
