# generated using pymatgen
data_Nd8AlSi3(NO5)3
_symmetry_space_group_name_H-M   'P 1'
_cell_length_a   9.13550800
_cell_length_b   10.23953079
_cell_length_c   11.13280937
_cell_angle_alpha   112.96095276
_cell_angle_beta   89.84490279
_cell_angle_gamma   91.94919320
_symmetry_Int_Tables_number   1
_chemical_formula_structural   Nd8AlSi3(NO5)3
_chemical_formula_sum   'Nd16 Al2 Si6 N6 O30'
_cell_volume   958.27279319
_cell_formula_units_Z   2
loop_
 _symmetry_equiv_pos_site_id
 _symmetry_equiv_pos_as_xyz
  1  'x, y, z'
loop_
 _atom_site_type_symbol
 _atom_site_label
 _atom_site_symmetry_multiplicity
 _atom_site_fract_x
 _atom_site_fract_y
 _atom_site_fract_z
 _atom_site_occupancy
  Nd  Nd0  1  0.69762800  0.93502500  0.11062100  1
  Nd  Nd1  1  0.87408100  0.96484100  0.63483100  1
  Nd  Nd2  1  0.42460000  0.83972200  0.34642100  1
  Nd  Nd3  1  0.89358000  0.58985800  0.02498500  1
  Nd  Nd4  1  0.06552200  0.70884400  0.80304700  1
  Nd  Nd5  1  0.57897500  0.68491600  0.56545200  1
  Nd  Nd6  1  0.05280100  0.59933600  0.41846300  1
  Nd  Nd7  1  0.60234900  0.41835800  0.15672700  1
  Nd  Nd8  1  0.37186200  0.67772500  0.00603800  1
  Nd  Nd9  1  0.93675900  0.32916500  0.59578700  1
  Nd  Nd10  1  0.42892000  0.25764100  0.44880200  1
  Nd  Nd11  1  0.98435500  0.20856500  0.13601100  1
  Nd  Nd12  1  0.21063200  0.33986100  0.90462000  1
  Nd  Nd13  1  0.58134600  0.34913700  0.77767500  1
  Nd  Nd14  1  0.05241700  0.96092600  0.30783800  1
  Nd  Nd15  1  0.44788100  0.05826900  0.86309500  1
  Al  Al0  1  0.24257000  0.99073500  0.08575400  1
  Al  Al1  1  0.74826800  0.74643900  0.35272100  1
  Si  Si0  1  0.21967000  0.87708500  0.59062400  1
  Si  Si1  1  0.30438100  0.31642500  0.18992800  1
  Si  Si2  1  0.72783400  0.64960000  0.80872900  1
  Si  Si3  1  0.22246300  0.17915400  0.63314700  1
  Si  Si4  1  0.69485300  0.06685200  0.45555700  1
  Si  Si5  1  0.77876100  0.18514000  0.93112500  1
  N  N0  1  0.65147400  0.91151100  0.47031200  1
  N  N1  1  0.84321700  0.76210400  0.93727600  1
  N  N2  1  0.24432600  0.16749800  0.05580600  1
  N  N3  1  0.33240000  0.32736100  0.70777100  1
  N  N4  1  0.30208500  0.04027500  0.65778500  1
  N  N5  1  0.68236100  0.10620700  0.77890000  1
  O  O0  1  0.86029400  0.77942700  0.23280100  1
  O  O1  1  0.59979000  0.07264400  0.33134900  1
  O  O2  1  0.66477400  0.94902100  0.75749100  1
  O  O3  1  0.08446400  0.84986200  0.68003400  1
  O  O4  1  0.13370500  0.84924000  0.44826100  1
  O  O5  1  0.33543400  0.74769600  0.54396900  1
  O  O6  1  0.54500400  0.77665100  0.15661400  1
  O  O7  1  0.58609900  0.63356500  0.32813500  1
  O  O8  1  0.41236500  0.90389700  0.98304500  1
  O  O9  1  0.34551200  0.81128200  0.85046700  1
  O  O10  1  0.83767200  0.72284700  0.48868900  1
  O  O11  1  0.33162300  0.50137400  0.12082300  1
  O  O12  1  0.82370200  0.48811900  0.77542900  1
  O  O13  1  0.87221700  0.52737000  0.22832400  1
  O  O14  1  0.26495600  0.63710400  0.20876700  1
  O  O15  1  0.83306800  0.40131000  0.26181900  1
  O  O16  1  0.04455800  0.52746400  0.58759600  1
  O  O17  1  0.52751800  0.46425400  0.52026700  1
  O  O18  1  0.12288500  0.56430100  0.93273700  1
  O  O19  1  0.15561100  0.38295700  0.27529600  1
  O  O20  1  0.57944100  0.59908200  0.88155600  1
  O  O21  1  0.17834200  0.16785200  0.48434800  1
  O  O22  1  0.75621100  0.36267500  0.96642600  1
  O  O23  1  0.66703200  0.14675500  0.03959400  1
  O  O24  1  0.45298400  0.30769200  0.94316000  1
  O  O25  1  0.66022300  0.22872800  0.56565300  1
  O  O26  1  0.87837900  0.07748300  0.47428000  1
  O  O27  1  0.89362500  0.07300600  0.22444500  1
  O  O28  1  0.29862900  0.99115400  0.24207300  1
  O  O29  1  0.05551400  0.20662000  0.71070100  1
loop_
_geom_bond_atom_site_label_1
_geom_bond_atom_site_label_2
_geom_bond_distance
_geom_bond_site_symmetry_2
Nd0 O27 2.291566 1_565
Nd0 O6 2.307864 1_555
Nd0 O1 2.489007 1_565
Nd0 O23 2.604537 1_565
Nd0 O0 2.908564 1_555
Nd0 O8 2.918986 1_554
Nd1 O2 2.384234 1_555
Nd1 O10 2.387290 1_555
Nd1 O3 2.440223 1_655
Nd1 O26 2.476208 1_565
Nd1 O29 2.772496 1_665
Nd2 O6 2.250138 1_555
Nd2 O14 2.470945 1_555
Nd2 O7 2.559149 1_555
Nd2 O28 2.571426 1_555
Nd2 O5 2.818368 1_555
Nd2 O4 2.876141 1_555
Nd2 O1 2.885999 1_565
Nd3 O18 2.308115 1_654
Nd3 O0 2.396975 1_555
Nd3 O22 2.456404 1_554
Nd3 O13 2.586733 1_555
Nd3 O12 2.630158 1_554
Nd4 O3 2.348402 1_555
Nd4 O16 2.396220 1_555
Nd4 O18 2.504770 1_555
Nd4 O9 2.704494 1_555
Nd5 O17 2.149767 1_555
Nd5 O5 2.374999 1_555
Nd5 O7 2.485647 1_555
Nd5 O10 2.579163 1_555
Nd5 O2 2.802219 1_555
Nd6 O16 2.273606 1_555
Nd6 O10 2.337192 1_455
Nd6 O19 2.389503 1_555
Nd6 O4 2.532717 1_555
Nd6 O13 2.542554 1_455
Nd6 O15 2.857520 1_455
Nd6 O14 3.159869 1_555
Nd7 O7 2.293317 1_555
Nd7 O22 2.425937 1_554
Nd7 O15 2.457554 1_555
Nd7 O24 2.570858 1_554
Nd7 O23 2.657483 1_555
Nd7 O13 2.662457 1_555
Nd7 O11 2.722613 1_555
Nd7 Si1 2.956022 1_555
Nd8 O6 2.217793 1_555
Nd8 O20 2.320358 1_554
Nd8 O8 2.443260 1_554
Nd8 O18 2.505831 1_554
Nd8 O11 2.604132 1_555
Nd8 O9 2.607757 1_554
Nd8 O14 2.629350 1_555
Nd9 O16 2.260304 1_655
Nd9 O12 2.297624 1_555
Nd9 O29 2.395984 1_655
Nd9 O26 2.438501 1_555
Nd9 O25 2.666655 1_555
Nd9 O21 2.787941 1_655
Nd10 O17 2.116879 1_555
Nd10 O1 2.447924 1_555
Nd10 O21 2.525454 1_555
Nd10 O25 2.569616 1_555
Nd10 O28 3.008905 1_545
Nd10 Si1 3.373487 1_555
Nd11 O27 2.136945 1_555
Nd11 O19 2.388217 1_655
Nd11 O15 2.405283 1_555
Nd12 O24 2.315048 1_555
Nd12 O18 2.363220 1_555
Nd12 O29 2.473302 1_555
Nd12 O11 2.556275 1_556
Nd13 O25 2.321962 1_555
Nd13 O24 2.348142 1_555
Nd13 O20 2.362526 1_555
Nd13 O12 2.596341 1_555
Nd13 O22 2.600497 1_555
Nd14 O27 2.288061 1_465
Nd14 O4 2.400448 1_555
Nd14 O26 2.402806 1_465
Nd14 O0 2.409776 1_455
Nd14 O28 2.410726 1_555
Nd14 O21 2.504435 1_565
Nd15 O24 2.352756 1_555
Nd15 O2 2.381533 1_545
Nd15 O8 2.448830 1_545
Nd15 O9 2.617779 1_545
Nd15 O23 2.683092 1_556
Al0 O28 1.813748 1_555
Al0 O8 1.948120 1_554
Al0 N2 1.963727 1_565
Al1 O7 1.801240 1_555
Al1 O0 1.806861 1_555
Al1 O10 1.822678 1_555
Al1 N0 1.929169 1_555
Al1 O13 2.443859 1_555
N0 Si4 1.695499 1_565
N0 Nd2 2.420580 1_555
N0 Nd1 2.636803 1_555
N0 Nd5 2.958549 1_555
N1 Si2 1.767908 1_555
N1 Nd3 2.382672 1_556
N1 Nd4 2.465359 1_655
N1 Nd0 2.471567 1_556
N2 Si1 1.739818 1_555
N2 Nd11 2.525488 1_455
N2 Nd15 2.749458 1_554
N2 Nd12 2.898277 1_554
N3 Si3 1.708528 1_555
N3 Nd13 2.380601 1_555
N3 Nd12 2.415384 1_555
N3 Nd10 2.832379 1_555
N4 Si0 1.691388 1_545
N4 Si3 1.732726 1_555
N4 Nd15 2.589111 1_555
N5 O2 1.535078 1_545
N5 Si5 1.786559 1_555
N5 Nd15 2.446358 1_555
N5 Nd1 2.466024 1_545
N5 Nd13 2.687393 1_555
O1 Si4 1.656442 1_555
O3 Si0 1.667499 1_555
O4 Si0 1.687866 1_555
O5 Si0 1.642856 1_555
O8 O9 1.524542 1_555
O11 O14 1.501260 1_555
O11 Si1 2.311684 1_555
O12 Si2 1.804714 1_555
O13 O15 1.508815 1_555
O19 Si1 1.662922 1_555
O20 Si2 1.742487 1_555
O21 Si3 1.664598 1_555
O22 Si5 1.723135 1_555
O23 Si5 1.729413 1_554
O25 Si4 1.672810 1_555
O26 Si4 1.684657 1_555
O29 Si3 1.727214 1_555
