# generated using pymatgen
data_Yb2Pt2Pb
_symmetry_space_group_name_H-M   'P 1'
_cell_length_a   7.72471600
_cell_length_b   7.72471600
_cell_length_c   7.52375500
_cell_angle_alpha   90.00000000
_cell_angle_beta   90.00000000
_cell_angle_gamma   90.00000000
_symmetry_Int_Tables_number   1
_chemical_formula_structural   Yb2Pt2Pb
_chemical_formula_sum   'Yb8 Pt8 Pb4'
_cell_volume   448.95176985
_cell_formula_units_Z   4
loop_
 _symmetry_equiv_pos_site_id
 _symmetry_equiv_pos_as_xyz
  1  'x, y, z'
loop_
 _atom_site_type_symbol
 _atom_site_label
 _atom_site_symmetry_multiplicity
 _atom_site_fract_x
 _atom_site_fract_y
 _atom_site_fract_z
 _atom_site_occupancy
  Yb  Yb0  1  0.67471400  0.67471400  0.00000000  1
  Yb  Yb1  1  0.34333600  0.34333600  0.50000000  1
  Yb  Yb2  1  0.82528600  0.17471400  0.50000000  1
  Yb  Yb3  1  0.65666400  0.65666400  0.50000000  1
  Yb  Yb4  1  0.32528600  0.32528600  0.00000000  1
  Yb  Yb5  1  0.17471400  0.82528600  0.50000000  1
  Yb  Yb6  1  0.84333600  0.15666400  0.00000000  1
  Yb  Yb7  1  0.15666400  0.84333600  0.00000000  1
  Pt  Pt0  1  0.86862300  0.86862300  0.73286600  1
  Pt  Pt1  1  0.13137700  0.13137700  0.73286600  1
  Pt  Pt2  1  0.63137700  0.36862300  0.76713400  1
  Pt  Pt3  1  0.63137700  0.36862300  0.23286600  1
  Pt  Pt4  1  0.36862300  0.63137700  0.23286600  1
  Pt  Pt5  1  0.13137700  0.13137700  0.26713400  1
  Pt  Pt6  1  0.86862300  0.86862300  0.26713400  1
  Pt  Pt7  1  0.36862300  0.63137700  0.76713400  1
  Pb  Pb0  1  0.50000000  0.00000000  0.75000000  1
  Pb  Pb1  1  0.50000000  0.00000000  0.25000000  1
  Pb  Pb2  1  0.00000000  0.50000000  0.75000000  1
  Pb  Pb3  1  0.00000000  0.50000000  0.25000000  1
loop_
_geom_bond_atom_site_label_1
_geom_bond_atom_site_label_2
_geom_bond_distance
_geom_bond_site_symmetry_2
Pt0 Yb3 2.903662 1_555
Pt0 Yb0 2.920079 1_556
Pt0 Yb2 2.961818 1_565
Pt0 Yb5 2.961818 1_655
Pt0 Yb6 3.004736 1_566
Pt0 Yb7 3.004736 1_656
Pt1 Yb1 2.903662 1_555
Pt1 Yb4 2.920079 1_556
Pt1 Yb2 2.961818 1_455
Pt1 Yb5 2.961818 1_545
Pt1 Yb6 3.004736 1_456
Pt1 Yb7 3.004736 1_546
Pt2 Yb6 2.903662 1_556
Pt2 Yb2 2.920079 1_555
Pt2 Yb4 2.961818 1_556
Pt2 Yb0 2.961818 1_556
Pt2 Yb1 3.004736 1_555
Pt2 Yb3 3.004736 1_555
Pt3 Yb6 2.903662 1_555
Pt3 Yb2 2.920079 1_555
Pt3 Yb4 2.961818 1_555
Pt3 Yb0 2.961818 1_555
Pt3 Yb1 3.004736 1_555
Pt3 Yb3 3.004736 1_555
Pt4 Yb7 2.903662 1_555
Pt4 Yb5 2.920079 1_555
Pt4 Yb4 2.961818 1_555
Pt4 Yb0 2.961818 1_555
Pt4 Yb1 3.004736 1_555
Pt4 Yb3 3.004736 1_555
Pt5 Yb1 2.903662 1_555
Pt5 Yb4 2.920079 1_555
Pt5 Yb2 2.961818 1_455
Pt5 Yb5 2.961818 1_545
Pt5 Yb7 3.004736 1_545
Pt5 Yb6 3.004736 1_455
Pt6 Yb3 2.903662 1_555
Pt6 Yb0 2.920079 1_555
Pt6 Yb2 2.961818 1_565
Pt6 Yb5 2.961818 1_655
Pt6 Yb6 3.004736 1_565
Pt6 Yb7 3.004736 1_655
Pt7 Yb7 2.903662 1_556
Pt7 Yb5 2.920079 1_555
Pt7 Yb4 2.961818 1_556
Pt7 Yb0 2.961818 1_556
Pt7 Yb1 3.004736 1_555
Pt7 Yb3 3.004736 1_555
Pb0 Pt0 3.025697 1_545
Pb0 Pt2 3.025697 1_555
Pb0 Pt7 3.025697 1_545
Pb0 Pt1 3.025697 1_555
Pb0 Yb0 3.416616 1_546
Pb0 Yb4 3.416616 1_556
Pb0 Yb5 3.416616 1_545
Pb0 Yb2 3.416616 1_555
Pb0 Yb6 3.469366 1_556
Pb0 Yb3 3.469366 1_545
Pb0 Yb1 3.469366 1_555
Pb0 Yb7 3.469366 1_546
Pb1 Pt3 3.025697 1_555
Pb1 Pt6 3.025697 1_545
Pb1 Pt4 3.025697 1_545
Pb1 Pt5 3.025697 1_555
Pb1 Yb0 3.416616 1_545
Pb1 Yb4 3.416616 1_555
Pb1 Yb5 3.416616 1_545
Pb1 Yb2 3.416616 1_555
Pb1 Yb6 3.469366 1_555
Pb1 Yb3 3.469366 1_545
Pb1 Yb1 3.469366 1_555
Pb1 Yb7 3.469366 1_545
Pb2 Pt7 3.025697 1_555
Pb2 Pt1 3.025697 1_555
Pb2 Pt0 3.025697 1_455
Pb2 Pt2 3.025697 1_455
Pb2 Yb4 3.416616 1_556
Pb2 Yb2 3.416616 1_455
Pb2 Yb5 3.416616 1_555
Pb2 Yb0 3.416616 1_456
Pb2 Yb6 3.469366 1_456
Pb2 Yb7 3.469366 1_556
Pb2 Yb1 3.469366 1_555
Pb2 Yb3 3.469366 1_455
Pb3 Pt5 3.025697 1_555
Pb3 Pt6 3.025697 1_455
Pb3 Pt4 3.025697 1_555
Pb3 Pt3 3.025697 1_455
Pb3 Yb4 3.416616 1_555
Pb3 Yb2 3.416616 1_455
Pb3 Yb5 3.416616 1_555
Pb3 Yb0 3.416616 1_455
Pb3 Yb7 3.469366 1_555
Pb3 Yb1 3.469366 1_555
Pb3 Yb3 3.469366 1_455
Pb3 Yb6 3.469366 1_455
