# generated using pymatgen
data_Mn2SbTe
_symmetry_space_group_name_H-M   'P 1'
_cell_length_a   3.86204326
_cell_length_b   7.64474518
_cell_length_c   7.24387169
_cell_angle_alpha   90.08297831
_cell_angle_beta   89.93903314
_cell_angle_gamma   120.04044221
_symmetry_Int_Tables_number   1
_chemical_formula_structural   Mn2SbTe
_chemical_formula_sum   'Mn4 Sb2 Te2'
_cell_volume   185.14155660
_cell_formula_units_Z   2
loop_
 _symmetry_equiv_pos_site_id
 _symmetry_equiv_pos_as_xyz
  1  'x, y, z'
loop_
 _atom_site_type_symbol
 _atom_site_label
 _atom_site_symmetry_multiplicity
 _atom_site_fract_x
 _atom_site_fract_y
 _atom_site_fract_z
 _atom_site_occupancy
  Mn  Mn0  1  0.32412600  0.82845100  0.24194400  1
  Mn  Mn1  1  0.33805000  0.33436600  0.25147700  1
  Mn  Mn2  1  0.66584200  0.66861800  0.74193600  1
  Mn  Mn3  1  0.65804700  0.16264900  0.75390600  1
  Sb  Sb0  1  0.99284800  0.99865200  0.00028600  1
  Sb  Sb1  1  0.99962100  0.49933900  0.49607700  1
  Te  Te0  1  0.00406300  0.00118800  0.50075800  1
  Te  Te1  1  0.99652600  0.49742700  0.99192700  1
loop_
_geom_bond_atom_site_label_1
_geom_bond_atom_site_label_2
_geom_bond_distance
_geom_bond_site_symmetry_2
Mn0 Sb0 2.838987 1_555
Mn0 Te1 2.840892 1_454
Mn0 Sb0 2.841188 1_455
Mn0 Sb1 2.853282 1_455
Mn0 Te0 2.899804 1_565
Mn0 Te0 2.947160 1_665
Mn1 Sb1 2.834612 1_555
Mn1 Sb1 2.842068 1_455
Mn1 Te0 2.851495 1_555
Mn1 Sb0 2.870691 1_445
Mn1 Te1 2.894597 1_554
Mn1 Te1 2.913218 1_454
Mn2 Te0 2.811637 1_665
Mn2 Sb1 2.852380 1_455
Mn2 Sb1 2.857778 1_555
Mn2 Sb0 2.874725 1_556
Mn2 Te1 2.878157 1_455
Mn2 Te1 2.882417 1_555
Mn3 Te1 2.806067 1_555
Mn3 Sb0 2.839622 1_546
Mn3 Sb0 2.851136 1_446
Mn3 Te0 2.854373 1_555
Mn3 Te0 2.883014 1_655
Mn3 Sb1 2.909047 1_555
