# generated using pymatgen
data_FeSbO4
_symmetry_space_group_name_H-M   'P 1'
_cell_length_a   3.07510828
_cell_length_b   4.65711081
_cell_length_c   4.65711081
_cell_angle_alpha   91.95773459
_cell_angle_beta   90.00000000
_cell_angle_gamma   90.00000000
_symmetry_Int_Tables_number   1
_chemical_formula_structural   FeSbO4
_chemical_formula_sum   'Fe1 Sb1 O4'
_cell_volume   66.65611286
_cell_formula_units_Z   1
loop_
 _symmetry_equiv_pos_site_id
 _symmetry_equiv_pos_as_xyz
  1  'x, y, z'
loop_
 _atom_site_type_symbol
 _atom_site_label
 _atom_site_symmetry_multiplicity
 _atom_site_fract_x
 _atom_site_fract_y
 _atom_site_fract_z
 _atom_site_occupancy
  Fe  Fe0  1  0.50000000  0.50000000  0.50000000  1
  Sb  Sb0  1  -0.00000000  0.00000000  0.00000000  1
  O  O0  1  -0.00000000  0.30264023  0.30264023  1
  O  O1  1  -0.00000000  0.69735977  0.69735977  1
  O  O2  1  0.50000000  0.80708759  0.19291241  1
  O  O3  1  0.50000000  0.19291241  0.80708759  1
loop_
_geom_bond_atom_site_label_1
_geom_bond_atom_site_label_2
_geom_bond_distance
_geom_bond_site_symmetry_2
Fe0 O0 1.998984 1_655
Fe0 O1 1.998984 1_555
Fe0 O0 1.998984 1_555
Fe0 O1 1.998984 1_655
Fe0 O2 2.056782 1_555
Fe0 O3 2.056782 1_555
O0 Sb0 1.958891 1_555
O1 Sb0 1.958891 1_566
O2 Sb0 2.008362 1_565
O2 Sb0 2.008362 1_665
O3 Sb0 2.008362 1_656
O3 Sb0 2.008362 1_556
