# generated using pymatgen
data_As9Pb7S20
_symmetry_space_group_name_H-M   'P 1'
_cell_length_a   25.97866400
_cell_length_b   8.35960400
_cell_length_c   8.40872964
_cell_angle_alpha   89.87305797
_cell_angle_beta   90.00000000
_cell_angle_gamma   90.00000000
_symmetry_Int_Tables_number   1
_chemical_formula_structural   As9Pb7S20
_chemical_formula_sum   'As18 Pb14 S40'
_cell_volume   1826.13063054
_cell_formula_units_Z   2
loop_
 _symmetry_equiv_pos_site_id
 _symmetry_equiv_pos_as_xyz
  1  'x, y, z'
loop_
 _atom_site_type_symbol
 _atom_site_label
 _atom_site_symmetry_multiplicity
 _atom_site_fract_x
 _atom_site_fract_y
 _atom_site_fract_z
 _atom_site_occupancy
  As  As0  1  0.26569500  0.62175100  0.12120800  1
  As  As1  1  0.76569500  0.37824900  0.87879200  1
  As  As2  1  0.15835600  0.26295000  0.62321500  1
  As  As3  1  0.65835600  0.73705000  0.37678500  1
  As  As4  1  0.27511700  0.27230900  0.40202000  1
  As  As5  1  0.77511700  0.72769100  0.59798000  1
  As  As6  1  0.15167600  0.88731100  0.92298300  1
  As  As7  1  0.65167600  0.11268900  0.07701700  1
  As  As8  1  0.13693800  0.88175500  0.35521600  1
  As  As9  1  0.63693800  0.11824500  0.64478400  1
  As  As10  1  0.05278900  0.56679700  0.39498800  1
  As  As11  1  0.55278900  0.43320300  0.60501200  1
  As  As12  1  0.04370100  0.55424800  0.87024900  1
  As  As13  1  0.54370100  0.44575200  0.12975100  1
  As  As14  1  0.36430600  0.92824900  0.62748100  1
  As  As15  1  0.86430600  0.07175100  0.37251900  1
  As  As16  1  0.35602000  0.93377300  0.17358800  1
  As  As17  1  0.85602000  0.06622700  0.82641200  1
  Pb  Pb0  1  0.23992900  0.65005200  0.64605100  1
  Pb  Pb1  1  0.73992800  0.34994800  0.35394900  1
  Pb  Pb2  1  0.62801000  0.71500000  0.88050100  1
  Pb  Pb3  1  0.12801000  0.28500000  0.11949900  1
  Pb  Pb4  1  0.27333400  0.18400000  0.87667200  1
  Pb  Pb5  1  0.77333400  0.81600000  0.12332800  1
  Pb  Pb6  1  0.41565400  0.53777500  0.37905100  1
  Pb  Pb7  1  0.91565400  0.46222500  0.62094900  1
  Pb  Pb8  1  0.41423000  0.55777100  0.88484700  1
  Pb  Pb9  1  0.91423000  0.44222900  0.11515300  1
  Pb  Pb10  1  0.50742200  0.05317800  0.37464100  1
  Pb  Pb11  1  0.00742200  0.94682200  0.62535900  1
  Pb  Pb12  1  0.50111600  0.05489400  0.87384800  1
  Pb  Pb13  1  0.00111600  0.94510600  0.12615200  1
  S  S0  1  0.02343500  0.40601900  0.64974900  1
  S  S1  1  0.52343500  0.59398100  0.35025100  1
  S  S2  1  0.08199900  0.09248100  0.36170800  1
  S  S3  1  0.58199900  0.90751900  0.63829200  1
  S  S4  1  0.30674700  0.75968300  0.32473700  1
  S  S5  1  0.80674700  0.24031700  0.67526300  1
  S  S6  1  0.31467300  0.41465700  0.59577400  1
  S  S7  1  0.81467300  0.58534300  0.40422600  1
  S  S8  1  0.38439400  0.08050300  0.39601800  1
  S  S9  1  0.88439400  0.91949700  0.60398200  1
  S  S10  1  0.43536000  0.76435400  0.62536500  1
  S  S11  1  0.93536000  0.23564600  0.37463500  1
  S  S12  1  0.47883000  0.29114200  0.62448400  1
  S  S13  1  0.97883000  0.70885800  0.37551600  1
  S  S14  1  0.09867700  0.73426200  0.56875800  1
  S  S15  1  0.59867700  0.26573800  0.43124200  1
  S  S16  1  0.09823100  0.72689300  0.16317500  1
  S  S17  1  0.31197700  0.38871900  0.15642000  1
  S  S18  1  0.59823100  0.27310700  0.83682500  1
  S  S19  1  0.51971500  0.61208700  0.92553200  1
  S  S20  1  0.09267500  0.07400900  0.86197300  1
  S  S21  1  0.59267500  0.92599100  0.13802700  1
  S  S22  1  0.20132800  0.02634800  0.09558800  1
  S  S23  1  0.70132800  0.97365200  0.90441200  1
  S  S24  1  0.21465000  0.06183100  0.61425100  1
  S  S25  1  0.71465000  0.93816900  0.38574900  1
  S  S26  1  0.19166100  0.41808300  0.83110700  1
  S  S27  1  0.69166100  0.58191700  0.16889300  1
  S  S28  1  0.19949500  0.41856200  0.39081700  1
  S  S29  1  0.69949500  0.58143800  0.60918300  1
  S  S30  1  0.30657200  0.72826200  0.90787700  1
  S  S31  1  0.80657200  0.27173800  0.09212300  1
  S  S32  1  0.97404800  0.72410900  0.87184200  1
  S  S33  1  0.47404800  0.27589100  0.12815800  1
  S  S34  1  0.92834600  0.21277800  0.86223200  1
  S  S35  1  0.42834600  0.78722200  0.13776800  1
  S  S36  1  0.88789500  0.90623800  0.18275200  1
  S  S37  1  0.38789500  0.09376200  0.81724800  1
  S  S38  1  0.81197700  0.61128100  0.84358000  1
  S  S39  1  0.01971500  0.38791300  0.07446800  1
loop_
_geom_bond_atom_site_label_1
_geom_bond_atom_site_label_2
_geom_bond_distance
_geom_bond_site_symmetry_2
As0 S30 2.265234 1_554
As0 S17 2.307740 1_555
As0 S4 2.324783 1_555
As1 S31 2.265234 1_556
As1 S38 2.307740 1_555
As1 S5 2.324783 1_555
As2 S24 2.229724 1_555
As2 S26 2.344430 1_555
As2 S28 2.577197 1_555
As3 S25 2.229724 1_555
As3 S27 2.344430 1_555
As3 S29 2.577197 1_555
As4 S6 2.266051 1_555
As4 S28 2.315739 1_555
As4 S17 2.473870 1_555
As4 S24 2.955388 1_555
As5 S7 2.266051 1_555
As5 S29 2.315739 1_555
As5 S38 2.473870 1_555
As5 S25 2.955388 1_555
As6 S20 2.246078 1_565
As6 S22 2.264676 1_566
As6 S16 2.791653 1_556
As7 S21 2.246078 1_545
As7 S23 2.264676 1_544
As7 S18 2.791653 1_554
As8 S2 2.267953 1_565
As8 S16 2.303042 1_555
As8 S14 2.392207 1_555
As9 S3 2.267953 1_545
As9 S18 2.303042 1_555
As9 S15 2.392207 1_555
As10 S13 2.264484 1_455
As10 S14 2.350550 1_555
As10 S0 2.638996 1_555
As10 S16 2.640608 1_555
As11 S12 2.264484 1_555
As11 S15 2.350550 1_555
As11 S1 2.638996 1_555
As11 S18 2.640608 1_555
As12 S39 2.293476 1_556
As12 S0 2.293600 1_555
As12 S32 2.300183 1_455
As13 S19 2.293476 1_554
As13 S1 2.293600 1_555
As13 S33 2.300183 1_555
As14 S37 2.201361 1_565
As14 S10 2.298890 1_555
As14 S8 2.381063 1_565
As15 S36 2.201361 1_545
As15 S11 2.298890 1_555
As15 S9 2.381063 1_545
As16 S35 2.263545 1_555
As16 S4 2.315957 1_555
As16 S8 2.357179 1_565
As17 S34 2.263545 1_555
As17 S5 2.315957 1_555
As17 S9 2.357179 1_545
Pb0 S26 2.782224 1_555
Pb0 S6 2.797334 1_555
Pb0 S30 2.877216 1_555
Pb0 S28 3.077791 1_555
Pb1 S27 2.782212 1_555
Pb1 S7 2.797352 1_555
Pb1 S31 2.877232 1_555
Pb1 S29 3.077782 1_555
Pb2 S3 2.855235 1_555
Pb2 S23 2.888854 1_555
Pb2 S21 2.942755 1_556
Pb2 S19 2.965984 1_555
Pb2 S27 3.136991 1_556
Pb2 S29 3.148277 1_555
Pb3 S2 2.855235 1_555
Pb3 S22 2.888854 1_555
Pb3 S20 2.942755 1_554
Pb3 S39 2.965984 1_555
Pb3 S26 3.136991 1_554
Pb3 S28 3.148277 1_555
Pb4 S24 2.871656 1_555
Pb4 S26 2.911108 1_555
Pb4 S22 2.934947 1_556
Pb4 S17 3.080237 1_556
Pb4 S37 3.110920 1_555
Pb4 S6 3.229571 1_555
Pb5 S25 2.871656 1_555
Pb5 S27 2.911108 1_555
Pb5 S23 2.934947 1_554
Pb5 S38 3.080237 1_554
Pb5 S36 3.110920 1_555
Pb5 S7 3.229571 1_555
Pb6 S1 2.849377 1_555
Pb6 S10 2.856035 1_555
Pb6 S35 2.924846 1_555
Pb7 S0 2.849377 1_655
Pb7 S11 2.856035 1_555
Pb7 S34 2.924846 1_555
Pb8 S19 2.798833 1_555
Pb8 S10 2.833326 1_555
Pb8 S35 2.890464 1_556
Pb8 S30 3.145183 1_555
Pb9 S39 2.798833 1_655
Pb9 S11 2.833326 1_555
Pb9 S34 2.890464 1_554
Pb9 S31 3.145183 1_555
Pb10 S33 2.914891 1_555
Pb10 S12 2.990171 1_555
Pb10 S15 3.001307 1_555
Pb10 S21 3.162846 1_545
Pb10 S3 3.184216 1_545
Pb10 S8 3.209322 1_555
Pb11 S32 2.914891 1_455
Pb11 S13 2.990171 1_455
Pb11 S14 3.001307 1_555
Pb11 S20 3.162846 1_565
Pb11 S2 3.184216 1_565
Pb11 S9 3.209322 1_455
Pb12 S33 2.915116 1_556
Pb12 S12 2.934953 1_555
Pb12 S37 2.997136 1_555
Pb12 S18 3.128439 1_555
Pb12 S3 3.141192 1_545
Pb13 S32 2.915116 1_454
Pb13 S13 2.934953 1_455
Pb13 S36 2.997136 1_455
Pb13 S16 3.128439 1_555
Pb13 S2 3.141192 1_565
