# generated using pymatgen
data_Cs5Sb8
_symmetry_space_group_name_H-M   'P 1'
_cell_length_a   7.39243826
_cell_length_b   11.56485139
_cell_length_c   28.13454582
_cell_angle_alpha   90.00000000
_cell_angle_beta   96.97923645
_cell_angle_gamma   90.00000000
_symmetry_Int_Tables_number   1
_chemical_formula_structural   Cs5Sb8
_chemical_formula_sum   'Cs20 Sb32'
_cell_volume   2387.46864521
_cell_formula_units_Z   4
loop_
 _symmetry_equiv_pos_site_id
 _symmetry_equiv_pos_as_xyz
  1  'x, y, z'
loop_
 _atom_site_type_symbol
 _atom_site_label
 _atom_site_symmetry_multiplicity
 _atom_site_fract_x
 _atom_site_fract_y
 _atom_site_fract_z
 _atom_site_occupancy
  Cs  Cs0  1  0.52404819  0.43046168  0.42602812  1
  Cs  Cs1  1  0.25921005  0.60341482  0.97890002  1
  Cs  Cs2  1  0.76444761  0.19301690  0.68910252  1
  Cs  Cs3  1  0.74078995  0.39658518  0.02109998  1
  Cs  Cs4  1  0.28874489  0.46335060  0.25761092  1
  Cs  Cs5  1  0.23555239  0.80698310  0.31089748  1
  Cs  Cs6  1  0.02588792  0.18475466  0.37748129  1
  Cs  Cs7  1  0.28874489  0.03664940  0.75761092  1
  Cs  Cs8  1  0.02588792  0.31524534  0.87748229  1
  Cs  Cs9  1  0.76444761  0.30698310  0.18910252  1
  Cs  Cs10  1  0.97411208  0.81524534  0.62251771  1
  Cs  Cs11  1  0.97411208  0.68475466  0.12251771  1
  Cs  Cs12  1  0.71125511  0.53664940  0.74238908  1
  Cs  Cs13  1  0.23555239  0.69301690  0.81089748  1
  Cs  Cs14  1  0.52404819  0.06953832  0.92602812  1
  Cs  Cs15  1  0.25921005  0.89658518  0.47890002  1
  Cs  Cs16  1  0.47595181  0.56953832  0.57397188  1
  Cs  Cs17  1  0.74078995  0.10341482  0.52109998  1
  Cs  Cs18  1  0.47595181  0.93046168  0.07397188  1
  Cs  Cs19  1  0.71125511  0.96335060  0.24238908  1
  Sb  Sb0  1  0.51321678  0.30006738  0.81656705  1
  Sb  Sb1  1  0.23834564  0.24777371  0.52432215  1
  Sb  Sb2  1  0.69603350  0.85782543  0.83643324  1
  Sb  Sb3  1  0.80680532  0.87146139  0.74394852  1
  Sb  Sb4  1  0.19190414  0.36096902  0.11292311  1
  Sb  Sb5  1  0.98769921  0.47631698  0.62520517  1
  Sb  Sb6  1  0.30396650  0.35782543  0.66356676  1
  Sb  Sb7  1  0.93947781  0.40341729  0.52780263  1
  Sb  Sb8  1  0.48678322  0.80006738  0.68343295  1
  Sb  Sb9  1  0.98769921  0.02368302  0.12520517  1
  Sb  Sb10  1  0.80809586  0.86096902  0.38707689  1
  Sb  Sb11  1  0.51321678  0.19993262  0.31656705  1
  Sb  Sb12  1  0.80680532  0.62853861  0.24394852  1
  Sb  Sb13  1  0.48678322  0.69993262  0.18343295  1
  Sb  Sb14  1  0.01230079  0.52368302  0.37479483  1
  Sb  Sb15  1  0.46835675  0.96102172  0.60895354  1
  Sb  Sb16  1  0.76165436  0.74777371  0.97567785  1
  Sb  Sb17  1  0.76165436  0.75222629  0.47567785  1
  Sb  Sb18  1  0.19190414  0.13903098  0.61292311  1
  Sb  Sb19  1  0.30396650  0.14217457  0.16356676  1
  Sb  Sb20  1  0.19319468  0.37146139  0.75605148  1
  Sb  Sb21  1  0.19319468  0.12853861  0.25605148  1
  Sb  Sb22  1  0.06052219  0.59658271  0.47219737  1
  Sb  Sb23  1  0.46835675  0.53897828  0.10895354  1
  Sb  Sb24  1  0.93947781  0.09658271  0.02780263  1
  Sb  Sb25  1  0.53164325  0.46102172  0.89104646  1
  Sb  Sb26  1  0.01230079  0.97631698  0.87479483  1
  Sb  Sb27  1  0.06052219  0.90341729  0.97219737  1
  Sb  Sb28  1  0.80809586  0.63903098  0.88707689  1
  Sb  Sb29  1  0.53164325  0.03897828  0.39104646  1
  Sb  Sb30  1  0.23834564  0.25222629  0.02432215  1
  Sb  Sb31  1  0.69603350  0.64217457  0.33643324  1
loop_
_geom_bond_atom_site_label_1
_geom_bond_atom_site_label_2
_geom_bond_distance
_geom_bond_site_symmetry_2
Cs0 Sb31 3.839798 1_555
Cs0 Sb7 3.948549 1_555
Cs0 Sb14 4.028195 1_555
Cs0 Sb11 4.066742 1_555
Cs0 Sb14 4.187115 1_655
Cs0 Sb1 4.241654 1_555
Cs0 Sb22 4.266301 1_555
Cs0 Sb17 4.276361 1_555
Cs1 Sb25 3.753253 1_555
Cs1 Sb27 3.763364 1_555
Cs1 Sb23 3.867714 1_556
Cs1 Sb28 3.983852 1_455
Cs1 Sb16 4.030281 1_455
Cs1 Sb16 4.083281 1_555
Cs1 Sb30 4.266160 1_556
Cs2 Sb6 3.891317 1_555
Cs2 Sb15 3.984316 1_545
Cs2 Sb3 4.023770 1_545
Cs2 Sb20 4.049875 1_655
Cs2 Sb18 4.076096 1_655
Cs2 Sb5 4.172631 1_555
Cs2 Sb0 4.411463 1_555
Cs3 Sb23 3.753253 1_555
Cs3 Sb24 3.763364 1_555
Cs3 Sb25 3.867714 1_554
Cs3 Sb4 3.983852 1_655
Cs3 Sb30 4.030281 1_655
Cs3 Sb30 4.083281 1_555
Cs3 Sb16 4.266160 1_554
Cs4 Sb11 3.757191 1_555
Cs4 Sb13 3.837585 1_555
Cs4 Sb21 3.935238 1_555
Cs4 Sb12 4.019623 1_455
Cs4 Sb31 4.078901 1_555
Cs4 Sb14 4.143686 1_555
Cs4 Sb4 4.216281 1_555
Cs5 Sb31 3.891317 1_555
Cs5 Sb29 3.984316 1_565
Cs5 Sb21 4.023770 1_565
Cs5 Sb12 4.049875 1_455
Cs5 Sb10 4.076096 1_455
Cs5 Sb14 4.172631 1_555
Cs5 Sb13 4.411463 1_555
Cs6 Sb21 3.827637 1_555
Cs6 Sb14 3.921436 1_555
Cs6 Sb11 3.968971 1_455
Cs6 Sb29 4.076697 1_555
Cs6 Sb29 4.083633 1_455
Cs6 Sb10 4.097827 1_445
Cs6 Sb11 4.176921 1_555
Cs6 Sb1 4.299847 1_555
Cs7 Sb0 3.757191 1_555
Cs7 Sb8 3.837585 1_545
Cs7 Sb20 3.935238 1_555
Cs7 Sb3 4.019623 1_445
Cs7 Sb2 4.078901 1_545
Cs7 Sb26 4.143686 1_545
Cs7 Sb18 4.216281 1_555
Cs8 Sb20 3.827664 1_555
Cs8 Sb26 3.921436 1_545
Cs8 Sb0 3.968980 1_455
Cs8 Sb25 4.076697 1_555
Cs8 Sb25 4.083627 1_455
Cs8 Sb28 4.097824 1_455
Cs8 Sb0 4.176935 1_555
Cs8 Sb30 4.299822 1_556
Cs9 Sb19 3.891317 1_555
Cs9 Sb23 3.984316 1_555
Cs9 Sb12 4.023770 1_555
Cs9 Sb21 4.049875 1_655
Cs9 Sb4 4.076096 1_655
Cs9 Sb9 4.172631 1_555
Cs9 Sb11 4.411463 1_555
Cs10 Sb3 3.827664 1_555
Cs10 Sb5 3.921436 1_555
Cs10 Sb8 3.968980 1_655
Cs10 Sb15 4.076697 1_555
Cs10 Sb15 4.083627 1_655
Cs10 Sb18 4.097824 1_665
Cs10 Sb8 4.176935 1_555
Cs10 Sb17 4.299822 1_555
Cs11 Sb12 3.827664 1_555
Cs11 Sb9 3.921436 1_565
Cs11 Sb13 3.968980 1_655
Cs11 Sb23 4.076697 1_555
Cs11 Sb23 4.083627 1_655
Cs11 Sb4 4.097824 1_655
Cs11 Sb13 4.176935 1_555
Cs11 Sb16 4.299822 1_554
Cs12 Sb8 3.757191 1_555
Cs12 Sb0 3.837585 1_555
Cs12 Sb3 3.935238 1_555
Cs12 Sb20 4.019623 1_655
Cs12 Sb6 4.078901 1_555
Cs12 Sb5 4.143686 1_555
Cs12 Sb28 4.216281 1_555
Cs13 Sb2 3.891317 1_555
Cs13 Sb25 3.984316 1_555
Cs13 Sb20 4.023770 1_555
Cs13 Sb3 4.049875 1_455
Cs13 Sb28 4.076096 1_455
Cs13 Sb26 4.172631 1_555
Cs13 Sb8 4.411463 1_555
Cs14 Sb2 3.839798 1_545
Cs14 Sb24 3.948549 1_556
Cs14 Sb26 4.028195 1_545
Cs14 Sb0 4.066742 1_555
Cs14 Sb26 4.187115 1_645
Cs14 Sb30 4.241654 1_556
Cs14 Sb27 4.266301 1_545
Cs14 Sb16 4.276361 1_545
Cs15 Sb29 3.753253 1_565
Cs15 Sb22 3.763364 1_555
Cs15 Sb15 3.867714 1_555
Cs15 Sb10 3.983852 1_455
Cs15 Sb17 4.030281 1_455
Cs15 Sb17 4.083281 1_555
Cs15 Sb1 4.266160 1_565
Cs16 Sb6 3.839798 1_555
Cs16 Sb22 3.948549 1_555
Cs16 Sb5 4.028195 1_555
Cs16 Sb8 4.066742 1_555
Cs16 Sb5 4.187115 1_455
Cs16 Sb17 4.241654 1_555
Cs16 Sb7 4.266301 1_555
Cs16 Sb1 4.276361 1_555
Cs17 Sb15 3.753253 1_545
Cs17 Sb7 3.763364 1_555
Cs17 Sb29 3.867714 1_555
Cs17 Sb18 3.983852 1_655
Cs17 Sb1 4.030281 1_655
Cs17 Sb1 4.083281 1_555
Cs17 Sb17 4.266160 1_545
Cs18 Sb19 3.839798 1_565
Cs18 Sb27 3.948549 1_554
Cs18 Sb9 4.028195 1_565
Cs18 Sb13 4.066742 1_555
Cs18 Sb9 4.187115 1_465
Cs18 Sb16 4.241654 1_554
Cs18 Sb24 4.266301 1_565
Cs18 Sb30 4.276361 1_565
Cs19 Sb13 3.757191 1_555
Cs19 Sb11 3.837585 1_565
Cs19 Sb12 3.935238 1_555
Cs19 Sb21 4.019623 1_665
Cs19 Sb19 4.078901 1_565
Cs19 Sb9 4.143686 1_565
Cs19 Sb10 4.216281 1_555
Sb0 Sb25 2.793731 1_555
Sb0 Sb20 2.863282 1_555
Sb1 Sb18 2.849767 1_555
Sb1 Sb7 2.860669 1_455
Sb2 Sb26 2.809918 1_655
Sb2 Sb3 2.825547 1_555
Sb2 Sb28 2.971889 1_555
Sb3 Sb8 2.863282 1_555
Sb5 Sb6 2.809918 1_655
Sb5 Sb7 2.847826 1_555
Sb10 Sb17 2.849767 1_555
Sb10 Sb29 2.912477 1_565
Sb10 Sb31 2.971889 1_555
Sb11 Sb29 2.793731 1_555
Sb11 Sb21 2.863282 1_555
Sb12 Sb31 2.825547 1_555
Sb12 Sb13 2.863282 1_555
Sb13 Sb23 2.793731 1_555
Sb14 Sb31 2.809918 1_455
Sb14 Sb22 2.847826 1_555
Sb15 Sb8 2.793731 1_555
Sb15 Sb18 2.912477 1_565
Sb16 Sb28 2.849767 1_555
Sb16 Sb27 2.860669 1_655
Sb17 Sb22 2.860669 1_655
Sb18 Sb6 2.971889 1_555
Sb19 Sb9 2.809918 1_455
Sb19 Sb21 2.825547 1_555
Sb19 Sb4 2.971889 1_555
Sb20 Sb6 2.825547 1_555
Sb22 Sb7 2.928953 1_455
Sb23 Sb4 2.912477 1_555
Sb24 Sb9 2.847826 1_555
Sb24 Sb30 2.860669 1_655
Sb24 Sb27 2.928953 1_644
Sb25 Sb28 2.912477 1_555
Sb26 Sb27 2.847826 1_555
Sb30 Sb4 2.849767 1_555
