# generated using pymatgen
data_K2PtN4(ClO4)2
_symmetry_space_group_name_H-M   'P 1'
_cell_length_a   9.76146100
_cell_length_b   7.60145100
_cell_length_c   9.65701441
_cell_angle_alpha   59.89110783
_cell_angle_beta   90.00000000
_cell_angle_gamma   90.00000000
_symmetry_Int_Tables_number   1
_chemical_formula_structural   K2PtN4(ClO4)2
_chemical_formula_sum   'K4 Pt2 N8 Cl4 O16'
_cell_volume   619.87946616
_cell_formula_units_Z   2
loop_
 _symmetry_equiv_pos_site_id
 _symmetry_equiv_pos_as_xyz
  1  'x, y, z'
loop_
 _atom_site_type_symbol
 _atom_site_label
 _atom_site_symmetry_multiplicity
 _atom_site_fract_x
 _atom_site_fract_y
 _atom_site_fract_z
 _atom_site_occupancy
  K  K0  1  0.45325100  0.67437500  0.16656400  1
  K  K1  1  0.04674900  0.67437500  0.66656400  1
  K  K2  1  0.54674900  0.32562500  0.83343600  1
  K  K3  1  0.95325100  0.32562500  0.33343600  1
  Pt  Pt0  1  0.00000000  0.00000000  0.00000000  1
  Pt  Pt1  1  0.50000000  0.00000000  0.50000000  1
  N  N0  1  0.52665500  0.14119400  0.24653700  1
  N  N1  1  0.69647000  0.84840100  0.53764700  1
  N  N2  1  0.19647000  0.15159900  0.96235300  1
  N  N3  1  0.80353000  0.84840100  0.03764700  1
  N  N4  1  0.02665500  0.85880600  0.25346300  1
  N  N5  1  0.47334500  0.85880600  0.75346300  1
  N  N6  1  0.97334500  0.14119400  0.74653700  1
  N  N7  1  0.30353000  0.15159900  0.46235300  1
  Cl  Cl0  1  0.39177400  0.71991600  0.50325300  1
  Cl  Cl1  1  0.89177400  0.28008400  0.99674700  1
  Cl  Cl2  1  0.10822600  0.71991600  0.00325300  1
  Cl  Cl3  1  0.60822600  0.28008400  0.49674700  1
  O  O0  1  0.98488400  0.94924100  0.32164800  1
  O  O1  1  0.58061500  0.31184900  0.17112500  1
  O  O2  1  0.79851300  0.93713200  0.54948000  1
  O  O3  1  0.51511600  0.94924100  0.82164800  1
  O  O4  1  0.70148700  0.93713200  0.04948000  1
  O  O5  1  0.29581300  0.32184200  0.44867800  1
  O  O6  1  0.79581300  0.67815800  0.05132200  1
  O  O7  1  0.29851300  0.06286800  0.95052000  1
  O  O8  1  0.08061500  0.68815100  0.32887500  1
  O  O9  1  0.20148700  0.06286800  0.45052000  1
  O  O10  1  0.20418700  0.32184200  0.94867800  1
  O  O11  1  0.91938500  0.31184900  0.67112500  1
  O  O12  1  0.48488400  0.05075900  0.17835200  1
  O  O13  1  0.01511600  0.05075900  0.67835200  1
  O  O14  1  0.70418700  0.67815800  0.55132200  1
  O  O15  1  0.41938500  0.68815100  0.82887500  1
loop_
_geom_bond_atom_site_label_1
_geom_bond_atom_site_label_2
_geom_bond_distance
_geom_bond_site_symmetry_2
K0 O12 2.936114 1_565
K0 O3 2.973632 1_554
K0 O4 2.978866 1_555
K0 O1 3.003310 1_555
K0 O7 3.028817 1_564
K0 O5 3.104914 1_555
K0 O15 3.226794 1_554
K1 O13 2.936114 1_565
K1 O0 2.973632 1_455
K1 O2 2.978866 1_455
K1 O11 3.003310 1_455
K1 O9 3.028817 1_565
K1 O10 3.104914 1_555
K1 O8 3.226794 1_555
K2 O3 2.936114 1_545
K2 O12 2.973632 1_556
K2 O7 2.978866 1_555
K2 O15 3.003310 1_555
K2 O4 3.028817 1_546
K2 O14 3.104914 1_555
K2 O1 3.226794 1_556
K3 O0 2.936114 1_545
K3 O13 2.973632 1_655
K3 O9 2.978866 1_655
K3 O8 3.003310 1_655
K3 O2 3.028817 1_545
K3 O6 3.104914 1_555
K3 O11 3.226794 1_555
N0 O12 1.235533 1_555
N0 O1 1.242084 1_555
N0 Pt1 2.138957 1_555
N1 O14 1.235449 1_555
N1 O2 1.239963 1_555
N1 Pt1 2.172071 1_565
N2 O10 1.235449 1_555
N2 O7 1.239963 1_555
N2 Pt0 2.172071 1_556
N3 O6 1.235449 1_555
N3 O4 1.239963 1_555
N3 Pt0 2.172071 1_665
N4 O0 1.235533 1_455
N4 O8 1.242084 1_555
N4 Pt0 2.138957 1_565
N5 O3 1.235533 1_555
N5 O15 1.242084 1_555
N5 Pt1 2.138957 1_565
N6 O13 1.235533 1_655
N6 O11 1.242084 1_555
N6 Pt0 2.138957 1_656
N7 O5 1.235449 1_555
N7 O9 1.239963 1_555
N7 Pt1 2.172071 1_555
Cl0 Pt1 2.362793 1_565
Cl0 K2 3.442451 1_555
Cl0 K0 3.490115 1_555
Cl0 K1 3.660928 1_555
Cl1 Pt0 2.362793 1_656
Cl1 K1 3.442451 1_655
Cl1 K3 3.490115 1_556
Cl1 K2 3.660928 1_555
Cl2 Pt0 2.362793 1_565
Cl2 K3 3.442451 1_455
Cl2 K1 3.490115 1_554
Cl2 K0 3.660928 1_555
Cl3 Pt1 2.362793 1_555
Cl3 K0 3.442451 1_555
Cl3 K2 3.490115 1_555
Cl3 K3 3.660928 1_555
