# generated using pymatgen
data_Na3Nd5Cl15
_symmetry_space_group_name_H-M   'P 1'
_cell_length_a   8.89800500
_cell_length_b   8.91084972
_cell_length_c   14.20145536
_cell_angle_alpha   96.25090899
_cell_angle_beta   96.12177502
_cell_angle_gamma   102.16533048
_symmetry_Int_Tables_number   1
_chemical_formula_structural   Na3Nd5Cl15
_chemical_formula_sum   'Na6 Nd10 Cl30'
_cell_volume   1084.41241155
_cell_formula_units_Z   2
loop_
 _symmetry_equiv_pos_site_id
 _symmetry_equiv_pos_as_xyz
  1  'x, y, z'
loop_
 _atom_site_type_symbol
 _atom_site_label
 _atom_site_symmetry_multiplicity
 _atom_site_fract_x
 _atom_site_fract_y
 _atom_site_fract_z
 _atom_site_occupancy
  Na  Na0  1  0.58492400  0.58609800  0.91388300  1
  Na  Na1  1  0.41507600  0.41390200  0.08611700  1
  Na  Na2  1  0.24873900  0.25050800  0.24944200  1
  Na  Na3  1  0.91376200  0.91478800  0.58592400  1
  Na  Na4  1  0.08623800  0.08521200  0.41407600  1
  Na  Na5  1  0.75126100  0.74949200  0.75055800  1
  Nd  Nd0  1  0.98231700  0.31700000  0.85287300  1
  Nd  Nd1  1  0.21898600  0.88452900  0.94656300  1
  Nd  Nd2  1  0.78101400  0.11547100  0.05343700  1
  Nd  Nd3  1  0.01768300  0.68300000  0.14712700  1
  Nd  Nd4  1  0.58286200  0.91688300  0.24922000  1
  Nd  Nd5  1  0.81492600  0.48268700  0.35085900  1
  Nd  Nd6  1  0.38575300  0.71743500  0.44682200  1
  Nd  Nd7  1  0.61424700  0.28256500  0.55317800  1
  Nd  Nd8  1  0.18507400  0.51731300  0.64914100  1
  Nd  Nd9  1  0.41713800  0.08311700  0.75078000  1
  Cl  Cl0  1  0.25367700  0.56381700  0.85687800  1
  Cl  Cl1  1  0.67123500  0.28722900  0.90651200  1
  Cl  Cl2  1  0.91717300  0.00064400  0.88933000  1
  Cl  Cl3  1  0.06850700  0.36266000  0.06033200  1
  Cl  Cl4  1  0.28456400  0.20814900  0.91188000  1
  Cl  Cl5  1  0.47058100  0.10116200  0.10639500  1
  Cl  Cl6  1  0.52941900  0.89883800  0.89360500  1
  Cl  Cl7  1  0.71543600  0.79185100  0.08812000  1
  Cl  Cl8  1  0.87158900  0.16109000  0.26023700  1
  Cl  Cl9  1  0.93149300  0.63734000  0.93966800  1
  Cl  Cl10  1  0.08282700  0.99935600  0.11067000  1
  Cl  Cl11  1  0.27387200  0.90007400  0.30606800  1
  Cl  Cl12  1  0.32876500  0.71277100  0.09348800  1
  Cl  Cl13  1  0.51126500  0.58548600  0.28298400  1
  Cl  Cl14  1  0.66167700  0.96179200  0.45656300  1
  Cl  Cl15  1  0.74632300  0.43618300  0.14312200  1
  Cl  Cl16  1  0.88542700  0.79948500  0.31358100  1
  Cl  Cl17  1  0.07871300  0.69181500  0.50593900  1
  Cl  Cl18  1  0.12481700  0.51392800  0.29488600  1
  Cl  Cl19  1  0.31314000  0.39177600  0.48437100  1
  Cl  Cl20  1  0.45462700  0.76300800  0.65545100  1
  Cl  Cl21  1  0.54537300  0.23699200  0.34454900  1
  Cl  Cl22  1  0.68686000  0.60822400  0.51562900  1
  Cl  Cl23  1  0.87518300  0.48607200  0.70511400  1
  Cl  Cl24  1  0.92128700  0.30818500  0.49406100  1
  Cl  Cl25  1  0.11457300  0.20051500  0.68641900  1
  Cl  Cl26  1  0.33832300  0.03820800  0.54343700  1
  Cl  Cl27  1  0.48873500  0.41451400  0.71701600  1
  Cl  Cl28  1  0.72612800  0.09992600  0.69393200  1
  Cl  Cl29  1  0.12841100  0.83891000  0.73976300  1
loop_
_geom_bond_atom_site_label_1
_geom_bond_atom_site_label_2
_geom_bond_distance
_geom_bond_site_symmetry_2
Cl0 Nd0 2.894092 1_455
Cl0 Nd8 2.913915 1_555
Cl0 Na0 2.931147 1_555
Cl0 Nd1 3.089921 1_555
Cl1 Nd0 2.914919 1_555
Cl1 Na0 2.917491 1_555
Cl1 Nd2 2.922522 1_556
Cl1 Nd9 3.104130 1_555
Cl2 Na5 2.845770 1_545
Cl2 Nd0 2.871231 1_555
Cl2 Nd2 2.924328 1_556
Cl2 Nd1 3.135601 1_645
Cl3 Nd0 2.925653 1_454
Cl3 Nd2 2.988319 1_455
Cl3 Na1 2.996919 1_555
Cl3 Nd3 3.125506 1_555
Cl3 Na2 3.335356 1_555
Cl4 Na1 2.886981 1_556
Cl4 Nd9 2.905446 1_555
Cl4 Nd1 2.925815 1_545
Cl4 Nd0 3.109926 1_455
Cl5 Nd2 2.920162 1_555
Cl5 Nd4 2.965337 1_545
Cl5 Na1 2.969428 1_555
Cl5 Nd1 3.167171 1_544
Cl5 Na2 3.341874 1_555
Cl6 Nd1 2.920162 1_555
Cl6 Nd9 2.965337 1_565
Cl6 Na0 2.969428 1_555
Cl6 Nd2 3.167171 1_566
Cl6 Na5 3.341874 1_555
Cl7 Na0 2.886981 1_554
Cl7 Nd4 2.905446 1_555
Cl7 Nd2 2.925815 1_565
Cl7 Nd3 3.109926 1_655
Cl8 Nd2 2.921823 1_555
Cl8 Nd4 2.973884 1_545
Cl8 Na4 2.975587 1_655
Cl8 Nd5 3.172846 1_555
Cl8 Na2 3.306007 1_655
Cl9 Nd3 2.925653 1_656
Cl9 Nd1 2.988319 1_655
Cl9 Na0 2.996919 1_555
Cl9 Nd0 3.125506 1_555
Cl9 Na5 3.335356 1_555
Cl10 Na2 2.845770 1_565
Cl10 Nd3 2.871231 1_555
Cl10 Nd1 2.924328 1_554
Cl10 Nd2 3.135601 1_465
Cl11 Nd4 2.925673 1_555
Cl11 Nd6 2.932952 1_555
Cl11 Na4 3.002976 1_565
Cl11 Nd3 3.182183 1_555
Cl11 Na2 3.354184 1_565
Cl12 Nd3 2.914919 1_555
Cl12 Na1 2.917491 1_555
Cl12 Nd1 2.922522 1_554
Cl12 Nd4 3.104130 1_555
Cl13 Nd6 2.924950 1_555
Cl13 Na1 2.982276 1_555
Cl13 Nd4 2.989441 1_555
Cl13 Nd5 3.122320 1_555
Cl13 Na2 3.332829 1_555
Cl14 Na3 2.875126 1_555
Cl14 Nd6 2.897762 1_555
Cl14 Nd4 2.916701 1_555
Cl14 Nd7 3.163668 1_565
Cl15 Nd3 2.894092 1_655
Cl15 Nd5 2.913915 1_555
Cl15 Na1 2.931147 1_555
Cl15 Nd2 3.089921 1_555
Cl16 Nd5 2.879703 1_555
Cl16 Na4 2.908510 1_665
Cl16 Nd3 2.936681 1_655
Cl16 Nd4 3.169899 1_555
Cl17 Nd8 2.889255 1_555
Cl17 Na3 2.912972 1_455
Cl17 Nd6 2.913604 1_555
Cl17 Nd5 3.161099 1_455
Cl18 Na2 2.838118 1_555
Cl18 Nd3 2.906693 1_555
Cl18 Nd5 2.916304 1_455
Cl18 Nd6 3.104815 1_555
Cl19 Nd8 2.925973 1_555
Cl19 Nd6 2.956867 1_555
Cl19 Na4 3.031008 1_555
Cl19 Nd7 3.134945 1_555
Cl19 Na2 3.379016 1_555
Cl20 Na5 2.866101 1_555
Cl20 Nd8 2.872677 1_555
Cl20 Nd6 2.926552 1_555
Cl20 Nd9 3.120404 1_565
Cl21 Na2 2.866101 1_555
Cl21 Nd5 2.872677 1_555
Cl21 Nd7 2.926552 1_555
Cl21 Nd4 3.120404 1_545
Cl22 Nd5 2.925973 1_555
Cl22 Nd7 2.956867 1_555
Cl22 Na3 3.031008 1_555
Cl22 Nd6 3.134945 1_555
Cl22 Na5 3.379016 1_555
Cl23 Na5 2.838118 1_555
Cl23 Nd0 2.906693 1_555
Cl23 Nd8 2.916304 1_655
Cl23 Nd7 3.104815 1_555
Cl24 Nd5 2.889255 1_555
Cl24 Na4 2.912972 1_655
Cl24 Nd7 2.913604 1_555
Cl24 Nd8 3.161099 1_655
Cl25 Nd8 2.879703 1_555
Cl25 Na3 2.908510 1_445
Cl25 Nd0 2.936681 1_455
Cl25 Nd9 3.169899 1_555
Cl26 Na4 2.875126 1_555
Cl26 Nd7 2.897762 1_555
Cl26 Nd9 2.916701 1_555
Cl26 Nd6 3.163668 1_545
Cl27 Nd7 2.924950 1_555
Cl27 Na0 2.982276 1_555
Cl27 Nd9 2.989441 1_555
Cl27 Nd8 3.122320 1_555
Cl27 Na5 3.332829 1_555
Cl28 Nd9 2.925673 1_555
Cl28 Nd7 2.932952 1_555
Cl28 Na3 3.002976 1_545
Cl28 Nd0 3.182183 1_555
Cl28 Na5 3.354184 1_545
Cl29 Nd1 2.921823 1_555
Cl29 Nd9 2.973884 1_565
Cl29 Na3 2.975587 1_455
Cl29 Nd8 3.172846 1_555
Cl29 Na5 3.306007 1_455
