# generated using pymatgen
data_Ba2PrRuO6
_symmetry_space_group_name_H-M   'P 1'
_cell_length_a   6.05868076
_cell_length_b   6.01903588
_cell_length_c   8.52042875
_cell_angle_alpha   89.99391899
_cell_angle_beta   89.79558707
_cell_angle_gamma   89.99579862
_symmetry_Int_Tables_number   1
_chemical_formula_structural   Ba2PrRuO6
_chemical_formula_sum   'Ba4 Pr2 Ru2 O12'
_cell_volume   310.71604751
_cell_formula_units_Z   2
loop_
 _symmetry_equiv_pos_site_id
 _symmetry_equiv_pos_as_xyz
  1  'x, y, z'
loop_
 _atom_site_type_symbol
 _atom_site_label
 _atom_site_symmetry_multiplicity
 _atom_site_fract_x
 _atom_site_fract_y
 _atom_site_fract_z
 _atom_site_occupancy
  Ba  Ba0  1  0.49838218  0.50268775  0.74893682  1
  Ba  Ba1  1  0.00148384  0.00258744  0.75099958  1
  Ba  Ba2  1  0.50146277  0.49741782  0.25099963  1
  Ba  Ba3  1  -0.00163399  -0.00272042  0.24893953  1
  Pr  Pr0  1  0.00012427  0.50007967  0.50004911  1
  Pr  Pr1  1  0.50012955  -0.00006223  0.00005168  1
  Ru  Ru0  1  0.00003828  0.49996012  -0.00000059  1
  Ru  Ru1  1  0.50003844  0.00003884  0.50000279  1
  O  O0  1  0.73267916  0.22358295  0.47834649  1
  O  O1  1  0.76746350  0.72356555  0.02169580  1
  O  O2  1  0.26743471  0.77651115  0.52164676  1
  O  O3  1  0.23262375  0.27633540  0.97829380  1
  O  O4  1  0.72137012  0.76502987  0.47839777  1
  O  O5  1  0.77865231  0.26509388  0.02152901  1
  O  O6  1  0.27858240  0.23488157  0.52158544  1
  O  O7  1  0.22129564  0.73501790  0.97844938  1
  O  O8  1  0.54125473  -0.00128404  0.72774869  1
  O  O9  1  0.95869810  0.49884414  0.77228995  1
  O  O10  1  0.45869475  0.00126254  0.27229263  1
  O  O11  1  0.04123148  0.50117310  0.22774674  1
loop_
_geom_bond_atom_site_label_1
_geom_bond_atom_site_label_2
_geom_bond_distance
_geom_bond_site_symmetry_2
Ba0 O9 2.796798 1_555
Ba0 O6 2.853702 1_555
Ba0 O3 2.871419 1_555
Ba0 O2 2.905692 1_555
Ba0 O7 2.928276 1_555
Ba0 O8 3.002266 1_565
Ba0 O8 3.049818 1_555
Ba0 O4 3.099914 1_555
Ba0 O1 3.139171 1_556
Ba0 O0 3.182755 1_555
Ba0 O5 3.217163 1_556
Ba0 O9 3.275197 1_455
Ba1 O8 2.796214 1_455
Ba1 O7 2.853160 1_545
Ba1 O2 2.871342 1_545
Ba1 O3 2.906372 1_555
Ba1 O6 2.927575 1_555
Ba1 O9 3.003641 1_455
Ba1 O9 3.048457 1_445
Ba1 O5 3.100096 1_456
Ba1 O0 3.137616 1_455
Ba1 O1 3.182253 1_446
Ba1 O4 3.216953 1_445
Ba1 O8 3.275670 1_555
Ba2 O11 2.796219 1_555
Ba2 O4 2.853619 1_555
Ba2 O1 2.871347 1_555
Ba2 O0 2.906843 1_555
Ba2 O5 2.928377 1_555
Ba2 O10 3.003026 1_555
Ba2 O10 3.049057 1_565
Ba2 O6 3.100523 1_555
Ba2 O3 3.138591 1_554
Ba2 O2 3.182347 1_555
Ba2 O7 3.216590 1_554
Ba2 O11 3.275656 1_655
Ba3 O10 2.796887 1_555
Ba3 O5 2.853485 1_455
Ba3 O0 2.871410 1_455
Ba3 O1 2.905272 1_445
Ba3 O4 2.927342 1_445
Ba3 O11 3.002734 1_545
Ba3 O11 3.049348 1_555
Ba3 O7 3.099354 1_544
Ba3 O2 3.138215 1_545
Ba3 O3 3.182687 1_554
Ba3 O6 3.217674 1_555
Ba3 O10 3.275122 1_455
O0 Ru1 1.956916 1_555
O0 Pr0 2.330682 1_655
O1 Ru0 1.956798 1_655
O1 Pr1 2.329441 1_565
O2 Ru1 1.956677 1_565
O2 Pr0 2.329761 1_555
O3 Ru0 1.956932 1_556
O3 Pr1 2.330353 1_556
O4 Ru1 1.957297 1_565
O4 Pr0 2.330522 1_655
O5 Ru0 1.956957 1_655
O5 Pr1 2.330430 1_555
O6 Ru1 1.957073 1_555
O6 Pr0 2.330164 1_555
O7 Ru0 1.957272 1_556
O7 Pr1 2.330910 1_566
O8 Ru1 1.957393 1_555
O8 Pr1 2.332607 1_556
O9 Ru0 1.957181 1_656
O9 Pr0 2.332269 1_655
O10 Ru1 1.957190 1_555
O10 Pr1 2.332278 1_555
O11 Ru0 1.957386 1_555
O11 Pr0 2.332587 1_555
