# generated using pymatgen
data_Zr10HN8
_symmetry_space_group_name_H-M   'P 1'
_cell_length_a   5.60663600
_cell_length_b   5.60693533
_cell_length_c   8.58355344
_cell_angle_alpha   71.47731248
_cell_angle_beta   71.52798489
_cell_angle_gamma   80.14325857
_symmetry_Int_Tables_number   1
_chemical_formula_structural   Zr10HN8
_chemical_formula_sum   'Zr10 H1 N8'
_cell_volume   241.92561368
_cell_formula_units_Z   1
loop_
 _symmetry_equiv_pos_site_id
 _symmetry_equiv_pos_as_xyz
  1  'x, y, z'
loop_
 _atom_site_type_symbol
 _atom_site_label
 _atom_site_symmetry_multiplicity
 _atom_site_fract_x
 _atom_site_fract_y
 _atom_site_fract_z
 _atom_site_occupancy
  Zr  Zr0  1  0.63867462  0.25488668  0.94778325  1
  Zr  Zr1  1  0.95055236  0.73984060  0.84618543  1
  Zr  Zr2  1  0.04944764  0.26015940  0.15381457  1
  Zr  Zr3  1  0.36132538  0.74511332  0.05221675  1
  Zr  Zr4  1  0.45198140  0.24372407  0.34686089  1
  Zr  Zr5  1  0.75050523  0.75109068  0.25057056  1
  Zr  Zr6  1  0.85709370  0.24570054  0.55239099  1
  Zr  Zr7  1  0.14290630  0.75429946  0.44760901  1
  Zr  Zr8  1  0.24949477  0.24890932  0.74942944  1
  Zr  Zr9  1  0.54801860  0.75627593  0.65313911  1
  H  H0  1  0.50000000  0.50000000  0.50000000  1
  N  N0  1  0.60140902  0.99705649  0.80092407  1
  N  N1  1  0.29917665  0.50098612  0.90185642  1
  N  N2  1  0.39859098  0.00294351  0.19907593  1
  N  N3  1  0.70082335  0.49901388  0.09814358  1
  N  N4  1  0.80233247  0.00124353  0.40033954  1
  N  N5  1  0.10227799  0.49939369  0.29962721  1
  N  N6  1  0.19766753  0.99875647  0.59966046  1
  N  N7  1  0.89772201  0.50060631  0.70037279  1
loop_
_geom_bond_atom_site_label_1
_geom_bond_atom_site_label_2
_geom_bond_distance
_geom_bond_site_symmetry_2
H0 Zr5 2.322685 1_555
H0 Zr8 2.322685 1_555
H0 Zr9 2.328486 1_555
H0 Zr4 2.328486 1_555
H0 Zr6 2.330111 1_555
H0 Zr7 2.330111 1_555
N0 Zr9 2.233479 1_555
N0 Zr0 2.269518 1_565
N0 Zr1 2.285194 1_555
N0 Zr8 2.298817 1_565
N0 Zr3 2.309802 1_556
N0 Zr6 2.325143 1_565
N1 Zr0 2.216567 1_555
N1 Zr1 2.265272 1_455
N1 Zr3 2.287240 1_556
N1 Zr8 2.308180 1_555
N1 Zr2 2.309539 1_556
N1 Zr9 2.325470 1_555
N2 Zr4 2.233479 1_555
N2 Zr3 2.269518 1_545
N2 Zr2 2.285194 1_555
N2 Zr5 2.298817 1_545
N2 Zr0 2.309802 1_554
N2 Zr7 2.325143 1_545
N3 Zr3 2.216567 1_555
N3 Zr2 2.265272 1_655
N3 Zr0 2.287240 1_554
N3 Zr5 2.308180 1_555
N3 Zr1 2.309539 1_554
N3 Zr4 2.325470 1_555
N4 Zr7 2.226356 1_645
N4 Zr4 2.275547 1_555
N4 Zr6 2.282751 1_555
N4 Zr5 2.286089 1_545
N4 Zr2 2.320304 1_655
N4 Zr9 2.333324 1_545
N5 Zr2 2.211586 1_555
N5 Zr7 2.270752 1_555
N5 Zr4 2.288170 1_555
N5 Zr5 2.292272 1_455
N5 Zr3 2.321447 1_555
N5 Zr6 2.332154 1_455
N6 Zr6 2.226356 1_465
N6 Zr9 2.275547 1_555
N6 Zr7 2.282751 1_555
N6 Zr8 2.286089 1_565
N6 Zr1 2.320304 1_455
N6 Zr4 2.333324 1_565
N7 Zr1 2.211586 1_555
N7 Zr6 2.270752 1_555
N7 Zr9 2.288170 1_555
N7 Zr8 2.292272 1_655
N7 Zr0 2.321447 1_555
N7 Zr7 2.332154 1_655
