# generated using pymatgen
data_LiSnP2O7
_symmetry_space_group_name_H-M   'P 1'
_cell_length_a   5.18520100
_cell_length_b   8.92893600
_cell_length_c   14.44009236
_cell_angle_alpha   63.93812107
_cell_angle_beta   90.00000000
_cell_angle_gamma   90.00000000
_symmetry_Int_Tables_number   1
_chemical_formula_structural   LiSnP2O7
_chemical_formula_sum   'Li4 Sn4 P8 O28'
_cell_volume   600.57380700
_cell_formula_units_Z   4
loop_
 _symmetry_equiv_pos_site_id
 _symmetry_equiv_pos_as_xyz
  1  'x, y, z'
loop_
 _atom_site_type_symbol
 _atom_site_label
 _atom_site_symmetry_multiplicity
 _atom_site_fract_x
 _atom_site_fract_y
 _atom_site_fract_z
 _atom_site_occupancy
  Li  Li0  1  0.46786300  0.50489800  0.57987900  1
  Li  Li1  1  0.99633000  0.92253300  0.70186500  1
  Li  Li2  1  0.53213700  0.50489800  0.07987900  1
  Li  Li3  1  0.00367000  0.92253300  0.20186500  1
  Sn  Sn0  1  0.00277600  0.77154500  0.46951800  1
  Sn  Sn1  1  0.99722400  0.77154500  0.96951800  1
  Sn  Sn2  1  0.48924300  0.22543600  0.01838800  1
  Sn  Sn3  1  0.51075700  0.22543600  0.51838800  1
  P  P0  1  0.51061200  0.80395900  0.12506400  1
  P  P1  1  0.48938800  0.80395900  0.62506400  1
  P  P2  1  0.97843700  0.31100000  0.64882300  1
  P  P3  1  0.51246700  0.68863700  0.34817300  1
  P  P4  1  0.01047000  0.19095300  0.37923200  1
  P  P5  1  0.02156300  0.31100000  0.14882300  1
  P  P6  1  0.98953000  0.19095300  0.87923200  1
  P  P7  1  0.48753300  0.68863700  0.84817300  1
  O  O0  1  0.20045000  0.83586200  0.60886900  1
  O  O1  1  0.09949200  0.47687300  0.57701900  1
  O  O2  1  0.60399500  0.71638900  0.56336500  1
  O  O3  1  0.48265800  0.51482500  0.43776500  1
  O  O4  1  0.64307900  0.96347400  0.61007000  1
  O  O5  1  0.29912400  0.17498000  0.40875800  1
  O  O6  1  0.35692100  0.96347400  0.11007000  1
  O  O7  1  0.99731200  0.31651500  0.25915800  1
  O  O8  1  0.00268800  0.31651500  0.75915800  1
  O  O9  1  0.21077000  0.75756600  0.83900900  1
  O  O10  1  0.10972700  0.02715000  0.89159500  1
  O  O11  1  0.79955000  0.83586200  0.10886900  1
  O  O12  1  0.39600500  0.71638900  0.06336500  1
  O  O13  1  0.69036900  0.81395500  0.84901600  1
  O  O14  1  0.14500100  0.27756900  0.93237300  1
  O  O15  1  0.88009900  0.16050100  0.14831800  1
  O  O16  1  0.68224700  0.30289800  0.63181200  1
  O  O17  1  0.90050800  0.47687300  0.07701900  1
  O  O18  1  0.89027300  0.02715000  0.39159500  1
  O  O19  1  0.46000500  0.66786300  0.24361500  1
  O  O20  1  0.51734200  0.51482500  0.93776500  1
  O  O21  1  0.78923000  0.75756600  0.33900900  1
  O  O22  1  0.53999500  0.66786300  0.74361500  1
  O  O23  1  0.30963100  0.81395500  0.34901600  1
  O  O24  1  0.11990100  0.16050100  0.64831800  1
  O  O25  1  0.85499900  0.27756900  0.43237300  1
  O  O26  1  0.70087600  0.17498000  0.90875800  1
  O  O27  1  0.31775300  0.30289800  0.13181200  1
loop_
_geom_bond_atom_site_label_1
_geom_bond_atom_site_label_2
_geom_bond_distance
_geom_bond_site_symmetry_2
Li0 O1 1.929197 1_555
Li0 O2 1.930143 1_555
Li0 O16 1.965382 1_555
Li0 O3 2.016231 1_555
Li1 O24 2.019795 1_665
Li1 O0 2.106076 1_655
Li1 O9 2.182827 1_655
Li1 O4 2.195433 1_555
Li1 O13 2.482289 1_555
Li2 O17 1.929197 1_555
Li2 O12 1.930143 1_555
Li2 O27 1.965382 1_555
Li2 O20 2.016231 1_554
Li3 O15 2.019795 1_465
Li3 O11 2.106076 1_455
Li3 O21 2.182827 1_455
Li3 O6 2.195433 1_555
Li3 O23 2.482289 1_555
O0 P1 1.523781 1_555
O0 Sn0 2.538681 1_555
O1 P2 1.520948 1_455
O1 Sn0 2.448489 1_555
O2 P1 1.539615 1_555
O2 Sn0 2.401708 1_655
O3 P3 1.530343 1_555
O3 Sn3 2.325950 1_555
O4 P1 1.561927 1_555
O4 Sn3 2.230157 1_565
O5 P4 1.545603 1_555
O5 Sn3 2.130715 1_555
O6 P0 1.561927 1_555
O6 Sn2 2.230157 1_565
O7 P4 1.599954 1_655
O7 P5 1.620374 1_655
O8 P6 1.599954 1_455
O8 P2 1.620374 1_455
O9 P7 1.544077 1_555
O9 Sn1 2.236048 1_455
O10 P6 1.526446 1_455
O10 Sn1 2.135112 1_445
O11 P0 1.523781 1_555
O11 Sn1 2.538681 1_554
O12 P0 1.539615 1_555
O12 Sn1 2.401708 1_454
O13 P7 1.539594 1_555
O13 Sn1 2.263590 1_555
O14 P6 1.535682 1_455
O14 Sn2 2.106531 1_556
O15 P5 1.533787 1_655
O15 Sn2 2.647230 1_555
O16 P2 1.562012 1_555
O16 Sn3 2.224194 1_555
O17 P5 1.520948 1_655
O17 Sn1 2.448489 1_554
O18 P4 1.526446 1_655
O18 Sn0 2.135112 1_645
O19 P3 1.622980 1_555
O19 P0 1.627332 1_555
O20 P7 1.530343 1_555
O20 Sn2 2.325950 1_556
O21 P3 1.544077 1_555
O21 Sn0 2.236048 1_655
O22 P7 1.622980 1_555
O22 P1 1.627332 1_555
O23 P3 1.539594 1_555
O23 Sn0 2.263590 1_555
O24 P2 1.533787 1_455
O24 Sn3 2.647230 1_555
O25 P4 1.535682 1_655
O25 Sn3 2.106531 1_555
O26 P6 1.545603 1_555
O26 Sn2 2.130715 1_556
O27 P5 1.562012 1_555
O27 Sn2 2.224194 1_555
