# generated using pymatgen
data_Ti(PS3)2
_symmetry_space_group_name_H-M   'P 1'
_cell_length_a   12.09613011
_cell_length_b   11.39648981
_cell_length_c   7.05402497
_cell_angle_alpha   78.03847806
_cell_angle_beta   67.17631421
_cell_angle_gamma   34.78520773
_symmetry_Int_Tables_number   1
_chemical_formula_structural   Ti(PS3)2
_chemical_formula_sum   'Ti2 P4 S12'
_cell_volume   499.74078734
_cell_formula_units_Z   2
loop_
 _symmetry_equiv_pos_site_id
 _symmetry_equiv_pos_as_xyz
  1  'x, y, z'
loop_
 _atom_site_type_symbol
 _atom_site_label
 _atom_site_symmetry_multiplicity
 _atom_site_fract_x
 _atom_site_fract_y
 _atom_site_fract_z
 _atom_site_occupancy
  Ti  Ti0  1  0.84721300  0.85120500  0.15140800  1
  Ti  Ti1  1  0.10129800  0.10210400  0.40547700  1
  P  P0  1  0.52421400  0.85057900  0.35081200  1
  P  P1  1  0.89167300  0.98087900  0.74058400  1
  P  P2  1  0.97332100  0.89796300  0.39855200  1
  P  P3  1  0.85045700  0.52490900  0.27241500  1
  S  S0  1  0.12852800  0.72426100  0.82815700  1
  S  S1  1  0.72337000  0.13232900  0.32456200  1
  S  S2  1  0.53516500  0.01102300  0.42041300  1
  S  S3  1  0.01110000  0.52937700  0.04033800  1
  S  S4  1  0.20390100  0.83577700  0.24387900  1
  S  S5  1  0.83058900  0.20977600  0.71263400  1
  S  S6  1  0.91562000  0.31562200  0.16144300  1
  S  S7  1  0.30714500  0.92009600  0.61467600  1
  S  S8  1  0.64280300  0.08942500  0.94118200  1
  S  S9  1  0.08977300  0.64081400  0.33584300  1
  S  S10  1  0.42068300  0.92825400  0.11758800  1
  S  S11  1  0.91692200  0.43469600  0.53095900  1
loop_
_geom_bond_atom_site_label_1
_geom_bond_atom_site_label_2
_geom_bond_distance
_geom_bond_site_symmetry_2
P0 S10 2.057242 1_555
P0 S7 2.095048 1_555
P0 S2 2.102957 1_565
P0 P3 2.180246 1_555
P1 S8 1.974544 1_565
P1 S0 2.001001 1_655
P1 S5 2.030646 1_565
P2 S1 1.982234 1_565
P2 S9 2.010335 1_655
P2 S4 2.045664 1_655
P3 S11 2.008012 1_555
P3 S3 2.029427 1_655
P3 S6 2.032263 1_555
S0 Ti0 2.476513 1_456
S1 Ti0 2.513881 1_545
S2 Ti0 2.397687 1_545
S3 Ti0 2.457432 1_455
S4 Ti1 2.490205 1_565
S5 Ti1 2.433226 1_655
S6 Ti1 2.492962 1_655
S7 Ti1 2.403788 1_565
S8 Ti0 2.415110 1_546
S9 Ti0 2.482527 1_455
S10 Ti1 2.446041 1_565
S11 Ti1 2.469430 1_655
