# generated using pymatgen
data_Ce10Se19
_symmetry_space_group_name_H-M   'P 1'
_cell_length_a   9.39427300
_cell_length_b   9.39427300
_cell_length_c   16.66787600
_cell_angle_alpha   90.00000000
_cell_angle_beta   90.00000000
_cell_angle_gamma   90.00000000
_symmetry_Int_Tables_number   1
_chemical_formula_structural   Ce10Se19
_chemical_formula_sum   'Ce20 Se38'
_cell_volume   1470.97947984
_cell_formula_units_Z   2
loop_
 _symmetry_equiv_pos_site_id
 _symmetry_equiv_pos_as_xyz
  1  'x, y, z'
loop_
 _atom_site_type_symbol
 _atom_site_label
 _atom_site_symmetry_multiplicity
 _atom_site_fract_x
 _atom_site_fract_y
 _atom_site_fract_z
 _atom_site_occupancy
  Ce  Ce0  1  0.25000000  0.75000000  0.38107800  1
  Ce  Ce1  1  0.44843700  0.14708300  0.39233800  1
  Ce  Ce2  1  0.25000000  0.75000000  0.88107800  1
  Ce  Ce3  1  0.75000000  0.25000000  0.11892200  1
  Ce  Ce4  1  0.35291700  0.44843700  0.10766200  1
  Ce  Ce5  1  0.45709000  0.15095200  0.88005400  1
  Ce  Ce6  1  0.84904800  0.95709000  0.38005400  1
  Ce  Ce7  1  0.05156300  0.35291700  0.39233800  1
  Ce  Ce8  1  0.34904800  0.45709000  0.61994600  1
  Ce  Ce9  1  0.55156300  0.85291700  0.60766200  1
  Ce  Ce10  1  0.15095200  0.04291000  0.61994600  1
  Ce  Ce11  1  0.04291000  0.34904800  0.88005400  1
  Ce  Ce12  1  0.94843700  0.64708300  0.60766200  1
  Ce  Ce13  1  0.85291700  0.94843700  0.89233800  1
  Ce  Ce14  1  0.65095200  0.54291000  0.38005400  1
  Ce  Ce15  1  0.95709000  0.65095200  0.11994600  1
  Ce  Ce16  1  0.75000000  0.25000000  0.61892200  1
  Ce  Ce17  1  0.54291000  0.84904800  0.11994600  1
  Ce  Ce18  1  0.14708300  0.05156300  0.10766200  1
  Ce  Ce19  1  0.64708300  0.55156300  0.89233800  1
  Se  Se0  1  0.94141100  0.13078100  0.75009600  1
  Se  Se1  1  0.75000000  0.25000000  0.93416100  1
  Se  Se2  1  0.02565700  0.82862200  0.74978900  1
  Se  Se3  1  0.47434300  0.67137800  0.74978900  1
  Se  Se4  1  0.05858900  0.86921900  0.24990400  1
  Se  Se5  1  0.36921900  0.94141100  0.74990400  1
  Se  Se6  1  0.82862200  0.47434300  0.75021100  1
  Se  Se7  1  0.25000000  0.75000000  0.56583900  1
  Se  Se8  1  0.64993800  0.55352400  0.56514600  1
  Se  Se9  1  0.25000000  0.75000000  0.06583900  1
  Se  Se10  1  0.67137800  0.02565700  0.75021100  1
  Se  Se11  1  0.86921900  0.44141100  0.25009600  1
  Se  Se12  1  0.05352400  0.35006200  0.06514600  1
  Se  Se13  1  0.97434300  0.17137800  0.25021100  1
  Se  Se14  1  0.15210000  0.04879200  0.92737100  1
  Se  Se15  1  0.95120800  0.65210000  0.42737100  1
  Se  Se16  1  0.32862200  0.97434300  0.24978900  1
  Se  Se17  1  0.54879200  0.84790000  0.42737100  1
  Se  Se18  1  0.34790000  0.45120800  0.92737100  1
  Se  Se19  1  0.13078100  0.55858900  0.74990400  1
  Se  Se20  1  0.52565700  0.32862200  0.25021100  1
  Se  Se21  1  0.04879200  0.34790000  0.57262900  1
  Se  Se22  1  0.35006200  0.44647600  0.43485400  1
  Se  Se23  1  0.84790000  0.95120800  0.07262900  1
  Se  Se24  1  0.44141100  0.63078100  0.24990400  1
  Se  Se25  1  0.25000000  0.25000000  0.75000000  1
  Se  Se26  1  0.55858900  0.36921900  0.75009600  1
  Se  Se27  1  0.45120800  0.15210000  0.57262900  1
  Se  Se28  1  0.17137800  0.52565700  0.24978900  1
  Se  Se29  1  0.94647600  0.64993800  0.93485400  1
  Se  Se30  1  0.63078100  0.05858900  0.25009600  1
  Se  Se31  1  0.65210000  0.54879200  0.07262900  1
  Se  Se32  1  0.44647600  0.14993800  0.06514600  1
  Se  Se33  1  0.55352400  0.85006200  0.93485400  1
  Se  Se34  1  0.85006200  0.94647600  0.56514600  1
  Se  Se35  1  0.14993800  0.05352400  0.43485400  1
  Se  Se36  1  0.75000000  0.25000000  0.43416100  1
  Se  Se37  1  0.75000000  0.75000000  0.25000000  1
loop_
_geom_bond_atom_site_label_1
_geom_bond_atom_site_label_2
_geom_bond_distance
_geom_bond_site_symmetry_2
Ce0 Se24 3.044349 1_555
Ce0 Se4 3.044349 1_555
Ce0 Se17 3.052884 1_555
Ce0 Se15 3.052884 1_455
Ce0 Se7 3.079573 1_555
Ce0 Se16 3.126650 1_555
Ce0 Se28 3.126650 1_555
Ce0 Se35 3.133279 1_565
Ce0 Se22 3.133279 1_555
Ce1 Se27 3.005550 1_555
Ce1 Se20 3.007769 1_555
Ce1 Se17 3.021470 1_545
Ce1 Se35 3.022932 1_555
Ce1 Se30 3.040804 1_555
Ce1 Se22 3.044153 1_555
Ce1 Se36 3.073500 1_555
Ce1 Se16 3.089598 1_545
Ce2 Se5 3.044349 1_555
Ce2 Se19 3.044349 1_555
Ce2 Se14 3.052884 1_565
Ce2 Se18 3.052884 1_555
Ce2 Se9 3.079573 1_556
Ce2 Se3 3.126650 1_555
Ce2 Se2 3.126650 1_555
Ce2 Se33 3.133279 1_555
Ce2 Se29 3.133279 1_455
Ce3 Se11 3.044349 1_555
Ce3 Se30 3.044349 1_555
Ce3 Se31 3.052884 1_555
Ce3 Se23 3.052884 1_545
Ce3 Se1 3.079573 1_554
Ce3 Se13 3.126650 1_555
Ce3 Se20 3.126650 1_555
Ce3 Se12 3.133279 1_655
Ce3 Se32 3.133279 1_555
Ce4 Se18 3.005550 1_554
Ce4 Se28 3.007769 1_555
Ce4 Se31 3.021470 1_555
Ce4 Se32 3.022932 1_555
Ce4 Se24 3.040804 1_555
Ce4 Se12 3.044153 1_555
Ce4 Se9 3.073500 1_555
Ce4 Se20 3.089598 1_555
Ce5 Se1 3.041522 1_555
Ce5 Se5 3.043407 1_545
Ce5 Se25 3.057718 1_555
Ce5 Se32 3.086716 1_556
Ce5 Se18 3.103299 1_555
Ce5 Se33 3.105626 1_545
Ce5 Se14 3.122852 1_555
Ce5 Se26 3.131399 1_555
Ce5 Se10 3.181469 1_555
Ce6 Se36 3.041522 1_565
Ce6 Se4 3.043407 1_655
Ce6 Se37 3.057718 1_555
Ce6 Se34 3.086716 1_555
Ce6 Se17 3.103299 1_555
Ce6 Se35 3.105626 1_665
Ce6 Se15 3.122852 1_555
Ce6 Se30 3.131399 1_565
Ce6 Se13 3.181469 1_565
Ce7 Se21 3.005550 1_555
Ce7 Se13 3.007769 1_455
Ce7 Se15 3.021470 1_455
Ce7 Se22 3.022932 1_555
Ce7 Se11 3.040804 1_455
Ce7 Se35 3.044153 1_555
Ce7 Se36 3.073500 1_455
Ce7 Se28 3.089598 1_555
Ce8 Se7 3.041522 1_555
Ce8 Se26 3.043407 1_555
Ce8 Se25 3.057718 1_555
Ce8 Se22 3.086716 1_555
Ce8 Se21 3.103299 1_555
Ce8 Se8 3.105626 1_555
Ce8 Se27 3.122852 1_555
Ce8 Se19 3.131399 1_555
Ce8 Se3 3.181469 1_555
Ce9 Se17 3.005550 1_555
Ce9 Se3 3.007769 1_555
Ce9 Se27 3.021470 1_565
Ce9 Se34 3.022932 1_555
Ce9 Se5 3.040804 1_555
Ce9 Se8 3.044153 1_555
Ce9 Se7 3.073500 1_555
Ce9 Se10 3.089598 1_565
Ce10 Se7 3.041522 1_545
Ce10 Se0 3.043407 1_455
Ce10 Se25 3.057718 1_555
Ce10 Se35 3.086716 1_555
Ce10 Se27 3.103299 1_555
Ce10 Se34 3.105626 1_445
Ce10 Se21 3.122852 1_555
Ce10 Se5 3.131399 1_545
Ce10 Se2 3.181469 1_545
Ce11 Se1 3.041522 1_455
Ce11 Se19 3.043407 1_555
Ce11 Se25 3.057718 1_555
Ce11 Se12 3.086716 1_556
Ce11 Se14 3.103299 1_555
Ce11 Se29 3.105626 1_455
Ce11 Se18 3.122852 1_555
Ce11 Se0 3.131399 1_455
Ce11 Se6 3.181469 1_455
Ce12 Se15 3.005550 1_555
Ce12 Se2 3.007769 1_655
Ce12 Se21 3.021470 1_655
Ce12 Se8 3.022932 1_555
Ce12 Se19 3.040804 1_655
Ce12 Se34 3.044153 1_555
Ce12 Se7 3.073500 1_655
Ce12 Se6 3.089598 1_555
Ce13 Se23 3.005550 1_556
Ce13 Se10 3.007769 1_565
Ce13 Se14 3.021470 1_665
Ce13 Se29 3.022932 1_555
Ce13 Se0 3.040804 1_565
Ce13 Se33 3.044153 1_555
Ce13 Se1 3.073500 1_565
Ce13 Se2 3.089598 1_655
Ce14 Se36 3.041522 1_555
Ce14 Se24 3.043407 1_555
Ce14 Se37 3.057718 1_555
Ce14 Se8 3.086716 1_555
Ce14 Se15 3.103299 1_555
Ce14 Se22 3.105626 1_555
Ce14 Se17 3.122852 1_555
Ce14 Se11 3.131399 1_555
Ce14 Se20 3.181469 1_555
Ce15 Se9 3.041522 1_655
Ce15 Se11 3.043407 1_555
Ce15 Se37 3.057718 1_555
Ce15 Se29 3.086716 1_554
Ce15 Se23 3.103299 1_555
Ce15 Se12 3.105626 1_655
Ce15 Se31 3.122852 1_555
Ce15 Se4 3.131399 1_655
Ce15 Se28 3.181469 1_655
Ce16 Se26 3.044349 1_555
Ce16 Se0 3.044349 1_555
Ce16 Se21 3.052884 1_655
Ce16 Se27 3.052884 1_555
Ce16 Se36 3.079573 1_555
Ce16 Se6 3.126650 1_555
Ce16 Se10 3.126650 1_555
Ce16 Se8 3.133279 1_555
Ce16 Se34 3.133279 1_545
Ce17 Se9 3.041522 1_555
Ce17 Se30 3.043407 1_565
Ce17 Se37 3.057718 1_555
Ce17 Se33 3.086716 1_554
Ce17 Se31 3.103299 1_555
Ce17 Se32 3.105626 1_565
Ce17 Se23 3.122852 1_555
Ce17 Se24 3.131399 1_555
Ce17 Se16 3.181469 1_555
Ce18 Se14 3.005550 1_554
Ce18 Se16 3.007769 1_545
Ce18 Se23 3.021470 1_445
Ce18 Se12 3.022932 1_555
Ce18 Se4 3.040804 1_545
Ce18 Se32 3.044153 1_555
Ce18 Se9 3.073500 1_545
Ce18 Se13 3.089598 1_455
Ce19 Se31 3.005550 1_556
Ce19 Se6 3.007769 1_555
Ce19 Se18 3.021470 1_555
Ce19 Se33 3.022932 1_555
Ce19 Se26 3.040804 1_555
Ce19 Se29 3.044153 1_555
Ce19 Se1 3.073500 1_555
Ce19 Se3 3.089598 1_555
Se0 Se10 2.722215 1_555
Se0 Se2 2.946835 1_645
Se3 Se5 2.722215 1_555
Se10 Se5 2.946835 1_545
Se11 Se13 2.722215 1_555
Se11 Se28 2.946835 1_655
Se13 Se4 2.946835 1_645
Se16 Se4 2.722215 1_555
Se16 Se30 2.946835 1_565
Se19 Se2 2.722215 1_555
Se19 Se6 2.946835 1_455
Se20 Se30 2.722215 1_555
Se20 Se24 2.946835 1_555
Se24 Se28 2.722215 1_555
Se26 Se6 2.722215 1_555
Se26 Se3 2.946835 1_555
