# generated using pymatgen
data_K3Nb2CuSe12
_symmetry_space_group_name_H-M   'P 1'
_cell_length_a   13.90756700
_cell_length_b   9.70771100
_cell_length_c   17.68974433
_cell_angle_alpha   61.64736901
_cell_angle_beta   90.00000000
_cell_angle_gamma   90.00000000
_symmetry_Int_Tables_number   1
_chemical_formula_structural   K3Nb2CuSe12
_chemical_formula_sum   'K12 Nb8 Cu4 Se48'
_cell_volume   2101.80637331
_cell_formula_units_Z   4
loop_
 _symmetry_equiv_pos_site_id
 _symmetry_equiv_pos_as_xyz
  1  'x, y, z'
loop_
 _atom_site_type_symbol
 _atom_site_label
 _atom_site_symmetry_multiplicity
 _atom_site_fract_x
 _atom_site_fract_y
 _atom_site_fract_z
 _atom_site_occupancy
  K  K0  1  0.40987900  0.64154800  0.27174900  1
  K  K1  1  0.90987900  0.35845200  0.22825100  1
  K  K2  1  0.59012100  0.35845200  0.72825100  1
  K  K3  1  0.09012100  0.64154800  0.77174900  1
  K  K4  1  0.10265700  0.83642000  0.15799800  1
  K  K5  1  0.60265700  0.16358000  0.34200200  1
  K  K6  1  0.89734300  0.16358000  0.84200200  1
  K  K7  1  0.39734300  0.83642000  0.65799800  1
  K  K8  1  0.91648400  0.73660600  0.50621000  1
  K  K9  1  0.08351600  0.26339400  0.49379000  1
  K  K10  1  0.41648400  0.26339400  0.99379000  1
  K  K11  1  0.58351600  0.73660600  0.00621000  1
  Nb  Nb0  1  0.27558400  0.91027900  0.92225000  1
  Nb  Nb1  1  0.27490300  0.29025200  0.22325700  1
  Nb  Nb2  1  0.77490300  0.70974800  0.27674300  1
  Nb  Nb3  1  0.72509700  0.70974800  0.77674300  1
  Nb  Nb4  1  0.22509700  0.29025200  0.72325700  1
  Nb  Nb5  1  0.22441600  0.91027900  0.42225000  1
  Nb  Nb6  1  0.72441600  0.08972100  0.07775000  1
  Nb  Nb7  1  0.77558400  0.08972100  0.57775000  1
  Cu  Cu0  1  0.19594500  0.61007200  0.57691500  1
  Cu  Cu1  1  0.69594500  0.38992800  0.92308500  1
  Cu  Cu2  1  0.80405500  0.38992800  0.42308500  1
  Cu  Cu3  1  0.30405500  0.61007200  0.07691500  1
  Se  Se0  1  0.81935400  0.99288300  0.24568500  1
  Se  Se1  1  0.41033100  0.90177900  0.43469700  1
  Se  Se2  1  0.91033100  0.09822100  0.06530300  1
  Se  Se3  1  0.58966900  0.09822100  0.56530300  1
  Se  Se4  1  0.08966900  0.90177900  0.93469700  1
  Se  Se5  1  0.23572600  0.62866200  0.43525400  1
  Se  Se6  1  0.73572600  0.37133800  0.06474600  1
  Se  Se7  1  0.76427400  0.37133800  0.56474600  1
  Se  Se8  1  0.29706100  0.43829500  0.80003100  1
  Se  Se9  1  0.79706100  0.56170500  0.69996900  1
  Se  Se10  1  0.70293900  0.56170500  0.19996900  1
  Se  Se11  1  0.20293900  0.43829500  0.30003100  1
  Se  Se12  1  0.07329600  0.42718100  0.66049000  1
  Se  Se13  1  0.57329600  0.57281900  0.83951000  1
  Se  Se14  1  0.92670400  0.57281900  0.33951000  1
  Se  Se15  1  0.42670400  0.42718100  0.16049000  1
  Se  Se16  1  0.27875300  0.16679200  0.62974800  1
  Se  Se17  1  0.77875300  0.83320800  0.87025200  1
  Se  Se18  1  0.72124700  0.83320800  0.37025200  1
  Se  Se19  1  0.22124700  0.16679200  0.12974800  1
  Se  Se20  1  0.38918100  0.50150600  0.49484900  1
  Se  Se21  1  0.88918100  0.49849400  0.00515100  1
  Se  Se22  1  0.61081900  0.49849400  0.50515100  1
  Se  Se23  1  0.11081900  0.50150600  0.99484900  1
  Se  Se24  1  0.33125100  0.86384900  0.06404600  1
  Se  Se25  1  0.83125100  0.13615100  0.43595400  1
  Se  Se26  1  0.66874900  0.13615100  0.93595400  1
  Se  Se27  1  0.16874900  0.86384900  0.56404600  1
  Se  Se28  1  0.07308600  0.88248600  0.34244400  1
  Se  Se29  1  0.89144600  0.86054900  0.67207400  1
  Se  Se30  1  0.60855400  0.86054900  0.17207400  1
  Se  Se31  1  0.10855400  0.13945100  0.32792600  1
  Se  Se32  1  0.16410500  0.15783200  0.89103800  1
  Se  Se33  1  0.66410500  0.84216800  0.60896200  1
  Se  Se34  1  0.83589500  0.84216800  0.10896200  1
  Se  Se35  1  0.33589500  0.15783200  0.39103800  1
  Se  Se36  1  0.18064600  0.00711700  0.75431500  1
  Se  Se37  1  0.68064600  0.99288300  0.74568500  1
  Se  Se38  1  0.26427400  0.62866200  0.93525400  1
  Se  Se39  1  0.31935400  0.00711700  0.25431500  1
  Se  Se40  1  0.36030100  0.49682600  0.63840200  1
  Se  Se41  1  0.86030100  0.50317400  0.86159800  1
  Se  Se42  1  0.63969900  0.50317400  0.36159800  1
  Se  Se43  1  0.13969900  0.49682600  0.13840200  1
  Se  Se44  1  0.42691400  0.88248600  0.84244400  1
  Se  Se45  1  0.92691400  0.11751400  0.65755600  1
  Se  Se46  1  0.57308600  0.11751400  0.15755600  1
  Se  Se47  1  0.39144600  0.13945100  0.82792600  1
loop_
_geom_bond_atom_site_label_1
_geom_bond_atom_site_label_2
_geom_bond_distance
_geom_bond_site_symmetry_2
K0 Se11 3.389540 1_555
K0 Se30 3.420974 1_555
K0 Se24 3.438279 1_555
K0 Se15 3.485550 1_555
K0 Se20 3.522871 1_555
K0 Se42 3.538182 1_555
K0 Se39 3.637977 1_565
K0 Se5 3.728814 1_555
K1 Se10 3.389540 1_555
K1 Se31 3.420974 1_655
K1 Se25 3.438279 1_555
K1 Se14 3.485550 1_555
K1 Se21 3.522871 1_555
K1 Se43 3.538182 1_655
K1 Se0 3.637977 1_545
K1 Se6 3.728814 1_555
K2 Se9 3.389540 1_555
K2 Se47 3.420974 1_555
K2 Se26 3.438279 1_555
K2 Se13 3.485550 1_555
K2 Se22 3.522871 1_555
K2 Se40 3.538182 1_555
K2 Se37 3.637977 1_545
K2 Se7 3.728814 1_555
K3 Se8 3.389540 1_555
K3 Se29 3.420974 1_455
K3 Se27 3.438279 1_555
K3 Se12 3.485550 1_555
K3 Se23 3.522871 1_555
K3 Se41 3.538182 1_455
K3 Se36 3.637977 1_565
K3 Se38 3.728814 1_555
K4 Se19 3.425421 1_565
K4 Se43 3.512702 1_555
K4 Se2 3.513439 1_465
K4 Se28 3.521485 1_555
K4 Se24 3.538362 1_555
K4 Se4 3.695715 1_554
K4 Se11 3.737934 1_555
K4 Se34 3.804440 1_455
K4 Se14 3.878442 1_455
K5 Se18 3.425421 1_545
K5 Se42 3.512702 1_555
K5 Se1 3.513439 1_545
K5 Se46 3.521485 1_555
K5 Se25 3.538362 1_555
K5 Se3 3.695715 1_555
K5 Se10 3.737934 1_555
K5 Se35 3.804440 1_555
K5 Se15 3.878442 1_555
K6 Se17 3.425421 1_545
K6 Se41 3.512702 1_555
K6 Se4 3.513439 1_645
K6 Se45 3.521485 1_555
K6 Se26 3.538362 1_555
K6 Se2 3.695715 1_556
K6 Se9 3.737934 1_555
K6 Se32 3.804440 1_655
K6 Se12 3.878442 1_655
K7 Se16 3.425421 1_565
K7 Se40 3.512702 1_555
K7 Se3 3.513439 1_565
K7 Se44 3.521485 1_555
K7 Se27 3.538362 1_555
K7 Se1 3.695715 1_555
K7 Se8 3.737934 1_555
K7 Se33 3.804440 1_555
K7 Se13 3.878442 1_555
K8 Se28 3.353336 1_655
K8 Se9 3.444129 1_555
K8 Se18 3.448807 1_555
K8 Se25 3.662696 1_565
K8 Se12 3.666215 1_655
K8 Se29 3.678439 1_555
K8 Se7 3.826159 1_555
K9 Se45 3.353336 1_455
K9 Se11 3.444129 1_555
K9 Se16 3.448807 1_555
K9 Se27 3.662696 1_545
K9 Se14 3.666215 1_455
K9 Se31 3.678439 1_555
K9 Se5 3.826159 1_555
K10 Se46 3.353336 1_556
K10 Se8 3.444129 1_555
K10 Se19 3.448807 1_556
K10 Se24 3.662696 1_546
K10 Se13 3.666215 1_555
K10 Se47 3.678439 1_555
K10 Se38 3.826159 1_555
K11 Se44 3.353336 1_554
K11 Se10 3.444129 1_555
K11 Se17 3.448807 1_554
K11 Se26 3.662696 1_564
K11 Se15 3.666215 1_555
K11 Se30 3.678439 1_555
K11 Se6 3.826159 1_555
Nb0 Se24 2.453662 1_556
Nb0 Se4 2.592970 1_555
Nb0 Se47 2.608504 1_565
Nb0 Se44 2.618602 1_555
Nb0 Se38 2.637103 1_555
Nb0 Se32 2.687673 1_565
Nb0 Se36 2.966447 1_565
Nb1 Se15 2.460702 1_555
Nb1 Se19 2.571476 1_555
Nb1 Se11 2.601041 1_555
Nb1 Se39 2.608545 1_555
Nb1 Se43 2.636545 1_555
Nb1 Se35 2.749049 1_555
Nb1 Se31 2.889506 1_555
Nb2 Se14 2.460702 1_555
Nb2 Se18 2.571476 1_555
Nb2 Se10 2.601041 1_555
Nb2 Se0 2.608545 1_555
Nb2 Se42 2.636545 1_555
Nb2 Se34 2.749049 1_555
Nb2 Se30 2.889506 1_555
Nb3 Se13 2.460702 1_555
Nb3 Se17 2.571476 1_555
Nb3 Se9 2.601041 1_555
Nb3 Se37 2.608545 1_555
Nb3 Se41 2.636545 1_555
Nb3 Se33 2.749049 1_555
Nb3 Se29 2.889506 1_555
Nb4 Se12 2.460702 1_555
Nb4 Se16 2.571476 1_555
Nb4 Se8 2.601041 1_555
Nb4 Se36 2.608545 1_555
Nb4 Se40 2.636545 1_555
Nb4 Se32 2.749049 1_555
Nb4 Se47 2.889506 1_555
Nb5 Se27 2.453662 1_555
Nb5 Se1 2.592970 1_555
Nb5 Se31 2.608504 1_565
Nb5 Se28 2.618602 1_555
Nb5 Se5 2.637103 1_555
Nb5 Se35 2.687673 1_565
Nb5 Se39 2.966447 1_565
Nb6 Se26 2.453662 1_554
Nb6 Se2 2.592970 1_555
Nb6 Se30 2.608504 1_545
Nb6 Se46 2.618602 1_555
Nb6 Se6 2.637103 1_555
Nb6 Se34 2.687673 1_545
Nb6 Se0 2.966447 1_545
Nb7 Se25 2.453662 1_555
Nb7 Se3 2.592970 1_555
Nb7 Se29 2.608504 1_545
Nb7 Se45 2.618602 1_555
Nb7 Se7 2.637103 1_555
Nb7 Se33 2.687673 1_545
Nb7 Se37 2.966447 1_545
Cu0 Se27 2.394055 1_555
Cu0 Se12 2.398845 1_555
Cu0 Se5 2.487749 1_555
Cu0 Se40 2.545737 1_555
Cu0 Nb5 2.926167 1_555
Cu1 Se26 2.394055 1_555
Cu1 Se13 2.398845 1_555
Cu1 Se6 2.487749 1_556
Cu1 Se41 2.545737 1_555
Cu1 Nb6 2.926167 1_556
Cu2 Se25 2.394055 1_555
Cu2 Se14 2.398845 1_555
Cu2 Se7 2.487749 1_555
Cu2 Se42 2.545737 1_555
Cu2 Nb7 2.926167 1_555
Cu3 Se24 2.394055 1_555
Cu3 Se15 2.398845 1_555
Cu3 Se38 2.487749 1_554
Cu3 Se43 2.545737 1_555
Cu3 Nb0 2.926167 1_554
Se0 Se18 2.424022 1_555
Se1 Se35 2.454272 1_565
Se2 Se34 2.454272 1_545
Se3 Se33 2.454272 1_545
Se10 Se42 2.779975 1_555
Se10 Se30 3.003870 1_555
Se10 Se34 3.043128 1_555
Se11 Se43 2.779975 1_555
Se11 Se31 3.003870 1_555
Se11 Se35 3.043128 1_555
Se16 Se36 2.424022 1_555
Se17 Se37 2.424022 1_555
Se19 Se39 2.424022 1_555
Se20 Se5 2.440055 1_555
Se20 Se40 2.549989 1_555
Se20 Se22 3.087147 1_555
Se21 Se6 2.440055 1_555
Se21 Se41 2.549989 1_554
Se21 Se23 3.087147 1_654
Se22 Se7 2.440055 1_555
Se22 Se42 2.549989 1_555
Se23 Se38 2.440055 1_555
Se23 Se43 2.549989 1_556
Se28 Se31 2.433831 1_565
Se29 Se45 2.433831 1_565
Se29 Se9 3.003870 1_555
Se30 Se46 2.433831 1_565
Se32 Se4 2.454272 1_545
Se32 Se8 3.043128 1_555
Se33 Se9 3.043128 1_555
Se40 Se8 2.779975 1_555
Se41 Se9 2.779975 1_555
Se44 Se47 2.433831 1_565
Se47 Se8 3.003870 1_555
