# generated using pymatgen
data_Tl3(V3S4)8
_symmetry_space_group_name_H-M   'P 1'
_cell_length_a   9.20270100
_cell_length_b   9.23639684
_cell_length_c   13.71032898
_cell_angle_alpha   105.92492071
_cell_angle_beta   103.30851306
_cell_angle_gamma   90.82730803
_symmetry_Int_Tables_number   1
_chemical_formula_structural   Tl3(V3S4)8
_chemical_formula_sum   'Tl3 V24 S32'
_cell_volume   1086.79917832
_cell_formula_units_Z   1
loop_
 _symmetry_equiv_pos_site_id
 _symmetry_equiv_pos_as_xyz
  1  'x, y, z'
loop_
 _atom_site_type_symbol
 _atom_site_label
 _atom_site_symmetry_multiplicity
 _atom_site_fract_x
 _atom_site_fract_y
 _atom_site_fract_z
 _atom_site_occupancy
  Tl  Tl0  1  0.99207600  0.99897600  0.02073400  1
  Tl  Tl1  1  0.65158700  0.58467700  0.34788700  1
  Tl  Tl2  1  0.39675100  0.41117100  0.67323200  1
  V  V0  1  0.25768600  0.95617800  0.93810600  1
  V  V1  1  0.01525100  0.60041300  0.98552600  1
  V  V2  1  0.43522600  0.32897100  0.98941400  1
  V  V3  1  0.35441000  0.26094400  0.26058600  1
  V  V4  1  0.79050100  0.04514400  0.31208300  1
  V  V5  1  0.40872700  0.79452200  0.22276300  1
  V  V6  1  0.07795100  0.63638300  0.22018700  1
  V  V7  1  0.90003800  0.37539900  0.17209800  1
  V  V8  1  0.10795800  0.13536300  0.34693400  1
  V  V9  1  0.05443200  0.01950100  0.48787300  1
  V  V10  1  0.46352500  0.88230500  0.53429700  1
  V  V11  1  0.20947300  0.61983600  0.45268800  1
  V  V12  1  0.85295500  0.45019100  0.54949600  1
  V  V13  1  0.48670200  0.18887200  0.45531700  1
  V  V14  1  0.81602700  0.90623000  0.54573100  1
  V  V15  1  0.86651400  0.95454700  0.72890000  1
  V  V16  1  0.13060100  0.62723200  0.83669600  1
  V  V17  1  0.95961000  0.36918200  0.76968900  1
  V  V18  1  0.63317800  0.16447500  0.87083600  1
  V  V19  1  0.21415400  0.94746500  0.67124500  1
  V  V20  1  0.64245700  0.68428500  0.73704200  1
  V  V21  1  0.59611400  0.65913900  0.01549600  1
  V  V22  1  0.98892000  0.36752300  0.01197300  1
  V  V23  1  0.52704700  0.99106900  0.99911300  1
  S  S0  1  0.84408300  0.56928500  0.08645800  1
  S  S1  1  0.35944100  0.15398800  0.08242900  1
  S  S2  1  0.60266600  0.89866700  0.15398700  1
  S  S3  1  0.15427800  0.38885300  0.16988500  1
  S  S4  1  0.67263800  0.23366900  0.05467400  1
  S  S5  1  0.17927500  0.76302000  0.11275200  1
  S  S6  1  0.48441800  0.55824500  0.12505700  1
  S  S7  1  0.91797600  0.14251800  0.20811800  1
  S  S8  1  0.61165000  0.25977600  0.33405700  1
  S  S9  1  0.99698300  0.88688000  0.31185700  1
  S  S10  1  0.32915000  0.71968900  0.35781000  1
  S  S11  1  0.94705200  0.23046600  0.45432000  1
  S  S12  1  0.31793400  0.03686400  0.29281100  1
  S  S13  1  0.97438100  0.52763300  0.33737700  1
  S  S14  1  0.28691100  0.36540300  0.42212700  1
  S  S15  1  0.62164700  0.95973200  0.42183500  1
  S  S16  1  0.31008500  0.07870800  0.55249400  1
  S  S17  1  0.76199700  0.70275800  0.60546900  1
  S  S18  1  0.08231800  0.47211400  0.66824400  1
  S  S19  1  0.62684300  0.02730000  0.68697000  1
  S  S20  1  0.04174100  0.78903700  0.52695100  1
  S  S21  1  0.69431000  0.33489400  0.61209000  1
  S  S22  1  0.00134500  0.10950800  0.65748000  1
  S  S23  1  0.37853100  0.73448500  0.62932100  1
  S  S24  1  0.08533600  0.84236900  0.78044500  1
  S  S25  1  0.55949300  0.41392800  0.88048500  1
  S  S26  1  0.88440000  0.19356600  0.85771600  1
  S  S27  1  0.37323600  0.73297500  0.92096000  1
  S  S28  1  0.86513100  0.59413700  0.82750400  1
  S  S29  1  0.37689100  0.08277500  0.84564300  1
  S  S30  1  0.69371700  0.85774900  0.90761600  1
  S  S31  1  0.17587200  0.42061600  0.91751500  1
loop_
_geom_bond_atom_site_label_1
_geom_bond_atom_site_label_2
_geom_bond_distance
_geom_bond_site_symmetry_2
S0 V1 2.384885 1_654
S0 V7 2.398524 1_555
S0 V6 2.428779 1_655
S0 V22 2.438520 1_555
S0 V21 2.513649 1_555
S1 V0 2.289975 1_544
S1 V3 2.381922 1_555
S1 V23 2.425534 1_544
S1 V2 2.496560 1_554
S2 V23 2.460225 1_554
S2 V4 2.472837 1_565
S2 V21 2.478259 1_555
S2 V5 2.494550 1_555
S3 V22 2.298330 1_455
S3 V7 2.348806 1_455
S3 V6 2.366487 1_555
S3 V3 2.479679 1_555
S4 V18 2.362433 1_554
S4 V7 2.428620 1_555
S4 V23 2.429634 1_544
S4 V2 2.436517 1_554
S5 V1 2.204889 1_554
S5 V5 2.256880 1_555
S5 V6 2.439983 1_555
S6 V2 2.360414 1_554
S6 V21 2.373337 1_555
S6 V5 2.431370 1_555
S6 Tl1 3.029163 1_555
S7 V8 2.285548 1_655
S7 V7 2.335272 1_555
S7 V4 2.379013 1_555
S7 Tl0 2.790445 1_545
S8 V3 2.351121 1_555
S8 V13 2.443533 1_555
S8 V4 2.593179 1_555
S8 Tl1 2.966536 1_555
S9 V9 2.318503 1_665
S9 V8 2.375334 1_665
S9 V4 2.414126 1_565
S9 V6 2.524517 1_655
S10 V11 2.245946 1_555
S10 V5 2.398780 1_555
S10 V10 2.492891 1_555
S10 V6 2.576831 1_555
S11 V9 2.307209 1_655
S11 V8 2.337417 1_655
S11 V4 2.368976 1_555
S11 V12 2.385181 1_555
S12 V3 2.267491 1_555
S12 V8 2.335109 1_555
S12 V5 2.423744 1_545
S12 V13 2.444337 1_555
S13 V7 2.256116 1_555
S13 V11 2.353421 1_655
S13 V6 2.462097 1_655
S13 Tl1 3.053407 1_555
S14 V3 2.387481 1_555
S14 V11 2.419011 1_555
S14 V8 2.490932 1_555
S14 V13 2.520849 1_555
S15 V14 2.327389 1_555
S15 V13 2.457116 1_565
S15 V10 2.571835 1_555
S15 V4 2.644570 1_565
S15 V5 2.963656 1_555
S16 V10 2.309712 1_545
S16 V9 2.314416 1_555
S16 V19 2.571665 1_545
S16 V13 2.673081 1_555
S16 Tl2 3.055797 1_555
S17 V14 2.335627 1_555
S17 V20 2.360192 1_555
S17 V12 2.470085 1_555
S17 V15 2.494757 1_555
S18 V16 2.297272 1_555
S18 V12 2.317665 1_455
S18 V17 2.351854 1_455
S18 Tl2 2.944774 1_555
S19 V15 2.306041 1_545
S19 V10 2.321444 1_545
S19 V18 2.478096 1_555
S20 V19 2.339178 1_555
S20 V9 2.340800 1_565
S20 V14 2.389741 1_455
S20 V11 2.404526 1_555
S21 V12 2.243989 1_555
S21 V13 2.556048 1_555
S21 V17 2.811283 1_555
S21 Tl2 3.079943 1_555
S22 V9 2.410612 1_555
S22 V15 2.413328 1_445
S22 V14 2.430450 1_445
S22 V19 2.486080 1_545
S22 V17 2.557469 1_455
S23 V10 2.363817 1_555
S23 V11 2.493401 1_555
S23 V19 2.520751 1_555
S23 V20 2.655607 1_555
S24 V0 2.328012 1_555
S24 V16 2.331049 1_555
S24 V15 2.331319 1_455
S24 V19 2.484057 1_555
S25 V2 2.357419 1_555
S25 V18 2.388537 1_555
S25 V21 2.461653 1_556
S25 Tl2 2.884053 1_555
S26 V22 2.265775 1_556
S26 V18 2.376884 1_555
S26 V15 2.395024 1_545
S26 V17 2.448080 1_555
S27 V0 2.312710 1_555
S27 V16 2.324786 1_555
S27 V21 2.377705 1_556
S27 V23 2.576252 1_555
S28 V1 2.270811 1_655
S28 V17 2.273126 1_555
S28 V20 2.424180 1_555
S28 V16 2.427616 1_655
S29 V0 2.365246 1_545
S29 V18 2.383682 1_555
S29 V19 2.485852 1_545
S29 V2 2.522381 1_555
S29 V23 2.593743 1_545
S30 V23 2.352716 1_555
S30 V20 2.381770 1_555
S30 V21 2.900444 1_556
S30 Tl0 2.910612 1_556
S30 V18 3.048113 1_565
S31 V1 2.380741 1_555
S31 V17 2.425192 1_455
S31 V16 2.452371 1_555
S31 V22 2.495507 1_456
S31 V2 2.611108 1_555
