# generated using pymatgen
data_Ba5Os3NO18
_symmetry_space_group_name_H-M   'P 1'
_cell_length_a   11.48137439
_cell_length_b   11.48137439
_cell_length_c   7.85876600
_cell_angle_alpha   90.00000000
_cell_angle_beta   90.00000000
_cell_angle_gamma   120.00000222
_symmetry_Int_Tables_number   1
_chemical_formula_structural   Ba5Os3NO18
_chemical_formula_sum   'Ba10 Os6 N2 O36'
_cell_volume   897.16585581
_cell_formula_units_Z   2
loop_
 _symmetry_equiv_pos_site_id
 _symmetry_equiv_pos_as_xyz
  1  'x, y, z'
loop_
 _atom_site_type_symbol
 _atom_site_label
 _atom_site_symmetry_multiplicity
 _atom_site_fract_x
 _atom_site_fract_y
 _atom_site_fract_z
 _atom_site_occupancy
  Ba  Ba0  1  0.72025300  0.72025300  0.74536600  1
  Ba  Ba1  1  0.72025300  0.00000000  0.24536600  1
  Ba  Ba2  1  0.00000000  0.27974700  0.74536600  1
  Ba  Ba3  1  0.27974700  0.27974700  0.24536600  1
  Ba  Ba4  1  0.66666700  0.33333300  0.50631600  1
  Ba  Ba5  1  0.00000000  0.72025300  0.24536600  1
  Ba  Ba6  1  0.27974700  0.00000000  0.74536600  1
  Ba  Ba7  1  0.33333300  0.66666700  0.50631600  1
  Ba  Ba8  1  0.66666700  0.33333300  0.00631600  1
  Ba  Ba9  1  0.33333300  0.66666700  0.00631600  1
  Os  Os0  1  0.00000000  0.39507900  0.29445400  1
  Os  Os1  1  0.60492100  0.60492100  0.29445400  1
  Os  Os2  1  0.00000000  0.60492100  0.79445400  1
  Os  Os3  1  0.39507900  0.00000000  0.29445400  1
  Os  Os4  1  0.60492100  0.00000000  0.79445400  1
  Os  Os5  1  0.39507900  0.39507900  0.79445400  1
  N  N0  1  0.00000000  0.00000000  0.46182500  1
  N  N1  1  0.00000000  0.00000000  0.96182500  1
  O  O0  1  0.88953600  0.00000000  0.95946000  1
  O  O1  1  0.00000000  0.11046400  0.45946000  1
  O  O2  1  0.45032500  0.87184700  0.26458100  1
  O  O3  1  0.73061500  0.60278700  0.44151100  1
  O  O4  1  0.87184700  0.42152200  0.76458100  1
  O  O5  1  0.45032500  0.57847800  0.76458100  1
  O  O6  1  0.69381300  0.00000000  0.61371700  1
  O  O7  1  0.00000000  0.88953600  0.95946000  1
  O  O8  1  0.12815300  0.54967500  0.76458100  1
  O  O9  1  0.42152200  0.87184700  0.76458100  1
  O  O10  1  0.26938500  0.87217200  0.44151100  1
  O  O11  1  0.69381300  0.69381300  0.11371700  1
  O  O12  1  0.11046400  0.00000000  0.45946000  1
  O  O13  1  0.60278700  0.87217200  0.94151100  1
  O  O14  1  0.57847800  0.12815300  0.26458100  1
  O  O15  1  0.54967500  0.42152200  0.26458100  1
  O  O16  1  0.12782800  0.73061500  0.94151100  1
  O  O17  1  0.26938500  0.39721300  0.94151100  1
  O  O18  1  0.30618700  0.30618700  0.61371700  1
  O  O19  1  0.87217200  0.60278700  0.94151100  1
  O  O20  1  0.39721300  0.12782800  0.44151100  1
  O  O21  1  0.11046400  0.11046400  0.95946000  1
  O  O22  1  0.00000000  0.30618700  0.11371700  1
  O  O23  1  0.60278700  0.73061500  0.44151100  1
  O  O24  1  0.73061500  0.12782800  0.94151100  1
  O  O25  1  0.87217200  0.26938500  0.44151100  1
  O  O26  1  0.00000000  0.69381300  0.61371700  1
  O  O27  1  0.12815300  0.57847800  0.26458100  1
  O  O28  1  0.12782800  0.39721300  0.44151100  1
  O  O29  1  0.57847800  0.45032500  0.76458100  1
  O  O30  1  0.39721300  0.26938500  0.94151100  1
  O  O31  1  0.42152200  0.54967500  0.26458100  1
  O  O32  1  0.54967500  0.12815300  0.76458100  1
  O  O33  1  0.30618700  0.00000000  0.11371700  1
  O  O34  1  0.88953600  0.88953600  0.45946000  1
  O  O35  1  0.87184700  0.45032500  0.26458100  1
loop_
_geom_bond_atom_site_label_1
_geom_bond_atom_site_label_2
_geom_bond_distance
_geom_bond_site_symmetry_2
Ba0 O5 2.689320 1_555
Ba0 O29 2.689320 1_555
Ba0 O3 2.774114 1_555
Ba0 O23 2.774114 1_555
Ba0 O11 2.910658 1_556
Ba0 O34 2.970859 1_555
Ba0 O19 3.096737 1_555
Ba0 O13 3.096737 1_555
Ba0 O0 3.268333 1_565
Ba0 O7 3.268333 1_655
Ba1 O2 2.689320 1_545
Ba1 O14 2.689320 1_555
Ba1 O13 2.774114 1_544
Ba1 O24 2.774114 1_554
Ba1 O6 2.910658 1_555
Ba1 O0 2.970859 1_554
Ba1 O25 3.096737 1_555
Ba1 O23 3.096737 1_545
Ba1 O1 3.268333 1_655
Ba1 O34 3.268333 1_545
Ba2 O8 2.689320 1_555
Ba2 O4 2.689320 1_455
Ba2 O28 2.774114 1_555
Ba2 O25 2.774114 1_455
Ba2 O22 2.910658 1_556
Ba2 O1 2.970859 1_555
Ba2 O24 3.096737 1_455
Ba2 O17 3.096737 1_555
Ba2 O0 3.268333 1_455
Ba2 O21 3.268333 1_555
Ba3 O15 2.689320 1_555
Ba3 O31 2.689320 1_555
Ba3 O30 2.774114 1_554
Ba3 O17 2.774114 1_554
Ba3 O18 2.910658 1_555
Ba3 O21 2.970859 1_554
Ba3 O28 3.096737 1_555
Ba3 O20 3.096737 1_555
Ba3 O12 3.268333 1_555
Ba3 O1 3.268333 1_555
Ba4 O14 2.792581 1_555
Ba4 O35 2.792582 1_555
Ba4 O15 2.792589 1_555
Ba4 O25 2.845688 1_555
Ba4 O20 2.845696 1_555
Ba4 O3 2.845699 1_555
Ba4 O4 2.882526 1_555
Ba4 O32 2.882527 1_555
Ba4 O29 2.882534 1_555
Ba5 O35 2.689320 1_455
Ba5 O27 2.689320 1_555
Ba5 O19 2.774114 1_454
Ba5 O16 2.774114 1_554
Ba5 O26 2.910658 1_555
Ba5 O7 2.970859 1_554
Ba5 O10 3.096737 1_555
Ba5 O3 3.096737 1_455
Ba5 O12 3.268333 1_565
Ba5 O34 3.268333 1_455
Ba6 O32 2.689320 1_555
Ba6 O9 2.689320 1_545
Ba6 O20 2.774114 1_555
Ba6 O10 2.774114 1_545
Ba6 O33 2.910658 1_556
Ba6 O12 2.970859 1_555
Ba6 O16 3.096737 1_545
Ba6 O30 3.096737 1_555
Ba6 O7 3.268333 1_545
Ba6 O21 3.268333 1_555
Ba7 O27 2.792581 1_555
Ba7 O2 2.792582 1_555
Ba7 O31 2.792589 1_555
Ba7 O10 2.845688 1_555
Ba7 O28 2.845696 1_555
Ba7 O23 2.845699 1_555
Ba7 O9 2.882526 1_555
Ba7 O8 2.882527 1_555
Ba7 O5 2.882534 1_555
Ba8 O4 2.792581 1_554
Ba8 O32 2.792582 1_554
Ba8 O29 2.792589 1_554
Ba8 O24 2.845688 1_554
Ba8 O19 2.845696 1_554
Ba8 O30 2.845699 1_554
Ba8 O14 2.882526 1_555
Ba8 O35 2.882527 1_555
Ba8 O15 2.882534 1_555
Ba9 O9 2.792581 1_554
Ba9 O8 2.792582 1_554
Ba9 O5 2.792589 1_554
Ba9 O16 2.845688 1_554
Ba9 O13 2.845696 1_554
Ba9 O17 2.845699 1_554
Ba9 O27 2.882526 1_555
Ba9 O2 2.882527 1_555
Ba9 O31 2.882534 1_555
N0 O34 1.268415 1_445
N0 O12 1.268415 1_555
N0 O1 1.268415 1_555
N1 O21 1.268415 1_555
N1 O7 1.268415 1_545
N1 O0 1.268415 1_455
O2 Os3 1.885651 1_565
O3 Os1 1.858554 1_555
O4 Os2 1.885651 1_655
O5 Os5 1.885651 1_555
O6 Os4 1.749022 1_555
O8 Os2 1.885651 1_555
O9 Os4 1.885651 1_565
O10 Os3 1.858554 1_565
O11 Os1 1.749022 1_555
O13 Os4 1.858554 1_565
O14 Os3 1.885651 1_555
O15 Os1 1.885651 1_555
O16 Os2 1.858554 1_555
O17 Os5 1.858554 1_555
O18 Os5 1.749022 1_555
O19 Os2 1.858554 1_655
O20 Os3 1.858554 1_555
O22 Os0 1.749022 1_555
O23 Os1 1.858554 1_555
O24 Os4 1.858554 1_555
O25 Os0 1.858554 1_655
O26 Os2 1.749022 1_555
O27 Os0 1.885651 1_555
O28 Os0 1.858554 1_555
O29 Os5 1.885651 1_555
O30 Os5 1.858554 1_555
O31 Os1 1.885651 1_555
O32 Os4 1.885651 1_555
O33 Os3 1.749022 1_555
O35 Os0 1.885651 1_655
