# generated using pymatgen
data_AlHO2
_symmetry_space_group_name_H-M   'P 1'
_cell_length_a   2.88850500
_cell_length_b   3.71805000
_cell_length_c   12.39287500
_cell_angle_alpha   90.00000000
_cell_angle_beta   90.00000000
_cell_angle_gamma   90.00000000
_symmetry_Int_Tables_number   1
_chemical_formula_structural   AlHO2
_chemical_formula_sum   'Al4 H4 O8'
_cell_volume   133.09459490
_cell_formula_units_Z   4
loop_
 _symmetry_equiv_pos_site_id
 _symmetry_equiv_pos_as_xyz
  1  'x, y, z'
loop_
 _atom_site_type_symbol
 _atom_site_label
 _atom_site_symmetry_multiplicity
 _atom_site_fract_x
 _atom_site_fract_y
 _atom_site_fract_z
 _atom_site_occupancy
  Al  Al0  1  0.25000000  0.75113300  0.56812200  1
  Al  Al1  1  0.25000000  0.74886700  0.06812200  1
  Al  Al2  1  0.75000000  0.24886700  0.43187800  1
  Al  Al3  1  0.75000000  0.25113300  0.93187800  1
  H  H0  1  0.75000000  0.57592300  0.22524300  1
  H  H1  1  0.75000000  0.92407700  0.72524300  1
  H  H2  1  0.25000000  0.42407700  0.77475700  1
  H  H3  1  0.25000000  0.07592300  0.27475700  1
  O  O0  1  0.75000000  0.75122000  0.96073300  1
  O  O1  1  0.75000000  0.74878000  0.46073300  1
  O  O2  1  0.25000000  0.24878000  0.03926700  1
  O  O3  1  0.25000000  0.25122000  0.53926700  1
  O  O4  1  0.75000000  0.75892100  0.16854900  1
  O  O5  1  0.75000000  0.74107900  0.66854900  1
  O  O6  1  0.25000000  0.24107900  0.83145100  1
  O  O7  1  0.25000000  0.25892100  0.33145100  1
loop_
_geom_bond_atom_site_label_1
_geom_bond_atom_site_label_2
_geom_bond_distance
_geom_bond_site_symmetry_2
Al0 O3 1.892788 1_555
Al0 O3 1.893423 1_565
Al0 O5 1.906893 1_555
Al0 O5 1.906893 1_455
Al0 O1 1.963957 1_455
Al0 O1 1.963957 1_555
Al1 O2 1.892788 1_565
Al1 O2 1.893423 1_555
Al1 O4 1.906893 1_455
Al1 O4 1.906893 1_555
Al1 O0 1.963957 1_454
Al1 O0 1.963957 1_554
Al2 O1 1.892788 1_555
Al2 O1 1.893423 1_545
Al2 O7 1.906893 1_655
Al2 O7 1.906893 1_555
Al2 O3 1.963957 1_555
Al2 O3 1.963957 1_655
Al3 O0 1.892788 1_545
Al3 O0 1.893423 1_555
Al3 O6 1.906893 1_655
Al3 O6 1.906893 1_555
Al3 O2 1.963957 1_556
Al3 O2 1.963957 1_656
H0 O4 0.978053 1_555
H1 O5 0.978053 1_555
H2 O6 0.978053 1_555
H3 O7 0.978053 1_555
