# generated using pymatgen
data_TlB5O8
_symmetry_space_group_name_H-M   'P 1'
_cell_length_a   7.52427583
_cell_length_b   11.96130000
_cell_length_c   14.76905620
_cell_angle_alpha   90.00000000
_cell_angle_beta   90.00000000
_cell_angle_gamma   90.00000000
_symmetry_Int_Tables_number   1
_chemical_formula_structural   TlB5O8
_chemical_formula_sum   'Tl8 B40 O64'
_cell_volume   1329.21683746
_cell_formula_units_Z   8
loop_
 _symmetry_equiv_pos_site_id
 _symmetry_equiv_pos_as_xyz
  1  'x, y, z'
loop_
 _atom_site_type_symbol
 _atom_site_label
 _atom_site_symmetry_multiplicity
 _atom_site_fract_x
 _atom_site_fract_y
 _atom_site_fract_z
 _atom_site_occupancy
  Tl  Tl0  1  0.57076854  0.29302623  0.87819048  1
  Tl  Tl1  1  0.57076854  0.20697377  0.37819048  1
  Tl  Tl2  1  0.42923146  0.70697377  0.12180952  1
  Tl  Tl3  1  0.07076854  0.20697377  0.12180952  1
  Tl  Tl4  1  0.07076854  0.29302623  0.62180952  1
  Tl  Tl5  1  0.42923146  0.79302623  0.62180952  1
  Tl  Tl6  1  0.92923146  0.70697377  0.37819048  1
  Tl  Tl7  1  0.92923146  0.79302623  0.87819048  1
  B  B0  1  0.45501412  0.72468745  0.37328926  1
  B  B1  1  0.69110318  0.43119603  0.54419302  1
  B  B2  1  0.52609897  0.97440592  0.84415149  1
  B  B3  1  0.47390103  0.47440592  0.65584851  1
  B  B4  1  0.91752541  0.89865829  0.21384828  1
  B  B5  1  0.97390103  0.02559408  0.34415149  1
  B  B6  1  0.59522174  0.90582384  0.41832467  1
  B  B7  1  0.91752541  0.60134171  0.71384828  1
  B  B8  1  0.45501412  0.77531255  0.87328926  1
  B  B9  1  0.19110318  0.06880397  0.45580698  1
  B  B10  1  0.90477826  0.40582384  0.41832467  1
  B  B11  1  0.58247459  0.10134171  0.71384828  1
  B  B12  1  0.08247459  0.10134171  0.78615172  1
  B  B13  1  0.02609897  0.52559408  0.15584851  1
  B  B14  1  0.54498588  0.22468745  0.12671074  1
  B  B15  1  0.80889682  0.93119603  0.54419302  1
  B  B16  1  0.04498588  0.22468745  0.37328926  1
  B  B17  1  0.69110318  0.06880397  0.04419302  1
  B  B18  1  0.90477826  0.09417616  0.91832467  1
  B  B19  1  0.80889682  0.56880397  0.04419302  1
  B  B20  1  0.40477826  0.40582384  0.08167533  1
  B  B21  1  0.95501412  0.72468745  0.12671074  1
  B  B22  1  0.02609897  0.97440592  0.65584851  1
  B  B23  1  0.04498588  0.27531255  0.87328926  1
  B  B24  1  0.40477826  0.09417616  0.58167533  1
  B  B25  1  0.41752541  0.89865829  0.28615172  1
  B  B26  1  0.47390103  0.02559408  0.15584851  1
  B  B27  1  0.30889682  0.93119603  0.95580698  1
  B  B28  1  0.09522174  0.90582384  0.08167533  1
  B  B29  1  0.19110318  0.43119603  0.95580698  1
  B  B30  1  0.09522174  0.59417616  0.58167533  1
  B  B31  1  0.52609897  0.52559408  0.34415149  1
  B  B32  1  0.08247459  0.39865829  0.28615172  1
  B  B33  1  0.30889682  0.56880397  0.45580698  1
  B  B34  1  0.59522174  0.59417616  0.91832467  1
  B  B35  1  0.41752541  0.60134171  0.78615172  1
  B  B36  1  0.54498588  0.27531255  0.62671074  1
  B  B37  1  0.95501412  0.77531255  0.62671074  1
  B  B38  1  0.97390103  0.47440592  0.84415149  1
  B  B39  1  0.58247459  0.39865829  0.21384828  1
  O  O0  1  0.32252213  0.82179710  0.93512205  1
  O  O1  1  0.92093829  0.20601466  0.92641316  1
  O  O2  1  0.86917574  0.70809621  0.69736288  1
  O  O3  1  0.59543771  0.51095656  0.59166180  1
  O  O4  1  0.38462055  0.55747413  0.70236528  1
  O  O5  1  0.44266055  0.36535910  0.67145797  1
  O  O6  1  0.30157796  0.46944629  0.02400110  1
  O  O7  1  0.69842204  0.96944629  0.47599890  1
  O  O8  1  0.13082426  0.29190379  0.30263712  1
  O  O9  1  0.17747787  0.32179710  0.93512205  1
  O  O10  1  0.36917574  0.79190379  0.30263712  1
  O  O11  1  0.00861600  0.53724134  0.65056560  1
  O  O12  1  0.82252213  0.82179710  0.56487795  1
  O  O13  1  0.90456229  0.48904344  0.09166180  1
  O  O14  1  0.17747787  0.17820290  0.43512205  1
  O  O15  1  0.30157796  0.03055371  0.52400110  1
  O  O16  1  0.44266055  0.13464090  0.17145797  1
  O  O17  1  0.69842204  0.53055371  0.97599890  1
  O  O18  1  0.63082426  0.20809621  0.69736288  1
  O  O19  1  0.36917574  0.70809621  0.80263712  1
  O  O20  1  0.09543771  0.98904344  0.40833820  1
  O  O21  1  0.11537945  0.05747413  0.70236528  1
  O  O22  1  0.11537945  0.44252587  0.20236528  1
  O  O23  1  0.67747787  0.32179710  0.56487795  1
  O  O24  1  0.61537945  0.44252587  0.29763472  1
  O  O25  1  0.05733945  0.86535910  0.67145797  1
  O  O26  1  0.94266055  0.36535910  0.82854203  1
  O  O27  1  0.94266055  0.13464090  0.32854203  1
  O  O28  1  0.49138400  0.03724134  0.65056560  1
  O  O29  1  0.57906171  0.70601466  0.92641316  1
  O  O30  1  0.59543771  0.98904344  0.09166180  1
  O  O31  1  0.40456229  0.01095656  0.90833820  1
  O  O32  1  0.42093829  0.29398534  0.07358684  1
  O  O33  1  0.99138400  0.03724134  0.84943440  1
  O  O34  1  0.13082426  0.20809621  0.80263712  1
  O  O35  1  0.92093829  0.29398534  0.42641316  1
  O  O36  1  0.19842204  0.96944629  0.02400110  1
  O  O37  1  0.05733945  0.63464090  0.17145797  1
  O  O38  1  0.50861600  0.96275866  0.34943440  1
  O  O39  1  0.49138400  0.46275866  0.15056560  1
  O  O40  1  0.00861600  0.96275866  0.15056560  1
  O  O41  1  0.50861600  0.53724134  0.84943440  1
  O  O42  1  0.80157796  0.46944629  0.47599890  1
  O  O43  1  0.67747787  0.17820290  0.06487795  1
  O  O44  1  0.63082426  0.29190379  0.19736288  1
  O  O45  1  0.19842204  0.53055371  0.52400110  1
  O  O46  1  0.40456229  0.48904344  0.40833820  1
  O  O47  1  0.42093829  0.20601466  0.57358684  1
  O  O48  1  0.57906171  0.79398534  0.42641316  1
  O  O49  1  0.80157796  0.03055371  0.97599890  1
  O  O50  1  0.82252213  0.67820290  0.06487795  1
  O  O51  1  0.07906171  0.70601466  0.57358684  1
  O  O52  1  0.09543771  0.51095656  0.90833820  1
  O  O53  1  0.32252213  0.67820290  0.43512205  1
  O  O54  1  0.88462055  0.94252587  0.29763472  1
  O  O55  1  0.07906171  0.79398534  0.07358684  1
  O  O56  1  0.88462055  0.55747413  0.79763472  1
  O  O57  1  0.61537945  0.05747413  0.79763472  1
  O  O58  1  0.55733945  0.86535910  0.82854203  1
  O  O59  1  0.90456229  0.01095656  0.59166180  1
  O  O60  1  0.55733945  0.63464090  0.32854203  1
  O  O61  1  0.86917574  0.79190379  0.19736288  1
  O  O62  1  0.99138400  0.46275866  0.34943440  1
  O  O63  1  0.38462055  0.94252587  0.20236528  1
loop_
_geom_bond_atom_site_label_1
_geom_bond_atom_site_label_2
_geom_bond_distance
_geom_bond_site_symmetry_2
B0 O53 1.461825 1_555
B0 O10 1.467098 1_555
B0 O48 1.474388 1_555
B0 O60 1.479738 1_555
B1 O23 1.347646 1_555
B1 O42 1.383715 1_555
B1 O3 1.385576 1_555
B2 O58 1.345254 1_555
B2 O57 1.382210 1_565
B2 O31 1.387827 1_565
B3 O5 1.345254 1_555
B3 O4 1.382210 1_555
B3 O3 1.387827 1_555
B4 O61 1.349874 1_555
B4 O54 1.366710 1_555
B4 O40 1.389658 1_655
B5 O27 1.345254 1_555
B5 O54 1.382210 1_545
B5 O20 1.387827 1_645
B6 O48 1.348550 1_555
B6 O7 1.381177 1_555
B6 O38 1.386945 1_555
B7 O2 1.349874 1_555
B7 O56 1.366710 1_555
B7 O11 1.389658 1_655
B8 O0 1.461825 1_555
B8 O19 1.467098 1_555
B8 O29 1.474388 1_555
B8 O58 1.479738 1_555
B9 O14 1.347646 1_555
B9 O15 1.383715 1_555
B9 O20 1.385576 1_545
B10 O35 1.348550 1_555
B10 O42 1.381177 1_555
B10 O62 1.386945 1_555
B11 O18 1.349874 1_555
B11 O57 1.366710 1_555
B11 O28 1.389658 1_555
B12 O34 1.349874 1_555
B12 O21 1.366710 1_555
B12 O33 1.389658 1_455
B13 O37 1.345254 1_555
B13 O22 1.382210 1_555
B13 O13 1.387827 1_455
B14 O43 1.461825 1_555
B14 O44 1.467098 1_555
B14 O32 1.474388 1_555
B14 O16 1.479738 1_555
B15 O12 1.347646 1_555
B15 O7 1.383715 1_555
B15 O59 1.385576 1_565
B16 O14 1.461825 1_555
B16 O8 1.467098 1_555
B16 O35 1.474388 1_455
B16 O27 1.479738 1_455
B17 O43 1.347646 1_555
B17 O49 1.383715 1_554
B17 O30 1.385576 1_545
B18 O1 1.348550 1_555
B18 O49 1.381177 1_555
B18 O33 1.386945 1_555
B19 O50 1.347646 1_555
B19 O17 1.383715 1_554
B19 O13 1.385576 1_555
B20 O32 1.348550 1_555
B20 O6 1.381177 1_555
B20 O39 1.386945 1_555
B21 O50 1.461825 1_555
B21 O61 1.467098 1_555
B21 O55 1.474388 1_655
B21 O37 1.479738 1_655
B22 O25 1.345254 1_555
B22 O21 1.382210 1_565
B22 O59 1.387827 1_465
B23 O9 1.461825 1_555
B23 O34 1.467098 1_555
B23 O1 1.474388 1_455
B23 O26 1.479738 1_455
B24 O47 1.348550 1_555
B24 O15 1.381177 1_555
B24 O28 1.386945 1_555
B25 O10 1.349874 1_555
B25 O63 1.366710 1_555
B25 O38 1.389658 1_555
B26 O16 1.345254 1_555
B26 O63 1.382210 1_545
B26 O30 1.387827 1_545
B27 O0 1.347646 1_555
B27 O36 1.383715 1_556
B27 O31 1.385576 1_565
B28 O55 1.348550 1_555
B28 O36 1.381177 1_555
B28 O40 1.386945 1_555
B29 O9 1.347646 1_555
B29 O6 1.383715 1_556
B29 O52 1.385576 1_555
B30 O51 1.348550 1_555
B30 O45 1.381177 1_555
B30 O11 1.386945 1_555
B31 O60 1.345254 1_555
B31 O24 1.382210 1_555
B31 O46 1.387827 1_555
B32 O8 1.349874 1_555
B32 O22 1.366710 1_555
B32 O62 1.389658 1_455
B33 O53 1.347646 1_555
B33 O45 1.383715 1_555
B33 O46 1.385576 1_555
B34 O29 1.348550 1_555
B34 O17 1.381177 1_555
B34 O41 1.386945 1_555
B35 O19 1.349874 1_555
B35 O4 1.366710 1_555
B35 O41 1.389658 1_555
B36 O23 1.461825 1_555
B36 O18 1.467098 1_555
B36 O47 1.474388 1_555
B36 O5 1.479738 1_555
B37 O12 1.461825 1_555
B37 O2 1.467098 1_555
B37 O51 1.474388 1_655
B37 O25 1.479738 1_655
B38 O26 1.345254 1_555
B38 O56 1.382210 1_555
B38 O52 1.387827 1_655
B39 O44 1.349874 1_555
B39 O24 1.366710 1_555
B39 O39 1.389658 1_555
