# generated using pymatgen
data_TiPd3
_symmetry_space_group_name_H-M   'P 1'
_cell_length_a   3.89771045
_cell_length_b   3.89767356
_cell_length_c   3.89760655
_cell_angle_alpha   89.99993973
_cell_angle_beta   89.99984947
_cell_angle_gamma   90.00027107
_symmetry_Int_Tables_number   1
_chemical_formula_structural   TiPd3
_chemical_formula_sum   'Ti1 Pd3'
_cell_volume   59.21245027
_cell_formula_units_Z   1
loop_
 _symmetry_equiv_pos_site_id
 _symmetry_equiv_pos_as_xyz
  1  'x, y, z'
loop_
 _atom_site_type_symbol
 _atom_site_label
 _atom_site_symmetry_multiplicity
 _atom_site_fract_x
 _atom_site_fract_y
 _atom_site_fract_z
 _atom_site_occupancy
  Ti  Ti0  1  0.00000000  0.99999900  -0.00000000  1
  Pd  Pd0  1  0.00000000  0.50000100  0.50000000  1
  Pd  Pd1  1  0.50000000  0.00000100  0.50000000  1
  Pd  Pd2  1  0.50000000  0.49999900  -0.00000000  1
loop_
_geom_bond_atom_site_label_1
_geom_bond_atom_site_label_2
_geom_bond_distance
_geom_bond_site_symmetry_2
Pd0 Ti0 2.756041 1_555
Pd0 Ti0 2.756044 1_556
Pd0 Ti0 2.756052 1_546
Pd0 Ti0 2.756055 1_545
Pd0 Pd2 2.756057 1_456
Pd0 Pd2 2.756057 1_555
Pd0 Pd2 2.756064 1_455
Pd0 Pd2 2.756064 1_556
Pd0 Pd1 2.756078 1_565
Pd0 Pd1 2.756078 1_455
Pd0 Pd1 2.756091 1_465
Pd0 Pd1 2.756091 1_555
Pd1 Pd2 2.756041 1_555
Pd1 Pd2 2.756044 1_556
Pd1 Pd2 2.756052 1_546
Pd1 Pd2 2.756055 1_545
Pd1 Ti0 2.756057 1_546
Pd1 Ti0 2.756057 1_645
Pd1 Ti0 2.756064 1_545
Pd1 Ti0 2.756064 1_646
Pd2 Ti0 2.756078 1_655
Pd2 Ti0 2.756078 1_545
Pd2 Ti0 2.756091 1_555
Pd2 Ti0 2.756091 1_645
