# generated using pymatgen
data_TaSi2H35(C3N)4
_symmetry_space_group_name_H-M   'P 1'
_cell_length_a   8.34555500
_cell_length_b   10.25545805
_cell_length_c   14.74779295
_cell_angle_alpha   108.63115699
_cell_angle_beta   87.51390099
_cell_angle_gamma   112.46488921
_symmetry_Int_Tables_number   1
_chemical_formula_structural   TaSi2H35(C3N)4
_chemical_formula_sum   'Ta2 Si4 H70 C24 N8'
_cell_volume   1100.84066222
_cell_formula_units_Z   2
loop_
 _symmetry_equiv_pos_site_id
 _symmetry_equiv_pos_as_xyz
  1  'x, y, z'
loop_
 _atom_site_type_symbol
 _atom_site_label
 _atom_site_symmetry_multiplicity
 _atom_site_fract_x
 _atom_site_fract_y
 _atom_site_fract_z
 _atom_site_occupancy
  Ta  Ta0  1  0.80591000  0.26718300  0.81010500  1
  Ta  Ta1  1  0.19409000  0.73281700  0.18989500  1
  Si  Si0  1  0.55785400  0.99601900  0.76982500  1
  Si  Si1  1  0.44214600  0.00398100  0.23017500  1
  Si  Si2  1  0.18019300  0.82068100  0.39199200  1
  Si  Si3  1  0.81980700  0.17931900  0.60800800  1
  H  H0  1  0.94229100  0.65635900  0.64129600  1
  H  H1  1  0.57048600  0.30726300  0.96567400  1
  H  H2  1  0.90543600  0.03375800  0.53634700  1
  H  H3  1  0.09456400  0.96624200  0.46365300  1
  H  H4  1  0.03372400  0.43466200  0.59556300  1
  H  H5  1  0.78751600  0.18167300  0.06741700  1
  H  H6  1  0.98083600  0.60079400  0.76931300  1
  H  H7  1  0.64296200  0.51940700  0.57510100  1
  H  H8  1  0.67660500  0.35792100  0.48861500  1
  H  H9  1  0.01298900  0.77167300  0.98073400  1
  H  H10  1  0.70678900  0.58779200  0.19562000  1
  H  H11  1  0.61774600  0.00328000  0.94244700  1
  H  H12  1  0.94939600  0.35938600  0.05722000  1
  H  H13  1  0.96627600  0.56533800  0.40443700  1
  H  H14  1  0.35904600  0.54288800  0.14114000  1
  H  H15  1  0.09856100  0.34579400  0.53517200  1
  H  H16  1  0.54119000  0.17113100  0.50075500  1
  H  H17  1  0.30998500  0.08392000  0.67494100  1
  H  H18  1  0.47635900  0.50742200  0.33126300  1
  H  H19  1  0.42951400  0.69273700  0.03432600  1
  H  H20  1  0.19356600  0.33013800  0.28856900  1
  H  H21  1  0.70448500  0.80389400  0.85881800  1
  H  H22  1  0.53227200  0.33557700  0.64670600  1
  H  H23  1  0.52364100  0.49257800  0.66873700  1
  H  H24  1  0.29321100  0.41220800  0.80438000  1
  H  H25  1  0.47419400  0.10245900  0.87496400  1
  H  H26  1  0.71933400  0.91862300  0.60039300  1
  H  H27  1  0.27595000  0.74610000  0.56768600  1
  H  H28  1  0.29551500  0.19610600  0.14118200  1
  H  H29  1  0.13196200  0.29703900  0.66236100  1
  H  H30  1  0.07100800  0.03720800  0.33622700  1
  H  H31  1  0.45881000  0.82886900  0.49924500  1
  H  H32  1  0.69001500  0.91608000  0.32505900  1
  H  H33  1  0.52580600  0.89754100  0.12503600  1
  H  H34  1  0.47440300  0.72144400  0.84904800  1
  H  H35  1  0.59274600  0.77550400  0.74906900  1
  H  H36  1  0.40725400  0.22449600  0.25093100  1
  H  H37  1  0.23668300  0.88917600  0.73439400  1
  H  H38  1  0.92899200  0.96279200  0.66377300  1
  H  H39  1  0.25753800  0.52767500  0.02620500  1
  H  H40  1  0.35703800  0.48059300  0.42489900  1
  H  H41  1  0.80643400  0.66986200  0.71143100  1
  H  H42  1  0.32339500  0.64207900  0.51138500  1
  H  H43  1  0.72405000  0.25390000  0.43231400  1
  H  H44  1  0.98701100  0.22832700  0.01926600  1
  H  H45  1  0.05770900  0.34364100  0.35870400  1
  H  H46  1  0.74246200  0.47232500  0.97379500  1
  H  H47  1  0.76331700  0.11082400  0.26560600  1
  H  H48  1  0.52559700  0.27855600  0.15095200  1
  H  H49  1  0.83176500  0.86262700  0.18710700  1
  H  H50  1  0.46772800  0.66442300  0.35329400  1
  H  H51  1  0.05060400  0.64061400  0.94278000  1
  H  H52  1  0.90143900  0.65420600  0.46482800  1
  H  H53  1  0.26920800  0.36018100  0.92894800  1
  H  H54  1  0.16457500  0.48278100  0.84279700  1
  H  H55  1  0.16712100  0.10043800  0.93826000  1
  H  H56  1  0.34158500  0.96200900  0.62710000  1
  H  H57  1  0.83287900  0.89956200  0.06174000  1
  H  H58  1  0.01916400  0.39920600  0.23068700  1
  H  H59  1  0.16823500  0.13737300  0.81289300  1
  H  H60  1  0.97221900  0.02731300  0.86955600  1
  H  H61  1  0.65841500  0.03799100  0.37290000  1
  H  H62  1  0.86803800  0.70296100  0.33763900  1
  H  H63  1  0.21248400  0.81832700  0.93258300  1
  H  H64  1  0.64095400  0.45711200  0.85886000  1
  H  H65  1  0.38225400  0.99672000  0.05755300  1
  H  H66  1  0.28066600  0.08137700  0.39960700  1
  H  H67  1  0.73079200  0.63981900  0.07105200  1
  H  H68  1  0.83542500  0.51721900  0.15720300  1
  H  H69  1  0.02778100  0.97268700  0.13044400  1
  C  C0  1  0.41839800  0.93089400  0.13040700  1
  C  C1  1  0.08976700  0.12452900  0.86811900  1
  C  C2  1  0.95866800  0.67219200  0.40010100  1
  C  C3  1  0.80006800  0.61594300  0.14378700  1
  C  C4  1  0.58571600  0.80724600  0.81010100  1
  C  C5  1  0.12113900  0.39918000  0.29078200  1
  C  C6  1  0.41428400  0.19275400  0.18989900  1
  C  C7  1  0.39186300  0.55134100  0.35123100  1
  C  C8  1  0.88781800  0.27269800  0.02146000  1
  C  C9  1  0.68594100  0.39558500  0.93057900  1
  C  C10  1  0.34235300  0.98184200  0.69430900  1
  C  C11  1  0.67676200  0.24672300  0.49744500  1
  C  C12  1  0.31405900  0.60441500  0.06942100  1
  C  C13  1  0.87886100  0.60082000  0.70921800  1
  C  C14  1  0.11218200  0.72730200  0.97854000  1
  C  C15  1  0.91023300  0.87547100  0.13188100  1
  C  C16  1  0.65764700  0.01815800  0.30569100  1
  C  C17  1  0.84535900  0.00751700  0.60191700  1
  C  C18  1  0.15464100  0.99248300  0.39808300  1
  C  C19  1  0.19993200  0.38405700  0.85621300  1
  C  C20  1  0.58160200  0.06910600  0.86959300  1
  C  C21  1  0.32323800  0.75327700  0.50255500  1
  C  C22  1  0.04133200  0.32780800  0.59989900  1
  C  C23  1  0.60813700  0.44865900  0.64876900  1
  N  N0  1  0.18704900  0.66613900  0.07520500  1
  N  N1  1  0.76366300  0.44989400  0.71574100  1
  N  N2  1  0.04631900  0.25785900  0.84810300  1
  N  N3  1  0.73339000  0.14343500  0.71322700  1
  N  N4  1  0.95368100  0.74214100  0.15189700  1
  N  N5  1  0.81295100  0.33386100  0.92479500  1
  N  N6  1  0.23633700  0.55010600  0.28425900  1
  N  N7  1  0.26661000  0.85656500  0.28677300  1
loop_
_geom_bond_atom_site_label_1
_geom_bond_atom_site_label_2
_geom_bond_distance
_geom_bond_site_symmetry_2
H2 Si3 1.896773 1_555
H3 Si2 1.896773 1_555
C0 H33 1.066591 1_555
C0 Si1 1.404669 1_565
C0 H65 1.532420 1_555
C1 H59 1.032421 1_555
C1 H60 1.105011 1_455
C1 H55 1.375117 1_555
C1 N2 1.653598 1_555
C2 H52 1.085809 1_555
C2 H13 1.143363 1_555
C2 H62 1.395990 1_555
C2 Si2 1.922702 1_655
C3 H10 1.091478 1_555
C3 H68 1.229905 1_555
C3 H67 1.369185 1_555
C3 N4 1.406839 1_555
C4 H35 0.861608 1_555
C4 H21 1.266272 1_555
C4 H34 1.272449 1_555
C5 H20 1.085524 1_555
C5 H58 1.255188 1_555
C5 H45 1.302369 1_555
C5 N6 1.509686 1_555
C6 H36 0.861608 1_555
C6 H28 1.266272 1_555
C6 H48 1.272449 1_555
C7 H18 0.962712 1_555
C7 H50 1.079210 1_555
C7 H40 1.451332 1_555
C7 N6 1.658622 1_555
C8 H12 0.841054 1_555
C8 H44 1.081458 1_555
C8 H5 1.337665 1_555
C8 N5 1.940180 1_554
C9 H46 0.818513 1_555
C9 H1 1.267288 1_555
C9 N5 1.414900 1_555
C9 H64 1.516493 1_555
C10 H56 0.945832 1_555
C10 H17 1.290090 1_565
C10 H37 1.305206 1_555
C10 Si0 2.089602 1_555
C11 H43 1.036284 1_555
C11 H16 1.110204 1_555
C11 H8 1.188901 1_555
C11 Si3 2.466053 1_555
C12 H39 0.818513 1_555
C12 H19 1.267288 1_555
C12 N0 1.414900 1_555
C12 H14 1.516493 1_555
C13 H41 1.085524 1_555
C13 H6 1.255188 1_555
C13 H0 1.302369 1_555
C13 N1 1.509686 1_555
C14 H51 0.841054 1_555
C14 H9 1.081458 1_555
C14 H63 1.337665 1_555
C14 N0 1.940180 1_556
C15 H49 1.032421 1_555
C15 H69 1.105011 1_655
C15 H57 1.375117 1_555
C15 N4 1.653598 1_555
C16 H61 0.945832 1_555
C16 H32 1.290090 1_545
C16 H47 1.305206 1_555
C16 Si1 2.089602 1_555
C17 H26 1.092692 1_545
C17 H2 1.131377 1_555
C17 H38 1.448090 1_545
C17 Si3 1.828172 1_555
C18 H66 1.092692 1_565
C18 H3 1.131377 1_555
C18 H30 1.448090 1_565
C18 Si2 1.828172 1_555
C19 H24 1.091478 1_555
C19 H54 1.229905 1_555
C19 H53 1.369185 1_555
C19 N2 1.406839 1_555
C20 H25 1.066591 1_555
C20 Si0 1.404669 1_545
C20 H11 1.532420 1_555
C21 H27 1.036284 1_555
C21 H31 1.110204 1_555
C21 H42 1.188901 1_555
C21 Si2 2.466053 1_555
C22 H15 1.085809 1_555
C22 H4 1.143363 1_555
C22 H29 1.395990 1_555
C22 Si3 1.922702 1_455
C23 H23 0.962712 1_555
C23 H22 1.079210 1_555
C23 H7 1.451332 1_555
C23 N1 1.658622 1_555
N0 Ta1 1.603391 1_555
N2 Ta0 2.151046 1_455
N3 Ta0 1.532206 1_555
N3 Si3 1.768737 1_555
N3 Si0 2.033720 1_545
N4 Ta1 2.151046 1_655
N5 Ta0 1.603391 1_555
N7 Ta1 1.532206 1_555
N7 Si2 1.768737 1_555
N7 Si1 2.033720 1_565
