# generated using pymatgen
data_Nb3IrS8
_symmetry_space_group_name_H-M   'P 1'
_cell_length_a   6.72541297
_cell_length_b   6.72541297
_cell_length_c   13.95212201
_cell_angle_alpha   69.26500242
_cell_angle_beta   69.26500242
_cell_angle_gamma   60.35028922
_symmetry_Int_Tables_number   1
_chemical_formula_structural   Nb3IrS8
_chemical_formula_sum   'Nb6 Ir2 S16'
_cell_volume   500.33914263
_cell_formula_units_Z   2
loop_
 _symmetry_equiv_pos_site_id
 _symmetry_equiv_pos_as_xyz
  1  'x, y, z'
loop_
 _atom_site_type_symbol
 _atom_site_label
 _atom_site_symmetry_multiplicity
 _atom_site_fract_x
 _atom_site_fract_y
 _atom_site_fract_z
 _atom_site_occupancy
  Nb  Nb0  1  0.36720000  0.15821500  0.75131600  1
  Nb  Nb1  1  0.85664900  0.14335100  0.75000000  1
  Nb  Nb2  1  0.84178500  0.63280000  0.74868400  1
  Nb  Nb3  1  0.15821500  0.36720000  0.25131600  1
  Nb  Nb4  1  0.14335100  0.85664900  0.25000000  1
  Nb  Nb5  1  0.63280000  0.84178500  0.24868400  1
  Ir  Ir0  1  0.58430800  0.41569200  0.25000000  1
  Ir  Ir1  1  0.41569200  0.58430800  0.75000000  1
  S  S0  1  0.48527700  0.21872200  0.88132600  1
  S  S1  1  0.96816300  0.24783200  0.87074200  1
  S  S2  1  0.98129600  0.27719900  0.14726300  1
  S  S3  1  0.01870400  0.72280100  0.85273700  1
  S  S4  1  0.73852400  0.46368800  0.36912400  1
  S  S5  1  0.53631200  0.26147600  0.13087600  1
  S  S6  1  0.46368800  0.73852400  0.86912400  1
  S  S7  1  0.21872200  0.48527700  0.38132600  1
  S  S8  1  0.26147600  0.53631200  0.63087600  1
  S  S9  1  0.51472300  0.78127800  0.11867400  1
  S  S10  1  0.24783200  0.96816300  0.37074200  1
  S  S11  1  0.03183700  0.75216800  0.12925800  1
  S  S12  1  0.78127800  0.51472300  0.61867400  1
  S  S13  1  0.72280100  0.01870400  0.35273700  1
  S  S14  1  0.75216800  0.03183700  0.62925800  1
  S  S15  1  0.27719900  0.98129600  0.64726300  1
loop_
_geom_bond_atom_site_label_1
_geom_bond_atom_site_label_2
_geom_bond_distance
_geom_bond_site_symmetry_2
Nb0 S8 2.413898 1_555
Nb0 S0 2.439034 1_555
Nb0 S14 2.459964 1_555
Nb0 S1 2.507237 1_455
Nb0 S15 2.539229 1_545
Nb0 S6 2.597635 1_545
Nb1 S0 2.452938 1_555
Nb1 S12 2.452938 1_555
Nb1 S1 2.479584 1_555
Nb1 S14 2.479584 1_555
Nb1 S15 2.535300 1_645
Nb1 S3 2.535300 1_645
Nb2 S6 2.413898 1_555
Nb2 S12 2.439034 1_555
Nb2 S1 2.459964 1_555
Nb2 S14 2.507237 1_565
Nb2 S3 2.539229 1_655
Nb2 S8 2.597635 1_655
Nb3 S5 2.413898 1_555
Nb3 S7 2.439034 1_555
Nb3 S11 2.459964 1_555
Nb3 S10 2.507237 1_545
Nb3 S2 2.539229 1_455
Nb3 S4 2.597635 1_455
Nb4 S7 2.452938 1_555
Nb4 S9 2.452938 1_555
Nb4 S11 2.479584 1_555
Nb4 S10 2.479584 1_555
Nb4 S2 2.535300 1_465
Nb4 S13 2.535300 1_465
Nb5 S4 2.413898 1_555
Nb5 S9 2.439034 1_555
Nb5 S10 2.459964 1_555
Nb5 S11 2.507237 1_655
Nb5 S13 2.539229 1_565
Nb5 S5 2.597635 1_565
Ir0 S2 2.413635 1_555
Ir0 S13 2.413635 1_555
Ir0 S4 2.423633 1_555
Ir0 S5 2.423633 1_555
Ir0 S9 2.429049 1_555
Ir0 S7 2.429049 1_555
Ir1 S3 2.413635 1_555
Ir1 S15 2.413635 1_555
Ir1 S6 2.423633 1_555
Ir1 S8 2.423633 1_555
Ir1 S0 2.429049 1_555
Ir1 S12 2.429049 1_555
