# generated using pymatgen
data_La2Ge5Ir3
_symmetry_space_group_name_H-M   'P 1'
_cell_length_a   8.49279128
_cell_length_b   8.49081201
_cell_length_c   8.48927786
_cell_angle_alpha   137.73873293
_cell_angle_beta   105.61467606
_cell_angle_gamma   89.48529491
_symmetry_Int_Tables_number   1
_chemical_formula_structural   La2Ge5Ir3
_chemical_formula_sum   'La4 Ge10 Ir6'
_cell_volume   379.01071376
_cell_formula_units_Z   2
loop_
 _symmetry_equiv_pos_site_id
 _symmetry_equiv_pos_as_xyz
  1  'x, y, z'
loop_
 _atom_site_type_symbol
 _atom_site_label
 _atom_site_symmetry_multiplicity
 _atom_site_fract_x
 _atom_site_fract_y
 _atom_site_fract_z
 _atom_site_occupancy
  La  La0  1  0.09853096  0.86838025  0.23011360  1
  La  La1  1  0.63827178  0.36838647  0.26984659  1
  La  La2  1  0.90146429  0.13161399  0.76988903  1
  La  La3  1  0.36171948  0.63160317  0.73013785  1
  Ge  Ge0  1  0.27297707  0.02312073  0.75004468  1
  Ge  Ge1  1  0.27300686  0.52295852  0.25020863  1
  Ge  Ge2  1  0.00009449  0.25010695  0.25006740  1
  Ge  Ge3  1  0.24185505  0.39825483  0.84349160  1
  Ge  Ge4  1  0.75815179  0.60175608  0.15650715  1
  Ge  Ge5  1  0.72699495  0.47703758  0.74978663  1
  Ge  Ge6  1  0.55470866  0.89816628  0.65626167  1
  Ge  Ge7  1  0.72702441  0.97688803  0.24996398  1
  Ge  Ge8  1  0.44528400  0.10182951  0.34373532  1
  Ge  Ge9  1  0.99991330  0.74989302  0.74994310  1
  Ir  Ir0  1  0.02989507  0.64063213  0.38937496  1
  Ir  Ir1  1  0.74874543  0.85964962  0.88938882  1
  Ir  Ir2  1  0.97010306  0.35936533  0.61062836  1
  Ir  Ir3  1  0.25126213  0.14035754  0.11061473  1
  Ir  Ir4  1  0.50002974  0.74996350  0.24991959  1
  Ir  Ir5  1  0.49996752  0.25003747  0.75007732  1
loop_
_geom_bond_atom_site_label_1
_geom_bond_atom_site_label_2
_geom_bond_distance
_geom_bond_site_symmetry_2
Ge0 Ir0 2.486593 1_545
Ge0 Ir3 2.486965 1_556
Ge0 Ge3 2.683707 1_555
Ge0 Ge6 2.685899 1_545
Ge0 Ir5 2.737554 1_555
Ge0 La2 3.291863 1_455
Ge0 La3 3.292350 1_545
Ge0 La0 3.366603 1_545
Ge0 La1 3.367023 1_556
Ge1 Ir0 2.487146 1_555
Ge1 Ir3 2.487264 1_555
Ge1 Ge6 2.682909 1_555
Ge1 Ge3 2.685973 1_554
Ge1 Ir4 2.740222 1_555
Ge1 La3 3.288624 1_555
Ge1 La2 3.291123 1_454
Ge1 La1 3.368345 1_555
Ge1 La0 3.369448 1_555
Ge2 Ir1 2.550755 1_444
Ge2 Ir2 2.550885 1_455
Ge2 Ir0 2.550931 1_555
Ge2 Ir3 2.551642 1_555
Ge2 La3 3.230270 1_555
Ge2 La2 3.230650 1_454
Ge2 La0 3.232284 1_545
Ge2 La1 3.232975 1_455
Ge3 Ir2 2.436162 1_455
Ge3 Ir4 2.534565 1_556
Ge3 Ir5 2.535151 1_555
Ge3 La3 3.045259 1_555
Ge3 La0 3.293546 1_545
Ge3 La0 3.295312 1_556
Ge3 La2 3.305227 1_455
Ge4 Ir0 2.436178 1_655
Ge4 Ir5 2.534625 1_554
Ge4 Ir4 2.535204 1_555
Ge4 Ge7 2.683650 1_555
Ge4 Ge5 2.685921 1_554
Ge4 La1 3.045367 1_555
Ge4 La2 3.293537 1_565
Ge4 La2 3.295310 1_554
Ge4 La0 3.305049 1_655
Ge5 Ir2 2.487088 1_555
Ge5 Ir1 2.487316 1_555
Ge5 Ge8 2.682951 1_555
Ge5 Ir5 2.740230 1_555
Ge5 La1 3.288669 1_555
Ge5 La0 3.291101 1_656
Ge5 La3 3.368411 1_555
Ge5 La2 3.369475 1_555
Ge6 Ir1 2.435565 1_555
Ge6 Ir4 2.534081 1_555
Ge6 Ir5 2.535542 1_565
Ge6 La2 3.045902 1_565
Ge6 La1 3.294446 1_555
Ge6 La1 3.294656 1_566
Ge6 La3 3.305065 1_555
Ge7 Ir2 2.486538 1_565
Ge7 Ir1 2.487021 1_554
Ge7 Ge8 2.685929 1_565
Ge7 Ir4 2.737555 1_555
Ge7 La0 3.291846 1_655
Ge7 La1 3.292344 1_565
Ge7 La2 3.366623 1_565
Ge7 La3 3.367145 1_554
Ge8 Ir3 2.435537 1_555
Ge8 Ir5 2.534050 1_555
Ge8 Ir4 2.535510 1_545
Ge8 La0 3.045909 1_545
Ge8 La3 3.294415 1_555
Ge8 La3 3.294722 1_544
Ge8 La1 3.305104 1_555
Ge9 Ir3 2.550779 1_666
Ge9 Ir0 2.550898 1_655
Ge9 Ir2 2.550918 1_555
Ge9 Ir1 2.551621 1_555
Ge9 La1 3.230422 1_555
Ge9 La0 3.230624 1_656
Ge9 La2 3.232307 1_565
Ge9 La3 3.232880 1_655
Ir0 La0 3.197119 1_555
Ir0 La2 3.298441 1_454
Ir0 La2 3.299382 1_465
Ir0 La3 3.500262 1_555
Ir0 La1 3.504941 1_455
Ir1 La3 3.198178 1_555
Ir1 La1 3.298295 1_566
Ir1 La1 3.298880 1_555
Ir1 La0 3.501108 1_656
Ir1 La2 3.503336 1_565
Ir2 La2 3.197146 1_555
Ir2 La0 3.298437 1_656
Ir2 La0 3.299384 1_645
Ir2 La1 3.500355 1_555
Ir2 La3 3.504933 1_655
Ir3 La1 3.198055 1_555
Ir3 La3 3.298322 1_544
Ir3 La3 3.298791 1_555
Ir3 La2 3.501114 1_454
Ir3 La0 3.503473 1_545
Ir4 La3 3.539437 1_554
Ir4 La2 3.540267 1_565
Ir4 La1 3.541182 1_555
Ir4 La0 3.542068 1_555
Ir5 La1 3.539398 1_556
Ir5 La0 3.540263 1_545
Ir5 La3 3.541174 1_555
Ir5 La2 3.542070 1_555
