# generated using pymatgen
data_Tb8Se15
_symmetry_space_group_name_H-M   'P 1'
_cell_length_a   11.65061599
_cell_length_b   11.76919510
_cell_length_c   25.10481795
_cell_angle_alpha   94.24373812
_cell_angle_beta   92.60244781
_cell_angle_gamma   89.56590909
_symmetry_Int_Tables_number   1
_chemical_formula_structural   Tb8Se15
_chemical_formula_sum   'Tb48 Se90'
_cell_volume   3429.32257455
_cell_formula_units_Z   6
loop_
 _symmetry_equiv_pos_site_id
 _symmetry_equiv_pos_as_xyz
  1  'x, y, z'
loop_
 _atom_site_type_symbol
 _atom_site_label
 _atom_site_symmetry_multiplicity
 _atom_site_fract_x
 _atom_site_fract_y
 _atom_site_fract_z
 _atom_site_occupancy
  Tb  Tb0  1  0.98563033  0.25102272  0.24786619  1
  Tb  Tb1  1  0.99994274  0.24691366  0.74979976  1
  Tb  Tb2  1  0.15297595  0.85129495  0.33281074  1
  Tb  Tb3  1  0.13965890  0.86488631  0.83977659  1
  Tb  Tb4  1  0.12311338  0.85090024  0.17013281  1
  Tb  Tb5  1  0.11355681  0.85507575  0.67379430  1
  Tb  Tb6  1  0.14824463  0.85837790  0.00213069  1
  Tb  Tb7  1  0.15665096  0.85265572  0.51153333  1
  Tb  Tb8  1  0.21781324  0.51086034  0.24568955  1
  Tb  Tb9  1  0.21768941  0.51496911  0.74669593  1
  Tb  Tb10  1  0.24790047  0.49260662  0.08109419  1
  Tb  Tb11  1  0.26266477  0.51152768  0.41880307  1
  Tb  Tb12  1  0.23459935  0.49776498  0.58424975  1
  Tb  Tb13  1  0.26494561  0.50855192  0.91591972  1
  Tb  Tb14  1  0.36801145  0.10704175  0.16085784  1
  Tb  Tb15  1  0.36779386  0.10077931  0.67386024  1
  Tb  Tb16  1  0.38460489  0.10552788  0.33016240  1
  Tb  Tb17  1  0.39249480  0.10600866  0.83332600  1
  Tb  Tb18  1  0.41477258  0.13336847  0.99232979  1
  Tb  Tb19  1  0.41482486  0.12914218  0.49065551  1
  Tb  Tb20  1  0.47864605  0.76120345  0.24835922  1
  Tb  Tb21  1  0.47993072  0.76351537  0.75296532  1
  Tb  Tb22  1  0.49084783  0.72287177  0.09523697  1
  Tb  Tb23  1  0.49123542  0.72015256  0.59673318  1
  Tb  Tb24  1  0.50272265  0.77170964  0.92356418  1
  Tb  Tb25  1  0.50660219  0.76773522  0.41488920  1
  Tb  Tb26  1  0.64918543  0.39851303  0.48392820  1
  Tb  Tb27  1  0.64524139  0.39321795  0.98863896  1
  Tb  Tb28  1  0.61746082  0.33394207  0.18068963  1
  Tb  Tb29  1  0.61758834  0.33371254  0.67846818  1
  Tb  Tb30  1  0.65845595  0.34858999  0.83763700  1
  Tb  Tb31  1  0.65835744  0.34749254  0.33612187  1
  Tb  Tb32  1  0.73747143  0.97288607  0.25734860  1
  Tb  Tb33  1  0.73375885  0.98683807  0.75312254  1
  Tb  Tb34  1  0.72058644  0.99544090  0.09859043  1
  Tb  Tb35  1  0.75446595  0.03429301  0.40841954  1
  Tb  Tb36  1  0.71495683  0.99466369  0.59413017  1
  Tb  Tb37  1  0.76966276  0.02760856  0.90778253  1
  Tb  Tb38  1  0.86742557  0.61476274  0.16484652  1
  Tb  Tb39  1  0.89666529  0.61531968  0.33146875  1
  Tb  Tb40  1  0.86893405  0.61185229  0.66421655  1
  Tb  Tb41  1  0.89836603  0.60263435  0.83130416  1
  Tb  Tb42  1  0.90416373  0.62147624  0.99087984  1
  Tb  Tb43  1  0.90545921  0.62812466  0.49160558  1
  Tb  Tb44  1  0.01081109  0.27585041  0.41276090  1
  Tb  Tb45  1  0.01382692  0.26947594  0.06716415  1
  Tb  Tb46  1  0.00878809  0.21908353  0.57932335  1
  Tb  Tb47  1  0.00358036  0.26065941  0.91154721  1
  Se  Se0  1  0.00351122  0.98892653  0.26274352  1
  Se  Se1  1  0.99312868  0.98190315  0.76145011  1
  Se  Se2  1  0.04994545  0.68740494  0.24952257  1
  Se  Se3  1  0.04806018  0.68723459  0.75040595  1
  Se  Se4  1  0.06201296  0.69380233  0.07771828  1
  Se  Se5  1  0.07998020  0.69739860  0.41718625  1
  Se  Se6  1  0.06052280  0.68653357  0.58331463  1
  Se  Se7  1  0.07664658  0.68907505  0.91600941  1
  Se  Se8  1  0.06455088  0.44079626  0.15849481  1
  Se  Se9  1  0.07867538  0.43568928  0.33054514  1
  Se  Se10  1  0.05861540  0.42883812  0.66118954  1
  Se  Se11  1  0.07975379  0.43168035  0.83200951  1
  Se  Se12  1  0.08317976  0.43557354  0.99260003  1
  Se  Se13  1  0.08281242  0.43759231  0.49480738  1
  Se  Se14  1  0.16009110  0.11005099  0.49967185  1
  Se  Se15  1  0.12572798  0.11633697  0.33255889  1
  Se  Se16  1  0.14297169  0.13129515  0.83379257  1
  Se  Se17  1  0.09652278  0.10338751  0.15597125  1
  Se  Se18  1  0.11110952  0.10448571  0.66877747  1
  Se  Se19  1  0.24961638  0.21720520  0.06645951  1
  Se  Se20  1  0.27647222  0.26341335  0.40670018  1
  Se  Se21  1  0.25372456  0.21982674  0.57681272  1
  Se  Se22  1  0.26484311  0.25156737  0.91044361  1
  Se  Se23  1  0.27315901  0.27665763  0.75747360  1
  Se  Se24  1  0.25510222  0.25448063  0.24619581  1
  Se  Se25  1  0.30187605  0.93508581  0.24912550  1
  Se  Se26  1  0.30113031  0.93396318  0.75491864  1
  Se  Se27  1  0.29401327  0.90884273  0.09543187  1
  Se  Se28  1  0.31942009  0.93833291  0.41242998  1
  Se  Se29  1  0.29357224  0.90805285  0.60412791  1
  Se  Se30  1  0.31847855  0.94444116  0.91983510  1
  Se  Se31  1  0.33274333  0.66981567  0.32773841  1
  Se  Se32  1  0.32997287  0.67432359  0.83177128  1
  Se  Se33  1  0.30874318  0.66702578  0.67319794  1
  Se  Se34  1  0.30841590  0.66677600  0.16983540  1
  Se  Se35  1  0.32310219  0.66985473  0.00335984  1
  Se  Se36  1  0.32095221  0.66305661  0.50795962  1
  Se  Se37  1  0.39493753  0.37842952  0.99528534  1
  Se  Se38  1  0.40533154  0.37840543  0.50116786  1
  Se  Se39  1  0.36746444  0.36528192  0.18262378  1
  Se  Se40  1  0.36370354  0.35736197  0.67966629  1
  Se  Se41  1  0.49494431  0.46851697  0.58909822  1
  Se  Se42  1  0.50547223  0.47422430  0.09699471  1
  Se  Se43  1  0.52304412  0.51523206  0.89788653  1
  Se  Se44  1  0.51783088  0.51037084  0.39272706  1
  Se  Se45  1  0.55592965  0.91882919  0.17441888  1
  Se  Se46  1  0.55388001  0.91618059  0.67578471  1
  Se  Se47  1  0.56658887  0.92666051  0.33415665  1
  Se  Se48  1  0.56979398  0.92682223  0.83658000  1
  Se  Se49  1  0.64473835  0.95444375  0.98801432  1
  Se  Se50  1  0.61761757  0.95747627  0.48432554  1
  Se  Se51  1  0.54848459  0.17454106  0.09340995  1
  Se  Se52  1  0.53881730  0.16728269  0.59687074  1
  Se  Se53  1  0.57315327  0.19855119  0.91153087  1
  Se  Se54  1  0.57003943  0.20032101  0.40974608  1
  Se  Se55  1  0.54783070  0.18266876  0.25816375  1
  Se  Se56  1  0.55448116  0.18183571  0.75812857  1
  Se  Se57  1  0.81306445  0.30095027  0.12173723  1
  Se  Se58  1  0.80088231  0.31395314  0.61154185  1
  Se  Se59  1  0.61270025  0.58991730  0.17916023  1
  Se  Se60  1  0.61218845  0.59326157  0.68408533  1
  Se  Se61  1  0.45239651  0.91674924  0.53855425  1
  Se  Se62  1  0.47401546  0.91704992  0.03565886  1
  Se  Se63  1  0.63935263  0.64345787  0.99955536  1
  Se  Se64  1  0.63516663  0.64602663  0.49438136  1
  Se  Se65  1  0.72120443  0.71446528  0.26174518  1
  Se  Se66  1  0.73390026  0.71935783  0.75916054  1
  Se  Se67  1  0.75151110  0.74975969  0.07712210  1
  Se  Se68  1  0.78200578  0.76805326  0.41161810  1
  Se  Se69  1  0.74453582  0.75140814  0.57682950  1
  Se  Se70  1  0.77173896  0.75254705  0.90761599  1
  Se  Se71  1  0.82170024  0.47052158  0.06734762  1
  Se  Se72  1  0.80968120  0.48440847  0.56446732  1
  Se  Se73  1  0.82807750  0.45338680  0.40967928  1
  Se  Se74  1  0.82680364  0.44641623  0.91111190  1
  Se  Se75  1  0.84681300  0.20082803  0.48369986  1
  Se  Se76  1  0.83283982  0.21051111  0.98594949  1
  Se  Se77  1  0.80387510  0.42977790  0.25653776  1
  Se  Se78  1  0.80253016  0.42528120  0.75602144  1
  Se  Se79  1  0.79355951  0.14655065  0.18777140  1
  Se  Se80  1  0.83269281  0.17676070  0.33223066  1
  Se  Se81  1  0.80352088  0.15005341  0.68061344  1
  Se  Se82  1  0.83160709  0.17588406  0.83039776  1
  Se  Se83  1  0.89528822  0.87637277  0.34639832  1
  Se  Se84  1  0.87216100  0.86179136  0.17028898  1
  Se  Se85  1  0.87303465  0.85564635  0.83332936  1
  Se  Se86  1  0.86155709  0.85917187  0.66333590  1
  Se  Se87  1  0.01431458  0.00036884  0.93248047  1
  Se  Se88  1  0.95876436  0.97114634  0.55459834  1
  Se  Se89  1  0.99247040  0.02622045  0.07227775  1
loop_
_geom_bond_atom_site_label_1
_geom_bond_atom_site_label_2
_geom_bond_distance
_geom_bond_site_symmetry_2
Se0 Se15 2.600915 1_565
Se0 Se83 2.903896 1_455
Se0 Tb2 2.975075 1_555
Se0 Se84 3.027564 1_455
Se0 Tb32 3.102904 1_455
Se0 Tb4 3.112392 1_555
Se0 Tb0 3.138748 1_465
Se1 Se85 2.842464 1_555
Se1 Tb3 2.956015 1_655
Se1 Tb5 2.966764 1_655
Se1 Tb33 3.019972 1_555
Se1 Tb1 3.156047 1_565
Se2 Tb8 2.842076 1_555
Se2 Tb2 2.956963 1_555
Se2 Tb39 2.959056 1_455
Se2 Tb38 3.019899 1_455
Se2 Tb4 3.024614 1_555
Se3 Tb9 2.820087 1_555
Se3 Tb41 2.967313 1_455
Se3 Tb5 2.983602 1_555
Se3 Tb40 3.026244 1_455
Se3 Tb3 3.109082 1_555
Se4 Tb42 2.871292 1_454
Se4 Tb4 2.922837 1_555
Se4 Tb6 3.018031 1_555
Se4 Tb10 3.199967 1_555
Se4 Tb38 3.401877 1_455
Se5 Tb43 2.980760 1_455
Se5 Tb7 2.989805 1_555
Se5 Tb2 3.040639 1_555
Se5 Tb11 3.041679 1_555
Se5 Tb39 3.071079 1_455
Se6 Tb43 2.905845 1_455
Se6 Tb5 2.949635 1_555
Se6 Tb12 2.997433 1_555
Se6 Tb7 3.010333 1_555
Se6 Tb40 3.253555 1_455
Se7 Tb6 2.926506 1_556
Se7 Tb42 2.965239 1_455
Se7 Tb41 3.030183 1_455
Se7 Tb3 3.036398 1_555
Se7 Tb13 3.042343 1_555
Se8 Tb8 2.839067 1_555
Se8 Tb45 2.980374 1_555
Se8 Tb10 3.046748 1_555
Se8 Tb38 3.066865 1_455
Se8 Tb0 3.439179 1_455
Se9 Tb8 2.926234 1_555
Se9 Tb39 2.982601 1_455
Se9 Tb44 3.028116 1_555
Se9 Tb0 3.061159 1_455
Se9 Tb11 3.099346 1_555
Se10 Tb9 2.900941 1_555
Se10 Tb12 3.034724 1_555
Se10 Tb40 3.073722 1_455
Se10 Tb46 3.133316 1_555
Se10 Tb1 3.296267 1_455
Se11 Tb41 2.907201 1_455
Se11 Tb9 2.962738 1_555
Se11 Tb1 3.007487 1_455
Se11 Tb13 3.040735 1_555
Se11 Tb47 3.099809 1_555
Se12 Tb47 2.911350 1_555
Se12 Tb10 2.912176 1_556
Se12 Tb45 2.946386 1_556
Se12 Tb42 3.012551 1_455
Se12 Tb13 3.093632 1_555
Se13 Tb44 2.803014 1_555
Se13 Tb12 2.844962 1_555
Se13 Tb43 3.040682 1_455
Se13 Tb11 3.070020 1_555
Se13 Tb46 3.586986 1_555
Se14 Se21 2.463510 1_555
Se14 Tb46 2.942558 1_555
Se14 Tb19 2.998037 1_555
Se14 Tb7 3.066526 1_545
Se14 Tb44 3.439070 1_555
Se15 Se20 2.969435 1_555
Se15 Tb44 3.003039 1_555
Se15 Tb16 3.020935 1_555
Se15 Tb2 3.133493 1_545
Se15 Tb0 3.137194 1_455
Se16 Se22 2.664936 1_555
Se16 Tb17 2.920512 1_555
Se16 Tb47 2.928538 1_555
Se16 Tb1 3.024221 1_455
Se16 Tb3 3.150710 1_545
Se17 Se89 2.492399 1_455
Se17 Tb4 3.030679 1_545
Se17 Tb0 3.107075 1_455
Se17 Tb14 3.160313 1_555
Se17 Tb45 3.184525 1_555
Se18 Tb1 2.885547 1_455
Se18 Tb46 2.909342 1_555
Se18 Tb5 2.947219 1_545
Se18 Tb15 2.987583 1_555
Se19 Tb45 2.811134 1_555
Se19 Tb18 2.857275 1_554
Se19 Tb14 3.054615 1_555
Se19 Tb10 3.234895 1_555
Se20 Tb16 2.896195 1_555
Se20 Tb11 2.917400 1_555
Se20 Se38 2.990378 1_555
Se20 Tb44 3.107559 1_555
Se20 Tb19 3.111846 1_555
Se21 Tb46 2.857310 1_555
Se21 Tb19 3.055646 1_555
Se21 Tb15 3.138160 1_555
Se21 Tb12 3.269099 1_555
Se22 Se37 2.886802 1_555
Se22 Tb17 2.937136 1_555
Se22 Tb13 3.017451 1_555
Se22 Tb18 3.045122 1_555
Se22 Tb47 3.046253 1_555
Se23 Se40 2.511455 1_555
Se23 Tb9 2.902819 1_555
Se23 Tb15 3.072303 1_555
Se23 Tb17 3.142642 1_555
Se23 Tb1 3.200506 1_455
Se24 Se39 2.546557 1_555
Se24 Tb14 3.000414 1_555
Se24 Tb8 3.046114 1_555
Se24 Tb0 3.142309 1_455
Se24 Tb16 3.164043 1_555
Se25 Tb16 2.887731 1_565
Se25 Tb20 2.892009 1_555
Se25 Tb4 2.935537 1_555
Se25 Tb2 3.009860 1_555
Se25 Tb14 3.231439 1_565
Se26 Tb21 2.880525 1_555
Se26 Tb17 2.891390 1_565
Se26 Tb5 3.021962 1_555
Se26 Tb15 3.058872 1_565
Se26 Tb3 3.062974 1_555
Se27 Se62 2.639959 1_555
Se27 Tb6 2.858587 1_555
Se27 Tb14 2.866557 1_565
Se27 Tb4 2.914680 1_555
Se27 Tb22 3.157990 1_555
Se28 Tb2 2.860090 1_555
Se28 Tb25 2.954770 1_555
Se28 Tb19 3.053209 1_565
Se28 Tb16 3.079101 1_565
Se28 Tb7 3.410525 1_555
Se29 Se61 2.539471 1_555
Se29 Tb7 2.797880 1_555
Se29 Tb15 2.874349 1_565
Se29 Tb5 2.891462 1_555
Se29 Tb23 3.182632 1_555
Se30 Tb3 2.937235 1_555
Se30 Tb24 2.948389 1_555
Se30 Tb18 2.961152 1_565
Se30 Tb17 3.143597 1_565
Se30 Tb6 3.152814 1_556
Se31 Tb20 2.944510 1_555
Se31 Tb8 2.958511 1_555
Se31 Tb2 2.980073 1_555
Se31 Tb25 3.078585 1_555
Se31 Tb11 3.191628 1_555
Se32 Tb21 2.952525 1_555
Se32 Tb9 2.996828 1_555
Se32 Tb13 3.101754 1_555
Se32 Tb3 3.144061 1_555
Se32 Tb24 3.146065 1_555
Se33 Tb9 2.903066 1_555
Se33 Tb21 2.934729 1_555
Se33 Tb12 2.982193 1_555
Se33 Tb23 3.027353 1_555
Se33 Tb5 3.160958 1_555
Se34 Tb20 2.899781 1_555
Se34 Tb8 2.972694 1_555
Se34 Tb10 2.977504 1_555
Se34 Tb22 3.004398 1_555
Se34 Tb4 3.047113 1_555
Se35 Tb13 2.854725 1_554
Se35 Tb22 2.987492 1_555
Se35 Tb6 3.001664 1_555
Se35 Tb10 3.116593 1_555
Se35 Tb24 3.256301 1_554
Se36 Tb11 2.817967 1_555
Se36 Tb7 2.927929 1_555
Se36 Tb23 2.958263 1_555
Se36 Tb12 3.036575 1_555
Se36 Tb25 3.546931 1_555
Se37 Tb18 2.887410 1_555
Se37 Tb27 2.935728 1_555
Se37 Se42 2.957478 1_556
Se37 Tb13 2.958256 1_555
Se37 Tb10 3.041842 1_556
Se38 Se41 2.559047 1_555
Se38 Tb26 2.907212 1_555
Se38 Tb19 2.927662 1_555
Se38 Tb11 3.101763 1_555
Se38 Tb12 3.190797 1_555
Se39 Tb8 2.878553 1_555
Se39 Tb28 2.935239 1_555
Se39 Tb14 3.047963 1_555
Se39 Se42 3.098948 1_555
Se39 Tb10 3.300604 1_555
Se40 Tb29 2.970185 1_555
Se40 Tb9 2.986052 1_555
Se40 Tb15 3.012614 1_555
Se40 Tb12 3.309372 1_555
Se41 Tb23 2.953672 1_555
Se41 Se60 2.987345 1_555
Se41 Tb12 3.048005 1_555
Se41 Tb29 3.129529 1_555
Se41 Tb26 3.311428 1_555
Se42 Se59 2.654372 1_555
Se42 Tb22 2.933523 1_555
Se42 Tb28 3.012440 1_555
Se42 Tb10 3.017537 1_555
Se42 Tb27 3.309878 1_554
Se43 Tb30 2.890327 1_555
Se43 Tb24 3.049296 1_555
Se43 Tb13 3.063609 1_555
Se43 Tb27 3.072197 1_555
Se44 Tb31 2.852220 1_555
Se44 Tb25 3.041797 1_555
Se44 Tb26 3.068339 1_555
Se44 Tb11 3.072673 1_555
Se45 Tb20 2.895628 1_555
Se45 Tb32 2.938916 1_555
Se45 Tb34 2.954464 1_555
Se45 Tb22 3.009390 1_555
Se45 Tb14 3.128317 1_565
Se46 Tb33 2.875945 1_555
Se46 Tb21 2.900893 1_555
Se46 Tb23 3.001706 1_555
Se46 Tb36 3.038587 1_555
Se46 Tb15 3.058984 1_565
Se47 Tb32 2.915142 1_555
Se47 Tb20 2.947917 1_555
Se47 Tb25 2.967192 1_555
Se47 Tb16 2.980145 1_565
Se47 Tb35 3.032093 1_565
Se48 Tb21 2.903505 1_555
Se48 Tb17 2.943655 1_565
Se48 Tb33 3.023386 1_555
Se48 Tb37 3.061807 1_565
Se48 Tb24 3.078712 1_555
Se49 Se62 2.426480 1_556
Se49 Tb37 2.731066 1_565
Se49 Tb34 2.881890 1_556
Se49 Tb24 3.045749 1_555
Se49 Tb18 3.395818 1_565
Se50 Se61 2.477307 1_555
Se50 Tb35 2.746527 1_565
Se50 Tb36 2.936273 1_555
Se50 Tb25 2.993528 1_555
Se50 Tb19 3.098961 1_565
Se51 Tb28 2.867215 1_555
Se51 Tb34 2.904007 1_545
Se51 Tb14 2.909807 1_555
Se51 Tb18 2.927713 1_554
Se52 Tb29 2.852700 1_555
Se52 Tb36 2.876160 1_545
Se52 Tb19 2.980184 1_555
Se52 Tb15 2.985929 1_555
Se53 Tb30 2.868112 1_555
Se53 Tb18 2.949514 1_555
Se53 Tb17 2.968834 1_555
Se53 Tb27 2.987773 1_555
Se53 Tb37 3.036410 1_555
Se54 Tb31 2.854596 1_555
Se54 Tb35 2.892987 1_555
Se54 Tb19 2.950606 1_555
Se54 Tb26 2.998852 1_555
Se54 Tb16 3.036197 1_555
Se55 Tb28 2.878954 1_555
Se55 Tb16 2.879050 1_555
Se55 Tb31 2.915239 1_555
Se55 Tb14 3.223427 1_555
Se55 Tb32 3.300274 1_545
Se56 Tb29 2.901300 1_555
Se56 Tb17 2.918964 1_555
Se56 Tb30 2.922319 1_555
Se56 Tb15 3.071024 1_555
Se56 Tb33 3.090927 1_545
Se57 Se71 2.505247 1_555
Se57 Se79 2.566756 1_555
Se57 Tb45 2.772719 1_655
Se57 Tb28 2.782510 1_555
Se58 Se72 2.407629 1_555
Se58 Tb29 2.774500 1_555
Se58 Tb46 2.787716 1_655
Se59 Se65 2.717625 1_555
Se59 Tb22 3.014215 1_555
Se59 Tb28 3.015765 1_555
Se59 Tb38 3.024477 1_555
Se59 Tb20 3.033391 1_555
Se60 Se66 2.672206 1_555
Se60 Tb21 3.010302 1_555
Se60 Tb23 3.032703 1_555
Se60 Tb29 3.047798 1_555
Se60 Tb40 3.066885 1_555
Se61 Tb23 2.848841 1_555
Se61 Tb19 2.875160 1_565
Se61 Tb25 3.531073 1_555
Se62 Tb22 2.823245 1_555
Se62 Tb18 2.907967 1_564
Se62 Tb24 3.212700 1_554
Se62 Tb34 3.318424 1_555
Se63 Se67 2.549084 1_556
Se63 Tb24 2.926728 1_555
Se63 Tb27 2.938154 1_555
Se63 Tb22 3.107672 1_556
Se63 Tb42 3.110223 1_555
Se64 Se69 2.617371 1_555
Se64 Tb25 2.897765 1_555
Se64 Tb26 2.909444 1_555
Se64 Tb43 3.158104 1_555
Se64 Tb23 3.195755 1_555
Se65 Tb20 2.884283 1_555
Se65 Tb39 2.923273 1_555
Se65 Tb32 3.059176 1_555
Se65 Tb38 3.181240 1_555
Se66 Se85 2.826798 1_555
Se66 Tb41 2.975261 1_555
Se66 Tb21 2.999374 1_555
Se66 Tb40 3.101816 1_555
Se66 Tb33 3.162843 1_555
Se67 Se84 2.908276 1_555
Se67 Tb34 2.924397 1_555
Se67 Tb38 3.068141 1_555
Se67 Tb22 3.113025 1_555
Se67 Tb42 3.155214 1_554
Se68 Se83 2.564880 1_555
Se68 Tb39 2.955806 1_555
Se68 Tb43 3.000740 1_555
Se68 Tb35 3.153955 1_565
Se68 Tb25 3.213435 1_555
Se69 Se86 2.744707 1_555
Se69 Tb36 2.884153 1_555
Se69 Tb23 3.044927 1_555
Se69 Tb40 3.133621 1_555
Se69 Tb43 3.171993 1_555
Se70 Se85 2.626714 1_555
Se70 Tb41 2.945613 1_555
Se70 Tb42 3.045929 1_555
Se70 Tb24 3.181869 1_555
Se70 Tb37 3.236854 1_565
Se71 Tb27 2.889999 1_554
Se71 Tb38 2.904681 1_555
Se71 Tb42 2.909090 1_554
Se71 Tb45 3.244710 1_655
Se72 Tb26 2.826544 1_555
Se72 Tb43 2.850236 1_555
Se72 Tb40 2.880981 1_555
Se73 Tb31 2.870254 1_555
Se73 Tb43 2.916502 1_555
Se73 Tb26 2.964264 1_555
Se73 Tb39 2.974095 1_555
Se73 Tb44 2.974199 1_655
Se74 Tb30 2.822464 1_555
Se74 Tb42 2.884628 1_555
Se74 Tb41 2.968129 1_555
Se74 Tb47 2.992435 1_655
Se74 Tb27 3.037916 1_555
Se75 Tb35 2.805334 1_555
Se75 Tb44 2.858187 1_655
Se75 Tb46 2.981390 1_655
Se75 Tb26 3.260759 1_555
Se76 Tb37 2.879943 1_555
Se76 Tb47 2.883165 1_655
Se76 Tb45 2.916713 1_656
Se76 Tb27 3.053868 1_555
Se77 Tb31 2.902200 1_555
Se77 Tb39 2.952785 1_555
Se77 Tb0 2.977251 1_555
Se77 Tb28 2.993089 1_555
Se77 Tb38 3.392294 1_555
Se78 Tb41 2.904358 1_555
Se78 Tb30 2.905060 1_555
Se78 Tb29 2.989721 1_555
Se78 Tb1 3.103555 1_555
Se78 Tb40 3.415922 1_555
Se79 Tb34 2.856392 1_545
Se79 Tb0 2.873317 1_555
Se79 Tb32 2.882328 1_545
Se79 Tb28 3.010190 1_555
Se80 Tb35 2.820747 1_555
Se80 Tb31 2.845995 1_555
Se80 Tb44 3.010057 1_655
Se80 Tb0 3.010772 1_555
Se80 Tb32 3.115356 1_545
Se81 Tb33 2.887839 1_545
Se81 Tb36 2.891470 1_545
Se81 Tb1 2.989791 1_555
Se81 Tb29 3.050131 1_555
Se82 Tb37 2.826395 1_555
Se82 Tb30 2.854924 1_555
Se82 Tb47 2.918735 1_655
Se82 Tb33 3.035154 1_545
Se82 Tb1 3.045469 1_555
Se83 Tb35 2.885826 1_565
Se83 Tb2 3.046551 1_655
Se83 Tb39 3.067516 1_555
Se83 Tb32 3.104773 1_555
Se84 Tb38 2.901245 1_555
Se84 Tb4 2.925756 1_655
Se84 Tb32 2.967547 1_555
Se84 Tb34 2.986788 1_555
Se85 Tb37 2.940703 1_565
Se85 Tb41 2.987023 1_555
Se85 Tb33 3.032646 1_555
Se85 Tb3 3.105512 1_655
Se86 Tb40 2.913060 1_555
Se86 Tb36 2.928803 1_555
Se86 Tb5 2.936120 1_655
Se86 Tb33 3.053686 1_555
Se87 Tb6 2.903449 1_546
Se87 Tb37 2.909771 1_455
Se87 Tb3 3.132988 1_545
Se87 Tb47 3.146870 1_555
Se88 Tb7 2.895416 1_655
Se88 Tb46 2.994103 1_665
Se88 Tb36 3.055072 1_555
Se89 Tb45 2.888390 1_655
Se89 Tb6 3.165142 1_645
Se89 Tb34 3.293052 1_545
Se89 Tb4 3.601712 1_645
