# generated using pymatgen
data_BH3OF4
_symmetry_space_group_name_H-M   'P 1'
_cell_length_a   4.73863100
_cell_length_b   6.14062447
_cell_length_c   6.37519183
_cell_angle_alpha   100.31454540
_cell_angle_beta   98.76672476
_cell_angle_gamma   89.05597935
_symmetry_Int_Tables_number   1
_chemical_formula_structural   BH3OF4
_chemical_formula_sum   'B2 H6 O2 F8'
_cell_volume   180.36506607
_cell_formula_units_Z   2
loop_
 _symmetry_equiv_pos_site_id
 _symmetry_equiv_pos_as_xyz
  1  'x, y, z'
loop_
 _atom_site_type_symbol
 _atom_site_label
 _atom_site_symmetry_multiplicity
 _atom_site_fract_x
 _atom_site_fract_y
 _atom_site_fract_z
 _atom_site_occupancy
  B  B0  1  0.43188100  0.20143000  0.79827600  1
  B  B1  1  0.56811900  0.79857000  0.20172400  1
  H  H0  1  0.16375100  0.29548700  0.16391600  1
  H  H1  1  0.83624900  0.70451300  0.83608400  1
  H  H2  1  0.24624900  0.30400700  0.42904700  1
  H  H3  1  0.75375100  0.69599300  0.57095300  1
  H  H4  1  0.95666000  0.16483500  0.29217200  1
  H  H5  1  0.04334000  0.83516500  0.70782800  1
  O  O0  1  0.08620400  0.29598400  0.30299600  1
  O  O1  1  0.91379600  0.70401600  0.69700400  1
  F  F0  1  0.27269200  0.32221700  0.95129400  1
  F  F1  1  0.72730800  0.67778300  0.04870600  1
  F  F2  1  0.26824000  0.01158400  0.67960600  1
  F  F3  1  0.73176000  0.98841600  0.32039400  1
  F  F4  1  0.46909100  0.33922400  0.64407600  1
  F  F5  1  0.53090900  0.66077600  0.35592400  1
  F  F6  1  0.69361100  0.13720100  0.89583900  1
  F  F7  1  0.30638900  0.86279900  0.10416100  1
loop_
_geom_bond_atom_site_label_1
_geom_bond_atom_site_label_2
_geom_bond_distance
_geom_bond_site_symmetry_2
B0 F6 1.384632 1_555
B0 F0 1.420409 1_555
B0 F2 1.437989 1_555
B0 F4 1.438425 1_555
B1 F7 1.384632 1_555
B1 F1 1.420409 1_555
B1 F3 1.437989 1_555
B1 F5 1.438425 1_555
H0 O0 1.009713 1_555
H1 O1 1.009713 1_555
H2 O0 1.012246 1_555
H3 O1 1.012246 1_555
H4 O0 1.006793 1_655
H5 O1 1.006793 1_455
F0 H0 1.557755 1_556
F1 H1 1.557755 1_554
F2 H5 1.583668 1_545
F3 H4 1.583668 1_565
F4 H2 1.581510 1_555
F5 H3 1.581510 1_555
