# generated using pymatgen
data_Rb3Pb4Au
_symmetry_space_group_name_H-M   'P 1'
_cell_length_a   6.98171700
_cell_length_b   7.17215400
_cell_length_c   15.67187800
_cell_angle_alpha   90.00000000
_cell_angle_beta   90.00000000
_cell_angle_gamma   90.00000000
_symmetry_Int_Tables_number   1
_chemical_formula_structural   Rb3Pb4Au
_chemical_formula_sum   'Rb6 Pb8 Au2'
_cell_volume   784.75282767
_cell_formula_units_Z   2
loop_
 _symmetry_equiv_pos_site_id
 _symmetry_equiv_pos_as_xyz
  1  'x, y, z'
loop_
 _atom_site_type_symbol
 _atom_site_label
 _atom_site_symmetry_multiplicity
 _atom_site_fract_x
 _atom_site_fract_y
 _atom_site_fract_z
 _atom_site_occupancy
  Rb  Rb0  1  0.99381100  0.50000000  0.50000000  1
  Rb  Rb1  1  0.60413900  0.50000000  0.69406300  1
  Rb  Rb2  1  0.00618900  0.00000000  0.00000000  1
  Rb  Rb3  1  0.39586100  0.00000000  0.80593700  1
  Rb  Rb4  1  0.39586100  0.00000000  0.19406300  1
  Rb  Rb5  1  0.60413900  0.50000000  0.30593700  1
  Pb  Pb0  1  0.55127900  0.72961900  0.00000000  1
  Pb  Pb1  1  0.14012300  0.00000000  0.60434500  1
  Pb  Pb2  1  0.44872100  0.77038100  0.50000000  1
  Pb  Pb3  1  0.55127900  0.27038100  0.00000000  1
  Pb  Pb4  1  0.85987700  0.50000000  0.89565500  1
  Pb  Pb5  1  0.85987700  0.50000000  0.10434500  1
  Pb  Pb6  1  0.44872100  0.22961900  0.50000000  1
  Pb  Pb7  1  0.14012300  0.00000000  0.39565500  1
  Au  Au0  1  0.79275200  0.00000000  0.50000000  1
  Au  Au1  1  0.20724800  0.50000000  0.00000000  1
loop_
_geom_bond_atom_site_label_1
_geom_bond_atom_site_label_2
_geom_bond_distance
_geom_bond_site_symmetry_2
Rb0 Rb5 4.080595 1_555
Rb0 Rb1 4.080595 1_555
Rb2 Rb4 4.080595 1_555
Rb2 Rb3 4.080595 1_554
Pb0 Rb2 3.721272 1_665
Pb0 Rb3 3.766651 1_564
Pb0 Rb4 3.766651 1_565
Pb0 Rb2 4.271256 1_565
Pb1 Rb3 3.628955 1_555
Pb1 Rb0 4.071557 1_445
Pb1 Rb0 4.071557 1_455
Pb2 Rb0 3.721272 1_455
Pb2 Rb5 3.766651 1_555
Pb2 Rb1 3.766651 1_555
Pb2 Rb0 4.271256 1_555
Pb3 Rb2 3.721272 1_655
Pb3 Rb3 3.766651 1_554
Pb3 Rb4 3.766651 1_555
Pb3 Rb2 4.271256 1_555
Pb4 Rb1 3.628955 1_555
Pb4 Rb2 4.071557 1_666
Pb4 Rb2 4.071557 1_656
Pb5 Rb5 3.628955 1_555
Pb5 Rb2 4.071557 1_665
Pb5 Rb2 4.071557 1_655
Pb6 Rb0 3.721272 1_455
Pb6 Rb5 3.766651 1_555
Pb6 Rb1 3.766651 1_555
Pb6 Rb0 4.271256 1_555
Pb7 Rb4 3.628955 1_555
Pb7 Rb0 4.071557 1_445
Pb7 Rb0 4.071557 1_455
Au0 Pb6 2.912286 1_555
Au0 Pb2 2.912286 1_545
Au0 Pb1 2.925058 1_655
Au0 Pb7 2.925058 1_655
Au0 Rb0 3.851029 1_555
Au0 Rb0 3.851029 1_545
Au1 Pb0 2.912286 1_555
Au1 Pb3 2.912286 1_555
Au1 Pb5 2.925058 1_455
Au1 Pb4 2.925058 1_454
Au1 Rb2 3.851029 1_565
Au1 Rb2 3.851029 1_555
