# generated using pymatgen
data_U4Ga12Pd
_symmetry_space_group_name_H-M   'P 1'
_cell_length_a   7.46578317
_cell_length_b   7.46615929
_cell_length_c   7.46858625
_cell_angle_alpha   109.06821543
_cell_angle_beta   109.67674086
_cell_angle_gamma   109.67587436
_symmetry_Int_Tables_number   1
_chemical_formula_structural   U4Ga12Pd
_chemical_formula_sum   'U4 Ga12 Pd1'
_cell_volume   320.43392982
_cell_formula_units_Z   1
loop_
 _symmetry_equiv_pos_site_id
 _symmetry_equiv_pos_as_xyz
  1  'x, y, z'
loop_
 _atom_site_type_symbol
 _atom_site_label
 _atom_site_symmetry_multiplicity
 _atom_site_fract_x
 _atom_site_fract_y
 _atom_site_fract_z
 _atom_site_occupancy
  U  U0  1  -0.00000093  0.99999853  0.49999588  1
  U  U1  1  0.00000088  0.49999906  0.00000218  1
  U  U2  1  0.49999181  0.49999382  0.49999221  1
  U  U3  1  0.49999784  0.99999964  0.99999961  1
  Ga  Ga0  1  0.74913076  0.24907651  0.50024812  1
  Ga  Ga1  1  0.70473882  -0.00002244  0.70510236  1
  Ga  Ga2  1  0.99983836  0.29571542  0.29568417  1
  Ga  Ga3  1  0.25074419  0.49992517  0.75067877  1
  Ga  Ga4  1  0.50025103  0.75046529  0.25053866  1
  Ga  Ga5  1  0.25086616  0.75092104  0.49975973  1
  Ga  Ga6  1  0.49975080  0.24953307  0.74945743  1
  Ga  Ga7  1  0.70455312  0.70435564  0.99993461  1
  Ga  Ga8  1  0.74924808  0.50007365  0.24931535  1
  Ga  Ga9  1  0.29526482  0.00001275  0.29489802  1
  Ga  Ga10  1  0.29545085  0.29564816  0.00005105  1
  Ga  Ga11  1  0.00015076  0.70428800  0.70431894  1
  Pd  Pd0  1  0.00002166  0.00001670  0.00001892  1
loop_
_geom_bond_atom_site_label_1
_geom_bond_atom_site_label_2
_geom_bond_distance
_geom_bond_site_symmetry_2
Ga0 Ga9 2.772291 1_555
Ga0 Ga1 2.774012 1_555
Ga0 Ga11 2.790867 1_655
Ga0 Ga2 2.791642 1_555
Ga0 Ga4 3.043238 1_545
Ga0 Ga6 3.043737 1_555
Ga0 Ga3 3.049864 1_655
Ga0 U1 3.051153 1_656
Ga0 U0 3.051511 1_645
Ga0 U2 3.052159 1_555
Ga0 Ga8 3.052680 1_555
Ga0 U3 3.054173 1_544
Ga1 Pd0 2.537831 1_656
Ga1 Ga5 2.772332 1_545
Ga1 Ga6 2.789576 1_555
Ga1 Ga4 2.790873 1_545
Ga1 U3 3.074801 1_545
Ga1 U2 3.076107 1_545
Ga1 U1 3.076299 1_656
Ga1 U0 3.078904 1_645
Ga2 Pd0 2.563000 1_655
Ga2 Ga8 2.789111 1_555
Ga2 Ga3 2.790322 1_655
Ga2 Ga5 2.790833 1_655
Ga2 U3 3.064881 1_544
Ga2 U1 3.066637 1_655
Ga2 U2 3.066740 1_655
Ga2 U0 3.066750 1_645
Ga3 Ga7 2.772683 1_555
Ga3 Ga6 3.048210 1_555
Ga3 U0 3.051227 1_545
Ga3 Ga4 3.051841 1_556
Ga3 U2 3.051931 1_555
Ga3 U3 3.052135 1_555
Ga3 Ga5 3.052589 1_555
Ga3 U1 3.052742 1_556
Ga4 Ga9 2.789519 1_565
Ga4 Ga7 2.793415 1_554
Ga4 U0 3.038523 1_655
Ga4 U2 3.040487 1_555
Ga4 U3 3.041392 1_554
Ga4 U1 3.041576 1_555
Ga4 Ga5 3.043839 1_555
Ga4 Ga8 3.048149 1_555
Ga5 Ga9 2.774018 1_565
Ga5 Ga6 3.043242 1_565
Ga5 Ga8 3.049892 1_455
Ga5 U1 3.051175 1_555
Ga5 U0 3.051499 1_555
Ga5 U2 3.052140 1_555
Ga5 U3 3.054121 1_555
Ga6 Ga9 2.790853 1_555
Ga6 Ga7 2.792035 1_555
Ga6 U0 3.038545 1_545
Ga6 U2 3.040493 1_555
Ga6 U3 3.041406 1_545
Ga6 U1 3.041576 1_656
Ga6 Ga8 3.051830 1_556
Ga7 Pd0 2.541251 1_666
Ga7 Ga8 2.772517 1_556
Ga7 U1 3.075598 1_656
Ga7 U2 3.077407 1_555
Ga7 U0 3.077871 1_656
Ga7 U3 3.078036 1_555
Ga8 U0 3.051216 1_655
Ga8 U2 3.051924 1_555
Ga8 U3 3.052133 1_544
Ga8 U1 3.052737 1_655
Ga9 Pd0 2.537684 1_555
Ga9 U3 3.074769 1_544
Ga9 U2 3.076109 1_555
Ga9 U1 3.076255 1_545
Ga9 U0 3.078896 1_545
Ga10 Pd0 2.541179 1_555
Ga10 Ga3 2.772442 1_554
Ga10 Ga8 2.772620 1_555
Ga10 Ga4 2.792010 1_555
Ga10 Ga6 2.793343 1_554
Ga10 U1 3.075592 1_555
Ga10 U2 3.077419 1_555
Ga10 U0 3.077845 1_544
Ga10 U3 3.078027 1_544
Ga11 Pd0 2.563046 1_566
Ga11 Ga3 2.789153 1_555
Ga11 Ga8 2.790372 1_455
Ga11 Ga5 2.791657 1_555
Ga11 U3 3.064913 1_555
Ga11 U1 3.066667 1_556
Ga11 U2 3.066757 1_455
Ga11 U0 3.066765 1_555
