# generated using pymatgen
data_CaFe2Sb2(PO4)6
_symmetry_space_group_name_H-M   'P 1'
_cell_length_a   8.93890389
_cell_length_b   8.93890389
_cell_length_c   8.93890412
_cell_angle_alpha   56.36658669
_cell_angle_beta   56.36658669
_cell_angle_gamma   56.36659236
_symmetry_Int_Tables_number   1
_chemical_formula_structural   CaFe2Sb2(PO4)6
_chemical_formula_sum   'Ca1 Fe2 Sb2 P6 O24'
_cell_volume   462.61239411
_cell_formula_units_Z   1
loop_
 _symmetry_equiv_pos_site_id
 _symmetry_equiv_pos_as_xyz
  1  'x, y, z'
loop_
 _atom_site_type_symbol
 _atom_site_label
 _atom_site_symmetry_multiplicity
 _atom_site_fract_x
 _atom_site_fract_y
 _atom_site_fract_z
 _atom_site_occupancy
  Ca  Ca0  1  0.00000000  0.00000000  0.00000000  1
  Fe  Fe0  1  0.14689100  0.14689100  0.14689100  1
  Fe  Fe1  1  0.85310900  0.85310900  0.85310900  1
  Sb  Sb0  1  0.64784300  0.64784300  0.64784300  1
  Sb  Sb1  1  0.35215700  0.35215700  0.35215700  1
  P  P0  1  0.24667200  0.54078600  0.96158800  1
  P  P1  1  0.96158800  0.24667200  0.54078600  1
  P  P2  1  0.54078600  0.96158800  0.24667200  1
  P  P3  1  0.45921400  0.03841200  0.75332800  1
  P  P4  1  0.03841200  0.75332800  0.45921400  1
  P  P5  1  0.75332800  0.45921400  0.03841200  1
  O  O0  1  0.15748100  0.22483100  0.52576200  1
  O  O1  1  0.18454000  0.54078200  0.48433900  1
  O  O2  1  0.54078200  0.48433900  0.18454000  1
  O  O3  1  0.48433900  0.18454000  0.54078200  1
  O  O4  1  0.38516200  0.98949100  0.20205500  1
  O  O5  1  0.52576200  0.15748100  0.22483100  1
  O  O6  1  0.20205500  0.38516200  0.98949100  1
  O  O7  1  0.22483100  0.52576200  0.15748100  1
  O  O8  1  0.89132700  0.25363900  0.10831800  1
  O  O9  1  0.25363900  0.10831800  0.89132700  1
  O  O10  1  0.10831800  0.89132700  0.25363900  1
  O  O11  1  0.01050900  0.79794500  0.61483800  1
  O  O12  1  0.98949100  0.20205500  0.38516200  1
  O  O13  1  0.89168200  0.10867300  0.74636100  1
  O  O14  1  0.74636100  0.89168200  0.10867300  1
  O  O15  1  0.10867300  0.74636100  0.89168200  1
  O  O16  1  0.77516900  0.47423800  0.84251900  1
  O  O17  1  0.79794500  0.61483800  0.01050900  1
  O  O18  1  0.47423800  0.84251900  0.77516900  1
  O  O19  1  0.61483800  0.01050900  0.79794500  1
  O  O20  1  0.51566100  0.81546000  0.45921800  1
  O  O21  1  0.45921800  0.51566100  0.81546000  1
  O  O22  1  0.81546000  0.45921800  0.51566100  1
  O  O23  1  0.84251900  0.77516900  0.47423800  1
loop_
_geom_bond_atom_site_label_1
_geom_bond_atom_site_label_2
_geom_bond_distance
_geom_bond_site_symmetry_2
Ca0 O9 2.443707 1_554
Ca0 O14 2.443707 1_445
Ca0 O10 2.443707 1_545
Ca0 O13 2.443707 1_454
Ca0 O8 2.443707 1_455
Ca0 O15 2.443707 1_544
Fe0 O6 1.958165 1_554
Fe0 O12 1.958165 1_455
Fe0 O4 1.958165 1_545
Fe0 O10 2.083631 1_545
Fe0 O9 2.083632 1_554
Fe0 O8 2.083632 1_455
Fe1 O17 1.958165 1_556
Fe1 O11 1.958165 1_655
Fe1 O19 1.958165 1_565
Fe1 O13 2.083631 1_565
Fe1 O14 2.083632 1_556
Fe1 O15 2.083632 1_655
O0 P1 1.585001 1_455
O0 Sb1 1.994455 1_555
O1 P4 1.571475 1_555
O1 Sb1 1.982733 1_555
O2 P5 1.571474 1_555
O2 Sb1 1.982733 1_555
O3 P3 1.571474 1_555
O3 Sb1 1.982733 1_555
O4 P2 1.508806 1_555
O5 P2 1.585001 1_545
O5 Sb1 1.994455 1_555
O6 P0 1.508806 1_555
O7 P0 1.585001 1_554
O7 Sb1 1.994455 1_555
O8 P5 1.536156 1_555
O9 P3 1.536156 1_555
O10 P4 1.536156 1_555
O11 P4 1.508806 1_555
O12 P1 1.508806 1_555
O13 P1 1.536156 1_555
O14 P2 1.536156 1_555
O15 P0 1.536156 1_555
O16 P5 1.585001 1_556
O16 Sb0 1.994455 1_555
O17 P5 1.508806 1_555
O18 P3 1.585001 1_565
O18 Sb0 1.994455 1_555
O19 P3 1.508806 1_555
O20 P2 1.571474 1_555
O20 Sb0 1.982733 1_555
O21 P0 1.571474 1_555
O21 Sb0 1.982733 1_555
O22 P1 1.571475 1_555
O22 Sb0 1.982733 1_555
O23 P4 1.585001 1_655
O23 Sb0 1.994455 1_555
