# generated using pymatgen
data_UH2Se2O9
_symmetry_space_group_name_H-M   'P 1'
_cell_length_a   8.41769485
_cell_length_b   8.41769485
_cell_length_c   5.95033970
_cell_angle_alpha   87.99858105
_cell_angle_beta   87.99858105
_cell_angle_gamma   100.78833243
_symmetry_Int_Tables_number   1
_chemical_formula_structural   UH2Se2O9
_chemical_formula_sum   'U2 H4 Se4 O18'
_cell_volume   413.55265100
_cell_formula_units_Z   2
loop_
 _symmetry_equiv_pos_site_id
 _symmetry_equiv_pos_as_xyz
  1  'x, y, z'
loop_
 _atom_site_type_symbol
 _atom_site_label
 _atom_site_symmetry_multiplicity
 _atom_site_fract_x
 _atom_site_fract_y
 _atom_site_fract_z
 _atom_site_occupancy
  U  U0  1  0.69308600  0.30691400  0.25000000  1
  U  U1  1  0.30691400  0.69308600  0.75000000  1
  H  H0  1  0.51913200  0.60070300  0.16238600  1
  H  H1  1  0.60070300  0.51913200  0.66238600  1
  H  H2  1  0.48086800  0.39929700  0.83761400  1
  H  H3  1  0.39929700  0.48086800  0.33761400  1
  Se  Se0  1  0.26668000  0.10303800  0.04918800  1
  Se  Se1  1  0.10303800  0.26668000  0.54918800  1
  Se  Se2  1  0.73332000  0.89696200  0.95081200  1
  Se  Se3  1  0.89696200  0.73332000  0.45081200  1
  O  O0  1  0.50396300  0.49603700  0.25000000  1
  O  O1  1  0.49603700  0.50396300  0.75000000  1
  O  O2  1  0.72794200  0.06613000  0.09433500  1
  O  O3  1  0.06613000  0.72794200  0.59433500  1
  O  O4  1  0.27205800  0.93387000  0.90566500  1
  O  O5  1  0.93387000  0.27205800  0.40566500  1
  O  O6  1  0.58538900  0.20938700  0.49927000  1
  O  O7  1  0.20938700  0.58538900  0.99927000  1
  O  O8  1  0.41461100  0.79061300  0.50073000  1
  O  O9  1  0.79061300  0.41461100  0.00073000  1
  O  O10  1  0.12960000  0.19790600  0.92542000  1
  O  O11  1  0.19790600  0.12960000  0.42542000  1
  O  O12  1  0.87040000  0.80209400  0.07458000  1
  O  O13  1  0.80209400  0.87040000  0.57458000  1
  O  O14  1  0.45631700  0.21555200  0.01569100  1
  O  O15  1  0.21555200  0.45631700  0.51569100  1
  O  O16  1  0.54368300  0.78444800  0.98430900  1
  O  O17  1  0.78444800  0.54368300  0.48430900  1
loop_
_geom_bond_atom_site_label_1
_geom_bond_atom_site_label_2
_geom_bond_distance
_geom_bond_site_symmetry_2
H0 O0 0.992717 1_555
H1 O1 0.992717 1_555
H2 O1 0.992717 1_555
H3 O0 0.992717 1_555
O0 U0 2.453076 1_555
O1 U1 2.453076 1_555
O2 Se2 1.692793 1_544
O2 U0 2.320976 1_555
O3 Se3 1.692793 1_455
O3 U1 2.320976 1_555
O4 Se0 1.692793 1_566
O4 U1 2.320976 1_555
O5 Se1 1.692793 1_655
O5 U0 2.320976 1_555
O6 U0 1.799508 1_555
O7 U1 1.799508 1_555
O8 U1 1.799508 1_555
O9 U0 1.799508 1_555
O10 Se0 1.695527 1_556
O10 Se1 2.321605 1_555
O11 Se1 1.695527 1_555
O11 Se0 2.321605 1_555
O12 Se2 1.695527 1_554
O12 Se3 2.321605 1_555
O13 Se3 1.695527 1_555
O13 Se2 2.321605 1_555
O14 Se0 1.698098 1_555
O14 U0 2.490525 1_555
O15 Se1 1.698098 1_555
O15 U1 2.490525 1_555
O16 Se2 1.698098 1_555
O16 U1 2.490525 1_555
O17 Se3 1.698098 1_555
O17 U0 2.490525 1_555
