# generated using pymatgen
data_Ta3Ge
_symmetry_space_group_name_H-M   'P 1'
_cell_length_a   5.25358560
_cell_length_b   10.26199362
_cell_length_c   10.26210044
_cell_angle_alpha   89.99994340
_cell_angle_beta   89.99976474
_cell_angle_gamma   90.00023812
_symmetry_Int_Tables_number   1
_chemical_formula_structural   Ta3Ge
_chemical_formula_sum   'Ta24 Ge8'
_cell_volume   553.25304680
_cell_formula_units_Z   8
loop_
 _symmetry_equiv_pos_site_id
 _symmetry_equiv_pos_as_xyz
  1  'x, y, z'
loop_
 _atom_site_type_symbol
 _atom_site_label
 _atom_site_symmetry_multiplicity
 _atom_site_fract_x
 _atom_site_fract_y
 _atom_site_fract_z
 _atom_site_occupancy
  Ta  Ta0  1  0.96978953  0.89934539  0.76789897  1
  Ta  Ta1  1  0.46978852  0.23209269  0.39932661  1
  Ta  Ta2  1  0.78375282  0.66464511  0.34901578  1
  Ta  Ta3  1  0.71625534  0.15097134  0.66463726  1
  Ta  Ta4  1  0.73457729  0.06227149  0.96256701  1
  Ta  Ta5  1  0.23457968  0.46255221  0.93774865  1
  Ta  Ta6  1  0.03021475  0.10068427  0.23212081  1
  Ta  Ta7  1  0.76541118  0.96256591  0.43774645  1
  Ta  Ta8  1  0.28375152  0.84902918  0.33534886  1
  Ta  Ta9  1  0.03021687  0.39932088  0.26786318  1
  Ta  Ta10  1  0.96978856  0.60065184  0.73211059  1
  Ta  Ta11  1  0.23457956  0.03744118  0.56225849  1
  Ta  Ta12  1  0.53021268  0.73213226  0.89932832  1
  Ta  Ta13  1  0.21624539  0.33535401  0.65097320  1
  Ta  Ta14  1  0.26540990  0.56223546  0.46255601  1
  Ta  Ta15  1  0.53021278  0.76786993  0.60067661  1
  Ta  Ta16  1  0.46978371  0.26789984  0.10065888  1
  Ta  Ta17  1  0.28375638  0.65097105  0.16465326  1
  Ta  Ta18  1  0.26540970  0.93776939  0.03743924  1
  Ta  Ta19  1  0.21625468  0.16464993  0.84904281  1
  Ta  Ta20  1  0.71624418  0.34902285  0.83537329  1
  Ta  Ta21  1  0.76541917  0.53742462  0.06223977  1
  Ta  Ta22  1  0.73457285  0.43773742  0.53743697  1
  Ta  Ta23  1  0.78375553  0.83536113  0.15097663  1
  Ge  Ge0  1  0.53381187  0.04638753  0.22116292  1
  Ge  Ge1  1  0.03379962  0.77882958  0.54638533  1
  Ge  Ge2  1  0.96619731  0.27881614  0.04641071  1
  Ge  Ge3  1  0.03380113  0.72117194  0.95362057  1
  Ge  Ge4  1  0.96619568  0.22118180  0.45358645  1
  Ge  Ge5  1  0.46620392  0.54640581  0.72119021  1
  Ge  Ge6  1  0.53380845  0.45361134  0.27881895  1
  Ge  Ge7  1  0.46619947  0.95359450  0.77882818  1
loop_
_geom_bond_atom_site_label_1
_geom_bond_atom_site_label_2
_geom_bond_distance
_geom_bond_site_symmetry_2
Ge0 Ta18 2.604888 1_545
Ge0 Ta16 2.609529 1_555
Ge0 Ta23 2.632990 1_545
Ge0 Ta1 2.662265 1_555
Ge0 Ta6 2.669123 1_655
Ge0 Ta7 2.675876 1_545
Ge0 Ta8 2.683410 1_545
Ge0 Ta6 2.706067 1_555
Ge0 Ta4 2.860304 1_554
Ge1 Ta7 2.605028 1_455
Ge1 Ta0 2.609600 1_455
Ge1 Ta8 2.633141 1_555
Ge1 Ta10 2.662500 1_455
Ge1 Ta15 2.669170 1_555
Ge1 Ta14 2.676000 1_555
Ge1 Ta2 2.683476 1_455
Ge1 Ta15 2.706000 1_455
Ge1 Ta11 2.860450 1_565
Ge2 Ta5 2.605097 1_654
Ge2 Ta9 2.609007 1_655
Ge2 Ta20 2.633184 1_554
Ge2 Ta6 2.662074 1_655
Ge2 Ta16 2.669056 1_555
Ge2 Ta4 2.675644 1_554
Ge2 Ta19 2.683405 1_654
Ge2 Ta16 2.705893 1_655
Ge2 Ta21 2.860399 1_555
Ge3 Ta21 2.604991 1_456
Ge3 Ta10 2.609591 1_455
Ge3 Ta17 2.633133 1_556
Ge3 Ta0 2.662447 1_455
Ge3 Ta12 2.669159 1_555
Ge3 Ta18 2.675984 1_556
Ge3 Ta23 2.683386 1_456
Ge3 Ta12 2.706016 1_455
Ge3 Ta5 2.860532 1_555
Ge4 Ta11 2.605192 1_655
Ge4 Ta6 2.609088 1_655
Ge4 Ta3 2.633262 1_555
Ge4 Ta9 2.662220 1_655
Ge4 Ta1 2.669051 1_555
Ge4 Ta22 2.675772 1_555
Ge4 Ta13 2.683562 1_655
Ge4 Ta1 2.705943 1_655
Ge4 Ta7 2.860481 1_545
Ge5 Ta22 2.605230 1_555
Ge5 Ta15 2.609128 1_555
Ge5 Ta13 2.633324 1_555
Ge5 Ta12 2.662232 1_555
Ge5 Ta10 2.669066 1_455
Ge5 Ta5 2.675816 1_555
Ge5 Ta20 2.683549 1_555
Ge5 Ta10 2.705876 1_555
Ge5 Ta14 2.860701 1_555
Ge6 Ta14 2.605000 1_555
Ge6 Ta1 2.609594 1_555
Ge6 Ta2 2.633078 1_555
Ge6 Ta16 2.662287 1_555
Ge6 Ta9 2.669140 1_655
Ge6 Ta21 2.675828 1_555
Ge6 Ta17 2.683322 1_555
Ge6 Ta9 2.706021 1_555
Ge6 Ta22 2.860515 1_555
Ge7 Ta4 2.605189 1_565
Ge7 Ta12 2.609052 1_555
Ge7 Ta19 2.633318 1_565
Ge7 Ta15 2.662316 1_555
Ge7 Ta0 2.669045 1_455
Ge7 Ta11 2.675890 1_565
Ge7 Ta3 2.683564 1_565
Ge7 Ta0 2.705918 1_555
Ge7 Ta18 2.860461 1_556
