# generated using pymatgen
data_In5Br7
_symmetry_space_group_name_H-M   'P 1'
_cell_length_a   13.39283301
_cell_length_b   13.39283301
_cell_length_c   19.67025407
_cell_angle_alpha   80.11346490
_cell_angle_beta   80.11346490
_cell_angle_gamma   89.94633529
_symmetry_Int_Tables_number   1
_chemical_formula_structural   In5Br7
_chemical_formula_sum   'In40 Br56'
_cell_volume   3422.72045740
_cell_formula_units_Z   8
loop_
 _symmetry_equiv_pos_site_id
 _symmetry_equiv_pos_as_xyz
  1  'x, y, z'
loop_
 _atom_site_type_symbol
 _atom_site_label
 _atom_site_symmetry_multiplicity
 _atom_site_fract_x
 _atom_site_fract_y
 _atom_site_fract_z
 _atom_site_occupancy
  In  In0  1  0.33789800  0.17654900  0.55946200  1
  In  In1  1  0.71187200  0.19406400  0.61480200  1
  In  In2  1  0.62374300  0.76940100  0.22199200  1
  In  In3  1  0.72774000  0.88936600  0.89134200  1
  In  In4  1  0.39669300  0.26994400  0.22474700  1
  In  In5  1  0.26994400  0.39669300  0.72474700  1
  In  In6  1  0.21147100  0.88042100  0.61609800  1
  In  In7  1  0.23022200  0.05053100  0.88806200  1
  In  In8  1  0.68627700  0.20300600  0.34188800  1
  In  In9  1  0.55961500  0.46557000  0.37693000  1
  In  In10  1  0.20300600  0.68627700  0.84188800  1
  In  In11  1  0.51408700  0.19378300  0.84149900  1
  In  In12  1  0.69991600  0.28291500  0.84312000  1
  In  In13  1  0.89301200  0.50378900  0.23135200  1
  In  In14  1  0.38077500  0.62238900  0.11184000  1
  In  In15  1  0.76940100  0.62374300  0.72199200  1
  In  In16  1  0.69632500  0.12278600  0.11004100  1
  In  In17  1  0.44082100  0.00009700  0.07829500  1
  In  In18  1  0.00009700  0.44082100  0.57829500  1
  In  In19  1  0.88936600  0.72774000  0.39134200  1
  In  In20  1  0.50378900  0.89301200  0.73135200  1
  In  In21  1  0.12278600  0.69632500  0.61004100  1
  In  In22  1  0.93892700  0.84905900  0.07644200  1
  In  In23  1  0.28291500  0.69991600  0.34312000  1
  In  In24  1  0.62238900  0.38077500  0.61184100  1
  In  In25  1  0.19378300  0.51408700  0.34149900  1
  In  In26  1  0.96560800  0.39353000  0.88142600  1
  In  In27  1  0.01578200  0.77447900  0.84235100  1
  In  In28  1  0.84905900  0.93892700  0.57644200  1
  In  In29  1  0.88042100  0.21147100  0.11609800  1
  In  In30  1  0.00358800  0.12735200  0.73140300  1
  In  In31  1  0.51182900  0.67328900  0.56478400  1
  In  In32  1  0.39353000  0.96560800  0.38142600  1
  In  In33  1  0.12735200  0.00358800  0.23140300  1
  In  In34  1  0.19406400  0.71187200  0.11480200  1
  In  In35  1  0.05053100  0.23022200  0.38806200  1
  In  In36  1  0.17654900  0.33789800  0.05946200  1
  In  In37  1  0.67328900  0.51182800  0.06478400  1
  In  In38  1  0.46557000  0.55961500  0.87693000  1
  In  In39  1  0.77447900  0.01578200  0.34235100  1
  Br  Br0  1  0.43386200  0.18144700  0.73063000  1
  Br  Br1  1  0.06921000  0.64198000  0.04661000  1
  Br  Br2  1  0.90180400  0.40307900  0.05603900  1
  Br  Br3  1  0.99592000  0.93931900  0.89995000  1
  Br  Br4  1  0.26624200  0.36004500  0.41536700  1
  Br  Br5  1  0.66637200  0.86164300  0.41586000  1
  Br  Br6  1  0.65891300  0.78496600  0.62998700  1
  Br  Br7  1  0.93456500  0.84376500  0.73214500  1
  Br  Br8  1  0.73119800  0.53549600  0.53820400  1
  Br  Br9  1  0.40307900  0.90180400  0.55603900  1
  Br  Br10  1  0.86164300  0.66637200  0.91586000  1
  Br  Br11  1  0.06533700  0.71783000  0.23156700  1
  Br  Br12  1  0.23586800  0.11708000  0.32853000  1
  Br  Br13  1  0.82706300  0.17864200  0.90991600  1
  Br  Br14  1  0.19939900  0.49083800  0.88889600  1
  Br  Br15  1  0.74046200  0.61830300  0.32859600  1
  Br  Br16  1  0.49235700  0.00129000  0.90124400  1
  Br  Br17  1  0.05947700  0.56136800  0.72420700  1
  Br  Br18  1  0.64198000  0.06921000  0.54661000  1
  Br  Br19  1  0.33848100  0.68506900  0.72704200  1
  Br  Br20  1  0.21945100  0.96195900  0.72710600  1
  Br  Br21  1  0.83232300  0.34755700  0.72758600  1
  Br  Br22  1  0.68506900  0.33848100  0.22704200  1
  Br  Br23  1  0.57271900  0.22602200  0.04038900  1
  Br  Br24  1  0.36004500  0.26624200  0.91536700  1
  Br  Br25  1  0.90671300  0.20145600  0.56320900  1
  Br  Br26  1  0.32470400  0.75629200  0.91267300  1
  Br  Br27  1  0.84376500  0.93456500  0.23214500  1
  Br  Br28  1  0.78496600  0.65891300  0.12998700  1
  Br  Br29  1  0.15863300  0.28363500  0.62882800  1
  Br  Br30  1  0.49083800  0.19939900  0.38889600  1
  Br  Br31  1  0.34755700  0.83232300  0.22758600  1
  Br  Br32  1  0.28363500  0.15863300  0.12882800  1
  Br  Br33  1  0.93931900  0.99592000  0.39995000  1
  Br  Br34  1  0.75629200  0.32470400  0.41267300  1
  Br  Br35  1  0.14078100  0.03350800  0.53971900  1
  Br  Br36  1  0.61830300  0.74046200  0.82859600  1
  Br  Br37  1  0.17864200  0.82706300  0.40991600  1
  Br  Br38  1  0.20145600  0.90671300  0.06320900  1
  Br  Br39  1  0.69514500  0.45280300  0.89311800  1
  Br  Br40  1  0.71783000  0.06533700  0.73156700  1
  Br  Br41  1  0.18144700  0.43386200  0.23063000  1
  Br  Br42  1  0.94971900  0.70525300  0.56294100  1
  Br  Br43  1  0.96195900  0.21945100  0.22710600  1
  Br  Br44  1  0.46303600  0.40149000  0.54924000  1
  Br  Br45  1  0.40149000  0.46303600  0.04924000  1
  Br  Br46  1  0.45280300  0.69514500  0.39311800  1
  Br  Br47  1  0.22602200  0.57271900  0.54038900  1
  Br  Br48  1  0.53549600  0.73119800  0.03820400  1
  Br  Br49  1  0.56136800  0.05947700  0.22420700  1
  Br  Br50  1  0.70525300  0.94971900  0.06294100  1
  Br  Br51  1  0.46280600  0.55418200  0.22232300  1
  Br  Br52  1  0.03350800  0.14078100  0.03971900  1
  Br  Br53  1  0.55418200  0.46280600  0.72232300  1
  Br  Br54  1  0.00129000  0.49235700  0.40124400  1
  Br  Br55  1  0.11708000  0.23586800  0.82853000  1
loop_
_geom_bond_atom_site_label_1
_geom_bond_atom_site_label_2
_geom_bond_distance
_geom_bond_site_symmetry_2
Br0 In11 2.620379 1_555
Br1 In34 2.583759 1_555
Br2 In29 2.628130 1_555
Br3 In27 2.642456 1_655
Br4 In25 2.600047 1_555
Br5 In39 2.590424 1_565
Br6 In31 3.048642 1_555
Br6 In15 3.114308 1_555
Br6 In20 3.154101 1_555
Br6 In28 3.192055 1_555
Br7 In27 2.619263 1_655
Br8 In24 2.601078 1_555
Br9 In6 2.628130 1_555
Br10 In27 2.590424 1_655
Br11 In34 2.637577 1_555
Br12 In35 3.071282 1_555
Br12 In32 3.110976 1_545
Br12 In33 3.166607 1_555
Br12 In4 3.171951 1_555
Br13 In12 2.590377 1_555
Br14 In10 2.619604 1_555
Br15 In19 3.020004 1_555
Br15 In9 3.083041 1_555
Br15 In13 3.137623 1_555
Br15 In2 3.255503 1_555
Br16 In11 2.637345 1_555
Br17 In21 2.642737 1_555
Br18 In1 2.583759 1_555
Br19 In10 2.645861 1_555
Br20 In6 2.621266 1_555
Br21 In12 2.646154 1_555
Br22 In8 2.645861 1_555
Br23 In16 2.579394 1_555
Br24 In11 2.600047 1_555
Br25 In1 2.627863 1_555
Br26 In10 2.589393 1_555
Br27 In39 2.619263 1_565
Br28 In37 3.048651 1_555
Br28 In2 3.114308 1_555
Br28 In13 3.154101 1_555
Br28 In22 3.192055 1_555
Br29 In0 3.037001 1_555
Br29 In30 3.143724 1_555
Br29 In18 3.150512 1_555
Br29 In5 3.166395 1_555
Br30 In8 2.619604 1_555
Br31 In23 2.646154 1_555
Br32 In36 3.037001 1_555
Br32 In33 3.143724 1_555
Br32 In17 3.150512 1_555
Br32 In4 3.166395 1_555
Br33 In39 2.642456 1_565
Br34 In8 2.589393 1_555
Br35 In6 2.604639 1_545
Br36 In3 3.020004 1_555
Br36 In38 3.083041 1_555
Br36 In20 3.137623 1_555
Br36 In15 3.255503 1_555
Br37 In23 2.590377 1_555
Br38 In34 2.627863 1_555
Br39 In12 2.625789 1_555
Br40 In1 2.637577 1_555
Br41 In25 2.620379 1_555
Br42 In21 2.635139 1_655
Br43 In29 2.621266 1_555
Br44 In24 2.632876 1_555
Br45 In14 2.632865 1_555
Br46 In23 2.625789 1_555
Br47 In21 2.579394 1_555
Br48 In14 2.601071 1_555
Br49 In16 2.642737 1_555
Br50 In16 2.635139 1_565
Br51 In14 2.626908 1_555
Br52 In29 2.604639 1_455
Br53 In24 2.626892 1_555
Br54 In25 2.637345 1_555
Br55 In7 3.071282 1_555
Br55 In26 3.110976 1_455
Br55 In30 3.166607 1_555
Br55 In5 3.171951 1_555
