# generated using pymatgen
data_SrTi2O5
_symmetry_space_group_name_H-M   'P 1'
_cell_length_a   9.11899663
_cell_length_b   9.11899663
_cell_length_c   11.55570500
_cell_angle_alpha   90.00000000
_cell_angle_beta   90.00000000
_cell_angle_gamma   128.08500466
_symmetry_Int_Tables_number   1
_chemical_formula_structural   SrTi2O5
_chemical_formula_sum   'Sr4 Ti8 O20'
_cell_volume   756.34254384
_cell_formula_units_Z   4
loop_
 _symmetry_equiv_pos_site_id
 _symmetry_equiv_pos_as_xyz
  1  'x, y, z'
loop_
 _atom_site_type_symbol
 _atom_site_label
 _atom_site_symmetry_multiplicity
 _atom_site_fract_x
 _atom_site_fract_y
 _atom_site_fract_z
 _atom_site_occupancy
  Sr  Sr0  1  0.50000000  0.50000000  0.38761500  1
  Sr  Sr1  1  0.23061900  0.76938100  0.39582500  1
  Sr  Sr2  1  0.76938100  0.23061900  0.39582500  1
  Sr  Sr3  1  0.00000000  0.00000000  0.36326400  1
  Ti  Ti0  1  0.39727300  0.12689900  0.24683000  1
  Ti  Ti1  1  0.60272700  0.87310100  0.24683000  1
  Ti  Ti2  1  0.87310100  0.60272700  0.24683000  1
  Ti  Ti3  1  0.12689900  0.39727300  0.24683000  1
  Ti  Ti4  1  0.71439500  0.71439500  0.06865400  1
  Ti  Ti5  1  0.28560500  0.28560500  0.06865400  1
  Ti  Ti6  1  0.12324600  0.87675400  0.04240100  1
  Ti  Ti7  1  0.87675400  0.12324600  0.04240100  1
  O  O0  1  0.81189300  0.18810700  0.93300600  1
  O  O1  1  0.71502800  0.71502800  0.22843700  1
  O  O2  1  0.32803900  0.10581000  0.39982500  1
  O  O3  1  0.36519500  0.63480500  0.26835100  1
  O  O4  1  0.86354100  0.13645900  0.22188000  1
  O  O5  1  0.35789500  0.13072300  0.07638100  1
  O  O6  1  0.50000000  0.00000000  0.26725400  1
  O  O7  1  0.13072300  0.35789500  0.07638100  1
  O  O8  1  0.64210500  0.86927700  0.07638100  1
  O  O9  1  0.89419000  0.67196100  0.39982500  1
  O  O10  1  0.63480500  0.36519500  0.26835100  1
  O  O11  1  0.00000000  0.50000000  0.26725400  1
  O  O12  1  0.13645900  0.86354100  0.22188000  1
  O  O13  1  0.18810700  0.81189300  0.93300600  1
  O  O14  1  0.10581000  0.32803900  0.39982500  1
  O  O15  1  0.28497200  0.28497200  0.22843700  1
  O  O16  1  0.67196100  0.89419000  0.39982500  1
  O  O17  1  0.50000000  0.50000000  0.01405400  1
  O  O18  1  0.00000000  0.00000000  0.01557400  1
  O  O19  1  0.86927700  0.64210500  0.07638100  1
loop_
_geom_bond_atom_site_label_1
_geom_bond_atom_site_label_2
_geom_bond_distance
_geom_bond_site_symmetry_2
O0 Ti7 1.652054 1_556
O1 Ti4 1.846412 1_555
O1 Ti2 2.234461 1_555
O1 Ti1 2.234461 1_555
O1 Sr0 2.515937 1_555
O1 Sr3 2.757271 1_665
O2 Ti0 1.847024 1_555
O2 Sr3 2.548947 1_555
O2 Sr1 2.615543 1_545
O3 Ti1 1.915454 1_555
O3 Ti3 1.915454 1_555
O3 Sr0 2.604977 1_555
O3 Sr1 2.653266 1_555
O4 Ti7 2.085293 1_555
O4 Ti3 2.112068 1_655
O4 Ti1 2.112068 1_545
O4 Sr2 2.534642 1_555
O4 Sr3 2.770641 1_655
O5 Ti5 1.893652 1_555
O5 Ti6 1.995714 1_545
O5 Ti0 2.006281 1_555
O6 Ti0 1.899905 1_555
O6 Ti1 1.899905 1_545
O6 Sr1 2.508238 1_545
O6 Sr2 2.508238 1_555
O7 Ti5 1.893652 1_555
O7 Ti7 1.995714 1_455
O7 Ti3 2.006281 1_555
O8 Ti4 1.893652 1_555
O8 Ti7 1.995714 1_565
O8 Ti1 2.006281 1_555
O9 Ti2 1.847024 1_555
O9 Sr3 2.548947 1_665
O9 Sr1 2.615543 1_655
O10 Ti2 1.915454 1_555
O10 Ti0 1.915454 1_555
O10 Sr0 2.604977 1_555
O10 Sr2 2.653266 1_555
O11 Ti3 1.899905 1_555
O11 Ti2 1.899905 1_455
O11 Sr2 2.508238 1_455
O11 Sr1 2.508238 1_555
O12 Ti6 2.085293 1_555
O12 Ti0 2.112068 1_565
O12 Ti2 2.112068 1_455
O12 Sr1 2.534642 1_555
O12 Sr3 2.770641 1_565
O13 Ti6 1.652054 1_556
O14 Ti3 1.847024 1_555
O14 Sr3 2.548947 1_555
O14 Sr2 2.615543 1_455
O15 Ti5 1.846412 1_555
O15 Ti3 2.234461 1_555
O15 Ti0 2.234461 1_555
O15 Sr0 2.515937 1_555
O15 Sr3 2.757271 1_555
O16 Ti1 1.847024 1_555
O16 Sr3 2.548947 1_665
O16 Sr2 2.615543 1_565
O17 Ti5 1.824078 1_555
O17 Ti4 1.824078 1_555
O18 Ti6 2.044641 1_545
O18 Ti7 2.044641 1_455
O18 Ti5 2.361009 1_555
O18 Ti4 2.361009 1_445
O19 Ti4 1.893652 1_555
O19 Ti6 1.995714 1_655
O19 Ti2 2.006281 1_555
