# generated using pymatgen
data_NdOsO4
_symmetry_space_group_name_H-M   'P 1'
_cell_length_a   5.48623237
_cell_length_b   7.56453278
_cell_length_c   14.99324223
_cell_angle_alpha   90.00000000
_cell_angle_beta   90.00000000
_cell_angle_gamma   90.00000000
_symmetry_Int_Tables_number   1
_chemical_formula_structural   NdOsO4
_chemical_formula_sum   'Nd8 Os8 O32'
_cell_volume   622.23131627
_cell_formula_units_Z   8
loop_
 _symmetry_equiv_pos_site_id
 _symmetry_equiv_pos_as_xyz
  1  'x, y, z'
loop_
 _atom_site_type_symbol
 _atom_site_label
 _atom_site_symmetry_multiplicity
 _atom_site_fract_x
 _atom_site_fract_y
 _atom_site_fract_z
 _atom_site_occupancy
  Nd  Nd0  1  0.74820226  0.12050721  0.90224740  1
  Nd  Nd1  1  0.81125265  0.87763646  0.43897547  1
  Nd  Nd2  1  0.74820226  0.37949279  0.40224740  1
  Nd  Nd3  1  0.31125265  0.37763646  0.06102453  1
  Nd  Nd4  1  0.31125265  0.12236354  0.56102453  1
  Nd  Nd5  1  0.81125265  0.62236354  0.93897547  1
  Nd  Nd6  1  0.24820226  0.87949279  0.09775260  1
  Nd  Nd7  1  0.24820226  0.62050721  0.59775260  1
  Os  Os0  1  0.23925634  0.12628124  0.33083438  1
  Os  Os1  1  0.74262116  0.12554291  0.16538514  1
  Os  Os2  1  0.24262116  0.62554291  0.33461486  1
  Os  Os3  1  0.23925634  0.37371876  0.83083438  1
  Os  Os4  1  0.24262116  0.87445709  0.83461486  1
  Os  Os5  1  0.73925634  0.62628124  0.16916562  1
  Os  Os6  1  0.73925634  0.87371876  0.66916562  1
  Os  Os7  1  0.74262116  0.37445709  0.66538514  1
  O  O0  1  0.54149475  0.66015857  0.39504684  1
  O  O1  1  0.04149475  0.33984143  0.60495316  1
  O  O2  1  0.51622474  0.10071860  0.41693258  1
  O  O3  1  0.04149475  0.16015857  0.10495316  1
  O  O4  1  0.54180807  0.84374476  0.55995570  1
  O  O5  1  0.55660682  0.10106522  0.05063031  1
  O  O6  1  0.33482208  0.12432210  0.83286762  1
  O  O7  1  0.43827424  0.08181025  0.22866861  1
  O  O8  1  0.01622474  0.89928140  0.58306742  1
  O  O9  1  0.65081446  0.37782541  0.16359097  1
  O  O10  1  0.41677742  0.68092962  0.22146776  1
  O  O11  1  0.83482208  0.62432210  0.66713238  1
  O  O12  1  0.54180807  0.65625524  0.05995570  1
  O  O13  1  0.83482208  0.87567790  0.16713238  1
  O  O14  1  0.05660682  0.60106522  0.44936969  1
  O  O15  1  0.15081446  0.87782541  0.33640903  1
  O  O16  1  0.04180807  0.34374476  0.94004430  1
  O  O17  1  0.65081446  0.12217459  0.66359097  1
  O  O18  1  0.54149475  0.83984143  0.89504684  1
  O  O19  1  0.41677742  0.81907038  0.72146776  1
  O  O20  1  0.91677742  0.18092962  0.27853224  1
  O  O21  1  0.93827424  0.58181025  0.27133139  1
  O  O22  1  0.51622474  0.39928140  0.91693258  1
  O  O23  1  0.15081446  0.62217459  0.83640903  1
  O  O24  1  0.91677742  0.31907038  0.77853224  1
  O  O25  1  0.55660682  0.39893478  0.55063031  1
  O  O26  1  0.33482208  0.37567790  0.33286762  1
  O  O27  1  0.05660682  0.89893478  0.94936969  1
  O  O28  1  0.93827424  0.91818975  0.77133139  1
  O  O29  1  0.04180807  0.15625524  0.44004430  1
  O  O30  1  0.01622474  0.60071860  0.08306742  1
  O  O31  1  0.43827424  0.41818975  0.72866861  1
loop_
_geom_bond_atom_site_label_1
_geom_bond_atom_site_label_2
_geom_bond_distance
_geom_bond_site_symmetry_2
Nd0 O16 2.401553 1_655
Nd0 O18 2.409417 1_545
Nd0 O5 2.464952 1_556
Nd0 O22 2.472898 1_555
Nd0 O27 2.484198 1_645
Nd0 O6 2.495251 1_555
Nd0 O24 2.559702 1_555
Nd0 O28 2.698597 1_545
Nd1 O0 2.308783 1_555
Nd1 O4 2.353952 1_555
Nd1 O2 2.361517 1_565
Nd1 O15 2.415635 1_655
Nd1 O8 2.441048 1_655
Nd1 O29 2.458098 1_665
Nd1 O14 2.492631 1_655
Nd2 O29 2.401553 1_655
Nd2 O0 2.409417 1_555
Nd2 O25 2.464952 1_555
Nd2 O2 2.472898 1_555
Nd2 O14 2.484198 1_655
Nd2 O26 2.495251 1_555
Nd2 O20 2.559702 1_555
Nd2 O21 2.698597 1_555
Nd3 O3 2.308783 1_555
Nd3 O16 2.353952 1_554
Nd3 O30 2.361517 1_555
Nd3 O9 2.415635 1_555
Nd3 O22 2.441048 1_554
Nd3 O12 2.458098 1_555
Nd3 O5 2.492631 1_555
Nd4 O1 2.308783 1_555
Nd4 O29 2.353952 1_555
Nd4 O8 2.361517 1_545
Nd4 O17 2.415635 1_555
Nd4 O2 2.441048 1_555
Nd4 O4 2.458098 1_545
Nd4 O25 2.492631 1_555
Nd5 O18 2.308783 1_555
Nd5 O12 2.353952 1_556
Nd5 O22 2.361517 1_555
Nd5 O23 2.415635 1_655
Nd5 O30 2.441048 1_656
Nd5 O16 2.458098 1_655
Nd5 O27 2.492631 1_655
Nd6 O12 2.401553 1_555
Nd6 O3 2.409417 1_565
Nd6 O27 2.464952 1_554
Nd6 O30 2.472898 1_555
Nd6 O5 2.484198 1_565
Nd6 O13 2.495251 1_455
Nd6 O10 2.559702 1_555
Nd6 O7 2.698597 1_565
Nd7 O4 2.401553 1_555
Nd7 O1 2.409417 1_555
Nd7 O14 2.464952 1_555
Nd7 O8 2.472898 1_555
Nd7 O25 2.484198 1_555
Nd7 O11 2.495251 1_455
Nd7 O19 2.559702 1_555
Nd7 O31 2.698597 1_555
O0 Os2 1.891590 1_555
O1 Os7 1.891590 1_455
O2 Os0 2.003175 1_555
O3 Os1 1.891590 1_455
O4 Os6 1.976347 1_555
O5 Os1 2.008986 1_555
O6 Os4 1.956803 1_545
O6 Os3 1.958305 1_555
O7 Os0 1.910948 1_555
O7 Os1 1.948760 1_555
O8 Os6 2.003175 1_455
O9 Os5 1.942874 1_555
O9 Os1 1.973930 1_555
O10 Os5 1.978857 1_555
O10 Os2 1.991573 1_555
O11 Os7 1.956803 1_555
O11 Os6 1.958305 1_555
O12 Os5 1.976347 1_555
O13 Os1 1.956803 1_565
O13 Os5 1.958305 1_555
O14 Os2 2.008986 1_555
O15 Os0 1.942874 1_565
O15 Os2 1.973930 1_555
O16 Os3 1.976347 1_555
O17 Os6 1.942874 1_545
O17 Os7 1.973930 1_555
O18 Os4 1.891590 1_555
O19 Os6 1.978857 1_555
O19 Os4 1.991573 1_555
O20 Os0 1.978857 1_655
O20 Os1 1.991573 1_555
O21 Os5 1.910948 1_555
O21 Os2 1.948760 1_655
O22 Os3 2.003175 1_555
O23 Os3 1.942874 1_555
O23 Os4 1.973930 1_555
O24 Os3 1.978857 1_655
O24 Os7 1.991573 1_555
O25 Os7 2.008986 1_555
O26 Os2 1.956803 1_555
O26 Os0 1.958305 1_555
O27 Os4 2.008986 1_555
O28 Os6 1.910948 1_555
O28 Os4 1.948760 1_655
O29 Os0 1.976347 1_555
O30 Os5 2.003175 1_455
O31 Os3 1.910948 1_555
O31 Os7 1.948760 1_555
