# generated using pymatgen
data_Na12B26O45
_symmetry_space_group_name_H-M   'P 1'
_cell_length_a   9.64026900
_cell_length_b   10.74742536
_cell_length_c   18.32855244
_cell_angle_alpha   106.97953659
_cell_angle_beta   105.24304547
_cell_angle_gamma   89.94278111
_symmetry_Int_Tables_number   1
_chemical_formula_structural   Na12B26O45
_chemical_formula_sum   'Na24 B52 O90'
_cell_volume   1746.39295285
_cell_formula_units_Z   2
loop_
 _symmetry_equiv_pos_site_id
 _symmetry_equiv_pos_as_xyz
  1  'x, y, z'
loop_
 _atom_site_type_symbol
 _atom_site_label
 _atom_site_symmetry_multiplicity
 _atom_site_fract_x
 _atom_site_fract_y
 _atom_site_fract_z
 _atom_site_occupancy
  Na  Na0  1  0.47857100  0.68675800  0.08935900  1
  Na  Na1  1  0.96504300  0.67641200  0.24878700  1
  Na  Na2  1  0.18120100  0.16476100  0.59290300  1
  Na  Na3  1  0.90549000  0.80390100  0.60139900  1
  Na  Na4  1  0.28256100  0.17386600  0.24811900  1
  Na  Na5  1  0.41270600  0.66461500  0.59469700  1
  Na  Na6  1  0.09809500  0.20125500  0.39984500  1
  Na  Na7  1  0.12530400  0.77490300  0.08923600  1
  Na  Na8  1  0.24731500  0.69815600  0.74472700  1
  Na  Na9  1  0.87434700  0.69066400  0.91164400  1
  Na  Na10  1  0.75284100  0.95583700  0.25440000  1
  Na  Na11  1  0.38924300  0.09756000  0.91082900  1
  Na  Na12  1  0.03110200  0.42611100  0.75241500  1
  Na  Na13  1  0.69334900  0.30223900  0.59902900  1
  Na  Na14  1  0.61187600  0.19084300  0.08915000  1
  Na  Na15  1  0.49355500  0.20018200  0.74449800  1
  Na  Na16  1  0.96192700  0.27597600  0.08895100  1
  Na  Na17  1  0.30697600  0.70220900  0.39998900  1
  Na  Na18  1  0.50228400  0.45407900  0.25322600  1
  Na  Na19  1  0.71564200  0.92877800  0.75250300  1
  Na  Na20  1  0.81419200  0.57439800  0.40611500  1
  Na  Na21  1  0.59022400  0.07310600  0.40772200  1
  Na  Na22  1  0.51728500  0.59838300  0.90915500  1
  Na  Na23  1  0.03663100  0.18535800  0.91099900  1
  B  B0  1  0.87335800  0.98541000  0.95281400  1
  B  B1  1  0.06431500  0.77097100  0.45982800  1
  B  B2  1  0.70248400  0.14468100  0.91157900  1
  B  B3  1  0.25855900  0.96244300  0.69111700  1
  B  B4  1  0.82534900  0.83890800  0.39478000  1
  B  B5  1  0.57167800  0.56602400  0.46572500  1
  B  B6  1  0.81571900  0.41346900  0.23488700  1
  B  B7  1  0.42805500  0.10170600  0.53528500  1
  B  B8  1  0.91868100  0.20640900  0.22875700  1
  B  B9  1  0.60203800  0.80959300  0.54068000  1
  B  B10  1  0.58141900  0.67835300  0.76505900  1
  B  B11  1  0.89413800  0.06701300  0.46552200  1
  B  B12  1  0.18247000  0.17902500  0.76490500  1
  B  B13  1  0.41919000  0.91195800  0.23396800  1
  B  B14  1  0.04914100  0.92842200  0.38818300  1
  B  B15  1  0.95057600  0.53963900  0.61101200  1
  B  B16  1  0.14045300  0.84775200  0.87063100  1
  B  B17  1  0.43224700  0.46198600  0.69113400  1
  B  B18  1  0.22261000  0.91107700  0.30216300  1
  B  B19  1  0.07983200  0.41216500  0.30363300  1
  B  B20  1  0.77660000  0.60850900  0.69615000  1
  B  B21  1  0.65348900  0.88186600  0.01379800  1
  B  B22  1  0.25701300  0.40060500  0.87668400  1
  B  B23  1  0.92000000  0.53188700  0.04794600  1
  B  B24  1  0.74083700  0.26965300  0.30834700  1
  B  B25  1  0.38261600  0.02389800  0.12320700  1
  B  B26  1  0.74045100  0.52402300  0.12324500  1
  B  B27  1  0.57037200  0.33881800  0.39477600  1
  B  B28  1  0.79214800  0.73334800  0.08798300  1
  B  B29  1  0.33978700  0.42817800  0.38851600  1
  B  B30  1  0.17462700  0.44385200  0.60544900  1
  B  B31  1  0.20787900  0.64514200  0.91236600  1
  B  B32  1  0.56756000  0.77048600  0.30874400  1
  B  B33  1  0.36080400  0.38014200  0.01316500  1
  B  B34  1  0.34728700  0.86757800  0.98634300  1
  B  B35  1  0.86095600  0.97754600  0.12903500  1
  B  B36  1  0.69083700  0.47803100  0.77116500  1
  B  B37  1  0.12733200  0.03110200  0.04763700  1
  B  B38  1  0.61897300  0.90062000  0.87663100  1
  B  B39  1  0.93747900  0.31096300  0.54000900  1
  B  B40  1  0.31047900  0.70538400  0.22843000  1
  B  B41  1  0.10744000  0.60223100  0.53510800  1
  B  B42  1  0.91870100  0.10955400  0.69643000  1
  B  B43  1  0.26915400  0.47568900  0.12883000  1
  B  B44  1  0.43076200  0.94352300  0.60574800  1
  B  B45  1  0.39845800  0.27185800  0.46090100  1
  B  B46  1  0.72879600  0.34728000  0.87035800  1
  B  B47  1  0.08055000  0.97775300  0.77045000  1
  B  B48  1  0.63681900  0.36643700  0.98584100  1
  B  B49  1  0.29542200  0.23146900  0.08698500  1
  B  B50  1  0.65994100  0.03917900  0.61133500  1
  B  B51  1  0.07892500  0.48448600  0.95288100  1
  O  O0  1  0.83823300  0.28654400  0.18283400  1
  O  O1  1  0.03582400  0.19626400  0.71184300  1
  O  O2  1  0.77155700  0.40422200  0.82160700  1
  O  O3  1  0.46290000  0.82489700  0.54497500  1
  O  O4  1  0.73567200  0.21538000  0.85819400  1
  O  O5  1  0.84737700  0.11260200  0.95655100  1
  O  O6  1  0.34361200  0.89224700  0.64694000  1
  O  O7  1  0.46054700  0.99760700  0.19497900  1
  O  O8  1  0.26470000  0.09734800  0.70953100  1
  O  O9  1  0.12932700  0.97595500  0.34266400  1
  O  O10  1  0.73912000  0.66685000  0.13463600  1
  O  O11  1  0.21395600  0.47627700  0.34325900  1
  O  O12  1  0.67280800  0.69420300  0.71068900  1
  O  O13  1  0.54171900  0.80283300  0.80468800  1
  O  O14  1  0.86010400  0.18880800  0.50648600  1
  O  O15  1  0.64617200  0.68797700  0.50724700  1
  O  O16  1  0.35647100  0.25969400  0.02571600  1
  O  O17  1  0.86460300  0.41198900  0.57152100  1
  O  O18  1  0.99942500  0.95400700  0.00053400  1
  O  O19  1  0.70608500  0.91072100  0.57230500  1
  O  O20  1  0.10831700  0.61172600  0.95689300  1
  O  O21  1  0.61715200  0.44639200  0.05560800  1
  O  O22  1  0.78500100  0.13294000  0.65565500  1
  O  O23  1  0.06212400  0.27622800  0.27995600  1
  O  O24  1  0.53742600  0.28164700  0.45603100  1
  O  O25  1  0.56356000  0.89236200  0.94434200  1
  O  O26  1  0.13584400  0.83992300  0.42755400  1
  O  O27  1  0.08076200  0.32611100  0.54418900  1
  O  O28  1  0.87998000  0.85755100  0.14089800  1
  O  O29  1  0.73467900  0.49846700  0.19544600  1
  O  O30  1  0.12263600  0.38074200  0.90292200  1
  O  O31  1  0.86953500  0.63308700  0.65568000  1
  O  O32  1  0.74297100  0.99186800  0.06875500  1
  O  O33  1  0.21551400  0.77513500  0.27798700  1
  O  O34  1  0.57408000  0.09614100  0.54805000  1
  O  O35  1  0.16155600  0.10298500  0.81682200  1
  O  O36  1  0.67059700  0.76169900  0.02643800  1
  O  O37  1  0.78020800  0.88200500  0.90186600  1
  O  O38  1  0.93601400  0.99823000  0.72127600  1
  O  O39  1  0.95174700  0.08349600  0.17805500  1
  O  O40  1  0.56663800  0.01727600  0.65941400  1
  O  O41  1  0.43400400  0.35810200  0.34090600  1
  O  O42  1  0.43754000  0.94772700  0.05521900  1
  O  O43  1  0.15200900  0.15372300  0.04256700  1
  O  O44  1  0.44322500  0.59709400  0.71058400  1
  O  O45  1  0.26012000  0.35507300  0.13992900  1
  O  O46  1  0.38135000  0.39122100  0.94378900  1
  O  O47  1  0.65580000  0.60348200  0.81714200  1
  O  O48  1  0.32708100  0.48968300  0.06852900  1
  O  O49  1  0.09153300  0.51630600  0.65916900  1
  O  O50  1  0.97438200  0.59788600  0.54832000  1
  O  O51  1  0.60488300  0.03123400  0.86486100  1
  O  O52  1  0.30415800  0.39149800  0.64580600  1
  O  O53  1  0.22139600  0.97864700  0.09826500  1
  O  O54  1  0.26201800  0.30354800  0.80429600  1
  O  O55  1  0.29395600  0.34038500  0.42854000  1
  O  O56  1  0.14188500  0.68391600  0.49449000  1
  O  O57  1  0.25623700  0.92307500  0.93197000  1
  O  O58  1  0.55234100  0.39665700  0.71600800  1
  O  O59  1  0.32472800  0.98195500  0.28663100  1
  O  O60  1  0.78598300  0.49808500  0.72172700  1
  O  O61  1  0.92008500  0.78066600  0.45470600  1
  O  O62  1  0.05032400  0.90322400  0.82044600  1
  O  O63  1  0.99948400  0.45377700  0.00048900  1
  O  O64  1  0.64020000  0.23338200  0.97263800  1
  O  O65  1  0.34897800  0.02991900  0.56269900  1
  O  O66  1  0.21400800  0.53089500  0.56310600  1
  O  O67  1  0.42548900  0.54862600  0.45176300  1
  O  O68  1  0.02654700  0.04932200  0.45143600  1
  O  O69  1  0.67209700  0.42155500  0.93106200  1
  O  O70  1  0.55639100  0.88599600  0.28947200  1
  O  O71  1  0.78750700  0.96796700  0.43841700  1
  O  O72  1  0.73383300  0.38641000  0.28998200  1
  O  O73  1  0.35461000  0.18446300  0.49537700  1
  O  O74  1  0.25843200  0.53158100  0.86514800  1
  O  O75  1  0.83285000  0.17788800  0.28202700  1
  O  O76  1  0.90692600  0.85919100  0.34073800  1
  O  O77  1  0.87581100  0.47878100  0.09810000  1
  O  O78  1  0.65133900  0.46782800  0.43762300  1
  O  O79  1  0.39484200  0.16636300  0.13455400  1
  O  O80  1  0.33116400  0.73433900  0.97310900  1
  O  O81  1  0.96218700  0.48365100  0.28771600  1
  O  O82  1  0.65870100  0.24559000  0.35464700  1
  O  O83  1  0.16350600  0.89628200  0.71523800  1
  O  O84  1  0.89238200  0.65538200  0.04422600  1
  O  O85  1  0.44929500  0.67876100  0.28323800  1
  O  O86  1  0.69620700  0.74647400  0.35504500  1
  O  O87  1  0.34558200  0.78449600  0.18209600  1
  O  O88  1  0.22892300  0.58137500  0.17837100  1
  O  O89  1  0.12117100  0.71642800  0.85935000  1
loop_
_geom_bond_atom_site_label_1
_geom_bond_atom_site_label_2
_geom_bond_distance
_geom_bond_site_symmetry_2
Na0 O87 2.395101 1_555
Na0 O80 2.421476 1_554
Na0 O48 2.450587 1_555
Na0 O10 2.459672 1_555
Na0 O36 2.659630 1_555
Na0 O21 2.887089 1_555
Na1 O76 2.360886 1_555
Na1 O81 2.382335 1_555
Na1 O33 2.497291 1_655
Na1 O10 2.571040 1_555
Na1 O29 2.705532 1_555
Na1 O77 2.864877 1_555
Na2 O65 2.240594 1_555
Na2 O27 2.277756 1_555
Na2 O8 2.396020 1_555
Na2 O52 2.510930 1_555
Na2 O68 2.564610 1_555
Na2 O73 2.797802 1_555
Na2 O1 2.829422 1_555
Na3 O19 2.260928 1_555
Na3 O50 2.317030 1_555
Na3 O31 2.393638 1_555
Na3 O38 2.501443 1_555
Na3 O61 2.667922 1_555
Na3 O15 2.694758 1_555
Na3 O83 2.755388 1_655
Na4 O59 2.369679 1_545
Na4 O41 2.382807 1_555
Na4 O23 2.517767 1_555
Na4 O79 2.568502 1_555
Na4 O7 2.697380 1_545
Na4 O53 2.842305 1_545
Na5 O66 2.237427 1_555
Na5 O3 2.276518 1_555
Na5 O44 2.386618 1_555
Na5 O6 2.511895 1_555
Na5 O67 2.587357 1_555
Na5 O12 2.777022 1_555
Na5 O56 2.816480 1_555
Na6 O55 2.258709 1_555
Na6 O68 2.298526 1_555
Na6 O9 2.394679 1_545
Na6 O23 2.496184 1_555
Na6 O27 2.643177 1_555
Na6 O73 2.668413 1_555
Na6 O75 2.836493 1_455
Na7 O53 2.322111 1_555
Na7 O87 2.326864 1_555
Na7 O84 2.405278 1_455
Na7 O20 2.508653 1_554
Na8 O44 2.314873 1_555
Na8 O49 2.347698 1_555
Na8 O83 2.432723 1_555
Na8 O89 2.651977 1_555
Na8 O13 2.858774 1_555
Na9 O37 2.282674 1_555
Na9 O47 2.335392 1_555
Na9 O20 2.432796 1_655
Na9 O84 2.528830 1_556
Na10 O70 2.342652 1_555
Na10 O76 2.347430 1_555
Na10 O75 2.374680 1_565
Na10 O28 2.645843 1_555
Na10 O7 2.827890 1_555
Na11 O16 2.403304 1_556
Na11 O35 2.420702 1_555
Na11 O57 2.449752 1_545
Na11 O51 2.471183 1_555
Na11 O64 2.620542 1_555
Na11 O25 2.881984 1_545
Na12 O1 2.366841 1_555
Na12 O49 2.385842 1_555
Na12 O60 2.459702 1_455
Na12 O74 2.571564 1_555
Na12 O54 2.684672 1_555
Na12 O30 2.851477 1_555
Na13 O17 2.271561 1_555
Na13 O34 2.309276 1_555
Na13 O22 2.405428 1_555
Na13 O60 2.543296 1_555
Na13 O24 2.601552 1_555
Na13 O14 2.677614 1_555
Na13 O58 2.780935 1_555
Na14 O64 2.391862 1_554
Na14 O0 2.402243 1_555
Na14 O32 2.466998 1_545
Na14 O79 2.486738 1_555
Na14 O16 2.637271 1_555
Na15 O8 2.312425 1_555
Na15 O40 2.361579 1_555
Na15 O58 2.419648 1_555
Na15 O4 2.657350 1_555
Na15 O54 2.826277 1_555
Na16 O77 2.307429 1_555
Na16 O0 2.315229 1_555
Na16 O43 2.443132 1_655
Na16 O5 2.509477 1_554
Na17 O26 2.272493 1_555
Na17 O67 2.295938 1_555
Na17 O11 2.412636 1_555
Na17 O33 2.525362 1_555
Na17 O3 2.629988 1_555
Na17 O56 2.687131 1_555
Na17 O85 2.784434 1_555
Na18 O72 2.336159 1_555
Na18 O41 2.367626 1_555
Na18 O85 2.400843 1_555
Na18 O45 2.657008 1_555
Na18 O29 2.813017 1_555
Na19 O40 2.352750 1_565
Na19 O12 2.412652 1_555
Na19 O38 2.507999 1_555
Na19 O51 2.534362 1_565
Na19 O13 2.676229 1_555
Na19 O37 2.835799 1_555
Na20 O78 2.230855 1_555
Na20 O61 2.263412 1_555
Na20 O72 2.416016 1_555
Na20 O86 2.457047 1_555
Na20 O50 2.596521 1_555
Na20 O15 2.793347 1_555
Na20 O81 2.843422 1_555
Na21 O71 2.239377 1_545
Na21 O24 2.267602 1_555
Na21 O70 2.435513 1_545
Na21 O82 2.492364 1_555
Na21 O34 2.557196 1_555
Na21 O14 2.794162 1_555
Na21 O59 2.860853 1_545
Na22 O47 2.422505 1_555
Na22 O74 2.449511 1_555
Na22 O36 2.452954 1_556
Na22 O69 2.474909 1_555
Na22 O80 2.613185 1_555
Na23 O30 2.316980 1_555
Na23 O35 2.326385 1_555
Na23 O5 2.412936 1_455
Na23 O43 2.497114 1_556
B0 O37 1.366890 1_555
B0 O5 1.374673 1_565
B0 O18 1.403052 1_556
B1 O26 1.358715 1_555
B1 O61 1.374669 1_455
B1 O56 1.390737 1_555
B2 O51 1.440130 1_555
B2 O4 1.495474 1_555
B2 O64 1.500277 1_555
B2 O5 1.519528 1_555
B3 O6 1.374099 1_555
B3 O8 1.386878 1_565
B3 O83 1.392359 1_555
B4 O86 1.473219 1_555
B4 O76 1.477549 1_555
B4 O71 1.483630 1_555
B4 O61 1.518299 1_555
B5 O78 1.362978 1_555
B5 O67 1.367304 1_555
B5 O15 1.394525 1_555
B6 O29 1.433433 1_555
B6 O0 1.471841 1_555
B6 O72 1.522692 1_555
B6 O81 1.535207 1_555
B7 O65 1.363032 1_555
B7 O34 1.369238 1_555
B7 O73 1.390613 1_555
B8 O0 1.459616 1_555
B8 O39 1.465663 1_555
B8 O23 1.504773 1_655
B8 O75 1.527088 1_555
B9 O19 1.360830 1_555
B9 O3 1.371105 1_555
B9 O15 1.390361 1_555
B10 O13 1.428797 1_555
B10 O47 1.469861 1_555
B10 O44 1.525788 1_555
B10 O12 1.536021 1_555
B11 O71 1.364336 1_545
B11 O68 1.369775 1_655
B11 O14 1.392645 1_555
B12 O54 1.430724 1_555
B12 O35 1.472888 1_555
B12 O8 1.526550 1_555
B12 O1 1.536393 1_555
B13 O7 1.432376 1_555
B13 O87 1.473276 1_555
B13 O70 1.523059 1_555
B13 O59 1.537400 1_555
B14 O9 1.464042 1_555
B14 O76 1.478739 1_455
B14 O26 1.485309 1_555
B14 O68 1.527166 1_565
B15 O31 1.464180 1_555
B15 O49 1.478642 1_655
B15 O17 1.483174 1_555
B15 O50 1.524450 1_555
B16 O62 1.362145 1_555
B16 O89 1.370843 1_555
B16 O57 1.405544 1_555
B17 O52 1.372488 1_555
B17 O44 1.387409 1_555
B17 O58 1.396055 1_555
B18 O9 1.376002 1_555
B18 O59 1.380567 1_555
B18 O33 1.393473 1_555
B19 O11 1.374696 1_555
B19 O81 1.384493 1_455
B19 O23 1.393970 1_555
B20 O31 1.373681 1_555
B20 O12 1.383987 1_555
B20 O60 1.392410 1_555
B21 O25 1.374141 1_554
B21 O36 1.379509 1_555
B21 O32 1.416350 1_555
B22 O54 1.440821 1_555
B22 O74 1.483839 1_555
B22 O46 1.502220 1_555
B22 O30 1.530710 1_555
B23 O77 1.365681 1_555
B23 O84 1.371036 1_555
B23 O63 1.403975 1_555
B24 O82 1.376920 1_555
B24 O72 1.388184 1_555
B24 O75 1.391972 1_555
B25 O7 1.439354 1_545
B25 O79 1.484249 1_555
B25 O42 1.501201 1_545
B25 O53 1.535939 1_545
B26 O29 1.442498 1_555
B26 O10 1.488031 1_555
B26 O21 1.506269 1_555
B26 O77 1.528296 1_555
B27 O82 1.472131 1_555
B27 O41 1.477334 1_555
B27 O78 1.480644 1_555
B27 O24 1.526337 1_555
B28 O10 1.445950 1_555
B28 O36 1.497787 1_555
B28 O28 1.501242 1_555
B28 O84 1.514074 1_555
B29 O11 1.465218 1_555
B29 O41 1.478243 1_555
B29 O55 1.482958 1_555
B29 O67 1.524537 1_555
B30 O52 1.476149 1_555
B30 O49 1.477559 1_555
B30 O66 1.483662 1_555
B30 O27 1.522819 1_555
B31 O74 1.442134 1_555
B31 O89 1.495436 1_555
B31 O80 1.501390 1_555
B31 O20 1.516578 1_555
B32 O86 1.377935 1_555
B32 O70 1.383248 1_555
B32 O85 1.393924 1_555
B33 O46 1.375205 1_554
B33 O16 1.381846 1_555
B33 O48 1.412922 1_555
B34 O42 1.371672 1_556
B34 O80 1.382499 1_555
B34 O57 1.416164 1_555
B35 O39 1.364137 1_565
B35 O28 1.373466 1_555
B35 O32 1.405796 1_555
B36 O47 1.458500 1_555
B36 O2 1.462313 1_555
B36 O60 1.503438 1_555
B36 O58 1.531559 1_555
B37 O53 1.365005 1_545
B37 O43 1.373230 1_555
B37 O18 1.405981 1_445
B38 O13 1.440031 1_555
B38 O51 1.482101 1_565
B38 O25 1.498821 1_555
B38 O37 1.531453 1_555
B39 O17 1.360743 1_555
B39 O27 1.370345 1_655
B39 O14 1.395464 1_555
B40 O87 1.460157 1_555
B40 O88 1.464525 1_555
B40 O33 1.504425 1_555
B40 O85 1.530382 1_555
B41 O66 1.362926 1_555
B41 O50 1.369757 1_455
B41 O56 1.395532 1_555
B42 O22 1.373144 1_555
B42 O1 1.379760 1_655
B42 O38 1.394483 1_545
B43 O88 1.359038 1_555
B43 O45 1.375846 1_555
B43 O48 1.406340 1_555
B44 O6 1.468680 1_555
B44 O40 1.476756 1_565
B44 O65 1.485152 1_565
B44 O3 1.520984 1_555
B45 O55 1.359626 1_555
B45 O24 1.372023 1_555
B45 O73 1.395743 1_555
B46 O2 1.362506 1_555
B46 O4 1.373550 1_555
B46 O69 1.405018 1_555
B47 O35 1.459002 1_565
B47 O62 1.461428 1_555
B47 O38 1.502368 1_455
B47 O83 1.528695 1_555
B48 O21 1.376548 1_556
B48 O64 1.380746 1_555
B48 O69 1.414903 1_555
B49 O79 1.443588 1_555
B49 O45 1.497339 1_555
B49 O16 1.498762 1_555
B49 O43 1.511798 1_555
B50 O22 1.462249 1_555
B50 O40 1.476267 1_555
B50 O19 1.484902 1_545
B50 O34 1.521253 1_555
B51 O30 1.365600 1_555
B51 O20 1.373623 1_555
B51 O63 1.406033 1_456
