# generated using pymatgen
data_K2CuPb(NO2)6
_symmetry_space_group_name_H-M   'P 1'
_cell_length_a   7.44279809
_cell_length_b   7.44279809
_cell_length_c   7.44279809
_cell_angle_alpha   60.00000000
_cell_angle_beta   60.00000000
_cell_angle_gamma   60.00000000
_symmetry_Int_Tables_number   1
_chemical_formula_structural   K2CuPb(NO2)6
_chemical_formula_sum   'K2 Cu1 Pb1 N6 O12'
_cell_volume   291.53702291
_cell_formula_units_Z   1
loop_
 _symmetry_equiv_pos_site_id
 _symmetry_equiv_pos_as_xyz
  1  'x, y, z'
loop_
 _atom_site_type_symbol
 _atom_site_label
 _atom_site_symmetry_multiplicity
 _atom_site_fract_x
 _atom_site_fract_y
 _atom_site_fract_z
 _atom_site_occupancy
  K  K0  1  0.00000000  0.00000000  0.00000000  1
  K  K1  1  0.50000000  0.50000000  0.50000000  1
  Cu  Cu0  1  0.25000000  0.25000000  0.25000000  1
  Pb  Pb0  1  0.75000000  0.75000000  0.75000000  1
  N  N0  1  0.45024800  0.04975200  0.45024800  1
  N  N1  1  0.04975200  0.45024800  0.45024800  1
  N  N2  1  0.04975200  0.04975200  0.45024800  1
  N  N3  1  0.45024800  0.04975200  0.04975200  1
  N  N4  1  0.45024800  0.45024800  0.04975200  1
  N  N5  1  0.04975200  0.45024800  0.04975200  1
  O  O0  1  0.90225300  0.39582600  0.62958800  1
  O  O1  1  0.62958800  0.90225300  0.39582600  1
  O  O2  1  0.39582600  0.62958800  0.90225300  1
  O  O3  1  0.90225300  0.62958800  0.07233200  1
  O  O4  1  0.07233200  0.39582600  0.90225300  1
  O  O5  1  0.07233200  0.90225300  0.62958800  1
  O  O6  1  0.62958800  0.07233200  0.90225300  1
  O  O7  1  0.39582600  0.90225300  0.07233200  1
  O  O8  1  0.62958800  0.39582600  0.07233200  1
  O  O9  1  0.90225300  0.07233200  0.39582600  1
  O  O10  1  0.07233200  0.62958800  0.39582600  1
  O  O11  1  0.39582600  0.07233200  0.62958800  1
loop_
_geom_bond_atom_site_label_1
_geom_bond_atom_site_label_2
_geom_bond_distance
_geom_bond_site_symmetry_2
K0 O9 2.923935 1_455
K0 O4 2.923935 1_554
K0 O7 2.923935 1_545
K0 O8 2.923937 1_455
K0 O11 2.923937 1_554
K0 O10 2.923937 1_545
K0 O0 2.923939 1_454
K0 O2 2.923939 1_544
K0 O1 2.923939 1_445
K0 O3 2.923942 1_445
K0 O6 2.923942 1_454
K0 O5 2.923942 1_544
K1 O0 3.211426 1_555
K1 O2 3.211426 1_555
K1 O1 3.211426 1_555
K1 O3 3.211429 1_555
K1 O5 3.211429 1_555
K1 O6 3.211429 1_555
K1 O9 3.211431 1_555
K1 O7 3.211431 1_555
K1 O4 3.211431 1_555
K1 O11 3.211434 1_555
K1 O8 3.211434 1_555
K1 O10 3.211434 1_555
Cu0 N1 2.107752 1_555
Cu0 N2 2.107752 1_555
Cu0 N3 2.107752 1_555
Cu0 N0 2.107752 1_555
Cu0 N5 2.107752 1_555
Cu0 N4 2.107752 1_555
N0 O11 1.260781 1_555
N0 O1 1.260785 1_545
N1 O10 1.260781 1_555
N1 O0 1.260785 1_455
N2 O5 1.260783 1_545
N2 O9 1.260788 1_455
N3 O6 1.260783 1_554
N3 O7 1.260788 1_545
N4 O8 1.260781 1_555
N4 O2 1.260785 1_554
N5 O3 1.260783 1_455
N5 O4 1.260788 1_554
O0 Pb0 2.719514 1_555
O1 Pb0 2.719514 1_555
O2 Pb0 2.719514 1_555
O3 Pb0 2.719507 1_554
O4 Pb0 2.719510 1_455
O5 Pb0 2.719507 1_455
O6 Pb0 2.719507 1_545
O7 Pb0 2.719510 1_554
O8 Pb0 2.719513 1_554
O9 Pb0 2.719510 1_545
O10 Pb0 2.719513 1_455
O11 Pb0 2.719513 1_545
