# generated using pymatgen
data_Y13Sn31Pd40
_symmetry_space_group_name_H-M   'P 1'
_cell_length_a   20.21344352
_cell_length_b   20.21344324
_cell_length_c   9.39300467
_cell_angle_alpha   90.00000000
_cell_angle_beta   90.00000000
_cell_angle_gamma   120.00000046
_symmetry_Int_Tables_number   1
_chemical_formula_structural   Y13Sn31Pd40
_chemical_formula_sum   'Y26 Sn62 Pd80'
_cell_volume   3323.65374043
_cell_formula_units_Z   2
loop_
 _symmetry_equiv_pos_site_id
 _symmetry_equiv_pos_as_xyz
  1  'x, y, z'
loop_
 _atom_site_type_symbol
 _atom_site_label
 _atom_site_symmetry_multiplicity
 _atom_site_fract_x
 _atom_site_fract_y
 _atom_site_fract_z
 _atom_site_occupancy
  Y  Y0  1  0.57680627  0.15361254  0.50000000  1
  Y  Y1  1  0.42319373  0.57680627  0.50000000  1
  Y  Y2  1  0.84638746  0.42319373  0.50000000  1
  Y  Y3  1  0.51381745  0.75690873  0.00000000  1
  Y  Y4  1  0.72924796  0.00000000  0.71091004  1
  Y  Y5  1  0.72924796  0.00000000  0.28908996  1
  Y  Y6  1  0.24309127  0.48618255  0.00000000  1
  Y  Y7  1  0.00000000  0.00000000  0.20867547  1
  Y  Y8  1  0.27075204  0.00000000  0.28908996  1
  Y  Y9  1  0.15361254  0.57680627  0.50000000  1
  Y  Y10  1  0.24309127  0.75690873  0.00000000  1
  Y  Y11  1  0.57680627  0.42319373  0.50000000  1
  Y  Y12  1  0.72924796  0.72924796  0.71091004  1
  Y  Y13  1  0.27075204  0.27075204  0.28908996  1
  Y  Y14  1  0.27075204  0.00000000  0.71091004  1
  Y  Y15  1  0.00000000  0.72924796  0.71091004  1
  Y  Y16  1  0.00000000  0.72924796  0.28908996  1
  Y  Y17  1  0.00000000  0.27075204  0.28908996  1
  Y  Y18  1  0.75690873  0.51381745  0.00000000  1
  Y  Y19  1  0.27075204  0.27075204  0.71091004  1
  Y  Y20  1  0.75690873  0.24309127  0.00000000  1
  Y  Y21  1  0.00000000  0.27075204  0.71091004  1
  Y  Y22  1  0.72924796  0.72924796  0.28908996  1
  Y  Y23  1  0.42319373  0.84638746  0.50000000  1
  Y  Y24  1  0.48618255  0.24309127  0.00000000  1
  Y  Y25  1  0.00000000  0.00000000  0.79132453  1
  Sn  Sn0  1  0.82268118  0.64536235  0.76830658  1
  Sn  Sn1  1  0.60704741  0.21409481  0.81382899  1
  Sn  Sn2  1  0.60704741  0.21409481  0.18617101  1
  Sn  Sn3  1  0.39295259  0.60704741  0.18617101  1
  Sn  Sn4  1  0.12592406  0.41132023  0.50000000  1
  Sn  Sn5  1  0.00000000  0.50000000  0.73979210  1
  Sn  Sn6  1  0.17731882  0.82268118  0.23169342  1
  Sn  Sn7  1  0.35463765  0.17731882  0.23169342  1
  Sn  Sn8  1  0.50000000  0.00000000  0.26020790  1
  Sn  Sn9  1  0.00000000  0.16198910  0.00000000  1
  Sn  Sn10  1  0.28539617  0.41132023  0.50000000  1
  Sn  Sn11  1  0.82268118  0.64536235  0.23169342  1
  Sn  Sn12  1  0.71460383  0.12592406  0.50000000  1
  Sn  Sn13  1  0.16198910  0.16198910  0.00000000  1
  Sn  Sn14  1  0.58867977  0.71460383  0.50000000  1
  Sn  Sn15  1  0.21409481  0.60704741  0.18617101  1
  Sn  Sn16  1  0.85405678  0.00000000  0.50000000  1
  Sn  Sn17  1  0.00000000  0.50000000  0.26020790  1
  Sn  Sn18  1  0.33333300  0.66666700  0.50000000  1
  Sn  Sn19  1  0.60704741  0.39295259  0.18617101  1
  Sn  Sn20  1  0.83801090  0.00000000  0.00000000  1
  Sn  Sn21  1  0.85405678  0.85405678  0.50000000  1
  Sn  Sn22  1  0.82268118  0.17731882  0.23169342  1
  Sn  Sn23  1  0.64536235  0.82268118  0.76830658  1
  Sn  Sn24  1  0.60704741  0.39295259  0.81382899  1
  Sn  Sn25  1  0.14594322  0.00000000  0.50000000  1
  Sn  Sn26  1  0.66666700  0.33333300  0.50000000  1
  Sn  Sn27  1  0.41132023  0.28539617  0.50000000  1
  Sn  Sn28  1  0.50000000  0.00000000  0.73979210  1
  Sn  Sn29  1  0.35463765  0.17731882  0.76830658  1
  Sn  Sn30  1  0.78590519  0.39295259  0.18617101  1
  Sn  Sn31  1  1.00000000  0.85405678  0.50000000  1
  Sn  Sn32  1  1.00000000  0.83801090  0.00000000  1
  Sn  Sn33  1  0.14594322  0.14594322  0.50000000  1
  Sn  Sn34  1  0.39295259  0.60704741  0.81382899  1
  Sn  Sn35  1  0.50000000  0.50000000  0.73979210  1
  Sn  Sn36  1  0.82268118  0.17731882  0.76830658  1
  Sn  Sn37  1  0.12592406  0.71460383  0.50000000  1
  Sn  Sn38  1  0.83801090  0.83801090  0.00000000  1
  Sn  Sn39  1  0.87407594  0.28539617  0.50000000  1
  Sn  Sn40  1  0.39295259  0.78590519  0.18617101  1
  Sn  Sn41  1  0.00000000  0.61275258  0.00000000  1
  Sn  Sn42  1  0.17731882  0.35463765  0.23169342  1
  Sn  Sn43  1  0.00000000  0.14594322  0.50000000  1
  Sn  Sn44  1  0.50000000  0.50000000  0.26020790  1
  Sn  Sn45  1  0.38724742  0.00000000  0.00000000  1
  Sn  Sn46  1  0.64536235  0.82268118  0.23169342  1
  Sn  Sn47  1  0.17731882  0.35463765  0.76830658  1
  Sn  Sn48  1  0.39295259  0.78590519  0.81382899  1
  Sn  Sn49  1  0.21409481  0.60704741  0.81382899  1
  Sn  Sn50  1  0.78590519  0.39295259  0.81382899  1
  Sn  Sn51  1  0.58867977  0.87407594  0.50000000  1
  Sn  Sn52  1  0.71460383  0.58867977  0.50000000  1
  Sn  Sn53  1  0.41132023  0.12592406  0.50000000  1
  Sn  Sn54  1  0.17731882  0.82268118  0.76830658  1
  Sn  Sn55  1  0.38724742  0.38724742  0.00000000  1
  Sn  Sn56  1  0.87407594  0.58867977  0.50000000  1
  Sn  Sn57  1  0.16198910  0.00000000  0.00000000  1
  Sn  Sn58  1  0.28539617  0.87407594  0.50000000  1
  Sn  Sn59  1  0.61275258  0.61275258  0.00000000  1
  Sn  Sn60  1  0.61275258  0.00000000  0.00000000  1
  Sn  Sn61  1  1.00000000  0.38724742  0.00000000  1
  Pd  Pd0  1  0.10576703  0.65841698  0.77889359  1
  Pd  Pd1  1  0.26045193  0.73954807  0.65281949  1
  Pd  Pd2  1  0.73954807  0.26045193  0.34718051  1
  Pd  Pd3  1  0.32071493  0.23572018  0.00000000  1
  Pd  Pd4  1  0.57706026  0.00000000  0.50000000  1
  Pd  Pd5  1  0.44735005  0.34158302  0.22110641  1
  Pd  Pd6  1  0.47909614  0.73954807  0.65281949  1
  Pd  Pd7  1  0.08911028  0.54455514  0.00000000  1
  Pd  Pd8  1  0.54455514  0.45544486  0.00000000  1
  Pd  Pd9  1  0.26045193  0.73954807  0.34718051  1
  Pd  Pd10  1  0.91500525  0.67928507  0.00000000  1
  Pd  Pd11  1  0.82489564  0.91244782  0.24329765  1
  Pd  Pd12  1  0.65841698  0.55264995  0.22110641  1
  Pd  Pd13  1  0.91244782  0.08755218  0.75670235  1
  Pd  Pd14  1  0.89423297  0.34158302  0.77889359  1
  Pd  Pd15  1  0.73954807  0.47909614  0.34718051  1
  Pd  Pd16  1  0.55264995  0.65841698  0.22110641  1
  Pd  Pd17  1  0.08499475  0.76427982  0.00000000  1
  Pd  Pd18  1  0.65841698  0.10576703  0.22110641  1
  Pd  Pd19  1  0.73954807  0.47909614  0.65281949  1
  Pd  Pd20  1  0.67928507  0.76427982  0.00000000  1
  Pd  Pd21  1  0.14211402  0.85788598  0.50000000  1
  Pd  Pd22  1  0.91244782  0.82489564  0.24329765  1
  Pd  Pd23  1  0.26045193  0.52090386  0.65281949  1
  Pd  Pd24  1  0.55264995  0.65841698  0.77889359  1
  Pd  Pd25  1  0.76427982  0.67928507  0.00000000  1
  Pd  Pd26  1  0.89423297  0.34158302  0.22110641  1
  Pd  Pd27  1  0.65841698  0.55264995  0.77889359  1
  Pd  Pd28  1  0.52090386  0.26045193  0.34718051  1
  Pd  Pd29  1  0.08755218  0.17510436  0.75670235  1
  Pd  Pd30  1  0.08755218  0.17510436  0.24329765  1
  Pd  Pd31  1  0.85788598  0.71577196  0.50000000  1
  Pd  Pd32  1  0.33333300  0.66666700  0.00000000  1
  Pd  Pd33  1  0.14211402  0.28422804  0.50000000  1
  Pd  Pd34  1  0.45544486  0.91088972  0.00000000  1
  Pd  Pd35  1  0.82489564  0.91244782  0.75670235  1
  Pd  Pd36  1  0.91244782  0.08755218  0.24329765  1
  Pd  Pd37  1  0.45544486  0.54455514  0.00000000  1
  Pd  Pd38  1  0.26045193  0.52090386  0.34718051  1
  Pd  Pd39  1  0.65841698  0.10576703  0.77889359  1
  Pd  Pd40  1  0.91244782  0.82489564  0.75670235  1
  Pd  Pd41  1  0.17510436  0.08755218  0.75670235  1
  Pd  Pd42  1  0.52090386  0.26045193  0.65281949  1
  Pd  Pd43  1  0.34158302  0.89423297  0.22110641  1
  Pd  Pd44  1  0.57706026  0.57706026  0.50000000  1
  Pd  Pd45  1  0.23572018  0.91500525  0.00000000  1
  Pd  Pd46  1  0.32071493  0.08499475  0.00000000  1
  Pd  Pd47  1  0.00000000  0.42293974  0.50000000  1
  Pd  Pd48  1  0.85788598  0.14211402  0.50000000  1
  Pd  Pd49  1  0.42293974  0.42293974  0.50000000  1
  Pd  Pd50  1  0.66666700  0.33333300  0.00000000  1
  Pd  Pd51  1  0.17510436  0.08755218  0.24329765  1
  Pd  Pd52  1  0.42293974  0.00000000  0.50000000  1
  Pd  Pd53  1  0.71577196  0.85788598  0.50000000  1
  Pd  Pd54  1  0.08755218  0.91244782  0.24329765  1
  Pd  Pd55  1  0.54455514  0.08911028  0.00000000  1
  Pd  Pd56  1  0.34158302  0.44735005  0.22110641  1
  Pd  Pd57  1  0.08499475  0.32071493  0.00000000  1
  Pd  Pd58  1  0.34158302  0.89423297  0.77889359  1
  Pd  Pd59  1  0.76427982  0.08499475  0.00000000  1
  Pd  Pd60  1  0.44735005  0.10576703  0.22110641  1
  Pd  Pd61  1  0.44735005  0.34158302  0.77889359  1
  Pd  Pd62  1  0.28422804  0.14211402  0.50000000  1
  Pd  Pd63  1  0.34158302  0.44735005  0.77889359  1
  Pd  Pd64  1  0.67928507  0.91500525  0.00000000  1
  Pd  Pd65  1  0.44735005  0.10576703  0.77889359  1
  Pd  Pd66  1  0.89423297  0.55264995  0.77889359  1
  Pd  Pd67  1  0.73954807  0.26045193  0.65281949  1
  Pd  Pd68  1  0.10576703  0.65841698  0.22110641  1
  Pd  Pd69  1  0.23572018  0.32071493  0.00000000  1
  Pd  Pd70  1  0.55264995  0.89423297  0.22110641  1
  Pd  Pd71  1  0.08755218  0.91244782  0.75670235  1
  Pd  Pd72  1  0.10576703  0.44735005  0.22110641  1
  Pd  Pd73  1  0.10576703  0.44735005  0.77889359  1
  Pd  Pd74  1  0.91500525  0.23572018  0.00000000  1
  Pd  Pd75  1  0.55264995  0.89423297  0.77889359  1
  Pd  Pd76  1  0.89423297  0.55264995  0.22110641  1
  Pd  Pd77  1  0.00000000  0.57706026  0.50000000  1
  Pd  Pd78  1  0.47909614  0.73954807  0.34718051  1
  Pd  Pd79  1  0.91088972  0.45544486  0.00000000  1
loop_
_geom_bond_atom_site_label_1
_geom_bond_atom_site_label_2
_geom_bond_distance
_geom_bond_site_symmetry_2
Y4 Y5 3.962158 1_555
Y12 Y22 3.962158 1_555
Y13 Y19 3.962158 1_555
Y14 Y8 3.962158 1_555
Y15 Y16 3.962158 1_555
Y17 Y21 3.962158 1_555
Sn0 Sn56 3.151777 1_555
Sn0 Sn52 3.151777 1_555
Sn0 Y15 3.151978 1_655
Sn0 Y12 3.151978 1_555
Sn0 Y18 3.168420 1_556
Sn1 Y0 3.132170 1_555
Sn1 Y20 3.286664 1_556
Sn1 Y24 3.286664 1_556
Sn2 Y0 3.132170 1_555
Sn2 Y20 3.286664 1_555
Sn2 Y24 3.286664 1_555
Sn3 Y1 3.132170 1_555
Sn3 Y3 3.286664 1_555
Sn3 Y6 3.286664 1_555
Sn4 Y9 3.103289 1_555
Sn4 Sn42 3.151777 1_555
Sn4 Sn47 3.151777 1_555
Sn4 Y21 3.353296 1_555
Sn4 Y17 3.353296 1_555
Sn5 Y9 3.507722 1_555
Sn5 Y2 3.507722 1_455
Sn6 Y8 3.151978 1_565
Sn6 Y16 3.151978 1_555
Sn6 Y10 3.168420 1_555
Sn7 Y8 3.151978 1_555
Sn7 Y13 3.151978 1_555
Sn7 Y24 3.168420 1_555
Sn8 Y0 3.507722 1_555
Sn8 Y23 3.507722 1_545
Sn9 Y21 3.493825 1_554
Sn9 Y17 3.493825 1_555
Sn10 Y1 3.103289 1_555
Sn10 Sn42 3.151777 1_555
Sn10 Sn47 3.151777 1_555
Sn10 Sn4 3.223480 1_555
Sn10 Y19 3.353296 1_555
Sn10 Y13 3.353296 1_555
Sn11 Sn56 3.151777 1_555
Sn11 Sn52 3.151777 1_555
Sn11 Y16 3.151978 1_655
Sn11 Y22 3.151978 1_555
Sn11 Y18 3.168420 1_555
Sn12 Y0 3.103289 1_555
Sn12 Sn36 3.151777 1_555
Sn12 Sn22 3.151777 1_555
Sn12 Sn39 3.223480 1_555
Sn12 Y5 3.353296 1_555
Sn12 Y4 3.353296 1_555
Sn13 Y13 3.493825 1_555
Sn13 Y19 3.493825 1_554
Sn14 Y1 3.103289 1_555
Sn14 Sn46 3.151777 1_555
Sn14 Sn23 3.151777 1_555
Sn14 Sn51 3.223480 1_555
Sn14 Y12 3.353296 1_555
Sn14 Y22 3.353296 1_555
Sn15 Y9 3.132170 1_555
Sn15 Y10 3.286664 1_555
Sn15 Y6 3.286664 1_555
Sn16 Sn21 2.950015 1_545
Sn16 Sn43 2.950015 1_655
Sn16 Y4 3.207690 1_555
Sn16 Y5 3.207690 1_555
Sn17 Y9 3.507722 1_555
Sn17 Y2 3.507722 1_455
Sn18 Y23 3.146070 1_555
Sn18 Y9 3.146071 1_555
Sn18 Y1 3.146088 1_555
Sn19 Y11 3.132170 1_555
Sn19 Y24 3.286664 1_555
Sn19 Y18 3.286664 1_555
Sn20 Y5 3.493825 1_555
Sn20 Y4 3.493825 1_554
Sn21 Sn31 2.950015 1_555
Sn21 Y12 3.207690 1_555
Sn21 Y22 3.207690 1_555
Sn22 Sn39 3.151777 1_555
Sn22 Y5 3.151978 1_555
Sn22 Y17 3.151978 1_655
Sn22 Y20 3.168420 1_555
Sn23 Sn51 3.151777 1_555
Sn23 Y4 3.151978 1_565
Sn23 Y12 3.151978 1_555
Sn23 Y3 3.168420 1_556
Sn24 Y11 3.132170 1_555
Sn24 Y24 3.286664 1_556
Sn24 Y18 3.286664 1_556
Sn25 Sn31 2.950015 1_445
Sn25 Sn33 2.950015 1_555
Sn25 Y8 3.207690 1_555
Sn25 Y14 3.207690 1_555
Sn26 Y0 3.146070 1_555
Sn26 Y2 3.146071 1_555
Sn26 Y11 3.146088 1_555
Sn27 Y11 3.103289 1_555
Sn27 Sn29 3.151777 1_555
Sn27 Sn7 3.151777 1_555
Sn27 Sn53 3.223480 1_555
Sn27 Y13 3.353296 1_555
Sn27 Y19 3.353296 1_555
Sn28 Y0 3.507722 1_555
Sn28 Y23 3.507722 1_545
Sn29 Sn53 3.151777 1_555
Sn29 Y14 3.151978 1_555
Sn29 Y19 3.151978 1_555
Sn29 Y24 3.168420 1_556
Sn30 Y2 3.132170 1_555
Sn30 Y20 3.286664 1_555
Sn30 Y18 3.286664 1_555
Sn31 Y16 3.207690 1_655
Sn31 Y15 3.207690 1_655
Sn32 Y16 3.493825 1_655
Sn32 Y15 3.493825 1_654
Sn33 Sn43 2.950015 1_555
Sn33 Y13 3.207690 1_555
Sn33 Y19 3.207690 1_555
Sn34 Y1 3.132170 1_555
Sn34 Y3 3.286664 1_556
Sn34 Y6 3.286664 1_556
Sn35 Y11 3.507722 1_555
Sn35 Y1 3.507722 1_555
Sn36 Sn39 3.151777 1_555
Sn36 Y4 3.151978 1_555
Sn36 Y21 3.151978 1_655
Sn36 Y20 3.168420 1_556
Sn37 Y9 3.103289 1_555
Sn37 Sn54 3.151777 1_555
Sn37 Sn6 3.151777 1_555
Sn37 Sn58 3.223480 1_555
Sn37 Y15 3.353296 1_555
Sn37 Y16 3.353296 1_555
Sn38 Y12 3.493825 1_554
Sn38 Y22 3.493825 1_555
Sn39 Y2 3.103289 1_555
Sn39 Y21 3.353296 1_655
Sn39 Y17 3.353296 1_655
Sn40 Y23 3.132170 1_555
Sn40 Y10 3.286664 1_555
Sn40 Y3 3.286664 1_555
Sn41 Y16 3.594229 1_555
Sn41 Y15 3.594229 1_554
Sn42 Y17 3.151978 1_555
Sn42 Y13 3.151978 1_555
Sn42 Y6 3.168420 1_555
Sn43 Y17 3.207690 1_555
Sn43 Y21 3.207690 1_555
Sn44 Y1 3.507722 1_555
Sn44 Y11 3.507722 1_555
Sn45 Y14 3.594229 1_554
Sn45 Y8 3.594229 1_555
Sn46 Sn51 3.151777 1_555
Sn46 Y5 3.151978 1_565
Sn46 Y22 3.151978 1_555
Sn46 Y3 3.168420 1_555
Sn47 Y21 3.151978 1_555
Sn47 Y19 3.151978 1_555
Sn47 Y6 3.168420 1_556
Sn48 Y23 3.132170 1_555
Sn48 Y10 3.286664 1_556
Sn48 Y3 3.286664 1_556
Sn49 Y9 3.132170 1_555
Sn49 Y10 3.286664 1_556
Sn49 Y6 3.286664 1_556
Sn50 Y2 3.132170 1_555
Sn50 Y20 3.286664 1_556
Sn50 Y18 3.286664 1_556
Sn51 Y23 3.103289 1_555
Sn51 Y5 3.353296 1_565
Sn51 Y4 3.353296 1_565
Sn52 Y11 3.103289 1_555
Sn52 Sn56 3.223480 1_555
Sn52 Y12 3.353296 1_555
Sn52 Y22 3.353296 1_555
Sn53 Y0 3.103289 1_555
Sn53 Sn7 3.151777 1_555
Sn53 Y8 3.353296 1_555
Sn53 Y14 3.353296 1_555
Sn54 Sn58 3.151777 1_555
Sn54 Y14 3.151978 1_565
Sn54 Y15 3.151978 1_555
Sn54 Y10 3.168420 1_556
Sn55 Y13 3.594229 1_555
Sn55 Y19 3.594229 1_554
Sn56 Y2 3.103289 1_555
Sn56 Y16 3.353296 1_655
Sn56 Y15 3.353296 1_655
Sn57 Y14 3.493825 1_554
Sn57 Y8 3.493825 1_555
Sn58 Y23 3.103289 1_555
Sn58 Sn6 3.151777 1_555
Sn58 Y8 3.353296 1_565
Sn58 Y14 3.353296 1_565
Sn59 Y12 3.594229 1_554
Sn59 Y22 3.594229 1_555
Sn60 Y5 3.594229 1_555
Sn60 Y4 3.594229 1_554
Sn61 Y21 3.594229 1_654
Sn61 Y17 3.594229 1_655
Pd0 Sn41 2.786149 1_556
Pd0 Sn37 2.802803 1_555
Pd0 Sn5 2.848408 1_555
Pd0 Sn49 2.873015 1_555
Pd0 Sn54 2.885160 1_555
Pd0 Pd1 2.956431 1_555
Pd0 Pd7 2.991465 1_556
Pd0 Pd17 3.157066 1_556
Pd0 Y15 3.176360 1_555
Pd0 Y10 3.233522 1_556
Pd0 Pd77 3.259114 1_555
Pd0 Y9 3.480600 1_555
Pd1 Sn49 2.798014 1_555
Pd1 Sn48 2.798014 1_555
Pd1 Pd9 2.870868 1_555
Pd1 Sn58 2.887569 1_555
Pd1 Sn37 2.887569 1_555
Pd1 Sn18 2.927666 1_555
Pd1 Pd58 2.956431 1_555
Pd1 Sn54 3.106127 1_555
Pd1 Y9 3.231325 1_555
Pd1 Y23 3.231325 1_555
Pd1 Y10 3.317227 1_556
Pd2 Sn30 2.798014 1_555
Pd2 Sn2 2.798014 1_555
Pd2 Pd67 2.870868 1_555
Pd2 Sn12 2.887569 1_555
Pd2 Sn39 2.887569 1_555
Pd2 Sn26 2.927666 1_555
Pd2 Pd26 2.956431 1_555
Pd2 Sn22 3.106127 1_555
Pd2 Y2 3.231325 1_555
Pd2 Y0 3.231325 1_555
Pd2 Y20 3.317227 1_555
Pd3 Sn55 2.659093 1_555
Pd3 Sn29 2.722034 1_554
Pd3 Sn7 2.722034 1_555
Pd3 Sn13 2.780883 1_555
Pd3 Pd69 2.975727 1_555
Pd3 Pd46 3.046680 1_555
Pd3 Y19 3.100005 1_554
Pd3 Y13 3.100005 1_555
Pd3 Pd61 3.157066 1_554
Pd3 Pd5 3.157066 1_555
Pd3 Y24 3.272718 1_555
Pd4 Sn51 2.670551 1_545
Pd4 Sn12 2.670551 1_555
Pd4 Sn28 2.738512 1_555
Pd4 Sn8 2.738512 1_555
Pd4 Y0 3.107609 1_555
Pd4 Y23 3.107609 1_545
Pd4 Pd75 3.259114 1_545
Pd4 Pd70 3.259114 1_545
Pd4 Y5 3.658949 1_555
Pd4 Y4 3.658949 1_555
Pd5 Sn55 2.786149 1_555
Pd5 Sn27 2.802803 1_555
Pd5 Sn44 2.848408 1_555
Pd5 Sn19 2.873015 1_555
Pd5 Sn7 2.885160 1_555
Pd5 Pd8 2.991465 1_555
Pd5 Y13 3.176360 1_555
Pd5 Y24 3.233522 1_555
Pd5 Y11 3.480600 1_555
Pd6 Sn34 2.798014 1_555
Pd6 Sn48 2.798014 1_555
Pd6 Pd78 2.870868 1_555
Pd6 Sn51 2.887569 1_555
Pd6 Sn14 2.887569 1_555
Pd6 Sn18 2.927681 1_555
Pd6 Pd75 2.956431 1_555
Pd6 Sn23 3.106127 1_555
Pd6 Y1 3.231325 1_555
Pd6 Y23 3.231325 1_555
Pd6 Y3 3.317227 1_556
Pd7 Sn61 2.761827 1_455
Pd7 Sn41 2.761827 1_555
Pd7 Sn15 2.800870 1_555
Pd7 Sn49 2.800870 1_554
Pd7 Sn17 2.899500 1_555
Pd7 Sn5 2.899500 1_554
Pd7 Pd73 2.991465 1_554
Pd7 Pd72 2.991465 1_555
Pd7 Pd79 3.119814 1_455
Pd8 Sn59 2.761827 1_555
Pd8 Sn55 2.761827 1_555
Pd8 Sn19 2.800870 1_555
Pd8 Sn24 2.800870 1_554
Pd8 Sn35 2.899500 1_554
Pd8 Sn44 2.899500 1_555
Pd9 Sn15 2.798014 1_555
Pd9 Sn40 2.798014 1_555
Pd9 Sn58 2.887569 1_555
Pd9 Sn37 2.887569 1_555
Pd9 Sn18 2.927666 1_555
Pd9 Sn6 3.106127 1_555
Pd9 Y9 3.231325 1_555
Pd9 Y23 3.231325 1_555
Pd9 Y10 3.317227 1_555
Pd10 Sn41 2.659093 1_655
Pd10 Sn11 2.722034 1_555
Pd10 Sn0 2.722034 1_554
Pd10 Sn32 2.780883 1_555
Pd10 Pd17 2.975727 1_655
Pd10 Pd25 3.046680 1_555
Pd10 Y15 3.100005 1_654
Pd10 Y16 3.100005 1_655
Pd10 Pd66 3.157066 1_554
Pd10 Pd76 3.157066 1_555
Pd10 Y18 3.272717 1_555
Pd11 Sn20 2.820575 1_565
Pd11 Sn38 2.820575 1_555
Pd11 Sn16 2.872307 1_565
Pd11 Sn21 2.872307 1_555
Pd11 Pd36 3.065264 1_565
Pd11 Pd22 3.065264 1_555
Pd11 Pd53 3.076194 1_555
Pd11 Y7 3.082467 1_665
Pd11 Sn46 3.144684 1_555
Pd11 Y22 3.236729 1_555
Pd11 Y5 3.236729 1_565
Pd12 Sn59 2.786149 1_555
Pd12 Sn52 2.802803 1_555
Pd12 Sn44 2.848408 1_555
Pd12 Sn19 2.873015 1_555
Pd12 Sn11 2.885160 1_555
Pd12 Pd15 2.956431 1_555
Pd12 Pd8 2.991465 1_555
Pd12 Pd25 3.157066 1_555
Pd12 Y22 3.176360 1_555
Pd12 Y18 3.233522 1_555
Pd12 Pd44 3.259114 1_555
Pd12 Y11 3.480600 1_555
Pd13 Sn20 2.820575 1_556
Pd13 Sn9 2.820575 1_656
Pd13 Sn16 2.872307 1_555
Pd13 Sn43 2.872307 1_655
Pd13 Pd35 3.065264 1_545
Pd13 Pd29 3.065264 1_655
Pd13 Pd48 3.076194 1_555
Pd13 Y25 3.082467 1_655
Pd13 Sn36 3.144683 1_555
Pd13 Y21 3.236729 1_655
Pd13 Y4 3.236729 1_555
Pd14 Sn61 2.786149 1_556
Pd14 Sn39 2.802803 1_555
Pd14 Sn5 2.848408 1_655
Pd14 Sn50 2.873015 1_555
Pd14 Sn36 2.885160 1_555
Pd14 Pd67 2.956431 1_555
Pd14 Pd79 2.991465 1_556
Pd14 Pd74 3.157066 1_556
Pd14 Y21 3.176360 1_655
Pd14 Y20 3.233522 1_556
Pd14 Pd47 3.259114 1_655
Pd14 Y2 3.480600 1_555
Pd15 Sn19 2.798014 1_555
Pd15 Sn30 2.798014 1_555
Pd15 Pd19 2.870868 1_555
Pd15 Sn56 2.887569 1_555
Pd15 Sn52 2.887569 1_555
Pd15 Sn26 2.927681 1_555
Pd15 Pd76 2.956431 1_555
Pd15 Sn11 3.106127 1_555
Pd15 Y11 3.231325 1_555
Pd15 Y2 3.231325 1_555
Pd15 Y18 3.317227 1_555
Pd16 Sn59 2.786149 1_555
Pd16 Sn14 2.802803 1_555
Pd16 Sn44 2.848408 1_555
Pd16 Sn3 2.873015 1_555
Pd16 Sn46 2.885160 1_555
Pd16 Pd78 2.956431 1_555
Pd16 Pd37 2.991465 1_555
Pd16 Pd20 3.157066 1_555
Pd16 Y22 3.176360 1_555
Pd16 Y3 3.233522 1_555
Pd16 Pd44 3.259114 1_555
Pd16 Y1 3.480600 1_555
Pd17 Sn41 2.659093 1_555
Pd17 Sn6 2.722034 1_555
Pd17 Sn54 2.722034 1_554
Pd17 Sn32 2.780883 1_455
Pd17 Pd45 3.046680 1_555
Pd17 Y16 3.100005 1_555
Pd17 Y15 3.100005 1_554
Pd17 Pd68 3.157066 1_555
Pd17 Y10 3.272717 1_555
Pd18 Sn60 2.786149 1_555
Pd18 Sn12 2.802803 1_555
Pd18 Sn8 2.848408 1_555
Pd18 Sn2 2.873015 1_555
Pd18 Sn22 2.885160 1_555
Pd18 Pd2 2.956431 1_555
Pd18 Pd55 2.991465 1_555
Pd18 Pd59 3.157066 1_555
Pd18 Y5 3.176360 1_555
Pd18 Y20 3.233522 1_555
Pd18 Pd4 3.259114 1_555
Pd18 Y0 3.480600 1_555
Pd19 Sn24 2.798014 1_555
Pd19 Sn50 2.798014 1_555
Pd19 Sn52 2.887569 1_555
Pd19 Sn56 2.887569 1_555
Pd19 Sn26 2.927681 1_555
Pd19 Pd27 2.956431 1_555
Pd19 Pd66 2.956431 1_555
Pd19 Sn0 3.106127 1_555
Pd19 Y11 3.231325 1_555
Pd19 Y2 3.231325 1_555
Pd19 Y18 3.317227 1_556
Pd20 Sn59 2.659093 1_555
Pd20 Sn23 2.722034 1_554
Pd20 Sn46 2.722034 1_555
Pd20 Sn38 2.780883 1_555
Pd20 Pd25 2.975727 1_555
Pd20 Pd64 3.046680 1_555
Pd20 Y22 3.100005 1_555
Pd20 Y12 3.100005 1_554
Pd20 Pd24 3.157066 1_554
Pd20 Y3 3.272718 1_555
Pd21 Sn37 2.747256 1_555
Pd21 Sn58 2.747256 1_555
Pd21 Sn54 2.805459 1_555
Pd21 Sn6 2.805459 1_555
Pd21 Sn25 2.834706 1_565
Pd21 Sn31 2.834706 1_455
Pd21 Pd71 3.076194 1_555
Pd21 Pd54 3.076194 1_555
Pd21 Y8 3.386487 1_565
Pd21 Y14 3.386487 1_565
Pd21 Y16 3.386487 1_555
Pd21 Y15 3.386487 1_555
Pd22 Sn32 2.820575 1_555
Pd22 Sn38 2.820575 1_555
Pd22 Sn31 2.872307 1_555
Pd22 Sn21 2.872307 1_555
Pd22 Pd54 3.065264 1_655
Pd22 Pd31 3.076194 1_555
Pd22 Y7 3.082467 1_665
Pd22 Sn11 3.144684 1_555
Pd22 Y22 3.236729 1_555
Pd22 Y16 3.236729 1_655
Pd23 Sn34 2.798014 1_555
Pd23 Sn49 2.798014 1_555
Pd23 Pd38 2.870868 1_555
Pd23 Sn10 2.887569 1_555
Pd23 Sn4 2.887569 1_555
Pd23 Sn18 2.927681 1_555
Pd23 Pd73 2.956431 1_555
Pd23 Pd63 2.956431 1_555
Pd23 Sn47 3.106127 1_555
Pd23 Y1 3.231325 1_555
Pd23 Y9 3.231325 1_555
Pd23 Y6 3.317227 1_556
Pd24 Sn59 2.786149 1_556
Pd24 Sn14 2.802803 1_555
Pd24 Sn35 2.848408 1_555
Pd24 Sn34 2.873015 1_555
Pd24 Sn23 2.885160 1_555
Pd24 Pd6 2.956431 1_555
Pd24 Pd37 2.991465 1_556
Pd24 Y12 3.176360 1_555
Pd24 Y3 3.233522 1_556
Pd24 Pd44 3.259114 1_555
Pd24 Y1 3.480600 1_555
Pd25 Sn59 2.659093 1_555
Pd25 Sn11 2.722034 1_555
Pd25 Sn0 2.722034 1_554
Pd25 Sn38 2.780883 1_555
Pd25 Y22 3.100005 1_555
Pd25 Y12 3.100005 1_554
Pd25 Pd27 3.157066 1_554
Pd25 Y18 3.272717 1_555
Pd26 Sn61 2.786149 1_555
Pd26 Sn39 2.802803 1_555
Pd26 Sn17 2.848408 1_655
Pd26 Sn30 2.873015 1_555
Pd26 Sn22 2.885160 1_555
Pd26 Pd79 2.991465 1_555
Pd26 Pd74 3.157066 1_555
Pd26 Y17 3.176360 1_655
Pd26 Y20 3.233522 1_555
Pd26 Pd47 3.259114 1_655
Pd26 Y2 3.480600 1_555
Pd27 Sn59 2.786149 1_556
Pd27 Sn52 2.802803 1_555
Pd27 Sn35 2.848408 1_555
Pd27 Sn24 2.873015 1_555
Pd27 Sn0 2.885160 1_555
Pd27 Pd8 2.991465 1_556
Pd27 Y12 3.176360 1_555
Pd27 Y18 3.233522 1_556
Pd27 Pd44 3.259114 1_555
Pd27 Y11 3.480600 1_555
Pd28 Sn19 2.798014 1_555
Pd28 Sn2 2.798014 1_555
Pd28 Pd42 2.870868 1_555
Pd28 Sn53 2.887569 1_555
Pd28 Sn27 2.887569 1_555
Pd28 Sn26 2.927681 1_555
Pd28 Pd60 2.956431 1_555
Pd28 Pd5 2.956431 1_555
Pd28 Sn7 3.106127 1_555
Pd28 Y11 3.231325 1_555
Pd28 Y0 3.231325 1_555
Pd28 Y24 3.317227 1_555
Pd29 Sn9 2.820575 1_556
Pd29 Sn13 2.820575 1_556
Pd29 Sn43 2.872307 1_555
Pd29 Sn33 2.872307 1_555
Pd29 Pd41 3.065264 1_555
Pd29 Pd33 3.076194 1_555
Pd29 Y25 3.082467 1_555
Pd29 Sn47 3.144684 1_555
Pd29 Y19 3.236729 1_555
Pd29 Y21 3.236729 1_555
Pd30 Sn9 2.820575 1_555
Pd30 Sn13 2.820575 1_555
Pd30 Sn43 2.872307 1_555
Pd30 Sn33 2.872307 1_555
Pd30 Pd51 3.065264 1_555
Pd30 Pd36 3.065264 1_455
Pd30 Pd33 3.076194 1_555
Pd30 Y7 3.082467 1_555
Pd30 Sn42 3.144684 1_555
Pd30 Y13 3.236729 1_555
Pd30 Y17 3.236729 1_555
Pd31 Sn56 2.747256 1_555
Pd31 Sn52 2.747256 1_555
Pd31 Sn0 2.805459 1_555
Pd31 Sn11 2.805459 1_555
Pd31 Sn31 2.834706 1_555
Pd31 Sn21 2.834706 1_555
Pd31 Pd40 3.076194 1_555
Pd31 Y15 3.386487 1_655
Pd31 Y16 3.386487 1_655
Pd31 Y22 3.386487 1_555
Pd31 Y12 3.386487 1_555
Pd32 Sn40 2.723017 1_555
Pd32 Sn48 2.723017 1_554
Pd32 Sn15 2.723017 1_555
Pd32 Sn49 2.723017 1_554
Pd32 Sn3 2.723030 1_555
Pd32 Sn34 2.723030 1_554
Pd32 Y10 3.159427 1_555
Pd32 Y6 3.159444 1_555
Pd32 Y3 3.159444 1_555
Pd33 Sn4 2.747256 1_555
Pd33 Sn10 2.747256 1_555
Pd33 Sn42 2.805459 1_555
Pd33 Sn47 2.805459 1_555
Pd33 Sn43 2.834706 1_555
Pd33 Sn33 2.834706 1_555
Pd33 Y19 3.386487 1_555
Pd33 Y13 3.386487 1_555
Pd33 Y17 3.386487 1_555
Pd33 Y21 3.386487 1_555
Pd34 Sn45 2.761827 1_565
Pd34 Sn60 2.761827 1_565
Pd34 Sn40 2.800870 1_555
Pd34 Sn48 2.800870 1_554
Pd34 Sn8 2.899500 1_565
Pd34 Sn28 2.899500 1_564
Pd34 Pd58 2.991465 1_554
Pd34 Pd43 2.991465 1_555
Pd34 Pd70 2.991465 1_555
Pd34 Pd75 2.991465 1_554
Pd34 Pd55 3.119814 1_565
Pd35 Sn20 2.820575 1_566
Pd35 Sn38 2.820575 1_556
Pd35 Sn16 2.872307 1_565
Pd35 Sn21 2.872307 1_555
Pd35 Pd40 3.065264 1_555
Pd35 Pd53 3.076194 1_555
Pd35 Y25 3.082467 1_665
Pd35 Sn23 3.144684 1_555
Pd35 Y12 3.236729 1_555
Pd35 Y4 3.236729 1_565
Pd36 Sn20 2.820575 1_555
Pd36 Sn9 2.820575 1_655
Pd36 Sn16 2.872307 1_555
Pd36 Sn43 2.872307 1_655
Pd36 Pd48 3.076194 1_555
Pd36 Y7 3.082467 1_655
Pd36 Sn22 3.144683 1_555
Pd36 Y17 3.236729 1_655
Pd36 Y5 3.236729 1_555
Pd37 Sn55 2.761827 1_555
Pd37 Sn59 2.761827 1_555
Pd37 Sn3 2.800870 1_555
Pd37 Sn34 2.800870 1_554
Pd37 Sn44 2.899500 1_555
Pd37 Sn35 2.899500 1_554
Pd37 Pd56 2.991465 1_555
Pd37 Pd63 2.991465 1_554
Pd37 Pd8 3.119814 1_555
Pd38 Sn3 2.798014 1_555
Pd38 Sn15 2.798014 1_555
Pd38 Sn10 2.887569 1_555
Pd38 Sn4 2.887569 1_555
Pd38 Sn18 2.927681 1_555
Pd38 Pd72 2.956431 1_555
Pd38 Pd56 2.956431 1_555
Pd38 Sn42 3.106127 1_555
Pd38 Y1 3.231325 1_555
Pd38 Y9 3.231325 1_555
Pd38 Y6 3.317227 1_555
Pd39 Sn60 2.786149 1_556
Pd39 Sn12 2.802803 1_555
Pd39 Sn28 2.848408 1_555
Pd39 Sn1 2.873015 1_555
Pd39 Sn36 2.885160 1_555
Pd39 Pd67 2.956431 1_555
Pd39 Pd55 2.991465 1_556
Pd39 Pd59 3.157066 1_556
Pd39 Y4 3.176360 1_555
Pd39 Y20 3.233522 1_556
Pd39 Pd4 3.259114 1_555
Pd39 Y0 3.480600 1_555
Pd40 Sn38 2.820575 1_556
Pd40 Sn32 2.820575 1_556
Pd40 Sn31 2.872307 1_555
Pd40 Sn21 2.872307 1_555
Pd40 Pd71 3.065264 1_655
Pd40 Y25 3.082467 1_665
Pd40 Sn0 3.144684 1_555
Pd40 Y12 3.236729 1_555
Pd40 Y15 3.236729 1_655
Pd41 Sn57 2.820575 1_556
Pd41 Sn13 2.820575 1_556
Pd41 Sn25 2.872307 1_555
Pd41 Sn33 2.872307 1_555
Pd41 Pd71 3.065264 1_545
Pd41 Pd62 3.076194 1_555
Pd41 Y25 3.082467 1_555
Pd41 Sn29 3.144684 1_555
Pd41 Y19 3.236729 1_555
Pd41 Y14 3.236729 1_555
Pd42 Sn24 2.798014 1_555
Pd42 Sn1 2.798014 1_555
Pd42 Sn53 2.887569 1_555
Pd42 Sn27 2.887569 1_555
Pd42 Sn26 2.927681 1_555
Pd42 Pd65 2.956431 1_555
Pd42 Pd61 2.956431 1_555
Pd42 Sn29 3.106127 1_555
Pd42 Y11 3.231325 1_555
Pd42 Y0 3.231325 1_555
Pd42 Y24 3.317227 1_556
Pd43 Sn45 2.786149 1_565
Pd43 Sn58 2.802803 1_555
Pd43 Sn8 2.848408 1_565
Pd43 Sn40 2.873015 1_555
Pd43 Sn6 2.885160 1_555
Pd43 Pd9 2.956431 1_555
Pd43 Pd45 3.157066 1_555
Pd43 Y8 3.176360 1_565
Pd43 Y10 3.233522 1_555
Pd43 Pd52 3.259114 1_565
Pd43 Y23 3.480600 1_555
Pd44 Sn14 2.670551 1_555
Pd44 Sn52 2.670551 1_555
Pd44 Sn35 2.738512 1_555
Pd44 Sn44 2.738512 1_555
Pd44 Y11 3.107609 1_555
Pd44 Y1 3.107609 1_555
Pd44 Y22 3.658949 1_555
Pd44 Y12 3.658949 1_555
Pd45 Sn45 2.659093 1_565
Pd45 Sn6 2.722034 1_555
Pd45 Sn54 2.722034 1_554
Pd45 Sn57 2.780883 1_565
Pd45 Pd46 2.975727 1_565
Pd45 Y14 3.100005 1_564
Pd45 Y8 3.100005 1_565
Pd45 Pd58 3.157066 1_554
Pd45 Y10 3.272717 1_555
Pd46 Sn45 2.659093 1_555
Pd46 Sn29 2.722034 1_554
Pd46 Sn7 2.722034 1_555
Pd46 Sn57 2.780883 1_555
Pd46 Y14 3.100005 1_554
Pd46 Y8 3.100005 1_555
Pd46 Pd65 3.157066 1_554
Pd46 Pd60 3.157066 1_555
Pd46 Y24 3.272717 1_555
Pd47 Sn39 2.670551 1_455
Pd47 Sn4 2.670551 1_555
Pd47 Sn5 2.738512 1_555
Pd47 Sn17 2.738512 1_555
Pd47 Y9 3.107609 1_555
Pd47 Y2 3.107609 1_455
Pd47 Pd72 3.259114 1_555
Pd47 Pd73 3.259114 1_555
Pd47 Y17 3.658949 1_555
Pd47 Y21 3.658949 1_555
Pd48 Sn39 2.747256 1_555
Pd48 Sn12 2.747256 1_555
Pd48 Sn36 2.805459 1_555
Pd48 Sn22 2.805459 1_555
Pd48 Sn16 2.834706 1_555
Pd48 Sn43 2.834706 1_655
Pd48 Y4 3.386487 1_555
Pd48 Y5 3.386487 1_555
Pd48 Y21 3.386487 1_655
Pd48 Y17 3.386487 1_655
Pd49 Sn27 2.670551 1_555
Pd49 Sn10 2.670551 1_555
Pd49 Sn35 2.738512 1_555
Pd49 Sn44 2.738512 1_555
Pd49 Y1 3.107609 1_555
Pd49 Y11 3.107609 1_555
Pd49 Pd61 3.259114 1_555
Pd49 Pd5 3.259114 1_555
Pd49 Pd56 3.259114 1_555
Pd49 Pd63 3.259114 1_555
Pd49 Y19 3.658949 1_555
Pd49 Y13 3.658949 1_555
Pd50 Sn1 2.723017 1_554
Pd50 Sn2 2.723017 1_555
Pd50 Sn30 2.723017 1_555
Pd50 Sn50 2.723017 1_554
Pd50 Sn24 2.723030 1_554
Pd50 Sn19 2.723030 1_555
Pd50 Y20 3.159427 1_555
Pd50 Y18 3.159444 1_555
Pd50 Y24 3.159444 1_555
Pd51 Sn57 2.820575 1_555
Pd51 Sn13 2.820575 1_555
Pd51 Sn25 2.872307 1_555
Pd51 Sn33 2.872307 1_555
Pd51 Pd54 3.065264 1_545
Pd51 Pd62 3.076194 1_555
Pd51 Y7 3.082467 1_555
Pd51 Sn7 3.144684 1_555
Pd51 Y13 3.236729 1_555
Pd51 Y8 3.236729 1_555
Pd52 Sn53 2.670551 1_555
Pd52 Sn58 2.670551 1_545
Pd52 Sn28 2.738512 1_555
Pd52 Sn8 2.738512 1_555
Pd52 Y23 3.107609 1_545
Pd52 Y0 3.107609 1_555
Pd52 Pd58 3.259114 1_545
Pd52 Pd65 3.259114 1_555
Pd52 Pd60 3.259114 1_555
Pd52 Y14 3.658949 1_555
Pd52 Y8 3.658949 1_555
Pd53 Sn14 2.747256 1_555
Pd53 Sn51 2.747256 1_555
Pd53 Sn46 2.805459 1_555
Pd53 Sn23 2.805459 1_555
Pd53 Sn16 2.834706 1_565
Pd53 Sn21 2.834706 1_555
Pd53 Y5 3.386487 1_565
Pd53 Y4 3.386487 1_565
Pd53 Y12 3.386487 1_555
Pd53 Y22 3.386487 1_555
Pd54 Sn57 2.820575 1_565
Pd54 Sn32 2.820575 1_455
Pd54 Sn25 2.872307 1_565
Pd54 Sn31 2.872307 1_455
Pd54 Y7 3.082467 1_565
Pd54 Sn6 3.144683 1_555
Pd54 Y16 3.236729 1_555
Pd54 Y8 3.236729 1_565
Pd55 Sn60 2.761827 1_555
Pd55 Sn45 2.761827 1_555
Pd55 Sn1 2.800870 1_554
Pd55 Sn2 2.800870 1_555
Pd55 Sn8 2.899500 1_555
Pd55 Sn28 2.899500 1_554
Pd55 Pd65 2.991465 1_554
Pd55 Pd60 2.991465 1_555
Pd56 Sn55 2.786149 1_555
Pd56 Sn10 2.802803 1_555
Pd56 Sn44 2.848408 1_555
Pd56 Sn3 2.873015 1_555
Pd56 Sn42 2.885160 1_555
Pd56 Pd69 3.157066 1_555
Pd56 Y13 3.176360 1_555
Pd56 Y6 3.233522 1_555
Pd56 Y1 3.480600 1_555
Pd57 Sn61 2.659093 1_455
Pd57 Sn47 2.722034 1_554
Pd57 Sn42 2.722034 1_555
Pd57 Sn9 2.780883 1_555
Pd57 Pd74 2.975727 1_455
Pd57 Pd69 3.046680 1_555
Pd57 Y21 3.100005 1_554
Pd57 Y17 3.100005 1_555
Pd57 Pd73 3.157066 1_554
Pd57 Pd72 3.157066 1_555
Pd57 Y6 3.272717 1_555
Pd58 Sn45 2.786149 1_566
Pd58 Sn58 2.802803 1_555
Pd58 Sn28 2.848408 1_565
Pd58 Sn48 2.873015 1_555
Pd58 Sn54 2.885160 1_555
Pd58 Y14 3.176360 1_565
Pd58 Y10 3.233522 1_556
Pd58 Y23 3.480600 1_555
Pd59 Sn60 2.659093 1_555
Pd59 Sn36 2.722034 1_554
Pd59 Sn22 2.722034 1_555
Pd59 Sn20 2.780883 1_555
Pd59 Pd64 2.975727 1_545
Pd59 Pd74 3.046680 1_555
Pd59 Y5 3.100005 1_555
Pd59 Y4 3.100005 1_554
Pd59 Y20 3.272717 1_555
Pd60 Sn45 2.786149 1_555
Pd60 Sn53 2.802803 1_555
Pd60 Sn8 2.848408 1_555
Pd60 Sn2 2.873015 1_555
Pd60 Sn7 2.885159 1_555
Pd60 Y8 3.176360 1_555
Pd60 Y24 3.233522 1_555
Pd60 Y0 3.480600 1_555
Pd61 Sn55 2.786149 1_556
Pd61 Sn27 2.802803 1_555
Pd61 Sn35 2.848408 1_555
Pd61 Sn24 2.873015 1_555
Pd61 Sn29 2.885160 1_555
Pd61 Pd8 2.991465 1_556
Pd61 Y19 3.176360 1_555
Pd61 Y24 3.233522 1_556
Pd61 Y11 3.480600 1_555
Pd62 Sn27 2.747256 1_555
Pd62 Sn53 2.747256 1_555
Pd62 Sn7 2.805459 1_555
Pd62 Sn29 2.805459 1_555
Pd62 Sn25 2.834706 1_555
Pd62 Sn33 2.834706 1_555
Pd62 Y14 3.386487 1_555
Pd62 Y8 3.386487 1_555
Pd62 Y19 3.386487 1_555
Pd62 Y13 3.386487 1_555
Pd63 Sn55 2.786149 1_556
Pd63 Sn10 2.802803 1_555
Pd63 Sn35 2.848408 1_555
Pd63 Sn34 2.873015 1_555
Pd63 Sn47 2.885160 1_555
Pd63 Pd69 3.157066 1_556
Pd63 Y19 3.176360 1_555
Pd63 Y6 3.233522 1_556
Pd63 Y1 3.480600 1_555
Pd64 Sn60 2.659093 1_565
Pd64 Sn23 2.722034 1_554
Pd64 Sn46 2.722034 1_555
Pd64 Sn20 2.780883 1_565
Pd64 Y5 3.100005 1_565
Pd64 Y4 3.100005 1_564
Pd64 Pd75 3.157066 1_554
Pd64 Pd70 3.157066 1_555
Pd64 Y3 3.272717 1_555
Pd65 Sn45 2.786149 1_556
Pd65 Sn53 2.802803 1_555
Pd65 Sn28 2.848408 1_555
Pd65 Sn1 2.873015 1_555
Pd65 Sn29 2.885159 1_555
Pd65 Y14 3.176360 1_555
Pd65 Y24 3.233522 1_556
Pd65 Y0 3.480600 1_555
Pd66 Sn41 2.786149 1_656
Pd66 Sn56 2.802803 1_555
Pd66 Sn5 2.848408 1_655
Pd66 Sn50 2.873015 1_555
Pd66 Sn0 2.885159 1_555
Pd66 Pd79 2.991465 1_556
Pd66 Y15 3.176360 1_655
Pd66 Y18 3.233522 1_556
Pd66 Pd77 3.259114 1_655
Pd66 Y2 3.480600 1_555
Pd67 Sn50 2.798014 1_555
Pd67 Sn1 2.798014 1_555
Pd67 Sn12 2.887569 1_555
Pd67 Sn39 2.887569 1_555
Pd67 Sn26 2.927666 1_555
Pd67 Sn36 3.106127 1_555
Pd67 Y2 3.231325 1_555
Pd67 Y0 3.231325 1_555
Pd67 Y20 3.317227 1_556
Pd68 Sn41 2.786149 1_555
Pd68 Sn37 2.802803 1_555
Pd68 Sn17 2.848408 1_555
Pd68 Sn15 2.873015 1_555
Pd68 Sn6 2.885160 1_555
Pd68 Pd9 2.956431 1_555
Pd68 Pd7 2.991465 1_555
Pd68 Y16 3.176360 1_555
Pd68 Y10 3.233522 1_555
Pd68 Pd77 3.259114 1_555
Pd68 Y9 3.480600 1_555
Pd69 Sn55 2.659093 1_555
Pd69 Sn42 2.722034 1_555
Pd69 Sn47 2.722034 1_554
Pd69 Sn13 2.780883 1_555
Pd69 Y19 3.100005 1_554
Pd69 Y13 3.100005 1_555
Pd69 Y6 3.272717 1_555
Pd70 Sn60 2.786149 1_565
Pd70 Sn51 2.802803 1_555
Pd70 Sn8 2.848408 1_565
Pd70 Sn40 2.873015 1_555
Pd70 Sn46 2.885159 1_555
Pd70 Pd78 2.956431 1_555
Pd70 Y5 3.176360 1_565
Pd70 Y3 3.233522 1_555
Pd70 Y23 3.480600 1_555
Pd71 Sn57 2.820575 1_566
Pd71 Sn32 2.820575 1_456
Pd71 Sn25 2.872307 1_565
Pd71 Sn31 2.872307 1_455
Pd71 Y25 3.082467 1_565
Pd71 Sn54 3.144683 1_555
Pd71 Y15 3.236729 1_555
Pd71 Y14 3.236729 1_565
Pd72 Sn61 2.786149 1_455
Pd72 Sn4 2.802803 1_555
Pd72 Sn17 2.848408 1_555
Pd72 Sn15 2.873015 1_555
Pd72 Sn42 2.885159 1_555
Pd72 Y17 3.176360 1_555
Pd72 Y6 3.233522 1_555
Pd72 Y9 3.480600 1_555
Pd73 Sn61 2.786149 1_456
Pd73 Sn4 2.802803 1_555
Pd73 Sn5 2.848408 1_555
Pd73 Sn49 2.873015 1_555
Pd73 Sn47 2.885159 1_555
Pd73 Y21 3.176360 1_555
Pd73 Y6 3.233522 1_556
Pd73 Y9 3.480600 1_555
Pd74 Sn61 2.659093 1_555
Pd74 Sn36 2.722034 1_554
Pd74 Sn22 2.722034 1_555
Pd74 Sn9 2.780883 1_655
Pd74 Y17 3.100005 1_655
Pd74 Y21 3.100005 1_654
Pd74 Y20 3.272717 1_555
Pd75 Sn60 2.786149 1_566
Pd75 Sn51 2.802803 1_555
Pd75 Sn28 2.848408 1_565
Pd75 Sn48 2.873015 1_555
Pd75 Sn23 2.885159 1_555
Pd75 Y4 3.176360 1_565
Pd75 Y3 3.233522 1_556
Pd75 Y23 3.480600 1_555
Pd76 Sn41 2.786149 1_655
Pd76 Sn56 2.802803 1_555
Pd76 Sn17 2.848408 1_655
Pd76 Sn30 2.873015 1_555
Pd76 Sn11 2.885159 1_555
Pd76 Pd79 2.991465 1_555
Pd76 Y16 3.176360 1_655
Pd76 Y18 3.233522 1_555
Pd76 Pd77 3.259114 1_655
Pd76 Y2 3.480600 1_555
Pd77 Sn37 2.670551 1_555
Pd77 Sn56 2.670551 1_455
Pd77 Sn5 2.738512 1_555
Pd77 Sn17 2.738512 1_555
Pd77 Y2 3.107609 1_455
Pd77 Y9 3.107609 1_555
Pd77 Y15 3.658949 1_555
Pd77 Y16 3.658949 1_555
Pd78 Sn3 2.798014 1_555
Pd78 Sn40 2.798014 1_555
Pd78 Sn51 2.887569 1_555
Pd78 Sn14 2.887569 1_555
Pd78 Sn18 2.927681 1_555
Pd78 Sn46 3.106127 1_555
Pd78 Y1 3.231325 1_555
Pd78 Y23 3.231325 1_555
Pd78 Y3 3.317227 1_555
Pd79 Sn41 2.761827 1_655
Pd79 Sn61 2.761827 1_555
Pd79 Sn30 2.800870 1_555
Pd79 Sn50 2.800870 1_554
Pd79 Sn17 2.899500 1_655
Pd79 Sn5 2.899500 1_654
