# generated using pymatgen
data_Sr(H8O5)2
_symmetry_space_group_name_H-M   'P 1'
_cell_length_a   6.35460700
_cell_length_b   6.47435060
_cell_length_c   11.31805521
_cell_angle_alpha   90.43440060
_cell_angle_beta   90.95531181
_cell_angle_gamma   91.75691445
_symmetry_Int_Tables_number   1
_chemical_formula_structural   Sr(H8O5)2
_chemical_formula_sum   'Sr2 H32 O20'
_cell_volume   465.34805062
_cell_formula_units_Z   2
loop_
 _symmetry_equiv_pos_site_id
 _symmetry_equiv_pos_as_xyz
  1  'x, y, z'
loop_
 _atom_site_type_symbol
 _atom_site_label
 _atom_site_symmetry_multiplicity
 _atom_site_fract_x
 _atom_site_fract_y
 _atom_site_fract_z
 _atom_site_occupancy
  Sr  Sr0  1  0.00419500  0.99211700  0.73895200  1
  Sr  Sr1  1  0.01497700  0.99497600  0.26046400  1
  H  H0  1  0.96902800  0.44270800  0.62581400  1
  H  H1  1  0.72839900  0.38098000  0.64170200  1
  H  H2  1  0.27849500  0.59861600  0.64691600  1
  H  H3  1  0.14831700  0.67524300  0.53409400  1
  H  H4  1  0.40042600  0.26689300  0.64708100  1
  H  H5  1  0.45371400  0.02648800  0.62739100  1
  H  H6  1  0.60413800  0.71170000  0.64605800  1
  H  H7  1  0.67742600  0.85399200  0.53678400  1
  H  H8  1  0.29117900  0.39069800  0.14976400  1
  H  H9  1  0.03113900  0.36149600  0.13054100  1
  H  H10  1  0.95870300  0.59543500  0.13917400  1
  H  H11  1  0.70114900  0.60499200  0.15125300  1
  H  H12  1  0.57788000  0.05708500  0.13755500  1
  H  H13  1  0.72335200  0.15291100  0.04065400  1
  H  H14  1  0.38931900  0.73151100  0.15857200  1
  H  H15  1  0.30547000  0.85918400  0.04733300  1
  H  H16  1  0.04040200  0.54709500  0.37213900  1
  H  H17  1  0.28466600  0.61023000  0.35637900  1
  H  H18  1  0.72905600  0.39552000  0.34663500  1
  H  H19  1  0.85970600  0.32175100  0.46005300  1
  H  H20  1  0.61291900  0.73318600  0.35704000  1
  H  H21  1  0.56352200  0.97293800  0.37588800  1
  H  H22  1  0.40497800  0.28465100  0.35459400  1
  H  H23  1  0.33432500  0.14935500  0.46740700  1
  H  H24  1  0.71869900  0.63036200  0.85366100  1
  H  H25  1  0.84770200  0.71953800  0.96614900  1
  H  H26  1  0.30858800  0.36199500  0.84976200  1
  H  H27  1  0.16953900  0.27830600  0.95712900  1
  H  H28  1  0.39687800  0.71790100  0.85408400  1
  H  H29  1  0.37180700  0.96905100  0.87373700  1
  H  H30  1  0.64689400  0.02986500  0.87570800  1
  H  H31  1  0.62923400  0.28146600  0.85181400  1
  O  O0  1  0.50488500  0.48858300  0.68101100  1
  O  O1  1  0.48076100  0.52667500  0.18718400  1
  O  O2  1  0.50096100  0.51468400  0.31853400  1
  O  O3  1  0.51307900  0.49373300  0.81308200  1
  O  O4  1  0.86696200  0.32273100  0.61539000  1
  O  O5  1  0.13997500  0.66079300  0.62181100  1
  O  O6  1  0.33644300  0.12587800  0.62163300  1
  O  O7  1  0.66210200  0.85579100  0.62484900  1
  O  O8  1  0.16413900  0.29316000  0.12063800  1
  O  O9  1  0.84067300  0.68541800  0.12840300  1
  O  O10  1  0.71731100  0.12601100  0.12651400  1
  O  O11  1  0.32503900  0.87192100  0.13385600  1
  O  O12  1  0.14152600  0.66871900  0.37839100  1
  O  O13  1  0.86837300  0.33582200  0.37214200  1
  O  O14  1  0.67891500  0.87223100  0.38426700  1
  O  O15  1  0.34777200  0.14319000  0.37962800  1
  O  O16  1  0.82964100  0.73742300  0.87980600  1
  O  O17  1  0.19527900  0.25605400  0.87210100  1
  O  O18  1  0.30370000  0.83247600  0.88174300  1
  O  O19  1  0.72127700  0.16451300  0.88068200  1
loop_
_geom_bond_atom_site_label_1
_geom_bond_atom_site_label_2
_geom_bond_distance
_geom_bond_site_symmetry_2
H0 O4 1.001564 1_555
H1 O4 1.016668 1_555
H1 O0 1.666641 1_555
H2 O5 1.016234 1_555
H2 O0 1.665695 1_555
H3 O5 1.000023 1_555
H4 O6 1.025256 1_555
H4 O0 1.604027 1_555
H5 O6 1.001040 1_555
H6 O7 1.024140 1_555
H6 O0 1.613105 1_555
H7 O7 1.003099 1_555
H8 O8 1.056352 1_555
H8 O1 1.522517 1_555
H9 O8 0.973624 1_555
H10 O9 0.970379 1_555
H11 O9 1.051424 1_555
H11 O1 1.537009 1_555
H12 O10 0.989998 1_555
H13 O10 0.989717 1_555
H14 O11 1.046095 1_555
H14 O1 1.499587 1_555
H15 O11 0.987585 1_555
H16 O12 1.002304 1_555
H17 O12 1.029602 1_555
H17 O2 1.588411 1_555
H18 O13 1.015206 1_555
H18 O2 1.689443 1_555
H19 O13 1.002105 1_555
H20 O14 1.024490 1_555
H20 O2 1.617390 1_555
H21 O14 0.999872 1_555
H22 O15 1.018919 1_555
H22 O2 1.648776 1_555
H23 O15 0.999175 1_555
H24 O16 1.012425 1_555
H24 O3 1.613590 1_555
H25 O16 0.990131 1_555
H26 O17 1.015504 1_555
H26 O3 1.594932 1_555
H27 O17 0.989051 1_555
H28 O18 1.014125 1_555
H28 O3 1.712871 1_555
H29 O18 0.977981 1_555
H30 O19 0.979620 1_555
H31 O19 1.023101 1_555
H31 O3 1.638967 1_555
O0 O3 1.494909 1_555
O1 O2 1.492836 1_555
O4 Sr0 2.723456 1_645
O5 Sr0 2.685561 1_555
O6 Sr0 2.639983 1_545
O7 Sr0 2.635137 1_655
O8 Sr1 2.667226 1_545
O9 Sr1 2.690895 1_655
O10 Sr1 2.572622 1_645
O11 Sr1 2.596797 1_555
O12 Sr1 2.645952 1_555
O13 Sr1 2.730997 1_645
O14 Sr1 2.677325 1_655
O15 Sr1 2.640634 1_545
O16 Sr0 2.545118 1_655
O17 Sr0 2.537364 1_545
O18 Sr0 2.710313 1_555
O19 Sr0 2.691323 1_645
