# generated using pymatgen
data_Li3Mn2O4
_symmetry_space_group_name_H-M   'P 1'
_cell_length_a   5.94798411
_cell_length_b   5.94798411
_cell_length_c   6.37386655
_cell_angle_alpha   62.39798442
_cell_angle_beta   62.39798442
_cell_angle_gamma   90.26085047
_symmetry_Int_Tables_number   1
_chemical_formula_structural   Li3Mn2O4
_chemical_formula_sum   'Li6 Mn4 O8'
_cell_volume   170.05002274
_cell_formula_units_Z   2
loop_
 _symmetry_equiv_pos_site_id
 _symmetry_equiv_pos_as_xyz
  1  'x, y, z'
loop_
 _atom_site_type_symbol
 _atom_site_label
 _atom_site_symmetry_multiplicity
 _atom_site_fract_x
 _atom_site_fract_y
 _atom_site_fract_z
 _atom_site_occupancy
  Li  Li0  1  0.86603400  0.13396600  0.25000000  1
  Li  Li1  1  0.00000000  0.00000000  0.00000000  1
  Li  Li2  1  0.00000000  0.00000000  0.50000000  1
  Li  Li3  1  0.50000000  0.00000000  0.50000000  1
  Li  Li4  1  0.13396600  0.86603400  0.75000000  1
  Li  Li5  1  0.00000000  0.50000000  0.00000000  1
  Mn  Mn0  1  0.50000000  0.00000000  0.00000000  1
  Mn  Mn1  1  0.50000000  0.50000000  0.00000000  1
  Mn  Mn2  1  0.50000000  0.50000000  0.50000000  1
  Mn  Mn3  1  0.00000000  0.50000000  0.50000000  1
  O  O0  1  0.26736800  0.73957000  0.50339400  1
  O  O1  1  0.74664100  0.75868200  0.47068800  1
  O  O2  1  0.24131800  0.25335900  0.02931200  1
  O  O3  1  0.73957000  0.26736800  0.00339400  1
  O  O4  1  0.75868200  0.74664100  0.97068800  1
  O  O5  1  0.26043000  0.73263200  0.99660600  1
  O  O6  1  0.73263200  0.26043000  0.49660600  1
  O  O7  1  0.25335900  0.24131800  0.52931200  1
loop_
_geom_bond_atom_site_label_1
_geom_bond_atom_site_label_2
_geom_bond_distance
_geom_bond_site_symmetry_2
Li0 Li5 1.872683 1_655
Li0 Li3 1.872683 1_555
Li0 O6 1.900369 1_555
Li0 O3 1.900369 1_555
Li0 O2 1.901556 1_655
Li0 O1 1.901556 1_545
Li1 O4 2.203595 1_444
Li1 O2 2.203595 1_555
Li1 O3 2.225373 1_455
Li1 O5 2.225373 1_544
Li1 O7 2.265456 1_554
Li1 O1 2.265456 1_445
Li2 O7 2.203595 1_555
Li2 O1 2.203595 1_445
Li2 O0 2.225373 1_545
Li2 O6 2.225373 1_455
Li2 O4 2.265456 1_445
Li2 O2 2.265456 1_555
Li3 Li4 1.872683 1_545
Li3 O6 2.058220 1_555
Li3 O0 2.058220 1_545
Li3 O7 2.064214 1_555
Li3 O1 2.064214 1_545
Li3 O3 2.390372 1_555
Li3 O5 2.390372 1_545
Li4 Li5 1.872683 1_556
Li4 O5 1.900369 1_555
Li4 O0 1.900369 1_555
Li4 O7 1.901556 1_565
Li4 O4 1.901556 1_455
Li5 O5 2.058220 1_554
Li5 O3 2.058220 1_455
Li5 O2 2.064214 1_555
Li5 O4 2.064214 1_454
Li5 O6 2.390372 1_455
Li5 O0 2.390372 1_554
Mn0 O3 2.144724 1_555
Mn0 O5 2.144724 1_544
Mn0 O2 2.165390 1_555
Mn0 O4 2.165390 1_544
Mn0 O6 2.422770 1_554
Mn0 O0 2.422770 1_545
Mn1 O3 1.991069 1_555
Mn1 O5 1.991069 1_554
Mn1 O4 2.003380 1_554
Mn1 O2 2.003380 1_555
Mn1 O7 2.546499 1_555
Mn1 O1 2.546499 1_554
Mn2 O0 1.991069 1_555
Mn2 O6 1.991069 1_555
Mn2 O7 2.003380 1_555
Mn2 O1 2.003380 1_555
Mn2 O4 2.546499 1_554
Mn2 O2 2.546499 1_556
Mn3 O0 2.144724 1_555
Mn3 O6 2.144724 1_455
Mn3 O7 2.165390 1_555
Mn3 O1 2.165390 1_455
Mn3 O3 2.422770 1_456
Mn3 O5 2.422770 1_554
