# generated using pymatgen
data_Sm2(InCo3)3
_symmetry_space_group_name_H-M   'P 1'
_cell_length_a   4.03315923
_cell_length_b   4.89987007
_cell_length_c   11.37062710
_cell_angle_alpha   102.50406517
_cell_angle_beta   89.96528685
_cell_angle_gamma   89.92644057
_symmetry_Int_Tables_number   1
_chemical_formula_structural   Sm2(InCo3)3
_chemical_formula_sum   'Sm2 In3 Co9'
_cell_volume   219.37568687
_cell_formula_units_Z   1
loop_
 _symmetry_equiv_pos_site_id
 _symmetry_equiv_pos_as_xyz
  1  'x, y, z'
loop_
 _atom_site_type_symbol
 _atom_site_label
 _atom_site_symmetry_multiplicity
 _atom_site_fract_x
 _atom_site_fract_y
 _atom_site_fract_z
 _atom_site_occupancy
  Sm  Sm0  1  0.99398800  0.32407400  0.63639900  1
  Sm  Sm1  1  0.99799600  0.68651100  0.36257900  1
  In  In0  1  0.49559900  0.20693100  0.40310200  1
  In  In1  1  0.49788800  0.80660400  0.59731300  1
  In  In2  1  0.99958600  0.99797700  0.99782800  1
  Co  Co0  1  0.99791100  0.11835600  0.23612100  1
  Co  Co1  1  0.49787100  0.84348300  0.18323000  1
  Co  Co2  1  0.00022100  0.88312200  0.76183100  1
  Co  Co3  1  0.49891700  0.66447400  0.81643700  1
  Co  Co4  1  0.99644200  0.43861700  0.87618500  1
  Co  Co5  1  0.49642800  0.49733300  0.00052800  1
  Co  Co6  1  0.00136800  0.55857300  0.12206400  1
  Co  Co7  1  0.50269000  0.33728600  0.18427400  1
  Co  Co8  1  0.50117100  0.15266900  0.81681100  1
loop_
_geom_bond_atom_site_label_1
_geom_bond_atom_site_label_2
_geom_bond_distance
_geom_bond_site_symmetry_2
In0 Sm1 3.196843 1_455
In0 Sm1 3.201240 1_445
In0 Sm1 3.208934 1_545
In0 Sm1 3.212456 1_555
In0 In1 3.255770 1_545
In0 In1 3.271204 1_555
In0 Sm0 3.279784 1_555
In0 Sm0 3.284887 1_455
In1 Sm0 3.186850 1_565
In1 Sm0 3.199209 1_555
In1 Sm0 3.202258 1_465
In1 Sm0 3.222441 1_455
In1 Sm1 3.293766 1_555
In1 Sm1 3.296137 1_455
Co0 Co7 2.399436 1_555
Co0 Co1 2.425372 1_645
Co0 Co1 2.429118 1_545
Co0 Co7 2.433309 1_655
Co0 In2 2.645277 1_544
Co0 In0 2.733578 1_655
Co0 In0 2.744793 1_555
Co0 Co6 2.747036 1_655
Co0 Co6 2.768571 1_645
Co0 Sm1 2.804008 1_545
Co0 Sm1 2.843280 1_555
Co1 Co5 2.380502 1_555
Co1 Co7 2.417131 1_565
Co1 Co6 2.455797 1_555
Co1 Co6 2.475247 1_655
Co1 Co7 2.482948 1_555
Co1 In0 2.737505 1_565
Co1 Sm1 3.081092 1_455
Co1 Sm1 3.082076 1_555
Co1 In2 3.122227 1_454
Co1 In2 3.130755 1_554
Co2 Co8 2.412564 1_465
Co2 Co3 2.421310 1_555
Co2 Co8 2.422416 1_565
Co2 Co3 2.431712 1_455
Co2 In2 2.619847 1_455
Co2 In1 2.712662 1_555
Co2 In1 2.729003 1_455
Co2 Co4 2.750779 1_465
Co2 Co4 2.767867 1_455
Co2 Sm0 2.801221 1_455
Co2 Sm0 2.835011 1_465
Co3 Co8 2.391204 1_565
Co3 Co5 2.407226 1_556
Co3 Co4 2.456463 1_555
Co3 Co4 2.474443 1_455
Co3 Co8 2.508707 1_555
Co3 In1 2.728432 1_555
Co3 Sm0 3.076935 1_555
Co3 In2 3.083369 1_455
Co3 In2 3.091267 1_555
Co3 Sm0 3.107275 1_455
Co4 Co5 2.442848 1_556
Co4 Co5 2.444778 1_656
Co4 Co8 2.451152 1_555
Co4 Co8 2.478746 1_655
Co4 Sm0 2.662032 1_555
Co4 In2 2.789944 1_555
Co4 In2 2.804995 1_545
Co5 Co8 2.385058 1_554
Co5 Co7 2.385439 1_555
Co5 Co6 2.408732 1_555
Co5 Co6 2.443883 1_655
Co5 In2 3.159620 1_444
Co5 In2 3.170812 1_454
Co5 In2 3.171820 1_544
Co5 In2 3.190931 1_554
Co6 Co7 2.461125 1_455
Co6 Co7 2.468273 1_555
Co6 Sm1 2.670187 1_455
Co6 In2 2.803676 1_444
Co6 In2 2.819235 1_454
Co7 In0 2.699653 1_555
Co7 Sm1 3.088786 1_555
Co7 Sm1 3.108967 1_455
Co7 In2 3.120078 1_544
Co7 In2 3.140613 1_444
Co8 In1 2.696696 1_545
Co8 In2 3.086832 1_545
Co8 In2 3.094816 1_445
Co8 Sm0 3.099932 1_555
Co8 Sm0 3.137609 1_455
