# generated using pymatgen
data_Gd2CdPd2
_symmetry_space_group_name_H-M   'P 1'
_cell_length_a   3.76241566
_cell_length_b   7.72780091
_cell_length_c   7.72780091
_cell_angle_alpha   90.00141286
_cell_angle_beta   90.00000000
_cell_angle_gamma   90.00000000
_symmetry_Int_Tables_number   1
_chemical_formula_structural   Gd2CdPd2
_chemical_formula_sum   'Gd4 Cd2 Pd4'
_cell_volume   224.68735050
_cell_formula_units_Z   2
loop_
 _symmetry_equiv_pos_site_id
 _symmetry_equiv_pos_as_xyz
  1  'x, y, z'
loop_
 _atom_site_type_symbol
 _atom_site_label
 _atom_site_symmetry_multiplicity
 _atom_site_fract_x
 _atom_site_fract_y
 _atom_site_fract_z
 _atom_site_occupancy
  Gd  Gd0  1  0.50000000  0.82724102  0.32724102  1
  Gd  Gd1  1  0.50000000  0.32719983  0.17280017  1
  Gd  Gd2  1  0.50000000  0.67280017  0.82719983  1
  Gd  Gd3  1  0.50000000  0.17275898  0.67275898  1
  Cd  Cd0  1  0.00000000  -0.00000000  -0.00000000  1
  Cd  Cd1  1  0.00000000  0.50000000  0.50000000  1
  Pd  Pd0  1  -0.00000000  0.62856414  0.12856414  1
  Pd  Pd1  1  -0.00000000  0.37143586  0.87143586  1
  Pd  Pd2  1  0.00000000  0.12839206  0.37160794  1
  Pd  Pd3  1  0.00000000  0.87160794  0.62839206  1
loop_
_geom_bond_atom_site_label_1
_geom_bond_atom_site_label_2
_geom_bond_distance
_geom_bond_site_symmetry_2
Gd0 Pd0 2.872862 1_555
Gd0 Pd0 2.872862 1_655
Gd0 Pd2 3.012056 1_565
Gd0 Pd2 3.012056 1_665
Gd0 Pd3 3.012056 1_555
Gd0 Pd3 3.012056 1_655
Gd1 Pd2 2.873984 1_555
Gd1 Pd2 2.873984 1_655
Gd1 Pd1 3.013227 1_554
Gd1 Pd1 3.013227 1_654
Gd1 Pd0 3.013227 1_555
Gd1 Pd0 3.013227 1_655
Gd2 Pd3 2.873984 1_655
Gd2 Pd3 2.873984 1_555
Gd2 Pd0 3.013227 1_656
Gd2 Pd0 3.013227 1_556
Gd2 Pd1 3.013227 1_555
Gd2 Pd1 3.013227 1_655
Gd3 Pd1 2.872862 1_555
Gd3 Pd1 2.872862 1_655
Gd3 Pd2 3.012056 1_655
Gd3 Pd3 3.012056 1_545
Gd3 Pd3 3.012056 1_645
Gd3 Pd2 3.012056 1_555
Cd0 Pd0 3.037485 1_545
Cd0 Pd1 3.037485 1_554
Cd0 Pd3 3.038261 1_544
Cd0 Pd2 3.038261 1_555
Cd0 Gd1 3.422786 1_455
Cd0 Gd1 3.422786 1_555
Cd0 Gd2 3.422786 1_444
Cd0 Gd2 3.422786 1_544
Cd0 Gd3 3.422946 1_554
Cd0 Gd0 3.422946 1_545
Cd0 Gd0 3.422946 1_445
Cd0 Gd3 3.422946 1_454
Cd1 Pd0 3.037485 1_555
Cd1 Pd1 3.037485 1_555
Cd1 Pd2 3.038261 1_555
Cd1 Pd3 3.038261 1_555
Cd1 Gd1 3.422786 1_455
Cd1 Gd1 3.422786 1_555
Cd1 Gd2 3.422786 1_455
Cd1 Gd2 3.422786 1_555
Cd1 Gd0 3.422946 1_555
Cd1 Gd3 3.422946 1_455
Cd1 Gd3 3.422946 1_555
Cd1 Gd0 3.422946 1_455
Pd0 Pd1 2.810059 1_554
Pd2 Pd3 2.806367 1_545
