# generated using pymatgen
data_Ba2Ca2Zn5Fe3O14
_symmetry_space_group_name_H-M   'P 1'
_cell_length_a   7.40678900
_cell_length_b   8.73233600
_cell_length_c   12.75193366
_cell_angle_alpha   88.27041752
_cell_angle_beta   90.00000000
_cell_angle_gamma   90.00000000
_symmetry_Int_Tables_number   1
_chemical_formula_structural   Ba2Ca2Zn5Fe3O14
_chemical_formula_sum   'Ba4 Ca4 Zn10 Fe6 O28'
_cell_volume   824.40107628
_cell_formula_units_Z   2
loop_
 _symmetry_equiv_pos_site_id
 _symmetry_equiv_pos_as_xyz
  1  'x, y, z'
loop_
 _atom_site_type_symbol
 _atom_site_label
 _atom_site_symmetry_multiplicity
 _atom_site_fract_x
 _atom_site_fract_y
 _atom_site_fract_z
 _atom_site_occupancy
  Ba  Ba0  1  0.86639400  0.42807700  0.74748100  1
  Ba  Ba1  1  0.49927200  0.11893900  0.67860800  1
  Ba  Ba2  1  0.99927200  0.88106100  0.32139200  1
  Ba  Ba3  1  0.36639400  0.57192300  0.25251900  1
  Ca  Ca0  1  0.38453600  0.49610700  0.94079400  1
  Ca  Ca1  1  0.52178700  0.06932700  0.28765400  1
  Ca  Ca2  1  0.02178700  0.93067300  0.71234600  1
  Ca  Ca3  1  0.88453600  0.50389300  0.05920600  1
  Zn  Zn0  1  0.31642000  0.51918000  0.70497000  1
  Zn  Zn1  1  0.14854500  0.19780200  0.90298300  1
  Zn  Zn2  1  0.90668900  0.13540500  0.53984900  1
  Zn  Zn3  1  0.28095200  0.24877500  0.41500700  1
  Zn  Zn4  1  0.63136000  0.11757500  0.96841200  1
  Zn  Zn5  1  0.40668900  0.86459500  0.46015100  1
  Zn  Zn6  1  0.78095200  0.75122500  0.58499300  1
  Zn  Zn7  1  0.64854500  0.80219800  0.09701700  1
  Zn  Zn8  1  0.81642000  0.48082000  0.29503000  1
  Zn  Zn9  1  0.13136000  0.88242500  0.03158800  1
  Fe  Fe0  1  0.76058300  0.75087100  0.87990700  1
  Fe  Fe1  1  0.55686300  0.50077200  0.51261700  1
  Fe  Fe2  1  0.05686300  0.49922800  0.48738300  1
  Fe  Fe3  1  0.88202700  0.15094800  0.11476500  1
  Fe  Fe4  1  0.38202700  0.84905200  0.88523500  1
  Fe  Fe5  1  0.26058300  0.24912900  0.12009300  1
  O  O0  1  0.91253200  0.77278900  0.00160000  1
  O  O1  1  0.41253200  0.22721100  0.99840000  1
  O  O2  1  0.18393500  0.98679600  0.86225700  1
  O  O3  1  0.83850900  0.74289100  0.74087500  1
  O  O4  1  0.11192800  0.57554700  0.61736700  1
  O  O5  1  0.81054600  0.52943300  0.54059700  1
  O  O6  1  0.31054600  0.47056700  0.45940300  1
  O  O7  1  0.68903000  0.55189100  0.91919300  1
  O  O8  1  0.83903200  0.13760800  0.68347100  1
  O  O9  1  0.51986400  0.40643100  0.64708800  1
  O  O10  1  0.02605600  0.27910100  0.45492600  1
  O  O11  1  0.87934200  0.21970600  0.96918500  1
  O  O12  1  0.85730700  0.31353900  0.19823500  1
  O  O13  1  0.20996800  0.36851700  0.81490800  1
  O  O14  1  0.11528700  0.05421100  0.12737600  1
  O  O15  1  0.93523700  0.91389500  0.52304700  1
  O  O16  1  0.43523700  0.08610500  0.47695300  1
  O  O17  1  0.61528700  0.94578900  0.87262400  1
  O  O18  1  0.70996800  0.63148300  0.18509200  1
  O  O19  1  0.35730700  0.68646100  0.80176500  1
  O  O20  1  0.37934200  0.78029400  0.03081500  1
  O  O21  1  0.52605600  0.72089900  0.54507400  1
  O  O22  1  0.01986400  0.59356900  0.35291200  1
  O  O23  1  0.33903200  0.86239200  0.31652900  1
  O  O24  1  0.18903000  0.44810900  0.08080700  1
  O  O25  1  0.61192800  0.42445300  0.38263300  1
  O  O26  1  0.33850900  0.25710900  0.25912500  1
  O  O27  1  0.68393500  0.01320400  0.13774300  1
loop_
_geom_bond_atom_site_label_1
_geom_bond_atom_site_label_2
_geom_bond_distance
_geom_bond_site_symmetry_2
Ba0 O8 2.695554 1_555
Ba0 O13 2.731064 1_655
Ba0 O4 2.754937 1_655
Ba0 O3 2.755561 1_555
Ba0 O5 2.788093 1_555
Ba0 O7 2.798622 1_555
Ba0 O9 2.876991 1_555
Ba0 O11 3.316970 1_555
Ba1 O8 2.522689 1_555
Ba1 O9 2.535035 1_555
Ba1 O16 2.638984 1_555
Ba1 O17 2.986604 1_545
Ba2 O23 2.522689 1_655
Ba2 O22 2.535035 1_655
Ba2 O15 2.638984 1_555
Ba2 O14 2.986604 1_665
Ba3 O23 2.695554 1_555
Ba3 O18 2.731064 1_555
Ba3 O25 2.754937 1_555
Ba3 O26 2.755561 1_555
Ba3 O6 2.788093 1_555
Ba3 O24 2.798622 1_555
Ba3 O22 2.876991 1_555
Ba3 O20 3.316970 1_555
Ca0 O7 2.321970 1_555
Ca0 O24 2.327057 1_556
Ca0 O13 2.366028 1_555
Ca0 O19 2.401862 1_555
Ca0 O1 2.447861 1_555
Ca0 O20 2.765797 1_556
Ca1 O26 2.151282 1_555
Ca1 O23 2.278830 1_545
Ca1 O27 2.322403 1_555
Ca1 O16 2.506156 1_555
Ca2 O3 2.151282 1_455
Ca2 O8 2.278830 1_465
Ca2 O2 2.322403 1_555
Ca2 O15 2.506156 1_455
Ca3 O24 2.321970 1_655
Ca3 O7 2.327057 1_554
Ca3 O18 2.366028 1_555
Ca3 O12 2.401862 1_555
Ca3 O0 2.447861 1_555
Ca3 O11 2.765797 1_554
Fe0 O3 1.867812 1_555
Fe0 O7 1.870406 1_555
Fe0 O0 1.931154 1_556
Fe0 O17 2.013541 1_555
Fe1 O25 1.850578 1_555
Fe1 O9 1.899716 1_555
Fe1 O5 1.930256 1_555
Fe1 O6 1.967066 1_555
Fe1 O21 1.991567 1_555
Fe2 O4 1.850578 1_555
Fe2 O22 1.899716 1_555
Fe2 O6 1.930256 1_555
Fe2 O5 1.967066 1_455
Fe2 O10 1.991567 1_555
Fe3 O12 1.809291 1_555
Fe3 O27 1.914191 1_555
Fe3 O14 1.927750 1_655
Fe3 O11 1.933890 1_554
Fe4 O19 1.809291 1_555
Fe4 O2 1.914191 1_555
Fe4 O17 1.927750 1_555
Fe4 O20 1.933890 1_556
Fe5 O26 1.867812 1_555
Fe5 O24 1.870406 1_555
Fe5 O1 1.931154 1_554
Fe5 O14 2.013541 1_555
O0 Zn9 1.926640 1_655
O0 Zn7 2.321310 1_555
O1 Zn4 1.926640 1_555
O1 Zn1 2.321310 1_555
O2 Zn1 1.947118 1_565
O2 Zn9 2.350759 1_556
O3 Zn6 2.032152 1_555
O4 Zn0 1.936780 1_555
O5 Zn6 2.045921 1_555
O6 Zn3 2.045921 1_555
O8 Zn2 1.899436 1_555
O9 Zn0 1.956701 1_555
O10 Zn2 1.856589 1_455
O10 Zn3 1.975294 1_555
O11 Zn4 2.041975 1_555
O11 Zn1 2.175952 1_655
O12 Zn8 1.964156 1_555
O13 Zn1 1.894632 1_555
O13 Zn0 2.051009 1_555
O14 Zn9 1.966489 1_545
O15 Zn2 1.963963 1_565
O15 Zn6 1.969756 1_555
O16 Zn5 1.963963 1_545
O16 Zn3 1.969756 1_555
O17 Zn4 1.966489 1_565
O18 Zn7 1.894632 1_555
O18 Zn8 2.051009 1_555
O19 Zn0 1.964156 1_555
O20 Zn9 2.041975 1_555
O20 Zn7 2.175952 1_555
O21 Zn5 1.856589 1_555
O21 Zn6 1.975294 1_555
O22 Zn8 1.956701 1_455
O23 Zn5 1.899436 1_555
O25 Zn8 1.936780 1_555
O26 Zn3 2.032152 1_555
O27 Zn7 1.947118 1_545
O27 Zn4 2.350759 1_554
