# generated using pymatgen
data_SiPd2
_symmetry_space_group_name_H-M   'P 1'
_cell_length_a   6.47789618
_cell_length_b   6.47789732
_cell_length_c   3.50528514
_cell_angle_alpha   90.00000000
_cell_angle_beta   90.00000000
_cell_angle_gamma   120.01063357
_symmetry_Int_Tables_number   1
_chemical_formula_structural   SiPd2
_chemical_formula_sum   'Si3 Pd6'
_cell_volume   127.37244385
_cell_formula_units_Z   3
loop_
 _symmetry_equiv_pos_site_id
 _symmetry_equiv_pos_as_xyz
  1  'x, y, z'
loop_
 _atom_site_type_symbol
 _atom_site_label
 _atom_site_symmetry_multiplicity
 _atom_site_fract_x
 _atom_site_fract_y
 _atom_site_fract_z
 _atom_site_occupancy
  Si  Si0  1  0.66672256  0.33340574  -0.00000000  1
  Si  Si1  1  0.33340574  0.66672256  -0.00000000  1
  Si  Si2  1  0.00012923  0.00012923  0.50000000  1
  Pd  Pd0  1  0.73542924  0.73542924  -0.00000000  1
  Pd  Pd1  1  0.26463774  0.00002089  -0.00000000  1
  Pd  Pd2  1  0.00002089  0.26463774  -0.00000000  1
  Pd  Pd3  1  0.39325002  0.39325002  0.50000000  1
  Pd  Pd4  1  0.60669845  0.99981112  0.50000000  1
  Pd  Pd5  1  0.99981112  0.60669845  0.50000000  1
loop_
_geom_bond_atom_site_label_1
_geom_bond_atom_site_label_2
_geom_bond_distance
_geom_bond_site_symmetry_2
Pd0 Si1 2.412640 1_555
Pd0 Si0 2.412640 1_555
Pd0 Si2 2.451735 1_665
Pd0 Si2 2.451735 1_664
Pd1 Si0 2.412750 1_555
Pd1 Si1 2.412914 1_545
Pd1 Si2 2.451306 1_554
Pd1 Si2 2.451306 1_555
Pd2 Si1 2.412750 1_555
Pd2 Si0 2.412914 1_455
Pd2 Si2 2.451306 1_554
Pd2 Si2 2.451306 1_555
Pd3 Si2 2.546187 1_555
Pd3 Si0 2.654680 1_555
Pd3 Si0 2.654680 1_556
Pd3 Si1 2.654680 1_556
Pd3 Si1 2.654680 1_555
Pd4 Si2 2.547574 1_665
Pd4 Si1 2.653395 1_555
Pd4 Si1 2.653395 1_556
Pd4 Si0 2.655617 1_566
Pd4 Si0 2.655617 1_565
Pd5 Si2 2.547574 1_665
Pd5 Si0 2.653395 1_556
Pd5 Si0 2.653395 1_555
Pd5 Si1 2.655617 1_655
Pd5 Si1 2.655617 1_656
