# generated using pymatgen
data_Cs2LiCo(CN)6
_symmetry_space_group_name_H-M   'P 1'
_cell_length_a   7.50106510
_cell_length_b   7.50106510
_cell_length_c   7.50106510
_cell_angle_alpha   60.00000000
_cell_angle_beta   60.00000000
_cell_angle_gamma   60.00000000
_symmetry_Int_Tables_number   1
_chemical_formula_structural   Cs2LiCo(CN)6
_chemical_formula_sum   'Cs2 Li1 Co1 C6 N6'
_cell_volume   298.43778392
_cell_formula_units_Z   1
loop_
 _symmetry_equiv_pos_site_id
 _symmetry_equiv_pos_as_xyz
  1  'x, y, z'
loop_
 _atom_site_type_symbol
 _atom_site_label
 _atom_site_symmetry_multiplicity
 _atom_site_fract_x
 _atom_site_fract_y
 _atom_site_fract_z
 _atom_site_occupancy
  Cs  Cs0  1  0.25000000  0.25000000  0.25000000  1
  Cs  Cs1  1  0.75000000  0.75000000  0.75000000  1
  Li  Li0  1  0.50000000  0.50000000  0.50000000  1
  Co  Co0  1  0.00000000  0.00000000  0.00000000  1
  C  C0  1  0.17681900  0.82318100  0.17681900  1
  C  C1  1  0.82318100  0.17681900  0.82318100  1
  C  C2  1  0.82318100  0.82318100  0.17681900  1
  C  C3  1  0.17681900  0.17681900  0.82318100  1
  C  C4  1  0.17681900  0.82318100  0.82318100  1
  C  C5  1  0.82318100  0.17681900  0.17681900  1
  N  N0  1  0.28760100  0.71239900  0.28760100  1
  N  N1  1  0.71239900  0.71239900  0.28760100  1
  N  N2  1  0.71239900  0.28760100  0.71239900  1
  N  N3  1  0.28760100  0.28760100  0.71239900  1
  N  N4  1  0.28760100  0.71239900  0.71239900  1
  N  N5  1  0.71239900  0.28760100  0.28760100  1
loop_
_geom_bond_atom_site_label_1
_geom_bond_atom_site_label_2
_geom_bond_distance
_geom_bond_site_symmetry_2
Cs0 N5 3.771683 1_555
Cs0 N1 3.771683 1_455
Cs0 N4 3.771683 1_545
Cs0 N3 3.771683 1_555
Cs0 N0 3.771683 1_545
Cs0 N1 3.771683 1_545
Cs0 N0 3.771683 1_555
Cs0 N3 3.771683 1_554
Cs0 N4 3.771683 1_554
Cs0 N2 3.771683 1_455
Cs0 N5 3.771683 1_455
Cs0 N2 3.771683 1_554
Cs1 N0 3.771683 1_556
Cs1 N1 3.771683 1_555
Cs1 N3 3.771683 1_655
Cs1 N4 3.771683 1_655
Cs1 N5 3.771683 1_565
Cs1 N2 3.771683 1_565
Cs1 N2 3.771683 1_555
Cs1 N0 3.771683 1_655
Cs1 N3 3.771683 1_565
Cs1 N5 3.771683 1_556
Cs1 N1 3.771683 1_556
Cs1 N4 3.771683 1_555
Li0 N5 2.253152 1_555
Li0 N2 2.253152 1_555
Li0 N3 2.253152 1_555
Li0 N0 2.253152 1_555
Li0 N4 2.253152 1_555
Li0 N1 2.253152 1_555
C0 N0 1.175187 1_555
C0 Co0 1.875715 1_565
C0 Cs0 3.830033 1_555
C0 Cs1 3.830033 1_455
C0 Cs1 3.830033 1_554
C0 Cs0 3.830033 1_565
C1 N2 1.175187 1_555
C1 Co0 1.875715 1_656
C1 Cs1 3.830033 1_545
C1 Cs0 3.830033 1_556
C1 Cs0 3.830033 1_655
C1 Cs1 3.830033 1_555
C2 N1 1.175187 1_555
C2 Co0 1.875715 1_665
C2 Cs1 3.830033 1_554
C2 Cs0 3.830033 1_565
C2 Cs0 3.830033 1_655
C2 Cs1 3.830033 1_555
C3 N3 1.175187 1_555
C3 Co0 1.875715 1_556
C3 Cs0 3.830033 1_555
C3 Cs1 3.830033 1_545
C3 Cs1 3.830033 1_455
C3 Cs0 3.830033 1_556
C4 N4 1.175187 1_555
C4 Co0 1.875715 1_566
C4 Cs1 3.830033 1_455
C4 Cs0 3.830033 1_556
C4 Cs0 3.830033 1_565
C4 Cs1 3.830033 1_555
C5 N5 1.175187 1_555
C5 Co0 1.875715 1_655
C5 Cs0 3.830033 1_555
C5 Cs1 3.830033 1_554
C5 Cs1 3.830033 1_545
C5 Cs0 3.830033 1_655
