# generated using pymatgen
data_GaFeO3
_symmetry_space_group_name_H-M   'P 1'
_cell_length_a   5.16703100
_cell_length_b   8.86343200
_cell_length_c   9.53587800
_cell_angle_alpha   90.00000000
_cell_angle_beta   90.00000000
_cell_angle_gamma   90.00000000
_symmetry_Int_Tables_number   1
_chemical_formula_structural   GaFeO3
_chemical_formula_sum   'Ga8 Fe8 O24'
_cell_volume   436.72059244
_cell_formula_units_Z   8
loop_
 _symmetry_equiv_pos_site_id
 _symmetry_equiv_pos_as_xyz
  1  'x, y, z'
loop_
 _atom_site_type_symbol
 _atom_site_label
 _atom_site_symmetry_multiplicity
 _atom_site_fract_x
 _atom_site_fract_y
 _atom_site_fract_z
 _atom_site_occupancy
  Ga  Ga0  1  0.82523700  0.84724000  0.50069900  1
  Ga  Ga1  1  0.18552000  0.83906100  0.80685800  1
  Ga  Ga2  1  0.32523700  0.65276000  0.50069900  1
  Ga  Ga3  1  0.31448000  0.33906100  0.30685800  1
  Ga  Ga4  1  0.81448000  0.16093900  0.30685800  1
  Ga  Ga5  1  0.67476300  0.34724000  0.00069900  1
  Ga  Ga6  1  0.17476300  0.15276000  0.00069900  1
  Ga  Ga7  1  0.68552000  0.66093900  0.80685800  1
  Fe  Fe0  1  0.32497200  0.96848600  0.29859800  1
  Fe  Fe1  1  0.19123800  0.15193100  0.58280900  1
  Fe  Fe2  1  0.69123800  0.34806900  0.58280900  1
  Fe  Fe3  1  0.80876200  0.84806900  0.08280900  1
  Fe  Fe4  1  0.82497200  0.53151400  0.29859800  1
  Fe  Fe5  1  0.17502800  0.46848600  0.79859800  1
  Fe  Fe6  1  0.67502800  0.03151400  0.79859800  1
  Fe  Fe7  1  0.30876200  0.65193100  0.08280900  1
  O  O0  1  0.51346200  0.16952500  0.94047900  1
  O  O1  1  0.15313800  0.16140800  0.19810500  1
  O  O2  1  0.52454000  0.82262000  0.92399500  1
  O  O3  1  0.48691300  0.51154200  0.93258300  1
  O  O4  1  0.51308700  0.48845800  0.43258300  1
  O  O5  1  0.65313800  0.33859200  0.19810500  1
  O  O6  1  0.15289800  0.83030300  0.17243400  1
  O  O7  1  0.84368100  0.50165800  0.70320000  1
  O  O8  1  0.34368100  0.99834200  0.70320000  1
  O  O9  1  0.15631900  0.49834200  0.20320000  1
  O  O10  1  0.34710200  0.33030300  0.67243400  1
  O  O11  1  0.34686200  0.66140800  0.69810500  1
  O  O12  1  0.65289800  0.66969700  0.17243400  1
  O  O13  1  0.98691300  0.98845800  0.93258300  1
  O  O14  1  0.84710200  0.16969700  0.67243400  1
  O  O15  1  0.48653800  0.83047500  0.44047900  1
  O  O16  1  0.47546000  0.17738000  0.42399500  1
  O  O17  1  0.84686200  0.83859200  0.69810500  1
  O  O18  1  0.65631900  0.00165800  0.20320000  1
  O  O19  1  0.97546000  0.32262000  0.42399500  1
  O  O20  1  0.01308700  0.01154200  0.43258300  1
  O  O21  1  0.98653800  0.66952500  0.44047900  1
  O  O22  1  0.01346200  0.33047500  0.94047900  1
  O  O23  1  0.02453900  0.67738000  0.92399500  1
loop_
_geom_bond_atom_site_label_1
_geom_bond_atom_site_label_2
_geom_bond_distance
_geom_bond_site_symmetry_2
Ga0 O15 1.847859 1_555
Ga0 O20 1.866756 1_665
Ga0 O21 1.872309 1_555
Ga0 O17 1.887310 1_555
Ga1 O8 1.907364 1_555
Ga1 O23 1.998301 1_555
Ga1 O17 2.034084 1_455
Ga1 O13 2.060070 1_455
Ga1 O11 2.061525 1_555
Ga1 O2 2.082662 1_555
Ga2 O21 1.847859 1_455
Ga2 O4 1.866756 1_555
Ga2 O15 1.872309 1_555
Ga2 O11 1.887310 1_555
Ga3 O9 1.907364 1_555
Ga3 O16 1.998299 1_555
Ga3 O5 2.034084 1_555
Ga3 O4 2.060070 1_555
Ga3 O1 2.061525 1_555
Ga3 O19 2.082662 1_455
Ga4 O18 1.907364 1_555
Ga4 O19 1.998299 1_555
Ga4 O1 2.034084 1_655
Ga4 O20 2.060070 1_655
Ga4 O5 2.061525 1_555
Ga4 O16 2.082662 1_555
Ga5 O22 1.847859 1_654
Ga5 O3 1.866756 1_554
Ga5 O0 1.872309 1_554
Ga5 O5 1.887310 1_555
Ga6 O0 1.847859 1_554
Ga6 O13 1.866756 1_444
Ga6 O22 1.872309 1_554
Ga6 O1 1.887310 1_555
Ga7 O7 1.907364 1_555
Ga7 O2 1.998299 1_555
Ga7 O11 2.034084 1_555
Ga7 O3 2.060070 1_555
Ga7 O17 2.061525 1_555
Ga7 O23 2.082658 1_655
Fe0 O6 1.933393 1_555
Fe0 O18 1.960925 1_565
Fe0 O15 2.005932 1_555
Fe0 O20 2.091664 1_565
Fe0 O1 2.151875 1_565
Fe0 O16 2.337223 1_565
Fe1 O8 1.947210 1_545
Fe1 O10 1.969404 1_555
Fe1 O14 1.979163 1_455
Fe1 O20 2.108994 1_555
Fe1 O16 2.121584 1_555
Fe1 O19 2.413589 1_455
Fe2 O7 1.947210 1_555
Fe2 O14 1.969404 1_555
Fe2 O10 1.979163 1_555
Fe2 O4 2.108994 1_555
Fe2 O19 2.121584 1_555
Fe2 O16 2.413589 1_555
Fe3 O18 1.947210 1_565
Fe3 O12 1.969404 1_555
Fe3 O6 1.979163 1_655
Fe3 O13 2.108994 1_554
Fe3 O2 2.121584 1_554
Fe3 O23 2.413586 1_654
Fe4 O12 1.933393 1_555
Fe4 O9 1.960925 1_655
Fe4 O21 2.005932 1_555
Fe4 O4 2.091664 1_555
Fe4 O5 2.151875 1_555
Fe4 O19 2.337223 1_555
Fe5 O10 1.933393 1_555
Fe5 O7 1.960925 1_455
Fe5 O22 2.005932 1_555
Fe5 O3 2.091664 1_555
Fe5 O11 2.151875 1_555
Fe5 O23 2.337224 1_555
Fe6 O14 1.933393 1_555
Fe6 O8 1.960925 1_545
Fe6 O0 2.005932 1_555
Fe6 O13 2.091664 1_545
Fe6 O17 2.151875 1_545
Fe6 O2 2.337223 1_545
Fe7 O9 1.947210 1_555
Fe7 O6 1.969404 1_555
Fe7 O12 1.979163 1_555
Fe7 O3 2.108994 1_554
Fe7 O23 2.121588 1_554
Fe7 O2 2.413589 1_554
