# generated using pymatgen
data_SiO2
_symmetry_space_group_name_H-M   'P 1'
_cell_length_a   15.54178543
_cell_length_b   15.54178543
_cell_length_c   15.54178543
_cell_angle_alpha   109.47122063
_cell_angle_beta   109.47122063
_cell_angle_gamma   109.47122063
_symmetry_Int_Tables_number   1
_chemical_formula_structural   SiO2
_chemical_formula_sum   'Si24 O48'
_cell_volume   2889.88682713
_cell_formula_units_Z   24
loop_
 _symmetry_equiv_pos_site_id
 _symmetry_equiv_pos_as_xyz
  1  'x, y, z'
loop_
 _atom_site_type_symbol
 _atom_site_label
 _atom_site_symmetry_multiplicity
 _atom_site_fract_x
 _atom_site_fract_y
 _atom_site_fract_z
 _atom_site_occupancy
  Si  Si0  1  0.26939700  0.59921800  0.72068500  1
  Si  Si1  1  0.40078200  0.12146700  0.67017900  1
  Si  Si2  1  0.45128800  0.73060300  0.32982100  1
  Si  Si3  1  0.32982100  0.45128800  0.73060300  1
  Si  Si4  1  0.27931500  0.54871200  0.87853300  1
  Si  Si5  1  0.12146700  0.67017900  0.40078200  1
  Si  Si6  1  0.87853300  0.27931500  0.54871200  1
  Si  Si7  1  0.54871200  0.27931500  0.87853300  1
  Si  Si8  1  0.67017900  0.12146700  0.40078200  1
  Si  Si9  1  0.32982100  0.73060300  0.45128800  1
  Si  Si10  1  0.40078200  0.67017900  0.12146700  1
  Si  Si11  1  0.27931500  0.87853300  0.54871200  1
  Si  Si12  1  0.45128800  0.32982100  0.73060300  1
  Si  Si13  1  0.59921800  0.72068500  0.26939700  1
  Si  Si14  1  0.72068500  0.26939700  0.59921800  1
  Si  Si15  1  0.87853300  0.54871200  0.27931500  1
  Si  Si16  1  0.12146700  0.40078200  0.67017900  1
  Si  Si17  1  0.73060300  0.45128800  0.32982100  1
  Si  Si18  1  0.73060300  0.32982100  0.45128800  1
  Si  Si19  1  0.26939700  0.72068500  0.59921800  1
  Si  Si20  1  0.72068500  0.59921800  0.26939700  1
  Si  Si21  1  0.67017900  0.40078200  0.12146700  1
  Si  Si22  1  0.59921800  0.26939700  0.72068500  1
  Si  Si23  1  0.54871200  0.87853300  0.27931500  1
  O  O0  1  0.28635300  0.69240000  0.69240000  1
  O  O1  1  0.30760000  0.00000000  0.59395200  1
  O  O2  1  0.40604800  0.71364700  0.40604800  1
  O  O3  1  0.40604800  0.40604800  0.71364700  1
  O  O4  1  0.30760000  0.59395200  0.00000000  1
  O  O5  1  0.00000000  0.59395200  0.30760000  1
  O  O6  1  0.00000000  0.30760000  0.59395200  1
  O  O7  1  0.59395200  0.30760000  0.00000000  1
  O  O8  1  0.59395200  0.00000000  0.30760000  1
  O  O9  1  0.69240000  0.69240000  0.28635300  1
  O  O10  1  0.69240000  0.28635300  0.69240000  1
  O  O11  1  0.71364700  0.40604800  0.40604800  1
  O  O12  1  0.29628700  0.64101100  0.84434800  1
  O  O13  1  0.35898900  0.20333700  0.65527600  1
  O  O14  1  0.54806100  0.70371300  0.34472400  1
  O  O15  1  0.34472400  0.54806100  0.70371300  1
  O  O16  1  0.15565200  0.45193900  0.79666300  1
  O  O17  1  0.20333700  0.65527600  0.35898900  1
  O  O18  1  0.79666300  0.15565200  0.45193900  1
  O  O19  1  0.45193900  0.15565200  0.79666300  1
  O  O20  1  0.65527600  0.20333700  0.35898900  1
  O  O21  1  0.34472400  0.70371300  0.54806100  1
  O  O22  1  0.35898900  0.65527600  0.20333700  1
  O  O23  1  0.15565200  0.79666300  0.45193900  1
  O  O24  1  0.54806100  0.34472400  0.70371300  1
  O  O25  1  0.64101100  0.84434800  0.29628700  1
  O  O26  1  0.84434800  0.29628700  0.64101100  1
  O  O27  1  0.79666300  0.45193900  0.15565200  1
  O  O28  1  0.20333700  0.35898900  0.65527600  1
  O  O29  1  0.70371300  0.54806100  0.34472400  1
  O  O30  1  0.70371300  0.34472400  0.54806100  1
  O  O31  1  0.29628700  0.84434800  0.64101100  1
  O  O32  1  0.84434800  0.64101100  0.29628700  1
  O  O33  1  0.65527600  0.35898900  0.20333700  1
  O  O34  1  0.64101100  0.29628700  0.84434800  1
  O  O35  1  0.45193900  0.79666300  0.15565200  1
  O  O36  1  0.14635700  0.50000000  0.64635700  1
  O  O37  1  0.50000000  0.14635700  0.64635700  1
  O  O38  1  0.50000000  0.85364300  0.35364300  1
  O  O39  1  0.35364300  0.50000000  0.85364300  1
  O  O40  1  0.14635700  0.64635700  0.50000000  1
  O  O41  1  0.85364300  0.35364300  0.50000000  1
  O  O42  1  0.50000000  0.35364300  0.85364300  1
  O  O43  1  0.64635700  0.14635700  0.50000000  1
  O  O44  1  0.35364300  0.85364300  0.50000000  1
  O  O45  1  0.50000000  0.64635700  0.14635700  1
  O  O46  1  0.85364300  0.50000000  0.35364300  1
  O  O47  1  0.64635700  0.50000000  0.14635700  1
loop_
_geom_bond_atom_site_label_1
_geom_bond_atom_site_label_2
_geom_bond_distance
_geom_bond_site_symmetry_2
O0 Si0 1.614696 1_555
O0 Si19 1.614696 1_555
O1 Si1 1.614697 1_555
O1 Si11 1.614697 1_545
O2 Si9 1.614701 1_555
O2 Si2 1.614701 1_555
O3 Si12 1.614701 1_555
O3 Si3 1.614701 1_555
O4 Si10 1.614697 1_555
O4 Si4 1.614697 1_554
O5 Si5 1.614697 1_555
O5 Si15 1.614697 1_455
O6 Si16 1.614697 1_555
O6 Si6 1.614697 1_455
O7 Si21 1.614697 1_555
O7 Si7 1.614697 1_554
O8 Si8 1.614697 1_555
O8 Si23 1.614697 1_545
O9 Si20 1.614696 1_555
O9 Si13 1.614696 1_555
O10 Si22 1.614696 1_555
O10 Si14 1.614696 1_555
O11 Si18 1.614701 1_555
O11 Si17 1.614701 1_555
O12 Si0 1.655816 1_555
O12 Si4 1.660989 1_555
O13 Si1 1.655816 1_555
O13 Si12 1.660989 1_555
O14 Si2 1.655816 1_555
O14 Si13 1.660989 1_555
O15 Si3 1.655816 1_555
O15 Si0 1.660989 1_555
O16 Si4 1.655816 1_555
O16 Si16 1.660989 1_555
O17 Si5 1.655816 1_555
O17 Si9 1.660989 1_555
O18 Si6 1.655816 1_555
O18 Si8 1.660989 1_555
O19 Si7 1.655816 1_555
O19 Si1 1.660989 1_555
O20 Si8 1.655816 1_555
O20 Si18 1.660989 1_555
O21 Si9 1.655816 1_555
O21 Si19 1.660989 1_555
O22 Si10 1.655816 1_555
O22 Si2 1.660989 1_555
O23 Si11 1.655816 1_555
O23 Si5 1.660989 1_555
O24 Si12 1.655816 1_555
O24 Si22 1.660989 1_555
O25 Si13 1.655816 1_555
O25 Si23 1.660989 1_555
O26 Si14 1.655816 1_555
O26 Si6 1.660989 1_555
O27 Si15 1.655816 1_555
O27 Si21 1.660989 1_555
O28 Si16 1.655816 1_555
O28 Si3 1.660989 1_555
O29 Si17 1.655816 1_555
O29 Si20 1.660989 1_555
O30 Si18 1.655816 1_555
O30 Si14 1.660989 1_555
O31 Si19 1.655816 1_555
O31 Si11 1.660989 1_555
O32 Si20 1.655816 1_555
O32 Si15 1.660989 1_555
O33 Si21 1.655816 1_555
O33 Si17 1.660989 1_555
O34 Si22 1.655816 1_555
O34 Si7 1.660989 1_555
O35 Si23 1.655816 1_555
O35 Si10 1.660989 1_555
O36 Si0 1.656193 1_555
O36 Si16 1.656193 1_555
O37 Si22 1.656193 1_555
O37 Si1 1.656193 1_555
O38 Si2 1.656193 1_555
O38 Si23 1.656193 1_555
O39 Si3 1.656193 1_555
O39 Si4 1.656193 1_555
O40 Si19 1.656193 1_555
O40 Si5 1.656193 1_555
O41 Si18 1.656193 1_555
O41 Si6 1.656193 1_555
O42 Si12 1.656193 1_555
O42 Si7 1.656193 1_555
O43 Si14 1.656193 1_555
O43 Si8 1.656193 1_555
O44 Si9 1.656193 1_555
O44 Si11 1.656193 1_555
O45 Si13 1.656193 1_555
O45 Si10 1.656193 1_555
O46 Si17 1.656193 1_555
O46 Si15 1.656193 1_555
O47 Si20 1.656193 1_555
O47 Si21 1.656193 1_555
