# generated using pymatgen
data_K2LuZr(PO4)3
_symmetry_space_group_name_H-M   'P 1'
_cell_length_a   10.43577400
_cell_length_b   10.43577400
_cell_length_c   10.43577400
_cell_angle_alpha   90.00000000
_cell_angle_beta   90.00000000
_cell_angle_gamma   90.00000000
_symmetry_Int_Tables_number   1
_chemical_formula_structural   K2LuZr(PO4)3
_chemical_formula_sum   'K8 Lu4 Zr4 P12 O48'
_cell_volume   1136.51192241
_cell_formula_units_Z   4
loop_
 _symmetry_equiv_pos_site_id
 _symmetry_equiv_pos_as_xyz
  1  'x, y, z'
loop_
 _atom_site_type_symbol
 _atom_site_label
 _atom_site_symmetry_multiplicity
 _atom_site_fract_x
 _atom_site_fract_y
 _atom_site_fract_z
 _atom_site_occupancy
  K  K0  1  0.06694500  0.43305500  0.56694500  1
  K  K1  1  0.20102700  0.79897300  0.29897300  1
  K  K2  1  0.29897300  0.20102700  0.79897300  1
  K  K3  1  0.43305500  0.56694500  0.06694500  1
  K  K4  1  0.56694500  0.06694500  0.43305500  1
  K  K5  1  0.70102700  0.70102700  0.70102700  1
  K  K6  1  0.79897300  0.29897300  0.20102700  1
  K  K7  1  0.93305500  0.93305500  0.93305500  1
  Lu  Lu0  1  0.14647300  0.14647300  0.14647300  1
  Lu  Lu1  1  0.35352700  0.85352700  0.64647300  1
  Lu  Lu2  1  0.64647300  0.35352700  0.85352700  1
  Lu  Lu3  1  0.85352700  0.64647300  0.35352700  1
  Zr  Zr0  1  0.08351000  0.58351000  0.91649000  1
  Zr  Zr1  1  0.41649000  0.41649000  0.41649000  1
  Zr  Zr2  1  0.58351000  0.91649000  0.08351000  1
  Zr  Zr3  1  0.91649000  0.08351000  0.58351000  1
  P  P0  1  0.03832500  0.76536000  0.62626400  1
  P  P1  1  0.12626400  0.46167500  0.23464000  1
  P  P2  1  0.23464000  0.12626400  0.46167500  1
  P  P3  1  0.26536000  0.87373600  0.96167500  1
  P  P4  1  0.37373600  0.53832500  0.73464000  1
  P  P5  1  0.46167500  0.23464000  0.12626400  1
  P  P6  1  0.53832500  0.73464000  0.37373600  1
  P  P7  1  0.62626400  0.03832500  0.76536000  1
  P  P8  1  0.73464000  0.37373600  0.53832500  1
  P  P9  1  0.76536000  0.62626400  0.03832500  1
  P  P10  1  0.87373600  0.96167500  0.26536000  1
  P  P11  1  0.96167500  0.26536000  0.87373600  1
  O  O0  1  0.00775900  0.40660200  0.85209400  1
  O  O1  1  0.02740800  0.54931000  0.30024700  1
  O  O2  1  0.02231800  0.69042500  0.75497800  1
  O  O3  1  0.04931000  0.19975300  0.97259200  1
  O  O4  1  0.08065000  0.32228300  0.23827100  1
  O  O5  1  0.09339800  0.14790600  0.50775900  1
  O  O6  1  0.14790600  0.50775900  0.09339800  1
  O  O7  1  0.17771700  0.76172900  0.58065000  1
  O  O8  1  0.19042500  0.74502200  0.97768200  1
  O  O9  1  0.19975300  0.97259200  0.04931000  1
  O  O10  1  0.24502200  0.52231800  0.80957500  1
  O  O11  1  0.23827100  0.08065000  0.32228300  1
  O  O12  1  0.26172900  0.91935000  0.82228300  1
  O  O13  1  0.25497800  0.47768200  0.30957500  1
  O  O14  1  0.30024700  0.02740800  0.54931000  1
  O  O15  1  0.30957500  0.25497800  0.47768200  1
  O  O16  1  0.32228300  0.23827100  0.08065000  1
  O  O17  1  0.35209400  0.49224100  0.59339800  1
  O  O18  1  0.40660200  0.85209400  0.00775900  1
  O  O19  1  0.41935000  0.67771700  0.73827100  1
  O  O20  1  0.45069000  0.80024700  0.47259200  1
  O  O21  1  0.47768200  0.30957500  0.25497800  1
  O  O22  1  0.47259200  0.45069000  0.80024700  1
  O  O23  1  0.49224100  0.59339800  0.35209400  1
  O  O24  1  0.50775900  0.09339800  0.14790600  1
  O  O25  1  0.52740800  0.95069000  0.69975300  1
  O  O26  1  0.52231800  0.80957500  0.24502200  1
  O  O27  1  0.54931000  0.30024700  0.02740800  1
  O  O28  1  0.58065000  0.17771700  0.76172900  1
  O  O29  1  0.59339800  0.35209400  0.49224100  1
  O  O30  1  0.64790600  0.99224100  0.90660200  1
  O  O31  1  0.67771700  0.73827100  0.41935000  1
  O  O32  1  0.69042500  0.75497800  0.02231800  1
  O  O33  1  0.69975300  0.52740800  0.95069000  1
  O  O34  1  0.74502200  0.97768200  0.19042500  1
  O  O35  1  0.73827100  0.41935000  0.67771700  1
  O  O36  1  0.76172900  0.58065000  0.17771700  1
  O  O37  1  0.75497800  0.02231800  0.69042500  1
  O  O38  1  0.80024700  0.47259200  0.45069000  1
  O  O39  1  0.80957500  0.24502200  0.52231800  1
  O  O40  1  0.82228300  0.26172900  0.91935000  1
  O  O41  1  0.85209400  0.00775900  0.40660200  1
  O  O42  1  0.90660200  0.64790600  0.99224100  1
  O  O43  1  0.91935000  0.82228300  0.26172900  1
  O  O44  1  0.95069000  0.69975300  0.52740800  1
  O  O45  1  0.97768200  0.19042500  0.74502200  1
  O  O46  1  0.97259200  0.04931000  0.19975300  1
  O  O47  1  0.99224100  0.90660200  0.64790600  1
loop_
_geom_bond_atom_site_label_1
_geom_bond_atom_site_label_2
_geom_bond_distance
_geom_bond_site_symmetry_2
K0 O5 3.051687 1_555
K0 O0 3.051687 1_555
K0 O17 3.051687 1_555
K0 O1 3.064037 1_555
K0 O38 3.064037 1_455
K0 O44 3.064037 1_455
K0 O15 3.276046 1_555
K0 O45 3.276046 1_455
K0 O10 3.276046 1_555
K0 O39 3.358752 1_455
K0 O13 3.358752 1_555
K0 O2 3.358752 1_555
K1 O43 2.975063 1_455
K1 O7 2.975063 1_555
K1 O11 2.975063 1_565
K1 O1 3.173519 1_555
K1 O9 3.173519 1_555
K1 O20 3.173519 1_555
K2 O12 2.975063 1_545
K2 O28 2.975063 1_555
K2 O16 2.975063 1_556
K2 O14 3.173519 1_555
K2 O3 3.173519 1_555
K2 O22 3.173519 1_555
K3 O6 3.051687 1_555
K3 O18 3.051687 1_555
K3 O23 3.051687 1_555
K3 O27 3.064037 1_555
K3 O22 3.064037 1_554
K3 O33 3.064037 1_554
K3 O13 3.276046 1_555
K3 O8 3.276046 1_554
K3 O26 3.276046 1_555
K3 O10 3.358752 1_554
K3 O21 3.358752 1_555
K3 O32 3.358752 1_555
K4 O24 3.051687 1_555
K4 O41 3.051687 1_555
K4 O29 3.051687 1_555
K4 O14 3.064037 1_555
K4 O20 3.064037 1_545
K4 O25 3.064037 1_545
K4 O21 3.276046 1_555
K4 O34 3.276046 1_545
K4 O39 3.276046 1_555
K4 O26 3.358752 1_545
K4 O15 3.358752 1_555
K4 O37 3.358752 1_555
K5 O35 2.975063 1_555
K5 O19 2.975063 1_555
K5 O31 2.975063 1_555
K5 O33 3.173519 1_555
K5 O25 3.173519 1_555
K5 O44 3.173519 1_555
K6 O40 2.975063 1_554
K6 O36 2.975063 1_555
K6 O4 2.975063 1_655
K6 O27 3.173519 1_555
K6 O46 3.173519 1_555
K6 O38 3.173519 1_555
K7 O30 3.051687 1_555
K7 O47 3.051687 1_555
K7 O42 3.051687 1_555
K7 O9 3.064037 1_656
K7 O3 3.064037 1_665
K7 O46 3.064037 1_566
K7 O2 3.276046 1_655
K7 O32 3.276046 1_556
K7 O37 3.276046 1_565
K7 O34 3.358752 1_556
K7 O8 3.358752 1_655
K7 O45 3.358752 1_565
Lu0 O9 2.151744 1_545
Lu0 O46 2.151744 1_455
Lu0 O3 2.151744 1_554
Lu0 O4 2.180770 1_555
Lu0 O11 2.180770 1_555
Lu0 O16 2.180770 1_555
Lu1 O25 2.151744 1_555
Lu1 O20 2.151744 1_555
Lu1 O14 2.151744 1_565
Lu1 O19 2.180770 1_555
Lu1 O12 2.180770 1_555
Lu1 O7 2.180770 1_555
Lu2 O33 2.151744 1_555
Lu2 O22 2.151744 1_555
Lu2 O27 2.151744 1_556
Lu2 O35 2.180770 1_555
Lu2 O40 2.180770 1_555
Lu2 O28 2.180770 1_555
Lu3 O44 2.151744 1_555
Lu3 O38 2.151744 1_555
Lu3 O1 2.151744 1_655
Lu3 O31 2.180770 1_555
Lu3 O43 2.180770 1_555
Lu3 O36 2.180770 1_555
O0 P11 1.566806 1_455
O0 Zr0 2.117755 1_555
O1 P1 1.539292 1_555
O2 P0 1.563235 1_555
O2 Zr0 2.119809 1_555
O3 P11 1.539292 1_455
O4 P1 1.531037 1_555
O5 P2 1.566806 1_555
O5 Zr3 2.117755 1_455
O6 P1 1.566806 1_555
O6 Zr0 2.117755 1_554
O7 P0 1.531037 1_555
O8 P3 1.563235 1_555
O8 Zr0 2.119809 1_555
O9 P3 1.539292 1_554
O10 P4 1.563235 1_555
O10 Zr0 2.119809 1_555
O11 P2 1.531037 1_555
O12 P3 1.531037 1_555
O13 P1 1.563235 1_555
O13 Zr1 2.119809 1_555
O14 P2 1.539292 1_555
O15 P2 1.563235 1_555
O15 Zr1 2.119809 1_555
O16 P5 1.531037 1_555
O17 P4 1.566806 1_555
O17 Zr1 2.117755 1_555
O18 P3 1.566806 1_554
O18 Zr2 2.117755 1_555
O19 P4 1.531037 1_555
O20 P6 1.539292 1_555
O21 P5 1.563235 1_555
O21 Zr1 2.119809 1_555
O22 P4 1.539292 1_555
O23 P6 1.566806 1_555
O23 Zr1 2.117755 1_555
O24 P5 1.566806 1_555
O24 Zr2 2.117755 1_545
O25 P7 1.539292 1_565
O26 P6 1.563235 1_555
O26 Zr2 2.119809 1_555
O27 P5 1.539292 1_555
O28 P7 1.531037 1_555
O29 P8 1.566806 1_555
O29 Zr1 2.117755 1_555
O30 P7 1.566806 1_565
O30 Zr2 2.117755 1_556
O31 P6 1.531037 1_555
O32 P9 1.563235 1_555
O32 Zr2 2.119809 1_555
O33 P9 1.539292 1_556
O34 P10 1.563235 1_555
O34 Zr2 2.119809 1_555
O35 P8 1.531037 1_555
O36 P9 1.531037 1_555
O37 P7 1.563235 1_555
O37 Zr3 2.119809 1_555
O38 P8 1.539292 1_555
O39 P8 1.563235 1_555
O39 Zr3 2.119809 1_555
O40 P11 1.531037 1_555
O41 P10 1.566806 1_545
O41 Zr3 2.117755 1_555
O42 P9 1.566806 1_556
O42 Zr0 2.117755 1_655
O43 P10 1.531037 1_555
O44 P0 1.539292 1_655
O45 P11 1.563235 1_555
O45 Zr3 2.119809 1_555
O46 P10 1.539292 1_545
O47 P0 1.566806 1_655
O47 Zr3 2.117755 1_565
