# generated using pymatgen
data_KEuPSe4
_symmetry_space_group_name_H-M   'P 1'
_cell_length_a   6.82166288
_cell_length_b   6.94045480
_cell_length_c   17.42114529
_cell_angle_alpha   90.00000000
_cell_angle_beta   90.00000000
_cell_angle_gamma   90.00000000
_symmetry_Int_Tables_number   1
_chemical_formula_structural   KEuPSe4
_chemical_formula_sum   'K4 Eu4 P4 Se16'
_cell_volume   824.81183922
_cell_formula_units_Z   4
loop_
 _symmetry_equiv_pos_site_id
 _symmetry_equiv_pos_as_xyz
  1  'x, y, z'
loop_
 _atom_site_type_symbol
 _atom_site_label
 _atom_site_symmetry_multiplicity
 _atom_site_fract_x
 _atom_site_fract_y
 _atom_site_fract_z
 _atom_site_occupancy
  K  K0  1  0.02879364  0.25000000  0.71431294  1
  K  K1  1  0.47120636  0.25000000  0.21431294  1
  K  K2  1  0.52879364  0.75000000  0.78568706  1
  K  K3  1  0.97120636  0.75000000  0.28568706  1
  Eu  Eu0  1  0.29065157  0.25000000  0.47546253  1
  Eu  Eu1  1  0.70934843  0.75000000  0.52453747  1
  Eu  Eu2  1  0.79065157  0.75000000  0.02453747  1
  Eu  Eu3  1  0.20934843  0.25000000  0.97546253  1
  P  P0  1  0.22005648  0.75000000  0.59430643  1
  P  P1  1  0.27994352  0.75000000  0.09430643  1
  P  P2  1  0.77994352  0.25000000  0.40569357  1
  P  P3  1  0.72005648  0.25000000  0.90569357  1
  Se  Se0  1  0.46383335  0.25000000  0.82975880  1
  Se  Se1  1  0.53616665  0.75000000  0.17024120  1
  Se  Se2  1  0.40655092  0.49698307  0.61730228  1
  Se  Se3  1  0.90655092  0.50301693  0.88269772  1
  Se  Se4  1  0.96383335  0.75000000  0.67024120  1
  Se  Se5  1  0.59344908  0.50301693  0.38269772  1
  Se  Se6  1  0.09344908  0.00301693  0.11730228  1
  Se  Se7  1  0.03616665  0.25000000  0.32975880  1
  Se  Se8  1  0.40655092  0.00301693  0.61730228  1
  Se  Se9  1  0.90655092  0.99698307  0.88269772  1
  Se  Se10  1  0.35699928  0.75000000  0.97128689  1
  Se  Se11  1  0.14300072  0.75000000  0.47128689  1
  Se  Se12  1  0.64300072  0.25000000  0.02871311  1
  Se  Se13  1  0.59344908  0.99698307  0.38269772  1
  Se  Se14  1  0.85699928  0.25000000  0.52871311  1
  Se  Se15  1  0.09344908  0.49698307  0.11730228  1
loop_
_geom_bond_atom_site_label_1
_geom_bond_atom_site_label_2
_geom_bond_distance
_geom_bond_site_symmetry_2
K0 Se14 3.439190 1_455
K0 Se3 3.519129 1_455
K0 Se9 3.519129 1_445
K0 Se8 3.526358 1_555
K0 Se2 3.526358 1_555
K0 Se4 3.581667 1_455
K0 Se4 3.581667 1_445
K0 Se0 3.584987 1_555
K1 Se12 3.439190 1_555
K1 Se5 3.519129 1_555
K1 Se13 3.519129 1_545
K1 Se6 3.526358 1_555
K1 Se15 3.526358 1_555
K1 Se1 3.581667 1_545
K1 Se1 3.581667 1_555
K1 Se7 3.584987 1_555
K2 Se10 3.439190 1_555
K2 Se2 3.519129 1_555
K2 Se8 3.519129 1_565
K2 Se9 3.526358 1_555
K2 Se3 3.526358 1_555
K2 Se0 3.581667 1_565
K2 Se0 3.581667 1_555
K2 Se4 3.584987 1_555
K3 Se11 3.439190 1_655
K3 Se15 3.519129 1_655
K3 Se6 3.519129 1_665
K3 Se13 3.526358 1_555
K3 Se5 3.526358 1_555
K3 Se7 3.581667 1_655
K3 Se7 3.581667 1_665
K3 Se1 3.584987 1_555
Eu0 Se7 3.075196 1_555
Eu0 Se14 3.100278 1_455
Eu0 Se8 3.109563 1_555
Eu0 Se2 3.109563 1_555
Eu0 Se5 3.156269 1_555
Eu0 Se13 3.156269 1_545
Eu0 Se11 3.614176 1_555
Eu0 Se11 3.614176 1_545
Eu1 Se4 3.075196 1_555
Eu1 Se11 3.100278 1_655
Eu1 Se5 3.109563 1_555
Eu1 Se13 3.109563 1_555
Eu1 Se2 3.156269 1_555
Eu1 Se8 3.156269 1_565
Eu1 Se14 3.614176 1_555
Eu1 Se14 3.614176 1_565
Eu2 Se1 3.075196 1_555
Eu2 Se10 3.100278 1_554
Eu2 Se9 3.109563 1_554
Eu2 Se3 3.109563 1_554
Eu2 Se15 3.156269 1_655
Eu2 Se6 3.156269 1_665
Eu2 Se12 3.614176 1_555
Eu2 Se12 3.614176 1_565
Eu3 Se0 3.075196 1_555
Eu3 Se12 3.100278 1_556
Eu3 Se15 3.109563 1_556
Eu3 Se6 3.109563 1_556
Eu3 Se9 3.156269 1_445
Eu3 Se3 3.156269 1_455
Eu3 Se10 3.614176 1_545
Eu3 Se10 3.614176 1_555
P0 Se4 2.192038 1_455
P0 Se2 2.205155 1_555
P0 Se8 2.205155 1_565
P0 Se11 2.206663 1_555
P1 Se1 2.192038 1_555
P1 Se15 2.205155 1_555
P1 Se6 2.205155 1_565
P1 Se10 2.206663 1_554
P2 Se7 2.192038 1_655
P2 Se5 2.205155 1_555
P2 Se13 2.205155 1_545
P2 Se14 2.206663 1_555
P3 Se0 2.192038 1_555
P3 Se9 2.205155 1_545
P3 Se3 2.205155 1_555
P3 Se12 2.206663 1_556
