# generated using pymatgen
data_Ce9(Ni13P6)2
_symmetry_space_group_name_H-M   'P 1'
_cell_length_a   14.36983598
_cell_length_b   14.36983598
_cell_length_c   3.84758800
_cell_angle_alpha   90.00000000
_cell_angle_beta   90.00000000
_cell_angle_gamma   119.99999990
_symmetry_Int_Tables_number   1
_chemical_formula_structural   Ce9(Ni13P6)2
_chemical_formula_sum   'Ce9 Ni26 P12'
_cell_volume   688.05446223
_cell_formula_units_Z   1
loop_
 _symmetry_equiv_pos_site_id
 _symmetry_equiv_pos_as_xyz
  1  'x, y, z'
loop_
 _atom_site_type_symbol
 _atom_site_label
 _atom_site_symmetry_multiplicity
 _atom_site_fract_x
 _atom_site_fract_y
 _atom_site_fract_z
 _atom_site_occupancy
  Ce  Ce0  1  0.15012700  0.57506300  0.50000000  1
  Ce  Ce1  1  0.09243000  0.90757000  0.00000000  1
  Ce  Ce2  1  0.81514000  0.90757000  0.00000000  1
  Ce  Ce3  1  0.80884700  0.61769300  0.00000000  1
  Ce  Ce4  1  0.38230700  0.19115300  0.00000000  1
  Ce  Ce5  1  0.80884700  0.19115300  0.00000000  1
  Ce  Ce6  1  0.42493700  0.84987300  0.50000000  1
  Ce  Ce7  1  0.09243000  0.18486000  0.00000000  1
  Ce  Ce8  1  0.42493700  0.57506300  0.50000000  1
  Ni  Ni0  1  0.62047200  0.67192700  0.00000000  1
  Ni  Ni1  1  0.92338100  0.37728400  0.50000000  1
  Ni  Ni2  1  0.72334000  0.44667900  0.50000000  1
  Ni  Ni3  1  0.60232900  0.39767100  0.00000000  1
  Ni  Ni4  1  0.05145500  0.67192700  0.00000000  1
  Ni  Ni5  1  0.32807300  0.94854500  0.00000000  1
  Ni  Ni6  1  0.18942100  0.37884100  0.50000000  1
  Ni  Ni7  1  0.62271600  0.07661900  0.50000000  1
  Ni  Ni8  1  0.79534200  0.39767100  0.00000000  1
  Ni  Ni9  1  0.62271600  0.54609700  0.50000000  1
  Ni  Ni10  1  0.62115900  0.81057900  0.50000000  1
  Ni  Ni11  1  0.72334000  0.27666000  0.50000000  1
  Ni  Ni12  1  0.92338100  0.54609700  0.50000000  1
  Ni  Ni13  1  0.19277000  0.09638500  0.50000000  1
  Ni  Ni14  1  0.18942100  0.81057900  0.50000000  1
  Ni  Ni15  1  0.32807300  0.37952800  0.00000000  1
  Ni  Ni16  1  0.90361500  0.09638500  0.50000000  1
  Ni  Ni17  1  0.45390300  0.07661900  0.50000000  1
  Ni  Ni18  1  0.05145500  0.37952800  0.00000000  1
  Ni  Ni19  1  0.62047200  0.94854500  0.00000000  1
  Ni  Ni20  1  0.60232900  0.20465800  0.00000000  1
  Ni  Ni21  1  0.33333300  0.66666700  0.00000000  1
  Ni  Ni22  1  0.55332100  0.27666000  0.50000000  1
  Ni  Ni23  1  0.45390300  0.37728400  0.50000000  1
  Ni  Ni24  1  0.00000000  0.00000000  0.50000000  1
  Ni  Ni25  1  0.90361500  0.80723000  0.50000000  1
  P  P0  1  0.24061500  0.75938500  0.00000000  1
  P  P1  1  0.51497200  0.48502800  0.00000000  1
  P  P2  1  0.97005600  0.48502800  0.00000000  1
  P  P3  1  0.00255200  0.27717700  0.50000000  1
  P  P4  1  0.24061500  0.48123000  0.00000000  1
  P  P5  1  0.51497200  0.02994400  0.00000000  1
  P  P6  1  0.00255200  0.72537400  0.50000000  1
  P  P7  1  0.27462600  0.99744800  0.50000000  1
  P  P8  1  0.51877000  0.75938500  0.00000000  1
  P  P9  1  0.72282300  0.72537400  0.50000000  1
  P  P10  1  0.72282300  0.99744800  0.50000000  1
  P  P11  1  0.27462600  0.27717700  0.50000000  1
loop_
_geom_bond_atom_site_label_1
_geom_bond_atom_site_label_2
_geom_bond_distance
_geom_bond_site_symmetry_2
Ce0 P2 2.953422 1_455
Ce0 P2 2.953422 1_456
Ce0 Ni21 2.983132 1_556
Ce0 Ni21 2.983132 1_555
Ce0 P4 2.993847 1_555
Ce0 P4 2.993847 1_556
Ce0 P0 2.993857 1_555
Ce0 P0 2.993857 1_556
Ce0 Ni1 3.071405 1_455
Ce0 Ni12 3.071411 1_455
Ce0 Ni18 3.102001 1_556
Ce0 Ni18 3.102001 1_555
Ce0 Ni4 3.102011 1_555
Ce0 Ni4 3.102011 1_556
Ce0 Ni6 3.140309 1_555
Ce0 Ni14 3.140309 1_555
Ce1 P7 2.973589 1_555
Ce1 P7 2.973589 1_554
Ce1 P6 2.973589 1_555
Ce1 P6 2.973589 1_554
Ce1 Ni24 2.998893 1_565
Ce1 Ni24 2.998893 1_564
Ce1 Ni13 3.038010 1_564
Ce1 Ni13 3.038010 1_565
Ce1 Ni25 3.038010 1_455
Ce1 Ni25 3.038010 1_454
Ce1 Ni14 3.086836 1_555
Ce1 Ni14 3.086836 1_554
Ce1 Ni4 3.133517 1_555
Ce1 Ni5 3.133517 1_555
Ce2 P10 2.973579 1_554
Ce2 P10 2.973579 1_555
Ce2 P9 2.973589 1_555
Ce2 P9 2.973589 1_554
Ce2 Ni24 2.998893 1_665
Ce2 Ni24 2.998893 1_664
Ce2 Ni25 3.038010 1_555
Ce2 Ni25 3.038010 1_554
Ce2 Ni16 3.038010 1_564
Ce2 Ni16 3.038010 1_565
Ce2 Ni10 3.086826 1_555
Ce2 Ni10 3.086826 1_554
Ce2 Ni19 3.133517 1_555
Ce2 Ni0 3.133517 1_555
Ce3 Ni2 2.868842 1_554
Ce3 Ni2 2.868842 1_555
Ce3 Ni12 3.026798 1_555
Ce3 Ni12 3.026798 1_554
Ce3 Ni9 3.026808 1_554
Ce3 Ni9 3.026808 1_555
Ce3 Ni25 3.043771 1_555
Ce3 Ni25 3.043771 1_554
Ce3 Ni8 3.069253 1_555
Ce3 Ni3 3.069259 1_555
Ce3 P9 3.088064 1_554
Ce3 P9 3.088064 1_555
Ce3 P6 3.088064 1_655
Ce3 P6 3.088064 1_654
Ce3 Ni4 3.169269 1_655
Ce3 Ni0 3.169283 1_555
Ce4 Ni22 2.868842 1_554
Ce4 Ni22 2.868842 1_555
Ce4 Ni17 3.026798 1_554
Ce4 Ni17 3.026798 1_555
Ce4 Ni23 3.026808 1_554
Ce4 Ni23 3.026808 1_555
Ce4 Ni13 3.043771 1_554
Ce4 Ni13 3.043771 1_555
Ce4 Ni20 3.069253 1_555
Ce4 Ni3 3.069259 1_555
Ce4 P11 3.088064 1_554
Ce4 P11 3.088064 1_555
Ce4 P7 3.088064 1_545
Ce4 P7 3.088064 1_544
Ce4 Ni5 3.169269 1_545
Ce4 Ni15 3.169283 1_555
Ce5 Ni11 2.868842 1_554
Ce5 Ni11 2.868842 1_555
Ce5 Ni7 3.026806 1_554
Ce5 Ni7 3.026806 1_555
Ce5 Ni1 3.026806 1_555
Ce5 Ni1 3.026806 1_554
Ce5 Ni16 3.043762 1_555
Ce5 Ni16 3.043762 1_554
Ce5 Ni20 3.069267 1_555
Ce5 Ni8 3.069267 1_555
Ce5 P10 3.088064 1_544
Ce5 P10 3.088064 1_545
Ce5 P3 3.088064 1_655
Ce5 P3 3.088064 1_654
Ce5 Ni19 3.169274 1_545
Ce5 Ni18 3.169274 1_655
Ce6 P5 2.953422 1_565
Ce6 P5 2.953422 1_566
Ce6 Ni21 2.983132 1_555
Ce6 Ni21 2.983132 1_556
Ce6 P8 2.993847 1_555
Ce6 P8 2.993847 1_556
Ce6 P0 2.993857 1_555
Ce6 P0 2.993857 1_556
Ce6 Ni7 3.071405 1_565
Ce6 Ni17 3.071411 1_565
Ce6 Ni19 3.102001 1_555
Ce6 Ni19 3.102001 1_556
Ce6 Ni5 3.102011 1_555
Ce6 Ni5 3.102011 1_556
Ce6 Ni10 3.140309 1_555
Ce6 Ni14 3.140309 1_555
Ce7 P3 2.973579 1_555
Ce7 P3 2.973579 1_554
Ce7 P11 2.973589 1_554
Ce7 P11 2.973589 1_555
Ce7 Ni24 2.998893 1_555
Ce7 Ni24 2.998893 1_554
Ce7 Ni13 3.038010 1_554
Ce7 Ni13 3.038010 1_555
Ce7 Ni16 3.038010 1_454
Ce7 Ni16 3.038010 1_455
Ce7 Ni6 3.086826 1_555
Ce7 Ni6 3.086826 1_554
Ce7 Ni18 3.133517 1_555
Ce7 Ni15 3.133517 1_555
Ce8 P1 2.953413 1_555
Ce8 P1 2.953413 1_556
Ce8 Ni21 2.983151 1_556
Ce8 Ni21 2.983151 1_555
Ce8 P8 2.993857 1_555
Ce8 P8 2.993857 1_556
Ce8 P4 2.993857 1_556
Ce8 P4 2.993857 1_555
Ce8 Ni23 3.071397 1_555
Ce8 Ni9 3.071397 1_555
Ce8 Ni15 3.102001 1_556
Ce8 Ni0 3.102001 1_556
Ce8 Ni15 3.102001 1_555
Ce8 Ni0 3.102001 1_555
Ce8 Ni6 3.140309 1_555
Ce8 Ni10 3.140309 1_555
Ni0 P9 2.307470 1_554
Ni0 P9 2.307470 1_555
Ni0 P1 2.332328 1_555
Ni0 P8 2.356252 1_555
Ni1 P3 2.236116 1_655
Ni1 P2 2.347236 1_556
Ni1 P2 2.347236 1_555
Ni1 Ni11 2.489454 1_555
Ni2 Ni22 2.443145 1_555
Ni2 Ni8 2.448692 1_555
Ni2 Ni8 2.448692 1_556
Ni2 Ni3 2.448700 1_556
Ni2 Ni3 2.448700 1_555
Ni2 Ni9 2.489466 1_555
Ni3 P1 2.174253 1_555
Ni4 P6 2.307463 1_555
Ni4 P6 2.307463 1_554
Ni4 P2 2.332328 1_455
Ni4 P0 2.356252 1_555
Ni5 P7 2.307463 1_555
Ni5 P7 2.307463 1_554
Ni5 P5 2.332328 1_565
Ni5 P0 2.356252 1_555
Ni6 P4 2.307500 1_555
Ni6 P4 2.307500 1_556
Ni6 P11 2.328523 1_555
Ni6 P3 2.328523 1_555
Ni7 P10 2.236116 1_545
Ni7 P5 2.347236 1_555
Ni7 P5 2.347236 1_556
Ni8 P2 2.174253 1_555
Ni9 P9 2.236104 1_555
Ni9 P1 2.347236 1_555
Ni9 P1 2.347236 1_556
Ni10 P8 2.307500 1_555
Ni10 P8 2.307500 1_556
Ni10 P9 2.328523 1_555
Ni10 P10 2.328523 1_555
Ni11 Ni2 2.443145 1_555
Ni11 Ni22 2.443145 1_555
Ni11 Ni8 2.448699 1_555
Ni11 Ni20 2.448699 1_556
Ni11 Ni8 2.448699 1_556
Ni11 Ni20 2.448699 1_555
Ni11 Ni7 2.489454 1_555
Ni12 P6 2.236103 1_655
Ni12 P2 2.347236 1_556
Ni12 P2 2.347236 1_555
Ni12 Ni2 2.489454 1_555
Ni13 P11 2.253236 1_555
Ni13 P7 2.253249 1_545
Ni13 Ni24 2.398954 1_555
Ni14 P0 2.307493 1_555
Ni14 P0 2.307493 1_556
Ni14 P7 2.328523 1_555
Ni14 P6 2.328523 1_555
Ni15 P11 2.307470 1_554
Ni15 P11 2.307470 1_555
Ni15 P1 2.332328 1_555
Ni15 P4 2.356252 1_555
Ni16 P10 2.253237 1_545
Ni16 P3 2.253237 1_655
Ni16 Ni24 2.398954 1_655
Ni17 P7 2.236103 1_545
Ni17 P5 2.347236 1_555
Ni17 P5 2.347236 1_556
Ni17 Ni22 2.489454 1_555
Ni18 P3 2.307470 1_555
Ni18 P3 2.307470 1_554
Ni18 P2 2.332328 1_455
Ni18 P4 2.356252 1_555
Ni19 P10 2.307470 1_555
Ni19 P10 2.307470 1_554
Ni19 P5 2.332328 1_565
Ni19 P8 2.356252 1_555
Ni20 P5 2.174253 1_555
Ni20 Ni22 2.448692 1_554
Ni20 Ni22 2.448692 1_555
Ni21 P0 2.307685 1_555
Ni21 P8 2.307697 1_555
Ni21 P4 2.307697 1_555
Ni22 Ni3 2.448700 1_556
Ni22 Ni3 2.448700 1_555
Ni22 Ni23 2.489466 1_555
Ni23 P11 2.236104 1_555
Ni23 P1 2.347236 1_555
Ni23 P1 2.347236 1_556
Ni24 Ni25 2.398954 1_445
Ni25 P9 2.253236 1_555
Ni25 P6 2.253249 1_655
