# generated using pymatgen
data_RbUN3O11
_symmetry_space_group_name_H-M   'P 1'
_cell_length_a   8.55063597
_cell_length_b   8.55063597
_cell_length_c   8.55063598
_cell_angle_alpha   69.84077865
_cell_angle_beta   69.84077865
_cell_angle_gamma   69.84077266
_symmetry_Int_Tables_number   1
_chemical_formula_structural   RbUN3O11
_chemical_formula_sum   'Rb2 U2 N6 O22'
_cell_volume   532.51271163
_cell_formula_units_Z   2
loop_
 _symmetry_equiv_pos_site_id
 _symmetry_equiv_pos_as_xyz
  1  'x, y, z'
loop_
 _atom_site_type_symbol
 _atom_site_label
 _atom_site_symmetry_multiplicity
 _atom_site_fract_x
 _atom_site_fract_y
 _atom_site_fract_z
 _atom_site_occupancy
  Rb  Rb0  1  0.00000000  0.00000000  0.00000000  1
  Rb  Rb1  1  0.50000000  0.50000000  0.50000000  1
  U  U0  1  0.25000000  0.25000000  0.25000000  1
  U  U1  1  0.75000000  0.75000000  0.75000000  1
  N  N0  1  0.75000000  0.05025500  0.44974500  1
  N  N1  1  0.44974500  0.75000000  0.05025500  1
  N  N2  1  0.05025500  0.44974500  0.75000000  1
  N  N3  1  0.25000000  0.94974500  0.55025500  1
  N  N4  1  0.55025500  0.25000000  0.94974500  1
  N  N5  1  0.94974500  0.55025500  0.25000000  1
  O  O0  1  0.84350000  0.84350000  0.84350000  1
  O  O1  1  0.65650000  0.65650000  0.65650000  1
  O  O2  1  0.34350000  0.34350000  0.34350000  1
  O  O3  1  0.15650000  0.15650000  0.15650000  1
  O  O4  1  0.87182700  0.90955100  0.45057900  1
  O  O5  1  0.04942100  0.59044900  0.62817300  1
  O  O6  1  0.59044900  0.62817300  0.04942100  1
  O  O7  1  0.62817300  0.04942100  0.59044900  1
  O  O8  1  0.82440500  0.67559500  0.25000000  1
  O  O9  1  0.67559500  0.25000000  0.82440500  1
  O  O10  1  0.25000000  0.82440500  0.67559500  1
  O  O11  1  0.17559500  0.32440500  0.75000000  1
  O  O12  1  0.32440500  0.75000000  0.17559500  1
  O  O13  1  0.75000000  0.17559500  0.32440500  1
  O  O14  1  0.09044900  0.54942100  0.12817300  1
  O  O15  1  0.54942100  0.12817300  0.09044900  1
  O  O16  1  0.12817300  0.09044900  0.54942100  1
  O  O17  1  0.95057900  0.40955100  0.37182700  1
  O  O18  1  0.40955100  0.37182700  0.95057900  1
  O  O19  1  0.37182700  0.95057900  0.40955100  1
  O  O20  1  0.90955100  0.45057900  0.87182700  1
  O  O21  1  0.45057900  0.87182700  0.90955100  1
loop_
_geom_bond_atom_site_label_1
_geom_bond_atom_site_label_2
_geom_bond_distance
_geom_bond_site_symmetry_2
N0 O13 1.227005 1_555
N0 O4 1.291522 1_545
N0 O7 1.291522 1_555
N1 O12 1.227005 1_555
N1 O6 1.291522 1_555
N1 O21 1.291522 1_554
N2 O11 1.227005 1_555
N2 O20 1.291522 1_455
N2 O5 1.291522 1_555
N3 O10 1.227005 1_555
N3 O16 1.291522 1_565
N3 O19 1.291522 1_555
N4 O9 1.227005 1_555
N4 O18 1.291522 1_555
N4 O15 1.291522 1_556
N5 O8 1.227005 1_555
N5 O14 1.291522 1_655
N5 O17 1.291522 1_555
O0 U1 1.799778 1_555
O0 Rb0 3.012463 1_666
O1 U1 1.799778 1_555
O1 Rb1 3.012463 1_555
O2 U0 1.799778 1_555
O2 Rb1 3.012463 1_555
O3 U0 1.799778 1_555
O3 Rb0 3.012463 1_555
O4 U1 2.496996 1_555
O4 Rb0 3.501847 1_665
O5 U1 2.496996 1_455
O5 Rb1 3.501846 1_555
O6 U1 2.496996 1_554
O6 Rb1 3.501847 1_555
O7 U1 2.496996 1_545
O7 Rb1 3.501846 1_555
O8 Rb1 3.330115 1_555
O8 Rb0 3.330115 1_665
O9 Rb0 3.330114 1_656
O9 Rb1 3.330114 1_555
O10 Rb1 3.330114 1_555
O10 Rb0 3.330114 1_566
O11 Rb0 3.330115 1_556
O11 Rb1 3.330115 1_555
O12 Rb0 3.330114 1_565
O12 Rb1 3.330114 1_555
O13 Rb1 3.330114 1_555
O13 Rb0 3.330114 1_655
O14 U0 2.496996 1_555
O14 Rb0 3.501846 1_565
O15 U0 2.496996 1_555
O15 Rb0 3.501846 1_655
O16 U0 2.496996 1_555
O16 Rb0 3.501847 1_556
O17 U0 2.496996 1_655
O17 Rb1 3.501846 1_555
O18 U0 2.496996 1_556
O18 Rb1 3.501847 1_555
O19 U0 2.496996 1_565
O19 Rb1 3.501846 1_555
O20 U1 2.496996 1_555
O20 Rb0 3.501846 1_656
O21 U1 2.496996 1_555
O21 Rb0 3.501846 1_566
