# generated using pymatgen
data_Ce4Sn25Pt12
_symmetry_space_group_name_H-M   'P 1'
_cell_length_a   10.70909867
_cell_length_b   10.70909867
_cell_length_c   10.70909867
_cell_angle_alpha   109.47122063
_cell_angle_beta   109.47122063
_cell_angle_gamma   109.47122063
_symmetry_Int_Tables_number   1
_chemical_formula_structural   Ce4Sn25Pt12
_chemical_formula_sum   'Ce4 Sn25 Pt12'
_cell_volume   945.44630604
_cell_formula_units_Z   1
loop_
 _symmetry_equiv_pos_site_id
 _symmetry_equiv_pos_as_xyz
  1  'x, y, z'
loop_
 _atom_site_type_symbol
 _atom_site_label
 _atom_site_symmetry_multiplicity
 _atom_site_fract_x
 _atom_site_fract_y
 _atom_site_fract_z
 _atom_site_occupancy
  Ce  Ce0  1  0.00000000  0.50000000  0.00000000  1
  Ce  Ce1  1  0.00000000  0.00000000  0.50000000  1
  Ce  Ce2  1  0.50000000  0.50000000  0.50000000  1
  Ce  Ce3  1  0.50000000  0.00000000  0.00000000  1
  Sn  Sn0  1  0.75024100  0.62717200  0.87693100  1
  Sn  Sn1  1  0.62013800  0.37338500  0.99352200  1
  Sn  Sn2  1  0.12306900  0.75024100  0.87331000  1
  Sn  Sn3  1  0.12306900  0.24975900  0.37282800  1
  Sn  Sn4  1  0.37986200  0.37338500  0.75324700  1
  Sn  Sn5  1  0.00000000  0.00000000  0.00000000  1
  Sn  Sn6  1  0.12669000  0.87693100  0.24975900  1
  Sn  Sn7  1  0.62717200  0.87693100  0.75024100  1
  Sn  Sn8  1  0.37282800  0.12306900  0.24975900  1
  Sn  Sn9  1  0.87331000  0.12306900  0.75024100  1
  Sn  Sn10  1  0.37338500  0.75324700  0.37986200  1
  Sn  Sn11  1  0.24975900  0.12669000  0.87693100  1
  Sn  Sn12  1  0.00647800  0.37986200  0.62661500  1
  Sn  Sn13  1  0.99352200  0.62013800  0.37338500  1
  Sn  Sn14  1  0.24975900  0.37282800  0.12306900  1
  Sn  Sn15  1  0.62661500  0.24675300  0.62013800  1
  Sn  Sn16  1  0.87693100  0.24975900  0.12669000  1
  Sn  Sn17  1  0.24675300  0.62013800  0.62661500  1
  Sn  Sn18  1  0.75024100  0.87331000  0.12306900  1
  Sn  Sn19  1  0.75324700  0.37986200  0.37338500  1
  Sn  Sn20  1  0.62661500  0.00647800  0.37986200  1
  Sn  Sn21  1  0.37338500  0.99352200  0.62013800  1
  Sn  Sn22  1  0.87693100  0.75024100  0.62717200  1
  Sn  Sn23  1  0.37986200  0.62661500  0.00647800  1
  Sn  Sn24  1  0.62013800  0.62661500  0.24675300  1
  Pt  Pt0  1  0.48702200  0.31941300  0.16760900  1
  Pt  Pt1  1  0.15180400  0.31941300  0.83239100  1
  Pt  Pt2  1  0.16760900  0.84819600  0.68058700  1
  Pt  Pt3  1  0.31941300  0.16760900  0.48702200  1
  Pt  Pt4  1  0.84819600  0.68058700  0.16760900  1
  Pt  Pt5  1  0.83239100  0.51297800  0.68058700  1
  Pt  Pt6  1  0.31941300  0.83239100  0.15180400  1
  Pt  Pt7  1  0.68058700  0.16760900  0.84819600  1
  Pt  Pt8  1  0.68058700  0.83239100  0.51297800  1
  Pt  Pt9  1  0.83239100  0.15180400  0.31941300  1
  Pt  Pt10  1  0.16760900  0.48702200  0.31941300  1
  Pt  Pt11  1  0.51297800  0.68058700  0.83239100  1
loop_
_geom_bond_atom_site_label_1
_geom_bond_atom_site_label_2
_geom_bond_distance
_geom_bond_site_symmetry_2
Ce0 Pt4 3.366280 1_455
Ce0 Pt6 3.366280 1_555
Ce0 Pt1 3.366280 1_554
Ce0 Pt5 3.366280 1_454
Ce0 Pt10 3.366280 1_555
Ce0 Pt7 3.366280 1_454
Ce0 Sn6 3.467093 1_555
Ce0 Sn2 3.467093 1_554
Ce0 Sn14 3.467093 1_555
Ce0 Sn9 3.467093 1_454
Ce0 Sn0 3.467093 1_454
Ce0 Sn16 3.467093 1_455
Ce0 Sn1 3.803118 1_454
Ce0 Sn23 3.803118 1_555
Ce0 Sn10 3.803122 1_555
Ce0 Sn15 3.803122 1_454
Ce0 Sn13 3.803128 1_455
Ce0 Sn12 3.803128 1_554
Ce1 Pt2 3.366280 1_545
Ce1 Pt9 3.366280 1_455
Ce1 Pt1 3.366280 1_555
Ce1 Pt8 3.366280 1_445
Ce1 Pt3 3.366280 1_555
Ce1 Pt4 3.366280 1_445
Ce1 Sn11 3.467093 1_555
Ce1 Sn3 3.467093 1_555
Ce1 Sn9 3.467093 1_455
Ce1 Sn18 3.467093 1_445
Ce1 Sn22 3.467093 1_445
Ce1 Sn6 3.467093 1_545
Ce1 Sn13 3.803118 1_445
Ce1 Sn12 3.803118 1_555
Ce1 Sn4 3.803122 1_555
Ce1 Sn24 3.803122 1_445
Ce1 Sn21 3.803128 1_545
Ce1 Sn20 3.803128 1_455
Ce2 Pt11 3.366280 1_555
Ce2 Pt5 3.366280 1_555
Ce2 Pt8 3.366280 1_555
Ce2 Pt3 3.366280 1_555
Ce2 Pt0 3.366280 1_555
Ce2 Pt10 3.366280 1_555
Ce2 Sn22 3.467093 1_555
Ce2 Sn0 3.467093 1_555
Ce2 Sn7 3.467093 1_555
Ce2 Sn8 3.467093 1_555
Ce2 Sn14 3.467093 1_555
Ce2 Sn3 3.467093 1_555
Ce2 Sn24 3.803122 1_555
Ce2 Sn17 3.803122 1_555
Ce2 Sn15 3.803122 1_555
Ce2 Sn4 3.803122 1_555
Ce2 Sn10 3.803122 1_555
Ce2 Sn19 3.803122 1_555
Ce3 Pt7 3.366280 1_554
Ce3 Pt9 3.366280 1_555
Ce3 Pt6 3.366280 1_545
Ce3 Pt11 3.366280 1_544
Ce3 Pt0 3.366280 1_555
Ce3 Pt2 3.366280 1_544
Ce3 Sn16 3.467093 1_555
Ce3 Sn8 3.467093 1_555
Ce3 Sn18 3.467093 1_545
Ce3 Sn2 3.467093 1_544
Ce3 Sn7 3.467093 1_544
Ce3 Sn11 3.467093 1_554
Ce3 Sn21 3.803118 1_544
Ce3 Sn20 3.803118 1_555
Ce3 Sn19 3.803122 1_555
Ce3 Sn17 3.803122 1_544
Ce3 Sn1 3.803128 1_554
Ce3 Sn23 3.803128 1_545
Sn0 Sn5 3.443061 1_666
Sn2 Sn5 3.443061 1_566
Sn3 Sn5 3.443061 1_555
Sn5 Sn8 3.443061 1_555
Sn5 Sn6 3.443061 1_545
Sn5 Sn7 3.443061 1_444
Sn5 Sn9 3.443061 1_454
Sn11 Sn5 3.443061 1_556
Sn14 Sn5 3.443061 1_555
Sn16 Sn5 3.443061 1_655
Sn18 Sn5 3.443061 1_665
Sn22 Sn5 3.443061 1_666
Pt0 Sn8 2.631900 1_555
Pt0 Sn19 2.652107 1_555
Pt0 Sn11 2.711762 1_554
Pt0 Sn14 2.711762 1_555
Pt0 Sn24 2.789757 1_555
Pt0 Sn1 2.789766 1_554
Pt1 Sn9 2.631900 1_455
Pt1 Sn12 2.652103 1_555
Pt1 Sn11 2.711762 1_555
Pt1 Sn14 2.711762 1_556
Pt1 Sn23 2.789757 1_556
Pt1 Sn4 2.789757 1_555
Pt2 Sn11 2.631900 1_565
Pt2 Sn21 2.652103 1_555
Pt2 Sn22 2.711762 1_455
Pt2 Sn2 2.711762 1_555
Pt2 Sn13 2.789757 1_455
Pt2 Sn17 2.789757 1_555
Pt3 Sn3 2.631900 1_555
Pt3 Sn4 2.652107 1_555
Pt3 Sn6 2.711762 1_545
Pt3 Sn8 2.711762 1_555
Pt3 Sn15 2.789757 1_555
Pt3 Sn21 2.789766 1_545
Pt4 Sn6 2.631900 1_655
Pt4 Sn13 2.652103 1_555
Pt4 Sn0 2.711762 1_554
Pt4 Sn18 2.711762 1_555
Pt4 Sn1 2.789757 1_554
Pt4 Sn24 2.789757 1_555
Pt5 Sn0 2.631900 1_555
Pt5 Sn15 2.652107 1_555
Pt5 Sn22 2.711762 1_555
Pt5 Sn2 2.711762 1_655
Pt5 Sn19 2.789757 1_555
Pt5 Sn12 2.789766 1_655
Pt6 Sn2 2.631900 1_554
Pt6 Sn23 2.652103 1_555
Pt6 Sn6 2.711762 1_555
Pt6 Sn8 2.711762 1_565
Pt6 Sn20 2.789757 1_565
Pt6 Sn10 2.789757 1_555
Pt7 Sn16 2.631900 1_556
Pt7 Sn1 2.652103 1_555
Pt7 Sn7 2.711762 1_545
Pt7 Sn9 2.711762 1_555
Pt7 Sn21 2.789757 1_545
Pt7 Sn15 2.789757 1_555
Pt8 Sn22 2.631900 1_555
Pt8 Sn24 2.652107 1_555
Pt8 Sn7 2.711762 1_555
Pt8 Sn9 2.711762 1_565
Pt8 Sn10 2.789757 1_555
Pt8 Sn20 2.789766 1_565
Pt9 Sn18 2.631900 1_545
Pt9 Sn20 2.652103 1_555
Pt9 Sn16 2.711762 1_555
Pt9 Sn3 2.711762 1_655
Pt9 Sn12 2.789757 1_655
Pt9 Sn19 2.789757 1_555
Pt10 Sn14 2.631900 1_555
Pt10 Sn10 2.652107 1_555
Pt10 Sn16 2.711762 1_455
Pt10 Sn3 2.711762 1_555
Pt10 Sn17 2.789757 1_555
Pt10 Sn13 2.789766 1_455
Pt11 Sn7 2.631900 1_555
Pt11 Sn17 2.652107 1_555
Pt11 Sn0 2.711762 1_555
Pt11 Sn18 2.711762 1_556
Pt11 Sn4 2.789757 1_555
Pt11 Sn23 2.789766 1_556
