# generated using pymatgen
data_MnH4(SO6)2
_symmetry_space_group_name_H-M   'P 1'
_cell_length_a   5.63516800
_cell_length_b   9.47688600
_cell_length_c   18.20809700
_cell_angle_alpha   90.00000000
_cell_angle_beta   90.00000000
_cell_angle_gamma   90.00000000
_symmetry_Int_Tables_number   1
_chemical_formula_structural   MnH4(SO6)2
_chemical_formula_sum   'Mn4 H16 S8 O48'
_cell_volume   972.38238496
_cell_formula_units_Z   4
loop_
 _symmetry_equiv_pos_site_id
 _symmetry_equiv_pos_as_xyz
  1  'x, y, z'
loop_
 _atom_site_type_symbol
 _atom_site_label
 _atom_site_symmetry_multiplicity
 _atom_site_fract_x
 _atom_site_fract_y
 _atom_site_fract_z
 _atom_site_occupancy
  Mn  Mn0  1  0.50000000  0.50000000  0.00000000  1
  Mn  Mn1  1  0.00000000  0.00000000  0.50000000  1
  Mn  Mn2  1  0.50000000  0.50000000  0.50000000  1
  Mn  Mn3  1  0.00000000  0.00000000  0.00000000  1
  H  H0  1  0.98911600  0.16576000  0.20630600  1
  H  H1  1  0.51088400  0.66576000  0.29369400  1
  H  H2  1  0.01088400  0.83424000  0.70630600  1
  H  H3  1  0.48911600  0.33424000  0.79369400  1
  H  H4  1  0.01088400  0.83424000  0.79369400  1
  H  H5  1  0.48911600  0.33424000  0.70630600  1
  H  H6  1  0.98911600  0.16576000  0.29369400  1
  H  H7  1  0.51088400  0.66576000  0.20630600  1
  H  H8  1  0.58241700  0.35833300  0.20627000  1
  H  H9  1  0.91758300  0.85833300  0.29373000  1
  H  H10  1  0.41758300  0.64166700  0.70627000  1
  H  H11  1  0.08241700  0.14166700  0.79373000  1
  H  H12  1  0.41758300  0.64166700  0.79373000  1
  H  H13  1  0.08241700  0.14166700  0.70627000  1
  H  H14  1  0.58241700  0.35833300  0.29373000  1
  H  H15  1  0.91758300  0.85833300  0.20627000  1
  S  S0  1  0.20479800  0.73544300  0.08688900  1
  S  S1  1  0.29520200  0.23544300  0.41311100  1
  S  S2  1  0.79520200  0.26455700  0.58688900  1
  S  S3  1  0.70479800  0.76455700  0.91311100  1
  S  S4  1  0.79520200  0.26455700  0.91311100  1
  S  S5  1  0.70479800  0.76455700  0.58688900  1
  S  S6  1  0.20479800  0.73544300  0.41311100  1
  S  S7  1  0.29520200  0.23544300  0.08688900  1
  O  O0  1  0.98600800  0.73427300  0.36955200  1
  O  O1  1  0.51399200  0.23427300  0.13044800  1
  O  O2  1  0.01399200  0.26572700  0.86955200  1
  O  O3  1  0.48600800  0.76572700  0.63044800  1
  O  O4  1  0.01399200  0.26572700  0.63044800  1
  O  O5  1  0.48600800  0.76572700  0.86955200  1
  O  O6  1  0.98600800  0.73427300  0.13044800  1
  O  O7  1  0.51399200  0.23427300  0.36955200  1
  O  O8  1  0.41416100  0.77857700  0.12753400  1
  O  O9  1  0.08583900  0.27857700  0.37246600  1
  O  O10  1  0.58583900  0.22142300  0.62753400  1
  O  O11  1  0.91416100  0.72142300  0.87246600  1
  O  O12  1  0.58583900  0.22142300  0.87246600  1
  O  O13  1  0.91416100  0.72142300  0.62753400  1
  O  O14  1  0.41416100  0.77857700  0.37246600  1
  O  O15  1  0.08583900  0.27857700  0.12753400  1
  O  O16  1  0.23373700  0.58761000  0.05585500  1
  O  O17  1  0.26626300  0.08761000  0.44414500  1
  O  O18  1  0.76626300  0.41239000  0.55585500  1
  O  O19  1  0.73373700  0.91239000  0.94414500  1
  O  O20  1  0.76626300  0.41239000  0.94414500  1
  O  O21  1  0.73373700  0.91239000  0.55585500  1
  O  O22  1  0.23373700  0.58761000  0.44414500  1
  O  O23  1  0.26626300  0.08761000  0.05585500  1
  O  O24  1  0.33391800  0.51583100  0.58358100  1
  O  O25  1  0.16608200  0.01583100  0.91641900  1
  O  O26  1  0.66608200  0.48416900  0.08358100  1
  O  O27  1  0.83391800  0.98416900  0.41641900  1
  O  O28  1  0.66608200  0.48416900  0.41641900  1
  O  O29  1  0.83391800  0.98416900  0.08358100  1
  O  O30  1  0.33391800  0.51583100  0.91641900  1
  O  O31  1  0.16608200  0.01583100  0.58358100  1
  O  O32  1  0.16680600  0.82349000  0.01763700  1
  O  O33  1  0.33319400  0.32349000  0.48236300  1
  O  O34  1  0.83319400  0.17651000  0.51763700  1
  O  O35  1  0.66680600  0.67651000  0.98236300  1
  O  O36  1  0.83319400  0.17651000  0.98236300  1
  O  O37  1  0.66680600  0.67651000  0.51763700  1
  O  O38  1  0.16680600  0.82349000  0.48236300  1
  O  O39  1  0.33319400  0.32349000  0.01763700  1
  O  O40  1  0.60538000  0.63716500  0.25000000  1
  O  O41  1  0.89462000  0.13716500  0.25000000  1
  O  O42  1  0.39462000  0.36283500  0.75000000  1
  O  O43  1  0.10538000  0.86283500  0.75000000  1
  O  O44  1  0.99477500  0.90048500  0.25000000  1
  O  O45  1  0.50522500  0.40048500  0.25000000  1
  O  O46  1  0.00522500  0.09951500  0.75000000  1
  O  O47  1  0.49477500  0.59951500  0.75000000  1
loop_
_geom_bond_atom_site_label_1
_geom_bond_atom_site_label_2
_geom_bond_distance
_geom_bond_site_symmetry_2
Mn0 O26 1.792888 1_555
Mn0 O30 1.792888 1_554
Mn0 O35 1.945465 1_554
Mn0 O39 1.945465 1_555
Mn0 O20 1.993734 1_554
Mn0 O16 1.993734 1_555
Mn1 O27 1.792888 1_445
Mn1 O31 1.792888 1_555
Mn1 O38 1.945465 1_545
Mn1 O34 1.945465 1_455
Mn1 O21 1.993734 1_445
Mn1 O17 1.993734 1_555
Mn2 O28 1.792888 1_555
Mn2 O24 1.792888 1_555
Mn2 O37 1.945465 1_555
Mn2 O33 1.945465 1_555
Mn2 O22 1.993734 1_555
Mn2 O18 1.993734 1_555
Mn3 O29 1.792888 1_445
Mn3 O25 1.792888 1_554
Mn3 O32 1.945465 1_545
Mn3 O36 1.945465 1_454
Mn3 O19 1.993734 1_444
Mn3 O23 1.993734 1_555
H0 O41 0.994962 1_555
H1 O40 0.994962 1_555
H2 O43 0.994962 1_555
H3 O42 0.994962 1_555
H4 O43 0.994962 1_555
H5 O42 0.994962 1_555
H6 O41 0.994962 1_555
H7 O40 0.994962 1_555
H8 O45 0.991358 1_555
H9 O44 0.991358 1_555
H10 O47 0.991358 1_555
H11 O46 0.991358 1_555
H12 O47 0.991358 1_555
H13 O46 0.991358 1_555
H14 O45 0.991358 1_555
H15 O44 0.991358 1_555
O0 S6 1.466036 1_655
O1 S7 1.466036 1_555
O2 S4 1.466036 1_455
O3 S5 1.466036 1_555
O4 S2 1.466036 1_455
O5 S3 1.466036 1_555
O6 S0 1.466036 1_655
O7 S1 1.466036 1_555
O8 S0 1.451453 1_555
O9 S1 1.451453 1_555
O10 S2 1.451453 1_555
O11 S3 1.451453 1_555
O12 S4 1.451453 1_555
O13 S5 1.451453 1_555
O14 S6 1.451453 1_555
O15 S7 1.451453 1_555
O16 S0 1.519437 1_555
O17 S1 1.519437 1_555
O18 S2 1.519437 1_555
O19 S3 1.519437 1_555
O20 S4 1.519437 1_555
O21 S5 1.519437 1_555
O22 S6 1.519437 1_555
O23 S7 1.519437 1_555
O32 S0 1.527110 1_555
O33 S1 1.527110 1_555
O34 S2 1.527110 1_555
O35 S3 1.527110 1_555
O36 S4 1.527110 1_555
O37 S5 1.527110 1_555
O38 S6 1.527110 1_555
O39 S7 1.527110 1_555
