# generated using pymatgen
data_YbCeS3
_symmetry_space_group_name_H-M   'P 1'
_cell_length_a   3.94090700
_cell_length_b   16.36866700
_cell_length_c   20.96376600
_cell_angle_alpha   90.00000000
_cell_angle_beta   90.00000000
_cell_angle_gamma   90.00000000
_symmetry_Int_Tables_number   1
_chemical_formula_structural   YbCeS3
_chemical_formula_sum   'Yb12 Ce12 S36'
_cell_volume   1352.31792065
_cell_formula_units_Z   12
loop_
 _symmetry_equiv_pos_site_id
 _symmetry_equiv_pos_as_xyz
  1  'x, y, z'
loop_
 _atom_site_type_symbol
 _atom_site_label
 _atom_site_symmetry_multiplicity
 _atom_site_fract_x
 _atom_site_fract_y
 _atom_site_fract_z
 _atom_site_occupancy
  Yb  Yb0  1  0.75000000  0.90523900  0.24564400  1
  Yb  Yb1  1  0.75000000  0.05582200  0.06946400  1
  Yb  Yb2  1  0.25000000  0.44417800  0.56946400  1
  Yb  Yb3  1  0.25000000  0.94417800  0.93053600  1
  Yb  Yb4  1  0.25000000  0.09476100  0.75435600  1
  Yb  Yb5  1  0.75000000  0.40523900  0.25435600  1
  Yb  Yb6  1  0.25000000  0.56523300  0.08026400  1
  Yb  Yb7  1  0.25000000  0.06523300  0.41973600  1
  Yb  Yb8  1  0.25000000  0.59476100  0.74564400  1
  Yb  Yb9  1  0.75000000  0.93476700  0.58026400  1
  Yb  Yb10  1  0.75000000  0.55582200  0.43053600  1
  Yb  Yb11  1  0.75000000  0.43476700  0.91973600  1
  Ce  Ce0  1  0.25000000  0.16256100  0.24848900  1
  Ce  Ce1  1  0.75000000  0.83743900  0.75151100  1
  Ce  Ce2  1  0.75000000  0.33743900  0.74848900  1
  Ce  Ce3  1  0.25000000  0.33167100  0.09061800  1
  Ce  Ce4  1  0.25000000  0.19516200  0.92373000  1
  Ce  Ce5  1  0.25000000  0.83167100  0.40938200  1
  Ce  Ce6  1  0.75000000  0.66832900  0.90938200  1
  Ce  Ce7  1  0.75000000  0.80483800  0.07627000  1
  Ce  Ce8  1  0.25000000  0.69516200  0.57627000  1
  Ce  Ce9  1  0.75000000  0.30483800  0.42373000  1
  Ce  Ce10  1  0.75000000  0.16832900  0.59061800  1
  Ce  Ce11  1  0.25000000  0.66256100  0.25151100  1
  S  S0  1  0.25000000  0.93572900  0.80026900  1
  S  S1  1  0.75000000  0.44559000  0.05419400  1
  S  S2  1  0.75000000  0.15176400  0.34612400  1
  S  S3  1  0.75000000  0.68807300  0.67894900  1
  S  S4  1  0.75000000  0.28547300  0.98299700  1
  S  S5  1  0.25000000  0.34823600  0.84612400  1
  S  S6  1  0.25000000  0.71452700  0.01700300  1
  S  S7  1  0.75000000  0.06867500  0.93768900  1
  S  S8  1  0.75000000  0.94559000  0.44580600  1
  S  S9  1  0.75000000  0.54209100  0.82075700  1
  S  S10  1  0.25000000  0.66809400  0.43900900  1
  S  S11  1  0.25000000  0.73228800  0.82296300  1
  S  S12  1  0.75000000  0.06427100  0.19973100  1
  S  S13  1  0.25000000  0.23228800  0.67703700  1
  S  S14  1  0.75000000  0.56867500  0.56231100  1
  S  S15  1  0.75000000  0.33190600  0.56099100  1
  S  S16  1  0.25000000  0.84823600  0.65387600  1
  S  S17  1  0.25000000  0.95790900  0.32075700  1
  S  S18  1  0.25000000  0.31192700  0.32105100  1
  S  S19  1  0.75000000  0.26771200  0.17703700  1
  S  S20  1  0.75000000  0.76771200  0.32296300  1
  S  S21  1  0.25000000  0.05441000  0.55419400  1
  S  S22  1  0.75000000  0.78547300  0.51700300  1
  S  S23  1  0.25000000  0.81192700  0.17894900  1
  S  S24  1  0.75000000  0.04209100  0.67924300  1
  S  S25  1  0.25000000  0.93132500  0.06231100  1
  S  S26  1  0.25000000  0.16809400  0.06099100  1
  S  S27  1  0.75000000  0.65176400  0.15387600  1
  S  S28  1  0.75000000  0.18807300  0.82105100  1
  S  S29  1  0.25000000  0.21452700  0.48299700  1
  S  S30  1  0.25000000  0.45790900  0.17924300  1
  S  S31  1  0.25000000  0.43132500  0.43768900  1
  S  S32  1  0.25000000  0.43572900  0.69973100  1
  S  S33  1  0.75000000  0.56427100  0.30026900  1
  S  S34  1  0.25000000  0.55441000  0.94580600  1
  S  S35  1  0.75000000  0.83190600  0.93900900  1
loop_
_geom_bond_atom_site_label_1
_geom_bond_atom_site_label_2
_geom_bond_distance
_geom_bond_site_symmetry_2
Ce0 S12 2.741526 1_455
Ce0 S12 2.741526 1_555
Ce0 S2 2.846630 1_555
Ce0 S2 2.846630 1_455
Ce0 S18 2.879516 1_555
Ce0 S19 3.014775 1_555
Ce0 S19 3.014775 1_455
Ce1 S0 2.741526 1_555
Ce1 S0 2.741526 1_655
Ce1 S16 2.846630 1_555
Ce1 S16 2.846630 1_655
Ce1 S3 2.879516 1_555
Ce1 S11 3.014775 1_555
Ce1 S11 3.014775 1_655
Ce2 S32 2.741526 1_555
Ce2 S32 2.741526 1_655
Ce2 S5 2.846630 1_555
Ce2 S5 2.846630 1_655
Ce2 S28 2.879516 1_555
Ce2 S13 3.014775 1_555
Ce2 S13 3.014775 1_655
Ce3 S26 2.748629 1_555
Ce3 S30 2.778783 1_555
Ce3 S1 2.818308 1_555
Ce3 S1 2.818308 1_455
Ce3 S19 2.874174 1_455
Ce3 S19 2.874174 1_555
Ce3 S4 3.089450 1_454
Ce3 S4 3.089450 1_554
Ce4 S4 2.758927 1_455
Ce4 S4 2.758927 1_555
Ce4 S7 2.873147 1_455
Ce4 S7 2.873147 1_555
Ce4 S26 2.911419 1_556
Ce4 S28 2.920543 1_555
Ce4 S28 2.920543 1_455
Ce4 S5 2.987468 1_555
Ce5 S10 2.748629 1_555
Ce5 S17 2.778783 1_555
Ce5 S8 2.818308 1_555
Ce5 S8 2.818308 1_455
Ce5 S20 2.874174 1_455
Ce5 S20 2.874174 1_555
Ce5 S22 3.089450 1_555
Ce5 S22 3.089450 1_455
Ce6 S35 2.748629 1_555
Ce6 S9 2.778783 1_555
Ce6 S34 2.818308 1_655
Ce6 S34 2.818308 1_555
Ce6 S11 2.874174 1_655
Ce6 S11 2.874174 1_555
Ce6 S6 3.089450 1_556
Ce6 S6 3.089450 1_656
Ce7 S6 2.758927 1_555
Ce7 S6 2.758927 1_655
Ce7 S25 2.873147 1_555
Ce7 S25 2.873147 1_655
Ce7 S35 2.911419 1_554
Ce7 S23 2.920543 1_555
Ce7 S23 2.920543 1_655
Ce7 S27 2.987468 1_555
Ce8 S22 2.758927 1_455
Ce8 S22 2.758927 1_555
Ce8 S14 2.873147 1_555
Ce8 S14 2.873147 1_455
Ce8 S10 2.911419 1_555
Ce8 S3 2.920543 1_555
Ce8 S3 2.920543 1_455
Ce8 S16 2.987468 1_555
Ce9 S29 2.758927 1_555
Ce9 S29 2.758927 1_655
Ce9 S31 2.873147 1_555
Ce9 S31 2.873147 1_655
Ce9 S15 2.911419 1_555
Ce9 S18 2.920543 1_555
Ce9 S18 2.920543 1_655
Ce9 S2 2.987468 1_555
Ce10 S15 2.748629 1_555
Ce10 S24 2.778783 1_555
Ce10 S21 2.818308 1_555
Ce10 S21 2.818308 1_655
Ce10 S13 2.874174 1_555
Ce10 S13 2.874174 1_655
Ce10 S29 3.089450 1_555
Ce10 S29 3.089450 1_655
Ce11 S33 2.741526 1_555
Ce11 S33 2.741526 1_455
Ce11 S27 2.846630 1_555
Ce11 S27 2.846630 1_455
Ce11 S23 2.879516 1_555
Ce11 S20 3.014775 1_455
Ce11 S20 3.014775 1_555
S0 Yb3 2.734387 1_555
S0 Yb4 2.775387 1_565
S1 Yb11 2.824308 1_554
S1 Yb6 2.831377 1_555
S1 Yb6 2.831377 1_655
S2 Yb7 2.875811 1_655
S2 Yb7 2.875811 1_555
S3 Yb8 2.858412 1_655
S3 Yb8 2.858412 1_555
S4 Yb11 2.780407 1_555
S5 Yb11 2.875811 1_555
S5 Yb11 2.875811 1_455
S6 Yb6 2.780407 1_555
S7 Yb1 2.770500 1_556
S7 Yb3 2.838663 1_645
S7 Yb3 2.838663 1_545
S8 Yb9 2.824308 1_555
S8 Yb7 2.831377 1_565
S8 Yb7 2.831377 1_665
S9 Yb8 2.665613 1_555
S9 Yb8 2.665613 1_655
S9 Yb11 2.718765 1_555
S10 Yb10 2.700285 1_555
S10 Yb10 2.700285 1_455
S11 Yb8 2.773970 1_555
S12 Yb1 2.734387 1_555
S12 Yb0 2.775387 1_545
S13 Yb4 2.773970 1_555
S14 Yb10 2.770500 1_555
S14 Yb2 2.838663 1_655
S14 Yb2 2.838663 1_555
S15 Yb2 2.700285 1_555
S15 Yb2 2.700285 1_655
S16 Yb9 2.875811 1_455
S16 Yb9 2.875811 1_555
S17 Yb0 2.665613 1_555
S17 Yb0 2.665613 1_455
S17 Yb7 2.718765 1_565
S18 Yb5 2.858412 1_455
S18 Yb5 2.858412 1_555
S19 Yb5 2.773970 1_555
S20 Yb0 2.773970 1_555
S21 Yb7 2.824308 1_555
S21 Yb9 2.831377 1_445
S21 Yb9 2.831377 1_545
S22 Yb9 2.780407 1_555
S23 Yb0 2.858412 1_455
S23 Yb0 2.858412 1_555
S24 Yb4 2.665613 1_655
S24 Yb4 2.665613 1_555
S24 Yb9 2.718765 1_545
S25 Yb3 2.770500 1_554
S25 Yb1 2.838663 1_565
S25 Yb1 2.838663 1_465
S26 Yb1 2.700285 1_555
S26 Yb1 2.700285 1_455
S27 Yb6 2.875811 1_555
S27 Yb6 2.875811 1_655
S28 Yb4 2.858412 1_555
S28 Yb4 2.858412 1_655
S29 Yb7 2.780407 1_555
S30 Yb5 2.665613 1_455
S30 Yb5 2.665613 1_555
S30 Yb6 2.718765 1_555
S31 Yb2 2.770500 1_555
S31 Yb10 2.838663 1_455
S31 Yb10 2.838663 1_555
S32 Yb2 2.734387 1_555
S32 Yb8 2.775387 1_555
S33 Yb10 2.734387 1_555
S33 Yb5 2.775387 1_555
S34 Yb6 2.824308 1_556
S34 Yb11 2.831377 1_455
S34 Yb11 2.831377 1_555
S35 Yb3 2.700285 1_555
S35 Yb3 2.700285 1_655
