# generated using pymatgen
data_Gd2MnGa6
_symmetry_space_group_name_H-M   'P 1'
_cell_length_a   6.19276116
_cell_length_b   6.19922443
_cell_length_c   6.19547670
_cell_angle_alpha   60.00290218
_cell_angle_beta   59.96929338
_cell_angle_gamma   59.98953411
_symmetry_Int_Tables_number   1
_chemical_formula_structural   Gd2MnGa6
_chemical_formula_sum   'Gd2 Mn1 Ga6'
_cell_volume   168.13406216
_cell_formula_units_Z   1
loop_
 _symmetry_equiv_pos_site_id
 _symmetry_equiv_pos_as_xyz
  1  'x, y, z'
loop_
 _atom_site_type_symbol
 _atom_site_label
 _atom_site_symmetry_multiplicity
 _atom_site_fract_x
 _atom_site_fract_y
 _atom_site_fract_z
 _atom_site_occupancy
  Gd  Gd0  1  0.24931261  0.25062832  0.24988401  1
  Gd  Gd1  1  0.75069156  0.74939735  0.75017101  1
  Mn  Mn0  1  0.49998720  0.49998337  0.49995730  1
  Ga  Ga0  1  0.78337658  0.21666090  0.78389962  1
  Ga  Ga1  1  0.21652132  0.78398123  0.78314766  1
  Ga  Ga2  1  0.21707772  0.21559584  0.78357992  1
  Ga  Ga3  1  0.78339475  0.21598238  0.21680000  1
  Ga  Ga4  1  0.78309676  0.78417755  0.21648798  1
  Ga  Ga5  1  0.21654150  0.78359208  0.21607350  1
loop_
_geom_bond_atom_site_label_1
_geom_bond_atom_site_label_2
_geom_bond_distance
_geom_bond_site_symmetry_2
Ga0 Mn0 2.485294 1_555
Ga0 Ga3 2.679980 1_556
Ga0 Ga4 2.680694 1_546
Ga0 Ga2 2.681522 1_655
Ga0 Ga1 2.681897 1_645
Ga0 Gd0 3.109924 1_556
Ga0 Gd0 3.109986 1_655
Ga0 Gd1 3.110480 1_555
Ga0 Gd1 3.115996 1_545
Ga1 Mn0 2.484703 1_555
Ga1 Ga2 2.678742 1_565
Ga1 Ga5 2.681039 1_556
Ga1 Ga4 2.683177 1_456
Ga1 Gd1 3.108377 1_455
Ga1 Gd0 3.112000 1_565
Ga1 Gd1 3.112618 1_555
Ga1 Gd0 3.113049 1_556
Ga2 Mn0 2.485144 1_555
Ga2 Ga5 2.678914 1_546
Ga2 Ga3 2.683604 1_456
Ga2 Gd1 3.110545 1_545
Ga2 Gd0 3.111456 1_556
Ga2 Gd0 3.112015 1_555
Ga2 Gd1 3.112564 1_455
Ga3 Mn0 2.484573 1_555
Ga3 Ga4 2.678746 1_545
Ga3 Ga5 2.681006 1_645
Ga3 Gd0 3.109514 1_655
Ga3 Gd0 3.111622 1_555
Ga3 Gd1 3.112210 1_545
Ga3 Gd1 3.112981 1_554
Ga4 Mn0 2.485170 1_555
Ga4 Ga5 2.681123 1_655
Ga4 Gd0 3.111227 1_655
Ga4 Gd1 3.111245 1_554
Ga4 Gd0 3.111814 1_565
Ga4 Gd1 3.112151 1_555
Ga5 Mn0 2.485284 1_555
Ga5 Gd1 3.110007 1_554
Ga5 Gd1 3.110045 1_455
Ga5 Gd0 3.111434 1_555
Ga5 Gd0 3.115180 1_565
