# generated using pymatgen
data_Li2B12H26O7
_symmetry_space_group_name_H-M   'P 1'
_cell_length_a   7.67797271
_cell_length_b   7.67797271
_cell_length_c   14.78118600
_cell_angle_alpha   90.00000000
_cell_angle_beta   90.00000000
_cell_angle_gamma   104.76326092
_symmetry_Int_Tables_number   1
_chemical_formula_structural   Li2B12H26O7
_chemical_formula_sum   'Li4 B24 H52 O14'
_cell_volume   842.60307558
_cell_formula_units_Z   2
loop_
 _symmetry_equiv_pos_site_id
 _symmetry_equiv_pos_as_xyz
  1  'x, y, z'
loop_
 _atom_site_type_symbol
 _atom_site_label
 _atom_site_symmetry_multiplicity
 _atom_site_fract_x
 _atom_site_fract_y
 _atom_site_fract_z
 _atom_site_occupancy
  Li  Li0  1  0.81486900  0.09095700  0.25000000  1
  Li  Li1  1  0.90904300  0.18513100  0.75000000  1
  Li  Li2  1  0.18513100  0.90904300  0.75000000  1
  Li  Li3  1  0.09095700  0.81486900  0.25000000  1
  B  B0  1  0.32039100  0.32039100  0.98474600  1
  B  B1  1  0.67960900  0.67960900  0.01525400  1
  B  B2  1  0.32039100  0.32039100  0.51525400  1
  B  B3  1  0.67960900  0.67960900  0.48474600  1
  B  B4  1  0.39866900  0.39866900  0.09447900  1
  B  B5  1  0.60133100  0.60133100  0.90552100  1
  B  B6  1  0.39866900  0.39866900  0.40552100  1
  B  B7  1  0.60133100  0.60133100  0.59447900  1
  B  B8  1  0.48974300  0.63635900  0.08909000  1
  B  B9  1  0.36364100  0.51025700  0.91091000  1
  B  B10  1  0.48974300  0.63635900  0.41091000  1
  B  B11  1  0.36364100  0.51025700  0.58909000  1
  B  B12  1  0.51025700  0.36364100  0.91091000  1
  B  B13  1  0.63635900  0.48974300  0.08909000  1
  B  B14  1  0.51025700  0.36364100  0.58909000  1
  B  B15  1  0.63635900  0.48974300  0.41091000  1
  B  B16  1  0.53173100  0.29514800  0.02437700  1
  B  B17  1  0.70485200  0.46826900  0.97562300  1
  B  B18  1  0.53173100  0.29514800  0.47562300  1
  B  B19  1  0.70485200  0.46826900  0.52437700  1
  B  B20  1  0.46826900  0.70485200  0.97562300  1
  B  B21  1  0.29514800  0.53173100  0.02437700  1
  B  B22  1  0.46826900  0.70485200  0.52437700  1
  B  B23  1  0.29514800  0.53173100  0.47562300  1
  H  H0  1  0.76237200  0.76237200  0.19765600  1
  H  H1  1  0.23762800  0.23762800  0.80234400  1
  H  H2  1  0.76237200  0.76237200  0.30234400  1
  H  H3  1  0.23762800  0.23762800  0.69765600  1
  H  H4  1  0.16221800  0.52144900  0.19756900  1
  H  H5  1  0.47855100  0.83778200  0.80243100  1
  H  H6  1  0.16221800  0.52144900  0.30243100  1
  H  H7  1  0.47855100  0.83778200  0.69756900  1
  H  H8  1  0.83778200  0.47855100  0.80243100  1
  H  H9  1  0.52144900  0.16221800  0.19756900  1
  H  H10  1  0.83778200  0.47855100  0.69756900  1
  H  H11  1  0.52144900  0.16221800  0.30243100  1
  H  H12  1  0.21364000  0.03625000  0.39350100  1
  H  H13  1  0.96375000  0.78636000  0.60649900  1
  H  H14  1  0.21364000  0.03625000  0.10649900  1
  H  H15  1  0.96375000  0.78636000  0.89350100  1
  H  H16  1  0.78636000  0.96375000  0.60649900  1
  H  H17  1  0.03625000  0.21364000  0.39350100  1
  H  H18  1  0.78636000  0.96375000  0.89350100  1
  H  H19  1  0.03625000  0.21364000  0.10649900  1
  H  H20  1  0.24414100  0.84646600  0.40640200  1
  H  H21  1  0.15353400  0.75585900  0.59359800  1
  H  H22  1  0.24414100  0.84646600  0.09359800  1
  H  H23  1  0.15353400  0.75585900  0.90640200  1
  H  H24  1  0.75585900  0.15353400  0.59359800  1
  H  H25  1  0.84646600  0.24414100  0.40640200  1
  H  H26  1  0.75585900  0.15353400  0.90640200  1
  H  H27  1  0.84646600  0.24414100  0.09359800  1
  H  H28  1  0.19304700  0.19304700  0.97391500  1
  H  H29  1  0.80695300  0.80695300  0.02608500  1
  H  H30  1  0.19304700  0.19304700  0.52608500  1
  H  H31  1  0.80695300  0.80695300  0.47391500  1
  H  H32  1  0.32524400  0.32524400  0.16189200  1
  H  H33  1  0.67475600  0.67475600  0.83810800  1
  H  H34  1  0.32524400  0.32524400  0.33810800  1
  H  H35  1  0.67475600  0.67475600  0.66189200  1
  H  H36  1  0.48010000  0.73297900  0.15173000  1
  H  H37  1  0.26702100  0.51990000  0.84827000  1
  H  H38  1  0.48010000  0.73297900  0.34827000  1
  H  H39  1  0.26702100  0.51990000  0.65173000  1
  H  H40  1  0.51990000  0.26702100  0.84827000  1
  H  H41  1  0.73297900  0.48010000  0.15173000  1
  H  H42  1  0.51990000  0.26702100  0.65173000  1
  H  H43  1  0.73297900  0.48010000  0.34827000  1
  H  H44  1  0.55660000  0.14984400  0.04135200  1
  H  H45  1  0.85015600  0.44340000  0.95864800  1
  H  H46  1  0.55660000  0.14984400  0.45864800  1
  H  H47  1  0.85015600  0.44340000  0.54135200  1
  H  H48  1  0.44340000  0.85015600  0.95864800  1
  H  H49  1  0.14984400  0.55660000  0.04135200  1
  H  H50  1  0.44340000  0.85015600  0.54135200  1
  H  H51  1  0.14984400  0.55660000  0.45864800  1
  O  O0  1  0.82680000  0.82680000  0.25000000  1
  O  O1  1  0.17320000  0.17320000  0.75000000  1
  O  O2  1  0.11259700  0.56911600  0.25000000  1
  O  O3  1  0.43088400  0.88740300  0.75000000  1
  O  O4  1  0.88740300  0.43088400  0.75000000  1
  O  O5  1  0.56911600  0.11259700  0.25000000  1
  O  O6  1  0.17995000  0.91425900  0.36892600  1
  O  O7  1  0.08574100  0.82005000  0.63107400  1
  O  O8  1  0.17995000  0.91425900  0.13107400  1
  O  O9  1  0.08574100  0.82005000  0.86892600  1
  O  O10  1  0.82005000  0.08574100  0.63107400  1
  O  O11  1  0.91425900  0.17995000  0.36892600  1
  O  O12  1  0.82005000  0.08574100  0.86892600  1
  O  O13  1  0.91425900  0.17995000  0.13107400  1
loop_
_geom_bond_atom_site_label_1
_geom_bond_atom_site_label_2
_geom_bond_distance
_geom_bond_site_symmetry_2
Li0 O5 1.935903 1_555
Li0 O11 1.968140 1_555
Li0 O13 1.968140 1_555
Li0 O0 2.053445 1_545
Li1 O4 1.935903 1_555
Li1 O10 1.968140 1_555
Li1 O12 1.968140 1_555
Li1 O1 2.053445 1_655
Li2 O3 1.935903 1_555
Li2 O9 1.968140 1_555
Li2 O7 1.968140 1_555
Li2 O1 2.053445 1_565
Li3 O2 1.935903 1_555
Li3 O6 1.968140 1_555
Li3 O8 1.968140 1_555
Li3 O0 2.053445 1_455
B0 H28 1.204316 1_555
B1 H29 1.204316 1_555
B2 H30 1.204316 1_555
B3 H31 1.204316 1_555
B4 H32 1.211017 1_555
B5 H33 1.211017 1_555
B6 H34 1.211017 1_555
B7 H35 1.211017 1_555
B8 H36 1.200453 1_555
B9 H37 1.200453 1_555
B10 H38 1.200453 1_555
B11 H39 1.200453 1_555
B12 H40 1.200453 1_555
B13 H41 1.200453 1_555
B14 H42 1.200453 1_555
B15 H43 1.200453 1_555
B16 H44 1.205254 1_555
B17 H45 1.205254 1_555
B18 H46 1.205254 1_555
B19 H47 1.205254 1_555
B20 H48 1.205254 1_555
B21 H49 1.205254 1_555
B22 H50 1.205254 1_555
B23 H51 1.205254 1_555
H0 O0 0.981487 1_555
H1 O1 0.981487 1_555
H2 O0 0.981487 1_555
H3 O1 0.981487 1_555
H4 O2 0.975077 1_555
H5 O3 0.975077 1_555
H6 O2 0.975077 1_555
H7 O3 0.975077 1_555
H8 O4 0.975077 1_555
H9 O5 0.975077 1_555
H10 O4 0.975077 1_555
H11 O5 0.975077 1_555
H12 O6 0.976054 1_545
H13 O7 0.976054 1_655
H14 O8 0.976054 1_545
H15 O9 0.976054 1_655
H16 O10 0.976054 1_565
H17 O11 0.976054 1_455
H18 O12 0.976054 1_565
H19 O13 0.976054 1_455
H20 O6 0.975416 1_555
H21 O7 0.975416 1_555
H22 O8 0.975416 1_555
H23 O9 0.975416 1_555
H24 O10 0.975416 1_555
H25 O11 0.975416 1_555
H26 O12 0.975416 1_555
H27 O13 0.975416 1_555
