# generated using pymatgen
data_FeP3(HO2)6
_symmetry_space_group_name_H-M   'P 1'
_cell_length_a   9.89922349
_cell_length_b   9.89922349
_cell_length_c   9.89922355
_cell_angle_alpha   51.67741992
_cell_angle_beta   51.67741992
_cell_angle_gamma   51.67741557
_symmetry_Int_Tables_number   1
_chemical_formula_structural   FeP3(HO2)6
_chemical_formula_sum   'Fe2 P6 H12 O24'
_cell_volume   551.60374346
_cell_formula_units_Z   2
loop_
 _symmetry_equiv_pos_site_id
 _symmetry_equiv_pos_as_xyz
  1  'x, y, z'
loop_
 _atom_site_type_symbol
 _atom_site_label
 _atom_site_symmetry_multiplicity
 _atom_site_fract_x
 _atom_site_fract_y
 _atom_site_fract_z
 _atom_site_occupancy
  Fe  Fe0  1  0.50000000  0.50000000  0.50000000  1
  Fe  Fe1  1  0.00000000  0.00000000  0.00000000  1
  P  P0  1  0.84334600  0.65665400  0.25000000  1
  P  P1  1  0.25000000  0.84334600  0.65665400  1
  P  P2  1  0.15665400  0.34334600  0.75000000  1
  P  P3  1  0.65665400  0.25000000  0.84334600  1
  P  P4  1  0.75000000  0.15665400  0.34334600  1
  P  P5  1  0.34334600  0.75000000  0.15665400  1
  H  H0  1  0.65200700  0.98309700  0.06381400  1
  H  H1  1  0.93618600  0.34799300  0.01690300  1
  H  H2  1  0.06381400  0.65200700  0.98309700  1
  H  H3  1  0.98309700  0.06381400  0.65200700  1
  H  H4  1  0.56381400  0.48309700  0.15200700  1
  H  H5  1  0.48309700  0.15200700  0.56381400  1
  H  H6  1  0.34799300  0.01690300  0.93618600  1
  H  H7  1  0.01690300  0.93618600  0.34799300  1
  H  H8  1  0.84799300  0.43618600  0.51690300  1
  H  H9  1  0.15200700  0.56381400  0.48309700  1
  H  H10  1  0.43618600  0.51690300  0.84799300  1
  H  H11  1  0.51690300  0.84799300  0.43618600  1
  O  O0  1  0.98355500  0.58098700  0.08915600  1
  O  O1  1  0.01644500  0.41901300  0.91084400  1
  O  O2  1  0.51644500  0.41084400  0.91901300  1
  O  O3  1  0.35183200  0.33322500  0.67396000  1
  O  O4  1  0.14816800  0.82604000  0.16677500  1
  O  O5  1  0.64816800  0.66677500  0.32604000  1
  O  O6  1  0.91901300  0.51644500  0.41084400  1
  O  O7  1  0.48355500  0.58915600  0.08098700  1
  O  O8  1  0.41084400  0.91901300  0.51644500  1
  O  O9  1  0.16677500  0.14816800  0.82604000  1
  O  O10  1  0.08915600  0.98355500  0.58098700  1
  O  O11  1  0.82604000  0.16677500  0.14816800  1
  O  O12  1  0.17396000  0.83322500  0.85183200  1
  O  O13  1  0.33322500  0.67396000  0.35183200  1
  O  O14  1  0.41901300  0.91084400  0.01644500  1
  O  O15  1  0.08098700  0.48355500  0.58915600  1
  O  O16  1  0.66677500  0.32604000  0.64816800  1
  O  O17  1  0.85183200  0.17396000  0.83322500  1
  O  O18  1  0.91084400  0.01644500  0.41901300  1
  O  O19  1  0.83322500  0.85183200  0.17396000  1
  O  O20  1  0.32604000  0.64816800  0.66677500  1
  O  O21  1  0.67396000  0.35183200  0.33322500  1
  O  O22  1  0.58098700  0.08915600  0.98355500  1
  O  O23  1  0.58915600  0.08098700  0.48355500  1
loop_
_geom_bond_atom_site_label_1
_geom_bond_atom_site_label_2
_geom_bond_distance
_geom_bond_site_symmetry_2
Fe0 O16 2.046274 1_555
Fe0 O13 2.046274 1_555
Fe0 O20 2.046274 1_555
Fe0 O21 2.046274 1_555
Fe0 O5 2.046274 1_555
Fe0 O3 2.046274 1_555
Fe1 O12 2.046274 1_544
Fe1 O11 2.046274 1_455
Fe1 O17 2.046274 1_454
Fe1 O4 2.046274 1_545
Fe1 O19 2.046274 1_445
Fe1 O9 2.046274 1_554
H0 O22 0.985201 1_564
H1 O1 0.985201 1_654
H2 O0 0.985201 1_456
H3 O10 0.985201 1_645
H4 O7 0.985201 1_555
H5 O23 0.985201 1_555
H6 O14 0.985201 1_546
H7 O18 0.985201 1_465
H8 O6 0.985201 1_555
H9 O15 0.985201 1_555
H10 O2 0.985201 1_555
H11 O8 0.985201 1_555
O0 P0 1.572172 1_555
O1 P2 1.572172 1_555
O2 P3 1.572172 1_555
O3 P2 1.536061 1_555
O4 P5 1.536061 1_555
O5 P0 1.536061 1_555
O6 P0 1.572172 1_555
O7 P5 1.572172 1_555
O8 P1 1.572172 1_555
O9 P2 1.536061 1_555
O10 P1 1.572172 1_555
O11 P4 1.536061 1_555
O12 P1 1.536061 1_555
O13 P5 1.536061 1_555
O14 P5 1.572172 1_555
O15 P2 1.572172 1_555
O16 P3 1.536061 1_555
O17 P3 1.536061 1_555
O18 P4 1.572172 1_555
O19 P0 1.536061 1_555
O20 P1 1.536061 1_555
O21 P4 1.536061 1_555
O22 P3 1.572172 1_555
O23 P4 1.572172 1_555
