# generated using pymatgen
data_K2ThF6
_symmetry_space_group_name_H-M   'P 1'
_cell_length_a   7.27419590
_cell_length_b   7.27419590
_cell_length_c   7.19669014
_cell_angle_alpha   81.10552894
_cell_angle_beta   81.10552894
_cell_angle_gamma   119.99061501
_symmetry_Int_Tables_number   1
_chemical_formula_structural   K2ThF6
_chemical_formula_sum   'K4 Th2 F12'
_cell_volume   313.65750959
_cell_formula_units_Z   2
loop_
 _symmetry_equiv_pos_site_id
 _symmetry_equiv_pos_as_xyz
  1  'x, y, z'
loop_
 _atom_site_type_symbol
 _atom_site_label
 _atom_site_symmetry_multiplicity
 _atom_site_fract_x
 _atom_site_fract_y
 _atom_site_fract_z
 _atom_site_occupancy
  K  K0  1  0.91270331  0.08729669  0.75000000  1
  K  K1  1  0.23969217  0.76030783  0.75000000  1
  K  K2  1  0.08729669  0.91270331  0.25000000  1
  K  K3  1  0.76030783  0.23969217  0.25000000  1
  Th  Th0  1  0.58385317  0.41614683  0.75000000  1
  Th  Th1  1  0.41614683  0.58385317  0.25000000  1
  F  F0  1  0.90036276  0.75244207  0.63303380  1
  F  F1  1  0.61806286  0.16098934  0.63106101  1
  F  F2  1  0.09963724  0.24755793  0.36696620  1
  F  F3  1  0.47767738  0.33156705  0.10719430  1
  F  F4  1  0.66843295  0.52232262  0.39280570  1
  F  F5  1  0.33156705  0.47767738  0.60719430  1
  F  F6  1  0.16098934  0.61806286  0.13106101  1
  F  F7  1  0.52232262  0.66843295  0.89280570  1
  F  F8  1  0.38193714  0.83901066  0.36893899  1
  F  F9  1  0.75244207  0.90036276  0.13303380  1
  F  F10  1  0.24755793  0.09963724  0.86696620  1
  F  F11  1  0.83901066  0.38193714  0.86893899  1
loop_
_geom_bond_atom_site_label_1
_geom_bond_atom_site_label_2
_geom_bond_distance
_geom_bond_site_symmetry_2
F0 Th0 2.264290 1_555
F0 K2 2.658793 1_655
F0 K0 2.662435 1_565
F0 K1 2.705699 1_655
F1 Th0 2.264232 1_555
F1 K3 2.638913 1_555
F1 K0 2.680980 1_555
F1 K1 2.698773 1_545
F2 Th1 2.264290 1_555
F2 K0 2.658793 1_455
F2 K2 2.662435 1_545
F2 K3 2.705699 1_455
F3 Th1 2.426229 1_555
F3 Th0 2.450521 1_554
F3 K3 2.746675 1_555
F3 K2 2.807688 1_545
F4 Th1 2.426229 1_555
F4 Th0 2.450521 1_555
F4 K3 2.746675 1_555
F4 K2 2.807688 1_655
F5 Th0 2.426229 1_555
F5 Th1 2.450521 1_555
F5 K1 2.746675 1_555
F5 K0 2.807688 1_455
F6 Th1 2.264232 1_555
F6 K1 2.638913 1_554
F6 K2 2.680980 1_555
F6 K3 2.698773 1_455
F7 Th0 2.426229 1_555
F7 Th1 2.450521 1_556
F7 K1 2.746675 1_555
F7 K0 2.807688 1_565
F8 Th1 2.264232 1_555
F8 K1 2.638913 1_555
F8 K2 2.680980 1_555
F8 K3 2.698773 1_565
F9 Th1 2.264290 1_555
F9 K0 2.658793 1_564
F9 K2 2.662435 1_655
F9 K3 2.705699 1_565
F10 Th0 2.264290 1_555
F10 K2 2.658793 1_546
F10 K0 2.662435 1_455
F10 K1 2.705699 1_545
F11 Th0 2.264232 1_555
F11 K3 2.638913 1_556
F11 K0 2.680980 1_555
F11 K1 2.698773 1_655
