# generated using pymatgen
data_SiO2
_symmetry_space_group_name_H-M   'P 1'
_cell_length_a   17.49059076
_cell_length_b   17.49059076
_cell_length_c   21.66865100
_cell_angle_alpha   90.00000000
_cell_angle_beta   90.00000000
_cell_angle_gamma   162.62969298
_symmetry_Int_Tables_number   1
_chemical_formula_structural   SiO2
_chemical_formula_sum   'Si32 O64'
_cell_volume   1979.03018218
_cell_formula_units_Z   32
loop_
 _symmetry_equiv_pos_site_id
 _symmetry_equiv_pos_as_xyz
  1  'x, y, z'
loop_
 _atom_site_type_symbol
 _atom_site_label
 _atom_site_symmetry_multiplicity
 _atom_site_fract_x
 _atom_site_fract_y
 _atom_site_fract_z
 _atom_site_occupancy
  Si  Si0  1  0.93654000  0.06346000  0.98080100  1
  Si  Si1  1  0.06346000  0.93654000  0.01919900  1
  Si  Si2  1  0.93654000  0.06346000  0.51919900  1
  Si  Si3  1  0.06346000  0.93654000  0.48080100  1
  Si  Si4  1  0.30094100  0.69905900  0.99287900  1
  Si  Si5  1  0.69905900  0.30094100  0.00712100  1
  Si  Si6  1  0.30094100  0.69905900  0.50712100  1
  Si  Si7  1  0.69905900  0.30094100  0.49287900  1
  Si  Si8  1  0.61989500  0.38010500  0.86010900  1
  Si  Si9  1  0.38010500  0.61989500  0.13989100  1
  Si  Si10  1  0.61989500  0.38010500  0.63989100  1
  Si  Si11  1  0.38010500  0.61989500  0.36010900  1
  Si  Si12  1  0.22282900  0.77717100  0.93182300  1
  Si  Si13  1  0.77717100  0.22282900  0.06817700  1
  Si  Si14  1  0.22282900  0.77717100  0.56817700  1
  Si  Si15  1  0.77717100  0.22282900  0.43182300  1
  Si  Si16  1  0.98548900  0.01451100  0.39879600  1
  Si  Si17  1  0.01451100  0.98548900  0.60120400  1
  Si  Si18  1  0.98548900  0.01451100  0.10120400  1
  Si  Si19  1  0.01451100  0.98548900  0.89879600  1
  Si  Si20  1  0.61106900  0.38893100  0.00833200  1
  Si  Si21  1  0.38893100  0.61106900  0.99166800  1
  Si  Si22  1  0.61106900  0.38893100  0.49166800  1
  Si  Si23  1  0.38893100  0.61106900  0.50833200  1
  Si  Si24  1  0.16861400  0.83138600  0.82309400  1
  Si  Si25  1  0.83138600  0.16861400  0.17690600  1
  Si  Si26  1  0.16861400  0.83138600  0.67690600  1
  Si  Si27  1  0.83138600  0.16861400  0.32309400  1
  Si  Si28  1  0.53257200  0.46742800  0.82126100  1
  Si  Si29  1  0.46742800  0.53257200  0.17873900  1
  Si  Si30  1  0.53257200  0.46742800  0.67873900  1
  Si  Si31  1  0.46742800  0.53257200  0.32126100  1
  O  O0  1  0.94898300  0.05101700  0.05345500  1
  O  O1  1  0.05101700  0.94898300  0.94654500  1
  O  O2  1  0.94898300  0.05101700  0.44654500  1
  O  O3  1  0.05101700  0.94898300  0.55345500  1
  O  O4  1  0.66069500  0.83881400  0.96602500  1
  O  O5  1  0.83881400  0.66069500  0.03397500  1
  O  O6  1  0.16118600  0.33930500  0.53397500  1
  O  O7  1  0.33930500  0.16118600  0.46602500  1
  O  O8  1  0.33930500  0.16118600  0.03397500  1
  O  O9  1  0.16118600  0.33930500  0.96602500  1
  O  O10  1  0.83881400  0.66069500  0.46602500  1
  O  O11  1  0.66069500  0.83881400  0.53397500  1
  O  O12  1  0.97451900  0.02548100  0.93744900  1
  O  O13  1  0.02548100  0.97451900  0.06255100  1
  O  O14  1  0.97451900  0.02548100  0.56255100  1
  O  O15  1  0.02548100  0.97451900  0.43744900  1
  O  O16  1  0.54472700  0.95538100  0.03495300  1
  O  O17  1  0.95538100  0.54472700  0.96504700  1
  O  O18  1  0.04461900  0.45527300  0.46504700  1
  O  O19  1  0.45527300  0.04461900  0.53495300  1
  O  O20  1  0.45527300  0.04461900  0.96504700  1
  O  O21  1  0.04461900  0.45527300  0.03495300  1
  O  O22  1  0.95538100  0.54472700  0.53495300  1
  O  O23  1  0.54472700  0.95538100  0.46504700  1
  O  O24  1  0.26992200  0.73007800  0.93619000  1
  O  O25  1  0.73007800  0.26992200  0.06381000  1
  O  O26  1  0.26992200  0.73007800  0.56381000  1
  O  O27  1  0.73007800  0.26992200  0.43619000  1
  O  O28  1  0.34462800  0.65537200  0.96569600  1
  O  O29  1  0.65537200  0.34462800  0.03430400  1
  O  O30  1  0.34462800  0.65537200  0.53430400  1
  O  O31  1  0.65537200  0.34462800  0.46569600  1
  O  O32  1  0.57955500  0.42044500  0.82209700  1
  O  O33  1  0.42044500  0.57955500  0.17790300  1
  O  O34  1  0.57955500  0.42044500  0.67790300  1
  O  O35  1  0.42044500  0.57955500  0.32209700  1
  O  O36  1  0.39423200  0.10577900  0.84180000  1
  O  O37  1  0.10577900  0.39423200  0.15820000  1
  O  O38  1  0.89422100  0.60576800  0.65820000  1
  O  O39  1  0.60576800  0.89422100  0.34180000  1
  O  O40  1  0.60576800  0.89422100  0.15820000  1
  O  O41  1  0.89422100  0.60576800  0.84180000  1
  O  O42  1  0.10577900  0.39423200  0.34180000  1
  O  O43  1  0.39423200  0.10577900  0.65820000  1
  O  O44  1  0.61081100  0.38918900  0.93349900  1
  O  O45  1  0.38918900  0.61081100  0.06650100  1
  O  O46  1  0.61081100  0.38918900  0.56650100  1
  O  O47  1  0.38918900  0.61081100  0.43349900  1
  O  O48  1  0.20977400  0.79022600  0.86002000  1
  O  O49  1  0.79022600  0.20977400  0.13998000  1
  O  O50  1  0.20977400  0.79022600  0.63998000  1
  O  O51  1  0.79022600  0.20977400  0.36002000  1
  O  O52  1  0.73389700  0.76634400  0.35579100  1
  O  O53  1  0.76634400  0.73389700  0.64420900  1
  O  O54  1  0.23365600  0.26610300  0.14420900  1
  O  O55  1  0.26610300  0.23365600  0.85579100  1
  O  O56  1  0.26610300  0.23365600  0.64420900  1
  O  O57  1  0.23365600  0.26610300  0.35579100  1
  O  O58  1  0.76634400  0.73389700  0.85579100  1
  O  O59  1  0.73389700  0.76634400  0.14420900  1
  O  O60  1  0.17796800  0.82203200  0.75000000  1
  O  O61  1  0.82203200  0.17796800  0.25000000  1
  O  O62  1  0.51779600  0.48220400  0.75000000  1
  O  O63  1  0.48220400  0.51779600  0.25000000  1
loop_
_geom_bond_atom_site_label_1
_geom_bond_atom_site_label_2
_geom_bond_distance
_geom_bond_site_symmetry_2
O0 Si0 1.632056 1_554
O0 Si18 1.632212 1_555
O1 Si1 1.632056 1_556
O1 Si19 1.632212 1_555
O2 Si2 1.632056 1_555
O2 Si16 1.632212 1_555
O3 Si3 1.632056 1_555
O3 Si17 1.632212 1_555
O4 Si21 1.621269 1_555
O4 Si0 1.622809 1_565
O5 Si20 1.621269 1_555
O5 Si1 1.622809 1_655
O6 Si23 1.621269 1_555
O6 Si2 1.622809 1_455
O7 Si22 1.621269 1_555
O7 Si3 1.622809 1_545
O8 Si20 1.621269 1_555
O8 Si1 1.622809 1_545
O9 Si21 1.621269 1_555
O9 Si0 1.622809 1_455
O10 Si22 1.621269 1_555
O10 Si3 1.622809 1_655
O11 Si23 1.621269 1_555
O11 Si2 1.622809 1_565
O12 Si0 1.614693 1_555
O12 Si19 1.616783 1_645
O13 Si1 1.614693 1_555
O13 Si18 1.616783 1_465
O14 Si2 1.614693 1_555
O14 Si17 1.616783 1_645
O15 Si3 1.614693 1_555
O15 Si16 1.616783 1_465
O16 Si4 1.619518 1_554
O16 Si13 1.621035 1_565
O17 Si5 1.619518 1_556
O17 Si12 1.621035 1_655
O18 Si6 1.619518 1_555
O18 Si15 1.621035 1_455
O19 Si7 1.619518 1_555
O19 Si14 1.621035 1_545
O20 Si5 1.619518 1_556
O20 Si12 1.621035 1_545
O21 Si4 1.619518 1_554
O21 Si13 1.621035 1_455
O22 Si7 1.619518 1_555
O22 Si14 1.621035 1_655
O23 Si6 1.619518 1_555
O23 Si15 1.621035 1_565
O24 Si4 1.630784 1_555
O24 Si12 1.631225 1_555
O25 Si5 1.630784 1_555
O25 Si13 1.631225 1_555
O26 Si6 1.630784 1_555
O26 Si14 1.631225 1_555
O27 Si7 1.630784 1_555
O27 Si15 1.631225 1_555
O28 Si4 1.621467 1_555
O28 Si21 1.632098 1_555
O29 Si5 1.621467 1_555
O29 Si20 1.632098 1_555
O30 Si6 1.621467 1_555
O30 Si23 1.632098 1_555
O31 Si7 1.621467 1_555
O31 Si22 1.632098 1_555
O32 Si8 1.619982 1_555
O32 Si28 1.624776 1_555
O33 Si9 1.619982 1_555
O33 Si29 1.624776 1_555
O34 Si10 1.619982 1_555
O34 Si30 1.624776 1_555
O35 Si11 1.619982 1_555
O35 Si31 1.624776 1_555
O36 Si8 1.615296 1_555
O36 Si24 1.618486 1_545
O37 Si9 1.615296 1_555
O37 Si25 1.618486 1_455
O38 Si10 1.615296 1_555
O38 Si26 1.618486 1_655
O39 Si11 1.615296 1_555
O39 Si27 1.618486 1_565
O40 Si9 1.615296 1_555
O40 Si25 1.618486 1_565
O41 Si8 1.615296 1_555
O41 Si24 1.618486 1_655
O42 Si11 1.615296 1_555
O42 Si27 1.618486 1_455
O43 Si10 1.615296 1_555
O43 Si26 1.618486 1_545
O44 Si8 1.620990 1_555
O44 Si20 1.621555 1_556
O45 Si9 1.620990 1_555
O45 Si21 1.621555 1_554
O46 Si10 1.620990 1_555
O46 Si22 1.621555 1_555
O47 Si11 1.620990 1_555
O47 Si23 1.621555 1_555
O48 Si12 1.620045 1_555
O48 Si24 1.632803 1_555
O49 Si13 1.620045 1_555
O49 Si25 1.632803 1_555
O50 Si14 1.620045 1_555
O50 Si26 1.632803 1_555
O51 Si15 1.620045 1_555
O51 Si27 1.632803 1_555
O52 Si16 1.616825 1_565
O52 Si31 1.620199 1_555
O53 Si17 1.616825 1_655
O53 Si30 1.620199 1_555
O54 Si18 1.616825 1_455
O54 Si29 1.620199 1_555
O55 Si19 1.616825 1_545
O55 Si28 1.620199 1_555
O56 Si17 1.616825 1_545
O56 Si30 1.620199 1_555
O57 Si16 1.616825 1_455
O57 Si31 1.620199 1_555
O58 Si19 1.616825 1_655
O58 Si28 1.620199 1_555
O59 Si18 1.616825 1_565
O59 Si29 1.620199 1_555
O60 Si24 1.616541 1_555
O60 Si26 1.616541 1_555
O61 Si25 1.616541 1_555
O61 Si27 1.616541 1_555
O62 Si28 1.626472 1_555
O62 Si30 1.626472 1_555
O63 Si29 1.626472 1_555
O63 Si31 1.626472 1_555
