# generated using pymatgen
data_K2Si2Pb2O
_symmetry_space_group_name_H-M   'P 1'
_cell_length_a   5.54527746
_cell_length_b   5.54527746
_cell_length_c   6.72256800
_cell_angle_alpha   90.00000000
_cell_angle_beta   90.00000000
_cell_angle_gamma   119.99999360
_symmetry_Int_Tables_number   1
_chemical_formula_structural   K2Si2Pb2O
_chemical_formula_sum   'K2 Si2 Pb2 O1'
_cell_volume   179.02448226
_cell_formula_units_Z   1
loop_
 _symmetry_equiv_pos_site_id
 _symmetry_equiv_pos_as_xyz
  1  'x, y, z'
loop_
 _atom_site_type_symbol
 _atom_site_label
 _atom_site_symmetry_multiplicity
 _atom_site_fract_x
 _atom_site_fract_y
 _atom_site_fract_z
 _atom_site_occupancy
  K  K0  1  0.66666700  0.33333300  0.50000000  1
  K  K1  1  0.33333300  0.66666700  0.50000000  1
  Si  Si0  1  0.00000000  0.00000000  0.76671600  1
  Si  Si1  1  0.00000000  0.00000000  0.23328400  1
  Pb  Pb0  1  0.66666700  0.33333300  0.00000000  1
  Pb  Pb1  1  0.33333300  0.66666700  0.00000000  1
  O  O0  1  0.00000000  0.00000000  0.50000000  1
loop_
_geom_bond_atom_site_label_1
_geom_bond_atom_site_label_2
_geom_bond_distance
_geom_bond_site_symmetry_2
K0 O0 3.201564 1_655
K0 O0 3.201569 1_555
K0 O0 3.201569 1_665
K0 Pb0 3.361284 1_556
K0 Pb0 3.361284 1_555
K1 O0 3.201564 1_565
K1 O0 3.201569 1_555
K1 O0 3.201569 1_665
K1 Pb1 3.361284 1_555
K1 Pb1 3.361284 1_556
O0 Si0 1.793016 1_555
O0 Si1 1.793016 1_555
