# generated using pymatgen
data_P3H18RuC6(SO)6
_symmetry_space_group_name_H-M   'P 1'
_cell_length_a   9.15360042
_cell_length_b   9.15360042
_cell_length_c   13.19374744
_cell_angle_alpha   84.25363613
_cell_angle_beta   84.25363613
_cell_angle_gamma   76.69571788
_symmetry_Int_Tables_number   1
_chemical_formula_structural   P3H18RuC6(SO)6
_chemical_formula_sum   'P6 H36 Ru2 C12 S12 O12'
_cell_volume   1067.01022139
_cell_formula_units_Z   2
loop_
 _symmetry_equiv_pos_site_id
 _symmetry_equiv_pos_as_xyz
  1  'x, y, z'
loop_
 _atom_site_type_symbol
 _atom_site_label
 _atom_site_symmetry_multiplicity
 _atom_site_fract_x
 _atom_site_fract_y
 _atom_site_fract_z
 _atom_site_occupancy
  P  P0  1  0.64711200  0.70978900  0.65010200  1
  P  P1  1  0.29021100  0.35288800  0.84989800  1
  P  P2  1  0.35288800  0.29021100  0.34989800  1
  P  P3  1  0.70978900  0.64711200  0.15010200  1
  P  P4  1  0.06638900  0.93361100  0.75000000  1
  P  P5  1  0.93361100  0.06638900  0.25000000  1
  H  H0  1  0.69308800  0.08231100  0.65721700  1
  H  H1  1  0.91768900  0.30691200  0.84278300  1
  H  H2  1  0.30691200  0.91768900  0.34278300  1
  H  H3  1  0.08231100  0.69308800  0.15721700  1
  H  H4  1  0.59309200  0.98394400  0.75503900  1
  H  H5  1  0.01605600  0.40690800  0.74496100  1
  H  H6  1  0.40690800  0.01605600  0.24496100  1
  H  H7  1  0.98394400  0.59309200  0.25503900  1
  H  H8  1  0.52182300  0.03432100  0.63079500  1
  H  H9  1  0.96567900  0.47817700  0.86920500  1
  H  H10  1  0.47817700  0.96567900  0.36920500  1
  H  H11  1  0.03432100  0.52182300  0.13079500  1
  H  H12  1  0.89048200  0.40574800  0.53041800  1
  H  H13  1  0.59425200  0.10951800  0.96958200  1
  H  H14  1  0.10951800  0.59425200  0.46958200  1
  H  H15  1  0.40574800  0.89048200  0.03041800  1
  H  H16  1  0.68986900  0.45608500  0.52605000  1
  H  H17  1  0.54391500  0.31013100  0.97395000  1
  H  H18  1  0.31013100  0.54391500  0.47395000  1
  H  H19  1  0.45608500  0.68986900  0.02605000  1
  H  H20  1  0.77068000  0.38824900  0.64575400  1
  H  H21  1  0.61175100  0.22932000  0.85424600  1
  H  H22  1  0.22932000  0.61175100  0.35424600  1
  H  H23  1  0.38824900  0.77068000  0.14575400  1
  H  H24  1  0.07521400  0.20487200  0.54029200  1
  H  H25  1  0.79512800  0.92478600  0.95970800  1
  H  H26  1  0.92478600  0.79512800  0.45970800  1
  H  H27  1  0.20487200  0.07521400  0.04029200  1
  H  H28  1  0.14763500  0.00613800  0.53715700  1
  H  H29  1  0.99386200  0.85236500  0.96284300  1
  H  H30  1  0.85236500  0.99386200  0.46284400  1
  H  H31  1  0.00613800  0.14763500  0.03715700  1
  H  H32  1  0.23350500  0.11461000  0.61091700  1
  H  H33  1  0.88539000  0.76649500  0.88908300  1
  H  H34  1  0.76649500  0.88539000  0.38908300  1
  H  H35  1  0.11461000  0.23350500  0.11091700  1
  Ru  Ru0  1  0.33563900  0.66436100  0.75000000  1
  Ru  Ru1  1  0.66436100  0.33563900  0.25000000  1
  C  C0  1  0.62340500  0.99864200  0.67255600  1
  C  C1  1  0.00135800  0.37659500  0.82744400  1
  C  C2  1  0.37659500  0.00135800  0.32744400  1
  C  C3  1  0.99864200  0.62340500  0.17255600  1
  C  C4  1  0.78355100  0.45412600  0.57241100  1
  C  C5  1  0.54587400  0.21644900  0.92758900  1
  C  C6  1  0.21644900  0.54587400  0.42758900  1
  C  C7  1  0.45412600  0.78355100  0.07241100  1
  C  C8  1  0.12759300  0.10178000  0.58448700  1
  C  C9  1  0.89822000  0.87240700  0.91551300  1
  C  C10  1  0.87240700  0.89822000  0.41551300  1
  C  C11  1  0.10178000  0.12759300  0.08448700  1
  S  S0  1  0.60074800  0.63374700  0.79439400  1
  S  S1  1  0.36625300  0.39925200  0.70560600  1
  S  S2  1  0.39925200  0.36625300  0.20560600  1
  S  S3  1  0.63374700  0.60074800  0.29439400  1
  S  S4  1  0.45238500  0.73088900  0.58435700  1
  S  S5  1  0.26911100  0.54761500  0.91564300  1
  S  S6  1  0.54761500  0.26911100  0.41564300  1
  S  S7  1  0.73088900  0.45238500  0.08435700  1
  S  S8  1  0.26490400  0.90872500  0.81197900  1
  S  S9  1  0.09127500  0.73509600  0.68802100  1
  S  S10  1  0.73509600  0.09127500  0.18802100  1
  S  S11  1  0.90872500  0.26490400  0.31197900  1
  O  O0  1  0.71446800  0.85849200  0.63636700  1
  O  O1  1  0.14150800  0.28553200  0.86363300  1
  O  O2  1  0.28553200  0.14150800  0.36363300  1
  O  O3  1  0.85849200  0.71446800  0.13636700  1
  O  O4  1  0.78925400  0.60716000  0.58993200  1
  O  O5  1  0.39284000  0.21074600  0.91006800  1
  O  O6  1  0.21074600  0.39284000  0.41006800  1
  O  O7  1  0.60716000  0.78925400  0.08993200  1
  O  O8  1  0.02212000  0.08022800  0.67218800  1
  O  O9  1  0.91977200  0.97788000  0.82781200  1
  O  O10  1  0.97788000  0.91977200  0.32781200  1
  O  O11  1  0.08022800  0.02212000  0.17218800  1
loop_
_geom_bond_atom_site_label_1
_geom_bond_atom_site_label_2
_geom_bond_distance
_geom_bond_site_symmetry_2
P0 S0 1.999424 1_555
P0 S4 2.021011 1_555
P1 S1 1.999424 1_555
P1 S5 2.021011 1_555
P2 S2 1.999424 1_555
P2 S6 2.021011 1_555
P3 S3 1.999424 1_555
P3 S7 2.021011 1_555
P4 S8 2.022938 1_555
P4 S9 2.022938 1_555
P5 S10 2.022938 1_555
P5 S11 2.022938 1_555
Ru0 S9 2.384309 1_555
Ru0 S8 2.384309 1_555
Ru0 S4 2.419583 1_555
Ru0 S5 2.419583 1_555
Ru0 S0 2.499853 1_555
Ru0 S1 2.499853 1_555
Ru1 S10 2.384309 1_555
Ru1 S11 2.384309 1_555
Ru1 S7 2.419583 1_555
Ru1 S6 2.419583 1_555
Ru1 S3 2.499853 1_555
Ru1 S2 2.499853 1_555
C0 H8 1.096195 1_565
C0 H0 1.096503 1_565
C0 H4 1.098543 1_555
C0 O0 1.455803 1_555
C1 H9 1.096195 1_455
C1 H1 1.096503 1_455
C1 H5 1.098543 1_555
C1 O1 1.455803 1_555
C2 H10 1.096195 1_545
C2 H2 1.096503 1_545
C2 H6 1.098543 1_555
C2 O2 1.455803 1_555
C3 H11 1.096195 1_655
C3 H3 1.096503 1_655
C3 H7 1.098543 1_555
C3 O3 1.455803 1_555
C4 H12 1.096434 1_555
C4 H16 1.097991 1_555
C4 H20 1.098593 1_555
C4 O4 1.455801 1_555
C5 H13 1.096434 1_555
C5 H17 1.097991 1_555
C5 H21 1.098593 1_555
C5 O5 1.455801 1_555
C6 H14 1.096434 1_555
C6 H18 1.097991 1_555
C6 H22 1.098593 1_555
C6 O6 1.455801 1_555
C7 H15 1.096434 1_555
C7 H19 1.097991 1_555
C7 H23 1.098593 1_555
C7 O7 1.455801 1_555
C8 H24 1.094506 1_555
C8 H28 1.096662 1_555
C8 H32 1.097076 1_555
C8 O8 1.458822 1_555
C9 H25 1.094506 1_555
C9 H29 1.096662 1_555
C9 H33 1.097076 1_555
C9 O9 1.458822 1_555
C10 H26 1.094506 1_555
C10 H30 1.096670 1_555
C10 H34 1.097076 1_555
C10 O10 1.458822 1_555
C11 H27 1.094506 1_555
C11 H31 1.096662 1_555
C11 H35 1.097076 1_555
C11 O11 1.458822 1_555
O0 P0 1.606310 1_555
O1 P1 1.606310 1_555
O2 P2 1.606310 1_555
O3 P3 1.606310 1_555
O4 P0 1.607974 1_555
O5 P1 1.607974 1_555
O6 P2 1.607974 1_555
O7 P3 1.607974 1_555
O8 P4 1.605129 1_545
O9 P4 1.605129 1_655
O10 P5 1.605129 1_565
O11 P5 1.605129 1_455
