# generated using pymatgen
data_Nd16Zr16O49
_symmetry_space_group_name_H-M   'P 1'
_cell_length_a   7.47210352
_cell_length_b   7.54320844
_cell_length_c   25.07366042
_cell_angle_alpha   81.30921003
_cell_angle_beta   81.45888388
_cell_angle_gamma   60.34765731
_symmetry_Int_Tables_number   1
_chemical_formula_structural   Nd16Zr16O49
_chemical_formula_sum   'Nd16 Zr16 O49'
_cell_volume   1209.58365899
_cell_formula_units_Z   1
loop_
 _symmetry_equiv_pos_site_id
 _symmetry_equiv_pos_as_xyz
  1  'x, y, z'
loop_
 _atom_site_type_symbol
 _atom_site_label
 _atom_site_symmetry_multiplicity
 _atom_site_fract_x
 _atom_site_fract_y
 _atom_site_fract_z
 _atom_site_occupancy
  Nd  Nd0  1  0.00468455  0.99037290  0.00204255  1
  Nd  Nd1  1  0.13094560  0.62300529  0.12338285  1
  Nd  Nd2  1  0.49918274  0.49469652  0.99592922  1
  Nd  Nd3  1  0.99933278  0.48592488  0.00017662  1
  Nd  Nd4  1  0.24347140  0.25292709  0.25179026  1
  Nd  Nd5  1  0.37666881  0.88240855  0.37446642  1
  Nd  Nd6  1  0.74863540  0.74552778  0.25254821  1
  Nd  Nd7  1  0.24742641  0.75209667  0.24648914  1
  Nd  Nd8  1  0.50087404  0.50507533  0.50219091  1
  Nd  Nd9  1  0.61724281  0.14556326  0.62579070  1
  Nd  Nd10  1  0.00411411  0.99916177  0.50548902  1
  Nd  Nd11  1  0.75646563  0.75217797  0.75245954  1
  Nd  Nd12  1  0.50601621  0.00289035  0.49813661  1
  Nd  Nd13  1  0.86889670  0.38668091  0.87412341  1
  Nd  Nd14  1  0.24851338  0.26627785  0.74852545  1
  Nd  Nd15  1  0.75651677  0.24329488  0.75157788  1
  Zr  Zr0  1  0.16335287  0.12263203  0.12417055  1
  Zr  Zr1  1  0.61450799  0.63836876  0.12123575  1
  Zr  Zr2  1  0.74986920  0.25451604  0.25136318  1
  Zr  Zr3  1  0.38829511  0.36994434  0.37425292  1
  Zr  Zr4  1  0.61057357  0.12693835  0.12653696  1
  Zr  Zr5  1  0.86828743  0.89187959  0.37412521  1
  Zr  Zr6  1  0.00153370  0.50744300  0.50027747  1
  Zr  Zr7  1  0.62972425  0.62816883  0.62556226  1
  Zr  Zr8  1  0.87320640  0.37654859  0.37307240  1
  Zr  Zr9  1  0.12463465  0.13614272  0.62756840  1
  Zr  Zr10  1  0.25008170  0.75472106  0.75495372  1
  Zr  Zr11  1  0.88637867  0.87297891  0.87471219  1
  Zr  Zr12  1  0.12633834  0.62650063  0.62498048  1
  Zr  Zr13  1  0.37388958  0.38047475  0.87550667  1
  Zr  Zr14  1  0.49389633  0.98771744  0.00506627  1
  Zr  Zr15  1  0.37503838  0.87044454  0.87523518  1
  O  O0  1  0.15980474  0.64246952  0.02927861  1
  O  O1  1  0.50924595  0.96013267  0.09247381  1
  O  O2  1  0.40064592  0.90661510  0.28091716  1
  O  O3  1  0.17922010  0.13663203  0.03936328  1
  O  O4  1  0.29157752  0.80493719  0.14815109  1
  O  O5  1  0.63930702  0.66857420  0.03303551  1
  O  O6  1  0.88176249  0.38771729  0.28787056  1
  O  O7  1  0.93695530  0.44212750  0.10747111  1
  O  O8  1  0.62505592  0.54607312  0.20549350  1
  O  O9  1  0.04192057  0.13270961  0.20537173  1
  O  O10  1  0.51413242  0.43211063  0.10529043  1
  O  O11  1  0.44299956  0.38398752  0.28915667  1
  O  O12  1  0.65604396  0.16017125  0.53249620  1
  O  O13  1  0.55100698  0.05221401  0.39898184  1
  O  O14  1  0.61864984  0.12392387  0.20696213  1
  O  O15  1  0.87926037  0.94763196  0.28908335  1
  O  O16  1  0.90925405  0.98867807  0.09724459  1
  O  O17  1  0.18605806  0.68669107  0.36033110  1
  O  O18  1  0.88154317  0.80715819  0.45785665  1
  O  O19  1  0.13499807  0.63098007  0.54024719  1
  O  O20  1  0.30189198  0.38109318  0.45738037  1
  O  O21  1  0.24391926  0.30990456  0.64810050  1
  O  O22  1  0.90676142  0.40832885  0.78063248  1
  O  O23  1  0.70230948  0.63430664  0.53869307  1
  O  O24  1  0.75092305  0.68884464  0.35526414  1
  O  O25  1  0.08822062  0.59235280  0.21705083  1
  O  O26  1  0.87538339  0.37145114  0.45621449  1
  O  O27  1  0.80903126  0.30745160  0.65102254  1
  O  O28  1  0.12788290  0.21070213  0.54291671  1
  O  O29  1  0.18728775  0.25208818  0.35535211  1
  O  O30  1  0.44835306  0.93646825  0.60788858  1
  O  O31  1  0.13861321  0.04252455  0.71255039  1
  O  O32  1  0.94308074  0.88286788  0.78913152  1
  O  O33  1  0.54054324  0.65003544  0.70802032  1
  O  O34  1  0.49296972  0.55156452  0.89930557  1
  O  O35  1  0.01540011  0.93759692  0.60758009  1
  O  O36  1  0.34083902  0.84682059  0.46892495  1
  O  O37  1  0.11303328  0.63267135  0.70786601  1
  O  O38  1  0.05474914  0.55464665  0.89783342  1
  O  O39  1  0.44824326  0.51351969  0.60249279  1
  O  O40  1  0.38540937  0.44677478  0.78942521  1
  O  O41  1  0.70031246  0.18380370  0.85597670  1
  O  O42  1  0.38327897  0.27379212  0.95777083  1
  O  O43  1  0.59452909  0.09041335  0.71875745  1
  O  O44  1  0.78473440  0.89143964  0.95844956  1
  O  O45  1  0.26861647  0.17781133  0.85264544  1
  O  O46  1  0.35151220  0.88259416  0.95827371  1
  O  O47  1  0.68338577  0.76732266  0.84956623  1
  O  O48  1  0.84759583  0.32501923  0.96595411  1
loop_
_geom_bond_atom_site_label_1
_geom_bond_atom_site_label_2
_geom_bond_distance
_geom_bond_site_symmetry_2
Nd0 O48 2.293925 1_464
Nd0 O0 2.319608 1_555
Nd0 O16 2.387655 1_455
Nd0 O3 2.427306 1_565
Nd0 O46 2.433413 1_554
Nd0 O44 2.538976 1_454
Nd1 O25 2.314630 1_555
Nd1 O0 2.326150 1_555
Nd1 O4 2.412146 1_555
Nd1 O16 2.457043 1_455
Nd1 O10 2.491856 1_555
Nd1 O7 2.532791 1_455
Nd2 O0 2.286318 1_556
Nd2 O48 2.322311 1_555
Nd2 O5 2.387282 1_556
Nd2 O34 2.399025 1_555
Nd2 O42 2.568646 1_555
Nd2 O46 2.636359 1_555
Nd2 O10 2.720658 1_556
Nd3 O0 2.299109 1_655
Nd3 O48 2.336739 1_554
Nd3 O3 2.412455 1_655
Nd3 O5 2.414799 1_555
Nd3 O38 2.553412 1_654
Nd3 O42 2.643350 1_654
Nd3 O7 2.659929 1_555
Nd3 O44 2.774978 1_554
Nd4 O25 2.312395 1_555
Nd4 O2 2.319339 1_545
Nd4 O6 2.447358 1_455
Nd4 O11 2.496231 1_555
Nd4 O29 2.567656 1_555
Nd4 O9 2.576031 1_555
Nd4 O14 2.600873 1_555
Nd5 O2 2.312032 1_555
Nd5 O36 2.333192 1_555
Nd5 O13 2.417072 1_565
Nd5 O29 2.429266 1_565
Nd5 O24 2.440554 1_555
Nd5 O17 2.592748 1_555
Nd6 O25 2.303191 1_655
Nd6 O2 2.308484 1_555
Nd6 O6 2.437505 1_555
Nd6 O15 2.505184 1_555
Nd6 O24 2.547388 1_555
Nd6 O8 2.596725 1_555
Nd6 O14 2.645312 1_565
Nd7 O2 2.309210 1_555
Nd7 O25 2.315153 1_555
Nd7 O4 2.436974 1_555
Nd7 O15 2.544103 1_455
Nd7 O11 2.557711 1_555
Nd7 O8 2.591512 1_555
Nd7 O9 2.622444 1_565
Nd7 O17 2.830362 1_555
Nd8 O36 2.316750 1_555
Nd8 O12 2.317320 1_555
Nd8 O23 2.486769 1_555
Nd8 O39 2.492681 1_555
Nd8 O19 2.493273 1_555
Nd8 O20 2.556811 1_555
Nd8 O26 2.603418 1_555
Nd9 O43 2.301043 1_555
Nd9 O12 2.306616 1_555
Nd9 O39 2.429146 1_555
Nd9 O21 2.440383 1_555
Nd9 O27 2.485860 1_555
Nd9 O30 2.575544 1_545
Nd9 O35 2.591422 1_645
Nd10 O36 2.294312 1_555
Nd10 O12 2.301690 1_465
Nd10 O19 2.502680 1_555
Nd10 O35 2.538003 1_555
Nd10 O28 2.540221 1_565
Nd10 O18 2.554014 1_455
Nd10 O26 2.640012 1_465
Nd11 O43 2.298961 1_565
Nd11 O22 2.299432 1_555
Nd11 O32 2.403466 1_555
Nd11 O47 2.422186 1_555
Nd11 O37 2.490906 1_655
Nd11 O33 2.541986 1_555
Nd12 O12 2.306123 1_555
Nd12 O36 2.326488 1_545
Nd12 O13 2.455292 1_555
Nd12 O23 2.543435 1_545
Nd12 O18 2.565739 1_545
Nd12 O20 2.604983 1_555
Nd12 O28 2.628353 1_555
Nd12 O30 2.730253 1_545
Nd13 O48 2.276856 1_555
Nd13 O22 2.309725 1_555
Nd13 O34 2.467692 1_555
Nd13 O38 2.470032 1_655
Nd13 O47 2.515120 1_555
Nd13 O41 2.534542 1_555
Nd13 O45 2.610641 1_655
Nd14 O22 2.293418 1_455
Nd14 O43 2.309511 1_555
Nd14 O40 2.462383 1_555
Nd14 O21 2.492786 1_555
Nd14 O31 2.527501 1_555
Nd14 O37 2.527708 1_555
Nd14 O45 2.602747 1_555
Nd15 O22 2.289245 1_555
Nd15 O43 2.331517 1_555
Nd15 O32 2.467344 1_545
Nd15 O27 2.504071 1_555
Nd15 O40 2.528413 1_555
Nd15 O41 2.595157 1_555
Nd15 O31 2.596571 1_655
Nd15 O33 2.796822 1_555
O1 Zr4 2.084558 1_565
O1 Zr14 2.184701 1_555
O1 Zr1 2.186387 1_555
O1 Zr0 2.315943 1_565
O3 Zr0 2.101558 1_555
O3 Zr14 2.146581 1_545
O4 Zr0 2.118069 1_565
O4 Zr1 2.151563 1_555
O5 Zr14 2.143772 1_555
O5 Zr1 2.178250 1_555
O6 Zr2 2.084326 1_555
O6 Zr8 2.117882 1_555
O7 Zr1 2.119853 1_555
O7 Zr0 2.171790 1_655
O8 Zr1 2.122470 1_555
O8 Zr2 2.134030 1_555
O9 Zr0 2.098617 1_555
O9 Zr2 2.127189 1_455
O10 Zr4 2.050424 1_555
O10 Zr1 2.138858 1_555
O11 Zr3 2.108636 1_555
O11 Zr2 2.127892 1_555
O13 Zr5 2.103201 1_545
O13 Zr3 2.120947 1_555
O14 Zr4 2.022765 1_555
O14 Zr2 2.186898 1_555
O15 Zr5 2.107492 1_555
O15 Zr2 2.140891 1_565
O16 Zr4 2.012328 1_565
O16 Zr0 2.750796 1_665
O17 Zr5 2.105838 1_455
O17 Zr3 2.108598 1_555
O18 Zr5 2.102284 1_555
O18 Zr6 2.144149 1_655
O19 Zr6 2.089476 1_555
O19 Zr12 2.111581 1_555
O20 Zr3 2.089922 1_555
O20 Zr6 2.139730 1_555
O21 Zr9 2.067276 1_555
O21 Zr12 2.113774 1_555
O23 Zr6 2.089091 1_655
O23 Zr7 2.164258 1_555
O24 Zr8 2.063289 1_555
O24 Zr5 2.238153 1_555
O26 Zr8 2.081550 1_555
O26 Zr6 2.184041 1_655
O27 Zr9 2.092686 1_655
O27 Zr7 2.153014 1_555
O28 Zr9 2.111747 1_555
O28 Zr6 2.128449 1_555
O29 Zr8 2.054932 1_455
O29 Zr3 2.220525 1_555
O30 Zr7 2.046884 1_555
O30 Zr9 2.151309 1_565
O31 Zr10 2.076908 1_545
O31 Zr9 2.142041 1_555
O32 Zr10 2.098403 1_655
O32 Zr11 2.121901 1_555
O33 Zr7 2.081100 1_555
O33 Zr10 2.131955 1_555
O34 Zr13 2.083272 1_555
O34 Zr15 2.132737 1_555
O35 Zr12 2.063391 1_555
O35 Zr9 2.172164 1_565
O37 Zr12 2.072301 1_555
O37 Zr10 2.216006 1_555
O38 Zr13 2.109926 1_555
O38 Zr11 2.119349 1_455
O39 Zr7 2.113273 1_555
O39 Zr12 2.131617 1_555
O40 Zr10 2.119938 1_555
O40 Zr13 2.139466 1_555
O41 Zr11 2.070408 1_545
O41 Zr13 2.161973 1_555
O42 Zr13 2.095851 1_555
O42 Zr14 2.121097 1_546
O44 Zr11 2.124758 1_555
O44 Zr14 2.134644 1_556
O45 Zr15 2.059464 1_545
O45 Zr13 2.207480 1_555
O46 Zr15 2.075419 1_555
O46 Zr14 2.150334 1_556
O47 Zr15 2.065243 1_555
O47 Zr11 2.228320 1_555
