# generated using pymatgen
data_Ag2SnO3
_symmetry_space_group_name_H-M   'P 1'
_cell_length_a   5.74815900
_cell_length_b   12.90303200
_cell_length_c   29.86567900
_cell_angle_alpha   90.00000000
_cell_angle_beta   90.00000000
_cell_angle_gamma   90.00000000
_symmetry_Int_Tables_number   1
_chemical_formula_structural   Ag2SnO3
_chemical_formula_sum   'Ag48 Sn24 O72'
_cell_volume   2215.09797434
_cell_formula_units_Z   24
loop_
 _symmetry_equiv_pos_site_id
 _symmetry_equiv_pos_as_xyz
  1  'x, y, z'
loop_
 _atom_site_type_symbol
 _atom_site_label
 _atom_site_symmetry_multiplicity
 _atom_site_fract_x
 _atom_site_fract_y
 _atom_site_fract_z
 _atom_site_occupancy
  Ag  Ag0  1  0.50000600  0.02530200  0.36109100  1
  Ag  Ag1  1  0.67621400  0.24503000  0.74925500  1
  Ag  Ag2  1  0.50033700  0.44641500  0.80564300  1
  Ag  Ag3  1  0.15899700  0.24559100  0.80421600  1
  Ag  Ag4  1  0.66199900  0.24916000  0.52944100  1
  Ag  Ag5  1  0.99999400  0.97469800  0.86109100  1
  Ag  Ag6  1  0.16497100  0.24553700  0.69643800  1
  Ag  Ag7  1  0.17707000  0.24735300  0.91628300  1
  Ag  Ag8  1  0.65896700  0.24615800  0.63752100  1
  Ag  Ag9  1  0.67684800  0.25260800  0.41716300  1
  Ag  Ag10  1  0.83542000  0.75389800  0.36302000  1
  Ag  Ag11  1  0.83502900  0.74553700  0.80356200  1
  Ag  Ag12  1  0.49966300  0.94641500  0.69435700  1
  Ag  Ag13  1  0.66497100  0.25446300  0.30356200  1
  Ag  Ag14  1  0.99966300  0.55358500  0.30564300  1
  Ag  Ag15  1  0.65899700  0.25440900  0.19578400  1
  Ag  Ag16  1  0.82378600  0.75497000  0.24925500  1
  Ag  Ag17  1  0.49988400  0.52446900  0.47215000  1
  Ag  Ag18  1  0.16084100  0.25080300  0.02948900  1
  Ag  Ag19  1  0.00033700  0.05358500  0.19435700  1
  Ag  Ag20  1  0.33502900  0.75446300  0.19643800  1
  Ag  Ag21  1  0.67707000  0.25264700  0.08371700  1
  Ag  Ag22  1  0.82293000  0.74735300  0.58371700  1
  Ag  Ag23  1  0.33915900  0.74919700  0.52948900  1
  Ag  Ag24  1  0.84100300  0.74559100  0.69578400  1
  Ag  Ag25  1  0.49999400  0.52530200  0.13890900  1
  Ag  Ag26  1  0.33800100  0.74916000  0.97055900  1
  Ag  Ag27  1  0.82315200  0.74739200  0.91716300  1
  Ag  Ag28  1  0.16199900  0.25084000  0.47055900  1
  Ag  Ag29  1  0.17684800  0.24739200  0.58283700  1
  Ag  Ag30  1  0.84103300  0.75384200  0.13752100  1
  Ag  Ag31  1  0.83800100  0.75084000  0.02944100  1
  Ag  Ag32  1  0.15896700  0.25384200  0.36247900  1
  Ag  Ag33  1  0.00011600  0.47553100  0.97215000  1
  Ag  Ag34  1  0.17621400  0.25497000  0.25074500  1
  Ag  Ag35  1  0.32293000  0.75264700  0.41628300  1
  Ag  Ag36  1  0.66084100  0.24919700  0.97051100  1
  Ag  Ag37  1  0.32378600  0.74503000  0.75074500  1
  Ag  Ag38  1  0.16458000  0.25389800  0.13698000  1
  Ag  Ag39  1  0.66458000  0.24610200  0.86302000  1
  Ag  Ag40  1  0.00000600  0.47469800  0.63890900  1
  Ag  Ag41  1  0.32315200  0.75260800  0.08283700  1
  Ag  Ag42  1  0.34103300  0.74615800  0.86247900  1
  Ag  Ag43  1  0.33542000  0.74610200  0.63698000  1
  Ag  Ag44  1  0.50011600  0.02446900  0.02785000  1
  Ag  Ag45  1  0.83915900  0.75080300  0.47051100  1
  Ag  Ag46  1  0.99988400  0.97553100  0.52785000  1
  Ag  Ag47  1  0.34100300  0.75440900  0.30421600  1
  Sn  Sn0  1  0.00116900  0.00180800  0.41668600  1
  Sn  Sn1  1  0.99979000  0.00008900  0.63895800  1
  Sn  Sn2  1  0.49913300  0.50039300  0.91660000  1
  Sn  Sn3  1  0.00074200  0.50156900  0.19447600  1
  Sn  Sn4  1  0.50086700  0.00039300  0.58340000  1
  Sn  Sn5  1  0.49899400  0.00166400  0.47224700  1
  Sn  Sn6  1  0.49979000  0.49991100  0.36104200  1
  Sn  Sn7  1  0.00086700  0.49960700  0.41660000  1
  Sn  Sn8  1  0.50074200  0.99843100  0.80552400  1
  Sn  Sn9  1  0.00100600  0.99833600  0.97224700  1
  Sn  Sn10  1  0.50100600  0.50166400  0.02775300  1
  Sn  Sn11  1  0.49946300  0.50106500  0.25002800  1
  Sn  Sn12  1  0.49883100  0.99819200  0.91668600  1
  Sn  Sn13  1  0.50116900  0.49819200  0.58331400  1
  Sn  Sn14  1  0.99925800  0.00156900  0.30552400  1
  Sn  Sn15  1  0.50021000  0.99991100  0.13895800  1
  Sn  Sn16  1  0.50053700  0.00106500  0.24997200  1
  Sn  Sn17  1  0.00021000  0.50008900  0.86104200  1
  Sn  Sn18  1  0.49925800  0.49843100  0.69447600  1
  Sn  Sn19  1  0.99883100  0.50180800  0.08331400  1
  Sn  Sn20  1  0.99946300  0.99893500  0.74997200  1
  Sn  Sn21  1  0.99899400  0.49833600  0.52775300  1
  Sn  Sn22  1  0.99913300  0.99960700  0.08340000  1
  Sn  Sn23  1  0.00053700  0.49893500  0.75002800  1
  O  O0  1  0.38048100  0.58647600  0.97207900  1
  O  O1  1  0.19077100  0.08508700  0.92471600  1
  O  O2  1  0.11970200  0.41626100  0.13899300  1
  O  O3  1  0.18910700  0.41699700  0.24224600  1
  O  O4  1  0.81089300  0.91699700  0.25775400  1
  O  O5  1  0.80988700  0.91580700  0.13141600  1
  O  O6  1  0.61951900  0.08647600  0.52792100  1
  O  O7  1  0.80936900  0.58359300  0.70209200  1
  O  O8  1  0.19011300  0.41580700  0.36858400  1
  O  O9  1  0.69476600  0.09026900  0.42635100  1
  O  O10  1  0.80086400  0.59118000  0.37198800  1
  O  O11  1  0.69627000  0.09192300  0.29582100  1
  O  O12  1  0.80414900  0.91282800  0.46248900  1
  O  O13  1  0.80175200  0.59217400  0.23932400  1
  O  O14  1  0.31008500  0.91473300  0.09125900  1
  O  O15  1  0.19913600  0.09118000  0.12801200  1
  O  O16  1  0.19627000  0.40807700  0.70417900  1
  O  O17  1  0.30373000  0.59192300  0.20417900  1
  O  O18  1  0.87898900  0.58345900  0.80548200  1
  O  O19  1  0.60238000  0.09207800  0.19421600  1
  O  O20  1  0.38029800  0.58373900  0.63899300  1
  O  O21  1  0.30086400  0.90882000  0.62801200  1
  O  O22  1  0.19572500  0.40970700  0.90691400  1
  O  O23  1  0.19476600  0.40973100  0.57364900  1
  O  O24  1  0.69585100  0.08717200  0.96248900  1
  O  O25  1  0.60806300  0.41120900  0.97256700  1
  O  O26  1  0.80895000  0.58814300  0.03554600  1
  O  O27  1  0.37898900  0.91654100  0.19451800  1
  O  O28  1  0.30936900  0.91640700  0.29790800  1
  O  O29  1  0.11951900  0.41352400  0.47207900  1
  O  O30  1  0.30988700  0.58419300  0.86858400  1
  O  O31  1  0.30523400  0.59026900  0.07364900  1
  O  O32  1  0.31089300  0.58300300  0.74224600  1
  O  O33  1  0.89762000  0.90792200  0.69421600  1
  O  O34  1  0.39193700  0.91120900  0.52743300  1
  O  O35  1  0.80523400  0.90973100  0.92635100  1
  O  O36  1  0.30175200  0.90782600  0.76067600  1
  O  O37  1  0.69063100  0.41640700  0.20209200  1
  O  O38  1  0.89075500  0.59133000  0.13885800  1
  O  O39  1  0.81008500  0.58526700  0.90874100  1
  O  O40  1  0.69105000  0.41185700  0.53554600  1
  O  O41  1  0.69011300  0.08419300  0.63141600  1
  O  O42  1  0.80427500  0.90970700  0.59308600  1
  O  O43  1  0.80373000  0.90807700  0.79582100  1
  O  O44  1  0.68910700  0.08300300  0.75775400  1
  O  O45  1  0.69913600  0.40882000  0.87198800  1
  O  O46  1  0.39075500  0.90867000  0.86114200  1
  O  O47  1  0.10238000  0.40792200  0.80578400  1
  O  O48  1  0.69572500  0.09029300  0.09308600  1
  O  O49  1  0.89193700  0.58879100  0.47256700  1
  O  O50  1  0.30922900  0.91491300  0.42471600  1
  O  O51  1  0.60924500  0.40867000  0.63885800  1
  O  O52  1  0.10924500  0.09133000  0.36114200  1
  O  O53  1  0.68991500  0.41473300  0.40874100  1
  O  O54  1  0.12101100  0.08345900  0.69451800  1
  O  O55  1  0.10806300  0.08879100  0.02743300  1
  O  O56  1  0.80922900  0.58508700  0.57528400  1
  O  O57  1  0.18991500  0.08526700  0.59125900  1
  O  O58  1  0.62101100  0.41654100  0.30548200  1
  O  O59  1  0.30895000  0.91185700  0.96445400  1
  O  O60  1  0.30414900  0.58717200  0.53751100  1
  O  O61  1  0.19585100  0.41282800  0.03751100  1
  O  O62  1  0.30427500  0.59029300  0.40691400  1
  O  O63  1  0.88029800  0.91626100  0.36100700  1
  O  O64  1  0.69824800  0.40782600  0.73932400  1
  O  O65  1  0.88048100  0.91352400  0.02792100  1
  O  O66  1  0.19824800  0.09217400  0.26067600  1
  O  O67  1  0.19105000  0.08814300  0.46445400  1
  O  O68  1  0.61970200  0.08373900  0.86100700  1
  O  O69  1  0.19063100  0.08359300  0.79790800  1
  O  O70  1  0.69077100  0.41491300  0.07528400  1
  O  O71  1  0.39762000  0.59207800  0.30578400  1
loop_
_geom_bond_atom_site_label_1
_geom_bond_atom_site_label_2
_geom_bond_distance
_geom_bond_site_symmetry_2
Ag0 O9 2.398904 1_555
Ag0 O52 2.402303 1_555
Ag0 O11 2.410720 1_555
Ag0 O28 2.595346 1_545
Ag0 O63 2.599624 1_545
Ag0 O50 2.615745 1_545
Ag1 O44 2.107296 1_555
Ag1 O64 2.125176 1_555
Ag2 O64 2.337762 1_555
Ag2 O45 2.338213 1_555
Ag2 O47 2.340823 1_555
Ag3 O69 2.106601 1_555
Ag3 O47 2.120212 1_555
Ag4 O6 2.113759 1_555
Ag4 O40 2.113794 1_555
Ag5 O35 2.398904 1_555
Ag5 O46 2.402303 1_655
Ag5 O43 2.410720 1_555
Ag5 O69 2.595346 1_665
Ag5 O68 2.599624 1_565
Ag5 O1 2.615745 1_665
Ag6 O54 2.107289 1_555
Ag6 O16 2.117619 1_555
Ag7 O1 2.110287 1_555
Ag7 O22 2.116182 1_555
Ag8 O41 2.105404 1_555
Ag8 O51 2.116663 1_555
Ag9 O53 2.108310 1_555
Ag9 O9 2.115072 1_555
Ag10 O63 2.111654 1_555
Ag10 O10 2.125870 1_555
Ag11 O18 2.107289 1_555
Ag11 O43 2.117619 1_555
Ag12 O36 2.337762 1_555
Ag12 O21 2.338213 1_555
Ag12 O33 2.340823 1_555
Ag13 O58 2.107289 1_555
Ag13 O11 2.117619 1_555
Ag14 O13 2.337762 1_555
Ag14 O10 2.338213 1_555
Ag14 O71 2.340823 1_655
Ag15 O37 2.106601 1_555
Ag15 O19 2.120212 1_555
Ag16 O4 2.107296 1_555
Ag16 O13 2.125176 1_555
Ag17 O60 2.393943 1_555
Ag17 O49 2.401584 1_555
Ag17 O62 2.404487 1_555
Ag17 O53 2.604675 1_555
Ag17 O29 2.613353 1_555
Ag17 O40 2.627474 1_555
Ag18 O55 2.113237 1_555
Ag18 O61 2.113898 1_555
Ag19 O66 2.337762 1_555
Ag19 O15 2.338213 1_555
Ag19 O19 2.340823 1_455
Ag20 O27 2.107289 1_555
Ag20 O17 2.117619 1_555
Ag21 O70 2.110287 1_555
Ag21 O48 2.116182 1_555
Ag22 O56 2.110287 1_555
Ag22 O42 2.116182 1_555
Ag23 O34 2.113237 1_555
Ag23 O60 2.113898 1_555
Ag24 O7 2.106601 1_555
Ag24 O33 2.120212 1_555
Ag25 O31 2.398904 1_555
Ag25 O38 2.402303 1_555
Ag25 O17 2.410720 1_555
Ag25 O37 2.595346 1_555
Ag25 O2 2.599624 1_555
Ag25 O70 2.615745 1_555
Ag26 O0 2.113759 1_555
Ag26 O59 2.113794 1_555
Ag27 O39 2.108310 1_555
Ag27 O35 2.115072 1_555
Ag28 O29 2.113759 1_555
Ag28 O67 2.113794 1_555
Ag29 O57 2.108310 1_555
Ag29 O23 2.115072 1_555
Ag30 O5 2.105404 1_555
Ag30 O38 2.116663 1_555
Ag31 O65 2.113759 1_555
Ag31 O26 2.113794 1_555
Ag32 O8 2.105404 1_555
Ag32 O52 2.116663 1_555
Ag33 O61 2.393943 1_556
Ag33 O25 2.401584 1_455
Ag33 O22 2.404487 1_555
Ag33 O39 2.604675 1_455
Ag33 O0 2.613353 1_555
Ag33 O26 2.627474 1_456
Ag34 O3 2.107296 1_555
Ag34 O66 2.125176 1_555
Ag35 O50 2.110287 1_555
Ag35 O62 2.116182 1_555
Ag36 O25 2.113237 1_555
Ag36 O24 2.113898 1_555
Ag37 O32 2.107296 1_555
Ag37 O36 2.125176 1_555
Ag38 O2 2.111654 1_555
Ag38 O15 2.125870 1_555
Ag39 O68 2.111654 1_555
Ag39 O45 2.125870 1_555
Ag40 O23 2.398904 1_555
Ag40 O51 2.402303 1_455
Ag40 O16 2.410720 1_555
Ag40 O7 2.595346 1_455
Ag40 O20 2.599624 1_555
Ag40 O56 2.615745 1_455
Ag41 O14 2.108310 1_555
Ag41 O31 2.115072 1_555
Ag42 O30 2.105404 1_555
Ag42 O46 2.116663 1_555
Ag43 O20 2.111654 1_555
Ag43 O21 2.125870 1_555
Ag44 O24 2.393943 1_554
Ag44 O55 2.401584 1_555
Ag44 O48 2.404487 1_555
Ag44 O14 2.604675 1_545
Ag44 O65 2.613353 1_545
Ag44 O59 2.627474 1_544
Ag45 O49 2.113237 1_555
Ag45 O12 2.113898 1_555
Ag46 O12 2.393943 1_555
Ag46 O34 2.401584 1_655
Ag46 O42 2.404487 1_555
Ag46 O57 2.604675 1_665
Ag46 O6 2.613353 1_565
Ag46 O67 2.627474 1_665
Ag47 O28 2.106601 1_555
Ag47 O71 2.120212 1_555
O0 Sn10 2.107662 1_556
O0 Sn2 2.108143 1_555
O1 Sn12 2.109568 1_545
O1 Sn9 2.111374 1_545
O2 Sn3 2.103561 1_555
O2 Sn19 2.113372 1_455
O3 Sn3 2.097277 1_555
O3 Sn11 2.100769 1_555
O4 Sn14 2.097277 1_565
O4 Sn16 2.100769 1_565
O5 Sn15 2.096914 1_555
O5 Sn22 2.099748 1_555
O6 Sn5 2.107662 1_555
O6 Sn4 2.108143 1_555
O7 Sn18 2.106359 1_555
O7 Sn23 2.109577 1_655
O8 Sn6 2.096914 1_555
O8 Sn7 2.099748 1_555
O9 Sn5 2.110047 1_555
O9 Sn0 2.118528 1_655
O10 Sn6 2.118672 1_555
O10 Sn7 2.119670 1_655
O11 Sn14 2.115753 1_555
O11 Sn16 2.124915 1_555
O12 Sn0 2.114705 1_665
O12 Sn5 2.115567 1_565
O13 Sn3 2.114029 1_655
O13 Sn11 2.122136 1_555
O14 Sn15 2.105151 1_555
O14 Sn22 2.109315 1_455
O15 Sn15 2.118672 1_545
O15 Sn22 2.119670 1_445
O16 Sn18 2.115753 1_555
O16 Sn23 2.124915 1_555
O17 Sn3 2.115753 1_555
O17 Sn11 2.124915 1_555
O18 Sn17 2.096691 1_655
O18 Sn23 2.102498 1_655
O19 Sn15 2.117247 1_545
O19 Sn16 2.120058 1_555
O20 Sn18 2.103561 1_555
O20 Sn13 2.113372 1_555
O21 Sn1 2.118672 1_465
O21 Sn4 2.119670 1_565
O22 Sn2 2.120033 1_555
O22 Sn17 2.121312 1_555
O23 Sn21 2.110047 1_455
O23 Sn13 2.118528 1_555
O24 Sn12 2.114705 1_545
O24 Sn9 2.115567 1_645
O25 Sn10 2.111249 1_556
O25 Sn2 2.123713 1_555
O26 Sn10 2.105366 1_555
O26 Sn19 2.113649 1_555
O27 Sn15 2.096691 1_555
O27 Sn16 2.102498 1_565
O28 Sn14 2.106359 1_465
O28 Sn16 2.109577 1_565
O29 Sn21 2.107662 1_455
O29 Sn7 2.108143 1_555
O30 Sn17 2.096914 1_555
O30 Sn2 2.099748 1_555
O31 Sn10 2.110047 1_555
O31 Sn19 2.118528 1_455
O32 Sn18 2.097277 1_555
O32 Sn23 2.100769 1_555
O33 Sn1 2.117247 1_565
O33 Sn20 2.120058 1_555
O34 Sn5 2.111249 1_565
O34 Sn4 2.123713 1_565
O35 Sn9 2.110047 1_655
O35 Sn12 2.118528 1_555
O36 Sn8 2.114029 1_555
O36 Sn20 2.122136 1_455
O37 Sn3 2.106359 1_655
O37 Sn11 2.109577 1_555
O38 Sn19 2.114715 1_555
O38 Sn3 2.121381 1_655
O39 Sn17 2.105151 1_655
O39 Sn2 2.109315 1_555
O40 Sn21 2.105366 1_555
O40 Sn13 2.113649 1_555
O41 Sn1 2.096914 1_555
O41 Sn4 2.099748 1_555
O42 Sn4 2.120033 1_565
O42 Sn1 2.121312 1_565
O43 Sn8 2.115753 1_555
O43 Sn20 2.124915 1_555
O44 Sn8 2.097277 1_545
O44 Sn20 2.100769 1_545
O45 Sn17 2.118672 1_655
O45 Sn2 2.119670 1_555
O46 Sn12 2.114715 1_555
O46 Sn8 2.121381 1_555
O47 Sn17 2.117247 1_555
O47 Sn23 2.120058 1_555
O48 Sn22 2.120033 1_545
O48 Sn15 2.121312 1_545
O49 Sn21 2.111249 1_555
O49 Sn7 2.123713 1_655
O50 Sn0 2.109568 1_565
O50 Sn5 2.111374 1_565
O51 Sn13 2.114715 1_555
O51 Sn18 2.121381 1_555
O52 Sn0 2.114715 1_555
O52 Sn14 2.121381 1_455
O53 Sn6 2.105151 1_555
O53 Sn7 2.109315 1_655
O54 Sn1 2.096691 1_455
O54 Sn20 2.102498 1_445
O55 Sn9 2.111249 1_544
O55 Sn22 2.123713 1_445
O56 Sn13 2.109568 1_555
O56 Sn21 2.111374 1_555
O57 Sn1 2.105151 1_455
O57 Sn4 2.109315 1_555
O58 Sn6 2.096691 1_555
O58 Sn11 2.102498 1_555
O59 Sn9 2.105366 1_555
O59 Sn12 2.113649 1_555
O60 Sn13 2.114705 1_555
O60 Sn21 2.115567 1_455
O61 Sn19 2.114705 1_455
O61 Sn10 2.115567 1_555
O62 Sn7 2.120033 1_555
O62 Sn6 2.121312 1_555
O63 Sn14 2.103561 1_565
O63 Sn0 2.113372 1_665
O64 Sn18 2.114029 1_555
O64 Sn23 2.122136 1_655
O65 Sn9 2.107662 1_654
O65 Sn22 2.108143 1_555
O66 Sn14 2.114029 1_455
O66 Sn16 2.122136 1_555
O67 Sn5 2.105366 1_555
O67 Sn0 2.113649 1_555
O68 Sn8 2.103561 1_545
O68 Sn12 2.113372 1_545
O69 Sn8 2.106359 1_545
O69 Sn20 2.109577 1_445
O70 Sn19 2.109568 1_555
O70 Sn10 2.111374 1_555
O71 Sn6 2.117247 1_555
O71 Sn11 2.120058 1_555
