# generated using pymatgen
data_Na2UI6
_symmetry_space_group_name_H-M   'P 1'
_cell_length_a   9.90226900
_cell_length_b   9.90226900
_cell_length_c   9.90226900
_cell_angle_alpha   90.00000000
_cell_angle_beta   90.00000000
_cell_angle_gamma   90.00000000
_symmetry_Int_Tables_number   1
_chemical_formula_structural   Na2UI6
_chemical_formula_sum   'Na4 U2 I12'
_cell_volume   970.96630699
_cell_formula_units_Z   2
loop_
 _symmetry_equiv_pos_site_id
 _symmetry_equiv_pos_as_xyz
  1  'x, y, z'
loop_
 _atom_site_type_symbol
 _atom_site_label
 _atom_site_symmetry_multiplicity
 _atom_site_fract_x
 _atom_site_fract_y
 _atom_site_fract_z
 _atom_site_occupancy
  Na  Na0  1  0.25000000  0.75000000  0.25000000  1
  Na  Na1  1  0.75000000  0.25000000  0.25000000  1
  Na  Na2  1  0.75000000  0.75000000  0.75000000  1
  Na  Na3  1  0.25000000  0.25000000  0.75000000  1
  U  U0  1  0.00000000  0.00000000  0.00000000  1
  U  U1  1  0.50000000  0.50000000  0.50000000  1
  I  I0  1  0.30321400  0.00000000  0.00000000  1
  I  I1  1  0.00000000  0.30321400  0.00000000  1
  I  I2  1  0.50000000  0.50000000  0.19678600  1
  I  I3  1  0.00000000  0.69678600  0.00000000  1
  I  I4  1  0.50000000  0.80321400  0.50000000  1
  I  I5  1  0.80321400  0.50000000  0.50000000  1
  I  I6  1  0.19678600  0.50000000  0.50000000  1
  I  I7  1  0.00000000  0.00000000  0.30321400  1
  I  I8  1  0.00000000  0.00000000  0.69678600  1
  I  I9  1  0.50000000  0.19678600  0.50000000  1
  I  I10  1  0.69678600  0.00000000  0.00000000  1
  I  I11  1  0.50000000  0.50000000  0.80321400  1
loop_
_geom_bond_atom_site_label_1
_geom_bond_atom_site_label_2
_geom_bond_distance
_geom_bond_site_symmetry_2
I0 U0 3.002507 1_555
I0 Na3 3.540414 1_554
I0 Na0 3.540414 1_545
I1 U0 3.002507 1_555
I1 Na3 3.540414 1_554
I1 Na1 3.540414 1_455
I2 U1 3.002507 1_555
I2 Na1 3.540414 1_555
I2 Na0 3.540414 1_555
I3 U0 3.002507 1_565
I3 Na2 3.540414 1_454
I3 Na0 3.540414 1_555
I4 U1 3.002507 1_555
I4 Na2 3.540414 1_555
I4 Na0 3.540414 1_555
I5 U1 3.002507 1_555
I5 Na2 3.540414 1_555
I5 Na1 3.540414 1_555
I6 U1 3.002507 1_555
I6 Na3 3.540414 1_555
I6 Na0 3.540414 1_555
I7 U0 3.002507 1_555
I7 Na0 3.540414 1_545
I7 Na1 3.540414 1_455
I8 U0 3.002507 1_556
I8 Na3 3.540414 1_555
I8 Na2 3.540414 1_445
I9 U1 3.002507 1_555
I9 Na1 3.540414 1_555
I9 Na3 3.540414 1_555
I10 U0 3.002507 1_655
I10 Na1 3.540414 1_555
I10 Na2 3.540414 1_544
I11 U1 3.002507 1_555
I11 Na2 3.540414 1_555
I11 Na3 3.540414 1_555
