# generated using pymatgen
data_Li3Bi3P8O29
_symmetry_space_group_name_H-M   'P 1'
_cell_length_a   10.15831700
_cell_length_b   10.19790368
_cell_length_c   14.60248191
_cell_angle_alpha   91.14189997
_cell_angle_beta   89.93892365
_cell_angle_gamma   119.85096389
_symmetry_Int_Tables_number   1
_chemical_formula_structural   Li3Bi3P8O29
_chemical_formula_sum   'Li6 Bi6 P16 O58'
_cell_volume   1311.69040808
_cell_formula_units_Z   2
loop_
 _symmetry_equiv_pos_site_id
 _symmetry_equiv_pos_as_xyz
  1  'x, y, z'
loop_
 _atom_site_type_symbol
 _atom_site_label
 _atom_site_symmetry_multiplicity
 _atom_site_fract_x
 _atom_site_fract_y
 _atom_site_fract_z
 _atom_site_occupancy
  Li  Li0  1  0.92885100  0.71708600  0.94043600  1
  Li  Li1  1  0.07328700  0.28660900  0.05154600  1
  Li  Li2  1  0.69624300  0.77774400  0.05072800  1
  Li  Li3  1  0.95715500  0.93030900  0.50402600  1
  Li  Li4  1  0.22105200  0.30358800  0.55795200  1
  Li  Li5  1  0.33983600  0.68527700  0.39852300  1
  Bi  Bi0  1  0.00047900  0.56799300  0.74453600  1
  Bi  Bi1  1  0.99445200  0.42888000  0.25108900  1
  Bi  Bi2  1  0.43414700  0.43228300  0.74968600  1
  Bi  Bi3  1  0.43179400  0.00532000  0.24705200  1
  Bi  Bi4  1  0.57283200  0.56842700  0.25238600  1
  Bi  Bi5  1  0.56712100  0.00047300  0.74607900  1
  P  P0  1  0.76663700  0.07612900  0.15767100  1
  P  P1  1  0.29638600  0.07306800  0.65385800  1
  P  P2  1  0.77696600  0.69749300  0.65706800  1
  P  P3  1  0.33187900  0.66075300  0.12263100  1
  P  P4  1  0.66647700  0.33442300  0.37679700  1
  P  P5  1  0.08605100  0.32022500  0.84396500  1
  P  P6  1  0.91901500  0.21983600  0.66025100  1
  P  P7  1  0.31170100  0.23054600  0.16262600  1
  P  P8  1  0.67252800  0.33770800  0.87534900  1
  P  P9  1  0.91664900  0.68267000  0.15294600  1
  P  P10  1  0.69253300  0.92070800  0.34559900  1
  P  P11  1  0.33462400  0.66185900  0.62425100  1
  P  P12  1  0.23095700  0.92481800  0.84350500  1
  P  P13  1  0.23048400  0.32172900  0.34683300  1
  P  P14  1  0.68524500  0.77291300  0.84161600  1
  P  P15  1  0.08458100  0.78089000  0.33959700  1
  O  O0  1  0.87921900  0.51731800  0.16806900  1
  O  O1  1  0.10761700  0.63930100  0.34025600  1
  O  O2  1  0.19038300  0.50655200  0.15391400  1
  O  O3  1  0.22410800  0.00796300  0.92591900  1
  O  O4  1  0.23148000  0.22246100  0.26083900  1
  O  O5  1  0.52049200  0.31879500  0.83409700  1
  O  O6  1  0.99405300  0.75114800  0.06582200  1
  O  O7  1  0.33450100  0.66350800  0.01994600  1
  O  O8  1  0.35993200  0.48974800  0.33305700  1
  O  O9  1  0.78907400  0.00480500  0.42620800  1
  O  O10  1  0.75439900  0.97693100  0.07863300  1
  O  O11  1  0.08322700  0.76374300  0.84116600  1
  O  O12  1  0.45357400  0.08226700  0.65139500  1
  O  O13  1  0.01395800  0.20858900  0.58594000  1
  O  O14  1  0.48966100  0.79039900  0.66413300  1
  O  O15  1  0.91805400  0.23075400  0.15383700  1
  O  O16  1  0.51217500  0.20153900  0.33837900  1
  O  O17  1  0.52023400  0.63985800  0.82846900  1
  O  O18  1  0.98693500  0.21371800  0.75902700  1
  O  O19  1  0.52607500  0.89335100  0.33897100  1
  O  O20  1  0.31479900  0.07970900  0.15497100  1
  O  O21  1  0.66582200  0.33528000  0.47960800  1
  O  O22  1  0.01388100  0.78196200  0.24040100  1
  O  O23  1  0.80113600  0.31296400  0.34105300  1
  O  O24  1  0.33142700  0.66002200  0.52133400  1
  O  O25  1  0.00587800  0.25307300  0.93076300  1
  O  O26  1  0.48677500  0.67284500  0.15518600  1
  O  O27  1  0.91953400  0.67696200  0.65346900  1
  O  O28  1  0.76260900  0.68397500  0.15569400  1
  O  O29  1  0.20654900  0.68739700  0.66530200  1
  O  O30  1  0.47957300  0.36099500  0.17158500  1
  O  O31  1  0.68941400  0.48937700  0.34117300  1
  O  O32  1  0.67949700  0.76116100  0.34513000  1
  O  O33  1  0.81141200  0.49458500  0.84432300  1
  O  O34  1  0.63701600  0.11461800  0.16685500  1
  O  O35  1  0.31988200  0.23842000  0.65526500  1
  O  O36  1  0.37247200  0.90358800  0.83668800  1
  O  O37  1  0.22060200  0.00246300  0.75034700  1
  O  O38  1  0.67987600  0.92167200  0.84195300  1
  O  O39  1  0.62900600  0.54192900  0.65552300  1
  O  O40  1  0.90281900  0.36369100  0.65858200  1
  O  O41  1  0.69309700  0.20584500  0.83343700  1
  O  O42  1  0.77543000  0.00082100  0.25197900  1
  O  O43  1  0.18906600  0.99360000  0.57614800  1
  O  O44  1  0.31321400  0.78943400  0.17045700  1
  O  O45  1  0.07743600  0.32180000  0.34413500  1
  O  O46  1  0.22262700  0.24414200  0.08714200  1
  O  O47  1  0.67018800  0.33859600  0.97800100  1
  O  O48  1  0.24626300  0.92324000  0.34259000  1
  O  O49  1  0.75972200  0.75897000  0.92738400  1
  O  O50  1  0.24185000  0.32484800  0.84206400  1
  O  O51  1  0.75848800  0.07620400  0.65463400  1
  O  O52  1  0.31176600  0.50283500  0.65376000  1
  O  O53  1  0.11742100  0.48328000  0.82675700  1
  O  O54  1  0.99362000  0.79556100  0.41463600  1
  O  O55  1  0.78713000  0.77595600  0.75663700  1
  O  O56  1  0.79484000  0.80242200  0.58238700  1
  O  O57  1  0.23934700  0.25235700  0.43373600  1
loop_
_geom_bond_atom_site_label_1
_geom_bond_atom_site_label_2
_geom_bond_distance
_geom_bond_site_symmetry_2
Li0 O6 1.913093 1_556
Li0 O49 1.976103 1_555
Li0 O11 2.016631 1_655
Li0 O33 2.392376 1_555
Li1 O46 1.850362 1_555
Li1 O25 1.855266 1_554
Li1 O15 2.043760 1_455
Li1 O2 2.427852 1_555
Li2 O10 1.847728 1_555
Li2 O49 1.950184 1_554
Li2 O28 2.102537 1_555
Li2 O26 2.406425 1_555
Li3 O56 1.908844 1_555
Li3 O54 2.040476 1_555
Li3 O43 2.353756 1_655
Li3 O9 2.472553 1_565
Li4 O13 1.875185 1_555
Li4 O57 1.912003 1_555
Li4 O35 2.042968 1_555
Li4 O52 2.227235 1_555
Li5 O24 1.812704 1_555
Li5 O19 2.216231 1_555
Li5 O8 2.293546 1_555
Li5 O1 2.322881 1_555
Bi0 O27 2.156442 1_455
Bi0 O53 2.159866 1_555
Bi0 O29 2.171845 1_555
Bi0 O40 2.177423 1_455
Bi0 O11 2.214137 1_555
Bi0 O33 2.231276 1_455
Bi1 O23 2.173714 1_555
Bi1 O45 2.174185 1_655
Bi1 O0 2.179647 1_555
Bi1 O15 2.242399 1_555
Bi1 O1 2.248933 1_655
Bi1 O2 2.252051 1_655
Bi2 O17 2.152083 1_555
Bi2 O5 2.167444 1_555
Bi2 O50 2.181423 1_555
Bi2 O35 2.183393 1_555
Bi2 O39 2.216134 1_555
Bi2 O52 2.227012 1_555
Bi3 O48 2.160889 1_545
Bi3 O34 2.166437 1_555
Bi3 O16 2.172265 1_555
Bi3 O20 2.176585 1_555
Bi3 O44 2.194009 1_545
Bi3 O19 2.274904 1_545
Bi4 O32 2.155979 1_555
Bi4 O30 2.161565 1_555
Bi4 O31 2.174545 1_555
Bi4 O28 2.213069 1_555
Bi4 O26 2.214106 1_555
Bi4 O8 2.239096 1_555
Bi5 O51 2.167846 1_555
Bi5 O36 2.176758 1_545
Bi5 O14 2.205057 1_545
Bi5 O41 2.209114 1_555
Bi5 O38 2.209588 1_545
Bi5 O12 2.223735 1_555
O0 P9 1.553434 1_555
O1 P15 1.573738 1_555
O2 P3 1.588917 1_555
O3 P12 1.479848 1_545
O4 P13 1.600392 1_555
O4 P7 1.631873 1_555
O5 P8 1.576751 1_555
O6 P9 1.486992 1_555
O7 P3 1.500239 1_555
O8 P13 1.573438 1_555
O9 P10 1.485856 1_545
O10 P0 1.483056 1_565
O11 P12 1.579675 1_555
O12 P1 1.552626 1_555
O13 P6 1.491230 1_455
O14 P11 1.566587 1_555
O15 P0 1.563433 1_555
O16 P4 1.570049 1_555
O17 P14 1.553658 1_555
O18 P5 1.610011 1_655
O18 P6 1.615219 1_555
O19 P10 1.573566 1_555
O20 P7 1.555937 1_555
O21 P4 1.501174 1_555
O22 P9 1.608505 1_455
O22 P15 1.620111 1_555
O23 P4 1.575887 1_555
O24 P11 1.502771 1_555
O25 P5 1.488591 1_555
O26 P3 1.588441 1_555
O27 P2 1.563741 1_555
O28 P9 1.571917 1_555
O29 P11 1.565008 1_555
O30 P7 1.558867 1_555
O31 P4 1.577315 1_555
O32 P10 1.565225 1_555
O33 P8 1.592402 1_555
O34 P0 1.554944 1_555
O35 P1 1.580753 1_555
O36 P12 1.559490 1_555
O37 P1 1.607055 1_555
O37 P12 1.617006 1_545
O38 P14 1.544813 1_555
O39 P2 1.549613 1_555
O40 P6 1.556121 1_555
O41 P8 1.572625 1_555
O42 P10 1.613286 1_545
O42 P0 1.613992 1_555
O43 P1 1.489773 1_565
O44 P3 1.567365 1_555
O45 P13 1.555612 1_555
O46 P7 1.478525 1_555
O47 P8 1.499055 1_555
O48 P15 1.559140 1_555
O49 P14 1.509099 1_555
O50 P5 1.559959 1_555
O51 P6 1.558546 1_555
O52 P11 1.588181 1_555
O53 P5 1.555199 1_555
O54 P15 1.485190 1_655
O55 P14 1.605869 1_555
O55 P2 1.623762 1_555
O56 P2 1.489937 1_555
O57 P13 1.489423 1_555
