# generated using pymatgen
data_Mg3(AsO4)2
_symmetry_space_group_name_H-M   'P 1'
_cell_length_a   7.16916700
_cell_length_b   8.91098129
_cell_length_c   8.94374975
_cell_angle_alpha   65.19600967
_cell_angle_beta   71.95356769
_cell_angle_gamma   78.78881543
_symmetry_Int_Tables_number   1
_chemical_formula_structural   Mg3(AsO4)2
_chemical_formula_sum   'Mg9 As6 O24'
_cell_volume   491.76351825
_cell_formula_units_Z   3
loop_
 _symmetry_equiv_pos_site_id
 _symmetry_equiv_pos_as_xyz
  1  'x, y, z'
loop_
 _atom_site_type_symbol
 _atom_site_label
 _atom_site_symmetry_multiplicity
 _atom_site_fract_x
 _atom_site_fract_y
 _atom_site_fract_z
 _atom_site_occupancy
  Mg  Mg0  1  0.77824100  0.01347200  0.65032500  1
  Mg  Mg1  1  0.76900200  0.81745100  0.42241600  1
  Mg  Mg2  1  0.56703500  0.25668500  0.31532000  1
  Mg  Mg3  1  0.33232100  0.33468200  0.79044700  1
  Mg  Mg4  1  0.63143100  0.53818000  0.90892800  1
  Mg  Mg5  1  0.59975500  0.83035200  0.11798400  1
  Mg  Mg6  1  0.16876200  0.19922800  0.59899700  1
  Mg  Mg7  1  0.07903200  0.51770700  0.03319100  1
  Mg  Mg8  1  0.21320800  0.61071500  0.32609800  1
  As  As0  1  0.78193600  0.19860100  0.84652600  1
  As  As1  1  0.96626800  0.16812600  0.11254800  1
  As  As2  1  0.26870100  0.98621800  0.36468800  1
  As  As3  1  0.69539500  0.46092200  0.46377600  1
  As  As4  1  0.99965900  0.69907400  0.68026900  1
  As  As5  1  0.18881900  0.89313900  0.94554100  1
  O  O0  1  0.88758300  0.63885400  0.90750000  1
  O  O1  1  0.88295200  0.23360700  0.61874900  1
  O  O2  1  0.73882000  0.74946800  0.67260300  1
  O  O3  1  0.92237100  0.15553400  0.33935500  1
  O  O4  1  0.97828400  0.56305000  0.25665700  1
  O  O5  1  0.74648500  0.05526600  0.41757800  1
  O  O6  1  0.58216600  0.58056500  0.25639200  1
  O  O7  1  0.87079800  0.73096300  0.22503700  1
  O  O8  1  0.58724000  0.35969500  0.82466700  1
  O  O9  1  0.67255100  0.01280600  0.88945500  1
  O  O10  1  0.76029600  0.31807200  0.09022900  1
  O  O11  1  0.55375000  0.29886200  0.52559700  1
  O  O12  1  0.51615100  0.88682200  0.33290400  1
  O  O13  1  0.27294800  0.08964300  0.80564600  1
  O  O14  1  0.28786500  0.60103100  0.75066600  1
  O  O15  1  0.45599100  0.49501400  0.21501100  1
  O  O16  1  0.19968600  0.42934700  0.58362400  1
  O  O17  1  0.31980100  0.15449800  0.40145300  1
  O  O18  1  0.16484300  0.29366200  0.03258900  1
  O  O19  1  0.07471200  0.90742500  0.62417800  1
  O  O20  1  0.02486600  0.46458300  0.71276900  1
  O  O21  1  0.06483100  0.74656100  0.45231900  1
  O  O22  1  0.31951700  0.82193600  0.10072900  1
  O  O23  1  0.32592600  0.63818600  0.88724200  1
loop_
_geom_bond_atom_site_label_1
_geom_bond_atom_site_label_2
_geom_bond_distance
_geom_bond_site_symmetry_2
Mg0 O5 2.033203 1_555
Mg0 O9 2.033553 1_555
Mg0 O1 2.113693 1_555
Mg0 O19 2.135805 1_645
Mg0 O2 2.341869 1_545
Mg1 O2 2.008572 1_555
Mg1 O5 2.076815 1_565
Mg1 O12 2.087396 1_555
Mg1 O7 2.089851 1_555
Mg1 O21 2.158074 1_655
Mg2 O17 1.938374 1_555
Mg2 O10 1.978454 1_555
Mg2 O15 2.033566 1_555
Mg2 O11 2.038474 1_555
Mg2 O5 2.041280 1_555
Mg3 O8 2.011342 1_555
Mg3 O18 2.039787 1_556
Mg3 O16 2.122754 1_555
Mg3 O14 2.220121 1_555
Mg3 O13 2.245889 1_555
Mg3 O20 2.441914 1_555
Mg3 O11 2.518027 1_555
Mg4 O8 2.132471 1_555
Mg4 O0 2.189469 1_555
Mg4 O2 2.195804 1_555
Mg4 O10 2.210181 1_556
Mg4 O23 2.233389 1_555
Mg4 O15 2.528897 1_556
Mg5 O9 1.993534 1_564
Mg5 O6 2.050187 1_555
Mg5 O12 2.070685 1_555
Mg5 O22 2.079955 1_555
Mg5 O7 2.291065 1_555
Mg6 O17 1.921099 1_555
Mg6 O1 1.974991 1_455
Mg6 O13 1.996193 1_555
Mg6 O16 2.047997 1_555
Mg6 O19 2.713481 1_545
Mg7 O0 1.916908 1_454
Mg7 O18 1.973252 1_555
Mg7 O23 2.030043 1_554
Mg7 O4 2.085454 1_455
Mg7 O14 2.385765 1_554
Mg8 O21 1.942456 1_555
Mg8 O15 2.042017 1_555
Mg8 O4 2.133133 1_455
Mg8 O22 2.146903 1_555
Mg8 O16 2.173866 1_555
Mg8 O6 2.509980 1_555
As0 O8 1.789313 1_555
As0 O9 1.813398 1_555
As0 O1 1.847285 1_555
As1 O18 1.762597 1_655
As1 O10 1.788098 1_555
As1 O3 1.911464 1_555
As2 O17 1.786869 1_565
As2 O12 1.816653 1_555
As2 O19 2.196826 1_555
As3 O11 1.724759 1_555
As3 O6 2.042798 1_555
As3 O4 2.312653 1_555
As3 O1 2.360541 1_555
As4 O0 1.817885 1_555
As4 O21 1.821166 1_655
As4 O19 1.851469 1_655
As4 O2 1.852112 1_555
As4 O20 1.964549 1_655
As4 O14 2.251980 1_655
As5 O22 1.744327 1_556
As5 O13 1.760765 1_565
As5 O23 2.491485 1_555
O3 O5 1.498277 1_555
O4 O7 1.498079 1_555
O14 O23 1.502366 1_555
O15 O6 1.499563 1_555
O16 O20 1.502616 1_555
