# generated using pymatgen
data_CaH4(ClO)2
_symmetry_space_group_name_H-M   'P 1'
_cell_length_a   5.89855100
_cell_length_b   7.60072100
_cell_length_c   12.12593600
_cell_angle_alpha   90.00000000
_cell_angle_beta   90.00000000
_cell_angle_gamma   90.00000000
_symmetry_Int_Tables_number   1
_chemical_formula_structural   CaH4(ClO)2
_chemical_formula_sum   'Ca4 H16 Cl8 O8'
_cell_volume   543.64500443
_cell_formula_units_Z   4
loop_
 _symmetry_equiv_pos_site_id
 _symmetry_equiv_pos_as_xyz
  1  'x, y, z'
loop_
 _atom_site_type_symbol
 _atom_site_label
 _atom_site_symmetry_multiplicity
 _atom_site_fract_x
 _atom_site_fract_y
 _atom_site_fract_z
 _atom_site_occupancy
  Ca  Ca0  1  0.00000000  0.78240500  0.75000000  1
  Ca  Ca1  1  0.50000000  0.71759500  0.25000000  1
  Ca  Ca2  1  0.00000000  0.21759500  0.25000000  1
  Ca  Ca3  1  0.50000000  0.28240500  0.75000000  1
  H  H0  1  0.40128900  0.71529900  0.60327900  1
  H  H1  1  0.09871100  0.78470100  0.10327900  1
  H  H2  1  0.90128900  0.78470100  0.39672100  1
  H  H3  1  0.59871100  0.71529900  0.89672100  1
  H  H4  1  0.59871100  0.28470100  0.39672100  1
  H  H5  1  0.90128900  0.21529900  0.89672100  1
  H  H6  1  0.09871100  0.21529900  0.60327900  1
  H  H7  1  0.40128900  0.28470100  0.10327900  1
  H  H8  1  0.25471800  0.85095500  0.53550900  1
  H  H9  1  0.24528200  0.64904500  0.03550900  1
  H  H10  1  0.75471800  0.64904500  0.46449100  1
  H  H11  1  0.74528200  0.85095500  0.96449100  1
  H  H12  1  0.74528200  0.14904500  0.46449100  1
  H  H13  1  0.75471800  0.35095500  0.96449100  1
  H  H14  1  0.24528200  0.35095500  0.53550900  1
  H  H15  1  0.25471800  0.14904500  0.03550900  1
  Cl  Cl0  1  0.71896300  0.55107600  0.63514400  1
  Cl  Cl1  1  0.78103700  0.94892400  0.13514400  1
  Cl  Cl2  1  0.21896300  0.94892400  0.36485600  1
  Cl  Cl3  1  0.28103700  0.55107600  0.86485600  1
  Cl  Cl4  1  0.28103700  0.44892400  0.36485600  1
  Cl  Cl5  1  0.21896300  0.05107600  0.86485600  1
  Cl  Cl6  1  0.78103700  0.05107600  0.63514400  1
  Cl  Cl7  1  0.71896300  0.44892400  0.13514400  1
  O  O0  1  0.26198300  0.78654900  0.60552200  1
  O  O1  1  0.23801700  0.71345100  0.10552200  1
  O  O2  1  0.76198300  0.71345100  0.39447800  1
  O  O3  1  0.73801700  0.78654900  0.89447800  1
  O  O4  1  0.73801700  0.21345100  0.39447800  1
  O  O5  1  0.76198300  0.28654900  0.89447800  1
  O  O6  1  0.23801700  0.28654900  0.60552200  1
  O  O7  1  0.26198300  0.21345100  0.10552200  1
loop_
_geom_bond_atom_site_label_1
_geom_bond_atom_site_label_2
_geom_bond_distance
_geom_bond_site_symmetry_2
Ca0 O3 2.336294 1_455
Ca0 O0 2.336294 1_555
Ca0 Cl5 2.788906 1_565
Ca0 Cl6 2.788906 1_465
Ca0 Cl0 2.789126 1_455
Ca0 Cl3 2.789126 1_555
Ca1 O1 2.336294 1_555
Ca1 O2 2.336294 1_555
Ca1 Cl7 2.788906 1_555
Ca1 Cl4 2.788906 1_555
Ca1 Cl1 2.789126 1_555
Ca1 Cl2 2.789126 1_555
Ca2 O4 2.336294 1_455
Ca2 O7 2.336294 1_555
Ca2 Cl2 2.788906 1_545
Ca2 Cl1 2.788906 1_445
Ca2 Cl4 2.789126 1_555
Ca2 Cl7 2.789126 1_455
Ca3 O5 2.336294 1_555
Ca3 O6 2.336294 1_555
Ca3 Cl0 2.788906 1_555
Ca3 Cl3 2.788906 1_555
Ca3 Cl5 2.789126 1_555
Ca3 Cl6 2.789126 1_555
H0 O0 0.984487 1_555
H1 O1 0.984487 1_555
H2 O2 0.984487 1_555
H3 O3 0.984487 1_555
H4 O4 0.984487 1_555
H5 O5 0.984487 1_555
H6 O6 0.984487 1_555
H7 O7 0.984487 1_555
H8 O0 0.980935 1_555
H9 O1 0.980935 1_555
H10 O2 0.980935 1_555
H11 O3 0.980935 1_555
H12 O4 0.980935 1_555
H13 O5 0.980935 1_555
H14 O6 0.980935 1_555
H15 O7 0.980935 1_555
