# generated using pymatgen
data_LaFe5(GeO5)3
_symmetry_space_group_name_H-M   'P 1'
_cell_length_a   12.57646076
_cell_length_b   12.57646076
_cell_length_c   7.76491100
_cell_angle_alpha   90.00000000
_cell_angle_beta   90.00000000
_cell_angle_gamma   93.59387289
_symmetry_Int_Tables_number   1
_chemical_formula_structural   LaFe5(GeO5)3
_chemical_formula_sum   'La4 Fe20 Ge12 O60'
_cell_volume   1225.74026958
_cell_formula_units_Z   4
loop_
 _symmetry_equiv_pos_site_id
 _symmetry_equiv_pos_as_xyz
  1  'x, y, z'
loop_
 _atom_site_type_symbol
 _atom_site_label
 _atom_site_symmetry_multiplicity
 _atom_site_fract_x
 _atom_site_fract_y
 _atom_site_fract_z
 _atom_site_occupancy
  La  La0  1  0.44350900  0.94350900  0.25000000  1
  La  La1  1  0.05649100  0.55649100  0.75000000  1
  La  La2  1  0.94350900  0.44350900  0.25000000  1
  La  La3  1  0.55649100  0.05649100  0.75000000  1
  Fe  Fe0  1  0.20769100  0.54015500  0.35041700  1
  Fe  Fe1  1  0.04015500  0.70769100  0.14958300  1
  Fe  Fe2  1  0.63734500  0.45057600  0.29728100  1
  Fe  Fe3  1  0.86265500  0.04942400  0.79728100  1
  Fe  Fe4  1  0.36265500  0.54942400  0.70271900  1
  Fe  Fe5  1  0.95984500  0.29230900  0.85041700  1
  Fe  Fe6  1  0.79230900  0.45984500  0.64958300  1
  Fe  Fe7  1  0.29230900  0.95984500  0.85041700  1
  Fe  Fe8  1  0.13734500  0.95057600  0.20271900  1
  Fe  Fe9  1  0.45984500  0.79230900  0.64958300  1
  Fe  Fe10  1  0.39348200  0.39348200  0.31268900  1
  Fe  Fe11  1  0.70769100  0.04015500  0.14958300  1
  Fe  Fe12  1  0.89348200  0.89348200  0.18731100  1
  Fe  Fe13  1  0.04942400  0.86265500  0.79728100  1
  Fe  Fe14  1  0.95057600  0.13734500  0.20271900  1
  Fe  Fe15  1  0.54942400  0.36265500  0.70271900  1
  Fe  Fe16  1  0.54015500  0.20769100  0.35041700  1
  Fe  Fe17  1  0.45057600  0.63734500  0.29728100  1
  Fe  Fe18  1  0.60651800  0.60651800  0.68731100  1
  Fe  Fe19  1  0.10651800  0.10651800  0.81268900  1
  Ge  Ge0  1  0.88274000  0.70741300  0.51477400  1
  Ge  Ge1  1  0.78160700  0.21839300  0.50000000  1
  Ge  Ge2  1  0.28160700  0.71839300  0.00000000  1
  Ge  Ge3  1  0.20741300  0.38274000  0.98522600  1
  Ge  Ge4  1  0.21839300  0.78160700  0.50000000  1
  Ge  Ge5  1  0.71839300  0.28160700  0.00000000  1
  Ge  Ge6  1  0.11726000  0.29258700  0.48522600  1
  Ge  Ge7  1  0.38274100  0.20741300  0.98522600  1
  Ge  Ge8  1  0.61726000  0.79258700  0.01477400  1
  Ge  Ge9  1  0.79258700  0.61725900  0.01477400  1
  Ge  Ge10  1  0.70741300  0.88274000  0.51477400  1
  Ge  Ge11  1  0.29258700  0.11726000  0.48522600  1
  O  O0  1  0.84194500  0.00280200  0.03320300  1
  O  O1  1  0.42175200  0.92175200  0.75000000  1
  O  O2  1  0.52298700  0.75602900  0.17824400  1
  O  O3  1  0.89230800  0.56765900  0.51454400  1
  O  O4  1  0.91988300  0.75772300  0.31001300  1
  O  O5  1  0.49616500  0.49616500  0.77858400  1
  O  O6  1  0.50383500  0.50383500  0.22141600  1
  O  O7  1  0.43234100  0.10769200  0.48545600  1
  O  O8  1  0.24227700  0.08011700  0.68998700  1
  O  O9  1  0.00383500  0.00383500  0.27858400  1
  O  O10  1  0.35860300  0.68946300  0.81283600  1
  O  O11  1  0.68946300  0.35860300  0.81283600  1
  O  O12  1  0.57824800  0.07824800  0.25000000  1
  O  O13  1  0.75118700  0.75118700  0.55805200  1
  O  O14  1  0.99719800  0.15805500  0.96679700  1
  O  O15  1  0.47701300  0.24397100  0.82175600  1
  O  O16  1  0.34194500  0.50280200  0.46679700  1
  O  O17  1  0.58011700  0.74227700  0.81001300  1
  O  O18  1  0.31053700  0.64139700  0.18716400  1
  O  O19  1  0.50280200  0.34194500  0.46679700  1
  O  O20  1  0.18946300  0.85860300  0.68716400  1
  O  O21  1  0.14423300  0.69274100  0.95156000  1
  O  O22  1  0.41988300  0.25772300  0.18998700  1
  O  O23  1  0.25602900  0.02298700  0.32175600  1
  O  O24  1  0.14139700  0.81053700  0.31283600  1
  O  O25  1  0.56765900  0.89230800  0.51454400  1
  O  O26  1  0.24397100  0.47701300  0.82175600  1
  O  O27  1  0.02298700  0.25602900  0.32175600  1
  O  O28  1  0.92175200  0.42175200  0.75000000  1
  O  O29  1  0.74397100  0.97701300  0.67824400  1
  O  O30  1  0.75772300  0.91988300  0.31001300  1
  O  O31  1  0.93234100  0.60769200  0.01454400  1
  O  O32  1  0.25118700  0.25118700  0.94194800  1
  O  O33  1  0.65805500  0.49719800  0.53320300  1
  O  O34  1  0.24881300  0.24881300  0.44194800  1
  O  O35  1  0.30725900  0.85576700  0.04844000  1
  O  O36  1  0.80725900  0.35576700  0.45156000  1
  O  O37  1  0.35576700  0.80725900  0.45156000  1
  O  O38  1  0.15805500  0.99719800  0.96679700  1
  O  O39  1  0.81053700  0.14139700  0.31283600  1
  O  O40  1  0.00280200  0.84194500  0.03320300  1
  O  O41  1  0.25772300  0.41988300  0.18998700  1
  O  O42  1  0.10769200  0.43234100  0.48545600  1
  O  O43  1  0.08011700  0.24227700  0.68998700  1
  O  O44  1  0.75602900  0.52298700  0.17824400  1
  O  O45  1  0.07824800  0.57824800  0.25000000  1
  O  O46  1  0.64139700  0.31053700  0.18716400  1
  O  O47  1  0.85860300  0.18946300  0.68716400  1
  O  O48  1  0.49719800  0.65805500  0.53320300  1
  O  O49  1  0.39230800  0.06765900  0.98545600  1
  O  O50  1  0.99616500  0.99616500  0.72141600  1
  O  O51  1  0.74227700  0.58011700  0.81001300  1
  O  O52  1  0.64423300  0.19274100  0.54844000  1
  O  O53  1  0.69274100  0.14423300  0.95156000  1
  O  O54  1  0.06765900  0.39230800  0.98545600  1
  O  O55  1  0.85576700  0.30725900  0.04844000  1
  O  O56  1  0.74881300  0.74881300  0.05805200  1
  O  O57  1  0.19274100  0.64423300  0.54844000  1
  O  O58  1  0.60769200  0.93234100  0.01454400  1
  O  O59  1  0.97701300  0.74397100  0.67824400  1
loop_
_geom_bond_atom_site_label_1
_geom_bond_atom_site_label_2
_geom_bond_distance
_geom_bond_site_symmetry_2
La0 O12 2.320117 1_565
La0 O37 2.523168 1_555
La0 O35 2.523168 1_555
La0 O2 2.676640 1_555
La0 O23 2.676640 1_565
La0 O25 2.682934 1_555
La0 O49 2.682934 1_564
La0 O58 2.768089 1_555
La0 O7 2.768089 1_565
La1 O28 2.320117 1_455
La1 O21 2.523168 1_555
La1 O57 2.523168 1_555
La1 O59 2.676640 1_455
La1 O26 2.676640 1_555
La1 O42 2.682934 1_555
La1 O31 2.682934 1_456
La1 O54 2.768089 1_555
La1 O3 2.768089 1_455
La2 O45 2.320117 1_655
La2 O36 2.523168 1_555
La2 O55 2.523168 1_555
La2 O44 2.676640 1_555
La2 O27 2.676640 1_655
La2 O3 2.682934 1_555
La2 O54 2.682934 1_654
La2 O31 2.768089 1_555
La2 O42 2.768089 1_655
La3 O1 2.320117 1_545
La3 O53 2.523168 1_555
La3 O52 2.523168 1_555
La3 O29 2.676640 1_545
La3 O15 2.676640 1_555
La3 O7 2.682934 1_555
La3 O58 2.682934 1_546
La3 O49 2.768089 1_555
La3 O25 2.768089 1_545
Fe0 O45 1.893525 1_555
Fe0 O16 1.996895 1_555
Fe0 O57 2.035637 1_555
Fe0 O42 2.075058 1_555
Fe0 O41 2.086869 1_555
Fe0 O18 2.166713 1_555
Fe1 O45 1.893525 1_555
Fe1 O40 1.996895 1_555
Fe1 O21 2.035637 1_554
Fe1 O31 2.075058 1_455
Fe1 O4 2.086869 1_455
Fe1 O24 2.166713 1_555
Fe2 O44 1.934217 1_555
Fe2 O33 1.936077 1_555
Fe2 O6 1.938036 1_555
Fe2 O46 1.961317 1_555
Fe2 O19 2.484426 1_555
Fe3 O29 1.934217 1_545
Fe3 O0 1.936077 1_556
Fe3 O50 1.938036 1_545
Fe3 O47 1.961317 1_555
Fe3 O14 2.484426 1_555
Fe4 O26 1.934217 1_555
Fe4 O16 1.936077 1_555
Fe4 O5 1.938036 1_555
Fe4 O10 1.961317 1_555
Fe4 O48 2.484426 1_555
Fe5 O28 1.893525 1_555
Fe5 O14 1.996895 1_555
Fe5 O55 2.035637 1_556
Fe5 O54 2.075058 1_655
Fe5 O43 2.086869 1_655
Fe5 O47 2.166713 1_555
Fe6 O28 1.893525 1_555
Fe6 O33 1.996895 1_555
Fe6 O36 2.035637 1_555
Fe6 O3 2.075058 1_555
Fe6 O51 2.086869 1_555
Fe6 O11 2.166713 1_555
Fe7 O1 1.893525 1_555
Fe7 O38 1.996895 1_555
Fe7 O35 2.035637 1_556
Fe7 O49 2.075058 1_565
Fe7 O8 2.086869 1_565
Fe7 O20 2.166713 1_555
Fe8 O23 1.934217 1_565
Fe8 O38 1.936077 1_554
Fe8 O9 1.938036 1_565
Fe8 O24 1.961317 1_555
Fe8 O40 2.484426 1_555
Fe9 O1 1.893525 1_555
Fe9 O48 1.996895 1_555
Fe9 O37 2.035637 1_555
Fe9 O25 2.075058 1_555
Fe9 O17 2.086869 1_555
Fe9 O10 2.166713 1_555
Fe10 O19 1.963159 1_555
Fe10 O16 1.963159 1_555
Fe10 O22 2.001047 1_555
Fe10 O41 2.001047 1_555
Fe10 O6 2.028072 1_555
Fe11 O12 1.893525 1_555
Fe11 O0 1.996895 1_555
Fe11 O53 2.035637 1_554
Fe11 O58 2.075058 1_545
Fe11 O30 2.086869 1_545
Fe11 O39 2.166713 1_555
Fe12 O0 1.963159 1_565
Fe12 O40 1.963159 1_655
Fe12 O4 2.001047 1_555
Fe12 O30 2.001047 1_555
Fe12 O9 2.028072 1_665
Fe13 O59 1.934217 1_455
Fe13 O40 1.936077 1_556
Fe13 O50 1.938036 1_455
Fe13 O20 1.961317 1_555
Fe13 O38 2.484426 1_555
Fe14 O27 1.934217 1_655
Fe14 O14 1.936077 1_554
Fe14 O9 1.938036 1_655
Fe14 O39 1.961317 1_555
Fe14 O0 2.484426 1_555
Fe15 O15 1.934217 1_555
Fe15 O19 1.936077 1_555
Fe15 O5 1.938036 1_555
Fe15 O11 1.961317 1_555
Fe15 O33 2.484426 1_555
Fe16 O12 1.893525 1_555
Fe16 O19 1.996895 1_555
Fe16 O52 2.035637 1_555
Fe16 O7 2.075058 1_555
Fe16 O22 2.086869 1_555
Fe16 O46 2.166713 1_555
Fe17 O2 1.934217 1_555
Fe17 O48 1.936077 1_555
Fe17 O6 1.938036 1_555
Fe17 O18 1.961317 1_555
Fe17 O16 2.484426 1_555
Fe18 O48 1.963159 1_555
Fe18 O33 1.963159 1_555
Fe18 O51 2.001047 1_555
Fe18 O17 2.001047 1_555
Fe18 O5 2.028072 1_555
Fe19 O14 1.963159 1_455
Fe19 O38 1.963159 1_545
Fe19 O43 2.001047 1_555
Fe19 O8 2.001047 1_555
Fe19 O50 2.028072 1_445
Ge0 O4 1.763359 1_555
Ge0 O3 1.769235 1_555
Ge0 O59 1.777623 1_555
Ge0 O13 1.807613 1_555
Ge1 O52 1.777794 1_555
Ge1 O36 1.777794 1_555
Ge1 O39 1.796201 1_555
Ge1 O47 1.796201 1_555
Ge2 O35 1.777794 1_555
Ge2 O21 1.777794 1_554
Ge2 O18 1.796201 1_555
Ge2 O10 1.796201 1_554
Ge3 O41 1.763359 1_556
Ge3 O54 1.769235 1_555
Ge3 O26 1.777623 1_555
Ge3 O32 1.807613 1_555
Ge4 O57 1.777794 1_555
Ge4 O37 1.777794 1_555
Ge4 O24 1.796201 1_555
Ge4 O20 1.796201 1_555
Ge5 O55 1.777794 1_555
Ge5 O53 1.777794 1_554
Ge5 O46 1.796201 1_555
Ge5 O11 1.796201 1_554
Ge6 O43 1.763359 1_555
Ge6 O42 1.769235 1_555
Ge6 O27 1.777623 1_555
Ge6 O34 1.807613 1_555
Ge7 O22 1.763356 1_556
Ge7 O49 1.769234 1_555
Ge7 O15 1.777615 1_555
Ge7 O32 1.807625 1_555
Ge8 O17 1.763359 1_554
Ge8 O58 1.769235 1_555
Ge8 O2 1.777623 1_555
Ge8 O56 1.807613 1_555
Ge9 O51 1.763356 1_554
Ge9 O31 1.769234 1_555
Ge9 O44 1.777615 1_555
Ge9 O56 1.807625 1_555
Ge10 O30 1.763359 1_555
Ge10 O25 1.769235 1_555
Ge10 O29 1.777623 1_555
Ge10 O13 1.807613 1_555
Ge11 O8 1.763359 1_555
Ge11 O7 1.769235 1_555
Ge11 O23 1.777623 1_555
Ge11 O34 1.807613 1_555
