# generated using pymatgen
data_CaBPO5
_symmetry_space_group_name_H-M   'P 1'
_cell_length_a   6.69802765
_cell_length_b   6.69802765
_cell_length_c   6.80428000
_cell_angle_alpha   90.00000000
_cell_angle_beta   90.00000000
_cell_angle_gamma   119.99999655
_symmetry_Int_Tables_number   1
_chemical_formula_structural   CaBPO5
_chemical_formula_sum   'Ca3 B3 P3 O15'
_cell_volume   264.36666699
_cell_formula_units_Z   3
loop_
 _symmetry_equiv_pos_site_id
 _symmetry_equiv_pos_as_xyz
  1  'x, y, z'
loop_
 _atom_site_type_symbol
 _atom_site_label
 _atom_site_symmetry_multiplicity
 _atom_site_fract_x
 _atom_site_fract_y
 _atom_site_fract_z
 _atom_site_occupancy
  Ca  Ca0  1  0.00000000  0.60207300  0.16666700  1
  Ca  Ca1  1  0.60207300  0.00000000  0.83333300  1
  Ca  Ca2  1  0.39792700  0.39792700  0.50000000  1
  B  B0  1  0.89823300  0.89823300  0.50000000  1
  B  B1  1  0.00000000  0.10176700  0.16666700  1
  B  B2  1  0.10176700  0.00000000  0.83333300  1
  P  P0  1  0.00000000  0.58243000  0.66666700  1
  P  P1  1  0.58243000  0.00000000  0.33333300  1
  P  P2  1  0.41757000  0.41757000  0.00000000  1
  O  O0  1  0.00000000  0.04657400  0.66666700  1
  O  O1  1  0.95342600  0.95342600  0.00000000  1
  O  O2  1  0.04657400  0.00000000  0.33333300  1
  O  O3  1  0.46488600  0.60290800  0.84935700  1
  O  O4  1  0.39709200  0.86197900  0.18269000  1
  O  O5  1  0.13802100  0.53511400  0.51602300  1
  O  O6  1  0.34896200  0.19224600  0.87236400  1
  O  O7  1  0.80775400  0.15671600  0.20569700  1
  O  O8  1  0.84328400  0.65103800  0.53903100  1
  O  O9  1  0.15671600  0.80775400  0.79430300  1
  O  O10  1  0.65103800  0.84328400  0.46096900  1
  O  O11  1  0.19224600  0.34896200  0.12763600  1
  O  O12  1  0.60290800  0.46488600  0.15064300  1
  O  O13  1  0.53511400  0.13802100  0.48397700  1
  O  O14  1  0.86197900  0.39709200  0.81731000  1
loop_
_geom_bond_atom_site_label_1
_geom_bond_atom_site_label_2
_geom_bond_distance
_geom_bond_site_symmetry_2
Ca0 O12 2.342313 1_455
Ca0 O4 2.342314 1_555
Ca0 O7 2.604967 1_455
Ca0 O11 2.604968 1_555
Ca0 O5 2.668536 1_555
Ca0 O14 2.668545 1_454
Ca0 O2 2.766924 1_565
Ca0 O1 2.766927 1_455
Ca0 O8 2.823677 1_455
Ca0 O9 2.823677 1_554
Ca1 O3 2.342313 1_545
Ca1 O14 2.342314 1_555
Ca1 O9 2.604967 1_545
Ca1 O6 2.604968 1_555
Ca1 O13 2.668536 1_555
Ca1 O4 2.668545 1_546
Ca1 O0 2.766924 1_655
Ca1 O1 2.766927 1_546
Ca1 O10 2.823677 1_545
Ca1 O7 2.823677 1_556
Ca2 O5 2.342319 1_555
Ca2 O13 2.342319 1_555
Ca2 O8 2.604968 1_555
Ca2 O10 2.604968 1_555
Ca2 O3 2.668545 1_555
Ca2 O12 2.668545 1_555
Ca2 O0 2.766927 1_555
Ca2 O2 2.766927 1_555
Ca2 O6 2.823677 1_555
Ca2 O11 2.823677 1_555
B0 O2 1.435497 1_665
B0 O0 1.435497 1_665
B0 O8 1.529055 1_555
B0 O10 1.529055 1_555
B1 O2 1.435492 1_555
B1 O1 1.435497 1_445
B1 O7 1.529054 1_455
B1 O11 1.529055 1_555
B2 O0 1.435492 1_555
B2 O1 1.435497 1_446
B2 O9 1.529054 1_545
B2 O6 1.529055 1_555
O3 P2 1.516161 1_556
O4 P1 1.516159 1_565
O5 P0 1.516161 1_555
O6 P2 1.596757 1_556
O7 P1 1.596758 1_555
O8 P0 1.596757 1_655
O9 P0 1.596758 1_555
O10 P1 1.596757 1_565
O11 P2 1.596757 1_555
O12 P2 1.516161 1_555
O13 P1 1.516161 1_555
O14 P0 1.516159 1_655
