# generated using pymatgen
data_CaMg3(CO3)4
_symmetry_space_group_name_H-M   'P 1'
_cell_length_a   6.14443458
_cell_length_b   6.14443458
_cell_length_c   6.14443499
_cell_angle_alpha   102.95624981
_cell_angle_beta   102.95624981
_cell_angle_gamma   102.95625226
_symmetry_Int_Tables_number   1
_chemical_formula_structural   CaMg3(CO3)4
_chemical_formula_sum   'Ca1 Mg3 C4 O12'
_cell_volume   210.91491109
_cell_formula_units_Z   1
loop_
 _symmetry_equiv_pos_site_id
 _symmetry_equiv_pos_as_xyz
  1  'x, y, z'
loop_
 _atom_site_type_symbol
 _atom_site_label
 _atom_site_symmetry_multiplicity
 _atom_site_fract_x
 _atom_site_fract_y
 _atom_site_fract_z
 _atom_site_occupancy
  Ca  Ca0  1  0.00000000  0.00000000  0.00000000  1
  Mg  Mg0  1  0.00000000  0.45745900  0.54254100  1
  Mg  Mg1  1  0.54254100  0.00000000  0.45745900  1
  Mg  Mg2  1  0.45745900  0.54254100  0.00000000  1
  C  C0  1  0.50000000  0.04334900  0.95665100  1
  C  C1  1  0.95665100  0.50000000  0.04334900  1
  C  C2  1  0.04334900  0.95665100  0.50000000  1
  C  C3  1  0.50000000  0.50000000  0.50000000  1
  O  O0  1  0.38064600  0.19151900  0.97497300  1
  O  O1  1  0.02502700  0.80848100  0.61935400  1
  O  O2  1  0.80848100  0.61935400  0.02502700  1
  O  O3  1  0.61935400  0.02502700  0.80848100  1
  O  O4  1  0.63496700  0.36503300  0.50000000  1
  O  O5  1  0.36503300  0.50000000  0.63496700  1
  O  O6  1  0.50000000  0.63496700  0.36503300  1
  O  O7  1  0.90790200  0.09209800  0.50000000  1
  O  O8  1  0.09209800  0.50000000  0.90790200  1
  O  O9  1  0.50000000  0.90790200  0.09209800  1
  O  O10  1  0.19151900  0.97497300  0.38064600  1
  O  O11  1  0.97497300  0.38064600  0.19151900  1
loop_
_geom_bond_atom_site_label_1
_geom_bond_atom_site_label_2
_geom_bond_distance
_geom_bond_site_symmetry_2
Ca0 O2 2.426301 1_445
Ca0 O0 2.426301 1_554
Ca0 O11 2.426301 1_455
Ca0 O3 2.426301 1_454
Ca0 O10 2.426302 1_545
Ca0 O1 2.426302 1_544
Mg0 O1 2.064119 1_555
Mg0 O11 2.064119 1_455
Mg0 O4 2.126241 1_455
Mg0 O5 2.126241 1_555
Mg0 O7 2.128187 1_455
Mg0 O8 2.128187 1_555
Mg1 O10 2.064119 1_545
Mg1 O3 2.064119 1_555
Mg1 O4 2.126241 1_555
Mg1 O6 2.126241 1_545
Mg1 O7 2.128187 1_555
Mg1 O9 2.128187 1_545
Mg2 O2 2.064119 1_555
Mg2 O0 2.064119 1_554
Mg2 O6 2.126242 1_555
Mg2 O5 2.126242 1_554
Mg2 O9 2.128187 1_555
Mg2 O8 2.128187 1_554
C0 O0 1.292213 1_555
C0 O3 1.292213 1_555
C0 O9 1.302248 1_546
C1 O2 1.292213 1_555
C1 O11 1.292213 1_555
C1 O8 1.302248 1_654
C2 O1 1.292213 1_555
C2 O10 1.292213 1_555
C2 O7 1.302248 1_465
C3 O4 1.297633 1_555
C3 O6 1.297633 1_555
C3 O5 1.297633 1_555
