# generated using pymatgen
data_H8C3SN2
_symmetry_space_group_name_H-M   'P 1'
_cell_length_a   6.36478800
_cell_length_b   11.86467000
_cell_length_c   15.11679800
_cell_angle_alpha   90.00000000
_cell_angle_beta   90.00000000
_cell_angle_gamma   90.00000000
_symmetry_Int_Tables_number   1
_chemical_formula_structural   H8C3SN2
_chemical_formula_sum   'H64 C24 S8 N16'
_cell_volume   1141.56176913
_cell_formula_units_Z   8
loop_
 _symmetry_equiv_pos_site_id
 _symmetry_equiv_pos_as_xyz
  1  'x, y, z'
loop_
 _atom_site_type_symbol
 _atom_site_label
 _atom_site_symmetry_multiplicity
 _atom_site_fract_x
 _atom_site_fract_y
 _atom_site_fract_z
 _atom_site_occupancy
  H  H0  1  0.26714800  0.99120700  0.19721800  1
  H  H1  1  0.28309700  0.30309800  0.13730300  1
  H  H2  1  0.36985900  0.92446300  0.96044100  1
  H  H3  1  0.73285200  0.49120700  0.30278200  1
  H  H4  1  0.23285200  0.00879300  0.69721800  1
  H  H5  1  0.94897500  0.91647700  0.78580700  1
  H  H6  1  0.21690300  0.69690200  0.63730300  1
  H  H7  1  0.32501700  0.92593400  0.60734700  1
  H  H8  1  0.44950900  0.74255100  0.85237200  1
  H  H9  1  0.71690300  0.80309800  0.36269700  1
  H  H10  1  0.05049100  0.25744900  0.35237200  1
  H  H11  1  0.55102500  0.41647700  0.78580700  1
  H  H12  1  0.85619700  0.12617400  0.08937400  1
  H  H13  1  0.14380300  0.62617400  0.41062600  1
  H  H14  1  0.94897500  0.58352300  0.28580700  1
  H  H15  1  0.55049100  0.24255100  0.64762800  1
  H  H16  1  0.05102500  0.08352300  0.21419300  1
  H  H17  1  0.58562100  0.81867700  0.25884400  1
  H  H18  1  0.76714800  0.50879300  0.80278200  1
  H  H19  1  0.85619700  0.37382600  0.58937400  1
  H  H20  1  0.94950900  0.74255100  0.64762800  1
  H  H21  1  0.21690300  0.80309800  0.13730300  1
  H  H22  1  0.64380300  0.87382600  0.58937400  1
  H  H23  1  0.41437900  0.18132300  0.74115600  1
  H  H24  1  0.76714800  0.99120700  0.30278200  1
  H  H25  1  0.63014100  0.42446300  0.53955900  1
  H  H26  1  0.64380300  0.62617400  0.08937400  1
  H  H27  1  0.05102500  0.41647700  0.71419300  1
  H  H28  1  0.55102500  0.08352300  0.28580700  1
  H  H29  1  0.14380300  0.87382600  0.91062600  1
  H  H30  1  0.91437900  0.18132300  0.75884400  1
  H  H31  1  0.17498300  0.07406600  0.10734700  1
  H  H32  1  0.78309700  0.19690200  0.86269700  1
  H  H33  1  0.08562100  0.68132300  0.74115600  1
  H  H34  1  0.35619700  0.37382600  0.91062600  1
  H  H35  1  0.86985900  0.92446300  0.53955900  1
  H  H36  1  0.08562100  0.81867700  0.24115600  1
  H  H37  1  0.67498300  0.07406600  0.39265300  1
  H  H38  1  0.71690300  0.69690200  0.86269700  1
  H  H39  1  0.05049100  0.24255100  0.85237200  1
  H  H40  1  0.13014100  0.42446300  0.96044100  1
  H  H41  1  0.91437900  0.31867700  0.25884400  1
  H  H42  1  0.35619700  0.12617400  0.41062600  1
  H  H43  1  0.44897500  0.91647700  0.71419300  1
  H  H44  1  0.44950900  0.75744900  0.35237200  1
  H  H45  1  0.17498300  0.42593400  0.60734700  1
  H  H46  1  0.28309700  0.19690200  0.63730300  1
  H  H47  1  0.73285200  0.00879300  0.80278200  1
  H  H48  1  0.86985900  0.57553700  0.03955900  1
  H  H49  1  0.63014100  0.07553700  0.03955900  1
  H  H50  1  0.55049100  0.25744900  0.14762800  1
  H  H51  1  0.94950900  0.75744900  0.14762800  1
  H  H52  1  0.82501700  0.92593400  0.89265300  1
  H  H53  1  0.67498300  0.42593400  0.89265300  1
  H  H54  1  0.26714800  0.50879300  0.69721800  1
  H  H55  1  0.44897500  0.58352300  0.21419300  1
  H  H56  1  0.78309700  0.30309800  0.36269700  1
  H  H57  1  0.13014100  0.07553700  0.46044100  1
  H  H58  1  0.23285200  0.49120700  0.19721800  1
  H  H59  1  0.41437900  0.31867700  0.24115600  1
  H  H60  1  0.36985900  0.57553700  0.46044100  1
  H  H61  1  0.58562100  0.68132300  0.75884400  1
  H  H62  1  0.32501700  0.57406600  0.10734700  1
  H  H63  1  0.82501700  0.57406600  0.39265300  1
  C  C0  1  0.68941200  0.04901900  0.59642100  1
  C  C1  1  0.18941200  0.04901900  0.90357900  1
  C  C2  1  0.06411700  0.82083800  0.16872700  1
  C  C3  1  0.81058800  0.95098100  0.09642100  1
  C  C4  1  0.62646400  0.47373200  0.83365700  1
  C  C5  1  0.56411700  0.67916200  0.83127300  1
  C  C6  1  0.31058800  0.95098100  0.40357900  1
  C  C7  1  0.81058800  0.54901900  0.59642100  1
  C  C8  1  0.37353600  0.97373200  0.66634300  1
  C  C9  1  0.87353600  0.97373200  0.83365700  1
  C  C10  1  0.06411700  0.67916200  0.66872700  1
  C  C11  1  0.12646400  0.47373200  0.66634300  1
  C  C12  1  0.93588300  0.17916200  0.83127300  1
  C  C13  1  0.18941200  0.45098100  0.40357900  1
  C  C14  1  0.43588300  0.32083800  0.16872700  1
  C  C15  1  0.12646400  0.02626800  0.16634300  1
  C  C16  1  0.43588300  0.17916200  0.66872700  1
  C  C17  1  0.56411700  0.82083800  0.33127300  1
  C  C18  1  0.31058800  0.54901900  0.90357900  1
  C  C19  1  0.62646400  0.02626800  0.33365700  1
  C  C20  1  0.37353600  0.52626800  0.16634300  1
  C  C21  1  0.68941200  0.45098100  0.09642100  1
  C  C22  1  0.93588300  0.32083800  0.33127300  1
  C  C23  1  0.87353600  0.52626800  0.33365700  1
  S  S0  1  0.35742400  0.15307400  0.93679300  1
  S  S1  1  0.35742400  0.34692600  0.43679300  1
  S  S2  1  0.85742400  0.15307400  0.56320700  1
  S  S3  1  0.14257600  0.84692600  0.43679300  1
  S  S4  1  0.64257600  0.84692600  0.06320700  1
  S  S5  1  0.14257600  0.65307400  0.93679300  1
  S  S6  1  0.64257600  0.65307400  0.56320700  1
  S  S7  1  0.85742400  0.34692600  0.06320700  1
  N  N0  1  0.51028100  0.43234900  0.14248900  1
  N  N1  1  0.73837400  0.55892200  0.07621300  1
  N  N2  1  0.48971900  0.56765100  0.85751100  1
  N  N3  1  0.23837400  0.94107800  0.92378700  1
  N  N4  1  0.01028100  0.43234900  0.35751100  1
  N  N5  1  0.98971900  0.56765100  0.64248900  1
  N  N6  1  0.23837400  0.55892200  0.42378700  1
  N  N7  1  0.26162600  0.05892200  0.42378700  1
  N  N8  1  0.51028100  0.06765100  0.64248900  1
  N  N9  1  0.98971900  0.93234900  0.14248900  1
  N  N10  1  0.76162600  0.05892200  0.07621300  1
  N  N11  1  0.01028100  0.06765100  0.85751100  1
  N  N12  1  0.48971900  0.93234900  0.35751100  1
  N  N13  1  0.76162600  0.44107800  0.57621300  1
  N  N14  1  0.73837400  0.94107800  0.57621300  1
  N  N15  1  0.26162600  0.44107800  0.92378700  1
loop_
_geom_bond_atom_site_label_1
_geom_bond_atom_site_label_2
_geom_bond_distance
_geom_bond_site_symmetry_2
H2 N3 1.022857 1_555
H12 N10 1.019105 1_555
H13 N6 1.019105 1_555
H19 N13 1.019105 1_555
H22 N14 1.019105 1_555
H25 N13 1.022857 1_555
H26 N1 1.019105 1_555
H29 N3 1.019105 1_555
H34 N15 1.019105 1_555
H35 N14 1.022857 1_555
H40 N15 1.022857 1_555
H42 N7 1.019105 1_555
H48 N1 1.022857 1_555
H49 N10 1.022857 1_555
H57 N7 1.022857 1_555
H60 N6 1.022857 1_555
C0 N14 1.352991 1_545
C0 N8 1.354157 1_555
C0 S2 1.708745 1_555
C1 N3 1.352991 1_545
C1 N11 1.354157 1_555
C1 S0 1.708745 1_555
C2 H51 1.095204 1_455
C2 H21 1.102549 1_555
C2 H36 1.103714 1_555
C2 N9 1.460132 1_455
C3 N10 1.352991 1_565
C3 N9 1.354157 1_555
C3 S4 1.708745 1_555
C4 H18 1.092093 1_555
C4 H53 1.101062 1_555
C4 H11 1.102375 1_555
C4 N2 1.459194 1_555
C5 H8 1.095204 1_555
C5 H38 1.102549 1_555
C5 H61 1.103714 1_555
C5 N2 1.460132 1_555
C6 N7 1.352991 1_565
C6 N12 1.354157 1_555
C6 S3 1.708745 1_555
C7 N13 1.352991 1_555
C7 N5 1.354157 1_555
C7 S6 1.708745 1_555
C8 H4 1.092093 1_565
C8 H7 1.101062 1_555
C8 H43 1.102375 1_555
C8 N8 1.459194 1_565
C9 H47 1.092093 1_565
C9 H52 1.101062 1_555
C9 H5 1.102375 1_555
C9 N11 1.459194 1_665
C10 H20 1.095204 1_455
C10 H6 1.102549 1_555
C10 H33 1.103714 1_555
C10 N5 1.460132 1_455
C11 H54 1.092093 1_555
C11 H45 1.101062 1_555
C11 H27 1.102375 1_555
C11 N5 1.459194 1_455
C12 H39 1.095204 1_655
C12 H32 1.102549 1_555
C12 H30 1.103714 1_555
C12 N11 1.460132 1_655
C13 N6 1.352991 1_555
C13 N4 1.354157 1_555
C13 S1 1.708745 1_555
C14 H50 1.095204 1_555
C14 H1 1.102549 1_555
C14 H59 1.103714 1_555
C14 N0 1.460132 1_555
C15 H0 1.092093 1_545
C15 H31 1.101062 1_555
C15 H16 1.102375 1_555
C15 N9 1.459194 1_445
C16 H15 1.095204 1_555
C16 H46 1.102549 1_555
C16 H23 1.103714 1_555
C16 N8 1.460132 1_555
C17 H44 1.095204 1_555
C17 H9 1.102549 1_555
C17 H17 1.103714 1_555
C17 N12 1.460132 1_555
C18 N15 1.352991 1_555
C18 N2 1.354157 1_555
C18 S5 1.708745 1_555
C19 H24 1.092093 1_545
C19 H37 1.101062 1_555
C19 H28 1.102375 1_555
C19 N12 1.459194 1_545
C20 H58 1.092093 1_555
C20 H62 1.101062 1_555
C20 H55 1.102375 1_555
C20 N0 1.459194 1_555
C21 N1 1.352991 1_555
C21 N0 1.354157 1_555
C21 S7 1.708745 1_555
C22 H10 1.095204 1_655
C22 H56 1.102549 1_555
C22 H41 1.103714 1_555
C22 N4 1.460132 1_655
C23 H3 1.092093 1_555
C23 H63 1.101062 1_555
C23 H14 1.102375 1_555
C23 N4 1.459194 1_655
