# generated using pymatgen
data_Zr19O40
_symmetry_space_group_name_H-M   'P 1'
_cell_length_a   8.16520300
_cell_length_b   8.17058614
_cell_length_c   11.16642157
_cell_angle_alpha   98.56666411
_cell_angle_beta   107.07788228
_cell_angle_gamma   89.96974130
_symmetry_Int_Tables_number   1
_chemical_formula_structural   Zr19O40
_chemical_formula_sum   'Zr19 O40'
_cell_volume   703.43286145
_cell_formula_units_Z   1
loop_
 _symmetry_equiv_pos_site_id
 _symmetry_equiv_pos_as_xyz
  1  'x, y, z'
loop_
 _atom_site_type_symbol
 _atom_site_label
 _atom_site_symmetry_multiplicity
 _atom_site_fract_x
 _atom_site_fract_y
 _atom_site_fract_z
 _atom_site_occupancy
  Zr  Zr0  1  0.59916000  0.17534300  0.62374200  1
  Zr  Zr1  1  0.39271700  0.07354000  0.12180100  1
  Zr  Zr2  1  0.79953700  0.02717100  0.37436500  1
  Zr  Zr3  1  0.00068200  0.12020700  0.87861500  1
  Zr  Zr4  1  0.00020600  0.37661700  0.62658800  1
  Zr  Zr5  1  0.79927100  0.27413100  0.12564700  1
  Zr  Zr6  1  0.20064600  0.22400800  0.37552200  1
  Zr  Zr7  1  0.40234200  0.33081400  0.87895500  1
  Zr  Zr8  1  0.40026800  0.58140600  0.62782000  1
  Zr  Zr9  1  0.20512400  0.47846300  0.12288400  1
  Zr  Zr10  1  0.80423200  0.52362600  0.87214900  1
  Zr  Zr11  1  0.59948900  0.42430700  0.37475100  1
  Zr  Zr12  1  0.80434100  0.76682400  0.62770500  1
  Zr  Zr13  1  0.59737300  0.67337600  0.12409600  1
  Zr  Zr14  1  0.99765200  0.62438300  0.37407500  1
  Zr  Zr15  1  0.00434300  0.87453600  0.12461300  1
  Zr  Zr16  1  0.20028200  0.97440500  0.62536900  1
  Zr  Zr17  1  0.39822500  0.82479300  0.37629100  1
  Zr  Zr18  1  0.59227700  0.92640100  0.86995100  1
  O  O0  1  0.35930800  0.05424600  0.52467900  1
  O  O1  1  0.46364400  0.11222400  0.77514300  1
  O  O2  1  0.26086900  0.00360200  0.27363200  1
  O  O3  1  0.83219600  0.04770700  0.97155900  1
  O  O4  1  0.76066900  0.25582900  0.52614400  1
  O  O5  1  0.85717100  0.29869500  0.77777400  1
  O  O6  1  0.66333400  0.20834800  0.27590500  1
  O  O7  1  0.55732600  0.15655900  0.02645200  1
  O  O8  1  0.04009800  0.14423700  0.47377400  1
  O  O9  1  0.23891700  0.24435300  0.97286300  1
  O  O10  1  0.13921700  0.19469600  0.72404500  1
  O  O11  1  0.93942500  0.09351100  0.22262000  1
  O  O12  1  0.96498400  0.35441800  0.03060000  1
  O  O13  1  0.05820300  0.40343400  0.28032500  1
  O  O14  1  0.16369400  0.45232700  0.52768400  1
  O  O15  1  0.26050200  0.49205400  0.76346900  1
  O  O16  1  0.53972400  0.39748800  0.72241300  1
  O  O17  1  0.44132100  0.34199900  0.47290000  1
  O  O18  1  0.64556700  0.44152800  0.97390600  1
  O  O19  1  0.33990300  0.29615500  0.22432900  1
  O  O20  1  0.66153300  0.70558300  0.77783600  1
  O  O21  1  0.37012600  0.53979200  0.02572100  1
  O  O22  1  0.46079100  0.60705900  0.27479000  1
  O  O23  1  0.55957600  0.65577900  0.52484200  1
  O  O24  1  0.03307500  0.64221800  0.98895700  1
  O  O25  1  0.92339500  0.58256900  0.72439300  1
  O  O26  1  0.84146500  0.54550800  0.47617700  1
  O  O27  1  0.74015900  0.49552600  0.22454600  1
  O  O28  1  0.05012500  0.91275700  0.76295100  1
  O  O29  1  0.86169800  0.80570200  0.27893700  1
  O  O30  1  0.76219600  0.75505900  0.02871200  1
  O  O31  1  0.95779600  0.85794200  0.52696900  1
  O  O32  1  0.45710300  0.85106800  0.98568600  1
  O  O33  1  0.14065200  0.69433700  0.22755600  1
  O  O34  1  0.35554700  0.80643100  0.72218700  1
  O  O35  1  0.23781100  0.74413800  0.47523900  1
  O  O36  1  0.14990200  0.96969100  0.02540600  1
  O  O37  1  0.73692900  0.99066700  0.71885900  1
  O  O38  1  0.54160500  0.89693000  0.22147700  1
  O  O39  1  0.63427500  0.94848200  0.46860300  1
loop_
_geom_bond_atom_site_label_1
_geom_bond_atom_site_label_2
_geom_bond_distance
_geom_bond_site_symmetry_2
O0 Zr0 2.107526 1_555
O0 Zr16 2.110132 1_545
O0 Zr17 2.396749 1_545
O0 Zr6 2.407353 1_555
O1 Zr18 2.086435 1_545
O1 Zr7 2.123013 1_555
O1 Zr0 2.389055 1_555
O1 Zr16 2.453257 1_545
O2 Zr17 2.109140 1_545
O2 Zr6 2.120512 1_555
O2 Zr15 2.387615 1_545
O2 Zr1 2.391914 1_555
O3 Zr3 2.084052 1_655
O3 Zr18 2.113969 1_545
O3 Zr5 2.403783 1_556
O3 Zr15 2.491180 1_646
O4 Zr0 2.101867 1_555
O4 Zr4 2.107417 1_655
O4 Zr2 2.415690 1_555
O4 Zr11 2.422695 1_555
O5 Zr10 2.089186 1_555
O5 Zr3 2.116668 1_655
O5 Zr0 2.402066 1_555
O5 Zr4 2.469503 1_655
O6 Zr11 2.088132 1_555
O6 Zr2 2.098079 1_555
O6 Zr5 2.387294 1_555
O6 Zr1 2.502295 1_555
O7 Zr5 2.110025 1_555
O7 Zr1 2.111127 1_555
O7 Zr7 2.411167 1_554
O7 Zr18 2.446439 1_544
O8 Zr6 2.098961 1_555
O8 Zr2 2.100076 1_455
O8 Zr16 2.428820 1_545
O8 Zr4 2.446102 1_555
O9 Zr3 2.098110 1_555
O9 Zr7 2.103048 1_555
O9 Zr1 2.398698 1_556
O9 Zr9 2.420244 1_556
O10 Zr16 2.105529 1_545
O10 Zr4 2.106334 1_555
O10 Zr3 2.467673 1_555
O10 Zr7 2.468113 1_555
O11 Zr5 2.099175 1_555
O11 Zr15 2.106207 1_645
O11 Zr2 2.425005 1_555
O11 Zr6 2.433611 1_655
O12 Zr9 2.106658 1_655
O12 Zr5 2.106990 1_555
O12 Zr3 2.439187 1_654
O12 Zr10 2.475394 1_554
O13 Zr14 2.083125 1_455
O13 Zr6 2.090034 1_555
O13 Zr5 2.425547 1_455
O13 Zr9 2.542887 1_555
O14 Zr4 2.110610 1_555
O14 Zr8 2.115691 1_555
O14 Zr6 2.411282 1_555
O14 Zr14 2.471235 1_455
O15 Zr7 2.089791 1_555
O15 Zr4 2.325431 1_555
O15 Zr8 2.339945 1_555
O16 Zr8 2.105969 1_555
O16 Zr0 2.112168 1_555
O16 Zr10 2.427009 1_555
O16 Zr7 2.458999 1_555
O17 Zr11 2.091210 1_555
O17 Zr6 2.099585 1_555
O17 Zr0 2.399723 1_555
O17 Zr8 2.502600 1_555
O18 Zr7 2.089495 1_555
O18 Zr10 2.124158 1_555
O18 Zr5 2.399250 1_556
O18 Zr13 2.448739 1_556
O19 Zr1 2.115144 1_555
O19 Zr9 2.117038 1_555
O19 Zr11 2.407819 1_555
O19 Zr6 2.432164 1_555
O20 Zr18 2.102533 1_555
O20 Zr10 2.102589 1_555
O20 Zr8 2.404880 1_555
O20 Zr12 2.412288 1_555
O21 Zr9 2.065095 1_555
O21 Zr13 2.070918 1_555
O21 Zr7 2.256004 1_554
O22 Zr17 2.109239 1_555
O22 Zr11 2.123767 1_555
O22 Zr9 2.393896 1_555
O22 Zr13 2.396522 1_555
O23 Zr8 2.114496 1_555
O23 Zr12 2.116575 1_555
O23 Zr17 2.406497 1_555
O23 Zr11 2.422358 1_555
O24 Zr10 2.079797 1_455
O24 Zr15 2.303114 1_556
O24 Zr9 2.315243 1_556
O25 Zr12 2.059937 1_555
O25 Zr4 2.066743 1_655
O25 Zr10 2.254095 1_555
O26 Zr14 2.101267 1_555
O26 Zr11 2.126198 1_555
O26 Zr12 2.369356 1_555
O26 Zr4 2.411455 1_655
O27 Zr5 2.107548 1_555
O27 Zr13 2.108254 1_555
O27 Zr14 2.394483 1_555
O27 Zr11 2.427766 1_555
O28 Zr3 2.087440 1_565
O28 Zr12 2.327219 1_455
O28 Zr16 2.335523 1_555
O29 Zr14 2.080907 1_555
O29 Zr2 2.099937 1_565
O29 Zr13 2.463806 1_555
O29 Zr15 2.471996 1_655
O30 Zr13 2.108483 1_555
O30 Zr15 2.110919 1_655
O30 Zr10 2.473201 1_554
O30 Zr18 2.514029 1_554
O31 Zr16 2.108485 1_655
O31 Zr12 2.113732 1_555
O31 Zr2 2.427382 1_565
O31 Zr14 2.453041 1_555
O32 Zr18 2.083915 1_555
O32 Zr13 2.331397 1_556
O32 Zr1 2.352846 1_566
O33 Zr15 2.116345 1_555
O33 Zr9 2.121443 1_555
O33 Zr17 2.396060 1_555
O33 Zr14 2.401699 1_455
O34 Zr8 2.066932 1_555
O34 Zr16 2.072400 1_555
O34 Zr18 2.250894 1_555
O35 Zr17 2.106780 1_555
O35 Zr14 2.109614 1_455
O35 Zr8 2.403321 1_555
O35 Zr16 2.409452 1_555
O36 Zr15 2.067634 1_555
O36 Zr1 2.070182 1_565
O36 Zr3 2.260455 1_564
O37 Zr0 2.108138 1_565
O37 Zr12 2.111255 1_555
O37 Zr18 2.439722 1_555
O37 Zr3 2.474668 1_665
O38 Zr13 2.103413 1_555
O38 Zr1 2.116819 1_565
O38 Zr2 2.414919 1_565
O38 Zr17 2.489868 1_555
O39 Zr17 2.079310 1_555
O39 Zr2 2.092383 1_565
O39 Zr0 2.419412 1_565
O39 Zr12 2.573327 1_555
