# generated using pymatgen
data_HgS4(NCl)3
_symmetry_space_group_name_H-M   'P 1'
_cell_length_a   17.72675500
_cell_length_b   6.37405500
_cell_length_c   10.01621688
_cell_angle_alpha   73.28094350
_cell_angle_beta   90.00000000
_cell_angle_gamma   90.00000000
_symmetry_Int_Tables_number   1
_chemical_formula_structural   HgS4(NCl)3
_chemical_formula_sum   'Hg4 S16 N12 Cl12'
_cell_volume   1083.90305144
_cell_formula_units_Z   4
loop_
 _symmetry_equiv_pos_site_id
 _symmetry_equiv_pos_as_xyz
  1  'x, y, z'
loop_
 _atom_site_type_symbol
 _atom_site_label
 _atom_site_symmetry_multiplicity
 _atom_site_fract_x
 _atom_site_fract_y
 _atom_site_fract_z
 _atom_site_occupancy
  Hg  Hg0  1  0.57237400  0.21080800  0.55595000  1
  Hg  Hg1  1  0.42762600  0.78919200  0.44405000  1
  Hg  Hg2  1  0.92762600  0.21080800  0.05595000  1
  Hg  Hg3  1  0.07237400  0.78919200  0.94405000  1
  S  S0  1  0.54701400  0.70085200  0.09811600  1
  S  S1  1  0.73622300  0.65589600  0.52766700  1
  S  S2  1  0.04701400  0.29914800  0.40188400  1
  S  S3  1  0.45298600  0.29914800  0.90188400  1
  S  S4  1  0.82287400  0.92604300  0.67895800  1
  S  S5  1  0.95298600  0.70085200  0.59811600  1
  S  S6  1  0.17712600  0.07395700  0.32104200  1
  S  S7  1  0.82998600  0.49998700  0.46483000  1
  S  S8  1  0.26377700  0.34410400  0.47233300  1
  S  S9  1  0.23622300  0.34410400  0.97233300  1
  S  S10  1  0.67001400  0.49998700  0.96483000  1
  S  S11  1  0.76377700  0.65589600  0.02766700  1
  S  S12  1  0.17001400  0.50001300  0.53517000  1
  S  S13  1  0.32998600  0.50001300  0.03517000  1
  S  S14  1  0.32287400  0.07395700  0.82104200  1
  S  S15  1  0.67712600  0.92604300  0.17895800  1
  N  N0  1  0.09281100  0.43271300  0.48134900  1
  N  N1  1  0.90718900  0.56728700  0.51865100  1
  N  N2  1  0.59196000  0.86090200  0.16471300  1
  N  N3  1  0.73906200  0.81954100  0.10995600  1
  N  N4  1  0.76093800  0.81954100  0.60995600  1
  N  N5  1  0.23906200  0.18045900  0.39004400  1
  N  N6  1  0.59281100  0.56728700  0.01865100  1
  N  N7  1  0.26093800  0.18045900  0.89004400  1
  N  N8  1  0.09196000  0.13909800  0.33528700  1
  N  N9  1  0.40718900  0.43271300  0.98134900  1
  N  N10  1  0.40804000  0.13909800  0.83528700  1
  N  N11  1  0.90804000  0.86090200  0.66471300  1
  Cl  Cl0  1  0.32252100  0.66153500  0.62806800  1
  Cl  Cl1  1  0.45162700  0.27483500  0.43245300  1
  Cl  Cl2  1  0.87642900  0.11569100  0.28949200  1
  Cl  Cl3  1  0.95162700  0.72516500  0.06754700  1
  Cl  Cl4  1  0.67747900  0.33846500  0.37193200  1
  Cl  Cl5  1  0.12357100  0.88430900  0.71050800  1
  Cl  Cl6  1  0.04837300  0.27483500  0.93245300  1
  Cl  Cl7  1  0.17747900  0.66153500  0.12806800  1
  Cl  Cl8  1  0.54837300  0.72516500  0.56754700  1
  Cl  Cl9  1  0.82252100  0.33846500  0.87193200  1
  Cl  Cl10  1  0.37642900  0.88430900  0.21050800  1
  Cl  Cl11  1  0.62357100  0.11569100  0.78949200  1
loop_
_geom_bond_atom_site_label_1
_geom_bond_atom_site_label_2
_geom_bond_distance
_geom_bond_site_symmetry_2
N0 S2 1.551536 1_555
N0 S12 1.575003 1_555
N1 S5 1.551536 1_555
N1 S7 1.575003 1_555
N2 S15 1.583063 1_555
N2 S0 1.584940 1_555
N3 S15 1.553671 1_555
N3 S11 1.566515 1_555
N4 S4 1.553671 1_555
N4 S1 1.566515 1_555
N5 S6 1.553671 1_555
N5 S8 1.566515 1_555
N6 S0 1.551536 1_555
N6 S10 1.575003 1_554
N7 S14 1.553671 1_555
N7 S9 1.566515 1_555
N8 S6 1.583063 1_555
N8 S2 1.584940 1_555
N9 S3 1.551536 1_555
N9 S13 1.575003 1_556
N10 S14 1.583063 1_555
N10 S3 1.584940 1_555
N11 S4 1.583063 1_555
N11 S5 1.584940 1_555
Cl0 Hg1 2.582218 1_555
Cl1 Hg0 2.446986 1_555
Cl2 Hg2 2.418087 1_555
Cl3 Hg3 2.446986 1_654
Cl4 Hg0 2.582218 1_555
Cl5 Hg3 2.418087 1_555
Cl6 Hg2 2.446986 1_456
Cl7 Hg3 2.582218 1_554
Cl8 Hg1 2.446986 1_555
Cl9 Hg2 2.582218 1_556
Cl10 Hg1 2.418087 1_555
Cl11 Hg0 2.418087 1_555
