# generated using pymatgen
data_CrIrRu
_symmetry_space_group_name_H-M   'P 1'
_cell_length_a   4.13168291
_cell_length_b   4.13168291
_cell_length_c   4.13168291
_cell_angle_alpha   60.00000000
_cell_angle_beta   60.00000000
_cell_angle_gamma   60.00000000
_symmetry_Int_Tables_number   1
_chemical_formula_structural   CrIrRu
_chemical_formula_sum   'Cr1 Ir1 Ru1'
_cell_volume   49.87305271
_cell_formula_units_Z   1
loop_
 _symmetry_equiv_pos_site_id
 _symmetry_equiv_pos_as_xyz
  1  'x, y, z'
loop_
 _atom_site_type_symbol
 _atom_site_label
 _atom_site_symmetry_multiplicity
 _atom_site_fract_x
 _atom_site_fract_y
 _atom_site_fract_z
 _atom_site_occupancy
  Cr  Cr0  1  0.00000000  0.00000000  0.00000000  1
  Ir  Ir0  1  0.50000000  0.50000000  0.50000000  1
  Ru  Ru0  1  0.75000000  0.75000000  0.75000000  1
loop_
_geom_bond_atom_site_label_1
_geom_bond_atom_site_label_2
_geom_bond_distance
_geom_bond_site_symmetry_2
Cr0 Ru0 2.530129 1_454
Cr0 Ru0 2.530129 1_544
Cr0 Ru0 2.530129 1_444
Cr0 Ru0 2.530129 1_445
Cr0 Ir0 2.921541 1_445
Cr0 Ir0 2.921541 1_545
Cr0 Ir0 2.921541 1_454
Cr0 Ir0 2.921541 1_544
Cr0 Ir0 2.921541 1_455
Cr0 Ir0 2.921541 1_554
Ir0 Ru0 2.530129 1_455
Ir0 Ru0 2.530129 1_554
Ir0 Ru0 2.530129 1_545
Ir0 Ru0 2.530129 1_555
