# generated using pymatgen
data_K4ErP6H6ClO21
_symmetry_space_group_name_H-M   'P 1'
_cell_length_a   10.03224523
_cell_length_b   10.03224523
_cell_length_c   12.27385200
_cell_angle_alpha   90.00000000
_cell_angle_beta   90.00000000
_cell_angle_gamma   119.99999490
_symmetry_Int_Tables_number   1
_chemical_formula_structural   K4ErP6H6ClO21
_chemical_formula_sum   'K8 Er2 P12 H12 Cl2 O42'
_cell_volume   1069.81286230
_cell_formula_units_Z   2
loop_
 _symmetry_equiv_pos_site_id
 _symmetry_equiv_pos_as_xyz
  1  'x, y, z'
loop_
 _atom_site_type_symbol
 _atom_site_label
 _atom_site_symmetry_multiplicity
 _atom_site_fract_x
 _atom_site_fract_y
 _atom_site_fract_z
 _atom_site_occupancy
  K  K0  1  0.72494100  0.67577000  0.25000000  1
  K  K1  1  0.95082900  0.27505900  0.25000000  1
  K  K2  1  0.32423000  0.04917100  0.25000000  1
  K  K3  1  0.27505900  0.32423000  0.75000000  1
  K  K4  1  0.04917100  0.72494100  0.75000000  1
  K  K5  1  0.67577000  0.95082900  0.75000000  1
  K  K6  1  0.00000000  0.00000000  0.50000000  1
  K  K7  1  0.00000000  0.00000000  0.00000000  1
  Er  Er0  1  0.33333300  0.66666700  0.25000000  1
  Er  Er1  1  0.66666700  0.33333300  0.75000000  1
  P  P0  1  0.28312900  0.80143000  0.50822000  1
  P  P1  1  0.51830100  0.71687100  0.50822000  1
  P  P2  1  0.19857000  0.48169900  0.50822000  1
  P  P3  1  0.71687100  0.19857000  0.00822000  1
  P  P4  1  0.48169900  0.28312900  0.00822000  1
  P  P5  1  0.80143000  0.51830100  0.00822000  1
  P  P6  1  0.71687100  0.19857000  0.49178000  1
  P  P7  1  0.48169900  0.28312900  0.49178000  1
  P  P8  1  0.80143000  0.51830100  0.49178000  1
  P  P9  1  0.28312900  0.80143000  0.99178000  1
  P  P10  1  0.51830100  0.71687100  0.99178000  1
  P  P11  1  0.19857000  0.48169900  0.99178000  1
  H  H0  1  0.03341000  0.63818000  0.31454500  1
  H  H1  1  0.60477000  0.96659000  0.31454500  1
  H  H2  1  0.36182000  0.39523000  0.31454500  1
  H  H3  1  0.96659000  0.36182000  0.81454500  1
  H  H4  1  0.39523000  0.03341000  0.81454500  1
  H  H5  1  0.63818000  0.60477000  0.81454500  1
  H  H6  1  0.96659000  0.36182000  0.68545500  1
  H  H7  1  0.39523000  0.03341000  0.68545500  1
  H  H8  1  0.63818000  0.60477000  0.68545500  1
  H  H9  1  0.03341000  0.63818000  0.18545500  1
  H  H10  1  0.60477000  0.96659000  0.18545500  1
  H  H11  1  0.36182000  0.39523000  0.18545500  1
  Cl  Cl0  1  0.00000000  0.00000000  0.25000000  1
  Cl  Cl1  1  0.00000000  0.00000000  0.75000000  1
  O  O0  1  0.28251400  0.80662400  0.38567200  1
  O  O1  1  0.52411000  0.71748600  0.38567200  1
  O  O2  1  0.19337600  0.47589000  0.38567200  1
  O  O3  1  0.71748600  0.19337600  0.88567200  1
  O  O4  1  0.47589000  0.28251400  0.88567200  1
  O  O5  1  0.80662400  0.52411000  0.88567200  1
  O  O6  1  0.71748600  0.19337600  0.61432800  1
  O  O7  1  0.47589000  0.28251400  0.61432800  1
  O  O8  1  0.80662400  0.52411000  0.61432800  1
  O  O9  1  0.28251400  0.80662400  0.11432800  1
  O  O10  1  0.52411000  0.71748600  0.11432800  1
  O  O11  1  0.19337600  0.47589000  0.11432800  1
  O  O12  1  0.24375000  0.90101800  0.57479300  1
  O  O13  1  0.65726800  0.75625000  0.57479300  1
  O  O14  1  0.09898200  0.34273200  0.57479300  1
  O  O15  1  0.75625000  0.09898200  0.07479300  1
  O  O16  1  0.34273200  0.24375000  0.07479300  1
  O  O17  1  0.90101800  0.65726800  0.07479300  1
  O  O18  1  0.75625000  0.09898200  0.42520700  1
  O  O19  1  0.34273200  0.24375000  0.42520700  1
  O  O20  1  0.90101800  0.65726800  0.42520700  1
  O  O21  1  0.24375000  0.90101800  0.92520700  1
  O  O22  1  0.65726800  0.75625000  0.92520700  1
  O  O23  1  0.09898200  0.34273200  0.92520700  1
  O  O24  1  0.17167200  0.62280100  0.54804200  1
  O  O25  1  0.45112900  0.82832800  0.54804200  1
  O  O26  1  0.37719900  0.54887100  0.54804200  1
  O  O27  1  0.82832800  0.37719900  0.04804200  1
  O  O28  1  0.54887100  0.17167200  0.04804200  1
  O  O29  1  0.62280100  0.45112900  0.04804200  1
  O  O30  1  0.82832800  0.37719900  0.45195800  1
  O  O31  1  0.54887100  0.17167200  0.45195800  1
  O  O32  1  0.62280100  0.45112900  0.45195800  1
  O  O33  1  0.17167200  0.62280100  0.95195800  1
  O  O34  1  0.45112900  0.82832800  0.95195800  1
  O  O35  1  0.37719900  0.54887100  0.95195800  1
  O  O36  1  0.05808700  0.59602500  0.25000000  1
  O  O37  1  0.53793800  0.94191300  0.25000000  1
  O  O38  1  0.40397500  0.46206200  0.25000000  1
  O  O39  1  0.94191300  0.40397500  0.75000000  1
  O  O40  1  0.46206200  0.05808700  0.75000000  1
  O  O41  1  0.59602500  0.53793800  0.75000000  1
loop_
_geom_bond_atom_site_label_1
_geom_bond_atom_site_label_2
_geom_bond_distance
_geom_bond_site_symmetry_2
K0 O1 2.801903 1_555
K0 O10 2.801903 1_555
K0 O38 2.839272 1_555
K0 O17 2.847310 1_555
K0 O20 2.847310 1_555
K0 O32 3.156598 1_555
K0 O29 3.156598 1_555
K1 O2 2.801903 1_655
K1 O11 2.801903 1_655
K1 O36 2.839272 1_655
K1 O18 2.847310 1_555
K1 O15 2.847310 1_555
K1 O30 3.156598 1_555
K1 O27 3.156598 1_555
K2 O0 2.801903 1_545
K2 O9 2.801903 1_545
K2 O37 2.839272 1_545
K2 O19 2.847310 1_555
K2 O16 2.847310 1_555
K2 O31 3.156598 1_555
K2 O28 3.156598 1_555
K3 O7 2.801903 1_555
K3 O4 2.801903 1_555
K3 O41 2.839272 1_555
K3 O14 2.847310 1_555
K3 O23 2.847310 1_555
K3 O26 3.156598 1_555
K3 O35 3.156598 1_555
K4 O8 2.801903 1_455
K4 O5 2.801903 1_455
K4 O39 2.839272 1_455
K4 O21 2.847310 1_555
K4 O12 2.847310 1_555
K4 O24 3.156598 1_555
K4 O33 3.156598 1_555
K5 O3 2.801903 1_565
K5 O6 2.801903 1_565
K5 O40 2.839272 1_565
K5 O22 2.847310 1_555
K5 O13 2.847310 1_555
K5 O25 3.156598 1_555
K5 O34 3.156598 1_555
K6 O18 3.199507 1_455
K6 O12 3.199507 1_545
K6 O14 3.199508 1_555
K6 O20 3.199508 1_445
K6 O13 3.199508 1_445
K6 O19 3.199508 1_555
K7 O15 3.199507 1_455
K7 O21 3.199507 1_544
K7 O23 3.199508 1_554
K7 O17 3.199508 1_445
K7 O16 3.199508 1_555
K7 O22 3.199508 1_444
Er0 O0 2.391687 1_555
Er0 O9 2.391687 1_555
Er0 O2 2.391692 1_555
Er0 O11 2.391692 1_555
Er0 O1 2.391694 1_555
Er0 O10 2.391694 1_555
Er0 O36 2.484004 1_555
Er0 O37 2.484006 1_555
Er0 O38 2.484013 1_555
Er1 O6 2.391687 1_555
Er1 O3 2.391687 1_555
Er1 O5 2.391692 1_555
Er1 O8 2.391692 1_555
Er1 O7 2.391694 1_555
Er1 O4 2.391694 1_555
Er1 O39 2.484004 1_555
Er1 O40 2.484006 1_555
Er1 O41 2.484013 1_555
H0 O36 0.986126 1_555
H1 O37 0.986126 1_555
H2 O38 0.986126 1_555
H3 O39 0.986126 1_555
H4 O40 0.986126 1_555
H5 O41 0.986126 1_555
H6 O39 0.986126 1_555
H7 O40 0.986126 1_555
H8 O41 0.986126 1_555
H9 O36 0.986126 1_555
H10 O37 0.986126 1_555
H11 O38 0.986126 1_555
Cl0 K1 3.036311 1_455
Cl0 K2 3.036311 1_555
Cl0 K0 3.036311 1_445
Cl0 K7 3.068463 1_555
Cl0 K6 3.068463 1_555
Cl1 K4 3.036311 1_545
Cl1 K5 3.036311 1_445
Cl1 K3 3.036311 1_555
Cl1 K7 3.068463 1_556
Cl1 K6 3.068463 1_555
O0 P0 1.505158 1_555
O1 P1 1.505158 1_555
O2 P2 1.505158 1_555
O3 P3 1.505158 1_556
O4 P4 1.505158 1_556
O5 P5 1.505158 1_556
O6 P6 1.505158 1_555
O7 P7 1.505158 1_555
O8 P8 1.505158 1_555
O9 P9 1.505158 1_554
O10 P10 1.505158 1_554
O11 P11 1.505158 1_554
O12 P0 1.488832 1_555
O13 P1 1.488832 1_555
O14 P2 1.488832 1_555
O15 P3 1.488832 1_555
O16 P4 1.488832 1_555
O17 P5 1.488832 1_555
O18 P6 1.488832 1_555
O19 P7 1.488832 1_555
O20 P8 1.488832 1_555
O21 P9 1.488832 1_555
O22 P10 1.488832 1_555
O23 P11 1.488832 1_555
O24 P0 1.642201 1_555
O24 P2 1.642419 1_555
O25 P1 1.642201 1_555
O25 P0 1.642419 1_555
O26 P2 1.642201 1_555
O26 P1 1.642419 1_555
O27 P3 1.642201 1_555
O27 P5 1.642419 1_555
O28 P4 1.642201 1_555
O28 P3 1.642419 1_555
O29 P5 1.642201 1_555
O29 P4 1.642419 1_555
O30 P6 1.642201 1_555
O30 P8 1.642419 1_555
O31 P7 1.642201 1_555
O31 P6 1.642419 1_555
O32 P8 1.642201 1_555
O32 P7 1.642419 1_555
O33 P9 1.642201 1_555
O33 P11 1.642419 1_555
O34 P10 1.642201 1_555
O34 P9 1.642419 1_555
O35 P11 1.642201 1_555
O35 P10 1.642419 1_555
