# generated using pymatgen
data_CaBi2(CO)2
_symmetry_space_group_name_H-M   'P 1'
_cell_length_a   3.75991600
_cell_length_b   3.75991600
_cell_length_c   9.86295522
_cell_angle_alpha   100.98826750
_cell_angle_beta   100.98826750
_cell_angle_gamma   90.00000000
_symmetry_Int_Tables_number   1
_chemical_formula_structural   CaBi2(CO)2
_chemical_formula_sum   'Ca1 Bi2 C2 O2'
_cell_volume   134.27098841
_cell_formula_units_Z   1
loop_
 _symmetry_equiv_pos_site_id
 _symmetry_equiv_pos_as_xyz
  1  'x, y, z'
loop_
 _atom_site_type_symbol
 _atom_site_label
 _atom_site_symmetry_multiplicity
 _atom_site_fract_x
 _atom_site_fract_y
 _atom_site_fract_z
 _atom_site_occupancy
  Ca  Ca0  1  0.00000000  0.00000000  0.00000000  1
  Bi  Bi0  1  0.82256000  0.82256000  0.64512000  1
  Bi  Bi1  1  0.17744000  0.17744000  0.35488000  1
  C  C0  1  0.53386700  0.53386700  0.06773400  1
  C  C1  1  0.46613300  0.46613300  0.93226600  1
  O  O0  1  0.25000000  0.75000000  0.50000000  1
  O  O1  1  0.75000000  0.25000000  0.50000000  1
loop_
_geom_bond_atom_site_label_1
_geom_bond_atom_site_label_2
_geom_bond_distance
_geom_bond_site_symmetry_2
Bi0 O0 2.331102 1_655
Bi0 O1 2.331102 1_555
Bi0 O1 2.331102 1_565
Bi0 O0 2.331102 1_555
Bi0 Ca0 3.370602 1_666
Bi1 O0 2.331102 1_545
Bi1 O1 2.331102 1_555
Bi1 O0 2.331102 1_555
Bi1 O1 2.331102 1_455
Bi1 Ca0 3.370602 1_555
C0 C1 1.286657 1_554
C0 Ca0 2.735389 1_655
C0 Ca0 2.735389 1_665
C0 Ca0 2.735389 1_565
C0 Ca0 2.735389 1_555
C1 Ca0 2.735389 1_566
C1 Ca0 2.735389 1_656
C1 Ca0 2.735389 1_556
C1 Ca0 2.735389 1_666
