# generated using pymatgen
data_NbHO3
_symmetry_space_group_name_H-M   'P 1'
_cell_length_a   6.74508200
_cell_length_b   6.77872734
_cell_length_c   6.78036756
_cell_angle_alpha   110.05932264
_cell_angle_beta   108.24881913
_cell_angle_gamma   109.80689040
_symmetry_Int_Tables_number   1
_chemical_formula_structural   NbHO3
_chemical_formula_sum   'Nb4 H4 O12'
_cell_volume   239.47597590
_cell_formula_units_Z   4
loop_
 _symmetry_equiv_pos_site_id
 _symmetry_equiv_pos_as_xyz
  1  'x, y, z'
loop_
 _atom_site_type_symbol
 _atom_site_label
 _atom_site_symmetry_multiplicity
 _atom_site_fract_x
 _atom_site_fract_y
 _atom_site_fract_z
 _atom_site_occupancy
  Nb  Nb0  1  0.97886100  0.96783000  0.52019000  1
  Nb  Nb1  1  0.97683700  0.46355400  0.04207600  1
  Nb  Nb2  1  0.46868400  0.98538900  0.01351900  1
  Nb  Nb3  1  0.48953600  0.51549100  0.50610100  1
  H  H0  1  0.49236400  0.59330000  0.10707400  1
  H  H1  1  0.51255300  0.39813300  0.89392900  1
  H  H2  1  0.90181300  0.29817700  0.60192300  1
  H  H3  1  0.41393400  0.12081000  0.47985100  1
  O  O0  1  0.09444600  0.29598700  0.20219700  1
  O  O1  1  0.90485600  0.71458500  0.78979700  1
  O  O2  1  0.50622000  0.69422300  0.18208200  1
  O  O3  1  0.49809800  0.30930500  0.80649100  1
  O  O4  1  0.81529600  0.12252900  0.68855400  1
  O  O5  1  0.20909000  0.92197400  0.29013800  1
  O  O6  1  0.78745100  0.49937500  0.29153000  1
  O  O7  1  0.20886800  0.49939000  0.69650400  1
  O  O8  1  0.29906300  0.80372000  0.91180000  1
  O  O9  1  0.71169900  0.20325700  0.07777400  1
  O  O10  1  0.70624900  0.79636900  0.49017900  1
  O  O11  1  0.30904700  0.19069600  0.51097000  1
loop_
_geom_bond_atom_site_label_1
_geom_bond_atom_site_label_2
_geom_bond_distance
_geom_bond_site_symmetry_2
Nb0 O10 1.711287 1_555
Nb0 O6 2.597143 1_555
Nb1 O0 2.003868 1_655
Nb1 O9 2.189937 1_555
Nb1 O4 2.265604 1_554
Nb1 O6 2.415206 1_555
Nb1 O5 2.530795 1_655
Nb2 O8 1.126735 1_554
Nb2 O9 1.590141 1_565
Nb3 O10 2.031561 1_555
Nb3 O11 2.142240 1_555
Nb3 O0 2.309136 1_555
Nb3 O1 2.377246 1_555
Nb3 O7 2.598044 1_555
Nb3 O6 2.834999 1_555
H0 O2 0.650880 1_555
H1 O3 0.634577 1_555
H2 O4 1.525395 1_555
H3 O11 1.010703 1_555
H3 O5 1.347539 1_545
O6 O9 1.798984 1_555
