# generated using pymatgen
data_CaAlH5
_symmetry_space_group_name_H-M   'P 1'
_cell_length_a   6.47206700
_cell_length_b   10.81252600
_cell_length_c   13.51750592
_cell_angle_alpha   51.85389036
_cell_angle_beta   90.00000000
_cell_angle_gamma   90.00000000
_symmetry_Int_Tables_number   1
_chemical_formula_structural   CaAlH5
_chemical_formula_sum   'Ca8 Al8 H40'
_cell_volume   743.92874045
_cell_formula_units_Z   8
loop_
 _symmetry_equiv_pos_site_id
 _symmetry_equiv_pos_as_xyz
  1  'x, y, z'
loop_
 _atom_site_type_symbol
 _atom_site_label
 _atom_site_symmetry_multiplicity
 _atom_site_fract_x
 _atom_site_fract_y
 _atom_site_fract_z
 _atom_site_occupancy
  Ca  Ca0  1  0.30583000  0.16752900  0.85284400  1
  Ca  Ca1  1  0.19490600  0.51688500  0.30369300  1
  Ca  Ca2  1  0.69490600  0.48311500  0.19630700  1
  Ca  Ca3  1  0.19417000  0.16752900  0.35284400  1
  Ca  Ca4  1  0.80509400  0.48311500  0.69630700  1
  Ca  Ca5  1  0.30509400  0.51688500  0.80369300  1
  Ca  Ca6  1  0.69417000  0.83247100  0.14715600  1
  Ca  Ca7  1  0.80583000  0.83247100  0.64715600  1
  Al  Al0  1  0.30286300  0.24976000  0.59034100  1
  Al  Al1  1  0.29360200  0.81009000  0.49882900  1
  Al  Al2  1  0.70639800  0.18991000  0.50117100  1
  Al  Al3  1  0.79360200  0.18991000  0.00117100  1
  Al  Al4  1  0.69713700  0.75024000  0.40965900  1
  Al  Al5  1  0.20639800  0.81009000  0.99882900  1
  Al  Al6  1  0.80286300  0.75024000  0.90965900  1
  Al  Al7  1  0.19713700  0.24976000  0.09034100  1
  H  H0  1  0.85078600  0.06663100  0.62271400  1
  H  H1  1  0.77195800  0.37611100  0.91718600  1
  H  H2  1  0.88335600  0.80392200  0.30446400  1
  H  H3  1  0.65913000  0.75984700  0.01217800  1
  H  H4  1  0.91009100  0.64637700  0.20048300  1
  H  H5  1  0.22804200  0.62388900  0.08281400  1
  H  H6  1  0.27841300  0.89243400  0.57066500  1
  H  H7  1  0.52828700  0.86679500  0.43481800  1
  H  H8  1  0.41009100  0.35362300  0.29951700  1
  H  H9  1  0.14921400  0.93336900  0.37728600  1
  H  H10  1  0.99230100  0.36460000  0.28514200  1
  H  H11  1  0.50769900  0.36460000  0.78514200  1
  H  H12  1  0.18269300  0.44265500  0.98873800  1
  H  H13  1  0.02828700  0.13320500  0.06518200  1
  H  H14  1  0.31730700  0.44265500  0.48873800  1
  H  H15  1  0.27195800  0.62388900  0.58281400  1
  H  H16  1  0.84087000  0.75984700  0.51217800  1
  H  H17  1  0.00769900  0.63540000  0.71485800  1
  H  H18  1  0.58990900  0.64637700  0.70048300  1
  H  H19  1  0.47171300  0.13320500  0.56518200  1
  H  H20  1  0.48927400  0.21277400  0.69237200  1
  H  H21  1  0.34087000  0.24015300  0.98782200  1
  H  H22  1  0.11664400  0.19607800  0.69553600  1
  H  H23  1  0.61664400  0.80392200  0.80446400  1
  H  H24  1  0.72158700  0.10756600  0.42933500  1
  H  H25  1  0.15913000  0.24015300  0.48782200  1
  H  H26  1  0.51072600  0.78722600  0.30762800  1
  H  H27  1  0.22158700  0.89243400  0.07066500  1
  H  H28  1  0.38335600  0.19607800  0.19553600  1
  H  H29  1  0.68269300  0.55734500  0.51126200  1
  H  H30  1  0.81730700  0.55734500  0.01126200  1
  H  H31  1  0.49230100  0.63540000  0.21485800  1
  H  H32  1  0.97171300  0.86679500  0.93481800  1
  H  H33  1  0.98927400  0.78722600  0.80762800  1
  H  H34  1  0.01072600  0.21277400  0.19237200  1
  H  H35  1  0.77841300  0.10756600  0.92933500  1
  H  H36  1  0.64921400  0.06663100  0.12271400  1
  H  H37  1  0.35078600  0.93336900  0.87728600  1
  H  H38  1  0.72804200  0.37611100  0.41718600  1
  H  H39  1  0.08990900  0.35362300  0.79951700  1
loop_
_geom_bond_atom_site_label_1
_geom_bond_atom_site_label_2
_geom_bond_distance
_geom_bond_site_symmetry_2
Ca0 H11 2.162398 1_555
Ca0 H39 2.174727 1_555
Ca0 H20 2.245738 1_555
Ca0 H22 2.303315 1_555
Ca0 H37 2.360246 1_545
Ca0 H21 2.401458 1_555
Ca0 H27 2.644826 1_546
Ca1 H31 2.210851 1_555
Ca1 H4 2.211700 1_455
Ca1 H10 2.236881 1_455
Ca1 H14 2.246865 1_555
Ca1 H8 2.276416 1_555
Ca1 H25 2.449813 1_555
Ca1 H5 2.455972 1_555
Ca2 H10 2.210851 1_555
Ca2 H8 2.211700 1_555
Ca2 H31 2.236881 1_555
Ca2 H30 2.246865 1_555
Ca2 H4 2.276416 1_555
Ca2 H3 2.449813 1_555
Ca2 H38 2.455972 1_555
Ca3 H10 2.162398 1_455
Ca3 H8 2.174727 1_555
Ca3 H34 2.245738 1_555
Ca3 H28 2.303315 1_555
Ca3 H9 2.360246 1_545
Ca3 H25 2.401458 1_555
Ca3 H6 2.644826 1_545
Ca4 H11 2.210851 1_555
Ca4 H39 2.211700 1_655
Ca4 H17 2.236881 1_655
Ca4 H29 2.246865 1_555
Ca4 H18 2.276416 1_555
Ca4 H16 2.449813 1_555
Ca4 H1 2.455972 1_555
Ca5 H17 2.210851 1_555
Ca5 H18 2.211700 1_555
Ca5 H11 2.236881 1_555
Ca5 H12 2.246865 1_555
Ca5 H39 2.276416 1_555
Ca5 H21 2.449813 1_555
Ca5 H15 2.455972 1_555
Ca6 H31 2.162398 1_555
Ca6 H4 2.174727 1_555
Ca6 H26 2.245738 1_555
Ca6 H2 2.303315 1_555
Ca6 H36 2.360246 1_565
Ca6 H3 2.401458 1_555
Ca6 H35 2.644826 1_564
Ca7 H17 2.162398 1_655
Ca7 H18 2.174727 1_555
Ca7 H33 2.245738 1_555
Ca7 H23 2.303315 1_555
Ca7 H0 2.360246 1_565
Ca7 H16 2.401458 1_555
Ca7 H24 2.644826 1_565
Al0 H14 1.645127 1_555
Al0 H22 1.670889 1_555
Al0 H20 1.684140 1_555
Al0 H25 1.724653 1_555
Al0 H19 1.851375 1_555
Al1 H15 1.593207 1_555
Al1 H9 1.626030 1_555
Al1 H7 1.666221 1_555
Al1 H6 1.677300 1_555
Al2 H38 1.593207 1_555
Al2 H0 1.626030 1_555
Al2 H19 1.666221 1_555
Al2 H24 1.677300 1_555
Al3 H1 1.593207 1_554
Al3 H36 1.626030 1_555
Al3 H13 1.666221 1_655
Al3 H35 1.677300 1_554
Al4 H29 1.645127 1_555
Al4 H2 1.670889 1_555
Al4 H26 1.684140 1_555
Al4 H16 1.724653 1_555
Al4 H7 1.851375 1_555
Al5 H5 1.593207 1_556
Al5 H37 1.626030 1_555
Al5 H32 1.666221 1_455
Al5 H27 1.677300 1_556
Al6 H30 1.645127 1_556
Al6 H23 1.670889 1_555
Al6 H33 1.684140 1_555
Al6 H3 1.724653 1_556
Al6 H32 1.851375 1_555
Al7 H12 1.645127 1_554
Al7 H28 1.670889 1_555
Al7 H34 1.684140 1_555
Al7 H21 1.724653 1_554
Al7 H13 1.851375 1_555
