# generated using pymatgen
data_Tl2SO3
_symmetry_space_group_name_H-M   'P 1'
_cell_length_a   7.73041500
_cell_length_b   6.97691700
_cell_length_c   11.26661997
_cell_angle_alpha   68.66547532
_cell_angle_beta   90.00000000
_cell_angle_gamma   90.00000000
_symmetry_Int_Tables_number   1
_chemical_formula_structural   Tl2SO3
_chemical_formula_sum   'Tl8 S4 O12'
_cell_volume   566.01754985
_cell_formula_units_Z   4
loop_
 _symmetry_equiv_pos_site_id
 _symmetry_equiv_pos_as_xyz
  1  'x, y, z'
loop_
 _atom_site_type_symbol
 _atom_site_label
 _atom_site_symmetry_multiplicity
 _atom_site_fract_x
 _atom_site_fract_y
 _atom_site_fract_z
 _atom_site_occupancy
  Tl  Tl0  1  0.83867700  0.29349200  0.45514700  1
  Tl  Tl1  1  0.39588700  0.12242800  0.69992400  1
  Tl  Tl2  1  0.33867700  0.70650800  0.04485300  1
  Tl  Tl3  1  0.89588700  0.87757200  0.80007600  1
  Tl  Tl4  1  0.10411300  0.12242800  0.19992400  1
  Tl  Tl5  1  0.66132300  0.29349200  0.95514700  1
  Tl  Tl6  1  0.60411300  0.87757200  0.30007600  1
  Tl  Tl7  1  0.16132300  0.70650800  0.54485300  1
  S  S0  1  0.66269400  0.59994800  0.62125400  1
  S  S1  1  0.16269400  0.40005200  0.87874600  1
  S  S2  1  0.33730600  0.40005200  0.37874600  1
  S  S3  1  0.83730600  0.59994800  0.12125400  1
  O  O0  1  0.25535500  0.40378800  0.75488600  1
  O  O1  1  0.15414900  0.63092600  0.86214400  1
  O  O2  1  0.20425000  0.30494900  0.48799800  1
  O  O3  1  0.65414900  0.36907400  0.63785600  1
  O  O4  1  0.70425000  0.69505100  0.01200200  1
  O  O5  1  0.75535500  0.59621200  0.74511400  1
  O  O6  1  0.24464500  0.40378800  0.25488600  1
  O  O7  1  0.79575000  0.69505100  0.51200200  1
  O  O8  1  0.84585100  0.36907400  0.13785600  1
  O  O9  1  0.29575000  0.30494900  0.98799800  1
  O  O10  1  0.34585100  0.63092600  0.36214400  1
  O  O11  1  0.74464500  0.59621200  0.24511400  1
loop_
_geom_bond_atom_site_label_1
_geom_bond_atom_site_label_2
_geom_bond_distance
_geom_bond_site_symmetry_2
O0 S1 1.560347 1_555
O0 Tl1 2.510300 1_555
O0 Tl7 2.636711 1_555
O1 S1 1.553950 1_555
O1 Tl3 2.561360 1_455
O1 Tl2 2.709287 1_556
O2 S2 1.555339 1_555
O2 Tl1 2.702767 1_555
O2 Tl0 2.855058 1_455
O3 S0 1.553950 1_555
O3 Tl1 2.561360 1_555
O3 Tl0 2.709287 1_555
O4 S3 1.555339 1_555
O4 Tl3 2.702767 1_554
O4 Tl2 2.855058 1_555
O5 S0 1.560347 1_555
O5 Tl3 2.510300 1_555
O5 Tl5 2.636711 1_555
O6 S2 1.560347 1_555
O6 Tl4 2.510300 1_555
O6 Tl2 2.636711 1_555
O7 S0 1.555339 1_555
O7 Tl6 2.702767 1_555
O7 Tl7 2.855058 1_655
O8 S3 1.553950 1_555
O8 Tl4 2.561360 1_655
O8 Tl5 2.709287 1_554
O9 S1 1.555339 1_555
O9 Tl4 2.702767 1_556
O9 Tl5 2.855058 1_555
O10 S2 1.553950 1_555
O10 Tl6 2.561360 1_555
O10 Tl7 2.709287 1_555
O11 S3 1.560347 1_555
O11 Tl6 2.510300 1_555
O11 Tl0 2.636711 1_555
