# generated using pymatgen
data_CeTmS3
_symmetry_space_group_name_H-M   'P 1'
_cell_length_a   3.93317325
_cell_length_b   16.37900100
_cell_length_c   21.10535562
_cell_angle_alpha   90.00000000
_cell_angle_beta   90.00000000
_cell_angle_gamma   90.00000000
_symmetry_Int_Tables_number   1
_chemical_formula_structural   CeTmS3
_chemical_formula_sum   'Ce12 Tm12 S36'
_cell_volume   1359.63758215
_cell_formula_units_Z   12
loop_
 _symmetry_equiv_pos_site_id
 _symmetry_equiv_pos_as_xyz
  1  'x, y, z'
loop_
 _atom_site_type_symbol
 _atom_site_label
 _atom_site_symmetry_multiplicity
 _atom_site_fract_x
 _atom_site_fract_y
 _atom_site_fract_z
 _atom_site_occupancy
  Ce  Ce0  1  0.75000000  0.66991407  0.91276197  1
  Ce  Ce1  1  0.25000000  0.66311077  0.25497530  1
  Ce  Ce2  1  0.25000000  0.16311077  0.24502470  1
  Ce  Ce3  1  0.25000000  0.33008593  0.08723803  1
  Ce  Ce4  1  0.75000000  0.83688923  0.75497530  1
  Ce  Ce5  1  0.25000000  0.83008593  0.41276197  1
  Ce  Ce6  1  0.75000000  0.80415659  0.07798574  1
  Ce  Ce7  1  0.75000000  0.30415659  0.42201426  1
  Ce  Ce8  1  0.75000000  0.33688923  0.74502470  1
  Ce  Ce9  1  0.25000000  0.69584341  0.57798574  1
  Ce  Ce10  1  0.75000000  0.16991407  0.58723803  1
  Ce  Ce11  1  0.25000000  0.19584341  0.92201426  1
  Tm  Tm0  1  0.25000000  0.56616586  0.07941081  1
  Tm  Tm1  1  0.25000000  0.09546960  0.75109963  1
  Tm  Tm2  1  0.25000000  0.59546960  0.74890037  1
  Tm  Tm3  1  0.75000000  0.05568215  0.06974834  1
  Tm  Tm4  1  0.75000000  0.40453040  0.25109963  1
  Tm  Tm5  1  0.75000000  0.90453040  0.24890037  1
  Tm  Tm6  1  0.75000000  0.43383414  0.92058919  1
  Tm  Tm7  1  0.75000000  0.93383414  0.57941081  1
  Tm  Tm8  1  0.25000000  0.94431785  0.93025166  1
  Tm  Tm9  1  0.25000000  0.06616586  0.42058919  1
  Tm  Tm10  1  0.75000000  0.55568215  0.43025166  1
  Tm  Tm11  1  0.25000000  0.44431785  0.56974834  1
  S  S0  1  0.25000000  0.44610002  0.69484962  1
  S  S1  1  0.75000000  0.17863547  0.81686733  1
  S  S2  1  0.25000000  0.96186156  0.31836621  1
  S  S3  1  0.75000000  0.55389998  0.30515038  1
  S  S4  1  0.75000000  0.06086965  0.94107015  1
  S  S5  1  0.75000000  0.03813844  0.68163379  1
  S  S6  1  0.75000000  0.64693144  0.14917198  1
  S  S7  1  0.25000000  0.94610002  0.80515038  1
  S  S8  1  0.75000000  0.34022133  0.56430584  1
  S  S9  1  0.25000000  0.54502752  0.94758406  1
  S  S10  1  0.25000000  0.46186156  0.18163379  1
  S  S11  1  0.25000000  0.15977867  0.06430584  1
  S  S12  1  0.25000000  0.85306856  0.64917198  1
  S  S13  1  0.75000000  0.14693144  0.35082802  1
  S  S14  1  0.25000000  0.82136453  0.18313267  1
  S  S15  1  0.25000000  0.72977752  0.82187917  1
  S  S16  1  0.25000000  0.35306856  0.85082802  1
  S  S17  1  0.75000000  0.05389998  0.19484962  1
  S  S18  1  0.75000000  0.53813844  0.81836621  1
  S  S19  1  0.25000000  0.71020531  0.01622645  1
  S  S20  1  0.75000000  0.67863547  0.68313267  1
  S  S21  1  0.75000000  0.28979469  0.98377355  1
  S  S22  1  0.25000000  0.04502752  0.55241594  1
  S  S23  1  0.25000000  0.21020531  0.48377355  1
  S  S24  1  0.25000000  0.65977867  0.43569416  1
  S  S25  1  0.75000000  0.78979469  0.51622645  1
  S  S26  1  0.75000000  0.56086965  0.55892985  1
  S  S27  1  0.25000000  0.93913035  0.05892985  1
  S  S28  1  0.75000000  0.77022248  0.32187917  1
  S  S29  1  0.75000000  0.27022248  0.17812083  1
  S  S30  1  0.25000000  0.32136453  0.31686733  1
  S  S31  1  0.25000000  0.22977752  0.67812083  1
  S  S32  1  0.25000000  0.43913035  0.44107015  1
  S  S33  1  0.75000000  0.84022133  0.93569416  1
  S  S34  1  0.75000000  0.45497248  0.05241594  1
  S  S35  1  0.75000000  0.95497248  0.44758406  1
loop_
_geom_bond_atom_site_label_1
_geom_bond_atom_site_label_2
_geom_bond_distance
_geom_bond_site_symmetry_2
Ce0 S33 2.831140 1_555
Ce0 S15 2.916849 1_555
Ce0 S15 2.916849 1_655
Ce0 S9 2.931165 1_555
Ce0 S9 2.931165 1_655
Ce0 S18 2.937273 1_555
Ce0 S19 3.011863 1_556
Ce0 S19 3.011863 1_656
Ce1 S3 2.861563 1_555
Ce1 S3 2.861563 1_455
Ce1 S6 2.987315 1_455
Ce1 S6 2.987315 1_555
Ce1 S28 2.989841 1_455
Ce1 S28 2.989841 1_555
Ce1 S14 3.002952 1_555
Ce2 S17 2.861563 1_455
Ce2 S17 2.861563 1_555
Ce2 S13 2.987315 1_455
Ce2 S13 2.987315 1_555
Ce2 S29 2.989841 1_555
Ce2 S29 2.989841 1_455
Ce2 S30 3.002952 1_555
Ce3 S11 2.831140 1_555
Ce3 S29 2.916849 1_555
Ce3 S29 2.916849 1_455
Ce3 S34 2.931165 1_455
Ce3 S34 2.931165 1_555
Ce3 S10 2.937273 1_555
Ce3 S21 3.011863 1_454
Ce3 S21 3.011863 1_554
Ce4 S7 2.861563 1_655
Ce4 S7 2.861563 1_555
Ce4 S12 2.987315 1_555
Ce4 S12 2.987315 1_655
Ce4 S15 2.989841 1_555
Ce4 S15 2.989841 1_655
Ce4 S20 3.002952 1_555
Ce5 S24 2.831140 1_555
Ce5 S28 2.916849 1_555
Ce5 S28 2.916849 1_455
Ce5 S35 2.931165 1_555
Ce5 S35 2.931165 1_455
Ce5 S2 2.937273 1_555
Ce5 S25 3.011863 1_555
Ce5 S25 3.011863 1_455
Ce6 S19 2.816814 1_655
Ce6 S19 2.816814 1_555
Ce6 S14 2.978521 1_555
Ce6 S14 2.978521 1_655
Ce6 S6 2.981417 1_555
Ce6 S27 2.986062 1_555
Ce6 S27 2.986062 1_655
Ce6 S33 3.060658 1_554
Ce7 S23 2.816814 1_555
Ce7 S23 2.816814 1_655
Ce7 S30 2.978521 1_555
Ce7 S30 2.978521 1_655
Ce7 S13 2.981417 1_555
Ce7 S32 2.986062 1_555
Ce7 S32 2.986062 1_655
Ce7 S8 3.060658 1_555
Ce8 S0 2.861563 1_555
Ce8 S0 2.861563 1_655
Ce8 S16 2.987315 1_555
Ce8 S16 2.987315 1_655
Ce8 S31 2.989841 1_555
Ce8 S31 2.989841 1_655
Ce8 S1 3.002952 1_555
Ce9 S25 2.816814 1_455
Ce9 S25 2.816814 1_555
Ce9 S20 2.978521 1_555
Ce9 S20 2.978521 1_455
Ce9 S12 2.981417 1_555
Ce9 S26 2.986062 1_555
Ce9 S26 2.986062 1_455
Ce9 S24 3.060658 1_555
Ce10 S8 2.831140 1_555
Ce10 S31 2.916849 1_555
Ce10 S31 2.916849 1_655
Ce10 S22 2.931165 1_555
Ce10 S22 2.931165 1_655
Ce10 S5 2.937273 1_555
Ce10 S23 3.011863 1_655
Ce10 S23 3.011863 1_555
Ce11 S21 2.816814 1_555
Ce11 S21 2.816814 1_455
Ce11 S1 2.978521 1_555
Ce11 S1 2.978521 1_455
Ce11 S16 2.981417 1_555
Ce11 S4 2.986062 1_455
Ce11 S4 2.986062 1_555
Ce11 S11 3.060658 1_556
S0 Tm11 2.640468 1_555
S0 Tm2 2.699410 1_555
S1 Tm1 2.765803 1_555
S1 Tm1 2.765803 1_655
S2 Tm5 2.626535 1_455
S2 Tm5 2.626535 1_555
S2 Tm9 2.751951 1_565
S3 Tm10 2.640468 1_555
S3 Tm4 2.699410 1_555
S4 Tm3 2.717128 1_556
S4 Tm8 2.750252 1_645
S4 Tm8 2.750252 1_545
S5 Tm1 2.626535 1_555
S5 Tm1 2.626535 1_655
S5 Tm7 2.751951 1_545
S6 Tm0 2.790195 1_655
S6 Tm0 2.790195 1_555
S7 Tm8 2.640468 1_555
S7 Tm1 2.699410 1_565
S8 Tm11 2.605316 1_655
S8 Tm11 2.605316 1_555
S9 Tm6 2.740249 1_455
S9 Tm6 2.740249 1_555
S9 Tm0 2.803710 1_556
S10 Tm4 2.626535 1_555
S10 Tm4 2.626535 1_455
S10 Tm0 2.751951 1_555
S11 Tm3 2.605316 1_555
S11 Tm3 2.605316 1_455
S12 Tm7 2.790195 1_555
S12 Tm7 2.790195 1_455
S13 Tm9 2.790195 1_555
S13 Tm9 2.790195 1_655
S14 Tm5 2.765803 1_455
S14 Tm5 2.765803 1_555
S15 Tm2 2.685442 1_555
S16 Tm6 2.790195 1_455
S16 Tm6 2.790195 1_555
S17 Tm3 2.640468 1_555
S17 Tm5 2.699410 1_545
S18 Tm2 2.626535 1_555
S18 Tm2 2.626535 1_655
S18 Tm6 2.751951 1_555
S19 Tm0 2.710024 1_555
S20 Tm2 2.765803 1_555
S20 Tm2 2.765803 1_655
S21 Tm6 2.710024 1_555
S22 Tm7 2.740249 1_445
S22 Tm7 2.740249 1_545
S22 Tm9 2.803710 1_555
S23 Tm9 2.710024 1_555
S24 Tm10 2.605316 1_555
S24 Tm10 2.605316 1_455
S25 Tm7 2.710024 1_555
S26 Tm10 2.717128 1_555
S26 Tm11 2.750252 1_655
S26 Tm11 2.750252 1_555
S27 Tm8 2.717128 1_554
S27 Tm3 2.750252 1_465
S27 Tm3 2.750252 1_565
S28 Tm5 2.685442 1_555
S29 Tm4 2.685442 1_555
S30 Tm4 2.765803 1_455
S30 Tm4 2.765803 1_555
S31 Tm1 2.685442 1_555
S32 Tm11 2.717128 1_555
S32 Tm10 2.750252 1_555
S32 Tm10 2.750252 1_455
S33 Tm8 2.605316 1_555
S33 Tm8 2.605316 1_655
S34 Tm0 2.740249 1_655
S34 Tm0 2.740249 1_555
S34 Tm6 2.803710 1_554
S35 Tm9 2.740249 1_565
S35 Tm9 2.740249 1_665
S35 Tm7 2.803710 1_555
