# generated using pymatgen
data_CeP5O14
_symmetry_space_group_name_H-M   'P 1'
_cell_length_a   8.81451720
_cell_length_b   9.09896204
_cell_length_c   13.12535312
_cell_angle_alpha   90.00000000
_cell_angle_beta   90.00000000
_cell_angle_gamma   90.00000000
_symmetry_Int_Tables_number   1
_chemical_formula_structural   CeP5O14
_chemical_formula_sum   'Ce4 P20 O56'
_cell_volume   1052.69213719
_cell_formula_units_Z   4
loop_
 _symmetry_equiv_pos_site_id
 _symmetry_equiv_pos_as_xyz
  1  'x, y, z'
loop_
 _atom_site_type_symbol
 _atom_site_label
 _atom_site_symmetry_multiplicity
 _atom_site_fract_x
 _atom_site_fract_y
 _atom_site_fract_z
 _atom_site_occupancy
  Ce  Ce0  1  0.77629347  0.19019855  -0.00000000  1
  Ce  Ce1  1  0.77629347  0.30980145  0.50000000  1
  Ce  Ce2  1  0.22370653  0.80980145  -0.00000000  1
  Ce  Ce3  1  0.22370653  0.69019855  0.50000000  1
  P  P0  1  0.18679101  0.25338980  0.50000000  1
  P  P1  1  0.81320899  0.74661020  0.50000000  1
  P  P2  1  0.73595537  0.94927272  0.66381285  1
  P  P3  1  0.50000000  0.50000000  0.67573188  1
  P  P4  1  0.18679101  0.24661020  -0.00000000  1
  P  P5  1  0.26404463  0.05072728  0.66381285  1
  P  P6  1  -0.00000000  -0.00000000  0.79463201  1
  P  P7  1  0.73595537  0.55072728  0.16381285  1
  P  P8  1  0.50000000  0.50000000  0.32426812  1
  P  P9  1  0.26404463  0.44927272  0.16381285  1
  P  P10  1  0.81320899  0.75338980  -0.00000000  1
  P  P11  1  -0.00000000  0.50000000  0.29463201  1
  P  P12  1  0.26404463  0.44927272  0.83618715  1
  P  P13  1  -0.00000000  0.50000000  0.70536799  1
  P  P14  1  0.50000000  -0.00000000  0.17573188  1
  P  P15  1  0.73595537  0.94927272  0.33618715  1
  P  P16  1  0.50000000  -0.00000000  0.82426812  1
  P  P17  1  0.73595537  0.55072728  0.83618715  1
  P  P18  1  0.26404463  0.05072728  0.33618715  1
  P  P19  1  -0.00000000  -0.00000000  0.20536799  1
  O  O0  1  0.91326050  0.11488231  0.84775359  1
  O  O1  1  0.27449839  0.90832645  0.61289907  1
  O  O2  1  0.03367041  0.18713004  0.50000000  1
  O  O3  1  0.28519852  0.18772321  0.59361712  1
  O  O4  1  0.72550161  0.09167355  0.38710093  1
  O  O5  1  0.61229640  0.91777897  0.25449395  1
  O  O6  1  0.71480148  0.68772321  0.09361712  1
  O  O7  1  0.10953252  0.41451177  0.78346141  1
  O  O8  1  0.89046748  0.58548823  0.78346141  1
  O  O9  1  0.89046748  0.91451177  0.71653859  1
  O  O10  1  0.96632959  0.68713004  -0.00000000  1
  O  O11  1  0.38770360  0.41777897  0.24550605  1
  O  O12  1  0.38770360  0.41777897  0.75449395  1
  O  O13  1  0.27449839  0.90832645  0.38710093  1
  O  O14  1  0.08673950  0.61488231  0.34775359  1
  O  O15  1  0.58084270  0.38254600  0.62106057  1
  O  O16  1  0.91326050  0.38511769  0.34775359  1
  O  O17  1  0.41915730  0.88254600  0.87893943  1
  O  O18  1  0.21160018  0.08669915  -0.00000000  1
  O  O19  1  0.78839982  0.58669915  0.50000000  1
  O  O20  1  0.41915730  0.61745400  0.62106057  1
  O  O21  1  0.72550161  0.40832645  0.88710093  1
  O  O22  1  0.61229640  0.91777897  0.74550605  1
  O  O23  1  0.10953252  0.41451177  0.21653859  1
  O  O24  1  0.38770360  0.08222103  0.74550605  1
  O  O25  1  0.72550161  0.40832645  0.11289907  1
  O  O26  1  0.78839982  0.91330085  -0.00000000  1
  O  O27  1  0.71480148  0.68772321  0.90638288  1
  O  O28  1  0.71480148  0.81227679  0.40638288  1
  O  O29  1  0.41915730  0.61745400  0.37893943  1
  O  O30  1  0.91326050  0.38511769  0.65224641  1
  O  O31  1  0.41915730  0.88254600  0.12106057  1
  O  O32  1  0.58084270  0.38254600  0.37893943  1
  O  O33  1  0.28519852  0.31227679  0.09361712  1
  O  O34  1  0.61229640  0.58222103  0.75449395  1
  O  O35  1  0.27449839  0.59167355  0.11289907  1
  O  O36  1  0.96632959  0.81286996  0.50000000  1
  O  O37  1  0.28519852  0.18772321  0.40638288  1
  O  O38  1  0.03367041  0.31286996  -0.00000000  1
  O  O39  1  0.28519852  0.31227679  0.90638288  1
  O  O40  1  0.27449839  0.59167355  0.88710093  1
  O  O41  1  0.71480148  0.81227679  0.59361712  1
  O  O42  1  0.89046748  0.91451177  0.28346141  1
  O  O43  1  0.21160018  0.41330085  0.50000000  1
  O  O44  1  0.08673950  0.88511769  0.84775359  1
  O  O45  1  0.72550161  0.09167355  0.61289907  1
  O  O46  1  0.89046748  0.58548823  0.21653859  1
  O  O47  1  0.10953252  0.08548823  0.28346141  1
  O  O48  1  0.58084270  0.11745400  0.12106057  1
  O  O49  1  0.61229640  0.58222103  0.24550605  1
  O  O50  1  0.38770360  0.08222103  0.25449395  1
  O  O51  1  0.08673950  0.88511769  0.15224641  1
  O  O52  1  0.91326050  0.11488231  0.15224641  1
  O  O53  1  0.10953252  0.08548823  0.71653859  1
  O  O54  1  0.08673950  0.61488231  0.65224641  1
  O  O55  1  0.58084270  0.11745400  0.87893943  1
loop_
_geom_bond_atom_site_label_1
_geom_bond_atom_site_label_2
_geom_bond_distance
_geom_bond_site_symmetry_2
Ce0 O52 2.433179 1_555
Ce0 O0 2.433179 1_554
Ce0 O48 2.435358 1_555
Ce0 O55 2.435358 1_554
Ce0 O25 2.517037 1_555
Ce0 O21 2.517037 1_554
Ce0 O26 2.521741 1_545
Ce0 O38 2.528369 1_655
Ce1 O16 2.433179 1_555
Ce1 O30 2.433179 1_555
Ce1 O32 2.435358 1_555
Ce1 O15 2.435358 1_555
Ce1 O45 2.517037 1_555
Ce1 O4 2.517037 1_555
Ce1 O19 2.521741 1_555
Ce1 O2 2.528369 1_655
Ce2 O51 2.433179 1_555
Ce2 O44 2.433179 1_554
Ce2 O17 2.435358 1_554
Ce2 O31 2.435358 1_555
Ce2 O40 2.517037 1_554
Ce2 O35 2.517037 1_555
Ce2 O18 2.521741 1_565
Ce2 O10 2.528369 1_455
Ce3 O14 2.433179 1_555
Ce3 O54 2.433179 1_555
Ce3 O29 2.435358 1_555
Ce3 O20 2.435358 1_555
Ce3 O1 2.517037 1_555
Ce3 O13 2.517037 1_555
Ce3 O43 2.521741 1_555
Ce3 O36 2.528369 1_455
O0 P6 1.470843 1_655
O1 P5 1.460788 1_565
O2 P0 1.478218 1_555
O3 P5 1.561235 1_555
O3 P0 1.618412 1_555
O4 P15 1.460788 1_545
O5 P15 1.555612 1_555
O5 P14 1.614984 1_565
O6 P7 1.561235 1_555
O6 P10 1.618412 1_555
O7 P12 1.560087 1_555
O7 P13 1.608675 1_555
O8 P17 1.560087 1_555
O8 P13 1.608675 1_655
O9 P2 1.560087 1_555
O9 P6 1.608675 1_665
O10 P10 1.478218 1_555
O11 P9 1.555612 1_555
O11 P8 1.614984 1_555
O12 P12 1.555612 1_555
O12 P3 1.614984 1_555
O13 P18 1.460788 1_565
O14 P11 1.470843 1_555
O15 P3 1.471341 1_555
O16 P11 1.470843 1_655
O17 P16 1.471341 1_565
O18 P4 1.471366 1_555
O19 P1 1.471366 1_555
O20 P3 1.471341 1_555
O21 P17 1.460788 1_555
O22 P2 1.555612 1_555
O22 P16 1.614984 1_565
O23 P9 1.560087 1_555
O23 P11 1.608675 1_555
O24 P5 1.555612 1_555
O24 P16 1.614984 1_555
O25 P7 1.460788 1_555
O26 P10 1.471366 1_555
O27 P17 1.561235 1_555
O27 P10 1.618412 1_556
O28 P15 1.561235 1_555
O28 P1 1.618412 1_555
O29 P8 1.471341 1_555
O30 P13 1.470843 1_655
O31 P14 1.471341 1_565
O32 P8 1.471341 1_555
O33 P9 1.561235 1_555
O33 P4 1.618412 1_555
O34 P17 1.555612 1_555
O34 P3 1.614984 1_555
O35 P9 1.460788 1_555
O36 P1 1.478218 1_555
O37 P18 1.561235 1_555
O37 P0 1.618412 1_555
O38 P4 1.478218 1_555
O39 P12 1.561235 1_555
O39 P4 1.618412 1_556
O40 P12 1.460788 1_555
O41 P2 1.561235 1_555
O41 P1 1.618412 1_555
O42 P15 1.560087 1_555
O42 P19 1.608675 1_665
O43 P0 1.471366 1_555
O44 P6 1.470843 1_565
O45 P2 1.460788 1_545
O46 P7 1.560087 1_555
O46 P11 1.608675 1_655
O47 P18 1.560087 1_555
O47 P19 1.608675 1_555
O48 P14 1.471341 1_555
O49 P7 1.555612 1_555
O49 P8 1.614984 1_555
O50 P18 1.555612 1_555
O50 P14 1.614984 1_555
O51 P19 1.470843 1_565
O52 P19 1.470843 1_655
O53 P5 1.560087 1_555
O53 P6 1.608675 1_555
O54 P13 1.470843 1_555
O55 P16 1.471341 1_555
