# generated using pymatgen
data_NaLa2Ti2MnO9
_symmetry_space_group_name_H-M   'P 1'
_cell_length_a   5.53269743
_cell_length_b   5.53269743
_cell_length_c   13.59577483
_cell_angle_alpha   89.74804128
_cell_angle_beta   89.74804128
_cell_angle_gamma   60.31359983
_symmetry_Int_Tables_number   1
_chemical_formula_structural   NaLa2Ti2MnO9
_chemical_formula_sum   'Na2 La4 Ti4 Mn2 O18'
_cell_volume   361.54849012
_cell_formula_units_Z   2
loop_
 _symmetry_equiv_pos_site_id
 _symmetry_equiv_pos_as_xyz
  1  'x, y, z'
loop_
 _atom_site_type_symbol
 _atom_site_label
 _atom_site_symmetry_multiplicity
 _atom_site_fract_x
 _atom_site_fract_y
 _atom_site_fract_z
 _atom_site_occupancy
  Na  Na0  1  0.66600400  0.66629000  0.33456700  1
  Na  Na1  1  0.33371000  0.33399600  0.66543300  1
  La  La0  1  0.00113800  0.99886200  0.00000000  1
  La  La1  1  0.00074800  0.99925200  0.50000000  1
  La  La2  1  0.66587800  0.66350900  0.83124100  1
  La  La3  1  0.33649100  0.33412200  0.16875900  1
  Ti  Ti0  1  0.00892000  0.99631600  0.25268000  1
  Ti  Ti1  1  0.67331700  0.66227000  0.58307600  1
  Ti  Ti2  1  0.33773100  0.32668300  0.41692400  1
  Ti  Ti3  1  0.00368400  0.99108000  0.74732000  1
  Mn  Mn0  1  0.33004000  0.33480600  0.91412800  1
  Mn  Mn1  1  0.66519400  0.66996000  0.08587200  1
  O  O0  1  0.14303500  0.70877300  0.35427300  1
  O  O1  1  0.55947700  0.44052300  0.50000000  1
  O  O2  1  0.03251700  0.48551900  0.51827000  1
  O  O3  1  0.62312300  0.19034400  0.31390600  1
  O  O4  1  0.80965600  0.37687700  0.68609400  1
  O  O5  1  0.10985900  0.22490800  0.33455300  1
  O  O6  1  0.22516000  0.08846700  0.83684300  1
  O  O7  1  0.51448100  0.96748300  0.48173000  1
  O  O8  1  0.71473100  0.14692800  0.85335000  1
  O  O9  1  0.29122700  0.85696500  0.64572700  1
  O  O10  1  0.48176600  0.04116100  0.02044600  1
  O  O11  1  0.77509200  0.89014100  0.66544700  1
  O  O12  1  0.91153300  0.77484000  0.16315700  1
  O  O13  1  0.17108500  0.63830700  0.81280800  1
  O  O14  1  0.36169300  0.82891500  0.18719200  1
  O  O15  1  0.95883900  0.51823400  0.97955400  1
  O  O16  1  0.44079900  0.55920100  0.00000000  1
  O  O17  1  0.85307200  0.28526900  0.14665000  1
loop_
_geom_bond_atom_site_label_1
_geom_bond_atom_site_label_2
_geom_bond_distance
_geom_bond_site_symmetry_2
Na0 O5 2.460501 1_655
Na0 O7 2.472597 1_555
Na0 O14 2.484414 1_555
Na0 O1 2.767547 1_555
Na0 O3 2.774018 1_555
Na0 O0 2.777408 1_655
Na0 O0 2.796259 1_555
Na0 O3 2.802494 1_565
Na0 O12 2.899136 1_555
Na1 O11 2.460501 1_545
Na1 O2 2.472597 1_555
Na1 O13 2.484414 1_555
Na1 O1 2.767547 1_555
Na1 O4 2.774018 1_555
Na1 O9 2.777408 1_545
Na1 O9 2.796259 1_555
Na1 O4 2.802494 1_455
Na1 O6 2.899136 1_555
La0 O8 2.425905 1_464
La0 O17 2.425905 1_465
La0 O16 2.444032 1_555
La0 O12 2.697664 1_455
La0 O6 2.697664 1_564
La0 O10 2.777886 1_465
La0 O15 2.777886 1_464
La0 O10 2.797625 1_565
La0 O15 2.797625 1_454
La1 O9 2.426759 1_555
La1 O0 2.426759 1_555
La1 O1 2.452982 1_465
La1 O2 2.769613 1_555
La1 O7 2.769613 1_555
La1 O11 2.773579 1_455
La1 O5 2.773579 1_565
La1 O7 2.793802 1_455
La1 O2 2.793802 1_565
La2 O6 2.408477 1_565
La2 O4 2.409593 1_555
La2 O15 2.462376 1_555
La2 O13 2.739207 1_655
La2 O8 2.749555 1_555
La2 O11 2.780635 1_555
La2 O16 2.796996 1_556
La2 O13 2.821489 1_555
La2 O8 2.835629 1_565
La3 O12 2.408477 1_455
La3 O3 2.409593 1_555
La3 O10 2.462376 1_555
La3 O14 2.739207 1_545
La3 O17 2.749555 1_555
La3 O5 2.780635 1_555
La3 O16 2.796996 1_555
La3 O14 2.821489 1_555
La3 O17 2.835629 1_455
Mn0 O15 1.991593 1_455
Mn0 O13 2.004551 1_555
Mn0 O16 2.013088 1_556
Mn0 O10 2.018097 1_556
Mn0 O8 2.023367 1_555
Mn0 O6 2.024758 1_555
Mn1 O10 1.991593 1_565
Mn1 O14 2.004551 1_555
Mn1 O16 2.013088 1_555
Mn1 O15 2.018097 1_554
Mn1 O17 2.023367 1_555
Mn1 O12 2.024758 1_555
O0 Ti0 1.951860 1_555
O0 Ti2 2.022750 1_555
O1 Ti2 1.990335 1_555
O1 Ti1 1.990339 1_555
O2 Ti1 1.936324 1_455
O2 Ti2 2.010642 1_555
O3 Ti2 1.958059 1_555
O3 Ti0 2.030764 1_645
O4 Ti1 1.958063 1_555
O4 Ti3 2.030764 1_645
O5 Ti0 1.966705 1_545
O5 Ti2 1.970244 1_555
O6 Ti3 1.986479 1_545
O7 Ti2 1.936324 1_565
O7 Ti1 2.010639 1_555
O8 Ti3 2.000665 1_645
O9 Ti3 1.951860 1_555
O9 Ti1 2.022750 1_555
O11 Ti3 1.966705 1_655
O11 Ti1 1.970240 1_555
O12 Ti0 1.986479 1_655
O13 Ti3 1.913491 1_555
O14 Ti0 1.913491 1_555
O17 Ti0 2.000665 1_645
