# generated using pymatgen
data_Yb11(U2S11)2
_symmetry_space_group_name_H-M   'P 1'
_cell_length_a   19.58873242
_cell_length_b   19.58873242
_cell_length_c   11.42960627
_cell_angle_alpha   88.65913936
_cell_angle_beta   88.65913936
_cell_angle_gamma   11.64852396
_symmetry_Int_Tables_number   1
_chemical_formula_structural   Yb11(U2S11)2
_chemical_formula_sum   'Yb11 U4 S22'
_cell_volume   885.27075155
_cell_formula_units_Z   1
loop_
 _symmetry_equiv_pos_site_id
 _symmetry_equiv_pos_as_xyz
  1  'x, y, z'
loop_
 _atom_site_type_symbol
 _atom_site_label
 _atom_site_symmetry_multiplicity
 _atom_site_fract_x
 _atom_site_fract_y
 _atom_site_fract_z
 _atom_site_occupancy
  Yb  Yb0  1  0.53703200  0.53703200  0.77196400  1
  Yb  Yb1  1  0.73599700  0.73599700  0.86361200  1
  Yb  Yb2  1  0.36906600  0.36906600  0.14519700  1
  Yb  Yb3  1  0.93175900  0.93175900  0.85446500  1
  Yb  Yb4  1  0.34232000  0.34232000  0.81620000  1
  Yb  Yb5  1  0.63093400  0.63093400  0.85480300  1
  Yb  Yb6  1  0.65768000  0.65768000  0.18380000  1
  Yb  Yb7  1  0.00000000  0.00000000  0.50000000  1
  Yb  Yb8  1  0.06824100  0.06824100  0.14553500  1
  Yb  Yb9  1  0.26400300  0.26400300  0.13638800  1
  Yb  Yb10  1  0.46296800  0.46296800  0.22803600  1
  U  U0  1  0.89861100  0.89861100  0.50537300  1
  U  U1  1  0.19868100  0.19868100  0.56366200  1
  U  U2  1  0.80131900  0.80131900  0.43633800  1
  U  U3  1  0.10138900  0.10138900  0.49462700  1
  S  S0  1  0.74293800  0.74293800  0.60820600  1
  S  S1  1  0.55690300  0.55690300  0.99444400  1
  S  S2  1  0.35140500  0.35140500  0.41857600  1
  S  S3  1  0.81287400  0.81287400  0.21276100  1
  S  S4  1  0.99144700  0.99144700  0.73199300  1
  S  S5  1  0.44807700  0.44807700  0.46953500  1
  S  S6  1  0.00855300  0.00855300  0.26800700  1
  S  S7  1  0.16853100  0.16853100  0.36630300  1
  S  S8  1  0.64859500  0.64859500  0.58142400  1
  S  S9  1  0.40185700  0.40185700  0.67843800  1
  S  S10  1  0.86630000  0.86630000  0.96497000  1
  S  S11  1  0.28014400  0.28014400  0.90416700  1
  S  S12  1  0.71985600  0.71985600  0.09583300  1
  S  S13  1  0.59814300  0.59814300  0.32156200  1
  S  S14  1  0.83146900  0.83146900  0.63369700  1
  S  S15  1  0.18712600  0.18712600  0.78723900  1
  S  S16  1  0.09245500  0.09245500  0.72652900  1
  S  S17  1  0.44309700  0.44309700  0.00555600  1
  S  S18  1  0.13370000  0.13370000  0.03503000  1
  S  S19  1  0.90754500  0.90754500  0.27347100  1
  S  S20  1  0.25706200  0.25706200  0.39179400  1
  S  S21  1  0.55192300  0.55192300  0.53046500  1
loop_
_geom_bond_atom_site_label_1
_geom_bond_atom_site_label_2
_geom_bond_distance
_geom_bond_site_symmetry_2
S0 U1 2.688365 1_565
S0 U1 2.688365 1_655
S0 Yb1 2.925355 1_555
S0 U2 2.970864 1_555
S1 Yb0 2.675554 1_555
S1 Yb8 2.676717 1_656
S1 Yb8 2.676717 1_566
S1 Yb5 3.264367 1_555
S2 U2 2.790113 1_455
S2 U2 2.790113 1_545
S2 U0 2.899406 1_455
S2 U0 2.899406 1_545
S2 Yb2 3.183685 1_555
S3 U2 2.584325 1_555
S3 Yb9 2.901675 1_565
S3 Yb9 2.901675 1_655
S3 Yb2 3.043799 1_655
S3 Yb2 3.043799 1_565
S4 Yb7 2.664670 1_665
S4 Yb3 2.686668 1_555
S4 Yb0 2.711997 1_655
S4 Yb0 2.711997 1_565
S5 U0 2.792675 1_455
S5 U0 2.792675 1_545
S5 Yb10 2.807204 1_555
S5 Yb7 2.863777 1_655
S5 Yb7 2.863777 1_565
S6 Yb7 2.664670 1_555
S6 Yb8 2.686668 1_555
S6 Yb10 2.711997 1_455
S6 Yb10 2.711997 1_545
S7 U1 2.567861 1_555
S7 Yb6 2.919403 1_455
S7 Yb6 2.919403 1_545
S7 U3 2.969623 1_555
S8 U1 2.790113 1_655
S8 U1 2.790113 1_565
S8 U3 2.899406 1_565
S8 U3 2.899406 1_655
S8 Yb5 3.183685 1_555
S9 Yb4 2.773435 1_555
S9 U0 2.809259 1_455
S9 U0 2.809259 1_545
S9 Yb3 3.076977 1_545
S9 Yb3 3.076977 1_455
S10 Yb4 2.791237 1_565
S10 Yb4 2.791237 1_655
S10 Yb3 2.820049 1_555
S10 Yb2 2.866491 1_566
S10 Yb2 2.866491 1_656
S11 Yb4 2.601685 1_555
S11 Yb1 2.676639 1_545
S11 Yb1 2.676639 1_455
S11 Yb9 2.713294 1_556
S12 Yb6 2.601685 1_555
S12 Yb9 2.676639 1_565
S12 Yb9 2.676639 1_655
S12 Yb1 2.713294 1_554
S13 Yb6 2.773435 1_555
S13 U3 2.809259 1_565
S13 U3 2.809259 1_655
S13 Yb8 3.076977 1_565
S13 Yb8 3.076977 1_655
S14 U2 2.567861 1_555
S14 Yb4 2.919403 1_565
S14 Yb4 2.919403 1_655
S14 U0 2.969623 1_555
S15 U1 2.584325 1_555
S15 Yb1 2.901675 1_455
S15 Yb1 2.901675 1_545
S15 Yb5 3.043799 1_455
S15 Yb5 3.043799 1_545
S16 U3 2.665190 1_555
S16 Yb5 2.907499 1_455
S16 Yb5 2.907499 1_545
S16 Yb0 2.972281 1_455
S16 Yb0 2.972281 1_545
S17 Yb10 2.675554 1_555
S17 Yb3 2.676717 1_544
S17 Yb3 2.676717 1_454
S17 Yb2 3.264367 1_555
S18 Yb6 2.791237 1_545
S18 Yb6 2.791237 1_455
S18 Yb8 2.820049 1_555
S18 Yb5 2.866491 1_544
S18 Yb5 2.866491 1_454
S19 U0 2.665190 1_555
S19 Yb2 2.907499 1_565
S19 Yb2 2.907499 1_655
S19 Yb10 2.972281 1_565
S19 Yb10 2.972281 1_655
S20 U2 2.688365 1_545
S20 U2 2.688365 1_455
S20 Yb9 2.925355 1_555
S20 U1 2.970864 1_555
S21 U3 2.792675 1_655
S21 U3 2.792675 1_565
S21 Yb0 2.807204 1_555
S21 Yb7 2.863777 1_565
S21 Yb7 2.863777 1_655
