# generated using pymatgen
data_Tc6BiO18
_symmetry_space_group_name_H-M   'P 1'
_cell_length_a   7.26508100
_cell_length_b   7.26599334
_cell_length_c   16.24580430
_cell_angle_alpha   102.77783733
_cell_angle_beta   102.72832921
_cell_angle_gamma   90.03478281
_symmetry_Int_Tables_number   1
_chemical_formula_structural   Tc6BiO18
_chemical_formula_sum   'Tc12 Bi2 O36'
_cell_volume   814.69536158
_cell_formula_units_Z   2
loop_
 _symmetry_equiv_pos_site_id
 _symmetry_equiv_pos_as_xyz
  1  'x, y, z'
loop_
 _atom_site_type_symbol
 _atom_site_label
 _atom_site_symmetry_multiplicity
 _atom_site_fract_x
 _atom_site_fract_y
 _atom_site_fract_z
 _atom_site_occupancy
  Tc  Tc0  1  0.00655700  0.00813900  0.99800900  1
  Tc  Tc1  1  0.50326200  0.98257400  0.99811800  1
  Tc  Tc2  1  0.16438100  0.66574100  0.32777100  1
  Tc  Tc3  1  0.83406100  0.83384900  0.16405600  1
  Tc  Tc4  1  0.83382200  0.34699900  0.66536600  1
  Tc  Tc5  1  0.66713100  0.66002600  0.33230100  1
  Tc  Tc6  1  0.52309400  0.00140000  0.49990200  1
  Tc  Tc7  1  0.48872700  0.50070300  0.49769600  1
  Tc  Tc8  1  0.33886400  0.34116100  0.67148000  1
  Tc  Tc9  1  0.16064400  0.66515100  0.83413000  1
  Tc  Tc10  1  0.16227700  0.16495100  0.82882600  1
  Tc  Tc11  1  0.83275700  0.33178900  0.16883600  1
  Bi  Bi0  1  0.04958900  0.00420100  0.50206000  1
  Bi  Bi1  1  0.49933900  0.46218200  0.00170600  1
  O  O0  1  0.70207300  0.79425100  0.24870700  1
  O  O1  1  0.24816100  0.91445100  0.42035500  1
  O  O2  1  0.36289000  0.47733600  0.58275400  1
  O  O3  1  0.05414100  0.80430600  0.24977400  1
  O  O4  1  0.15423700  0.90625700  0.80517100  1
  O  O5  1  0.94508900  0.70098100  0.38765500  1
  O  O6  1  0.94683400  0.55718800  0.75021600  1
  O  O7  1  0.02176800  0.77501100  0.92194800  1
  O  O8  1  0.02371200  0.15077300  0.91886200  1
  O  O9  1  0.73117500  0.47431500  0.57971000  1
  O  O10  1  0.64699600  0.90842700  0.41312600  1
  O  O11  1  0.51530800  0.77726900  0.53412900  1
  O  O12  1  0.59971400  0.35352200  0.69944500  1
  O  O13  1  0.72659300  0.98263400  0.96569400  1
  O  O14  1  0.79674500  0.54856400  0.10832100  1
  O  O15  1  0.58839600  0.84510300  0.08407100  1
  O  O16  1  0.58491800  0.25206700  0.07884400  1
  O  O17  1  0.69616000  0.44285500  0.24913400  1
  O  O18  1  0.41636500  0.17920200  0.92042200  1
  O  O19  1  0.30079200  0.55227900  0.75205000  1
  O  O20  1  0.40401500  0.76454400  0.91501600  1
  O  O21  1  0.19663000  0.44200500  0.88932100  1
  O  O22  1  0.40002100  0.65059500  0.30027400  1
  O  O23  1  0.48391200  0.22717300  0.46603500  1
  O  O24  1  0.27510500  0.02073900  0.03249400  1
  O  O25  1  0.27415500  0.52738800  0.41618900  1
  O  O26  1  0.33093500  0.08868100  0.57991800  1
  O  O27  1  0.05210000  0.44624200  0.24826100  1
  O  O28  1  0.96991800  0.85105700  0.08296400  1
  O  O29  1  0.97025500  0.21545200  0.08322800  1
  O  O30  1  0.84066900  0.09817700  0.19930200  1
  O  O31  1  0.06299400  0.30115100  0.60955300  1
  O  O32  1  0.95272900  0.20216300  0.74710000  1
  O  O33  1  0.73598100  0.09500000  0.58651300  1
  O  O34  1  0.64358200  0.52974800  0.41943000  1
  O  O35  1  0.30916000  0.19250600  0.74921900  1
loop_
_geom_bond_atom_site_label_1
_geom_bond_atom_site_label_2
_geom_bond_distance
_geom_bond_site_symmetry_2
Bi0 O26 2.161107 1_555
Bi0 O1 2.174958 1_545
Bi0 O31 2.443886 1_555
Bi0 O5 2.539626 1_445
Bi1 O18 2.186670 1_554
Bi1 O16 2.189040 1_555
Bi1 O14 2.435328 1_555
Bi1 O21 2.510644 1_554
Bi1 O15 2.814211 1_555
Bi1 O20 2.868866 1_554
O0 Tc5 1.896682 1_555
O0 Tc3 1.910316 1_555
O1 Tc2 2.071572 1_555
O1 Tc6 2.135112 1_565
O2 Tc7 1.853202 1_555
O2 Tc8 1.956710 1_555
O3 Tc2 1.838157 1_555
O3 Tc3 1.921788 1_455
O4 Tc10 1.831584 1_565
O4 Tc9 1.909866 1_555
O5 Tc5 2.013912 1_555
O5 Tc2 2.030647 1_655
O6 Tc4 1.864193 1_555
O6 Tc9 1.865222 1_655
O7 Tc0 1.882271 1_565
O7 Tc9 1.955015 1_555
O8 Tc0 1.844676 1_555
O8 Tc10 1.969500 1_555
O9 Tc4 1.860453 1_555
O9 Tc7 1.998450 1_555
O10 Tc6 1.841926 1_565
O10 Tc5 2.009920 1_555
O11 Tc6 1.838156 1_565
O11 Tc7 1.961849 1_555
O12 Tc8 1.846134 1_555
O12 Tc4 1.898674 1_555
O13 Tc1 1.812940 1_555
O13 Tc0 1.983160 1_665
O14 Tc11 2.021876 1_555
O14 Tc3 2.061818 1_555
O15 Tc1 1.888726 1_554
O15 Tc3 1.976316 1_555
O16 Tc11 2.044297 1_555
O16 Tc1 2.103796 1_544
O17 Tc11 1.855691 1_555
O17 Tc5 1.882245 1_555
O18 Tc10 2.086574 1_555
O18 Tc1 2.116747 1_545
O19 Tc8 1.847911 1_555
O19 Tc9 1.898148 1_555
O20 Tc1 1.864363 1_555
O20 Tc9 1.982262 1_555
O21 Tc9 2.010330 1_555
O21 Tc10 2.024052 1_555
O22 Tc2 1.859539 1_555
O22 Tc5 1.892191 1_555
O23 Tc6 1.845447 1_555
O23 Tc7 1.937939 1_555
O24 Tc1 1.864490 1_544
O24 Tc0 1.903728 1_554
O25 Tc7 1.850787 1_555
O25 Tc2 1.960822 1_555
O26 Tc8 2.082416 1_555
O26 Tc6 2.115904 1_555
O27 Tc2 1.870932 1_555
O27 Tc11 1.874450 1_455
O28 Tc3 1.836050 1_555
O28 Tc0 2.033893 1_664
O29 Tc0 1.869279 1_654
O29 Tc11 1.933869 1_555
O30 Tc11 1.867813 1_555
O30 Tc3 1.876223 1_545
O31 Tc8 2.023598 1_555
O31 Tc4 2.058519 1_455
O32 Tc10 1.849909 1_655
O32 Tc4 1.931495 1_555
O33 Tc6 1.857666 1_555
O33 Tc4 2.014587 1_555
O34 Tc5 1.904761 1_555
O34 Tc7 1.917210 1_555
O35 Tc8 1.879220 1_555
O35 Tc10 1.890454 1_555
