# generated using pymatgen
data_K3Cr(CN)6
_symmetry_space_group_name_H-M   'P 1'
_cell_length_a   8.54396300
_cell_length_b   10.61866000
_cell_length_c   13.71518200
_cell_angle_alpha   90.00000000
_cell_angle_beta   90.00000000
_cell_angle_gamma   90.00000000
_symmetry_Int_Tables_number   1
_chemical_formula_structural   K3Cr(CN)6
_chemical_formula_sum   'K12 Cr4 C24 N24'
_cell_volume   1244.31589625
_cell_formula_units_Z   4
loop_
 _symmetry_equiv_pos_site_id
 _symmetry_equiv_pos_as_xyz
  1  'x, y, z'
loop_
 _atom_site_type_symbol
 _atom_site_label
 _atom_site_symmetry_multiplicity
 _atom_site_fract_x
 _atom_site_fract_y
 _atom_site_fract_z
 _atom_site_occupancy
  K  K0  1  0.87379800  0.26715000  0.50206400  1
  K  K1  1  0.37030300  0.00000000  0.25000000  1
  K  K2  1  0.87030300  0.50000000  0.25000000  1
  K  K3  1  0.12969700  0.50000000  0.75000000  1
  K  K4  1  0.62620200  0.76715000  0.49793600  1
  K  K5  1  0.62969700  0.00000000  0.75000000  1
  K  K6  1  0.12620200  0.26715000  0.00206400  1
  K  K7  1  0.62620200  0.23285000  0.00206400  1
  K  K8  1  0.37379800  0.76715000  0.99793600  1
  K  K9  1  0.87379800  0.73285000  0.99793600  1
  K  K10  1  0.12620200  0.73285000  0.49793600  1
  K  K11  1  0.37379800  0.23285000  0.50206400  1
  Cr  Cr0  1  0.87539100  0.00000000  0.25000000  1
  Cr  Cr1  1  0.62460900  0.50000000  0.75000000  1
  Cr  Cr2  1  0.37539100  0.50000000  0.25000000  1
  Cr  Cr3  1  0.12460900  0.00000000  0.75000000  1
  C  C0  1  0.95559300  0.94412500  0.65206000  1
  C  C1  1  0.20343400  0.55622600  0.15444400  1
  C  C2  1  0.79656600  0.44377400  0.84555600  1
  C  C3  1  0.54440700  0.44412500  0.34794000  1
  C  C4  1  0.45559300  0.44412500  0.84794000  1
  C  C5  1  0.62477300  0.67544900  0.81398200  1
  C  C6  1  0.87522700  0.82455100  0.31398200  1
  C  C7  1  0.04440700  0.94412500  0.15206000  1
  C  C8  1  0.37522700  0.32455100  0.18601800  1
  C  C9  1  0.04440700  0.05587500  0.34794000  1
  C  C10  1  0.12477300  0.82455100  0.81398200  1
  C  C11  1  0.29656600  0.05622600  0.84555600  1
  C  C12  1  0.62477300  0.32455100  0.68601800  1
  C  C13  1  0.12477300  0.17544900  0.68601800  1
  C  C14  1  0.70343400  0.94377400  0.15444400  1
  C  C15  1  0.95559300  0.05587500  0.84794000  1
  C  C16  1  0.87522700  0.17544900  0.18601800  1
  C  C17  1  0.29656600  0.94377400  0.65444400  1
  C  C18  1  0.45559300  0.55587500  0.65206000  1
  C  C19  1  0.20343400  0.44377400  0.34555600  1
  C  C20  1  0.37522700  0.67544900  0.31398200  1
  C  C21  1  0.79656600  0.55622600  0.65444400  1
  C  C22  1  0.70343400  0.05622600  0.34555600  1
  C  C23  1  0.54440700  0.55587500  0.15206000  1
  N  N0  1  0.10081500  0.58585700  0.10194800  1
  N  N1  1  0.60081500  0.08585700  0.39805200  1
  N  N2  1  0.14070800  0.09016500  0.40358000  1
  N  N3  1  0.35929200  0.59016500  0.59642000  1
  N  N4  1  0.60081500  0.91414300  0.10194800  1
  N  N5  1  0.64070800  0.40983500  0.40358000  1
  N  N6  1  0.39918500  0.08585700  0.89805200  1
  N  N7  1  0.14070800  0.90983500  0.09642000  1
  N  N8  1  0.87460600  0.72607200  0.35306600  1
  N  N9  1  0.39918500  0.91414300  0.60194800  1
  N  N10  1  0.10081500  0.41414300  0.39805200  1
  N  N11  1  0.35929200  0.40983500  0.90358000  1
  N  N12  1  0.85929200  0.09016500  0.90358000  1
  N  N13  1  0.12539400  0.72607200  0.85306600  1
  N  N14  1  0.37460600  0.77392800  0.35306600  1
  N  N15  1  0.37460600  0.22607200  0.14693400  1
  N  N16  1  0.89918500  0.58585700  0.60194800  1
  N  N17  1  0.85929200  0.90983500  0.59642000  1
  N  N18  1  0.64070800  0.59016500  0.09642000  1
  N  N19  1  0.89918500  0.41414300  0.89805200  1
  N  N20  1  0.62539400  0.77392800  0.85306600  1
  N  N21  1  0.12539400  0.27392800  0.64693400  1
  N  N22  1  0.87460600  0.27392800  0.14693400  1
  N  N23  1  0.62539400  0.22607200  0.64693400  1
loop_
_geom_bond_atom_site_label_1
_geom_bond_atom_site_label_2
_geom_bond_distance
_geom_bond_site_symmetry_2
K0 N5 2.843621 1_555
K0 N10 2.869404 1_655
K0 N21 2.928126 1_655
K0 N23 2.939813 1_555
K1 N14 2.786094 1_545
K1 N15 2.786094 1_555
K1 N1 2.972074 1_555
K1 N4 2.972074 1_545
K1 N7 3.033410 1_545
K1 N2 3.033410 1_555
K2 N8 2.786094 1_555
K2 N22 2.786094 1_555
K2 N10 2.972074 1_655
K2 N0 2.972074 1_655
K2 N18 3.033410 1_555
K2 N5 3.033410 1_555
K3 N13 2.786094 1_555
K3 N21 2.786094 1_555
K3 N19 2.972074 1_455
K3 N16 2.972074 1_455
K3 N3 3.033410 1_555
K3 N11 3.033410 1_555
K4 N17 2.843621 1_555
K4 N9 2.869404 1_555
K4 N14 2.928126 1_555
K4 N8 2.939813 1_555
K5 N23 2.786094 1_555
K5 N20 2.786094 1_545
K5 N6 2.972074 1_555
K5 N9 2.972074 1_545
K5 N17 3.033410 1_545
K5 N12 3.033410 1_555
K6 N11 2.843621 1_554
K6 N19 2.869404 1_454
K6 N22 2.928126 1_455
K6 N15 2.939813 1_555
K7 N12 2.843621 1_554
K7 N6 2.869404 1_554
K7 N15 2.928126 1_555
K7 N22 2.939813 1_555
K8 N7 2.843621 1_556
K8 N4 2.869404 1_556
K8 N20 2.928126 1_555
K8 N13 2.939813 1_555
K9 N18 2.843621 1_556
K9 N0 2.869404 1_656
K9 N13 2.928126 1_655
K9 N20 2.939813 1_555
K10 N3 2.843621 1_555
K10 N16 2.869404 1_455
K10 N8 2.928126 1_455
K10 N14 2.939813 1_555
K11 N2 2.843621 1_555
K11 N1 2.869404 1_555
K11 N23 2.928126 1_555
K11 N21 2.939813 1_555
C0 N17 1.179791 1_555
C0 Cr3 2.059542 1_665
C0 K5 3.147938 1_565
C1 N0 1.177335 1_555
C1 Cr2 2.057324 1_555
C1 K2 3.189865 1_455
C2 N19 1.177335 1_555
C2 Cr1 2.057324 1_555
C2 K3 3.189865 1_655
C3 N5 1.179791 1_555
C3 Cr2 2.059542 1_555
C3 K2 3.147938 1_555
C4 N11 1.179791 1_555
C4 Cr1 2.059542 1_555
C4 K3 3.147938 1_555
C5 N20 1.175113 1_555
C5 Cr1 2.059355 1_555
C6 N8 1.175113 1_555
C6 Cr0 2.059355 1_565
C7 N7 1.179791 1_555
C7 Cr0 2.059542 1_465
C7 K1 3.147938 1_565
C8 N15 1.175113 1_555
C8 Cr2 2.059355 1_555
C9 N2 1.179791 1_555
C9 Cr0 2.059542 1_455
C9 K1 3.147938 1_555
C10 N13 1.175113 1_555
C10 Cr3 2.059355 1_565
C11 N6 1.177335 1_555
C11 Cr3 2.057324 1_555
C11 K5 3.189865 1_555
C12 N23 1.175113 1_555
C12 Cr1 2.059355 1_555
C13 N21 1.175113 1_555
C13 Cr3 2.059355 1_555
C14 N4 1.177335 1_555
C14 Cr0 2.057324 1_565
C14 K1 3.189865 1_565
C15 N12 1.179791 1_555
C15 Cr3 2.059542 1_655
C15 K5 3.147938 1_555
C16 N22 1.175113 1_555
C16 Cr0 2.059355 1_555
C17 N9 1.177335 1_555
C17 Cr3 2.057324 1_565
C17 K5 3.189865 1_565
C18 N3 1.179791 1_555
C18 Cr1 2.059542 1_555
C18 K3 3.147938 1_555
C19 N10 1.177335 1_555
C19 Cr2 2.057324 1_555
C19 K2 3.189865 1_455
C20 N14 1.175113 1_555
C20 Cr2 2.059355 1_555
C21 N16 1.177335 1_555
C21 Cr1 2.057324 1_555
C21 K3 3.189865 1_655
C22 N1 1.177335 1_555
C22 Cr0 2.057324 1_555
C22 K1 3.189865 1_555
C23 N18 1.179791 1_555
C23 Cr2 2.059542 1_555
C23 K2 3.147938 1_555
