# generated using pymatgen
data_LiAlSiH2O5
_symmetry_space_group_name_H-M   'P 1'
_cell_length_a   5.10937900
_cell_length_b   8.49259500
_cell_length_c   11.94630900
_cell_angle_alpha   90.00000000
_cell_angle_beta   90.00000000
_cell_angle_gamma   90.00000000
_symmetry_Int_Tables_number   1
_chemical_formula_structural   LiAlSiH2O5
_chemical_formula_sum   'Li4 Al4 Si4 H8 O20'
_cell_volume   518.37288480
_cell_formula_units_Z   4
loop_
 _symmetry_equiv_pos_site_id
 _symmetry_equiv_pos_as_xyz
  1  'x, y, z'
loop_
 _atom_site_type_symbol
 _atom_site_label
 _atom_site_symmetry_multiplicity
 _atom_site_fract_x
 _atom_site_fract_y
 _atom_site_fract_z
 _atom_site_occupancy
  Li  Li0  1  0.05927200  0.74716000  0.39505200  1
  Li  Li1  1  0.55927200  0.24716000  0.10494800  1
  Li  Li2  1  0.55927200  0.25284000  0.60494800  1
  Li  Li3  1  0.05927200  0.75284000  0.89505200  1
  Al  Al0  1  0.75471100  0.64691600  0.65365200  1
  Al  Al1  1  0.25471100  0.14691600  0.84634800  1
  Al  Al2  1  0.75471100  0.85308400  0.15365200  1
  Al  Al3  1  0.25471100  0.35308400  0.34634800  1
  Si  Si0  1  0.21760500  0.46490900  0.72484800  1
  Si  Si1  1  0.71760500  0.96490900  0.77515200  1
  Si  Si2  1  0.71760500  0.53509100  0.27515200  1
  Si  Si3  1  0.21760500  0.03509100  0.22484800  1
  H  H0  1  0.96583600  0.02132900  0.37618000  1
  H  H1  1  0.46583600  0.52132900  0.12382000  1
  H  H2  1  0.46583600  0.97867100  0.62382000  1
  H  H3  1  0.28970800  0.13905000  0.45616300  1
  H  H4  1  0.78970800  0.86095000  0.54383700  1
  H  H5  1  0.78970800  0.63905000  0.04383700  1
  H  H6  1  0.96583600  0.47867100  0.87618000  1
  H  H7  1  0.28970800  0.36095000  0.95616300  1
  O  O0  1  0.44064100  0.52701000  0.34122800  1
  O  O1  1  0.94064100  0.02701000  0.15877200  1
  O  O2  1  0.33116000  0.25052900  0.97187900  1
  O  O3  1  0.13776800  0.97672300  0.35986100  1
  O  O4  1  0.93194300  0.08426300  0.82382900  1
  O  O5  1  0.93194300  0.41573700  0.32382900  1
  O  O6  1  0.83065300  0.71452500  0.26285600  1
  O  O7  1  0.83065300  0.78547500  0.76285600  1
  O  O8  1  0.43194300  0.58426300  0.67617100  1
  O  O9  1  0.43194300  0.91573700  0.17617100  1
  O  O10  1  0.83116000  0.74947100  0.02812100  1
  O  O11  1  0.33116000  0.24947100  0.47187900  1
  O  O12  1  0.83116000  0.75052900  0.52812100  1
  O  O13  1  0.33065300  0.21452500  0.23714400  1
  O  O14  1  0.94064100  0.47299000  0.65877200  1
  O  O15  1  0.13776800  0.52327700  0.85986100  1
  O  O16  1  0.63776800  0.02327700  0.64013900  1
  O  O17  1  0.33065300  0.28547500  0.73714400  1
  O  O18  1  0.44064100  0.97299000  0.84122800  1
  O  O19  1  0.63776800  0.47672300  0.14013900  1
loop_
_geom_bond_atom_site_label_1
_geom_bond_atom_site_label_2
_geom_bond_distance
_geom_bond_site_symmetry_2
Li0 O12 1.971377 1_455
Li0 O6 1.983764 1_455
Li0 O3 2.034324 1_555
Li1 O2 1.971377 1_554
Li1 O13 1.983764 1_555
Li1 O19 2.034324 1_555
Li2 O11 1.971377 1_555
Li2 O17 1.983764 1_555
Li2 O16 2.034324 1_555
Li3 O10 1.971377 1_456
Li3 O7 1.983764 1_455
Li3 O15 2.034324 1_555
Al0 O8 1.753614 1_555
Al0 O14 1.757268 1_555
Al0 O12 1.782069 1_555
Al0 O7 1.799217 1_555
Al1 O4 1.753614 1_455
Al1 O18 1.757268 1_545
Al1 O2 1.782069 1_555
Al1 O17 1.799217 1_555
Al2 O9 1.753614 1_555
Al2 O1 1.757268 1_565
Al2 O10 1.782069 1_555
Al2 O6 1.799217 1_555
Al3 O5 1.753614 1_455
Al3 O0 1.757268 1_555
Al3 O11 1.782069 1_555
Al3 O13 1.799217 1_555
H0 O3 0.976326 1_645
H1 O19 0.976326 1_555
H2 O16 0.976326 1_565
H3 O11 0.979541 1_555
H4 O12 0.979541 1_555
H5 O10 0.979541 1_555
H6 O15 0.976326 1_655
H7 O2 0.979541 1_555
O0 Si2 1.621837 1_555
O1 Si3 1.621837 1_655
O3 Si3 1.735967 1_565
O4 Si1 1.601533 1_545
O5 Si2 1.601533 1_555
O6 Si2 1.636263 1_555
O7 Si1 1.636263 1_555
O8 Si0 1.601533 1_555
O9 Si3 1.601533 1_565
O13 Si3 1.636263 1_555
O14 Si0 1.621837 1_655
O15 Si0 1.735967 1_555
O16 Si1 1.735967 1_545
O17 Si0 1.636263 1_555
O18 Si1 1.621837 1_555
O19 Si2 1.735967 1_555
