# generated using pymatgen
data_Ba14Na14LiN6
_symmetry_space_group_name_H-M   'P 1'
_cell_length_a   12.64643083
_cell_length_b   12.64643083
_cell_length_c   12.64643083
_cell_angle_alpha   60.00000000
_cell_angle_beta   60.00000000
_cell_angle_gamma   60.00000000
_symmetry_Int_Tables_number   1
_chemical_formula_structural   Ba14Na14LiN6
_chemical_formula_sum   'Ba14 Na14 Li1 N6'
_cell_volume   1430.17414148
_cell_formula_units_Z   1
loop_
 _symmetry_equiv_pos_site_id
 _symmetry_equiv_pos_as_xyz
  1  'x, y, z'
loop_
 _atom_site_type_symbol
 _atom_site_label
 _atom_site_symmetry_multiplicity
 _atom_site_fract_x
 _atom_site_fract_y
 _atom_site_fract_z
 _atom_site_occupancy
  Ba  Ba0  1  0.10326900  0.69019400  0.10326900  1
  Ba  Ba1  1  0.10326900  0.10326900  0.10326900  1
  Ba  Ba2  1  0.28684800  0.71315200  0.28684800  1
  Ba  Ba3  1  0.28684800  0.71315200  0.71315200  1
  Ba  Ba4  1  0.71315200  0.71315200  0.28684800  1
  Ba  Ba5  1  0.69019400  0.10326900  0.10326900  1
  Ba  Ba6  1  0.28684800  0.28684800  0.71315200  1
  Ba  Ba7  1  0.10326900  0.10326900  0.69019400  1
  Ba  Ba8  1  0.71315200  0.28684800  0.71315200  1
  Ba  Ba9  1  0.89673100  0.89673100  0.89673100  1
  Ba  Ba10  1  0.71315200  0.28684800  0.28684800  1
  Ba  Ba11  1  0.89673100  0.30980600  0.89673100  1
  Ba  Ba12  1  0.89673100  0.89673100  0.30980600  1
  Ba  Ba13  1  0.30980600  0.89673100  0.89673100  1
  Na  Na0  1  0.01275900  0.32908000  0.32908000  1
  Na  Na1  1  0.67092000  0.67092000  0.98724100  1
  Na  Na2  1  0.00000000  0.50000000  0.50000000  1
  Na  Na3  1  0.98724100  0.67092000  0.67092000  1
  Na  Na4  1  0.32908000  0.32908000  0.32908000  1
  Na  Na5  1  0.32908000  0.01275900  0.32908000  1
  Na  Na6  1  0.32908000  0.32908000  0.01275900  1
  Na  Na7  1  0.67092000  0.98724100  0.67092000  1
  Na  Na8  1  0.50000000  0.00000000  0.50000000  1
  Na  Na9  1  0.67092000  0.67092000  0.67092000  1
  Na  Na10  1  0.50000000  0.50000000  0.00000000  1
  Na  Na11  1  0.50000000  0.00000000  0.00000000  1
  Na  Na12  1  0.00000000  0.50000000  0.00000000  1
  Na  Na13  1  0.00000000  0.00000000  0.50000000  1
  Li  Li0  1  0.00000000  0.00000000  0.00000000  1
  N  N0  1  0.85327900  0.14672100  0.85327900  1
  N  N1  1  0.14672100  0.14672100  0.85327900  1
  N  N2  1  0.85327900  0.14672100  0.14672100  1
  N  N3  1  0.14672100  0.85327900  0.14672100  1
  N  N4  1  0.85327900  0.85327900  0.14672100  1
  N  N5  1  0.14672100  0.85327900  0.85327900  1
loop_
_geom_bond_atom_site_label_1
_geom_bond_atom_site_label_2
_geom_bond_distance
_geom_bond_site_symmetry_2
Ba0 N3 2.725113 1_555
Ba0 N4 2.725122 1_455
Ba0 N5 2.725122 1_554
Ba0 Na2 4.145426 1_555
Ba0 Na10 4.145426 1_555
Ba0 Na12 4.145436 1_555
Ba0 Na4 4.386108 1_555
Ba0 Na6 4.386120 1_555
Ba0 Na0 4.386120 1_555
Ba1 N2 2.725125 1_455
Ba1 N1 2.725125 1_554
Ba1 N3 2.725125 1_545
Ba1 Na13 4.145424 1_555
Ba1 Na11 4.145424 1_555
Ba1 Na12 4.145424 1_555
Ba1 Na0 4.386098 1_555
Ba1 Na6 4.386098 1_555
Ba1 Na5 4.386098 1_555
Ba2 N3 2.506137 1_555
Ba2 Na5 4.388530 1_565
Ba2 Na1 4.388538 1_554
Ba2 Na3 4.388538 1_455
Ba2 Na4 4.388542 1_555
Ba3 N5 2.506137 1_555
Ba3 Na3 4.388530 1_455
Ba3 Na6 4.388538 1_556
Ba3 Na5 4.388538 1_565
Ba3 Na9 4.388542 1_555
Ba4 N4 2.506137 1_555
Ba4 Na1 4.388530 1_554
Ba4 Na5 4.388538 1_565
Ba4 Na0 4.388538 1_655
Ba4 Na9 4.388542 1_555
Ba5 N2 2.725113 1_555
Ba5 N4 2.725122 1_545
Ba5 N0 2.725122 1_554
Ba5 Na8 4.145426 1_555
Ba5 Na10 4.145426 1_555
Ba5 Na11 4.145436 1_555
Ba5 Na4 4.386108 1_555
Ba5 Na6 4.386120 1_555
Ba5 Na5 4.386120 1_555
Ba6 N1 2.506137 1_555
Ba6 Na6 4.388530 1_556
Ba6 Na7 4.388538 1_545
Ba6 Na3 4.388538 1_455
Ba6 Na4 4.388542 1_555
Ba7 N1 2.725113 1_555
Ba7 N0 2.725122 1_455
Ba7 N5 2.725122 1_545
Ba7 Na8 4.145426 1_555
Ba7 Na2 4.145426 1_555
Ba7 Na13 4.145436 1_555
Ba7 Na4 4.386108 1_555
Ba7 Na5 4.386120 1_555
Ba7 Na0 4.386120 1_555
Ba8 N0 2.506137 1_555
Ba8 Na7 4.388530 1_545
Ba8 Na6 4.388538 1_556
Ba8 Na0 4.388538 1_655
Ba8 Na9 4.388542 1_555
Ba9 N5 2.725125 1_655
Ba9 N0 2.725125 1_565
Ba9 N4 2.725125 1_556
Ba9 Na13 4.145424 1_665
Ba9 Na12 4.145424 1_656
Ba9 Na11 4.145424 1_566
Ba9 Na3 4.386098 1_555
Ba9 Na1 4.386098 1_555
Ba9 Na7 4.386098 1_555
Ba10 N2 2.506137 1_555
Ba10 Na0 4.388530 1_655
Ba10 Na1 4.388538 1_554
Ba10 Na7 4.388538 1_545
Ba10 Na4 4.388542 1_555
Ba11 N0 2.725113 1_555
Ba11 N1 2.725122 1_655
Ba11 N2 2.725122 1_556
Ba11 Na2 4.145426 1_655
Ba11 Na10 4.145426 1_556
Ba11 Na12 4.145436 1_656
Ba11 Na9 4.386108 1_555
Ba11 Na1 4.386120 1_555
Ba11 Na3 4.386120 1_555
Ba12 N4 2.725113 1_555
Ba12 N2 2.725122 1_565
Ba12 N3 2.725122 1_655
Ba12 Na8 4.145426 1_565
Ba12 Na2 4.145426 1_655
Ba12 Na13 4.145436 1_665
Ba12 Na9 4.386108 1_555
Ba12 Na7 4.386120 1_555
Ba12 Na3 4.386120 1_555
Ba13 N5 2.725113 1_555
Ba13 N1 2.725122 1_565
Ba13 N3 2.725122 1_556
Ba13 Na8 4.145426 1_565
Ba13 Na10 4.145426 1_556
Ba13 Na11 4.145436 1_566
Ba13 Na9 4.386108 1_555
Ba13 Na7 4.386120 1_555
Ba13 Na1 4.386120 1_555
Na0 Na12 3.653083 1_555
Na0 Na13 3.653083 1_555
Na0 Na2 3.653094 1_555
Na0 Na6 4.000332 1_555
Na0 Na4 4.000332 1_555
Na0 Na5 4.000332 1_555
Na1 Na12 3.653083 1_656
Na1 Na11 3.653083 1_566
Na1 Na10 3.653094 1_556
Na1 Na3 4.000332 1_555
Na1 Na9 4.000332 1_555
Na1 Na7 4.000332 1_555
Na2 Na4 3.653087 1_555
Na2 Na9 3.653087 1_455
Na2 Na3 3.653094 1_455
Na3 Na9 4.000332 1_555
Na3 Na7 4.000332 1_555
Na4 Na8 3.653087 1_555
Na4 Na6 4.000332 1_555
Na4 Na5 4.000332 1_555
Na5 Na8 3.653094 1_555
Na5 Na6 4.000332 1_555
Na7 Na8 3.653094 1_565
Na7 Na9 4.000332 1_555
Na8 Na9 3.653087 1_545
Na10 Na4 3.653087 1_555
Na10 Na9 3.653087 1_554
Na10 Na6 3.653094 1_555
Na11 Na6 3.653083 1_555
Na11 Na5 3.653083 1_555
Na11 Na7 3.653083 1_544
Na12 Na6 3.653083 1_555
Na12 Na3 3.653083 1_454
Na13 Na5 3.653083 1_555
Na13 Na7 3.653083 1_445
Na13 Na3 3.653083 1_445
Li0 N2 2.624069 1_455
Li0 N1 2.624069 1_554
Li0 N3 2.624069 1_545
Li0 N4 2.624069 1_445
Li0 N0 2.624069 1_454
Li0 N5 2.624069 1_544
