# generated using pymatgen
data_KNd3Te8
_symmetry_space_group_name_H-M   'P 1'
_cell_length_a   12.96384885
_cell_length_b   9.02266452
_cell_length_c   14.20886307
_cell_angle_alpha   80.70340361
_cell_angle_beta   90.00000000
_cell_angle_gamma   90.00000000
_symmetry_Int_Tables_number   1
_chemical_formula_structural   KNd3Te8
_chemical_formula_sum   'K4 Nd12 Te32'
_cell_volume   1640.15911727
_cell_formula_units_Z   4
loop_
 _symmetry_equiv_pos_site_id
 _symmetry_equiv_pos_as_xyz
  1  'x, y, z'
loop_
 _atom_site_type_symbol
 _atom_site_label
 _atom_site_symmetry_multiplicity
 _atom_site_fract_x
 _atom_site_fract_y
 _atom_site_fract_z
 _atom_site_occupancy
  K  K0  1  0.59211703  0.74242842  0.53477563  1
  K  K1  1  0.40788297  0.25757158  0.46522437  1
  K  K2  1  0.09211703  0.75757158  0.46522437  1
  K  K3  1  0.90788297  0.24242842  0.53477563  1
  Nd  Nd0  1  0.58405083  0.40562141  0.85156775  1
  Nd  Nd1  1  0.75086222  0.08566559  0.15392176  1
  Nd  Nd2  1  0.25086222  0.41433441  0.84607824  1
  Nd  Nd3  1  0.91594917  0.90562141  0.85156775  1
  Nd  Nd4  1  0.91522984  0.42056279  0.84994688  1
  Nd  Nd5  1  0.24913778  0.91433441  0.84607824  1
  Nd  Nd6  1  0.08477016  0.57943721  0.15005312  1
  Nd  Nd7  1  0.41594917  0.59437859  0.14843225  1
  Nd  Nd8  1  0.08405083  0.09437859  0.14843225  1
  Nd  Nd9  1  0.58477016  0.92056279  0.84994688  1
  Nd  Nd10  1  0.74913778  0.58566559  0.15392176  1
  Nd  Nd11  1  0.41522984  0.07943721  0.15005312  1
  Te  Te0  1  0.09648304  0.29006371  0.32875785  1
  Te  Te1  1  0.08540876  0.64485394  0.91444386  1
  Te  Te2  1  0.42003065  0.64968092  0.91294862  1
  Te  Te3  1  0.07996935  0.14968092  0.91294862  1
  Te  Te4  1  0.24541132  0.85471544  0.08190336  1
  Te  Te5  1  0.90351696  0.70993629  0.67124215  1
  Te  Te6  1  0.25458868  0.35471544  0.08190336  1
  Te  Te7  1  0.75051864  0.95911516  0.67316409  1
  Te  Te8  1  0.57996935  0.35031908  0.08705138  1
  Te  Te9  1  0.22446813  0.21167474  0.66165085  1
  Te  Te10  1  0.41459124  0.14485394  0.91444386  1
  Te  Te11  1  0.42062763  0.47108646  0.66875993  1
  Te  Te12  1  0.07937237  0.97108646  0.66875993  1
  Te  Te13  1  0.27553187  0.71167474  0.66165085  1
  Te  Te14  1  0.74948136  0.45911516  0.67316409  1
  Te  Te15  1  0.08047079  0.44942059  0.66811675  1
  Te  Te16  1  0.77553187  0.78832526  0.33834915  1
  Te  Te17  1  0.25051864  0.54088484  0.32683591  1
  Te  Te18  1  0.59648304  0.20993629  0.67124215  1
  Te  Te19  1  0.91952921  0.55057941  0.33188325  1
  Te  Te20  1  0.74541132  0.64528456  0.91809664  1
  Te  Te21  1  0.57937237  0.52891354  0.33124007  1
  Te  Te22  1  0.72446813  0.28832526  0.33834915  1
  Te  Te23  1  0.58540876  0.85514606  0.08555614  1
  Te  Te24  1  0.24948136  0.04088484  0.32683591  1
  Te  Te25  1  0.58047079  0.05057941  0.33188325  1
  Te  Te26  1  0.75458868  0.14528456  0.91809664  1
  Te  Te27  1  0.92062763  0.02891354  0.33124007  1
  Te  Te28  1  0.41952921  0.94942059  0.66811675  1
  Te  Te29  1  0.40351696  0.79006371  0.32875785  1
  Te  Te30  1  0.92003065  0.85031908  0.08705138  1
  Te  Te31  1  0.91459124  0.35514606  0.08555614  1
loop_
_geom_bond_atom_site_label_1
_geom_bond_atom_site_label_2
_geom_bond_distance
_geom_bond_site_symmetry_2
K0 Te14 3.597036 1_555
K0 Te11 3.613131 1_555
K0 Te7 3.625991 1_555
K0 Te28 3.636870 1_555
K0 Te16 3.638885 1_555
K0 Te25 3.670743 1_565
K0 Te21 3.728588 1_555
K0 Te29 3.784856 1_555
K1 Te17 3.597036 1_555
K1 Te21 3.613131 1_555
K1 Te24 3.625991 1_555
K1 Te25 3.636870 1_555
K1 Te9 3.638885 1_555
K1 Te28 3.670743 1_545
K1 Te11 3.728588 1_555
K1 Te18 3.784856 1_555
K2 Te24 3.597036 1_565
K2 Te27 3.613131 1_465
K2 Te17 3.625991 1_555
K2 Te19 3.636870 1_455
K2 Te13 3.638885 1_555
K2 Te15 3.670743 1_555
K2 Te12 3.728588 1_555
K2 Te5 3.784856 1_455
K3 Te7 3.597036 1_545
K3 Te12 3.613131 1_645
K3 Te14 3.625991 1_555
K3 Te15 3.636870 1_655
K3 Te22 3.638885 1_555
K3 Te19 3.670743 1_555
K3 Te27 3.728588 1_555
K3 Te0 3.784856 1_655
Nd0 Te10 3.237424 1_555
Nd0 Te26 3.252910 1_555
Nd0 Te20 3.256662 1_555
Nd0 Te2 3.278955 1_555
Nd0 Te14 3.295880 1_555
Nd0 Te8 3.302692 1_556
Nd0 Te11 3.329953 1_555
Nd0 Te18 3.342143 1_555
Nd1 Te23 3.243922 1_545
Nd1 Te31 3.255399 1_555
Nd1 Te8 3.283267 1_555
Nd1 Te30 3.297466 1_545
Nd1 Te26 3.307150 1_554
Nd1 Te27 3.322167 1_555
Nd1 Te25 3.333905 1_555
Nd1 Te22 3.446126 1_555
Nd1 Te16 3.448960 1_545
Nd2 Te1 3.243922 1_555
Nd2 Te10 3.255399 1_555
Nd2 Te3 3.283267 1_555
Nd2 Te2 3.297466 1_555
Nd2 Te6 3.307150 1_556
Nd2 Te11 3.322167 1_555
Nd2 Te15 3.333905 1_555
Nd2 Te9 3.446126 1_555
Nd2 Te13 3.448960 1_555
Nd3 Te1 3.237424 1_655
Nd3 Te20 3.252910 1_555
Nd3 Te26 3.256662 1_565
Nd3 Te3 3.278955 1_665
Nd3 Te7 3.295880 1_555
Nd3 Te30 3.302692 1_556
Nd3 Te12 3.329953 1_655
Nd3 Te5 3.342143 1_555
Nd4 Te1 3.225154 1_655
Nd4 Te20 3.244956 1_555
Nd4 Te3 3.260216 1_655
Nd4 Te26 3.265962 1_555
Nd4 Te14 3.281056 1_555
Nd4 Te31 3.304148 1_556
Nd4 Te15 3.333809 1_655
Nd4 Te5 3.338485 1_555
Nd5 Te10 3.243922 1_565
Nd5 Te1 3.255399 1_555
Nd5 Te2 3.283267 1_555
Nd5 Te3 3.297466 1_565
Nd5 Te4 3.307150 1_556
Nd5 Te12 3.322167 1_555
Nd5 Te28 3.333905 1_555
Nd5 Te13 3.446126 1_555
Nd5 Te9 3.448960 1_565
Nd6 Te31 3.225154 1_455
Nd6 Te6 3.244956 1_555
Nd6 Te30 3.260216 1_455
Nd6 Te4 3.265962 1_555
Nd6 Te17 3.281056 1_555
Nd6 Te1 3.304148 1_554
Nd6 Te19 3.333809 1_455
Nd6 Te0 3.338485 1_555
Nd7 Te23 3.237424 1_555
Nd7 Te4 3.252910 1_555
Nd7 Te6 3.256662 1_555
Nd7 Te8 3.278955 1_555
Nd7 Te17 3.295880 1_555
Nd7 Te2 3.302692 1_554
Nd7 Te21 3.329953 1_555
Nd7 Te29 3.342143 1_555
Nd8 Te31 3.237424 1_455
Nd8 Te6 3.252910 1_555
Nd8 Te4 3.256662 1_545
Nd8 Te30 3.278955 1_445
Nd8 Te24 3.295880 1_555
Nd8 Te3 3.302692 1_554
Nd8 Te27 3.329953 1_455
Nd8 Te0 3.342143 1_555
Nd9 Te10 3.225154 1_565
Nd9 Te26 3.244956 1_565
Nd9 Te2 3.260216 1_555
Nd9 Te20 3.265962 1_555
Nd9 Te7 3.281056 1_555
Nd9 Te23 3.304148 1_556
Nd9 Te28 3.333809 1_555
Nd9 Te18 3.338485 1_565
Nd10 Te31 3.243922 1_555
Nd10 Te23 3.255399 1_555
Nd10 Te30 3.283267 1_555
Nd10 Te8 3.297466 1_555
Nd10 Te20 3.307150 1_554
Nd10 Te21 3.322167 1_555
Nd10 Te19 3.333905 1_555
Nd10 Te16 3.446126 1_555
Nd10 Te22 3.448960 1_555
Nd11 Te23 3.225154 1_545
Nd11 Te4 3.244956 1_545
Nd11 Te8 3.260216 1_555
Nd11 Te6 3.265962 1_555
Nd11 Te24 3.281056 1_555
Nd11 Te10 3.304148 1_554
Nd11 Te25 3.333809 1_555
Nd11 Te29 3.338485 1_545
Te0 Te24 3.001551 1_555
Te0 Te17 3.014942 1_555
Te0 Te27 3.274710 1_455
Te0 Te19 3.289865 1_455
Te5 Te7 3.001551 1_555
Te11 Te13 2.861759 1_555
Te11 Te18 3.274710 1_555
Te11 Te9 3.468672 1_555
Te12 Te9 2.861759 1_565
Te12 Te5 3.274710 1_455
Te12 Te13 3.468672 1_555
Te13 Te28 2.856285 1_555
Te13 Te15 3.454242 1_555
Te14 Te18 3.001551 1_555
Te14 Te5 3.014942 1_555
Te15 Te9 2.856285 1_555
Te15 Te5 3.289865 1_455
Te16 Te19 2.856285 1_555
Te16 Te27 2.861759 1_565
Te16 Te25 3.454242 1_565
Te16 Te21 3.468672 1_555
Te17 Te29 3.001551 1_555
Te18 Te7 3.014942 1_545
Te18 Te28 3.289865 1_545
Te19 Te22 3.454242 1_555
Te21 Te22 2.861759 1_555
Te21 Te29 3.274710 1_555
Te22 Te25 2.856285 1_555
Te22 Te27 3.468672 1_555
Te24 Te29 3.014942 1_545
Te25 Te29 3.289865 1_545
Te28 Te9 3.454242 1_565
