# generated using pymatgen
data_Li10Si(PS6)2
_symmetry_space_group_name_H-M   'P 1'
_cell_length_a   8.77090200
_cell_length_b   8.77090200
_cell_length_c   12.61897400
_cell_angle_alpha   90.00000000
_cell_angle_beta   90.00000000
_cell_angle_gamma   90.00000000
_symmetry_Int_Tables_number   1
_chemical_formula_structural   Li10Si(PS6)2
_chemical_formula_sum   'Li20 Si2 P4 S24'
_cell_volume   970.76154143
_cell_formula_units_Z   2
loop_
 _symmetry_equiv_pos_site_id
 _symmetry_equiv_pos_as_xyz
  1  'x, y, z'
loop_
 _atom_site_type_symbol
 _atom_site_label
 _atom_site_symmetry_multiplicity
 _atom_site_fract_x
 _atom_site_fract_y
 _atom_site_fract_z
 _atom_site_occupancy
  Li  Li0  1  0.23094400  0.27346800  0.29503900  1
  Li  Li1  1  0.76905600  0.72653200  0.29503900  1
  Li  Li2  1  0.27346800  0.76905600  0.79503900  1
  Li  Li3  1  0.72653200  0.23094400  0.79503900  1
  Li  Li4  1  0.23094400  0.72653200  0.29503900  1
  Li  Li5  1  0.76905600  0.27346800  0.29503900  1
  Li  Li6  1  0.27346800  0.23094400  0.79503900  1
  Li  Li7  1  0.72653200  0.76905600  0.79503900  1
  Li  Li8  1  0.00000000  0.00000000  0.93947600  1
  Li  Li9  1  0.00000000  0.00000000  0.43947600  1
  Li  Li10  1  0.50000000  0.50000000  0.54813600  1
  Li  Li11  1  0.50000000  0.50000000  0.04813600  1
  Li  Li12  1  0.25715100  0.72493500  0.03630800  1
  Li  Li13  1  0.74284900  0.27506500  0.03630800  1
  Li  Li14  1  0.27506500  0.25715100  0.53630800  1
  Li  Li15  1  0.72493500  0.74284900  0.53630800  1
  Li  Li16  1  0.27506500  0.74284900  0.53630800  1
  Li  Li17  1  0.72493500  0.25715100  0.53630800  1
  Li  Li18  1  0.25715100  0.27506500  0.03630800  1
  Li  Li19  1  0.74284900  0.72493500  0.03630800  1
  Si  Si0  1  0.50000000  0.50000000  0.80123300  1
  Si  Si1  1  0.50000000  0.50000000  0.30123300  1
  P  P0  1  0.00000000  0.00000000  0.68589900  1
  P  P1  1  0.00000000  0.00000000  0.18589900  1
  P  P2  1  0.00000000  0.50000000  0.50364200  1
  P  P3  1  0.50000000  0.00000000  0.00364200  1
  S  S0  1  0.00000000  0.69472100  0.41127700  1
  S  S1  1  0.00000000  0.30527900  0.41127700  1
  S  S2  1  0.30527900  0.00000000  0.91127700  1
  S  S3  1  0.69472100  0.00000000  0.91127700  1
  S  S4  1  0.50000000  0.19029900  0.09715600  1
  S  S5  1  0.50000000  0.80970100  0.09715600  1
  S  S6  1  0.19029900  0.50000000  0.59715600  1
  S  S7  1  0.80970100  0.50000000  0.59715600  1
  S  S8  1  0.00000000  0.80395500  0.09395900  1
  S  S9  1  0.00000000  0.19604500  0.09395900  1
  S  S10  1  0.19604500  0.00000000  0.59395900  1
  S  S11  1  0.80395500  0.00000000  0.59395900  1
  S  S12  1  0.50000000  0.29854800  0.39974100  1
  S  S13  1  0.50000000  0.70145200  0.39974100  1
  S  S14  1  0.29854800  0.50000000  0.89974100  1
  S  S15  1  0.70145200  0.50000000  0.89974100  1
  S  S16  1  0.00000000  0.19265000  0.77735900  1
  S  S17  1  0.00000000  0.80735000  0.77735900  1
  S  S18  1  0.80735000  0.00000000  0.27735900  1
  S  S19  1  0.19265000  0.00000000  0.27735900  1
  S  S20  1  0.50000000  0.69886300  0.70222700  1
  S  S21  1  0.50000000  0.30113700  0.70222700  1
  S  S22  1  0.69886300  0.50000000  0.20222700  1
  S  S23  1  0.30113700  0.50000000  0.20222700  1
loop_
_geom_bond_atom_site_label_1
_geom_bond_atom_site_label_2
_geom_bond_distance
_geom_bond_site_symmetry_2
Li0 S23 2.387144 1_555
Li0 S19 2.432217 1_555
Li0 S1 2.516419 1_555
Li0 S12 2.713485 1_555
Li1 S22 2.387144 1_555
Li1 S18 2.432217 1_565
Li1 S0 2.516419 1_655
Li1 S13 2.713485 1_555
Li2 S20 2.387144 1_555
Li2 S17 2.432217 1_555
Li2 S2 2.516419 1_565
Li2 S14 2.713485 1_555
Li3 S21 2.387144 1_555
Li3 S16 2.432217 1_655
Li3 S3 2.516419 1_555
Li3 S15 2.713485 1_555
Li4 S23 2.387144 1_555
Li4 S19 2.432217 1_565
Li4 S0 2.516419 1_555
Li4 S13 2.713485 1_555
Li5 S22 2.387144 1_555
Li5 S18 2.432217 1_555
Li5 S1 2.516419 1_655
Li5 S12 2.713485 1_555
Li6 S21 2.387144 1_555
Li6 S16 2.432217 1_555
Li6 S2 2.516419 1_555
Li6 S14 2.713485 1_555
Li7 S20 2.387144 1_555
Li7 S17 2.432217 1_655
Li7 S3 2.516419 1_565
Li7 S15 2.713485 1_555
Li8 S9 2.599399 1_556
Li8 S8 2.599399 1_546
Li8 S17 2.653343 1_545
Li8 S16 2.653343 1_555
Li8 S2 2.701114 1_555
Li8 S3 2.701114 1_455
Li9 S10 2.599399 1_555
Li9 S11 2.599399 1_455
Li9 S18 2.653343 1_455
Li9 S19 2.653343 1_555
Li9 S1 2.701114 1_555
Li9 S0 2.701114 1_545
Li10 S13 2.574606 1_555
Li10 S12 2.574606 1_555
Li10 S20 2.612131 1_555
Li10 S21 2.612131 1_555
Li10 S6 2.785900 1_555
Li10 S7 2.785900 1_555
Li11 S15 2.574606 1_554
Li11 S14 2.574606 1_554
Li11 S23 2.612131 1_555
Li11 S22 2.612131 1_555
Li11 S4 2.785900 1_555
Li11 S5 2.785900 1_555
Li12 S5 2.383118 1_555
Li12 S8 2.469138 1_555
Li12 S14 2.644614 1_554
Li12 S23 2.902551 1_555
Li12 S2 2.913419 1_564
Li13 S4 2.383118 1_555
Li13 S9 2.469138 1_655
Li13 S15 2.644614 1_554
Li13 S22 2.902551 1_555
Li13 S3 2.913419 1_554
Li14 S6 2.383118 1_555
Li14 S10 2.469138 1_555
Li14 S12 2.644614 1_555
Li14 S21 2.902551 1_555
Li14 S1 2.913419 1_555
Li15 S7 2.383118 1_555
Li15 S11 2.469138 1_565
Li15 S13 2.644614 1_555
Li15 S20 2.902551 1_555
Li15 S0 2.913419 1_655
Li16 S6 2.383118 1_555
Li16 S10 2.469138 1_565
Li16 S13 2.644614 1_555
Li16 S20 2.902551 1_555
Li16 S0 2.913419 1_555
Li17 S7 2.383118 1_555
Li17 S11 2.469138 1_555
Li17 S12 2.644614 1_555
Li17 S21 2.902551 1_555
Li17 S1 2.913419 1_655
Li18 S4 2.383118 1_555
Li18 S9 2.469138 1_555
Li18 S14 2.644614 1_554
Li18 S23 2.902551 1_555
Li18 S2 2.913419 1_554
Li19 S5 2.383118 1_555
Li19 S8 2.469138 1_655
Li19 S15 2.644614 1_554
Li19 S22 2.902551 1_555
Li19 S3 2.913419 1_564
P0 S17 2.046254 1_545
P0 S16 2.046254 1_555
P0 S11 2.074292 1_455
P0 S10 2.074292 1_555
P1 S18 2.046254 1_455
P1 S19 2.046254 1_555
P1 S9 2.074292 1_555
P1 S8 2.074292 1_545
P2 S6 2.044112 1_555
P2 S7 2.044112 1_455
P2 S0 2.067694 1_555
P2 S1 2.067694 1_555
P3 S4 2.044112 1_555
P3 S5 2.044112 1_545
P3 S3 2.067694 1_554
P3 S2 2.067694 1_554
S12 Si1 2.160374 1_555
S13 Si1 2.160374 1_555
S14 Si0 2.160374 1_555
S15 Si0 2.160374 1_555
S20 Si0 2.145495 1_555
S21 Si0 2.145495 1_555
S22 Si1 2.145495 1_555
S23 Si1 2.145495 1_555
