# generated using pymatgen
data_InP3(HO5)2
_symmetry_space_group_name_H-M   'P 1'
_cell_length_a   9.32536200
_cell_length_b   9.15163400
_cell_length_c   14.24843868
_cell_angle_alpha   65.90710327
_cell_angle_beta   90.00000000
_cell_angle_gamma   90.00000000
_symmetry_Int_Tables_number   1
_chemical_formula_structural   InP3(HO5)2
_chemical_formula_sum   'In4 P12 H8 O40'
_cell_volume   1110.06291298
_cell_formula_units_Z   4
loop_
 _symmetry_equiv_pos_site_id
 _symmetry_equiv_pos_as_xyz
  1  'x, y, z'
loop_
 _atom_site_type_symbol
 _atom_site_label
 _atom_site_symmetry_multiplicity
 _atom_site_fract_x
 _atom_site_fract_y
 _atom_site_fract_z
 _atom_site_occupancy
  In  In0  1  0.89493000  0.06837500  0.22982300  1
  In  In1  1  0.39493000  0.93162500  0.27017700  1
  In  In2  1  0.60507000  0.06837500  0.72982300  1
  In  In3  1  0.10507000  0.93162500  0.77017700  1
  P  P0  1  0.40482600  0.83944200  0.91525100  1
  P  P1  1  0.60241300  0.24938200  0.25026700  1
  P  P2  1  0.89758700  0.24938200  0.75026700  1
  P  P3  1  0.59517400  0.16055800  0.08474900  1
  P  P4  1  0.09517400  0.83944200  0.41525100  1
  P  P5  1  0.98776200  0.63994300  0.97532400  1
  P  P6  1  0.10241300  0.75061800  0.24973300  1
  P  P7  1  0.51223800  0.63994300  0.47532400  1
  P  P8  1  0.39758700  0.75061800  0.74973300  1
  P  P9  1  0.90482600  0.16055800  0.58474900  1
  P  P10  1  0.48776200  0.36005700  0.52467600  1
  P  P11  1  0.01223800  0.36005700  0.02467600  1
  H  H0  1  0.34401600  0.77450700  0.07783800  1
  H  H1  1  0.52065400  0.36355700  0.34283900  1
  H  H2  1  0.84401600  0.22549300  0.42216200  1
  H  H3  1  0.02065400  0.63644300  0.15716100  1
  H  H4  1  0.65598400  0.22549300  0.92216200  1
  H  H5  1  0.15598400  0.77450700  0.57783800  1
  H  H6  1  0.97934600  0.36355700  0.84283900  1
  H  H7  1  0.47934600  0.63644300  0.65716100  1
  O  O0  1  0.04948900  0.60175800  0.23488700  1
  O  O1  1  0.73173300  0.06449600  0.12652400  1
  O  O2  1  0.98884900  0.10119100  0.80573700  1
  O  O3  1  0.95898600  0.94142100  0.38526200  1
  O  O4  1  0.51115100  0.10119100  0.30573700  1
  O  O5  1  0.62181900  0.48741100  0.51019800  1
  O  O6  1  0.00411900  0.28072800  0.95220000  1
  O  O7  1  0.26311700  0.78114700  0.22310900  1
  O  O8  1  0.99588100  0.71927200  0.04780000  1
  O  O9  1  0.48884900  0.89880900  0.69426300  1
  O  O10  1  0.40165200  0.73771300  0.03385500  1
  O  O11  1  0.12181900  0.51258900  0.98980200  1
  O  O12  1  0.45051100  0.60175800  0.73488700  1
  O  O13  1  0.03376200  0.25411100  0.13773500  1
  O  O14  1  0.45898600  0.05857900  0.11473800  1
  O  O15  1  0.01115100  0.89880900  0.19426300  1
  O  O16  1  0.50411900  0.71927200  0.54780000  1
  O  O17  1  0.46623800  0.25411100  0.63773500  1
  O  O18  1  0.26826700  0.93550400  0.87347600  1
  O  O19  1  0.96623800  0.74588900  0.86226500  1
  O  O20  1  0.54948900  0.39824200  0.26511300  1
  O  O21  1  0.53376200  0.74588900  0.36226500  1
  O  O22  1  0.76826700  0.06449600  0.62652400  1
  O  O23  1  0.90165200  0.26228700  0.46614500  1
  O  O24  1  0.49588100  0.28072800  0.45220000  1
  O  O25  1  0.23688300  0.78114700  0.72310900  1
  O  O26  1  0.54101400  0.94142100  0.88526200  1
  O  O27  1  0.41576800  0.69987400  0.87309100  1
  O  O28  1  0.95051100  0.39824200  0.76511300  1
  O  O29  1  0.23173300  0.93550400  0.37347600  1
  O  O30  1  0.91576800  0.30012600  0.62690900  1
  O  O31  1  0.04101400  0.05857900  0.61473800  1
  O  O32  1  0.59834800  0.26228700  0.96614500  1
  O  O33  1  0.73688300  0.21885300  0.77689100  1
  O  O34  1  0.87818100  0.48741100  0.01019800  1
  O  O35  1  0.76311700  0.21885300  0.27689100  1
  O  O36  1  0.58423200  0.30012600  0.12690900  1
  O  O37  1  0.09834800  0.73771300  0.53385500  1
  O  O38  1  0.37818100  0.51258900  0.48980200  1
  O  O39  1  0.08423200  0.69987400  0.37309100  1
loop_
_geom_bond_atom_site_label_1
_geom_bond_atom_site_label_2
_geom_bond_distance
_geom_bond_site_symmetry_2
In0 O13 2.113327 1_655
In0 O15 2.116927 1_645
In0 O3 2.123916 1_545
In0 O1 2.127522 1_555
In0 O35 2.147369 1_555
In1 O21 2.113327 1_555
In1 O4 2.116927 1_565
In1 O14 2.123916 1_565
In1 O29 2.127522 1_555
In1 O7 2.147369 1_555
In2 O17 2.113327 1_555
In2 O9 2.116927 1_545
In2 O26 2.123916 1_545
In2 O22 2.127522 1_555
In2 O33 2.147369 1_555
In3 O19 2.113327 1_455
In3 O2 2.116927 1_465
In3 O31 2.123916 1_565
In3 O18 2.127522 1_555
In3 O25 2.147369 1_555
H0 O10 0.983509 1_555
H1 O20 1.054777 1_555
H1 O24 1.446264 1_555
H2 O23 0.983509 1_555
H3 O0 1.054777 1_555
H3 O8 1.446264 1_455
H4 O32 0.983509 1_555
H5 O37 0.983509 1_555
H6 O28 1.054777 1_555
H6 O6 1.446264 1_655
H7 O12 1.054777 1_555
H7 O16 1.446264 1_555
O0 P6 1.542560 1_555
O1 P3 1.523692 1_555
O2 P2 1.520885 1_555
O3 P4 1.530003 1_655
O4 P1 1.520885 1_555
O5 P7 1.635064 1_555
O5 P10 1.663571 1_555
O6 P11 1.487040 1_556
O7 P6 1.543148 1_555
O8 P5 1.487040 1_554
O9 P8 1.520885 1_555
O10 P0 1.561716 1_554
O11 P11 1.635064 1_556
O11 P5 1.663571 1_455
O12 P8 1.542560 1_555
O13 P11 1.516648 1_555
O14 P3 1.530003 1_555
O15 P6 1.520885 1_555
O16 P7 1.487040 1_555
O17 P10 1.516648 1_555
O18 P0 1.523692 1_555
O19 P5 1.516648 1_555
O20 P1 1.542560 1_555
O21 P7 1.516648 1_555
O22 P9 1.523692 1_555
O23 P9 1.561716 1_555
O24 P10 1.487040 1_555
O25 P8 1.543148 1_555
O26 P0 1.530003 1_555
O27 P0 1.621460 1_555
O27 P8 1.633206 1_555
O28 P2 1.542560 1_555
O29 P4 1.523692 1_555
O30 P9 1.621460 1_555
O30 P2 1.633206 1_555
O31 P9 1.530003 1_455
O32 P3 1.561716 1_556
O33 P2 1.543148 1_555
O34 P5 1.635064 1_554
O34 P11 1.663571 1_655
O35 P1 1.543148 1_555
O36 P3 1.621460 1_555
O36 P1 1.633206 1_555
O37 P4 1.561716 1_555
O38 P10 1.635064 1_555
O38 P7 1.663571 1_555
O39 P4 1.621460 1_555
O39 P6 1.633206 1_555
