# generated using pymatgen
data_RbLiBi2(MoO4)4
_symmetry_space_group_name_H-M   'P 1'
_cell_length_a   7.10633122
_cell_length_b   7.10633122
_cell_length_c   19.86770705
_cell_angle_alpha   89.00713129
_cell_angle_beta   89.00713129
_cell_angle_gamma   135.53875361
_symmetry_Int_Tables_number   1
_chemical_formula_structural   RbLiBi2(MoO4)4
_chemical_formula_sum   'Rb2 Li2 Bi4 Mo8 O32'
_cell_volume   702.01328707
_cell_formula_units_Z   2
loop_
 _symmetry_equiv_pos_site_id
 _symmetry_equiv_pos_as_xyz
  1  'x, y, z'
loop_
 _atom_site_type_symbol
 _atom_site_label
 _atom_site_symmetry_multiplicity
 _atom_site_fract_x
 _atom_site_fract_y
 _atom_site_fract_z
 _atom_site_occupancy
  Rb  Rb0  1  0.96907300  0.03092700  0.25000000  1
  Rb  Rb1  1  0.03092700  0.96907300  0.75000000  1
  Li  Li0  1  0.68556000  0.31444000  0.25000000  1
  Li  Li1  1  0.31444000  0.68556000  0.75000000  1
  Bi  Bi0  1  0.84786900  0.14455400  0.03593000  1
  Bi  Bi1  1  0.85544600  0.15213100  0.46407000  1
  Bi  Bi2  1  0.15213100  0.85544600  0.96407000  1
  Bi  Bi3  1  0.14455400  0.84786900  0.53593000  1
  Mo  Mo0  1  0.75101900  0.26596200  0.85057600  1
  Mo  Mo1  1  0.54398800  0.41914200  0.09262100  1
  Mo  Mo2  1  0.24898100  0.73403800  0.14942400  1
  Mo  Mo3  1  0.41914200  0.54398800  0.59262100  1
  Mo  Mo4  1  0.58085800  0.45601200  0.40737900  1
  Mo  Mo5  1  0.45601200  0.58085800  0.90737900  1
  Mo  Mo6  1  0.73403800  0.24898100  0.64942400  1
  Mo  Mo7  1  0.26596200  0.75101900  0.35057600  1
  O  O0  1  0.17423100  0.51401700  0.54448000  1
  O  O1  1  0.06411300  0.47780600  0.21364400  1
  O  O2  1  0.52219400  0.93588700  0.28635600  1
  O  O3  1  0.59553000  0.89829400  0.13451600  1
  O  O4  1  0.23337000  0.27071800  0.96075800  1
  O  O5  1  0.06782100  0.58465600  0.06922700  1
  O  O6  1  0.10170600  0.40447000  0.36548400  1
  O  O7  1  0.82576900  0.48598300  0.45552000  1
  O  O8  1  0.01392600  0.72890100  0.32648700  1
  O  O9  1  0.77335000  0.68949500  0.89631300  1
  O  O10  1  0.40447000  0.10170600  0.86548400  1
  O  O11  1  0.76663000  0.72928200  0.03924200  1
  O  O12  1  0.27071800  0.23337000  0.46075800  1
  O  O13  1  0.48598300  0.82576900  0.95552000  1
  O  O14  1  0.58465600  0.06782100  0.56922700  1
  O  O15  1  0.72928200  0.76663000  0.53924200  1
  O  O16  1  0.41534400  0.93217900  0.43077300  1
  O  O17  1  0.48639800  0.30250200  0.32918300  1
  O  O18  1  0.51360200  0.69749800  0.67081700  1
  O  O19  1  0.69749800  0.51360200  0.17081700  1
  O  O20  1  0.30250200  0.48639800  0.82918300  1
  O  O21  1  0.72890100  0.01392600  0.82648700  1
  O  O22  1  0.68949500  0.77335000  0.39631300  1
  O  O23  1  0.31050500  0.22665000  0.60368700  1
  O  O24  1  0.51401700  0.17423100  0.04448000  1
  O  O25  1  0.93217900  0.41534400  0.93077300  1
  O  O26  1  0.89829400  0.59553000  0.63451600  1
  O  O27  1  0.98607400  0.27109900  0.67351300  1
  O  O28  1  0.47780600  0.06411300  0.71364400  1
  O  O29  1  0.27109900  0.98607400  0.17351300  1
  O  O30  1  0.93588700  0.52219400  0.78635600  1
  O  O31  1  0.22665000  0.31050500  0.10368700  1
loop_
_geom_bond_atom_site_label_1
_geom_bond_atom_site_label_2
_geom_bond_distance
_geom_bond_site_symmetry_2
Li0 O19 2.057191 1_555
Li0 O17 2.057191 1_555
Li0 O1 2.133509 1_655
Li0 O2 2.133509 1_545
Li1 O18 2.057191 1_555
Li1 O20 2.057191 1_555
Li1 O30 2.133509 1_455
Li1 O28 2.133509 1_565
Bi0 O3 2.322607 1_545
Bi0 O5 2.406572 1_655
Bi0 O31 2.469364 1_655
Bi0 O13 2.499886 1_544
Bi0 O24 2.530493 1_555
Bi0 O25 2.568736 1_554
Bi0 O11 2.570294 1_545
Bi0 O4 2.616295 1_654
Bi1 O6 2.322607 1_655
Bi1 O16 2.406572 1_545
Bi1 O22 2.469364 1_545
Bi1 O0 2.499886 1_655
Bi1 O7 2.530493 1_555
Bi1 O14 2.568736 1_555
Bi1 O12 2.570294 1_655
Bi1 O15 2.616295 1_545
Bi2 O10 2.322607 1_565
Bi2 O25 2.406572 1_455
Bi2 O9 2.469364 1_455
Bi2 O24 2.499886 1_566
Bi2 O13 2.530493 1_555
Bi2 O5 2.568736 1_556
Bi2 O4 2.570294 1_565
Bi2 O11 2.616295 1_456
Bi3 O26 2.322607 1_455
Bi3 O14 2.406572 1_565
Bi3 O23 2.469364 1_565
Bi3 O7 2.499886 1_455
Bi3 O0 2.530493 1_555
Bi3 O16 2.568736 1_555
Bi3 O15 2.570294 1_455
Bi3 O12 2.616295 1_565
Mo0 O21 1.758434 1_555
Mo0 O30 1.765258 1_555
Mo0 O10 1.836973 1_555
Mo0 O25 1.871328 1_555
Mo1 O19 1.761768 1_555
Mo1 O31 1.794895 1_555
Mo1 O11 1.835395 1_555
Mo1 O24 1.877455 1_555
Mo2 O29 1.758434 1_555
Mo2 O1 1.765258 1_555
Mo2 O3 1.836973 1_555
Mo2 O5 1.871328 1_555
Mo3 O18 1.761768 1_555
Mo3 O23 1.794895 1_555
Mo3 O15 1.835395 1_555
Mo3 O0 1.877455 1_555
Mo4 O17 1.761768 1_555
Mo4 O22 1.794895 1_555
Mo4 O12 1.835395 1_555
Mo4 O7 1.877455 1_555
Mo5 O20 1.761768 1_555
Mo5 O9 1.794895 1_555
Mo5 O4 1.835395 1_555
Mo5 O13 1.877455 1_555
Mo6 O27 1.758434 1_555
Mo6 O28 1.765258 1_555
Mo6 O26 1.836973 1_555
Mo6 O14 1.871328 1_555
Mo7 O8 1.758434 1_555
Mo7 O2 1.765258 1_555
Mo7 O6 1.836973 1_555
Mo7 O16 1.871328 1_555
O1 Rb0 2.811541 1_455
O2 Rb0 2.811541 1_565
O3 Rb0 3.148604 1_565
O6 Rb0 3.148604 1_455
O8 Rb0 2.810289 1_465
O9 Rb1 3.189381 1_655
O10 Rb1 3.148604 1_545
O17 Rb0 3.145247 1_455
O18 Rb1 3.145247 1_655
O19 Rb0 3.145247 1_565
O20 Rb1 3.145247 1_545
O21 Rb1 2.810289 1_645
O22 Rb0 3.189381 1_565
O23 Rb1 3.189381 1_545
O26 Rb1 3.148604 1_655
O27 Rb1 2.810289 1_645
O28 Rb1 2.811541 1_545
O29 Rb0 2.810289 1_465
O30 Rb1 2.811541 1_655
O31 Rb0 3.189381 1_455
