# generated using pymatgen
data_YbBr3
_symmetry_space_group_name_H-M   'P 1'
_cell_length_a   7.16955457
_cell_length_b   7.16955457
_cell_length_c   7.16955476
_cell_angle_alpha   62.91994126
_cell_angle_beta   62.91994126
_cell_angle_gamma   62.91993733
_symmetry_Int_Tables_number   1
_chemical_formula_structural   YbBr3
_chemical_formula_sum   'Yb2 Br6'
_cell_volume   277.49541011
_cell_formula_units_Z   2
loop_
 _symmetry_equiv_pos_site_id
 _symmetry_equiv_pos_as_xyz
  1  'x, y, z'
loop_
 _atom_site_type_symbol
 _atom_site_label
 _atom_site_symmetry_multiplicity
 _atom_site_fract_x
 _atom_site_fract_y
 _atom_site_fract_z
 _atom_site_occupancy
  Yb  Yb0  1  0.82853600  0.82853600  0.82853600  1
  Yb  Yb1  1  0.17146400  0.17146400  0.17146400  1
  Br  Br0  1  0.90907100  0.24733200  0.59342400  1
  Br  Br1  1  0.59342400  0.90907100  0.24733200  1
  Br  Br2  1  0.24733200  0.59342400  0.90907100  1
  Br  Br3  1  0.75266800  0.40657600  0.09092900  1
  Br  Br4  1  0.40657600  0.09092900  0.75266800  1
  Br  Br5  1  0.09092900  0.75266800  0.40657600  1
loop_
_geom_bond_atom_site_label_1
_geom_bond_atom_site_label_2
_geom_bond_distance
_geom_bond_site_symmetry_2
Br0 Yb0 2.876535 1_545
Br0 Yb1 2.893444 1_655
Br1 Yb0 2.876535 1_554
Br1 Yb1 2.893444 1_565
Br2 Yb0 2.876535 1_455
Br2 Yb1 2.893444 1_556
Br3 Yb1 2.876535 1_655
Br3 Yb0 2.893444 1_554
Br4 Yb1 2.876535 1_556
Br4 Yb0 2.893444 1_545
Br5 Yb1 2.876535 1_565
Br5 Yb0 2.893444 1_455
