# generated using pymatgen
data_U12O19
_symmetry_space_group_name_H-M   'P 1'
_cell_length_a   3.85008576
_cell_length_b   3.85008576
_cell_length_c   37.02800700
_cell_angle_alpha   90.00000000
_cell_angle_beta   90.00000000
_cell_angle_gamma   119.99999579
_symmetry_Int_Tables_number   1
_chemical_formula_structural   U12O19
_chemical_formula_sum   'U12 O19'
_cell_volume   475.33718846
_cell_formula_units_Z   1
loop_
 _symmetry_equiv_pos_site_id
 _symmetry_equiv_pos_as_xyz
  1  'x, y, z'
loop_
 _atom_site_type_symbol
 _atom_site_label
 _atom_site_symmetry_multiplicity
 _atom_site_fract_x
 _atom_site_fract_y
 _atom_site_fract_z
 _atom_site_occupancy
  U  U0  1  0.66666700  0.33333300  0.00042600  1
  U  U1  1  0.33333300  0.66666700  0.91563500  1
  U  U2  1  0.00000000  0.00000000  0.83351500  1
  U  U3  1  0.66666700  0.33333300  0.75145100  1
  U  U4  1  0.33333300  0.66666700  0.66592500  1
  U  U5  1  0.66666700  0.33333300  0.49896900  1
  U  U6  1  0.00000000  0.00000000  0.58407400  1
  U  U7  1  0.33333300  0.66666700  0.41658400  1
  U  U8  1  0.00000000  0.00000000  0.33442100  1
  U  U9  1  0.66666700  0.33333300  0.24950200  1
  U  U10  1  0.00000000  0.00000000  0.08214800  1
  U  U11  1  0.33333300  0.66666700  0.16759300  1
  O  O0  1  0.33333300  0.66666700  0.97520700  1
  O  O1  1  0.00000000  0.00000000  0.90079900  1
  O  O2  1  0.66666700  0.33333300  0.81247700  1
  O  O3  1  0.33333300  0.66666700  0.85434600  1
  O  O4  1  0.00000000  0.00000000  0.64558400  1
  O  O5  1  0.00000000  0.00000000  0.76596200  1
  O  O6  1  0.66666700  0.33333300  0.55849000  1
  O  O7  1  0.66666700  0.33333300  0.69113900  1
  O  O8  1  0.33333300  0.66666700  0.48425800  1
  O  O9  1  0.33333300  0.66666700  0.60442800  1
  O  O10  1  0.00000000  0.00000000  0.39577700  1
  O  O11  1  0.66666700  0.33333300  0.43772200  1
  O  O12  1  0.33333300  0.66666700  0.34917000  1
  O  O13  1  0.33333300  0.66666700  0.22931500  1
  O  O14  1  0.00000000  0.00000000  0.27497700  1
  O  O15  1  0.66666700  0.33333300  0.18347800  1
  O  O16  1  0.66666700  0.33333300  0.06206500  1
  O  O17  1  0.33333300  0.66666700  0.10789400  1
  O  O18  1  0.00000000  0.00000000  0.02083500  1
loop_
_geom_bond_atom_site_label_1
_geom_bond_atom_site_label_2
_geom_bond_distance
_geom_bond_site_symmetry_2
O0 U1 2.205832 1_555
O0 U0 2.411025 1_566
O0 U0 2.411025 1_456
O0 U0 2.411031 1_556
O1 U1 2.289722 1_545
O1 U1 2.289725 1_445
O1 U1 2.289725 1_555
O1 U2 2.491392 1_555
O2 U3 2.259671 1_555
O2 U2 2.355393 1_655
O2 U2 2.355396 1_665
O2 U2 2.355396 1_555
O3 U1 2.269410 1_555
O3 U2 2.352869 1_565
O3 U2 2.352873 1_665
O3 U2 2.352873 1_555
O4 U6 2.277593 1_555
O4 U4 2.346984 1_545
O4 U4 2.346987 1_445
O4 U4 2.346987 1_555
O5 U3 2.286864 1_455
O5 U3 2.286868 1_555
O5 U3 2.286868 1_445
O5 U2 2.501353 1_555
O6 U5 2.203944 1_555
O6 U6 2.416292 1_655
O6 U6 2.416295 1_555
O6 U6 2.416295 1_665
O7 U3 2.233233 1_555
O7 U4 2.410954 1_545
O7 U4 2.410954 1_655
O7 U4 2.410960 1_555
O8 U5 2.288616 1_455
O8 U5 2.288616 1_565
O8 U5 2.288622 1_555
O8 U7 2.505833 1_555
O9 U4 2.277111 1_555
O9 U6 2.347138 1_565
O9 U6 2.347142 1_555
O9 U6 2.347142 1_665
O10 U8 2.271890 1_555
O10 U7 2.352578 1_545
O10 U7 2.352581 1_555
O10 U7 2.352581 1_445
O11 U5 2.267854 1_555
O11 U7 2.356620 1_545
O11 U7 2.356620 1_655
O11 U7 2.356627 1_555
O12 U8 2.288951 1_565
O12 U8 2.288954 1_555
O12 U8 2.288954 1_665
O12 U7 2.496206 1_555
O13 U11 2.285443 1_555
O13 U9 2.345160 1_455
O13 U9 2.345160 1_565
O13 U9 2.345166 1_555
O14 U8 2.201093 1_555
O14 U9 2.414713 1_455
O14 U9 2.414716 1_555
O14 U9 2.414716 1_445
O15 U11 2.299350 1_655
O15 U11 2.299350 1_545
O15 U11 2.299357 1_555
O15 U9 2.444737 1_555
O16 U0 2.282369 1_555
O16 U10 2.343936 1_655
O16 U10 2.343939 1_555
O16 U10 2.343939 1_665
O17 U11 2.210535 1_555
O17 U10 2.418650 1_565
O17 U10 2.418653 1_665
O17 U10 2.418653 1_555
O18 U10 2.270298 1_555
O18 U0 2.347793 1_455
O18 U0 2.347796 1_555
O18 U0 2.347796 1_445
