# generated using pymatgen
data_Sc
_symmetry_space_group_name_H-M   'P 1'
_cell_length_a   6.58245182
_cell_length_b   6.58244799
_cell_length_c   10.66514478
_cell_angle_alpha   90.00000000
_cell_angle_beta   90.00000000
_cell_angle_gamma   119.99999887
_symmetry_Int_Tables_number   1
_chemical_formula_structural   Sc
_chemical_formula_sum   Sc16
_cell_volume   400.19579134
_cell_formula_units_Z   16
loop_
 _symmetry_equiv_pos_site_id
 _symmetry_equiv_pos_as_xyz
  1  'x, y, z'
loop_
 _atom_site_type_symbol
 _atom_site_label
 _atom_site_symmetry_multiplicity
 _atom_site_fract_x
 _atom_site_fract_y
 _atom_site_fract_z
 _atom_site_occupancy
  Sc  Sc0_0  1  0.16666650  0.33333350  0.12500000  1
  Sc  Sc0_1  1  0.16666650  0.33333350  0.62500000  1
  Sc  Sc0_2  1  0.16666650  0.83333350  0.12500000  1
  Sc  Sc0_3  1  0.16666650  0.83333350  0.62500000  1
  Sc  Sc0_4  1  0.66666650  0.33333350  0.12500000  1
  Sc  Sc0_5  1  0.66666650  0.33333350  0.62500000  1
  Sc  Sc0_6  1  0.66666650  0.83333350  0.12500000  1
  Sc  Sc0_7  1  0.66666650  0.83333350  0.62500000  1
  Sc  Sc1_0  1  0.33333350  0.16666650  0.37500000  1
  Sc  Sc1_1  1  0.33333350  0.16666650  0.87500000  1
  Sc  Sc1_2  1  0.33333350  0.66666650  0.37500000  1
  Sc  Sc1_3  1  0.33333350  0.66666650  0.87500000  1
  Sc  Sc1_4  1  0.83333350  0.16666650  0.37500000  1
  Sc  Sc1_5  1  0.83333350  0.16666650  0.87500000  1
  Sc  Sc1_6  1  0.83333350  0.66666650  0.37500000  1
  Sc  Sc1_7  1  0.83333350  0.66666650  0.87500000  1
loop_
_geom_bond_atom_site_label_1
_geom_bond_atom_site_label_2
_geom_bond_distance
_geom_bond_site_symmetry_2
Sc0_0 Sc1_2 3.274110 1_555
Sc0_0 Sc1_3 3.274110 1_554
Sc0_0 Sc1_4 3.274110 1_455
Sc0_0 Sc1_5 3.274110 1_454
Sc0_0 Sc1_0 3.274113 1_555
Sc0_0 Sc1_1 3.274113 1_554
Sc0_0 Sc0_2 3.291224 1_555
Sc0_0 Sc0_2 3.291224 1_545
Sc0_0 Sc0_6 3.291225 1_555
Sc0_0 Sc0_6 3.291225 1_445
Sc0_0 Sc0_4 3.291226 1_455
Sc0_0 Sc0_4 3.291226 1_555
Sc0_1 Sc1_2 3.274110 1_555
Sc0_1 Sc1_3 3.274110 1_555
Sc0_1 Sc1_4 3.274110 1_455
Sc0_1 Sc1_5 3.274110 1_455
Sc0_1 Sc1_0 3.274113 1_555
Sc0_1 Sc1_1 3.274113 1_555
Sc0_1 Sc0_3 3.291224 1_555
Sc0_1 Sc0_3 3.291224 1_545
Sc0_1 Sc0_7 3.291225 1_555
Sc0_1 Sc0_7 3.291225 1_445
Sc0_1 Sc0_5 3.291226 1_455
Sc0_1 Sc0_5 3.291226 1_555
Sc0_2 Sc1_0 3.274110 1_565
Sc0_2 Sc1_1 3.274110 1_564
Sc0_2 Sc1_6 3.274110 1_455
Sc0_2 Sc1_7 3.274110 1_454
Sc0_2 Sc1_2 3.274113 1_555
Sc0_2 Sc1_3 3.274113 1_554
Sc0_2 Sc0_4 3.291225 1_455
Sc0_2 Sc0_4 3.291225 1_565
Sc0_2 Sc0_6 3.291226 1_555
Sc0_2 Sc0_6 3.291226 1_455
Sc0_3 Sc1_0 3.274110 1_565
Sc0_3 Sc1_1 3.274110 1_565
Sc0_3 Sc1_6 3.274110 1_455
Sc0_3 Sc1_7 3.274110 1_455
Sc0_3 Sc1_2 3.274113 1_555
Sc0_3 Sc1_3 3.274113 1_555
Sc0_3 Sc0_5 3.291225 1_455
Sc0_3 Sc0_5 3.291225 1_565
Sc0_3 Sc0_7 3.291226 1_555
Sc0_3 Sc0_7 3.291226 1_455
Sc0_4 Sc1_6 3.274110 1_555
Sc0_4 Sc1_7 3.274110 1_554
Sc0_4 Sc1_0 3.274110 1_555
Sc0_4 Sc1_1 3.274110 1_554
Sc0_4 Sc1_4 3.274113 1_555
Sc0_4 Sc1_5 3.274113 1_554
Sc0_4 Sc0_6 3.291224 1_555
Sc0_4 Sc0_6 3.291224 1_545
Sc0_5 Sc1_6 3.274110 1_555
Sc0_5 Sc1_7 3.274110 1_555
Sc0_5 Sc1_0 3.274110 1_555
Sc0_5 Sc1_1 3.274110 1_555
Sc0_5 Sc1_4 3.274113 1_555
Sc0_5 Sc1_5 3.274113 1_555
Sc0_5 Sc0_7 3.291224 1_555
Sc0_5 Sc0_7 3.291224 1_545
Sc0_6 Sc1_4 3.274110 1_565
Sc0_6 Sc1_5 3.274110 1_564
Sc0_6 Sc1_2 3.274110 1_555
Sc0_6 Sc1_3 3.274110 1_554
Sc0_6 Sc1_6 3.274113 1_555
Sc0_6 Sc1_7 3.274113 1_554
Sc0_7 Sc1_4 3.274110 1_565
Sc0_7 Sc1_5 3.274110 1_565
Sc0_7 Sc1_2 3.274110 1_555
Sc0_7 Sc1_3 3.274110 1_555
Sc0_7 Sc1_6 3.274113 1_555
Sc0_7 Sc1_7 3.274113 1_555
Sc1_0 Sc1_2 3.291224 1_545
Sc1_0 Sc1_2 3.291224 1_555
Sc1_0 Sc1_6 3.291225 1_445
Sc1_0 Sc1_6 3.291225 1_555
Sc1_0 Sc1_4 3.291226 1_455
Sc1_0 Sc1_4 3.291226 1_555
Sc1_1 Sc1_3 3.291224 1_545
Sc1_1 Sc1_3 3.291224 1_555
Sc1_1 Sc1_7 3.291225 1_445
Sc1_1 Sc1_7 3.291225 1_555
Sc1_1 Sc1_5 3.291226 1_455
Sc1_1 Sc1_5 3.291226 1_555
Sc1_2 Sc1_4 3.291225 1_455
Sc1_2 Sc1_4 3.291225 1_565
Sc1_2 Sc1_6 3.291226 1_455
Sc1_2 Sc1_6 3.291226 1_555
Sc1_3 Sc1_5 3.291225 1_455
Sc1_3 Sc1_5 3.291225 1_565
Sc1_3 Sc1_7 3.291226 1_555
Sc1_3 Sc1_7 3.291226 1_455
Sc1_4 Sc1_6 3.291224 1_545
Sc1_4 Sc1_6 3.291224 1_555
Sc1_5 Sc1_7 3.291224 1_545
Sc1_5 Sc1_7 3.291224 1_555
