# generated using pymatgen
data_Cs3Sb2Cl9
_symmetry_space_group_name_H-M   'P 1'
_cell_length_a   7.75346800
_cell_length_b   13.28047600
_cell_length_c   18.96376600
_cell_angle_alpha   90.00000000
_cell_angle_beta   90.00000000
_cell_angle_gamma   90.00000000
_symmetry_Int_Tables_number   1
_chemical_formula_structural   Cs3Sb2Cl9
_chemical_formula_sum   'Cs12 Sb8 Cl36'
_cell_volume   1952.69416236
_cell_formula_units_Z   4
loop_
 _symmetry_equiv_pos_site_id
 _symmetry_equiv_pos_as_xyz
  1  'x, y, z'
loop_
 _atom_site_type_symbol
 _atom_site_label
 _atom_site_symmetry_multiplicity
 _atom_site_fract_x
 _atom_site_fract_y
 _atom_site_fract_z
 _atom_site_occupancy
  Cs  Cs0  1  0.25000000  0.75102700  0.75243300  1
  Cs  Cs1  1  0.25000000  0.41463700  0.40941300  1
  Cs  Cs2  1  0.75000000  0.24897300  0.24756700  1
  Cs  Cs3  1  0.75000000  0.58536300  0.59058700  1
  Cs  Cs4  1  0.75000000  0.91463700  0.09058700  1
  Cs  Cs5  1  0.25000000  0.74897300  0.25243300  1
  Cs  Cs6  1  0.25000000  0.41695100  0.08220900  1
  Cs  Cs7  1  0.75000000  0.25102700  0.74756700  1
  Cs  Cs8  1  0.25000000  0.08536300  0.90941300  1
  Cs  Cs9  1  0.75000000  0.91695100  0.41779100  1
  Cs  Cs10  1  0.75000000  0.58304900  0.91779100  1
  Cs  Cs11  1  0.25000000  0.08304900  0.58220900  1
  Sb  Sb0  1  0.25000000  0.41640100  0.81536000  1
  Sb  Sb1  1  0.75000000  0.91640100  0.68464000  1
  Sb  Sb2  1  0.75000000  0.58359900  0.18464000  1
  Sb  Sb3  1  0.75000000  0.23536900  0.99915100  1
  Sb  Sb4  1  0.25000000  0.08359900  0.31536000  1
  Sb  Sb5  1  0.75000000  0.26463100  0.49915100  1
  Sb  Sb6  1  0.25000000  0.73536900  0.50084900  1
  Sb  Sb7  1  0.25000000  0.76463100  0.00084900  1
  Cl  Cl0  1  0.01618400  0.83715800  0.92440200  1
  Cl  Cl1  1  0.51618400  0.16284200  0.07559800  1
  Cl  Cl2  1  0.75000000  0.08240300  0.92326500  1
  Cl  Cl3  1  0.50510900  0.00083900  0.75215100  1
  Cl  Cl4  1  0.99489100  0.00083900  0.75215100  1
  Cl  Cl5  1  0.25000000  0.58372400  0.91105600  1
  Cl  Cl6  1  0.49566500  0.17582000  0.40594400  1
  Cl  Cl7  1  0.01618400  0.66284200  0.42440200  1
  Cl  Cl8  1  0.49489100  0.50083900  0.74784900  1
  Cl  Cl9  1  0.98381600  0.33715800  0.57559800  1
  Cl  Cl10  1  0.99566500  0.67582000  0.09405600  1
  Cl  Cl11  1  0.00510900  0.50083900  0.74784900  1
  Cl  Cl12  1  0.99489100  0.49916100  0.25215100  1
  Cl  Cl13  1  0.75000000  0.41627600  0.08894400  1
  Cl  Cl14  1  0.00433500  0.17582000  0.40594400  1
  Cl  Cl15  1  0.50510900  0.49916100  0.25215100  1
  Cl  Cl16  1  0.25000000  0.58240300  0.57673500  1
  Cl  Cl17  1  0.75000000  0.08372400  0.58894400  1
  Cl  Cl18  1  0.48381600  0.83715800  0.92440200  1
  Cl  Cl19  1  0.98381600  0.16284200  0.07559800  1
  Cl  Cl20  1  0.25000000  0.24244600  0.24096600  1
  Cl  Cl21  1  0.50433500  0.82418000  0.59405600  1
  Cl  Cl22  1  0.49566500  0.32418000  0.90594400  1
  Cl  Cl23  1  0.48381600  0.66284200  0.42440200  1
  Cl  Cl24  1  0.51618400  0.33715800  0.57559800  1
  Cl  Cl25  1  0.75000000  0.75755400  0.75903400  1
  Cl  Cl26  1  0.75000000  0.41759700  0.42326500  1
  Cl  Cl27  1  0.49489100  0.99916100  0.24784900  1
  Cl  Cl28  1  0.00510900  0.99916100  0.24784900  1
  Cl  Cl29  1  0.99566500  0.82418000  0.59405600  1
  Cl  Cl30  1  0.75000000  0.74244600  0.25903400  1
  Cl  Cl31  1  0.25000000  0.91627600  0.41105600  1
  Cl  Cl32  1  0.25000000  0.25755400  0.74096600  1
  Cl  Cl33  1  0.25000000  0.91759700  0.07673500  1
  Cl  Cl34  1  0.00433500  0.32418000  0.90594400  1
  Cl  Cl35  1  0.50433500  0.67582000  0.09405600  1
loop_
_geom_bond_atom_site_label_1
_geom_bond_atom_site_label_2
_geom_bond_distance
_geom_bond_site_symmetry_2
Cl0 Sb7 2.513163 1_556
Cl0 Cs8 3.772640 1_565
Cl0 Cs0 3.902597 1_555
Cl0 Cs4 3.905143 1_456
Cl0 Cs10 3.957741 1_455
Cl1 Sb3 2.513163 1_554
Cl1 Cs4 3.772640 1_545
Cl1 Cs2 3.902597 1_555
Cl1 Cs8 3.905143 1_554
Cl1 Cs6 3.957741 1_555
Cl2 Sb3 2.489538 1_555
Cl2 Cs4 3.877153 1_546
Cl2 Cs8 3.885822 1_555
Cl2 Cs8 3.885822 1_655
Cl2 Cs7 4.014533 1_555
Cl3 Sb1 2.549868 1_545
Cl3 Cs8 3.750526 1_555
Cl3 Cs7 3.827872 1_555
Cl3 Cs0 3.862518 1_545
Cl3 Cs11 3.935792 1_555
Cl4 Sb1 2.549868 1_545
Cl4 Cs8 3.750526 1_655
Cl4 Cs7 3.827872 1_555
Cl4 Cs0 3.862518 1_645
Cl4 Cs11 3.935792 1_655
Cl5 Sb0 2.869007 1_555
Cl5 Sb7 2.944780 1_556
Cl5 Cs0 3.739690 1_555
Cl5 Cs10 3.878848 1_555
Cl5 Cs10 3.878848 1_455
Cl5 Cs6 3.929383 1_556
Cl6 Sb4 2.842352 1_555
Cl6 Sb5 2.898976 1_555
Cl6 Cs1 3.700201 1_555
Cl6 Cs2 3.721973 1_555
Cl6 Cs9 3.969679 1_545
Cl6 Cs11 4.039718 1_555
Cl7 Sb6 2.513163 1_555
Cl7 Cs1 3.772640 1_555
Cl7 Cs5 3.902597 1_555
Cl7 Cs3 3.905143 1_455
Cl7 Cs9 3.957741 1_455
Cl8 Sb0 2.549868 1_555
Cl8 Cs3 3.750526 1_555
Cl8 Cs0 3.827872 1_555
Cl8 Cs7 3.862518 1_555
Cl8 Cs10 3.935792 1_555
Cl9 Sb5 2.513163 1_555
Cl9 Cs3 3.772640 1_555
Cl9 Cs7 3.902597 1_555
Cl9 Cs1 3.905143 1_655
Cl9 Cs11 3.957741 1_655
Cl10 Sb2 2.842352 1_555
Cl10 Sb7 2.898976 1_655
Cl10 Cs4 3.700201 1_555
Cl10 Cs5 3.721973 1_655
Cl10 Cs6 3.969679 1_655
Cl10 Cs10 4.039718 1_554
Cl11 Sb0 2.549868 1_555
Cl11 Cs3 3.750526 1_455
Cl11 Cs0 3.827872 1_555
Cl11 Cs7 3.862518 1_455
Cl11 Cs10 3.935792 1_455
Cl12 Sb2 2.549868 1_555
Cl12 Cs1 3.750526 1_655
Cl12 Cs2 3.827872 1_555
Cl12 Cs5 3.862518 1_655
Cl12 Cs6 3.935792 1_655
Cl13 Sb2 2.869007 1_555
Cl13 Sb3 2.944780 1_554
Cl13 Cs2 3.739690 1_555
Cl13 Cs6 3.878848 1_655
Cl13 Cs6 3.878848 1_555
Cl13 Cs10 3.929383 1_554
Cl14 Sb4 2.842352 1_555
Cl14 Sb5 2.898976 1_455
Cl14 Cs1 3.700201 1_555
Cl14 Cs2 3.721973 1_455
Cl14 Cs9 3.969679 1_445
Cl14 Cs11 4.039718 1_555
Cl15 Sb2 2.549868 1_555
Cl15 Cs1 3.750526 1_555
Cl15 Cs2 3.827872 1_555
Cl15 Cs5 3.862518 1_555
Cl15 Cs6 3.935792 1_555
Cl16 Sb6 2.489538 1_555
Cl16 Cs1 3.877153 1_555
Cl16 Cs3 3.885822 1_455
Cl16 Cs3 3.885822 1_555
Cl16 Cs0 4.014533 1_555
Cl17 Sb1 2.869007 1_545
Cl17 Sb5 2.944780 1_555
Cl17 Cs7 3.739690 1_555
Cl17 Cs11 3.878848 1_655
Cl17 Cs11 3.878848 1_555
Cl17 Cs9 3.929383 1_545
Cl18 Sb7 2.513163 1_556
Cl18 Cs8 3.772640 1_565
Cl18 Cs0 3.902597 1_555
Cl18 Cs4 3.905143 1_556
Cl18 Cs10 3.957741 1_555
Cl19 Sb3 2.513163 1_554
Cl19 Cs4 3.772640 1_545
Cl19 Cs2 3.902597 1_555
Cl19 Cs8 3.905143 1_654
Cl19 Cs6 3.957741 1_655
Cl20 Sb4 2.537832 1_555
Cl20 Cs6 3.799309 1_555
Cl20 Cs2 3.879723 1_555
Cl20 Cs2 3.879723 1_455
Cl20 Cs1 3.928547 1_555
Cl21 Sb1 2.842352 1_555
Cl21 Sb6 2.898976 1_555
Cl21 Cs3 3.700201 1_555
Cl21 Cs0 3.721973 1_555
Cl21 Cs11 3.969679 1_565
Cl21 Cs9 4.039718 1_555
Cl22 Sb0 2.842352 1_555
Cl22 Sb3 2.898976 1_555
Cl22 Cs8 3.700201 1_555
Cl22 Cs7 3.721973 1_555
Cl22 Cs10 3.969679 1_555
Cl22 Cs6 4.039718 1_556
Cl23 Sb6 2.513163 1_555
Cl23 Cs1 3.772640 1_555
Cl23 Cs5 3.902597 1_555
Cl23 Cs3 3.905143 1_555
Cl23 Cs9 3.957741 1_555
Cl24 Sb5 2.513163 1_555
Cl24 Cs3 3.772640 1_555
Cl24 Cs7 3.902597 1_555
Cl24 Cs1 3.905143 1_555
Cl24 Cs11 3.957741 1_555
Cl25 Sb1 2.537832 1_555
Cl25 Cs10 3.799309 1_555
Cl25 Cs0 3.879723 1_555
Cl25 Cs0 3.879723 1_655
Cl25 Cs3 3.928547 1_555
Cl26 Sb5 2.489538 1_555
Cl26 Cs3 3.877153 1_555
Cl26 Cs1 3.885822 1_655
Cl26 Cs1 3.885822 1_555
Cl26 Cs2 4.014533 1_555
Cl27 Sb4 2.549868 1_565
Cl27 Cs4 3.750526 1_555
Cl27 Cs5 3.827872 1_555
Cl27 Cs2 3.862518 1_565
Cl27 Cs9 3.935792 1_555
Cl28 Sb4 2.549868 1_565
Cl28 Cs4 3.750526 1_455
Cl28 Cs5 3.827872 1_555
Cl28 Cs2 3.862518 1_465
Cl28 Cs9 3.935792 1_455
Cl29 Sb1 2.842352 1_555
Cl29 Sb6 2.898976 1_655
Cl29 Cs3 3.700201 1_555
Cl29 Cs0 3.721973 1_655
Cl29 Cs11 3.969679 1_665
Cl29 Cs9 4.039718 1_555
Cl30 Sb2 2.537832 1_555
Cl30 Cs9 3.799309 1_555
Cl30 Cs5 3.879723 1_655
Cl30 Cs5 3.879723 1_555
Cl30 Cs4 3.928547 1_555
Cl31 Sb4 2.869007 1_565
Cl31 Sb6 2.944780 1_555
Cl31 Cs5 3.739690 1_555
Cl31 Cs9 3.878848 1_555
Cl31 Cs9 3.878848 1_455
Cl31 Cs11 3.929383 1_565
Cl32 Sb0 2.537832 1_555
Cl32 Cs11 3.799309 1_555
Cl32 Cs7 3.879723 1_455
Cl32 Cs7 3.879723 1_555
Cl32 Cs8 3.928547 1_555
Cl33 Sb7 2.489538 1_555
Cl33 Cs8 3.877153 1_564
Cl33 Cs4 3.885822 1_455
Cl33 Cs4 3.885822 1_555
Cl33 Cs5 4.014533 1_555
Cl34 Sb0 2.842352 1_555
Cl34 Sb3 2.898976 1_455
Cl34 Cs8 3.700201 1_555
Cl34 Cs7 3.721973 1_455
Cl34 Cs10 3.969679 1_455
Cl34 Cs6 4.039718 1_556
Cl35 Sb2 2.842352 1_555
Cl35 Sb7 2.898976 1_555
Cl35 Cs4 3.700201 1_555
Cl35 Cs5 3.721973 1_555
Cl35 Cs6 3.969679 1_555
Cl35 Cs10 4.039718 1_554
