# generated using pymatgen
data_Na7Al10Si14(AgO16)3
_symmetry_space_group_name_H-M   'P 1'
_cell_length_a   12.13183800
_cell_length_b   12.34379608
_cell_length_c   12.67936706
_cell_angle_alpha   90.66876303
_cell_angle_beta   90.84473366
_cell_angle_gamma   90.00653082
_symmetry_Int_Tables_number   1
_chemical_formula_structural   Na7Al10Si14(AgO16)3
_chemical_formula_sum   'Na7 Al10 Si14 Ag3 O48'
_cell_volume   1898.43665554
_cell_formula_units_Z   1
loop_
 _symmetry_equiv_pos_site_id
 _symmetry_equiv_pos_as_xyz
  1  'x, y, z'
loop_
 _atom_site_type_symbol
 _atom_site_label
 _atom_site_symmetry_multiplicity
 _atom_site_fract_x
 _atom_site_fract_y
 _atom_site_fract_z
 _atom_site_occupancy
  Na  Na0  1  0.50847400  0.00175200  0.36078100  1
  Na  Na1  1  0.00541000  0.39398500  0.43558700  1
  Na  Na2  1  0.00401500  0.60775000  0.40277400  1
  Na  Na3  1  0.19613300  0.19633300  0.21791400  1
  Na  Na4  1  0.81476200  0.19556200  0.21556800  1
  Na  Na5  1  0.18876800  0.80824800  0.21580400  1
  Na  Na6  1  0.82065000  0.80588400  0.20981500  1
  Al  Al0  1  0.62296300  0.99855700  0.81922600  1
  Al  Al1  1  0.99810300  0.80843900  0.62397500  1
  Al  Al2  1  0.20753300  0.00335600  0.38996400  1
  Al  Al3  1  0.00682900  0.17767900  0.38245500  1
  Al  Al4  1  0.80429900  0.00225800  0.38173200  1
  Al  Al5  1  0.00536500  0.82599400  0.37925500  1
  Al  Al6  1  0.36420600  0.99885300  0.17370700  1
  Al  Al7  1  0.64228500  0.99844500  0.16651600  1
  Al  Al8  1  0.00635600  0.37407700  0.18742100  1
  Al  Al9  1  0.00563100  0.63104900  0.17800500  1
  Si  Si0  1  0.36766600  0.81541500  0.99986600  1
  Si  Si1  1  0.63299600  0.81167800  0.99651000  1
  Si  Si2  1  0.36809700  0.00088600  0.82557600  1
  Si  Si3  1  0.99721600  0.36694400  0.82322600  1
  Si  Si4  1  0.99491600  0.62279100  0.81867400  1
  Si  Si5  1  0.18451000  0.00282100  0.63776800  1
  Si  Si6  1  0.00110700  0.18694600  0.63163600  1
  Si  Si7  1  0.80935400  0.00304700  0.62726300  1
  Si  Si8  1  0.36962600  0.18440200  0.00688700  1
  Si  Si9  1  0.62918800  0.18759700  0.00517600  1
  Si  Si10  1  0.18673100  0.36960400  0.00106500  1
  Si  Si11  1  0.81615600  0.36949800  0.99998800  1
  Si  Si12  1  0.18896300  0.62436400  0.99699200  1
  Si  Si13  1  0.81321300  0.62564700  0.99595800  1
  Ag  Ag0  1  0.80806600  0.81474900  0.79748100  1
  Ag  Ag1  1  0.79484100  0.18532700  0.80330700  1
  Ag  Ag2  1  0.18571100  0.80594800  0.80327700  1
  O  O0  1  0.70177100  0.30092000  0.99534200  1
  O  O1  1  0.49948200  0.78682500  0.00578300  1
  O  O2  1  0.69808100  0.69369600  0.98958700  1
  O  O3  1  0.35740400  0.10612900  0.90279200  1
  O  O4  1  0.10484600  0.34938500  0.89732800  1
  O  O5  1  0.64393300  0.11870300  0.89542200  1
  O  O6  1  0.10805900  0.64517300  0.89086900  1
  O  O7  1  0.88423600  0.33656700  0.88934500  1
  O  O8  1  0.33967000  0.88724300  0.89243800  1
  O  O9  1  0.88387400  0.65391900  0.88738700  1
  O  O10  1  0.65662900  0.87622500  0.88661600  1
  O  O11  1  0.48799700  0.98992500  0.77665600  1
  O  O12  1  0.98931300  0.49357100  0.78479200  1
  O  O13  1  0.71728100  0.01349100  0.71869800  1
  O  O14  1  0.99707100  0.70175500  0.71953700  1
  O  O15  1  0.27448300  0.00788400  0.73513600  1
  O  O16  1  0.99769100  0.28779700  0.72022400  1
  O  O17  1  0.10498800  0.10965300  0.65710600  1
  O  O18  1  0.88790500  0.11520400  0.64973900  1
  O  O19  1  0.11259600  0.89182100  0.66036600  1
  O  O20  1  0.88249300  0.89311300  0.65247700  1
  O  O21  1  0.24369600  0.00431100  0.52628400  1
  O  O22  1  0.00467600  0.24046500  0.51584400  1
  O  O23  1  0.00269400  0.75154100  0.49970000  1
  O  O24  1  0.75474600  0.00426600  0.51226200  1
  O  O25  1  0.13392500  0.12125700  0.36241800  1
  O  O26  1  0.88105600  0.11843000  0.36098400  1
  O  O27  1  0.13018700  0.88876700  0.36150300  1
  O  O28  1  0.88016400  0.88711700  0.35718000  1
  O  O29  1  0.69217000  0.00269300  0.29423600  1
  O  O30  1  0.00562500  0.72631000  0.27682500  1
  O  O31  1  0.32132000  0.00110700  0.30408200  1
  O  O32  1  0.00379700  0.28968400  0.29511100  1
  O  O33  1  0.50328200  0.99313900  0.17506200  1
  O  O34  1  0.00645500  0.50541700  0.24327700  1
  O  O35  1  0.32217300  0.12118700  0.10844600  1
  O  O36  1  0.68256700  0.12087100  0.10281800  1
  O  O37  1  0.12411500  0.34240200  0.10978100  1
  O  O38  1  0.88896700  0.34350500  0.10418100  1
  O  O39  1  0.12442600  0.65915100  0.10223900  1
  O  O40  1  0.88576400  0.65695800  0.09923900  1
  O  O41  1  0.31888700  0.87830100  0.10200600  1
  O  O42  1  0.68558800  0.87900200  0.09585600  1
  O  O43  1  0.49947000  0.22189300  0.02111700  1
  O  O44  1  0.29585300  0.29446100  0.98856200  1
  O  O45  1  0.22510000  0.49748300  0.99818500  1
  O  O46  1  0.78423900  0.49693000  0.99143300  1
  O  O47  1  0.29811400  0.70087200  0.98078000  1
loop_
_geom_bond_atom_site_label_1
_geom_bond_atom_site_label_2
_geom_bond_distance
_geom_bond_site_symmetry_2
Na0 O33 2.355872 1_545
Na0 O31 2.371475 1_555
Na0 O29 2.394627 1_555
Na1 O22 2.161477 1_555
Na1 O32 2.185379 1_555
Na2 O23 2.147238 1_555
Na2 O30 2.178965 1_555
Na2 O34 2.372429 1_555
Na3 O25 2.205824 1_555
Na3 O35 2.271102 1_555
Na3 O37 2.432466 1_555
Na3 O32 2.787868 1_555
Na4 O26 2.224929 1_555
Na4 O36 2.316710 1_555
Na4 O38 2.497463 1_555
Na4 O32 2.744134 1_655
Na5 O27 2.213987 1_555
Na5 O41 2.327565 1_555
Na5 O39 2.444288 1_555
Na5 O30 2.574241 1_555
Na6 O28 2.221340 1_555
Na6 O42 2.355470 1_555
Na6 O40 2.437609 1_555
Na6 O30 2.585806 1_655
Al0 O11 1.719385 1_555
Al0 O13 1.736784 1_565
Al0 O5 1.776734 1_565
Al0 O10 1.788048 1_555
Al1 O23 1.719320 1_655
Al1 O19 1.780815 1_655
Al1 O20 1.787927 1_555
Al1 O14 1.800047 1_555
Al2 O27 1.728938 1_545
Al2 O25 1.743684 1_555
Al2 O31 1.770817 1_555
Al2 O21 1.776886 1_555
Al3 O26 1.708827 1_455
Al3 O25 1.713111 1_555
Al3 O32 1.781539 1_555
Al3 O22 1.852700 1_555
Al4 O28 1.721180 1_545
Al4 O26 1.734485 1_555
Al4 O29 1.742678 1_555
Al4 O24 1.769054 1_555
Al5 O28 1.716789 1_455
Al5 O27 1.719909 1_555
Al5 O30 1.778665 1_555
Al5 O23 1.792240 1_555
Al6 O33 1.688572 1_555
Al6 O31 1.740233 1_565
Al6 O35 1.800539 1_565
Al6 O41 1.815663 1_555
Al7 O33 1.692742 1_555
Al7 O29 1.720642 1_565
Al7 O36 1.792990 1_565
Al7 O42 1.798800 1_555
Al8 O32 1.727727 1_555
Al8 O34 1.761575 1_555
Al8 O37 1.787616 1_555
Al8 O38 1.797441 1_455
Al9 O30 1.708290 1_555
Al9 O34 1.766256 1_555
Al9 O39 1.780100 1_555
Al9 O40 1.783016 1_455
Ag0 O20 2.285070 1_555
Ag0 O10 2.295649 1_555
Ag0 O9 2.471615 1_555
Ag1 O5 2.340382 1_555
Ag1 O7 2.401793 1_555
Ag1 O18 2.416823 1_555
Ag1 O13 2.540082 1_555
Ag2 O19 2.278482 1_555
Ag2 O8 2.384231 1_555
Ag2 O6 2.478174 1_555
O0 Si11 1.625400 1_555
O0 Si9 1.659733 1_556
O1 Si0 1.638514 1_554
O1 Si1 1.654672 1_554
O2 Si13 1.631431 1_555
O2 Si1 1.658746 1_555
O3 Si2 1.623920 1_555
O3 Si8 1.631550 1_556
O4 Si3 1.613502 1_455
O4 Si10 1.653173 1_556
O5 Si9 1.634483 1_556
O6 Si4 1.659923 1_455
O6 Si12 1.676036 1_555
O7 Si3 1.662295 1_555
O7 Si11 1.684167 1_555
O8 Si0 1.664770 1_555
O8 Si2 1.685742 1_565
O9 Si4 1.657830 1_555
O9 Si13 1.672622 1_555
O10 Si1 1.642008 1_555
O11 Si2 1.594873 1_565
O12 Si3 1.645071 1_555
O12 Si4 1.648190 1_555
O13 Si7 1.625772 1_555
O14 Si4 1.600110 1_555
O15 Si2 1.605056 1_555
O15 Si5 1.636447 1_555
O16 Si3 1.621908 1_555
O16 Si6 1.667892 1_655
O17 Si6 1.611930 1_555
O17 Si5 1.652143 1_555
O18 Si6 1.654317 1_655
O18 Si7 1.699567 1_555
O19 Si5 1.654349 1_565
O20 Si7 1.653185 1_565
O21 Si5 1.595167 1_555
O22 Si6 1.618127 1_555
O24 Si7 1.592900 1_555
O35 Si8 1.625947 1_555
O36 Si9 1.621973 1_555
O37 Si10 1.622207 1_555
O38 Si11 1.613716 1_554
O39 Si12 1.611120 1_554
O40 Si13 1.610311 1_554
O41 Si0 1.621485 1_554
O42 Si1 1.623625 1_554
O43 Si9 1.644443 1_555
O43 Si8 1.648522 1_555
O44 Si10 1.625145 1_556
O44 Si8 1.643830 1_556
O45 Si12 1.626624 1_555
O45 Si10 1.646630 1_556
O46 Si11 1.624468 1_555
O46 Si13 1.627410 1_555
O47 Si12 1.643146 1_555
O47 Si0 1.659931 1_555
