# generated using pymatgen
data_BaBi2(MoO4)4
_symmetry_space_group_name_H-M   'P 1'
_cell_length_a   7.06314870
_cell_length_b   7.06314870
_cell_length_c   19.69881875
_cell_angle_alpha   89.46087252
_cell_angle_beta   89.46087252
_cell_angle_gamma   135.06047182
_symmetry_Int_Tables_number   1
_chemical_formula_structural   BaBi2(MoO4)4
_chemical_formula_sum   'Ba2 Bi4 Mo8 O32'
_cell_volume   693.95510878
_cell_formula_units_Z   2
loop_
 _symmetry_equiv_pos_site_id
 _symmetry_equiv_pos_as_xyz
  1  'x, y, z'
loop_
 _atom_site_type_symbol
 _atom_site_label
 _atom_site_symmetry_multiplicity
 _atom_site_fract_x
 _atom_site_fract_y
 _atom_site_fract_z
 _atom_site_occupancy
  Ba  Ba0  1  0.02995300  0.97004700  0.75000000  1
  Ba  Ba1  1  0.97004700  0.02995300  0.25000000  1
  Bi  Bi0  1  0.15165400  0.85277700  0.53768400  1
  Bi  Bi1  1  0.85277700  0.15165400  0.03768400  1
  Bi  Bi2  1  0.14722300  0.84834600  0.96231600  1
  Bi  Bi3  1  0.84834600  0.14722300  0.46231600  1
  Mo  Mo0  1  0.42262900  0.54029500  0.59209400  1
  Mo  Mo1  1  0.73456000  0.25636600  0.84839600  1
  Mo  Mo2  1  0.54029500  0.42262900  0.09209400  1
  Mo  Mo3  1  0.74363400  0.26544000  0.65160400  1
  Mo  Mo4  1  0.45970500  0.57737100  0.90790600  1
  Mo  Mo5  1  0.57737100  0.45970500  0.40790600  1
  Mo  Mo6  1  0.25636600  0.73456000  0.34839600  1
  Mo  Mo7  1  0.26544000  0.74363400  0.15160400  1
  O  O0  1  0.08584900  0.38316200  0.36239900  1
  O  O1  1  0.91415100  0.61683800  0.63760100  1
  O  O2  1  0.90197800  0.51618000  0.78730100  1
  O  O3  1  0.21226700  0.29603700  0.10695300  1
  O  O4  1  0.75238400  0.72161100  0.03604800  1
  O  O5  1  0.08341900  0.59127200  0.06999500  1
  O  O6  1  0.91658100  0.40872800  0.93000500  1
  O  O7  1  0.27838900  0.24761600  0.46395200  1
  O  O8  1  0.51618000  0.90197800  0.28730100  1
  O  O9  1  0.46494200  0.30006600  0.33026100  1
  O  O10  1  0.53505800  0.69993400  0.66973900  1
  O  O11  1  0.02197500  0.73865400  0.32210900  1
  O  O12  1  0.72161100  0.75238400  0.53604800  1
  O  O13  1  0.29603700  0.21226700  0.60695300  1
  O  O14  1  0.24761600  0.27838900  0.96395200  1
  O  O15  1  0.59127200  0.08341900  0.56999500  1
  O  O16  1  0.51976600  0.17387800  0.04918000  1
  O  O17  1  0.48382000  0.09802200  0.71269900  1
  O  O18  1  0.09802200  0.48382000  0.21269900  1
  O  O19  1  0.69993400  0.53505800  0.16973900  1
  O  O20  1  0.26134600  0.97802500  0.17789100  1
  O  O21  1  0.70396300  0.78773300  0.39304700  1
  O  O22  1  0.40872800  0.91658100  0.43000500  1
  O  O23  1  0.38316200  0.08584900  0.86239900  1
  O  O24  1  0.97802500  0.26134600  0.67789100  1
  O  O25  1  0.17387800  0.51976600  0.54918000  1
  O  O26  1  0.82612200  0.48023400  0.45082000  1
  O  O27  1  0.78773300  0.70396300  0.89304700  1
  O  O28  1  0.30006600  0.46494200  0.83026100  1
  O  O29  1  0.48023400  0.82612200  0.95082000  1
  O  O30  1  0.61683800  0.91415100  0.13760100  1
  O  O31  1  0.73865400  0.02197500  0.82210900  1
loop_
_geom_bond_atom_site_label_1
_geom_bond_atom_site_label_2
_geom_bond_distance
_geom_bond_site_symmetry_2
Ba0 O24 2.721882 1_465
Ba0 O31 2.721882 1_465
Ba0 O2 2.733967 1_455
Ba0 O17 2.733967 1_565
Ba0 O23 3.007401 1_565
Ba0 O1 3.007401 1_455
Ba0 O28 3.012936 1_565
Ba0 O10 3.012936 1_455
Ba0 O27 3.107578 1_455
Ba0 O13 3.107578 1_565
Ba1 O20 2.721882 1_645
Ba1 O11 2.721882 1_645
Ba1 O8 2.733967 1_545
Ba1 O18 2.733967 1_655
Ba1 O0 3.007401 1_655
Ba1 O30 3.007401 1_545
Ba1 O9 3.012936 1_655
Ba1 O19 3.012936 1_545
Ba1 O21 3.107578 1_545
Ba1 O3 3.107578 1_655
Bi0 O1 2.320275 1_455
Bi0 O15 2.365600 1_565
Bi0 O13 2.403049 1_565
Bi0 O25 2.474201 1_555
Bi0 O12 2.585165 1_455
Bi0 O26 2.594615 1_455
Bi0 O22 2.598154 1_555
Bi0 O7 2.655832 1_565
Bi1 O30 2.320275 1_545
Bi1 O5 2.365600 1_655
Bi1 O3 2.403049 1_655
Bi1 O16 2.474201 1_555
Bi1 O4 2.585165 1_545
Bi1 O29 2.594615 1_544
Bi1 O6 2.598154 1_554
Bi1 O14 2.655832 1_654
Bi2 O23 2.320275 1_565
Bi2 O6 2.365600 1_455
Bi2 O27 2.403049 1_455
Bi2 O29 2.474201 1_555
Bi2 O14 2.585165 1_565
Bi2 O16 2.594615 1_566
Bi2 O5 2.598154 1_556
Bi2 O4 2.655832 1_456
Bi3 O0 2.320275 1_655
Bi3 O22 2.365600 1_545
Bi3 O21 2.403049 1_545
Bi3 O26 2.474201 1_555
Bi3 O7 2.585165 1_655
Bi3 O25 2.594615 1_655
Bi3 O15 2.598154 1_555
Bi3 O12 2.655832 1_545
Mo0 O10 1.740428 1_555
Mo0 O13 1.817338 1_555
Mo0 O12 1.835473 1_555
Mo0 O25 1.868735 1_555
Mo1 O2 1.753250 1_555
Mo1 O31 1.758809 1_555
Mo1 O23 1.853590 1_555
Mo1 O6 1.872997 1_555
Mo2 O19 1.740428 1_555
Mo2 O3 1.817338 1_555
Mo2 O4 1.835473 1_555
Mo2 O16 1.868735 1_555
Mo3 O17 1.753250 1_555
Mo3 O24 1.758809 1_555
Mo3 O1 1.853590 1_555
Mo3 O15 1.872997 1_555
Mo4 O28 1.740428 1_555
Mo4 O27 1.817338 1_555
Mo4 O14 1.835473 1_555
Mo4 O29 1.868735 1_555
Mo5 O9 1.740428 1_555
Mo5 O21 1.817338 1_555
Mo5 O7 1.835473 1_555
Mo5 O26 1.868735 1_555
Mo6 O8 1.753250 1_555
Mo6 O11 1.758809 1_555
Mo6 O0 1.853590 1_555
Mo6 O22 1.872997 1_555
Mo7 O18 1.753250 1_555
Mo7 O20 1.758809 1_555
Mo7 O30 1.853590 1_555
Mo7 O5 1.872997 1_555
