# generated using pymatgen
data_Sm2ZnS4
_symmetry_space_group_name_H-M   'P 1'
_cell_length_a   7.36958963
_cell_length_b   7.36958963
_cell_length_c   7.36958963
_cell_angle_alpha   111.29417894
_cell_angle_beta   111.29417894
_cell_angle_gamma   105.88377464
_symmetry_Int_Tables_number   1
_chemical_formula_structural   Sm2ZnS4
_chemical_formula_sum   'Sm4 Zn2 S8'
_cell_volume   307.21296221
_cell_formula_units_Z   2
loop_
 _symmetry_equiv_pos_site_id
 _symmetry_equiv_pos_as_xyz
  1  'x, y, z'
loop_
 _atom_site_type_symbol
 _atom_site_label
 _atom_site_symmetry_multiplicity
 _atom_site_fract_x
 _atom_site_fract_y
 _atom_site_fract_z
 _atom_site_occupancy
  Sm  Sm0  1  0.87500000  0.47923900  0.10423900  1
  Sm  Sm1  1  0.22923900  0.12500000  0.60423900  1
  Sm  Sm2  1  0.37500000  0.77076100  0.89576100  1
  Sm  Sm3  1  0.52076100  0.62500000  0.39576100  1
  Zn  Zn0  1  0.75000000  0.25000000  0.50000000  1
  Zn  Zn1  1  0.00000000  0.00000000  0.00000000  1
  S  S0  1  0.64664600  0.99338900  0.78112500  1
  S  S1  1  0.10335400  0.38447900  0.84674300  1
  S  S2  1  0.74338900  0.89664600  0.28112500  1
  S  S3  1  0.00661100  0.78773600  0.65325700  1
  S  S4  1  0.21226400  0.86552100  0.21887500  1
  S  S5  1  0.13447900  0.35335400  0.34674300  1
  S  S6  1  0.53773600  0.25661100  0.15325700  1
  S  S7  1  0.61552100  0.46226400  0.71887500  1
loop_
_geom_bond_atom_site_label_1
_geom_bond_atom_site_label_2
_geom_bond_distance
_geom_bond_site_symmetry_2
S0 Zn1 2.491598 1_666
S0 Sm3 2.721104 1_555
S0 Sm2 2.801872 1_555
S0 Sm0 2.986811 1_566
S0 Sm1 3.426593 1_565
S1 Zn0 2.491598 1_455
S1 Sm1 2.721104 1_555
S1 Sm2 2.801872 1_555
S1 Sm0 2.986811 1_456
S1 Sm3 3.426593 1_556
S2 Zn0 2.491598 1_565
S2 Sm2 2.721104 1_554
S2 Sm3 2.801872 1_555
S2 Sm1 2.986811 1_665
S2 Sm0 3.426593 1_555
S3 Zn1 2.491598 1_566
S3 Sm2 2.721104 1_555
S3 Sm1 2.801872 1_565
S3 Sm3 2.986811 1_455
S3 Sm0 3.426593 1_455
S4 Zn1 2.491598 1_565
S4 Sm1 2.721104 1_565
S4 Sm0 2.801872 1_455
S4 Sm2 2.986811 1_554
S4 Sm3 3.426593 1_555
S5 Zn1 2.491598 1_555
S5 Sm0 2.721104 1_455
S5 Sm3 2.801872 1_555
S5 Sm1 2.986811 1_555
S5 Sm2 3.426593 1_555
S6 Zn0 2.491598 1_555
S6 Sm3 2.721104 1_555
S6 Sm0 2.801872 1_555
S6 Sm2 2.986811 1_544
S6 Sm1 3.426593 1_554
S7 Zn0 2.491598 1_555
S7 Sm0 2.721104 1_556
S7 Sm1 2.801872 1_555
S7 Sm3 2.986811 1_555
S7 Sm2 3.426593 1_555
