# generated using pymatgen
data_K3H5Pd
_symmetry_space_group_name_H-M   'P 1'
_cell_length_a   7.40633100
_cell_length_b   7.40633100
_cell_length_c   5.88253600
_cell_angle_alpha   90.00000000
_cell_angle_beta   90.00000000
_cell_angle_gamma   90.00000000
_symmetry_Int_Tables_number   1
_chemical_formula_structural   K3H5Pd
_chemical_formula_sum   'K6 H10 Pd2'
_cell_volume   322.67909371
_cell_formula_units_Z   2
loop_
 _symmetry_equiv_pos_site_id
 _symmetry_equiv_pos_as_xyz
  1  'x, y, z'
loop_
 _atom_site_type_symbol
 _atom_site_label
 _atom_site_symmetry_multiplicity
 _atom_site_fract_x
 _atom_site_fract_y
 _atom_site_fract_z
 _atom_site_occupancy
  K  K0  1  0.50000000  0.50000000  0.00000000  1
  K  K1  1  0.00000000  0.00000000  0.00000000  1
  K  K2  1  0.18173800  0.68173800  0.50000000  1
  K  K3  1  0.81826200  0.31826200  0.50000000  1
  K  K4  1  0.68173800  0.81826200  0.50000000  1
  K  K5  1  0.31826200  0.18173800  0.50000000  1
  H  H0  1  0.50000000  0.50000000  0.50000000  1
  H  H1  1  0.00000000  0.00000000  0.50000000  1
  H  H2  1  0.61409700  0.11409700  0.80313700  1
  H  H3  1  0.38590300  0.88590300  0.80313700  1
  H  H4  1  0.11409700  0.38590300  0.80313700  1
  H  H5  1  0.88590300  0.61409700  0.80313700  1
  H  H6  1  0.38590300  0.88590300  0.19686300  1
  H  H7  1  0.61409700  0.11409700  0.19686300  1
  H  H8  1  0.88590300  0.61409700  0.19686300  1
  H  H9  1  0.11409700  0.38590300  0.19686300  1
  Pd  Pd0  1  0.50000000  0.00000000  0.00000000  1
  Pd  Pd1  1  0.00000000  0.50000000  0.00000000  1
loop_
_geom_bond_atom_site_label_1
_geom_bond_atom_site_label_2
_geom_bond_distance
_geom_bond_site_symmetry_2
H0 K3 2.714392 1_555
H0 K4 2.714392 1_555
H0 K2 2.714392 1_555
H0 K5 2.714392 1_555
H0 K0 2.941268 1_555
H0 K0 2.941268 1_556
H1 K5 2.714392 1_555
H1 K2 2.714392 1_545
H1 K3 2.714392 1_455
H1 K4 2.714392 1_445
H1 K1 2.941268 1_556
H1 K1 2.941268 1_555
H2 Pd0 1.664114 1_556
H2 K3 2.784390 1_555
H2 K4 2.869065 1_545
H2 K5 2.869065 1_555
H3 Pd0 1.664114 1_566
H3 K2 2.784390 1_555
H3 K5 2.869065 1_565
H3 K4 2.869065 1_555
H4 Pd1 1.664114 1_556
H4 K5 2.784390 1_555
H4 K2 2.869065 1_555
H4 K3 2.869065 1_455
H5 Pd1 1.664114 1_656
H5 K4 2.784390 1_555
H5 K2 2.869065 1_655
H5 K3 2.869065 1_555
H6 Pd0 1.664114 1_565
H6 K2 2.784390 1_555
H6 K5 2.869065 1_565
H6 K4 2.869065 1_555
H7 Pd0 1.664114 1_555
H7 K3 2.784390 1_555
H7 K4 2.869065 1_545
H7 K5 2.869065 1_555
H8 Pd1 1.664114 1_655
H8 K4 2.784390 1_555
H8 K2 2.869065 1_655
H8 K3 2.869065 1_555
H9 Pd1 1.664114 1_555
H9 K5 2.784390 1_555
H9 K2 2.869065 1_555
H9 K3 2.869065 1_455
