# generated using pymatgen
data_SrCeN2
_symmetry_space_group_name_H-M   'P 1'
_cell_length_a   7.37683351
_cell_length_b   9.73787144
_cell_length_c   6.34652196
_cell_angle_alpha   29.23278064
_cell_angle_beta   54.51009407
_cell_angle_gamma   40.74648869
_symmetry_Int_Tables_number   1
_chemical_formula_structural   SrCeN2
_chemical_formula_sum   'Sr2 Ce2 N4'
_cell_volume   140.60452161
_cell_formula_units_Z   2
loop_
 _symmetry_equiv_pos_site_id
 _symmetry_equiv_pos_as_xyz
  1  'x, y, z'
loop_
 _atom_site_type_symbol
 _atom_site_label
 _atom_site_symmetry_multiplicity
 _atom_site_fract_x
 _atom_site_fract_y
 _atom_site_fract_z
 _atom_site_occupancy
  Sr  Sr0  1  0.00200100  0.99683200  0.00232000  1
  Sr  Sr1  1  0.75035900  0.49885500  0.00078900  1
  Ce  Ce0  1  0.25462400  0.49421700  0.00444300  1
  Ce  Ce1  1  0.49727200  0.99865400  0.00028900  1
  N  N0  1  0.28101800  0.00462600  0.43371200  1
  N  N1  1  0.04282100  0.48909500  0.44846400  1
  N  N2  1  0.71469700  0.00544200  0.55374600  1
  N  N3  1  0.47257500  0.50977800  0.54909500  1
loop_
_geom_bond_atom_site_label_1
_geom_bond_atom_site_label_2
_geom_bond_distance
_geom_bond_site_symmetry_2
Ce0 N1 2.268305 1_555
Ce0 N3 2.273607 1_554
Ce0 N2 2.574566 1_555
Ce0 N0 2.594300 1_555
Ce0 N0 2.662426 1_564
Ce0 N2 2.675980 1_464
Ce1 N0 2.271173 1_565
Ce1 N2 2.272507 1_564
Ce1 N3 2.542895 1_555
Ce1 N1 2.548362 1_564
Ce1 N1 2.703521 1_655
Ce1 N3 2.713521 1_564
N0 Sr1 2.625173 1_546
N0 Sr1 2.626633 1_455
N0 Sr0 2.898127 1_546
N1 Sr0 2.618137 1_555
N1 Sr0 2.641088 1_546
N1 Sr1 2.905293 1_456
N2 Sr1 2.624036 1_555
N2 Sr1 2.631974 1_546
N2 Sr0 2.894310 1_645
N3 Sr0 2.624133 1_646
N3 Sr0 2.627261 1_555
N3 Sr1 2.890628 1_555
