# generated using pymatgen
data_Cs3B6H12S4Br
_symmetry_space_group_name_H-M   'P 1'
_cell_length_a   10.54092763
_cell_length_b   10.54092763
_cell_length_c   8.82909300
_cell_angle_alpha   90.00000000
_cell_angle_beta   90.00000000
_cell_angle_gamma   119.99999768
_symmetry_Int_Tables_number   1
_chemical_formula_structural   Cs3B6H12S4Br
_chemical_formula_sum   'Cs6 B12 H24 S8 Br2'
_cell_volume   849.58022779
_cell_formula_units_Z   2
loop_
 _symmetry_equiv_pos_site_id
 _symmetry_equiv_pos_as_xyz
  1  'x, y, z'
loop_
 _atom_site_type_symbol
 _atom_site_label
 _atom_site_symmetry_multiplicity
 _atom_site_fract_x
 _atom_site_fract_y
 _atom_site_fract_z
 _atom_site_occupancy
  Cs  Cs0  1  0.68331200  0.84165600  0.74948200  1
  Cs  Cs1  1  0.15834400  0.84165600  0.74948200  1
  Cs  Cs2  1  0.15834400  0.31668800  0.74948200  1
  Cs  Cs3  1  0.31668800  0.15834400  0.24948200  1
  Cs  Cs4  1  0.84165600  0.15834400  0.24948200  1
  Cs  Cs5  1  0.84165600  0.68331200  0.24948200  1
  B  B0  1  0.76489400  0.23510600  0.62133800  1
  B  B1  1  0.76489400  0.52978900  0.62133800  1
  B  B2  1  0.47021100  0.23510600  0.62133800  1
  B  B3  1  0.23510600  0.76489400  0.12133800  1
  B  B4  1  0.23510600  0.47021100  0.12133800  1
  B  B5  1  0.52978900  0.76489400  0.12133800  1
  B  B6  1  0.56970500  0.43029500  0.91213800  1
  B  B7  1  0.56970500  0.13941100  0.91213800  1
  B  B8  1  0.86058900  0.43029500  0.91213800  1
  B  B9  1  0.43029500  0.56970500  0.41213800  1
  B  B10  1  0.43029500  0.86058900  0.41213800  1
  B  B11  1  0.13941100  0.56970500  0.41213800  1
  H  H0  1  0.69829700  0.10913200  0.57756000  1
  H  H1  1  0.89086800  0.58916500  0.57756000  1
  H  H2  1  0.41083500  0.30170300  0.57756000  1
  H  H3  1  0.89086800  0.30170300  0.57756000  1
  H  H4  1  0.41083500  0.10913200  0.57756000  1
  H  H5  1  0.69829700  0.58916500  0.57756000  1
  H  H6  1  0.30170300  0.89086800  0.07756000  1
  H  H7  1  0.10913200  0.41083500  0.07756000  1
  H  H8  1  0.58916500  0.69829700  0.07756000  1
  H  H9  1  0.10913200  0.69829700  0.07756000  1
  H  H10  1  0.58916500  0.89086800  0.07756000  1
  H  H11  1  0.30170300  0.41083500  0.07756000  1
  H  H12  1  0.50572900  0.49427100  0.87230100  1
  H  H13  1  0.50572900  0.01145900  0.87230100  1
  H  H14  1  0.98854100  0.49427100  0.87230100  1
  H  H15  1  0.49427100  0.50572900  0.37230100  1
  H  H16  1  0.49427100  0.98854100  0.37230100  1
  H  H17  1  0.01145900  0.50572900  0.37230100  1
  H  H18  1  0.57580700  0.42419300  0.04954600  1
  H  H19  1  0.57580700  0.15161400  0.04954600  1
  H  H20  1  0.84838600  0.42419300  0.04954600  1
  H  H21  1  0.42419300  0.57580700  0.54954600  1
  H  H22  1  0.42419300  0.84838600  0.54954600  1
  H  H23  1  0.15161400  0.57580700  0.54954600  1
  S  S0  1  0.76872200  0.23127800  0.83993600  1
  S  S1  1  0.76872200  0.53744400  0.83993600  1
  S  S2  1  0.46255600  0.23127800  0.83993600  1
  S  S3  1  0.23127800  0.76872200  0.33993600  1
  S  S4  1  0.23127800  0.46255600  0.33993600  1
  S  S5  1  0.53744400  0.76872200  0.33993600  1
  S  S6  1  0.66666700  0.33333300  0.53989200  1
  S  S7  1  0.33333300  0.66666700  0.03989200  1
  Br  Br0  1  0.00000000  0.00000000  0.50209900  1
  Br  Br1  1  0.00000000  0.00000000  0.00209900  1
loop_
_geom_bond_atom_site_label_1
_geom_bond_atom_site_label_2
_geom_bond_distance
_geom_bond_site_symmetry_2
Cs0 H5 3.135752 1_555
Cs0 H0 3.135752 1_565
Cs0 H10 3.187352 1_556
Cs0 H8 3.187352 1_556
Cs0 H22 3.282562 1_555
Cs0 H21 3.282562 1_555
Cs0 H12 3.351705 1_555
Cs0 H13 3.351714 1_565
Cs1 H1 3.135752 1_455
Cs1 H4 3.135752 1_565
Cs1 H6 3.187352 1_556
Cs1 H9 3.187352 1_556
Cs1 H23 3.282562 1_555
Cs1 H22 3.282562 1_555
Cs1 H13 3.351705 1_565
Cs1 H14 3.351705 1_455
Cs2 H2 3.135752 1_555
Cs2 H3 3.135752 1_455
Cs2 H7 3.187352 1_556
Cs2 H11 3.187352 1_556
Cs2 H23 3.282562 1_555
Cs2 H21 3.282562 1_555
Cs2 H12 3.351705 1_555
Cs2 H14 3.351714 1_455
Cs3 H11 3.135752 1_555
Cs3 H6 3.135752 1_545
Cs3 H4 3.187352 1_555
Cs3 H2 3.187352 1_555
Cs3 H19 3.282562 1_555
Cs3 H18 3.282562 1_555
Cs3 H15 3.351705 1_555
Cs3 H16 3.351714 1_545
Cs4 H10 3.135752 1_545
Cs4 H7 3.135752 1_655
Cs4 H3 3.187352 1_555
Cs4 H0 3.187352 1_555
Cs4 H20 3.282562 1_555
Cs4 H19 3.282562 1_555
Cs4 H16 3.351705 1_545
Cs4 H17 3.351705 1_655
Cs5 H8 3.135752 1_555
Cs5 H9 3.135752 1_655
Cs5 H1 3.187352 1_555
Cs5 H5 3.187352 1_555
Cs5 H20 3.282562 1_555
Cs5 H18 3.282562 1_555
Cs5 H15 3.351705 1_555
Cs5 H17 3.351714 1_655
B0 H0 1.213796 1_555
B0 H3 1.213796 1_555
B0 S0 1.931287 1_555
B0 S6 1.932170 1_555
B1 H5 1.213787 1_555
B1 H1 1.213796 1_555
B1 S1 1.931287 1_555
B1 S6 1.932187 1_555
B2 H2 1.213787 1_555
B2 H4 1.213796 1_555
B2 S2 1.931287 1_555
B2 S6 1.932187 1_555
B3 H9 1.213796 1_555
B3 H6 1.213796 1_555
B3 S3 1.931287 1_555
B3 S7 1.932170 1_555
B4 H11 1.213787 1_555
B4 H7 1.213796 1_555
B4 S4 1.931287 1_555
B4 S7 1.932187 1_555
B5 H8 1.213787 1_555
B5 H10 1.213796 1_555
B5 S5 1.931287 1_555
B5 S7 1.932187 1_555
B6 H18 1.218293 1_556
B6 H12 1.219844 1_555
B6 S1 1.927048 1_555
B6 S2 1.927048 1_555
B7 H19 1.218292 1_556
B7 H13 1.219844 1_555
B7 S2 1.927039 1_555
B7 S0 1.927048 1_555
B8 H20 1.218292 1_556
B8 H14 1.219844 1_555
B8 S1 1.927039 1_555
B8 S0 1.927048 1_555
B9 H21 1.218293 1_555
B9 H15 1.219844 1_555
B9 S4 1.927048 1_555
B9 S5 1.927048 1_555
B10 H22 1.218292 1_555
B10 H16 1.219844 1_555
B10 S5 1.927039 1_555
B10 S3 1.927048 1_555
B11 H23 1.218292 1_555
B11 H17 1.219844 1_555
B11 S4 1.927039 1_555
B11 S3 1.927048 1_555
Br0 Cs1 3.623286 1_545
Br0 Cs0 3.623286 1_445
Br0 Cs2 3.623286 1_555
Br0 Cs4 3.651329 1_455
Br0 Cs5 3.651329 1_445
Br0 Cs3 3.651329 1_555
Br1 Cs4 3.623286 1_455
Br1 Cs5 3.623286 1_445
Br1 Cs3 3.623286 1_555
Br1 Cs1 3.651329 1_544
Br1 Cs0 3.651329 1_444
Br1 Cs2 3.651329 1_554
