# generated using pymatgen
data_Pu2Pt
_symmetry_space_group_name_H-M   'P 1'
_cell_length_a   4.63892801
_cell_length_b   7.00238146
_cell_length_c   8.97401026
_cell_angle_alpha   88.95318804
_cell_angle_beta   89.99273471
_cell_angle_gamma   90.00343278
_symmetry_Int_Tables_number   1
_chemical_formula_structural   Pu2Pt
_chemical_formula_sum   'Pu8 Pt4'
_cell_volume   291.45899787
_cell_formula_units_Z   4
loop_
 _symmetry_equiv_pos_site_id
 _symmetry_equiv_pos_as_xyz
  1  'x, y, z'
loop_
 _atom_site_type_symbol
 _atom_site_label
 _atom_site_symmetry_multiplicity
 _atom_site_fract_x
 _atom_site_fract_y
 _atom_site_fract_z
 _atom_site_occupancy
  Pu  Pu0  1  0.74993000  0.65091800  0.58113500  1
  Pu  Pu1  1  0.24996700  0.84324300  0.08077600  1
  Pu  Pu2  1  0.24993400  0.98146200  0.68170100  1
  Pu  Pu3  1  0.74994700  0.01713700  0.32206200  1
  Pu  Pu4  1  0.25014300  0.48391000  0.81672800  1
  Pu  Pu5  1  0.75002400  0.51800800  0.17820300  1
  Pu  Pu6  1  0.75008300  0.15858200  0.91919000  1
  Pu  Pu7  1  0.24997700  0.34558200  0.41817100  1
  Pt  Pt0  1  0.74987300  0.23393000  0.59925700  1
  Pt  Pt1  1  0.75013000  0.74080300  0.89919100  1
  Pt  Pt2  1  0.24999800  0.76319300  0.40214200  1
  Pt  Pt3  1  0.24999600  0.26323300  0.10144600  1
loop_
_geom_bond_atom_site_label_1
_geom_bond_atom_site_label_2
_geom_bond_distance
_geom_bond_site_symmetry_2
Pu0 Pu4 3.334808 1_555
Pu0 Pu4 3.336652 1_655
Pu0 Pu2 3.409990 1_655
Pu0 Pu2 3.409998 1_555
Pu0 Pu3 3.429810 1_565
Pu0 Pu7 3.493355 1_555
Pu0 Pu7 3.493569 1_655
Pu0 Pu5 3.750198 1_555
Pu1 Pu5 3.354973 1_455
Pu1 Pu5 3.355681 1_555
Pu1 Pu3 3.412772 1_465
Pu1 Pu3 3.412919 1_565
Pu1 Pu4 3.487680 1_554
Pu1 Pu6 3.498631 1_464
Pu1 Pu6 3.498925 1_564
Pu1 Pu2 3.692674 1_554
Pu2 Pu6 3.398936 1_465
Pu2 Pu6 3.400147 1_565
Pu2 Pu7 3.445800 1_565
Pu2 Pu4 3.667784 1_555
Pu2 Pu4 3.742023 1_565
Pu3 Pu7 3.388994 1_555
Pu3 Pu7 3.389146 1_655
Pu3 Pu6 3.731100 1_554
Pu4 Pu6 3.367245 1_555
Pu4 Pu6 3.367280 1_455
Pu4 Pu7 3.722537 1_555
Pu5 Pu7 3.373362 1_555
Pu5 Pu7 3.373537 1_655
Pu5 Pu6 3.457021 1_554
Pt0 Pu6 2.909664 1_555
Pt0 Pu0 2.921466 1_555
Pt0 Pu7 2.929937 1_555
Pt0 Pu7 2.930300 1_655
Pt0 Pu3 2.937757 1_555
Pt0 Pu2 3.000443 1_545
Pt0 Pu2 3.001189 1_645
Pt0 Pu4 3.517250 1_555
Pt0 Pu4 3.519090 1_655
Pt1 Pu5 2.925828 1_556
Pt1 Pu1 2.930844 1_656
Pt1 Pu1 2.931782 1_556
Pt1 Pu0 2.934020 1_555
Pt1 Pu6 2.934219 1_565
Pt1 Pu4 3.035087 1_555
Pt1 Pu4 3.035200 1_655
Pt1 Pu2 3.450089 1_655
Pt1 Pu2 3.451779 1_555
Pt2 Pu0 2.920911 1_555
Pt2 Pu0 2.921014 1_455
Pt2 Pu7 2.925181 1_555
Pt2 Pu1 2.927842 1_555
Pt2 Pu2 2.961422 1_555
Pt2 Pu3 3.001614 1_565
Pt2 Pu3 3.002285 1_465
Pt2 Pu5 3.534420 1_555
Pt2 Pu5 3.534461 1_455
Pt3 Pu7 2.910503 1_555
Pt3 Pu6 2.938482 1_454
Pt3 Pu6 2.938861 1_554
Pt3 Pu1 2.950154 1_545
Pt3 Pu4 2.961743 1_554
Pt3 Pu5 3.013560 1_455
Pt3 Pu5 3.013730 1_555
Pt3 Pu3 3.484814 1_455
Pt3 Pu3 3.484983 1_555
