# generated using pymatgen
data_Al2Hg5Se8
_symmetry_space_group_name_H-M   'P 1'
_cell_length_a   8.62081149
_cell_length_b   8.40451700
_cell_length_c   34.13754332
_cell_angle_alpha   60.25969830
_cell_angle_beta   58.42902351
_cell_angle_gamma   59.44583823
_symmetry_Int_Tables_number   1
_chemical_formula_structural   Al2Hg5Se8
_chemical_formula_sum   'Al8 Hg20 Se32'
_cell_volume   1723.30287898
_cell_formula_units_Z   4
loop_
 _symmetry_equiv_pos_site_id
 _symmetry_equiv_pos_as_xyz
  1  'x, y, z'
loop_
 _atom_site_type_symbol
 _atom_site_label
 _atom_site_symmetry_multiplicity
 _atom_site_fract_x
 _atom_site_fract_y
 _atom_site_fract_z
 _atom_site_occupancy
  Al  Al0  1  0.11776922  0.63122322  0.15952629  1
  Al  Al1  1  0.63567312  0.12856150  0.02619580  1
  Al  Al2  1  0.12466081  0.63147926  0.40576145  1
  Al  Al3  1  0.62920153  0.12072943  0.28033050  1
  Al  Al4  1  0.11062035  0.12628556  0.65553164  1
  Al  Al5  1  0.60978612  0.12185119  0.53328574  1
  Al  Al6  1  0.12172258  0.13211572  0.90139326  1
  Al  Al7  1  0.61571934  0.13050374  0.77892617  1
  Hg  Hg0  1  0.10703014  0.10979853  0.15977439  1
  Hg  Hg1  1  0.10265699  0.64109700  0.02745393  1
  Hg  Hg2  1  0.64711640  0.10550630  0.16066870  1
  Hg  Hg3  1  0.09738143  0.10383981  0.41447119  1
  Hg  Hg4  1  0.10335688  0.64423157  0.27638844  1
  Hg  Hg5  1  0.65070000  0.64357942  0.02892884  1
  Hg  Hg6  1  0.62608264  0.62485425  0.15610665  1
  Hg  Hg7  1  0.64747522  0.10450920  0.41092060  1
  Hg  Hg8  1  0.10243625  0.63213298  0.52608426  1
  Hg  Hg9  1  0.64730069  0.64432389  0.27613458  1
  Hg  Hg10  1  0.10665638  0.64711331  0.66491070  1
  Hg  Hg11  1  0.62554005  0.62283999  0.40670969  1
  Hg  Hg12  1  0.64988089  0.12490612  0.66213219  1
  Hg  Hg13  1  0.10449132  0.62844941  0.77622181  1
  Hg  Hg14  1  0.66473908  0.64507324  0.52309295  1
  Hg  Hg15  1  0.09913920  0.64387447  0.91949916  1
  Hg  Hg16  1  0.62686770  0.60176251  0.65665195  1
  Hg  Hg17  1  0.65107467  0.12495606  0.91234562  1
  Hg  Hg18  1  0.66687450  0.64476864  0.77598767  1
  Hg  Hg19  1  0.62726095  0.60167328  0.90678763  1
  Se  Se0  1  0.99290993  0.03479003  0.99115777  1
  Se  Se1  1  0.01507685  0.43033852  0.00991188  1
  Se  Se2  1  0.03019452  0.97764883  0.11777906  1
  Se  Se3  1  0.97555681  0.02875674  0.25546914  1
  Se  Se4  1  0.01725887  0.51088110  0.12646654  1
  Se  Se5  1  0.47289968  0.02397948  0.00757346  1
  Se  Se6  1  0.51765605  0.01819753  0.11564369  1
  Se  Se7  1  0.50449417  0.48486091  0.00417458  1
  Se  Se8  1  0.02987157  0.98069163  0.36798649  1
  Se  Se9  1  0.02578228  0.46743031  0.24556794  1
  Se  Se10  1  0.47158191  0.50473898  0.12842076  1
  Se  Se11  1  0.95730595  0.01624635  0.51099778  1
  Se  Se12  1  0.01731836  0.50435697  0.37582622  1
  Se  Se13  1  0.47478370  0.02702367  0.25661194  1
  Se  Se14  1  0.50180205  0.01655567  0.37004382  1
  Se  Se15  1  0.50325947  0.48041087  0.25385145  1
  Se  Se16  1  0.03734928  0.45986446  0.49109660  1
  Se  Se17  1  0.03043548  0.01954409  0.61622931  1
  Se  Se18  1  0.48039998  0.50506493  0.37544557  1
  Se  Se19  1  0.97569472  0.02509092  0.74592792  1
  Se  Se20  1  0.01493531  0.47944463  0.62588262  1
  Se  Se21  1  0.46953574  0.02325495  0.50681834  1
  Se  Se22  1  0.50001850  0.48033769  0.50448620  1
  Se  Se23  1  0.47339534  0.01562555  0.62493058  1
  Se  Se24  1  0.02649360  0.42374416  0.75414491  1
  Se  Se25  1  0.03205549  0.01450174  0.86647297  1
  Se  Se26  1  0.49889796  0.50120481  0.62020704  1
  Se  Se27  1  0.01583050  0.48692440  0.87569822  1
  Se  Se28  1  0.46884027  0.02022303  0.75716129  1
  Se  Se29  1  0.48728747  0.01854827  0.87052253  1
  Se  Se30  1  0.50184327  0.48541448  0.75419789  1
  Se  Se31  1  0.48870042  0.50094471  0.87324870  1
loop_
_geom_bond_atom_site_label_1
_geom_bond_atom_site_label_2
_geom_bond_distance
_geom_bond_site_symmetry_2
Al0 Se9 2.410518 1_555
Al0 Se2 2.419322 1_555
Al0 Se10 2.448049 1_555
Al0 Se4 2.468787 1_555
Al1 Se5 2.426575 1_555
Al1 Se7 2.454572 1_555
Al1 Se6 2.473036 1_555
Al1 Se0 2.479235 1_554
Al2 Se16 2.402565 1_555
Al2 Se8 2.419642 1_555
Al2 Se18 2.461648 1_555
Al2 Se12 2.474015 1_555
Al3 Se13 2.423875 1_555
Al3 Se3 2.425693 1_555
Al3 Se15 2.472607 1_555
Al3 Se14 2.479422 1_555
Al4 Se17 2.424578 1_555
Al4 Se20 2.432916 1_555
Al4 Se19 2.498495 1_455
Al4 Se23 2.514508 1_555
Al5 Se21 2.422862 1_555
Al5 Se11 2.433475 1_555
Al5 Se22 2.465007 1_555
Al5 Se23 2.532110 1_555
Al6 Se25 2.430351 1_555
Al6 Se27 2.443505 1_555
Al6 Se0 2.483124 1_455
Al6 Se29 2.532874 1_555
Al7 Se28 2.424042 1_555
Al7 Se30 2.442562 1_555
Al7 Se19 2.493718 1_555
Al7 Se29 2.530529 1_555
Hg0 Se2 2.655111 1_545
Hg0 Se3 2.668463 1_455
Hg0 Se4 2.778694 1_555
Hg0 Se6 2.861659 1_555
Hg1 Se1 2.636625 1_555
Hg1 Se0 2.712140 1_464
Hg1 Se4 2.776313 1_555
Hg1 Se7 2.807861 1_555
Hg2 Se2 2.663549 1_645
Hg2 Se13 2.669717 1_555
Hg2 Se10 2.770838 1_555
Hg2 Se6 2.809694 1_555
Hg3 Se8 2.671532 1_545
Hg3 Se11 2.681203 1_455
Hg3 Se12 2.780863 1_555
Hg3 Se14 2.821405 1_555
Hg4 Se9 2.657144 1_555
Hg4 Se3 2.661219 1_465
Hg4 Se12 2.783176 1_555
Hg4 Se15 2.796512 1_555
Hg5 Se1 2.606908 1_655
Hg5 Se5 2.641510 1_565
Hg5 Se10 2.773061 1_555
Hg5 Se7 2.832892 1_555
Hg6 Se15 2.705055 1_555
Hg6 Se10 2.705218 1_555
Hg6 Se6 2.718491 1_565
Hg6 Se4 2.723593 1_655
Hg7 Se8 2.657926 1_645
Hg7 Se21 2.669321 1_555
Hg7 Se18 2.779581 1_555
Hg7 Se14 2.805876 1_555
Hg8 Se16 2.661019 1_555
Hg8 Se11 2.677888 1_465
Hg8 Se22 2.785714 1_555
Hg8 Se20 2.788944 1_555
Hg9 Se9 2.643353 1_655
Hg9 Se13 2.654989 1_565
Hg9 Se18 2.757060 1_555
Hg9 Se15 2.790416 1_555
Hg10 Se24 2.592748 1_555
Hg10 Se17 2.623452 1_565
Hg10 Se26 2.739380 1_555
Hg10 Se20 2.912862 1_555
Hg11 Se22 2.704808 1_555
Hg11 Se14 2.711850 1_565
Hg11 Se18 2.718473 1_555
Hg11 Se12 2.721012 1_655
Hg12 Se28 2.645110 1_555
Hg12 Se26 2.649387 1_555
Hg12 Se17 2.653790 1_655
Hg12 Se23 3.061431 1_555
Hg13 Se24 2.640696 1_555
Hg13 Se19 2.726512 1_465
Hg13 Se27 2.780286 1_555
Hg13 Se30 2.785260 1_555
Hg14 Se16 2.619854 1_655
Hg14 Se21 2.651773 1_565
Hg14 Se26 2.704493 1_555
Hg14 Se22 2.855299 1_555
Hg15 Se1 2.599395 1_556
Hg15 Se25 2.642811 1_565
Hg15 Se31 2.728040 1_555
Hg15 Se27 2.921661 1_555
Hg16 Se26 2.628220 1_555
Hg16 Se20 2.692088 1_655
Hg16 Se30 2.699885 1_555
Hg16 Se23 2.847127 1_565
Hg17 Se31 2.645943 1_555
Hg17 Se5 2.647099 1_556
Hg17 Se25 2.656691 1_655
Hg17 Se29 3.081142 1_555
Hg18 Se24 2.591617 1_655
Hg18 Se28 2.635258 1_565
Hg18 Se31 2.722161 1_555
Hg18 Se30 2.899119 1_555
Hg19 Se31 2.622261 1_555
Hg19 Se7 2.696379 1_556
Hg19 Se27 2.699230 1_655
Hg19 Se29 2.868208 1_565
