# generated using pymatgen
data_V3H5O8
_symmetry_space_group_name_H-M   'P 1'
_cell_length_a   9.70260387
_cell_length_b   9.70260387
_cell_length_c   4.71699003
_cell_angle_alpha   75.05233984
_cell_angle_beta   75.05233984
_cell_angle_gamma   17.99447266
_symmetry_Int_Tables_number   1
_chemical_formula_structural   V3H5O8
_chemical_formula_sum   'V3 H5 O8'
_cell_volume   132.42088811
_cell_formula_units_Z   1
loop_
 _symmetry_equiv_pos_site_id
 _symmetry_equiv_pos_as_xyz
  1  'x, y, z'
loop_
 _atom_site_type_symbol
 _atom_site_label
 _atom_site_symmetry_multiplicity
 _atom_site_fract_x
 _atom_site_fract_y
 _atom_site_fract_z
 _atom_site_occupancy
  V  V0  1  0.00075954  0.00075954  0.48355288  1
  V  V1  1  0.82003828  0.82003828  0.38390263  1
  V  V2  1  0.17865294  0.17865294  0.61430064  1
  H  H0  1  0.58451840  0.58451840  0.09218815  1
  H  H1  1  0.49537078  0.49537078  0.95721702  1
  H  H2  1  0.41108128  0.41108128  0.91377869  1
  H  H3  1  0.31228516  0.31228516  0.92584748  1
  H  H4  1  0.68873843  0.68873843  0.06547410  1
  O  O0  1  0.53072750  0.53072750  0.20332003  1
  O  O1  1  0.46786745  0.46786745  0.79613400  1
  O  O2  1  0.90715180  0.90715180  0.42732817  1
  O  O3  1  0.09140814  0.09140814  0.57539809  1
  O  O4  1  0.34059836  0.34059836  0.07875481  1
  O  O5  1  0.66137997  0.66137997  0.91024358  1
  O  O6  1  0.71795871  0.71795871  0.35081958  1
  O  O7  1  0.28206028  0.28206028  0.64400817  1
loop_
_geom_bond_atom_site_label_1
_geom_bond_atom_site_label_2
_geom_bond_distance
_geom_bond_site_symmetry_2
H0 O0 1.027345 1_555
H0 O5 1.498806 1_554
H1 O1 1.031705 1_555
H1 O0 1.489200 1_556
H2 O1 1.084933 1_555
H2 O4 1.371662 1_556
H3 O4 1.009521 1_556
H3 O7 1.582792 1_555
H4 O5 1.005804 1_554
H4 O6 1.587139 1_555
O0 V0 1.995755 1_655
O0 V0 1.995755 1_565
O1 V0 2.094828 1_565
O1 V0 2.094828 1_655
O2 V1 1.734457 1_555
O2 V0 1.880891 1_665
O3 V2 1.729191 1_555
O3 V0 1.897215 1_555
O4 V1 2.057481 1_545
O4 V1 2.057481 1_455
O5 V2 2.029607 1_565
O5 V2 2.029607 1_655
O6 V2 1.981297 1_565
O6 V2 1.981297 1_655
O6 V1 2.002928 1_555
O7 V1 1.967509 1_545
O7 V1 1.967509 1_455
O7 V2 2.023073 1_555
