# generated using pymatgen
data_BiPtPb3
_symmetry_space_group_name_H-M   'P 1'
_cell_length_a   11.69622600
_cell_length_b   11.69622600
_cell_length_c   4.17759200
_cell_angle_alpha   90.00000000
_cell_angle_beta   90.00000000
_cell_angle_gamma   90.00000000
_symmetry_Int_Tables_number   1
_chemical_formula_structural   BiPtPb3
_chemical_formula_sum   'Bi4 Pt4 Pb12'
_cell_volume   571.50169855
_cell_formula_units_Z   4
loop_
 _symmetry_equiv_pos_site_id
 _symmetry_equiv_pos_as_xyz
  1  'x, y, z'
loop_
 _atom_site_type_symbol
 _atom_site_label
 _atom_site_symmetry_multiplicity
 _atom_site_fract_x
 _atom_site_fract_y
 _atom_site_fract_z
 _atom_site_occupancy
  Bi  Bi0  1  0.29393400  0.29393400  0.50000000  1
  Bi  Bi1  1  0.20606600  0.79393400  0.00000000  1
  Bi  Bi2  1  0.70606600  0.70606600  0.50000000  1
  Bi  Bi3  1  0.79393400  0.20606600  0.00000000  1
  Pt  Pt0  1  0.08684400  0.91315600  0.50000000  1
  Pt  Pt1  1  0.58684400  0.58684400  0.00000000  1
  Pt  Pt2  1  0.91315600  0.08684400  0.50000000  1
  Pt  Pt3  1  0.41315600  0.41315600  0.00000000  1
  Pb  Pb0  1  0.00272800  0.67033200  0.50000000  1
  Pb  Pb1  1  0.49727200  0.17033200  0.00000000  1
  Pb  Pb2  1  0.50272800  0.82966800  0.00000000  1
  Pb  Pb3  1  0.89736700  0.89736700  0.00000000  1
  Pb  Pb4  1  0.17033200  0.49727200  0.00000000  1
  Pb  Pb5  1  0.39736700  0.60263300  0.50000000  1
  Pb  Pb6  1  0.10263300  0.10263300  0.00000000  1
  Pb  Pb7  1  0.99727200  0.32966800  0.50000000  1
  Pb  Pb8  1  0.67033200  0.00272800  0.50000000  1
  Pb  Pb9  1  0.82966800  0.50272800  0.00000000  1
  Pb  Pb10  1  0.32966800  0.99727200  0.50000000  1
  Pb  Pb11  1  0.60263300  0.39736700  0.50000000  1
loop_
_geom_bond_atom_site_label_1
_geom_bond_atom_site_label_2
_geom_bond_distance
_geom_bond_site_symmetry_2
Bi0 Pt3 2.872636 1_555
Bi0 Pt3 2.872636 1_556
Bi0 Pb1 3.479842 1_555
Bi0 Pb4 3.479842 1_556
Bi0 Pb4 3.479842 1_555
Bi0 Pb1 3.479842 1_556
Bi0 Pb10 3.494907 1_545
Bi0 Pb7 3.494907 1_455
Bi1 Pt0 2.872636 1_555
Bi1 Pt0 2.872636 1_554
Bi1 Pb10 3.479842 1_554
Bi1 Pb10 3.479842 1_555
Bi1 Pb0 3.479842 1_554
Bi1 Pb0 3.479842 1_555
Bi1 Pb4 3.494907 1_555
Bi1 Pb2 3.494907 1_555
Bi2 Pt1 2.872636 1_555
Bi2 Pt1 2.872636 1_556
Bi2 Pb9 3.479842 1_556
Bi2 Pb9 3.479842 1_555
Bi2 Pb2 3.479842 1_555
Bi2 Pb2 3.479842 1_556
Bi2 Pb8 3.494907 1_565
Bi2 Pb0 3.494907 1_655
Bi3 Pt2 2.872636 1_554
Bi3 Pt2 2.872636 1_555
Bi3 Pb7 3.479842 1_554
Bi3 Pb7 3.479842 1_555
Bi3 Pb8 3.479842 1_555
Bi3 Pb8 3.479842 1_554
Bi3 Pb1 3.494907 1_555
Bi3 Pb9 3.494907 1_555
Pt0 Pt2 2.872967 1_465
Pt1 Pt3 2.872967 1_555
Pb0 Pt0 3.005702 1_555
Pb0 Pb4 3.507586 1_555
Pb0 Pb4 3.507586 1_556
Pb0 Pb9 3.507586 1_456
Pb0 Pb9 3.507586 1_455
Pb0 Pb3 3.596265 1_456
Pb0 Pb3 3.596265 1_455
Pb1 Pt3 3.005702 1_555
Pb1 Pb8 3.507586 1_555
Pb1 Pb8 3.507586 1_554
Pb1 Pb10 3.507586 1_544
Pb1 Pb10 3.507586 1_545
Pb1 Pb11 3.596265 1_554
Pb1 Pb11 3.596265 1_555
Pb2 Pt1 3.005702 1_555
Pb2 Pb8 3.507586 1_565
Pb2 Pb8 3.507586 1_564
Pb2 Pb5 3.596265 1_555
Pb2 Pb5 3.596265 1_554
Pb3 Pt2 3.050994 1_565
Pb3 Pt2 3.050994 1_564
Pb3 Pt0 3.050994 1_654
Pb3 Pt0 3.050994 1_655
Pb3 Pb8 3.596265 1_565
Pb3 Pb8 3.596265 1_564
Pb4 Pt3 3.005702 1_555
Pb4 Pb7 3.507586 1_455
Pb4 Pb7 3.507586 1_454
Pb4 Pb5 3.596265 1_555
Pb4 Pb5 3.596265 1_554
Pb5 Pt1 3.050994 1_555
Pb5 Pt1 3.050994 1_556
Pb5 Pt3 3.050994 1_555
Pb5 Pt3 3.050994 1_556
Pb6 Pt0 3.050994 1_545
Pb6 Pt2 3.050994 1_455
Pb6 Pt2 3.050994 1_454
Pb6 Pt0 3.050994 1_544
Pb6 Pb7 3.596265 1_454
Pb6 Pb7 3.596265 1_455
Pb7 Pt2 3.005702 1_555
Pb7 Pb9 3.507586 1_555
Pb7 Pb9 3.507586 1_556
Pb8 Pt2 3.005702 1_555
Pb9 Pt1 3.005702 1_555
Pb10 Pt0 3.005702 1_555
Pb10 Pb2 3.507586 1_555
Pb10 Pb2 3.507586 1_556
Pb10 Pb6 3.596265 1_566
Pb10 Pb6 3.596265 1_565
Pb11 Pt1 3.050994 1_555
Pb11 Pt1 3.050994 1_556
Pb11 Pt3 3.050994 1_555
Pb11 Pt3 3.050994 1_556
Pb11 Pb9 3.596265 1_555
Pb11 Pb9 3.596265 1_556
