# generated using pymatgen
data_K3Nb7O19
_symmetry_space_group_name_H-M   'P 1'
_cell_length_a   6.58883300
_cell_length_b   14.45592911
_cell_length_c   19.46504283
_cell_angle_alpha   80.15497887
_cell_angle_beta   88.00198867
_cell_angle_gamma   84.93790368
_symmetry_Int_Tables_number   1
_chemical_formula_structural   K3Nb7O19
_chemical_formula_sum   'K12 Nb28 O76'
_cell_volume   1819.20405573
_cell_formula_units_Z   4
loop_
 _symmetry_equiv_pos_site_id
 _symmetry_equiv_pos_as_xyz
  1  'x, y, z'
loop_
 _atom_site_type_symbol
 _atom_site_label
 _atom_site_symmetry_multiplicity
 _atom_site_fract_x
 _atom_site_fract_y
 _atom_site_fract_z
 _atom_site_occupancy
  K  K0  1  0.40393400  0.13495800  0.73846900  1
  K  K1  1  0.20885400  0.72849100  0.96144600  1
  K  K2  1  0.21122000  0.41411100  0.34155000  1
  K  K3  1  0.22188200  0.25737200  0.53377300  1
  K  K4  1  0.59606600  0.86504200  0.26153100  1
  K  K5  1  0.70290600  0.40981600  0.84169100  1
  K  K6  1  0.90403200  0.13940200  0.23754500  1
  K  K7  1  0.77811800  0.74262800  0.46622700  1
  K  K8  1  0.29709400  0.59018400  0.15830900  1
  K  K9  1  0.78878000  0.58588900  0.65845000  1
  K  K10  1  0.79114600  0.27150900  0.03855400  1
  K  K11  1  0.09596800  0.86059800  0.76245500  1
  Nb  Nb0  1  0.25950300  0.60611200  0.79692400  1
  Nb  Nb1  1  0.33111900  0.31227200  0.17374200  1
  Nb  Nb2  1  0.66888100  0.68772800  0.82625800  1
  Nb  Nb3  1  0.25972500  0.91945400  0.40891800  1
  Nb  Nb4  1  0.24163300  0.08171200  0.09115700  1
  Nb  Nb5  1  0.78840900  0.46517400  0.48556100  1
  Nb  Nb6  1  0.28956700  0.46238500  0.98757700  1
  Nb  Nb7  1  0.30660400  0.99258600  0.56099800  1
  Nb  Nb8  1  0.79905600  0.15151900  0.85932100  1
  Nb  Nb9  1  0.22907300  0.24130600  0.89622900  1
  Nb  Nb10  1  0.74049700  0.39388800  0.20307600  1
  Nb  Nb11  1  0.21159100  0.53482600  0.51443900  1
  Nb  Nb12  1  0.75836700  0.91828800  0.90884300  1
  Nb  Nb13  1  0.20094400  0.84848100  0.14067900  1
  Nb  Nb14  1  0.74027500  0.08054600  0.59108200  1
  Nb  Nb15  1  0.72650200  0.24350800  0.39604100  1
  Nb  Nb16  1  0.23831900  0.38756000  0.70310800  1
  Nb  Nb17  1  0.70258400  0.84695600  0.64033600  1
  Nb  Nb18  1  0.80621400  0.99453900  0.06067700  1
  Nb  Nb19  1  0.77092700  0.75869400  0.10377100  1
  Nb  Nb20  1  0.17458000  0.68819300  0.32755800  1
  Nb  Nb21  1  0.71043300  0.53761500  0.01242300  1
  Nb  Nb22  1  0.69339600  0.00741400  0.43900200  1
  Nb  Nb23  1  0.27349800  0.75649200  0.60395900  1
  Nb  Nb24  1  0.19378600  0.00546100  0.93932300  1
  Nb  Nb25  1  0.76168100  0.61244000  0.29689200  1
  Nb  Nb26  1  0.82542000  0.31180700  0.67244200  1
  Nb  Nb27  1  0.29741600  0.15304400  0.35966400  1
  O  O0  1  0.78201700  0.53261900  0.38842500  1
  O  O1  1  0.14740900  0.95401700  0.04130900  1
  O  O2  1  0.80123700  0.21755500  0.76897700  1
  O  O3  1  0.28236500  0.53040100  0.88856400  1
  O  O4  1  0.07287700  0.75527600  0.09319000  1
  O  O5  1  0.93240500  0.09339900  0.09585200  1
  O  O6  1  0.27063200  0.69346800  0.69541400  1
  O  O7  1  0.73541700  0.81505300  0.86668100  1
  O  O8  1  0.76653500  0.69584400  0.19596400  1
  O  O9  1  0.92712300  0.24472400  0.90681000  1
  O  O10  1  0.98663700  0.65400100  0.80565700  1
  O  O11  1  0.25712900  0.02842600  0.33321100  1
  O  O12  1  0.12307200  0.27751400  0.66795700  1
  O  O13  1  0.29383000  0.37763900  0.07976300  1
  O  O14  1  0.52624400  0.18597000  0.88513000  1
  O  O15  1  0.75077100  0.50189600  0.25027900  1
  O  O16  1  0.89011300  0.56479200  0.52428300  1
  O  O17  1  0.75907900  0.02633200  0.83290500  1
  O  O18  1  0.70617000  0.62236100  0.92023700  1
  O  O19  1  0.04101200  0.04017600  0.57508000  1
  O  O20  1  0.77463400  0.33825600  0.44582800  1
  O  O21  1  0.45995100  0.95884500  0.92460500  1
  O  O22  1  0.40429000  0.41194900  0.21638800  1
  O  O23  1  0.64764600  0.95289600  0.54085200  1
  O  O24  1  0.57493500  0.75430200  0.59223100  1
  O  O25  1  0.71763500  0.46959900  0.11143600  1
  O  O26  1  0.42506500  0.24569800  0.40776900  1
  O  O27  1  0.76701700  0.87421000  0.01283300  1
  O  O28  1  0.01336300  0.34599900  0.19434300  1
  O  O29  1  0.79812300  0.37735000  0.57950500  1
  O  O30  1  0.22808900  0.81691300  0.36707600  1
  O  O31  1  0.85259100  0.04598300  0.95869100  1
  O  O32  1  0.20187700  0.62265000  0.42049500  1
  O  O33  1  0.00000000  0.50000000  0.00000000  1
  O  O34  1  0.06759500  0.90660100  0.90414800  1
  O  O35  1  0.63563000  0.10786600  0.35920600  1
  O  O36  1  0.97450000  0.81217200  0.61404900  1
  O  O37  1  0.09505100  0.59093900  0.28330300  1
  O  O38  1  0.38994700  0.56501300  0.02369300  1
  O  O39  1  0.02550000  0.18782800  0.38595100  1
  O  O40  1  0.23346500  0.30415600  0.80403600  1
  O  O41  1  0.27177500  0.33713800  0.94571300  1
  O  O42  1  0.77191100  0.18308700  0.63292400  1
  O  O43  1  0.13689800  0.10590300  0.85936200  1
  O  O44  1  0.23298300  0.12579000  0.98716700  1
  O  O45  1  0.72822500  0.66286200  0.05428700  1
  O  O46  1  0.10988700  0.43520800  0.47571700  1
  O  O47  1  0.24092100  0.97366800  0.16709500  1
  O  O48  1  0.70004000  0.78004300  0.73077100  1
  O  O49  1  0.54004900  0.04115500  0.07539500  1
  O  O50  1  0.47375600  0.81403000  0.11487000  1
  O  O51  1  0.87692800  0.72248600  0.33204300  1
  O  O52  1  0.95898800  0.95982400  0.42492000  1
  O  O53  1  0.24922900  0.49810400  0.74972100  1
  O  O54  1  0.29996000  0.21995700  0.26922900  1
  O  O55  1  0.51436800  0.34217100  0.69353500  1
  O  O56  1  0.56698600  0.90815300  0.40338200  1
  O  O57  1  0.21798300  0.46738100  0.61157500  1
  O  O58  1  0.61005300  0.43498700  0.97630700  1
  O  O59  1  0.37708000  0.72034600  0.83213200  1
  O  O60  1  0.36437000  0.89213400  0.64079400  1
  O  O61  1  0.62292000  0.27965400  0.16786800  1
  O  O62  1  0.74287100  0.97157400  0.66678900  1
  O  O63  1  0.43301400  0.09184700  0.59661800  1
  O  O64  1  0.35235400  0.04710400  0.45914800  1
  O  O65  1  0.26458300  0.18494700  0.13331900  1
  O  O66  1  0.26645300  0.87421200  0.51251700  1
  O  O67  1  0.50000000  0.50000000  0.50000000  1
  O  O68  1  0.73354700  0.12578800  0.48748300  1
  O  O69  1  0.48563200  0.65782900  0.30646500  1
  O  O70  1  0.90494900  0.40906100  0.71669700  1
  O  O71  1  0.22536600  0.66174400  0.55417200  1
  O  O72  1  0.72936800  0.30653200  0.30458600  1
  O  O73  1  0.19876300  0.78244500  0.23102300  1
  O  O74  1  0.86310200  0.89409700  0.14063800  1
  O  O75  1  0.59571000  0.58805100  0.78361200  1
loop_
_geom_bond_atom_site_label_1
_geom_bond_atom_site_label_2
_geom_bond_distance
_geom_bond_site_symmetry_2
K0 O12 2.844652 1_555
K0 O43 2.883280 1_555
K0 O63 2.929071 1_555
K0 O40 3.058699 1_555
K0 O2 3.087630 1_555
K0 O55 3.116332 1_555
K0 O17 3.159867 1_555
K0 O42 3.169342 1_555
K0 O14 3.213737 1_555
K1 O38 2.664702 1_556
K1 O34 2.721575 1_555
K1 O59 2.731670 1_555
K1 O4 2.765304 1_556
K2 O37 2.670149 1_555
K2 O22 2.712494 1_555
K2 O46 2.733846 1_555
K2 O26 2.832305 1_555
K3 O46 2.675894 1_555
K3 O12 2.727396 1_555
K3 O63 2.772628 1_555
K3 O26 2.776513 1_555
K4 O51 2.844652 1_555
K4 O74 2.883280 1_555
K4 O56 2.929071 1_555
K4 O8 3.058699 1_555
K4 O73 3.087630 1_555
K4 O69 3.116332 1_555
K4 O47 3.159867 1_555
K4 O30 3.169342 1_555
K4 O50 3.213737 1_555
K5 O75 2.674692 1_555
K5 O70 2.733589 1_555
K5 O58 2.747304 1_555
K5 O9 2.821124 1_555
K6 O61 2.820085 1_555
K6 O35 2.902482 1_555
K6 O5 2.941670 1_555
K6 O72 3.057326 1_555
K6 O54 3.071744 1_655
K6 O28 3.102282 1_655
K6 O65 3.110637 1_655
K6 O11 3.174221 1_655
K6 O39 3.229082 1_655
K7 O16 2.675894 1_555
K7 O51 2.727396 1_555
K7 O56 2.772628 1_555
K7 O24 2.776513 1_555
K8 O22 2.674692 1_555
K8 O37 2.733589 1_555
K8 O38 2.747304 1_555
K8 O4 2.821124 1_555
K9 O70 2.670149 1_555
K9 O75 2.712494 1_555
K9 O16 2.733846 1_555
K9 O24 2.832305 1_555
K10 O58 2.664702 1_554
K10 O5 2.721575 1_555
K10 O61 2.731670 1_555
K10 O9 2.765304 1_554
K11 O59 2.820085 1_555
K11 O60 2.902482 1_555
K11 O34 2.941670 1_555
K11 O6 3.057326 1_555
K11 O48 3.071744 1_455
K11 O10 3.102282 1_455
K11 O7 3.110637 1_455
K11 O62 3.174221 1_455
K11 O36 3.229082 1_455
Nb0 O10 1.881428 1_455
Nb0 O3 1.929881 1_555
Nb0 O53 1.949409 1_555
Nb0 O59 2.108696 1_555
Nb0 O6 2.158056 1_555
Nb0 O75 2.218900 1_555
Nb1 O22 1.886081 1_555
Nb1 O13 1.923248 1_555
Nb1 O61 1.942944 1_555
Nb1 O54 2.109782 1_555
Nb1 O28 2.147097 1_555
Nb1 O65 2.204726 1_555
Nb2 O75 1.886081 1_555
Nb2 O18 1.923248 1_555
Nb2 O59 1.942944 1_555
Nb2 O48 2.109782 1_555
Nb2 O10 2.147097 1_555
Nb2 O7 2.204726 1_555
Nb3 O30 1.839373 1_555
Nb3 O11 1.963824 1_565
Nb3 O66 2.011547 1_555
Nb3 O56 2.017253 1_555
Nb3 O52 2.044264 1_455
Nb3 O64 2.364509 1_565
Nb4 O65 1.841419 1_555
Nb4 O47 1.958491 1_545
Nb4 O44 2.016704 1_554
Nb4 O5 2.029693 1_455
Nb4 O49 2.029748 1_555
Nb4 O1 2.364565 1_545
Nb5 O16 1.915110 1_555
Nb5 O67 1.945720 1_555
Nb5 O0 1.973633 1_555
Nb5 O29 2.039536 1_555
Nb5 O20 2.119459 1_555
Nb5 O46 2.132874 1_655
Nb6 O38 1.922211 1_556
Nb6 O33 1.955500 1_556
Nb6 O13 1.991783 1_556
Nb6 O3 2.008377 1_555
Nb6 O41 2.122397 1_555
Nb6 O58 2.124568 1_555
Nb7 O19 1.851838 1_565
Nb7 O63 1.955709 1_565
Nb7 O60 1.959197 1_555
Nb7 O64 2.026893 1_565
Nb7 O66 2.130322 1_555
Nb7 O23 2.306571 1_555
Nb8 O2 1.852181 1_555
Nb8 O14 1.896331 1_555
Nb8 O17 2.005128 1_555
Nb8 O9 2.015642 1_555
Nb8 O43 2.265117 1_655
Nb8 O31 2.266433 1_555
Nb9 O41 1.862818 1_555
Nb9 O40 1.868194 1_555
Nb9 O9 1.990107 1_455
Nb9 O14 2.067262 1_555
Nb9 O44 2.215235 1_555
Nb9 O43 2.331450 1_555
Nb10 O28 1.881428 1_655
Nb10 O25 1.929881 1_555
Nb10 O15 1.949409 1_555
Nb10 O61 2.108696 1_555
Nb10 O72 2.158056 1_555
Nb10 O22 2.218900 1_555
Nb11 O46 1.915110 1_555
Nb11 O67 1.945720 1_555
Nb11 O57 1.973633 1_555
Nb11 O32 2.039536 1_555
Nb11 O71 2.119459 1_555
Nb11 O16 2.132874 1_455
Nb12 O7 1.841419 1_555
Nb12 O17 1.958491 1_565
Nb12 O27 2.016704 1_556
Nb12 O34 2.029693 1_655
Nb12 O21 2.029748 1_555
Nb12 O31 2.364565 1_565
Nb13 O73 1.852181 1_555
Nb13 O50 1.896331 1_555
Nb13 O47 2.005128 1_555
Nb13 O4 2.015642 1_555
Nb13 O74 2.265117 1_455
Nb13 O1 2.266433 1_555
Nb14 O42 1.839373 1_555
Nb14 O62 1.963824 1_545
Nb14 O68 2.011547 1_555
Nb14 O63 2.017253 1_555
Nb14 O19 2.044264 1_655
Nb14 O23 2.364509 1_545
Nb15 O72 1.856205 1_555
Nb15 O20 1.862185 1_555
Nb15 O26 1.989357 1_555
Nb15 O39 2.077206 1_655
Nb15 O68 2.241037 1_555
Nb15 O35 2.331377 1_555
Nb16 O55 1.892353 1_555
Nb16 O57 1.951963 1_555
Nb16 O53 1.975526 1_555
Nb16 O12 2.048676 1_555
Nb16 O40 2.122886 1_555
Nb16 O70 2.204176 1_455
Nb17 O48 1.858274 1_555
Nb17 O36 1.894625 1_555
Nb17 O62 1.998000 1_555
Nb17 O24 2.015130 1_555
Nb17 O60 2.266342 1_555
Nb17 O23 2.272264 1_555
Nb18 O49 1.853144 1_565
Nb18 O5 1.945884 1_565
Nb18 O74 1.960378 1_555
Nb18 O31 2.019961 1_564
Nb18 O27 2.147034 1_555
Nb18 O1 2.307195 1_655
Nb19 O45 1.862818 1_555
Nb19 O8 1.868194 1_555
Nb19 O4 1.990107 1_655
Nb19 O50 2.067262 1_555
Nb19 O27 2.215235 1_555
Nb19 O74 2.331450 1_555
Nb20 O37 1.889129 1_555
Nb20 O32 1.899767 1_555
Nb20 O51 1.982648 1_455
Nb20 O69 2.098992 1_555
Nb20 O73 2.134146 1_555
Nb20 O30 2.191485 1_555
Nb21 O58 1.922211 1_554
Nb21 O33 1.955500 1_655
Nb21 O18 1.991783 1_554
Nb21 O25 2.008377 1_555
Nb21 O45 2.122397 1_555
Nb21 O38 2.124568 1_555
Nb22 O52 1.851838 1_545
Nb22 O56 1.955709 1_545
Nb22 O35 1.959197 1_555
Nb22 O23 2.026893 1_545
Nb22 O68 2.130322 1_555
Nb22 O64 2.306571 1_555
Nb23 O6 1.856205 1_555
Nb23 O71 1.862185 1_555
Nb23 O24 1.989357 1_555
Nb23 O36 2.077206 1_455
Nb23 O66 2.241037 1_555
Nb23 O60 2.331377 1_555
Nb24 O21 1.853144 1_545
Nb24 O34 1.945884 1_545
Nb24 O43 1.960378 1_555
Nb24 O1 2.019961 1_546
Nb24 O44 2.147034 1_555
Nb24 O31 2.307195 1_455
Nb25 O69 1.892353 1_555
Nb25 O0 1.951963 1_555
Nb25 O15 1.975526 1_555
Nb25 O51 2.048676 1_555
Nb25 O8 2.122886 1_555
Nb25 O37 2.204176 1_655
Nb26 O70 1.889129 1_555
Nb26 O29 1.899767 1_555
Nb26 O12 1.982648 1_655
Nb26 O55 2.098992 1_555
Nb26 O2 2.134146 1_555
Nb26 O42 2.191485 1_555
Nb27 O54 1.858274 1_555
Nb27 O39 1.894625 1_555
Nb27 O11 1.998000 1_555
Nb27 O26 2.015130 1_555
Nb27 O35 2.266342 1_555
Nb27 O64 2.272264 1_555
