# generated using pymatgen
data_BiIr3(CO)9
_symmetry_space_group_name_H-M   'P 1'
_cell_length_a   8.18583300
_cell_length_b   9.13444089
_cell_length_c   12.14313905
_cell_angle_alpha   85.04305411
_cell_angle_beta   78.89565811
_cell_angle_gamma   68.85728471
_symmetry_Int_Tables_number   1
_chemical_formula_structural   BiIr3(CO)9
_chemical_formula_sum   'Bi2 Ir6 C18 O18'
_cell_volume   830.86115707
_cell_formula_units_Z   2
loop_
 _symmetry_equiv_pos_site_id
 _symmetry_equiv_pos_as_xyz
  1  'x, y, z'
loop_
 _atom_site_type_symbol
 _atom_site_label
 _atom_site_symmetry_multiplicity
 _atom_site_fract_x
 _atom_site_fract_y
 _atom_site_fract_z
 _atom_site_occupancy
  Bi  Bi0  1  0.05507000  0.18962800  0.41140900  1
  Bi  Bi1  1  0.94493000  0.81037200  0.58859100  1
  Ir  Ir0  1  0.85175000  0.57417600  0.71645700  1
  Ir  Ir1  1  0.03745500  0.21681800  0.18344900  1
  Ir  Ir2  1  0.63005200  0.89319900  0.74244700  1
  Ir  Ir3  1  0.36994800  0.10680100  0.25755300  1
  Ir  Ir4  1  0.96254500  0.78318200  0.81655100  1
  Ir  Ir5  1  0.14825000  0.42582400  0.28354300  1
  C  C0  1  0.86873400  0.73201200  0.96713700  1
  C  C1  1  0.92292700  0.58837900  0.32080400  1
  C  C2  1  0.79141600  0.34365200  0.20968100  1
  C  C3  1  0.60800600  0.10846400  0.74124800  1
  C  C4  1  0.13126600  0.26798800  0.03286300  1
  C  C5  1  0.01847800  0.01822000  0.16756700  1
  C  C6  1  0.72720600  0.52870400  0.61433800  1
  C  C7  1  0.07707300  0.41162100  0.67919600  1
  C  C8  1  0.75394300  0.49905300  0.85812100  1
  C  C9  1  0.20858400  0.65634800  0.79031900  1
  C  C10  1  0.52394600  0.10382100  0.35763400  1
  C  C11  1  0.24605700  0.50094700  0.14187900  1
  C  C12  1  0.49681100  0.86342800  0.88607600  1
  C  C13  1  0.39199400  0.89153600  0.25875200  1
  C  C14  1  0.27279400  0.47129600  0.38566200  1
  C  C15  1  0.50318900  0.13657200  0.11392400  1
  C  C16  1  0.47605400  0.89617900  0.64236600  1
  C  C17  1  0.98152200  0.98178000  0.83243300  1
  O  O0  1  0.37633700  0.89883800  0.58505500  1
  O  O1  1  0.40226100  0.76165900  0.25756200  1
  O  O2  1  0.99468700  0.10258600  0.84137400  1
  O  O3  1  0.64094000  0.41882100  0.22670900  1
  O  O4  1  0.35906000  0.58117900  0.77329100  1
  O  O5  1  0.41092200  0.85184100  0.97221300  1
  O  O6  1  0.62366300  0.10116200  0.41494500  1
  O  O7  1  0.69649400  0.44868900  0.94120900  1
  O  O8  1  0.59773900  0.23834100  0.74243800  1
  O  O9  1  0.58907800  0.14815900  0.02778700  1
  O  O10  1  0.78800400  0.69050900  0.34397300  1
  O  O11  1  0.21199600  0.30949100  0.65602700  1
  O  O12  1  0.30350600  0.55131100  0.05879100  1
  O  O13  1  0.00531300  0.89741400  0.15862600  1
  O  O14  1  0.34607800  0.50061800  0.44868500  1
  O  O15  1  0.18752400  0.29591500  0.94130900  1
  O  O16  1  0.81247600  0.70408500  0.05869100  1
  O  O17  1  0.65392200  0.49938200  0.55131500  1
loop_
_geom_bond_atom_site_label_1
_geom_bond_atom_site_label_2
_geom_bond_distance
_geom_bond_site_symmetry_2
Bi0 Ir3 2.772941 1_555
Bi0 Ir1 2.784643 1_555
Bi0 Ir5 2.792773 1_555
Bi1 Ir2 2.772941 1_555
Bi1 Ir4 2.784643 1_555
Bi1 Ir0 2.792773 1_555
C0 O16 1.162613 1_556
C0 Ir4 1.929310 1_555
C1 O10 1.162614 1_555
C1 Ir5 1.905381 1_655
C2 O3 1.160938 1_555
C2 Ir1 1.906162 1_655
C3 O8 1.159860 1_555
C3 Ir2 1.907694 1_545
C4 O15 1.162613 1_554
C4 Ir1 1.929310 1_555
C5 O13 1.162799 1_545
C5 Ir1 1.904602 1_555
C6 O17 1.159939 1_555
C6 Ir0 1.905536 1_555
C7 O11 1.162614 1_555
C7 Ir0 1.905381 1_455
C8 O7 1.159251 1_555
C8 Ir0 1.932083 1_555
C9 O4 1.160938 1_555
C9 Ir4 1.906162 1_455
C10 O6 1.163099 1_555
C10 Ir3 1.904325 1_555
C11 O12 1.159251 1_555
C11 Ir5 1.932083 1_555
C12 O5 1.162263 1_555
C12 Ir2 1.924765 1_555
C13 O1 1.159860 1_555
C13 Ir3 1.907694 1_565
C14 O14 1.159939 1_555
C14 Ir5 1.905536 1_555
C15 O9 1.162263 1_555
C15 Ir3 1.924765 1_555
C16 O0 1.163099 1_555
C16 Ir2 1.904325 1_555
C17 O2 1.162799 1_565
C17 Ir4 1.904602 1_555
