# generated using pymatgen
data_Yb2Te5O13
_symmetry_space_group_name_H-M   'P 1'
_cell_length_a   7.14985100
_cell_length_b   8.85988150
_cell_length_c   10.34643679
_cell_angle_alpha   90.87746233
_cell_angle_beta   91.51426381
_cell_angle_gamma   104.33186909
_symmetry_Int_Tables_number   1
_chemical_formula_structural   Yb2Te5O13
_chemical_formula_sum   'Yb4 Te10 O26'
_cell_volume   634.63293399
_cell_formula_units_Z   2
loop_
 _symmetry_equiv_pos_site_id
 _symmetry_equiv_pos_as_xyz
  1  'x, y, z'
loop_
 _atom_site_type_symbol
 _atom_site_label
 _atom_site_symmetry_multiplicity
 _atom_site_fract_x
 _atom_site_fract_y
 _atom_site_fract_z
 _atom_site_occupancy
  Yb  Yb0  1  0.00700200  0.26515400  0.75956900  1
  Yb  Yb1  1  0.55225700  0.47926100  0.82139500  1
  Yb  Yb2  1  0.44774300  0.52073900  0.17860500  1
  Yb  Yb3  1  0.99299800  0.73484600  0.24043100  1
  Te  Te0  1  0.74011600  0.39425300  0.48272500  1
  Te  Te1  1  0.29517600  0.14101000  0.02422500  1
  Te  Te2  1  0.13735700  0.19255700  0.36040200  1
  Te  Te3  1  0.86264300  0.80744300  0.63959800  1
  Te  Te4  1  0.54342900  0.88561500  0.30340600  1
  Te  Te5  1  0.70482400  0.85899000  0.97577500  1
  Te  Te6  1  0.45657100  0.11438500  0.69659400  1
  Te  Te7  1  0.12424800  0.63889700  0.90586300  1
  Te  Te8  1  0.25988400  0.60574700  0.51727500  1
  Te  Te9  1  0.87575200  0.36110300  0.09413700  1
  O  O0  1  0.23512100  0.50442500  0.81107800  1
  O  O1  1  0.96617000  0.35137500  0.55626000  1
  O  O2  1  0.31742100  0.77840800  0.21895500  1
  O  O3  1  0.67205500  0.51437700  0.61582600  1
  O  O4  1  0.87338700  0.49163100  0.90449800  1
  O  O5  1  0.12661300  0.50836900  0.09550200  1
  O  O6  1  0.35199900  0.01372900  0.88005100  1
  O  O7  1  0.52743200  0.67089800  0.99924900  1
  O  O8  1  0.67993600  0.77171000  0.78345000  1
  O  O9  1  0.93987300  0.82372800  0.02963000  1
  O  O10  1  0.44685700  0.81125700  0.48388700  1
  O  O11  1  0.93942300  0.26840200  0.27268000  1
  O  O12  1  0.68257900  0.22159200  0.78104500  1
  O  O13  1  0.32794500  0.48562300  0.38417400  1
  O  O14  1  0.47256800  0.32910200  0.00075100  1
  O  O15  1  0.68070300  0.73477500  0.28849800  1
  O  O16  1  0.95645400  0.01894600  0.67295800  1
  O  O17  1  0.06012700  0.17627200  0.97037000  1
  O  O18  1  0.03383000  0.64862500  0.44374000  1
  O  O19  1  0.64800100  0.98627100  0.11994900  1
  O  O20  1  0.32006400  0.22829000  0.21655000  1
  O  O21  1  0.76487900  0.49557500  0.18892200  1
  O  O22  1  0.55314300  0.18874300  0.51611300  1
  O  O23  1  0.06057700  0.73159800  0.72732000  1
  O  O24  1  0.04354600  0.98105400  0.32704200  1
  O  O25  1  0.31929700  0.26522500  0.71150200  1
loop_
_geom_bond_atom_site_label_1
_geom_bond_atom_site_label_2
_geom_bond_distance
_geom_bond_site_symmetry_2
O0 Te7 1.866143 1_555
O0 Yb1 2.332543 1_555
O0 Yb0 2.376119 1_555
O1 Te0 1.892957 1_555
O1 Yb0 2.284900 1_655
O2 Te4 1.848501 1_555
O2 Yb3 2.272755 1_455
O2 Yb2 2.701611 1_555
O3 Te0 1.874273 1_555
O3 Yb1 2.310586 1_555
O3 Te3 2.621141 1_555
O4 Te7 1.938857 1_655
O4 Te9 2.294538 1_556
O4 Yb1 2.406503 1_555
O4 Yb0 2.849562 1_655
O5 Te9 1.938857 1_455
O5 Te7 2.294538 1_554
O5 Yb2 2.406503 1_555
O5 Yb3 2.849562 1_455
O6 Te1 1.967032 1_556
O6 Te6 2.180356 1_555
O7 Te5 1.851226 1_555
O7 Yb2 2.300956 1_556
O7 Yb1 2.524132 1_555
O8 Te3 1.983524 1_555
O8 Te5 2.110756 1_555
O8 Yb1 2.565185 1_555
O9 Te5 1.856922 1_554
O9 Yb3 2.382906 1_555
O9 Te7 2.674509 1_654
O10 Te8 2.015031 1_555
O10 Te4 2.068414 1_555
O11 Te2 1.923460 1_655
O11 Te9 2.116931 1_555
O12 Te6 1.848501 1_555
O12 Yb0 2.272755 1_655
O12 Yb1 2.701611 1_555
O13 Te8 1.874273 1_555
O13 Yb2 2.310586 1_555
O13 Te2 2.621141 1_555
O14 Te1 1.851226 1_555
O14 Yb1 2.300956 1_554
O14 Yb2 2.524132 1_555
O15 Te4 1.850463 1_555
O15 Yb3 2.300219 1_555
O15 Yb2 2.435837 1_555
O16 Te3 1.850997 1_545
O16 Yb0 2.285769 1_655
O17 Te1 1.856922 1_556
O17 Yb0 2.382906 1_555
O17 Te9 2.674509 1_456
O18 Te8 1.892957 1_555
O18 Yb3 2.284900 1_455
O19 Te5 1.967032 1_554
O19 Te4 2.180356 1_555
O20 Te2 1.983524 1_555
O20 Te1 2.110756 1_555
O20 Yb2 2.565185 1_555
O21 Te9 1.866143 1_555
O21 Yb2 2.332543 1_555
O21 Yb3 2.376119 1_555
O22 Te0 2.015031 1_555
O22 Te6 2.068414 1_555
O23 Te3 1.923460 1_455
O23 Te7 2.116931 1_555
O24 Te2 1.850997 1_565
O24 Yb3 2.285769 1_455
O25 Te6 1.850463 1_555
O25 Yb0 2.300219 1_555
O25 Yb1 2.435837 1_555
