# generated using pymatgen
data_CsY10(C2I9)2
_symmetry_space_group_name_H-M   'P 1'
_cell_length_a   11.32906300
_cell_length_b   11.38462126
_cell_length_c   11.50267123
_cell_angle_alpha   113.26472220
_cell_angle_beta   87.18823971
_cell_angle_gamma   119.32967970
_symmetry_Int_Tables_number   1
_chemical_formula_structural   CsY10(C2I9)2
_chemical_formula_sum   'Cs1 Y10 C4 I18'
_cell_volume   1168.76506895
_cell_formula_units_Z   1
loop_
 _symmetry_equiv_pos_site_id
 _symmetry_equiv_pos_as_xyz
  1  'x, y, z'
loop_
 _atom_site_type_symbol
 _atom_site_label
 _atom_site_symmetry_multiplicity
 _atom_site_fract_x
 _atom_site_fract_y
 _atom_site_fract_z
 _atom_site_occupancy
  Cs  Cs0  1  0.50000000  0.00000000  0.50000000  1
  Y  Y0  1  0.67531900  0.72358200  0.71022100  1
  Y  Y1  1  0.27753600  0.35314900  0.01530900  1
  Y  Y2  1  0.09259600  0.39307000  0.29200300  1
  Y  Y3  1  0.96497000  0.03772000  0.32372500  1
  Y  Y4  1  0.90740400  0.60693000  0.70799700  1
  Y  Y5  1  0.10622000  0.94414900  0.00070900  1
  Y  Y6  1  0.03503000  0.96228000  0.67627500  1
  Y  Y7  1  0.32468100  0.27641800  0.28977900  1
  Y  Y8  1  0.72246400  0.64685100  0.98469100  1
  Y  Y9  1  0.89378000  0.05585100  0.99929100  1
  C  C0  1  0.15172400  0.22029100  0.12130100  1
  C  C1  1  0.84827600  0.77970900  0.87869900  1
  C  C2  1  0.92285500  0.85470000  0.80287100  1
  C  C3  1  0.07714500  0.14530000  0.19712900  1
  I  I0  1  0.44680400  0.52914800  0.83152300  1
  I  I1  1  0.38780400  0.03943700  0.15867100  1
  I  I2  1  0.77496900  0.85575200  0.49894500  1
  I  I3  1  0.83402200  0.31222600  0.15348900  1
  I  I4  1  0.55319600  0.47085200  0.16847700  1
  I  I5  1  0.22503100  0.14424800  0.50105500  1
  I  I6  1  0.31894500  0.09549200  0.82949300  1
  I  I7  1  0.68105500  0.90450800  0.17050700  1
  I  I8  1  0.97728100  0.75461100  0.17058800  1
  I  I9  1  0.93281300  0.29940900  0.50299600  1
  I  I10  1  0.02271900  0.24538900  0.82941200  1
  I  I11  1  0.06718700  0.70059100  0.49700400  1
  I  I12  1  0.26197700  0.62529800  0.18272100  1
  I  I13  1  0.73802300  0.37470200  0.81727900  1
  I  I14  1  0.64165400  0.43246200  0.49886100  1
  I  I15  1  0.16597800  0.68777400  0.84651100  1
  I  I16  1  0.61219600  0.96056300  0.84132900  1
  I  I17  1  0.35834600  0.56753800  0.50113900  1
loop_
_geom_bond_atom_site_label_1
_geom_bond_atom_site_label_2
_geom_bond_distance
_geom_bond_site_symmetry_2
Cs0 I12 4.023182 1_545
Cs0 I13 4.023182 1_555
Cs0 I5 4.170534 1_555
Cs0 I2 4.170534 1_545
Cs0 I6 4.233284 1_555
Cs0 I7 4.233284 1_545
Cs0 I14 4.373100 1_555
Cs0 I17 4.373100 1_545
Cs0 I11 4.383246 1_545
Cs0 I9 4.383246 1_555
Cs0 I1 4.435474 1_555
Cs0 I16 4.435474 1_545
C0 C3 1.418733 1_555
C0 Y1 2.231588 1_555
C0 Y7 2.484166 1_555
C0 Y2 2.506808 1_555
C0 Y9 2.642222 1_454
C0 Y5 2.666600 1_545
C1 C2 1.418733 1_555
C1 Y8 2.231588 1_555
C1 Y0 2.484166 1_555
C1 Y4 2.506808 1_555
C1 Y5 2.642222 1_656
C1 Y9 2.666600 1_565
C2 Y6 2.222173 1_655
C2 Y0 2.482717 1_555
C2 Y4 2.506310 1_555
C2 Y9 2.652572 1_565
C2 Y5 2.663037 1_656
C3 Y3 2.222173 1_455
C3 Y7 2.482717 1_555
C3 Y2 2.506310 1_555
C3 Y5 2.652572 1_545
C3 Y9 2.663037 1_454
I0 Y8 3.037721 1_555
I0 Y0 3.165480 1_555
I0 Y1 3.368296 1_556
I1 Y7 2.938504 1_555
I1 Y5 3.205649 1_545
I2 Y6 3.073560 1_655
I2 Y0 3.224913 1_555
I2 Y3 3.389904 1_565
I3 Y2 2.936867 1_655
I3 Y9 3.138749 1_554
I4 Y1 3.037721 1_555
I4 Y7 3.165480 1_555
I4 Y8 3.368296 1_554
I5 Y3 3.073560 1_455
I5 Y7 3.224913 1_555
I5 Y6 3.389904 1_545
I6 Y6 3.068842 1_545
I6 Y1 3.112855 1_556
I6 Y5 3.286693 1_546
I7 Y3 3.068842 1_565
I7 Y8 3.112855 1_554
I7 Y9 3.286693 1_564
I8 Y3 3.072773 1_565
I8 Y8 3.078150 1_554
I8 Y5 3.251341 1_655
I9 Y3 3.065497 1_555
I9 Y2 3.166444 1_655
I9 Y4 3.507066 1_555
I10 Y6 3.072773 1_545
I10 Y1 3.078150 1_556
I10 Y9 3.251341 1_455
I11 Y6 3.065497 1_555
I11 Y4 3.166444 1_455
I11 Y2 3.507066 1_555
I12 Y1 3.021161 1_555
I12 Y2 3.109785 1_555
I13 Y8 3.021161 1_555
I13 Y4 3.109785 1_555
I14 Y0 3.086761 1_555
I14 Y4 3.142309 1_555
I14 Y7 3.613560 1_555
I15 Y4 2.936867 1_455
I15 Y5 3.138749 1_556
I16 Y0 2.938504 1_555
I16 Y9 3.205649 1_565
I17 Y7 3.086761 1_555
I17 Y2 3.142309 1_555
I17 Y0 3.613560 1_555
