# generated using pymatgen
data_Na17In12Ga29
_symmetry_space_group_name_H-M   'P 1'
_cell_length_a   15.56943490
_cell_length_b   15.56943490
_cell_length_c   15.56943490
_cell_angle_alpha   60.00000000
_cell_angle_beta   60.00000000
_cell_angle_gamma   60.00000000
_symmetry_Int_Tables_number   1
_chemical_formula_structural   Na17In12Ga29
_chemical_formula_sum   'Na34 In24 Ga58'
_cell_volume   2668.72333037
_cell_formula_units_Z   2
loop_
 _symmetry_equiv_pos_site_id
 _symmetry_equiv_pos_as_xyz
  1  'x, y, z'
loop_
 _atom_site_type_symbol
 _atom_site_label
 _atom_site_symmetry_multiplicity
 _atom_site_fract_x
 _atom_site_fract_y
 _atom_site_fract_z
 _atom_site_occupancy
  Na  Na0  1  0.87109200  0.25932400  0.87109200  1
  Na  Na1  1  0.28329500  0.28329500  0.65011600  1
  Na  Na2  1  0.87109200  0.49849200  0.87109200  1
  Na  Na3  1  0.87109200  0.25932400  0.49849200  1
  Na  Na4  1  0.74067600  0.12890800  0.50150800  1
  Na  Na5  1  0.12890800  0.12890800  0.74067600  1
  Na  Na6  1  0.87109200  0.87109200  0.49849200  1
  Na  Na7  1  0.62500000  0.62500000  0.62500000  1
  Na  Na8  1  0.71670500  0.71670500  0.34988400  1
  Na  Na9  1  0.71670500  0.34988400  0.71670500  1
  Na  Na10  1  0.71670500  0.71670500  0.71670500  1
  Na  Na11  1  0.74067600  0.50150800  0.12890800  1
  Na  Na12  1  0.50150800  0.12890800  0.74067600  1
  Na  Na13  1  0.49849200  0.87109200  0.25932400  1
  Na  Na14  1  0.25932400  0.87109200  0.87109200  1
  Na  Na15  1  0.49849200  0.25932400  0.87109200  1
  Na  Na16  1  0.12890800  0.74067600  0.12890800  1
  Na  Na17  1  0.12890800  0.74067600  0.50150800  1
  Na  Na18  1  0.28329500  0.65011600  0.28329500  1
  Na  Na19  1  0.74067600  0.12890800  0.12890800  1
  Na  Na20  1  0.50150800  0.74067600  0.12890800  1
  Na  Na21  1  0.25932400  0.49849200  0.87109200  1
  Na  Na22  1  0.12890800  0.50150800  0.12890800  1
  Na  Na23  1  0.37500000  0.37500000  0.37500000  1
  Na  Na24  1  0.25932400  0.87109200  0.49849200  1
  Na  Na25  1  0.65011600  0.28329500  0.28329500  1
  Na  Na26  1  0.87109200  0.49849200  0.25932400  1
  Na  Na27  1  0.12890800  0.12890800  0.50150800  1
  Na  Na28  1  0.49849200  0.87109200  0.87109200  1
  Na  Na29  1  0.34988400  0.71670500  0.71670500  1
  Na  Na30  1  0.50150800  0.12890800  0.12890800  1
  Na  Na31  1  0.28329500  0.28329500  0.28329500  1
  Na  Na32  1  0.87109200  0.87109200  0.25932400  1
  Na  Na33  1  0.12890800  0.50150800  0.74067600  1
  In  In0  1  0.92574500  0.72829100  0.11767400  1
  In  In1  1  0.07425500  0.27170900  0.27170900  1
  In  In2  1  0.27170900  0.07425500  0.88232600  1
  In  In3  1  0.72829100  0.92574500  0.72829100  1
  In  In4  1  0.11767400  0.92574500  0.72829100  1
  In  In5  1  0.92574500  0.72829100  0.72829100  1
  In  In6  1  0.72829100  0.11767400  0.72829100  1
  In  In7  1  0.72829100  0.92574500  0.11767400  1
  In  In8  1  0.07425500  0.27170900  0.88232600  1
  In  In9  1  0.27170900  0.88232600  0.27170900  1
  In  In10  1  0.88232600  0.27170900  0.07425500  1
  In  In11  1  0.11767400  0.72829100  0.92574500  1
  In  In12  1  0.72829100  0.72829100  0.92574500  1
  In  In13  1  0.72829100  0.72829100  0.11767400  1
  In  In14  1  0.72829100  0.11767400  0.92574500  1
  In  In15  1  0.07425500  0.88232600  0.27170900  1
  In  In16  1  0.88232600  0.07425500  0.27170900  1
  In  In17  1  0.27170900  0.07425500  0.27170900  1
  In  In18  1  0.27170900  0.27170900  0.88232600  1
  In  In19  1  0.92574500  0.11767400  0.72829100  1
  In  In20  1  0.11767400  0.72829100  0.72829100  1
  In  In21  1  0.27170900  0.27170900  0.07425500  1
  In  In22  1  0.27170900  0.88232600  0.07425500  1
  In  In23  1  0.88232600  0.27170900  0.27170900  1
  Ga  Ga0  1  0.96255600  0.31769800  0.60987300  1
  Ga  Ga1  1  0.50617300  0.15866800  0.50617300  1
  Ga  Ga2  1  0.96017800  0.61946500  0.96017800  1
  Ga  Ga3  1  0.39012700  0.03744400  0.39012700  1
  Ga  Ga4  1  0.15866800  0.50617300  0.50617300  1
  Ga  Ga5  1  0.60987300  0.31769800  0.60987300  1
  Ga  Ga6  1  0.68230200  0.39012700  0.39012700  1
  Ga  Ga7  1  0.03982200  0.03982200  0.38053500  1
  Ga  Ga8  1  0.50617300  0.32898600  0.15866800  1
  Ga  Ga9  1  0.32898600  0.15866800  0.50617300  1
  Ga  Ga10  1  0.60987300  0.96255600  0.31769800  1
  Ga  Ga11  1  0.67101400  0.49382700  0.49382700  1
  Ga  Ga12  1  0.50617300  0.50617300  0.15866800  1
  Ga  Ga13  1  0.61946500  0.96017800  0.96017800  1
  Ga  Ga14  1  0.84133200  0.49382700  0.67101400  1
  Ga  Ga15  1  0.15866800  0.32898600  0.50617300  1
  Ga  Ga16  1  0.60987300  0.60987300  0.96255600  1
  Ga  Ga17  1  0.39012700  0.39012700  0.03744400  1
  Ga  Ga18  1  0.03982200  0.03982200  0.03982200  1
  Ga  Ga19  1  0.49382700  0.84133200  0.67101400  1
  Ga  Ga20  1  0.67101400  0.84133200  0.49382700  1
  Ga  Ga21  1  0.49382700  0.84133200  0.49382700  1
  Ga  Ga22  1  0.32898600  0.50617300  0.50617300  1
  Ga  Ga23  1  0.03744400  0.39012700  0.68230200  1
  Ga  Ga24  1  0.49382700  0.49382700  0.84133200  1
  Ga  Ga25  1  0.12500000  0.12500000  0.12500000  1
  Ga  Ga26  1  0.31769800  0.60987300  0.60987300  1
  Ga  Ga27  1  0.96017800  0.96017800  0.61946500  1
  Ga  Ga28  1  0.39012700  0.68230200  0.39012700  1
  Ga  Ga29  1  0.38053500  0.03982200  0.03982200  1
  Ga  Ga30  1  0.31769800  0.60987300  0.96255600  1
  Ga  Ga31  1  0.50617300  0.32898600  0.50617300  1
  Ga  Ga32  1  0.15866800  0.50617300  0.32898600  1
  Ga  Ga33  1  0.32898600  0.50617300  0.15866800  1
  Ga  Ga34  1  0.03982200  0.38053500  0.03982200  1
  Ga  Ga35  1  0.68230200  0.03744400  0.39012700  1
  Ga  Ga36  1  0.84133200  0.49382700  0.49382700  1
  Ga  Ga37  1  0.96017800  0.96017800  0.96017800  1
  Ga  Ga38  1  0.39012700  0.68230200  0.03744400  1
  Ga  Ga39  1  0.03744400  0.39012700  0.39012700  1
  Ga  Ga40  1  0.67101400  0.49382700  0.84133200  1
  Ga  Ga41  1  0.60987300  0.31769800  0.96255600  1
  Ga  Ga42  1  0.96255600  0.60987300  0.31769800  1
  Ga  Ga43  1  0.68230200  0.39012700  0.03744400  1
  Ga  Ga44  1  0.31769800  0.96255600  0.60987300  1
  Ga  Ga45  1  0.39012700  0.03744400  0.68230200  1
  Ga  Ga46  1  0.49382700  0.67101400  0.84133200  1
  Ga  Ga47  1  0.84133200  0.67101400  0.49382700  1
  Ga  Ga48  1  0.50617300  0.15866800  0.32898600  1
  Ga  Ga49  1  0.60987300  0.96255600  0.60987300  1
  Ga  Ga50  1  0.60987300  0.60987300  0.31769800  1
  Ga  Ga51  1  0.49382700  0.67101400  0.49382700  1
  Ga  Ga52  1  0.87500000  0.87500000  0.87500000  1
  Ga  Ga53  1  0.49382700  0.49382700  0.67101400  1
  Ga  Ga54  1  0.50617300  0.50617300  0.32898600  1
  Ga  Ga55  1  0.39012700  0.39012700  0.68230200  1
  Ga  Ga56  1  0.96255600  0.60987300  0.60987300  1
  Ga  Ga57  1  0.03744400  0.68230200  0.39012700  1
loop_
_geom_bond_atom_site_label_1
_geom_bond_atom_site_label_2
_geom_bond_distance
_geom_bond_site_symmetry_2
In0 In11 2.988226 1_654
In0 In7 3.074247 1_555
In0 In13 3.074247 1_555
In0 Na16 3.357098 1_655
In0 Na22 3.357106 1_655
In0 Na32 3.415547 1_555
In0 Na26 3.415560 1_555
In0 Na8 3.444465 1_555
In1 In23 2.988226 1_455
In1 In21 3.074247 1_555
In1 In17 3.074247 1_555
In1 Na3 3.357106 1_455
In1 Na26 3.357106 1_455
In1 Na27 3.415560 1_555
In1 Na22 3.415560 1_555
In1 Na31 3.444482 1_555
In2 In22 2.988226 1_546
In2 In8 3.074247 1_555
In2 Na14 3.357098 1_545
In2 Na28 3.357106 1_545
In2 Na5 3.415547 1_555
In2 Na12 3.415560 1_555
In2 Na1 3.444465 1_555
In3 In6 2.988226 1_565
In3 In5 3.074247 1_555
In3 Na4 3.357106 1_565
In3 Na12 3.357106 1_565
In3 Na6 3.415560 1_555
In3 Na28 3.415560 1_555
In3 Na10 3.444482 1_555
In4 Na5 3.357098 1_565
In4 Na27 3.357106 1_565
In4 Na14 3.415547 1_555
In4 Na24 3.415560 1_555
In4 Na29 3.444465 1_555
In5 Na33 3.357106 1_655
In5 Na17 3.357106 1_655
In5 Na2 3.415560 1_555
In5 Na6 3.415560 1_555
In5 Na10 3.444482 1_555
In6 Na4 3.357113 1_555
In6 Na12 3.357113 1_555
In6 Na15 3.415553 1_555
In6 Na3 3.415553 1_555
In6 Na9 3.444451 1_555
In7 Na19 3.357098 1_565
In7 Na30 3.357106 1_565
In7 Na32 3.415547 1_555
In7 Na13 3.415560 1_555
In7 Na8 3.444465 1_555
In8 Na0 3.357098 1_455
In8 Na2 3.357106 1_455
In8 Na5 3.415547 1_555
In8 Na33 3.415560 1_555
In8 Na1 3.444465 1_555
In9 Na24 3.357113 1_555
In9 Na13 3.357113 1_555
In9 Na17 3.415553 1_555
In9 Na20 3.415553 1_555
In9 Na18 3.444451 1_555
In10 In8 2.988226 1_654
In10 In16 3.074247 1_555
In10 In23 3.074247 1_555
In10 Na0 3.357098 1_554
In10 Na2 3.357106 1_554
In10 Na19 3.415547 1_555
In10 Na11 3.415560 1_555
In10 Na25 3.444465 1_555
In11 In20 3.074247 1_555
In11 In4 3.074247 1_555
In11 Na16 3.357098 1_556
In11 Na22 3.357106 1_556
In11 Na14 3.415547 1_555
In11 Na21 3.415560 1_555
In11 Na29 3.444465 1_555
In12 In13 2.988226 1_556
In12 In5 3.074247 1_555
In12 In3 3.074247 1_555
In12 Na20 3.357106 1_556
In12 Na11 3.357106 1_556
In12 Na2 3.415560 1_555
In12 Na28 3.415560 1_555
In12 Na10 3.444482 1_555
In13 In7 3.074247 1_555
In13 Na20 3.357113 1_555
In13 Na11 3.357113 1_555
In13 Na13 3.415553 1_555
In13 Na26 3.415553 1_555
In13 Na8 3.444451 1_555
In14 In7 2.988226 1_546
In14 In6 3.074247 1_555
In14 In19 3.074247 1_555
In14 Na19 3.357098 1_556
In14 Na30 3.357106 1_556
In14 Na0 3.415547 1_555
In14 Na15 3.415560 1_555
In14 Na9 3.444465 1_555
In15 In16 2.988226 1_465
In15 In22 3.074247 1_555
In15 In9 3.074247 1_555
In15 Na32 3.357098 1_455
In15 Na6 3.357106 1_455
In15 Na16 3.415547 1_555
In15 Na17 3.415560 1_555
In15 Na18 3.444465 1_555
In16 In23 3.074247 1_555
In16 Na32 3.357098 1_545
In16 Na6 3.357106 1_545
In16 Na19 3.415547 1_555
In16 Na4 3.415560 1_555
In16 Na25 3.444465 1_555
In17 In9 2.988226 1_545
In17 In21 3.074247 1_555
In17 Na13 3.357106 1_545
In17 Na24 3.357106 1_545
In17 Na30 3.415560 1_555
In17 Na27 3.415560 1_555
In17 Na31 3.444482 1_555
In18 In21 2.988226 1_556
In18 In2 3.074247 1_555
In18 In8 3.074247 1_555
In18 Na15 3.357113 1_555
In18 Na21 3.357113 1_555
In18 Na12 3.415553 1_555
In18 Na33 3.415553 1_555
In18 Na1 3.444451 1_555
In19 In4 2.988226 1_645
In19 In6 3.074247 1_555
In19 Na5 3.357098 1_655
In19 Na27 3.357106 1_655
In19 Na0 3.415547 1_555
In19 Na3 3.415560 1_555
In19 Na9 3.444465 1_555
In20 In5 2.988226 1_455
In20 In4 3.074247 1_555
In20 Na17 3.357113 1_555
In20 Na33 3.357113 1_555
In20 Na24 3.415553 1_555
In20 Na21 3.415553 1_555
In20 Na29 3.444451 1_555
In21 Na15 3.357106 1_554
In21 Na21 3.357106 1_554
In21 Na22 3.415560 1_555
In21 Na30 3.415560 1_555
In21 Na31 3.444482 1_555
In22 In9 3.074247 1_555
In22 Na14 3.357098 1_554
In22 Na28 3.357106 1_554
In22 Na16 3.415547 1_555
In22 Na20 3.415560 1_555
In22 Na18 3.444465 1_555
In23 Na3 3.357113 1_555
In23 Na26 3.357113 1_555
In23 Na4 3.415553 1_555
In23 Na11 3.415553 1_555
In23 Na25 3.444451 1_555
Ga0 Ga15 2.698833 1_655
Ga0 Ga14 2.761580 1_555
Ga0 Ga36 2.761580 1_555
Ga0 Ga39 2.793584 1_655
Ga0 Ga23 2.793584 1_655
Ga0 In19 2.900475 1_555
Ga0 Na9 3.196573 1_555
Ga0 Na27 3.342302 1_655
Ga0 Na5 3.342302 1_655
Ga0 Na0 3.346782 1_555
Ga0 Na3 3.346782 1_555
Ga1 Ga31 2.651755 1_555
Ga1 Ga49 2.698833 1_545
Ga1 Ga9 2.758701 1_555
Ga1 Ga48 2.758701 1_555
Ga1 Ga45 2.761580 1_555
Ga1 Ga35 2.761580 1_555
Ga1 Na23 3.178025 1_555
Ga1 Na1 3.266129 1_555
Ga1 Na25 3.266129 1_555
Ga1 Na12 3.409853 1_555
Ga1 Na4 3.409853 1_555
Ga2 Ga34 3.037371 1_656
Ga2 In12 3.332090 1_555
Ga2 In5 3.332090 1_555
Ga2 In13 3.332103 1_556
Ga2 In20 3.332103 1_655
Ga2 In11 3.332118 1_655
Ga2 In0 3.332118 1_556
Ga3 Ga48 2.761580 1_555
Ga3 Ga9 2.761580 1_555
Ga3 Ga44 2.793584 1_545
Ga3 In17 2.900488 1_555
Ga3 Na31 3.196570 1_555
Ga3 Na13 3.342302 1_545
Ga3 Na24 3.342302 1_545
Ga3 Na27 3.346782 1_555
Ga3 Na30 3.346782 1_555
Ga4 Ga56 2.698833 1_455
Ga4 Ga57 2.761580 1_555
Ga4 Na23 3.178025 1_555
Ga4 Na1 3.266129 1_555
Ga4 Na18 3.266129 1_555
Ga4 Na17 3.409853 1_555
Ga4 Na33 3.409853 1_555
Ga5 Ga53 2.761580 1_555
Ga5 Ga6 2.793584 1_555
Ga5 Ga55 2.793584 1_555
Ga5 In6 2.900481 1_555
Ga5 Na9 3.196559 1_555
Ga5 Na12 3.342302 1_555
Ga5 Na4 3.342302 1_555
Ga5 Na15 3.346782 1_555
Ga5 Na3 3.346782 1_555
Ga6 In23 2.900481 1_555
Ga6 Na25 3.196559 1_555
Ga6 Na26 3.342302 1_555
Ga6 Na3 3.342302 1_555
Ga6 Na4 3.346782 1_555
Ga6 Na11 3.346782 1_555
Ga7 In17 3.332090 1_555
Ga7 In1 3.332090 1_555
Ga7 In9 3.332103 1_545
Ga7 In23 3.332103 1_455
Ga7 In15 3.332118 1_545
Ga7 In16 3.332118 1_455
Ga8 Na23 3.178025 1_555
Ga8 Na31 3.266122 1_555
Ga8 Na25 3.266136 1_555
Ga8 Na19 3.409853 1_555
Ga8 Na30 3.409853 1_555
Ga9 Na23 3.178025 1_555
Ga9 Na31 3.266122 1_555
Ga9 Na1 3.266136 1_555
Ga9 Na27 3.409853 1_555
Ga9 Na5 3.409853 1_555
Ga10 Ga48 2.698833 1_565
Ga10 Ga20 2.761580 1_555
Ga10 Ga21 2.761580 1_555
Ga10 Ga3 2.793584 1_565
Ga10 Ga35 2.793584 1_565
Ga10 In7 2.900475 1_555
Ga10 Na8 3.196573 1_555
Ga10 Na19 3.342302 1_565
Ga10 Na30 3.342302 1_565
Ga10 Na13 3.346782 1_555
Ga10 Na32 3.346782 1_555
Ga11 Ga36 2.651755 1_555
Ga11 Ga6 2.698833 1_555
Ga11 Ga53 2.758701 1_555
Ga11 Ga51 2.758701 1_555
Ga11 Ga5 2.761580 1_555
Ga11 Ga50 2.761580 1_555
Ga11 Na7 3.178025 1_555
Ga11 Na9 3.266123 1_555
Ga11 Na8 3.266123 1_555
Ga11 Na3 3.409853 1_555
Ga11 Na26 3.409853 1_555
Ga12 Ga54 2.651755 1_555
Ga12 Ga16 2.698833 1_554
Ga12 Ga8 2.758701 1_555
Ga12 Ga33 2.758701 1_555
Ga12 Ga43 2.761580 1_555
Ga12 Ga38 2.761580 1_555
Ga12 Na23 3.178025 1_555
Ga12 Na18 3.266129 1_555
Ga12 Na25 3.266129 1_555
Ga12 Na11 3.409853 1_555
Ga12 Na20 3.409853 1_555
Ga13 Ga29 3.037371 1_566
Ga13 In3 3.332090 1_555
Ga13 In12 3.332090 1_555
Ga13 In13 3.332103 1_556
Ga13 In6 3.332103 1_565
Ga13 In7 3.332118 1_556
Ga13 In14 3.332118 1_565
Ga14 Ga40 2.651755 1_555
Ga14 Ga23 2.698833 1_655
Ga14 Ga36 2.758701 1_555
Ga14 Ga47 2.758701 1_555
Ga14 Ga56 2.761580 1_555
Ga14 Na7 3.178025 1_555
Ga14 Na10 3.266122 1_555
Ga14 Na9 3.266136 1_555
Ga14 Na0 3.409853 1_555
Ga14 Na2 3.409853 1_555
Ga15 Ga9 2.651755 1_555
Ga15 Ga32 2.758701 1_555
Ga15 Ga4 2.758701 1_555
Ga15 Ga23 2.761580 1_555
Ga15 Ga39 2.761580 1_555
Ga15 Na23 3.178025 1_555
Ga15 Na31 3.266122 1_555
Ga15 Na1 3.266136 1_555
Ga15 Na27 3.409853 1_555
Ga15 Na5 3.409853 1_555
Ga16 Ga46 2.761580 1_555
Ga16 Ga40 2.761580 1_555
Ga16 Ga43 2.793584 1_556
Ga16 Ga38 2.793584 1_556
Ga16 In12 2.900488 1_555
Ga16 Na10 3.196570 1_555
Ga16 Na11 3.342302 1_556
Ga16 Na20 3.342302 1_556
Ga16 Na28 3.346782 1_555
Ga16 Na2 3.346782 1_555
Ga17 Ga24 2.698833 1_554
Ga17 Ga8 2.761580 1_555
Ga17 Ga33 2.761580 1_555
Ga17 Ga41 2.793584 1_554
Ga17 Ga30 2.793584 1_554
Ga17 In21 2.900488 1_555
Ga17 Na31 3.196570 1_555
Ga17 Na21 3.342302 1_554
Ga17 Na15 3.342302 1_554
Ga17 Na30 3.346782 1_555
Ga17 Na22 3.346782 1_555
Ga18 Ga37 3.037397 1_444
Ga18 In15 3.332093 1_545
Ga18 In16 3.332093 1_455
Ga18 In22 3.332093 1_545
Ga18 In10 3.332093 1_455
Ga18 In8 3.332093 1_554
Ga18 In2 3.332093 1_554
Ga19 Ga46 2.651755 1_555
Ga19 Ga45 2.698833 1_565
Ga19 Ga20 2.758701 1_555
Ga19 Ga21 2.758701 1_555
Ga19 Ga44 2.761580 1_555
Ga19 Ga49 2.761580 1_555
Ga19 Na7 3.178025 1_555
Ga19 Na10 3.266122 1_555
Ga19 Na29 3.266136 1_555
Ga19 Na14 3.409853 1_555
Ga19 Na28 3.409853 1_555
Ga20 Ga47 2.651755 1_555
Ga20 Ga35 2.698833 1_565
Ga20 Ga21 2.758701 1_555
Ga20 Ga49 2.761580 1_555
Ga20 Na7 3.178025 1_555
Ga20 Na10 3.266122 1_555
Ga20 Na8 3.266136 1_555
Ga20 Na32 3.409853 1_555
Ga20 Na6 3.409853 1_555
Ga21 Ga51 2.651755 1_555
Ga21 Ga3 2.698833 1_565
Ga21 Ga44 2.761580 1_555
Ga21 Na7 3.178025 1_555
Ga21 Na29 3.266129 1_555
Ga21 Na8 3.266129 1_555
Ga21 Na24 3.409853 1_555
Ga21 Na13 3.409853 1_555
Ga22 Ga4 2.651755 1_555
Ga22 Ga26 2.698833 1_555
Ga22 Ga54 2.758701 1_555
Ga22 Ga31 2.758701 1_555
Ga22 Ga28 2.761580 1_555
Ga22 Ga55 2.761580 1_555
Ga22 Na23 3.178025 1_555
Ga22 Na1 3.266123 1_555
Ga22 Na18 3.266123 1_555
Ga22 Na17 3.409853 1_555
Ga22 Na33 3.409853 1_555
Ga23 Ga4 2.761580 1_555
Ga23 Ga56 2.793584 1_455
Ga23 In8 2.900475 1_555
Ga23 Na1 3.196573 1_555
Ga23 Na2 3.342302 1_455
Ga23 Na0 3.342302 1_455
Ga23 Na33 3.346782 1_555
Ga23 Na5 3.346782 1_555
Ga24 Ga53 2.651755 1_555
Ga24 Ga46 2.758701 1_555
Ga24 Ga40 2.758701 1_555
Ga24 Ga30 2.761580 1_555
Ga24 Ga41 2.761580 1_555
Ga24 Na7 3.178025 1_555
Ga24 Na29 3.266129 1_555
Ga24 Na9 3.266129 1_555
Ga24 Na15 3.409853 1_555
Ga24 Na21 3.409853 1_555
Ga26 Ga53 2.761580 1_555
Ga26 Ga51 2.761580 1_555
Ga26 Ga28 2.793584 1_555
Ga26 Ga55 2.793584 1_555
Ga26 In20 2.900481 1_555
Ga26 Na29 3.196559 1_555
Ga26 Na17 3.342302 1_555
Ga26 Na33 3.342302 1_555
Ga26 Na21 3.346782 1_555
Ga26 Na24 3.346782 1_555
Ga27 Ga7 3.037371 1_665
Ga27 In5 3.332090 1_555
Ga27 In3 3.332090 1_555
Ga27 In20 3.332103 1_655
Ga27 In6 3.332103 1_565
Ga27 In4 3.332118 1_655
Ga27 In19 3.332118 1_565
Ga28 Ga51 2.698833 1_555
Ga28 Ga54 2.761580 1_555
Ga28 Ga50 2.793584 1_555
Ga28 In9 2.900481 1_555
Ga28 Na18 3.196559 1_555
Ga28 Na24 3.342302 1_555
Ga28 Na13 3.342302 1_555
Ga28 Na17 3.346782 1_555
Ga28 Na20 3.346782 1_555
Ga29 In21 3.332090 1_555
Ga29 In17 3.332090 1_555
Ga29 In18 3.332103 1_554
Ga29 In9 3.332103 1_545
Ga29 In22 3.332118 1_545
Ga29 In2 3.332118 1_554
Ga30 Ga33 2.698833 1_556
Ga30 Ga46 2.761580 1_555
Ga30 Ga38 2.793584 1_556
Ga30 In11 2.900475 1_555
Ga30 Na29 3.196573 1_555
Ga30 Na16 3.342302 1_556
Ga30 Na22 3.342302 1_556
Ga30 Na14 3.346782 1_555
Ga30 Na21 3.346782 1_555
Ga31 Ga5 2.698833 1_555
Ga31 Ga54 2.758701 1_555
Ga31 Ga55 2.761580 1_555
Ga31 Ga6 2.761580 1_555
Ga31 Na23 3.178025 1_555
Ga31 Na1 3.266123 1_555
Ga31 Na25 3.266123 1_555
Ga31 Na4 3.409853 1_555
Ga31 Na12 3.409853 1_555
Ga32 Ga33 2.651755 1_555
Ga32 Ga42 2.698833 1_455
Ga32 Ga4 2.758701 1_555
Ga32 Ga57 2.761580 1_555
Ga32 Ga39 2.761580 1_555
Ga32 Na23 3.178025 1_555
Ga32 Na31 3.266122 1_555
Ga32 Na18 3.266136 1_555
Ga32 Na16 3.409853 1_555
Ga32 Na22 3.409853 1_555
Ga33 Ga8 2.758701 1_555
Ga33 Ga38 2.761580 1_555
Ga33 Na23 3.178025 1_555
Ga33 Na31 3.266122 1_555
Ga33 Na18 3.266136 1_555
Ga33 Na22 3.409853 1_555
Ga33 Na16 3.409853 1_555
Ga34 In21 3.332090 1_555
Ga34 In1 3.332090 1_555
Ga34 In18 3.332103 1_554
Ga34 In23 3.332103 1_455
Ga34 In8 3.332118 1_554
Ga34 In10 3.332118 1_455
Ga35 Ga48 2.761580 1_555
Ga35 Ga49 2.793584 1_545
Ga35 In16 2.900475 1_555
Ga35 Na25 3.196573 1_555
Ga35 Na32 3.342302 1_545
Ga35 Na6 3.342302 1_545
Ga35 Na19 3.346782 1_555
Ga35 Na4 3.346782 1_555
Ga36 Ga39 2.698833 1_655
Ga36 Ga47 2.758701 1_555
Ga36 Ga42 2.761580 1_555
Ga36 Na7 3.178025 1_555
Ga36 Na8 3.266129 1_555
Ga36 Na9 3.266129 1_555
Ga36 Na26 3.409853 1_555
Ga36 Na3 3.409853 1_555
Ga37 In11 3.332093 1_655
Ga37 In14 3.332093 1_565
Ga37 In7 3.332093 1_556
Ga37 In4 3.332093 1_655
Ga37 In19 3.332093 1_565
Ga37 In0 3.332093 1_556
Ga38 Ga46 2.698833 1_554
Ga38 In22 2.900475 1_555
Ga38 Na18 3.196573 1_555
Ga38 Na14 3.342302 1_554
Ga38 Na28 3.342302 1_554
Ga38 Na16 3.346782 1_555
Ga38 Na20 3.346782 1_555
Ga39 Ga42 2.793584 1_455
Ga39 In1 2.900488 1_555
Ga39 Na31 3.196570 1_555
Ga39 Na26 3.342302 1_455
Ga39 Na3 3.342302 1_455
Ga39 Na22 3.346782 1_555
Ga39 Na27 3.346782 1_555
Ga40 Ga43 2.698833 1_556
Ga40 Ga46 2.758701 1_555
Ga40 Ga41 2.761580 1_555
Ga40 Na7 3.178025 1_555
Ga40 Na10 3.266122 1_555
Ga40 Na9 3.266136 1_555
Ga40 Na0 3.409853 1_555
Ga40 Na2 3.409853 1_555
Ga41 Ga8 2.698833 1_556
Ga41 Ga43 2.793584 1_556
Ga41 In14 2.900475 1_555
Ga41 Na9 3.196573 1_555
Ga41 Na30 3.342302 1_556
Ga41 Na19 3.342302 1_556
Ga41 Na15 3.346782 1_555
Ga41 Na0 3.346782 1_555
Ga42 Ga47 2.761580 1_555
Ga42 Ga57 2.793584 1_655
Ga42 In0 2.900475 1_555
Ga42 Na8 3.196573 1_555
Ga42 Na22 3.342302 1_655
Ga42 Na16 3.342302 1_655
Ga42 Na26 3.346782 1_555
Ga42 Na32 3.346782 1_555
Ga43 Ga8 2.761580 1_555
Ga43 In10 2.900475 1_555
Ga43 Na25 3.196573 1_555
Ga43 Na2 3.342302 1_554
Ga43 Na0 3.342302 1_554
Ga43 Na11 3.346782 1_555
Ga43 Na19 3.346782 1_555
Ga44 Ga9 2.698833 1_565
Ga44 Ga45 2.793584 1_565
Ga44 In4 2.900475 1_555
Ga44 Na29 3.196573 1_555
Ga44 Na27 3.342302 1_565
Ga44 Na5 3.342302 1_565
Ga44 Na14 3.346782 1_555
Ga44 Na24 3.346782 1_555
Ga45 Ga9 2.761580 1_555
Ga45 Ga49 2.793584 1_545
Ga45 In2 2.900475 1_555
Ga45 Na1 3.196573 1_555
Ga45 Na28 3.342302 1_545
Ga45 Na14 3.342302 1_545
Ga45 Na12 3.346782 1_555
Ga45 Na5 3.346782 1_555
Ga46 Na7 3.178025 1_555
Ga46 Na10 3.266122 1_555
Ga46 Na29 3.266136 1_555
Ga46 Na14 3.409853 1_555
Ga46 Na28 3.409853 1_555
Ga47 Ga57 2.698833 1_655
Ga47 Ga56 2.761580 1_555
Ga47 Na7 3.178025 1_555
Ga47 Na10 3.266122 1_555
Ga47 Na8 3.266136 1_555
Ga47 Na32 3.409853 1_555
Ga47 Na6 3.409853 1_555
Ga48 Ga8 2.651755 1_555
Ga48 Ga9 2.758701 1_555
Ga48 Na23 3.178025 1_555
Ga48 Na31 3.266122 1_555
Ga48 Na25 3.266136 1_555
Ga48 Na19 3.409853 1_555
Ga48 Na30 3.409853 1_555
Ga49 In3 2.900488 1_555
Ga49 Na10 3.196570 1_555
Ga49 Na12 3.342302 1_565
Ga49 Na4 3.342302 1_565
Ga49 Na6 3.346782 1_555
Ga49 Na28 3.346782 1_555
Ga50 Ga54 2.698833 1_555
Ga50 Ga51 2.761580 1_555
Ga50 Ga6 2.793584 1_555
Ga50 In13 2.900481 1_555
Ga50 Na8 3.196559 1_555
Ga50 Na20 3.342302 1_555
Ga50 Na11 3.342302 1_555
Ga50 Na13 3.346782 1_555
Ga50 Na26 3.346782 1_555
Ga51 Ga53 2.758701 1_555
Ga51 Na7 3.178025 1_555
Ga51 Na29 3.266123 1_555
Ga51 Na8 3.266123 1_555
Ga51 Na13 3.409853 1_555
Ga51 Na24 3.409853 1_555
Ga53 Ga55 2.698833 1_555
Ga53 Na7 3.178025 1_555
Ga53 Na9 3.266123 1_555
Ga53 Na29 3.266123 1_555
Ga53 Na21 3.409853 1_555
Ga53 Na15 3.409853 1_555
Ga54 Ga6 2.761580 1_555
Ga54 Na23 3.178025 1_555
Ga54 Na18 3.266123 1_555
Ga54 Na25 3.266123 1_555
Ga54 Na20 3.409853 1_555
Ga54 Na11 3.409853 1_555
Ga55 In18 2.900481 1_555
Ga55 Na1 3.196559 1_555
Ga55 Na15 3.342302 1_555
Ga55 Na21 3.342302 1_555
Ga55 Na12 3.346782 1_555
Ga55 Na33 3.346782 1_555
Ga56 Ga57 2.793584 1_655
Ga56 In5 2.900488 1_555
Ga56 Na10 3.196570 1_555
Ga56 Na33 3.342302 1_655
Ga56 Na17 3.342302 1_655
Ga56 Na6 3.346782 1_555
Ga56 Na2 3.346782 1_555
Ga57 In15 2.900475 1_555
Ga57 Na18 3.196573 1_555
Ga57 Na6 3.342302 1_455
Ga57 Na32 3.342302 1_455
Ga57 Na16 3.346782 1_555
Ga57 Na17 3.346782 1_555
