# generated using pymatgen
data_K3Sn2S3BrO12
_symmetry_space_group_name_H-M   'P 1'
_cell_length_a   7.60670600
_cell_length_b   10.42461900
_cell_length_c   10.46138684
_cell_angle_alpha   60.72241291
_cell_angle_beta   90.00000000
_cell_angle_gamma   90.00000000
_symmetry_Int_Tables_number   1
_chemical_formula_structural   K3Sn2S3BrO12
_chemical_formula_sum   'K6 Sn4 S6 Br2 O24'
_cell_volume   723.58967417
_cell_formula_units_Z   2
loop_
 _symmetry_equiv_pos_site_id
 _symmetry_equiv_pos_as_xyz
  1  'x, y, z'
loop_
 _atom_site_type_symbol
 _atom_site_label
 _atom_site_symmetry_multiplicity
 _atom_site_fract_x
 _atom_site_fract_y
 _atom_site_fract_z
 _atom_site_occupancy
  K  K0  1  0.97616700  0.32651500  0.32375800  1
  K  K1  1  0.49794500  0.33362000  0.33111400  1
  K  K2  1  0.73731900  0.00896100  0.73965100  1
  K  K3  1  0.23731900  0.99103900  0.26034900  1
  K  K4  1  0.47616700  0.67348500  0.67624200  1
  K  K5  1  0.99794500  0.66638000  0.66888600  1
  Sn  Sn0  1  0.20127500  0.71964400  0.02841500  1
  Sn  Sn1  1  0.22622100  0.22833600  0.73870600  1
  Sn  Sn2  1  0.72622100  0.77166400  0.26129400  1
  Sn  Sn3  1  0.70127500  0.28035600  0.97158500  1
  S  S0  1  0.24452000  0.58814400  0.37558000  1
  S  S1  1  0.24728900  0.38776500  0.02604800  1
  S  S2  1  0.23648800  0.04307100  0.59322500  1
  S  S3  1  0.73648800  0.95692900  0.40677500  1
  S  S4  1  0.74728900  0.61223500  0.97395200  1
  S  S5  1  0.74452000  0.41185600  0.62442000  1
  Br  Br0  1  0.00045700  0.00065800  0.00136500  1
  Br  Br1  1  0.50045700  0.99934200  0.99863500  1
  O  O0  1  0.09195600  0.63332100  0.26557500  1
  O  O1  1  0.40852200  0.62970600  0.28456500  1
  O  O2  1  0.23702200  0.42428300  0.46942100  1
  O  O3  1  0.72961800  0.33665300  0.53755600  1
  O  O4  1  0.73862000  0.51005900  0.13266700  1
  O  O5  1  0.24300200  0.47402400  0.11005000  1
  O  O6  1  0.07729800  0.10123200  0.63860200  1
  O  O7  1  0.39052000  0.09652900  0.64711200  1
  O  O8  1  0.42110600  0.30640500  0.06549100  1
  O  O9  1  0.24148400  0.11332200  0.43209100  1
  O  O10  1  0.10090800  0.28265000  0.08052300  1
  O  O11  1  0.73276400  0.11803800  0.33721500  1
  O  O12  1  0.23276400  0.88196200  0.66278500  1
  O  O13  1  0.60090800  0.71735000  0.91947700  1
  O  O14  1  0.74148400  0.88667800  0.56790900  1
  O  O15  1  0.92110600  0.69359500  0.93450900  1
  O  O16  1  0.89052000  0.90347100  0.35288800  1
  O  O17  1  0.57729800  0.89876800  0.36139800  1
  O  O18  1  0.74300200  0.52597600  0.88995000  1
  O  O19  1  0.23862000  0.48994100  0.86733300  1
  O  O20  1  0.22961800  0.66334700  0.46244400  1
  O  O21  1  0.73702200  0.57571700  0.53057900  1
  O  O22  1  0.90852200  0.37029400  0.71543500  1
  O  O23  1  0.59195600  0.36667900  0.73442500  1
loop_
_geom_bond_atom_site_label_1
_geom_bond_atom_site_label_2
_geom_bond_distance
_geom_bond_site_symmetry_2
K0 O4 2.679782 1_555
K0 O9 2.798796 1_655
K0 O11 2.805674 1_555
K0 O5 2.849594 1_655
K0 O10 2.953369 1_655
K0 O3 2.960080 1_555
K0 O2 2.969363 1_655
K0 O6 3.064308 1_655
K0 O0 3.077583 1_655
K1 O4 2.703667 1_555
K1 O9 2.796934 1_555
K1 O3 2.799562 1_555
K1 O5 2.817917 1_555
K1 O11 2.846913 1_555
K1 O2 2.874638 1_555
K1 O1 2.959173 1_555
K1 O8 2.985774 1_555
K1 O7 3.116600 1_555
K2 O14 2.663473 1_545
K2 O6 2.781402 1_655
K2 O7 2.804493 1_555
K2 O13 2.874620 1_545
K2 O3 3.013107 1_555
K2 O15 3.219193 1_545
K3 O9 2.663473 1_565
K3 O17 2.781402 1_555
K3 O16 2.804493 1_455
K3 O10 2.874620 1_565
K3 O20 3.013107 1_555
K3 O8 3.219193 1_565
K4 O19 2.679782 1_555
K4 O14 2.798796 1_555
K4 O12 2.805674 1_555
K4 O18 2.849594 1_555
K4 O13 2.953369 1_555
K4 O20 2.960080 1_555
K4 O21 2.969363 1_555
K4 O17 3.064308 1_555
K4 O23 3.077583 1_555
K5 O19 2.703667 1_655
K5 O14 2.796934 1_555
K5 O20 2.799562 1_655
K5 O18 2.817917 1_555
K5 O12 2.846913 1_655
K5 O21 2.874638 1_555
K5 O22 2.959173 1_555
K5 O15 2.985774 1_555
K5 O16 3.116600 1_555
Br0 Sn1 3.123135 1_554
Br0 Sn0 3.191312 1_545
Br0 K3 3.214199 1_545
Br0 Sn2 3.330962 1_445
Br0 K2 3.358305 1_454
Br1 Sn2 3.123135 1_556
Br1 Sn3 3.191312 1_565
Br1 K2 3.214199 1_565
Br1 Sn1 3.330962 1_565
Br1 K3 3.358305 1_556
O0 S0 1.537151 1_555
O0 Sn0 2.339456 1_555
O1 S0 1.499033 1_555
O2 S0 1.498240 1_555
O2 Sn1 2.546960 1_555
O3 S5 1.466288 1_555
O4 S4 1.471720 1_554
O5 S1 1.534535 1_555
O5 Sn0 2.290731 1_555
O6 S2 1.529957 1_555
O6 Sn1 2.343668 1_555
O7 S2 1.519359 1_555
O7 Sn1 2.378195 1_555
O8 S1 1.515078 1_555
O8 Sn3 2.416941 1_554
O9 S2 1.473724 1_555
O10 S1 1.467841 1_555
O11 S3 1.468225 1_545
O12 S2 1.468225 1_565
O13 S4 1.467841 1_555
O14 S3 1.473724 1_555
O15 S4 1.515078 1_555
O15 Sn0 2.416941 1_656
O16 S3 1.519359 1_555
O16 Sn2 2.378195 1_555
O17 S3 1.529957 1_555
O17 Sn2 2.343668 1_555
O18 S4 1.534535 1_555
O18 Sn3 2.290731 1_555
O19 S1 1.471720 1_556
O20 S0 1.466288 1_555
O21 S5 1.498240 1_555
O21 Sn2 2.546960 1_555
O22 S5 1.499033 1_555
O23 S5 1.537151 1_555
O23 Sn3 2.339456 1_555
