# generated using pymatgen
data_IrOs2Br
_symmetry_space_group_name_H-M   'P 1'
_cell_length_a   4.45707223
_cell_length_b   4.45707223
_cell_length_c   4.45707223
_cell_angle_alpha   60.00000000
_cell_angle_beta   60.00000000
_cell_angle_gamma   60.00000000
_symmetry_Int_Tables_number   1
_chemical_formula_structural   IrOs2Br
_chemical_formula_sum   'Ir1 Os2 Br1'
_cell_volume   62.60860389
_cell_formula_units_Z   1
loop_
 _symmetry_equiv_pos_site_id
 _symmetry_equiv_pos_as_xyz
  1  'x, y, z'
loop_
 _atom_site_type_symbol
 _atom_site_label
 _atom_site_symmetry_multiplicity
 _atom_site_fract_x
 _atom_site_fract_y
 _atom_site_fract_z
 _atom_site_occupancy
  Ir  Ir0  1  0.50000000  0.50000000  0.50000000  1
  Os  Os0  1  0.25000000  0.25000000  0.25000000  1
  Os  Os1  1  0.75000000  0.75000000  0.75000000  1
  Br  Br0  1  0.00000000  0.00000000  0.00000000  1
loop_
_geom_bond_atom_site_label_1
_geom_bond_atom_site_label_2
_geom_bond_distance
_geom_bond_site_symmetry_2
Ir0 Os1 2.729388 1_545
Ir0 Os0 2.729388 1_565
Ir0 Os1 2.729388 1_455
Ir0 Os0 2.729388 1_655
Ir0 Os0 2.729388 1_556
Ir0 Os1 2.729388 1_555
Ir0 Os0 2.729388 1_555
Ir0 Os1 2.729388 1_554
Br0 Os0 2.729388 1_455
Br0 Os1 2.729388 1_454
Br0 Os1 2.729388 1_544
Br0 Os0 2.729388 1_545
Br0 Os1 2.729388 1_444
Br0 Os1 2.729388 1_445
Br0 Os0 2.729388 1_554
Br0 Os0 2.729388 1_555
Br0 Ir0 3.151626 1_544
Br0 Ir0 3.151626 1_545
Br0 Ir0 3.151626 1_455
Br0 Ir0 3.151626 1_554
Br0 Ir0 3.151626 1_445
Br0 Ir0 3.151626 1_454
