# generated using pymatgen
data_Fe3H6C6(N3Cl4)2
_symmetry_space_group_name_H-M   'P 1'
_cell_length_a   9.95489838
_cell_length_b   9.95489838
_cell_length_c   6.15264800
_cell_angle_alpha   90.00000000
_cell_angle_beta   90.00000000
_cell_angle_gamma   120.00000253
_symmetry_Int_Tables_number   1
_chemical_formula_structural   Fe3H6C6(N3Cl4)2
_chemical_formula_sum   'Fe3 H6 C6 N6 Cl8'
_cell_volume   528.03942832
_cell_formula_units_Z   1
loop_
 _symmetry_equiv_pos_site_id
 _symmetry_equiv_pos_as_xyz
  1  'x, y, z'
loop_
 _atom_site_type_symbol
 _atom_site_label
 _atom_site_symmetry_multiplicity
 _atom_site_fract_x
 _atom_site_fract_y
 _atom_site_fract_z
 _atom_site_occupancy
  Fe  Fe0  1  0.00000000  0.00000000  0.00000000  1
  Fe  Fe1  1  0.33333300  0.66666700  0.14107500  1
  Fe  Fe2  1  0.66666700  0.33333300  0.85892500  1
  H  H0  1  0.08603300  0.39037600  0.65032400  1
  H  H1  1  0.30434400  0.91396700  0.65032400  1
  H  H2  1  0.60962400  0.69565600  0.65032400  1
  H  H3  1  0.91396700  0.60962400  0.34967600  1
  H  H4  1  0.69565600  0.08603300  0.34967600  1
  H  H5  1  0.39037600  0.30434400  0.34967600  1
  C  C0  1  0.06300400  0.28536300  0.73507400  1
  C  C1  1  0.22235900  0.93699600  0.73507400  1
  C  C2  1  0.71463700  0.77764100  0.73507400  1
  C  C3  1  0.93699600  0.71463700  0.26492600  1
  C  C4  1  0.77764100  0.06300400  0.26492600  1
  C  C5  1  0.28536300  0.22235900  0.26492600  1
  N  N0  1  0.03933900  0.17425600  0.82721200  1
  N  N1  1  0.13491700  0.96066100  0.82721200  1
  N  N2  1  0.82574400  0.86508300  0.82721200  1
  N  N3  1  0.96066100  0.82574400  0.17278800  1
  N  N4  1  0.86508300  0.03933900  0.17278800  1
  N  N5  1  0.17425600  0.13491700  0.17278800  1
  Cl  Cl0  1  0.33333300  0.66666700  0.78135700  1
  Cl  Cl1  1  0.66666700  0.33333300  0.21864300  1
  Cl  Cl2  1  0.52006700  0.62726700  0.25732600  1
  Cl  Cl3  1  0.10720000  0.47993300  0.25732600  1
  Cl  Cl4  1  0.37273300  0.89280000  0.25732600  1
  Cl  Cl5  1  0.47993300  0.37273300  0.74267400  1
  Cl  Cl6  1  0.89280000  0.52006700  0.74267400  1
  Cl  Cl7  1  0.62726700  0.10720000  0.74267400  1
loop_
_geom_bond_atom_site_label_1
_geom_bond_atom_site_label_2
_geom_bond_distance
_geom_bond_site_symmetry_2
Fe0 N5 1.900895 1_555
Fe0 N2 1.900895 1_444
Fe0 N0 1.900895 1_554
Fe0 N3 1.900895 1_445
Fe0 N1 1.900895 1_544
Fe0 N4 1.900895 1_455
C0 H0 1.085193 1_555
C0 N0 1.157439 1_555
C1 H1 1.085201 1_555
C1 N1 1.157439 1_555
C2 H2 1.085195 1_555
C2 N2 1.157439 1_555
C3 H3 1.085193 1_555
C3 N3 1.157439 1_555
C4 H4 1.085201 1_555
C4 N4 1.157439 1_555
C5 H5 1.085195 1_555
C5 N5 1.157439 1_555
Cl0 Fe1 2.213218 1_556
Cl1 Fe2 2.213218 1_554
Cl2 Fe1 2.202297 1_555
Cl3 Fe1 2.202290 1_555
Cl4 Fe1 2.202287 1_555
Cl5 Fe2 2.202297 1_555
Cl6 Fe2 2.202290 1_555
Cl7 Fe2 2.202287 1_555
