# generated using pymatgen
data_Mn2As
_symmetry_space_group_name_H-M   'P 1'
_cell_length_a   3.61501500
_cell_length_b   3.61501500
_cell_length_c   6.33491700
_cell_angle_alpha   90.00000000
_cell_angle_beta   90.00000000
_cell_angle_gamma   90.00000000
_symmetry_Int_Tables_number   1
_chemical_formula_structural   Mn2As
_chemical_formula_sum   'Mn4 As2'
_cell_volume   82.78680774
_cell_formula_units_Z   2
loop_
 _symmetry_equiv_pos_site_id
 _symmetry_equiv_pos_as_xyz
  1  'x, y, z'
loop_
 _atom_site_type_symbol
 _atom_site_label
 _atom_site_symmetry_multiplicity
 _atom_site_fract_x
 _atom_site_fract_y
 _atom_site_fract_z
 _atom_site_occupancy
  Mn  Mn0  1  0.50000000  0.00000000  0.35281800  1
  Mn  Mn1  1  0.50000000  0.50000000  0.00000000  1
  Mn  Mn2  1  0.00000000  0.00000000  0.00000000  1
  Mn  Mn3  1  0.00000000  0.50000000  0.64718200  1
  As  As0  1  0.50000000  0.00000000  0.73832600  1
  As  As1  1  0.00000000  0.50000000  0.26167400  1
loop_
_geom_bond_atom_site_label_1
_geom_bond_atom_site_label_2
_geom_bond_distance
_geom_bond_site_symmetry_2
As0 Mn0 2.442161 1_555
As0 Mn1 2.452549 1_556
As0 Mn2 2.452549 1_656
As0 Mn2 2.452549 1_556
As0 Mn1 2.452549 1_546
As0 Mn3 2.620600 1_645
As0 Mn3 2.620600 1_555
As0 Mn3 2.620600 1_655
As0 Mn3 2.620600 1_545
As1 Mn3 2.442161 1_555
As1 Mn1 2.452549 1_555
As1 Mn2 2.452549 1_555
As1 Mn1 2.452549 1_455
As1 Mn2 2.452549 1_565
As1 Mn0 2.620600 1_455
As1 Mn0 2.620600 1_555
As1 Mn0 2.620600 1_465
As1 Mn0 2.620600 1_565
