# generated using pymatgen
data_LuAgS2
_symmetry_space_group_name_H-M   'P 1'
_cell_length_a   7.03232281
_cell_length_b   7.03232281
_cell_length_c   7.03232281
_cell_angle_alpha   135.10732894
_cell_angle_beta   135.08996213
_cell_angle_gamma   65.37696622
_symmetry_Int_Tables_number   1
_chemical_formula_structural   LuAgS2
_chemical_formula_sum   'Lu2 Ag2 S4'
_cell_volume   170.74344831
_cell_formula_units_Z   2
loop_
 _symmetry_equiv_pos_site_id
 _symmetry_equiv_pos_as_xyz
  1  'x, y, z'
loop_
 _atom_site_type_symbol
 _atom_site_label
 _atom_site_symmetry_multiplicity
 _atom_site_fract_x
 _atom_site_fract_y
 _atom_site_fract_z
 _atom_site_occupancy
  Lu  Lu0  1  0.11531800  0.62515500  0.99016300  1
  Lu  Lu1  1  0.36500900  0.37484500  0.49016300  1
  Ag  Ag0  1  0.62492000  0.12175000  0.00317000  1
  Ag  Ag1  1  0.88142000  0.87825000  0.50317000  1
  S  S0  1  0.88896300  0.39777600  0.99118700  1
  S  S1  1  0.34907900  0.85259800  0.99648100  1
  S  S2  1  0.59341100  0.60222400  0.49118700  1
  S  S3  1  0.14388300  0.14740200  0.49648100  1
loop_
_geom_bond_atom_site_label_1
_geom_bond_atom_site_label_2
_geom_bond_distance
_geom_bond_site_symmetry_2
Lu0 S0 2.691509 1_455
Lu0 S1 2.692474 1_555
Lu0 S2 2.694259 1_455
Lu0 S3 2.698163 1_555
Lu0 S3 2.698163 1_566
Lu0 S2 2.705205 1_556
Lu1 S2 2.691503 1_555
Lu1 S3 2.692480 1_555
Lu1 S0 2.694261 1_454
Lu1 S1 2.698161 1_544
Lu1 S1 2.698166 1_555
Lu1 S0 2.705202 1_555
Ag0 S3 2.667457 1_655
Ag0 S2 2.695765 1_544
Ag0 S2 2.695765 1_555
Ag0 S3 2.738870 1_554
Ag1 S1 2.667457 1_655
Ag1 S0 2.695765 1_565
Ag1 S0 2.695765 1_554
Ag1 S1 2.738870 1_554
