# generated using pymatgen
data_Na4Ga3Si3NO14
_symmetry_space_group_name_H-M   'P 1'
_cell_length_a   9.22651473
_cell_length_b   9.26344116
_cell_length_c   9.40644479
_cell_angle_alpha   89.69481915
_cell_angle_beta   90.06347053
_cell_angle_gamma   89.40421226
_symmetry_Int_Tables_number   1
_chemical_formula_structural   Na4Ga3Si3NO14
_chemical_formula_sum   'Na8 Ga6 Si6 N2 O28'
_cell_volume   803.90661580
_cell_formula_units_Z   2
loop_
 _symmetry_equiv_pos_site_id
 _symmetry_equiv_pos_as_xyz
  1  'x, y, z'
loop_
 _atom_site_type_symbol
 _atom_site_label
 _atom_site_symmetry_multiplicity
 _atom_site_fract_x
 _atom_site_fract_y
 _atom_site_fract_z
 _atom_site_occupancy
  Na  Na0  1  0.19483626  0.18096351  0.19334599  1
  Na  Na1  1  0.18517242  0.80243005  0.80221742  1
  Na  Na2  1  0.32843901  0.31239771  0.68188529  1
  Na  Na3  1  0.29269626  0.69177331  0.32503402  1
  Na  Na4  1  0.68407222  0.31759069  0.29997172  1
  Na  Na5  1  0.70337673  0.69568577  0.70536641  1
  Na  Na6  1  0.80933403  0.18553336  0.81976041  1
  Na  Na7  1  0.79698532  0.80387333  0.21691211  1
  Ga  Ga0  1  0.98619376  0.75326667  0.54224313  1
  Ga  Ga1  1  0.25263836  0.48841639  0.96931476  1
  Ga  Ga2  1  0.49543011  0.98873908  0.73838210  1
  Ga  Ga3  1  0.47558375  0.98546749  0.20935547  1
  Ga  Ga4  1  0.76080454  0.49325026  0.00015320  1
  Ga  Ga5  1  0.99756191  0.24888266  0.50919590  1
  Si  Si0  1  0.00256193  0.48061434  0.74516731  1
  Si  Si1  1  0.26098337  0.00981580  0.47991559  1
  Si  Si2  1  0.49109327  0.73215385  0.98021470  1
  Si  Si3  1  0.51067023  0.24478378  0.98814023  1
  Si  Si4  1  0.76963492  0.00099640  0.52578624  1
  Si  Si5  1  0.98286864  0.50939481  0.28178241  1
  N  N0  1  0.58829116  0.40877039  0.53000557  1
  N  N1  1  0.17445105  0.06440114  0.91239337  1
  O  O0  1  0.07606669  0.34187015  0.66231016  1
  O  O1  1  0.04044629  0.64631658  0.37144251  1
  O  O2  1  0.14572782  0.46040371  0.21081076  1
  O  O3  1  0.14223820  0.55863363  0.82051230  1
  O  O4  1  0.14618791  0.13806886  0.43455568  1
  O  O5  1  0.17361334  0.86342940  0.54557580  1
  O  O6  1  0.36469449  0.07152287  0.60750857  1
  O  O7  1  0.31832731  0.95393540  0.32416233  1
  O  O8  1  0.38736183  0.35004171  0.91629569  1
  O  O9  1  0.35226133  0.64189332  0.04522031  1
  O  O10  1  0.44301928  0.16395292  0.13038382  1
  O  O11  1  0.43454123  0.83224372  0.84594158  1
  O  O12  1  0.30369529  0.76368949  0.56546016  1
  O  O13  1  0.56322331  0.13235290  0.86353110  1
  O  O14  1  0.54915218  0.83359004  0.10867960  1
  O  O15  1  0.65313333  0.33124735  0.05055924  1
  O  O16  1  0.63151235  0.63262495  0.93118444  1
  O  O17  1  0.67898655  0.09069301  0.39599022  1
  O  O18  1  0.65626272  0.93065584  0.63815309  1
  O  O19  1  0.86995845  0.88321241  0.44215184  1
  O  O20  1  0.85676169  0.13762404  0.59284698  1
  O  O21  1  0.85831698  0.55950466  0.16338175  1
  O  O22  1  0.87883292  0.42423012  0.85803536  1
  O  O23  1  0.92350487  0.36382272  0.36209424  1
  O  O24  1  0.91549639  0.58145866  0.62816471  1
  O  O25  1  0.63166967  0.95665854  0.32525372  1
  O  O26  1  0.94743199  0.82701526  0.72992198  1
  O  O27  1  0.11689633  0.38010693  0.07432870  1
loop_
_geom_bond_atom_site_label_1
_geom_bond_atom_site_label_2
_geom_bond_distance
_geom_bond_site_symmetry_2
Na0 O27 2.263231 1_555
Na0 O4 2.346006 1_555
Na0 O10 2.369718 1_555
Na0 O2 2.629320 1_555
Na0 O7 2.674836 1_545
Na1 O3 2.302498 1_555
Na1 O26 2.304451 1_455
Na1 O11 2.356155 1_555
Na1 O5 2.478331 1_555
Na1 O12 2.508011 1_555
Na2 O8 2.299679 1_555
Na2 O0 2.348559 1_555
Na2 O6 2.362589 1_555
Na3 O12 2.363406 1_555
Na3 O1 2.409417 1_555
Na3 O7 2.442428 1_555
Na3 O9 2.730222 1_555
Na3 O2 2.769215 1_555
Na4 O17 2.284222 1_555
Na4 O23 2.329080 1_555
Na4 O15 2.365630 1_555
Na5 O16 2.300182 1_555
Na5 O18 2.300319 1_555
Na5 O24 2.333584 1_555
Na5 O26 2.581221 1_555
Na6 O20 2.225408 1_555
Na6 O22 2.338259 1_555
Na6 O13 2.364669 1_555
Na7 O25 2.311303 1_555
Na7 O19 2.346508 1_555
Na7 O21 2.384158 1_555
Na7 O14 2.513910 1_555
Ga0 O19 1.855913 1_555
Ga0 O24 1.902822 1_555
Ga0 O26 1.928831 1_555
Ga0 O1 1.954936 1_655
Ga0 O5 2.017307 1_655
Ga1 O3 1.842059 1_555
Ga1 O8 1.847151 1_555
Ga1 O9 1.847299 1_556
Ga1 O27 1.889259 1_556
Ga2 O18 1.836382 1_555
Ga2 O11 1.855644 1_555
Ga2 O6 1.877762 1_565
Ga2 O13 1.891896 1_565
Ga3 O25 1.821850 1_555
Ga3 O14 1.825569 1_555
Ga3 O10 1.830813 1_565
Ga3 O7 1.834578 1_555
Ga4 O22 1.838378 1_554
Ga4 O16 1.862303 1_554
Ga4 O15 1.867698 1_555
Ga4 O21 1.887341 1_555
Ga5 O0 1.834356 1_655
Ga5 O20 1.841326 1_555
Ga5 O4 1.845990 1_655
Ga5 O23 1.866085 1_555
N0 Na4 2.486886 1_555
N0 Na2 2.936782 1_555
N1 Na1 2.644805 1_545
N1 Na0 2.866881 1_556
O0 Si0 1.647111 1_555
O1 Si5 1.620704 1_455
O2 O27 1.511866 1_555
O2 Si5 1.703167 1_455
O3 Si0 1.645675 1_555
O4 Si1 1.637926 1_555
O5 Si1 1.698547 1_565
O6 Si1 1.642864 1_555
O7 Si1 1.642699 1_565
O8 Si3 1.634018 1_555
O9 Si2 1.652984 1_554
O10 Si3 1.655724 1_554
O11 Si2 1.644130 1_555
O12 O5 1.517803 1_555
O13 Si3 1.642399 1_555
O14 Si2 1.628266 1_554
O15 Si3 1.655052 1_554
O16 Si2 1.649936 1_555
O17 O25 1.481342 1_545
O17 Si4 1.689091 1_555
O18 Si4 1.626418 1_565
O19 Si4 1.629701 1_565
O20 Si4 1.635396 1_555
O21 Si5 1.660433 1_555
O22 Si0 1.646933 1_655
O23 Si5 1.641516 1_555
O24 Si0 1.643390 1_655
