# generated using pymatgen
data_K2AgC3(SN)3
_symmetry_space_group_name_H-M   'P 1'
_cell_length_a   20.27050300
_cell_length_b   9.96864000
_cell_length_c   12.53213281
_cell_angle_alpha   55.55622905
_cell_angle_beta   90.00000000
_cell_angle_gamma   90.00000000
_symmetry_Int_Tables_number   1
_chemical_formula_structural   K2AgC3(SN)3
_chemical_formula_sum   'K16 Ag8 C24 S24 N24'
_cell_volume   2088.39074290
_cell_formula_units_Z   8
loop_
 _symmetry_equiv_pos_site_id
 _symmetry_equiv_pos_as_xyz
  1  'x, y, z'
loop_
 _atom_site_type_symbol
 _atom_site_label
 _atom_site_symmetry_multiplicity
 _atom_site_fract_x
 _atom_site_fract_y
 _atom_site_fract_z
 _atom_site_occupancy
  K  K0  1  0.89264300  0.50835800  0.12300000  1
  K  K1  1  0.09793400  0.03096200  0.60978200  1
  K  K2  1  0.40206600  0.03096200  0.10978200  1
  K  K3  1  0.76449800  0.20540000  0.04273300  1
  K  K4  1  0.10735700  0.49164200  0.87700000  1
  K  K5  1  0.26449800  0.79460000  0.45726700  1
  K  K6  1  0.23550200  0.79460000  0.95726700  1
  K  K7  1  0.71978600  0.70163900  0.28860500  1
  K  K8  1  0.59793400  0.96903800  0.89021800  1
  K  K9  1  0.60735700  0.50835800  0.62300000  1
  K  K10  1  0.90206600  0.96903800  0.39021800  1
  K  K11  1  0.39264300  0.49164200  0.37700000  1
  K  K12  1  0.73550200  0.20540000  0.54273300  1
  K  K13  1  0.21978600  0.29836100  0.21139500  1
  K  K14  1  0.78021400  0.70163900  0.78860500  1
  K  K15  1  0.28021400  0.29836100  0.71139500  1
  Ag  Ag0  1  0.95183400  0.50194900  0.62152300  1
  Ag  Ag1  1  0.42801300  0.98284800  0.59988800  1
  Ag  Ag2  1  0.04816600  0.49805100  0.37847700  1
  Ag  Ag3  1  0.92801300  0.01715200  0.90011200  1
  Ag  Ag4  1  0.45183400  0.49805100  0.87847700  1
  Ag  Ag5  1  0.54816600  0.50194900  0.12152300  1
  Ag  Ag6  1  0.07198700  0.98284800  0.09988800  1
  Ag  Ag7  1  0.57198700  0.01715200  0.40011200  1
  C  C0  1  0.12788100  0.47153100  0.63255100  1
  C  C1  1  0.61258200  0.05144500  0.12311800  1
  C  C2  1  0.88741800  0.05144500  0.62311800  1
  C  C3  1  0.45190200  0.31657100  0.72436500  1
  C  C4  1  0.21802900  0.54139100  0.36102500  1
  C  C5  1  0.22765800  0.07039300  0.08625500  1
  C  C6  1  0.87211900  0.52846900  0.36744900  1
  C  C7  1  0.62788100  0.52846900  0.86744900  1
  C  C8  1  0.78197100  0.45860900  0.63897500  1
  C  C9  1  0.38741800  0.94855500  0.87688200  1
  C  C10  1  0.95190200  0.68342900  0.77563500  1
  C  C11  1  0.72765800  0.92960700  0.41374500  1
  C  C12  1  0.28197100  0.54139100  0.86102500  1
  C  C13  1  0.04809800  0.31657100  0.22436500  1
  C  C14  1  0.77234200  0.92960700  0.91374500  1
  C  C15  1  0.43587900  0.78008900  0.45380700  1
  C  C16  1  0.06412100  0.78008900  0.95380700  1
  C  C17  1  0.54809800  0.68342900  0.27563500  1
  C  C18  1  0.11258200  0.94855500  0.37688200  1
  C  C19  1  0.56412100  0.21991100  0.54619300  1
  C  C20  1  0.37211900  0.47153100  0.13255100  1
  C  C21  1  0.27234200  0.07039300  0.58625500  1
  C  C22  1  0.71802900  0.45860900  0.13897500  1
  C  C23  1  0.93587900  0.21991100  0.04619300  1
  S  S0  1  0.17726100  0.10984700  0.96811900  1
  S  S1  1  0.50217600  0.72813600  0.15031800  1
  S  S2  1  0.83986000  0.41963200  0.74531400  1
  S  S3  1  0.33986000  0.58036800  0.75468600  1
  S  S4  1  0.67726100  0.89015300  0.53188100  1
  S  S5  1  0.00217600  0.27186400  0.34968200  1
  S  S6  1  0.01400300  0.77343700  0.06030500  1
  S  S7  1  0.82273900  0.89015300  0.03188100  1
  S  S8  1  0.44495000  0.86954500  0.83562700  1
  S  S9  1  0.49782400  0.27186400  0.84968200  1
  S  S10  1  0.05505000  0.86954500  0.33562700  1
  S  S11  1  0.99782400  0.72813600  0.65031800  1
  S  S12  1  0.98599700  0.22656300  0.93969500  1
  S  S13  1  0.43044000  0.35550200  0.13172500  1
  S  S14  1  0.06956000  0.35550200  0.63172500  1
  S  S15  1  0.56956000  0.64449800  0.86827500  1
  S  S16  1  0.55505000  0.13045500  0.16437300  1
  S  S17  1  0.66014000  0.41963200  0.24531400  1
  S  S18  1  0.51400300  0.22656300  0.43969500  1
  S  S19  1  0.94495000  0.13045500  0.66437300  1
  S  S20  1  0.16014000  0.58036800  0.25468600  1
  S  S21  1  0.93044000  0.64449800  0.36827500  1
  S  S22  1  0.48599700  0.77343700  0.56030500  1
  S  S23  1  0.32273900  0.10984700  0.46811900  1
  N  N0  1  0.73994500  0.48527000  0.56346400  1
  N  N1  1  0.16958900  0.55089900  0.63781300  1
  N  N2  1  0.83041100  0.44910100  0.36218700  1
  N  N3  1  0.23994500  0.51473000  0.93653600  1
  N  N4  1  0.66958900  0.44910100  0.86218700  1
  N  N5  1  0.41848500  0.34894300  0.63548400  1
  N  N6  1  0.89910300  0.21593800  0.12144200  1
  N  N7  1  0.65356200  0.99828900  0.08895400  1
  N  N8  1  0.73596100  0.95603600  0.82983000  1
  N  N9  1  0.84643800  0.99828900  0.58895400  1
  N  N10  1  0.08151500  0.34894300  0.13548400  1
  N  N11  1  0.26403900  0.04396400  0.17017000  1
  N  N12  1  0.26005500  0.51473000  0.43653600  1
  N  N13  1  0.15356200  0.00171100  0.41104600  1
  N  N14  1  0.76005500  0.48527000  0.06346400  1
  N  N15  1  0.33041100  0.55089900  0.13781300  1
  N  N16  1  0.60089700  0.21593800  0.62144200  1
  N  N17  1  0.76403900  0.95603600  0.32983000  1
  N  N18  1  0.91848500  0.65105700  0.86451600  1
  N  N19  1  0.10089700  0.78406200  0.87855800  1
  N  N20  1  0.58151500  0.65105700  0.36451600  1
  N  N21  1  0.39910300  0.78406200  0.37855800  1
  N  N22  1  0.34643800  0.00171100  0.91104600  1
  N  N23  1  0.23596100  0.04396400  0.67017000  1
loop_
_geom_bond_atom_site_label_1
_geom_bond_atom_site_label_2
_geom_bond_distance
_geom_bond_site_symmetry_2
K0 N18 2.752961 1_554
K0 N14 2.833238 1_555
K0 N6 2.929046 1_555
K0 N2 2.987043 1_555
K0 S5 3.313892 1_655
K0 S6 3.362018 1_655
K0 S7 3.589011 1_555
K1 N19 2.833566 1_545
K1 N13 2.895006 1_555
K1 N23 2.920377 1_555
K1 S5 3.362291 1_555
K1 S11 3.428446 1_445
K1 S19 3.440332 1_455
K1 S14 3.446661 1_555
K2 N21 2.833566 1_545
K2 N22 2.895006 1_554
K2 N11 2.920377 1_555
K2 S9 3.362291 1_554
K2 S1 3.428446 1_545
K2 S16 3.440332 1_555
K2 S13 3.446661 1_555
K3 N7 2.881340 1_545
K3 N4 2.916269 1_554
K3 N6 2.923353 1_555
K3 N14 2.946049 1_555
K3 N17 3.001223 1_545
K3 S7 3.430968 1_545
K3 S2 3.432613 1_554
K4 N10 2.752961 1_556
K4 N3 2.833238 1_555
K4 N19 2.929046 1_555
K4 N1 2.987043 1_555
K4 S11 3.313892 1_455
K4 S12 3.362018 1_455
K4 S0 3.589011 1_555
K5 N13 2.881340 1_565
K5 N1 2.916269 1_555
K5 N21 2.923353 1_555
K5 N12 2.946049 1_555
K5 N11 3.001223 1_565
K5 S23 3.430968 1_565
K5 S3 3.432613 1_555
K6 N22 2.881340 1_565
K6 N15 2.916269 1_556
K6 N19 2.923353 1_555
K6 N3 2.946049 1_555
K6 N23 3.001223 1_565
K6 S0 3.430968 1_565
K6 S20 3.432613 1_556
K7 N0 2.877490 1_555
K7 N7 2.904742 1_555
K7 N20 2.910750 1_555
K7 N17 2.997484 1_555
K7 N2 3.096838 1_555
K7 S17 3.374079 1_555
K7 S7 3.376160 1_555
K8 N16 2.833566 1_565
K8 N7 2.895006 1_556
K8 N8 2.920377 1_555
K8 S1 3.362291 1_556
K8 S9 3.428446 1_565
K8 S8 3.440332 1_555
K8 S15 3.446661 1_555
K9 N20 2.752961 1_555
K9 N0 2.833238 1_555
K9 N16 2.929046 1_555
K9 N4 2.987043 1_555
K9 S9 3.313892 1_555
K9 S22 3.362018 1_555
K9 S4 3.589011 1_555
K10 N6 2.833566 1_565
K10 N9 2.895006 1_555
K10 N17 2.920377 1_555
K10 S11 3.362291 1_555
K10 S5 3.428446 1_665
K10 S10 3.440332 1_655
K10 S21 3.446661 1_555
K11 N5 2.752961 1_555
K11 N12 2.833238 1_555
K11 N21 2.929046 1_555
K11 N15 2.987043 1_555
K11 S1 3.313892 1_555
K11 S18 3.362018 1_555
K11 S23 3.589011 1_555
K12 N9 2.881340 1_545
K12 N2 2.916269 1_555
K12 N16 2.923353 1_555
K12 N0 2.946049 1_555
K12 N8 3.001223 1_545
K12 S4 3.430968 1_545
K12 S17 3.432613 1_555
K13 N3 2.877490 1_554
K13 N13 2.904742 1_555
K13 N10 2.910750 1_555
K13 N11 2.997484 1_555
K13 N15 3.096838 1_555
K13 S20 3.374079 1_555
K13 S23 3.376160 1_555
K14 N14 2.877490 1_556
K14 N9 2.904742 1_555
K14 N18 2.910750 1_555
K14 N8 2.997484 1_555
K14 N4 3.096838 1_555
K14 S2 3.374079 1_555
K14 S4 3.376160 1_555
K15 N12 2.877490 1_555
K15 N22 2.904742 1_555
K15 N5 2.910750 1_555
K15 N23 2.997484 1_555
K15 N1 3.096838 1_555
K15 S3 3.374079 1_555
K15 S0 3.376160 1_555
Ag0 S2 2.606128 1_555
Ag0 S11 2.646455 1_555
Ag0 S21 2.679245 1_555
Ag0 S14 2.762461 1_655
Ag1 S8 2.519315 1_555
Ag1 S23 2.553155 1_565
Ag1 S22 2.675219 1_555
Ag1 S18 2.730164 1_565
Ag2 S20 2.606128 1_555
Ag2 S5 2.646455 1_555
Ag2 S14 2.679245 1_555
Ag2 S21 2.762461 1_455
Ag3 S19 2.519315 1_555
Ag3 S7 2.553155 1_546
Ag3 S12 2.675219 1_555
Ag3 S6 2.730164 1_646
Ag4 S3 2.606128 1_555
Ag4 S9 2.646455 1_555
Ag4 S13 2.679245 1_556
Ag4 S15 2.762461 1_555
Ag5 S17 2.606128 1_555
Ag5 S1 2.646455 1_555
Ag5 S15 2.679245 1_554
Ag5 S13 2.762461 1_555
Ag6 S10 2.519315 1_555
Ag6 S0 2.553155 1_564
Ag6 S6 2.675219 1_555
Ag6 S12 2.730164 1_464
Ag7 S16 2.519315 1_555
Ag7 S4 2.553155 1_545
Ag7 S18 2.675219 1_555
Ag7 S22 2.730164 1_545
C0 N1 1.184957 1_555
C0 S14 1.658035 1_555
C0 K4 3.208246 1_555
C1 N7 1.187759 1_545
C1 S16 1.645696 1_555
C2 N9 1.187759 1_545
C2 S19 1.645696 1_555
C3 N5 1.181980 1_555
C3 S9 1.655240 1_555
C4 N12 1.186321 1_555
C4 S20 1.648686 1_555
C5 N11 1.185656 1_555
C5 S0 1.652722 1_554
C6 N2 1.184957 1_555
C6 S21 1.658035 1_555
C6 K0 3.208246 1_555
C7 N4 1.184957 1_555
C7 S15 1.658035 1_555
C7 K9 3.208246 1_555
C8 N0 1.186321 1_555
C8 S2 1.648686 1_555
C9 N22 1.187759 1_565
C9 S8 1.645696 1_555
C10 N18 1.181980 1_555
C10 S11 1.655240 1_555
C11 N17 1.185656 1_555
C11 S4 1.652722 1_555
C12 N3 1.186321 1_555
C12 S3 1.648686 1_555
C13 N10 1.181980 1_555
C13 S5 1.655240 1_555
C14 N8 1.185656 1_555
C14 S7 1.652722 1_556
C15 N21 1.185052 1_555
C15 S22 1.648531 1_555
C16 N19 1.185052 1_555
C16 S6 1.648531 1_556
C17 N20 1.181980 1_555
C17 S1 1.655240 1_555
C18 N13 1.187759 1_565
C18 S10 1.645696 1_555
C19 N16 1.185052 1_555
C19 S18 1.648531 1_555
C20 N15 1.184957 1_555
C20 S13 1.658035 1_555
C20 K11 3.208246 1_555
C21 N23 1.185656 1_555
C21 S23 1.652722 1_555
C22 N14 1.186321 1_555
C22 S17 1.648686 1_555
C23 N6 1.185052 1_555
C23 S12 1.648531 1_554
