# generated using pymatgen
data_Ta2CuO6
_symmetry_space_group_name_H-M   'P 1'
_cell_length_a   7.54650300
_cell_length_b   7.56585300
_cell_length_c   7.60782200
_cell_angle_alpha   90.00000000
_cell_angle_beta   90.00000000
_cell_angle_gamma   90.00000000
_symmetry_Int_Tables_number   1
_chemical_formula_structural   Ta2CuO6
_chemical_formula_sum   'Ta8 Cu4 O24'
_cell_volume   434.37416877
_cell_formula_units_Z   4
loop_
 _symmetry_equiv_pos_site_id
 _symmetry_equiv_pos_as_xyz
  1  'x, y, z'
loop_
 _atom_site_type_symbol
 _atom_site_label
 _atom_site_symmetry_multiplicity
 _atom_site_fract_x
 _atom_site_fract_y
 _atom_site_fract_z
 _atom_site_occupancy
  Ta  Ta0  1  0.24797200  0.25590100  0.24959400  1
  Ta  Ta1  1  0.24797200  0.25590100  0.75040600  1
  Ta  Ta2  1  0.24797200  0.74409900  0.24959400  1
  Ta  Ta3  1  0.24797200  0.74409900  0.75040600  1
  Ta  Ta4  1  0.75202800  0.25590100  0.24959400  1
  Ta  Ta5  1  0.75202800  0.25590100  0.75040600  1
  Ta  Ta6  1  0.75202800  0.74409900  0.24959400  1
  Ta  Ta7  1  0.75202800  0.74409900  0.75040600  1
  Cu  Cu0  1  0.50000000  0.00000000  0.50000000  1
  Cu  Cu1  1  0.50000000  0.50000000  0.00000000  1
  Cu  Cu2  1  0.00000000  0.00000000  0.00000000  1
  Cu  Cu3  1  0.00000000  0.00000000  0.50000000  1
  O  O0  1  0.50000000  0.81977500  0.68808400  1
  O  O1  1  0.50000000  0.81977500  0.31191600  1
  O  O2  1  0.31994000  0.30785400  0.00000000  1
  O  O3  1  0.31994000  0.69214600  0.00000000  1
  O  O4  1  0.29759900  0.50000000  0.69352200  1
  O  O5  1  0.29759900  0.50000000  0.30647800  1
  O  O6  1  0.19133300  0.00000000  0.82064600  1
  O  O7  1  0.19133300  0.00000000  0.17935400  1
  O  O8  1  0.18513600  0.81226800  0.50000000  1
  O  O9  1  0.18513600  0.18773200  0.50000000  1
  O  O10  1  0.00000000  0.69789900  0.79606400  1
  O  O11  1  0.00000000  0.30210100  0.20393600  1
  O  O12  1  0.00000000  0.30210100  0.79606400  1
  O  O13  1  0.00000000  0.69789900  0.20393600  1
  O  O14  1  0.81486400  0.18773200  0.50000000  1
  O  O15  1  0.81486400  0.81226800  0.50000000  1
  O  O16  1  0.80866700  0.00000000  0.82064600  1
  O  O17  1  0.80866700  0.00000000  0.17935400  1
  O  O18  1  0.70240100  0.50000000  0.69352200  1
  O  O19  1  0.70240100  0.50000000  0.30647800  1
  O  O20  1  0.68006000  0.30785400  0.00000000  1
  O  O21  1  0.68006000  0.69214600  0.00000000  1
  O  O22  1  0.50000000  0.18022500  0.68808400  1
  O  O23  1  0.50000000  0.18022500  0.31191600  1
loop_
_geom_bond_atom_site_label_1
_geom_bond_atom_site_label_2
_geom_bond_distance
_geom_bond_site_symmetry_2
Cu0 O22 1.976559 1_555
Cu0 O0 1.976559 1_545
Cu0 O23 1.976559 1_555
Cu0 O1 1.976559 1_545
Cu1 O21 1.989921 1_555
Cu1 O3 1.989921 1_555
Cu1 O2 1.989921 1_555
Cu1 O20 1.989921 1_555
Cu2 O7 1.986624 1_555
Cu2 O6 1.986624 1_554
Cu2 O17 1.986624 1_455
Cu2 O16 1.986624 1_454
Cu3 O9 1.992328 1_555
Cu3 O14 1.992328 1_455
Cu3 O8 1.992328 1_545
Cu3 O15 1.992328 1_445
O0 Ta7 2.042048 1_555
O0 Ta3 2.042048 1_555
O1 Ta6 2.042048 1_555
O1 Ta2 2.042048 1_555
O2 Ta0 2.013743 1_555
O2 Ta1 2.013743 1_554
O3 Ta2 2.013743 1_555
O3 Ta3 2.013743 1_554
O4 Ta3 1.933462 1_555
O4 Ta1 1.933462 1_555
O5 Ta2 1.933462 1_555
O5 Ta0 1.933462 1_555
O6 Ta1 2.053477 1_555
O6 Ta3 2.053477 1_545
O7 Ta0 2.053477 1_555
O7 Ta2 2.053477 1_545
O8 Ta3 2.029792 1_555
O8 Ta2 2.029792 1_555
O9 Ta1 2.029792 1_555
O9 Ta0 2.029792 1_555
O10 Ta3 1.935118 1_555
O10 Ta7 1.935118 1_455
O11 Ta0 1.935118 1_555
O11 Ta4 1.935118 1_455
O12 Ta1 1.935118 1_555
O12 Ta5 1.935118 1_455
O13 Ta2 1.935118 1_555
O13 Ta6 1.935118 1_455
O14 Ta5 2.029792 1_555
O14 Ta4 2.029792 1_555
O15 Ta7 2.029792 1_555
O15 Ta6 2.029792 1_555
O16 Ta5 2.053477 1_555
O16 Ta7 2.053477 1_545
O17 Ta4 2.053477 1_555
O17 Ta6 2.053477 1_545
O18 Ta7 1.933462 1_555
O18 Ta5 1.933462 1_555
O19 Ta6 1.933462 1_555
O19 Ta4 1.933462 1_555
O20 Ta4 2.013743 1_555
O20 Ta5 2.013743 1_554
O21 Ta6 2.013743 1_555
O21 Ta7 2.013743 1_554
O22 Ta5 2.042048 1_555
O22 Ta1 2.042048 1_555
O23 Ta4 2.042048 1_555
O23 Ta0 2.042048 1_555
