# generated using pymatgen
data_K3Yb(SO4)3
_symmetry_space_group_name_H-M   'P 1'
_cell_length_a   9.48342709
_cell_length_b   9.48342709
_cell_length_c   9.03653741
_cell_angle_alpha   73.01911433
_cell_angle_beta   73.01911433
_cell_angle_gamma   111.93782749
_symmetry_Int_Tables_number   1
_chemical_formula_structural   K3Yb(SO4)3
_chemical_formula_sum   'K6 Yb2 S6 O24'
_cell_volume   643.06501472
_cell_formula_units_Z   2
loop_
 _symmetry_equiv_pos_site_id
 _symmetry_equiv_pos_as_xyz
  1  'x, y, z'
loop_
 _atom_site_type_symbol
 _atom_site_label
 _atom_site_symmetry_multiplicity
 _atom_site_fract_x
 _atom_site_fract_y
 _atom_site_fract_z
 _atom_site_occupancy
  K  K0  1  0.06450400  0.57660700  0.59073300  1
  K  K1  1  0.57660700  0.06450400  0.09073300  1
  K  K2  1  0.80566900  0.72045900  0.95138100  1
  K  K3  1  0.72045900  0.80566900  0.45138100  1
  K  K4  1  0.19532900  0.19765100  0.33217500  1
  K  K5  1  0.19765100  0.19532900  0.83217500  1
  Yb  Yb0  1  0.65269400  0.34927500  0.48751200  1
  Yb  Yb1  1  0.34927500  0.65269400  0.98751200  1
  S  S0  1  0.00162800  0.30773900  0.10779300  1
  S  S1  1  0.71311800  0.04112100  0.67412800  1
  S  S2  1  0.43907700  0.57561400  0.35172500  1
  S  S3  1  0.04112100  0.71311800  0.17412800  1
  S  S4  1  0.57561400  0.43907700  0.85172500  1
  S  S5  1  0.30773900  0.00162800  0.60779300  1
  O  O0  1  0.54503500  0.58459300  0.84823400  1
  O  O1  1  0.61390600  0.10639000  0.42415500  1
  O  O2  1  0.44276400  0.98248800  0.46441900  1
  O  O3  1  0.91105600  0.60424600  0.36497300  1
  O  O4  1  0.60424600  0.91105600  0.86497300  1
  O  O5  1  0.10639000  0.61390600  0.92415500  1
  O  O6  1  0.39922600  0.54164700  0.21220400  1
  O  O7  1  0.14583800  0.89438100  0.61418500  1
  O  O8  1  0.32815600  0.95351600  0.76450900  1
  O  O9  1  0.28577900  0.46018500  0.52153100  1
  O  O10  1  0.89438100  0.14583800  0.11418500  1
  O  O11  1  0.46018500  0.28577900  0.02153100  1
  O  O12  1  0.02578300  0.86737700  0.10057700  1
  O  O13  1  0.95351600  0.32815600  0.26450900  1
  O  O14  1  0.75630900  0.49714600  0.81235900  1
  O  O15  1  0.86737700  0.02578300  0.60057700  1
  O  O16  1  0.58459300  0.54503500  0.34823400  1
  O  O17  1  0.36276500  0.18532800  0.52798200  1
  O  O18  1  0.98248800  0.44276400  0.96441900  1
  O  O19  1  0.21631100  0.75729200  0.15942500  1
  O  O20  1  0.18532800  0.36276500  0.02798200  1
  O  O21  1  0.75729200  0.21631100  0.65942500  1
  O  O22  1  0.49714600  0.75630900  0.31235900  1
  O  O23  1  0.54164700  0.39922600  0.71220400  1
loop_
_geom_bond_atom_site_label_1
_geom_bond_atom_site_label_2
_geom_bond_distance
_geom_bond_site_symmetry_2
K0 O14 2.678614 1_455
K0 O9 2.716885 1_555
K0 O3 2.838141 1_455
K0 O7 2.907447 1_555
K0 O18 2.973826 1_455
K0 O5 3.252316 1_555
K0 O21 3.288584 1_455
K0 O19 3.343327 1_555
K1 O22 2.678614 1_545
K1 O11 2.716885 1_555
K1 O4 2.838141 1_544
K1 O10 2.907447 1_555
K1 O2 2.973826 1_545
K1 O1 3.252316 1_555
K1 O19 3.288584 1_545
K1 O21 3.343327 1_554
K2 O14 2.727471 1_555
K2 O0 2.881986 1_555
K2 O12 2.946902 1_656
K2 O16 3.088891 1_556
K2 O7 3.123952 1_655
K2 O4 3.186260 1_555
K2 O6 3.280674 1_556
K2 O15 3.326343 1_565
K2 O5 3.332176 1_655
K3 O22 2.727471 1_555
K3 O16 2.881986 1_555
K3 O15 2.946902 1_565
K3 O0 3.088891 1_555
K3 O10 3.123952 1_565
K3 O3 3.186260 1_555
K3 O23 3.280674 1_555
K3 O12 3.326343 1_655
K3 O1 3.332176 1_565
K4 O17 2.706435 1_555
K4 O6 2.748273 1_555
K4 O15 2.776539 1_455
K4 O20 2.786782 1_555
K4 O11 2.798230 1_555
K4 O7 2.999647 1_545
K4 O13 3.108401 1_455
K5 O20 2.706435 1_556
K5 O23 2.748273 1_555
K5 O12 2.776539 1_546
K5 O17 2.786782 1_555
K5 O9 2.798230 1_555
K5 O10 2.999647 1_456
K5 O8 3.108401 1_545
O0 S4 1.506121 1_555
O0 Yb1 2.335276 1_555
O1 O2 1.458631 1_545
O1 Yb0 2.455377 1_555
O2 S5 1.641099 1_565
O3 S3 1.525605 1_655
O3 Yb0 2.345354 1_555
O4 S1 1.525605 1_565
O4 Yb1 2.345354 1_555
O5 Yb1 2.455377 1_555
O6 S2 1.503578 1_555
O6 Yb1 2.267531 1_554
O7 S5 1.463630 1_565
O8 S5 1.449124 1_565
O9 S2 1.480916 1_555
O10 S0 1.463630 1_655
O11 S4 1.480916 1_554
O12 S3 1.500178 1_555
O13 S0 1.449124 1_655
O14 S4 1.480088 1_555
O15 S1 1.500178 1_555
O16 S2 1.506121 1_555
O16 Yb0 2.335276 1_555
O17 S5 1.481351 1_555
O17 Yb0 2.448936 1_555
O18 O5 1.458631 1_655
O18 S0 1.641099 1_656
O19 S3 1.507285 1_555
O19 Yb1 2.382818 1_554
O20 S0 1.481351 1_555
O20 Yb1 2.448936 1_554
O21 S1 1.507285 1_555
O21 Yb0 2.382818 1_555
O22 S2 1.480088 1_555
O23 S4 1.503578 1_555
O23 Yb0 2.267531 1_555
