# generated using pymatgen
data_LiLa2SbO6
_symmetry_space_group_name_H-M   'P 1'
_cell_length_a   5.83693200
_cell_length_b   5.65883300
_cell_length_c   9.81413001
_cell_angle_alpha   55.18913681
_cell_angle_beta   90.00000000
_cell_angle_gamma   90.00000000
_symmetry_Int_Tables_number   1
_chemical_formula_structural   LiLa2SbO6
_chemical_formula_sum   'Li2 La4 Sb2 O12'
_cell_volume   266.15103337
_cell_formula_units_Z   2
loop_
 _symmetry_equiv_pos_site_id
 _symmetry_equiv_pos_as_xyz
  1  'x, y, z'
loop_
 _atom_site_type_symbol
 _atom_site_label
 _atom_site_symmetry_multiplicity
 _atom_site_fract_x
 _atom_site_fract_y
 _atom_site_fract_z
 _atom_site_occupancy
  Li  Li0  1  0.50000000  0.00000000  0.00000000  1
  Li  Li1  1  0.00000000  0.00000000  0.50000000  1
  La  La0  1  0.05217000  0.23536000  0.75115700  1
  La  La1  1  0.55217000  0.76464000  0.74884300  1
  La  La2  1  0.94783000  0.76464000  0.24884300  1
  La  La3  1  0.44783000  0.23536000  0.25115700  1
  Sb  Sb0  1  0.50000000  0.50000000  0.50000000  1
  Sb  Sb1  1  0.00000000  0.50000000  0.00000000  1
  O  O0  1  0.53356700  0.64164300  0.26048400  1
  O  O1  1  0.03356700  0.35835700  0.23951600  1
  O  O2  1  0.46643300  0.35835700  0.73951600  1
  O  O3  1  0.96643300  0.64164300  0.76048400  1
  O  O4  1  0.21603700  0.74329100  0.44531400  1
  O  O5  1  0.71603700  0.25670900  0.05468600  1
  O  O6  1  0.80809400  0.83467300  0.95161800  1
  O  O7  1  0.30809400  0.16532700  0.54838200  1
  O  O8  1  0.19190600  0.16532700  0.04838200  1
  O  O9  1  0.69190600  0.83467300  0.45161800  1
  O  O10  1  0.28396300  0.74329100  0.94531400  1
  O  O11  1  0.78396300  0.25670900  0.55468600  1
loop_
_geom_bond_atom_site_label_1
_geom_bond_atom_site_label_2
_geom_bond_distance
_geom_bond_site_symmetry_2
Li0 O0 2.183365 1_545
Li0 O2 2.183365 1_554
Li0 O8 2.200430 1_555
Li0 O6 2.200430 1_544
Li0 O10 2.208745 1_544
Li0 O5 2.208745 1_555
Li1 O1 2.183365 1_555
Li1 O3 2.183365 1_445
Li1 O9 2.200430 1_445
Li1 O7 2.200430 1_555
Li1 O4 2.208745 1_545
Li1 O11 2.208745 1_455
La0 O3 2.405183 1_455
La0 O11 2.432564 1_455
La0 O6 2.438899 1_445
La0 O2 2.500710 1_555
La0 O10 2.675271 1_545
La0 O7 2.692457 1_555
La0 O8 2.830433 1_556
La0 O4 2.887154 1_555
La1 O2 2.405183 1_555
La1 O10 2.432564 1_555
La1 O7 2.438899 1_565
La1 O3 2.500710 1_555
La1 O11 2.675271 1_565
La1 O6 2.692457 1_555
La1 O9 2.830433 1_555
La1 O5 2.887154 1_556
La2 O1 2.405183 1_655
La2 O4 2.432564 1_655
La2 O8 2.438899 1_665
La2 O0 2.500710 1_555
La2 O5 2.675271 1_565
La2 O9 2.692457 1_555
La2 O6 2.830433 1_554
La2 O11 2.887154 1_555
La3 O0 2.405183 1_555
La3 O5 2.432564 1_555
La3 O9 2.438899 1_545
La3 O1 2.500710 1_555
La3 O4 2.675271 1_545
La3 O8 2.692457 1_555
La3 O7 2.830433 1_555
La3 O10 2.887154 1_554
O0 Sb0 2.013750 1_555
O1 Sb1 2.013750 1_555
O2 Sb0 2.013750 1_555
O3 Sb1 2.013750 1_656
O4 Sb0 2.021647 1_555
O5 Sb1 2.021647 1_655
O6 Sb1 2.010016 1_656
O7 Sb0 2.010016 1_555
O8 Sb1 2.010016 1_555
O9 Sb0 2.010016 1_555
O10 Sb1 2.021647 1_556
O11 Sb0 2.021647 1_555
