# generated using pymatgen
data_Zn(FeO2)2
_symmetry_space_group_name_H-M   'P 1'
_cell_length_a   6.11272612
_cell_length_b   6.08756508
_cell_length_c   36.26618510
_cell_angle_alpha   60.51575225
_cell_angle_beta   58.97985289
_cell_angle_gamma   58.51704248
_symmetry_Int_Tables_number   1
_chemical_formula_structural   Zn(FeO2)2
_chemical_formula_sum   'Zn11 Fe22 O44'
_cell_volume   939.22041552
_cell_formula_units_Z   11
loop_
 _symmetry_equiv_pos_site_id
 _symmetry_equiv_pos_as_xyz
  1  'x, y, z'
loop_
 _atom_site_type_symbol
 _atom_site_label
 _atom_site_symmetry_multiplicity
 _atom_site_fract_x
 _atom_site_fract_y
 _atom_site_fract_z
 _atom_site_occupancy
  Zn  Zn0  1  0.10270400  0.09210900  0.01627100  1
  Zn  Zn1  1  0.54415500  0.98407700  0.08470400  1
  Zn  Zn2  1  0.54267100  0.98728400  0.25077500  1
  Zn  Zn3  1  0.11399800  0.09113400  0.50877800  1
  Zn  Zn4  1  0.54589400  0.98844300  0.41649400  1
  Zn  Zn5  1  0.51725600  0.98490800  0.58718300  1
  Zn  Zn6  1  0.14019000  0.11944400  0.68663300  1
  Zn  Zn7  1  0.00363000  0.49655800  0.74989300  1
  Zn  Zn8  1  0.14087100  0.12038600  0.85386400  1
  Zn  Zn9  1  0.99461300  0.51249500  0.58588100  1
  Zn  Zn10  1  0.00074800  0.50429100  0.91562200  1
  Fe  Fe0  1  0.50881200  0.53226700  0.99902900  1
  Fe  Fe1  1  0.11594200  0.07975000  0.18065400  1
  Fe  Fe2  1  0.47679800  0.51083200  0.08626200  1
  Fe  Fe3  1  0.12101100  0.08730900  0.34489500  1
  Fe  Fe4  1  0.54551000  0.52265900  0.16211800  1
  Fe  Fe5  1  0.48233000  0.51131200  0.25241600  1
  Fe  Fe6  1  0.85790300  0.87886000  0.14879000  1
  Fe  Fe7  1  0.54730600  0.52504200  0.32753400  1
  Fe  Fe8  1  0.48131400  0.50575000  0.41820000  1
  Fe  Fe9  1  0.85648200  0.87609300  0.31562000  1
  Fe  Fe10  1  0.55403500  0.51783900  0.49328200  1
  Fe  Fe11  1  0.49936300  0.49702800  0.58265800  1
  Fe  Fe12  1  0.87005100  0.87386400  0.48138800  1
  Fe  Fe13  1  0.50057400  0.49001500  0.66841900  1
  Fe  Fe14  1  0.49685200  0.49558300  0.74994000  1
  Fe  Fe15  1  0.86757800  0.87559200  0.64815800  1
  Fe  Fe16  1  0.49541500  0.50830500  0.83433700  1
  Fe  Fe17  1  0.49849300  0.00138300  0.75036000  1
  Fe  Fe18  1  0.49417800  0.50284600  0.91750900  1
  Fe  Fe19  1  0.86041000  0.87750200  0.81293000  1
  Fe  Fe20  1  0.50289000  0.01575100  0.91434700  1
  Fe  Fe21  1  0.85340200  0.88503600  0.98073500  1
  O  O0  1  0.28200100  0.24801300  0.12113000  1
  O  O1  1  0.26463500  0.71944900  0.04297600  1
  O  O2  1  0.71606900  0.27964700  0.04102600  1
  O  O3  1  0.26094900  0.73914000  0.12890900  1
  O  O4  1  0.68155000  0.78508500  0.04288800  1
  O  O5  1  0.70023800  0.26867700  0.12891400  1
  O  O6  1  0.27637800  0.71806500  0.20756700  1
  O  O7  1  0.28103800  0.25027600  0.28545600  1
  O  O8  1  0.73758900  0.26858200  0.20723200  1
  O  O9  1  0.76188500  0.74218600  0.12503600  1
  O  O10  1  0.25892900  0.73748700  0.29578400  1
  O  O11  1  0.68483400  0.77552300  0.21170300  1
  O  O12  1  0.70316800  0.26771000  0.29533400  1
  O  O13  1  0.28788700  0.25767500  0.44904500  1
  O  O14  1  0.27800900  0.72489500  0.37281300  1
  O  O15  1  0.74380700  0.27163500  0.37230800  1
  O  O16  1  0.76403900  0.74321900  0.29096500  1
  O  O17  1  0.26535000  0.72661700  0.46252600  1
  O  O18  1  0.70892000  0.25704000  0.46210100  1
  O  O19  1  0.68043100  0.77418700  0.37876500  1
  O  O20  1  0.26837300  0.70681900  0.54207200  1
  O  O21  1  0.26550000  0.26441800  0.61897200  1
  O  O22  1  0.72483200  0.25462600  0.54139100  1
  O  O23  1  0.75700200  0.74578800  0.45936900  1
  O  O24  1  0.26675300  0.73185900  0.62596200  1
  O  O25  1  0.28668400  0.24012800  0.70952300  1
  O  O26  1  0.74820400  0.26854500  0.62240600  1
  O  O27  1  0.27576800  0.25257800  0.78612900  1
  O  O28  1  0.73317500  0.73336900  0.54761800  1
  O  O29  1  0.26744200  0.71631600  0.71056200  1
  O  O30  1  0.72034200  0.24221200  0.71132900  1
  O  O31  1  0.73552100  0.73234900  0.63037500  1
  O  O32  1  0.27572100  0.26001800  0.87447700  1
  O  O33  1  0.26793200  0.75322400  0.79113100  1
  O  O34  1  0.72874800  0.74668600  0.71386300  1
  O  O35  1  0.73595400  0.26951000  0.79181200  1
  O  O36  1  0.27201200  0.26702300  0.95291600  1
  O  O37  1  0.27290400  0.71893800  0.87798100  1
  O  O38  1  0.71946900  0.26365000  0.87764600  1
  O  O39  1  0.72163900  0.75711500  0.79130000  1
  O  O40  1  0.26725100  0.74427200  0.95823900  1
  O  O41  1  0.72817700  0.74075300  0.87853200  1
  O  O42  1  0.71654400  0.28210900  0.95889300  1
  O  O43  1  0.73297000  0.76083800  0.95601000  1
loop_
_geom_bond_atom_site_label_1
_geom_bond_atom_site_label_2
_geom_bond_distance
_geom_bond_site_symmetry_2
Fe0 O1 1.904157 1_556
Fe0 O43 1.974541 1_555
Fe0 O2 1.984421 1_556
Fe0 O42 2.075432 1_555
Fe0 O40 2.101388 1_555
Fe1 O6 1.837945 1_545
Fe1 O0 1.841337 1_555
Fe1 O8 1.901465 1_455
Fe2 O0 2.005760 1_555
Fe2 O3 2.040091 1_555
Fe2 O1 2.043204 1_555
Fe2 O5 2.064258 1_555
Fe2 O4 2.096764 1_555
Fe2 O2 2.112083 1_555
Fe3 O7 1.822908 1_555
Fe3 O14 1.845176 1_545
Fe3 O15 1.896587 1_455
Fe4 O9 1.894110 1_555
Fe4 O5 1.966363 1_555
Fe4 O6 1.982286 1_555
Fe4 O8 2.009931 1_555
Fe4 O3 2.101287 1_555
Fe5 O7 2.030580 1_555
Fe5 O11 2.038966 1_555
Fe5 O10 2.046545 1_555
Fe5 O12 2.060726 1_555
Fe5 O6 2.062728 1_555
Fe5 O8 2.154818 1_555
Fe6 O11 1.874867 1_555
Fe6 O9 1.874993 1_555
Fe6 O5 1.929546 1_565
Fe6 O3 1.974141 1_655
Fe7 O16 1.889739 1_555
Fe7 O12 1.954621 1_555
Fe7 O14 1.993770 1_555
Fe7 O15 2.017000 1_555
Fe7 O10 2.085841 1_555
Fe8 O13 1.941349 1_555
Fe8 O19 2.044503 1_555
Fe8 O17 2.054536 1_555
Fe8 O14 2.061218 1_555
Fe8 O18 2.114920 1_555
Fe8 O15 2.137683 1_555
Fe9 O16 1.866338 1_555
Fe9 O19 1.883089 1_555
Fe9 O12 1.937396 1_565
Fe9 O10 1.971479 1_655
Fe10 O23 1.876976 1_555
Fe10 O18 1.946659 1_555
Fe10 O22 2.019838 1_555
Fe10 O20 2.055364 1_555
Fe10 O17 2.064968 1_555
Fe11 O21 2.030105 1_555
Fe11 O20 2.049233 1_555
Fe11 O28 2.050276 1_555
Fe11 O22 2.059261 1_555
Fe11 O24 2.077762 1_555
Fe11 O26 2.098274 1_555
Fe12 O23 1.862115 1_555
Fe12 O18 1.898611 1_565
Fe12 O17 1.935929 1_655
Fe12 O28 1.963329 1_555
Fe13 O29 2.010415 1_555
Fe13 O25 2.020405 1_555
Fe13 O30 2.056496 1_555
Fe13 O31 2.075943 1_555
Fe13 O26 2.091216 1_555
Fe13 O24 2.102410 1_555
Fe14 O29 2.004617 1_555
Fe14 O27 2.021408 1_555
Fe14 O30 2.039516 1_555
Fe14 O34 2.107319 1_555
Fe14 O35 2.113183 1_555
Fe14 O33 2.123451 1_555
Fe15 O31 1.911361 1_555
Fe15 O34 1.945436 1_555
Fe15 O24 1.950979 1_655
Fe15 O26 1.951154 1_565
Fe16 O37 1.989144 1_555
Fe16 O32 2.036275 1_555
Fe16 O39 2.068466 1_555
Fe16 O35 2.071406 1_555
Fe16 O38 2.084412 1_555
Fe16 O33 2.095789 1_555
Fe17 O27 1.957678 1_555
Fe17 O25 1.968265 1_555
Fe17 O34 1.989377 1_545
Fe17 O30 2.011802 1_555
Fe17 O39 2.017847 1_545
Fe17 O33 2.081331 1_545
Fe18 O37 1.974509 1_555
Fe18 O36 1.994604 1_555
Fe18 O38 2.008106 1_555
Fe18 O42 2.028645 1_555
Fe18 O40 2.040056 1_555
Fe18 O41 2.050898 1_555
Fe19 O35 1.940438 1_565
Fe19 O39 1.942432 1_555
Fe19 O41 1.943658 1_555
Fe19 O33 1.998326 1_655
Fe20 O32 2.006583 1_555
Fe20 O38 2.023616 1_555
Fe20 O36 2.026019 1_555
Fe20 O43 2.066805 1_545
Fe20 O41 2.067586 1_545
Fe20 O40 2.207590 1_545
Fe21 O4 1.852446 1_556
Fe21 O43 1.961294 1_555
Fe21 O42 1.963739 1_565
Fe21 O40 2.023928 1_655
O0 Zn1 2.028011 1_545
O1 Zn0 1.882582 1_565
O2 Zn0 1.923231 1_655
O2 Zn1 2.074761 1_545
O3 Zn1 2.296285 1_555
O4 Zn1 1.976249 1_555
O7 Zn2 1.984286 1_545
O8 Zn2 2.091808 1_545
O9 Zn1 1.979496 1_555
O10 Zn2 2.319170 1_555
O11 Zn2 1.945177 1_555
O13 Zn3 1.854962 1_555
O13 Zn4 1.962882 1_545
O15 Zn4 2.112908 1_545
O16 Zn2 1.991010 1_555
O17 Zn4 2.356531 1_555
O19 Zn4 1.930372 1_555
O20 Zn3 1.977266 1_565
O20 Zn9 2.049699 1_455
O21 Zn5 1.989963 1_545
O21 Zn6 2.005964 1_555
O21 Zn9 2.028530 1_455
O22 Zn3 1.958148 1_655
O22 Zn5 2.093785 1_545
O23 Zn4 2.020184 1_555
O24 Zn5 2.192539 1_555
O25 Zn6 2.020992 1_555
O25 Zn7 2.095649 1_555
O26 Zn9 2.138301 1_555
O27 Zn8 2.005324 1_555
O27 Zn7 2.109827 1_555
O28 Zn5 2.060478 1_555
O28 Zn9 2.119439 1_555
O29 Zn6 1.996530 1_565
O29 Zn7 2.104504 1_555
O30 Zn6 2.057581 1_655
O31 Zn9 2.044810 1_555
O31 Zn5 2.058720 1_555
O32 Zn8 1.988292 1_555
O32 Zn10 2.061932 1_555
O34 Zn7 2.116911 1_655
O35 Zn7 2.151459 1_655
O36 Zn0 1.943176 1_556
O36 Zn10 2.133526 1_555
O37 Zn8 1.987988 1_565
O37 Zn10 2.124266 1_555
O38 Zn8 2.060083 1_655
O39 Zn7 2.136162 1_655
O41 Zn10 2.134554 1_655
O42 Zn10 2.205705 1_655
O43 Zn10 2.091492 1_655
