# generated using pymatgen
data_K2UI5
_symmetry_space_group_name_H-M   'P 1'
_cell_length_a   9.30861800
_cell_length_b   9.87296500
_cell_length_c   14.72448100
_cell_angle_alpha   90.00000000
_cell_angle_beta   90.00000000
_cell_angle_gamma   90.00000000
_symmetry_Int_Tables_number   1
_chemical_formula_structural   K2UI5
_chemical_formula_sum   'K8 U4 I20'
_cell_volume   1353.23369127
_cell_formula_units_Z   4
loop_
 _symmetry_equiv_pos_site_id
 _symmetry_equiv_pos_as_xyz
  1  'x, y, z'
loop_
 _atom_site_type_symbol
 _atom_site_label
 _atom_site_symmetry_multiplicity
 _atom_site_fract_x
 _atom_site_fract_y
 _atom_site_fract_z
 _atom_site_occupancy
  K  K0  1  0.56336700  0.00521800  0.32835000  1
  K  K1  1  0.93663300  0.00521800  0.82835000  1
  K  K2  1  0.43663300  0.99478200  0.67165000  1
  K  K3  1  0.06336700  0.99478200  0.17165000  1
  K  K4  1  0.06336700  0.50521800  0.17165000  1
  K  K5  1  0.43663300  0.50521800  0.67165000  1
  K  K6  1  0.56336700  0.49478200  0.32835000  1
  K  K7  1  0.93663300  0.49478200  0.82835000  1
  U  U0  1  0.57451000  0.75000000  0.00362800  1
  U  U1  1  0.07451000  0.25000000  0.49637200  1
  U  U2  1  0.42549000  0.25000000  0.99637200  1
  U  U3  1  0.92549000  0.75000000  0.50362800  1
  I  I0  1  0.16704900  0.95578300  0.42601700  1
  I  I1  1  0.15881200  0.25000000  0.70546100  1
  I  I2  1  0.84118800  0.75000000  0.29453900  1
  I  I3  1  0.83295100  0.04421700  0.57398300  1
  I  I4  1  0.66704900  0.45578300  0.07398300  1
  I  I5  1  0.57259000  0.75000000  0.50565500  1
  I  I6  1  0.66704900  0.04421700  0.07398300  1
  I  I7  1  0.92741000  0.75000000  0.00565500  1
  I  I8  1  0.87961400  0.25000000  0.31773700  1
  I  I9  1  0.16704900  0.54421700  0.42601700  1
  I  I10  1  0.37961400  0.75000000  0.18226300  1
  I  I11  1  0.34118800  0.25000000  0.20546100  1
  I  I12  1  0.33295100  0.95578300  0.92601700  1
  I  I13  1  0.42741000  0.25000000  0.49434500  1
  I  I14  1  0.12038600  0.75000000  0.68226300  1
  I  I15  1  0.33295100  0.54421700  0.92601700  1
  I  I16  1  0.62038600  0.25000000  0.81773700  1
  I  I17  1  0.65881200  0.75000000  0.79453900  1
  I  I18  1  0.83295100  0.45578300  0.57398300  1
  I  I19  1  0.07259000  0.25000000  0.99434500  1
loop_
_geom_bond_atom_site_label_1
_geom_bond_atom_site_label_2
_geom_bond_distance
_geom_bond_site_symmetry_2
I0 U1 3.202035 1_565
I0 U3 3.238799 1_455
I0 K3 3.886892 1_555
I0 K0 3.989527 1_565
I1 U1 3.177164 1_555
I1 K5 3.644873 1_555
I1 K2 3.644873 1_545
I1 K7 3.659526 1_455
I1 K1 3.659526 1_455
I2 U3 3.177164 1_555
I2 K0 3.644873 1_565
I2 K6 3.644873 1_555
I2 K3 3.659526 1_655
I2 K4 3.659526 1_655
I3 U3 3.202035 1_545
I3 U1 3.238799 1_655
I3 K1 3.886892 1_555
I3 K2 3.989527 1_545
I4 U0 3.202035 1_555
I4 U2 3.238799 1_554
I4 K6 3.886892 1_555
I4 K4 3.989527 1_655
I5 U3 3.285147 1_555
I5 K0 3.629385 1_565
I5 K6 3.629385 1_555
I5 K2 3.662826 1_555
I5 K5 3.662826 1_555
I6 U0 3.202035 1_545
I6 U2 3.238799 1_554
I6 K0 3.886892 1_555
I6 K3 3.989527 1_645
I7 U0 3.285147 1_555
I7 K1 3.629385 1_564
I7 K7 3.629385 1_554
I7 K3 3.662826 1_655
I7 K4 3.662826 1_655
I8 U1 3.195291 1_655
I8 K4 3.728537 1_655
I8 K3 3.728537 1_645
I8 K6 3.811964 1_555
I8 K0 3.811964 1_555
I9 U1 3.202035 1_555
I9 U3 3.238799 1_455
I9 K4 3.886892 1_555
I9 K6 3.989527 1_555
I10 U0 3.195291 1_555
I10 K0 3.728537 1_565
I10 K6 3.728537 1_555
I10 K3 3.811964 1_555
I10 K4 3.811964 1_555
I11 U2 3.177164 1_554
I11 K4 3.644873 1_555
I11 K3 3.644873 1_545
I11 K6 3.659526 1_555
I11 K0 3.659526 1_555
I12 U2 3.202035 1_565
I12 U0 3.238799 1_556
I12 K2 3.886892 1_555
I12 K1 3.989527 1_465
I13 U1 3.285147 1_555
I13 K5 3.629385 1_555
I13 K2 3.629385 1_545
I13 K6 3.662826 1_555
I13 K0 3.662826 1_555
I14 U3 3.195291 1_455
I14 K1 3.728537 1_465
I14 K7 3.728537 1_455
I14 K2 3.811964 1_555
I14 K5 3.811964 1_555
I15 U2 3.202035 1_555
I15 U0 3.238799 1_556
I15 K5 3.886892 1_555
I15 K7 3.989527 1_455
I16 U2 3.195291 1_555
I16 K5 3.728537 1_555
I16 K2 3.728537 1_545
I16 K7 3.811964 1_555
I16 K1 3.811964 1_555
I17 U0 3.177164 1_556
I17 K1 3.644873 1_565
I17 K7 3.644873 1_555
I17 K2 3.659526 1_555
I17 K5 3.659526 1_555
I18 U3 3.202035 1_555
I18 U1 3.238799 1_655
I18 K7 3.886892 1_555
I18 K5 3.989527 1_555
I19 U2 3.285147 1_555
I19 K4 3.629385 1_556
I19 K3 3.629385 1_546
I19 K7 3.662826 1_455
I19 K1 3.662826 1_455
