# generated using pymatgen
data_NdAl3(BO3)4
_symmetry_space_group_name_H-M   'P 1'
_cell_length_a   5.97315829
_cell_length_b   5.97315829
_cell_length_c   11.25222485
_cell_angle_alpha   81.73221553
_cell_angle_beta   81.73221553
_cell_angle_gamma   104.29351742
_symmetry_Int_Tables_number   1
_chemical_formula_structural   NdAl3(BO3)4
_chemical_formula_sum   'Nd2 Al6 B8 O24'
_cell_volume   378.20331134
_cell_formula_units_Z   2
loop_
 _symmetry_equiv_pos_site_id
 _symmetry_equiv_pos_as_xyz
  1  'x, y, z'
loop_
 _atom_site_type_symbol
 _atom_site_label
 _atom_site_symmetry_multiplicity
 _atom_site_fract_x
 _atom_site_fract_y
 _atom_site_fract_z
 _atom_site_occupancy
  Nd  Nd0  1  0.03654800  0.96345200  0.75000000  1
  Nd  Nd1  1  0.96345200  0.03654800  0.25000000  1
  Al  Al0  1  0.58854300  0.41145700  0.75000000  1
  Al  Al1  1  0.41145700  0.58854300  0.25000000  1
  Al  Al2  1  0.30522000  0.80478100  0.47175600  1
  Al  Al3  1  0.19521900  0.69478000  0.02824400  1
  Al  Al4  1  0.69478000  0.19521900  0.52824400  1
  Al  Al5  1  0.80478100  0.30522000  0.97175600  1
  B  B0  1  0.71972300  0.77703400  0.00568400  1
  B  B1  1  0.22296600  0.28027700  0.49431600  1
  B  B2  1  0.28027700  0.22296600  0.99431600  1
  B  B3  1  0.77703400  0.71972300  0.50568400  1
  B  B4  1  0.50751800  0.87911600  0.77777400  1
  B  B5  1  0.12088400  0.49248200  0.72222600  1
  B  B6  1  0.49248200  0.12088400  0.22222600  1
  B  B7  1  0.87911600  0.50751800  0.27777400  1
  O  O0  1  0.73023600  0.64491600  0.25773100  1
  O  O1  1  0.35508400  0.26976400  0.24226900  1
  O  O2  1  0.26976400  0.35508400  0.74226900  1
  O  O3  1  0.64491600  0.73023600  0.75773100  1
  O  O4  1  0.82059600  0.30403300  0.36265800  1
  O  O5  1  0.69596700  0.17940400  0.13734200  1
  O  O6  1  0.17940400  0.69596700  0.63734200  1
  O  O7  1  0.30403300  0.82059600  0.86265800  1
  O  O8  1  0.00279900  0.80678500  0.43845900  1
  O  O9  1  0.19321500  0.99720100  0.06154100  1
  O  O10  1  0.99720100  0.19321500  0.56154100  1
  O  O11  1  0.80678500  0.00279900  0.93845900  1
  O  O12  1  0.30218300  0.50665600  0.42571000  1
  O  O13  1  0.49334400  0.69781700  0.07429000  1
  O  O14  1  0.69781700  0.49334400  0.57429000  1
  O  O15  1  0.50665600  0.30218300  0.92571000  1
  O  O16  1  0.63063400  0.86939200  0.49670300  1
  O  O17  1  0.13060800  0.36936600  0.00329700  1
  O  O18  1  0.36936600  0.13060800  0.50329700  1
  O  O19  1  0.86939200  0.63063400  0.99670300  1
  O  O20  1  0.10376800  0.57721600  0.20499300  1
  O  O21  1  0.42278400  0.89623200  0.29500700  1
  O  O22  1  0.89623200  0.42278400  0.79500700  1
  O  O23  1  0.57721600  0.10376800  0.70499300  1
loop_
_geom_bond_atom_site_label_1
_geom_bond_atom_site_label_2
_geom_bond_distance
_geom_bond_site_symmetry_2
Nd0 O3 2.391212 1_455
Nd0 O2 2.391212 1_565
Nd0 O6 2.415037 1_555
Nd0 O7 2.415037 1_555
Nd0 O10 2.429243 1_465
Nd0 O11 2.429243 1_465
Nd1 O0 2.391212 1_545
Nd1 O1 2.391212 1_655
Nd1 O4 2.415037 1_555
Nd1 O5 2.415037 1_555
Nd1 O9 2.429243 1_645
Nd1 O8 2.429243 1_645
Al0 O3 1.867106 1_555
Al0 O2 1.867106 1_555
Al0 O14 1.940978 1_555
Al0 O15 1.940978 1_555
Al0 O23 1.963408 1_555
Al0 O22 1.963408 1_555
Al1 O0 1.867106 1_555
Al1 O1 1.867106 1_555
Al1 O12 1.940978 1_555
Al1 O13 1.940978 1_555
Al1 O20 1.963408 1_555
Al1 O21 1.963408 1_555
Al2 O6 1.861881 1_555
Al2 O8 1.899385 1_555
Al2 O12 1.921443 1_555
Al2 O16 1.955396 1_555
Al2 O21 1.960459 1_555
Al2 O18 1.982441 1_565
Al3 O7 1.861881 1_554
Al3 O9 1.899385 1_555
Al3 O13 1.921443 1_555
Al3 O17 1.955396 1_555
Al3 O20 1.960459 1_555
Al3 O19 1.982441 1_454
Al4 O4 1.861881 1_555
Al4 O10 1.899385 1_555
Al4 O14 1.921443 1_555
Al4 O18 1.955396 1_555
Al4 O23 1.960459 1_555
Al4 O16 1.982441 1_545
Al5 O5 1.861881 1_556
Al5 O11 1.899385 1_555
Al5 O15 1.921443 1_555
Al5 O19 1.955396 1_555
Al5 O22 1.960459 1_555
Al5 O17 1.982441 1_656
B0 O11 1.381439 1_564
B0 O13 1.388190 1_555
B0 O19 1.399856 1_554
B1 O10 1.381439 1_455
B1 O12 1.388190 1_555
B1 O18 1.399856 1_555
B2 O9 1.381439 1_546
B2 O15 1.388190 1_555
B2 O17 1.399856 1_556
B3 O8 1.381439 1_655
B3 O14 1.388190 1_555
B3 O16 1.399856 1_555
B4 O7 1.368245 1_555
B4 O3 1.371154 1_555
B4 O23 1.398101 1_565
B5 O6 1.368245 1_555
B5 O2 1.371154 1_555
B5 O22 1.398101 1_455
B6 O5 1.368245 1_555
B6 O1 1.371154 1_555
B6 O21 1.398101 1_545
B7 O4 1.368245 1_555
B7 O0 1.371154 1_555
B7 O20 1.398101 1_655
