# generated using pymatgen
data_ScH16C3S3O17F9
_symmetry_space_group_name_H-M   'P 1'
_cell_length_a   8.46501900
_cell_length_b   12.72419900
_cell_length_c   12.82815120
_cell_angle_alpha   60.30883191
_cell_angle_beta   90.00000000
_cell_angle_gamma   90.00000000
_symmetry_Int_Tables_number   1
_chemical_formula_structural   ScH16C3S3O17F9
_chemical_formula_sum   'Sc2 H32 C6 S6 O34 F18'
_cell_volume   1200.31772598
_cell_formula_units_Z   2
loop_
 _symmetry_equiv_pos_site_id
 _symmetry_equiv_pos_as_xyz
  1  'x, y, z'
loop_
 _atom_site_type_symbol
 _atom_site_label
 _atom_site_symmetry_multiplicity
 _atom_site_fract_x
 _atom_site_fract_y
 _atom_site_fract_z
 _atom_site_occupancy
  Sc  Sc0  1  0.00000000  0.65448700  0.66451900  1
  Sc  Sc1  1  0.50000000  0.33360900  0.33250400  1
  H  H0  1  0.16308600  0.48028700  0.88261300  1
  H  H1  1  0.83691400  0.48028700  0.88261300  1
  H  H2  1  0.73482100  0.76040100  0.70898100  1
  H  H3  1  0.26517900  0.76040100  0.70898100  1
  H  H4  1  0.15318300  0.87510800  0.64022700  1
  H  H5  1  0.84681700  0.87510800  0.64022700  1
  H  H6  1  0.28071100  0.53151000  0.77003600  1
  H  H7  1  0.71928900  0.53151000  0.77003600  1
  H  H8  1  0.90601500  0.43117000  0.66830100  1
  H  H9  1  0.09398500  0.43117000  0.66830100  1
  H  H10  1  0.72300500  0.71906300  0.52059300  1
  H  H11  1  0.27699500  0.71906300  0.52059300  1
  H  H12  1  0.16434300  0.64524100  0.47773500  1
  H  H13  1  0.83565700  0.64524100  0.47773500  1
  H  H14  1  0.67101700  0.35931200  0.51636800  1
  H  H15  1  0.32898300  0.35931200  0.51636800  1
  H  H16  1  0.21033300  0.28984800  0.47375900  1
  H  H17  1  0.78966700  0.28984800  0.47375900  1
  H  H18  1  0.59345600  0.56210800  0.32801100  1
  H  H19  1  0.40654400  0.56210800  0.32801100  1
  H  H20  1  0.40624100  0.10642400  0.56109100  1
  H  H21  1  0.59375900  0.10642400  0.56109100  1
  H  H22  1  0.78919500  0.47440600  0.23466500  1
  H  H23  1  0.21080500  0.47440600  0.23466500  1
  H  H24  1  0.67107700  0.12229700  0.35925300  1
  H  H25  1  0.32892300  0.12229700  0.35925300  1
  H  H26  1  0.21132200  0.23525600  0.29038600  1
  H  H27  1  0.78867800  0.23525600  0.29038600  1
  H  H28  1  0.67057600  0.51821300  0.12282300  1
  H  H29  1  0.32942400  0.51821300  0.12282300  1
  H  H30  1  0.40624100  0.33024700  0.10768100  1
  H  H31  1  0.59375900  0.33024700  0.10768100  1
  C  C0  1  0.50000000  0.82858400  0.92424900  1
  C  C1  1  0.50000000  0.24658500  0.82957700  1
  C  C2  1  0.00000000  0.07477900  0.75388400  1
  C  C3  1  0.50000000  0.92371200  0.24733500  1
  C  C4  1  0.00000000  0.75402300  0.17158600  1
  C  C5  1  0.00000000  0.17042500  0.07498300  1
  S  S0  1  0.50000000  0.68718700  0.91365400  1
  S  S1  1  0.50000000  0.39867700  0.69096400  1
  S  S2  1  0.50000000  0.91327600  0.39811700  1
  S  S3  1  0.00000000  0.08492500  0.60327900  1
  S  S4  1  0.00000000  0.60312400  0.31179800  1
  S  S5  1  0.00000000  0.31169000  0.08540100  1
  O  O0  1  0.64558100  0.62618700  0.97403700  1
  O  O1  1  0.35441900  0.62618700  0.97403700  1
  O  O2  1  0.50000000  0.73129900  0.78349500  1
  O  O3  1  0.82441500  0.54250400  0.79578700  1
  O  O4  1  0.17558500  0.54250400  0.79578700  1
  O  O5  1  0.16152000  0.78635800  0.67019300  1
  O  O6  1  0.83848000  0.78635800  0.67019300  1
  O  O7  1  0.50000000  0.48534700  0.73545200  1
  O  O8  1  0.00000000  0.48211400  0.64693500  1
  O  O9  1  0.64588000  0.97319200  0.39947900  1
  O  O10  1  0.35412000  0.97319200  0.39947900  1
  O  O11  1  0.17433600  0.67800600  0.53404200  1
  O  O12  1  0.82566400  0.67800600  0.53404200  1
  O  O13  1  0.50000000  0.78172300  0.48365300  1
  O  O14  1  0.35390000  0.39914800  0.62995600  1
  O  O15  1  0.64610000  0.39914800  0.62995600  1
  O  O16  1  0.14578700  0.60323300  0.37345000  1
  O  O17  1  0.85421300  0.60323300  0.37345000  1
  O  O18  1  0.00000000  0.21521600  0.51799900  1
  O  O19  1  0.68943800  0.33420000  0.45576900  1
  O  O20  1  0.31056200  0.33420000  0.45576900  1
  O  O21  1  0.14540000  0.02313400  0.60228000  1
  O  O22  1  0.85460000  0.02313400  0.60228000  1
  O  O23  1  0.50000000  0.51077300  0.35568800  1
  O  O24  1  0.50000000  0.13799800  0.51112200  1
  O  O25  1  0.00000000  0.51498400  0.26999700  1
  O  O26  1  0.68807400  0.20913300  0.33363300  1
  O  O27  1  0.31192600  0.20913300  0.33363300  1
  O  O28  1  0.31308100  0.45845400  0.20924200  1
  O  O29  1  0.68691900  0.45845400  0.20924200  1
  O  O30  1  0.00000000  0.27045200  0.21373800  1
  O  O31  1  0.50000000  0.35111300  0.13744600  1
  O  O32  1  0.14560400  0.37366300  0.02346200  1
  O  O33  1  0.85439600  0.37366300  0.02346200  1
  F  F0  1  0.00000000  0.95858600  0.84279500  1
  F  F1  1  0.62947500  0.89625700  0.86957200  1
  F  F2  1  0.37052500  0.89625700  0.86957200  1
  F  F3  1  0.00000000  0.19830700  0.95822100  1
  F  F4  1  0.62967900  0.23447800  0.89641200  1
  F  F5  1  0.37032100  0.23447800  0.89641200  1
  F  F6  1  0.50000000  0.15738900  0.80124600  1
  F  F7  1  0.12957300  0.13107600  0.76489300  1
  F  F8  1  0.87042700  0.13107600  0.76489300  1
  F  F9  1  0.62953600  0.86861700  0.23472300  1
  F  F10  1  0.37046400  0.86861700  0.23472300  1
  F  F11  1  0.00000000  0.84396600  0.19891800  1
  F  F12  1  0.12967200  0.76478300  0.10565100  1
  F  F13  1  0.87032800  0.76478300  0.10565100  1
  F  F14  1  0.50000000  0.80182700  0.04052300  1
  F  F15  1  0.12968400  0.10416500  0.12921400  1
  F  F16  1  0.87031600  0.10416500  0.12921400  1
  F  F17  1  0.50000000  0.04096200  0.15858400  1
loop_
_geom_bond_atom_site_label_1
_geom_bond_atom_site_label_2
_geom_bond_distance
_geom_bond_site_symmetry_2
H0 O4 1.002492 1_555
H0 O32 1.642795 1_556
H1 O3 1.002492 1_555
H1 O33 1.642795 1_556
H2 O6 0.981748 1_555
H3 O5 0.981748 1_555
H4 O5 0.998982 1_555
H4 O21 1.697240 1_565
H5 O6 0.998982 1_555
H5 O22 1.697240 1_565
H6 O4 0.983047 1_555
H7 O3 0.983047 1_555
H8 O8 0.975839 1_655
H9 O8 0.975839 1_555
H10 O12 0.984163 1_555
H11 O11 0.984163 1_555
H12 O11 1.000515 1_555
H12 O16 1.675838 1_555
H13 O12 1.000515 1_555
H13 O17 1.675838 1_555
H14 O19 0.988330 1_555
H15 O20 0.988330 1_555
H16 O20 0.981108 1_555
H17 O19 0.981108 1_555
H18 O23 0.974078 1_555
H19 O23 0.974078 1_555
H20 O24 0.973188 1_555
H21 O24 0.973188 1_555
H22 O29 0.981169 1_555
H23 O28 0.981169 1_555
H24 O26 0.994896 1_555
H24 O9 1.715060 1_545
H25 O27 0.994896 1_555
H25 O10 1.715060 1_545
H26 O27 0.980221 1_555
H27 O26 0.980221 1_555
H28 O29 0.995606 1_555
H29 O28 0.995606 1_555
H30 O31 0.972949 1_555
H31 O31 0.972949 1_555
C0 F2 1.355119 1_555
C0 F1 1.355119 1_555
C0 F14 1.355599 1_556
C1 F6 1.352336 1_555
C1 F4 1.353881 1_555
C1 F5 1.353881 1_555
C2 F0 1.347674 1_545
C2 F7 1.355120 1_555
C2 F8 1.355120 1_455
C3 F10 1.353646 1_555
C3 F9 1.353646 1_555
C3 F17 1.356220 1_565
C4 F13 1.350679 1_455
C4 F12 1.350679 1_555
C4 F11 1.352856 1_555
C5 F15 1.348654 1_555
C5 F16 1.348654 1_455
C5 F3 1.357558 1_554
O0 S0 1.457919 1_555
O1 S0 1.457919 1_555
O2 S0 1.474625 1_555
O3 Sc0 2.167516 1_655
O4 Sc0 2.167516 1_555
O5 Sc0 2.193454 1_555
O6 Sc0 2.193454 1_655
O7 S1 1.471518 1_555
O8 Sc0 2.313353 1_555
O9 S2 1.455902 1_555
O10 S2 1.455902 1_555
O11 Sc0 2.138397 1_555
O12 Sc0 2.138397 1_655
O13 S2 1.478652 1_555
O14 S1 1.461987 1_555
O15 S1 1.461987 1_555
O16 S4 1.466137 1_555
O17 S4 1.466137 1_655
O18 S3 1.465797 1_555
O19 Sc1 2.254717 1_555
O20 Sc1 2.254717 1_555
O21 S3 1.463975 1_555
O22 S3 1.463975 1_655
O23 Sc1 2.415441 1_555
O24 Sc1 2.407389 1_555
O25 S4 1.463247 1_555
O26 Sc1 2.240695 1_555
O27 Sc1 2.240695 1_555
O28 Sc1 2.244768 1_555
O29 Sc1 2.244768 1_555
O30 S5 1.459431 1_555
O31 Sc1 2.399725 1_555
O32 S5 1.466836 1_555
O33 S5 1.466836 1_655
