# generated using pymatgen
data_CuPO4
_symmetry_space_group_name_H-M   'P 1'
_cell_length_a   8.75528412
_cell_length_b   8.75528412
_cell_length_c   8.75528377
_cell_angle_alpha   108.62250501
_cell_angle_beta   108.62250501
_cell_angle_gamma   108.62249925
_symmetry_Int_Tables_number   1
_chemical_formula_structural   CuPO4
_chemical_formula_sum   'Cu6 P6 O24'
_cell_volume   532.25633982
_cell_formula_units_Z   6
loop_
 _symmetry_equiv_pos_site_id
 _symmetry_equiv_pos_as_xyz
  1  'x, y, z'
loop_
 _atom_site_type_symbol
 _atom_site_label
 _atom_site_symmetry_multiplicity
 _atom_site_fract_x
 _atom_site_fract_y
 _atom_site_fract_z
 _atom_site_occupancy
  Cu  Cu0  1  0.47276500  0.24190000  0.05625700  1
  Cu  Cu1  1  0.24190000  0.05625700  0.47276500  1
  Cu  Cu2  1  0.05625700  0.47276500  0.24190000  1
  Cu  Cu3  1  0.76764800  0.96395500  0.54708800  1
  Cu  Cu4  1  0.54708800  0.76764800  0.96395500  1
  Cu  Cu5  1  0.96395500  0.54708800  0.76764800  1
  P  P0  1  0.71647600  0.11999200  0.90616400  1
  P  P1  1  0.20814700  0.42999100  0.60987600  1
  P  P2  1  0.42999100  0.60987600  0.20814700  1
  P  P3  1  0.60987600  0.20814700  0.42999100  1
  P  P4  1  0.11999200  0.90616400  0.71647600  1
  P  P5  1  0.90616400  0.71647600  0.11999200  1
  O  O0  1  0.29736900  0.61867900  0.28686600  1
  O  O1  1  0.70033200  0.08117300  0.40810700  1
  O  O2  1  0.40810700  0.70033200  0.08117300  1
  O  O3  1  0.41123500  0.09195500  0.38201900  1
  O  O4  1  0.65959800  0.00520600  0.70466800  1
  O  O5  1  0.00244000  0.91838900  0.26772800  1
  O  O6  1  0.61867900  0.28686600  0.29736900  1
  O  O7  1  0.36653300  0.62694500  0.71153100  1
  O  O8  1  0.00520600  0.70466800  0.65959800  1
  O  O9  1  0.62694500  0.71153100  0.36653300  1
  O  O10  1  0.21586200  0.91428700  0.59482300  1
  O  O11  1  0.91838900  0.26772800  0.00244000  1
  O  O12  1  0.00134600  0.00216100  0.69262400  1
  O  O13  1  0.91428700  0.59482300  0.21586200  1
  O  O14  1  0.70466800  0.65959800  0.00520600  1
  O  O15  1  0.00216100  0.69262400  0.00134600  1
  O  O16  1  0.09195500  0.38201900  0.41123500  1
  O  O17  1  0.59482300  0.21586200  0.91428700  1
  O  O18  1  0.28686600  0.29736900  0.61867900  1
  O  O19  1  0.08117300  0.40810700  0.70033200  1
  O  O20  1  0.26772800  0.00244000  0.91838900  1
  O  O21  1  0.69262400  0.00134600  0.00216100  1
  O  O22  1  0.38201900  0.41123500  0.09195500  1
  O  O23  1  0.71153100  0.36653300  0.62694500  1
loop_
_geom_bond_atom_site_label_1
_geom_bond_atom_site_label_2
_geom_bond_distance
_geom_bond_site_symmetry_2
Cu0 O22 1.881995 1_555
Cu0 O17 1.887319 1_554
Cu0 O6 1.915467 1_555
Cu0 O20 1.916051 1_554
Cu1 O3 1.881995 1_555
Cu1 O10 1.887319 1_545
Cu1 O18 1.915467 1_555
Cu1 O5 1.916051 1_545
Cu2 O16 1.881995 1_555
Cu2 O13 1.887319 1_455
Cu2 O0 1.915467 1_555
Cu2 O11 1.916051 1_455
Cu3 O12 1.883500 1_665
Cu3 O1 1.899233 1_565
Cu3 O4 1.913730 1_565
Cu3 O9 1.920165 1_555
Cu4 O21 1.883500 1_566
Cu4 O2 1.899233 1_556
Cu4 O14 1.913730 1_556
Cu4 O7 1.920165 1_555
Cu5 O15 1.883500 1_656
Cu5 O19 1.899233 1_655
Cu5 O8 1.913730 1_655
Cu5 O23 1.920165 1_555
O0 P2 1.537379 1_555
O1 P3 1.556585 1_555
O2 P2 1.556585 1_555
O3 P3 1.538382 1_555
O4 P0 1.535317 1_555
O5 P5 1.549301 1_455
O6 P3 1.537378 1_555
O7 P1 1.546937 1_555
O8 P4 1.535318 1_555
O9 P2 1.546937 1_555
O10 P4 1.557331 1_555
O11 P0 1.549301 1_554
O12 P4 1.536305 1_545
O13 P5 1.557331 1_555
O14 P5 1.535317 1_555
O15 P5 1.536305 1_455
O16 P1 1.538382 1_555
O17 P0 1.557331 1_555
O18 P1 1.537378 1_555
O19 P1 1.556585 1_555
O20 P4 1.549301 1_545
O21 P0 1.536305 1_554
O22 P2 1.538382 1_555
O23 P3 1.546937 1_555
