# generated using pymatgen
data_Na12B26O45
_symmetry_space_group_name_H-M   'P 1'
_cell_length_a   9.64101898
_cell_length_b   10.74558894
_cell_length_c   18.34975950
_cell_angle_alpha   107.03478757
_cell_angle_beta   105.23751835
_cell_angle_gamma   90.00576722
_symmetry_Int_Tables_number   1
_chemical_formula_structural   Na12B26O45
_chemical_formula_sum   'Na24 B52 O90'
_cell_volume   1747.57027231
_cell_formula_units_Z   2
loop_
 _symmetry_equiv_pos_site_id
 _symmetry_equiv_pos_as_xyz
  1  'x, y, z'
loop_
 _atom_site_type_symbol
 _atom_site_label
 _atom_site_symmetry_multiplicity
 _atom_site_fract_x
 _atom_site_fract_y
 _atom_site_fract_z
 _atom_site_occupancy
  Na  Na0  1  0.38947166  0.31057757  0.90835072  1
  Na  Na1  1  0.71877734  0.32198378  0.75358515  1
  Na  Na2  1  0.58799097  0.83656790  0.40705992  1
  Na  Na3  1  0.30583838  0.19727889  0.39892474  1
  Na  Na4  1  0.03575793  0.82382811  0.75360966  1
  Na  Na5  1  0.81489712  0.33221727  0.40592452  1
  Na  Na6  1  0.69584211  0.79836315  0.60050862  1
  Na  Na7  1  0.03876203  0.22454154  0.91340707  1
  Na  Na8  1  0.50669789  0.29807854  0.25712253  1
  Na  Na9  1  0.96492177  0.31484768  0.09026438  1
  Na  Na10  1  0.49641928  0.04156945  0.74502924  1
  Na  Na11  1  0.48207663  0.89932539  0.08984629  1
  Na  Na12  1  0.28204288  0.56916274  0.24623940  1
  Na  Na13  1  0.09282331  0.69830027  0.39836466  1
  Na  Na14  1  0.51831103  0.80857232  0.91026536  1
  Na  Na15  1  0.74755796  0.79814753  0.25392229  1
  Na  Na16  1  0.87644869  0.71966894  0.90906970  1
  Na  Na17  1  0.90507071  0.29949672  0.60229598  1
  Na  Na18  1  0.24816950  0.54632930  0.74556298  1
  Na  Na19  1  0.96622299  0.06874673  0.24603856  1
  Na  Na20  1  0.41034136  0.43022502  0.59278044  1
  Na  Na21  1  0.18627601  0.92685928  0.59333252  1
  Na  Na22  1  0.61118729  0.39760638  0.08893119  1
  Na  Na23  1  0.12425604  0.81402083  0.08938088  1
  B  B0  1  0.92204435  0.01598658  0.04764851  1
  B  B1  1  0.60311689  0.23145609  0.54015161  1
  B  B2  1  0.79208894  0.85464239  0.08706252  1
  B  B3  1  0.56720399  0.03749843  0.30835382  1
  B  B4  1  0.43132610  0.16236195  0.60534413  1
  B  B5  1  0.10474479  0.43335928  0.53515628  1
  B  B6  1  0.58183533  0.58601186  0.76491715  1
  B  B7  1  0.89355922  0.90021768  0.46641257  1
  B  B8  1  0.69156459  0.79233454  0.77064104  1
  B  B9  1  0.06323868  0.18932158  0.46055583  1
  B  B10  1  0.81773178  0.32108923  0.23496537  1
  B  B11  1  0.42841371  0.93313278  0.53418117  1
  B  B12  1  0.41661244  0.82119891  0.23454753  1
  B  B13  1  0.18296198  0.08587882  0.76572781  1
  B  B14  1  0.66027651  0.07181198  0.61047501  1
  B  B15  1  0.33942952  0.46016651  0.38755176  1
  B  B16  1  0.27163548  0.15298856  0.13046265  1
  B  B17  1  0.74116417  0.53799678  0.30833792  1
  B  B18  1  0.91868834  0.08769916  0.69739598  1
  B  B19  1  0.77791545  0.58637236  0.69682564  1
  B  B20  1  0.08098251  0.39041803  0.30246114  1
  B  B21  1  0.63988149  0.11739288  0.98605547  1
  B  B22  1  0.38221499  0.59898776  0.12343993  1
  B  B23  1  0.87337941  0.46578604  0.95220433  1
  B  B24  1  0.43286341  0.72852007  0.69070534  1
  B  B25  1  0.25735463  0.97456247  0.87666427  1
  B  B26  1  0.61899906  0.47455573  0.87618769  1
  B  B27  1  0.17367334  0.66227133  0.60556601  1
  B  B28  1  0.70277031  0.26568416  0.91190910  1
  B  B29  1  0.95006919  0.57186957  0.61130047  1
  B  B30  1  0.56880695  0.55687435  0.39383843  1
  B  B31  1  0.29759553  0.35447213  0.08807805  1
  B  B32  1  0.25879352  0.22714928  0.69125451  1
  B  B33  1  0.34545741  0.61930199  0.98727734  1
  B  B34  1  0.36065059  0.13068683  0.01399582  1
  B  B35  1  0.73087908  0.02190495  0.87042452  1
  B  B36  1  0.91880215  0.52212112  0.22827884  1
  B  B37  1  0.07878970  0.96824310  0.95218933  1
  B  B38  1  0.74301590  0.09934409  0.12336688  1
  B  B39  1  0.39504798  0.68926373  0.45891607  1
  B  B40  1  0.08094407  0.29295812  0.77135081  1
  B  B41  1  0.57180682  0.40050449  0.46533549  1
  B  B42  1  0.22189980  0.89114861  0.30324075  1
  B  B43  1  0.14050366  0.52325078  0.87114140  1
  B  B44  1  0.82542418  0.05572334  0.39434341  1
  B  B45  1  0.93594001  0.73115739  0.54120789  1
  B  B46  1  0.86039274  0.65220470  0.12894489  1
  B  B47  1  0.30930284  0.02256880  0.22906447  1
  B  B48  1  0.65412898  0.63174248  0.01319338  1
  B  B49  1  0.20718069  0.76717206  0.91278618  1
  B  B50  1  0.04945406  0.96077935  0.38920028  1
  B  B51  1  0.12710226  0.51508408  0.04806747  1
  O  O0  1  0.65582094  0.71333811  0.81675727  1
  O  O1  1  0.32285670  0.80357960  0.28699403  1
  O  O2  1  0.95118590  0.59561012  0.17822060  1
  O  O3  1  0.91917136  0.17397905  0.45489859  1
  O  O4  1  0.87939342  0.78386892  0.14037120  1
  O  O5  1  0.89203318  0.88849427  0.04304298  1
  O  O6  1  0.69601945  0.10760916  0.35384232  1
  O  O7  1  0.26354270  0.00089014  0.80504762  1
  O  O8  1  0.55432874  0.90274840  0.28972410  1
  O  O9  1  0.78532145  0.02382929  0.65593080  1
  O  O10  1  0.60442463  0.33228943  0.86496441  1
  O  O11  1  0.87216623  0.52236738  0.65705303  1
  O  O12  1  0.96391630  0.30334743  0.28724155  1
  O  O13  1  0.73728863  0.19659210  0.19557983  1
  O  O14  1  0.35260944  0.81103934  0.49416805  1
  O  O15  1  0.14058781  0.31116969  0.49591251  1
  O  O16  1  0.32904000  0.73917727  0.97436900  1
  O  O17  1  0.29121575  0.58770872  0.42690642  1
  O  O18  1  0.00217733  0.04762575  0.00084693  1
  O  O19  1  0.13594477  0.08847979  0.42839735  1
  O  O20  1  0.15262064  0.38808842  0.04474015  1
  O  O21  1  0.56434177  0.55150868  0.94392892  1
  O  O22  1  0.12917655  0.86687994  0.34400909  1
  O  O23  1  0.78631964  0.72231738  0.72148427  1
  O  O24  1  0.07950809  0.72078374  0.54571443  1
  O  O25  1  0.61991264  0.10756776  0.05562754  1
  O  O26  1  0.70659872  0.15973229  0.57051320  1
  O  O27  1  0.53398396  0.67483776  0.45368081  1
  O  O28  1  0.73674680  0.14204782  0.85863988  1
  O  O29  1  0.54174458  0.50103251  0.80455933  1
  O  O30  1  0.22071499  0.61879942  0.09837888  1
  O  O31  1  0.21514350  0.36587145  0.34206362  1
  O  O32  1  0.67563648  0.00761747  0.93162177  1
  O  O33  1  0.93570164  0.22408443  0.72264844  1
  O  O34  1  0.02679599  0.90464796  0.45315322  1
  O  O35  1  0.34316129  0.89692179  0.18259497  1
  O  O36  1  0.64079315  0.23703971  0.97252333  1
  O  O37  1  0.87907693  0.11951655  0.09862881  1
  O  O38  1  0.21521936  0.00280365  0.27914827  1
  O  O39  1  0.77257662  0.91680379  0.82089756  1
  O  O40  1  0.90805671  0.98213035  0.34087361  1
  O  O41  1  0.09140916  0.64258459  0.65931519  1
  O  O42  1  0.38043335  0.04941325  0.94509451  1
  O  O43  1  0.10769347  0.84524803  0.95672593  1
  O  O44  1  0.73632747  0.40283868  0.29077058  1
  O  O45  1  0.12033174  0.64349481  0.85986044  1
  O  O46  1  0.43725321  0.60830490  0.05589288  1
  O  O47  1  0.83826802  0.39615863  0.18253751  1
  O  O48  1  0.25623749  0.50905874  0.93243299  1
  O  O49  1  0.43330653  0.48242750  0.33998107  1
  O  O50  1  0.42523572  0.40334610  0.45111755  1
  O  O51  1  0.74053231  0.96779289  0.13414195  1
  O  O52  1  0.65718251  0.60825833  0.35307346  1
  O  O53  1  0.12055232  0.01931462  0.90053621  1
  O  O54  1  0.45885276  0.69711381  0.19534422  1
  O  O55  1  0.86326013  0.66041222  0.57219823  1
  O  O56  1  0.64709049  0.32041799  0.50706008  1
  O  O57  1  0.32754998  0.07699432  0.06984280  1
  O  O58  1  0.83294746  0.60344515  0.28173655  1
  O  O59  1  0.03597173  0.01652387  0.71330011  1
  O  O60  1  0.06298120  0.50225392  0.27834950  1
  O  O61  1  0.46469957  0.22204911  0.54550801  1
  O  O62  1  0.22874199  0.09814068  0.18000781  1
  O  O63  1  0.00023900  0.54438661  0.99983584  1
  O  O64  1  0.66982824  0.76479619  0.02593334  1
  O  O65  1  0.78641717  0.96980469  0.43734639  1
  O  O66  1  0.65078627  0.47188256  0.43772950  1
  O  O67  1  0.97132075  0.45153656  0.54756331  1
  O  O68  1  0.57459808  0.95056670  0.54717259  1
  O  O69  1  0.74341049  0.57700989  0.06813069  1
  O  O70  1  0.26631385  0.11135928  0.71067325  1
  O  O71  1  0.35025680  0.03296174  0.56168455  1
  O  O72  1  0.44355492  0.61304701  0.71031157  1
  O  O73  1  0.85911610  0.82034922  0.50793520  1
  O  O74  1  0.39653446  0.46775866  0.13435334  1
  O  O75  1  0.55291300  0.81856923  0.71521508  1
  O  O76  1  0.56745807  0.14189292  0.65868387  1
  O  O77  1  0.78054492  0.51768871  0.90044300  1
  O  O78  1  0.21116911  0.53280478  0.56272899  1
  O  O79  1  0.25927114  0.83195434  0.86530150  1
  O  O80  1  0.35645178  0.26396279  0.02615505  1
  O  O81  1  0.67440786  0.51532786  0.71147020  1
  O  O82  1  0.30427790  0.75364416  0.64522627  1
  O  O83  1  0.44854658  0.10375768  0.28345144  1
  O  O84  1  0.84704159  0.34348688  0.95687403  1
  O  O85  1  0.16469756  0.31805536  0.71631492  1
  O  O86  1  0.34188718  0.25274894  0.64614266  1
  O  O87  1  0.16175054  0.21392145  0.81774437  1
  O  O88  1  0.05093091  0.41838735  0.82009388  1
  O  O89  1  0.26514193  0.28455487  0.14183683  1
loop_
_geom_bond_atom_site_label_1
_geom_bond_atom_site_label_2
_geom_bond_distance
_geom_bond_site_symmetry_2
Na0 O87 2.394192 1_555
Na0 O10 2.441090 1_555
Na0 O80 2.453818 1_556
Na0 O48 2.478062 1_555
Na0 O36 2.632067 1_555
Na0 O21 2.898531 1_555
Na1 O76 2.365445 1_555
Na1 O81 2.421514 1_555
Na1 O33 2.465233 1_555
Na1 O10 2.540978 1_555
Na1 O29 2.697244 1_555
Na1 O77 2.806227 1_555
Na2 O65 2.234446 1_555
Na2 O27 2.264563 1_555
Na2 O8 2.403475 1_555
Na2 O52 2.523663 1_555
Na2 O68 2.541006 1_555
Na2 O73 2.816932 1_555
Na2 O1 2.845280 1_555
Na3 O19 2.275493 1_555
Na3 O50 2.307151 1_555
Na3 O31 2.400721 1_555
Na3 O38 2.502041 1_555
Na3 O61 2.658281 1_555
Na3 O15 2.723599 1_555
Na3 O83 2.770869 1_555
Na4 O41 2.364012 1_555
Na4 O59 2.394324 1_565
Na4 O23 2.489606 1_455
Na4 O79 2.534824 1_555
Na4 O7 2.681619 1_565
Na4 O53 2.805813 1_565
Na5 O66 2.251439 1_555
Na5 O3 2.265001 1_555
Na5 O44 2.390172 1_555
Na5 O6 2.474742 1_555
Na5 O67 2.580718 1_555
Na5 O56 2.791681 1_555
Na5 O12 2.855183 1_555
Na6 O55 2.250015 1_555
Na6 O68 2.309984 1_555
Na6 O9 2.396468 1_565
Na6 O23 2.530139 1_555
Na6 O73 2.657045 1_555
Na6 O27 2.673995 1_555
Na6 O75 2.762823 1_555
Na7 O53 2.309532 1_555
Na7 O87 2.340324 1_555
Na7 O84 2.421661 1_455
Na7 O20 2.495767 1_556
Na8 O44 2.328818 1_555
Na8 O49 2.353207 1_555
Na8 O83 2.375093 1_555
Na8 O89 2.673952 1_555
Na8 O13 2.829392 1_555
Na9 O47 2.311172 1_555
Na9 O37 2.317173 1_555
Na9 O20 2.402375 1_655
Na9 O84 2.521240 1_554
Na10 O70 2.328852 1_555
Na10 O76 2.390107 1_555
Na10 O75 2.393083 1_545
Na10 O28 2.649909 1_555
Na10 O7 2.833083 1_555
Na11 O16 2.418268 1_554
Na11 O35 2.432024 1_555
Na11 O51 2.448581 1_555
Na11 O57 2.474433 1_565
Na11 O64 2.620071 1_555
Na12 O49 2.361204 1_555
Na12 O1 2.408445 1_555
Na12 O60 2.495307 1_555
Na12 O74 2.549824 1_555
Na12 O54 2.693881 1_555
Na12 O30 2.828476 1_555
Na13 O17 2.276735 1_555
Na13 O34 2.315834 1_555
Na13 O22 2.375161 1_555
Na13 O60 2.513803 1_555
Na13 O24 2.680537 1_555
Na13 O14 2.695975 1_555
Na13 O58 2.792717 1_455
Na14 O64 2.411524 1_556
Na14 O0 2.432313 1_555
Na14 O79 2.453447 1_555
Na14 O32 2.494936 1_565
Na14 O16 2.628952 1_555
Na15 O8 2.318738 1_555
Na15 O40 2.387908 1_555
Na15 O58 2.391781 1_555
Na15 O4 2.680561 1_555
Na15 O54 2.797223 1_555
Na16 O77 2.304766 1_555
Na16 O0 2.331725 1_555
Na16 O43 2.416453 1_655
Na16 O5 2.559300 1_556
Na17 O26 2.270838 1_555
Na17 O67 2.320379 1_555
Na17 O11 2.367166 1_555
Na17 O33 2.515323 1_555
Na17 O3 2.684959 1_555
Na17 O56 2.690020 1_555
Na17 O85 2.772214 1_655
Na18 O72 2.322220 1_555
Na18 O41 2.358130 1_555
Na18 O85 2.440045 1_555
Na18 O45 2.661568 1_555
Na18 O29 2.849251 1_555
Na19 O40 2.381363 1_545
Na19 O12 2.412324 1_555
Na19 O38 2.473854 1_655
Na19 O51 2.544269 1_545
Na19 O13 2.699587 1_555
Na19 O37 2.826712 1_555
Na20 O78 2.237483 1_555
Na20 O61 2.265706 1_555
Na20 O72 2.401586 1_555
Na20 O86 2.542612 1_555
Na20 O50 2.572480 1_555
Na20 O15 2.792290 1_555
Na20 O81 2.824741 1_555
Na21 O71 2.237565 1_565
Na21 O24 2.262683 1_555
Na21 O70 2.405697 1_565
Na21 O82 2.476873 1_555
Na21 O34 2.568823 1_555
Na21 O14 2.763874 1_555
Na21 O59 2.882463 1_565
Na22 O36 2.404657 1_554
Na22 O47 2.404700 1_555
Na22 O74 2.466683 1_555
Na22 O69 2.484650 1_555
Na22 O80 2.638891 1_555
Na23 O35 2.320060 1_555
Na23 O30 2.327090 1_555
Na23 O5 2.402980 1_455
Na23 O43 2.517464 1_554
B0 O37 1.370543 1_555
B0 O5 1.373658 1_545
B0 O18 1.403475 1_655
B1 O26 1.363563 1_555
B1 O61 1.369476 1_555
B1 O56 1.391986 1_555
B2 O51 1.442959 1_555
B2 O4 1.498971 1_555
B2 O64 1.499989 1_555
B2 O5 1.514738 1_555
B3 O6 1.375910 1_555
B3 O8 1.384386 1_545
B3 O83 1.392996 1_555
B4 O86 1.469970 1_555
B4 O76 1.476434 1_555
B4 O71 1.484625 1_555
B4 O61 1.522728 1_555
B5 O78 1.364104 1_555
B5 O67 1.368429 1_455
B5 O15 1.392430 1_555
B6 O29 1.431536 1_555
B6 O0 1.471809 1_555
B6 O72 1.527804 1_555
B6 O81 1.535930 1_555
B7 O65 1.361925 1_555
B7 O34 1.372064 1_655
B7 O73 1.394073 1_555
B8 O0 1.459283 1_555
B8 O39 1.465562 1_555
B8 O23 1.499966 1_555
B8 O75 1.534334 1_555
B9 O19 1.362605 1_555
B9 O3 1.371602 1_455
B9 O15 1.392534 1_555
B10 O13 1.432545 1_555
B10 O47 1.473161 1_555
B10 O44 1.527006 1_555
B10 O12 1.529509 1_555
B11 O71 1.362377 1_565
B11 O68 1.369458 1_555
B11 O14 1.395642 1_555
B12 O54 1.432940 1_555
B12 O35 1.473810 1_555
B12 O8 1.526165 1_555
B12 O1 1.530698 1_555
B13 O7 1.431685 1_555
B13 O87 1.476198 1_555
B13 O70 1.526455 1_555
B13 O59 1.533716 1_555
B14 O9 1.462357 1_555
B14 O76 1.475251 1_555
B14 O26 1.485826 1_555
B14 O68 1.528974 1_545
B15 O31 1.462082 1_555
B15 O49 1.475101 1_555
B15 O17 1.487472 1_555
B15 O50 1.525727 1_555
B16 O62 1.362507 1_555
B16 O89 1.371202 1_555
B16 O57 1.406364 1_555
B17 O52 1.373247 1_555
B17 O44 1.390395 1_555
B17 O58 1.394256 1_555
B18 O9 1.372166 1_555
B18 O59 1.380640 1_655
B18 O33 1.396977 1_555
B19 O11 1.373307 1_555
B19 O81 1.382700 1_555
B19 O23 1.392371 1_555
B20 O31 1.374398 1_555
B20 O12 1.381384 1_455
B20 O60 1.393294 1_555
B21 O25 1.373373 1_556
B21 O36 1.379453 1_555
B21 O32 1.413758 1_555
B22 O54 1.439059 1_555
B22 O74 1.482768 1_555
B22 O46 1.498761 1_555
B22 O30 1.536938 1_555
B23 O84 1.369754 1_555
B23 O77 1.370357 1_555
B23 O63 1.406599 1_655
B24 O82 1.376384 1_555
B24 O72 1.386288 1_555
B24 O75 1.396187 1_555
B25 O7 1.438616 1_565
B25 O79 1.485570 1_555
B25 O42 1.502180 1_565
B25 O53 1.530706 1_565
B26 O29 1.437985 1_555
B26 O10 1.483061 1_555
B26 O21 1.499582 1_555
B26 O77 1.534026 1_555
B27 O82 1.475997 1_555
B27 O41 1.476455 1_555
B27 O78 1.480786 1_555
B27 O24 1.518652 1_555
B28 O10 1.444067 1_555
B28 O28 1.495098 1_555
B28 O36 1.496256 1_555
B28 O84 1.518801 1_555
B29 O11 1.464550 1_555
B29 O41 1.478842 1_655
B29 O55 1.484928 1_555
B29 O67 1.523738 1_555
B30 O52 1.472170 1_555
B30 O49 1.476880 1_555
B30 O66 1.484565 1_555
B30 O27 1.517772 1_555
B31 O74 1.442628 1_555
B31 O89 1.493948 1_555
B31 O80 1.500178 1_555
B31 O20 1.516781 1_555
B32 O86 1.372820 1_555
B32 O70 1.387999 1_555
B32 O85 1.394607 1_555
B33 O46 1.372572 1_556
B33 O16 1.378238 1_555
B33 O48 1.415027 1_555
B34 O42 1.370198 1_554
B34 O80 1.385625 1_555
B34 O57 1.415335 1_555
B35 O39 1.361542 1_545
B35 O28 1.373551 1_555
B35 O32 1.408413 1_555
B36 O47 1.459798 1_555
B36 O2 1.463050 1_555
B36 O60 1.505190 1_655
B36 O58 1.528305 1_555
B37 O53 1.366372 1_565
B37 O43 1.372478 1_555
B37 O18 1.403897 1_566
B38 O13 1.441554 1_555
B38 O51 1.484640 1_545
B38 O25 1.500126 1_555
B38 O37 1.531134 1_555
B39 O17 1.361296 1_555
B39 O27 1.373475 1_555
B39 O14 1.393352 1_555
B40 O87 1.458800 1_555
B40 O88 1.459493 1_555
B40 O33 1.503886 1_455
B40 O85 1.527348 1_555
B41 O66 1.361971 1_555
B41 O50 1.369936 1_555
B41 O56 1.395586 1_555
B42 O22 1.375705 1_555
B42 O1 1.382041 1_555
B42 O38 1.391020 1_565
B43 O88 1.359810 1_555
B43 O45 1.373235 1_555
B43 O48 1.405012 1_555
B44 O6 1.474860 1_555
B44 O40 1.476177 1_545
B44 O65 1.482985 1_545
B44 O3 1.520168 1_555
B45 O55 1.361949 1_555
B45 O24 1.371270 1_655
B45 O73 1.394705 1_555
B46 O2 1.363773 1_555
B46 O4 1.373011 1_555
B46 O69 1.407171 1_555
B47 O35 1.458914 1_545
B47 O62 1.460798 1_555
B47 O38 1.504986 1_555
B47 O83 1.531236 1_555
B48 O21 1.373884 1_554
B48 O64 1.381030 1_555
B48 O69 1.412240 1_555
B49 O79 1.442687 1_555
B49 O45 1.492178 1_555
B49 O16 1.499707 1_555
B49 O43 1.511386 1_555
B50 O22 1.463367 1_555
B50 O40 1.476891 1_455
B50 O19 1.483869 1_565
B50 O34 1.529091 1_555
B51 O30 1.366716 1_555
B51 O20 1.373191 1_555
B51 O63 1.404545 1_554
