# generated using pymatgen
data_Na3PO4
_symmetry_space_group_name_H-M   'P 1'
_cell_length_a   6.94414200
_cell_length_b   5.51906800
_cell_length_c   5.86405430
_cell_angle_alpha   89.11450693
_cell_angle_beta   90.00000000
_cell_angle_gamma   90.00000000
_symmetry_Int_Tables_number   1
_chemical_formula_structural   Na3PO4
_chemical_formula_sum   'Na6 P2 O8'
_cell_volume   224.71416723
_cell_formula_units_Z   2
loop_
 _symmetry_equiv_pos_site_id
 _symmetry_equiv_pos_as_xyz
  1  'x, y, z'
loop_
 _atom_site_type_symbol
 _atom_site_label
 _atom_site_symmetry_multiplicity
 _atom_site_fract_x
 _atom_site_fract_y
 _atom_site_fract_z
 _atom_site_occupancy
  Na  Na0  1  0.24702700  0.49110600  0.05752400  1
  Na  Na1  1  0.50000000  0.49973400  0.58331000  1
  Na  Na2  1  0.25355500  0.00063800  0.43555100  1
  Na  Na3  1  0.74644500  0.00063800  0.43555100  1
  Na  Na4  1  0.75297300  0.49110600  0.05752400  1
  Na  Na5  1  0.00000000  0.98478400  0.91160100  1
  P  P0  1  0.50000000  0.99768400  0.92941500  1
  P  P1  1  0.00000000  0.50325200  0.56492700  1
  O  O0  1  0.00000000  0.39681100  0.81386400  1
  O  O1  1  0.50000000  0.27997600  0.92114000  1
  O  O2  1  0.81482400  0.41686500  0.43763500  1
  O  O3  1  0.18517600  0.41686500  0.43763500  1
  O  O4  1  0.50000000  0.89985400  0.68083000  1
  O  O5  1  0.31582800  0.90562100  0.05863900  1
  O  O6  1  0.68417200  0.90562100  0.05863900  1
  O  O7  1  0.00000000  0.78611400  0.57391800  1
loop_
_geom_bond_atom_site_label_1
_geom_bond_atom_site_label_2
_geom_bond_distance
_geom_bond_site_symmetry_2
Na0 O1 2.261004 1_554
Na0 O0 2.297380 1_554
Na0 O3 2.300551 1_555
Na0 O5 2.337200 1_555
Na1 O4 2.289673 1_555
Na1 O1 2.306802 1_555
Na1 O2 2.393822 1_555
Na1 O3 2.393822 1_555
Na2 O7 2.265082 1_545
Na2 O4 2.298298 1_545
Na2 O5 2.320119 1_545
Na2 O3 2.345963 1_555
Na3 O7 2.265082 1_645
Na3 O4 2.298298 1_545
Na3 O6 2.320119 1_545
Na3 O2 2.345963 1_555
Na4 O1 2.261004 1_554
Na4 O0 2.297380 1_654
Na4 O2 2.300551 1_555
Na4 O6 2.337200 1_555
Na5 O7 2.278271 1_555
Na5 O0 2.336514 1_565
Na5 O5 2.394290 1_556
Na5 O6 2.394290 1_456
O0 P1 1.565106 1_555
O1 P0 1.557995 1_545
O2 P1 1.564931 1_655
O3 P1 1.564931 1_555
O4 P0 1.562302 1_555
O5 P0 1.567201 1_554
O6 P0 1.567201 1_554
O7 P1 1.562839 1_555
