# generated using pymatgen
data_MgH10C4(N2O3)2
_symmetry_space_group_name_H-M   'P 1'
_cell_length_a   12.20521321
_cell_length_b   12.20521321
_cell_length_c   15.48777618
_cell_angle_alpha   67.24788894
_cell_angle_beta   67.24788894
_cell_angle_gamma   89.34957599
_symmetry_Int_Tables_number   1
_chemical_formula_structural   MgH10C4(N2O3)2
_chemical_formula_sum   'Mg8 H80 C32 N32 O48'
_cell_volume   1935.99517843
_cell_formula_units_Z   8
loop_
 _symmetry_equiv_pos_site_id
 _symmetry_equiv_pos_as_xyz
  1  'x, y, z'
loop_
 _atom_site_type_symbol
 _atom_site_label
 _atom_site_symmetry_multiplicity
 _atom_site_fract_x
 _atom_site_fract_y
 _atom_site_fract_z
 _atom_site_occupancy
  Mg  Mg0  1  0.25287000  0.23990400  0.99625100  1
  Mg  Mg1  1  0.76009600  0.74713000  0.50374900  1
  Mg  Mg2  1  0.74713000  0.76009600  0.00374900  1
  Mg  Mg3  1  0.23990400  0.25287000  0.49625100  1
  Mg  Mg4  1  0.25130600  0.74201700  0.99648700  1
  Mg  Mg5  1  0.25798300  0.74869400  0.50351300  1
  Mg  Mg6  1  0.74869400  0.25798300  0.00351300  1
  Mg  Mg7  1  0.74201700  0.25130600  0.49648700  1
  H  H0  1  0.54185800  0.34989000  0.67065500  1
  H  H1  1  0.65011000  0.45814200  0.82934500  1
  H  H2  1  0.45814200  0.65011000  0.32934500  1
  H  H3  1  0.34989000  0.54185800  0.17065500  1
  H  H4  1  0.50911200  0.49062500  0.60769700  1
  H  H5  1  0.50937500  0.49088800  0.89230300  1
  H  H6  1  0.49088800  0.50937500  0.39230300  1
  H  H7  1  0.49062500  0.50911200  0.10769700  1
  H  H8  1  0.24173100  0.46496200  0.82065100  1
  H  H9  1  0.53503800  0.75826900  0.67934900  1
  H  H10  1  0.75826900  0.53503800  0.17934900  1
  H  H11  1  0.46496200  0.24173100  0.32065100  1
  H  H12  1  0.33210900  0.54833800  0.68831300  1
  H  H13  1  0.45166200  0.66789100  0.81168700  1
  H  H14  1  0.66789100  0.45166200  0.31168700  1
  H  H15  1  0.54833800  0.33210900  0.18831300  1
  H  H16  1  0.96864700  0.01979700  0.32568900  1
  H  H17  1  0.98020300  0.03135300  0.17431100  1
  H  H18  1  0.03135300  0.98020300  0.67431100  1
  H  H19  1  0.01979700  0.96864700  0.82568900  1
  H  H20  1  0.00055600  0.09826400  0.38902700  1
  H  H21  1  0.90173600  0.99944400  0.11097300  1
  H  H22  1  0.99944400  0.90173600  0.61097300  1
  H  H23  1  0.09826400  0.00055600  0.88902700  1
  H  H24  1  0.16467400  0.23903300  0.31172100  1
  H  H25  1  0.76096700  0.83532600  0.18827900  1
  H  H26  1  0.83532600  0.76096700  0.68827900  1
  H  H27  1  0.23903300  0.16467400  0.81172100  1
  H  H28  1  0.24900300  0.29715200  0.17760700  1
  H  H29  1  0.70284800  0.75099700  0.32239300  1
  H  H30  1  0.75099700  0.70284800  0.82239300  1
  H  H31  1  0.29715200  0.24900300  0.67760700  1
  H  H32  1  0.26778400  0.96315400  0.06168800  1
  H  H33  1  0.03684600  0.73221600  0.43831200  1
  H  H34  1  0.73221600  0.03684600  0.93831200  1
  H  H35  1  0.96315400  0.26778400  0.56168800  1
  H  H36  1  0.50471500  0.31035600  0.98347000  1
  H  H37  1  0.68964400  0.49528500  0.51653000  1
  H  H38  1  0.49528500  0.68964400  0.01653000  1
  H  H39  1  0.31035600  0.50471500  0.48347000  1
  H  H40  1  0.41144400  0.95627000  0.59906100  1
  H  H41  1  0.04373000  0.58855600  0.90093900  1
  H  H42  1  0.58855600  0.04373000  0.40093900  1
  H  H43  1  0.95627000  0.41144400  0.09906100  1
  H  H44  1  0.29089000  0.83666200  0.66771400  1
  H  H45  1  0.16333800  0.70911000  0.83228600  1
  H  H46  1  0.70911000  0.16333800  0.33228600  1
  H  H47  1  0.83666200  0.29089000  0.16771400  1
  H  H48  1  0.50904600  0.01101600  0.67862600  1
  H  H49  1  0.98898400  0.49095400  0.82137400  1
  H  H50  1  0.49095400  0.98898400  0.32137400  1
  H  H51  1  0.01101600  0.50904600  0.17862600  1
  H  H52  1  0.45017300  0.94850900  0.81376200  1
  H  H53  1  0.05149100  0.54982700  0.68623800  1
  H  H54  1  0.54982700  0.05149100  0.18623800  1
  H  H55  1  0.94850900  0.45017300  0.31376200  1
  H  H56  1  0.06329500  0.54645900  0.39263500  1
  H  H57  1  0.45354100  0.93670500  0.10736500  1
  H  H58  1  0.93670500  0.45354100  0.60736500  1
  H  H59  1  0.54645900  0.06329500  0.89263500  1
  H  H60  1  0.19396800  0.50008500  0.32638500  1
  H  H61  1  0.49991500  0.80603200  0.17361500  1
  H  H62  1  0.80603200  0.49991500  0.67361500  1
  H  H63  1  0.50008500  0.19396800  0.82638500  1
  H  H64  1  0.06088400  0.78428000  0.17575900  1
  H  H65  1  0.21572000  0.93911600  0.32424100  1
  H  H66  1  0.93911600  0.21572000  0.82424100  1
  H  H67  1  0.78428000  0.06088400  0.67575900  1
  H  H68  1  0.98628200  0.70091000  0.31053700  1
  H  H69  1  0.29909000  0.01371800  0.18946300  1
  H  H70  1  0.01371800  0.29909000  0.68946300  1
  H  H71  1  0.70091000  0.98628200  0.81053700  1
  H  H72  1  0.00271000  0.18916800  0.98764800  1
  H  H73  1  0.81083200  0.99729000  0.51235200  1
  H  H74  1  0.99729000  0.81083200  0.01235200  1
  H  H75  1  0.18916800  0.00271000  0.48764800  1
  H  H76  1  0.17092700  0.47337800  0.04392900  1
  H  H77  1  0.52662200  0.82907300  0.45607100  1
  H  H78  1  0.82907300  0.52662200  0.95607100  1
  H  H79  1  0.47337800  0.17092700  0.54392900  1
  C  C0  1  0.38951500  0.39375200  0.75869700  1
  C  C1  1  0.60624800  0.61048500  0.74130300  1
  C  C2  1  0.61048500  0.60624800  0.24130300  1
  C  C3  1  0.39375200  0.38951500  0.25869700  1
  C  C4  1  0.11415000  0.15655500  0.23618500  1
  C  C5  1  0.84344500  0.88585000  0.26381500  1
  C  C6  1  0.88585000  0.84344500  0.76381500  1
  C  C7  1  0.15655500  0.11415000  0.73618500  1
  C  C8  1  0.21639200  0.98451500  0.01341400  1
  C  C9  1  0.01548500  0.78360800  0.48658600  1
  C  C10  1  0.78360800  0.01548500  0.98658600  1
  C  C11  1  0.98451500  0.21639200  0.51341400  1
  C  C12  1  0.49109700  0.21121200  0.02198800  1
  C  C13  1  0.78878800  0.50890300  0.47801200  1
  C  C14  1  0.50890300  0.78878800  0.97801200  1
  C  C15  1  0.21121200  0.49109700  0.52198800  1
  C  C16  1  0.35498600  0.88602800  0.75562600  1
  C  C17  1  0.11397200  0.64501400  0.74437400  1
  C  C18  1  0.64501400  0.11397200  0.24437400  1
  C  C19  1  0.88602800  0.35498600  0.25562600  1
  C  C20  1  0.14175500  0.64582700  0.23635900  1
  C  C21  1  0.35417300  0.85824500  0.26364100  1
  C  C22  1  0.85824500  0.35417300  0.76364100  1
  C  C23  1  0.64582700  0.14175500  0.73635900  1
  C  C24  1  0.01531700  0.28633800  0.96977200  1
  C  C25  1  0.71366200  0.98468300  0.53022800  1
  C  C26  1  0.98468300  0.71366200  0.03022800  1
  C  C27  1  0.28633800  0.01531700  0.46977200  1
  C  C28  1  0.27055200  0.48798600  0.00644300  1
  C  C29  1  0.51201400  0.72944800  0.49355700  1
  C  C30  1  0.72944800  0.51201400  0.99355700  1
  C  C31  1  0.48798600  0.27055200  0.50644300  1
  N  N0  1  0.48155900  0.40865900  0.66898500  1
  N  N1  1  0.59134100  0.51844100  0.83101500  1
  N  N2  1  0.51844100  0.59134100  0.33101500  1
  N  N3  1  0.40865900  0.48155900  0.16898500  1
  N  N4  1  0.31745200  0.47819700  0.75660900  1
  N  N5  1  0.52180300  0.68254800  0.74339100  1
  N  N6  1  0.68254800  0.52180300  0.24339100  1
  N  N7  1  0.47819700  0.31745200  0.25660900  1
  N  N8  1  0.02628200  0.07939100  0.32604000  1
  N  N9  1  0.92060900  0.97371800  0.17396000  1
  N  N10  1  0.97371800  0.92060900  0.67396000  1
  N  N11  1  0.07939100  0.02628200  0.82604000  1
  N  N12  1  0.18487400  0.23442300  0.24285300  1
  N  N13  1  0.76557700  0.81512600  0.25714700  1
  N  N14  1  0.81512600  0.76557700  0.75714700  1
  N  N15  1  0.23442300  0.18487400  0.74285300  1
  N  N16  1  0.35281200  0.89324500  0.66732400  1
  N  N17  1  0.10675500  0.64718800  0.83267600  1
  N  N18  1  0.64718800  0.10675500  0.33267600  1
  N  N19  1  0.89324500  0.35281200  0.16732400  1
  N  N20  1  0.43847700  0.96464000  0.74840500  1
  N  N21  1  0.03536000  0.56152300  0.75159500  1
  N  N22  1  0.56152300  0.03536000  0.25159500  1
  N  N23  1  0.96464000  0.43847700  0.24840500  1
  N  N24  1  0.13455500  0.55988000  0.32598500  1
  N  N25  1  0.44012000  0.86544500  0.17401500  1
  N  N26  1  0.86544500  0.44012000  0.67401500  1
  N  N27  1  0.55988000  0.13455500  0.82598500  1
  N  N28  1  0.05658500  0.71740000  0.24153700  1
  N  N29  1  0.28260000  0.94341500  0.25846300  1
  N  N30  1  0.94341500  0.28260000  0.75846300  1
  N  N31  1  0.71740000  0.05658500  0.74153700  1
  O  O0  1  0.37181800  0.30064500  0.84068000  1
  O  O1  1  0.69935500  0.62818200  0.65932000  1
  O  O2  1  0.62818200  0.69935500  0.15932000  1
  O  O3  1  0.30064500  0.37181800  0.34068000  1
  O  O4  1  0.13115000  0.15138300  0.15157900  1
  O  O5  1  0.84861700  0.86885000  0.34842100  1
  O  O6  1  0.86885000  0.84861700  0.84842100  1
  O  O7  1  0.15138300  0.13115000  0.65157900  1
  O  O8  1  0.19971700  0.09232400  0.97535900  1
  O  O9  1  0.90767600  0.80028300  0.52464100  1
  O  O10  1  0.80028300  0.90767600  0.02464100  1
  O  O11  1  0.09232400  0.19971700  0.47535900  1
  O  O12  1  0.39140900  0.15420500  0.04181400  1
  O  O13  1  0.84579500  0.60859100  0.45818600  1
  O  O14  1  0.60859100  0.84579500  0.95818600  1
  O  O15  1  0.15420500  0.39140900  0.54181400  1
  O  O16  1  0.11409000  0.33326600  0.96001600  1
  O  O17  1  0.66673400  0.88591000  0.53998400  1
  O  O18  1  0.88591000  0.66673400  0.03998400  1
  O  O19  1  0.33326600  0.11409000  0.46001600  1
  O  O20  1  0.32074400  0.39872300  0.99737600  1
  O  O21  1  0.60127700  0.67925600  0.50262400  1
  O  O22  1  0.67925600  0.60127700  0.00262400  1
  O  O23  1  0.39872300  0.32074400  0.49737600  1
  O  O24  1  0.22584000  0.65785900  0.15113700  1
  O  O25  1  0.34214100  0.77416000  0.34886300  1
  O  O26  1  0.77416000  0.34214100  0.84886300  1
  O  O27  1  0.65785900  0.22584000  0.65113700  1
  O  O28  1  0.28002700  0.80748000  0.84187300  1
  O  O29  1  0.19252000  0.71997300  0.65812700  1
  O  O30  1  0.71997400  0.19252000  0.15812700  1
  O  O31  1  0.80748000  0.28002600  0.34187300  1
  O  O32  1  0.92901600  0.34246900  0.96020700  1
  O  O33  1  0.65753100  0.07098400  0.53979300  1
  O  O34  1  0.07098400  0.65753100  0.03979300  1
  O  O35  1  0.34246900  0.92901600  0.46020700  1
  O  O36  1  0.32623400  0.59235900  0.97514700  1
  O  O37  1  0.40764100  0.67376600  0.52485300  1
  O  O38  1  0.67376600  0.40764100  0.02485300  1
  O  O39  1  0.59235900  0.32623400  0.47514700  1
  O  O40  1  0.17814300  0.89886800  0.99979600  1
  O  O41  1  0.10113200  0.82185700  0.50020400  1
  O  O42  1  0.82185700  0.10113200  0.00020400  1
  O  O43  1  0.89886800  0.17814300  0.49979600  1
  O  O44  1  0.57522800  0.16345900  0.04395800  1
  O  O45  1  0.83654100  0.42477200  0.45604200  1
  O  O46  1  0.42477200  0.83654100  0.95604200  1
  O  O47  1  0.16345900  0.57522800  0.54395800  1
loop_
_geom_bond_atom_site_label_1
_geom_bond_atom_site_label_2
_geom_bond_distance
_geom_bond_site_symmetry_2
Mg0 O0 2.097581 1_555
Mg0 O8 2.099943 1_555
Mg0 O4 2.103168 1_556
Mg0 O20 2.125511 1_555
Mg0 O16 2.163172 1_555
Mg0 O12 2.182437 1_556
Mg1 O1 2.097581 1_555
Mg1 O9 2.099943 1_555
Mg1 O5 2.103168 1_555
Mg1 O21 2.125511 1_555
Mg1 O17 2.163172 1_555
Mg1 O13 2.182437 1_555
Mg2 O2 2.097581 1_555
Mg2 O10 2.099943 1_555
Mg2 O6 2.103168 1_554
Mg2 O22 2.125511 1_555
Mg2 O18 2.163172 1_555
Mg2 O14 2.182437 1_554
Mg3 O3 2.097581 1_555
Mg3 O11 2.099943 1_555
Mg3 O7 2.103168 1_555
Mg3 O23 2.125511 1_555
Mg3 O19 2.163172 1_555
Mg3 O15 2.182437 1_555
Mg4 O28 2.091093 1_555
Mg4 O24 2.101670 1_556
Mg4 O40 2.113440 1_555
Mg4 O36 2.115966 1_555
Mg4 O46 2.162527 1_555
Mg4 O34 2.175262 1_556
Mg5 O29 2.091093 1_555
Mg5 O25 2.101670 1_555
Mg5 O41 2.113440 1_555
Mg5 O37 2.115966 1_555
Mg5 O47 2.162527 1_555
Mg5 O35 2.175262 1_555
Mg6 O30 2.091097 1_555
Mg6 O26 2.101670 1_554
Mg6 O42 2.113440 1_555
Mg6 O38 2.115966 1_555
Mg6 O44 2.162527 1_555
Mg6 O32 2.175262 1_554
Mg7 O31 2.091097 1_555
Mg7 O27 2.101670 1_555
Mg7 O43 2.113440 1_555
Mg7 O39 2.115966 1_555
Mg7 O45 2.162527 1_555
Mg7 O33 2.175262 1_555
H0 N0 1.022350 1_555
H1 N1 1.022350 1_555
H2 N2 1.022350 1_555
H3 N3 1.022350 1_555
H4 N0 1.020365 1_555
H5 N1 1.020365 1_555
H6 N2 1.020365 1_555
H7 N3 1.020365 1_555
H8 N4 1.017077 1_555
H9 N5 1.017077 1_555
H10 N6 1.017077 1_555
H11 N7 1.017077 1_555
H12 N4 1.020012 1_555
H13 N5 1.020012 1_555
H14 N6 1.020012 1_555
H15 N7 1.020012 1_555
H16 N8 1.020563 1_655
H17 N9 1.020563 1_545
H18 N10 1.020563 1_455
H19 N11 1.020563 1_565
H20 N8 1.019094 1_555
H21 N9 1.019094 1_555
H22 N10 1.019094 1_555
H23 N11 1.019094 1_555
H24 N12 1.021917 1_555
H25 N13 1.021917 1_555
H26 N14 1.021917 1_555
H27 N15 1.021917 1_555
H28 N12 1.011605 1_555
H29 N13 1.011605 1_555
H30 N14 1.011605 1_555
H31 N15 1.011605 1_555
H40 N16 1.009864 1_555
H41 N17 1.009864 1_555
H42 N18 1.009864 1_555
H43 N19 1.009864 1_555
H44 N16 1.026283 1_555
H45 N17 1.026283 1_555
H46 N18 1.026283 1_555
H47 N19 1.026283 1_555
H48 N20 1.023777 1_545
H49 N21 1.023777 1_655
H50 N22 1.023777 1_565
H51 N23 1.023777 1_455
H52 N20 1.020167 1_555
H53 N21 1.020167 1_555
H54 N22 1.020167 1_555
H55 N23 1.020167 1_555
H56 N24 1.013337 1_555
H57 N25 1.013337 1_555
H58 N26 1.013337 1_555
H59 N27 1.013337 1_555
H60 N24 1.022969 1_555
H61 N25 1.022969 1_555
H62 N26 1.022969 1_555
H63 N27 1.022969 1_555
H64 N28 1.011599 1_555
H65 N29 1.011599 1_555
H66 N30 1.011599 1_555
H67 N31 1.011599 1_555
H68 N28 1.023275 1_655
H69 N29 1.023275 1_545
H70 N30 1.023275 1_455
H71 N31 1.023275 1_565
C0 O0 1.275783 1_555
C0 N4 1.346314 1_555
C0 N0 1.351835 1_555
C1 O1 1.275783 1_555
C1 N5 1.346314 1_555
C1 N1 1.351835 1_555
C2 O2 1.275783 1_555
C2 N6 1.346314 1_555
C2 N2 1.351835 1_555
C3 O3 1.275783 1_555
C3 N7 1.346314 1_555
C3 N3 1.351835 1_555
C4 O4 1.271794 1_555
C4 N12 1.350011 1_555
C4 N8 1.352246 1_555
C5 O5 1.271794 1_555
C5 N13 1.350011 1_555
C5 N9 1.352246 1_555
C6 O6 1.271794 1_555
C6 N14 1.350011 1_555
C6 N10 1.352246 1_555
C7 O7 1.271794 1_555
C7 N15 1.350011 1_555
C7 N11 1.352246 1_555
C8 H32 1.108450 1_555
C8 O8 1.267693 1_564
C8 O40 1.270012 1_554
C9 H33 1.108450 1_555
C9 O9 1.267693 1_455
C9 O41 1.270012 1_555
C10 H34 1.108450 1_555
C10 O10 1.267693 1_546
C10 O42 1.270012 1_556
C11 H35 1.108450 1_555
C11 O11 1.267693 1_655
C11 O43 1.270012 1_555
C12 H36 1.103309 1_554
C12 O44 1.270096 1_555
C12 O12 1.274275 1_555
C13 H37 1.103309 1_555
C13 O45 1.270096 1_555
C13 O13 1.274275 1_555
C14 H38 1.103309 1_556
C14 O46 1.270096 1_555
C14 O14 1.274275 1_555
C15 H39 1.103309 1_555
C15 O47 1.270096 1_555
C15 O15 1.274275 1_555
C16 O28 1.274568 1_555
C16 N16 1.346712 1_555
C16 N20 1.350023 1_555
C17 O29 1.274568 1_555
C17 N17 1.346712 1_555
C17 N21 1.350023 1_555
C18 O30 1.274572 1_555
C18 N18 1.346712 1_555
C18 N22 1.350023 1_555
C19 O31 1.274572 1_555
C19 N19 1.346712 1_555
C19 N23 1.350023 1_555
C20 O24 1.273845 1_555
C20 N24 1.347742 1_555
C20 N28 1.348789 1_555
C21 O25 1.273845 1_555
C21 N25 1.347742 1_555
C21 N29 1.348789 1_555
C22 O26 1.273845 1_555
C22 N26 1.347742 1_555
C22 N30 1.348789 1_555
C23 O27 1.273845 1_555
C23 N27 1.347742 1_555
C23 N31 1.348789 1_555
C24 H72 1.106388 1_555
C24 O16 1.269674 1_555
C24 O32 1.275380 1_455
C25 H73 1.106388 1_555
C25 O17 1.269674 1_555
C25 O33 1.275380 1_565
C26 H74 1.106388 1_555
C26 O18 1.269674 1_555
C26 O34 1.275380 1_655
C27 H75 1.106388 1_555
C27 O19 1.269674 1_555
C27 O35 1.275380 1_545
C28 H76 1.107335 1_555
C28 O36 1.267626 1_554
C28 O20 1.272243 1_554
C29 H77 1.107335 1_555
C29 O37 1.267626 1_555
C29 O21 1.272243 1_555
C30 H78 1.107335 1_555
C30 O38 1.267626 1_556
C30 O22 1.272243 1_556
C31 H79 1.107335 1_555
C31 O39 1.267626 1_555
C31 O23 1.272243 1_555
