# generated using pymatgen
data_In3Bi7(Pb2S9)2
_symmetry_space_group_name_H-M   'P 1'
_cell_length_a   4.03488900
_cell_length_b   19.03414800
_cell_length_c   21.15074324
_cell_angle_alpha   83.30540272
_cell_angle_beta   90.00000000
_cell_angle_gamma   90.00000000
_symmetry_Int_Tables_number   1
_chemical_formula_structural   In3Bi7(Pb2S9)2
_chemical_formula_sum   'In6 Bi14 Pb8 S36'
_cell_volume   1613.31567058
_cell_formula_units_Z   2
loop_
 _symmetry_equiv_pos_site_id
 _symmetry_equiv_pos_as_xyz
  1  'x, y, z'
loop_
 _atom_site_type_symbol
 _atom_site_label
 _atom_site_symmetry_multiplicity
 _atom_site_fract_x
 _atom_site_fract_y
 _atom_site_fract_z
 _atom_site_occupancy
  In  In0  1  0.25000000  0.37282100  0.72009500  1
  In  In1  1  0.25000000  0.55208100  0.43374500  1
  In  In2  1  0.75000000  0.28175200  0.86299300  1
  In  In3  1  0.75000000  0.44791900  0.56625500  1
  In  In4  1  0.75000000  0.62717900  0.27990500  1
  In  In5  1  0.25000000  0.71824800  0.13700700  1
  Bi  Bi0  1  0.75000000  0.04313800  0.57881700  1
  Bi  Bi1  1  0.25000000  0.06790500  0.23632100  1
  Bi  Bi2  1  0.25000000  0.04304200  0.91408000  1
  Bi  Bi3  1  0.25000000  0.23258200  0.53772000  1
  Bi  Bi4  1  0.25000000  0.95686200  0.42118300  1
  Bi  Bi5  1  0.25000000  0.40166300  0.00353200  1
  Bi  Bi6  1  0.75000000  0.15433300  0.38907300  1
  Bi  Bi7  1  0.75000000  0.93209500  0.76367900  1
  Bi  Bi8  1  0.75000000  0.26511400  0.20542500  1
  Bi  Bi9  1  0.25000000  0.84566700  0.61092700  1
  Bi  Bi10  1  0.75000000  0.76741800  0.46228000  1
  Bi  Bi11  1  0.25000000  0.73488600  0.79457500  1
  Bi  Bi12  1  0.75000000  0.95695800  0.08592000  1
  Bi  Bi13  1  0.75000000  0.59833700  0.99646800  1
  Pb  Pb0  1  0.25000000  0.37455900  0.35791700  1
  Pb  Pb1  1  0.75000000  0.84525200  0.25590300  1
  Pb  Pb2  1  0.75000000  0.80841900  0.96295100  1
  Pb  Pb3  1  0.25000000  0.48488700  0.18115200  1
  Pb  Pb4  1  0.75000000  0.62544100  0.64208300  1
  Pb  Pb5  1  0.25000000  0.19158100  0.03704900  1
  Pb  Pb6  1  0.25000000  0.15474800  0.74409700  1
  Pb  Pb7  1  0.75000000  0.51511300  0.81884800  1
  S  S0  1  0.75000000  0.64363600  0.40644900  1
  S  S1  1  0.75000000  0.00940200  0.33359500  1
  S  S2  1  0.75000000  0.90464600  0.51767300  1
  S  S3  1  0.25000000  0.82842600  0.38071700  1
  S  S4  1  0.75000000  0.27660900  0.74171000  1
  S  S5  1  0.25000000  0.87899800  0.84518700  1
  S  S6  1  0.25000000  0.72339100  0.25829000  1
  S  S7  1  0.75000000  0.12100200  0.15481300  1
  S  S8  1  0.25000000  0.53630100  0.30693100  1
  S  S9  1  0.25000000  0.19019000  0.87422600  1
  S  S10  1  0.25000000  0.70764600  0.01674600  1
  S  S11  1  0.75000000  0.61413600  0.15720400  1
  S  S12  1  0.75000000  0.78929300  0.69628400  1
  S  S13  1  0.25000000  0.94300600  0.19067300  1
  S  S14  1  0.25000000  0.72562700  0.55562000  1
  S  S15  1  0.75000000  0.29235400  0.98325400  1
  S  S16  1  0.25000000  0.21070700  0.30371600  1
  S  S17  1  0.75000000  0.46369900  0.69306900  1
  S  S18  1  0.75000000  0.17157400  0.61928300  1
  S  S19  1  0.25000000  0.53694900  0.93251600  1
  S  S20  1  0.75000000  0.80981000  0.12577400  1
  S  S21  1  0.25000000  0.54402700  0.55719400  1
  S  S22  1  0.75000000  0.46305100  0.06748400  1
  S  S23  1  0.75000000  0.39160400  0.25447700  1
  S  S24  1  0.75000000  0.45597300  0.44280600  1
  S  S25  1  0.75000000  0.69504400  0.87758700  1
  S  S26  1  0.75000000  0.05699400  0.80932700  1
  S  S27  1  0.25000000  0.30495600  0.12241300  1
  S  S28  1  0.25000000  0.60839600  0.74552300  1
  S  S29  1  0.25000000  0.35636400  0.59355100  1
  S  S30  1  0.25000000  0.38586400  0.84279600  1
  S  S31  1  0.75000000  0.07935200  0.99225100  1
  S  S32  1  0.25000000  0.99059800  0.66640500  1
  S  S33  1  0.75000000  0.27437300  0.44438000  1
  S  S34  1  0.25000000  0.09535400  0.48232700  1
  S  S35  1  0.25000000  0.92064800  0.00774900  1
loop_
_geom_bond_atom_site_label_1
_geom_bond_atom_site_label_2
_geom_bond_distance
_geom_bond_site_symmetry_2
In0 S30 2.635718 1_555
In0 S17 2.675528 1_555
In0 S17 2.675528 1_455
In0 S4 2.727196 1_455
In0 S4 2.727196 1_555
In0 S29 2.730796 1_555
In1 S21 2.597633 1_555
In1 S0 2.684347 1_455
In1 S0 2.684347 1_555
In1 S24 2.715057 1_455
In1 S24 2.715057 1_555
In1 S8 2.733551 1_555
In2 S15 2.574947 1_555
In2 S4 2.578471 1_555
In2 S9 2.658450 1_555
In2 S9 2.658450 1_655
In2 S30 2.825290 1_655
In2 S30 2.825290 1_555
In3 S24 2.597633 1_555
In3 S29 2.684347 1_555
In3 S29 2.684347 1_655
In3 S21 2.715057 1_555
In3 S21 2.715057 1_655
In3 S17 2.733551 1_555
In4 S11 2.635718 1_555
In4 S8 2.675528 1_555
In4 S8 2.675528 1_655
In4 S6 2.727196 1_555
In4 S6 2.727196 1_655
In4 S0 2.730796 1_555
In5 S10 2.574947 1_555
In5 S6 2.578471 1_555
In5 S20 2.658450 1_455
In5 S20 2.658450 1_555
In5 S11 2.825290 1_455
In5 S11 2.825290 1_555
Bi0 S18 2.682684 1_555
Bi0 S32 2.840807 1_645
Bi0 S32 2.840807 1_545
Bi0 S34 2.958037 1_555
Bi0 S34 2.958037 1_655
Bi0 S2 3.068586 1_545
Bi1 S13 2.668165 1_545
Bi1 S7 2.767182 1_555
Bi1 S7 2.767182 1_455
Bi1 S1 3.001481 1_555
Bi1 S1 3.001481 1_455
Bi1 S16 3.213010 1_555
Bi2 S31 2.747329 1_555
Bi2 S31 2.747329 1_455
Bi2 S9 2.829271 1_555
Bi2 S35 2.876849 1_546
Bi2 S26 2.985351 1_455
Bi2 S26 2.985351 1_555
Bi3 S29 2.755770 1_555
Bi3 S18 2.815584 1_455
Bi3 S18 2.815584 1_555
Bi3 S33 2.869529 1_455
Bi3 S33 2.869529 1_555
Bi3 S34 2.984762 1_555
Bi4 S3 2.682684 1_555
Bi4 S1 2.840807 1_565
Bi4 S1 2.840807 1_465
Bi4 S2 2.958037 1_455
Bi4 S2 2.958037 1_555
Bi4 S34 3.068586 1_565
Bi5 S22 2.762882 1_555
Bi5 S22 2.762882 1_455
Bi5 S19 2.825814 1_554
Bi5 S27 2.937941 1_555
Bi5 S15 2.964962 1_454
Bi5 S15 2.964962 1_554
Bi6 S33 2.685544 1_555
Bi6 S16 2.833575 1_655
Bi6 S16 2.833575 1_555
Bi6 S34 2.950325 1_555
Bi6 S34 2.950325 1_655
Bi6 S1 3.121165 1_555
Bi7 S26 2.668165 1_565
Bi7 S5 2.767182 1_555
Bi7 S5 2.767182 1_655
Bi7 S32 3.001481 1_555
Bi7 S32 3.001481 1_655
Bi7 S12 3.213010 1_555
Bi8 S27 2.723501 1_555
Bi8 S27 2.723501 1_655
Bi8 S23 2.730467 1_555
Bi8 S16 2.993745 1_655
Bi8 S16 2.993745 1_555
Bi8 S7 3.058575 1_555
Bi9 S14 2.685544 1_555
Bi9 S12 2.833575 1_455
Bi9 S12 2.833575 1_555
Bi9 S2 2.950325 1_455
Bi9 S2 2.950325 1_555
Bi9 S32 3.121165 1_555
Bi10 S0 2.755770 1_555
Bi10 S3 2.815584 1_655
Bi10 S3 2.815584 1_555
Bi10 S14 2.869529 1_655
Bi10 S14 2.869529 1_555
Bi10 S2 2.984762 1_555
Bi11 S25 2.723501 1_555
Bi11 S25 2.723501 1_455
Bi11 S28 2.730467 1_555
Bi11 S12 2.993745 1_455
Bi11 S12 2.993745 1_555
Bi11 S5 3.058575 1_555
Bi12 S35 2.747329 1_655
Bi12 S35 2.747329 1_555
Bi12 S20 2.829271 1_555
Bi12 S31 2.876849 1_564
Bi12 S13 2.985351 1_655
Bi12 S13 2.985351 1_555
Bi13 S19 2.762882 1_555
Bi13 S19 2.762882 1_655
Bi13 S22 2.825814 1_556
Bi13 S25 2.937941 1_555
Bi13 S10 2.964962 1_556
Bi13 S10 2.964962 1_656
Pb0 S23 2.965882 1_555
Pb0 S23 2.965882 1_455
Pb0 S8 3.141142 1_555
Pb0 S33 3.199659 1_455
Pb0 S33 3.199659 1_555
Pb0 S24 3.216193 1_455
Pb0 S24 3.216193 1_555
Pb1 S20 2.909175 1_555
Pb1 S13 2.972725 1_555
Pb1 S13 2.972725 1_655
Pb1 S6 3.070098 1_655
Pb1 S6 3.070098 1_555
Pb2 S10 2.921480 1_556
Pb2 S10 2.921480 1_656
Pb2 S25 2.970734 1_555
Pb2 S35 3.162761 1_656
Pb2 S35 3.162761 1_556
Pb3 S8 2.939729 1_555
Pb3 S23 2.997648 1_455
Pb3 S23 2.997648 1_555
Pb3 S11 3.176227 1_455
Pb3 S11 3.176227 1_555
Pb3 S22 3.202469 1_455
Pb3 S22 3.202469 1_555
Pb4 S28 2.965882 1_655
Pb4 S28 2.965882 1_555
Pb4 S17 3.141142 1_555
Pb4 S14 3.199659 1_555
Pb4 S14 3.199659 1_655
Pb4 S21 3.216193 1_555
Pb4 S21 3.216193 1_655
Pb5 S15 2.921480 1_454
Pb5 S15 2.921480 1_554
Pb5 S27 2.970734 1_555
Pb5 S31 3.162761 1_454
Pb5 S31 3.162761 1_554
Pb6 S9 2.909175 1_555
Pb6 S26 2.972725 1_455
Pb6 S26 2.972725 1_555
Pb6 S4 3.070098 1_555
Pb6 S4 3.070098 1_455
Pb7 S17 2.939729 1_555
Pb7 S28 2.997648 1_555
Pb7 S28 2.997648 1_655
Pb7 S30 3.176227 1_555
Pb7 S30 3.176227 1_655
Pb7 S19 3.202469 1_655
Pb7 S19 3.202469 1_555
