# generated using pymatgen
data_Ba2La2MgTi3O12
_symmetry_space_group_name_H-M   'P 1'
_cell_length_a   5.66086000
_cell_length_b   5.66540734
_cell_length_c   27.58879237
_cell_angle_alpha   90.10834197
_cell_angle_beta   89.94881574
_cell_angle_gamma   119.86431874
_symmetry_Int_Tables_number   1
_chemical_formula_structural   Ba2La2MgTi3O12
_chemical_formula_sum   'Ba6 La6 Mg3 Ti9 O36'
_cell_volume   767.30539573
_cell_formula_units_Z   3
loop_
 _symmetry_equiv_pos_site_id
 _symmetry_equiv_pos_as_xyz
  1  'x, y, z'
loop_
 _atom_site_type_symbol
 _atom_site_label
 _atom_site_symmetry_multiplicity
 _atom_site_fract_x
 _atom_site_fract_y
 _atom_site_fract_z
 _atom_site_occupancy
  Ba  Ba0  1  0.83343800  0.16618100  0.28897600  1
  Ba  Ba1  1  0.16656200  0.83381900  0.71102400  1
  Ba  Ba2  1  0.50005800  0.50055000  0.62694800  1
  Ba  Ba3  1  0.83380700  0.16674700  0.54238300  1
  Ba  Ba4  1  0.16619300  0.83325300  0.45761700  1
  Ba  Ba5  1  0.49994200  0.49945000  0.37305200  1
  La  La0  1  0.16995000  0.83564800  0.20572900  1
  La  La1  1  0.49519600  0.50182100  0.12392800  1
  La  La2  1  0.83292900  0.16697200  0.04115200  1
  La  La3  1  0.50480400  0.49817900  0.87607200  1
  La  La4  1  0.16707100  0.83302800  0.95884800  1
  La  La5  1  0.83005000  0.16435200  0.79427100  1
  Mg  Mg0  1  0.83546600  0.16545200  0.16362600  1
  Mg  Mg1  1  0.50000000  0.50000000  0.00000000  1
  Mg  Mg2  1  0.16453400  0.83454800  0.83637400  1
  Ti  Ti0  1  0.16403200  0.83315600  0.08193300  1
  Ti  Ti1  1  0.49264800  0.49883100  0.24373900  1
  Ti  Ti2  1  0.50735200  0.50116900  0.75626100  1
  Ti  Ti3  1  0.83596800  0.16684400  0.91806700  1
  Ti  Ti4  1  0.16873400  0.83129800  0.32983900  1
  Ti  Ti5  1  0.83126600  0.16870200  0.67016100  1
  Ti  Ti6  1  0.16820500  0.83445800  0.58488300  1
  Ti  Ti7  1  0.83179500  0.16554200  0.41511700  1
  Ti  Ti8  1  0.50000000  0.50000000  0.50000000  1
  O  O0  1  0.32920500  0.15682300  0.28621200  1
  O  O1  1  0.16584600  0.38796700  0.20851500  1
  O  O2  1  0.34190200  0.67600900  0.28987900  1
  O  O3  1  0.80233400  0.71768000  0.05270800  1
  O  O4  1  0.33017100  0.15854800  0.04185300  1
  O  O5  1  0.09115300  0.03627400  0.13264400  1
  O  O6  1  0.59649600  0.29913100  0.19937900  1
  O  O7  1  0.85307200  0.66925900  0.28364600  1
  O  O8  1  0.47146600  0.04711800  0.88716100  1
  O  O9  1  0.00049000  0.49204100  0.87760300  1
  O  O10  1  0.75653800  0.37192400  0.96784900  1
  O  O11  1  0.24346200  0.62807600  0.03215100  1
  O  O12  1  0.66998700  0.81473800  0.20348600  1
  O  O13  1  0.99951000  0.50795900  0.12239700  1
  O  O14  1  0.52853400  0.95288200  0.11283900  1
  O  O15  1  0.14692800  0.33074100  0.71635400  1
  O  O16  1  0.67079500  0.84317700  0.71378800  1
  O  O17  1  0.40350400  0.70086900  0.80062100  1
  O  O18  1  0.90884700  0.96372600  0.86735600  1
  O  O19  1  0.66982900  0.84145200  0.95814700  1
  O  O20  1  0.19766600  0.28232000  0.94729200  1
  O  O21  1  0.83517200  0.66435300  0.54209900  1
  O  O22  1  0.33309700  0.16668700  0.54240900  1
  O  O23  1  0.99857600  0.99914900  0.62736200  1
  O  O24  1  0.65809800  0.32399100  0.71012100  1
  O  O25  1  0.33001300  0.18526200  0.79651400  1
  O  O26  1  0.83415400  0.61203300  0.79148500  1
  O  O27  1  0.50298200  0.00146700  0.37306000  1
  O  O28  1  0.66241800  0.33169000  0.45739600  1
  O  O29  1  0.33758200  0.66831000  0.54260400  1
  O  O30  1  0.00243600  0.50007700  0.62738200  1
  O  O31  1  0.49701800  0.99853300  0.62694000  1
  O  O32  1  0.00142400  0.00085100  0.37263800  1
  O  O33  1  0.66690300  0.83331300  0.45759100  1
  O  O34  1  0.16482800  0.33564700  0.45790100  1
  O  O35  1  0.99756400  0.49992300  0.37261800  1
loop_
_geom_bond_atom_site_label_1
_geom_bond_atom_site_label_2
_geom_bond_distance
_geom_bond_site_symmetry_2
Ba0 O1 2.774108 1_655
Ba0 O2 2.785609 1_545
Ba0 O7 2.800600 1_555
Ba0 O35 2.828611 1_555
Ba0 O0 2.829460 1_555
Ba0 O32 2.829888 1_655
Ba0 O27 2.830813 1_555
Ba0 O0 2.834196 1_655
Ba0 O7 2.875712 1_545
Ba0 O2 2.889370 1_655
Ba0 O12 2.921427 1_545
Ba0 O6 3.081504 1_555
Ba1 O26 2.774108 1_455
Ba1 O24 2.785609 1_565
Ba1 O15 2.800600 1_555
Ba1 O30 2.828611 1_555
Ba1 O16 2.829460 1_555
Ba1 O23 2.829888 1_455
Ba1 O31 2.830813 1_555
Ba1 O16 2.834196 1_455
Ba1 O15 2.875712 1_565
Ba1 O24 2.889370 1_455
Ba1 O25 2.921427 1_565
Ba1 O17 3.081504 1_555
Ba2 O30 2.815650 1_555
Ba2 O24 2.823100 1_555
Ba2 O23 2.829204 1_555
Ba2 O31 2.829886 1_555
Ba2 O31 2.835600 1_545
Ba2 O29 2.836673 1_555
Ba2 O30 2.845263 1_655
Ba2 O23 2.845587 1_445
Ba2 O22 2.849139 1_555
Ba2 O21 2.861242 1_555
Ba2 O16 2.925772 1_555
Ba2 O15 3.015071 1_555
Ba3 O21 2.815327 1_555
Ba3 O29 2.822270 1_545
Ba3 O22 2.826581 1_655
Ba3 O22 2.834279 1_555
Ba3 O34 2.841538 1_655
Ba3 O21 2.850118 1_545
Ba3 O29 2.852530 1_655
Ba3 O33 2.853643 1_545
Ba3 O23 2.856996 1_545
Ba3 O30 2.858069 1_655
Ba3 O31 2.859387 1_545
Ba3 O28 2.868338 1_555
Ba4 O34 2.815327 1_555
Ba4 O28 2.822270 1_565
Ba4 O33 2.826581 1_455
Ba4 O33 2.834279 1_555
Ba4 O21 2.841538 1_455
Ba4 O34 2.850118 1_565
Ba4 O28 2.852530 1_455
Ba4 O22 2.853643 1_565
Ba4 O32 2.856996 1_565
Ba4 O35 2.858069 1_455
Ba4 O27 2.859387 1_565
Ba4 O29 2.868338 1_555
Ba5 O35 2.815650 1_555
Ba5 O2 2.823100 1_555
Ba5 O32 2.829204 1_555
Ba5 O27 2.829886 1_555
Ba5 O27 2.835600 1_565
Ba5 O28 2.836673 1_555
Ba5 O35 2.845263 1_455
Ba5 O32 2.845587 1_665
Ba5 O33 2.849139 1_555
Ba5 O34 2.861242 1_555
Ba5 O0 2.925772 1_555
Ba5 O7 3.015071 1_555
La0 O5 2.464074 1_565
La0 O1 2.526122 1_555
La0 O6 2.538239 1_565
La0 O7 2.654061 1_455
La0 O0 2.721870 1_565
La0 O12 2.773877 1_455
La0 O13 2.804812 1_455
La0 O2 2.836197 1_555
La0 O12 2.892057 1_555
La0 O14 3.127877 1_555
La0 O1 3.141540 1_565
La0 O6 3.159136 1_455
La1 O14 2.486377 1_555
La1 O5 2.497859 1_555
La1 O3 2.502936 1_555
La1 O6 2.578278 1_555
La1 O12 2.679876 1_555
La1 O4 2.821339 1_555
La1 O13 2.823840 1_455
La1 O13 2.837973 1_555
La1 O1 2.852764 1_555
La1 O11 3.159410 1_555
La1 O14 3.222094 1_545
La1 O5 3.230011 1_665
La2 O10 2.477016 1_554
La2 O3 2.484903 1_545
La2 O11 2.498433 1_655
La2 O14 2.504681 1_545
La2 O19 2.791012 1_544
La2 O13 2.796155 1_555
La2 O4 2.822631 1_555
La2 O4 2.838967 1_655
La3 O8 2.486377 1_555
La3 O18 2.497859 1_555
La3 O20 2.502936 1_555
La3 O17 2.578278 1_555
La3 O25 2.679876 1_555
La3 O19 2.821339 1_555
La3 O9 2.823840 1_655
La3 O9 2.837973 1_555
La3 O26 2.852764 1_555
La3 O10 3.159410 1_555
La3 O8 3.222094 1_565
La3 O18 3.230011 1_445
La4 O11 2.477016 1_556
La4 O20 2.484903 1_565
La4 O10 2.498433 1_455
La4 O8 2.504681 1_565
La4 O4 2.791012 1_566
La4 O9 2.796155 1_555
La4 O19 2.822631 1_555
La4 O19 2.838967 1_455
La5 O18 2.464074 1_545
La5 O26 2.526122 1_555
La5 O17 2.538239 1_545
La5 O15 2.654061 1_655
La5 O16 2.721870 1_545
La5 O25 2.773877 1_655
La5 O9 2.804812 1_655
La5 O24 2.836197 1_555
La5 O25 2.892057 1_555
La5 O8 3.127877 1_555
La5 O26 3.141540 1_545
La5 O17 3.159136 1_655
Mg0 O13 2.033072 1_555
Mg0 O12 2.046347 1_545
Mg0 O1 2.066622 1_655
Mg0 O14 2.084839 1_545
Mg0 O6 2.095622 1_555
Mg0 O5 2.100370 1_655
Mg1 O4 2.038141 1_555
Mg1 O19 2.038141 1_554
Mg1 O20 2.111929 1_554
Mg1 O3 2.111929 1_555
Mg1 O11 2.113509 1_555
Mg1 O10 2.113509 1_554
Mg2 O9 2.033072 1_555
Mg2 O25 2.046347 1_565
Mg2 O26 2.066622 1_455
Mg2 O8 2.084839 1_565
Mg2 O17 2.095622 1_555
Mg2 O18 2.100370 1_455
O0 Ti4 2.003270 1_545
O0 Ti1 2.050545 1_555
O1 Ti1 1.898688 1_555
O2 Ti4 1.950290 1_555
O2 Ti1 2.049996 1_555
O3 Ti0 1.984279 1_655
O4 Ti0 1.945464 1_545
O5 Ti0 1.979257 1_545
O6 Ti1 1.944029 1_555
O7 Ti4 2.006466 1_655
O7 Ti1 2.084557 1_555
O8 Ti3 2.012913 1_555
O9 Ti3 1.950658 1_455
O10 Ti3 1.987847 1_555
O11 Ti0 1.987847 1_555
O12 Ti1 1.913230 1_555
O13 Ti0 1.950658 1_655
O14 Ti0 2.012913 1_555
O15 Ti5 2.006466 1_455
O15 Ti2 2.084557 1_555
O16 Ti5 2.003270 1_565
O16 Ti2 2.050545 1_555
O17 Ti2 1.944029 1_555
O18 Ti3 1.979257 1_565
O19 Ti3 1.945464 1_565
O20 Ti3 1.984279 1_455
O21 Ti8 2.014047 1_555
O21 Ti6 2.016546 1_655
O22 Ti6 2.010928 1_545
O22 Ti8 2.014211 1_555
O23 Ti6 2.013012 1_655
O23 Ti5 2.028239 1_565
O24 Ti5 1.950290 1_555
O24 Ti2 2.049996 1_555
O25 Ti2 1.913230 1_555
O26 Ti2 1.898688 1_555
O27 Ti7 1.987886 1_555
O27 Ti4 2.028415 1_545
O28 Ti8 2.000771 1_555
O28 Ti7 2.014597 1_555
O29 Ti8 2.000771 1_555
O29 Ti6 2.014597 1_555
O30 Ti5 2.012720 1_455
O30 Ti6 2.019934 1_555
O31 Ti6 1.987886 1_555
O31 Ti5 2.028415 1_565
O32 Ti7 2.013012 1_455
O32 Ti4 2.028239 1_545
O33 Ti7 2.010928 1_565
O33 Ti8 2.014211 1_555
O34 Ti8 2.014047 1_555
O34 Ti7 2.016546 1_455
O35 Ti4 2.012720 1_655
O35 Ti7 2.019934 1_555
