# generated using pymatgen
data_Si2H2O3
_symmetry_space_group_name_H-M   'P 1'
_cell_length_a   8.72387500
_cell_length_b   10.26472869
_cell_length_c   12.72292474
_cell_angle_alpha   88.10881197
_cell_angle_beta   110.04260728
_cell_angle_gamma   115.02776849
_symmetry_Int_Tables_number   1
_chemical_formula_structural   Si2H2O3
_chemical_formula_sum   'Si20 H20 O30'
_cell_volume   961.38678607
_cell_formula_units_Z   10
loop_
 _symmetry_equiv_pos_site_id
 _symmetry_equiv_pos_as_xyz
  1  'x, y, z'
loop_
 _atom_site_type_symbol
 _atom_site_label
 _atom_site_symmetry_multiplicity
 _atom_site_fract_x
 _atom_site_fract_y
 _atom_site_fract_z
 _atom_site_occupancy
  Si  Si0  1  0.82581100  0.13098100  0.11264300  1
  Si  Si1  1  0.11655200  0.38090700  0.37509800  1
  Si  Si2  1  0.13799900  0.87975900  0.87453200  1
  Si  Si3  1  0.91239700  0.62755600  0.61189700  1
  Si  Si4  1  0.99205100  0.88711300  0.23768600  1
  Si  Si5  1  0.34421200  0.58253200  0.27280000  1
  Si  Si6  1  0.00967900  0.08323200  0.77290400  1
  Si  Si7  1  0.63422300  0.38466300  0.73776100  1
  Si  Si8  1  0.36944600  0.96469400  0.19647600  1
  Si  Si9  1  0.71443400  0.49664200  0.29875500  1
  Si  Si10  1  0.58049300  0.99640100  0.79888700  1
  Si  Si11  1  0.29410000  0.46421200  0.69664200  1
  Si  Si12  1  0.60595900  0.22549200  0.44130000  1
  Si  Si13  1  0.42141500  0.25379100  0.02846700  1
  Si  Si14  1  0.36074800  0.75139900  0.52868400  1
  Si  Si15  1  0.56076000  0.72463800  0.94151800  1
  Si  Si16  1  0.24217500  0.09935200  0.50207400  1
  Si  Si17  1  0.11274200  0.36694800  0.00457000  1
  Si  Si18  1  0.75849100  0.86725200  0.50380900  1
  Si  Si19  1  0.86044900  0.59870200  0.00150700  1
  H  H0  1  0.10506000  0.11250300  0.16133800  1
  H  H1  1  0.65018700  0.60200800  0.65151000  1
  H  H2  1  0.64311400  0.69540100  0.27817200  1
  H  H3  1  0.82512300  0.19453900  0.77474900  1
  H  H4  1  0.42623900  0.21069200  0.21100800  1
  H  H5  1  0.42559000  0.35396500  0.32742400  1
  H  H6  1  0.75587100  0.85272300  0.82651400  1
  H  H7  1  0.49555000  0.71323700  0.71410900  1
  H  H8  1  0.18005900  0.29688800  0.54788600  1
  H  H9  1  0.16541800  0.79756300  0.04857900  1
  H  H10  1  0.81286100  0.21621800  0.28204600  1
  H  H11  1  0.17885700  0.71167100  0.78107100  1
  H  H12  1  0.93494900  0.94260100  0.39755100  1
  H  H13  1  0.21581500  0.60712500  0.08191700  1
  H  H14  1  0.97550400  0.10494000  0.58191100  1
  H  H15  1  0.90983000  0.44550200  0.89512100  1
  H  H16  1  0.63348500  0.01939300  0.36816700  1
  H  H17  1  0.74020100  0.46886900  0.12616500  1
  H  H18  1  0.35422600  0.96796900  0.62638600  1
  H  H19  1  0.25551600  0.51935800  0.86846600  1
  O  O0  1  0.98591500  0.04670300  0.16383900  1
  O  O1  1  0.27377800  0.40907000  0.31184900  1
  O  O2  1  0.94733600  0.91040200  0.81306700  1
  O  O3  1  0.71496800  0.54169300  0.65890800  1
  O  O4  1  0.20317300  0.93019100  0.24575500  1
  O  O5  1  0.56355900  0.59195000  0.27541500  1
  O  O6  1  0.80177100  0.09173400  0.77385900  1
  O  O7  1  0.47107600  0.42396100  0.74628800  1
  O  O8  1  0.38774800  0.13715000  0.14552200  1
  O  O9  1  0.53215900  0.33590200  0.32428700  1
  O  O10  1  0.62834900  0.83552000  0.82438100  1
  O  O11  1  0.40180500  0.63768400  0.64792300  1
  O  O12  1  0.39907500  0.15610900  0.44388600  1
  O  O13  1  0.27562100  0.31212700  0.04279200  1
  O  O14  1  0.57717200  0.81337200  0.53970400  1
  O  O15  1  0.70032300  0.65413500  0.94268000  1
  O  O16  1  0.95977600  0.25660800  0.05743800  1
  O  O17  1  0.16714300  0.24885400  0.47465900  1
  O  O18  1  0.05587400  0.74995900  0.97521500  1
  O  O19  1  0.85103400  0.75476100  0.55642100  1
  O  O20  1  0.92135300  0.24272300  0.26288100  1
  O  O21  1  0.07817600  0.73878300  0.76272000  1
  O  O22  1  0.05063100  0.97859200  0.37957800  1
  O  O23  1  0.23186700  0.52565800  0.11808800  1
  O  O24  1  0.91205000  0.02478600  0.61782900  1
  O  O25  1  0.81178200  0.48125900  0.87726800  1
  O  O26  1  0.56743800  0.07576500  0.32847000  1
  O  O27  1  0.64319400  0.41587000  0.15836500  1
  O  O28  1  0.42941000  0.91409000  0.65901900  1
  O  O29  1  0.33831200  0.57558800  0.82875900  1
loop_
_geom_bond_atom_site_label_1
_geom_bond_atom_site_label_2
_geom_bond_distance
_geom_bond_site_symmetry_2
H0 O0 0.982252 1_455
H1 O3 0.983509 1_555
H2 O5 0.986269 1_555
H3 O6 0.986167 1_555
H4 O8 1.006012 1_555
H4 O9 1.669563 1_555
H5 O9 1.035411 1_555
H5 O1 1.599931 1_555
H6 O10 1.040648 1_555
H6 O2 1.588146 1_555
H7 O11 1.006874 1_555
H7 O10 1.630274 1_555
H8 O17 1.017423 1_555
H9 O18 1.023161 1_554
H10 O20 0.982453 1_555
H11 O21 0.982544 1_555
H12 O22 1.021955 1_655
H13 O23 0.979896 1_555
H14 O24 0.977453 1_555
H15 O25 1.022207 1_555
H16 O26 0.992596 1_555
H17 O27 1.006661 1_555
H18 O28 1.006756 1_555
H19 O29 0.994084 1_555
O0 Si0 1.866835 1_555
O0 Si4 1.872774 1_545
O1 Si1 1.737291 1_555
O1 Si5 1.737775 1_555
O2 Si2 1.735506 1_655
O2 Si6 1.737369 1_665
O3 Si3 1.867599 1_555
O3 Si7 1.875574 1_555
O4 Si4 1.668114 1_455
O4 Si8 1.672319 1_555
O5 Si5 1.863384 1_555
O5 Si9 1.892122 1_555
O6 Si6 1.856504 1_655
O6 Si10 1.894169 1_545
O7 Si7 1.671735 1_555
O7 Si11 1.675536 1_555
O8 Si8 1.826330 1_545
O8 Si13 1.903238 1_555
O9 Si9 1.858814 1_555
O9 Si12 1.940191 1_555
O10 Si10 1.860592 1_555
O10 Si15 1.945949 1_555
O11 Si11 1.829886 1_555
O11 Si14 1.912246 1_555
O12 Si12 1.648418 1_555
O12 Si16 1.659043 1_555
O13 Si17 1.660437 1_555
O13 Si13 1.679282 1_555
O14 Si18 1.659765 1_555
O14 Si14 1.672509 1_555
O15 Si15 1.654937 1_555
O15 Si19 1.662262 1_556
O16 Si0 1.658241 1_555
O16 Si17 1.673963 1_655
O17 Si16 1.887647 1_555
O17 Si1 1.909539 1_555
O18 Si19 1.883089 1_456
O18 Si2 1.907392 1_555
O19 Si3 1.661708 1_555
O19 Si18 1.673468 1_555
O20 Si1 1.836744 1_655
O20 Si0 1.976815 1_555
O21 Si2 1.837966 1_555
O21 Si3 1.980557 1_455
O22 Si16 1.829644 1_565
O22 Si4 1.864250 1_455
O23 Si5 1.856159 1_555
O23 Si17 1.874557 1_555
O24 Si6 1.863343 1_655
O24 Si18 1.871835 1_545
O25 Si19 1.834341 1_556
O25 Si7 1.861462 1_555
O26 Si8 1.890875 1_545
O26 Si12 1.978309 1_555
O27 Si9 1.779026 1_555
O27 Si13 2.123394 1_555
O28 Si10 1.779638 1_555
O28 Si14 2.133766 1_555
O29 Si11 1.894888 1_555
O29 Si15 1.972132 1_555
