# generated using pymatgen
data_Sn(PCl6)4
_symmetry_space_group_name_H-M   'P 1'
_cell_length_a   14.51932900
_cell_length_b   15.10885900
_cell_length_c   15.18676400
_cell_angle_alpha   90.00000000
_cell_angle_beta   90.00000000
_cell_angle_gamma   90.00000000
_symmetry_Int_Tables_number   1
_chemical_formula_structural   Sn(PCl6)4
_chemical_formula_sum   'Sn4 P16 Cl96'
_cell_volume   3331.52793059
_cell_formula_units_Z   4
loop_
 _symmetry_equiv_pos_site_id
 _symmetry_equiv_pos_as_xyz
  1  'x, y, z'
loop_
 _atom_site_type_symbol
 _atom_site_label
 _atom_site_symmetry_multiplicity
 _atom_site_fract_x
 _atom_site_fract_y
 _atom_site_fract_z
 _atom_site_occupancy
  Sn  Sn0  1  0.00000000  0.62425900  0.74313000  1
  Sn  Sn1  1  0.50000000  0.99287200  0.37461100  1
  Sn  Sn2  1  0.50000000  0.00712800  0.87461100  1
  Sn  Sn3  1  0.00000000  0.37574100  0.24313000  1
  P  P0  1  0.00000000  0.12551300  0.75719300  1
  P  P1  1  0.25011900  0.75017000  0.99988700  1
  P  P2  1  0.25067700  0.87761000  0.62740600  1
  P  P3  1  0.25011900  0.24983000  0.49988700  1
  P  P4  1  0.24919100  0.62359400  0.37316900  1
  P  P5  1  0.25067700  0.12239000  0.12740600  1
  P  P6  1  0.24919100  0.37640600  0.87316900  1
  P  P7  1  0.50000000  0.49287800  0.12486600  1
  P  P8  1  0.50000000  0.50712200  0.62486600  1
  P  P9  1  0.74988100  0.75017000  0.99988700  1
  P  P10  1  0.74932300  0.12239000  0.12740600  1
  P  P11  1  0.75080900  0.37640600  0.87316900  1
  P  P12  1  0.74932300  0.87761000  0.62740600  1
  P  P13  1  0.75080900  0.62359400  0.37316900  1
  P  P14  1  0.74988100  0.24983000  0.49988700  1
  P  P15  1  0.00000000  0.87448700  0.25719300  1
  Cl  Cl0  1  0.00000000  0.27890100  0.11062700  1
  Cl  Cl1  1  0.00000000  0.24302900  0.34185000  1
  Cl  Cl2  1  0.00000000  0.03831800  0.64181400  1
  Cl  Cl3  1  0.00000000  0.01015200  0.84398700  1
  Cl  Cl4  1  0.00000000  0.49224200  0.64267000  1
  Cl  Cl5  1  0.00000000  0.72109900  0.61062700  1
  Cl  Cl6  1  0.00000000  0.52815600  0.87590200  1
  Cl  Cl7  1  0.14864700  0.87532800  0.25764600  1
  Cl  Cl8  1  0.14864700  0.12467200  0.75764600  1
  Cl  Cl9  1  0.16928600  0.37602300  0.24232500  1
  Cl  Cl10  1  0.16928600  0.62397700  0.74232500  1
  Cl  Cl11  1  0.17186300  0.85537400  0.99455500  1
  Cl  Cl12  1  0.17186300  0.14462600  0.49455500  1
  Cl  Cl13  1  0.17082800  0.35467200  0.50500000  1
  Cl  Cl14  1  0.17082800  0.64532800  0.00500000  1
  Cl  Cl15  1  0.16953300  0.87586100  0.73002300  1
  Cl  Cl16  1  0.16953300  0.12413900  0.23002300  1
  Cl  Cl17  1  0.16910600  0.62083600  0.26966300  1
  Cl  Cl18  1  0.16910600  0.37916400  0.76966300  1
  Cl  Cl19  1  0.17237000  0.37595900  0.97952100  1
  Cl  Cl20  1  0.17354100  0.87865000  0.52109100  1
  Cl  Cl21  1  0.17354100  0.12135000  0.02109100  1
  Cl  Cl22  1  0.17237000  0.62404100  0.47952100  1
  Cl  Cl23  1  0.32729100  0.72982000  0.37251700  1
  Cl  Cl24  1  0.32681700  0.77038500  0.62692100  1
  Cl  Cl25  1  0.32681700  0.22961500  0.12692100  1
  Cl  Cl26  1  0.32729100  0.27018000  0.87251700  1
  Cl  Cl27  1  0.33169800  0.01932900  0.12778000  1
  Cl  Cl28  1  0.33169800  0.98067100  0.62778000  1
  Cl  Cl29  1  0.32953000  0.51935400  0.37296500  1
  Cl  Cl30  1  0.32953000  0.48064600  0.87296500  1
  Cl  Cl31  1  0.32957300  0.25372700  0.39601300  1
  Cl  Cl32  1  0.32804000  0.24347100  0.60513900  1
  Cl  Cl33  1  0.32804000  0.75652900  0.10513900  1
  Cl  Cl34  1  0.32957300  0.74627300  0.89601300  1
  Cl  Cl35  1  0.33061100  0.00781100  0.87379600  1
  Cl  Cl36  1  0.35143800  0.49241700  0.12537000  1
  Cl  Cl37  1  0.33061100  0.99218900  0.37379600  1
  Cl  Cl38  1  0.35143800  0.50758300  0.62537000  1
  Cl  Cl39  1  0.50000000  0.85972500  0.47168400  1
  Cl  Cl40  1  0.50000000  0.09211400  0.50503400  1
  Cl  Cl41  1  0.50000000  0.14027500  0.97168400  1
  Cl  Cl42  1  0.50000000  0.88999100  0.24540100  1
  Cl  Cl43  1  0.50000000  0.12691200  0.27823500  1
  Cl  Cl44  1  0.50000000  0.87308800  0.77823500  1
  Cl  Cl45  1  0.50000000  0.90788600  0.00503400  1
  Cl  Cl46  1  0.50000000  0.11000900  0.74540100  1
  Cl  Cl47  1  0.50000000  0.37782600  0.03867400  1
  Cl  Cl48  1  0.50000000  0.40526700  0.23963600  1
  Cl  Cl49  1  0.50000000  0.58079500  0.00986600  1
  Cl  Cl50  1  0.50000000  0.60861700  0.21100900  1
  Cl  Cl51  1  0.50000000  0.39138300  0.71100900  1
  Cl  Cl52  1  0.50000000  0.59473300  0.73963600  1
  Cl  Cl53  1  0.50000000  0.41920500  0.50986600  1
  Cl  Cl54  1  0.50000000  0.62217400  0.53867400  1
  Cl  Cl55  1  0.66938900  0.99218900  0.37379600  1
  Cl  Cl56  1  0.64856200  0.50758300  0.62537000  1
  Cl  Cl57  1  0.66938900  0.00781100  0.87379600  1
  Cl  Cl58  1  0.64856200  0.49241700  0.12537000  1
  Cl  Cl59  1  0.67196000  0.75652900  0.10513900  1
  Cl  Cl60  1  0.67042700  0.74627300  0.89601300  1
  Cl  Cl61  1  0.67196000  0.24347100  0.60513900  1
  Cl  Cl62  1  0.67042700  0.25372700  0.39601300  1
  Cl  Cl63  1  0.66830200  0.98067100  0.62778000  1
  Cl  Cl64  1  0.66830200  0.01932900  0.12778000  1
  Cl  Cl65  1  0.67047000  0.48064600  0.87296500  1
  Cl  Cl66  1  0.67047000  0.51935400  0.37296500  1
  Cl  Cl67  1  0.67318300  0.22961500  0.12692100  1
  Cl  Cl68  1  0.67270900  0.27018000  0.87251700  1
  Cl  Cl69  1  0.67270900  0.72982000  0.37251700  1
  Cl  Cl70  1  0.67318300  0.77038500  0.62692100  1
  Cl  Cl71  1  0.82645900  0.87865000  0.52109100  1
  Cl  Cl72  1  0.82763000  0.37595900  0.97952100  1
  Cl  Cl73  1  0.82763000  0.62404100  0.47952100  1
  Cl  Cl74  1  0.82645900  0.12135000  0.02109100  1
  Cl  Cl75  1  0.83046700  0.87586100  0.73002300  1
  Cl  Cl76  1  0.83046700  0.12413900  0.23002300  1
  Cl  Cl77  1  0.83089400  0.37916400  0.76966300  1
  Cl  Cl78  1  0.83089400  0.62083600  0.26966300  1
  Cl  Cl79  1  0.82813700  0.85537400  0.99455500  1
  Cl  Cl80  1  0.82813700  0.14462600  0.49455500  1
  Cl  Cl81  1  0.82917200  0.35467200  0.50500000  1
  Cl  Cl82  1  0.82917200  0.64532800  0.00500000  1
  Cl  Cl83  1  0.85135300  0.87532800  0.25764600  1
  Cl  Cl84  1  0.85135300  0.12467200  0.75764600  1
  Cl  Cl85  1  0.83071400  0.37602300  0.24232500  1
  Cl  Cl86  1  0.83071400  0.62397700  0.74232500  1
  Cl  Cl87  1  0.00000000  0.75955400  0.17024900  1
  Cl  Cl88  1  0.00000000  0.78792000  0.37198900  1
  Cl  Cl89  1  0.00000000  0.96168200  0.14181400  1
  Cl  Cl90  1  0.00000000  0.98984800  0.34398700  1
  Cl  Cl91  1  0.00000000  0.21208000  0.87198900  1
  Cl  Cl92  1  0.00000000  0.24044600  0.67024900  1
  Cl  Cl93  1  0.00000000  0.47184400  0.37590200  1
  Cl  Cl94  1  0.00000000  0.50775800  0.14267000  1
  Cl  Cl95  1  0.00000000  0.75697100  0.84185000  1
loop_
_geom_bond_atom_site_label_1
_geom_bond_atom_site_label_2
_geom_bond_distance
_geom_bond_site_symmetry_2
Cl0 Sn3 2.487992 1_555
Cl1 Sn3 2.503647 1_555
Cl2 P0 2.192239 1_555
Cl3 P0 2.185268 1_555
Cl4 Sn0 2.511211 1_555
Cl5 Sn0 2.487992 1_555
Cl6 Sn0 2.484774 1_555
Cl7 P15 2.158303 1_555
Cl8 P0 2.158303 1_555
Cl9 Sn3 2.457953 1_555
Cl10 Sn0 2.457953 1_555
Cl11 P1 1.955534 1_555
Cl12 P3 1.955534 1_555
Cl13 P3 1.959746 1_555
Cl14 P1 1.959746 1_554
Cl15 P2 1.953823 1_555
Cl16 P5 1.953823 1_555
Cl17 P4 1.955692 1_555
Cl18 P6 1.955692 1_555
Cl19 P6 1.962861 1_555
Cl20 P2 1.965053 1_555
Cl21 P5 1.965053 1_555
Cl22 P4 1.962861 1_555
Cl23 P4 1.965156 1_555
Cl24 P2 1.961311 1_555
Cl25 P5 1.961311 1_555
Cl26 P6 1.965156 1_555
Cl27 P5 1.951550 1_555
Cl28 P2 1.951550 1_555
Cl29 P4 1.959877 1_555
Cl30 P6 1.959877 1_555
Cl31 P3 1.955209 1_555
Cl32 P3 1.960666 1_555
Cl33 P1 1.960666 1_554
Cl34 P1 1.955209 1_555
Cl35 Sn2 2.459467 1_555
Cl36 P7 2.157045 1_555
Cl37 Sn1 2.459467 1_555
Cl38 P8 2.157045 1_555
Cl39 Sn1 2.494047 1_555
Cl40 Sn1 2.484248 1_545
Cl41 Sn2 2.494047 1_555
Cl42 Sn1 2.503349 1_555
Cl43 Sn1 2.498728 1_545
Cl44 Sn2 2.498728 1_565
Cl45 Sn2 2.484248 1_564
Cl46 Sn2 2.503349 1_555
Cl47 P7 2.176034 1_555
Cl48 P7 2.188649 1_555
Cl49 P7 2.194227 1_555
Cl50 P7 2.183889 1_555
Cl51 P8 2.183889 1_555
Cl52 P8 2.188649 1_555
Cl53 P8 2.194227 1_555
Cl54 P8 2.176034 1_555
Cl55 Sn1 2.459467 1_555
Cl56 P8 2.157045 1_555
Cl57 Sn2 2.459467 1_555
Cl58 P7 2.157045 1_555
Cl59 P9 1.960666 1_554
Cl60 P9 1.955209 1_555
Cl61 P14 1.960666 1_555
Cl62 P14 1.955209 1_555
Cl63 P12 1.951550 1_555
Cl64 P10 1.951550 1_555
Cl65 P11 1.959877 1_555
Cl66 P13 1.959877 1_555
Cl67 P10 1.961311 1_555
Cl68 P11 1.965156 1_555
Cl69 P13 1.965156 1_555
Cl70 P12 1.961311 1_555
Cl71 P12 1.965053 1_555
Cl72 P11 1.962861 1_555
Cl73 P13 1.962861 1_555
Cl74 P10 1.965053 1_555
Cl75 P12 1.953823 1_555
Cl76 P10 1.953823 1_555
Cl77 P11 1.955692 1_555
Cl78 P13 1.955692 1_555
Cl79 P9 1.955534 1_555
Cl80 P14 1.955534 1_555
Cl81 P14 1.959746 1_555
Cl82 P9 1.959746 1_554
Cl83 P15 2.158303 1_655
Cl84 P0 2.158303 1_655
Cl85 Sn3 2.457953 1_655
Cl86 Sn0 2.457953 1_655
Cl87 P15 2.181492 1_555
Cl88 P15 2.179461 1_555
Cl89 P15 2.192239 1_555
Cl90 P15 2.185268 1_555
Cl91 P0 2.179461 1_555
Cl92 P0 2.181492 1_555
Cl93 Sn3 2.484774 1_555
Cl94 Sn3 2.511211 1_555
Cl95 Sn0 2.503647 1_555
