# generated using pymatgen
data_CoHCO3
_symmetry_space_group_name_H-M   'P 1'
_cell_length_a   7.37125307
_cell_length_b   7.37125307
_cell_length_c   7.37125222
_cell_angle_alpha   95.53130633
_cell_angle_beta   95.53130633
_cell_angle_gamma   95.53130715
_symmetry_Int_Tables_number   1
_chemical_formula_structural   CoHCO3
_chemical_formula_sum   'Co6 H6 C6 O18'
_cell_volume   394.53450391
_cell_formula_units_Z   6
loop_
 _symmetry_equiv_pos_site_id
 _symmetry_equiv_pos_as_xyz
  1  'x, y, z'
loop_
 _atom_site_type_symbol
 _atom_site_label
 _atom_site_symmetry_multiplicity
 _atom_site_fract_x
 _atom_site_fract_y
 _atom_site_fract_z
 _atom_site_occupancy
  Co  Co0  1  0.47673400  0.21407900  0.56473500  1
  Co  Co1  1  0.52326600  0.78592100  0.43526500  1
  Co  Co2  1  0.56473500  0.47673400  0.21407900  1
  Co  Co3  1  0.21407900  0.56473500  0.47673400  1
  Co  Co4  1  0.43526500  0.52326600  0.78592100  1
  Co  Co5  1  0.78592100  0.43526500  0.52326600  1
  H  H0  1  0.08754100  0.04054100  0.34649300  1
  H  H1  1  0.91245900  0.95945900  0.65350700  1
  H  H2  1  0.04054100  0.34649300  0.08754100  1
  H  H3  1  0.65350700  0.91245900  0.95945900  1
  H  H4  1  0.34649300  0.08754100  0.04054100  1
  H  H5  1  0.95945900  0.65350700  0.91245900  1
  C  C0  1  0.93097800  0.38089400  0.17219900  1
  C  C1  1  0.06902200  0.61910600  0.82780100  1
  C  C2  1  0.61910600  0.82780100  0.06902200  1
  C  C3  1  0.38089400  0.17219900  0.93097800  1
  C  C4  1  0.82780100  0.06902200  0.61910600  1
  C  C5  1  0.17219900  0.93097800  0.38089400  1
  O  O0  1  0.61809900  0.90596900  0.22730800  1
  O  O1  1  0.77269200  0.38190100  0.09403100  1
  O  O2  1  0.40609000  0.70332200  0.62823700  1
  O  O3  1  0.37176300  0.59391000  0.29667800  1
  O  O4  1  0.09403100  0.77269200  0.38190100  1
  O  O5  1  0.97857700  0.41504100  0.34553900  1
  O  O6  1  0.38190100  0.09403100  0.77269200  1
  O  O7  1  0.59391000  0.29667800  0.37176300  1
  O  O8  1  0.41504100  0.34553900  0.97857700  1
  O  O9  1  0.22730800  0.61809900  0.90596900  1
  O  O10  1  0.29667800  0.37176300  0.59391000  1
  O  O11  1  0.62823700  0.40609000  0.70332200  1
  O  O12  1  0.70332200  0.62823700  0.40609000  1
  O  O13  1  0.90596900  0.22730800  0.61809900  1
  O  O14  1  0.34553900  0.97857700  0.41504100  1
  O  O15  1  0.65446100  0.02142300  0.58495900  1
  O  O16  1  0.58495900  0.65446100  0.02142300  1
  O  O17  1  0.02142300  0.58495900  0.65446100  1
loop_
_geom_bond_atom_site_label_1
_geom_bond_atom_site_label_2
_geom_bond_distance
_geom_bond_site_symmetry_2
Co0 O7 1.855404 1_555
Co0 O10 1.860928 1_555
Co0 O11 1.868321 1_555
Co0 O6 1.992568 1_555
Co0 O15 2.029053 1_555
Co0 O14 2.065836 1_545
Co1 O2 1.855404 1_555
Co1 O12 1.860928 1_555
Co1 O3 1.868321 1_555
Co1 O0 1.992568 1_555
Co1 O14 2.029053 1_555
Co1 O15 2.065836 1_565
Co2 O3 1.855404 1_555
Co2 O7 1.860928 1_555
Co2 O12 1.868321 1_555
Co2 O1 1.992568 1_555
Co2 O16 2.029053 1_555
Co2 O8 2.065836 1_554
Co3 O10 1.855404 1_555
Co3 O3 1.860928 1_555
Co3 O2 1.868321 1_555
Co3 O4 1.992568 1_555
Co3 O17 2.029053 1_555
Co3 O5 2.065836 1_455
Co4 O11 1.855404 1_555
Co4 O2 1.860928 1_555
Co4 O10 1.868321 1_555
Co4 O9 1.992568 1_555
Co4 O8 2.029053 1_555
Co4 O16 2.065836 1_556
Co5 O12 1.855404 1_555
Co5 O11 1.860928 1_555
Co5 O7 1.868321 1_555
Co5 O13 1.992568 1_555
Co5 O5 2.029053 1_555
Co5 O17 2.065836 1_655
C0 H2 1.100953 1_655
C0 O1 1.251516 1_555
C0 O5 1.285929 1_555
C1 H5 1.100953 1_455
C1 O9 1.251516 1_555
C1 O17 1.285929 1_555
C2 H3 1.100953 1_554
C2 O0 1.251516 1_555
C2 O16 1.285929 1_555
C3 H4 1.100953 1_556
C3 O6 1.251516 1_555
C3 O8 1.285929 1_555
C4 H1 1.100953 1_545
C4 O13 1.251516 1_555
C4 O15 1.285929 1_555
C5 H0 1.100953 1_565
C5 O4 1.251516 1_555
C5 O14 1.285929 1_555
