# generated using pymatgen
data_Al22CdO34
_symmetry_space_group_name_H-M   'P 1'
_cell_length_a   11.30031100
_cell_length_b   9.77799600
_cell_length_c   11.81072324
_cell_angle_alpha   74.19632279
_cell_angle_beta   90.00000000
_cell_angle_gamma   90.00000000
_symmetry_Int_Tables_number   1
_chemical_formula_structural   Al22CdO34
_chemical_formula_sum   'Al44 Cd2 O68'
_cell_volume   1255.68969379
_cell_formula_units_Z   2
loop_
 _symmetry_equiv_pos_site_id
 _symmetry_equiv_pos_as_xyz
  1  'x, y, z'
loop_
 _atom_site_type_symbol
 _atom_site_label
 _atom_site_symmetry_multiplicity
 _atom_site_fract_x
 _atom_site_fract_y
 _atom_site_fract_z
 _atom_site_occupancy
  Al  Al0  1  0.00000000  0.00000000  0.00000000  1
  Al  Al1  1  0.12502000  0.34292700  0.21492400  1
  Al  Al2  1  0.00136100  0.09646400  0.21472600  1
  Al  Al3  1  0.25000000  0.50211400  0.99979100  1
  Al  Al4  1  0.00195300  0.35137000  0.94897900  1
  Al  Al5  1  0.00023400  0.45032800  0.64890400  1
  Al  Al6  1  0.99976600  0.54967200  0.35109600  1
  Al  Al7  1  0.37632700  0.84646500  0.20747500  1
  Al  Al8  1  0.12367300  0.84646500  0.20747500  1
  Al  Al9  1  0.25000000  0.59612300  0.21226400  1
  Al  Al10  1  0.50000000  0.00000000  0.00000000  1
  Al  Al11  1  0.99804700  0.64863000  0.05102100  1
  Al  Al12  1  0.25000000  0.84999400  0.94782900  1
  Al  Al13  1  0.99863900  0.90353600  0.78527400  1
  Al  Al14  1  0.12259800  0.65463800  0.78646800  1
  Al  Al15  1  0.25000000  0.94251300  0.64901500  1
  Al  Al16  1  0.25000000  0.04621900  0.35322300  1
  Al  Al17  1  0.62259800  0.34536200  0.21353200  1
  Al  Al18  1  0.37498000  0.34292700  0.21492400  1
  Al  Al19  1  0.49863900  0.09646400  0.21472600  1
  Al  Al20  1  0.75000000  0.49788600  0.00020900  1
  Al  Al21  1  0.25000000  0.15090000  0.04884300  1
  Al  Al22  1  0.49804700  0.35137000  0.94897900  1
  Al  Al23  1  0.25000000  0.40311700  0.78467600  1
  Al  Al24  1  0.37300300  0.15401000  0.78305500  1
  Al  Al25  1  0.12699700  0.15401000  0.78305500  1
  Al  Al26  1  0.49976600  0.45032800  0.64890400  1
  Al  Al27  1  0.50023400  0.54967200  0.35109600  1
  Al  Al28  1  0.87300300  0.84599000  0.21694500  1
  Al  Al29  1  0.62699700  0.84599000  0.21694500  1
  Al  Al30  1  0.75000000  0.59688300  0.21532400  1
  Al  Al31  1  0.50195300  0.64863000  0.05102100  1
  Al  Al32  1  0.75000000  0.84910000  0.95115700  1
  Al  Al33  1  0.50136100  0.90353600  0.78527400  1
  Al  Al34  1  0.62502000  0.65707300  0.78507600  1
  Al  Al35  1  0.37740200  0.65463800  0.78646800  1
  Al  Al36  1  0.75000000  0.95378100  0.64677700  1
  Al  Al37  1  0.75000000  0.05748700  0.35098500  1
  Al  Al38  1  0.87740200  0.34536200  0.21353200  1
  Al  Al39  1  0.75000000  0.15000600  0.05217100  1
  Al  Al40  1  0.75000000  0.40387700  0.78773600  1
  Al  Al41  1  0.62367300  0.15353500  0.79252500  1
  Al  Al42  1  0.87632700  0.15353500  0.79252500  1
  Al  Al43  1  0.87498000  0.65707300  0.78507600  1
  Cd  Cd0  1  0.25000000  0.71691100  0.46625100  1
  Cd  Cd1  1  0.75000000  0.28308900  0.53374900  1
  O  O0  1  0.99844400  0.09390600  0.71822200  1
  O  O1  1  0.00300500  0.29668700  0.10957000  1
  O  O2  1  0.13377100  0.45801500  0.89849500  1
  O  O3  1  0.99857600  0.19088000  0.90055500  1
  O  O4  1  0.25000000  0.59836000  0.70724700  1
  O  O5  1  0.99883700  0.59557600  0.71295600  1
  O  O6  1  0.12462200  0.34501300  0.71268500  1
  O  O7  1  0.13069200  0.65663200  0.29769300  1
  O  O8  1  0.00116300  0.40442400  0.28704400  1
  O  O9  1  0.25000000  0.79531600  0.10973500  1
  O  O10  1  0.13258300  0.54895300  0.09912900  1
  O  O11  1  0.11762400  0.95489300  0.90114900  1
  O  O12  1  0.38237600  0.95489300  0.90114900  1
  O  O13  1  0.25000000  0.68957000  0.89833900  1
  O  O14  1  0.50155600  0.09390600  0.71822200  1
  O  O15  1  0.25000000  0.09485700  0.70566400  1
  O  O16  1  0.12281600  0.84398100  0.71326000  1
  O  O17  1  0.37718400  0.84398100  0.71326000  1
  O  O18  1  0.25000000  0.94043100  0.49978200  1
  O  O19  1  0.37372600  0.15234000  0.29078500  1
  O  O20  1  0.12627400  0.15234000  0.29078500  1
  O  O21  1  0.25000000  0.89852800  0.28778900  1
  O  O22  1  0.00155600  0.90609400  0.28177800  1
  O  O23  1  0.49699500  0.29668700  0.10957000  1
  O  O24  1  0.25000000  0.31161600  0.09735200  1
  O  O25  1  0.38141100  0.04505500  0.09883900  1
  O  O26  1  0.11858900  0.04505500  0.09883900  1
  O  O27  1  0.63258300  0.45104700  0.90087100  1
  O  O28  1  0.36622900  0.45801500  0.89849500  1
  O  O29  1  0.50142400  0.19088000  0.90055500  1
  O  O30  1  0.25000000  0.20253800  0.88832500  1
  O  O31  1  0.75000000  0.59292200  0.71832200  1
  O  O32  1  0.50116300  0.59557600  0.71295600  1
  O  O33  1  0.37537800  0.34501300  0.71268500  1
  O  O34  1  0.63069200  0.34336800  0.70230700  1
  O  O35  1  0.50000000  0.50000000  0.50000000  1
  O  O36  1  0.36930800  0.65663200  0.29769300  1
  O  O37  1  0.62462200  0.65498700  0.28731500  1
  O  O38  1  0.49883700  0.40442400  0.28704400  1
  O  O39  1  0.25000000  0.40707800  0.28167800  1
  O  O40  1  0.75000000  0.79746200  0.11167500  1
  O  O41  1  0.49857600  0.80912000  0.09944500  1
  O  O42  1  0.36741700  0.54895300  0.09912900  1
  O  O43  1  0.63377100  0.54198500  0.10150500  1
  O  O44  1  0.61858900  0.95494500  0.90116100  1
  O  O45  1  0.88141100  0.95494500  0.90116100  1
  O  O46  1  0.75000000  0.68838400  0.90264800  1
  O  O47  1  0.50300500  0.70331300  0.89043000  1
  O  O48  1  0.75000000  0.10147200  0.71221100  1
  O  O49  1  0.87372600  0.84766000  0.70921500  1
  O  O50  1  0.62627400  0.84766000  0.70921500  1
  O  O51  1  0.75000000  0.05956900  0.50021800  1
  O  O52  1  0.62281600  0.15601900  0.28674000  1
  O  O53  1  0.87718400  0.15601900  0.28674000  1
  O  O54  1  0.75000000  0.90514300  0.29433600  1
  O  O55  1  0.49844400  0.90609400  0.28177800  1
  O  O56  1  0.75000000  0.31043000  0.10166100  1
  O  O57  1  0.61762400  0.04510700  0.09885100  1
  O  O58  1  0.88237600  0.04510700  0.09885100  1
  O  O59  1  0.86741700  0.45104700  0.90087100  1
  O  O60  1  0.75000000  0.20468400  0.89026500  1
  O  O61  1  0.86930800  0.34336800  0.70230700  1
  O  O62  1  0.00000000  0.50000000  0.50000000  1
  O  O63  1  0.87537800  0.65498700  0.28731500  1
  O  O64  1  0.75000000  0.40164000  0.29275300  1
  O  O65  1  0.00142400  0.80912000  0.09944500  1
  O  O66  1  0.86622900  0.54198500  0.10150500  1
  O  O67  1  0.99699500  0.70331300  0.89043000  1
loop_
_geom_bond_atom_site_label_1
_geom_bond_atom_site_label_2
_geom_bond_distance
_geom_bond_site_symmetry_2
Al0 O58 1.898633 1_455
Al0 O11 1.898633 1_544
Al0 O26 1.905985 1_555
Al0 O45 1.905985 1_444
Al0 O3 1.915531 1_454
Al0 O65 1.915531 1_545
Al1 O39 1.810817 1_555
Al1 O8 1.823474 1_555
Al1 O20 1.834765 1_555
Al1 O1 1.990043 1_555
Al1 O24 2.061107 1_555
Al1 O10 2.106022 1_555
Al2 O22 1.813608 1_545
Al2 O53 1.816969 1_455
Al2 O20 1.834472 1_555
Al2 O1 2.012792 1_555
Al2 O26 2.062927 1_555
Al2 O58 2.075415 1_455
Al3 O13 1.897141 1_555
Al3 O2 1.903504 1_555
Al3 O28 1.903504 1_555
Al3 O24 1.904800 1_556
Al3 O42 1.907744 1_556
Al3 O10 1.907744 1_556
Al4 O3 1.811082 1_455
Al4 O59 1.811750 1_455
Al4 O2 1.822936 1_555
Al4 O1 1.825131 1_556
Al5 O62 1.692203 1_555
Al5 O5 1.781803 1_455
Al5 O6 1.783574 1_555
Al5 O61 1.822433 1_455
Al6 O62 1.692203 1_655
Al6 O8 1.781803 1_655
Al6 O63 1.783574 1_555
Al6 O7 1.822433 1_655
Al7 O55 1.814682 1_555
Al7 O21 1.860056 1_555
Al7 O36 1.873445 1_555
Al7 O41 1.980777 1_555
Al7 O9 1.983697 1_555
Al7 O25 2.015722 1_565
Al8 O22 1.814682 1_555
Al8 O21 1.860056 1_555
Al8 O7 1.873445 1_555
Al8 O65 1.980777 1_555
Al8 O9 1.983697 1_555
Al8 O26 2.015722 1_565
Al9 O39 1.806535 1_555
Al9 O7 1.873752 1_555
Al9 O36 1.873752 1_555
Al9 O9 1.993810 1_555
Al9 O42 2.023460 1_555
Al9 O10 2.023460 1_555
Al10 O57 1.898633 1_555
Al10 O12 1.898633 1_544
Al10 O25 1.905985 1_555
Al10 O44 1.905985 1_544
Al10 O29 1.915531 1_554
Al10 O41 1.915531 1_545
Al11 O65 1.811082 1_655
Al11 O10 1.811750 1_655
Al11 O66 1.822936 1_555
Al11 O67 1.825131 1_554
Al12 O11 1.812648 1_555
Al12 O12 1.812648 1_555
Al12 O13 1.817045 1_555
Al12 O9 1.839998 1_556
Al13 O0 1.813608 1_565
Al13 O16 1.816969 1_655
Al13 O49 1.834472 1_555
Al13 O67 2.012792 1_555
Al13 O45 2.062927 1_555
Al13 O11 2.075415 1_655
Al14 O16 1.817511 1_555
Al14 O5 1.821087 1_455
Al14 O4 1.879202 1_555
Al14 O67 2.016693 1_455
Al14 O2 2.019240 1_555
Al14 O13 2.044735 1_555
Al15 O18 1.768202 1_555
Al15 O17 1.780838 1_555
Al15 O16 1.780838 1_555
Al15 O15 1.791501 1_565
Al16 O18 1.758113 1_545
Al16 O19 1.777229 1_555
Al16 O20 1.777229 1_555
Al16 O21 1.814012 1_545
Al17 O52 1.817511 1_555
Al17 O38 1.821087 1_555
Al17 O64 1.879202 1_555
Al17 O23 2.016693 1_555
Al17 O43 2.019240 1_555
Al17 O56 2.044735 1_555
Al18 O39 1.810817 1_555
Al18 O38 1.823474 1_555
Al18 O19 1.834765 1_555
Al18 O23 1.990043 1_555
Al18 O24 2.061107 1_555
Al18 O42 2.106022 1_555
Al19 O55 1.813608 1_545
Al19 O52 1.816969 1_555
Al19 O19 1.834472 1_555
Al19 O23 2.012792 1_555
Al19 O25 2.062927 1_555
Al19 O57 2.075415 1_555
Al20 O56 1.897141 1_555
Al20 O66 1.903504 1_555
Al20 O43 1.903504 1_555
Al20 O46 1.904800 1_554
Al20 O27 1.907744 1_554
Al20 O59 1.907744 1_554
Al21 O24 1.813339 1_555
Al21 O25 1.814418 1_555
Al21 O26 1.814418 1_555
Al21 O30 1.824208 1_554
Al22 O29 1.811082 1_555
Al22 O27 1.811750 1_555
Al22 O28 1.822936 1_555
Al22 O23 1.825131 1_556
Al23 O6 1.821046 1_555
Al23 O33 1.821046 1_555
Al23 O4 1.878821 1_555
Al23 O30 2.009327 1_555
Al23 O2 2.052651 1_555
Al23 O28 2.052651 1_555
Al24 O14 1.813048 1_555
Al24 O33 1.825935 1_555
Al24 O15 1.841197 1_555
Al24 O30 2.006079 1_555
Al24 O12 2.065952 1_545
Al24 O29 2.105785 1_555
Al25 O0 1.813048 1_455
Al25 O6 1.825935 1_555
Al25 O15 1.841197 1_555
Al25 O30 2.006079 1_555
Al25 O11 2.065952 1_545
Al25 O3 2.105785 1_455
Al26 O35 1.692203 1_555
Al26 O32 1.781803 1_555
Al26 O33 1.783574 1_555
Al26 O34 1.822433 1_555
Al27 O35 1.692203 1_555
Al27 O38 1.781803 1_555
Al27 O37 1.783574 1_555
Al27 O36 1.822433 1_555
Al28 O22 1.813048 1_655
Al28 O63 1.825935 1_555
Al28 O54 1.841197 1_555
Al28 O40 2.006079 1_555
Al28 O58 2.065952 1_565
Al28 O65 2.105785 1_655
Al29 O55 1.813048 1_555
Al29 O37 1.825935 1_555
Al29 O54 1.841197 1_555
Al29 O40 2.006079 1_555
Al29 O57 2.065952 1_565
Al29 O41 2.105785 1_555
Al30 O37 1.821046 1_555
Al30 O63 1.821046 1_555
Al30 O64 1.878821 1_555
Al30 O40 2.009327 1_555
Al30 O66 2.052651 1_555
Al30 O43 2.052651 1_555
Al31 O41 1.811082 1_555
Al31 O42 1.811750 1_555
Al31 O43 1.822936 1_555
Al31 O47 1.825131 1_554
Al32 O46 1.813339 1_555
Al32 O45 1.814418 1_555
Al32 O44 1.814418 1_555
Al32 O40 1.824208 1_556
Al33 O14 1.813608 1_565
Al33 O17 1.816969 1_555
Al33 O50 1.834472 1_555
Al33 O47 2.012792 1_555
Al33 O44 2.062927 1_555
Al33 O12 2.075415 1_555
Al34 O31 1.810817 1_555
Al34 O32 1.823474 1_555
Al34 O50 1.834765 1_555
Al34 O47 1.990043 1_555
Al34 O46 2.061107 1_555
Al34 O27 2.106022 1_555
Al35 O17 1.817511 1_555
Al35 O32 1.821087 1_555
Al35 O4 1.879202 1_555
Al35 O47 2.016693 1_555
Al35 O28 2.019240 1_555
Al35 O13 2.044735 1_555
Al36 O51 1.758113 1_565
Al36 O50 1.777229 1_555
Al36 O49 1.777229 1_555
Al36 O48 1.814012 1_565
Al37 O51 1.768202 1_555
Al37 O52 1.780838 1_555
Al37 O53 1.780838 1_555
Al37 O54 1.791501 1_545
Al38 O53 1.817511 1_555
Al38 O8 1.821087 1_655
Al38 O64 1.879202 1_555
Al38 O1 2.016693 1_655
Al38 O66 2.019240 1_555
Al38 O56 2.044735 1_555
Al39 O57 1.812648 1_555
Al39 O58 1.812648 1_555
Al39 O56 1.817045 1_555
Al39 O60 1.839998 1_554
Al40 O31 1.806535 1_555
Al40 O61 1.873752 1_555
Al40 O34 1.873752 1_555
Al40 O60 1.993810 1_555
Al40 O27 2.023460 1_555
Al40 O59 2.023460 1_555
Al41 O14 1.814682 1_555
Al41 O48 1.860056 1_555
Al41 O34 1.873445 1_555
Al41 O29 1.980777 1_555
Al41 O60 1.983697 1_555
Al41 O44 2.015722 1_545
Al42 O0 1.814682 1_555
Al42 O48 1.860056 1_555
Al42 O61 1.873445 1_555
Al42 O3 1.980777 1_555
Al42 O60 1.983697 1_555
Al42 O45 2.015722 1_545
Al43 O31 1.810817 1_555
Al43 O5 1.823474 1_555
Al43 O49 1.834765 1_555
Al43 O67 1.990043 1_555
Al43 O46 2.061107 1_555
Al43 O59 2.106022 1_555
Cd0 O18 2.324873 1_555
Cd0 O21 2.357440 1_555
Cd0 O7 2.601436 1_555
Cd0 O36 2.601436 1_555
Cd0 O4 2.765538 1_555
Cd1 O51 2.324873 1_555
Cd1 O48 2.357440 1_555
Cd1 O61 2.601436 1_555
Cd1 O34 2.601436 1_555
Cd1 O64 2.765538 1_555
