# generated using pymatgen
data_NaY3F10
_symmetry_space_group_name_H-M   'P 1'
_cell_length_a   5.65506200
_cell_length_b   5.65506200
_cell_length_c   10.85256800
_cell_angle_alpha   90.00000000
_cell_angle_beta   90.00000000
_cell_angle_gamma   90.00000000
_symmetry_Int_Tables_number   1
_chemical_formula_structural   NaY3F10
_chemical_formula_sum   'Na2 Y6 F20'
_cell_volume   347.06215347
_cell_formula_units_Z   2
loop_
 _symmetry_equiv_pos_site_id
 _symmetry_equiv_pos_as_xyz
  1  'x, y, z'
loop_
 _atom_site_type_symbol
 _atom_site_label
 _atom_site_symmetry_multiplicity
 _atom_site_fract_x
 _atom_site_fract_y
 _atom_site_fract_z
 _atom_site_occupancy
  Na  Na0  1  0.50000000  0.50000000  0.00000000  1
  Na  Na1  1  0.50000000  0.50000000  0.50000000  1
  Y  Y0  1  0.00000000  0.00000000  0.00000000  1
  Y  Y1  1  0.00000000  0.50000000  0.77457400  1
  Y  Y2  1  0.00000000  0.00000000  0.50000000  1
  Y  Y3  1  0.00000000  0.50000000  0.22542600  1
  Y  Y4  1  0.50000000  0.00000000  0.72542600  1
  Y  Y5  1  0.50000000  0.00000000  0.27457400  1
  F  F0  1  0.00000000  0.50000000  0.00000000  1
  F  F1  1  0.23874400  0.21190500  0.86847900  1
  F  F2  1  0.21190500  0.23874400  0.36847900  1
  F  F3  1  0.23874400  0.21190500  0.13152100  1
  F  F4  1  0.23874400  0.78809500  0.86847900  1
  F  F5  1  0.21190500  0.23874400  0.63152100  1
  F  F6  1  0.21190500  0.76125600  0.36847900  1
  F  F7  1  0.23874400  0.78809500  0.13152100  1
  F  F8  1  0.21190500  0.76125600  0.63152100  1
  F  F9  1  0.50000000  0.50000000  0.75000000  1
  F  F10  1  0.50000000  0.00000000  0.50000000  1
  F  F11  1  0.50000000  0.50000000  0.25000000  1
  F  F12  1  0.78809500  0.23874400  0.36847900  1
  F  F13  1  0.76125600  0.21190500  0.86847900  1
  F  F14  1  0.76125600  0.21190500  0.13152100  1
  F  F15  1  0.76125600  0.78809500  0.86847900  1
  F  F16  1  0.76125600  0.78809500  0.13152100  1
  F  F17  1  0.78809500  0.76125600  0.36847900  1
  F  F18  1  0.78809500  0.23874400  0.63152100  1
  F  F19  1  0.78809500  0.76125600  0.63152100  1
loop_
_geom_bond_atom_site_label_1
_geom_bond_atom_site_label_2
_geom_bond_distance
_geom_bond_site_symmetry_2
F0 Y3 2.446451 1_555
F0 Y1 2.446451 1_554
F0 Na0 2.827531 1_455
F0 Y0 2.827531 1_555
F0 Y0 2.827531 1_565
F0 Na0 2.827531 1_555
F1 Y0 2.301329 1_556
F1 Y1 2.348545 1_555
F1 Y4 2.455404 1_555
F1 Na0 2.621897 1_556
F2 Y2 2.301329 1_555
F2 Y5 2.348545 1_555
F2 Y3 2.455404 1_555
F2 Na1 2.621897 1_555
F3 Y0 2.301329 1_555
F3 Y3 2.348545 1_555
F3 Y5 2.455404 1_555
F3 Na0 2.621897 1_555
F4 Y0 2.301329 1_566
F4 Y1 2.348545 1_555
F4 Y4 2.455404 1_565
F4 Na0 2.621897 1_556
F5 Y2 2.301329 1_555
F5 Y4 2.348545 1_555
F5 Y1 2.455404 1_555
F5 Na1 2.621897 1_555
F6 Y2 2.301329 1_565
F6 Y5 2.348545 1_565
F6 Y3 2.455404 1_555
F6 Na1 2.621897 1_555
F7 Y0 2.301329 1_565
F7 Y3 2.348545 1_555
F7 Y5 2.455404 1_565
F7 Na0 2.621897 1_555
F8 Y2 2.301329 1_565
F8 Y4 2.348545 1_565
F8 Y1 2.455404 1_555
F8 Na1 2.621897 1_555
F9 Na1 2.713142 1_555
F9 Na0 2.713142 1_556
F9 Y4 2.840080 1_565
F9 Y4 2.840080 1_555
F9 Y1 2.840080 1_555
F9 Y1 2.840080 1_655
F10 Y4 2.446451 1_555
F10 Y5 2.446451 1_555
F10 Y2 2.827531 1_655
F10 Y2 2.827531 1_555
F10 Na1 2.827531 1_545
F10 Na1 2.827531 1_555
F11 Na1 2.713142 1_555
F11 Na0 2.713142 1_555
F11 Y3 2.840080 1_655
F11 Y5 2.840080 1_565
F11 Y3 2.840080 1_555
F11 Y5 2.840080 1_555
F12 Y2 2.301329 1_655
F12 Y5 2.348545 1_555
F12 Y3 2.455404 1_655
F12 Na1 2.621897 1_555
F13 Y0 2.301329 1_656
F13 Y1 2.348545 1_655
F13 Y4 2.455404 1_555
F13 Na0 2.621897 1_556
F14 Y0 2.301329 1_655
F14 Y3 2.348545 1_655
F14 Y5 2.455404 1_555
F14 Na0 2.621897 1_555
F15 Y0 2.301329 1_666
F15 Y1 2.348545 1_655
F15 Y4 2.455404 1_565
F15 Na0 2.621897 1_556
F16 Y0 2.301329 1_665
F16 Y3 2.348545 1_655
F16 Y5 2.455404 1_565
F16 Na0 2.621897 1_555
F17 Y2 2.301329 1_665
F17 Y5 2.348545 1_565
F17 Y3 2.455404 1_655
F17 Na1 2.621897 1_555
F18 Y2 2.301329 1_655
F18 Y4 2.348545 1_555
F18 Y1 2.455404 1_655
F18 Na1 2.621897 1_555
F19 Y2 2.301329 1_665
F19 Y4 2.348545 1_565
F19 Y1 2.455404 1_655
F19 Na1 2.621897 1_555
