# generated using pymatgen
data_K2EuSiSe5
_symmetry_space_group_name_H-M   'P 1'
_cell_length_a   9.96881600
_cell_length_b   9.06010300
_cell_length_c   11.87941204
_cell_angle_alpha   87.78973171
_cell_angle_beta   90.00000000
_cell_angle_gamma   90.00000000
_symmetry_Int_Tables_number   1
_chemical_formula_structural   K2EuSiSe5
_chemical_formula_sum   'K8 Eu4 Si4 Se20'
_cell_volume   1072.13243483
_cell_formula_units_Z   4
loop_
 _symmetry_equiv_pos_site_id
 _symmetry_equiv_pos_as_xyz
  1  'x, y, z'
loop_
 _atom_site_type_symbol
 _atom_site_label
 _atom_site_symmetry_multiplicity
 _atom_site_fract_x
 _atom_site_fract_y
 _atom_site_fract_z
 _atom_site_occupancy
  K  K0  1  0.19997900  0.54354900  0.93811500  1
  K  K1  1  0.94159900  0.87324500  0.80066700  1
  K  K2  1  0.55840100  0.37324500  0.80066700  1
  K  K3  1  0.80002100  0.45645100  0.06188500  1
  K  K4  1  0.30002100  0.04354900  0.93811500  1
  K  K5  1  0.69997900  0.95645100  0.06188500  1
  K  K6  1  0.44159900  0.62675500  0.19933300  1
  K  K7  1  0.05840100  0.12675500  0.19933300  1
  Eu  Eu0  1  0.22861100  0.60439900  0.51684000  1
  Eu  Eu1  1  0.27138900  0.10439900  0.51684000  1
  Eu  Eu2  1  0.72861100  0.89560100  0.48316000  1
  Eu  Eu3  1  0.77138900  0.39560100  0.48316000  1
  Si  Si0  1  0.47820800  0.79095300  0.74657200  1
  Si  Si1  1  0.52179200  0.20904700  0.25342800  1
  Si  Si2  1  0.02179200  0.29095300  0.74657200  1
  Si  Si3  1  0.97820800  0.70904700  0.25342800  1
  Se  Se0  1  0.24064500  0.35150700  0.71153300  1
  Se  Se1  1  0.62372700  0.99242700  0.75455700  1
  Se  Se2  1  0.96357900  0.14370000  0.59907700  1
  Se  Se3  1  0.37627300  0.00757300  0.24544300  1
  Se  Se4  1  0.46357900  0.35630000  0.40092300  1
  Se  Se5  1  0.48664200  0.30878600  0.07699600  1
  Se  Se6  1  0.25935500  0.85150700  0.71153300  1
  Se  Se7  1  0.43570000  0.83909700  0.41479500  1
  Se  Se8  1  0.03642100  0.85630000  0.40092300  1
  Se  Se9  1  0.01335800  0.80878600  0.07699600  1
  Se  Se10  1  0.51335800  0.69121400  0.92300400  1
  Se  Se11  1  0.75935500  0.64849300  0.28846700  1
  Se  Se12  1  0.12372700  0.50757300  0.24544300  1
  Se  Se13  1  0.93570000  0.66090300  0.58520500  1
  Se  Se14  1  0.74064500  0.14849300  0.28846700  1
  Se  Se15  1  0.56430000  0.16090300  0.58520500  1
  Se  Se16  1  0.98664200  0.19121400  0.92300400  1
  Se  Se17  1  0.06430000  0.33909700  0.41479500  1
  Se  Se18  1  0.53642100  0.64370000  0.59907700  1
  Se  Se19  1  0.87627300  0.49242700  0.75455700  1
loop_
_geom_bond_atom_site_label_1
_geom_bond_atom_site_label_2
_geom_bond_distance
_geom_bond_site_symmetry_2
K0 Se0 3.286022 1_555
K0 Se10 3.400449 1_555
K0 Se9 3.501935 1_556
K0 Se16 3.845704 1_455
K0 Se6 3.847200 1_555
K0 Se5 3.891231 1_556
K1 Se13 3.261257 1_555
K1 Se16 3.306933 1_565
K1 Se6 3.348144 1_655
K1 Se2 3.366679 1_565
K1 Se1 3.385518 1_555
K1 Se9 3.388297 1_656
K1 Se19 3.574092 1_555
K2 Se15 3.261257 1_555
K2 Se10 3.306933 1_555
K2 Se0 3.348144 1_555
K2 Se18 3.366679 1_555
K2 Se19 3.385518 1_555
K2 Se5 3.388297 1_556
K2 Se1 3.574092 1_545
K3 Se11 3.286022 1_555
K3 Se5 3.400449 1_555
K3 Se16 3.501935 1_554
K3 Se9 3.845704 1_655
K3 Se14 3.847200 1_555
K3 Se10 3.891231 1_554
K4 Se6 3.286022 1_545
K4 Se16 3.400449 1_455
K4 Se5 3.501935 1_556
K4 Se10 3.845704 1_545
K4 Se0 3.847200 1_555
K4 Se9 3.891231 1_546
K5 Se14 3.286022 1_565
K5 Se9 3.400449 1_655
K5 Se10 3.501935 1_554
K5 Se5 3.845704 1_565
K5 Se11 3.847200 1_555
K5 Se16 3.891231 1_564
K6 Se7 3.261257 1_555
K6 Se5 3.306933 1_555
K6 Se11 3.348144 1_555
K6 Se4 3.366679 1_555
K6 Se12 3.385518 1_555
K6 Se10 3.388297 1_554
K6 Se3 3.574092 1_565
K7 Se17 3.261257 1_555
K7 Se9 3.306933 1_545
K7 Se14 3.348144 1_455
K7 Se8 3.366679 1_545
K7 Se3 3.385518 1_555
K7 Se16 3.388297 1_454
K7 Se12 3.574092 1_555
Eu0 Se13 3.078956 1_455
Eu0 Se7 3.170819 1_555
Eu0 Se17 3.186669 1_555
Eu0 Se0 3.194462 1_555
Eu0 Se18 3.244026 1_555
Eu0 Se8 3.245481 1_555
Eu0 Se6 3.294675 1_555
Eu0 Se12 3.532047 1_555
Eu0 Se4 3.560082 1_555
Eu1 Se15 3.078956 1_555
Eu1 Se17 3.170819 1_555
Eu1 Se7 3.186669 1_545
Eu1 Se6 3.194462 1_545
Eu1 Se2 3.244026 1_455
Eu1 Se4 3.245481 1_555
Eu1 Se0 3.294675 1_555
Eu1 Se3 3.532047 1_555
Eu1 Se8 3.560082 1_545
Eu2 Se7 3.078956 1_555
Eu2 Se13 3.170819 1_555
Eu2 Se15 3.186669 1_565
Eu2 Se14 3.194462 1_565
Eu2 Se8 3.244026 1_655
Eu2 Se18 3.245481 1_555
Eu2 Se11 3.294675 1_555
Eu2 Se1 3.532047 1_555
Eu2 Se2 3.560082 1_565
Eu3 Se17 3.078956 1_655
Eu3 Se15 3.170819 1_555
Eu3 Se13 3.186669 1_555
Eu3 Se11 3.194462 1_555
Eu3 Se4 3.244026 1_555
Eu3 Se2 3.245481 1_555
Eu3 Se14 3.294675 1_555
Eu3 Se19 3.532047 1_555
Eu3 Se18 3.560082 1_555
Se0 Si2 2.283960 1_555
Se1 Si0 2.336395 1_555
Se1 Se15 2.547816 1_565
Se2 Si2 2.316681 1_655
Se3 Si1 2.336395 1_555
Se3 Se7 2.547816 1_545
Se4 Si1 2.316681 1_555
Se5 Si1 2.277302 1_555
Se6 Si0 2.283960 1_555
Se8 Si3 2.316681 1_455
Se9 Si3 2.277302 1_455
Se10 Si0 2.277302 1_555
Se11 Si3 2.283960 1_555
Se12 Si3 2.336395 1_455
Se12 Se17 2.547816 1_555
Se13 Se19 2.547816 1_555
Se13 Se8 2.938652 1_655
Se14 Si1 2.283960 1_555
Se15 Se4 2.938652 1_555
Se16 Si2 2.277302 1_655
Se17 Se2 2.938652 1_455
Se18 Si0 2.316681 1_555
Se18 Se7 2.938652 1_555
Se19 Si2 2.336395 1_655
