# generated using pymatgen
data_ZnS
_symmetry_space_group_name_H-M   'P 1'
_cell_length_a   3.85513265
_cell_length_b   3.85513265
_cell_length_c   201.48987600
_cell_angle_alpha   90.00000000
_cell_angle_beta   90.00000000
_cell_angle_gamma   120.00001119
_symmetry_Int_Tables_number   1
_chemical_formula_structural   ZnS
_chemical_formula_sum   'Zn64 S64'
_cell_volume   2593.35795229
_cell_formula_units_Z   64
loop_
 _symmetry_equiv_pos_site_id
 _symmetry_equiv_pos_as_xyz
  1  'x, y, z'
loop_
 _atom_site_type_symbol
 _atom_site_label
 _atom_site_symmetry_multiplicity
 _atom_site_fract_x
 _atom_site_fract_y
 _atom_site_fract_z
 _atom_site_occupancy
  Zn  Zn0  1  0.33333300  0.66666700  0.92187600  1
  Zn  Zn1  1  0.00000000  0.00000000  0.42187700  1
  Zn  Zn2  1  0.33333300  0.66666700  0.87500000  1
  Zn  Zn3  1  0.33333300  0.66666700  0.74999900  1
  Zn  Zn4  1  0.66666700  0.33333300  0.59374900  1
  Zn  Zn5  1  0.00000000  0.00000000  0.18750000  1
  Zn  Zn6  1  0.66666700  0.33333300  0.50000000  1
  Zn  Zn7  1  0.33333300  0.66666700  0.01562800  1
  Zn  Zn8  1  0.00000000  0.00000000  0.46874900  1
  Zn  Zn9  1  0.66666700  0.33333300  0.84374900  1
  Zn  Zn10  1  0.33333300  0.66666700  0.95312900  1
  Zn  Zn11  1  0.33333300  0.66666700  0.67187700  1
  Zn  Zn12  1  0.33333300  0.66666700  0.78125200  1
  Zn  Zn13  1  0.33333300  0.66666700  0.53125000  1
  Zn  Zn14  1  0.66666700  0.33333300  0.17187700  1
  Zn  Zn15  1  0.66666700  0.33333300  0.89062700  1
  Zn  Zn16  1  0.66666700  0.33333300  0.21874900  1
  Zn  Zn17  1  0.00000000  0.00000000  0.28125100  1
  Zn  Zn18  1  0.00000000  0.00000000  0.23437700  1
  Zn  Zn19  1  0.33333300  0.66666700  0.15625100  1
  Zn  Zn20  1  0.00000000  0.00000000  0.51562700  1
  Zn  Zn21  1  0.00000000  0.00000000  0.60937600  1
  Zn  Zn22  1  0.33333300  0.66666700  0.29687800  1
  Zn  Zn23  1  0.33333300  0.66666700  0.48437600  1
  Zn  Zn24  1  0.66666700  0.33333300  0.12500000  1
  Zn  Zn25  1  0.33333300  0.66666700  0.82812700  1
  Zn  Zn26  1  0.33333300  0.66666700  0.10937700  1
  Zn  Zn27  1  0.66666700  0.33333300  0.03125000  1
  Zn  Zn28  1  0.66666700  0.33333300  0.68749900  1
  Zn  Zn29  1  0.00000000  0.00000000  0.09374900  1
  Zn  Zn30  1  0.00000000  0.00000000  0.81250000  1
  Zn  Zn31  1  0.66666700  0.33333300  0.45312700  1
  Zn  Zn32  1  0.33333300  0.66666700  0.62500000  1
  Zn  Zn33  1  0.33333300  0.66666700  0.70312800  1
  Zn  Zn34  1  0.00000000  0.00000000  0.37500000  1
  Zn  Zn35  1  0.66666700  0.33333300  0.98437500  1
  Zn  Zn36  1  0.00000000  0.00000000  0.96874800  1
  Zn  Zn37  1  0.00000000  0.00000000  0.04687800  1
  Zn  Zn38  1  0.33333300  0.66666700  0.20312700  1
  Zn  Zn39  1  0.00000000  0.00000000  0.85937600  1
  Zn  Zn40  1  0.66666700  0.33333300  0.26562800  1
  Zn  Zn41  1  0.66666700  0.33333300  0.07812700  1
  Zn  Zn42  1  0.33333300  0.66666700  0.34374900  1
  Zn  Zn43  1  0.66666700  0.33333300  0.35937700  1
  Zn  Zn44  1  0.66666700  0.33333300  0.54687800  1
  Zn  Zn45  1  0.66666700  0.33333300  0.73437600  1
  Zn  Zn46  1  0.00000000  0.00000000  0.00000200  1
  Zn  Zn47  1  0.33333300  0.66666700  0.43750000  1
  Zn  Zn48  1  0.33333300  0.66666700  0.39062700  1
  Zn  Zn49  1  0.00000000  0.00000000  0.14062700  1
  Zn  Zn50  1  0.66666700  0.33333300  0.93749900  1
  Zn  Zn51  1  0.66666700  0.33333300  0.31250000  1
  Zn  Zn52  1  0.00000000  0.00000000  0.56250000  1
  Zn  Zn53  1  0.00000000  0.00000000  0.90625100  1
  Zn  Zn54  1  0.00000000  0.00000000  0.71874900  1
  Zn  Zn55  1  0.66666700  0.33333300  0.64062700  1
  Zn  Zn56  1  0.66666700  0.33333300  0.40625100  1
  Zn  Zn57  1  0.33333300  0.66666700  0.06250000  1
  Zn  Zn58  1  0.66666700  0.33333300  0.79687800  1
  Zn  Zn59  1  0.00000000  0.00000000  0.65625100  1
  Zn  Zn60  1  0.00000000  0.00000000  0.32812700  1
  Zn  Zn61  1  0.33333300  0.66666700  0.25000000  1
  Zn  Zn62  1  0.00000000  0.00000000  0.76562600  1
  Zn  Zn63  1  0.33333300  0.66666700  0.57812700  1
  S  S0  1  0.66666700  0.33333300  0.51172000  1
  S  S1  1  0.66666700  0.33333300  0.60546900  1
  S  S2  1  0.33333300  0.66666700  0.49609400  1
  S  S3  1  0.33333300  0.66666700  0.83984400  1
  S  S4  1  0.00000000  0.00000000  0.24609300  1
  S  S5  1  0.33333300  0.66666700  0.12109300  1
  S  S6  1  0.00000000  0.00000000  0.33984300  1
  S  S7  1  0.00000000  0.00000000  0.38672000  1
  S  S8  1  0.00000000  0.00000000  0.73047000  1
  S  S9  1  0.66666700  0.33333300  0.23047000  1
  S  S10  1  0.33333300  0.66666700  0.21484300  1
  S  S11  1  0.33333300  0.66666700  0.76171300  1
  S  S12  1  0.66666700  0.33333300  0.90234300  1
  S  S13  1  0.66666700  0.33333300  0.80859400  1
  S  S14  1  0.00000000  0.00000000  0.66797000  1
  S  S15  1  0.00000000  0.00000000  0.05859300  1
  S  S16  1  0.33333300  0.66666700  0.07422000  1
  S  S17  1  0.00000000  0.00000000  0.15234400  1
  S  S18  1  0.33333300  0.66666700  0.68358700  1
  S  S19  1  0.00000000  0.00000000  0.48047000  1
  S  S20  1  0.33333300  0.66666700  0.26172000  1
  S  S21  1  0.33333300  0.66666700  0.79296900  1
  S  S22  1  0.33333300  0.66666700  0.16797000  1
  S  S23  1  0.66666700  0.33333300  0.69922600  1
  S  S24  1  0.33333300  0.66666700  0.40234300  1
  S  S25  1  0.00000000  0.00000000  0.43359300  1
  S  S26  1  0.00000000  0.00000000  0.91797000  1
  S  S27  1  0.33333300  0.66666700  0.30859400  1
  S  S28  1  0.33333300  0.66666700  0.02734400  1
  S  S29  1  0.33333300  0.66666700  0.58984400  1
  S  S30  1  0.00000000  0.00000000  0.98046300  1
  S  S31  1  0.33333300  0.66666700  0.93358700  1
  S  S32  1  0.66666700  0.33333300  0.94922600  1
  S  S33  1  0.00000000  0.00000000  0.01171900  1
  S  S34  1  0.66666700  0.33333300  0.27734400  1
  S  S35  1  0.00000000  0.00000000  0.82422100  1
  S  S36  1  0.00000000  0.00000000  0.62109300  1
  S  S37  1  0.66666700  0.33333300  0.46484300  1
  S  S38  1  0.33333300  0.66666700  0.96484100  1
  S  S39  1  0.66666700  0.33333300  0.55859400  1
  S  S40  1  0.66666700  0.33333300  0.37109400  1
  S  S41  1  0.66666700  0.33333300  0.74609400  1
  S  S42  1  0.00000000  0.00000000  0.29297000  1
  S  S43  1  0.66666700  0.33333300  0.65234300  1
  S  S44  1  0.66666700  0.33333300  0.04297000  1
  S  S45  1  0.33333300  0.66666700  0.88672000  1
  S  S46  1  0.00000000  0.00000000  0.87109400  1
  S  S47  1  0.33333300  0.66666700  0.63672000  1
  S  S48  1  0.66666700  0.33333300  0.85546900  1
  S  S49  1  0.00000000  0.00000000  0.52734300  1
  S  S50  1  0.33333300  0.66666700  0.35546900  1
  S  S51  1  0.00000000  0.00000000  0.77735000  1
  S  S52  1  0.66666700  0.33333300  0.32422000  1
  S  S53  1  0.33333300  0.66666700  0.44922000  1
  S  S54  1  0.00000000  0.00000000  0.10547000  1
  S  S55  1  0.33333300  0.66666700  0.71484200  1
  S  S56  1  0.66666700  0.33333300  0.41797000  1
  S  S57  1  0.66666700  0.33333300  0.08984400  1
  S  S58  1  0.66666700  0.33333300  0.99610100  1
  S  S59  1  0.00000000  0.00000000  0.19922100  1
  S  S60  1  0.00000000  0.00000000  0.57422000  1
  S  S61  1  0.66666700  0.33333300  0.18359400  1
  S  S62  1  0.33333300  0.66666700  0.54297000  1
  S  S63  1  0.66666700  0.33333300  0.13672000  1
loop_
_geom_bond_atom_site_label_1
_geom_bond_atom_site_label_2
_geom_bond_distance
_geom_bond_site_symmetry_2
S0 Zn20 2.360873 1_655
S0 Zn20 2.360876 1_555
S0 Zn20 2.360876 1_665
S0 Zn6 2.361461 1_555
S1 Zn21 2.360873 1_655
S1 Zn21 2.360876 1_555
S1 Zn21 2.360876 1_665
S1 Zn4 2.361461 1_555
S2 Zn6 2.360806 1_455
S2 Zn6 2.360806 1_565
S2 Zn6 2.360813 1_555
S2 Zn23 2.361058 1_555
S3 Zn9 2.360739 1_455
S3 Zn9 2.360739 1_565
S3 Zn9 2.360745 1_555
S3 Zn25 2.360857 1_555
S4 Zn18 2.360655 1_555
S4 Zn61 2.360873 1_545
S4 Zn61 2.360876 1_555
S4 Zn61 2.360876 1_445
S5 Zn26 2.360655 1_555
S5 Zn24 2.360873 1_455
S5 Zn24 2.360873 1_565
S5 Zn24 2.360880 1_555
S6 Zn60 2.360655 1_555
S6 Zn42 2.360806 1_545
S6 Zn42 2.360809 1_445
S6 Zn42 2.360809 1_555
S7 Zn48 2.360873 1_545
S7 Zn48 2.360876 1_555
S7 Zn48 2.360876 1_445
S7 Zn34 2.361461 1_555
S8 Zn45 2.360806 1_455
S8 Zn45 2.360809 1_555
S8 Zn45 2.360809 1_445
S8 Zn54 2.361663 1_555
S9 Zn18 2.360873 1_655
S9 Zn18 2.360876 1_555
S9 Zn18 2.360876 1_665
S9 Zn16 2.361663 1_555
S10 Zn38 2.360655 1_555
S10 Zn16 2.360806 1_455
S10 Zn16 2.360806 1_565
S10 Zn16 2.360813 1_555
S11 Zn3 2.360252 1_555
S11 Zn62 2.361277 1_565
S11 Zn62 2.361280 1_555
S11 Zn62 2.361280 1_665
S12 Zn15 2.360655 1_555
S12 Zn53 2.360941 1_655
S12 Zn53 2.360943 1_665
S12 Zn53 2.360943 1_555
S13 Zn58 2.360655 1_555
S13 Zn30 2.360806 1_655
S13 Zn30 2.360809 1_555
S13 Zn30 2.360809 1_665
S14 Zn11 2.360873 1_545
S14 Zn11 2.360876 1_555
S14 Zn11 2.360876 1_445
S14 Zn59 2.361260 1_555
S15 Zn37 2.360454 1_555
S15 Zn57 2.360873 1_545
S15 Zn57 2.360876 1_555
S15 Zn57 2.360876 1_445
S16 Zn41 2.360873 1_455
S16 Zn41 2.360873 1_565
S16 Zn41 2.360880 1_555
S16 Zn57 2.361461 1_555
S17 Zn49 2.360857 1_555
S17 Zn19 2.360873 1_545
S17 Zn19 2.360876 1_555
S17 Zn19 2.360876 1_445
S18 Zn11 2.359446 1_555
S18 Zn28 2.361209 1_455
S18 Zn28 2.361209 1_565
S18 Zn28 2.361216 1_555
S19 Zn23 2.360806 1_545
S19 Zn23 2.360809 1_445
S19 Zn23 2.360809 1_555
S19 Zn8 2.361663 1_555
S20 Zn40 2.360940 1_455
S20 Zn40 2.360940 1_565
S20 Zn40 2.360947 1_555
S20 Zn61 2.361461 1_555
S21 Zn12 2.360857 1_555
S21 Zn58 2.361007 1_565
S21 Zn58 2.361007 1_455
S21 Zn58 2.361014 1_555
S22 Zn14 2.360873 1_455
S22 Zn14 2.360873 1_565
S22 Zn14 2.360880 1_555
S22 Zn19 2.361260 1_555
S23 Zn33 2.360537 1_545
S23 Zn33 2.360537 1_655
S23 Zn33 2.360544 1_555
S23 Zn28 2.362872 1_555
S24 Zn48 2.360655 1_555
S24 Zn56 2.360940 1_455
S24 Zn56 2.360940 1_565
S24 Zn56 2.360947 1_555
S25 Zn1 2.360655 1_555
S25 Zn47 2.360873 1_545
S25 Zn47 2.360876 1_445
S25 Zn47 2.360876 1_555
S26 Zn0 2.360806 1_545
S26 Zn0 2.360809 1_555
S26 Zn0 2.360809 1_445
S26 Zn53 2.361260 1_555
S27 Zn22 2.360655 1_555
S27 Zn51 2.360806 1_455
S27 Zn51 2.360806 1_565
S27 Zn51 2.360813 1_555
S28 Zn7 2.360655 1_555
S28 Zn27 2.360806 1_565
S28 Zn27 2.360806 1_455
S28 Zn27 2.360813 1_555
S29 Zn4 2.360739 1_455
S29 Zn4 2.360739 1_565
S29 Zn4 2.360745 1_555
S29 Zn63 2.360857 1_555
S30 Zn36 2.360454 1_555
S30 Zn35 2.361210 1_455
S30 Zn35 2.361212 1_445
S30 Zn35 2.361212 1_555
S31 Zn0 2.359648 1_555
S31 Zn50 2.361209 1_455
S31 Zn50 2.361209 1_565
S31 Zn50 2.361216 1_555
S32 Zn10 2.360604 1_545
S32 Zn10 2.360604 1_655
S32 Zn10 2.360611 1_555
S32 Zn50 2.362872 1_555
S33 Zn46 2.360857 1_555
S33 Zn7 2.361008 1_545
S33 Zn7 2.361011 1_555
S33 Zn7 2.361011 1_445
S34 Zn40 2.360655 1_555
S34 Zn17 2.360873 1_655
S34 Zn17 2.360876 1_665
S34 Zn17 2.360876 1_555
S35 Zn25 2.360806 1_545
S35 Zn25 2.360809 1_445
S35 Zn25 2.360809 1_555
S35 Zn30 2.361663 1_555
S36 Zn21 2.360857 1_555
S36 Zn32 2.360873 1_545
S36 Zn32 2.360876 1_555
S36 Zn32 2.360876 1_445
S37 Zn31 2.360655 1_555
S37 Zn8 2.360806 1_655
S37 Zn8 2.360809 1_665
S37 Zn8 2.360809 1_555
S38 Zn10 2.359849 1_555
S38 Zn36 2.360873 1_565
S38 Zn36 2.360876 1_665
S38 Zn36 2.360876 1_555
S39 Zn44 2.360655 1_555
S39 Zn52 2.360806 1_655
S39 Zn52 2.360809 1_555
S39 Zn52 2.360809 1_665
S40 Zn34 2.360806 1_655
S40 Zn34 2.360809 1_665
S40 Zn34 2.360809 1_555
S40 Zn43 2.360857 1_555
S41 Zn3 2.360739 1_545
S41 Zn3 2.360739 1_655
S41 Zn3 2.360745 1_555
S41 Zn45 2.361058 1_555
S42 Zn22 2.360941 1_545
S42 Zn22 2.360943 1_445
S42 Zn22 2.360943 1_555
S42 Zn17 2.361260 1_555
S43 Zn55 2.360655 1_555
S43 Zn59 2.360941 1_655
S43 Zn59 2.360943 1_555
S43 Zn59 2.360943 1_665
S44 Zn37 2.360941 1_655
S44 Zn37 2.360943 1_555
S44 Zn37 2.360943 1_665
S44 Zn27 2.361461 1_555
S45 Zn15 2.360873 1_455
S45 Zn15 2.360873 1_565
S45 Zn15 2.360880 1_555
S45 Zn2 2.361461 1_555
S46 Zn2 2.360806 1_545
S46 Zn2 2.360809 1_445
S46 Zn2 2.360809 1_555
S46 Zn39 2.361058 1_555
S47 Zn55 2.360873 1_455
S47 Zn55 2.360873 1_565
S47 Zn55 2.360880 1_555
S47 Zn32 2.361461 1_555
S48 Zn39 2.360873 1_655
S48 Zn39 2.360876 1_555
S48 Zn39 2.360876 1_665
S48 Zn9 2.361461 1_555
S49 Zn20 2.360655 1_555
S49 Zn13 2.360873 1_545
S49 Zn13 2.360876 1_555
S49 Zn13 2.360876 1_445
S50 Zn43 2.360940 1_455
S50 Zn43 2.360940 1_565
S50 Zn43 2.360947 1_555
S50 Zn42 2.361461 1_555
S51 Zn12 2.360538 1_545
S51 Zn12 2.360540 1_445
S51 Zn12 2.360540 1_555
S51 Zn62 2.362267 1_555
S52 Zn60 2.360873 1_655
S52 Zn60 2.360876 1_665
S52 Zn60 2.360876 1_555
S52 Zn51 2.361461 1_555
S53 Zn31 2.360873 1_565
S53 Zn31 2.360873 1_455
S53 Zn31 2.360880 1_555
S53 Zn47 2.361461 1_555
S54 Zn26 2.360873 1_545
S54 Zn26 2.360876 1_445
S54 Zn26 2.360876 1_555
S54 Zn29 2.361663 1_555
S55 Zn33 2.360252 1_555
S55 Zn54 2.360873 1_565
S55 Zn54 2.360876 1_665
S55 Zn54 2.360876 1_555
S56 Zn1 2.360873 1_655
S56 Zn1 2.360876 1_665
S56 Zn1 2.360876 1_555
S56 Zn56 2.361260 1_555
S57 Zn29 2.360739 1_655
S57 Zn29 2.360742 1_555
S57 Zn29 2.360742 1_665
S57 Zn41 2.360857 1_555
S58 Zn46 2.360471 1_656
S58 Zn46 2.360473 1_666
S58 Zn46 2.360473 1_556
S58 Zn35 2.362670 1_555
S59 Zn38 2.360806 1_545
S59 Zn38 2.360809 1_445
S59 Zn38 2.360809 1_555
S59 Zn5 2.361663 1_555
S60 Zn63 2.360873 1_545
S60 Zn63 2.360876 1_555
S60 Zn63 2.360876 1_445
S60 Zn52 2.361461 1_555
S61 Zn5 2.360806 1_655
S61 Zn5 2.360809 1_665
S61 Zn5 2.360809 1_555
S61 Zn14 2.360857 1_555
S62 Zn44 2.360940 1_455
S62 Zn44 2.360940 1_565
S62 Zn44 2.360947 1_555
S62 Zn13 2.361461 1_555
S63 Zn49 2.360873 1_655
S63 Zn49 2.360876 1_555
S63 Zn49 2.360876 1_665
S63 Zn24 2.361461 1_555
