# generated using pymatgen
data_USe2
_symmetry_space_group_name_H-M   'P 1'
_cell_length_a   10.77499296
_cell_length_b   10.77599190
_cell_length_c   6.63626824
_cell_angle_alpha   89.99245267
_cell_angle_beta   89.99348302
_cell_angle_gamma   90.00564030
_symmetry_Int_Tables_number   1
_chemical_formula_structural   USe2
_chemical_formula_sum   'U10 Se20'
_cell_volume   770.54529871
_cell_formula_units_Z   10
loop_
 _symmetry_equiv_pos_site_id
 _symmetry_equiv_pos_as_xyz
  1  'x, y, z'
loop_
 _atom_site_type_symbol
 _atom_site_label
 _atom_site_symmetry_multiplicity
 _atom_site_fract_x
 _atom_site_fract_y
 _atom_site_fract_z
 _atom_site_occupancy
  U  U0  1  0.84102765  0.15346736  0.24760266  1
  U  U1  1  0.65093506  0.66098977  0.24653609  1
  U  U2  1  0.34883511  0.33870580  0.24586078  1
  U  U3  1  0.15880567  0.84657805  0.25057767  1
  U  U4  1  0.50014541  0.00042549  0.85065183  1
  U  U5  1  0.33894934  0.65113608  0.75475417  1
  U  U6  1  0.15321222  0.15865843  0.75017549  1
  U  U7  1  0.84630525  0.84097291  0.75097507  1
  U  U8  1  0.66108619  0.34880714  0.75172266  1
  U  U9  1  0.00037838  0.50032281  0.14975566  1
  Se  Se0  1  0.71062388  0.09263138  0.62029161  1
  Se  Se1  1  0.59115940  0.79037869  0.62077602  1
  Se  Se2  1  0.40857977  0.20897607  0.61954078  1
  Se  Se3  1  0.28932770  0.90751788  0.62057324  1
  Se  Se4  1  0.70661200  0.91283740  0.10691527  1
  Se  Se5  1  0.58974940  0.20856703  0.10621034  1
  Se  Se6  1  0.41040729  0.79180702  0.10695230  1
  Se  Se7  1  0.29339109  0.08699711  0.10671215  1
  Se  Se8  1  0.50029555  0.49988041  -0.00032185  1
  Se  Se9  1  0.00015966  -0.00012877  -0.00000160  1
  Se  Se10  1  0.20839666  0.41029451  0.89327055  1
  Se  Se11  1  0.08711713  0.70678262  0.89383192  1
  Se  Se12  1  0.91298271  0.29366036  0.89283886  1
  Se  Se13  1  0.79186400  0.58939956  0.89392170  1
  Se  Se14  1  0.49974105  0.50004563  0.49989915  1
  Se  Se15  1  -0.00033366  0.00009528  0.50001362  1
  Se  Se16  1  0.20932041  0.59135800  0.38015839  1
  Se  Se17  1  0.09255515  0.28945466  0.37944700  1
  Se  Se18  1  0.90731255  0.71061432  0.37999462  1
  Se  Se19  1  0.79105598  0.40876499  0.38036284  1
loop_
_geom_bond_atom_site_label_1
_geom_bond_atom_site_label_2
_geom_bond_distance
_geom_bond_site_symmetry_2
Se0 U4 2.909646 1_555
Se0 U0 2.918854 1_555
Se0 U8 2.943995 1_555
Se0 U7 3.200649 1_545
Se1 U4 2.900551 1_565
Se1 U1 2.920218 1_555
Se1 U7 2.932958 1_555
Se1 U5 3.228838 1_555
Se2 U4 2.894150 1_555
Se2 U2 2.918554 1_555
Se2 U6 2.935272 1_555
Se2 U8 3.231496 1_555
Se3 U3 2.905012 1_555
Se3 U4 2.914512 1_565
Se3 U5 2.951514 1_555
Se3 U6 3.196229 1_565
Se4 U7 2.905995 1_554
Se4 U1 2.929608 1_555
Se4 U4 2.955171 1_564
Se4 U0 3.113411 1_565
Se5 U8 2.899517 1_554
Se5 U0 2.926500 1_555
Se5 U4 2.973232 1_554
Se5 U2 3.092650 1_555
Se6 U5 2.890448 1_554
Se6 U3 2.933641 1_555
Se6 U4 2.979925 1_564
Se6 U1 3.092414 1_555
Se7 U6 2.911456 1_554
Se7 U2 2.926987 1_555
Se7 U4 2.953103 1_554
Se7 U3 3.118455 1_545
Se8 U5 2.884690 1_554
Se8 U1 2.886732 1_555
Se8 U2 2.889132 1_555
Se8 U8 2.891395 1_554
Se9 U0 2.894853 1_455
Se9 U6 2.897270 1_554
Se9 U7 2.900347 1_444
Se9 U3 2.901131 1_545
Se10 U2 2.891466 1_556
Se10 U6 2.934068 1_555
Se10 U9 2.976943 1_556
Se10 U5 3.091566 1_555
Se11 U3 2.910672 1_556
Se11 U5 2.928199 1_555
Se11 U9 2.950592 1_556
Se11 U7 3.118242 1_455
Se12 U0 2.902510 1_556
Se12 U8 2.932182 1_555
Se12 U9 2.958740 1_656
Se12 U6 3.116642 1_655
Se13 U1 2.894255 1_556
Se13 U7 2.931237 1_555
Se13 U9 2.975326 1_656
Se13 U8 3.098077 1_555
Se14 U8 2.910624 1_555
Se14 U1 2.913251 1_555
Se14 U2 2.917124 1_555
Se14 U5 2.917806 1_555
Se15 U6 2.900634 1_555
Se15 U3 2.901331 1_545
Se15 U7 2.905619 1_445
Se15 U0 2.908552 1_455
Se16 U9 2.893017 1_555
Se16 U5 2.923472 1_555
Se16 U3 2.932472 1_555
Se16 U2 3.235381 1_555
Se17 U6 2.909677 1_555
Se17 U9 2.910878 1_555
Se17 U2 2.948224 1_555
Se17 U0 3.202851 1_455
Se18 U7 2.909849 1_555
Se18 U9 2.911418 1_655
Se18 U1 2.949911 1_555
Se18 U3 3.197786 1_655
Se19 U9 2.898429 1_655
Se19 U8 2.907015 1_555
Se19 U0 2.938611 1_555
Se19 U1 3.233588 1_555
