# generated using pymatgen
data_Ta6Pb4O19
_symmetry_space_group_name_H-M   'P 1'
_cell_length_a   7.53468329
_cell_length_b   7.53468329
_cell_length_c   18.44780072
_cell_angle_alpha   89.59518810
_cell_angle_beta   89.59518810
_cell_angle_gamma   59.80492555
_symmetry_Int_Tables_number   1
_chemical_formula_structural   Ta6Pb4O19
_chemical_formula_sum   'Ta12 Pb8 O38'
_cell_volume   905.17751377
_cell_formula_units_Z   2
loop_
 _symmetry_equiv_pos_site_id
 _symmetry_equiv_pos_as_xyz
  1  'x, y, z'
loop_
 _atom_site_type_symbol
 _atom_site_label
 _atom_site_symmetry_multiplicity
 _atom_site_fract_x
 _atom_site_fract_y
 _atom_site_fract_z
 _atom_site_occupancy
  Ta  Ta0  1  0.16711600  0.16711600  0.67155400  1
  Ta  Ta1  1  0.66669800  0.16619600  0.66869000  1
  Ta  Ta2  1  0.16619600  0.66669800  0.66869000  1
  Ta  Ta3  1  0.00000000  0.50000000  0.00000000  1
  Ta  Ta4  1  0.33514600  0.33514600  0.83562100  1
  Ta  Ta5  1  0.66485400  0.66485400  0.16437900  1
  Ta  Ta6  1  0.50000000  0.00000000  0.00000000  1
  Ta  Ta7  1  0.33330200  0.83380400  0.33131000  1
  Ta  Ta8  1  0.00000000  0.00000000  0.50000000  1
  Ta  Ta9  1  0.83380400  0.33330200  0.33131000  1
  Ta  Ta10  1  0.50000000  0.50000000  0.00000000  1
  Ta  Ta11  1  0.83288400  0.83288400  0.32844600  1
  Pb  Pb0  1  0.82640700  0.82640700  0.82892000  1
  Pb  Pb1  1  0.00000000  0.00000000  0.00000000  1
  Pb  Pb2  1  0.17359300  0.17359300  0.17108000  1
  Pb  Pb3  1  0.34241700  0.34241700  0.32388200  1
  Pb  Pb4  1  0.50000000  0.50000000  0.50000000  1
  Pb  Pb5  1  0.65758300  0.65758300  0.67611800  1
  Pb  Pb6  1  0.00000000  0.50000000  0.50000000  1
  Pb  Pb7  1  0.50000000  0.00000000  0.50000000  1
  O  O0  1  0.45494000  0.45494000  0.89740800  1
  O  O1  1  0.87269800  0.25263200  0.68390300  1
  O  O2  1  0.07937700  0.46464100  0.89565100  1
  O  O3  1  0.25263200  0.87269800  0.68390300  1
  O  O4  1  0.79645200  0.79645200  0.97649500  1
  O  O5  1  0.20241000  0.59145300  0.01875200  1
  O  O6  1  0.19387000  0.58900300  0.77226500  1
  O  O7  1  0.78724800  0.78724800  0.23141700  1
  O  O8  1  0.46464100  0.07937700  0.89565100  1
  O  O9  1  0.87307600  0.87307600  0.69153800  1
  O  O10  1  0.59145300  0.20241000  0.01875200  1
  O  O11  1  0.40854700  0.79759000  0.98124800  1
  O  O12  1  0.58900300  0.19387000  0.77226500  1
  O  O13  1  0.41099700  0.80613000  0.22773500  1
  O  O14  1  0.12692400  0.12692400  0.30846200  1
  O  O15  1  0.53911300  0.91705600  0.35521200  1
  O  O16  1  0.53535900  0.92062300  0.10434900  1
  O  O17  1  0.12728100  0.12728100  0.55996800  1
  O  O18  1  0.80613000  0.41099700  0.22773500  1
  O  O19  1  0.79759000  0.40854700  0.98124800  1
  O  O20  1  0.21275200  0.21275200  0.76858300  1
  O  O21  1  0.20354800  0.20354800  0.02350500  1
  O  O22  1  0.91705600  0.53911300  0.35521200  1
  O  O23  1  0.33490300  0.33490300  0.44001800  1
  O  O24  1  0.74736800  0.12730200  0.31609700  1
  O  O25  1  0.92062300  0.53535900  0.10434900  1
  O  O26  1  0.74585000  0.12714300  0.56245000  1
  O  O27  1  0.46091000  0.46091000  0.64921700  1
  O  O28  1  0.87285700  0.25415000  0.43755000  1
  O  O29  1  0.12714300  0.74585000  0.56245000  1
  O  O30  1  0.12730200  0.74736800  0.31609700  1
  O  O31  1  0.54506000  0.54506000  0.10259200  1
  O  O32  1  0.53909000  0.53909000  0.35078300  1
  O  O33  1  0.25415000  0.87285700  0.43755000  1
  O  O34  1  0.66509700  0.66509700  0.55998200  1
  O  O35  1  0.08294400  0.46088700  0.64478800  1
  O  O36  1  0.46088700  0.08294400  0.64478800  1
  O  O37  1  0.87271900  0.87271900  0.44003200  1
loop_
_geom_bond_atom_site_label_1
_geom_bond_atom_site_label_2
_geom_bond_distance
_geom_bond_site_symmetry_2
O0 Ta4 1.943505 1_555
O0 Ta10 1.986597 1_556
O1 Ta1 1.984344 1_555
O1 Ta0 1.986273 1_655
O2 Ta3 1.991241 1_556
O2 Ta4 1.996487 1_555
O2 Pb0 2.708886 1_455
O3 Ta2 1.984344 1_555
O3 Ta0 1.986273 1_565
O4 Ta3 2.019720 1_656
O4 Ta6 2.019720 1_566
O4 Pb1 2.697610 1_666
O4 Pb0 2.747254 1_555
O5 Ta3 1.997076 1_555
O5 Ta10 2.015043 1_555
O5 Pb1 2.681685 1_565
O6 Ta2 1.975883 1_555
O6 Ta4 2.023767 1_555
O6 Pb0 2.638484 1_455
O7 Ta11 1.891241 1_555
O7 Ta5 2.029295 1_555
O8 Ta6 1.991241 1_556
O8 Ta4 1.996487 1_555
O8 Pb0 2.708886 1_545
O9 Ta1 2.003746 1_565
O9 Ta2 2.003746 1_655
O9 Pb0 2.601855 1_555
O10 Ta6 1.997076 1_555
O10 Ta10 2.015043 1_555
O10 Pb1 2.681685 1_655
O11 Ta6 1.997076 1_566
O11 Ta10 2.015043 1_556
O11 Pb1 2.681685 1_566
O12 Ta1 1.975883 1_555
O12 Ta4 2.023767 1_555
O12 Pb0 2.638484 1_545
O13 Ta7 1.975883 1_555
O13 Ta5 2.023767 1_555
O13 Pb2 2.638484 1_565
O14 Ta9 2.003746 1_455
O14 Ta7 2.003746 1_545
O14 Pb2 2.601855 1_555
O15 Ta7 1.996164 1_555
O15 Ta11 2.030369 1_555
O15 Pb7 2.727448 1_565
O16 Ta6 1.991241 1_565
O16 Ta5 1.996487 1_555
O16 Pb2 2.708886 1_565
O17 Ta8 2.004600 1_555
O17 Ta0 2.127379 1_555
O17 Pb7 2.700411 1_555
O17 Pb6 2.700411 1_555
O18 Ta9 1.975883 1_555
O18 Ta5 2.023767 1_555
O18 Pb2 2.638484 1_655
O19 Ta3 1.997076 1_656
O19 Ta10 2.015043 1_556
O19 Pb1 2.681685 1_656
O20 Ta0 1.891241 1_555
O20 Ta4 2.029295 1_555
O21 Ta6 2.019720 1_555
O21 Ta3 2.019720 1_555
O21 Pb1 2.697610 1_555
O21 Pb2 2.747254 1_555
O22 Ta9 1.996164 1_555
O22 Ta11 2.030369 1_555
O22 Pb6 2.727448 1_655
O23 Pb3 2.143902 1_555
O23 Pb4 2.432016 1_555
O23 Pb6 2.441691 1_555
O23 Pb7 2.441691 1_555
O24 Ta9 1.984344 1_555
O24 Ta11 1.986273 1_545
O25 Ta3 1.991241 1_655
O25 Ta5 1.996487 1_555
O25 Pb2 2.708886 1_655
O26 Ta8 2.012738 1_655
O26 Ta1 2.024489 1_555
O26 Pb4 2.720450 1_555
O26 Pb7 2.739918 1_555
O27 Ta2 1.999353 1_555
O27 Ta1 1.999353 1_555
O27 Pb4 2.795593 1_555
O28 Ta8 2.012738 1_655
O28 Ta9 2.024489 1_555
O28 Pb4 2.720450 1_555
O28 Pb6 2.739918 1_655
O29 Ta8 2.012738 1_565
O29 Ta2 2.024489 1_555
O29 Pb4 2.720450 1_555
O29 Pb6 2.739918 1_555
O30 Ta7 1.984344 1_555
O30 Ta11 1.986273 1_455
O31 Ta5 1.943505 1_555
O31 Ta10 1.986597 1_555
O32 Ta9 1.999353 1_555
O32 Ta7 1.999353 1_555
O32 Pb4 2.795593 1_555
O33 Ta8 2.012738 1_565
O33 Ta7 2.024489 1_555
O33 Pb4 2.720450 1_555
O33 Pb7 2.739918 1_565
O34 Pb5 2.143902 1_555
O34 Pb4 2.432016 1_555
O34 Pb7 2.441691 1_565
O34 Pb6 2.441691 1_655
O35 Ta2 1.996164 1_555
O35 Ta0 2.030369 1_555
O35 Pb6 2.727448 1_555
O36 Ta1 1.996164 1_555
O36 Ta0 2.030369 1_555
O36 Pb7 2.727448 1_555
O37 Ta8 2.004600 1_665
O37 Ta11 2.127379 1_555
O37 Pb6 2.700411 1_655
O37 Pb7 2.700411 1_565
