# generated using pymatgen
data_Cu4H7SO11
_symmetry_space_group_name_H-M   'P 1'
_cell_length_a   6.52594900
_cell_length_b   8.26490800
_cell_length_c   11.04560405
_cell_angle_alpha   61.29235097
_cell_angle_beta   90.00000000
_cell_angle_gamma   90.00000000
_symmetry_Int_Tables_number   1
_chemical_formula_structural   Cu4H7SO11
_chemical_formula_sum   'Cu8 H14 S2 O22'
_cell_volume   522.53019443
_cell_formula_units_Z   2
loop_
 _symmetry_equiv_pos_site_id
 _symmetry_equiv_pos_as_xyz
  1  'x, y, z'
loop_
 _atom_site_type_symbol
 _atom_site_label
 _atom_site_symmetry_multiplicity
 _atom_site_fract_x
 _atom_site_fract_y
 _atom_site_fract_z
 _atom_site_occupancy
  Cu  Cu0  1  0.52818100  0.93517100  0.12424600  1
  Cu  Cu1  1  0.47181900  0.93517100  0.62424600  1
  Cu  Cu2  1  0.00833200  0.97131900  0.58319200  1
  Cu  Cu3  1  0.99166800  0.97131900  0.08319200  1
  Cu  Cu4  1  0.17807800  0.04658100  0.29928600  1
  Cu  Cu5  1  0.82192200  0.04658100  0.79928600  1
  Cu  Cu6  1  0.30442200  0.10235300  0.76233600  1
  Cu  Cu7  1  0.69557800  0.10235300  0.26233600  1
  H  H0  1  0.26717900  0.66402500  0.66502700  1
  H  H1  1  0.73282100  0.66402500  0.16502700  1
  H  H2  1  0.04271800  0.24564700  0.84926200  1
  H  H3  1  0.95728200  0.24564700  0.34926200  1
  H  H4  1  0.01058500  0.63393600  0.83729100  1
  H  H5  1  0.98941500  0.63393600  0.33729100  1
  H  H6  1  0.32924100  0.70027700  0.51925800  1
  H  H7  1  0.67075900  0.70027700  0.01925800  1
  H  H8  1  0.15157200  0.83212900  0.82507100  1
  H  H9  1  0.84842800  0.83212900  0.32507100  1
  H  H10  1  0.43820600  0.45014100  0.53459700  1
  H  H11  1  0.56179400  0.45014100  0.03459700  1
  H  H12  1  0.23866100  0.50825200  0.44127900  1
  H  H13  1  0.76133900  0.50825200  0.94127900  1
  S  S0  1  0.25653900  0.59619900  0.14644700  1
  S  S1  1  0.74346100  0.59619900  0.64644700  1
  O  O0  1  0.65095900  0.55457600  0.97814100  1
  O  O1  1  0.34904100  0.55457600  0.47814100  1
  O  O2  1  0.93691100  0.11547300  0.37217400  1
  O  O3  1  0.06308900  0.11547300  0.87217400  1
  O  O4  1  0.01597200  0.82955700  0.78660100  1
  O  O5  1  0.98402800  0.82955700  0.28660100  1
  O  O6  1  0.29933500  0.76965300  0.57491400  1
  O  O7  1  0.70066500  0.76965300  0.07491400  1
  O  O8  1  0.43388600  0.02037400  0.24700200  1
  O  O9  1  0.56611400  0.02037400  0.74700200  1
  O  O10  1  0.01325400  0.49428100  0.36031400  1
  O  O11  1  0.98674600  0.49428100  0.86031400  1
  O  O12  1  0.26066600  0.79543700  0.11900300  1
  O  O13  1  0.73933400  0.79543700  0.61900300  1
  O  O14  1  0.24689900  0.10533100  0.58444200  1
  O  O15  1  0.75310100  0.10533100  0.08444200  1
  O  O16  1  0.77212800  0.58382200  0.52148200  1
  O  O17  1  0.22787200  0.58382200  0.02148200  1
  O  O18  1  0.97191000  0.51796400  0.71977100  1
  O  O19  1  0.02809000  0.51796400  0.21977100  1
  O  O20  1  0.58813800  0.48380300  0.74246400  1
  O  O21  1  0.41186200  0.48380300  0.24246400  1
loop_
_geom_bond_atom_site_label_1
_geom_bond_atom_site_label_2
_geom_bond_distance
_geom_bond_site_symmetry_2
Cu0 O8 1.905348 1_565
Cu0 O15 1.931740 1_565
Cu0 O7 2.037512 1_555
Cu0 O12 2.109302 1_555
Cu1 O9 1.905348 1_565
Cu1 O14 1.931740 1_565
Cu1 O6 2.037512 1_555
Cu1 O13 2.109302 1_555
Cu2 O14 1.914554 1_565
Cu2 O4 1.973403 1_555
Cu2 O2 2.098011 1_465
Cu2 O13 2.190624 1_455
Cu2 O6 2.557205 1_555
Cu3 O15 1.914554 1_565
Cu3 O5 1.973403 1_555
Cu3 O3 2.098011 1_664
Cu3 O12 2.190624 1_655
Cu3 O7 2.557205 1_555
Cu4 O8 1.813136 1_555
Cu4 O2 1.972243 1_455
Cu4 O5 2.254338 1_445
Cu5 O9 1.813136 1_555
Cu5 O3 1.972243 1_655
Cu5 O4 2.254338 1_645
Cu6 O9 1.874713 1_555
Cu6 O14 1.988989 1_555
Cu6 O3 2.022488 1_555
Cu6 H8 2.230779 1_545
Cu7 O8 1.874713 1_555
Cu7 O15 1.988989 1_555
Cu7 O2 2.022488 1_555
Cu7 H9 2.230779 1_545
H0 O6 0.980877 1_555
H1 O7 0.980877 1_555
H2 O3 0.988765 1_555
H3 O2 0.988765 1_555
H4 O11 1.067309 1_455
H4 O4 1.434951 1_555
H5 O10 1.067309 1_655
H5 O5 1.434951 1_555
H6 O6 1.040873 1_555
H6 O1 1.482724 1_555
H7 O7 1.040873 1_555
H7 O0 1.482724 1_554
H8 O4 0.986292 1_555
H9 O5 0.986292 1_555
H10 O1 0.977441 1_555
H11 O0 0.977441 1_554
H12 O1 0.990458 1_555
H13 O0 0.990458 1_555
O10 O19 1.471620 1_555
O11 O18 1.471620 1_555
O12 S0 1.524678 1_555
O13 S1 1.524678 1_555
O16 S1 1.444429 1_555
O17 S0 1.444429 1_555
O18 S1 1.671398 1_555
O19 S0 1.671398 1_555
O20 S1 1.438302 1_555
O21 S0 1.438302 1_555
