# generated using pymatgen
data_Rb2V(PO4)2
_symmetry_space_group_name_H-M   'P 1'
_cell_length_a   7.38377500
_cell_length_b   9.25889300
_cell_length_c   14.19278700
_cell_angle_alpha   90.00000000
_cell_angle_beta   90.00000000
_cell_angle_gamma   90.00000000
_symmetry_Int_Tables_number   1
_chemical_formula_structural   Rb2V(PO4)2
_chemical_formula_sum   'Rb8 V4 P8 O32'
_cell_volume   970.29815284
_cell_formula_units_Z   4
loop_
 _symmetry_equiv_pos_site_id
 _symmetry_equiv_pos_as_xyz
  1  'x, y, z'
loop_
 _atom_site_type_symbol
 _atom_site_label
 _atom_site_symmetry_multiplicity
 _atom_site_fract_x
 _atom_site_fract_y
 _atom_site_fract_z
 _atom_site_occupancy
  Rb  Rb0  1  0.75000000  0.07904100  0.59490200  1
  Rb  Rb1  1  0.75000000  0.63316300  0.45427700  1
  Rb  Rb2  1  0.75000000  0.42095900  0.09490200  1
  Rb  Rb3  1  0.25000000  0.36683700  0.54572300  1
  Rb  Rb4  1  0.25000000  0.57904100  0.90509800  1
  Rb  Rb5  1  0.25000000  0.13316300  0.04572300  1
  Rb  Rb6  1  0.75000000  0.86683700  0.95427700  1
  Rb  Rb7  1  0.25000000  0.92095900  0.40509800  1
  V  V0  1  0.75000000  0.49945600  0.70429900  1
  V  V1  1  0.25000000  0.99945600  0.79570100  1
  V  V2  1  0.25000000  0.50054400  0.29570100  1
  V  V3  1  0.75000000  0.00054400  0.20429900  1
  P  P0  1  0.44991700  0.72799300  0.15113400  1
  P  P1  1  0.55008300  0.27200700  0.84886600  1
  P  P2  1  0.05008300  0.72799300  0.15113400  1
  P  P3  1  0.55008300  0.22799300  0.34886600  1
  P  P4  1  0.94991700  0.27200700  0.84886600  1
  P  P5  1  0.44991700  0.77200700  0.65113400  1
  P  P6  1  0.94991700  0.22799300  0.34886600  1
  P  P7  1  0.05008300  0.77200700  0.65113400  1
  O  O0  1  0.99889100  0.81529900  0.55241600  1
  O  O1  1  0.75000000  0.41468200  0.60115800  1
  O  O2  1  0.56270900  0.09660700  0.28153100  1
  O  O3  1  0.56754600  0.65516300  0.69640600  1
  O  O4  1  0.93245400  0.84483700  0.19640600  1
  O  O5  1  0.06754600  0.15516300  0.80359400  1
  O  O6  1  0.50110900  0.68470100  0.05241600  1
  O  O7  1  0.06270900  0.59660700  0.21846900  1
  O  O8  1  0.56270900  0.40339300  0.78153100  1
  O  O9  1  0.75000000  0.30561700  0.34852100  1
  O  O10  1  0.99889100  0.68470100  0.05241600  1
  O  O11  1  0.75000000  0.19438300  0.84852100  1
  O  O12  1  0.43729100  0.90339300  0.71846900  1
  O  O13  1  0.50110900  0.81529900  0.55241600  1
  O  O14  1  0.93729100  0.40339300  0.78153100  1
  O  O15  1  0.25000000  0.80561700  0.15147900  1
  O  O16  1  0.25000000  0.58531800  0.39884200  1
  O  O17  1  0.06754600  0.34483700  0.30359400  1
  O  O18  1  0.93729100  0.09660700  0.28153100  1
  O  O19  1  0.43245400  0.15516300  0.80359400  1
  O  O20  1  0.06270900  0.90339300  0.71846900  1
  O  O21  1  0.49889100  0.18470100  0.44758400  1
  O  O22  1  0.25000000  0.91468200  0.89884200  1
  O  O23  1  0.93245400  0.65516300  0.69640600  1
  O  O24  1  0.43729100  0.59660700  0.21846900  1
  O  O25  1  0.25000000  0.69438300  0.65147900  1
  O  O26  1  0.00110900  0.31529900  0.94758400  1
  O  O27  1  0.00110900  0.18470100  0.44758400  1
  O  O28  1  0.56754600  0.84483700  0.19640600  1
  O  O29  1  0.49889100  0.31529900  0.94758400  1
  O  O30  1  0.43245400  0.34483700  0.30359400  1
  O  O31  1  0.75000000  0.08531800  0.10115800  1
loop_
_geom_bond_atom_site_label_1
_geom_bond_atom_site_label_2
_geom_bond_distance
_geom_bond_site_symmetry_2
O0 P7 1.505517 1_655
O0 Rb1 2.856797 1_555
O0 Rb7 2.960833 1_655
O0 Rb0 3.115142 1_565
O1 V0 1.661015 1_555
O1 Rb1 2.904800 1_555
O1 Rb0 3.108932 1_555
O2 P3 1.549788 1_555
O2 V3 1.976125 1_555
O2 Rb7 3.324440 1_545
O3 P5 1.528926 1_555
O3 V0 1.976340 1_555
O4 P2 1.528926 1_655
O4 V3 1.976340 1_565
O5 P4 1.528926 1_455
O5 V1 1.976340 1_545
O6 P0 1.505517 1_555
O6 Rb6 2.856797 1_554
O6 Rb4 2.960833 1_554
O6 Rb2 3.115142 1_555
O7 P2 1.549788 1_555
O7 V2 1.976125 1_555
O7 Rb2 3.324440 1_455
O8 P1 1.549788 1_555
O8 V0 1.976125 1_555
O8 Rb4 3.324440 1_555
O9 P3 1.641818 1_555
O9 P6 1.641818 1_555
O9 Rb1 3.383825 1_555
O10 P2 1.505517 1_655
O10 Rb6 2.856797 1_554
O10 Rb4 2.960833 1_654
O10 Rb2 3.115142 1_555
O11 P4 1.641818 1_555
O11 P1 1.641818 1_555
O11 Rb6 3.383825 1_545
O12 P5 1.549788 1_555
O12 V1 1.976125 1_555
O12 Rb0 3.324440 1_565
O13 P5 1.505517 1_555
O13 Rb1 2.856797 1_555
O13 Rb7 2.960833 1_555
O13 Rb0 3.115142 1_565
O14 P4 1.549788 1_555
O14 V0 1.976125 1_555
O14 Rb4 3.324440 1_655
O15 P0 1.641818 1_555
O15 P2 1.641818 1_555
O15 Rb5 3.383825 1_565
O16 V2 1.661015 1_555
O16 Rb3 2.904800 1_555
O16 Rb7 3.108932 1_555
O17 P6 1.528926 1_455
O17 V2 1.976340 1_555
O18 P6 1.549788 1_555
O18 V3 1.976125 1_555
O18 Rb7 3.324440 1_645
O19 P1 1.528926 1_555
O19 V1 1.976340 1_545
O20 P7 1.549788 1_555
O20 V1 1.976125 1_555
O20 Rb0 3.324440 1_465
O21 P3 1.505517 1_555
O21 Rb3 2.856797 1_555
O21 Rb0 2.960833 1_555
O21 Rb7 3.115142 1_545
O22 V1 1.661015 1_555
O22 Rb5 2.904800 1_566
O22 Rb4 3.108932 1_555
O23 P7 1.528926 1_655
O23 V0 1.976340 1_555
O24 P0 1.549788 1_555
O24 V2 1.976125 1_555
O24 Rb2 3.324440 1_555
O25 P5 1.641818 1_555
O25 P7 1.641818 1_555
O25 Rb3 3.383825 1_555
O26 P4 1.505517 1_455
O26 Rb5 2.856797 1_556
O26 Rb2 2.960833 1_456
O26 Rb4 3.115142 1_555
O27 P6 1.505517 1_455
O27 Rb3 2.856797 1_555
O27 Rb0 2.960833 1_455
O27 Rb7 3.115142 1_545
O28 P0 1.528926 1_555
O28 V3 1.976340 1_565
O29 P1 1.505517 1_555
O29 Rb5 2.856797 1_556
O29 Rb2 2.960833 1_556
O29 Rb4 3.115142 1_555
O30 P3 1.528926 1_555
O30 V2 1.976340 1_555
O31 V3 1.661015 1_555
O31 Rb6 2.904800 1_544
O31 Rb2 3.108932 1_555
