# generated using pymatgen
data_Sr16Cu8BC7O40
_symmetry_space_group_name_H-M   'P 1'
_cell_length_a   9.45559400
_cell_length_b   9.45936530
_cell_length_c   11.06984737
_cell_angle_alpha   89.39091736
_cell_angle_beta   89.58125514
_cell_angle_gamma   71.57628120
_symmetry_Int_Tables_number   1
_chemical_formula_structural   Sr16Cu8BC7O40
_chemical_formula_sum   'Sr16 Cu8 B1 C7 O40'
_cell_volume   939.32042153
_cell_formula_units_Z   1
loop_
 _symmetry_equiv_pos_site_id
 _symmetry_equiv_pos_as_xyz
  1  'x, y, z'
loop_
 _atom_site_type_symbol
 _atom_site_label
 _atom_site_symmetry_multiplicity
 _atom_site_fract_x
 _atom_site_fract_y
 _atom_site_fract_z
 _atom_site_occupancy
  Sr  Sr0  1  0.62928700  0.12924700  0.75191800  1
  Sr  Sr1  1  0.64149600  0.14640900  0.24957300  1
  Sr  Sr2  1  0.37794600  0.37960500  0.49705400  1
  Sr  Sr3  1  0.11762800  0.11827000  0.48981400  1
  Sr  Sr4  1  0.38844500  0.38352100  0.00686000  1
  Sr  Sr5  1  0.13587500  0.61757300  0.25506300  1
  Sr  Sr6  1  0.88248800  0.36451800  0.24702600  1
  Sr  Sr7  1  0.12628000  0.11399100  0.00428700  1
  Sr  Sr8  1  0.14601000  0.64463900  0.75058400  1
  Sr  Sr9  1  0.88560100  0.88387600  0.00539600  1
  Sr  Sr10  1  0.61414000  0.61326300  0.99818300  1
  Sr  Sr11  1  0.85620400  0.35416200  0.74887100  1
  Sr  Sr12  1  0.88914700  0.88704800  0.50107500  1
  Sr  Sr13  1  0.37242200  0.86818700  0.74420800  1
  Sr  Sr14  1  0.61790700  0.61224900  0.49679700  1
  Sr  Sr15  1  0.35455100  0.85866600  0.24811200  1
  Cu  Cu0  1  0.75038000  0.24942300  0.49874200  1
  Cu  Cu1  1  0.00372600  0.99819400  0.24868200  1
  Cu  Cu2  1  0.49936000  0.49416200  0.25003900  1
  Cu  Cu3  1  0.75365900  0.24833000  0.99948000  1
  Cu  Cu4  1  0.25046100  0.74896500  0.99934300  1
  Cu  Cu5  1  0.50060800  0.49742200  0.74884700  1
  Cu  Cu6  1  0.00113500  0.00070300  0.75048400  1
  Cu  Cu7  1  0.25173100  0.74840400  0.50000600  1
  B  B0  1  0.25378600  0.25310100  0.26016800  1
  C  C0  1  0.24851400  0.25433500  0.73761700  1
  C  C1  1  0.48805500  0.00945000  0.00306300  1
  C  C2  1  0.00769100  0.49032700  0.99490200  1
  C  C3  1  0.74819000  0.75565000  0.23732400  1
  C  C4  1  0.75394300  0.74898500  0.75966000  1
  C  C5  1  0.98284100  0.51382400  0.50648200  1
  C  C6  1  0.51050400  0.98621100  0.49888300  1
  O  O0  1  0.86102600  0.11230600  0.87404200  1
  O  O1  1  0.87093700  0.12056500  0.62453500  1
  O  O2  1  0.61387500  0.36175600  0.62343200  1
  O  O3  1  0.31546500  0.15876500  0.65492500  1
  O  O4  1  0.52412600  0.10395500  0.44648600  1
  O  O5  1  0.60509300  0.02067000  0.05630000  1
  O  O6  1  0.36556500  0.61230400  0.37648800  1
  O  O7  1  0.37220500  0.30228000  0.22516800  1
  O  O8  1  0.93179800  0.40515100  0.53336500  1
  O  O9  1  0.15515400  0.33299700  0.34826400  1
  O  O10  1  0.23172700  0.12720400  0.21144400  1
  O  O11  1  0.88170500  0.12829000  0.37419900  1
  O  O12  1  0.41836100  0.10974500  0.92383900  1
  O  O13  1  0.37287600  0.62018200  0.12436000  1
  O  O14  1  0.62095800  0.36860100  0.87503500  1
  O  O15  1  0.64038500  0.38518500  0.37321400  1
  O  O16  1  0.88896400  0.13297700  0.12327000  1
  O  O17  1  0.10255500  0.41926200  0.07659400  1
  O  O18  1  0.11624400  0.85906100  0.12495800  1
  O  O19  1  0.81561500  0.65959100  0.15525300  1
  O  O20  1  0.13103800  0.24206300  0.79125700  1
  O  O21  1  0.30161400  0.36079800  0.76422600  1
  O  O22  1  0.90009300  0.44027300  0.96508700  1
  O  O23  1  0.63672200  0.38036200  0.12331100  1
  O  O24  1  0.02165400  0.60920500  0.94452100  1
  O  O25  1  0.09954300  0.52657500  0.55968300  1
  O  O26  1  0.86403100  0.79523300  0.72761100  1
  O  O27  1  0.43786100  0.89952600  0.02709900  1
  O  O28  1  0.65992800  0.82236900  0.84120400  1
  O  O29  1  0.73601900  0.63122500  0.71236200  1
  O  O30  1  0.38071600  0.62905100  0.87416300  1
  O  O31  1  0.91285400  0.61296100  0.42678100  1
  O  O32  1  0.12137200  0.86732700  0.37542100  1
  O  O33  1  0.13832400  0.88728500  0.87415100  1
  O  O34  1  0.38666400  0.63508400  0.62526500  1
  O  O35  1  0.60564000  0.91745100  0.58121800  1
  O  O36  1  0.62974800  0.74442800  0.29008300  1
  O  O37  1  0.80109500  0.86236100  0.26394800  1
  O  O38  1  0.40310200  0.93462900  0.47112200  1
  O  O39  1  0.13148400  0.88091600  0.62453700  1
loop_
_geom_bond_atom_site_label_1
_geom_bond_atom_site_label_2
_geom_bond_distance
_geom_bond_site_symmetry_2
Cu0 O15 1.949568 1_555
Cu0 O1 1.957840 1_555
Cu0 O2 1.959224 1_555
Cu0 O11 1.965921 1_555
Cu1 O16 1.959670 1_465
Cu1 O32 1.963090 1_555
Cu1 O18 1.967703 1_555
Cu1 O11 1.972733 1_465
Cu2 O15 1.956488 1_555
Cu2 O13 1.968470 1_555
Cu2 O6 1.980530 1_555
Cu2 O23 1.983813 1_555
Cu2 O7 2.492144 1_555
Cu3 O23 1.950094 1_556
Cu3 O0 1.950928 1_555
Cu3 O16 1.953646 1_556
Cu3 O14 1.963707 1_555
Cu4 O18 1.948945 1_556
Cu4 O13 1.958408 1_556
Cu4 O30 1.961947 1_555
Cu4 O33 1.965414 1_555
Cu5 O34 1.955734 1_555
Cu5 O14 1.960029 1_555
Cu5 O2 1.966922 1_555
Cu5 O30 1.970135 1_555
Cu5 O21 2.601416 1_555
Cu6 O33 1.955226 1_545
Cu6 O1 1.963221 1_455
Cu6 O0 1.964839 1_455
Cu6 O39 1.967893 1_545
Cu7 O32 1.949938 1_555
Cu7 O6 1.955916 1_555
Cu7 O34 1.956869 1_555
Cu7 O39 1.969096 1_555
B0 O10 1.387440 1_555
B0 O7 1.392617 1_555
B0 O9 1.396015 1_555
C0 O20 1.292419 1_555
C0 O21 1.296585 1_555
C0 O3 1.305125 1_555
C1 O5 1.291657 1_555
C1 O27 1.296716 1_545
C1 O12 1.303480 1_554
C2 O24 1.293224 1_555
C2 O22 1.296511 1_455
C2 O17 1.300799 1_556
C3 O36 1.292631 1_555
C3 O37 1.297572 1_555
C3 O19 1.304005 1_555
C4 O29 1.294891 1_555
C4 O26 1.296137 1_555
C4 O28 1.303265 1_555
C5 O25 1.293911 1_655
C5 O8 1.297399 1_555
C5 O31 1.301710 1_555
C6 O4 1.292048 1_565
C6 O38 1.298006 1_555
C6 O35 1.300976 1_555
O0 Sr9 2.541288 1_546
O0 Sr0 2.543919 1_555
O0 Sr11 2.650221 1_555
O0 Sr7 2.906608 1_656
O1 Sr12 2.568491 1_545
O1 Sr11 2.581433 1_555
O1 Sr0 2.655726 1_555
O1 Sr3 2.753810 1_655
O2 Sr0 2.572055 1_555
O2 Sr2 2.600936 1_555
O2 Sr11 2.669090 1_555
O2 Sr14 2.750788 1_555
O3 Sr3 2.739453 1_555
O3 Sr13 2.799370 1_545
O3 Sr2 2.907664 1_555
O3 Sr0 3.090724 1_555
O4 Sr1 2.524319 1_555
O4 Sr2 2.600852 1_555
O5 Sr1 2.536592 1_555
O5 Sr9 2.617491 1_545
O6 Sr2 2.533208 1_555
O6 Sr5 2.549318 1_555
O6 Sr15 2.690654 1_555
O6 Sr14 2.740903 1_555
O7 Sr1 2.521734 1_555
O7 Sr4 2.546364 1_555
O7 Sr2 3.109785 1_555
O8 Sr11 2.569681 1_555
O8 Sr3 2.772293 1_655
O8 Sr14 3.022630 1_555
O9 Sr3 2.662078 1_555
O9 Sr6 2.746139 1_455
O9 Sr5 2.824460 1_555
O9 Sr2 2.828139 1_555
O10 Sr15 2.467065 1_545
O10 Sr7 2.527210 1_555
O11 Sr3 2.555174 1_655
O11 Sr1 2.624166 1_555
O11 Sr6 2.630329 1_555
O11 Sr12 2.648939 1_545
O12 Sr4 2.686109 1_556
O12 Sr0 2.793446 1_555
O12 Sr7 2.883907 1_556
O12 Sr13 3.178133 1_545
O13 Sr4 2.564356 1_555
O13 Sr15 2.609784 1_555
O13 Sr10 2.649626 1_554
O13 Sr5 2.665115 1_555
O14 Sr11 2.585288 1_555
O14 Sr4 2.596997 1_556
O14 Sr0 2.634636 1_555
O14 Sr10 2.681462 1_555
O15 Sr14 2.509936 1_555
O15 Sr6 2.627974 1_555
O15 Sr1 2.650570 1_555
O15 Sr2 2.841052 1_555
O16 Sr7 2.551379 1_655
O16 Sr6 2.579815 1_555
O16 Sr1 2.685965 1_555
O16 Sr9 2.714646 1_545
O17 Sr4 2.723082 1_555
O17 Sr5 2.825386 1_555
O17 Sr7 2.943926 1_555
O17 Sr6 2.959828 1_455
O18 Sr9 2.505000 1_455
O18 Sr15 2.641132 1_555
O18 Sr5 2.644396 1_555
O18 Sr7 2.771807 1_565
O19 Sr10 2.727062 1_554
O19 Sr6 2.838351 1_555
O19 Sr9 2.913345 1_555
O20 Sr11 2.522570 1_455
O20 Sr7 2.646322 1_556
O21 Sr8 2.625683 1_555
O21 Sr4 2.844387 1_556
O21 Sr2 3.055894 1_555
O21 Sr0 3.182206 1_555
O22 Sr11 2.614211 1_555
O22 Sr10 2.706360 1_555
O22 Sr7 3.178232 1_656
O23 Sr10 2.541645 1_554
O23 Sr1 2.593299 1_555
O23 Sr6 2.668400 1_555
O23 Sr4 2.678244 1_555
O24 Sr8 2.510159 1_555
O24 Sr9 2.602233 1_456
O25 Sr8 2.505999 1_555
O25 Sr2 2.650253 1_555
O26 Sr8 2.608530 1_655
O26 Sr12 2.678569 1_555
O26 Sr9 3.220657 1_556
O26 Sr0 3.249388 1_565
O27 Sr15 2.626759 1_555
O27 Sr10 2.714958 1_554
O27 Sr7 3.013547 1_565
O27 Sr13 3.231319 1_554
O28 Sr10 2.752621 1_555
O28 Sr13 2.831824 1_555
O28 Sr0 2.983132 1_565
O28 Sr9 3.009891 1_556
O29 Sr11 2.534798 1_555
O29 Sr14 2.673682 1_555
O30 Sr10 2.571042 1_555
O30 Sr8 2.579077 1_555
O30 Sr13 2.648203 1_555
O30 Sr4 2.716456 1_556
O31 Sr12 2.669072 1_555
O31 Sr5 2.839033 1_655
O31 Sr14 2.891176 1_555
O32 Sr12 2.548176 1_455
O32 Sr15 2.587860 1_555
O32 Sr5 2.689775 1_555
O32 Sr3 2.692523 1_565
O33 Sr7 2.568274 1_566
O33 Sr13 2.589929 1_555
O33 Sr8 2.665427 1_555
O33 Sr9 2.796287 1_456
O34 Sr13 2.546621 1_555
O34 Sr14 2.551977 1_555
O34 Sr8 2.633858 1_555
O34 Sr2 2.839363 1_555
O35 Sr12 2.745802 1_555
O35 Sr0 2.829191 1_565
O35 Sr13 2.984805 1_555
O35 Sr14 3.010943 1_555
O36 Sr15 2.526740 1_555
O36 Sr14 2.614585 1_555
O37 Sr1 2.636977 1_565
O37 Sr12 2.793925 1_555
O37 Sr9 2.988090 1_555
O38 Sr15 2.661632 1_555
O38 Sr3 2.717053 1_565
O38 Sr14 3.095263 1_555
O38 Sr13 3.111246 1_555
O39 Sr8 2.589132 1_555
O39 Sr13 2.612856 1_555
O39 Sr3 2.651050 1_565
O39 Sr12 2.661207 1_455
