# generated using pymatgen
data_K2BaNi(NO2)6
_symmetry_space_group_name_H-M   'P 1'
_cell_length_a   7.95236604
_cell_length_b   7.95236604
_cell_length_c   8.09427215
_cell_angle_alpha   59.68463725
_cell_angle_beta   59.68463725
_cell_angle_gamma   86.94749660
_symmetry_Int_Tables_number   1
_chemical_formula_structural   K2BaNi(NO2)6
_chemical_formula_sum   'K2 Ba1 Ni1 N6 O12'
_cell_volume   367.25069651
_cell_formula_units_Z   1
loop_
 _symmetry_equiv_pos_site_id
 _symmetry_equiv_pos_as_xyz
  1  'x, y, z'
loop_
 _atom_site_type_symbol
 _atom_site_label
 _atom_site_symmetry_multiplicity
 _atom_site_fract_x
 _atom_site_fract_y
 _atom_site_fract_z
 _atom_site_occupancy
  K  K0  1  0.75515600  0.24105700  0.50339200  1
  K  K1  1  0.24105700  0.75515600  0.50339200  1
  Ba  Ba0  1  0.51408700  0.51408700  0.99135800  1
  Ni  Ni0  1  0.90855300  0.90855300  0.10092700  1
  N  N0  1  0.77579900  0.77579900  0.42664300  1
  N  N1  1  0.78505700  0.78505700  0.01175000  1
  N  N2  1  0.83026700  0.13615800  0.02211600  1
  N  N3  1  0.13615800  0.83026700  0.02211600  1
  N  N4  1  0.23385000  0.23385000  0.02618600  1
  N  N5  1  0.22636800  0.22636800  0.52660600  1
  O  O0  1  0.83016900  0.63173500  0.00327200  1
  O  O1  1  0.82723900  0.62883700  0.54049200  1
  O  O2  1  0.62883700  0.82723900  0.54049200  1
  O  O3  1  0.63173500  0.83016900  0.00327200  1
  O  O4  1  0.20018000  0.69346800  0.10914900  1
  O  O5  1  0.69346800  0.20018000  0.10914900  1
  O  O6  1  0.20463700  0.40650000  0.92460900  1
  O  O7  1  0.40650000  0.20463700  0.92460900  1
  O  O8  1  0.39473100  0.19310200  0.49700000  1
  O  O9  1  0.19310200  0.39473100  0.49700000  1
  O  O10  1  0.09761800  0.09761800  0.23060900  1
  O  O11  1  0.09675100  0.09675100  0.57208000  1
loop_
_geom_bond_atom_site_label_1
_geom_bond_atom_site_label_2
_geom_bond_distance
_geom_bond_site_symmetry_2
K0 O8 2.940991 1_555
K0 O7 2.990193 1_555
K0 O11 3.090943 1_655
K0 O10 3.120008 1_655
K0 O2 3.313420 1_545
K0 O3 3.316205 1_546
K0 O1 3.350419 1_555
K0 O0 3.385036 1_555
K1 O9 2.940991 1_555
K1 O6 2.990193 1_555
K1 O11 3.090943 1_565
K1 O10 3.120008 1_565
K1 O1 3.313420 1_455
K1 O0 3.316205 1_456
K1 O2 3.350419 1_555
K1 O3 3.385036 1_555
Ba0 O4 2.786850 1_556
Ba0 O5 2.786850 1_556
Ba0 O3 2.790885 1_556
Ba0 O0 2.790885 1_556
Ba0 O1 2.838675 1_555
Ba0 O2 2.838675 1_555
Ba0 O6 3.018749 1_555
Ba0 O7 3.018749 1_555
Ba0 N4 3.045128 1_556
Ba0 N5 3.127869 1_556
Ba0 O8 3.155520 1_556
Ba0 O9 3.155520 1_556
N0 O1 1.274677 1_555
N0 O2 1.274677 1_555
N0 Ni0 1.918053 1_555
N1 O3 1.277914 1_555
N1 O0 1.277914 1_555
N1 Ni0 1.995999 1_555
N2 O5 1.211767 1_555
N2 Ni0 1.784910 1_545
N3 O4 1.211767 1_555
N3 Ni0 1.784910 1_455
N4 O10 1.261320 1_555
N4 O7 1.278394 1_554
N4 O6 1.278394 1_554
N5 O11 1.267892 1_555
N5 O8 1.273732 1_555
N5 O9 1.273732 1_555
