# generated using pymatgen
data_Bi12PbO20
_symmetry_space_group_name_H-M   'P 1'
_cell_length_a   8.88492998
_cell_length_b   8.88493332
_cell_length_c   8.88493428
_cell_angle_alpha   109.47145152
_cell_angle_beta   109.47124878
_cell_angle_gamma   109.47120102
_symmetry_Int_Tables_number   1
_chemical_formula_structural   Bi12PbO20
_chemical_formula_sum   'Bi12 Pb1 O20'
_cell_volume   539.93219976
_cell_formula_units_Z   1
loop_
 _symmetry_equiv_pos_site_id
 _symmetry_equiv_pos_as_xyz
  1  'x, y, z'
loop_
 _atom_site_type_symbol
 _atom_site_label
 _atom_site_symmetry_multiplicity
 _atom_site_fract_x
 _atom_site_fract_y
 _atom_site_fract_z
 _atom_site_occupancy
  Bi  Bi0  1  0.83804826  0.33522492  0.14503914  1
  Bi  Bi1  1  0.80981108  0.66477347  0.50282068  1
  Bi  Bi2  1  0.19019012  0.69301006  0.85496533  1
  Bi  Bi3  1  0.50282111  0.80981286  0.66477414  1
  Bi  Bi4  1  0.85496304  0.19018799  0.69300978  1
  Bi  Bi5  1  0.66477405  0.50281980  0.80981050  1
  Bi  Bi6  1  0.33522438  0.14503715  0.83804680  1
  Bi  Bi7  1  0.69301001  0.85496549  0.19018950  1
  Bi  Bi8  1  0.30699099  0.49717602  0.16195235  1
  Bi  Bi9  1  0.14503932  0.83804824  0.33522526  1
  Bi  Bi10  1  0.16195071  0.30699040  0.49717518  1
  Bi  Bi11  1  0.49717641  0.16195125  0.30699123  1
  Pb  Pb0  1  0.00000496  0.00000575  0.00000583  1
  O  O0  1  0.37704748  0.26332267  0.62038678  1
  O  O1  1  0.35706227  0.73667879  0.11372091  1
  O  O2  1  0.00000031  -0.00000075  0.76613691  1
  O  O3  1  0.76613828  0.00000016  -0.00000012  1
  O  O4  1  0.75665890  0.37961598  0.64293837  1
  O  O5  1  0.62038588  0.37704682  0.26332235  1
  O  O6  1  0.37961600  0.64293756  0.75666034  1
  O  O7  1  0.62295383  0.24333977  0.88627545  1
  O  O8  1  0.37238614  -0.00000074  -0.00000136  1
  O  O9  1  0.11372278  0.35706326  0.73667917  1
  O  O10  1  0.88627525  0.62295435  0.24333962  1
  O  O11  1  0.26332263  0.62038552  0.37704636  1
  O  O12  1  -0.00000074  0.37238706  -0.00000025  1
  O  O13  1  -0.00000074  0.76613646  -0.00000075  1
  O  O14  1  0.24334041  0.88627695  0.62295554  1
  O  O15  1  0.23385720  0.23385766  0.23385784  1
  O  O16  1  -0.00000055  -0.00000067  0.37238690  1
  O  O17  1  0.62761426  0.62761390  0.62761452  1
  O  O18  1  0.64293769  0.75665950  0.37961598  1
  O  O19  1  0.73667825  0.11371935  0.35706069  1
loop_
_geom_bond_atom_site_label_1
_geom_bond_atom_site_label_2
_geom_bond_distance
_geom_bond_site_symmetry_2
Bi0 O7 2.093795 1_554
Bi0 O10 2.239100 1_555
Bi0 O12 2.245730 1_655
Bi0 O5 2.560519 1_555
Bi0 O3 2.561960 1_555
Bi1 O18 2.093759 1_555
Bi1 O5 2.239067 1_555
Bi1 O17 2.245728 1_555
Bi1 O10 2.560509 1_555
Bi1 O2 2.561964 1_665
Bi2 O1 2.093726 1_556
Bi2 O6 2.239097 1_555
Bi2 O8 2.245713 1_566
Bi2 O9 2.560510 1_555
Bi2 O13 2.561969 1_556
Bi3 O6 2.093775 1_555
Bi3 O11 2.239076 1_555
Bi3 O17 2.245737 1_555
Bi3 O14 2.560506 1_555
Bi3 O3 2.561969 1_566
Bi4 O9 2.093761 1_655
Bi4 O4 2.239109 1_555
Bi4 O12 2.245718 1_656
Bi4 O19 2.560528 1_555
Bi4 O2 2.561975 1_655
Bi5 O4 2.093736 1_555
Bi5 O0 2.239065 1_555
Bi5 O17 2.245726 1_555
Bi5 O7 2.560508 1_555
Bi5 O13 2.561965 1_656
Bi6 O14 2.093762 1_545
Bi6 O7 2.239097 1_555
Bi6 O8 2.245727 1_556
Bi6 O0 2.560519 1_555
Bi6 O2 2.561957 1_555
Bi7 O19 2.093709 1_565
Bi7 O18 2.239111 1_555
Bi7 O16 2.245717 1_665
Bi7 O1 2.560517 1_555
Bi7 O3 2.561974 1_565
Bi8 O11 2.093788 1_555
Bi8 O1 2.239132 1_555
Bi8 O12 2.245736 1_555
Bi8 O18 2.560517 1_555
Bi8 O15 2.561973 1_555
Bi9 O10 2.093795 1_455
Bi9 O14 2.239104 1_555
Bi9 O16 2.245732 1_565
Bi9 O11 2.560522 1_555
Bi9 O13 2.561968 1_555
Bi10 O0 2.093813 1_555
Bi10 O9 2.239121 1_555
Bi10 O16 2.245730 1_555
Bi10 O6 2.560522 1_555
Bi10 O15 2.561965 1_555
Bi11 O5 2.093808 1_555
Bi11 O19 2.239125 1_555
Bi11 O8 2.245738 1_555
Bi11 O4 2.560516 1_555
Bi11 O15 2.561982 1_555
O2 Pb0 2.077877 1_556
O3 Pb0 2.077855 1_655
O13 Pb0 2.077877 1_565
O15 Pb0 2.077752 1_555
