# generated using pymatgen
data_Bi2PbSe4
_symmetry_space_group_name_H-M   'P 1'
_cell_length_a   13.85383122
_cell_length_b   13.85383122
_cell_length_c   13.85383147
_cell_angle_alpha   17.50064373
_cell_angle_beta   17.50064373
_cell_angle_gamma   17.50063530
_symmetry_Int_Tables_number   1
_chemical_formula_structural   Bi2PbSe4
_chemical_formula_sum   'Bi2 Pb1 Se4'
_cell_volume   209.85418482
_cell_formula_units_Z   1
loop_
 _symmetry_equiv_pos_site_id
 _symmetry_equiv_pos_as_xyz
  1  'x, y, z'
loop_
 _atom_site_type_symbol
 _atom_site_label
 _atom_site_symmetry_multiplicity
 _atom_site_fract_x
 _atom_site_fract_y
 _atom_site_fract_z
 _atom_site_occupancy
  Bi  Bi0  1  0.42567812  0.42567812  0.42567812  1
  Bi  Bi1  1  0.57432188  0.57432188  0.57432188  1
  Pb  Pb0  1  -0.00000000  -0.00000000  -0.00000000  1
  Se  Se0  1  0.12925466  0.12925466  0.12925466  1
  Se  Se1  1  0.28801214  0.28801214  0.28801214  1
  Se  Se2  1  0.71198786  0.71198786  0.71198786  1
  Se  Se3  1  0.87074534  0.87074534  0.87074534  1
loop_
_geom_bond_atom_site_label_1
_geom_bond_atom_site_label_2
_geom_bond_distance
_geom_bond_site_symmetry_2
Bi0 Se0 2.864103 1_565
Bi0 Se0 2.864103 1_655
Bi0 Se0 2.864104 1_556
Bi0 Se2 3.102283 1_545
Bi0 Se2 3.102283 1_455
Bi0 Se2 3.102284 1_554
Bi1 Se3 2.864103 1_455
Bi1 Se3 2.864103 1_545
Bi1 Se3 2.864104 1_554
Bi1 Se1 3.102283 1_565
Bi1 Se1 3.102283 1_655
Bi1 Se1 3.102284 1_556
Pb0 Se1 3.059573 1_545
Pb0 Se1 3.059573 1_455
Pb0 Se2 3.059573 1_454
Pb0 Se2 3.059573 1_544
Pb0 Se1 3.059574 1_554
Pb0 Se2 3.059574 1_445
