# generated using pymatgen
data_Th2(Mo3S4)5
_symmetry_space_group_name_H-M   'P 1'
_cell_length_a   6.51781043
_cell_length_b   65.10212285
_cell_length_c   9.28944881
_cell_angle_alpha   44.59204880
_cell_angle_beta   88.67927672
_cell_angle_gamma   89.00162171
_symmetry_Int_Tables_number   1
_chemical_formula_structural   Th2(Mo3S4)5
_chemical_formula_sum   'Th8 Mo60 S80'
_cell_volume   2766.56987615
_cell_formula_units_Z   4
loop_
 _symmetry_equiv_pos_site_id
 _symmetry_equiv_pos_as_xyz
  1  'x, y, z'
loop_
 _atom_site_type_symbol
 _atom_site_label
 _atom_site_symmetry_multiplicity
 _atom_site_fract_x
 _atom_site_fract_y
 _atom_site_fract_z
 _atom_site_occupancy
  Th  Th0  1  0.00000000  0.10000000  0.00000000  1
  Th  Th1  1  0.99859927  0.39927304  0.00422652  1
  Th  Th2  1  0.99993995  0.49991401  0.00046833  1
  Th  Th3  1  0.00006005  0.70008599  0.99953167  1
  Th  Th4  1  0.00140073  0.80072696  0.99577348  1
  Th  Th5  1  0.00043450  0.90093301  0.99505364  1
  Th  Th6  1  0.99956550  0.29906699  0.00494636  1
  Th  Th7  1  0.00000000  0.60000000  0.00000000  1
  Mo  Mo0  1  0.21257671  0.08465680  0.56493610  1
  Mo  Mo1  1  0.22517509  0.18581772  0.56051535  1
  Mo  Mo2  1  0.22371745  0.28554051  0.56156180  1
  Mo  Mo3  1  0.22432471  0.38595444  0.56164175  1
  Mo  Mo4  1  0.22446655  0.48596995  0.56159599  1
  Mo  Mo5  1  0.22444178  0.58593371  0.56188052  1
  Mo  Mo6  1  0.22454318  0.68589127  0.56216590  1
  Mo  Mo7  1  0.22454535  0.78584456  0.56243421  1
  Mo  Mo8  1  0.22247061  0.88551343  0.56414361  1
  Mo  Mo9  1  0.41367297  0.03409012  0.21938691  1
  Mo  Mo10  1  0.22524128  0.98596394  0.56018566  1
  Mo  Mo11  1  0.41980048  0.13374651  0.22330279  1
  Mo  Mo12  1  0.44491249  0.01974865  0.58044742  1
  Mo  Mo13  1  0.41497687  0.23401912  0.21903802  1
  Mo  Mo14  1  0.43438003  0.11913096  0.58498557  1
  Mo  Mo15  1  0.42145129  0.33373875  0.22456720  1
  Mo  Mo16  1  0.44440093  0.21938753  0.58177019  1
  Mo  Mo17  1  0.42108734  0.43380972  0.22441522  1
  Mo  Mo18  1  0.43801156  0.31964681  0.57900188  1
  Mo  Mo19  1  0.42128168  0.53379829  0.22442172  1
  Mo  Mo20  1  0.43797604  0.41974810  0.57842922  1
  Mo  Mo21  1  0.42130316  0.63375286  0.22465830  1
  Mo  Mo22  1  0.43804729  0.51977356  0.57818628  1
  Mo  Mo23  1  0.42112809  0.73371175  0.22490695  1
  Mo  Mo24  1  0.43799879  0.61973100  0.57836029  1
  Mo  Mo25  1  0.56561997  0.08086904  0.41501443  1
  Mo  Mo26  1  0.42049141  0.83369935  0.22524991  1
  Mo  Mo27  1  0.43789743  0.71968156  0.57852134  1
  Mo  Mo28  1  0.55508751  0.18025135  0.41955258  1
  Mo  Mo29  1  0.41693178  0.93393629  0.22448524  1
  Mo  Mo30  1  0.58019952  0.06625349  0.77669721  1
  Mo  Mo31  1  0.43812362  0.81963312  0.57921213  1
  Mo  Mo32  1  0.56760996  0.28048256  0.41893141  1
  Mo  Mo33  1  0.58632703  0.16590988  0.78061309  1
  Mo  Mo34  1  0.43239004  0.91951744  0.58106859  1
  Mo  Mo35  1  0.56187638  0.38036688  0.42078787  1
  Mo  Mo36  1  0.58306822  0.26606371  0.77551476  1
  Mo  Mo37  1  0.56210257  0.48031844  0.42147866  1
  Mo  Mo38  1  0.57950859  0.36630065  0.77475009  1
  Mo  Mo39  1  0.56200121  0.58026900  0.42163971  1
  Mo  Mo40  1  0.57887191  0.46628825  0.77509305  1
  Mo  Mo41  1  0.56195271  0.68022644  0.42181372  1
  Mo  Mo42  1  0.57869684  0.56624714  0.77534170  1
  Mo  Mo43  1  0.56202396  0.78025190  0.42157078  1
  Mo  Mo44  1  0.57871832  0.66620171  0.77557828  1
  Mo  Mo45  1  0.56198844  0.88035319  0.42099812  1
  Mo  Mo46  1  0.57891266  0.76619028  0.77558478  1
  Mo  Mo47  1  0.55559907  0.98061247  0.41822981  1
  Mo  Mo48  1  0.57854871  0.86626125  0.77543280  1
  Mo  Mo49  1  0.77482491  0.01418228  0.43948465  1
  Mo  Mo50  1  0.58502313  0.96598088  0.78096198  1
  Mo  Mo51  1  0.78742329  0.11534320  0.43506390  1
  Mo  Mo52  1  0.77475872  0.21403606  0.43981434  1
  Mo  Mo53  1  0.77752939  0.31448657  0.43585639  1
  Mo  Mo54  1  0.77545465  0.41415544  0.43756579  1
  Mo  Mo55  1  0.77545682  0.51410873  0.43783410  1
  Mo  Mo56  1  0.77555822  0.61406629  0.43811948  1
  Mo  Mo57  1  0.77553345  0.71403005  0.43840401  1
  Mo  Mo58  1  0.77567529  0.81404556  0.43835825  1
  Mo  Mo59  1  0.77628255  0.91445949  0.43843820  1
  S  S0  1  0.12634653  0.03823093  0.37615100  1
  S  S1  1  0.13111576  0.13539881  0.38005834  1
  S  S2  1  0.12670135  0.23795676  0.37656509  1
  S  S3  1  0.12796475  0.33852477  0.36882660  1
  S  S4  1  0.12752548  0.43850887  0.36842156  1
  S  S5  1  0.12754315  0.53855252  0.36801497  1
  S  S6  1  0.12754758  0.63853986  0.36790227  1
  S  S7  1  0.24041498  0.09950844  0.24242923  1
  S  S8  1  0.12751021  0.73855202  0.36770068  1
  S  S9  1  0.23487358  0.20076530  0.23410096  1
  S  S10  1  0.23781752  0.07485622  0.87512666  1
  S  S11  1  0.12755187  0.83844472  0.36890988  1
  S  S12  1  0.24218280  0.29979175  0.24193583  1
  S  S13  1  0.26541773  0.17474129  0.87408283  1
  S  S14  1  0.12551500  0.93655865  0.37546837  1
  S  S15  1  0.24085225  0.40011704  0.24101555  1
  S  S16  1  0.24426515  0.27580838  0.87058441  1
  S  S17  1  0.24131968  0.50003337  0.24123244  1
  S  S18  1  0.24746819  0.37592723  0.87198987  1
  S  S19  1  0.24133178  0.59996030  0.24163030  1
  S  S20  1  0.24715473  0.47602519  0.87156603  1
  S  S21  1  0.24125720  0.69988450  0.24201027  1
  S  S22  1  0.24706230  0.57600536  0.87172943  1
  S  S23  1  0.38348478  0.03882332  0.73918096  1
  S  S24  1  0.24132947  0.79982115  0.24237595  1
  S  S25  1  0.24704740  0.67595429  0.87200612  1
  S  S26  1  0.37190256  0.13719490  0.75527888  1
  S  S27  1  0.24183906  0.89959173  0.24294341  1
  S  S28  1  0.24691240  0.77588618  0.87218734  1
  S  S29  1  0.37950657  0.23864223  0.74036778  1
  S  S30  1  0.23578116  0.00073610  0.23419222  1
  S  S31  1  0.24478008  0.87528560  0.87552671  1
  S  S32  1  0.36855768  0.33748188  0.75266328  1
  S  S33  1  0.26443964  0.97501243  0.87257223  1
  S  S34  1  0.36775948  0.43746588  0.75309306  1
  S  S35  1  0.36808666  0.53743019  0.75323517  1
  S  S36  1  0.36845621  0.63738254  0.75340994  1
  S  S37  1  0.36888484  0.73736701  0.75342241  1
  S  S38  1  0.37152743  0.83709422  0.75420562  1
  S  S39  1  0.37142836  0.93729110  0.75655800  1
  S  S40  1  0.62809744  0.06280510  0.24472112  1
  S  S41  1  0.61651522  0.16117668  0.26081904  1
  S  S42  1  0.62857164  0.26270890  0.24344200  1
  S  S43  1  0.62847257  0.36290578  0.24579438  1
  S  S44  1  0.63111516  0.46263299  0.24657759  1
  S  S45  1  0.63154379  0.56261746  0.24659006  1
  S  S46  1  0.73458227  0.02525871  0.12591717  1
  S  S47  1  0.63191334  0.66256981  0.24676483  1
  S  S48  1  0.76218248  0.12514378  0.12487334  1
  S  S49  1  0.76512642  0.99923470  0.76589904  1
  S  S50  1  0.63224052  0.76253412  0.24690694  1
  S  S51  1  0.73556036  0.22498757  0.12742777  1
  S  S52  1  0.75958502  0.10049156  0.75757077  1
  S  S53  1  0.63144232  0.86251812  0.24733672  1
  S  S54  1  0.75521992  0.32471440  0.12447329  1
  S  S55  1  0.76421884  0.19926390  0.76580778  1
  S  S56  1  0.62049343  0.96135777  0.25963222  1
  S  S57  1  0.75308760  0.42411382  0.12781266  1
  S  S58  1  0.75816094  0.30040827  0.75705659  1
  S  S59  1  0.75295260  0.52404571  0.12799388  1
  S  S60  1  0.75867053  0.40017885  0.75762405  1
  S  S61  1  0.75293770  0.62399464  0.12827057  1
  S  S62  1  0.75874280  0.50011550  0.75798973  1
  S  S63  1  0.75284527  0.72397481  0.12843397  1
  S  S64  1  0.75866822  0.60003970  0.75836970  1
  S  S65  1  0.86888424  0.06460119  0.61994166  1
  S  S66  1  0.75253181  0.82407277  0.12801013  1
  S  S67  1  0.75868032  0.69996663  0.75876756  1
  S  S68  1  0.87365347  0.16176907  0.62384900  1
  S  S69  1  0.75573485  0.92419162  0.12941559  1
  S  S70  1  0.75914775  0.79988296  0.75898445  1
  S  S71  1  0.87448500  0.26344135  0.62453163  1
  S  S72  1  0.75781720  0.90020825  0.75806417  1
  S  S73  1  0.87244813  0.36155528  0.63109012  1
  S  S74  1  0.87248979  0.46144798  0.63229932  1
  S  S75  1  0.87245242  0.56146014  0.63209773  1
  S  S76  1  0.87245685  0.66144748  0.63198503  1
  S  S77  1  0.87247452  0.76149113  0.63157844  1
  S  S78  1  0.87203525  0.86147523  0.63117340  1
  S  S79  1  0.87329865  0.96204324  0.62343491  1
loop_
_geom_bond_atom_site_label_1
_geom_bond_atom_site_label_2
_geom_bond_distance
_geom_bond_site_symmetry_2
Mo0 S7 2.408056 1_555
Mo0 S23 2.419245 1_555
Mo0 S1 2.458586 1_555
Mo0 S65 2.466366 1_455
Mo0 S10 2.477277 1_555
Mo1 S9 2.436398 1_555
Mo1 S26 2.454694 1_555
Mo1 S13 2.471969 1_555
Mo1 S2 2.562664 1_555
Mo1 S68 2.607231 1_455
Mo2 S12 2.398982 1_555
Mo2 S29 2.420483 1_555
Mo2 S16 2.466647 1_555
Mo2 S71 2.539172 1_455
Mo2 S3 2.583399 1_555
Mo3 S15 2.410451 1_555
Mo3 S32 2.447238 1_555
Mo3 S18 2.469126 1_555
Mo3 S4 2.560525 1_555
Mo3 S73 2.607403 1_455
Mo4 S17 2.411365 1_555
Mo4 S34 2.445686 1_555
Mo4 S20 2.468488 1_555
Mo4 S5 2.561425 1_555
Mo4 S74 2.609168 1_455
Mo5 S19 2.411553 1_555
Mo5 S35 2.446766 1_555
Mo5 S22 2.467957 1_555
Mo5 S6 2.561758 1_555
Mo5 S75 2.608754 1_455
Mo6 S21 2.411764 1_555
Mo6 S36 2.447874 1_555
Mo6 S25 2.467495 1_555
Mo6 S8 2.563833 1_555
Mo6 S76 2.609204 1_455
Mo7 S24 2.411445 1_555
Mo7 S37 2.447806 1_555
Mo7 S28 2.465835 1_555
Mo7 S11 2.562616 1_555
Mo7 S77 2.607773 1_455
Mo8 S27 2.418807 1_555
Mo8 S38 2.458300 1_555
Mo8 S31 2.470704 1_555
Mo8 S14 2.489382 1_555
Mo8 S78 2.593239 1_455
Mo9 S30 2.394447 1_555
Mo9 S46 2.458607 1_555
Mo9 S0 2.473115 1_555
Mo9 S40 2.497217 1_555
Mo9 S10 2.561112 1_554
Mo10 S30 2.438246 1_565
Mo10 S39 2.453270 1_555
Mo10 S33 2.464901 1_555
Mo10 S0 2.570161 1_565
Mo10 S79 2.606053 1_455
Mo11 S1 2.400444 1_555
Mo11 S7 2.425718 1_555
Mo11 S41 2.437432 1_555
Mo11 S13 2.526874 1_554
Mo11 S48 2.592564 1_555
Mo12 S49 2.428823 1_545
Mo12 S33 2.438398 1_545
Mo12 S0 2.490578 1_555
Mo12 S23 2.537725 1_555
Mo12 S40 2.550171 1_555
Mo13 S9 2.394553 1_555
Mo13 S51 2.454346 1_555
Mo13 S2 2.475516 1_555
Mo13 S42 2.487227 1_555
Mo13 S16 2.575942 1_554
Mo14 S52 2.414920 1_555
Mo14 S1 2.425210 1_555
Mo14 S10 2.473613 1_555
Mo14 S41 2.485687 1_555
Mo14 S26 2.579637 1_555
Mo15 S12 2.418454 1_555
Mo15 S3 2.451085 1_555
Mo15 S43 2.469812 1_555
Mo15 S54 2.565639 1_555
Mo15 S18 2.609100 1_554
Mo16 S55 2.421457 1_555
Mo16 S13 2.431818 1_555
Mo16 S2 2.489103 1_555
Mo16 S29 2.550269 1_555
Mo16 S42 2.567582 1_555
Mo17 S15 2.411384 1_555
Mo17 S4 2.447170 1_555
Mo17 S44 2.467820 1_555
Mo17 S57 2.560453 1_555
Mo17 S20 2.610521 1_554
Mo18 S58 2.403378 1_555
Mo18 S16 2.456523 1_555
Mo18 S3 2.466561 1_555
Mo18 S43 2.565651 1_555
Mo18 S32 2.602181 1_555
Mo19 S17 2.413434 1_555
Mo19 S5 2.447480 1_555
Mo19 S45 2.468505 1_555
Mo19 S59 2.559622 1_555
Mo19 S22 2.610519 1_554
Mo20 S60 2.410444 1_555
Mo20 S18 2.450343 1_555
Mo20 S4 2.468650 1_555
Mo20 S44 2.562840 1_555
Mo20 S34 2.604887 1_555
Mo21 S19 2.414145 1_555
Mo21 S6 2.446633 1_555
Mo21 S47 2.469314 1_555
Mo21 S61 2.559413 1_555
Mo21 S25 2.610377 1_554
Mo22 S62 2.412467 1_555
Mo22 S20 2.449351 1_555
Mo22 S5 2.469537 1_555
Mo22 S45 2.562335 1_555
Mo22 S35 2.604458 1_555
Mo23 S21 2.415064 1_555
Mo23 S8 2.445105 1_555
Mo23 S50 2.470847 1_555
Mo23 S63 2.559594 1_555
Mo23 S28 2.610319 1_554
Mo24 S64 2.413008 1_555
Mo24 S22 2.448907 1_555
Mo24 S6 2.470309 1_555
Mo24 S47 2.563570 1_555
Mo24 S36 2.603756 1_555
Mo25 S7 2.414920 1_555
Mo25 S65 2.425210 1_555
Mo25 S48 2.473613 1_555
Mo25 S23 2.485687 1_555
Mo25 S40 2.579637 1_555
Mo26 S24 2.415533 1_555
Mo26 S11 2.443580 1_555
Mo26 S53 2.470564 1_555
Mo26 S66 2.561500 1_555
Mo26 S31 2.594645 1_554
Mo27 S67 2.414425 1_555
Mo27 S25 2.448958 1_555
Mo27 S8 2.471176 1_555
Mo27 S50 2.565213 1_555
Mo27 S37 2.603893 1_555
Mo28 S9 2.428823 1_555
Mo28 S51 2.438398 1_555
Mo28 S68 2.490578 1_555
Mo28 S41 2.537725 1_555
Mo28 S26 2.550171 1_555
Mo29 S14 2.410588 1_555
Mo29 S27 2.421760 1_555
Mo29 S56 2.446734 1_555
Mo29 S33 2.536177 1_554
Mo29 S69 2.591916 1_555
Mo30 S65 2.400444 1_555
Mo30 S52 2.425718 1_555
Mo30 S23 2.437432 1_555
Mo30 S46 2.526874 1_556
Mo30 S10 2.592564 1_555
Mo31 S70 2.414383 1_555
Mo31 S28 2.449337 1_555
Mo31 S11 2.470284 1_555
Mo31 S53 2.563498 1_555
Mo31 S38 2.589463 1_555
Mo32 S12 2.430362 1_555
Mo32 S71 2.441339 1_555
Mo32 S54 2.453488 1_555
Mo32 S29 2.490441 1_555
Mo32 S42 2.606723 1_555
Mo33 S55 2.394447 1_555
Mo33 S13 2.458607 1_555
Mo33 S68 2.473115 1_555
Mo33 S26 2.497217 1_555
Mo33 S48 2.561112 1_556
Mo34 S72 2.430362 1_555
Mo34 S14 2.441339 1_555
Mo34 S31 2.453488 1_555
Mo34 S56 2.490441 1_555
Mo34 S39 2.606723 1_555
Mo35 S15 2.414383 1_555
Mo35 S57 2.449337 1_555
Mo35 S73 2.470284 1_555
Mo35 S32 2.563498 1_555
Mo35 S43 2.589463 1_555
Mo36 S71 2.410588 1_555
Mo36 S58 2.421760 1_555
Mo36 S29 2.446734 1_555
Mo36 S51 2.536177 1_556
Mo36 S16 2.591916 1_555
Mo37 S17 2.414425 1_555
Mo37 S59 2.448958 1_555
Mo37 S74 2.471176 1_555
Mo37 S34 2.565213 1_555
Mo37 S44 2.603893 1_555
Mo38 S60 2.415533 1_555
Mo38 S73 2.443580 1_555
Mo38 S32 2.470564 1_555
Mo38 S18 2.561500 1_555
Mo38 S54 2.594645 1_556
Mo39 S19 2.413008 1_555
Mo39 S61 2.448907 1_555
Mo39 S75 2.470309 1_555
Mo39 S35 2.563570 1_555
Mo39 S45 2.603756 1_555
Mo40 S62 2.415064 1_555
Mo40 S74 2.445105 1_555
Mo40 S34 2.470847 1_555
Mo40 S20 2.559594 1_555
Mo40 S57 2.610319 1_556
Mo41 S21 2.412467 1_555
Mo41 S63 2.449351 1_555
Mo41 S76 2.469537 1_555
Mo41 S36 2.562335 1_555
Mo41 S47 2.604458 1_555
Mo42 S64 2.414145 1_555
Mo42 S75 2.446633 1_555
Mo42 S35 2.469314 1_555
Mo42 S22 2.559413 1_555
Mo42 S59 2.610377 1_556
Mo43 S24 2.410444 1_555
Mo43 S66 2.450343 1_555
Mo43 S77 2.468650 1_555
Mo43 S37 2.562840 1_555
Mo43 S50 2.604887 1_555
Mo44 S67 2.413434 1_555
Mo44 S76 2.447480 1_555
Mo44 S36 2.468505 1_555
Mo44 S25 2.559622 1_555
Mo44 S61 2.610519 1_556
Mo45 S27 2.403378 1_555
Mo45 S69 2.456523 1_555
Mo45 S78 2.466561 1_555
Mo45 S38 2.565651 1_555
Mo45 S53 2.602181 1_555
Mo46 S70 2.411384 1_555
Mo46 S77 2.447170 1_555
Mo46 S37 2.467820 1_555
Mo46 S28 2.560453 1_555
Mo46 S63 2.610521 1_556
Mo47 S30 2.421457 1_565
Mo47 S46 2.431818 1_565
Mo47 S79 2.489103 1_555
Mo47 S56 2.550269 1_555
Mo47 S39 2.567582 1_555
Mo48 S72 2.418454 1_555
Mo48 S78 2.451085 1_555
Mo48 S38 2.469812 1_555
Mo48 S31 2.565639 1_555
Mo48 S66 2.609100 1_556
Mo49 S49 2.436398 1_545
Mo49 S40 2.454694 1_555
Mo49 S46 2.471969 1_555
Mo49 S79 2.562664 1_545
Mo49 S0 2.607231 1_655
Mo50 S49 2.394553 1_555
Mo50 S33 2.454346 1_555
Mo50 S79 2.475516 1_555
Mo50 S39 2.487227 1_555
Mo50 S69 2.575942 1_556
Mo51 S52 2.408056 1_555
Mo51 S41 2.419245 1_555
Mo51 S65 2.458586 1_555
Mo51 S1 2.466366 1_655
Mo51 S48 2.477277 1_555
Mo52 S55 2.438246 1_555
Mo52 S42 2.453270 1_555
Mo52 S51 2.464901 1_555
Mo52 S68 2.570161 1_555
Mo52 S2 2.606053 1_655
Mo53 S58 2.418807 1_555
Mo53 S43 2.458300 1_555
Mo53 S54 2.470704 1_555
Mo53 S71 2.489382 1_555
Mo53 S3 2.593239 1_655
Mo54 S60 2.411445 1_555
Mo54 S44 2.447806 1_555
Mo54 S57 2.465835 1_555
Mo54 S73 2.562616 1_555
Mo54 S4 2.607773 1_655
Mo55 S62 2.411764 1_555
Mo55 S45 2.447874 1_555
Mo55 S59 2.467495 1_555
Mo55 S74 2.563833 1_555
Mo55 S5 2.609204 1_655
Mo56 S64 2.411553 1_555
Mo56 S47 2.446766 1_555
Mo56 S61 2.467957 1_555
Mo56 S75 2.561758 1_555
Mo56 S6 2.608754 1_655
Mo57 S67 2.411365 1_555
Mo57 S50 2.445686 1_555
Mo57 S63 2.468488 1_555
Mo57 S76 2.561425 1_555
Mo57 S8 2.609168 1_655
Mo58 S70 2.410451 1_555
Mo58 S53 2.447238 1_555
Mo58 S66 2.469126 1_555
Mo58 S77 2.560525 1_555
Mo58 S11 2.607403 1_655
Mo59 S72 2.398982 1_555
Mo59 S56 2.420483 1_555
Mo59 S69 2.466647 1_555
Mo59 S14 2.539172 1_655
Mo59 S78 2.583399 1_555
S0 Th0 3.010533 1_555
S2 Th6 2.981273 1_455
S3 Th1 2.959899 1_455
S4 Th2 2.984916 1_455
S5 Th7 2.986383 1_555
S6 Th3 2.990270 1_554
S7 Th0 2.754340 1_555
S8 Th4 3.015582 1_554
S10 Th0 2.993466 1_556
S11 Th5 3.031549 1_554
S12 Th6 2.767756 1_455
S15 Th1 2.769442 1_455
S16 Th6 2.984988 1_456
S17 Th2 2.768545 1_455
S18 Th1 2.988548 1_456
S19 Th7 2.768904 1_555
S20 Th2 2.987451 1_456
S21 Th3 2.768710 1_554
S22 Th7 2.987971 1_556
S24 Th4 2.768804 1_554
S25 Th3 2.989587 1_555
S26 Th0 3.002931 1_556
S27 Th5 2.768006 1_554
S28 Th4 2.993884 1_555
S31 Th5 3.003898 1_555
S32 Th6 3.022110 1_456
S34 Th1 3.017019 1_456
S35 Th2 2.993102 1_456
S36 Th7 2.991250 1_556
S37 Th3 2.990559 1_555
S38 Th4 2.973793 1_555
S39 Th5 2.973513 1_555
S40 Th0 3.002931 1_655
S42 Th6 2.973513 1_555
S43 Th1 2.973793 1_555
S44 Th2 2.990559 1_555
S45 Th7 2.991250 1_655
S47 Th3 2.993102 1_654
S48 Th0 2.993466 1_655
S50 Th4 3.017019 1_654
S52 Th0 2.754340 1_656
S53 Th5 3.022110 1_654
S54 Th6 3.003898 1_555
S57 Th1 2.993884 1_555
S58 Th6 2.768006 1_556
S59 Th2 2.989587 1_555
S60 Th1 2.768804 1_556
S61 Th7 2.987971 1_655
S62 Th2 2.768710 1_556
S63 Th3 2.987451 1_654
S64 Th7 2.768904 1_656
S66 Th4 2.988548 1_654
S67 Th3 2.768545 1_655
S68 Th0 3.010533 1_656
S69 Th5 2.984988 1_654
S70 Th4 2.769442 1_655
S72 Th5 2.767756 1_655
S73 Th6 3.031549 1_556
S74 Th1 3.015582 1_556
S75 Th2 2.990270 1_556
S76 Th7 2.986383 1_656
S77 Th3 2.984916 1_655
S78 Th4 2.959899 1_655
S79 Th5 2.981273 1_655
