# generated using pymatgen
data_VSnRh2
_symmetry_space_group_name_H-M   'P 1'
_cell_length_a   4.70066271
_cell_length_b   4.70066271
_cell_length_c   4.70066271
_cell_angle_alpha   128.22931676
_cell_angle_beta   128.22931676
_cell_angle_gamma   76.25383752
_symmetry_Int_Tables_number   1
_chemical_formula_structural   VSnRh2
_chemical_formula_sum   'V1 Sn1 Rh2'
_cell_volume   62.29125746
_cell_formula_units_Z   1
loop_
 _symmetry_equiv_pos_site_id
 _symmetry_equiv_pos_as_xyz
  1  'x, y, z'
loop_
 _atom_site_type_symbol
 _atom_site_label
 _atom_site_symmetry_multiplicity
 _atom_site_fract_x
 _atom_site_fract_y
 _atom_site_fract_z
 _atom_site_occupancy
  V  V0  1  0.50000000  0.50000000  0.00000000  1
  Sn  Sn0  1  0.00000000  0.00000000  0.00000000  1
  Rh  Rh0  1  0.75000000  0.25000000  0.50000000  1
  Rh  Rh1  1  0.25000000  0.75000000  0.50000000  1
loop_
_geom_bond_atom_site_label_1
_geom_bond_atom_site_label_2
_geom_bond_distance
_geom_bond_site_symmetry_2
Sn0 V0 2.902215 1_444
Sn0 V0 2.902215 1_455
Sn0 V0 2.902215 1_545
Sn0 V0 2.902215 1_556
Rh0 Sn0 2.762204 1_656
Rh0 V0 2.762204 1_656
Rh0 Sn0 2.762204 1_555
Rh0 V0 2.762204 1_545
Rh0 V0 2.762204 1_555
Rh0 Sn0 2.762204 1_655
Rh0 V0 2.762204 1_556
Rh0 Sn0 2.762204 1_666
Rh1 Sn0 2.762204 1_555
Rh1 Sn0 2.762204 1_566
Rh1 V0 2.762204 1_566
Rh1 V0 2.762204 1_555
Rh1 V0 2.762204 1_455
Rh1 V0 2.762204 1_556
Rh1 Sn0 2.762204 1_565
Rh1 Sn0 2.762204 1_666
