# generated using pymatgen
data_Cs2K2B10O17
_symmetry_space_group_name_H-M   'P 1'
_cell_length_a   6.67710090
_cell_length_b   11.44274041
_cell_length_c   11.98101752
_cell_angle_alpha   102.68519387
_cell_angle_beta   106.33765911
_cell_angle_gamma   90.09185762
_symmetry_Int_Tables_number   1
_chemical_formula_structural   Cs2K2B10O17
_chemical_formula_sum   'Cs4 K4 B20 O34'
_cell_volume   855.03095743
_cell_formula_units_Z   2
loop_
 _symmetry_equiv_pos_site_id
 _symmetry_equiv_pos_as_xyz
  1  'x, y, z'
loop_
 _atom_site_type_symbol
 _atom_site_label
 _atom_site_symmetry_multiplicity
 _atom_site_fract_x
 _atom_site_fract_y
 _atom_site_fract_z
 _atom_site_occupancy
  Cs  Cs0  1  0.25518000  0.40361000  0.88851100  1
  Cs  Cs1  1  0.74421200  0.59502900  0.11005700  1
  Cs  Cs2  1  0.36636100  0.09550200  0.11079300  1
  Cs  Cs3  1  0.64218100  0.90740400  0.89092300  1
  K  K0  1  0.19373600  0.32793500  0.54260500  1
  K  K1  1  0.65193700  0.17328700  0.45959100  1
  K  K2  1  0.35156500  0.82536600  0.54336000  1
  K  K3  1  0.81304700  0.67588400  0.45656300  1
  B  B0  1  0.49046900  0.83666000  0.28802300  1
  B  B1  1  0.51041300  0.16272000  0.71151300  1
  B  B2  1  0.44247800  0.42521200  0.30309000  1
  B  B3  1  0.12211700  0.76485200  0.89808400  1
  B  B4  1  0.22533100  0.98470700  0.33400300  1
  B  B5  1  0.89282200  0.51475600  0.66619800  1
  B  B6  1  0.87659800  0.23444400  0.10407200  1
  B  B7  1  0.79593200  0.33618500  0.28986200  1
  B  B8  1  0.20558000  0.66311000  0.71298600  1
  B  B9  1  0.04776900  0.87073800  0.73097700  1
  B  B10  1  0.85844600  0.92478300  0.29940900  1
  B  B11  1  0.95443400  0.12880600  0.27137300  1
  B  B12  1  0.14256300  0.07357500  0.69910600  1
  B  B13  1  0.56030200  0.57420000  0.70013700  1
  B  B14  1  0.22484400  0.73184500  0.10237800  1
  B  B15  1  0.68472100  0.37083700  0.72976000  1
  B  B16  1  0.77607800  0.01383800  0.66453900  1
  B  B17  1  0.10833300  0.48472400  0.33434200  1
  B  B18  1  0.31746900  0.62800400  0.27049000  1
  B  B19  1  0.77602700  0.26723800  0.89842300  1
  O  O0  1  0.05723300  0.86441000  0.85611800  1
  O  O1  1  0.76488700  0.31773100  0.15756900  1
  O  O2  1  0.23231500  0.68037100  0.84452100  1
  O  O3  1  0.43437100  0.73973000  0.33667200  1
  O  O4  1  0.07366300  0.74795800  0.99973900  1
  O  O5  1  0.42886800  0.95571100  0.34722700  1
  O  O6  1  0.20484700  0.63169600  0.14399900  1
  O  O7  1  0.15163600  0.59924700  0.32540000  1
  O  O8  1  0.17404200  0.10032900  0.32923400  1
  O  O9  1  0.41534000  0.65812900  0.69116700  1
  O  O10  1  0.72204700  0.84151400  0.30940600  1
  O  O11  1  0.92424100  0.25217000  0.00213000  1
  O  O12  1  0.84718900  0.39966300  0.67266300  1
  O  O13  1  0.80137600  0.02874800  0.26394000  1
  O  O14  1  0.53775400  0.47025500  0.73490400  1
  O  O15  1  0.57378600  0.04368000  0.65297500  1
  O  O16  1  0.10169400  0.76029500  0.66492000  1
  O  O17  1  0.08300300  0.54422800  0.65341300  1
  O  O18  1  0.38602400  0.81852400  0.15658700  1
  O  O19  1  0.91891200  0.45515700  0.34798800  1
  O  O20  1  0.92974800  0.09866900  0.66641000  1
  O  O21  1  0.90043900  0.23899000  0.33756500  1
  O  O22  1  0.58793000  0.34193600  0.31342900  1
  O  O23  1  0.61385900  0.18091700  0.84334000  1
  O  O24  1  0.25899700  0.39975200  0.33211400  1
  O  O25  1  0.27859300  0.15691500  0.68876700  1
  O  O26  1  0.82794300  0.89919400  0.67273700  1
  O  O27  1  0.46425400  0.52876400  0.26676400  1
  O  O28  1  0.56666900  0.25972800  0.66371000  1
  O  O29  1  0.74387700  0.60044400  0.67135900  1
  O  O30  1  0.19943400  0.97211100  0.73867700  1
  O  O31  1  0.94451300  0.13528000  0.14598900  1
  O  O32  1  0.07051800  0.89832800  0.32719700  1
  O  O33  1  0.79974600  0.36623500  0.85579400  1
loop_
_geom_bond_atom_site_label_1
_geom_bond_atom_site_label_2
_geom_bond_distance
_geom_bond_site_symmetry_2
Cs0 O33 2.972489 1_455
Cs0 O14 3.177065 1_555
Cs0 O12 3.177409 1_455
Cs0 O25 3.311355 1_555
Cs0 O2 3.319593 1_555
Cs0 O17 3.466879 1_555
Cs0 O11 3.529140 1_456
Cs0 O23 3.558808 1_555
Cs0 O6 3.656136 1_556
Cs1 O6 3.003104 1_655
Cs1 O7 3.171071 1_655
Cs1 O27 3.192100 1_555
Cs1 O10 3.305003 1_555
Cs1 O1 3.340929 1_555
Cs1 O19 3.491077 1_555
Cs1 O4 3.505341 1_654
Cs1 O18 3.565760 1_555
Cs1 O33 3.661643 1_554
Cs2 O31 2.984454 1_455
Cs2 O13 3.164071 1_555
Cs2 O8 3.213874 1_555
Cs2 O22 3.315692 1_555
Cs2 O18 3.329835 1_545
Cs2 O5 3.476239 1_545
Cs2 O1 3.517783 1_555
Cs2 O11 3.536000 1_455
Cs2 O0 3.668616 1_544
Cs3 O0 2.942907 1_655
Cs3 O26 3.177646 1_555
Cs3 O30 3.190827 1_555
Cs3 O23 3.298620 1_565
Cs3 O9 3.332666 1_555
Cs3 O15 3.462636 1_565
Cs3 O4 3.503899 1_655
Cs3 O2 3.610346 1_555
Cs3 O31 3.636752 1_566
K0 O21 2.663615 1_455
K0 O28 2.717716 1_555
K0 O17 2.747683 1_555
K0 O25 2.857909 1_555
K0 O14 2.932476 1_555
K0 O24 2.958457 1_555
K0 O12 3.151016 1_455
K0 O19 3.164745 1_455
K0 O8 3.197067 1_555
K1 O28 2.646887 1_555
K1 O21 2.701734 1_555
K1 O5 2.759939 1_545
K1 O22 2.835347 1_555
K1 O20 2.942498 1_555
K1 O13 2.973950 1_555
K1 O8 3.151733 1_555
K1 O15 3.166511 1_555
K1 O12 3.184192 1_555
K2 O3 2.665418 1_555
K2 O16 2.701572 1_555
K2 O15 2.760051 1_565
K2 O9 2.836564 1_555
K2 O30 2.990740 1_555
K2 O32 3.024289 1_555
K2 O26 3.142679 1_555
K2 O5 3.198766 1_555
K2 O7 3.218129 1_555
K3 O16 2.665985 1_655
K3 O3 2.722800 1_555
K3 O19 2.766078 1_555
K3 O10 2.817490 1_555
K3 O27 2.958987 1_555
K3 O29 3.037160 1_555
K3 O7 3.122434 1_655
K3 O26 3.192963 1_555
K3 O17 3.202883 1_655
B0 O3 1.454531 1_555
B0 O10 1.493411 1_555
B0 O18 1.499127 1_555
B0 O5 1.506537 1_555
B1 O28 1.449209 1_555
B1 O25 1.492994 1_555
B1 O23 1.502121 1_555
B1 O15 1.508514 1_555
B2 O22 1.361515 1_555
B2 O27 1.369720 1_555
B2 O24 1.410582 1_555
B3 O0 1.367080 1_555
B3 O2 1.372301 1_555
B3 O4 1.396526 1_555
B4 O5 1.373159 1_555
B4 O8 1.376446 1_565
B4 O32 1.402160 1_555
B5 O17 1.371306 1_655
B5 O12 1.374797 1_555
B5 O29 1.401921 1_555
B6 O31 1.367193 1_555
B6 O1 1.370559 1_555
B6 O11 1.400453 1_555
B7 O21 1.451826 1_555
B7 O22 1.491883 1_555
B7 O1 1.505928 1_555
B7 O19 1.506951 1_555
B8 O16 1.452061 1_555
B8 O9 1.494300 1_555
B8 O2 1.503105 1_555
B8 O17 1.507042 1_555
B9 O16 1.440705 1_555
B9 O0 1.500526 1_555
B9 O26 1.507470 1_455
B9 O30 1.508733 1_555
B10 O10 1.363964 1_555
B10 O13 1.368732 1_565
B10 O32 1.409971 1_655
B11 O21 1.439346 1_555
B11 O31 1.503153 1_555
B11 O13 1.504503 1_555
B11 O8 1.505249 1_655
B12 O30 1.363388 1_545
B12 O25 1.364608 1_555
B12 O20 1.411614 1_455
B13 O9 1.364017 1_555
B13 O14 1.364986 1_555
B13 O29 1.411943 1_555
B14 O6 1.366640 1_555
B14 O18 1.372675 1_555
B14 O4 1.402497 1_554
B15 O28 1.438046 1_555
B15 O33 1.501793 1_555
B15 O14 1.505906 1_555
B15 O12 1.506335 1_555
B16 O15 1.370120 1_555
B16 O26 1.374560 1_545
B16 O20 1.403527 1_555
B17 O19 1.371178 1_455
B17 O7 1.374863 1_555
B17 O24 1.401778 1_555
B18 O3 1.440776 1_555
B18 O6 1.500351 1_555
B18 O27 1.502678 1_555
B18 O7 1.506948 1_555
B19 O33 1.366819 1_555
B19 O23 1.375468 1_555
B19 O11 1.398501 1_556
