# generated using pymatgen
data_Y5CuPb3
_symmetry_space_group_name_H-M   'P 1'
_cell_length_a   8.95049744
_cell_length_b   8.95049744
_cell_length_c   6.77846000
_cell_angle_alpha   90.00000000
_cell_angle_beta   90.00000000
_cell_angle_gamma   119.99999587
_symmetry_Int_Tables_number   1
_chemical_formula_structural   Y5CuPb3
_chemical_formula_sum   'Y10 Cu2 Pb6'
_cell_volume   470.27948388
_cell_formula_units_Z   2
loop_
 _symmetry_equiv_pos_site_id
 _symmetry_equiv_pos_as_xyz
  1  'x, y, z'
loop_
 _atom_site_type_symbol
 _atom_site_label
 _atom_site_symmetry_multiplicity
 _atom_site_fract_x
 _atom_site_fract_y
 _atom_site_fract_z
 _atom_site_occupancy
  Y  Y0  1  0.00000000  0.74806300  0.75000000  1
  Y  Y1  1  0.33333300  0.66666700  0.50000000  1
  Y  Y2  1  0.33333300  0.66666700  0.00000000  1
  Y  Y3  1  0.74806300  0.74806300  0.25000000  1
  Y  Y4  1  0.25193700  0.25193700  0.75000000  1
  Y  Y5  1  0.00000000  0.25193700  0.25000000  1
  Y  Y6  1  0.66666700  0.33333300  0.50000000  1
  Y  Y7  1  0.25193700  0.00000000  0.25000000  1
  Y  Y8  1  0.74806300  0.00000000  0.75000000  1
  Y  Y9  1  0.66666700  0.33333300  0.00000000  1
  Cu  Cu0  1  0.00000000  0.00000000  0.00000000  1
  Cu  Cu1  1  0.00000000  0.00000000  0.50000000  1
  Pb  Pb0  1  0.39135000  0.00000000  0.75000000  1
  Pb  Pb1  1  0.39135000  0.39135000  0.25000000  1
  Pb  Pb2  1  0.60865000  0.60865000  0.75000000  1
  Pb  Pb3  1  0.00000000  0.60865000  0.25000000  1
  Pb  Pb4  1  0.00000000  0.39135000  0.75000000  1
  Pb  Pb5  1  0.60865000  0.00000000  0.25000000  1
loop_
_geom_bond_atom_site_label_1
_geom_bond_atom_site_label_2
_geom_bond_distance
_geom_bond_site_symmetry_2
Y0 Y2 3.804906 1_556
Y0 Y1 3.804906 1_555
Y0 Y9 3.804912 1_456
Y0 Y6 3.804912 1_455
Y1 Y2 3.389230 1_556
Y1 Y2 3.389230 1_555
Y1 Y7 3.804906 1_565
Y1 Y8 3.804912 1_565
Y1 Y5 3.804912 1_555
Y1 Y3 3.804914 1_555
Y1 Y4 3.804914 1_555
Y2 Y7 3.804906 1_565
Y2 Y8 3.804912 1_564
Y2 Y5 3.804912 1_555
Y2 Y3 3.804914 1_555
Y2 Y4 3.804914 1_554
Y3 Y9 3.804914 1_555
Y3 Y6 3.804914 1_555
Y4 Y9 3.804914 1_556
Y4 Y6 3.804914 1_555
Y5 Y9 3.804906 1_455
Y5 Y6 3.804906 1_455
Y6 Y9 3.389230 1_555
Y6 Y9 3.389230 1_556
Y6 Y8 3.804906 1_555
Y6 Y7 3.804912 1_555
Y7 Y9 3.804912 1_555
Y8 Y9 3.804906 1_556
Cu0 Y5 2.820739 1_555
Cu0 Y7 2.820739 1_555
Cu0 Y8 2.820739 1_454
Cu0 Y0 2.820739 1_544
Cu0 Y4 2.820740 1_554
Cu0 Y3 2.820740 1_445
Cu1 Y5 2.820739 1_555
Cu1 Y7 2.820739 1_555
Cu1 Y0 2.820739 1_545
Cu1 Y8 2.820739 1_455
Cu1 Y4 2.820740 1_555
Cu1 Y3 2.820740 1_445
Pb0 Y4 3.075008 1_555
Pb0 Y0 3.075008 1_545
Pb0 Y8 3.192759 1_555
Pb0 Y1 3.239344 1_545
Pb0 Y2 3.239344 1_546
Pb0 Y6 3.239347 1_555
Pb0 Y9 3.239347 1_556
Pb0 Y7 3.611637 1_555
Pb0 Y7 3.611637 1_556
Pb1 Y5 3.075008 1_555
Pb1 Y7 3.075008 1_555
Pb1 Y3 3.192759 1_555
Pb1 Y6 3.239351 1_555
Pb1 Y1 3.239351 1_555
Pb1 Y2 3.239351 1_555
Pb1 Y9 3.239351 1_555
Pb1 Y4 3.611637 1_555
Pb1 Y4 3.611637 1_554
Pb2 Y0 3.075008 1_655
Pb2 Y8 3.075008 1_565
Pb2 Y4 3.192759 1_555
Pb2 Y6 3.239351 1_555
Pb2 Y2 3.239351 1_556
Pb2 Y1 3.239351 1_555
Pb2 Y9 3.239351 1_556
Pb2 Y3 3.611637 1_556
Pb2 Y3 3.611637 1_555
Pb3 Y3 3.075008 1_455
Pb3 Y7 3.075008 1_565
Pb3 Y5 3.192759 1_555
Pb3 Y1 3.239344 1_555
Pb3 Y2 3.239344 1_555
Pb3 Y6 3.239347 1_455
Pb3 Y9 3.239347 1_455
Pb3 Y0 3.611637 1_554
Pb3 Y0 3.611637 1_555
Pb4 Y4 3.075008 1_555
Pb4 Y8 3.075008 1_455
Pb4 Y0 3.192759 1_555
Pb4 Y9 3.239344 1_456
Pb4 Y6 3.239344 1_455
Pb4 Y2 3.239347 1_556
Pb4 Y1 3.239347 1_555
Pb4 Y5 3.611637 1_556
Pb4 Y5 3.611637 1_555
Pb5 Y3 3.075008 1_545
Pb5 Y5 3.075008 1_655
Pb5 Y7 3.192759 1_555
Pb5 Y6 3.239344 1_555
Pb5 Y9 3.239344 1_555
Pb5 Y2 3.239347 1_545
Pb5 Y1 3.239347 1_545
Pb5 Y8 3.611637 1_554
Pb5 Y8 3.611637 1_555
