# generated using pymatgen
data_Ba4Nd7Si12BN27
_symmetry_space_group_name_H-M   'P 1'
_cell_length_a   12.33682711
_cell_length_b   12.33682711
_cell_length_c   5.47572900
_cell_angle_alpha   90.00000000
_cell_angle_beta   90.00000000
_cell_angle_gamma   120.00000595
_symmetry_Int_Tables_number   1
_chemical_formula_structural   Ba4Nd7Si12BN27
_chemical_formula_sum   'Ba4 Nd7 Si12 B1 N27'
_cell_volume   721.73789555
_cell_formula_units_Z   1
loop_
 _symmetry_equiv_pos_site_id
 _symmetry_equiv_pos_as_xyz
  1  'x, y, z'
loop_
 _atom_site_type_symbol
 _atom_site_label
 _atom_site_symmetry_multiplicity
 _atom_site_fract_x
 _atom_site_fract_y
 _atom_site_fract_z
 _atom_site_occupancy
  Ba  Ba0  1  0.92143600  0.48886300  0.50000000  1
  Ba  Ba1  1  0.51113700  0.43257300  0.50000000  1
  Ba  Ba2  1  0.33333300  0.66666700  0.50000000  1
  Ba  Ba3  1  0.56742700  0.07856400  0.50000000  1
  Nd  Nd0  1  0.78021700  0.02384400  0.00000000  1
  Nd  Nd1  1  0.67739600  0.70562600  0.00000000  1
  Nd  Nd2  1  0.02823000  0.32260400  0.00000000  1
  Nd  Nd3  1  0.00000000  0.00000000  0.50000000  1
  Nd  Nd4  1  0.97615600  0.75637300  0.00000000  1
  Nd  Nd5  1  0.24362700  0.21978300  0.00000000  1
  Nd  Nd6  1  0.29437400  0.97177000  0.00000000  1
  Si  Si0  1  0.49324700  0.79648300  0.00000000  1
  Si  Si1  1  0.75770200  0.26329700  0.00000000  1
  Si  Si2  1  0.67865900  0.87137200  0.50000000  1
  Si  Si3  1  0.87547600  0.18601700  0.50000000  1
  Si  Si4  1  0.81398300  0.68945900  0.50000000  1
  Si  Si5  1  0.73670300  0.49440500  0.00000000  1
  Si  Si6  1  0.19271300  0.32134100  0.50000000  1
  Si  Si7  1  0.30323700  0.50675300  0.00000000  1
  Si  Si8  1  0.12862800  0.80728700  0.50000000  1
  Si  Si9  1  0.31054100  0.12452400  0.50000000  1
  Si  Si10  1  0.20351700  0.69676300  0.00000000  1
  Si  Si11  1  0.50559500  0.24229800  0.00000000  1
  B  B0  1  0.00000000  0.00000000  0.00000000  1
  N  N0  1  0.24762000  0.96283900  0.50000000  1
  N  N1  1  0.13397800  0.72745700  0.24568500  1
  N  N2  1  0.13397800  0.72745700  0.75431500  1
  N  N3  1  0.03716100  0.28478100  0.50000000  1
  N  N4  1  0.18704800  0.55022600  0.00000000  1
  N  N5  1  0.87354200  0.88896500  0.00000000  1
  N  N6  1  0.01542300  0.12645800  0.00000000  1
  N  N7  1  0.36317800  0.81295200  0.00000000  1
  N  N8  1  0.27254300  0.40652100  0.24568500  1
  N  N9  1  0.27254300  0.40652100  0.75431500  1
  N  N10  1  0.20593300  0.18359800  0.50000000  1
  N  N11  1  0.11103500  0.98457700  0.00000000  1
  N  N12  1  0.44977400  0.63682200  0.00000000  1
  N  N13  1  0.59347900  0.86602200  0.75431500  1
  N  N14  1  0.59347900  0.86602200  0.24568500  1
  N  N15  1  0.40019400  0.17963000  0.24119000  1
  N  N16  1  0.40019400  0.17963000  0.75881000  1
  N  N17  1  0.71521900  0.75238000  0.50000000  1
  N  N18  1  0.57675800  0.40218400  0.00000000  1
  N  N19  1  0.77943600  0.59980600  0.24119000  1
  N  N20  1  0.77943600  0.59980600  0.75881000  1
  N  N21  1  0.59781600  0.17457400  0.00000000  1
  N  N22  1  0.97766400  0.79406700  0.50000000  1
  N  N23  1  0.82542600  0.42324200  0.00000000  1
  N  N24  1  0.82037000  0.22056400  0.75881000  1
  N  N25  1  0.82037000  0.22056400  0.24119000  1
  N  N26  1  0.81640200  0.02233600  0.50000000  1
loop_
_geom_bond_atom_site_label_1
_geom_bond_atom_site_label_2
_geom_bond_distance
_geom_bond_site_symmetry_2
Ba0 N23 2.931781 1_555
Ba0 N23 2.931781 1_556
Ba0 N19 3.057497 1_555
Ba0 N20 3.057497 1_555
Ba0 N2 3.124201 1_655
Ba0 N1 3.124201 1_655
Ba0 N25 3.223636 1_555
Ba0 N24 3.223636 1_555
Ba0 N3 3.460016 1_655
Ba1 N18 2.931781 1_555
Ba1 N18 2.931781 1_556
Ba1 N15 3.057497 1_555
Ba1 N16 3.057497 1_555
Ba1 N9 3.124202 1_555
Ba1 N8 3.124202 1_555
Ba1 N19 3.223636 1_555
Ba1 N20 3.223636 1_555
Ba1 N17 3.460015 1_555
Ba2 N7 3.197485 1_555
Ba2 N7 3.197485 1_556
Ba2 N4 3.197487 1_555
Ba2 N4 3.197487 1_556
Ba2 N12 3.197491 1_555
Ba2 N12 3.197491 1_556
Ba2 N2 3.224096 1_555
Ba2 N1 3.224096 1_555
Ba2 N13 3.224103 1_555
Ba2 N14 3.224103 1_555
Ba2 N8 3.224106 1_555
Ba2 N9 3.224106 1_555
Ba3 N21 2.931781 1_555
Ba3 N21 2.931781 1_556
Ba3 N25 3.057497 1_555
Ba3 N24 3.057497 1_555
Ba3 N13 3.124202 1_545
Ba3 N14 3.124202 1_545
Ba3 N16 3.223636 1_555
Ba3 N15 3.223636 1_555
Ba3 N0 3.460015 1_545
B0 N5 1.474193 1_445
B0 N6 1.474193 1_555
B0 N11 1.474193 1_545
N0 Si8 1.737964 1_555
N0 Si9 1.741535 1_565
N0 Nd6 2.788760 1_555
N0 Nd6 2.788760 1_556
N1 Si8 1.725836 1_555
N1 Si10 1.736106 1_555
N1 Nd4 2.534278 1_455
N2 Si8 1.725836 1_555
N2 Si10 1.736106 1_556
N2 Nd4 2.534278 1_456
N3 Si6 1.737964 1_555
N3 Si3 1.741535 1_455
N3 Nd2 2.788760 1_555
N3 Nd2 2.788760 1_556
N4 Si10 1.715263 1_555
N4 Si7 1.763816 1_555
N4 Nd2 2.494495 1_555
N5 Nd1 2.344816 1_555
N5 Nd0 2.451570 1_565
N5 Nd4 2.519737 1_555
N6 Nd2 2.344816 1_555
N6 Nd5 2.451569 1_555
N6 Nd0 2.519737 1_455
N7 Si0 1.715275 1_555
N7 Si10 1.763807 1_555
N7 Nd6 2.494495 1_555
N8 Si6 1.725836 1_555
N8 Si7 1.736098 1_555
N8 Nd5 2.534278 1_555
N9 Si6 1.725836 1_555
N9 Si7 1.736098 1_556
N9 Nd5 2.534278 1_556
N10 Si9 1.771191 1_555
N10 Si6 1.786450 1_555
N10 Nd3 2.414608 1_555
N10 Nd5 2.775579 1_556
N10 Nd5 2.775579 1_555
N11 Nd6 2.344816 1_555
N11 Nd4 2.451569 1_455
N11 Nd5 2.519737 1_565
N12 Si7 1.715268 1_555
N12 Si0 1.763804 1_555
N12 Nd1 2.494495 1_555
N13 Si2 1.725836 1_555
N13 Si0 1.736100 1_556
N13 Nd0 2.534278 1_566
N14 Si2 1.725836 1_555
N14 Si0 1.736100 1_555
N14 Nd0 2.534278 1_565
N15 Si9 1.715210 1_555
N15 Si11 1.739959 1_555
N15 Nd6 2.583916 1_545
N15 Nd5 2.584040 1_555
N16 Si9 1.715210 1_555
N16 Si11 1.739959 1_556
N16 Nd6 2.583916 1_546
N16 Nd5 2.584040 1_556
N17 Si2 1.737964 1_555
N17 Si4 1.741535 1_555
N17 Nd1 2.788760 1_555
N17 Nd1 2.788760 1_556
N18 Si11 1.711654 1_555
N18 Si5 1.715521 1_555
N19 Si4 1.715210 1_555
N19 Si5 1.739959 1_555
N19 Nd1 2.583916 1_555
N19 Nd4 2.584040 1_555
N20 Si4 1.715210 1_555
N20 Si5 1.739959 1_556
N20 Nd1 2.583916 1_556
N20 Nd4 2.584040 1_556
N21 Si1 1.711654 1_555
N21 Si11 1.715521 1_555
N22 Si4 1.771182 1_555
N22 Si8 1.786463 1_655
N22 Nd3 2.414603 1_665
N22 Nd4 2.775580 1_555
N22 Nd4 2.775580 1_556
N23 Si5 1.711654 1_555
N23 Si1 1.715521 1_555
N24 Si3 1.715210 1_555
N24 Si1 1.739959 1_556
N24 Nd2 2.583916 1_656
N24 Nd0 2.584040 1_556
N25 Si3 1.715210 1_555
N25 Si1 1.739959 1_555
N25 Nd2 2.583916 1_655
N25 Nd0 2.584040 1_555
N26 Si3 1.771180 1_555
N26 Si2 1.786457 1_545
N26 Nd3 2.414616 1_655
N26 Nd0 2.775578 1_556
N26 Nd0 2.775578 1_555
