# generated using pymatgen
data_K2ZnCl4
_symmetry_space_group_name_H-M   'P 1'
_cell_length_a   7.11944295
_cell_length_b   8.88776142
_cell_length_c   12.66455914
_cell_angle_alpha   90.00000000
_cell_angle_beta   90.00000000
_cell_angle_gamma   90.00000000
_symmetry_Int_Tables_number   1
_chemical_formula_structural   K2ZnCl4
_chemical_formula_sum   'K8 Zn4 Cl16'
_cell_volume   801.36150918
_cell_formula_units_Z   4
loop_
 _symmetry_equiv_pos_site_id
 _symmetry_equiv_pos_as_xyz
  1  'x, y, z'
loop_
 _atom_site_type_symbol
 _atom_site_label
 _atom_site_symmetry_multiplicity
 _atom_site_fract_x
 _atom_site_fract_y
 _atom_site_fract_z
 _atom_site_occupancy
  K  K0  1  0.25000000  0.61540545  0.56420679  1
  K  K1  1  0.75000000  0.01855489  0.68081630  1
  K  K2  1  0.75000000  0.88459455  0.06420679  1
  K  K3  1  0.75000000  0.38459455  0.43579321  1
  K  K4  1  0.25000000  0.11540545  0.93579321  1
  K  K5  1  0.25000000  0.98144511  0.31918370  1
  K  K6  1  0.75000000  0.51855489  0.81918370  1
  K  K7  1  0.25000000  0.48144511  0.18081630  1
  Zn  Zn0  1  0.25000000  0.21589160  0.57334216  1
  Zn  Zn1  1  0.25000000  0.71589160  0.92665784  1
  Zn  Zn2  1  0.75000000  0.78410840  0.42665784  1
  Zn  Zn3  1  0.75000000  0.28410840  0.07334216  1
  Cl  Cl0  1  0.49595402  0.67928760  0.34895592  1
  Cl  Cl1  1  0.50404598  0.32071240  0.65104408  1
  Cl  Cl2  1  0.25000000  0.31178761  0.40605207  1
  Cl  Cl3  1  0.99595402  0.32071240  0.65104408  1
  Cl  Cl4  1  0.75000000  0.53541037  0.07678580  1
  Cl  Cl5  1  0.00404598  0.67928760  0.34895592  1
  Cl  Cl6  1  0.25000000  0.46458963  0.92321420  1
  Cl  Cl7  1  0.99595402  0.82071240  0.84895592  1
  Cl  Cl8  1  0.00404598  0.17928760  0.15104408  1
  Cl  Cl9  1  0.75000000  0.18821239  0.90605207  1
  Cl  Cl10  1  0.75000000  0.68821239  0.59394793  1
  Cl  Cl11  1  0.75000000  0.03541037  0.42321420  1
  Cl  Cl12  1  0.50404598  0.82071240  0.84895592  1
  Cl  Cl13  1  0.25000000  0.81178761  0.09394793  1
  Cl  Cl14  1  0.25000000  0.96458963  0.57678580  1
  Cl  Cl15  1  0.49595402  0.17928760  0.15104408  1
loop_
_geom_bond_atom_site_label_1
_geom_bond_atom_site_label_2
_geom_bond_distance
_geom_bond_site_symmetry_2
Cl0 Zn2 2.259993 1_555
Cl0 K5 3.228048 1_555
Cl0 K7 3.269937 1_555
Cl0 K0 3.289369 1_555
Cl0 K3 3.367602 1_555
Cl1 Zn0 2.259993 1_555
Cl1 K1 3.228048 1_555
Cl1 K6 3.269937 1_555
Cl1 K3 3.289369 1_555
Cl1 K0 3.367602 1_555
Cl2 Zn0 2.283663 1_555
Cl2 K5 3.135356 1_545
Cl2 K7 3.226532 1_555
Cl2 K0 3.360604 1_555
Cl2 K3 3.637611 1_555
Cl2 K3 3.637611 1_455
Cl3 Zn0 2.259993 1_655
Cl3 K1 3.228048 1_555
Cl3 K6 3.269937 1_555
Cl3 K3 3.289369 1_555
Cl3 K0 3.367602 1_655
Cl4 Zn3 2.233938 1_555
Cl4 K2 3.107552 1_555
Cl4 K6 3.265855 1_554
Cl5 Zn2 2.259993 1_455
Cl5 K5 3.228048 1_555
Cl5 K7 3.269937 1_555
Cl5 K0 3.289369 1_555
Cl5 K3 3.367602 1_455
Cl6 Zn1 2.233938 1_555
Cl6 K4 3.107552 1_555
Cl6 K7 3.265855 1_556
Cl7 Zn1 2.259993 1_655
Cl7 K6 3.228048 1_555
Cl7 K1 3.269937 1_565
Cl7 K2 3.289369 1_556
Cl7 K4 3.367602 1_665
Cl8 Zn3 2.259993 1_455
Cl8 K7 3.228048 1_555
Cl8 K5 3.269937 1_545
Cl8 K4 3.289369 1_554
Cl8 K2 3.367602 1_445
Cl9 Zn3 2.283663 1_556
Cl9 K6 3.135356 1_555
Cl9 K1 3.226532 1_555
Cl9 K2 3.360604 1_546
Cl9 K4 3.637611 1_555
Cl9 K4 3.637611 1_655
Cl10 Zn2 2.283663 1_555
Cl10 K1 3.135356 1_565
Cl10 K6 3.226532 1_555
Cl10 K3 3.360604 1_555
Cl10 K0 3.637611 1_555
Cl10 K0 3.637611 1_655
Cl11 Zn2 2.233938 1_545
Cl11 K3 3.107552 1_555
Cl11 K1 3.265855 1_555
Cl12 Zn1 2.259993 1_555
Cl12 K6 3.228048 1_555
Cl12 K1 3.269937 1_565
Cl12 K2 3.289369 1_556
Cl12 K4 3.367602 1_565
Cl13 Zn1 2.283663 1_554
Cl13 K7 3.135356 1_555
Cl13 K5 3.226532 1_555
Cl13 K4 3.360604 1_564
Cl13 K2 3.637611 1_555
Cl13 K2 3.637611 1_455
Cl14 Zn0 2.233938 1_565
Cl14 K0 3.107552 1_555
Cl14 K5 3.265855 1_555
Cl15 Zn3 2.259993 1_555
Cl15 K7 3.228048 1_555
Cl15 K5 3.269937 1_545
Cl15 K4 3.289369 1_554
Cl15 K2 3.367602 1_545
