# generated using pymatgen
data_KCeCuTe4
_symmetry_space_group_name_H-M   'P 1'
_cell_length_a   4.45699900
_cell_length_b   4.45699900
_cell_length_c   21.15702300
_cell_angle_alpha   90.00000000
_cell_angle_beta   90.00000000
_cell_angle_gamma   90.00000000
_symmetry_Int_Tables_number   1
_chemical_formula_structural   KCeCuTe4
_chemical_formula_sum   'K2 Ce2 Cu2 Te8'
_cell_volume   420.28087859
_cell_formula_units_Z   2
loop_
 _symmetry_equiv_pos_site_id
 _symmetry_equiv_pos_as_xyz
  1  'x, y, z'
loop_
 _atom_site_type_symbol
 _atom_site_label
 _atom_site_symmetry_multiplicity
 _atom_site_fract_x
 _atom_site_fract_y
 _atom_site_fract_z
 _atom_site_occupancy
  K  K0  1  0.00000000  0.50000000  0.14260600  1
  K  K1  1  0.50000000  0.00000000  0.85739400  1
  Ce  Ce0  1  0.50000000  0.00000000  0.40006700  1
  Ce  Ce1  1  0.00000000  0.50000000  0.59993300  1
  Cu  Cu0  1  0.00000000  0.00000000  0.00000000  1
  Cu  Cu1  1  0.50000000  0.50000000  0.00000000  1
  Te  Te0  1  0.50000000  0.50000000  0.71568400  1
  Te  Te1  1  0.00000000  0.50000000  0.92995800  1
  Te  Te2  1  0.00000000  0.00000000  0.28431600  1
  Te  Te3  1  0.50000000  0.00000000  0.55663800  1
  Te  Te4  1  0.00000000  0.50000000  0.44336200  1
  Te  Te5  1  0.00000000  0.00000000  0.71568400  1
  Te  Te6  1  0.50000000  0.50000000  0.28431600  1
  Te  Te7  1  0.50000000  0.00000000  0.07004200  1
loop_
_geom_bond_atom_site_label_1
_geom_bond_atom_site_label_2
_geom_bond_distance
_geom_bond_site_symmetry_2
K0 Te7 3.505621 1_465
K0 Te7 3.505621 1_555
K0 Te7 3.505621 1_565
K0 Te7 3.505621 1_455
K0 Te2 3.735664 1_555
K0 Te2 3.735664 1_565
K0 Te6 3.735664 1_555
K0 Te6 3.735664 1_455
K1 Te1 3.505621 1_655
K1 Te1 3.505621 1_645
K1 Te1 3.505621 1_545
K1 Te1 3.505621 1_555
K1 Te5 3.735664 1_655
K1 Te0 3.735664 1_555
K1 Te0 3.735664 1_545
K1 Te5 3.735664 1_555
Ce0 Te4 3.281991 1_555
Ce0 Te4 3.281991 1_645
Ce0 Te4 3.281991 1_545
Ce0 Te4 3.281991 1_655
Ce0 Te6 3.311125 1_555
Ce0 Te2 3.311125 1_655
Ce0 Te2 3.311125 1_555
Ce0 Te6 3.311125 1_545
Ce0 Te3 3.312576 1_555
Ce1 Te3 3.281991 1_455
Ce1 Te3 3.281991 1_555
Ce1 Te3 3.281991 1_565
Ce1 Te3 3.281991 1_465
Ce1 Te5 3.311125 1_565
Ce1 Te5 3.311125 1_555
Ce1 Te0 3.311125 1_455
Ce1 Te0 3.311125 1_555
Ce1 Te4 3.312576 1_555
Cu0 Te7 2.676225 1_455
Cu0 Te7 2.676225 1_555
Cu0 Te1 2.676225 1_554
Cu0 Te1 2.676225 1_544
Cu0 K0 3.750895 1_545
Cu0 K1 3.750895 1_454
Cu0 K1 3.750895 1_554
Cu0 K0 3.750895 1_555
Cu1 Te7 2.676225 1_565
Cu1 Te7 2.676225 1_555
Cu1 Te1 2.676225 1_554
Cu1 Te1 2.676225 1_654
Cu1 K1 3.750895 1_564
Cu1 K1 3.750895 1_554
Cu1 K0 3.750895 1_555
Cu1 K0 3.750895 1_655
Te0 Te5 3.151574 1_665
Te0 Te5 3.151574 1_565
Te0 Te5 3.151574 1_555
Te0 Te5 3.151574 1_655
Te2 Te6 3.151574 1_455
Te2 Te6 3.151574 1_445
Te2 Te6 3.151574 1_545
Te2 Te6 3.151574 1_555
