# generated using pymatgen
data_CdI2
_symmetry_space_group_name_H-M   'P 1'
_cell_length_a   4.34432851
_cell_length_b   4.34432851
_cell_length_c   80.95696300
_cell_angle_alpha   90.00000000
_cell_angle_beta   90.00000000
_cell_angle_gamma   120.00000778
_symmetry_Int_Tables_number   1
_chemical_formula_structural   CdI2
_chemical_formula_sum   'Cd11 I22'
_cell_volume   1323.21410693
_cell_formula_units_Z   11
loop_
 _symmetry_equiv_pos_site_id
 _symmetry_equiv_pos_as_xyz
  1  'x, y, z'
loop_
 _atom_site_type_symbol
 _atom_site_label
 _atom_site_symmetry_multiplicity
 _atom_site_fract_x
 _atom_site_fract_y
 _atom_site_fract_z
 _atom_site_occupancy
  Cd  Cd0  1  0.00000000  0.00000000  0.20453600  1
  Cd  Cd1  1  0.33333300  0.66666700  0.38636000  1
  Cd  Cd2  1  0.00000000  0.00000000  0.02273100  1
  Cd  Cd3  1  0.00000000  0.00000000  0.65906600  1
  Cd  Cd4  1  0.33333300  0.66666700  0.29544800  1
  Cd  Cd5  1  0.33333300  0.66666700  0.84092500  1
  Cd  Cd6  1  0.33333300  0.66666700  0.93181100  1
  Cd  Cd7  1  0.33333300  0.66666700  0.56818700  1
  Cd  Cd8  1  0.33333300  0.66666700  0.11363500  1
  Cd  Cd9  1  0.00000000  0.00000000  0.47728000  1
  Cd  Cd10  1  0.33333300  0.66666700  0.75000300  1
  I  I0  1  0.66666700  0.33333300  0.58955000  1
  I  I1  1  0.33333300  0.66666700  0.45588600  1
  I  I2  1  0.66666700  0.33333300  0.40774700  1
  I  I3  1  0.33333300  0.66666700  0.63768300  1
  I  I4  1  0.66666700  0.33333300  0.86231000  1
  I  I5  1  0.66666700  0.33333300  0.95317900  1
  I  I6  1  0.00000000  0.00000000  0.27407900  1
  I  I7  1  0.66666700  0.33333300  0.77137600  1
  I  I8  1  0.66666700  0.33333300  0.04411700  1
  I  I9  1  0.00000000  0.00000000  0.09224900  1
  I  I10  1  0.66666700  0.33333300  0.22592100  1
  I  I11  1  0.00000000  0.00000000  0.36497700  1
  I  I12  1  0.33333300  0.66666700  0.00138200  1
  I  I13  1  0.66666700  0.33333300  0.31685400  1
  I  I14  1  0.00000000  0.00000000  0.54681600  1
  I  I15  1  0.00000000  0.00000000  0.72862800  1
  I  I16  1  0.33333300  0.66666700  0.18315800  1
  I  I17  1  0.66666700  0.33333300  0.68045000  1
  I  I18  1  0.00000000  0.00000000  0.91044700  1
  I  I19  1  0.00000000  0.00000000  0.81953800  1
  I  I20  1  0.66666700  0.33333300  0.13501800  1
  I  I21  1  0.66666700  0.33333300  0.49865500  1
loop_
_geom_bond_atom_site_label_1
_geom_bond_atom_site_label_2
_geom_bond_distance
_geom_bond_site_symmetry_2
Cd0 I16 3.047354 1_545
Cd0 I16 3.047357 1_555
Cd0 I16 3.047357 1_445
Cd0 I10 3.047676 1_455
Cd0 I10 3.047679 1_445
Cd0 I10 3.047679 1_555
Cd1 I11 3.047584 1_565
Cd1 I11 3.047587 1_665
Cd1 I11 3.047587 1_555
Cd1 I2 3.047768 1_455
Cd1 I2 3.047768 1_565
Cd1 I2 3.047774 1_555
Cd2 I12 3.046021 1_545
Cd2 I12 3.046024 1_445
Cd2 I12 3.046024 1_555
Cd2 I8 3.047722 1_455
Cd2 I8 3.047725 1_555
Cd2 I8 3.047725 1_445
Cd3 I3 3.047584 1_545
Cd3 I3 3.047587 1_445
Cd3 I3 3.047587 1_555
Cd3 I17 3.047630 1_455
Cd3 I17 3.047633 1_555
Cd3 I17 3.047633 1_445
Cd4 I6 3.046940 1_565
Cd4 I6 3.046943 1_665
Cd4 I6 3.046943 1_555
Cd4 I13 3.048642 1_455
Cd4 I13 3.048642 1_565
Cd4 I13 3.048648 1_555
Cd5 I4 3.047676 1_455
Cd5 I4 3.047676 1_565
Cd5 I4 3.047682 1_555
Cd5 I19 3.047768 1_565
Cd5 I19 3.047771 1_665
Cd5 I19 3.047771 1_555
Cd6 I18 3.046711 1_565
Cd6 I18 3.046713 1_555
Cd6 I18 3.046713 1_665
Cd6 I5 3.046894 1_565
Cd6 I5 3.046894 1_455
Cd6 I5 3.046901 1_555
Cd7 I0 3.046664 1_455
Cd7 I0 3.046664 1_565
Cd7 I0 3.046671 1_555
Cd7 I14 3.047032 1_565
Cd7 I14 3.047035 1_665
Cd7 I14 3.047035 1_555
Cd8 I20 3.047584 1_455
Cd8 I20 3.047584 1_565
Cd8 I20 3.047590 1_555
Cd8 I9 3.047722 1_565
Cd8 I9 3.047725 1_555
Cd8 I9 3.047725 1_665
Cd9 I21 3.047216 1_455
Cd9 I21 3.047219 1_445
Cd9 I21 3.047219 1_555
Cd9 I1 3.048090 1_545
Cd9 I1 3.048093 1_445
Cd9 I1 3.048093 1_555
Cd10 I7 3.047124 1_455
Cd10 I7 3.047124 1_565
Cd10 I7 3.047130 1_555
Cd10 I15 3.047216 1_565
Cd10 I15 3.047219 1_665
Cd10 I15 3.047219 1_555
