# generated using pymatgen
data_PNCl2
_symmetry_space_group_name_H-M   'P 1'
_cell_length_a   13.56074500
_cell_length_b   13.56074500
_cell_length_c   7.72382400
_cell_angle_alpha   90.00000000
_cell_angle_beta   90.00000000
_cell_angle_gamma   90.00000000
_symmetry_Int_Tables_number   1
_chemical_formula_structural   PNCl2
_chemical_formula_sum   'P8 N8 Cl16'
_cell_volume   1420.36338416
_cell_formula_units_Z   8
loop_
 _symmetry_equiv_pos_site_id
 _symmetry_equiv_pos_as_xyz
  1  'x, y, z'
loop_
 _atom_site_type_symbol
 _atom_site_label
 _atom_site_symmetry_multiplicity
 _atom_site_fract_x
 _atom_site_fract_y
 _atom_site_fract_z
 _atom_site_occupancy
  P  P0  1  0.06784700  0.79460200  0.71362900  1
  P  P1  1  0.56784700  0.29460200  0.78637100  1
  P  P2  1  0.93215300  0.20539800  0.71362900  1
  P  P3  1  0.43215300  0.70539800  0.78637100  1
  P  P4  1  0.20539800  0.06784700  0.28637100  1
  P  P5  1  0.70539800  0.56784700  0.21362900  1
  P  P6  1  0.29460200  0.43215300  0.21362900  1
  P  P7  1  0.79460200  0.93215300  0.28637100  1
  N  N0  1  0.34369000  0.34404100  0.29292400  1
  N  N1  1  0.65631000  0.65595900  0.29292400  1
  N  N2  1  0.84369000  0.84404100  0.20707600  1
  N  N3  1  0.15595900  0.84369000  0.79292400  1
  N  N4  1  0.34404100  0.65631000  0.70707600  1
  N  N5  1  0.84404100  0.15631000  0.79292400  1
  N  N6  1  0.15631000  0.15595900  0.20707600  1
  N  N7  1  0.65595900  0.34369000  0.70707600  1
  Cl  Cl0  1  0.25449600  0.94370300  0.17138400  1
  Cl  Cl1  1  0.27280700  0.46041200  0.96002700  1
  Cl  Cl2  1  0.72719300  0.53958800  0.96002700  1
  Cl  Cl3  1  0.96041200  0.22719300  0.46002700  1
  Cl  Cl4  1  0.46041200  0.72719300  0.03997300  1
  Cl  Cl5  1  0.55629700  0.75449600  0.67138400  1
  Cl  Cl6  1  0.03958800  0.77280700  0.46002700  1
  Cl  Cl7  1  0.94370300  0.74550400  0.82861600  1
  Cl  Cl8  1  0.22719300  0.03958800  0.53997300  1
  Cl  Cl9  1  0.75449600  0.44370300  0.32861600  1
  Cl  Cl10  1  0.24550400  0.55629700  0.32861600  1
  Cl  Cl11  1  0.53958800  0.27280700  0.03997300  1
  Cl  Cl12  1  0.05629700  0.25449600  0.82861600  1
  Cl  Cl13  1  0.74550400  0.05629700  0.17138400  1
  Cl  Cl14  1  0.44370300  0.24550400  0.67138400  1
  Cl  Cl15  1  0.77280700  0.96041200  0.53997300  1
loop_
_geom_bond_atom_site_label_1
_geom_bond_atom_site_label_2
_geom_bond_distance
_geom_bond_site_symmetry_2
N0 P6 1.498641 1_555
N1 P5 1.498641 1_555
N2 P7 1.498641 1_555
N3 P0 1.498641 1_555
N4 P3 1.498641 1_555
N5 P2 1.498641 1_555
N6 P4 1.498641 1_555
N7 P1 1.498641 1_555
Cl0 P4 2.016485 1_565
Cl1 P6 2.017675 1_556
Cl2 P5 2.017675 1_556
Cl3 P2 2.017675 1_555
Cl4 P3 2.017675 1_554
Cl5 P3 2.016485 1_555
Cl6 P0 2.017675 1_555
Cl7 P0 2.016485 1_655
Cl8 P4 2.017675 1_555
Cl9 P5 2.016485 1_555
Cl10 P6 2.016485 1_555
Cl11 P1 2.017675 1_554
Cl12 P2 2.016485 1_455
Cl13 P7 2.016485 1_545
Cl14 P1 2.016485 1_555
Cl15 P7 2.017675 1_555
