# generated using pymatgen
data_NaCeH2S2O9
_symmetry_space_group_name_H-M   'P 1'
_cell_length_a   6.96551032
_cell_length_b   6.96551032
_cell_length_c   12.84664706
_cell_angle_alpha   90.00000000
_cell_angle_beta   90.00000000
_cell_angle_gamma   119.99999854
_symmetry_Int_Tables_number   1
_chemical_formula_structural   NaCeH2S2O9
_chemical_formula_sum   'Na3 Ce3 H6 S6 O27'
_cell_volume   539.79183449
_cell_formula_units_Z   3
loop_
 _symmetry_equiv_pos_site_id
 _symmetry_equiv_pos_as_xyz
  1  'x, y, z'
loop_
 _atom_site_type_symbol
 _atom_site_label
 _atom_site_symmetry_multiplicity
 _atom_site_fract_x
 _atom_site_fract_y
 _atom_site_fract_z
 _atom_site_occupancy
  Na  Na0  1  0.99605626  0.46465446  0.84312403  1
  Na  Na1  1  0.53534554  0.53140180  0.50979003  1
  Na  Na2  1  0.46859820  0.00394374  0.17645703  1
  Ce  Ce0  1  0.01175111  0.43178609  0.34164092  1
  Ce  Ce1  1  0.56821391  0.57996502  0.00830792  1
  Ce  Ce2  1  0.42003498  0.98824889  0.67497492  1
  H  H0  1  0.02323869  0.91778549  0.93310101  1
  H  H1  1  0.08221451  0.10545320  0.59976701  1
  H  H2  1  0.08832943  0.00502918  0.33894569  1
  H  H3  1  0.89454680  0.97676131  0.26643401  1
  H  H4  1  0.91669975  0.91167057  0.67227969  1
  H  H5  1  -0.00502918  0.08330025  0.00561269  1
  S  S0  1  0.00893818  0.45006123  0.09500147  1
  S  S1  1  0.44112305  0.99106182  0.42833447  1
  S  S2  1  0.54993877  0.55887695  0.76166747  1
  S  S3  1  0.57183002  0.55605945  0.25579796  1
  S  S4  1  0.44394055  0.01577057  0.92246496  1
  S  S5  1  0.98422943  0.42816998  0.58913096  1
  O  O0  1  0.12547966  0.59912853  0.66497339  1
  O  O1  1  0.15082048  0.63125399  0.16751404  1
  O  O2  1  0.24162785  0.88192535  0.85818686  1
  O  O3  1  0.24174384  0.85494243  0.36413167  1
  O  O4  1  0.11807465  0.35970250  0.52485386  1
  O  O5  1  0.14505757  0.38680141  0.03079867  1
  O  O6  1  0.47364887  0.87452034  0.99830639  1
  O  O7  1  0.48043351  0.84917952  0.50084804  1
  O  O8  1  0.06762935  -0.01357923  0.64499344  1
  O  O9  1  0.36874601  0.51956649  0.83418104  1
  O  O10  1  0.40087147  0.52635113  0.33164039  1
  O  O11  1  0.61319859  0.75825616  0.69746467  1
  O  O12  1  0.64029750  0.75837215  0.19152086  1
  O  O13  1  0.48307475  0.37134123  0.69035477  1
  O  O14  1  0.48741991  0.36952925  0.18181995  1
  O  O15  1  0.40710121  0.14501686  0.49429449  1
  O  O16  1  0.41857588  0.18211379  0.98111732  1
  O  O17  1  0.73791565  0.59289879  0.82762749  1
  O  O18  1  0.76353791  0.58142412  0.31445132  1
  O  O19  1  0.91879142  0.93237065  0.97832644  1
  O  O20  1  0.62865877  0.11173352  0.35702177  1
  O  O21  1  0.63047075  0.11789065  0.84848695  1
  O  O22  1  0.88210935  0.51258009  0.51515295  1
  O  O23  1  0.88826648  0.51692525  0.02368877  1
  O  O24  1  0.81788621  0.23646209  0.64778432  1
  O  O25  1  0.85498314  0.26208435  0.16096049  1
  O  O26  1  0.01357923  0.08120858  0.31165944  1
loop_
_geom_bond_atom_site_label_1
_geom_bond_atom_site_label_2
_geom_bond_distance
_geom_bond_site_symmetry_2
Na0 O17 2.382623 1_555
Na0 O9 2.430153 1_655
Na0 O0 2.466479 1_655
Na0 O21 2.484490 1_555
Na0 O23 2.520006 1_556
Na0 O2 2.537610 1_655
Na0 O5 2.783333 1_656
Na0 O24 2.896793 1_555
Na1 O15 2.382622 1_555
Na1 O7 2.430153 1_555
Na1 O10 2.466468 1_555
Na1 O22 2.484490 1_555
Na1 O13 2.520006 1_555
Na1 O4 2.537611 1_555
Na1 O11 2.783333 1_555
Na1 O18 2.896781 1_555
Na2 O25 2.382623 1_555
Na2 O1 2.430153 1_545
Na2 O6 2.466479 1_544
Na2 O14 2.484490 1_555
Na2 O20 2.520006 1_555
Na2 O12 2.537611 1_545
Na2 O3 2.783333 1_545
Na2 O16 2.896793 1_554
Ce0 O18 2.449426 1_455
Ce0 O10 2.451822 1_555
Ce0 O26 2.478454 1_555
Ce0 O20 2.486096 1_455
Ce0 O1 2.554764 1_555
Ce0 O22 2.570799 1_455
Ce0 O3 2.572110 1_555
Ce0 O25 2.585840 1_455
Ce0 O4 2.590794 1_555
Ce1 O16 2.449428 1_554
Ce1 O6 2.451823 1_554
Ce1 O19 2.478454 1_554
Ce1 O23 2.486096 1_555
Ce1 O9 2.554764 1_554
Ce1 O14 2.570799 1_555
Ce1 O5 2.572110 1_555
Ce1 O17 2.585840 1_554
Ce1 O12 2.590794 1_555
Ce2 O24 2.449428 1_565
Ce2 O0 2.451823 1_555
Ce2 O8 2.478454 1_565
Ce2 O13 2.486095 1_565
Ce2 O7 2.554763 1_555
Ce2 O21 2.570799 1_565
Ce2 O11 2.572109 1_555
Ce2 O15 2.585840 1_565
Ce2 O2 2.590782 1_555
H0 O19 0.975236 1_455
H1 O8 0.975244 1_555
H2 O26 0.975616 1_555
H3 O26 0.975236 1_665
H4 O8 0.975616 1_665
H5 O19 0.975616 1_444
O0 S5 1.470966 1_455
O1 S0 1.479885 1_555
O2 S4 1.491016 1_565
O3 S1 1.480270 1_555
O4 S5 1.491009 1_455
O5 S0 1.480270 1_555
O6 S4 1.470957 1_565
O7 S1 1.479893 1_555
O9 S2 1.479893 1_555
O10 S3 1.470966 1_555
O11 S2 1.480270 1_555
O12 S3 1.491009 1_555
O13 S2 1.467716 1_555
O14 S3 1.474143 1_555
O15 S1 1.475909 1_545
O16 S4 1.464982 1_555
O17 S2 1.475909 1_555
O18 S3 1.464989 1_555
O20 S1 1.467716 1_545
O21 S4 1.474143 1_555
O22 S5 1.474143 1_555
O23 S0 1.467716 1_655
O24 S5 1.464989 1_555
O25 S0 1.475901 1_655
