# generated using pymatgen
data_Zn7(SbO6)2
_symmetry_space_group_name_H-M   'P 1'
_cell_length_a   6.17622560
_cell_length_b   6.17622560
_cell_length_c   13.67970790
_cell_angle_alpha   78.04667658
_cell_angle_beta   78.04667658
_cell_angle_gamma   89.99590674
_symmetry_Int_Tables_number   1
_chemical_formula_structural   Zn7(SbO6)2
_chemical_formula_sum   'Zn14 Sb4 O24'
_cell_volume   498.93829646
_cell_formula_units_Z   2
loop_
 _symmetry_equiv_pos_site_id
 _symmetry_equiv_pos_as_xyz
  1  'x, y, z'
loop_
 _atom_site_type_symbol
 _atom_site_label
 _atom_site_symmetry_multiplicity
 _atom_site_fract_x
 _atom_site_fract_y
 _atom_site_fract_z
 _atom_site_occupancy
  Zn  Zn0  1  0.69870800  0.98652400  0.57604000  1
  Zn  Zn1  1  0.01347600  0.30129200  0.92396000  1
  Zn  Zn2  1  0.33352600  0.81771000  0.84025000  1
  Zn  Zn3  1  0.98652400  0.69870800  0.07604000  1
  Zn  Zn4  1  0.36008100  0.63991900  0.25000000  1
  Zn  Zn5  1  0.81771000  0.33352600  0.34025000  1
  Zn  Zn6  1  0.66647400  0.18229000  0.15975000  1
  Zn  Zn7  1  0.30129200  0.01347600  0.42396000  1
  Zn  Zn8  1  0.18229000  0.66647400  0.65975000  1
  Zn  Zn9  1  0.50000000  0.50000000  0.50000000  1
  Zn  Zn10  1  0.00000000  0.50000000  0.50000000  1
  Zn  Zn11  1  0.63991900  0.36008100  0.75000000  1
  Zn  Zn12  1  0.50000000  0.00000000  0.00000000  1
  Zn  Zn13  1  0.50000000  0.50000000  0.00000000  1
  Sb  Sb0  1  0.82468900  0.83040100  0.33526900  1
  Sb  Sb1  1  0.17531100  0.16959900  0.66473100  1
  Sb  Sb2  1  0.83040100  0.82468900  0.83526900  1
  Sb  Sb3  1  0.16959900  0.17531100  0.16473100  1
  O  O0  1  0.28640400  0.74907400  0.99437000  1
  O  O1  1  0.92550600  0.39105900  0.17315600  1
  O  O2  1  0.23958000  0.24270400  0.01221800  1
  O  O3  1  0.60894100  0.07449400  0.32684400  1
  O  O4  1  0.92505500  0.92890200  0.17609700  1
  O  O5  1  0.75729600  0.76042000  0.48778200  1
  O  O6  1  0.25092600  0.71359600  0.50563000  1
  O  O7  1  0.39679200  0.39732100  0.67074800  1
  O  O8  1  0.60320800  0.60267900  0.32925200  1
  O  O9  1  0.94876100  0.40018800  0.66431400  1
  O  O10  1  0.24270400  0.23958000  0.51221800  1
  O  O11  1  0.74907400  0.28640400  0.49437000  1
  O  O12  1  0.07494500  0.07109800  0.82390300  1
  O  O13  1  0.59981200  0.05123900  0.83568600  1
  O  O14  1  0.76042000  0.75729600  0.98778200  1
  O  O15  1  0.39105900  0.92550600  0.67315600  1
  O  O16  1  0.92890200  0.92505500  0.67609700  1
  O  O17  1  0.07449400  0.60894100  0.82684400  1
  O  O18  1  0.60267900  0.60320800  0.82925200  1
  O  O19  1  0.39732100  0.39679200  0.17074800  1
  O  O20  1  0.07109800  0.07494500  0.32390300  1
  O  O21  1  0.71359600  0.25092600  0.00563000  1
  O  O22  1  0.40018800  0.94876100  0.16431400  1
  O  O23  1  0.05123900  0.59981200  0.33568600  1
loop_
_geom_bond_atom_site_label_1
_geom_bond_atom_site_label_2
_geom_bond_distance
_geom_bond_site_symmetry_2
O0 Zn3 1.942757 1_456
O0 Zn2 2.021147 1_555
O0 Zn13 2.026195 1_556
O0 Zn12 2.059099 1_566
O1 Sb3 2.013205 1_655
O1 Zn3 2.065057 1_555
O1 Zn6 2.115529 1_555
O1 Zn5 2.197177 1_555
O2 Sb3 1.994900 1_555
O2 Zn1 2.013976 1_554
O2 Zn12 2.203178 1_555
O2 Zn13 2.217929 1_555
O3 Sb0 2.013205 1_545
O3 Zn7 2.065057 1_555
O3 Zn5 2.115529 1_555
O3 Zn6 2.197177 1_555
O4 Sb0 2.094703 1_555
O4 Sb3 2.103926 1_665
O4 Zn3 2.151671 1_555
O4 Zn6 2.247748 1_565
O5 Sb0 1.994900 1_555
O5 Zn0 2.013976 1_555
O5 Zn10 2.203178 1_655
O5 Zn9 2.217929 1_555
O6 Zn7 1.942757 1_565
O6 Zn8 2.021147 1_555
O6 Zn9 2.026195 1_555
O6 Zn10 2.059099 1_555
O7 Sb1 1.987706 1_555
O7 Zn11 2.013480 1_555
O7 Zn8 2.125987 1_555
O7 Zn9 2.243678 1_555
O8 Sb0 1.987706 1_555
O8 Zn4 2.013480 1_555
O8 Zn5 2.125987 1_555
O8 Zn9 2.243678 1_555
O9 Sb1 1.996441 1_655
O9 Zn11 2.006844 1_555
O9 Zn10 2.159635 1_655
O9 Zn8 2.170152 1_655
O10 Sb1 1.994900 1_555
O10 Zn7 2.013976 1_555
O10 Zn10 2.203178 1_555
O10 Zn9 2.217929 1_555
O11 Zn0 1.942757 1_545
O11 Zn5 2.021147 1_555
O11 Zn9 2.026195 1_555
O11 Zn10 2.059099 1_655
O12 Sb1 2.094703 1_555
O12 Sb2 2.103926 1_445
O12 Zn1 2.151671 1_555
O12 Zn2 2.247748 1_545
O13 Sb2 1.996441 1_545
O13 Zn11 2.006844 1_555
O13 Zn12 2.159635 1_556
O13 Zn2 2.170152 1_545
O14 Sb2 1.994900 1_555
O14 Zn3 2.013976 1_556
O14 Zn12 2.203178 1_566
O14 Zn13 2.217929 1_556
O15 Sb1 2.013205 1_565
O15 Zn0 2.065057 1_555
O15 Zn8 2.115529 1_555
O15 Zn2 2.197177 1_555
O16 Sb2 2.094703 1_555
O16 Sb1 2.103926 1_665
O16 Zn0 2.151671 1_555
O16 Zn8 2.247748 1_655
O17 Sb2 2.013205 1_455
O17 Zn1 2.065057 1_555
O17 Zn2 2.115529 1_555
O17 Zn8 2.197177 1_555
O18 Sb2 1.987706 1_555
O18 Zn11 2.013480 1_555
O18 Zn2 2.125987 1_555
O18 Zn13 2.243678 1_556
O19 Sb3 1.987706 1_555
O19 Zn4 2.013480 1_555
O19 Zn6 2.125987 1_555
O19 Zn13 2.243678 1_555
O20 Sb3 2.094703 1_555
O20 Sb0 2.103926 1_445
O20 Zn7 2.151671 1_555
O20 Zn5 2.247748 1_455
O21 Zn1 1.942757 1_654
O21 Zn6 2.021147 1_555
O21 Zn13 2.026195 1_555
O21 Zn12 2.059099 1_555
O22 Sb3 1.996441 1_565
O22 Zn4 2.006844 1_555
O22 Zn12 2.159635 1_565
O22 Zn6 2.170152 1_565
O23 Sb0 1.996441 1_455
O23 Zn4 2.006844 1_555
O23 Zn10 2.159635 1_555
O23 Zn5 2.170152 1_455
