# generated using pymatgen
data_Yb11(Sm2Se11)2
_symmetry_space_group_name_H-M   'P 1'
_cell_length_a   21.38754223
_cell_length_b   21.38754223
_cell_length_c   11.89913294
_cell_angle_alpha   82.49778359
_cell_angle_beta   82.49778359
_cell_angle_gamma   11.34934201
_symmetry_Int_Tables_number   1
_chemical_formula_structural   Yb11(Sm2Se11)2
_chemical_formula_sum   'Yb11 Sm4 Se22'
_cell_volume   1061.86791926
_cell_formula_units_Z   1
loop_
 _symmetry_equiv_pos_site_id
 _symmetry_equiv_pos_as_xyz
  1  'x, y, z'
loop_
 _atom_site_type_symbol
 _atom_site_label
 _atom_site_symmetry_multiplicity
 _atom_site_fract_x
 _atom_site_fract_y
 _atom_site_fract_z
 _atom_site_occupancy
  Yb  Yb0  1  0.06279900  0.06279900  0.16282300  1
  Yb  Yb1  1  0.93720100  0.93720100  0.83717700  1
  Yb  Yb2  1  0.20129000  0.20129000  0.52281700  1
  Yb  Yb3  1  0.46119700  0.46119700  0.20170500  1
  Yb  Yb4  1  0.73336900  0.73336900  0.86140700  1
  Yb  Yb5  1  0.66112200  0.66112200  0.18073700  1
  Yb  Yb6  1  0.26663100  0.26663100  0.13859300  1
  Yb  Yb7  1  0.00000000  0.00000000  0.50000000  1
  Yb  Yb8  1  0.79871000  0.79871000  0.47718300  1
  Yb  Yb9  1  0.33887800  0.33887800  0.81926300  1
  Yb  Yb10  1  0.53880300  0.53880300  0.79829500  1
  Sm  Sm0  1  0.37451100  0.37451100  0.15923100  1
  Sm  Sm1  1  0.10910500  0.10910500  0.49813800  1
  Sm  Sm2  1  0.62548900  0.62548900  0.84076900  1
  Sm  Sm3  1  0.89089500  0.89089500  0.50186200  1
  Se  Se0  1  0.85912700  0.85912700  0.98839400  1
  Se  Se1  1  0.26407100  0.26407100  0.37918300  1
  Se  Se2  1  0.27534700  0.27534700  0.89642900  1
  Se  Se3  1  0.99987600  0.99987600  0.73557600  1
  Se  Se4  1  0.00012400  0.00012400  0.26442400  1
  Se  Se5  1  0.14087300  0.14087300  0.01160600  1
  Se  Se6  1  0.55170600  0.55170600  0.50481300  1
  Se  Se7  1  0.73592900  0.73592900  0.62081700  1
  Se  Se8  1  0.72465300  0.72465300  0.10357100  1
  Se  Se9  1  0.91160700  0.91160700  0.25184500  1
  Se  Se10  1  0.83447200  0.83447200  0.66731600  1
  Se  Se11  1  0.43507800  0.43507800  0.99377000  1
  Se  Se12  1  0.41214100  0.41214100  0.67356500  1
  Se  Se13  1  0.58785900  0.58785900  0.32643500  1
  Se  Se14  1  0.16552800  0.16552800  0.33268400  1
  Se  Se15  1  0.82032500  0.82032500  0.16175200  1
  Se  Se16  1  0.64678300  0.64678300  0.58692400  1
  Se  Se17  1  0.35321700  0.35321700  0.41307600  1
  Se  Se18  1  0.44829400  0.44829400  0.49518700  1
  Se  Se19  1  0.17967500  0.17967500  0.83824800  1
  Se  Se20  1  0.08839300  0.08839300  0.74815500  1
  Se  Se21  1  0.56492200  0.56492200  0.00623000  1
loop_
_geom_bond_atom_site_label_1
_geom_bond_atom_site_label_2
_geom_bond_distance
_geom_bond_site_symmetry_2
Se0 Se15 2.467591 1_556
Se0 Sm0 3.063136 1_566
Se0 Sm0 3.063136 1_656
Se0 Yb9 3.117795 1_565
Se0 Yb9 3.117795 1_655
Se0 Yb1 3.565463 1_555
Se1 Yb6 2.850563 1_555
Se1 Yb8 2.908144 1_545
Se1 Yb8 2.908144 1_455
Se1 Yb2 2.977208 1_555
Se2 Yb9 2.739408 1_555
Se2 Yb4 2.834454 1_455
Se2 Yb4 2.834454 1_545
Se2 Yb6 2.856639 1_556
Se3 Yb1 2.780709 1_555
Se3 Yb7 2.802462 1_665
Se3 Yb10 2.845927 1_655
Se3 Yb10 2.845927 1_565
Se4 Yb0 2.780709 1_555
Se4 Yb7 2.802462 1_555
Se4 Yb3 2.845927 1_455
Se4 Yb3 2.845927 1_545
Se5 Sm2 3.063136 1_544
Se5 Sm2 3.063136 1_454
Se5 Yb5 3.117795 1_455
Se5 Yb5 3.117795 1_545
Se5 Yb0 3.565463 1_555
Se6 Yb7 3.058208 1_655
Se6 Yb7 3.058208 1_565
Se6 Sm1 3.224446 1_655
Se6 Sm1 3.224446 1_565
Se6 Yb10 3.463188 1_555
Se7 Yb4 2.850563 1_555
Se7 Yb2 2.908144 1_565
Se7 Yb2 2.908144 1_655
Se7 Yb8 2.977208 1_555
Se8 Yb5 2.739408 1_555
Se8 Yb6 2.834454 1_565
Se8 Yb6 2.834454 1_655
Se8 Yb4 2.856639 1_554
Se9 Sm0 2.938831 1_655
Se9 Sm0 2.938831 1_565
Se9 Sm3 2.989904 1_555
Se9 Yb3 2.992226 1_655
Se9 Yb3 2.992226 1_565
Se10 Yb9 2.804553 1_565
Se10 Yb9 2.804553 1_655
Se10 Yb8 2.887809 1_555
Se10 Sm3 2.898837 1_555
Se11 Yb1 2.812172 1_545
Se11 Yb1 2.812172 1_455
Se11 Yb3 2.842493 1_556
Se11 Sm0 3.031630 1_556
Se12 Se18 2.452790 1_555
Se12 Yb1 3.153623 1_545
Se12 Yb1 3.153623 1_455
Se12 Sm3 3.154266 1_545
Se12 Sm3 3.154266 1_455
Se12 Yb9 3.363301 1_555
Se13 Se6 2.452790 1_555
Se13 Yb0 3.153623 1_655
Se13 Yb0 3.153623 1_565
Se13 Sm1 3.154266 1_655
Se13 Sm1 3.154266 1_565
Se13 Yb5 3.363301 1_555
Se14 Yb5 2.804553 1_455
Se14 Yb5 2.804553 1_545
Se14 Yb2 2.887809 1_555
Se14 Sm1 2.898837 1_555
Se15 Sm0 3.126473 1_655
Se15 Sm0 3.126473 1_565
Se15 Yb6 3.152322 1_565
Se15 Yb6 3.152322 1_655
Se15 Yb8 3.745394 1_555
Se16 Sm1 2.933470 1_655
Se16 Sm1 2.933470 1_565
Se16 Sm2 3.037555 1_555
Se16 Yb2 3.157968 1_565
Se16 Yb2 3.157968 1_655
Se17 Sm3 2.933470 1_545
Se17 Sm3 2.933470 1_455
Se17 Sm0 3.037555 1_555
Se17 Yb8 3.157968 1_455
Se17 Yb8 3.157968 1_545
Se18 Yb7 3.058208 1_565
Se18 Yb7 3.058208 1_655
Se18 Sm3 3.224446 1_455
Se18 Sm3 3.224446 1_545
Se18 Yb3 3.463188 1_555
Se19 Se5 2.467591 1_556
Se19 Sm2 3.126473 1_545
Se19 Sm2 3.126473 1_455
Se19 Yb4 3.152322 1_455
Se19 Yb4 3.152322 1_545
Se19 Yb2 3.745394 1_555
Se20 Sm2 2.938831 1_455
Se20 Sm2 2.938831 1_545
Se20 Sm1 2.989904 1_555
Se20 Yb10 2.992226 1_545
Se20 Yb10 2.992226 1_455
Se21 Yb0 2.812172 1_655
Se21 Yb0 2.812172 1_565
Se21 Yb10 2.842493 1_554
Se21 Sm2 3.031630 1_554
