# generated using pymatgen
data_GaAg(PSe3)2
_symmetry_space_group_name_H-M   'P 1'
_cell_length_a   7.72230900
_cell_length_b   12.33811000
_cell_length_c   23.04663100
_cell_angle_alpha   90.00000000
_cell_angle_beta   90.00000000
_cell_angle_gamma   90.00000000
_symmetry_Int_Tables_number   1
_chemical_formula_structural   GaAg(PSe3)2
_chemical_formula_sum   'Ga8 Ag8 P16 Se48'
_cell_volume   2195.85299257
_cell_formula_units_Z   8
loop_
 _symmetry_equiv_pos_site_id
 _symmetry_equiv_pos_as_xyz
  1  'x, y, z'
loop_
 _atom_site_type_symbol
 _atom_site_label
 _atom_site_symmetry_multiplicity
 _atom_site_fract_x
 _atom_site_fract_y
 _atom_site_fract_z
 _atom_site_occupancy
  Ga  Ga0  1  0.72941700  0.86439300  0.34219000  1
  Ga  Ga1  1  0.77058300  0.13560700  0.84219000  1
  Ga  Ga2  1  0.27058300  0.13560700  0.65781000  1
  Ga  Ga3  1  0.22941700  0.86439300  0.15781000  1
  Ga  Ga4  1  0.22941700  0.63560700  0.65781000  1
  Ga  Ga5  1  0.27058300  0.36439300  0.15781000  1
  Ga  Ga6  1  0.72941700  0.63560700  0.84219000  1
  Ga  Ga7  1  0.77058300  0.36439300  0.34219000  1
  Ag  Ag0  1  0.84253200  0.89956300  0.51645200  1
  Ag  Ag1  1  0.65746800  0.39956300  0.51645200  1
  Ag  Ag2  1  0.84253200  0.60043700  0.01645200  1
  Ag  Ag3  1  0.34253200  0.60043700  0.48354800  1
  Ag  Ag4  1  0.15746800  0.39956300  0.98354800  1
  Ag  Ag5  1  0.65746800  0.10043700  0.01645200  1
  Ag  Ag6  1  0.34253200  0.89956300  0.98354800  1
  Ag  Ag7  1  0.15746800  0.10043700  0.48354800  1
  P  P0  1  0.54503400  0.90122600  0.84334700  1
  P  P1  1  0.75825400  0.87010700  0.91248800  1
  P  P2  1  0.75825400  0.62989300  0.41248800  1
  P  P3  1  0.24174600  0.37010700  0.58751200  1
  P  P4  1  0.04503400  0.90122600  0.65665300  1
  P  P5  1  0.45496600  0.40122600  0.65665300  1
  P  P6  1  0.95496600  0.40122600  0.84334700  1
  P  P7  1  0.74174600  0.37010700  0.91248800  1
  P  P8  1  0.04503400  0.59877400  0.15665300  1
  P  P9  1  0.25825400  0.62989300  0.08751200  1
  P  P10  1  0.25825400  0.87010700  0.58751200  1
  P  P11  1  0.95496600  0.09877400  0.34334700  1
  P  P12  1  0.54503400  0.59877400  0.34334700  1
  P  P13  1  0.74174600  0.12989300  0.41248800  1
  P  P14  1  0.45496600  0.09877400  0.15665300  1
  P  P15  1  0.24174600  0.12989300  0.08751200  1
  Se  Se0  1  0.37066700  0.03644400  0.56923100  1
  Se  Se1  1  0.54418300  0.26681800  0.86794300  1
  Se  Se2  1  0.67365300  0.48905700  0.61999500  1
  Se  Se3  1  0.81395300  0.00578600  0.27397200  1
  Se  Se4  1  0.62933300  0.53644400  0.93076900  1
  Se  Se5  1  0.65102900  0.69610200  0.49279400  1
  Se  Se6  1  0.12933300  0.53644400  0.56923100  1
  Se  Se7  1  0.02509200  0.26298300  0.30856500  1
  Se  Se8  1  0.12933300  0.96355600  0.06923100  1
  Se  Se9  1  0.81395300  0.49421400  0.77397200  1
  Se  Se10  1  0.32634700  0.98905700  0.88000500  1
  Se  Se11  1  0.65102900  0.80389800  0.99279400  1
  Se  Se12  1  0.18604700  0.99421400  0.72602800  1
  Se  Se13  1  0.87066700  0.46355600  0.43076900  1
  Se  Se14  1  0.52509200  0.23701700  0.69143500  1
  Se  Se15  1  0.02509200  0.23701700  0.80856500  1
  Se  Se16  1  0.31395300  0.49421400  0.72602800  1
  Se  Se17  1  0.34897100  0.30389800  0.50720600  1
  Se  Se18  1  0.45581700  0.73318200  0.13205700  1
  Se  Se19  1  0.87066700  0.03644400  0.93076900  1
  Se  Se20  1  0.84897100  0.30389800  0.99279400  1
  Se  Se21  1  0.95581700  0.73318200  0.36794300  1
  Se  Se22  1  0.37066700  0.46355600  0.06923100  1
  Se  Se23  1  0.04418300  0.26681800  0.63205700  1
  Se  Se24  1  0.52509200  0.26298300  0.19143500  1
  Se  Se25  1  0.68604700  0.50578600  0.27397200  1
  Se  Se26  1  0.62933300  0.96355600  0.43076900  1
  Se  Se27  1  0.54418300  0.23318200  0.36794300  1
  Se  Se28  1  0.31395300  0.00578600  0.22602800  1
  Se  Se29  1  0.15102900  0.80389800  0.50720600  1
  Se  Se30  1  0.17365300  0.01094300  0.38000500  1
  Se  Se31  1  0.97490800  0.73701700  0.69143500  1
  Se  Se32  1  0.34897100  0.19610200  0.00720600  1
  Se  Se33  1  0.82634700  0.98905700  0.61999500  1
  Se  Se34  1  0.84897100  0.19610200  0.49279400  1
  Se  Se35  1  0.67365300  0.01094300  0.11999500  1
  Se  Se36  1  0.95581700  0.76681800  0.86794300  1
  Se  Se37  1  0.47490800  0.73701700  0.80856500  1
  Se  Se38  1  0.18604700  0.50578600  0.22602800  1
  Se  Se39  1  0.97490800  0.76298300  0.19143500  1
  Se  Se40  1  0.04418300  0.23318200  0.13205700  1
  Se  Se41  1  0.32634700  0.51094300  0.38000500  1
  Se  Se42  1  0.15102900  0.69610200  0.00720600  1
  Se  Se43  1  0.45581700  0.76681800  0.63205700  1
  Se  Se44  1  0.68604700  0.99421400  0.77397200  1
  Se  Se45  1  0.17365300  0.48905700  0.88000500  1
  Se  Se46  1  0.47490800  0.76298300  0.30856500  1
  Se  Se47  1  0.82634700  0.51094300  0.11999500  1
loop_
_geom_bond_atom_site_label_1
_geom_bond_atom_site_label_2
_geom_bond_distance
_geom_bond_site_symmetry_2
Ga0 Se3 2.437482 1_565
Ga0 Se46 2.455370 1_555
Ga0 Se21 2.455555 1_555
Ga0 Se26 2.502352 1_555
Ga1 Se44 2.437482 1_545
Ga1 Se15 2.455370 1_655
Ga1 Se1 2.455555 1_555
Ga1 Se19 2.502352 1_555
Ga2 Se12 2.437482 1_545
Ga2 Se14 2.455370 1_555
Ga2 Se23 2.455555 1_555
Ga2 Se0 2.502352 1_555
Ga3 Se28 2.437482 1_565
Ga3 Se39 2.455370 1_455
Ga3 Se18 2.455555 1_555
Ga3 Se8 2.502352 1_555
Ga4 Se16 2.437482 1_555
Ga4 Se31 2.455370 1_455
Ga4 Se43 2.455555 1_555
Ga4 Se6 2.502352 1_555
Ga5 Se38 2.437482 1_555
Ga5 Se24 2.455370 1_555
Ga5 Se40 2.455555 1_555
Ga5 Se22 2.502352 1_555
Ga6 Se9 2.437482 1_555
Ga6 Se37 2.455370 1_555
Ga6 Se36 2.455555 1_555
Ga6 Se4 2.502352 1_555
Ga7 Se25 2.437482 1_555
Ga7 Se7 2.455370 1_655
Ga7 Se27 2.455555 1_555
Ga7 Se13 2.502352 1_555
Ag0 Se33 2.632368 1_555
Ag0 Se29 2.667203 1_655
Ag0 Se26 2.689507 1_555
Ag0 Se5 2.964118 1_555
Ag1 Se2 2.632368 1_555
Ag1 Se17 2.667203 1_555
Ag1 Se13 2.689507 1_555
Ag1 Se34 2.964118 1_555
Ag2 Se47 2.632368 1_555
Ag2 Se42 2.667203 1_655
Ag2 Se4 2.689507 1_554
Ag2 Se11 2.964118 1_554
Ag3 Se41 2.632368 1_555
Ag3 Se5 2.667203 1_555
Ag3 Se6 2.689507 1_555
Ag3 Se29 2.964118 1_555
Ag4 Se45 2.632368 1_555
Ag4 Se20 2.667203 1_455
Ag4 Se22 2.689507 1_556
Ag4 Se32 2.964118 1_556
Ag5 Se35 2.632368 1_555
Ag5 Se32 2.667203 1_555
Ag5 Se19 2.689507 1_554
Ag5 Se20 2.964118 1_554
Ag6 Se10 2.632368 1_555
Ag6 Se11 2.667203 1_555
Ag6 Se8 2.689507 1_556
Ag6 Se42 2.964118 1_556
Ag7 Se30 2.632368 1_555
Ag7 Se34 2.667203 1_455
Ag7 Se0 2.689507 1_555
Ag7 Se17 2.964118 1_555
P0 Se10 2.177163 1_555
P0 Se37 2.245134 1_555
P0 Se44 2.249099 1_555
P0 P1 2.323292 1_555
P1 Se11 2.185941 1_555
P1 Se36 2.237318 1_555
P1 Se19 2.267808 1_565
P2 Se5 2.185941 1_555
P2 Se21 2.237318 1_555
P2 Se13 2.267808 1_555
P3 Se17 2.185941 1_555
P3 Se23 2.237318 1_555
P3 Se6 2.267808 1_555
P3 P5 2.323292 1_555
P4 Se33 2.177163 1_455
P4 Se31 2.245134 1_455
P4 Se12 2.249099 1_555
P5 Se2 2.177163 1_555
P5 Se14 2.245134 1_555
P5 Se16 2.249099 1_555
P6 Se45 2.177163 1_655
P6 Se15 2.245134 1_655
P6 Se9 2.249099 1_555
P6 P7 2.323292 1_555
P7 Se20 2.185941 1_555
P7 Se1 2.237318 1_555
P7 Se4 2.267808 1_555
P8 Se47 2.177163 1_455
P8 Se39 2.245134 1_455
P8 Se38 2.249099 1_555
P8 P9 2.323292 1_555
P9 Se42 2.185941 1_555
P9 Se18 2.237318 1_555
P9 Se22 2.267808 1_555
P10 Se29 2.185941 1_555
P10 Se43 2.237318 1_555
P10 Se0 2.267808 1_565
P10 P4 2.323292 1_555
P11 Se30 2.177163 1_655
P11 Se7 2.245134 1_655
P11 Se3 2.249099 1_555
P11 P13 2.323292 1_555
P12 Se41 2.177163 1_555
P12 Se46 2.245134 1_555
P12 Se25 2.249099 1_555
P12 P2 2.323292 1_555
P13 Se34 2.185941 1_555
P13 Se27 2.237318 1_555
P13 Se26 2.267808 1_545
P14 Se35 2.177163 1_555
P14 Se24 2.245134 1_555
P14 Se28 2.249099 1_555
P14 P15 2.323292 1_555
P15 Se32 2.185941 1_555
P15 Se40 2.237318 1_555
P15 Se8 2.267808 1_545
