# generated using pymatgen
data_VP(H2O3)2
_symmetry_space_group_name_H-M   'P 1'
_cell_length_a   9.98106700
_cell_length_b   5.33993000
_cell_length_c   10.19467525
_cell_angle_alpha   60.02821686
_cell_angle_beta   90.00000000
_cell_angle_gamma   90.00000000
_symmetry_Int_Tables_number   1
_chemical_formula_structural   VP(H2O3)2
_chemical_formula_sum   'V4 P4 H16 O24'
_cell_volume   470.69542376
_cell_formula_units_Z   4
loop_
 _symmetry_equiv_pos_site_id
 _symmetry_equiv_pos_as_xyz
  1  'x, y, z'
loop_
 _atom_site_type_symbol
 _atom_site_label
 _atom_site_symmetry_multiplicity
 _atom_site_fract_x
 _atom_site_fract_y
 _atom_site_fract_z
 _atom_site_occupancy
  V  V0  1  0.82344800  0.39480600  0.69735500  1
  V  V1  1  0.67655200  0.39480600  0.19735500  1
  V  V2  1  0.17655200  0.60519400  0.30264500  1
  V  V3  1  0.32344800  0.60519400  0.80264500  1
  P  P0  1  0.64381400  0.77099400  0.81992000  1
  P  P1  1  0.85618600  0.77099400  0.31992000  1
  P  P2  1  0.35618600  0.22900600  0.18008000  1
  P  P3  1  0.14381400  0.22900600  0.68008000  1
  H  H0  1  0.03890200  0.61703300  0.72440500  1
  H  H1  1  0.46109800  0.61703300  0.22440500  1
  H  H2  1  0.96109800  0.38296700  0.27559500  1
  H  H3  1  0.53890200  0.38296700  0.77559500  1
  H  H4  1  0.94342200  0.90309500  0.66863300  1
  H  H5  1  0.55657800  0.90309500  0.16863300  1
  H  H6  1  0.05657800  0.09690500  0.33136700  1
  H  H7  1  0.44342200  0.09690500  0.83136700  1
  H  H8  1  0.84212700  0.20953700  0.00062800  1
  H  H9  1  0.65787300  0.20953700  0.50062800  1
  H  H10  1  0.15787300  0.79046300  0.99937200  1
  H  H11  1  0.34212700  0.79046300  0.49937200  1
  H  H12  1  0.83544100  0.93972700  0.97564000  1
  H  H13  1  0.66455900  0.93972700  0.47564000  1
  H  H14  1  0.16455900  0.06027300  0.02436000  1
  H  H15  1  0.33544100  0.06027300  0.52436000  1
  O  O0  1  0.66554700  0.58595500  0.74169800  1
  O  O1  1  0.83445300  0.58595500  0.24169800  1
  O  O2  1  0.33445300  0.41404500  0.25830200  1
  O  O3  1  0.16554700  0.41404500  0.75830200  1
  O  O4  1  0.71929200  0.63891800  0.97257100  1
  O  O5  1  0.78070800  0.63891800  0.47257100  1
  O  O6  1  0.28070800  0.36108200  0.02742900  1
  O  O7  1  0.21929200  0.36108200  0.52742900  1
  O  O8  1  0.69747900  0.08042200  0.71341100  1
  O  O9  1  0.80252100  0.08042200  0.21341100  1
  O  O10  1  0.30252100  0.91957800  0.28658900  1
  O  O11  1  0.19747900  0.91957800  0.78658900  1
  O  O12  1  0.48997200  0.78543100  0.84222700  1
  O  O13  1  0.01002800  0.78543100  0.34222700  1
  O  O14  1  0.51002800  0.21456900  0.15777300  1
  O  O15  1  0.98997200  0.21456900  0.65777300  1
  O  O16  1  0.94563300  0.69724500  0.69292900  1
  O  O17  1  0.55436700  0.69724500  0.19292900  1
  O  O18  1  0.05436700  0.30275500  0.30707100  1
  O  O19  1  0.44563300  0.30275500  0.80707100  1
  O  O20  1  0.86208300  0.14539100  0.92740700  1
  O  O21  1  0.63791700  0.14539100  0.42740700  1
  O  O22  1  0.13791700  0.85460900  0.07259300  1
  O  O23  1  0.36208300  0.85460900  0.57259300  1
loop_
_geom_bond_atom_site_label_1
_geom_bond_atom_site_label_2
_geom_bond_distance
_geom_bond_site_symmetry_2
H0 O16 1.007832 1_455
H0 O3 1.586795 1_555
H1 O17 1.007832 1_555
H1 O2 1.586795 1_555
H2 O18 1.007832 1_655
H2 O1 1.586795 1_555
H3 O19 1.007832 1_555
H3 O0 1.586795 1_555
H4 O16 0.999048 1_555
H4 O15 1.676466 1_565
H5 O17 0.999048 1_555
H5 O14 1.676466 1_565
H6 O18 0.999048 1_555
H6 O13 1.676466 1_545
H7 O19 0.999048 1_555
H7 O12 1.676466 1_545
H8 O20 0.984726 1_554
H9 O21 0.984726 1_555
H10 O22 0.984726 1_556
H11 O23 0.984726 1_555
H12 O20 0.989470 1_565
H13 O21 0.989470 1_565
H14 O22 0.989470 1_545
H15 O23 0.989470 1_545
O0 P0 1.564158 1_555
O0 V0 2.047220 1_555
O1 P1 1.564158 1_555
O1 V1 2.047220 1_555
O2 P2 1.564158 1_555
O2 V2 2.047220 1_555
O3 P3 1.564158 1_555
O3 V3 2.047220 1_555
O4 P0 1.546015 1_555
O4 V1 2.036660 1_556
O5 P1 1.546015 1_555
O5 V0 2.036660 1_555
O6 P2 1.546015 1_555
O6 V3 2.036660 1_554
O7 P3 1.546015 1_555
O7 V2 2.036660 1_555
O8 P0 1.550319 1_545
O8 V0 2.037494 1_555
O9 P1 1.550319 1_545
O9 V1 2.037494 1_555
O10 P2 1.550319 1_565
O10 V2 2.037494 1_555
O11 P3 1.550319 1_565
O11 V3 2.037494 1_555
O12 P0 1.559795 1_555
O12 V3 2.059059 1_555
O13 P1 1.559795 1_455
O13 V2 2.059059 1_555
O14 P2 1.559795 1_555
O14 V1 2.059059 1_555
O15 P3 1.559795 1_655
O15 V0 2.059059 1_555
O16 V0 2.006173 1_555
O17 V1 2.006173 1_555
O18 V2 2.006173 1_555
O19 V3 2.006173 1_555
O20 V0 2.074140 1_555
O21 V1 2.074140 1_555
O22 V2 2.074140 1_555
O23 V3 2.074140 1_555
