# generated using pymatgen
data_Na2MgAlF7
_symmetry_space_group_name_H-M   'P 1'
_cell_length_a   7.23119022
_cell_length_b   7.23119022
_cell_length_c   7.23119022
_cell_angle_alpha   120.66427748
_cell_angle_beta   118.15712111
_cell_angle_gamma   91.03723594
_symmetry_Int_Tables_number   1
_chemical_formula_structural   Na2MgAlF7
_chemical_formula_sum   'Na4 Mg2 Al2 F14'
_cell_volume   269.54688182
_cell_formula_units_Z   2
loop_
 _symmetry_equiv_pos_site_id
 _symmetry_equiv_pos_as_xyz
  1  'x, y, z'
loop_
 _atom_site_type_symbol
 _atom_site_label
 _atom_site_symmetry_multiplicity
 _atom_site_fract_x
 _atom_site_fract_y
 _atom_site_fract_z
 _atom_site_occupancy
  Na  Na0  1  0.50000000  0.50000000  0.50000000  1
  Na  Na1  1  0.50000000  0.00000000  0.00000000  1
  Na  Na2  1  0.50000000  0.50000000  0.00000000  1
  Na  Na3  1  0.00000000  0.00000000  0.00000000  1
  Mg  Mg0  1  0.00000000  0.50000000  0.00000000  1
  Mg  Mg1  1  0.00000000  0.00000000  0.50000000  1
  Al  Al0  1  0.00000000  0.50000000  0.50000000  1
  Al  Al1  1  0.50000000  0.00000000  0.50000000  1
  F  F0  1  0.11243400  0.25000000  0.86243400  1
  F  F1  1  0.88756600  0.75000000  0.13756600  1
  F  F2  1  0.69221400  0.41342400  0.27879000  1
  F  F3  1  0.30778600  0.58657600  0.72121000  1
  F  F4  1  0.36536600  0.08657600  0.27879000  1
  F  F5  1  0.63463400  0.91342400  0.72121000  1
  F  F6  1  0.95554200  0.57177500  0.75332200  1
  F  F7  1  0.04445800  0.79778000  0.61623300  1
  F  F8  1  0.68154700  0.29778000  0.75332200  1
  F  F9  1  0.31845300  0.07177500  0.61623300  1
  F  F10  1  0.31845300  0.70222000  0.24667800  1
  F  F11  1  0.68154700  0.92822500  0.38376700  1
  F  F12  1  0.04445800  0.42822500  0.24667800  1
  F  F13  1  0.95554200  0.20222000  0.38376700  1
loop_
_geom_bond_atom_site_label_1
_geom_bond_atom_site_label_2
_geom_bond_distance
_geom_bond_site_symmetry_2
Al0 F6 1.822184 1_455
Al0 F13 1.822184 1_455
Al0 F7 1.822184 1_555
Al0 F12 1.822184 1_555
Al0 F2 1.863407 1_455
Al0 F3 1.863407 1_555
Al1 F9 1.822184 1_555
Al1 F8 1.822184 1_555
Al1 F10 1.822184 1_545
Al1 F11 1.822184 1_545
Al1 F5 1.863407 1_545
Al1 F4 1.863407 1_555
F0 Mg0 1.975071 1_556
F0 Mg1 1.975071 1_555
F0 Na2 2.731874 1_556
F0 Na3 2.731874 1_556
F1 Mg1 1.975071 1_665
F1 Mg0 1.975071 1_655
F1 Na2 2.731874 1_555
F1 Na3 2.731874 1_665
F2 Na2 2.249967 1_555
F2 Na1 2.447654 1_555
F2 Na0 2.447654 1_555
F3 Na2 2.249967 1_556
F3 Na0 2.447654 1_555
F3 Na1 2.447654 1_566
F4 Na3 2.249967 1_555
F4 Na0 2.447654 1_555
F4 Na1 2.447654 1_555
F5 Na3 2.249967 1_666
F5 Na1 2.447654 1_566
F5 Na0 2.447654 1_555
F6 Mg0 1.990918 1_656
F6 Na3 2.581199 1_666
F6 Na0 2.783783 1_555
F7 Mg1 1.990918 1_565
F7 Na3 2.581199 1_566
F7 Na1 2.783783 1_566
F8 Mg0 1.990918 1_656
F8 Na2 2.581199 1_556
F8 Na0 2.783783 1_555
F9 Mg1 1.990918 1_555
F9 Na2 2.581199 1_556
F9 Na1 2.783783 1_556
F10 Mg0 1.990918 1_555
F10 Na2 2.581199 1_555
F10 Na0 2.783783 1_555
F11 Mg1 1.990918 1_665
F11 Na2 2.581199 1_555
F11 Na1 2.783783 1_565
F12 Mg0 1.990918 1_555
F12 Na3 2.581199 1_555
F12 Na0 2.783783 1_555
F13 Mg1 1.990918 1_655
F13 Na3 2.581199 1_655
F13 Na1 2.783783 1_555
