# generated using pymatgen
data_Lu2V2O7
_symmetry_space_group_name_H-M   'P 1'
_cell_length_a   7.08756178
_cell_length_b   7.08756178
_cell_length_c   7.08756178
_cell_angle_alpha   60.00000000
_cell_angle_beta   60.00000000
_cell_angle_gamma   60.00000000
_symmetry_Int_Tables_number   1
_chemical_formula_structural   Lu2V2O7
_chemical_formula_sum   'Lu4 V4 O14'
_cell_volume   251.75353394
_cell_formula_units_Z   2
loop_
 _symmetry_equiv_pos_site_id
 _symmetry_equiv_pos_as_xyz
  1  'x, y, z'
loop_
 _atom_site_type_symbol
 _atom_site_label
 _atom_site_symmetry_multiplicity
 _atom_site_fract_x
 _atom_site_fract_y
 _atom_site_fract_z
 _atom_site_occupancy
  Lu  Lu0  1  0.62500000  0.12500000  0.62500000  1
  Lu  Lu1  1  0.62500000  0.62500000  0.62500000  1
  Lu  Lu2  1  0.12500000  0.62500000  0.62500000  1
  Lu  Lu3  1  0.62500000  0.62500000  0.12500000  1
  V  V0  1  0.12500000  0.62500000  0.12500000  1
  V  V1  1  0.62500000  0.12500000  0.12500000  1
  V  V2  1  0.12500000  0.12500000  0.62500000  1
  V  V3  1  0.12500000  0.12500000  0.12500000  1
  O  O0  1  0.24717300  0.75282700  0.24717300  1
  O  O1  1  0.00282700  0.49717300  0.00282700  1
  O  O2  1  0.24717300  0.75282700  0.75282700  1
  O  O3  1  0.00282700  0.49717300  0.49717300  1
  O  O4  1  0.75282700  0.24717300  0.75282700  1
  O  O5  1  0.75282700  0.24717300  0.24717300  1
  O  O6  1  0.00282700  0.00282700  0.49717300  1
  O  O7  1  0.25000000  0.25000000  0.25000000  1
  O  O8  1  0.75282700  0.75282700  0.24717300  1
  O  O9  1  0.49717300  0.49717300  0.00282700  1
  O  O10  1  0.49717300  0.00282700  0.00282700  1
  O  O11  1  0.00000000  0.00000000  0.00000000  1
  O  O12  1  0.24717300  0.24717300  0.75282700  1
  O  O13  1  0.49717300  0.00282700  0.49717300  1
loop_
_geom_bond_atom_site_label_1
_geom_bond_atom_site_label_2
_geom_bond_distance
_geom_bond_site_symmetry_2
Lu0 O4 2.186596 1_555
Lu0 O10 2.186596 1_556
Lu0 O6 2.186596 1_655
Lu0 O13 2.186596 1_555
Lu0 O5 2.186596 1_555
Lu0 O12 2.186596 1_555
Lu1 O3 2.186596 1_655
Lu1 O13 2.186596 1_565
Lu1 O9 2.186596 1_556
Lu1 O8 2.186596 1_555
Lu1 O2 2.186596 1_555
Lu1 O4 2.186596 1_555
Lu2 O2 2.186596 1_555
Lu2 O6 2.186596 1_565
Lu2 O1 2.186596 1_556
Lu2 O3 2.186596 1_555
Lu2 O0 2.186596 1_555
Lu2 O12 2.186596 1_555
Lu3 O8 2.186596 1_555
Lu3 O10 2.186596 1_565
Lu3 O1 2.186596 1_655
Lu3 O9 2.186596 1_555
Lu3 O5 2.186596 1_555
Lu3 O0 2.186596 1_555
O0 V0 2.153878 1_555
O0 V3 2.153878 1_565
O1 V3 2.153878 1_555
O1 V0 2.153878 1_555
O2 V2 2.153878 1_565
O2 V0 2.153878 1_556
O3 V2 2.153878 1_555
O3 V0 2.153878 1_555
O4 V1 2.153878 1_556
O4 V2 2.153878 1_655
O5 V1 2.153878 1_555
O5 V3 2.153878 1_655
O6 V3 2.153878 1_555
O6 V2 2.153878 1_555
O7 V0 2.170114 1_555
O7 V2 2.170114 1_555
O7 V1 2.170114 1_555
O7 V3 2.170114 1_555
O8 V1 2.153878 1_565
O8 V0 2.153878 1_655
O9 V1 2.153878 1_555
O9 V0 2.153878 1_555
O10 V3 2.153878 1_555
O10 V1 2.153878 1_555
O11 V0 2.170114 1_545
O11 V1 2.170114 1_455
O11 V2 2.170114 1_554
O11 V3 2.170114 1_555
O12 V2 2.153878 1_555
O12 V3 2.153878 1_556
O13 V1 2.153878 1_555
O13 V2 2.153878 1_555
