# generated using pymatgen
data_VHO3
_symmetry_space_group_name_H-M   'P 1'
_cell_length_a   8.57039400
_cell_length_b   5.11584800
_cell_length_c   8.29087982
_cell_angle_alpha   80.62159446
_cell_angle_beta   90.00000000
_cell_angle_gamma   90.00000000
_symmetry_Int_Tables_number   1
_chemical_formula_structural   VHO3
_chemical_formula_sum   'V6 H6 O18'
_cell_volume   358.65340851
_cell_formula_units_Z   6
loop_
 _symmetry_equiv_pos_site_id
 _symmetry_equiv_pos_as_xyz
  1  'x, y, z'
loop_
 _atom_site_type_symbol
 _atom_site_label
 _atom_site_symmetry_multiplicity
 _atom_site_fract_x
 _atom_site_fract_y
 _atom_site_fract_z
 _atom_site_occupancy
  V  V0  1  0.55421700  0.54554100  0.17768500  1
  V  V1  1  0.05421700  0.45445900  0.82231500  1
  V  V2  1  0.44406200  0.44190300  0.82701500  1
  V  V3  1  0.94406200  0.55809700  0.17298500  1
  V  V4  1  0.75376000  0.07035800  0.07082600  1
  V  V5  1  0.25376000  0.92964200  0.92917400  1
  H  H0  1  0.36889800  0.21937500  0.36753600  1
  H  H1  1  0.86889800  0.78062500  0.63246400  1
  H  H2  1  0.77790700  0.16839800  0.56442700  1
  H  H3  1  0.65950900  0.92621000  0.60112300  1
  H  H4  1  0.27790700  0.83160200  0.43557300  1
  H  H5  1  0.15950900  0.07379000  0.39887700  1
  O  O0  1  0.58762100  0.32274800  0.00949500  1
  O  O1  1  0.08762100  0.67725200  0.99050500  1
  O  O2  1  0.40766700  0.66885700  0.99957200  1
  O  O3  1  0.90766700  0.33114300  0.00042800  1
  O  O4  1  0.59565300  0.86612100  0.20996600  1
  O  O5  1  0.09565300  0.13387900  0.79003400  1
  O  O6  1  0.39991200  0.11628800  0.78610600  1
  O  O7  1  0.89991200  0.88371200  0.21389400  1
  O  O8  1  0.74831600  0.41562400  0.24372200  1
  O  O9  1  0.24831600  0.58437600  0.75627800  1
  O  O10  1  0.75270500  0.89404500  0.92477400  1
  O  O11  1  0.25270500  0.10595500  0.07522600  1
  O  O12  1  0.43434700  0.40109200  0.33208300  1
  O  O13  1  0.93434700  0.59890800  0.66791700  1
  O  O14  1  0.55957600  0.57834000  0.68270000  1
  O  O15  1  0.05957600  0.42166000  0.31730000  1
  O  O16  1  0.76478900  0.98082000  0.56110900  1
  O  O17  1  0.26478900  0.01918000  0.43889100  1
loop_
_geom_bond_atom_site_label_1
_geom_bond_atom_site_label_2
_geom_bond_distance
_geom_bond_site_symmetry_2
H0 O12 1.084529 1_555
H0 O17 1.413350 1_555
H1 O13 1.084529 1_555
H1 O16 1.413350 1_555
H2 O16 0.971016 1_545
H3 O16 0.985917 1_555
H4 O17 0.971016 1_565
H5 O17 0.985917 1_555
O0 V4 1.933695 1_555
O0 V0 1.960485 1_555
O0 V2 1.968178 1_554
O1 V5 1.933695 1_555
O1 V1 1.960485 1_555
O1 V3 1.968178 1_456
O2 V5 1.899125 1_555
O2 V0 1.962796 1_556
O2 V2 2.008351 1_555
O3 V4 1.899125 1_555
O3 V1 1.962796 1_654
O3 V3 2.008351 1_555
O4 V0 1.740839 1_555
O4 V4 1.966160 1_565
O5 V1 1.740839 1_555
O5 V5 1.966160 1_545
O6 V2 1.793663 1_555
O6 V5 1.875780 1_545
O7 V3 1.793663 1_555
O7 V4 1.875780 1_565
O8 V0 1.841237 1_555
O8 V3 1.884223 1_555
O9 V1 1.841237 1_555
O9 V2 1.884223 1_555
O10 V4 1.623549 1_566
O11 V5 1.623549 1_544
O12 V0 1.712265 1_555
O13 V1 1.712265 1_655
O14 V2 1.620716 1_555
O15 V3 1.620716 1_455
