# generated using pymatgen
data_FeHO2
_symmetry_space_group_name_H-M   'P 1'
_cell_length_a   3.07310900
_cell_length_b   4.65158000
_cell_length_c   10.11774700
_cell_angle_alpha   90.00000000
_cell_angle_beta   90.00000000
_cell_angle_gamma   90.00000000
_symmetry_Int_Tables_number   1
_chemical_formula_structural   FeHO2
_chemical_formula_sum   'Fe4 H4 O8'
_cell_volume   144.63129489
_cell_formula_units_Z   4
loop_
 _symmetry_equiv_pos_site_id
 _symmetry_equiv_pos_as_xyz
  1  'x, y, z'
loop_
 _atom_site_type_symbol
 _atom_site_label
 _atom_site_symmetry_multiplicity
 _atom_site_fract_x
 _atom_site_fract_y
 _atom_site_fract_z
 _atom_site_occupancy
  Fe  Fe0  1  0.24298600  0.29170300  0.64490600  1
  Fe  Fe1  1  0.25701400  0.70829700  0.14490600  1
  Fe  Fe2  1  0.74298600  0.20829700  0.35509400  1
  Fe  Fe3  1  0.75701400  0.79170300  0.85509400  1
  H  H0  1  0.23192500  0.65738500  0.41637700  1
  H  H1  1  0.26807500  0.34261500  0.91637700  1
  H  H2  1  0.73192500  0.84261500  0.58362300  1
  H  H3  1  0.76807500  0.15738500  0.08362300  1
  O  O0  1  0.24332900  0.95800600  0.30486400  1
  O  O1  1  0.25667100  0.04199400  0.80486400  1
  O  O2  1  0.74332900  0.54199400  0.69513600  1
  O  O3  1  0.75667100  0.45800600  0.19513600  1
  O  O4  1  0.23976200  0.45199300  0.44595300  1
  O  O5  1  0.26023800  0.54800700  0.94595300  1
  O  O6  1  0.73976200  0.04800700  0.55404700  1
  O  O7  1  0.76023800  0.95199300  0.05404700  1
loop_
_geom_bond_atom_site_label_1
_geom_bond_atom_site_label_2
_geom_bond_distance
_geom_bond_site_symmetry_2
Fe0 O1 1.992539 1_555
Fe0 O2 1.992867 1_455
Fe0 O2 1.994492 1_555
Fe0 O6 2.112043 1_555
Fe0 O6 2.126410 1_455
Fe0 O4 2.146628 1_555
Fe1 O0 1.992539 1_555
Fe1 O3 1.992867 1_555
Fe1 O3 1.994492 1_455
Fe1 O7 2.112043 1_455
Fe1 O7 2.126410 1_555
Fe1 O5 2.146628 1_554
Fe2 O3 1.992539 1_555
Fe2 O0 1.992867 1_545
Fe2 O0 1.994492 1_645
Fe2 O4 2.112043 1_655
Fe2 O4 2.126410 1_555
Fe2 O6 2.146628 1_555
Fe3 O2 1.992539 1_555
Fe3 O1 1.992867 1_665
Fe3 O1 1.994492 1_565
Fe3 O5 2.112043 1_555
Fe3 O5 2.126410 1_655
Fe3 O7 2.146628 1_556
H0 O4 1.001454 1_555
H1 O5 1.001454 1_555
H2 O6 1.001454 1_565
H3 O7 1.001454 1_545
