# generated using pymatgen
data_K3Cr11S18
_symmetry_space_group_name_H-M   'P 1'
_cell_length_a   10.81846912
_cell_length_b   10.81846912
_cell_length_c   16.52279394
_cell_angle_alpha   80.32798989
_cell_angle_beta   80.32798989
_cell_angle_gamma   18.66926553
_symmetry_Int_Tables_number   1
_chemical_formula_structural   K3Cr11S18
_chemical_formula_sum   'K3 Cr11 S18'
_cell_volume   609.98528516
_cell_formula_units_Z   1
loop_
 _symmetry_equiv_pos_site_id
 _symmetry_equiv_pos_as_xyz
  1  'x, y, z'
loop_
 _atom_site_type_symbol
 _atom_site_label
 _atom_site_symmetry_multiplicity
 _atom_site_fract_x
 _atom_site_fract_y
 _atom_site_fract_z
 _atom_site_occupancy
  K  K0  1  0.19535664  0.19535664  0.90642587  1
  K  K1  1  0.80464336  0.80464336  0.09357413  1
  K  K2  1  0.50000000  0.50000000  0.50000000  1
  Cr  Cr0  1  0.15229991  0.15229991  0.27751774  1
  Cr  Cr1  1  0.84770009  0.84770009  0.72248226  1
  Cr  Cr2  1  0.70520865  0.70520865  0.43045789  1
  Cr  Cr3  1  0.40857203  0.40857203  0.87051446  1
  Cr  Cr4  1  0.53067401  0.53067401  0.74624540  1
  Cr  Cr5  1  0.46932599  0.46932599  0.25375460  1
  Cr  Cr6  1  0.29479135  0.29479135  0.56954211  1
  Cr  Cr7  1  0.59142797  0.59142797  0.12948554  1
  Cr  Cr8  1  0.16601634  0.16601634  0.67975107  1
  Cr  Cr9  1  0.83398366  0.83398366  0.32024893  1
  Cr  Cr10  1  -0.00000000  -0.00000000  0.00000000  1
  S  S0  1  0.36483917  0.36483917  0.22694622  1
  S  S1  1  0.57874263  0.57874263  0.99008441  1
  S  S2  1  0.16776501  0.16776501  0.12535859  1
  S  S3  1  0.27267844  0.27267844  0.71593067  1
  S  S4  1  0.70740827  0.70740827  0.57583538  1
  S  S5  1  0.42241925  0.42241925  0.72280460  1
  S  S6  1  0.63516083  0.63516083  0.77305378  1
  S  S7  1  0.06125867  0.06125867  0.65070661  1
  S  S8  1  0.83223499  0.83223499  0.87464141  1
  S  S9  1  0.86754982  0.86754982  0.57377907  1
  S  S10  1  0.93874133  0.93874133  0.34929339  1
  S  S11  1  0.57758075  0.57758075  0.27719540  1
  S  S12  1  0.13245018  0.13245018  0.42622093  1
  S  S13  1  0.42125737  0.42125737  0.00991559  1
  S  S14  1  0.00496131  0.00496131  0.14669528  1
  S  S15  1  0.72732156  0.72732156  0.28406933  1
  S  S16  1  0.99503869  0.99503869  0.85330472  1
  S  S17  1  0.29259173  0.29259173  0.42416462  1
loop_
_geom_bond_atom_site_label_1
_geom_bond_atom_site_label_2
_geom_bond_distance
_geom_bond_site_symmetry_2
K0 S1 3.164937 1_455
K0 S1 3.164937 1_545
K0 S6 3.248317 1_455
K0 S6 3.248317 1_545
K0 S3 3.295870 1_555
K0 S8 3.372364 1_455
K0 S8 3.372364 1_545
K0 S2 3.564663 1_556
K1 S13 3.164937 1_655
K1 S13 3.164937 1_565
K1 S0 3.248317 1_565
K1 S0 3.248317 1_655
K1 S15 3.295870 1_555
K1 S2 3.372364 1_565
K1 S2 3.372364 1_655
K1 S8 3.564663 1_554
K2 S9 3.374637 1_455
K2 S9 3.374637 1_545
K2 S12 3.374637 1_655
K2 S12 3.374637 1_565
K2 S7 3.478414 1_565
K2 S7 3.478414 1_655
K2 S10 3.478414 1_545
K2 S10 3.478414 1_455
Cr0 S11 2.372137 1_545
Cr0 S11 2.372137 1_455
Cr0 S15 2.390716 1_455
Cr0 S15 2.390716 1_545
Cr0 S12 2.421123 1_555
Cr0 S2 2.479318 1_555
Cr1 S5 2.372137 1_655
Cr1 S5 2.372137 1_565
Cr1 S3 2.390716 1_565
Cr1 S3 2.390716 1_655
Cr1 S9 2.421123 1_555
Cr1 S8 2.479318 1_555
Cr2 S12 2.352496 1_565
Cr2 S12 2.352496 1_655
Cr2 S15 2.384194 1_555
Cr2 S4 2.410483 1_555
Cr2 S17 2.550419 1_655
Cr2 S17 2.550419 1_565
Cr3 S13 2.364519 1_556
Cr3 S8 2.387954 1_455
Cr3 S8 2.387954 1_545
Cr3 S5 2.407931 1_555
Cr3 S16 2.527719 1_545
Cr3 S16 2.527719 1_455
Cr4 S6 2.347196 1_555
Cr4 S7 2.376225 1_565
Cr4 S7 2.376225 1_655
Cr4 S5 2.407670 1_555
Cr4 S16 2.515715 1_455
Cr4 S16 2.515715 1_545
Cr5 S0 2.347196 1_555
Cr5 S10 2.376225 1_455
Cr5 S10 2.376225 1_545
Cr5 S11 2.407670 1_555
Cr5 S14 2.515715 1_565
Cr5 S14 2.515715 1_655
Cr6 S9 2.352496 1_455
Cr6 S9 2.352496 1_545
Cr6 S3 2.384194 1_555
Cr6 S17 2.410483 1_555
Cr6 S4 2.550419 1_545
Cr6 S4 2.550419 1_455
Cr7 S1 2.364519 1_554
Cr7 S2 2.387954 1_655
Cr7 S2 2.387954 1_565
Cr7 S11 2.407931 1_555
Cr7 S14 2.527719 1_565
Cr7 S14 2.527719 1_655
Cr8 S6 2.354556 1_455
Cr8 S6 2.354556 1_545
Cr8 S7 2.366066 1_555
Cr8 S3 2.450903 1_555
Cr8 S4 2.508283 1_545
Cr8 S4 2.508283 1_455
Cr9 S0 2.354556 1_655
Cr9 S0 2.354556 1_565
Cr9 S10 2.366066 1_555
Cr9 S15 2.450903 1_555
Cr9 S17 2.508283 1_655
Cr9 S17 2.508283 1_565
Cr10 S13 2.416324 1_545
Cr10 S1 2.416324 1_544
Cr10 S1 2.416324 1_454
Cr10 S13 2.416324 1_455
Cr10 S16 2.444081 1_444
Cr10 S14 2.444081 1_555
