# generated using pymatgen
data_Si2H2O3
_symmetry_space_group_name_H-M   'P 1'
_cell_length_a   8.06123600
_cell_length_b   10.25171415
_cell_length_c   12.79516283
_cell_angle_alpha   84.05734903
_cell_angle_beta   72.65638596
_cell_angle_gamma   69.75104327
_symmetry_Int_Tables_number   1
_chemical_formula_structural   Si2H2O3
_chemical_formula_sum   'Si20 H20 O30'
_cell_volume   946.95581565
_cell_formula_units_Z   10
loop_
 _symmetry_equiv_pos_site_id
 _symmetry_equiv_pos_as_xyz
  1  'x, y, z'
loop_
 _atom_site_type_symbol
 _atom_site_label
 _atom_site_symmetry_multiplicity
 _atom_site_fract_x
 _atom_site_fract_y
 _atom_site_fract_z
 _atom_site_occupancy
  Si  Si0  1  0.29118600  0.18209800  0.87570100  1
  Si  Si1  1  0.30091300  0.36352600  0.64272500  1
  Si  Si2  1  0.66649900  0.92731300  0.09176100  1
  Si  Si3  1  0.66484100  0.50916800  0.41519900  1
  Si  Si4  1  0.27030800  0.90573900  0.71593200  1
  Si  Si5  1  0.84723700  0.61429500  0.82534700  1
  Si  Si6  1  0.76030400  0.12479200  0.23610700  1
  Si  Si7  1  0.02267100  0.42457100  0.19123000  1
  Si  Si8  1  0.81304900  0.99310900  0.78090000  1
  Si  Si9  1  0.61116300  0.51575400  0.69753000  1
  Si  Si10  1  0.20829000  0.00547400  0.20698900  1
  Si  Si11  1  0.43093500  0.55424800  0.29043000  1
  Si  Si12  1  0.82191200  0.23297600  0.54637500  1
  Si  Si13  1  0.54119700  0.22809400  0.94205400  1
  Si  Si14  1  0.17166000  0.80230700  0.46422200  1
  Si  Si15  1  0.40766300  0.70576400  0.04977700  1
  Si  Si16  1  0.28690100  0.13795300  0.49845900  1
  Si  Si17  1  0.92140700  0.37515600  0.03712200  1
  Si  Si18  1  0.75531700  0.82599500  0.48630300  1
  Si  Si19  1  0.09872400  0.61980100  0.98792700  1
  H  H0  1  0.10785600  0.05619700  0.88887900  1
  H  H1  1  0.10432300  0.59395200  0.62968000  1
  H  H2  1  0.04186700  0.07320300  0.62486700  1
  H  H3  1  0.50593700  0.31493900  0.31165800  1
  H  H4  1  0.94378800  0.36757600  0.62601400  1
  H  H5  1  0.08767200  0.83777500  0.15473800  1
  H  H6  1  0.10564000  0.69587800  0.33247200  1
  H  H7  1  0.72352000  0.24382800  0.05506600  1
  H  H8  1  0.04593500  0.85298600  0.98088600  1
  H  H9  1  0.90279600  0.59114000  0.44736500  1
  H  H10  1  0.06414600  0.33879900  0.80865700  1
  H  H11  1  0.62088600  0.73183200  0.19870400  1
  H  H12  1  0.50356300  0.94458700  0.56859600  1
  H  H13  1  0.75219700  0.40768800  0.89675600  1
  H  H14  1  0.76694200  0.83641300  0.30279400  1
  H  H15  1  0.89668800  0.67916500  0.17091500  1
  H  H16  1  0.59758200  0.17284200  0.67707400  1
  H  H17  1  0.46546800  0.46792400  0.91050100  1
  H  H18  1  0.00337200  0.97464600  0.36804000  1
  H  H19  1  0.25424800  0.55939500  0.16848400  1
  O  O0  1  0.24123400  0.03352700  0.85536300  1
  O  O1  1  0.10573700  0.51677500  0.68171900  1
  O  O2  1  0.76140900  0.01787700  0.14463300  1
  O  O3  1  0.84832500  0.47538100  0.30819200  1
  O  O4  1  0.04186500  0.98927300  0.72637500  1
  O  O5  1  0.72107300  0.58916100  0.75288600  1
  O  O6  1  0.98522200  0.09209300  0.22034500  1
  O  O7  1  0.40058200  0.40345400  0.32899500  1
  O  O8  1  0.74962800  0.12324500  0.87128800  1
  O  O9  1  0.81647800  0.37095100  0.63225500  1
  O  O10  1  0.20847100  0.85066900  0.12735500  1
  O  O11  1  0.20688200  0.66030400  0.36794900  1
  O  O12  1  0.04657200  0.12651300  0.55088200  1
  O  O13  1  0.76036300  0.29799700  0.09836500  1
  O  O14  1  0.94860000  0.81553300  0.51988400  1
  O  O15  1  0.30481500  0.64179600  0.97798900  1
  O  O16  1  0.10861000  0.24264300  0.98175400  1
  O  O17  1  0.21474800  0.29119800  0.56768500  1
  O  O18  1  0.96775600  0.79607800  0.98957300  1
  O  O19  1  0.77462300  0.64655200  0.48063500  1
  O  O20  1  0.19965400  0.29294000  0.77673500  1
  O  O21  1  0.69694700  0.79158800  0.19138300  1
  O  O22  1  0.35705800  0.01078000  0.61023800  1
  O  O23  1  0.85459400  0.43609300  0.90756600  1
  O  O24  1  0.84506400  0.84573300  0.34702300  1
  O  O25  1  0.02421700  0.60402800  0.14564900  1
  O  O26  1  0.73313400  0.13435700  0.65468300  1
  O  O27  1  0.56270600  0.38659400  0.86799700  1
  O  O28  1  0.13762600  0.93367900  0.35341000  1
  O  O29  1  0.36628100  0.58159600  0.16514200  1
loop_
_geom_bond_atom_site_label_1
_geom_bond_atom_site_label_2
_geom_bond_distance
_geom_bond_site_symmetry_2
H0 O0 0.983221 1_555
H1 O1 0.979118 1_555
H2 O12 1.040231 1_555
H2 O4 1.481836 1_545
H3 O7 0.994903 1_555
H4 O9 0.993956 1_555
H5 O10 0.982136 1_555
H6 O11 0.992827 1_555
H7 O13 0.989699 1_555
H8 O18 0.974271 1_455
H9 O19 0.976238 1_555
H10 O20 0.999689 1_555
H11 O21 0.986852 1_555
H12 O22 1.133191 1_565
H12 Si18 1.997152 1_555
H13 O23 1.013945 1_555
H14 O24 0.995649 1_555
H15 O25 1.029559 1_655
H15 O21 1.586209 1_555
H16 O26 0.984941 1_555
H17 O27 0.996352 1_555
H18 O28 0.981615 1_555
H19 O29 0.993229 1_555
O0 Si0 1.766014 1_555
O0 Si4 2.230714 1_545
O1 Si1 1.782110 1_555
O1 Si5 2.318260 1_455
O2 Si6 1.680472 1_555
O2 Si2 1.683853 1_545
O3 Si3 1.648798 1_555
O3 Si7 1.699094 1_655
O4 Si4 1.711091 1_555
O4 Si8 1.754663 1_455
O5 Si5 1.659342 1_555
O5 Si9 1.673042 1_555
O6 Si10 1.671581 1_655
O6 Si6 1.678009 1_555
O7 Si11 1.650771 1_555
O8 Si13 1.686030 1_555
O8 Si8 1.695184 1_545
O9 Si9 1.836423 1_555
O9 Si12 1.860214 1_555
O10 Si15 1.863967 1_555
O10 Si10 1.972103 1_565
O11 Si11 1.795554 1_555
O11 Si14 1.895780 1_555
O12 Si12 1.776349 1_455
O12 Si16 1.892939 1_555
O13 Si17 1.703252 1_555
O14 Si14 1.687197 1_655
O14 Si18 1.702271 1_555
O15 Si15 1.707703 1_556
O15 Si19 1.718869 1_555
O16 Si0 1.656537 1_555
O16 Si17 1.663592 1_456
O17 Si1 1.689880 1_555
O17 Si16 1.714485 1_555
O18 Si19 1.747801 1_655
O18 Si2 2.372088 1_556
O19 Si18 1.798979 1_555
O19 Si3 2.239769 1_555
O20 Si0 1.765752 1_555
O20 Si1 1.856753 1_555
O21 Si2 1.789962 1_555
O22 Si4 1.770147 1_545
O22 Si16 1.910736 1_555
O23 Si17 1.874368 1_556
O23 Si5 2.002986 1_555
O24 Si18 1.731545 1_555
O25 Si7 1.874649 1_555
O25 Si19 1.933011 1_554
O26 Si12 1.753349 1_555
O26 Si8 2.147154 1_545
O27 Si13 1.829341 1_555
O28 Si14 1.865524 1_555
O28 Si10 1.935087 1_565
O29 Si11 1.795559 1_555
O29 Si15 1.876655 1_555
