# generated using pymatgen
data_Cs3Sc2Cl9
_symmetry_space_group_name_H-M   'P 1'
_cell_length_a   9.56133649
_cell_length_b   9.56133649
_cell_length_c   9.56133569
_cell_angle_alpha   83.99302310
_cell_angle_beta   83.99302310
_cell_angle_gamma   83.99301866
_symmetry_Int_Tables_number   1
_chemical_formula_structural   Cs3Sc2Cl9
_chemical_formula_sum   'Cs6 Sc4 Cl18'
_cell_volume   860.62842661
_cell_formula_units_Z   2
loop_
 _symmetry_equiv_pos_site_id
 _symmetry_equiv_pos_as_xyz
  1  'x, y, z'
loop_
 _atom_site_type_symbol
 _atom_site_label
 _atom_site_symmetry_multiplicity
 _atom_site_fract_x
 _atom_site_fract_y
 _atom_site_fract_z
 _atom_site_occupancy
  Cs  Cs0  1  0.25000000  0.91176978  0.58823022  1
  Cs  Cs1  1  0.08823022  0.41176978  0.75000000  1
  Cs  Cs2  1  0.91176978  0.58823022  0.25000000  1
  Cs  Cs3  1  0.41176978  0.75000000  0.08823022  1
  Cs  Cs4  1  0.58823022  0.25000000  0.91176978  1
  Cs  Cs5  1  0.75000000  0.08823022  0.41176978  1
  Sc  Sc0  1  0.15326653  0.15326653  0.15326653  1
  Sc  Sc1  1  0.65326653  0.65326653  0.65326653  1
  Sc  Sc2  1  0.34673347  0.34673347  0.34673347  1
  Sc  Sc3  1  0.84673347  0.84673347  0.84673347  1
  Cl  Cl0  1  0.40098571  0.09901429  0.25000000  1
  Cl  Cl1  1  0.25000000  0.40098571  0.09901429  1
  Cl  Cl2  1  0.24296253  0.57383908  0.41186002  1
  Cl  Cl3  1  0.92616092  0.25703747  0.08813998  1
  Cl  Cl4  1  0.91186002  0.07383908  0.74296253  1
  Cl  Cl5  1  0.57383908  0.41186002  0.24296253  1
  Cl  Cl6  1  0.09901429  0.25000000  0.40098571  1
  Cl  Cl7  1  0.42616092  0.58813998  0.75703747  1
  Cl  Cl8  1  0.41186002  0.24296253  0.57383908  1
  Cl  Cl9  1  0.90098571  0.75000000  0.59901429  1
  Cl  Cl10  1  0.59901429  0.90098571  0.75000000  1
  Cl  Cl11  1  0.75703747  0.42616092  0.58813998  1
  Cl  Cl12  1  0.75000000  0.59901429  0.90098571  1
  Cl  Cl13  1  0.07383908  0.74296253  0.91186002  1
  Cl  Cl14  1  0.58813998  0.75703747  0.42616092  1
  Cl  Cl15  1  0.25703747  0.08813998  0.92616092  1
  Cl  Cl16  1  0.08813998  0.92616092  0.25703747  1
  Cl  Cl17  1  0.74296253  0.91186002  0.07383908  1
loop_
_geom_bond_atom_site_label_1
_geom_bond_atom_site_label_2
_geom_bond_distance
_geom_bond_site_symmetry_2
Cl0 Sc0 2.614455 1_555
Cl0 Sc2 2.614455 1_555
Cl0 Cs0 3.754943 1_545
Cl0 Cs4 3.754943 1_554
Cl0 Cs3 3.809696 1_545
Cl0 Cs5 3.809696 1_555
Cl1 Sc2 2.614455 1_555
Cl1 Sc0 2.614455 1_555
Cl1 Cs2 3.754943 1_455
Cl1 Cs4 3.754943 1_554
Cl1 Cs1 3.809696 1_554
Cl1 Cs3 3.809696 1_555
Cl2 Sc2 2.406257 1_555
Cl2 Cs2 3.651244 1_455
Cl2 Cs3 3.667395 1_555
Cl2 Cs1 3.670545 1_555
Cl2 Cs0 3.807586 1_555
Cl3 Sc0 2.406257 1_655
Cl3 Cs2 3.651244 1_555
Cl3 Cs5 3.667395 1_555
Cl3 Cs1 3.670545 1_654
Cl3 Cs4 3.807586 1_554
Cl4 Sc3 2.406257 1_545
Cl4 Cs5 3.651243 1_555
Cl4 Cs4 3.667395 1_555
Cl4 Cs0 3.670545 1_645
Cl4 Cs1 3.807587 1_655
Cl5 Sc2 2.406257 1_555
Cl5 Cs4 3.651243 1_554
Cl5 Cs5 3.667395 1_555
Cl5 Cs3 3.670545 1_555
Cl5 Cs2 3.807587 1_555
Cl6 Sc0 2.614455 1_555
Cl6 Sc2 2.614455 1_555
Cl6 Cs2 3.754943 1_455
Cl6 Cs0 3.754943 1_545
Cl6 Cs1 3.809696 1_555
Cl6 Cs5 3.809696 1_455
Cl7 Sc1 2.406257 1_555
Cl7 Cs3 3.651243 1_556
Cl7 Cs0 3.667395 1_555
Cl7 Cs4 3.670545 1_555
Cl7 Cs1 3.807587 1_555
Cl8 Sc2 2.406257 1_555
Cl8 Cs0 3.651244 1_545
Cl8 Cs1 3.667395 1_555
Cl8 Cs5 3.670545 1_555
Cl8 Cs4 3.807586 1_555
Cl9 Sc3 2.614455 1_555
Cl9 Sc1 2.614455 1_555
Cl9 Cs1 3.754943 1_655
Cl9 Cs5 3.754943 1_565
Cl9 Cs2 3.809696 1_555
Cl9 Cs0 3.809696 1_655
Cl10 Sc3 2.614455 1_555
Cl10 Sc1 2.614455 1_555
Cl10 Cs5 3.754943 1_565
Cl10 Cs3 3.754943 1_556
Cl10 Cs4 3.809696 1_565
Cl10 Cs0 3.809696 1_555
Cl11 Sc1 2.406257 1_555
Cl11 Cs1 3.651244 1_655
Cl11 Cs4 3.667395 1_555
Cl11 Cs2 3.670545 1_555
Cl11 Cs5 3.807586 1_555
Cl12 Sc1 2.614455 1_555
Cl12 Sc3 2.614455 1_555
Cl12 Cs1 3.754943 1_655
Cl12 Cs3 3.754943 1_556
Cl12 Cs2 3.809696 1_556
Cl12 Cs4 3.809696 1_555
Cl13 Sc3 2.406257 1_455
Cl13 Cs1 3.651244 1_555
Cl13 Cs0 3.667395 1_555
Cl13 Cs2 3.670545 1_456
Cl13 Cs3 3.807586 1_556
Cl14 Sc1 2.406257 1_555
Cl14 Cs5 3.651244 1_565
Cl14 Cs2 3.667395 1_555
Cl14 Cs0 3.670545 1_555
Cl14 Cs3 3.807586 1_555
Cl15 Sc0 2.406257 1_556
Cl15 Cs4 3.651244 1_555
Cl15 Cs1 3.667395 1_555
Cl15 Cs3 3.670545 1_546
Cl15 Cs0 3.807586 1_545
Cl16 Sc0 2.406257 1_565
Cl16 Cs0 3.651243 1_555
Cl16 Cs3 3.667395 1_555
Cl16 Cs5 3.670545 1_465
Cl16 Cs2 3.807587 1_455
Cl17 Sc3 2.406257 1_554
Cl17 Cs3 3.651244 1_555
Cl17 Cs2 3.667395 1_555
Cl17 Cs4 3.670545 1_564
Cl17 Cs5 3.807586 1_565
