# generated using pymatgen
data_Sn(PO3)3
_symmetry_space_group_name_H-M   'P 1'
_cell_length_a   9.48305700
_cell_length_b   10.20177287
_cell_length_c   10.58468044
_cell_angle_alpha   109.03444960
_cell_angle_beta   109.55292011
_cell_angle_gamma   105.68541406
_symmetry_Int_Tables_number   1
_chemical_formula_structural   Sn(PO3)3
_chemical_formula_sum   'Sn4 P12 O36'
_cell_volume   825.27062162
_cell_formula_units_Z   4
loop_
 _symmetry_equiv_pos_site_id
 _symmetry_equiv_pos_as_xyz
  1  'x, y, z'
loop_
 _atom_site_type_symbol
 _atom_site_label
 _atom_site_symmetry_multiplicity
 _atom_site_fract_x
 _atom_site_fract_y
 _atom_site_fract_z
 _atom_site_occupancy
  Sn  Sn0  1  0.23543100  0.73724100  0.27105200  1
  Sn  Sn1  1  0.76456900  0.26275900  0.72894800  1
  Sn  Sn2  1  0.69846100  0.86211500  0.80828100  1
  Sn  Sn3  1  0.30153900  0.13788500  0.19171900  1
  P  P0  1  0.61960600  0.97651100  0.37322600  1
  P  P1  1  0.84975900  0.49119100  0.10719200  1
  P  P2  1  0.15024100  0.50880900  0.89280800  1
  P  P3  1  0.79564200  0.03780500  0.19117000  1
  P  P4  1  0.68426900  0.44405100  0.29871300  1
  P  P5  1  0.57893200  0.68423900  0.40136700  1
  P  P6  1  0.31573100  0.55594900  0.70128700  1
  P  P7  1  0.20435800  0.96219500  0.80883000  1
  P  P8  1  0.38039400  0.02348900  0.62677400  1
  P  P9  1  0.42106800  0.31576100  0.59863300  1
  P  P10  1  0.90229400  0.78607100  0.09915400  1
  P  P11  1  0.09770600  0.21392900  0.90084600  1
  O  O0  1  0.39072300  0.42788100  0.72075200  1
  O  O1  1  0.16819000  0.49341400  0.55828100  1
  O  O2  1  0.34525900  0.30712600  0.44786500  1
  O  O3  1  0.39155800  0.64248000  0.33352500  1
  O  O4  1  0.06840400  0.81369000  0.69215000  1
  O  O5  1  0.72795600  0.12970200  0.51382200  1
  O  O6  1  0.43331800  0.92801300  0.31775100  1
  O  O7  1  0.19602000  0.37086700  0.90283900  1
  O  O8  1  0.70221600  0.99920900  0.02828500  1
  O  O9  1  0.33226800  0.15284100  0.59836400  1
  O  O10  1  0.56668200  0.07198700  0.68224900  1
  O  O11  1  0.85045700  0.76930100  0.94249300  1
  O  O12  1  0.81084600  0.38086600  0.95183200  1
  O  O13  1  0.46597000  0.70276700  0.76350000  1
  O  O14  1  0.64718400  0.98388800  0.23867700  1
  O  O15  1  0.83181000  0.50658600  0.44171900  1
  O  O16  1  0.65474100  0.69287400  0.55213500  1
  O  O17  1  0.18915400  0.61913400  0.04816800  1
  O  O18  1  0.97008900  0.44060500  0.77297200  1
  O  O19  1  0.14954300  0.23069900  0.05750700  1
  O  O20  1  0.93159600  0.18631000  0.30785000  1
  O  O21  1  0.14890300  0.10335700  0.80374500  1
  O  O22  1  0.85109700  0.89664300  0.19625500  1
  O  O23  1  0.02991100  0.55939500  0.22702800  1
  O  O24  1  0.60844200  0.35752000  0.66647500  1
  O  O25  1  0.35281600  0.01611200  0.76132300  1
  O  O26  1  0.60927700  0.57211900  0.27924800  1
  O  O27  1  0.91162600  0.16396100  0.80940900  1
  O  O28  1  0.27204400  0.87029800  0.48617800  1
  O  O29  1  0.29778400  0.00079100  0.97171500  1
  O  O30  1  0.53403000  0.29723300  0.23650000  1
  O  O31  1  0.80398000  0.62913300  0.09716100  1
  O  O32  1  0.27520800  0.58922500  0.84799600  1
  O  O33  1  0.66773200  0.84715900  0.40163600  1
  O  O34  1  0.08837400  0.83603900  0.19059100  1
  O  O35  1  0.72479200  0.41077500  0.15200400  1
loop_
_geom_bond_atom_site_label_1
_geom_bond_atom_site_label_2
_geom_bond_distance
_geom_bond_site_symmetry_2
O0 P9 1.588866 1_555
O0 P6 1.683771 1_555
O1 P6 1.457974 1_555
O2 P9 1.475602 1_555
O2 Sn3 2.512135 1_555
O3 P5 1.546455 1_555
O3 Sn0 2.024713 1_555
O4 P7 1.462995 1_555
O5 P0 1.517895 1_545
O5 Sn1 2.085164 1_555
O6 P0 1.534260 1_555
O6 Sn0 2.080971 1_555
O7 P2 1.605316 1_555
O7 P11 1.609566 1_555
O8 P3 1.502862 1_565
O8 Sn2 2.274480 1_554
O9 P8 1.591454 1_555
O9 P9 1.646249 1_555
O10 P8 1.534260 1_555
O10 Sn1 2.080971 1_555
O11 P10 1.498143 1_556
O11 Sn2 2.288447 1_555
O12 P1 1.506359 1_556
O12 Sn1 2.092121 1_555
O13 P6 1.510532 1_555
O13 Sn2 2.141991 1_555
O14 P0 1.552693 1_555
O14 P3 1.665221 1_565
O15 P4 1.457974 1_555
O16 P5 1.475602 1_555
O16 Sn2 2.512135 1_555
O17 P2 1.506359 1_554
O17 Sn0 2.092121 1_555
O18 P2 1.530606 1_655
O18 Sn1 2.058171 1_555
O19 P11 1.498143 1_554
O19 Sn3 2.288447 1_555
O20 P3 1.462995 1_555
O21 P11 1.561541 1_555
O21 P7 1.671661 1_545
O22 P10 1.561541 1_555
O22 P3 1.671661 1_565
O23 P1 1.530606 1_455
O23 Sn0 2.058171 1_555
O24 P9 1.546455 1_555
O24 Sn1 2.024713 1_555
O25 P8 1.552693 1_555
O25 P7 1.665221 1_545
O26 P5 1.588866 1_555
O26 P4 1.683771 1_555
O27 P11 1.535919 1_655
O27 Sn1 2.052054 1_555
O28 P8 1.517895 1_565
O28 Sn0 2.085164 1_555
O29 P7 1.502862 1_545
O29 Sn3 2.274480 1_556
O30 P4 1.510532 1_555
O30 Sn3 2.141991 1_555
O31 P1 1.605316 1_555
O31 P10 1.609566 1_555
O32 P2 1.551379 1_555
O32 P6 1.673449 1_555
O33 P0 1.591454 1_555
O33 P5 1.646249 1_555
O34 P10 1.535919 1_455
O34 Sn0 2.052054 1_555
O35 P1 1.551379 1_555
O35 P4 1.673449 1_555
