# generated using pymatgen
data_V3O5
_symmetry_space_group_name_H-M   'P 1'
_cell_length_a   5.18932500
_cell_length_b   7.10674725
_cell_length_c   9.98955027
_cell_angle_alpha   109.17001772
_cell_angle_beta   90.00000000
_cell_angle_gamma   90.00000000
_symmetry_Int_Tables_number   1
_chemical_formula_structural   V3O5
_chemical_formula_sum   'V12 O20'
_cell_volume   347.97806060
_cell_formula_units_Z   4
loop_
 _symmetry_equiv_pos_site_id
 _symmetry_equiv_pos_as_xyz
  1  'x, y, z'
loop_
 _atom_site_type_symbol
 _atom_site_label
 _atom_site_symmetry_multiplicity
 _atom_site_fract_x
 _atom_site_fract_y
 _atom_site_fract_z
 _atom_site_occupancy
  V  V0  1  0.50352300  0.90946300  0.62769600  1
  V  V1  1  0.49753500  0.41018900  0.63051400  1
  V  V2  1  0.49753500  0.08981100  0.36948600  1
  V  V3  1  0.50352300  0.59053700  0.37230400  1
  V  V4  1  0.99718100  0.59131700  0.87179000  1
  V  V5  1  0.99718100  0.90868300  0.12821000  1
  V  V6  1  0.00101100  0.40924200  0.13113900  1
  V  V7  1  0.00101100  0.09075800  0.86886100  1
  V  V8  1  0.99784800  0.99845300  0.49877300  1
  V  V9  1  0.99784800  0.50154700  0.50122700  1
  V  V10  1  0.50306400  0.99862100  0.99879300  1
  V  V11  1  0.50306400  0.50137900  0.00120700  1
  O  O0  1  0.66054200  0.52598600  0.18606400  1
  O  O1  1  0.35538400  0.03384000  0.19879400  1
  O  O2  1  0.35538400  0.46616000  0.80120600  1
  O  O3  1  0.66054200  0.97401400  0.81393600  1
  O  O4  1  0.15171300  0.86630100  0.92079900  1
  O  O5  1  0.84963700  0.14071400  0.07885400  1
  O  O6  1  0.84963700  0.35928600  0.92114600  1
  O  O7  1  0.15171300  0.63369900  0.07920100  1
  O  O8  1  0.84013000  0.52366600  0.68629400  1
  O  O9  1  0.84013000  0.97633400  0.31370600  1
  O  O10  1  0.14271200  0.03595900  0.69849500  1
  O  O11  1  0.14271200  0.46404100  0.30150500  1
  O  O12  1  0.29599900  0.25000000  0.00000000  1
  O  O13  1  0.68886700  0.75000000  0.00000000  1
  O  O14  1  0.64969700  0.35964100  0.42128700  1
  O  O15  1  0.34898100  0.86392800  0.42006100  1
  O  O16  1  0.34898100  0.63607200  0.57993900  1
  O  O17  1  0.64969700  0.14035900  0.57871300  1
  O  O18  1  0.20402400  0.25000000  0.50000000  1
  O  O19  1  0.81319100  0.75000000  0.50000000  1
loop_
_geom_bond_atom_site_label_1
_geom_bond_atom_site_label_2
_geom_bond_distance
_geom_bond_site_symmetry_2
O0 V3 1.942976 1_555
O0 V6 1.952443 1_655
O0 V11 1.973928 1_555
O1 V2 1.778883 1_555
O1 V10 2.076830 1_544
O1 V5 2.081269 1_445
O2 V1 1.778883 1_555
O2 V11 2.076830 1_556
O2 V4 2.081269 1_455
O3 V0 1.942976 1_555
O3 V7 1.952443 1_665
O3 V10 1.973928 1_555
O4 V7 1.992198 1_565
O4 V4 2.018285 1_455
O4 V10 2.081941 1_555
O4 V5 2.148694 1_456
O5 V6 1.969033 1_655
O5 V5 2.020500 1_545
O5 V10 2.088899 1_544
O5 V7 2.157425 1_654
O6 V7 1.969033 1_655
O6 V4 2.020500 1_555
O6 V11 2.088899 1_556
O6 V6 2.157425 1_656
O7 V6 1.992198 1_555
O7 V5 2.018285 1_455
O7 V11 2.081941 1_555
O7 V4 2.148694 1_454
O8 V4 1.934930 1_555
O8 V1 1.956129 1_555
O8 V9 1.980287 1_555
O9 V5 1.934930 1_555
O9 V2 1.956129 1_565
O9 V8 1.980287 1_555
O10 V7 1.775808 1_555
O10 V8 2.065786 1_445
O10 V0 2.096796 1_545
O11 V6 1.775808 1_555
O11 V9 2.065786 1_455
O11 V3 2.096796 1_555
O12 V10 2.081380 1_544
O12 V11 2.081380 1_555
O12 V6 2.089628 1_555
O12 V7 2.089628 1_554
O13 V11 2.016356 1_555
O13 V10 2.016356 1_554
O13 V5 2.126817 1_555
O13 V4 2.126817 1_554
O14 V2 1.979096 1_555
O14 V3 2.008671 1_555
O14 V9 2.095210 1_555
O14 V1 2.151254 1_555
O15 V2 1.989757 1_565
O15 V3 2.009216 1_555
O15 V8 2.087769 1_455
O15 V0 2.146923 1_555
O16 V1 1.989757 1_555
O16 V0 2.009216 1_555
O16 V9 2.087769 1_455
O16 V3 2.146923 1_555
O17 V1 1.979096 1_555
O17 V0 2.008671 1_545
O17 V8 2.095210 1_545
O17 V2 2.151254 1_555
O18 V9 2.079971 1_455
O18 V8 2.079971 1_445
O18 V1 2.083500 1_555
O18 V2 2.083500 1_555
O19 V8 2.012528 1_555
O19 V9 2.012528 1_555
O19 V0 2.131771 1_555
O19 V3 2.131771 1_555
