# generated using pymatgen
data_NaCaGaSi2O7
_symmetry_space_group_name_H-M   'P 1'
_cell_length_a   7.26540300
_cell_length_b   9.57427000
_cell_length_c   10.82284400
_cell_angle_alpha   90.00000000
_cell_angle_beta   90.00000000
_cell_angle_gamma   90.00000000
_symmetry_Int_Tables_number   1
_chemical_formula_structural   NaCaGaSi2O7
_chemical_formula_sum   'Na4 Ca4 Ga4 Si8 O28'
_cell_volume   752.84709368
_cell_formula_units_Z   4
loop_
 _symmetry_equiv_pos_site_id
 _symmetry_equiv_pos_as_xyz
  1  'x, y, z'
loop_
 _atom_site_type_symbol
 _atom_site_label
 _atom_site_symmetry_multiplicity
 _atom_site_fract_x
 _atom_site_fract_y
 _atom_site_fract_z
 _atom_site_occupancy
  Na  Na0  1  0.35779200  0.98390100  0.33907200  1
  Na  Na1  1  0.64220800  0.48390100  0.16092800  1
  Na  Na2  1  0.85779200  0.51609900  0.66092800  1
  Na  Na3  1  0.14220800  0.01609900  0.83907200  1
  Ca  Ca0  1  0.32249900  0.60834000  0.75118600  1
  Ca  Ca1  1  0.67750100  0.10834000  0.74881400  1
  Ca  Ca2  1  0.82249900  0.89166000  0.24881400  1
  Ca  Ca3  1  0.17750100  0.39166000  0.25118600  1
  Ga  Ga0  1  0.78781200  0.64202000  0.94592000  1
  Ga  Ga1  1  0.71218800  0.35798000  0.44592000  1
  Ga  Ga2  1  0.28781200  0.85798000  0.05408000  1
  Ga  Ga3  1  0.21218800  0.14202000  0.55408000  1
  Si  Si0  1  0.01037100  0.33602400  0.89500400  1
  Si  Si1  1  0.95287700  0.14027900  0.10861600  1
  Si  Si2  1  0.98962900  0.83602400  0.60499600  1
  Si  Si3  1  0.04712300  0.64027900  0.39138400  1
  Si  Si4  1  0.45287700  0.35972100  0.89138400  1
  Si  Si5  1  0.51037100  0.16397600  0.10499600  1
  Si  Si6  1  0.54712300  0.85972100  0.60861600  1
  Si  Si7  1  0.48962900  0.66397600  0.39500400  1
  O  O0  1  0.50676800  0.20710700  0.95358800  1
  O  O1  1  0.51781800  0.50602000  0.94708100  1
  O  O2  1  0.43777600  0.29773200  0.17996400  1
  O  O3  1  0.46086500  0.95176000  0.82960000  1
  O  O4  1  0.54364700  0.32530000  0.75039600  1
  O  O5  1  0.76964500  0.87127600  0.63796800  1
  O  O6  1  0.59249600  0.51813500  0.36874100  1
  O  O7  1  0.23035500  0.37127600  0.86203200  1
  O  O8  1  0.40750400  0.01813500  0.13125900  1
  O  O9  1  0.56222400  0.79773200  0.32003600  1
  O  O10  1  0.53913500  0.45176000  0.67040000  1
  O  O11  1  0.48218200  0.00602000  0.55291900  1
  O  O12  1  0.45635300  0.82530000  0.74960400  1
  O  O13  1  0.49323200  0.70710700  0.54641200  1
  O  O14  1  0.00676800  0.29289300  0.04641200  1
  O  O15  1  0.01781800  0.99398000  0.05291900  1
  O  O16  1  0.04364700  0.17470000  0.24960400  1
  O  O17  1  0.96086500  0.54824000  0.17040000  1
  O  O18  1  0.93777600  0.20226800  0.82003600  1
  O  O19  1  0.09249600  0.98186500  0.63125900  1
  O  O20  1  0.26964500  0.62872400  0.36203200  1
  O  O21  1  0.90750400  0.48186500  0.86874100  1
  O  O22  1  0.73035500  0.12872400  0.13796800  1
  O  O23  1  0.95635300  0.67470000  0.25039600  1
  O  O24  1  0.98218200  0.49398000  0.44708100  1
  O  O25  1  0.03913500  0.04824000  0.32960000  1
  O  O26  1  0.06222400  0.70226800  0.67996400  1
  O  O27  1  0.99323200  0.79289300  0.45358800  1
loop_
_geom_bond_atom_site_label_1
_geom_bond_atom_site_label_2
_geom_bond_distance
_geom_bond_site_symmetry_2
Na0 O8 2.301403 1_565
Na0 O9 2.329285 1_555
Na0 O25 2.397912 1_565
Na0 O11 2.493632 1_565
Na1 O6 2.301403 1_555
Na1 O2 2.329285 1_555
Na1 O17 2.397912 1_555
Na1 O1 2.493632 1_554
Na2 O21 2.301403 1_555
Na2 O26 2.329285 1_655
Na2 O10 2.397912 1_555
Na2 O24 2.493632 1_555
Na3 O19 2.301403 1_545
Na3 O18 2.329285 1_455
Na3 O3 2.397912 1_545
Na3 O15 2.493632 1_546
Ca0 O26 2.231320 1_555
Ca0 O12 2.293677 1_555
Ca0 O10 2.342902 1_555
Ca0 O7 2.653110 1_555
Ca0 O13 2.710094 1_555
Ca0 O1 2.732847 1_555
Ca1 O18 2.231320 1_555
Ca1 O4 2.293677 1_555
Ca1 O3 2.342902 1_545
Ca1 O5 2.653110 1_545
Ca1 O0 2.710094 1_555
Ca1 O11 2.732847 1_555
Ca2 O9 2.231320 1_555
Ca2 O23 2.293677 1_555
Ca2 O25 2.342902 1_665
Ca2 O22 2.653110 1_565
Ca2 O27 2.710094 1_555
Ca2 O15 2.732847 1_655
Ca3 O2 2.231320 1_555
Ca3 O16 2.293677 1_555
Ca3 O17 2.342902 1_455
Ca3 O20 2.653110 1_555
Ca3 O14 2.710094 1_555
Ca3 O24 2.732847 1_455
Ga0 O21 1.950681 1_555
Ga0 O1 2.354476 1_555
Ga1 O6 1.950681 1_555
Ga1 O24 2.354476 1_555
Ga2 O8 1.950681 1_565
Ga2 O15 2.354476 1_555
Ga3 O19 1.950681 1_545
Ga3 O11 2.354476 1_555
O0 Si4 1.655761 1_555
O0 Si5 1.690099 1_556
O1 Si4 1.596234 1_555
O2 Si5 1.605141 1_555
O4 Si4 1.694658 1_555
O5 Si6 1.651337 1_555
O5 Si2 1.672044 1_555
O6 Si7 1.609058 1_555
O7 Si4 1.651337 1_555
O7 Si0 1.672044 1_555
O8 Si5 1.609058 1_555
O9 Si7 1.605141 1_555
O10 O4 1.488826 1_555
O11 Si6 1.596234 1_545
O12 O3 1.488826 1_555
O12 Si6 1.694658 1_555
O13 Si6 1.655761 1_555
O13 Si7 1.690099 1_555
O14 Si1 1.655761 1_455
O14 Si0 1.690099 1_554
O15 Si1 1.596234 1_465
O16 O25 1.488826 1_555
O16 Si1 1.694658 1_455
O17 O23 1.488826 1_555
O18 Si0 1.605141 1_655
O19 Si2 1.609058 1_455
O20 Si3 1.651337 1_555
O20 Si7 1.672044 1_555
O21 Si0 1.609058 1_655
O22 Si1 1.651337 1_555
O22 Si5 1.672044 1_555
O23 Si3 1.694658 1_655
O24 Si3 1.596234 1_655
O26 Si2 1.605141 1_455
O27 Si3 1.655761 1_655
O27 Si2 1.690099 1_555
