# generated using pymatgen
data_Nd4CuTe5(ClO5)3
_symmetry_space_group_name_H-M   'P 1'
_cell_length_a   11.97953883
_cell_length_b   11.97953883
_cell_length_c   17.92257199
_cell_angle_alpha   56.13713244
_cell_angle_beta   56.13713244
_cell_angle_gamma   27.67984233
_symmetry_Int_Tables_number   1
_chemical_formula_structural   Nd4CuTe5(ClO5)3
_chemical_formula_sum   'Nd8 Cu2 Te10 Cl6 O30'
_cell_volume   978.47813923
_cell_formula_units_Z   2
loop_
 _symmetry_equiv_pos_site_id
 _symmetry_equiv_pos_as_xyz
  1  'x, y, z'
loop_
 _atom_site_type_symbol
 _atom_site_label
 _atom_site_symmetry_multiplicity
 _atom_site_fract_x
 _atom_site_fract_y
 _atom_site_fract_z
 _atom_site_occupancy
  Nd  Nd0  1  0.77011600  0.22988400  0.50000000  1
  Nd  Nd1  1  0.40416100  0.77719100  0.57343600  1
  Nd  Nd2  1  0.61744000  0.96381600  0.62890800  1
  Nd  Nd3  1  0.41043700  0.75041200  0.80119000  1
  Nd  Nd4  1  0.82261400  0.17738600  0.00000000  1
  Nd  Nd5  1  0.03618400  0.38256000  0.37109200  1
  Nd  Nd6  1  0.22280900  0.59583900  0.42656400  1
  Nd  Nd7  1  0.24958800  0.58956300  0.19881000  1
  Cu  Cu0  1  0.74725200  0.66709100  0.08661700  1
  Cu  Cu1  1  0.33290900  0.25274800  0.91338300  1
  Te  Te0  1  0.41997000  0.79821800  0.35221600  1
  Te  Te1  1  0.92706100  0.48052000  0.58826400  1
  Te  Te2  1  0.86283800  0.14654600  0.26665700  1
  Te  Te3  1  0.51948000  0.07293900  0.41173700  1
  Te  Te4  1  0.16689000  0.64307700  0.97750500  1
  Te  Te5  1  0.20178200  0.58003000  0.64778400  1
  Te  Te6  1  0.67334800  0.94220800  0.18721100  1
  Te  Te7  1  0.35692300  0.83311000  0.02249500  1
  Te  Te8  1  0.85345400  0.13716200  0.73334300  1
  Te  Te9  1  0.05779200  0.32665200  0.81278900  1
  Cl  Cl0  1  0.56591400  0.05385100  0.77845200  1
  Cl  Cl1  1  0.01282500  0.37388500  0.00143600  1
  Cl  Cl2  1  0.62611500  0.98717500  0.99856400  1
  Cl  Cl3  1  0.43952400  0.75950900  0.17834200  1
  Cl  Cl4  1  0.24049100  0.56047600  0.82165800  1
  Cl  Cl5  1  0.94614900  0.43408600  0.22154800  1
  O  O0  1  0.15647600  0.03265900  0.43467600  1
  O  O1  1  0.80152700  0.56602200  0.50451000  1
  O  O2  1  0.42034300  0.34595400  0.57404500  1
  O  O3  1  0.54101000  0.51670500  0.06444800  1
  O  O4  1  0.43893500  0.59178200  0.40646900  1
  O  O5  1  0.43397800  0.19847300  0.49549000  1
  O  O6  1  0.54077500  0.34495100  0.30142800  1
  O  O7  1  0.91179500  0.06676800  0.38165500  1
  O  O8  1  0.02697200  0.92972700  0.89658600  1
  O  O9  1  0.91484900  0.68482300  0.51793600  1
  O  O10  1  0.15210900  0.98107500  0.70221800  1
  O  O11  1  0.93323200  0.08820500  0.61834500  1
  O  O12  1  0.24809400  0.39195200  0.35133500  1
  O  O13  1  0.65504900  0.45922500  0.69857200  1
  O  O14  1  0.79821100  0.42187500  0.84824900  1
  O  O15  1  0.96734100  0.84352400  0.56532400  1
  O  O16  1  0.95707200  0.56311900  0.70473400  1
  O  O17  1  0.91429400  0.70959500  0.25925900  1
  O  O18  1  0.07027300  0.97302800  0.10341400  1
  O  O19  1  0.57812500  0.20178900  0.15175100  1
  O  O20  1  0.60804800  0.75190600  0.64866500  1
  O  O21  1  0.65404600  0.57965700  0.42595500  1
  O  O22  1  0.01892500  0.84789100  0.29778200  1
  O  O23  1  0.48329500  0.45899000  0.93555200  1
  O  O24  1  0.31517700  0.08515100  0.48206400  1
  O  O25  1  0.29040500  0.08570600  0.74074100  1
  O  O26  1  0.23554300  0.94104700  0.92496400  1
  O  O27  1  0.05895300  0.76445700  0.07503600  1
  O  O28  1  0.43688100  0.04292800  0.29526600  1
  O  O29  1  0.40821800  0.56106500  0.59353100  1
loop_
_geom_bond_atom_site_label_1
_geom_bond_atom_site_label_2
_geom_bond_distance
_geom_bond_site_symmetry_2
Nd0 O11 2.435346 1_555
Nd0 O7 2.435346 1_555
Nd0 O15 2.459899 1_545
Nd0 O0 2.459899 1_655
Nd0 O29 2.488953 1_555
Nd0 O4 2.488953 1_555
Nd0 O2 2.606202 1_555
Nd0 O21 2.606202 1_555
Nd1 O29 2.364940 1_555
Nd1 O24 2.382417 1_565
Nd1 O10 2.421587 1_555
Nd1 O1 2.487355 1_555
Nd1 O13 2.507516 1_555
Nd1 O21 2.674703 1_555
Nd1 O11 2.722209 1_465
Nd1 O0 2.830825 1_565
Nd2 O16 2.396724 1_555
Nd2 O5 2.423580 1_565
Nd2 O25 2.424238 1_565
Nd2 O2 2.434254 1_565
Nd2 O20 2.458083 1_555
Nd2 O9 2.498184 1_555
Nd2 O15 2.598820 1_555
Nd3 O10 2.422542 1_555
Nd3 O20 2.426099 1_555
Nd3 O25 2.456047 1_565
Nd3 O14 2.463048 1_555
Nd3 O23 2.515026 1_555
Nd3 O8 2.550119 1_555
Nd3 O26 2.553030 1_555
Nd3 O13 2.679010 1_555
Nd4 O3 2.416794 1_555
Nd4 O23 2.416794 1_554
Nd4 O26 2.513748 1_644
Nd4 O27 2.513748 1_645
Nd4 O18 2.537361 1_645
Nd4 O8 2.537361 1_644
Nd4 O19 2.559925 1_555
Nd4 O14 2.559925 1_554
Nd5 O28 2.396724 1_555
Nd5 O1 2.423580 1_455
Nd5 O17 2.424238 1_455
Nd5 O21 2.434254 1_455
Nd5 O12 2.458083 1_555
Nd5 O24 2.498184 1_555
Nd5 O0 2.598820 1_555
Nd6 O4 2.364940 1_555
Nd6 O9 2.382417 1_455
Nd6 O22 2.421587 1_555
Nd6 O5 2.487355 1_555
Nd6 O6 2.507516 1_555
Nd6 O2 2.674703 1_555
Nd6 O7 2.722209 1_465
Nd6 O15 2.830825 1_455
Nd7 O22 2.422542 1_555
Nd7 O12 2.426099 1_555
Nd7 O17 2.456047 1_455
Nd7 O19 2.463048 1_555
Nd7 O3 2.515026 1_555
Nd7 O18 2.550119 1_555
Nd7 O27 2.553030 1_555
Nd7 O6 2.679010 1_555
Cl0 Cu1 2.536982 1_555
Cl0 Nd2 2.987749 1_545
Cl1 Cu1 2.291883 1_554
Cl1 Cu0 2.358222 1_455
Cl2 Cu0 2.291883 1_556
Cl2 Cu1 2.358222 1_565
Cl3 Cu0 2.358853 1_555
Cl3 Te7 2.889424 1_555
Cl4 Cu1 2.358853 1_555
Cl4 Te4 2.889424 1_555
Cl5 Cu0 2.536982 1_555
Cl5 Nd5 2.987749 1_655
O0 Te0 1.939378 1_545
O1 Te1 1.907365 1_555
O2 Te5 1.932706 1_555
O3 Te7 1.913880 1_555
O4 Te0 1.919423 1_555
O5 Te3 1.907348 1_555
O6 Te2 1.911261 1_555
O7 Te2 1.914296 1_555
O8 Te4 1.915614 1_555
O9 Te1 1.932272 1_555
O10 Te8 1.922908 1_465
O11 Te8 1.914296 1_555
O12 Te3 1.911259 1_555
O13 Te8 1.911261 1_555
O14 Te9 1.923026 1_655
O15 Te5 1.939378 1_655
O16 Te9 1.915118 1_655
O16 Te5 2.676472 1_655
O17 Te6 1.913643 1_555
O18 Te7 1.915614 1_555
O19 Te6 1.923026 1_545
O20 Te1 1.911252 1_555
O21 Te0 1.932706 1_555
O22 Te2 1.922908 1_465
O23 Te4 1.913880 1_555
O24 Te3 1.932272 1_555
O25 Te9 1.913643 1_555
O26 Te7 1.955892 1_556
O26 Te9 2.629570 1_565
O27 Te4 1.955892 1_554
O27 Te6 2.629570 1_455
O28 Te6 1.915118 1_545
O28 Te0 2.676472 1_545
O29 Te5 1.919423 1_555
