# generated using pymatgen
data_YbIn4Rh
_symmetry_space_group_name_H-M   'P 1'
_cell_length_a   4.27560500
_cell_length_b   7.50526500
_cell_length_c   8.74301700
_cell_angle_alpha   90.00000000
_cell_angle_beta   90.00000000
_cell_angle_gamma   90.00000000
_symmetry_Int_Tables_number   1
_chemical_formula_structural   YbIn4Rh
_chemical_formula_sum   'Yb2 In8 Rh2'
_cell_volume   280.55946859
_cell_formula_units_Z   2
loop_
 _symmetry_equiv_pos_site_id
 _symmetry_equiv_pos_as_xyz
  1  'x, y, z'
loop_
 _atom_site_type_symbol
 _atom_site_label
 _atom_site_symmetry_multiplicity
 _atom_site_fract_x
 _atom_site_fract_y
 _atom_site_fract_z
 _atom_site_occupancy
  Yb  Yb0  1  0.00000000  0.40058900  0.25000000  1
  Yb  Yb1  1  0.00000000  0.59941100  0.75000000  1
  In  In0  1  0.50000000  0.31536200  0.56302600  1
  In  In1  1  0.50000000  0.31536200  0.93697400  1
  In  In2  1  0.50000000  0.68463800  0.43697400  1
  In  In3  1  0.50000000  0.68463800  0.06302600  1
  In  In4  1  0.00000000  0.00000000  0.00000000  1
  In  In5  1  0.50000000  0.93195000  0.75000000  1
  In  In6  1  0.50000000  0.06805000  0.25000000  1
  In  In7  1  0.00000000  0.00000000  0.50000000  1
  Rh  Rh0  1  0.00000000  0.80308700  0.25000000  1
  Rh  Rh1  1  0.00000000  0.19691300  0.75000000  1
loop_
_geom_bond_atom_site_label_1
_geom_bond_atom_site_label_2
_geom_bond_distance
_geom_bond_site_symmetry_2
In0 Rh1 2.834220 1_655
In0 Rh1 2.834220 1_555
In0 Yb1 3.433269 1_555
In0 Yb1 3.433269 1_655
In0 Yb0 3.531201 1_555
In0 Yb0 3.531201 1_655
In1 Rh1 2.834220 1_655
In1 Rh1 2.834220 1_555
In1 Yb1 3.433269 1_555
In1 Yb1 3.433269 1_655
In1 Yb0 3.531201 1_556
In1 Yb0 3.531201 1_656
In2 Rh0 2.834220 1_555
In2 Rh0 2.834220 1_655
In2 Yb0 3.433269 1_655
In2 Yb0 3.433269 1_555
In2 Yb1 3.531201 1_555
In2 Yb1 3.531201 1_655
In3 Rh0 2.834220 1_555
In3 Rh0 2.834220 1_655
In3 Yb0 3.433269 1_655
In3 Yb0 3.433269 1_555
In3 Yb1 3.531201 1_654
In3 Yb1 3.531201 1_554
In4 Rh0 2.638496 1_545
In4 Rh1 2.638496 1_554
In4 Yb0 3.717085 1_555
In4 Yb1 3.717085 1_544
In5 Rh1 2.919726 1_565
In5 Rh1 2.919726 1_665
In5 Yb1 3.286211 1_555
In5 Yb1 3.286211 1_655
In6 Rh0 2.919726 1_545
In6 Rh0 2.919726 1_645
In6 Yb0 3.286211 1_655
In6 Yb0 3.286211 1_555
In7 Rh0 2.638496 1_545
In7 Rh1 2.638496 1_555
In7 Yb0 3.717085 1_555
In7 Yb1 3.717085 1_545
Rh0 Yb0 3.020854 1_555
Rh1 Yb1 3.020854 1_555
