# generated using pymatgen
data_Ce15B8N25
_symmetry_space_group_name_H-M   'P 1'
_cell_length_a   11.04927751
_cell_length_b   11.04927751
_cell_length_c   11.04927696
_cell_angle_alpha   79.23291852
_cell_angle_beta   79.23291852
_cell_angle_gamma   79.23291915
_symmetry_Int_Tables_number   1
_chemical_formula_structural   Ce15B8N25
_chemical_formula_sum   'Ce30 B16 N50'
_cell_volume   1285.65797018
_cell_formula_units_Z   2
loop_
 _symmetry_equiv_pos_site_id
 _symmetry_equiv_pos_as_xyz
  1  'x, y, z'
loop_
 _atom_site_type_symbol
 _atom_site_label
 _atom_site_symmetry_multiplicity
 _atom_site_fract_x
 _atom_site_fract_y
 _atom_site_fract_z
 _atom_site_occupancy
  Ce  Ce0  1  0.69988400  0.58480500  0.40607000  1
  Ce  Ce1  1  0.85001300  0.09860900  0.57260800  1
  Ce  Ce2  1  0.09393000  0.91519500  0.80011600  1
  Ce  Ce3  1  0.41519500  0.59393000  0.30011600  1
  Ce  Ce4  1  0.35001300  0.07260800  0.59860900  1
  Ce  Ce5  1  0.59393000  0.30011600  0.41519500  1
  Ce  Ce6  1  0.89392300  0.75000000  0.60607700  1
  Ce  Ce7  1  0.59860900  0.35001300  0.07260800  1
  Ce  Ce8  1  0.58480500  0.40607000  0.69988400  1
  Ce  Ce9  1  0.75000000  0.60607700  0.89392300  1
  Ce  Ce10  1  0.30011600  0.41519500  0.59393000  1
  Ce  Ce11  1  0.40139100  0.64998700  0.92739200  1
  Ce  Ce12  1  0.25000000  0.39392300  0.10607700  1
  Ce  Ce13  1  0.39392300  0.10607700  0.25000000  1
  Ce  Ce14  1  0.42739200  0.14998700  0.90139100  1
  Ce  Ce15  1  0.64998700  0.92739200  0.40139100  1
  Ce  Ce16  1  0.60607700  0.89392300  0.75000000  1
  Ce  Ce17  1  0.57260800  0.85001300  0.09860900  1
  Ce  Ce18  1  0.92739200  0.40139100  0.64998700  1
  Ce  Ce19  1  0.90607000  0.08480500  0.19988400  1
  Ce  Ce20  1  0.80011600  0.09393000  0.91519500  1
  Ce  Ce21  1  0.08480500  0.19988400  0.90607000  1
  Ce  Ce22  1  0.19988400  0.90607000  0.08480500  1
  Ce  Ce23  1  0.10607700  0.25000000  0.39392300  1
  Ce  Ce24  1  0.90139100  0.42739200  0.14998700  1
  Ce  Ce25  1  0.40607000  0.69988400  0.58480500  1
  Ce  Ce26  1  0.07260800  0.59860900  0.35001300  1
  Ce  Ce27  1  0.14998700  0.90139100  0.42739200  1
  Ce  Ce28  1  0.09860900  0.57260800  0.85001300  1
  Ce  Ce29  1  0.91519500  0.80011600  0.09393000  1
  B  B0  1  0.65804300  0.65804300  0.65804300  1
  B  B1  1  0.15168800  0.64670000  0.06181900  1
  B  B2  1  0.56181900  0.14670000  0.65168800  1
  B  B3  1  0.43818100  0.85330000  0.34831200  1
  B  B4  1  0.14670000  0.65168800  0.56181900  1
  B  B5  1  0.15804300  0.15804300  0.15804300  1
  B  B6  1  0.93818100  0.84831200  0.35330000  1
  B  B7  1  0.34195700  0.34195700  0.34195700  1
  B  B8  1  0.35330000  0.93818100  0.84831200  1
  B  B9  1  0.84195700  0.84195700  0.84195700  1
  B  B10  1  0.65168800  0.56181900  0.14670000  1
  B  B11  1  0.84831200  0.35330000  0.93818100  1
  B  B12  1  0.06181900  0.15168800  0.64670000  1
  B  B13  1  0.64670000  0.06181900  0.15168800  1
  B  B14  1  0.85330000  0.34831200  0.43818100  1
  B  B15  1  0.34831200  0.43818100  0.85330000  1
  N  N0  1  0.93567800  0.44353000  0.40223500  1
  N  N1  1  0.65238400  0.45566700  0.24675800  1
  N  N2  1  0.13337900  0.25758300  0.63002400  1
  N  N3  1  0.15238400  0.74675800  0.95566700  1
  N  N4  1  0.90223500  0.94353000  0.43567800  1
  N  N5  1  0.25324200  0.04433300  0.84761600  1
  N  N6  1  0.25908900  0.52940700  0.23623500  1
  N  N7  1  0.47059300  0.76376500  0.74091100  1
  N  N8  1  0.36662100  0.86997600  0.24241700  1
  N  N9  1  0.36997600  0.86662100  0.74241700  1
  N  N10  1  0.56432200  0.09776500  0.05647000  1
  N  N11  1  0.13002400  0.75758300  0.63337900  1
  N  N12  1  0.74675800  0.95566700  0.15238400  1
  N  N13  1  0.24091100  0.26376500  0.97059300  1
  N  N14  1  0.95566700  0.15238400  0.74675800  1
  N  N15  1  0.74241700  0.36997600  0.86662100  1
  N  N16  1  0.75758300  0.63337900  0.13002400  1
  N  N17  1  0.34761600  0.54433300  0.75324200  1
  N  N18  1  0.94353000  0.43567800  0.90223500  1
  N  N19  1  0.97059300  0.24091100  0.26376500  1
  N  N20  1  0.04433300  0.84761600  0.25324200  1
  N  N21  1  0.23623500  0.25908900  0.52940700  1
  N  N22  1  0.54433300  0.75324200  0.34761600  1
  N  N23  1  0.75908900  0.73623500  0.02940700  1
  N  N24  1  0.00000000  0.00000000  0.00000000  1
  N  N25  1  0.05647000  0.56432200  0.09776500  1
  N  N26  1  0.45566700  0.24675800  0.65238400  1
  N  N27  1  0.73623500  0.02940700  0.75908900  1
  N  N28  1  0.75324200  0.34761600  0.54433300  1
  N  N29  1  0.63002400  0.13337900  0.25758300  1
  N  N30  1  0.52940700  0.23623500  0.25908900  1
  N  N31  1  0.86662100  0.74241700  0.36997600  1
  N  N32  1  0.86997600  0.24241700  0.36662100  1
  N  N33  1  0.40223500  0.93567800  0.44353000  1
  N  N34  1  0.02940700  0.75908900  0.73623500  1
  N  N35  1  0.44353000  0.40223500  0.93567800  1
  N  N36  1  0.59776500  0.06432200  0.55647000  1
  N  N37  1  0.63337900  0.13002400  0.75758300  1
  N  N38  1  0.55647000  0.59776500  0.06432200  1
  N  N39  1  0.24241700  0.36662100  0.86997600  1
  N  N40  1  0.24675800  0.65238400  0.45566700  1
  N  N41  1  0.06432200  0.55647000  0.59776500  1
  N  N42  1  0.50000000  0.50000000  0.50000000  1
  N  N43  1  0.74091100  0.47059300  0.76376500  1
  N  N44  1  0.84761600  0.25324200  0.04433300  1
  N  N45  1  0.43567800  0.90223500  0.94353000  1
  N  N46  1  0.09776500  0.05647000  0.56432200  1
  N  N47  1  0.25758300  0.63002400  0.13337900  1
  N  N48  1  0.26376500  0.97059300  0.24091100  1
  N  N49  1  0.76376500  0.74091100  0.47059300  1
loop_
_geom_bond_atom_site_label_1
_geom_bond_atom_site_label_2
_geom_bond_distance
_geom_bond_site_symmetry_2
Ce0 N49 2.254770 1_555
Ce0 N22 2.367568 1_555
Ce0 N42 2.527136 1_555
Ce0 N1 2.640739 1_555
Ce0 N31 2.692725 1_555
Ce0 N0 2.773133 1_555
Ce0 N28 2.795205 1_555
Ce0 N16 2.964341 1_555
Ce1 N27 2.283277 1_555
Ce1 N4 2.414789 1_545
Ce1 N32 2.519093 1_555
Ce1 N14 2.635185 1_555
Ce1 N46 2.676757 1_655
Ce1 N28 2.741400 1_555
Ce1 N36 2.923871 1_555
Ce2 N34 2.254770 1_555
Ce2 N3 2.367568 1_555
Ce2 N24 2.527136 1_566
Ce2 N5 2.640739 1_565
Ce2 N11 2.692725 1_555
Ce2 N46 2.773133 1_565
Ce2 N14 2.795205 1_465
Ce2 N9 2.964341 1_555
Ce3 N6 2.254770 1_555
Ce3 N40 2.367568 1_555
Ce3 N42 2.527136 1_555
Ce3 N22 2.640739 1_555
Ce3 N47 2.692725 1_555
Ce3 N38 2.773133 1_555
Ce3 N1 2.795205 1_555
Ce3 N8 2.964341 1_555
Ce4 N21 2.283277 1_555
Ce4 N33 2.414789 1_545
Ce4 N9 2.519093 1_545
Ce4 N26 2.635185 1_555
Ce4 N36 2.676757 1_555
Ce4 N5 2.741400 1_555
Ce4 N46 2.923871 1_555
Ce5 N30 2.254770 1_555
Ce5 N1 2.367568 1_555
Ce5 N42 2.527136 1_555
Ce5 N28 2.640739 1_555
Ce5 N29 2.692725 1_555
Ce5 N36 2.773133 1_555
Ce5 N26 2.795205 1_555
Ce5 N32 2.964341 1_555
Ce6 N49 2.287775 1_555
Ce6 N34 2.287775 1_655
Ce6 N4 2.574960 1_555
Ce6 N41 2.574960 1_655
Ce7 N30 2.283277 1_555
Ce7 N35 2.414789 1_554
Ce7 N15 2.519093 1_554
Ce7 N1 2.635185 1_555
Ce7 N38 2.676757 1_555
Ce7 N44 2.741400 1_555
Ce7 N10 2.923871 1_555
Ce8 N43 2.254770 1_555
Ce8 N28 2.367568 1_555
Ce8 N42 2.527136 1_555
Ce8 N26 2.640739 1_555
Ce8 N15 2.692725 1_555
Ce8 N35 2.773133 1_555
Ce8 N17 2.795205 1_555
Ce8 N37 2.964341 1_555
Ce9 N23 2.287775 1_556
Ce9 N43 2.287775 1_555
Ce9 N38 2.574960 1_556
Ce9 N18 2.574960 1_555
Ce10 N21 2.254770 1_555
Ce10 N26 2.367568 1_555
Ce10 N42 2.527136 1_555
Ce10 N17 2.640739 1_555
Ce10 N2 2.692725 1_555
Ce10 N41 2.773133 1_555
Ce10 N40 2.795205 1_555
Ce10 N39 2.964341 1_555
Ce11 N7 2.283277 1_555
Ce11 N38 2.414789 1_556
Ce11 N47 2.519093 1_556
Ce11 N17 2.635185 1_555
Ce11 N35 2.676757 1_555
Ce11 N3 2.741400 1_555
Ce11 N45 2.923871 1_555
Ce12 N13 2.287775 1_554
Ce12 N6 2.287775 1_555
Ce12 N35 2.574960 1_554
Ce12 N25 2.574960 1_555
Ce13 N48 2.287775 1_545
Ce13 N30 2.287775 1_555
Ce13 N33 2.574960 1_545
Ce13 N10 2.574960 1_555
Ce14 N13 2.283277 1_555
Ce14 N10 2.414789 1_556
Ce14 N37 2.519093 1_555
Ce14 N5 2.635185 1_555
Ce14 N45 2.676757 1_545
Ce14 N26 2.741400 1_555
Ce14 N35 2.923871 1_555
Ce15 N49 2.283277 1_555
Ce15 N36 2.414789 1_565
Ce15 N29 2.519093 1_565
Ce15 N22 2.635185 1_555
Ce15 N33 2.676757 1_555
Ce15 N12 2.741400 1_555
Ce15 N4 2.923871 1_555
Ce16 N7 2.287775 1_555
Ce16 N27 2.287775 1_565
Ce16 N36 2.574960 1_565
Ce16 N45 2.574960 1_555
Ce17 N23 2.283277 1_555
Ce17 N45 2.414789 1_554
Ce17 N8 2.519093 1_555
Ce17 N12 2.635185 1_555
Ce17 N10 2.676757 1_565
Ce17 N22 2.741400 1_555
Ce17 N38 2.923871 1_555
Ce18 N43 2.283277 1_555
Ce18 N41 2.414789 1_655
Ce18 N2 2.519093 1_655
Ce18 N28 2.635185 1_555
Ce18 N0 2.676757 1_555
Ce18 N14 2.741400 1_555
Ce18 N18 2.923871 1_555
Ce19 N19 2.254770 1_555
Ce19 N44 2.367568 1_555
Ce19 N24 2.527136 1_655
Ce19 N12 2.640739 1_545
Ce19 N32 2.692725 1_555
Ce19 N4 2.773133 1_545
Ce19 N20 2.795205 1_645
Ce19 N29 2.964341 1_555
Ce20 N27 2.254770 1_555
Ce20 N14 2.367568 1_555
Ce20 N24 2.527136 1_656
Ce20 N44 2.640739 1_556
Ce20 N37 2.692725 1_555
Ce20 N10 2.773133 1_556
Ce20 N12 2.795205 1_546
Ce20 N15 2.964341 1_555
Ce21 N13 2.254770 1_555
Ce21 N5 2.367568 1_555
Ce21 N24 2.527136 1_556
Ce21 N14 2.640739 1_455
Ce21 N39 2.692725 1_555
Ce21 N18 2.773133 1_455
Ce21 N44 2.795205 1_456
Ce21 N2 2.964341 1_555
Ce22 N48 2.254770 1_555
Ce22 N20 2.367568 1_555
Ce22 N24 2.527136 1_565
Ce22 N3 2.640739 1_554
Ce22 N8 2.692725 1_555
Ce22 N45 2.773133 1_554
Ce22 N5 2.795205 1_564
Ce22 N47 2.964341 1_555
Ce23 N21 2.287775 1_555
Ce23 N19 2.287775 1_455
Ce23 N46 2.574960 1_555
Ce23 N0 2.574960 1_455
Ce24 N19 2.283277 1_555
Ce24 N25 2.414789 1_655
Ce24 N16 2.519093 1_555
Ce24 N44 2.635185 1_555
Ce24 N18 2.676757 1_554
Ce24 N1 2.741400 1_555
Ce24 N0 2.923871 1_555
Ce25 N7 2.254770 1_555
Ce25 N17 2.367568 1_555
Ce25 N42 2.527136 1_555
Ce25 N40 2.640739 1_555
Ce25 N9 2.692725 1_555
Ce25 N33 2.773133 1_555
Ce25 N22 2.795205 1_555
Ce25 N11 2.964341 1_555
Ce26 N6 2.283277 1_555
Ce26 N0 2.414789 1_455
Ce26 N31 2.519093 1_455
Ce26 N40 2.635185 1_555
Ce26 N41 2.676757 1_555
Ce26 N20 2.741400 1_555
Ce26 N25 2.923871 1_555
Ce27 N48 2.283277 1_555
Ce27 N46 2.414789 1_565
Ce27 N11 2.519093 1_555
Ce27 N20 2.635185 1_555
Ce27 N4 2.676757 1_455
Ce27 N40 2.741400 1_555
Ce27 N33 2.923871 1_555
Ce28 N34 2.283277 1_555
Ce28 N18 2.414789 1_455
Ce28 N39 2.519093 1_555
Ce28 N3 2.635185 1_555
Ce28 N25 2.676757 1_556
Ce28 N17 2.741400 1_555
Ce28 N41 2.923871 1_555
Ce29 N23 2.254770 1_555
Ce29 N12 2.367568 1_555
Ce29 N24 2.527136 1_665
Ce29 N20 2.640739 1_655
Ce29 N16 2.692725 1_555
Ce29 N25 2.773133 1_655
Ce29 N3 2.795205 1_654
Ce29 N31 2.964341 1_555
B0 N49 2.297791 1_555
B0 N43 2.297791 1_555
B0 N7 2.297791 1_555
B0 Ce9 2.892611 1_555
B0 Ce16 2.892611 1_555
B0 Ce6 2.892611 1_555
B0 Ce0 2.973381 1_555
B0 Ce25 2.973381 1_555
B0 Ce8 2.973381 1_555
B1 N3 1.453736 1_554
B1 N25 1.469605 1_555
B1 N47 1.496284 1_555
B1 Ce29 2.837399 1_455
B2 N26 1.453736 1_555
B2 N36 1.469605 1_555
B2 N37 1.496284 1_555
B2 Ce5 2.837399 1_555
B3 N22 1.453736 1_555
B3 N33 1.469605 1_555
B3 N8 1.496284 1_555
B3 Ce25 2.837399 1_555
B4 N40 1.453736 1_555
B4 N41 1.469605 1_555
B4 N11 1.496284 1_555
B4 Ce10 2.837399 1_555
B5 N13 2.297791 1_554
B5 N19 2.297791 1_455
B5 N48 2.297791 1_545
B5 Ce23 2.892611 1_555
B5 Ce13 2.892611 1_555
B5 Ce12 2.892611 1_555
B5 Ce21 2.973381 1_554
B5 Ce22 2.973381 1_545
B5 Ce19 2.973381 1_455
B6 N20 1.453736 1_655
B6 N4 1.469605 1_555
B6 N31 1.496284 1_555
B6 Ce19 2.837399 1_565
B7 N21 2.297791 1_555
B7 N6 2.297791 1_555
B7 N30 2.297791 1_555
B7 Ce12 2.892611 1_555
B7 Ce13 2.892611 1_555
B7 Ce23 2.892611 1_555
B7 Ce10 2.973381 1_555
B7 Ce5 2.973381 1_555
B7 Ce3 2.973381 1_555
B8 N5 1.453736 1_565
B8 N45 1.469605 1_555
B8 N9 1.496284 1_555
B8 Ce22 2.837399 1_556
B9 N23 2.297791 1_556
B9 N34 2.297791 1_655
B9 N27 2.297791 1_565
B9 Ce6 2.892611 1_555
B9 Ce16 2.892611 1_555
B9 Ce9 2.892611 1_555
B9 Ce29 2.973381 1_556
B9 Ce20 2.973381 1_565
B9 Ce2 2.973381 1_655
B10 N1 1.453736 1_555
B10 N38 1.469605 1_555
B10 N16 1.496284 1_555
B10 Ce3 2.837399 1_555
B11 N44 1.453736 1_556
B11 N18 1.469605 1_555
B11 N15 1.496284 1_555
B11 Ce21 2.837399 1_655
B12 N14 1.453736 1_455
B12 N46 1.469605 1_555
B12 N2 1.496284 1_555
B12 Ce2 2.837399 1_545
B13 N12 1.453736 1_545
B13 N10 1.469605 1_555
B13 N29 1.496284 1_555
B13 Ce20 2.837399 1_554
B14 N28 1.453736 1_555
B14 N0 1.469605 1_555
B14 N32 1.496284 1_555
B14 Ce0 2.837399 1_555
B15 N17 1.453736 1_555
B15 N35 1.469605 1_555
B15 N39 1.496284 1_555
B15 Ce8 2.837399 1_555
N2 N21 1.433850 1_555
N7 N9 1.433850 1_555
N11 N34 1.433850 1_555
N13 N39 1.433850 1_555
N15 N43 1.433850 1_555
N16 N23 1.433850 1_555
N19 N32 1.433850 1_555
N27 N37 1.433850 1_555
N29 N30 1.433850 1_555
N31 N49 1.433850 1_555
N47 N6 1.433850 1_555
N48 N8 1.433850 1_555
