# generated using pymatgen
data_Ce12C6I17
_symmetry_space_group_name_H-M   'P 1'
_cell_length_a   11.74281048
_cell_length_b   11.74281048
_cell_length_c   19.27021447
_cell_angle_alpha   89.79755058
_cell_angle_beta   89.79755058
_cell_angle_gamma   64.65347953
_symmetry_Int_Tables_number   1
_chemical_formula_structural   Ce12C6I17
_chemical_formula_sum   'Ce24 C12 I34'
_cell_volume   2401.41978195
_cell_formula_units_Z   2
loop_
 _symmetry_equiv_pos_site_id
 _symmetry_equiv_pos_as_xyz
  1  'x, y, z'
loop_
 _atom_site_type_symbol
 _atom_site_label
 _atom_site_symmetry_multiplicity
 _atom_site_fract_x
 _atom_site_fract_y
 _atom_site_fract_z
 _atom_site_occupancy
  Ce  Ce0  1  0.07288900  0.01979600  0.15465100  1
  Ce  Ce1  1  0.57367100  0.09826700  0.88447800  1
  Ce  Ce2  1  0.70182400  0.28574000  0.97802100  1
  Ce  Ce3  1  0.09826700  0.57367100  0.38447800  1
  Ce  Ce4  1  0.01979600  0.07288900  0.65465100  1
  Ce  Ce5  1  0.35733700  0.35687300  0.04911700  1
  Ce  Ce6  1  0.92711100  0.98020400  0.84534900  1
  Ce  Ce7  1  0.64312700  0.64266300  0.45088300  1
  Ce  Ce8  1  0.54538500  0.53601800  0.12687300  1
  Ce  Ce9  1  0.45461500  0.46398200  0.87312700  1
  Ce  Ce10  1  0.35687300  0.35733700  0.54911700  1
  Ce  Ce11  1  0.28574000  0.70182400  0.47802100  1
  Ce  Ce12  1  0.90173300  0.42632900  0.61552200  1
  Ce  Ce13  1  0.53601800  0.54538500  0.62687300  1
  Ce  Ce14  1  0.71426000  0.29817600  0.52197900  1
  Ce  Ce15  1  0.80603700  0.33827500  0.78759600  1
  Ce  Ce16  1  0.42632900  0.90173300  0.11552200  1
  Ce  Ce17  1  0.98020400  0.92711100  0.34534900  1
  Ce  Ce18  1  0.64266300  0.64312700  0.95088300  1
  Ce  Ce19  1  0.46398200  0.45461500  0.37312700  1
  Ce  Ce20  1  0.66172500  0.19396300  0.71240400  1
  Ce  Ce21  1  0.19396300  0.66172500  0.21240400  1
  Ce  Ce22  1  0.33827500  0.80603700  0.28759600  1
  Ce  Ce23  1  0.29817600  0.71426000  0.02197900  1
  C  C0  1  0.27807400  0.63303600  0.34894300  1
  C  C1  1  0.53365100  0.53345300  0.98845300  1
  C  C2  1  0.16500300  0.74473400  0.34646200  1
  C  C3  1  0.25526600  0.83499700  0.15353800  1
  C  C4  1  0.53345300  0.53365100  0.48845300  1
  C  C5  1  0.46654700  0.46634900  0.51154700  1
  C  C6  1  0.63303600  0.27807400  0.84894300  1
  C  C7  1  0.36696400  0.72192600  0.15105700  1
  C  C8  1  0.83499700  0.25526600  0.65353800  1
  C  C9  1  0.72192600  0.36696400  0.65105700  1
  C  C10  1  0.46634900  0.46654700  0.01154700  1
  C  C11  1  0.74473400  0.16500300  0.84646200  1
  I  I0  1  0.39573300  0.90042500  0.44236600  1
  I  I1  1  0.79326200  0.81369000  0.89929200  1
  I  I2  1  0.91051900  0.39870200  0.44824000  1
  I  I3  1  0.39870200  0.91051900  0.94824000  1
  I  I4  1  0.28426300  0.80608600  0.63996300  1
  I  I5  1  0.11516200  0.09885700  0.30476100  1
  I  I6  1  0.60426700  0.09957500  0.55763400  1
  I  I7  1  0.30890800  0.28636600  0.39698700  1
  I  I8  1  0.88483800  0.90114300  0.69523900  1
  I  I9  1  0.97160000  0.50132800  0.75641800  1
  I  I10  1  0.42366300  0.37257800  0.20891000  1
  I  I11  1  0.18631000  0.20673800  0.60070800  1
  I  I12  1  0.80608600  0.28426300  0.13996300  1
  I  I13  1  0.71363400  0.69109200  0.10301300  1
  I  I14  1  0.08948100  0.60129800  0.55176000  1
  I  I15  1  0.02840000  0.49867200  0.24358200  1
  I  I16  1  0.69109200  0.71363400  0.60301300  1
  I  I17  1  0.71573700  0.19391400  0.36003700  1
  I  I18  1  0.28636600  0.30890800  0.89698700  1
  I  I19  1  0.62742200  0.57633700  0.29109000  1
  I  I20  1  0.09885700  0.11516200  0.80476100  1
  I  I21  1  0.20673800  0.18631000  0.10070800  1
  I  I22  1  0.60129800  0.08948100  0.05176000  1
  I  I23  1  0.49867200  0.02840000  0.74358200  1
  I  I24  1  0.81369000  0.79326200  0.39929200  1
  I  I25  1  0.09957500  0.60426700  0.05763400  1
  I  I26  1  0.50132800  0.97160000  0.25641800  1
  I  I27  1  0.57633700  0.62742200  0.79109000  1
  I  I28  1  0.37257800  0.42366300  0.70891000  1
  I  I29  1  0.90042500  0.39573300  0.94236600  1
  I  I30  1  0.90114300  0.88483800  0.19523900  1
  I  I31  1  0.19391400  0.71573700  0.86003700  1
  I  I32  1  0.00000000  0.00000000  0.00000000  1
  I  I33  1  0.00000000  0.00000000  0.50000000  1
loop_
_geom_bond_atom_site_label_1
_geom_bond_atom_site_label_2
_geom_bond_distance
_geom_bond_site_symmetry_2
Ce0 I32 3.140264 1_555
Ce0 I5 3.146344 1_555
Ce0 I30 3.147585 1_445
Ce0 I21 3.159079 1_555
Ce0 I12 3.348147 1_455
Ce1 I23 3.077624 1_555
Ce1 I18 3.226803 1_555
Ce1 I22 3.237841 1_556
Ce1 I1 3.243243 1_545
Ce1 I3 3.799111 1_545
Ce2 I29 3.184442 1_555
Ce2 I22 3.319371 1_556
Ce2 I12 3.353538 1_556
Ce2 I32 3.693162 1_656
Ce3 I15 3.077624 1_555
Ce3 I7 3.226803 1_555
Ce3 I14 3.237841 1_555
Ce3 I24 3.243243 1_455
Ce3 I2 3.799111 1_455
Ce4 I33 3.140264 1_555
Ce4 I20 3.146344 1_555
Ce4 I8 3.147585 1_445
Ce4 I11 3.159079 1_555
Ce4 I4 3.348147 1_545
Ce5 I18 3.168087 1_554
Ce5 I25 3.177978 1_555
Ce5 I10 3.204109 1_555
Ce5 I22 3.219799 1_555
Ce5 I21 3.336689 1_555
Ce6 I32 3.140264 1_666
Ce6 I8 3.146344 1_555
Ce6 I20 3.147585 1_665
Ce6 I1 3.159079 1_555
Ce6 I31 3.348147 1_655
Ce7 I16 3.168087 1_555
Ce7 I0 3.177978 1_555
Ce7 I19 3.204109 1_555
Ce7 I2 3.219799 1_555
Ce7 I24 3.336689 1_555
Ce8 I12 3.229052 1_555
Ce8 I13 3.240208 1_555
Ce8 I10 3.246085 1_555
Ce8 I19 3.404244 1_555
Ce9 I31 3.229052 1_555
Ce9 I18 3.240208 1_555
Ce9 I27 3.246085 1_555
Ce9 I28 3.404244 1_555
Ce10 I7 3.168087 1_555
Ce10 I6 3.177978 1_555
Ce10 I28 3.204109 1_555
Ce10 I14 3.219799 1_555
Ce10 I11 3.336689 1_555
Ce11 I0 3.184442 1_555
Ce11 I14 3.319371 1_555
Ce11 I4 3.353538 1_555
Ce11 I33 3.693162 1_565
Ce12 I9 3.077624 1_555
Ce12 I16 3.226803 1_555
Ce12 I2 3.237841 1_555
Ce12 I11 3.243243 1_655
Ce12 I14 3.799111 1_655
Ce13 I4 3.229052 1_555
Ce13 I16 3.240208 1_555
Ce13 I28 3.246085 1_555
Ce13 I27 3.404244 1_555
Ce14 I6 3.184442 1_555
Ce14 I2 3.319371 1_555
Ce14 I17 3.353538 1_555
Ce14 I33 3.693162 1_655
Ce15 I27 3.311767 1_555
Ce15 I9 3.313251 1_555
Ce15 I20 3.329540 1_655
Ce15 I29 3.355092 1_555
Ce16 I26 3.077624 1_555
Ce16 I13 3.226803 1_555
Ce16 I3 3.237841 1_554
Ce16 I21 3.243243 1_565
Ce16 I22 3.799111 1_565
Ce17 I33 3.140264 1_665
Ce17 I30 3.146344 1_555
Ce17 I5 3.147585 1_665
Ce17 I24 3.159079 1_555
Ce17 I17 3.348147 1_565
Ce18 I13 3.168087 1_556
Ce18 I29 3.177978 1_555
Ce18 I27 3.204109 1_555
Ce18 I3 3.219799 1_555
Ce18 I1 3.336689 1_555
Ce19 I17 3.229052 1_555
Ce19 I7 3.240208 1_555
Ce19 I19 3.246085 1_555
Ce19 I10 3.404244 1_555
Ce20 I28 3.311767 1_555
Ce20 I23 3.313251 1_555
Ce20 I8 3.329540 1_545
Ce20 I6 3.355092 1_555
Ce21 I10 3.311767 1_555
Ce21 I15 3.313251 1_555
Ce21 I30 3.329540 1_455
Ce21 I25 3.355092 1_555
Ce22 I19 3.311767 1_555
Ce22 I26 3.313251 1_555
Ce22 I5 3.329540 1_565
Ce22 I0 3.355092 1_555
Ce23 I25 3.184442 1_555
Ce23 I3 3.319371 1_554
Ce23 I31 3.353538 1_554
Ce23 I32 3.693162 1_565
C0 C2 1.412298 1_555
C0 Ce19 2.336006 1_555
C0 Ce3 2.580636 1_555
C0 Ce11 2.631651 1_555
C0 Ce22 2.689063 1_555
C0 Ce21 2.781929 1_555
C1 C10 1.402349 1_556
C1 Ce18 2.284699 1_555
C1 Ce9 2.672337 1_555
C1 Ce8 2.672367 1_556
C1 Ce2 2.735826 1_555
C1 Ce23 2.746231 1_556
C2 Ce17 2.305882 1_455
C2 Ce3 2.553286 1_555
C2 Ce22 2.678988 1_555
C2 Ce21 2.732609 1_555
C2 Ce11 2.845318 1_555
C3 C7 1.412298 1_555
C3 Ce0 2.305882 1_565
C3 Ce16 2.553286 1_555
C3 Ce21 2.678988 1_555
C3 Ce22 2.732609 1_555
C3 Ce23 2.845318 1_555
C4 C5 1.402349 1_555
C4 Ce7 2.284699 1_555
C4 Ce19 2.672337 1_555
C4 Ce13 2.672367 1_555
C4 Ce11 2.735826 1_555
C4 Ce14 2.746231 1_555
C5 Ce10 2.284699 1_555
C5 Ce13 2.672337 1_555
C5 Ce19 2.672367 1_555
C5 Ce14 2.735826 1_555
C5 Ce11 2.746231 1_555
C6 Ce9 2.336006 1_555
C6 Ce1 2.580636 1_555
C6 Ce2 2.631651 1_555
C6 Ce15 2.689063 1_555
C6 Ce20 2.781929 1_555
C7 Ce8 2.336006 1_555
C7 Ce16 2.580636 1_555
C7 Ce23 2.631651 1_555
C7 Ce21 2.689063 1_555
C7 Ce22 2.781929 1_555
C8 C9 1.412298 1_555
C8 Ce4 2.305882 1_655
C8 Ce12 2.553286 1_555
C8 Ce20 2.678988 1_555
C8 Ce15 2.732609 1_555
C8 Ce14 2.845318 1_555
C9 Ce13 2.336006 1_555
C9 Ce12 2.580636 1_555
C9 Ce14 2.631651 1_555
C9 Ce20 2.689063 1_555
C9 Ce15 2.781929 1_555
C10 Ce5 2.284699 1_555
C10 Ce8 2.672337 1_555
C10 Ce9 2.672367 1_554
C10 Ce23 2.735826 1_555
C10 Ce2 2.746231 1_554
C11 C6 1.412298 1_555
C11 Ce6 2.305882 1_545
C11 Ce1 2.553286 1_555
C11 Ce15 2.678988 1_555
C11 Ce20 2.732609 1_555
C11 Ce2 2.845318 1_555
