# generated using pymatgen
data_Ti3Zn3N
_symmetry_space_group_name_H-M   'P 1'
_cell_length_a   8.07183455
_cell_length_b   8.07185117
_cell_length_c   8.07182259
_cell_angle_alpha   60.00050417
_cell_angle_beta   60.00040547
_cell_angle_gamma   60.00045073
_symmetry_Int_Tables_number   1
_chemical_formula_structural   Ti3Zn3N
_chemical_formula_sum   'Ti12 Zn12 N4'
_cell_volume   371.88312575
_cell_formula_units_Z   4
loop_
 _symmetry_equiv_pos_site_id
 _symmetry_equiv_pos_as_xyz
  1  'x, y, z'
loop_
 _atom_site_type_symbol
 _atom_site_label
 _atom_site_symmetry_multiplicity
 _atom_site_fract_x
 _atom_site_fract_y
 _atom_site_fract_z
 _atom_site_occupancy
  Ti  Ti0  1  0.81976586  0.81976944  0.18022853  1
  Ti  Ti1  1  0.18023584  0.18023315  0.81976690  1
  Ti  Ti2  1  0.81977119  0.18022479  0.81977081  1
  Ti  Ti3  1  0.18022991  0.81977484  0.18022754  1
  Ti  Ti4  1  0.18022405  0.81977518  0.81977128  1
  Ti  Ti5  1  0.81977156  0.18023015  0.18022989  1
  Ti  Ti6  1  0.43023098  0.43023186  0.06976732  1
  Ti  Ti7  1  0.06976869  0.06976708  0.43023300  1
  Ti  Ti8  1  0.43023083  0.06976659  0.43023468  1
  Ti  Ti9  1  0.06976838  0.43023227  0.06976603  1
  Ti  Ti10  1  0.06977397  0.43022499  0.43022769  1
  Ti  Ti11  1  0.43022277  0.06977635  0.06977523  1
  Zn  Zn0  1  0.12500589  0.62498877  0.62497357  1
  Zn  Zn1  1  0.62499176  0.12500865  0.62502180  1
  Zn  Zn2  1  0.62497481  0.62502008  0.12500945  1
  Zn  Zn3  1  0.62503090  0.62497403  0.62499305  1
  Zn  Zn4  1  0.75253734  0.41582194  0.41583720  1
  Zn  Zn5  1  0.41582124  0.75253100  0.41579883  1
  Zn  Zn6  1  0.41583585  0.41579961  0.75253184  1
  Zn  Zn7  1  0.41579971  0.41584454  0.41583090  1
  Zn  Zn8  1  0.49744722  0.83419211  0.83420987  1
  Zn  Zn9  1  0.83419516  0.49744844  0.83416387  1
  Zn  Zn10  1  0.83421175  0.83416427  0.49744625  1
  Zn  Zn11  1  0.83415830  0.83419534  0.83418336  1
  N  N0  1  0.62499975  0.12500032  0.12500845  1
  N  N1  1  0.12499951  0.62500600  0.12498135  1
  N  N2  1  0.12500822  0.12498179  0.62500593  1
  N  N3  1  0.12499057  0.12501342  0.12500339  1
loop_
_geom_bond_atom_site_label_1
_geom_bond_atom_site_label_2
_geom_bond_distance
_geom_bond_site_symmetry_2
Ti0 Zn11 2.681957 1_554
Ti0 Zn10 2.681979 1_555
Ti0 Zn2 3.002515 1_555
Ti0 Zn3 3.002551 1_555
Ti0 Zn4 3.013186 1_555
Ti0 Zn5 3.013191 1_555
Ti1 Zn8 2.681906 1_545
Ti1 Zn9 2.681918 1_455
Ti1 Zn0 3.002501 1_555
Ti1 Zn1 3.002502 1_555
Ti1 Zn6 3.013077 1_555
Ti1 Zn7 3.013142 1_555
Ti2 Zn11 2.681909 1_545
Ti2 Zn9 2.681932 1_555
Ti2 Zn1 3.002413 1_555
Ti2 Zn3 3.002459 1_555
Ti2 Zn4 3.013098 1_555
Ti2 Zn6 3.013129 1_555
Ti3 Zn8 2.681818 1_554
Ti3 Zn10 2.681826 1_455
Ti3 Zn0 3.002432 1_555
Ti3 Zn2 3.002437 1_555
Ti3 Zn5 3.013013 1_555
Ti3 Zn7 3.013119 1_555
Ti4 Zn11 2.682076 1_455
Ti4 Zn8 2.682091 1_555
Ti4 Zn0 3.002812 1_555
Ti4 Zn3 3.002856 1_555
Ti4 Zn5 3.013397 1_555
Ti4 Zn6 3.013414 1_555
Ti5 Zn10 2.682034 1_545
Ti5 Zn9 2.682040 1_554
Ti5 Zn1 3.002752 1_555
Ti5 Zn2 3.002753 1_555
Ti5 Zn4 3.013302 1_555
Ti5 Zn7 3.013402 1_555
Ti6 Zn6 2.682064 1_554
Ti6 Zn7 2.682104 1_555
Ti6 Zn2 3.002582 1_555
Ti6 Zn3 3.002622 1_554
Ti6 Zn8 3.013234 1_554
Ti6 Zn9 3.013255 1_554
Ti7 Zn4 2.682040 1_455
Ti7 Zn5 2.682046 1_545
Ti7 Zn1 3.002622 1_455
Ti7 Zn0 3.002648 1_545
Ti7 Zn10 3.013110 1_445
Ti7 Zn11 3.013217 1_445
Ti8 Zn5 2.682152 1_545
Ti8 Zn7 2.682170 1_555
Ti8 Zn1 3.002690 1_555
Ti8 Zn3 3.002755 1_545
Ti8 Zn8 3.013329 1_545
Ti8 Zn10 3.013355 1_545
Ti9 Zn6 2.682099 1_554
Ti9 Zn4 2.682103 1_455
Ti9 Zn0 3.002734 1_554
Ti9 Zn2 3.002736 1_455
Ti9 Zn9 3.013202 1_454
Ti9 Zn11 3.013302 1_454
Ti10 Zn4 2.681929 1_455
Ti10 Zn7 2.681956 1_555
Ti10 Zn0 3.002370 1_555
Ti10 Zn3 3.002412 1_455
Ti10 Zn9 3.013079 1_455
Ti10 Zn10 3.013094 1_455
Ti11 Zn6 2.681946 1_554
Ti11 Zn5 2.681954 1_545
Ti11 Zn1 3.002469 1_554
Ti11 Zn2 3.002498 1_545
Ti11 Zn8 3.012995 1_544
Ti11 Zn11 3.013131 1_544
Zn0 Zn7 2.476747 1_555
Zn0 Zn10 2.476898 1_455
Zn0 Zn9 2.477065 1_455
Zn0 Zn5 2.477104 1_555
Zn0 Zn6 2.477271 1_555
Zn0 Zn11 2.477436 1_455
Zn1 Zn6 2.476802 1_555
Zn1 Zn11 2.476975 1_545
Zn1 Zn4 2.477109 1_555
Zn1 Zn8 2.477126 1_545
Zn1 Zn7 2.477267 1_555
Zn1 Zn10 2.477443 1_545
Zn2 Zn5 2.476790 1_555
Zn2 Zn8 2.476934 1_554
Zn2 Zn7 2.477092 1_555
Zn2 Zn4 2.477274 1_555
Zn2 Zn9 2.477429 1_554
Zn3 Zn4 2.476846 1_555
Zn3 Zn9 2.476982 1_555
Zn3 Zn6 2.477185 1_555
Zn3 Zn5 2.477367 1_555
Zn3 Zn8 2.477515 1_555
Zn4 Zn6 2.717786 1_555
Zn4 Zn5 2.717910 1_555
Zn4 Zn7 2.718025 1_555
Zn5 Zn7 2.717640 1_555
Zn5 Zn6 2.718068 1_555
Zn6 Zn7 2.717755 1_555
Zn8 Zn9 2.718178 1_555
Zn10 Zn3 2.477178 1_555
Zn10 Zn9 2.717943 1_555
Zn10 Zn11 2.717992 1_555
Zn10 Zn8 2.718319 1_555
Zn11 Zn2 2.477138 1_556
Zn11 Zn8 2.717782 1_555
Zn11 Zn9 2.718101 1_555
N0 Ti5 2.114114 1_555
N0 Ti8 2.114141 1_555
N0 Ti0 2.114168 1_545
N0 Ti6 2.114177 1_555
N0 Ti11 2.114187 1_555
N0 Ti2 2.114210 1_554
N1 Ti4 2.114054 1_554
N1 Ti9 2.114104 1_555
N1 Ti0 2.114174 1_455
N1 Ti6 2.114185 1_555
N1 Ti3 2.114234 1_555
N1 Ti10 2.114281 1_555
N2 Ti4 2.114032 1_545
N2 Ti8 2.114127 1_555
N2 Ti7 2.114137 1_555
N2 Ti1 2.114183 1_555
N2 Ti2 2.114193 1_455
N2 Ti10 2.114263 1_555
N3 Ti9 2.114081 1_555
N3 Ti5 2.114111 1_455
N3 Ti7 2.114136 1_555
N3 Ti11 2.114165 1_555
N3 Ti1 2.114196 1_554
N3 Ti3 2.114224 1_545
