# generated using pymatgen
data_Eu3As4
_symmetry_space_group_name_H-M   'P 1'
_cell_length_a   7.84356703
_cell_length_b   7.84356703
_cell_length_c   9.10233029
_cell_angle_alpha   83.30252206
_cell_angle_beta   83.30252206
_cell_angle_gamma   136.79388131
_symmetry_Int_Tables_number   1
_chemical_formula_structural   Eu3As4
_chemical_formula_sum   'Eu6 As8'
_cell_volume   363.63925804
_cell_formula_units_Z   2
loop_
 _symmetry_equiv_pos_site_id
 _symmetry_equiv_pos_as_xyz
  1  'x, y, z'
loop_
 _atom_site_type_symbol
 _atom_site_label
 _atom_site_symmetry_multiplicity
 _atom_site_fract_x
 _atom_site_fract_y
 _atom_site_fract_z
 _atom_site_occupancy
  Eu  Eu0  1  0.88854800  0.62711200  0.16861300  1
  Eu  Eu1  1  0.54589600  0.29797100  0.83407900  1
  Eu  Eu2  1  0.29797100  0.54589600  0.33407900  1
  Eu  Eu3  1  0.62711200  0.88854800  0.66861300  1
  Eu  Eu4  1  0.00525300  0.24935400  0.00063900  1
  Eu  Eu5  1  0.24935400  0.00525300  0.50063900  1
  As  As0  1  0.59727800  0.66295600  0.99259100  1
  As  As1  1  0.13449400  0.71318300  0.83248600  1
  As  As2  1  0.66295600  0.59727800  0.49259100  1
  As  As3  1  0.30627500  0.21859300  0.16291400  1
  As  As4  1  0.71318300  0.13449400  0.33248600  1
  As  As5  1  0.84116800  0.40862900  0.51114600  1
  As  As6  1  0.40862900  0.84116800  0.01114600  1
  As  As7  1  0.21859300  0.30627500  0.66291400  1
loop_
_geom_bond_atom_site_label_1
_geom_bond_atom_site_label_2
_geom_bond_distance
_geom_bond_site_symmetry_2
As0 As3 2.465397 1_556
As0 As6 2.680268 1_556
As0 Eu0 3.090400 1_556
As0 Eu1 3.139565 1_555
As0 Eu3 3.146480 1_555
As0 Eu4 3.161824 1_556
As0 Eu4 3.174504 1_666
As0 Eu2 3.241306 1_556
As1 As6 2.515044 1_556
As1 Eu3 3.078283 1_555
As1 Eu4 3.093357 1_556
As1 Eu0 3.127447 1_456
As1 Eu1 3.146648 1_565
As1 Eu5 3.150577 1_565
As1 Eu1 3.158391 1_455
As2 As7 2.465397 1_555
As2 As5 2.680268 1_555
As2 Eu3 3.090400 1_555
As2 Eu2 3.139565 1_555
As2 Eu0 3.146480 1_555
As2 Eu5 3.161824 1_555
As2 Eu5 3.174504 1_665
As2 Eu1 3.241306 1_555
As3 Eu4 3.061948 1_555
As3 Eu1 3.070241 1_554
As3 Eu5 3.136929 1_555
As3 Eu0 3.144651 1_555
As3 Eu0 3.163253 1_445
As3 Eu2 3.189872 1_555
As4 As5 2.515044 1_555
As4 Eu0 3.078283 1_555
As4 Eu5 3.093357 1_555
As4 Eu3 3.127447 1_545
As4 Eu2 3.146648 1_655
As4 Eu4 3.150577 1_655
As4 Eu2 3.158391 1_545
As5 Eu2 3.036298 1_655
As5 Eu3 3.099098 1_545
As5 Eu1 3.105483 1_555
As5 Eu5 3.184583 1_665
As5 Eu5 3.214198 1_555
As5 Eu0 3.217275 1_555
As6 Eu1 3.036298 1_564
As6 Eu0 3.099098 1_455
As6 Eu2 3.105483 1_555
As6 Eu4 3.184583 1_665
As6 Eu4 3.214198 1_555
As6 Eu3 3.217275 1_554
As7 Eu5 3.061948 1_555
As7 Eu2 3.070241 1_555
As7 Eu4 3.136929 1_556
As7 Eu3 3.144651 1_555
As7 Eu3 3.163253 1_445
As7 Eu1 3.189872 1_555
