# generated using pymatgen
data_NiSe
_symmetry_space_group_name_H-M   'P 1'
_cell_length_a   3.65627347
_cell_length_b   3.65627268
_cell_length_c   5.24950917
_cell_angle_alpha   90.00000000
_cell_angle_beta   90.00000000
_cell_angle_gamma   120.00000705
_symmetry_Int_Tables_number   1
_chemical_formula_structural   NiSe
_chemical_formula_sum   'Ni2 Se2'
_cell_volume   60.77522121
_cell_formula_units_Z   2
loop_
 _symmetry_equiv_pos_site_id
 _symmetry_equiv_pos_as_xyz
  1  'x, y, z'
loop_
 _atom_site_type_symbol
 _atom_site_label
 _atom_site_symmetry_multiplicity
 _atom_site_fract_x
 _atom_site_fract_y
 _atom_site_fract_z
 _atom_site_occupancy
  Ni  Ni0  1  -0.00000000  -0.00000000  0.00000000  1
  Ni  Ni1  1  -0.00000000  -0.00000000  0.50000000  1
  Se  Se0  1  0.33333300  0.66666700  0.25000000  1
  Se  Se1  1  0.66666700  0.33333300  0.75000000  1
loop_
_geom_bond_atom_site_label_1
_geom_bond_atom_site_label_2
_geom_bond_distance
_geom_bond_site_symmetry_2
Ni0 Se0 2.485646 1_545
Ni0 Se1 2.485646 1_454
Ni0 Se1 2.485648 1_444
Ni0 Se0 2.485648 1_555
Ni0 Se1 2.485649 1_554
Ni0 Se0 2.485649 1_445
Ni1 Se1 2.485646 1_455
Ni1 Se0 2.485646 1_545
Ni1 Se1 2.485648 1_445
Ni1 Se0 2.485648 1_555
Ni1 Se1 2.485649 1_555
Ni1 Se0 2.485649 1_445
