# generated using pymatgen
data_K(Zr3I7)4
_symmetry_space_group_name_H-M   'P 1'
_cell_length_a   11.33677500
_cell_length_b   11.33677528
_cell_length_c   53.28751243
_cell_angle_alpha   90.00000000
_cell_angle_beta   90.00000000
_cell_angle_gamma   93.96941227
_symmetry_Int_Tables_number   1
_chemical_formula_structural   K(Zr3I7)4
_chemical_formula_sum   'K4 Zr48 I112'
_cell_volume   6832.21386642
_cell_formula_units_Z   4
loop_
 _symmetry_equiv_pos_site_id
 _symmetry_equiv_pos_as_xyz
  1  'x, y, z'
loop_
 _atom_site_type_symbol
 _atom_site_label
 _atom_site_symmetry_multiplicity
 _atom_site_fract_x
 _atom_site_fract_y
 _atom_site_fract_z
 _atom_site_occupancy
  K  K0  1  0.99427703  0.99427703  0.64862657  1
  K  K1  1  0.06249852  0.06249852  0.87625357  1
  K  K2  1  0.56249852  0.56249852  0.49874643  1
  K  K3  1  0.49427703  0.49427703  0.72637343  1
  Zr  Zr0  1  0.05203367  0.82266095  0.09574469  1
  Zr  Zr1  1  0.05391392  0.82012931  0.34457411  1
  Zr  Zr2  1  0.04730156  0.83067585  0.59983775  1
  Zr  Zr3  1  0.01303874  0.80320461  0.84632177  1
  Zr  Zr4  1  0.18102625  0.94958648  0.15484446  1
  Zr  Zr5  1  0.16602237  0.95996430  0.39958539  1
  Zr  Zr6  1  0.21812641  0.94756594  0.65252718  1
  Zr  Zr7  1  0.21572035  0.91352287  0.91304296  1
  Zr  Zr8  1  0.10288139  0.10288139  0.10691155  1
  Zr  Zr9  1  0.11220422  0.11220422  0.35217099  1
  Zr  Zr10  1  0.12438866  0.12438866  0.60187511  1
  Zr  Zr11  1  0.19273869  0.19273869  0.83670621  1
  Zr  Zr12  1  0.32012931  0.55391392  0.03042589  1
  Zr  Zr13  1  0.30320461  0.51303874  0.52867823  1
  Zr  Zr14  1  0.32266095  0.55203367  0.27925531  1
  Zr  Zr15  1  0.33067585  0.54730156  0.77516225  1
  Zr  Zr16  1  0.39950074  0.39950074  0.23119173  1
  Zr  Zr17  1  0.32093987  0.32093987  0.72418734  1
  Zr  Zr18  1  0.35444886  0.35444886  0.47955731  1
  Zr  Zr19  1  0.39277673  0.39277673  0.98109371  1
  Zr  Zr20  1  0.44958648  0.68102625  0.22015554  1
  Zr  Zr21  1  0.44756594  0.71812641  0.72247282  1
  Zr  Zr22  1  0.41352287  0.71572035  0.46195704  1
  Zr  Zr23  1  0.45996430  0.66602237  0.97541461  1
  Zr  Zr24  1  0.55391392  0.32012931  0.03042589  1
  Zr  Zr25  1  0.55203367  0.32266095  0.27925531  1
  Zr  Zr26  1  0.51303874  0.30320461  0.52867823  1
  Zr  Zr27  1  0.54730156  0.33067585  0.77516225  1
  Zr  Zr28  1  0.61220422  0.61220422  0.02282901  1
  Zr  Zr29  1  0.60288139  0.60288139  0.26808845  1
  Zr  Zr30  1  0.69273869  0.69273869  0.53829379  1
  Zr  Zr31  1  0.62438866  0.62438866  0.77312489  1
  Zr  Zr32  1  0.71812641  0.44756594  0.72247282  1
  Zr  Zr33  1  0.68102625  0.44958648  0.22015554  1
  Zr  Zr34  1  0.71572035  0.41352287  0.46195704  1
  Zr  Zr35  1  0.66602237  0.45996430  0.97541461  1
  Zr  Zr36  1  0.89950074  0.89950074  0.14380827  1
  Zr  Zr37  1  0.82093987  0.82093987  0.65081266  1
  Zr  Zr38  1  0.85444886  0.85444886  0.89544269  1
  Zr  Zr39  1  0.89277673  0.89277673  0.39390629  1
  Zr  Zr40  1  0.82266095  0.05203367  0.09574469  1
  Zr  Zr41  1  0.82012931  0.05391392  0.34457411  1
  Zr  Zr42  1  0.80320461  0.01303874  0.84632177  1
  Zr  Zr43  1  0.83067585  0.04730156  0.59983775  1
  Zr  Zr44  1  0.94958648  0.18102625  0.15484446  1
  Zr  Zr45  1  0.94756594  0.21812641  0.65252718  1
  Zr  Zr46  1  0.95996430  0.16602237  0.39958539  1
  Zr  Zr47  1  0.91352287  0.21572035  0.91304296  1
  I  I0  1  0.02940415  0.79427571  0.18496714  1
  I  I1  1  0.03497073  0.79881689  0.43396305  1
  I  I2  1  0.03835227  0.78820085  0.68480008  1
  I  I3  1  0.02334998  0.78711540  0.93673581  1
  I  I4  1  0.10722293  0.61146271  0.06241997  1
  I  I5  1  0.11146271  0.60722293  0.31258003  1
  I  I6  1  0.10339009  0.60345058  0.56192720  1
  I  I7  1  0.10345058  0.60339009  0.81307280  1
  I  I8  1  0.10718829  0.34397261  0.12756723  1
  I  I9  1  0.10918765  0.34683607  0.37423889  1
  I  I10  1  0.11800827  0.36259883  0.62506171  1
  I  I11  1  0.09963415  0.34806539  0.87680586  1
  I  I12  1  0.15585531  0.39531060  0.00284142  1
  I  I13  1  0.15893667  0.39547293  0.25195955  1
  I  I14  1  0.12491723  0.37535514  0.50128279  1
  I  I15  1  0.13216816  0.38749303  0.75527935  1
  I  I16  1  0.20867919  0.97346321  0.06573819  1
  I  I17  1  0.20611697  0.96681456  0.31262879  1
  I  I18  1  0.20250396  0.96056382  0.56424888  1
  I  I19  1  0.19268698  0.95677359  0.81547524  1
  I  I20  1  0.14393843  0.14393843  0.19060348  1
  I  I21  1  0.14978739  0.14978739  0.43816456  1
  I  I22  1  0.15353888  0.15353888  0.68968065  1
  I  I23  1  0.13452090  0.13452090  0.93694875  1
  I  I24  1  0.25337814  0.75366256  0.00082329  1
  I  I25  1  0.24820268  0.75271719  0.24982264  1
  I  I26  1  0.24353798  0.75742421  0.75113708  1
  I  I27  1  0.24800489  0.73692686  0.50101887  1
  I  I28  1  0.25271719  0.74820268  0.12517736  1
  I  I29  1  0.25366256  0.75337814  0.37417671  1
  I  I30  1  0.25742421  0.74353798  0.62386292  1
  I  I31  1  0.23692686  0.74800489  0.87398113  1
  I  I32  1  0.29427571  0.52940415  0.19003286  1
  I  I33  1  0.28711540  0.52334998  0.43826419  1
  I  I34  1  0.28820085  0.53835227  0.69019992  1
  I  I35  1  0.29881689  0.53497073  0.94103695  1
  I  I36  1  0.35643715  0.35643715  0.06529536  1
  I  I37  1  0.35824127  0.35824127  0.31512968  1
  I  I38  1  0.32908464  0.32908464  0.56583432  1
  I  I39  1  0.36205579  0.36205579  0.81537600  1
  I  I40  1  0.39171832  0.89171832  0.18750000  1
  I  I41  1  0.41758651  0.91758651  0.68750000  1
  I  I42  1  0.39125943  0.91821359  0.43403567  1
  I  I43  1  0.41821359  0.89125943  0.94096433  1
  I  I44  1  0.34397261  0.10718829  0.12756723  1
  I  I45  1  0.34683607  0.10918765  0.37423889  1
  I  I46  1  0.36259883  0.11800827  0.62506171  1
  I  I47  1  0.34806539  0.09963415  0.87680586  1
  I  I48  1  0.39531060  0.15585531  0.00284142  1
  I  I49  1  0.39547293  0.15893667  0.25195955  1
  I  I50  1  0.37535514  0.12491723  0.50128279  1
  I  I51  1  0.38749303  0.13216816  0.75527935  1
  I  I52  1  0.46681456  0.70611697  0.06237021  1
  I  I53  1  0.47346321  0.70867919  0.30926181  1
  I  I54  1  0.45677359  0.69268698  0.55952476  1
  I  I55  1  0.46056382  0.70250396  0.81075112  1
  I  I56  1  0.52940415  0.29427571  0.19003286  1
  I  I57  1  0.52334998  0.28711540  0.43826419  1
  I  I58  1  0.53835227  0.28820085  0.69019992  1
  I  I59  1  0.53497073  0.29881689  0.94103695  1
  I  I60  1  0.60718829  0.84397261  0.24743277  1
  I  I61  1  0.59963415  0.84806539  0.49819314  1
  I  I62  1  0.61800827  0.86259883  0.74993829  1
  I  I63  1  0.60918765  0.84683607  0.00076211  1
  I  I64  1  0.65893667  0.89547293  0.12304045  1
  I  I65  1  0.65585531  0.89531060  0.37215758  1
  I  I66  1  0.63216816  0.88749303  0.61972065  1
  I  I67  1  0.62491723  0.87535514  0.87371721  1
  I  I68  1  0.61146271  0.10722293  0.06241997  1
  I  I69  1  0.60722293  0.11146271  0.31258003  1
  I  I70  1  0.60339009  0.10345058  0.81307280  1
  I  I71  1  0.60345058  0.10339009  0.56192720  1
  I  I72  1  0.63452090  0.63452090  0.43805125  1
  I  I73  1  0.65353888  0.65353888  0.68531935  1
  I  I74  1  0.64393843  0.64393843  0.18439652  1
  I  I75  1  0.64978739  0.64978739  0.93683544  1
  I  I76  1  0.70611697  0.46681456  0.06237021  1
  I  I77  1  0.70867919  0.47346321  0.30926181  1
  I  I78  1  0.70250396  0.46056382  0.81075112  1
  I  I79  1  0.69268698  0.45677359  0.55952476  1
  I  I80  1  0.74820268  0.25271719  0.12517736  1
  I  I81  1  0.75337814  0.25366256  0.37417671  1
  I  I82  1  0.74353798  0.25742421  0.62386292  1
  I  I83  1  0.74800489  0.23692686  0.87398113  1
  I  I84  1  0.75366256  0.25337814  0.00082329  1
  I  I85  1  0.75271719  0.24820268  0.24982264  1
  I  I86  1  0.73692686  0.24800489  0.50101887  1
  I  I87  1  0.75742421  0.24353798  0.75113708  1
  I  I88  1  0.85824127  0.85824127  0.05987032  1
  I  I89  1  0.85643715  0.85643715  0.30970464  1
  I  I90  1  0.86205579  0.86205579  0.55962400  1
  I  I91  1  0.82908464  0.82908464  0.80916568  1
  I  I92  1  0.79427571  0.02940415  0.18496714  1
  I  I93  1  0.79881689  0.03497073  0.43396305  1
  I  I94  1  0.78820085  0.03835227  0.68480008  1
  I  I95  1  0.78711540  0.02334998  0.93673581  1
  I  I96  1  0.84397261  0.60718829  0.24743277  1
  I  I97  1  0.86259883  0.61800827  0.74993829  1
  I  I98  1  0.84683607  0.60918765  0.00076211  1
  I  I99  1  0.84806539  0.59963415  0.49819314  1
  I  I100  1  0.89547293  0.65893667  0.12304045  1
  I  I101  1  0.89531060  0.65585531  0.37215758  1
  I  I102  1  0.88749303  0.63216816  0.61972065  1
  I  I103  1  0.87535514  0.62491723  0.87371721  1
  I  I104  1  0.89171832  0.39171832  0.18750000  1
  I  I105  1  0.91821359  0.39125943  0.43403567  1
  I  I106  1  0.91758651  0.41758651  0.68750000  1
  I  I107  1  0.89125943  0.41821359  0.94096433  1
  I  I108  1  0.97346321  0.20867919  0.06573819  1
  I  I109  1  0.96681456  0.20611697  0.31262879  1
  I  I110  1  0.96056382  0.20250396  0.56424888  1
  I  I111  1  0.95677359  0.19268698  0.81547524  1
loop_
_geom_bond_atom_site_label_1
_geom_bond_atom_site_label_2
_geom_bond_distance
_geom_bond_site_symmetry_2
K0 Zr6 2.636239 1_655
K0 Zr45 2.636240 1_565
K0 Zr37 2.683665 1_555
K0 Zr10 3.202611 1_665
K0 Zr43 3.273347 1_565
K0 Zr2 3.273347 1_655
K1 Zr11 2.915365 1_555
K1 Zr7 3.181053 1_545
K1 Zr47 3.181053 1_455
K1 Zr42 3.357260 1_455
K1 Zr3 3.357260 1_545
K1 Zr38 3.376611 1_445
K2 Zr30 2.915365 1_555
K2 Zr34 3.181053 1_555
K2 Zr22 3.181053 1_555
K2 Zr13 3.357260 1_555
K2 Zr26 3.357260 1_555
K2 Zr18 3.376611 1_555
K3 Zr32 2.636239 1_555
K3 Zr21 2.636240 1_555
K3 Zr17 2.683665 1_555
K3 Zr31 3.202611 1_555
K3 Zr15 3.273347 1_555
K3 Zr27 3.273347 1_555
I0 Zr4 2.865714 1_555
I0 Zr36 2.940311 1_455
I1 Zr5 2.919748 1_555
I1 Zr39 2.920137 1_455
I2 K0 3.095954 1_455
I2 Zr37 3.101537 1_455
I2 Zr6 3.140944 1_555
I3 Zr7 2.823312 1_555
I3 Zr38 3.048489 1_455
I4 Zr12 3.062043 1_555
I4 Zr0 3.079773 1_555
I5 Zr1 3.062043 1_555
I5 Zr14 3.079773 1_555
I6 Zr13 3.105240 1_555
I6 Zr2 3.368668 1_555
I7 Zr3 3.105240 1_555
I7 Zr15 3.368668 1_555
I8 Zr44 2.874120 1_455
I8 Zr8 2.943772 1_555
I9 Zr46 2.899639 1_455
I9 Zr9 2.910677 1_555
I10 Zr45 2.849576 1_455
I10 Zr10 2.975192 1_555
I11 Zr11 3.006353 1_555
I11 Zr47 3.161204 1_455
I11 K1 3.235771 1_555
I12 Zr12 2.897984 1_555
I12 Zr19 2.927235 1_554
I13 Zr14 2.873136 1_555
I13 Zr16 2.940627 1_555
I14 Zr13 2.866351 1_555
I14 Zr18 2.872803 1_555
I15 Zr17 2.849162 1_555
I15 Zr15 2.984102 1_555
I16 Zr0 2.865800 1_555
I16 Zr8 2.940848 1_565
I17 Zr1 2.871098 1_555
I17 Zr9 2.921146 1_565
I18 Zr10 2.912279 1_565
I18 Zr2 2.915802 1_555
I19 Zr11 2.904444 1_565
I19 Zr3 3.064284 1_555
I19 K1 3.788032 1_565
I20 Zr44 2.964902 1_455
I20 Zr4 2.964902 1_545
I21 Zr46 2.990987 1_455
I21 Zr5 2.990987 1_545
I22 Zr17 3.175792 1_555
I22 Zr45 3.185133 1_455
I22 Zr6 3.185133 1_545
I22 K0 3.294594 1_445
I23 Zr47 3.011067 1_455
I23 Zr7 3.011067 1_545
I23 K1 3.420777 1_555
I24 Zr12 2.902799 1_555
I24 Zr23 2.937277 1_554
I25 Zr14 2.935025 1_555
I25 Zr20 2.937504 1_555
I26 Zr21 2.832719 1_555
I26 Zr15 2.935158 1_555
I27 Zr22 2.823820 1_555
I27 Zr13 3.037465 1_555
I28 Zr0 2.935025 1_555
I28 Zr4 2.937504 1_555
I29 Zr1 2.902799 1_555
I29 Zr5 2.937277 1_555
I30 Zr6 2.832719 1_555
I30 Zr2 2.935157 1_555
I31 Zr7 2.823820 1_555
I31 Zr3 3.037465 1_555
I32 Zr20 2.865714 1_555
I32 Zr16 2.940311 1_555
I33 Zr22 2.823312 1_555
I33 Zr18 3.048489 1_555
I34 K3 3.095954 1_555
I34 Zr17 3.101537 1_555
I34 Zr21 3.140944 1_555
I35 Zr23 2.919748 1_555
I35 Zr19 2.920137 1_555
I36 Zr24 2.959995 1_555
I36 Zr12 2.959995 1_555
I37 Zr25 2.960836 1_555
I37 Zr14 2.960836 1_555
I38 Zr26 2.905185 1_555
I38 Zr13 2.905185 1_555
I38 Zr10 3.703127 1_555
I39 Zr11 2.854971 1_555
I39 Zr27 3.038478 1_555
I39 Zr15 3.038478 1_555
I40 Zr4 3.062785 1_555
I40 Zr20 3.062785 1_555
I41 Zr6 2.967853 1_555
I41 Zr21 2.967853 1_555
I42 Zr22 2.761797 1_555
I42 Zr5 3.206490 1_555
I43 Zr7 2.761797 1_555
I43 Zr23 3.206490 1_555
I44 Zr4 2.874120 1_545
I44 Zr8 2.943772 1_555
I45 Zr5 2.899639 1_545
I45 Zr9 2.910677 1_555
I46 Zr6 2.849576 1_545
I46 Zr10 2.975192 1_555
I47 Zr11 3.006353 1_555
I47 Zr7 3.161204 1_545
I47 K1 3.235771 1_555
I48 Zr24 2.897984 1_555
I48 Zr19 2.927235 1_554
I49 Zr25 2.873136 1_555
I49 Zr16 2.940627 1_555
I50 Zr26 2.866351 1_555
I50 Zr18 2.872803 1_555
I51 Zr17 2.849162 1_555
I51 Zr27 2.984102 1_555
I52 Zr12 2.871066 1_555
I52 Zr28 2.921107 1_555
I53 Zr14 2.865800 1_555
I53 Zr29 2.940848 1_555
I54 Zr30 2.904444 1_555
I54 Zr13 3.064284 1_555
I54 K2 3.788032 1_555
I55 Zr31 2.912279 1_555
I55 Zr15 2.915802 1_555
I56 Zr33 2.865714 1_555
I56 Zr16 2.940311 1_555
I57 Zr34 2.823312 1_555
I57 Zr18 3.048489 1_555
I58 K3 3.095954 1_555
I58 Zr17 3.101537 1_555
I58 Zr32 3.140944 1_555
I59 Zr35 2.919748 1_555
I59 Zr19 2.920137 1_555
I60 Zr20 2.874120 1_555
I60 Zr29 2.943772 1_555
I61 Zr30 3.006391 1_555
I61 Zr22 3.161172 1_555
I61 K2 3.235772 1_555
I62 Zr21 2.849576 1_555
I62 Zr31 2.975192 1_555
I63 Zr23 2.899664 1_554
I63 Zr28 2.910655 1_555
I64 Zr40 2.873136 1_565
I64 Zr36 2.940627 1_555
I65 Zr41 2.897957 1_565
I65 Zr39 2.927256 1_555
I66 Zr37 2.849162 1_555
I66 Zr43 2.984102 1_565
I67 Zr42 2.866351 1_565
I67 Zr38 2.872803 1_555
I68 Zr24 3.062043 1_555
I68 Zr40 3.079773 1_555
I69 Zr41 3.062043 1_555
I69 Zr25 3.079773 1_555
I70 Zr42 3.105240 1_555
I70 Zr27 3.368668 1_555
I71 Zr26 3.105240 1_555
I71 Zr43 3.368668 1_555
I72 Zr22 3.011067 1_555
I72 Zr34 3.011067 1_555
I72 K2 3.420777 1_555
I73 Zr37 3.175792 1_555
I73 Zr21 3.185133 1_555
I73 Zr32 3.185133 1_555
I73 K3 3.294594 1_555
I74 Zr20 2.964902 1_555
I74 Zr33 2.964902 1_555
I75 Zr23 2.990987 1_555
I75 Zr35 2.990987 1_555
I76 Zr24 2.871066 1_555
I76 Zr28 2.921107 1_555
I77 Zr25 2.865800 1_555
I77 Zr29 2.940848 1_555
I78 Zr31 2.912279 1_555
I78 Zr27 2.915802 1_555
I79 Zr30 2.904444 1_555
I79 Zr26 3.064284 1_555
I79 K2 3.788032 1_555
I80 Zr40 2.935025 1_555
I80 Zr44 2.937504 1_555
I81 Zr41 2.902799 1_555
I81 Zr46 2.937277 1_555
I82 Zr45 2.832719 1_555
I82 Zr43 2.935158 1_555
I83 Zr47 2.823820 1_555
I83 Zr42 3.037465 1_555
I84 Zr24 2.902799 1_555
I84 Zr35 2.937277 1_554
I85 Zr25 2.935025 1_555
I85 Zr33 2.937504 1_555
I86 Zr34 2.823820 1_555
I86 Zr26 3.037465 1_555
I87 Zr32 2.832719 1_555
I87 Zr27 2.935157 1_555
I88 Zr0 2.960836 1_655
I88 Zr40 2.960836 1_565
I89 Zr1 2.959995 1_655
I89 Zr41 2.959995 1_565
I90 Zr30 2.854971 1_555
I90 Zr2 3.038478 1_655
I90 Zr43 3.038478 1_565
I91 Zr3 2.905185 1_655
I91 Zr42 2.905185 1_565
I91 Zr31 3.703127 1_555
I92 Zr44 2.865714 1_555
I92 Zr36 2.940311 1_545
I93 Zr46 2.919748 1_555
I93 Zr39 2.920137 1_545
I94 K0 3.095954 1_545
I94 Zr37 3.101537 1_545
I94 Zr45 3.140944 1_555
I95 Zr47 2.823312 1_555
I95 Zr38 3.048489 1_545
I96 Zr33 2.874120 1_555
I96 Zr29 2.943772 1_555
I97 Zr32 2.849576 1_555
I97 Zr31 2.975192 1_555
I98 Zr35 2.899664 1_554
I98 Zr28 2.910655 1_555
I99 Zr30 3.006391 1_555
I99 Zr34 3.161172 1_555
I99 K2 3.235772 1_555
I100 Zr0 2.873136 1_655
I100 Zr36 2.940627 1_555
I101 Zr1 2.897957 1_655
I101 Zr39 2.927256 1_555
I102 Zr37 2.849162 1_555
I102 Zr2 2.984102 1_655
I103 Zr3 2.866351 1_655
I103 Zr38 2.872803 1_555
I104 Zr33 3.062785 1_555
I104 Zr44 3.062785 1_555
I105 Zr34 2.761797 1_555
I105 Zr46 3.206490 1_555
I106 Zr32 2.967853 1_555
I106 Zr45 2.967853 1_555
I107 Zr47 2.761797 1_555
I107 Zr35 3.206490 1_555
I108 Zr40 2.865800 1_555
I108 Zr8 2.940848 1_655
I109 Zr41 2.871098 1_555
I109 Zr9 2.921146 1_655
I110 Zr10 2.912279 1_655
I110 Zr43 2.915802 1_555
I111 Zr11 2.904444 1_655
I111 Zr42 3.064284 1_555
I111 K1 3.788032 1_655
