# generated using pymatgen
data_Gd(Al10Cr)2
_symmetry_space_group_name_H-M   'P 1'
_cell_length_a   10.17241211
_cell_length_b   10.17067663
_cell_length_c   10.17579147
_cell_angle_alpha   60.02314827
_cell_angle_beta   59.95833966
_cell_angle_gamma   59.98196843
_symmetry_Int_Tables_number   1
_chemical_formula_structural   Gd(Al10Cr)2
_chemical_formula_sum   'Gd2 Al40 Cr4'
_cell_volume   744.22925925
_cell_formula_units_Z   2
loop_
 _symmetry_equiv_pos_site_id
 _symmetry_equiv_pos_as_xyz
  1  'x, y, z'
loop_
 _atom_site_type_symbol
 _atom_site_label
 _atom_site_symmetry_multiplicity
 _atom_site_fract_x
 _atom_site_fract_y
 _atom_site_fract_z
 _atom_site_occupancy
  Gd  Gd0  1  0.87503500  0.87496800  0.87499500  1
  Gd  Gd1  1  0.12495600  0.12497300  0.12505800  1
  Al  Al0  1  0.21005300  0.67371300  0.94271600  1
  Al  Al1  1  0.23810700  0.51188700  0.23812100  1
  Al  Al2  1  0.67358500  0.94264400  0.21009800  1
  Al  Al3  1  0.32656200  0.32666700  0.05728500  1
  Al  Al4  1  0.76197500  0.76188700  0.48802100  1
  Al  Al5  1  0.51193400  0.23813600  0.51186200  1
  Al  Al6  1  0.32644100  0.78947900  0.32666000  1
  Al  Al7  1  0.51183100  0.23828300  0.23815200  1
  Al  Al8  1  0.76196000  0.48804600  0.48809300  1
  Al  Al9  1  0.99978500  0.99979700  0.99975400  1
  Al  Al10  1  0.32639700  0.78950700  0.05739400  1
  Al  Al11  1  0.32658600  0.32659900  0.78948400  1
  Al  Al12  1  0.94273900  0.21013600  0.67360400  1
  Al  Al13  1  0.32658600  0.05749600  0.32651200  1
  Al  Al14  1  0.78958100  0.32646100  0.32663700  1
  Al  Al15  1  0.67365900  0.67352200  0.94283800  1
  Al  Al16  1  0.48806900  0.48802700  0.76198400  1
  Al  Al17  1  0.94263300  0.67349900  0.67369000  1
  Al  Al18  1  0.21003600  0.67370000  0.67351300  1
  Al  Al19  1  0.78945400  0.05727600  0.32664500  1
  Al  Al20  1  0.23812500  0.23825000  0.51183400  1
  Al  Al21  1  0.23815900  0.51181400  0.51180700  1
  Al  Al22  1  0.67375100  0.21005700  0.94269300  1
  Al  Al23  1  0.48796700  0.76200600  0.48798300  1
  Al  Al24  1  0.21003600  0.94284400  0.67354800  1
  Al  Al25  1  0.94253700  0.67355300  0.21023000  1
  Al  Al26  1  0.51182300  0.51180700  0.23817400  1
  Al  Al27  1  0.05734100  0.78933300  0.32661500  1
  Al  Al28  1  0.99976000  0.99975600  0.50076100  1
  Al  Al29  1  0.67358200  0.94264700  0.67367300  1
  Al  Al30  1  0.78958000  0.32643000  0.05735500  1
  Al  Al31  1  0.76204200  0.48791000  0.76201500  1
  Al  Al32  1  0.32659800  0.05751200  0.78938100  1
  Al  Al33  1  0.05752800  0.32662900  0.78927800  1
  Al  Al34  1  0.99974900  0.50070000  0.99976100  1
  Al  Al35  1  0.05746600  0.32667500  0.32652100  1
  Al  Al36  1  0.48808400  0.76184200  0.76192600  1
  Al  Al37  1  0.67376100  0.21008500  0.67354400  1
  Al  Al38  1  0.50053800  0.99979800  0.99983700  1
  Al  Al39  1  0.67361200  0.67363500  0.20998600  1
  Cr  Cr0  1  0.99982200  0.50005100  0.50003000  1
  Cr  Cr1  1  0.50008900  0.50004000  0.50003500  1
  Cr  Cr2  1  0.50002400  0.99984300  0.50005100  1
  Cr  Cr3  1  0.50005800  0.50008000  0.99984500  1
loop_
_geom_bond_atom_site_label_1
_geom_bond_atom_site_label_2
_geom_bond_distance
_geom_bond_site_symmetry_2
Al0 Al1 2.696520 1_556
Al0 Al25 2.720012 1_456
Al0 Al24 2.739079 1_555
Al0 Al18 2.739506 1_555
Al0 Cr3 2.763707 1_555
Al0 Al36 2.804605 1_555
Al0 Al16 2.804675 1_555
Al0 Al10 2.880995 1_556
Al0 Al3 2.882405 1_556
Al0 Al9 3.081229 1_455
Al0 Al34 3.084208 1_455
Al0 Gd0 3.200169 1_455
Al1 Cr3 2.548644 1_554
Al1 Cr0 2.548722 1_455
Al1 Al25 2.695512 1_455
Al1 Al7 2.782828 1_555
Al1 Al26 2.784215 1_555
Al1 Al21 2.784866 1_555
Al1 Al20 2.785135 1_555
Al1 Al27 2.800798 1_555
Al1 Al35 2.801647 1_555
Al1 Al3 2.802638 1_555
Al1 Al10 2.802822 1_555
Al2 Al7 2.695788 1_565
Al2 Al22 2.721366 1_564
Al2 Al25 2.735620 1_555
Al2 Al39 2.736436 1_555
Al2 Cr2 2.762758 1_555
Al2 Al23 2.805345 1_555
Al2 Al4 2.807648 1_555
Al2 Al9 3.083052 1_554
Al2 Al38 3.085243 1_554
Al2 Gd0 3.199754 1_554
Al3 Al35 2.736799 1_555
Al3 Cr3 2.760175 1_554
Al3 Al7 2.805679 1_555
Al3 Al38 3.089563 1_544
Al3 Al34 3.090830 1_454
Al3 Gd1 3.204528 1_555
Al4 Cr0 2.546522 1_555
Al4 Cr2 2.547484 1_555
Al4 Al8 2.784859 1_555
Al5 Cr1 2.549029 1_555
Al5 Cr2 2.549983 1_545
Al5 Al7 2.784994 1_555
Al6 Cr1 2.761565 1_555
Al6 Gd1 3.204660 1_565
Al7 Cr3 2.550278 1_554
Al7 Cr2 2.551550 1_545
Al8 Cr0 2.547345 1_555
Al8 Cr1 2.547814 1_555
Al9 Gd0 3.109607 1_555
Al9 Gd1 3.120515 1_666
Al10 Al36 2.693533 1_554
Al10 Al32 2.727472 1_564
Al10 Al27 2.736520 1_555
Al10 Al6 2.740076 1_555
Al10 Cr3 2.759106 1_554
Al10 Al26 2.805520 1_555
Al10 Al15 2.882829 1_554
Al10 Al9 3.089452 1_454
Al10 Al38 3.091227 1_554
Al10 Gd1 3.202159 1_565
Al11 Al16 2.692838 1_555
Al11 Al3 2.725311 1_556
Al11 Al32 2.737260 1_555
Al11 Al33 2.737866 1_555
Al11 Cr1 2.760447 1_555
Al11 Al5 2.802624 1_555
Al11 Al21 2.805720 1_555
Al11 Al37 2.882085 1_555
Al11 Al18 2.882875 1_555
Al11 Al34 3.088782 1_455
Al11 Al38 3.091704 1_545
Al11 Gd1 3.204780 1_556
Al12 Al20 2.693891 1_655
Al12 Al24 2.718056 1_645
Al12 Al22 2.735502 1_555
Al12 Al37 2.736720 1_555
Al12 Cr0 2.762805 1_555
Al12 Al31 2.803187 1_555
Al12 Al8 2.806720 1_555
Al12 Al33 2.882155 1_655
Al12 Al35 2.883493 1_655
Al12 Al28 3.083127 1_545
Al12 Al9 3.085323 1_545
Al12 Gd0 3.201466 1_545
Al13 Al23 2.693802 1_545
Al13 Al6 2.725900 1_545
Al13 Al35 2.736920 1_555
Al13 Al3 2.739583 1_555
Al13 Cr2 2.761258 1_545
Al13 Al20 2.802816 1_555
Al13 Al7 2.803299 1_555
Al13 Al2 2.880624 1_545
Al13 Al24 2.883082 1_545
Al13 Al38 3.089741 1_544
Al13 Al28 3.090697 1_445
Al13 Gd1 3.205587 1_555
Al14 Al8 2.693143 1_555
Al14 Al35 2.725535 1_655
Al14 Al19 2.738399 1_555
Al14 Al30 2.740320 1_555
Al14 Cr1 2.758733 1_555
Al14 Al5 2.802305 1_555
Al14 Al26 2.805156 1_555
Al14 Al37 2.882018 1_555
Al14 Al39 2.883489 1_555
Al14 Al28 3.090822 1_545
Al14 Al34 3.091132 1_554
Al14 Gd1 3.200730 1_655
Al15 Al26 2.695008 1_556
Al15 Al39 2.718777 1_556
Al15 Al17 2.735731 1_555
Al15 Al29 2.739034 1_555
Al15 Cr3 2.763225 1_555
Al15 Al31 2.806128 1_555
Al15 Al36 2.808899 1_555
Al15 Al30 2.882789 1_556
Al15 Al34 3.082375 1_555
Al15 Al38 3.082748 1_555
Al15 Gd0 3.200080 1_555
Al16 Cr3 2.548603 1_555
Al16 Cr1 2.549145 1_555
Al16 Al3 2.692340 1_556
Al16 Al36 2.784665 1_555
Al16 Al8 2.784840 1_555
Al16 Al31 2.786529 1_555
Al16 Al23 2.788341 1_555
Al16 Al37 2.804747 1_555
Al16 Al22 2.807402 1_555
Al16 Al18 2.807549 1_555
Al17 Al21 2.693969 1_655
Al17 Al18 2.720255 1_655
Al17 Al29 2.736412 1_555
Al17 Cr0 2.762645 1_555
Al17 Al31 2.804709 1_555
Al17 Al4 2.807344 1_555
Al17 Al33 2.880944 1_655
Al17 Al27 2.883425 1_655
Al17 Al28 3.084718 1_555
Al17 Al34 3.084948 1_555
Al17 Gd0 3.200310 1_555
Al18 Al21 2.695397 1_555
Al18 Al24 2.737555 1_555
Al18 Cr1 2.761870 1_555
Al18 Al23 2.804638 1_555
Al18 Al6 2.881563 1_555
Al18 Al28 3.083010 1_455
Al18 Al34 3.084032 1_455
Al18 Gd0 3.197737 1_455
Al19 Al4 2.692809 1_545
Al19 Al27 2.724366 1_645
Al19 Al30 2.739817 1_555
Al19 Cr2 2.759016 1_545
Al19 Al5 2.801215 1_555
Al19 Al7 2.804159 1_555
Al19 Al2 2.882935 1_545
Al19 Al29 2.883022 1_545
Al19 Al9 3.090320 1_544
Al19 Al28 3.092771 1_545
Al19 Gd1 3.203070 1_655
Al20 Cr0 2.548419 1_455
Al20 Cr2 2.549267 1_545
Al20 Al24 2.695177 1_545
Al20 Al21 2.782367 1_555
Al20 Al7 2.782837 1_555
Al20 Al5 2.784861 1_555
Al20 Al33 2.800732 1_555
Al20 Al35 2.804179 1_555
Al20 Al32 2.804855 1_555
Al21 Cr0 2.549931 1_455
Al21 Cr1 2.550206 1_555
Al21 Al26 2.782374 1_555
Al21 Al5 2.783463 1_555
Al21 Al33 2.801717 1_555
Al21 Al6 2.803180 1_555
Al21 Al27 2.803935 1_555
Al22 Al7 2.695493 1_556
Al22 Al37 2.738611 1_555
Al22 Cr3 2.762561 1_555
Al22 Al31 2.804821 1_555
Al22 Al30 2.881391 1_556
Al22 Al3 2.882216 1_556
Al22 Al9 3.082344 1_545
Al22 Al38 3.085025 1_545
Al22 Gd0 3.199038 1_545
Al23 Cr1 2.547354 1_555
Al23 Cr2 2.547602 1_555
Al23 Al6 2.693635 1_555
Al23 Al8 2.786006 1_555
Al23 Al4 2.786911 1_555
Al23 Al36 2.787350 1_555
Al23 Al24 2.804296 1_555
Al23 Al39 2.805364 1_555
Al24 Cr2 2.761979 1_555
Al24 Al36 2.807207 1_555
Al24 Al32 2.883058 1_565
Al24 Al9 3.082497 1_455
Al24 Al28 3.084100 1_455
Al24 Gd0 3.199506 1_455
Al25 Al39 2.736442 1_555
Al25 Cr0 2.764298 1_555
Al25 Al4 2.803475 1_555
Al25 Al8 2.804448 1_555
Al25 Al35 2.881015 1_655
Al25 Al27 2.882266 1_655
Al25 Al34 3.083348 1_554
Al25 Al9 3.085303 1_554
Al25 Gd0 3.203049 1_554
Al26 Cr3 2.550298 1_554
Al26 Cr1 2.550696 1_555
Al26 Al39 2.695497 1_555
Al26 Al7 2.781995 1_555
Al26 Al5 2.785181 1_555
Al26 Al30 2.802643 1_555
Al26 Al6 2.802666 1_555
Al27 Al4 2.691284 1_455
Al27 Al6 2.738369 1_555
Al27 Cr0 2.759196 1_455
Al27 Al28 3.091903 1_455
Al27 Al9 3.093335 1_454
Al27 Gd1 3.205173 1_565
Al28 Al37 3.080152 1_565
Al28 Al29 3.082864 1_555
Al28 Al6 3.088087 1_655
Al28 Al35 3.092466 1_665
Al28 Gd0 3.109030 1_555
Al28 Gd1 3.121234 1_665
Al29 Al5 2.696007 1_565
Al29 Al37 2.720281 1_565
Al29 Cr2 2.765008 1_555
Al29 Al4 2.805926 1_555
Al29 Al36 2.805987 1_555
Al29 Al32 2.880504 1_565
Al29 Al38 3.083259 1_555
Al29 Gd0 3.202032 1_555
Al30 Al31 2.694069 1_554
Al30 Al33 2.725071 1_654
Al30 Cr3 2.761168 1_554
Al30 Al7 2.802286 1_555
Al30 Al9 3.087965 1_544
Al30 Al34 3.091051 1_554
Al30 Gd1 3.203195 1_655
Al31 Cr3 2.546779 1_555
Al31 Cr0 2.546832 1_555
Al31 Al33 2.692488 1_655
Al31 Al36 2.785685 1_555
Al31 Al8 2.787100 1_555
Al31 Al4 2.788295 1_555
Al32 Al36 2.693886 1_545
Al32 Al33 2.736352 1_555
Al32 Cr2 2.759383 1_545
Al32 Al5 2.802573 1_555
Al32 Al9 3.090383 1_445
Al32 Al38 3.091958 1_545
Al32 Gd1 3.203799 1_556
Al33 Cr0 2.761330 1_455
Al33 Al34 3.091113 1_455
Al33 Al9 3.092142 1_445
Al33 Gd1 3.207457 1_556
Al34 Al39 3.080887 1_556
Al34 Al35 3.093092 1_656
Al34 Gd0 3.108489 1_555
Al34 Gd1 3.120607 1_656
Al35 Al8 2.691596 1_455
Al35 Cr0 2.758727 1_455
Al35 Gd1 3.204169 1_555
Al36 Cr3 2.548299 1_555
Al36 Cr2 2.549400 1_555
Al36 Al4 2.784912 1_555
Al37 Al5 2.696460 1_555
Al37 Cr1 2.764493 1_555
Al37 Al8 2.805299 1_555
Al37 Al38 3.085448 1_545
Al37 Gd0 3.201455 1_545
Al38 Al39 3.084513 1_556
Al38 Al6 3.091360 1_556
Al38 Gd0 3.108890 1_555
Al38 Gd1 3.117897 1_566
Al39 Cr1 2.763814 1_555
Al39 Al8 2.809000 1_555
Al39 Al6 2.882053 1_555
Al39 Gd0 3.200084 1_554
