# generated using pymatgen
data_Gd2Se2O
_symmetry_space_group_name_H-M   'P 1'
_cell_length_a   3.96456652
_cell_length_b   7.07340249
_cell_length_c   16.19932921
_cell_angle_alpha   90.00000000
_cell_angle_beta   90.00000000
_cell_angle_gamma   90.00000000
_symmetry_Int_Tables_number   1
_chemical_formula_structural   Gd2Se2O
_chemical_formula_sum   'Gd8 Se8 O4'
_cell_volume   454.27737910
_cell_formula_units_Z   4
loop_
 _symmetry_equiv_pos_site_id
 _symmetry_equiv_pos_as_xyz
  1  'x, y, z'
loop_
 _atom_site_type_symbol
 _atom_site_label
 _atom_site_symmetry_multiplicity
 _atom_site_fract_x
 _atom_site_fract_y
 _atom_site_fract_z
 _atom_site_occupancy
  Gd  Gd0  1  0.25000000  0.69819179  0.03852226  1
  Gd  Gd1  1  0.75000000  0.74109744  0.83872685  1
  Gd  Gd2  1  0.25000000  0.24109744  0.66127315  1
  Gd  Gd3  1  0.25000000  0.25890256  0.16127315  1
  Gd  Gd4  1  0.25000000  0.80180821  0.53852226  1
  Gd  Gd5  1  0.75000000  0.75890256  0.33872685  1
  Gd  Gd6  1  0.75000000  0.30180821  0.96147774  1
  Gd  Gd7  1  0.75000000  0.19819179  0.46147774  1
  Se  Se0  1  0.75000000  0.55076770  0.18008753  1
  Se  Se1  1  0.75000000  0.48867121  0.59910019  1
  Se  Se2  1  0.25000000  0.44923230  0.81991247  1
  Se  Se3  1  0.75000000  0.01132879  0.09910019  1
  Se  Se4  1  0.25000000  0.05076770  0.31991247  1
  Se  Se5  1  0.25000000  0.98867121  0.90089981  1
  Se  Se6  1  0.75000000  0.94923230  0.68008753  1
  Se  Se7  1  0.25000000  0.51132879  0.40089981  1
  O  O0  1  0.25000000  0.12780299  0.53054548  1
  O  O1  1  0.75000000  0.87219701  0.46945452  1
  O  O2  1  0.75000000  0.62780299  0.96945452  1
  O  O3  1  0.25000000  0.37219701  0.03054548  1
loop_
_geom_bond_atom_site_label_1
_geom_bond_atom_site_label_2
_geom_bond_distance
_geom_bond_site_symmetry_2
Gd0 O3 2.309510 1_555
Gd0 O2 2.330057 1_554
Gd0 O2 2.330057 1_454
Gd0 Se5 3.031812 1_554
Gd0 Se3 3.130242 1_565
Gd0 Se3 3.130242 1_465
Gd0 Se0 3.205606 1_455
Gd0 Se0 3.205606 1_555
Gd1 O2 2.264257 1_555
Gd1 Se5 2.830279 1_655
Gd1 Se5 2.830279 1_555
Gd1 Se2 2.878266 1_555
Gd1 Se2 2.878266 1_655
Gd1 Se6 2.961683 1_555
Gd2 O0 2.264257 1_555
Gd2 Se1 2.830279 1_455
Gd2 Se1 2.830279 1_555
Gd2 Se6 2.878266 1_545
Gd2 Se6 2.878266 1_445
Gd2 Se2 2.961683 1_555
Gd3 O3 2.264257 1_555
Gd3 Se3 2.830279 1_555
Gd3 Se3 2.830279 1_455
Gd3 Se0 2.878266 1_455
Gd3 Se0 2.878266 1_555
Gd3 Se4 2.961683 1_555
Gd4 O0 2.309510 1_565
Gd4 O1 2.330057 1_555
Gd4 O1 2.330057 1_455
Gd4 Se7 3.031812 1_555
Gd4 Se1 3.130242 1_455
Gd4 Se1 3.130242 1_555
Gd4 Se6 3.205606 1_455
Gd4 Se6 3.205606 1_555
Gd5 O1 2.264257 1_555
Gd5 Se7 2.830279 1_555
Gd5 Se7 2.830279 1_655
Gd5 Se4 2.878266 1_665
Gd5 Se4 2.878266 1_565
Gd5 Se0 2.961683 1_555
Gd6 O2 2.309510 1_555
Gd6 O3 2.330057 1_556
Gd6 O3 2.330057 1_656
Gd6 Se3 3.031812 1_556
Gd6 Se5 3.130242 1_645
Gd6 Se5 3.130242 1_545
Gd6 Se2 3.205606 1_555
Gd6 Se2 3.205606 1_655
Gd7 O1 2.309510 1_545
Gd7 O0 2.330057 1_555
Gd7 O0 2.330057 1_655
Gd7 Se1 3.031812 1_555
Gd7 Se7 3.130242 1_555
Gd7 Se7 3.130242 1_655
Gd7 Se4 3.205606 1_655
Gd7 Se4 3.205606 1_555
