# generated using pymatgen
data_Mg(Mo3S4)2
_symmetry_space_group_name_H-M   'P 1'
_cell_length_a   6.54420500
_cell_length_b   6.55963629
_cell_length_c   13.10336581
_cell_angle_alpha   93.59407586
_cell_angle_beta   93.14621501
_cell_angle_gamma   93.56664750
_symmetry_Int_Tables_number   1
_chemical_formula_structural   Mg(Mo3S4)2
_chemical_formula_sum   'Mg2 Mo12 S16'
_cell_volume   559.32592362
_cell_formula_units_Z   2
loop_
 _symmetry_equiv_pos_site_id
 _symmetry_equiv_pos_as_xyz
  1  'x, y, z'
loop_
 _atom_site_type_symbol
 _atom_site_label
 _atom_site_symmetry_multiplicity
 _atom_site_fract_x
 _atom_site_fract_y
 _atom_site_fract_z
 _atom_site_occupancy
  Mg  Mg0  1  0.10676500  0.92755300  0.98307900  1
  Mg  Mg1  1  0.96500200  0.10724300  0.46439700  1
  Mo  Mo0  1  0.59289300  0.78194700  0.22606200  1
  Mo  Mo1  1  0.59232500  0.77968800  0.72649800  1
  Mo  Mo2  1  0.45291400  0.59132400  0.39018500  1
  Mo  Mo3  1  0.22437300  0.54837600  0.20521000  1
  Mo  Mo4  1  0.45384200  0.58926700  0.88816700  1
  Mo  Mo5  1  0.21635900  0.54969500  0.70372900  1
  Mo  Mo6  1  0.77667000  0.45496500  0.29363700  1
  Mo  Mo7  1  0.54966000  0.40936900  0.11087800  1
  Mo  Mo8  1  0.78448200  0.45000800  0.79647500  1
  Mo  Mo9  1  0.54761500  0.40895600  0.61117800  1
  Mo  Mo10  1  0.40991200  0.21925100  0.27410400  1
  Mo  Mo11  1  0.41103200  0.22169800  0.77365000  1
  S  S0  1  0.27518000  0.86546700  0.31216500  1
  S  S1  1  0.26967500  0.86907800  0.81046000  1
  S  S2  1  0.38074800  0.72835100  0.06700200  1
  S  S3  1  0.78542600  0.78458800  0.39231700  1
  S  S4  1  0.38010200  0.72527400  0.56811000  1
  S  S5  1  0.78425900  0.78498500  0.89275200  1
  S  S6  1  0.86800400  0.62458400  0.13593400  1
  S  S7  1  0.86548900  0.61912100  0.63899800  1
  S  S8  1  0.13360400  0.38029600  0.36440800  1
  S  S9  1  0.13501200  0.38014500  0.86189700  1
  S  S10  1  0.21508500  0.21518400  0.10886100  1
  S  S11  1  0.62042200  0.27069500  0.43403000  1
  S  S12  1  0.21506300  0.21506900  0.60825300  1
  S  S13  1  0.62161300  0.27435600  0.93276400  1
  S  S14  1  0.72482500  0.13554700  0.18880300  1
  S  S15  1  0.72864900  0.13291900  0.68899600  1
loop_
_geom_bond_atom_site_label_1
_geom_bond_atom_site_label_2
_geom_bond_distance
_geom_bond_site_symmetry_2
Mg0 S5 2.464004 1_455
Mg0 S10 2.468657 1_566
Mg0 S2 2.527213 1_556
Mg0 S1 2.570347 1_555
Mg1 S3 2.463891 1_545
Mg1 S12 2.466108 1_655
Mg1 S8 2.519758 1_655
Mg1 S11 2.578519 1_555
Mo0 S2 2.434090 1_555
Mo0 S6 2.452223 1_555
Mo0 S3 2.454578 1_555
Mo0 S0 2.493549 1_555
Mo0 S14 2.510558 1_565
Mo1 S4 2.427479 1_555
Mo1 S7 2.434631 1_555
Mo1 S5 2.451409 1_555
Mo1 S15 2.517908 1_565
Mo1 S1 2.518089 1_555
Mo2 S8 2.429165 1_555
Mo2 S3 2.447182 1_555
Mo2 S0 2.447861 1_555
Mo2 S11 2.514845 1_555
Mo2 S4 2.520278 1_555
Mo3 S0 2.428664 1_555
Mo3 S10 2.450228 1_555
Mo3 S2 2.458016 1_555
Mo3 S8 2.502570 1_555
Mo3 S6 2.546056 1_455
Mo4 S9 2.420644 1_555
Mo4 S5 2.440930 1_555
Mo4 S13 2.485389 1_555
Mo4 S1 2.496617 1_555
Mo4 S2 2.541991 1_556
Mo5 S4 2.438194 1_555
Mo5 S1 2.440279 1_555
Mo5 S12 2.456741 1_555
Mo5 S9 2.480360 1_555
Mo5 S7 2.482731 1_455
Mo6 S14 2.427299 1_555
Mo6 S3 2.444648 1_555
Mo6 S6 2.491283 1_555
Mo6 S11 2.494454 1_555
Mo6 S8 2.552954 1_655
Mo7 S14 2.437317 1_555
Mo7 S6 2.437588 1_555
Mo7 S10 2.461641 1_555
Mo7 S2 2.509867 1_555
Mo7 S13 2.523193 1_554
Mo8 S15 2.434125 1_555
Mo8 S13 2.442742 1_555
Mo8 S5 2.464310 1_555
Mo8 S7 2.470519 1_555
Mo8 S9 2.484199 1_655
Mo9 S7 2.420279 1_555
Mo9 S12 2.448592 1_555
Mo9 S15 2.467334 1_555
Mo9 S4 2.487461 1_555
Mo9 S11 2.519706 1_555
Mo10 S11 2.437157 1_555
Mo10 S10 2.449502 1_555
Mo10 S8 2.470141 1_555
Mo10 S14 2.472774 1_555
Mo10 S0 2.520032 1_545
Mo11 S13 2.429086 1_555
Mo11 S9 2.447934 1_555
Mo11 S12 2.453519 1_555
Mo11 S15 2.492520 1_555
Mo11 S1 2.522156 1_545
