# generated using pymatgen
data_Li2MgBr4
_symmetry_space_group_name_H-M   'P 1'
_cell_length_a   6.28957900
_cell_length_b   6.28957900
_cell_length_c   8.51636700
_cell_angle_alpha   90.00000000
_cell_angle_beta   90.00000000
_cell_angle_gamma   90.00000000
_symmetry_Int_Tables_number   1
_chemical_formula_structural   Li2MgBr4
_chemical_formula_sum   'Li8 Mg4 Br16'
_cell_volume   336.89729292
_cell_formula_units_Z   4
loop_
 _symmetry_equiv_pos_site_id
 _symmetry_equiv_pos_as_xyz
  1  'x, y, z'
loop_
 _atom_site_type_symbol
 _atom_site_label
 _atom_site_symmetry_multiplicity
 _atom_site_fract_x
 _atom_site_fract_y
 _atom_site_fract_z
 _atom_site_occupancy
  Li  Li0  1  0.00000000  0.25209000  0.00000000  1
  Li  Li1  1  0.74791000  0.00000000  0.75000000  1
  Li  Li2  1  0.00000000  0.74791000  0.50000000  1
  Li  Li3  1  0.00000000  0.25044500  0.50000000  1
  Li  Li4  1  0.25209000  0.00000000  0.25000000  1
  Li  Li5  1  0.25044500  0.00000000  0.75000000  1
  Li  Li6  1  0.74955500  0.00000000  0.25000000  1
  Li  Li7  1  0.00000000  0.74955500  0.00000000  1
  Mg  Mg0  1  0.50000000  0.24975300  0.50000000  1
  Mg  Mg1  1  0.75024700  0.50000000  0.25000000  1
  Mg  Mg2  1  0.24975300  0.50000000  0.75000000  1
  Mg  Mg3  1  0.50000000  0.75024700  0.00000000  1
  Br  Br0  1  0.49071800  0.24684700  0.22834800  1
  Br  Br1  1  0.75315300  0.50928200  0.52165200  1
  Br  Br2  1  0.01124500  0.24644800  0.25247900  1
  Br  Br3  1  0.98875500  0.75355200  0.75247900  1
  Br  Br4  1  0.24644800  0.01124500  0.99752100  1
  Br  Br5  1  0.24684700  0.50928200  0.47834800  1
  Br  Br6  1  0.24684700  0.49071800  0.02165200  1
  Br  Br7  1  0.50928200  0.75315300  0.72834800  1
  Br  Br8  1  0.49071800  0.75315300  0.27165200  1
  Br  Br9  1  0.75355200  0.01124500  0.00247900  1
  Br  Br10  1  0.75355200  0.98875500  0.49752100  1
  Br  Br11  1  0.75315300  0.49071800  0.97834800  1
  Br  Br12  1  0.01124500  0.75355200  0.24752100  1
  Br  Br13  1  0.98875500  0.24644800  0.74752100  1
  Br  Br14  1  0.24644800  0.98875500  0.50247900  1
  Br  Br15  1  0.50928200  0.24684700  0.77165200  1
loop_
_geom_bond_atom_site_label_1
_geom_bond_atom_site_label_2
_geom_bond_distance
_geom_bond_site_symmetry_2
Br0 Li4 2.167272 1_555
Br0 Li6 2.257158 1_555
Br0 Mg1 2.287724 1_555
Br0 Mg0 2.314297 1_555
Br1 Li2 2.167272 1_655
Br1 Li3 2.257158 1_655
Br1 Mg0 2.287724 1_555
Br1 Mg1 2.314297 1_555
Br2 Li3 2.109316 1_555
Br2 Li0 2.151659 1_555
Br2 Li4 2.167435 1_555
Br2 Li6 2.261010 1_455
Br2 Mg1 2.288749 1_455
Br3 Li7 2.109316 1_656
Br3 Li2 2.151659 1_655
Br3 Li1 2.167435 1_565
Br3 Li5 2.261010 1_665
Br3 Mg2 2.288749 1_655
Br4 Li5 2.109316 1_555
Br4 Li4 2.151659 1_556
Br4 Li0 2.167435 1_556
Br4 Li7 2.261010 1_546
Br4 Mg3 2.288749 1_546
Br5 Li2 2.167272 1_555
Br5 Li3 2.257158 1_555
Br5 Mg0 2.287724 1_555
Br5 Mg2 2.314297 1_555
Br6 Li0 2.167272 1_555
Br6 Li7 2.257158 1_555
Br6 Mg3 2.287724 1_555
Br6 Mg2 2.314297 1_554
Br7 Li1 2.167272 1_565
Br7 Li5 2.257158 1_565
Br7 Mg2 2.287724 1_555
Br7 Mg3 2.314297 1_556
Br8 Li4 2.167272 1_565
Br8 Li6 2.257158 1_565
Br8 Mg1 2.287724 1_555
Br8 Mg3 2.314297 1_555
Br9 Li6 2.109316 1_555
Br9 Li1 2.151659 1_554
Br9 Li0 2.167435 1_655
Br9 Li7 2.261010 1_645
Br9 Mg3 2.288749 1_545
Br10 Li6 2.109316 1_565
Br10 Li1 2.151659 1_565
Br10 Li2 2.167435 1_655
Br10 Li3 2.261010 1_665
Br10 Mg0 2.288749 1_565
Br11 Li0 2.167272 1_656
Br11 Li7 2.257158 1_656
Br11 Mg3 2.287724 1_556
Br11 Mg1 2.314297 1_556
Br12 Li7 2.109316 1_555
Br12 Li2 2.151659 1_555
Br12 Li4 2.167435 1_565
Br12 Li6 2.261010 1_465
Br12 Mg1 2.288749 1_455
Br13 Li3 2.109316 1_655
Br13 Li0 2.151659 1_656
Br13 Li1 2.167435 1_555
Br13 Li5 2.261010 1_655
Br13 Mg2 2.288749 1_655
Br14 Li5 2.109316 1_565
Br14 Li4 2.151659 1_565
Br14 Li2 2.167435 1_555
Br14 Li3 2.261010 1_565
Br14 Mg0 2.288749 1_565
Br15 Li1 2.167272 1_555
Br15 Li5 2.257158 1_555
Br15 Mg2 2.287724 1_555
Br15 Mg0 2.314297 1_555
