# generated using pymatgen
data_CsLiSO4
_symmetry_space_group_name_H-M   'P 1'
_cell_length_a   5.52169700
_cell_length_b   8.91124900
_cell_length_c   9.72474300
_cell_angle_alpha   90.00000000
_cell_angle_beta   90.00000000
_cell_angle_gamma   90.00000000
_symmetry_Int_Tables_number   1
_chemical_formula_structural   CsLiSO4
_chemical_formula_sum   'Cs4 Li4 S4 O16'
_cell_volume   478.50808832
_cell_formula_units_Z   4
loop_
 _symmetry_equiv_pos_site_id
 _symmetry_equiv_pos_as_xyz
  1  'x, y, z'
loop_
 _atom_site_type_symbol
 _atom_site_label
 _atom_site_symmetry_multiplicity
 _atom_site_fract_x
 _atom_site_fract_y
 _atom_site_fract_z
 _atom_site_occupancy
  Cs  Cs0  1  0.75000000  0.50269500  0.78996900  1
  Cs  Cs1  1  0.25000000  0.49730500  0.21003100  1
  Cs  Cs2  1  0.75000000  0.00269500  0.71003100  1
  Cs  Cs3  1  0.25000000  0.99730500  0.28996900  1
  Li  Li0  1  0.25000000  0.17501000  0.91838100  1
  Li  Li1  1  0.75000000  0.82499000  0.08161900  1
  Li  Li2  1  0.25000000  0.67501000  0.58161900  1
  Li  Li3  1  0.75000000  0.32499000  0.41838100  1
  S  S0  1  0.25000000  0.29147600  0.58293700  1
  S  S1  1  0.75000000  0.70852400  0.41706300  1
  S  S2  1  0.25000000  0.79147600  0.91706300  1
  S  S3  1  0.75000000  0.20852400  0.08293700  1
  O  O0  1  0.25000000  0.23293100  0.72615000  1
  O  O1  1  0.75000000  0.76706900  0.27385000  1
  O  O2  1  0.25000000  0.73293100  0.77385000  1
  O  O3  1  0.75000000  0.26706900  0.22615000  1
  O  O4  1  0.75000000  0.04220400  0.08478500  1
  O  O5  1  0.25000000  0.95779600  0.91521500  1
  O  O6  1  0.75000000  0.54220400  0.41521500  1
  O  O7  1  0.25000000  0.45779600  0.58478500  1
  O  O8  1  0.96996300  0.26531100  0.00979700  1
  O  O9  1  0.46996300  0.73468900  0.99020300  1
  O  O10  1  0.53003700  0.76531100  0.49020300  1
  O  O11  1  0.03003700  0.23468900  0.50979700  1
  O  O12  1  0.03003700  0.73468900  0.99020300  1
  O  O13  1  0.53003700  0.26531100  0.00979700  1
  O  O14  1  0.46996300  0.23468900  0.50979700  1
  O  O15  1  0.96996300  0.76531100  0.49020300  1
loop_
_geom_bond_atom_site_label_1
_geom_bond_atom_site_label_2
_geom_bond_distance
_geom_bond_site_symmetry_2
Cs0 O9 3.233670 1_555
Cs0 O12 3.233670 1_655
Cs0 O13 3.243472 1_556
Cs0 O8 3.243472 1_556
Cs0 O7 3.429845 1_655
Cs0 O7 3.429845 1_555
Cs0 O2 3.443296 1_555
Cs0 O2 3.443296 1_655
Cs0 O6 3.661353 1_555
Cs0 O0 3.712998 1_555
Cs0 O0 3.712998 1_655
Cs1 O8 3.233670 1_455
Cs1 O13 3.233670 1_555
Cs1 O9 3.243472 1_554
Cs1 O12 3.243472 1_554
Cs1 O6 3.429845 1_555
Cs1 O6 3.429845 1_455
Cs1 O3 3.443296 1_555
Cs1 O3 3.443296 1_455
Cs1 O7 3.661353 1_555
Cs1 O1 3.712998 1_555
Cs1 O1 3.712998 1_455
Cs2 O14 3.233670 1_555
Cs2 O11 3.233670 1_655
Cs2 O15 3.243472 1_545
Cs2 O10 3.243472 1_545
Cs2 O5 3.429845 1_545
Cs2 O5 3.429845 1_645
Cs2 O0 3.443296 1_555
Cs2 O0 3.443296 1_655
Cs2 O4 3.661353 1_556
Cs2 O2 3.712998 1_545
Cs2 O2 3.712998 1_645
Cs3 O10 3.233670 1_555
Cs3 O15 3.233670 1_455
Cs3 O11 3.243472 1_565
Cs3 O14 3.243472 1_565
Cs3 O4 3.429845 1_565
Cs3 O4 3.429845 1_465
Cs3 O1 3.443296 1_455
Cs3 O1 3.443296 1_555
Cs3 O5 3.661353 1_554
Cs3 O3 3.712998 1_565
Cs3 O3 3.712998 1_465
Li0 O5 1.935893 1_545
Li0 O0 1.939344 1_555
Li0 O8 1.956740 1_456
Li0 O13 1.956740 1_556
Li1 O4 1.935893 1_565
Li1 O1 1.939344 1_555
Li1 O9 1.956740 1_554
Li1 O12 1.956740 1_654
Li2 O7 1.935893 1_555
Li2 O2 1.939344 1_555
Li2 O10 1.956740 1_555
Li2 O15 1.956740 1_455
Li3 O6 1.935893 1_555
Li3 O3 1.939344 1_555
Li3 O14 1.956740 1_555
Li3 O11 1.956740 1_655
O0 S0 1.487219 1_555
O1 S1 1.487219 1_555
O2 S2 1.487219 1_555
O3 S3 1.487219 1_555
O4 S3 1.482228 1_555
O5 S2 1.482228 1_555
O6 S1 1.482228 1_555
O7 S0 1.482228 1_555
O8 S3 1.495714 1_555
O9 S2 1.495714 1_555
O10 S1 1.495714 1_555
O11 S0 1.495714 1_555
O12 S2 1.495714 1_555
O13 S3 1.495714 1_555
O14 S0 1.495714 1_555
O15 S1 1.495714 1_555
