# generated using pymatgen
data_ZnSiO3
_symmetry_space_group_name_H-M   'P 1'
_cell_length_a   5.33636100
_cell_length_b   9.30085300
_cell_length_c   18.49296800
_cell_angle_alpha   90.00000000
_cell_angle_beta   90.00000000
_cell_angle_gamma   90.00000000
_symmetry_Int_Tables_number   1
_chemical_formula_structural   ZnSiO3
_chemical_formula_sum   'Zn16 Si16 O48'
_cell_volume   917.85610328
_cell_formula_units_Z   16
loop_
 _symmetry_equiv_pos_site_id
 _symmetry_equiv_pos_as_xyz
  1  'x, y, z'
loop_
 _atom_site_type_symbol
 _atom_site_label
 _atom_site_symmetry_multiplicity
 _atom_site_fract_x
 _atom_site_fract_y
 _atom_site_fract_z
 _atom_site_occupancy
  Zn  Zn0  1  0.59660600  0.14427700  0.37466400  1
  Zn  Zn1  1  0.59973400  0.49020400  0.37585200  1
  Zn  Zn2  1  0.90339400  0.64427700  0.62533600  1
  Zn  Zn3  1  0.09973400  0.00979600  0.37585200  1
  Zn  Zn4  1  0.90339400  0.14427700  0.87466400  1
  Zn  Zn5  1  0.09660600  0.85572300  0.12533600  1
  Zn  Zn6  1  0.40026600  0.00979600  0.87585200  1
  Zn  Zn7  1  0.59973400  0.99020400  0.12414800  1
  Zn  Zn8  1  0.40026600  0.50979600  0.62414800  1
  Zn  Zn9  1  0.90026600  0.49020400  0.87585200  1
  Zn  Zn10  1  0.40339400  0.35572300  0.87466400  1
  Zn  Zn11  1  0.59660600  0.64427700  0.12533600  1
  Zn  Zn12  1  0.09660600  0.35572300  0.37466400  1
  Zn  Zn13  1  0.90026600  0.99020400  0.62414800  1
  Zn  Zn14  1  0.09973400  0.50979600  0.12414800  1
  Zn  Zn15  1  0.40339400  0.85572300  0.62533600  1
  Si  Si0  1  0.28195600  0.16635900  0.52696900  1
  Si  Si1  1  0.21804400  0.66635900  0.47303100  1
  Si  Si2  1  0.91304800  0.66365900  0.27446100  1
  Si  Si3  1  0.28195600  0.66635900  0.97303100  1
  Si  Si4  1  0.08695200  0.33634100  0.72553900  1
  Si  Si5  1  0.91304800  0.16365900  0.22553900  1
  Si  Si6  1  0.41304800  0.83634100  0.27446100  1
  Si  Si7  1  0.41304800  0.33634100  0.22553900  1
  Si  Si8  1  0.58695200  0.66365900  0.77446100  1
  Si  Si9  1  0.21804400  0.16635900  0.02696900  1
  Si  Si10  1  0.58695200  0.16365900  0.72553900  1
  Si  Si11  1  0.78195600  0.33364100  0.52696900  1
  Si  Si12  1  0.08695200  0.83634100  0.77446100  1
  Si  Si13  1  0.71804400  0.33364100  0.02696900  1
  Si  Si14  1  0.78195600  0.83364100  0.97303100  1
  Si  Si15  1  0.71804400  0.83364100  0.47303100  1
  O  O0  1  0.58480300  0.66525100  0.68536000  1
  O  O1  1  0.71768400  0.83894100  0.56225200  1
  O  O2  1  0.91519700  0.66525100  0.18536000  1
  O  O3  1  0.08480300  0.33474900  0.81464000  1
  O  O4  1  0.66000800  0.74843100  0.30325700  1
  O  O5  1  0.08480300  0.83474900  0.68536000  1
  O  O6  1  0.20404000  0.01748300  0.56748000  1
  O  O7  1  0.78231600  0.33894100  0.43774800  1
  O  O8  1  0.42994900  0.28856100  0.05129100  1
  O  O9  1  0.79596000  0.98251700  0.43252000  1
  O  O10  1  0.89208000  0.00522800  0.18854700  1
  O  O11  1  0.21768400  0.16105900  0.93774800  1
  O  O12  1  0.78231600  0.83894100  0.06225200  1
  O  O13  1  0.79596000  0.48251700  0.06748000  1
  O  O14  1  0.58480300  0.16525100  0.81464000  1
  O  O15  1  0.39208000  0.99477200  0.31145300  1
  O  O16  1  0.21768400  0.66105900  0.56225200  1
  O  O17  1  0.29596000  0.01748300  0.06748000  1
  O  O18  1  0.92994900  0.71143900  0.44870900  1
  O  O19  1  0.57005100  0.71143900  0.94870900  1
  O  O20  1  0.92994900  0.21143900  0.05129100  1
  O  O21  1  0.10792000  0.99477200  0.81145300  1
  O  O22  1  0.42994900  0.78856100  0.44870900  1
  O  O23  1  0.16000800  0.75156900  0.30325700  1
  O  O24  1  0.57005100  0.21143900  0.55129100  1
  O  O25  1  0.33999200  0.75156900  0.80325700  1
  O  O26  1  0.60792000  0.00522800  0.68854700  1
  O  O27  1  0.41519700  0.33474900  0.31464000  1
  O  O28  1  0.39208000  0.49477200  0.18854700  1
  O  O29  1  0.60792000  0.50522800  0.81145300  1
  O  O30  1  0.28231600  0.16105900  0.43774800  1
  O  O31  1  0.70404000  0.48251700  0.56748000  1
  O  O32  1  0.10792000  0.49477200  0.68854700  1
  O  O33  1  0.16000800  0.25156900  0.19674300  1
  O  O34  1  0.07005100  0.28856100  0.55129100  1
  O  O35  1  0.28231600  0.66105900  0.06225200  1
  O  O36  1  0.89208000  0.50522800  0.31145300  1
  O  O37  1  0.91519700  0.16525100  0.31464000  1
  O  O38  1  0.07005100  0.78856100  0.94870900  1
  O  O39  1  0.66000800  0.24843100  0.19674300  1
  O  O40  1  0.83999200  0.24843100  0.69674300  1
  O  O41  1  0.70404000  0.98251700  0.93252000  1
  O  O42  1  0.41519700  0.83474900  0.18536000  1
  O  O43  1  0.20404000  0.51748300  0.93252000  1
  O  O44  1  0.29596000  0.51748300  0.43252000  1
  O  O45  1  0.33999200  0.25156900  0.69674300  1
  O  O46  1  0.83999200  0.74843100  0.80325700  1
  O  O47  1  0.71768400  0.33894100  0.93774800  1
loop_
_geom_bond_atom_site_label_1
_geom_bond_atom_site_label_2
_geom_bond_distance
_geom_bond_site_symmetry_2
O0 Si8 1.647848 1_555
O0 Zn2 2.039755 1_555
O0 Zn8 2.083668 1_555
O0 Zn15 2.303843 1_555
O1 Si15 1.650698 1_555
O1 Zn15 2.048957 1_555
O1 Zn13 2.058836 1_555
O1 Zn2 2.370897 1_555
O2 Si2 1.647848 1_555
O2 Zn11 2.039755 1_555
O2 Zn14 2.083668 1_655
O2 Zn5 2.303843 1_655
O3 Si4 1.647848 1_555
O3 Zn10 2.039755 1_555
O3 Zn9 2.083668 1_455
O3 Zn4 2.303843 1_455
O4 Si6 1.639783 1_555
O4 Si2 1.651842 1_555
O5 Si12 1.647848 1_555
O5 Zn15 2.039755 1_555
O5 Zn13 2.083668 1_455
O5 Zn2 2.303843 1_455
O6 Si0 1.628329 1_555
O6 Zn13 1.946892 1_445
O6 Zn15 2.130730 1_545
O7 Si11 1.650698 1_555
O7 Zn12 2.048957 1_655
O7 Zn1 2.058836 1_555
O7 Zn0 2.370897 1_555
O8 Si13 1.655790 1_555
O8 Si9 1.665185 1_555
O9 Si15 1.628329 1_555
O9 Zn3 1.946892 1_665
O9 Zn0 2.130730 1_565
O10 Si5 1.628445 1_555
O10 Zn7 1.967647 1_545
O10 Zn5 2.119252 1_645
O11 Si9 1.650698 1_556
O11 Zn4 2.048957 1_455
O11 Zn6 2.058836 1_555
O11 Zn10 2.370897 1_555
O12 Si14 1.650698 1_554
O12 Zn5 2.048957 1_655
O12 Zn7 2.058836 1_555
O12 Zn11 2.370897 1_555
O13 Si13 1.628329 1_555
O13 Zn14 1.946892 1_655
O13 Zn11 2.130730 1_555
O14 Si10 1.647848 1_555
O14 Zn4 2.039755 1_555
O14 Zn6 2.083668 1_555
O14 Zn10 2.303843 1_555
O15 Si6 1.628445 1_555
O15 Zn3 1.967647 1_565
O15 Zn0 2.119252 1_565
O16 Si1 1.650698 1_555
O16 Zn2 2.048957 1_455
O16 Zn8 2.058836 1_555
O16 Zn15 2.370897 1_555
O17 Si9 1.628329 1_555
O17 Zn7 1.946892 1_545
O17 Zn5 2.130730 1_545
O18 Si1 1.655790 1_655
O18 Si15 1.665185 1_555
O19 Si3 1.655790 1_555
O19 Si14 1.665185 1_555
O20 Si9 1.655790 1_655
O20 Si13 1.665185 1_555
O21 Si12 1.628445 1_555
O21 Zn6 1.967647 1_565
O21 Zn4 2.119252 1_465
O22 Si15 1.655790 1_555
O22 Si1 1.665185 1_555
O23 Si2 1.639783 1_455
O23 Si6 1.651842 1_555
O24 Si0 1.655790 1_555
O24 Si11 1.665185 1_555
O25 Si8 1.639783 1_555
O25 Si12 1.651842 1_555
O26 Si10 1.628445 1_555
O26 Zn13 1.967647 1_545
O26 Zn15 2.119252 1_545
O27 Si7 1.647848 1_555
O27 Zn12 2.039755 1_555
O27 Zn1 2.083668 1_555
O27 Zn0 2.303843 1_555
O28 Si7 1.628445 1_555
O28 Zn14 1.967647 1_555
O28 Zn11 2.119252 1_555
O29 Si8 1.628445 1_555
O29 Zn9 1.967647 1_555
O29 Zn10 2.119252 1_555
O30 Si0 1.650698 1_555
O30 Zn0 2.048957 1_555
O30 Zn3 2.058836 1_555
O30 Zn12 2.370897 1_555
O31 Si11 1.628329 1_555
O31 Zn8 1.946892 1_555
O31 Zn2 2.130730 1_555
O32 Si4 1.628445 1_555
O32 Zn8 1.967647 1_555
O32 Zn2 2.119252 1_455
O33 Si5 1.639783 1_455
O33 Si7 1.651842 1_555
O34 Si11 1.655790 1_455
O34 Si0 1.665185 1_555
O35 Si3 1.650698 1_554
O35 Zn11 2.048957 1_555
O35 Zn14 2.058836 1_555
O35 Zn5 2.370897 1_555
O36 Si2 1.628445 1_555
O36 Zn1 1.967647 1_555
O36 Zn12 2.119252 1_655
O37 Si5 1.647848 1_555
O37 Zn0 2.039755 1_555
O37 Zn3 2.083668 1_655
O37 Zn12 2.303843 1_655
O38 Si14 1.655790 1_455
O38 Si3 1.665185 1_555
O39 Si7 1.639783 1_555
O39 Si5 1.651842 1_555
O40 Si4 1.639783 1_655
O40 Si10 1.651842 1_555
O41 Si14 1.628329 1_555
O41 Zn6 1.946892 1_565
O41 Zn4 2.130730 1_565
O42 Si6 1.647848 1_555
O42 Zn5 2.039755 1_555
O42 Zn7 2.083668 1_555
O42 Zn11 2.303843 1_555
O43 Si3 1.628329 1_555
O43 Zn9 1.946892 1_455
O43 Zn10 2.130730 1_555
O44 Si1 1.628329 1_555
O44 Zn1 1.946892 1_555
O44 Zn12 2.130730 1_555
O45 Si10 1.639783 1_555
O45 Si4 1.651842 1_555
O46 Si12 1.639783 1_655
O46 Si8 1.651842 1_555
O47 Si13 1.650698 1_556
O47 Zn10 2.048957 1_555
O47 Zn9 2.058836 1_555
O47 Zn4 2.370897 1_555
