# generated using pymatgen
data_Pr4NiI5
_symmetry_space_group_name_H-M   'P 1'
_cell_length_a   4.21681883
_cell_length_b   9.16528344
_cell_length_c   19.20962402
_cell_angle_alpha   90.00000000
_cell_angle_beta   90.00000000
_cell_angle_gamma   90.00000000
_symmetry_Int_Tables_number   1
_chemical_formula_structural   Pr4NiI5
_chemical_formula_sum   'Pr8 Ni2 I10'
_cell_volume   742.42007640
_cell_formula_units_Z   2
loop_
 _symmetry_equiv_pos_site_id
 _symmetry_equiv_pos_as_xyz
  1  'x, y, z'
loop_
 _atom_site_type_symbol
 _atom_site_label
 _atom_site_symmetry_multiplicity
 _atom_site_fract_x
 _atom_site_fract_y
 _atom_site_fract_z
 _atom_site_occupancy
  Pr  Pr0  1  0.00000000  0.37064148  0.85476851  1
  Pr  Pr1  1  0.50000000  0.58114929  -0.00000000  1
  Pr  Pr2  1  0.00000000  0.37064148  0.14523149  1
  Pr  Pr3  1  0.00000000  0.83364713  0.50000000  1
  Pr  Pr4  1  0.50000000  0.62935852  0.35476851  1
  Pr  Pr5  1  -0.00000000  0.41885071  0.50000000  1
  Pr  Pr6  1  0.50000000  0.62935852  0.64523149  1
  Pr  Pr7  1  0.50000000  0.16635287  -0.00000000  1
  Ni  Ni0  1  0.50000000  0.62452362  0.50000000  1
  Ni  Ni1  1  0.00000000  0.37547638  -0.00000000  1
  I  I0  1  0.50000000  0.10861226  0.16878084  1
  I  I1  1  0.00000000  0.36192551  0.67385882  1
  I  I2  1  0.00000000  0.87280952  -0.00000000  1
  I  I3  1  -0.00000000  0.89138774  0.33121916  1
  I  I4  1  0.50000000  0.10861226  0.83121916  1
  I  I5  1  0.50000000  0.63807449  0.82614118  1
  I  I6  1  -0.00000000  0.89138774  0.66878084  1
  I  I7  1  0.00000000  0.36192551  0.32614118  1
  I  I8  1  0.50000000  0.63807449  0.17385882  1
  I  I9  1  0.50000000  0.12719048  0.50000000  1
loop_
_geom_bond_atom_site_label_1
_geom_bond_atom_site_label_2
_geom_bond_distance
_geom_bond_site_symmetry_2
Ni0 Pr4 2.790194 1_555
Ni0 Pr6 2.790194 1_555
Ni0 Pr5 2.828216 1_655
Ni0 Pr5 2.828216 1_555
Ni0 Pr3 2.849393 1_555
Ni0 Pr3 2.849393 1_655
Ni1 Pr2 2.790194 1_555
Ni1 Pr0 2.790194 1_554
Ni1 Pr1 2.828216 1_555
Ni1 Pr1 2.828216 1_455
Ni1 Pr7 2.849393 1_555
Ni1 Pr7 2.849393 1_455
I0 Pr2 3.227628 1_655
I0 Pr2 3.227628 1_555
I0 Pr7 3.285123 1_555
I1 Pr6 3.279587 1_555
I1 Pr6 3.279587 1_455
I1 Pr5 3.380270 1_555
I1 Pr0 3.476125 1_555
I2 Pr1 3.404573 1_455
I2 Pr1 3.404573 1_555
I2 Pr7 3.418141 1_565
I2 Pr7 3.418141 1_465
I3 Pr4 3.227628 1_555
I3 Pr4 3.227628 1_455
I3 Pr3 3.285123 1_555
I4 Pr0 3.227628 1_555
I4 Pr0 3.227628 1_655
I4 Pr7 3.285123 1_556
I5 Pr0 3.279587 1_555
I5 Pr0 3.279587 1_655
I5 Pr1 3.380270 1_556
I5 Pr6 3.476125 1_555
I6 Pr6 3.227628 1_555
I6 Pr6 3.227628 1_455
I6 Pr3 3.285123 1_555
I7 Pr4 3.279587 1_555
I7 Pr4 3.279587 1_455
I7 Pr5 3.380270 1_555
I7 Pr2 3.476125 1_555
I8 Pr2 3.279587 1_655
I8 Pr2 3.279587 1_555
I8 Pr1 3.380270 1_555
I8 Pr4 3.476125 1_555
I9 Pr5 3.404573 1_555
I9 Pr5 3.404573 1_655
I9 Pr3 3.418141 1_545
I9 Pr3 3.418141 1_645
