# generated using pymatgen
data_YbTiCdSbO7
_symmetry_space_group_name_H-M   'P 1'
_cell_length_a   7.30135100
_cell_length_b   7.30135100
_cell_length_c   10.33640600
_cell_angle_alpha   90.00000000
_cell_angle_beta   90.00000000
_cell_angle_gamma   90.00000000
_symmetry_Int_Tables_number   1
_chemical_formula_structural   YbTiCdSbO7
_chemical_formula_sum   'Yb4 Ti4 Cd4 Sb4 O28'
_cell_volume   551.03097608
_cell_formula_units_Z   4
loop_
 _symmetry_equiv_pos_site_id
 _symmetry_equiv_pos_as_xyz
  1  'x, y, z'
loop_
 _atom_site_type_symbol
 _atom_site_label
 _atom_site_symmetry_multiplicity
 _atom_site_fract_x
 _atom_site_fract_y
 _atom_site_fract_z
 _atom_site_occupancy
  Yb  Yb0  1  0.00000000  0.74548600  0.00000000  1
  Yb  Yb1  1  0.74548600  0.00000000  0.75000000  1
  Yb  Yb2  1  0.00000000  0.25451400  0.50000000  1
  Yb  Yb3  1  0.25451400  0.00000000  0.25000000  1
  Ti  Ti0  1  0.76547500  0.00000000  0.25000000  1
  Ti  Ti1  1  0.00000000  0.76547500  0.50000000  1
  Ti  Ti2  1  0.00000000  0.23452500  0.00000000  1
  Ti  Ti3  1  0.23452500  0.00000000  0.75000000  1
  Cd  Cd0  1  0.50000000  0.24951000  0.50000000  1
  Cd  Cd1  1  0.50000000  0.75049000  0.00000000  1
  Cd  Cd2  1  0.75049000  0.50000000  0.75000000  1
  Cd  Cd3  1  0.24951000  0.50000000  0.25000000  1
  Sb  Sb0  1  0.24648600  0.50000000  0.75000000  1
  Sb  Sb1  1  0.50000000  0.75351400  0.50000000  1
  Sb  Sb2  1  0.50000000  0.24648600  0.00000000  1
  Sb  Sb3  1  0.75351400  0.50000000  0.25000000  1
  O  O0  1  0.25587200  0.74412800  0.12500000  1
  O  O1  1  0.55132800  0.95424000  0.37145000  1
  O  O2  1  0.75495700  0.75544500  0.57157700  1
  O  O3  1  0.74412800  0.25587200  0.62500000  1
  O  O4  1  0.75544500  0.75495700  0.17842300  1
  O  O5  1  0.94958100  0.94958100  0.37500000  1
  O  O6  1  0.05041900  0.05041900  0.87500000  1
  O  O7  1  0.05041900  0.94958100  0.62500000  1
  O  O8  1  0.04576000  0.44867200  0.87855000  1
  O  O9  1  0.24504300  0.24455500  0.07157700  1
  O  O10  1  0.24504300  0.75544500  0.42842300  1
  O  O11  1  0.24455500  0.75495700  0.82157700  1
  O  O12  1  0.24455500  0.24504300  0.67842300  1
  O  O13  1  0.44867200  0.04576000  0.87145000  1
  O  O14  1  0.44867200  0.95424000  0.62855000  1
  O  O15  1  0.45212900  0.45212900  0.87500000  1
  O  O16  1  0.54787100  0.54787100  0.37500000  1
  O  O17  1  0.55132800  0.04576000  0.12855000  1
  O  O18  1  0.54787100  0.45212900  0.12500000  1
  O  O19  1  0.75544500  0.24504300  0.32157700  1
  O  O20  1  0.75495700  0.24455500  0.92842300  1
  O  O21  1  0.94958100  0.05041900  0.12500000  1
  O  O22  1  0.95424000  0.55132800  0.37855000  1
  O  O23  1  0.95424000  0.44867200  0.12145000  1
  O  O24  1  0.04576000  0.55132800  0.62145000  1
  O  O25  1  0.25587200  0.25587200  0.37500000  1
  O  O26  1  0.45212900  0.54787100  0.62500000  1
  O  O27  1  0.74412800  0.74412800  0.87500000  1
loop_
_geom_bond_atom_site_label_1
_geom_bond_atom_site_label_2
_geom_bond_distance
_geom_bond_site_symmetry_2
Cd0 O25 2.201984 1_555
Cd0 O3 2.201984 1_555
Cd0 O16 2.556786 1_555
Cd0 O26 2.556786 1_555
Cd0 O1 2.560036 1_545
Cd0 O14 2.560036 1_545
Cd0 O12 2.623148 1_555
Cd0 O19 2.623148 1_555
Cd1 O0 2.201984 1_555
Cd1 O27 2.201984 1_554
Cd1 O15 2.556786 1_554
Cd1 O18 2.556786 1_555
Cd1 O17 2.560036 1_565
Cd1 O13 2.560036 1_564
Cd1 O11 2.623148 1_554
Cd1 O4 2.623148 1_555
Cd2 O27 2.201984 1_555
Cd2 O3 2.201984 1_555
Cd2 O15 2.556786 1_555
Cd2 O26 2.556786 1_555
Cd2 O8 2.560036 1_655
Cd2 O24 2.560036 1_655
Cd2 O2 2.623148 1_555
Cd2 O20 2.623148 1_555
Cd3 O25 2.201984 1_555
Cd3 O0 2.201984 1_555
Cd3 O16 2.556786 1_555
Cd3 O18 2.556786 1_555
Cd3 O23 2.560036 1_455
Cd3 O22 2.560036 1_455
Cd3 O9 2.623148 1_555
Cd3 O10 2.623148 1_555
O0 Yb3 2.271499 1_565
O0 Yb0 2.271499 1_555
O1 Sb1 2.013432 1_555
O1 Ti0 2.032800 1_565
O1 Yb3 2.526670 1_565
O2 Ti1 1.937467 1_655
O2 Sb1 2.003215 1_555
O2 Yb1 2.567947 1_565
O3 Yb1 2.271499 1_555
O3 Yb2 2.271499 1_655
O4 Ti0 1.937467 1_565
O4 Sb3 2.003215 1_555
O4 Yb0 2.567947 1_655
O5 Ti0 1.900486 1_565
O5 Ti1 1.900486 1_655
O5 Yb3 2.600360 1_665
O5 Yb2 2.600360 1_665
O6 Ti3 1.900486 1_555
O6 Ti2 1.900486 1_556
O6 Yb0 2.600360 1_546
O6 Yb1 2.600360 1_455
O7 Ti3 1.900486 1_565
O7 Ti1 1.900486 1_555
O7 Yb2 2.600360 1_565
O7 Yb1 2.600360 1_465
O8 Sb0 2.013432 1_555
O8 Ti2 2.032800 1_556
O8 Yb0 2.526670 1_556
O9 Ti2 1.937467 1_555
O9 Sb2 2.003215 1_555
O9 Yb3 2.567947 1_555
O10 Ti1 1.937467 1_555
O10 Sb1 2.003215 1_555
O10 Yb3 2.567947 1_565
O11 Ti3 1.937467 1_565
O11 Sb0 2.003215 1_555
O11 Yb0 2.567947 1_556
O12 Ti3 1.937467 1_555
O12 Sb0 2.003215 1_555
O12 Yb2 2.567947 1_555
O13 Sb2 2.013432 1_556
O13 Ti3 2.032800 1_555
O13 Yb1 2.526670 1_555
O14 Sb1 2.013432 1_555
O14 Ti3 2.032800 1_565
O14 Yb1 2.526670 1_565
O15 Sb2 2.011462 1_556
O15 Sb0 2.011462 1_555
O16 Sb1 2.011462 1_555
O16 Sb3 2.011462 1_555
O17 Sb2 2.013432 1_555
O17 Ti0 2.032800 1_555
O17 Yb3 2.526670 1_555
O18 Sb2 2.011462 1_555
O18 Sb3 2.011462 1_555
O19 Ti0 1.937467 1_555
O19 Sb3 2.003215 1_555
O19 Yb2 2.567947 1_655
O20 Ti2 1.937467 1_656
O20 Sb2 2.003215 1_556
O20 Yb1 2.567947 1_555
O21 Ti0 1.900486 1_555
O21 Ti2 1.900486 1_655
O21 Yb3 2.600360 1_655
O21 Yb0 2.600360 1_645
O22 Sb3 2.013432 1_555
O22 Ti1 2.032800 1_655
O22 Yb2 2.526670 1_655
O23 Sb3 2.013432 1_555
O23 Ti2 2.032800 1_655
O23 Yb0 2.526670 1_655
O24 Sb0 2.013432 1_555
O24 Ti1 2.032800 1_555
O24 Yb2 2.526670 1_555
O25 Yb3 2.271499 1_555
O25 Yb2 2.271499 1_555
O26 Sb0 2.011462 1_555
O26 Sb1 2.011462 1_555
O27 Yb1 2.271499 1_565
O27 Yb0 2.271499 1_656
