# generated using pymatgen
data_Er5Si3C
_symmetry_space_group_name_H-M   'P 1'
_cell_length_a   14.60548776
_cell_length_b   14.60548793
_cell_length_c   18.86077235
_cell_angle_alpha   90.00000000
_cell_angle_beta   90.00000000
_cell_angle_gamma   119.99999962
_symmetry_Int_Tables_number   1
_chemical_formula_structural   Er5Si3C
_chemical_formula_sum   'Er90 Si54 C18'
_cell_volume   3484.35376059
_cell_formula_units_Z   18
loop_
 _symmetry_equiv_pos_site_id
 _symmetry_equiv_pos_as_xyz
  1  'x, y, z'
loop_
 _atom_site_type_symbol
 _atom_site_label
 _atom_site_symmetry_multiplicity
 _atom_site_fract_x
 _atom_site_fract_y
 _atom_site_fract_z
 _atom_site_occupancy
  Er  Er0  1  0.15633256  0.07816628  0.75942296  1
  Er  Er1  1  0.82295924  0.41147962  0.40697326  1
  Er  Er2  1  0.49503063  0.74751532  0.09331714  1
  Er  Er3  1  0.85104750  0.92552375  0.91764530  1
  Er  Er4  1  0.24685605  0.49371211  0.41880494  1
  Er  Er5  1  0.33280907  0.32624965  0.16711323  1
  Er  Er6  1  0.57921507  0.42078493  0.74793707  1
  Er  Er7  1  0.25949786  0.51899572  0.75682081  1
  Er  Er8  1  0.66495543  0.66495543  0.00000000  1
  Er  Er9  1  0.32624965  0.99344058  0.83288677  1
  Er  Er10  1  0.92183372  0.07816628  0.75942296  1
  Er  Er11  1  0.99344058  0.66719093  0.16711323  1
  Er  Er12  1  0.74050214  0.48100428  0.24317919  1
  Er  Er13  1  0.66140378  0.00000000  0.50000000  1
  Er  Er14  1  0.00000000  0.33504457  0.00000000  1
  Er  Er15  1  1.00000000  0.66140378  0.50000000  1
  Er  Er16  1  0.41147962  0.58852038  0.59302674  1
  Er  Er17  1  0.07447625  0.92552375  0.91764530  1
  Er  Er18  1  0.74751532  0.49503063  0.90668286  1
  Er  Er19  1  0.07816628  0.15633256  0.24057704  1
  Er  Er20  1  0.84205711  0.92102856  0.57352397  1
  Er  Er21  1  0.92183372  0.84366744  0.75942296  1
  Er  Er22  1  0.66495543  0.00000000  0.00000000  1
  Er  Er23  1  0.58852038  0.17704076  0.40697326  1
  Er  Er24  1  0.25949786  0.74050214  0.75682081  1
  Er  Er25  1  0.07897144  0.92102856  0.57352397  1
  Er  Er26  1  0.58852038  0.41147962  0.40697326  1
  Er  Er27  1  0.92552375  0.07447625  0.08235470  1
  Er  Er28  1  0.25248468  0.74751532  0.09331714  1
  Er  Er29  1  0.32276809  0.32349806  0.33246908  1
  Er  Er30  1  0.49371211  0.24685605  0.58119506  1
  Er  Er31  1  0.33504457  0.33504457  0.00000000  1
  Er  Er32  1  1.00000000  0.66495543  0.00000000  1
  Er  Er33  1  0.66140378  0.66140378  0.50000000  1
  Er  Er34  1  0.32624965  0.33280907  0.83288677  1
  Er  Er35  1  0.67723191  0.67650194  0.66753092  1
  Er  Er36  1  0.07816628  0.92183372  0.24057704  1
  Er  Er37  1  0.41132482  0.58867518  0.92081368  1
  Er  Er38  1  0.33859622  0.33859622  0.50000000  1
  Er  Er39  1  0.48100428  0.74050214  0.75682081  1
  Er  Er40  1  0.07897144  0.15794289  0.57352397  1
  Er  Er41  1  0.99344058  0.32624965  0.16711323  1
  Er  Er42  1  0.84366744  0.92183372  0.24057704  1
  Er  Er43  1  0.75314395  0.24685605  0.58119506  1
  Er  Er44  1  0.24685605  0.75314395  0.41880494  1
  Er  Er45  1  0.25248468  0.50496937  0.09331714  1
  Er  Er46  1  0.92552375  0.85104750  0.08235470  1
  Er  Er47  1  0.00072997  0.32349806  0.33246908  1
  Er  Er48  1  0.99927003  0.32276809  0.66753092  1
  Er  Er49  1  0.15794289  0.07897144  0.42647603  1
  Er  Er50  1  0.17735037  0.58867518  0.92081368  1
  Er  Er51  1  0.00655942  0.33280907  0.83288677  1
  Er  Er52  1  0.67650194  0.67723191  0.33246908  1
  Er  Er53  1  0.66719093  0.67375035  0.83288677  1
  Er  Er54  1  0.50628789  0.75314395  0.41880494  1
  Er  Er55  1  0.67723191  0.00072997  0.66753092  1
  Er  Er56  1  0.51899572  0.25949786  0.24317919  1
  Er  Er57  1  0.32349806  0.32276809  0.66753092  1
  Er  Er58  1  0.17704076  0.58852038  0.59302674  1
  Er  Er59  1  0.92102856  0.07897144  0.42647603  1
  Er  Er60  1  0.75314395  0.50628789  0.58119506  1
  Er  Er61  1  0.00072997  0.67723191  0.33246908  1
  Er  Er62  1  0.14895250  0.07447625  0.08235470  1
  Er  Er63  1  0.33504457  0.00000000  0.00000000  1
  Er  Er64  1  0.58867518  0.17735037  0.07918632  1
  Er  Er65  1  0.00000000  0.33859622  0.50000000  1
  Er  Er66  1  0.42078493  0.84156987  0.25206293  1
  Er  Er67  1  0.32276809  0.99927003  0.33246908  1
  Er  Er68  1  0.84156987  0.42078493  0.74793707  1
  Er  Er69  1  0.50496937  0.25248468  0.90668286  1
  Er  Er70  1  0.67375035  0.66719093  0.16711323  1
  Er  Er71  1  0.33859622  0.00000000  0.50000000  1
  Er  Er72  1  0.41132482  0.82264963  0.92081368  1
  Er  Er73  1  0.07447625  0.14895250  0.91764530  1
  Er  Er74  1  0.67650194  0.99927003  0.33246908  1
  Er  Er75  1  0.82264963  0.41132482  0.07918632  1
  Er  Er76  1  0.99927003  0.67650194  0.66753092  1
  Er  Er77  1  0.41147962  0.82295924  0.59302674  1
  Er  Er78  1  0.58867518  0.41132482  0.07918632  1
  Er  Er79  1  0.74050214  0.25949786  0.24317919  1
  Er  Er80  1  0.00655942  0.67375035  0.83288677  1
  Er  Er81  1  0.74751532  0.25248468  0.90668286  1
  Er  Er82  1  0.92102856  0.84205711  0.42647603  1
  Er  Er83  1  0.57921507  0.15843013  0.74793707  1
  Er  Er84  1  0.33280907  0.00655942  0.16711323  1
  Er  Er85  1  0.32349806  0.00072997  0.66753092  1
  Er  Er86  1  0.15843013  0.57921507  0.25206293  1
  Er  Er87  1  0.42078493  0.57921507  0.25206293  1
  Er  Er88  1  0.67375035  0.00655942  0.16711323  1
  Er  Er89  1  0.66719093  0.99344058  0.83288677  1
  Si  Si0  1  0.20029696  0.40059392  0.58032314  1
  Si  Si1  1  0.86691567  0.13308433  0.24808775  1
  Si  Si2  1  0.73383134  0.86691567  0.75191225  1
  Si  Si3  1  0.46481550  0.92963099  0.41249480  1
  Si  Si4  1  0.46481550  0.53518450  0.41249480  1
  Si  Si5  1  0.80012290  0.19987710  0.75221512  1
  Si  Si6  1  0.06766663  0.53383331  0.74957899  1
  Si  Si7  1  0.53383331  0.06766663  0.25042101  1
  Si  Si8  1  0.13308433  0.26616866  0.75191225  1
  Si  Si9  1  0.40059392  0.20029696  0.41967686  1
  Si  Si10  1  0.79988236  0.59976472  0.07908450  1
  Si  Si11  1  0.93163154  0.46581577  0.91407228  1
  Si  Si12  1  0.20011764  0.40023528  0.92091550  1
  Si  Si13  1  0.13115599  0.86884401  0.41955768  1
  Si  Si14  1  0.73187844  0.86593922  0.08928041  1
  Si  Si15  1  0.26812156  0.13406078  0.91071959  1
  Si  Si16  1  0.86691567  0.73383134  0.24808775  1
  Si  Si17  1  0.53383331  0.46616669  0.25042101  1
  Si  Si18  1  0.26231199  0.13115599  0.58044232  1
  Si  Si19  1  0.13115599  0.26231199  0.41955768  1
  Si  Si20  1  0.86593922  0.73187844  0.91071959  1
  Si  Si21  1  0.06836846  0.53418423  0.08592772  1
  Si  Si22  1  0.79970304  0.20029696  0.41967686  1
  Si  Si23  1  0.26616866  0.13308433  0.24808775  1
  Si  Si24  1  0.80012290  0.60024579  0.75221512  1
  Si  Si25  1  0.19987710  0.39975421  0.24778488  1
  Si  Si26  1  0.46616669  0.53383331  0.74957899  1
  Si  Si27  1  0.92963099  0.46481550  0.58750520  1
  Si  Si28  1  0.13308433  0.86691567  0.75191225  1
  Si  Si29  1  0.53418423  0.06836846  0.91407228  1
  Si  Si30  1  0.13406078  0.26812156  0.08928041  1
  Si  Si31  1  0.07036901  0.53518450  0.41249480  1
  Si  Si32  1  0.46616669  0.93233337  0.74957899  1
  Si  Si33  1  0.79970304  0.59940608  0.41967686  1
  Si  Si34  1  0.20029696  0.79970304  0.58032314  1
  Si  Si35  1  0.20011764  0.79988236  0.92091550  1
  Si  Si36  1  0.53518450  0.46481550  0.58750520  1
  Si  Si37  1  0.86884401  0.73768801  0.58044232  1
  Si  Si38  1  0.93233337  0.46616669  0.25042101  1
  Si  Si39  1  0.53518450  0.07036901  0.58750520  1
  Si  Si40  1  0.40023528  0.20011764  0.07908450  1
  Si  Si41  1  0.73768801  0.86884401  0.41955768  1
  Si  Si42  1  0.60024579  0.80012290  0.24778488  1
  Si  Si43  1  0.13406078  0.86593922  0.08928041  1
  Si  Si44  1  0.59976472  0.79988236  0.92091550  1
  Si  Si45  1  0.39975421  0.19987710  0.75221512  1
  Si  Si46  1  0.59940608  0.79970304  0.58032314  1
  Si  Si47  1  0.53418423  0.46581577  0.91407228  1
  Si  Si48  1  0.86593922  0.13406078  0.91071959  1
  Si  Si49  1  0.19987710  0.80012290  0.24778488  1
  Si  Si50  1  0.79988236  0.20011764  0.07908450  1
  Si  Si51  1  0.86884401  0.13115599  0.58044232  1
  Si  Si52  1  0.46581577  0.93163154  0.08592772  1
  Si  Si53  1  0.46581577  0.53418423  0.08592772  1
  C  C0  1  0.50000000  0.50000000  0.50000000  1
  C  C1  1  0.66666700  0.33333300  0.15436315  1
  C  C2  1  0.00000000  0.00000000  0.82744989  1
  C  C3  1  0.33333300  0.66666700  0.16715378  1
  C  C4  1  0.00000000  0.00000000  0.17255011  1
  C  C5  1  0.66666700  0.33333300  0.83284622  1
  C  C6  1  0.50000000  0.50000000  0.00000000  1
  C  C7  1  0.33333300  0.66666700  0.23886861  1
  C  C8  1  0.00000000  0.00000000  0.00000000  1
  C  C9  1  0.33333300  0.66666700  0.84563685  1
  C  C10  1  0.00000000  0.50000000  0.50000000  1
  C  C11  1  0.33333300  0.66666700  0.66762460  1
  C  C12  1  0.50000000  0.00000000  0.00000000  1
  C  C13  1  0.66666700  0.33333300  0.76113139  1
  C  C14  1  0.50000000  0.00000000  0.50000000  1
  C  C15  1  0.00000000  0.00000000  0.50000000  1
  C  C16  1  0.00000000  0.50000000  0.00000000  1
  C  C17  1  0.66666700  0.33333300  0.33237540  1
loop_
_geom_bond_atom_site_label_1
_geom_bond_atom_site_label_2
_geom_bond_distance
_geom_bond_site_symmetry_2
Er0 Si8 2.933856 1_555
Er0 Si28 2.933856 1_545
Er0 Si45 3.081973 1_555
Er0 Si15 3.184687 1_555
Er0 Si18 3.632133 1_555
Er1 Si33 2.939181 1_555
Er1 Si22 2.939181 1_555
Er1 Si38 3.260725 1_555
Er2 Si14 2.996790 1_555
Er2 Si42 3.202954 1_555
Er2 Si44 3.511133 1_554
Er3 Si20 2.945966 1_555
Er3 Si48 2.945966 1_565
Er3 Si44 3.179005 1_555
Er3 Si2 3.459648 1_555
Er3 Si14 3.570902 1_556
Er4 Si19 2.926951 1_555
Er4 Si31 2.930335 1_555
Er4 Si4 2.930335 1_555
Er4 Si0 3.266125 1_555
Er4 Si25 3.437544 1_555
Er5 Si23 2.914345 1_555
Er5 Si30 2.972818 1_555
Er5 Si40 2.989039 1_555
Er5 Si17 3.043909 1_555
Er5 Si25 3.053120 1_555
Er5 Si53 3.072783 1_555
Er6 Si26 2.860003 1_555
Er6 Si24 2.971514 1_555
Er6 Si45 2.971514 1_555
Er7 Si6 2.919386 1_555
Er7 Si26 2.919386 1_555
Er7 Si8 3.199279 1_555
Er7 Si12 3.440238 1_555
Er8 Si10 2.981836 1_555
Er8 Si44 2.981836 1_554
Er8 Si20 3.088465 1_554
Er8 Si14 3.088465 1_555
Er9 Si28 2.914345 1_555
Er9 Si15 2.972818 1_565
Er9 Si35 2.989039 1_555
Er9 Si32 3.043909 1_555
Er9 Si45 3.053120 1_565
Er9 Si29 3.072782 1_565
Er10 Si8 2.933856 1_655
Er10 Si2 2.933856 1_545
Er10 Si5 3.081973 1_555
Er10 Si48 3.184687 1_555
Er10 Si51 3.632133 1_555
Er11 Si16 2.914345 1_555
Er11 Si43 2.972818 1_655
Er11 Si10 2.989039 1_555
Er11 Si38 3.043909 1_555
Er11 Si49 3.053120 1_655
Er11 Si21 3.072782 1_655
Er12 Si38 2.919386 1_555
Er12 Si17 2.919386 1_555
Er12 Si16 3.199279 1_555
Er12 Si10 3.440238 1_555
Er13 Si46 3.004031 1_545
Er13 Si22 3.004031 1_555
Er13 Si41 3.057301 1_545
Er13 Si51 3.057301 1_555
Er14 Si12 2.981836 1_554
Er14 Si50 2.981836 1_455
Er14 Si30 3.088465 1_555
Er14 Si48 3.088465 1_454
Er15 Si33 3.004031 1_555
Er15 Si34 3.004031 1_655
Er15 Si37 3.057301 1_555
Er15 Si13 3.057301 1_655
Er16 Si0 2.939181 1_555
Er16 Si46 2.939181 1_555
Er16 Si26 3.260726 1_555
Er17 Si20 2.945966 1_455
Er17 Si15 2.945966 1_565
Er17 Si35 3.179005 1_555
Er17 Si28 3.459648 1_555
Er17 Si43 3.570902 1_556
Er18 Si20 2.996790 1_555
Er18 Si24 3.202954 1_555
Er18 Si10 3.511133 1_556
Er19 Si1 2.933856 1_455
Er19 Si23 2.933856 1_555
Er19 Si25 3.081973 1_555
Er19 Si30 3.184687 1_555
Er19 Si19 3.632133 1_555
Er20 Si51 2.896244 1_565
Er20 Si37 2.896244 1_555
Er20 Si46 3.071904 1_555
Er20 Si41 3.189910 1_555
Er20 Si2 3.632364 1_555
Er21 Si2 2.933856 1_555
Er21 Si28 2.933856 1_655
Er21 Si24 3.081973 1_555
Er21 Si20 3.184687 1_555
Er21 Si37 3.632133 1_555
Er22 Si44 2.981836 1_544
Er22 Si50 2.981836 1_555
Er22 Si48 3.088465 1_554
Er22 Si14 3.088465 1_545
Er23 Si22 2.939181 1_555
Er23 Si9 2.939181 1_555
Er23 Si7 3.260725 1_555
Er24 Si32 2.919386 1_555
Er24 Si6 2.919386 1_555
Er24 Si28 3.199279 1_555
Er24 Si35 3.440238 1_555
Er25 Si37 2.896244 1_455
Er25 Si18 2.896244 1_565
Er25 Si34 3.071904 1_555
Er25 Si13 3.189910 1_555
Er25 Si28 3.632364 1_555
Er26 Si33 2.939181 1_555
Er26 Si9 2.939181 1_555
Er26 Si17 3.260726 1_555
Er27 Si30 2.945966 1_655
Er27 Si14 2.945966 1_545
Er27 Si50 3.179005 1_555
Er27 Si1 3.459648 1_555
Er27 Si48 3.570902 1_554
Er28 Si43 2.996790 1_555
Er28 Si49 3.202954 1_555
Er28 Si35 3.511133 1_554
Er29 Si23 2.941369 1_555
Er29 Si19 2.971152 1_555
Er29 Si25 3.002034 1_555
Er29 Si9 3.046422 1_555
Er29 Si4 3.118827 1_555
Er29 Si17 3.133088 1_555
Er30 Si18 2.926951 1_555
Er30 Si39 2.930335 1_555
Er30 Si36 2.930335 1_555
Er30 Si9 3.266125 1_555
Er30 Si45 3.437544 1_555
Er31 Si12 2.981836 1_554
Er31 Si40 2.981836 1_555
Er31 Si30 3.088465 1_555
Er31 Si15 3.088465 1_554
Er32 Si10 2.981836 1_555
Er32 Si35 2.981836 1_654
Er32 Si20 3.088465 1_554
Er32 Si43 3.088465 1_655
Er33 Si33 3.004031 1_555
Er33 Si46 3.004031 1_555
Er33 Si37 3.057301 1_555
Er33 Si41 3.057301 1_555
Er34 Si8 2.914345 1_555
Er34 Si15 2.972818 1_555
Er34 Si12 2.989039 1_555
Er34 Si26 3.043909 1_555
Er34 Si45 3.053120 1_555
Er34 Si47 3.072782 1_555
Er35 Si2 2.941369 1_555
Er35 Si37 2.971152 1_555
Er35 Si24 3.002034 1_555
Er35 Si46 3.046422 1_555
Er35 Si36 3.118827 1_555
Er35 Si26 3.133088 1_555
Er36 Si16 2.933856 1_455
Er36 Si23 2.933856 1_565
Er36 Si49 3.081973 1_555
Er36 Si43 3.184687 1_555
Er36 Si13 3.632133 1_555
Er37 Si12 2.932694 1_555
Er37 Si44 2.932694 1_555
Er37 Si26 3.514997 1_555
Er38 Si0 3.004031 1_555
Er38 Si9 3.004031 1_555
Er38 Si19 3.057301 1_555
Er38 Si18 3.057301 1_555
Er39 Si32 2.919386 1_555
Er39 Si26 2.919386 1_555
Er39 Si2 3.199279 1_555
Er39 Si44 3.440238 1_555
Er40 Si51 2.896244 1_455
Er40 Si18 2.896244 1_555
Er40 Si0 3.071904 1_555
Er40 Si19 3.189910 1_555
Er40 Si8 3.632364 1_555
Er41 Si1 2.914345 1_555
Er41 Si30 2.972818 1_655
Er41 Si50 2.989039 1_555
Er41 Si38 3.043909 1_555
Er41 Si25 3.053120 1_655
Er41 Si21 3.072783 1_655
Er42 Si16 2.933856 1_555
Er42 Si1 2.933856 1_565
Er42 Si42 3.081973 1_555
Er42 Si14 3.184687 1_555
Er42 Si41 3.632133 1_555
Er43 Si51 2.926951 1_555
Er43 Si39 2.930335 1_555
Er43 Si27 2.930335 1_555
Er43 Si22 3.266125 1_555
Er43 Si5 3.437544 1_555
Er44 Si13 2.926951 1_555
Er44 Si3 2.930335 1_555
Er44 Si31 2.930335 1_555
Er44 Si34 3.266125 1_555
Er44 Si49 3.437544 1_555
Er45 Si30 2.996790 1_555
Er45 Si25 3.202954 1_555
Er45 Si12 3.511133 1_554
Er46 Si43 2.945966 1_655
Er46 Si14 2.945966 1_555
Er46 Si10 3.179005 1_555
Er46 Si16 3.459648 1_555
Er46 Si20 3.570902 1_554
Er47 Si1 2.941369 1_455
Er47 Si19 2.971152 1_555
Er47 Si25 3.002033 1_555
Er47 Si22 3.046422 1_455
Er47 Si31 3.118827 1_555
Er47 Si38 3.133088 1_455
Er48 Si8 2.941369 1_655
Er48 Si51 2.971152 1_555
Er48 Si5 3.002033 1_555
Er48 Si0 3.046422 1_655
Er48 Si27 3.118827 1_555
Er48 Si6 3.133088 1_655
Er49 Si13 2.896244 1_545
Er49 Si19 2.896244 1_555
Er49 Si9 3.071904 1_555
Er49 Si18 3.189910 1_555
Er49 Si23 3.632364 1_555
Er50 Si12 2.932694 1_555
Er50 Si35 2.932694 1_555
Er50 Si6 3.514997 1_555
Er51 Si8 2.914345 1_555
Er51 Si48 2.972818 1_455
Er51 Si12 2.989039 1_555
Er51 Si6 3.043909 1_555
Er51 Si5 3.053120 1_455
Er51 Si11 3.072782 1_455
Er52 Si16 2.941369 1_555
Er52 Si41 2.971152 1_555
Er52 Si42 3.002034 1_555
Er52 Si33 3.046422 1_555
Er52 Si4 3.118827 1_555
Er52 Si17 3.133088 1_555
Er53 Si2 2.914345 1_555
Er53 Si20 2.972818 1_555
Er53 Si44 2.989039 1_555
Er53 Si26 3.043909 1_555
Er53 Si24 3.053120 1_555
Er53 Si47 3.072783 1_555
Er54 Si41 2.926951 1_555
Er54 Si3 2.930335 1_555
Er54 Si4 2.930335 1_555
Er54 Si46 3.266125 1_555
Er54 Si42 3.437544 1_555
Er55 Si2 2.941369 1_545
Er55 Si51 2.971152 1_555
Er55 Si5 3.002033 1_555
Er55 Si46 3.046422 1_545
Er55 Si39 3.118827 1_555
Er55 Si32 3.133088 1_545
Er56 Si7 2.919386 1_555
Er56 Si17 2.919386 1_555
Er56 Si23 3.199279 1_555
Er56 Si40 3.440238 1_555
Er57 Si8 2.941369 1_555
Er57 Si18 2.971152 1_555
Er57 Si45 3.002034 1_555
Er57 Si0 3.046422 1_555
Er57 Si36 3.118827 1_555
Er57 Si26 3.133088 1_555
Er58 Si0 2.939181 1_555
Er58 Si34 2.939181 1_555
Er58 Si6 3.260725 1_555
Er59 Si19 2.896244 1_655
Er59 Si41 2.896244 1_545
Er59 Si22 3.071904 1_555
Er59 Si51 3.189910 1_555
Er59 Si1 3.632364 1_555
Er60 Si37 2.926951 1_555
Er60 Si27 2.930335 1_555
Er60 Si36 2.930335 1_555
Er60 Si33 3.266125 1_555
Er60 Si24 3.437544 1_555
Er61 Si16 2.941369 1_455
Er61 Si13 2.971152 1_555
Er61 Si49 3.002033 1_555
Er61 Si33 3.046422 1_455
Er61 Si31 3.118827 1_555
Er61 Si38 3.133088 1_455
Er62 Si30 2.945966 1_555
Er62 Si43 2.945966 1_545
Er62 Si40 3.179005 1_555
Er62 Si23 3.459648 1_555
Er62 Si15 3.570902 1_554
Er63 Si35 2.981836 1_544
Er63 Si40 2.981836 1_555
Er63 Si15 3.088465 1_554
Er63 Si43 3.088465 1_545
Er64 Si40 2.932694 1_555
Er64 Si50 2.932694 1_555
Er64 Si7 3.514997 1_555
Er65 Si0 3.004031 1_555
Er65 Si22 3.004031 1_455
Er65 Si19 3.057301 1_555
Er65 Si51 3.057301 1_455
Er66 Si7 2.860003 1_565
Er66 Si49 2.971514 1_555
Er66 Si42 2.971514 1_555
Er67 Si23 2.941369 1_565
Er67 Si13 2.971152 1_555
Er67 Si49 3.002033 1_555
Er67 Si9 3.046422 1_565
Er67 Si3 3.118827 1_555
Er67 Si7 3.133088 1_565
Er68 Si6 2.860003 1_655
Er68 Si24 2.971514 1_555
Er68 Si5 2.971514 1_555
Er69 Si15 2.996790 1_555
Er69 Si45 3.202954 1_555
Er69 Si40 3.511133 1_556
Er70 Si16 2.914345 1_555
Er70 Si14 2.972818 1_555
Er70 Si10 2.989039 1_555
Er70 Si17 3.043909 1_555
Er70 Si42 3.053120 1_555
Er70 Si53 3.072782 1_555
Er71 Si34 3.004031 1_545
Er71 Si9 3.004031 1_555
Er71 Si18 3.057301 1_555
Er71 Si13 3.057301 1_545
Er72 Si44 2.932694 1_555
Er72 Si35 2.932694 1_555
Er72 Si32 3.514997 1_555
Er73 Si15 2.945966 1_555
Er73 Si48 2.945966 1_455
Er73 Si12 3.179005 1_555
Er73 Si8 3.459648 1_555
Er73 Si30 3.570902 1_556
Er74 Si1 2.941369 1_565
Er74 Si41 2.971152 1_555
Er74 Si42 3.002033 1_555
Er74 Si22 3.046422 1_565
Er74 Si3 3.118827 1_555
Er74 Si7 3.133088 1_565
Er75 Si10 2.932694 1_555
Er75 Si50 2.932694 1_555
Er75 Si38 3.514997 1_555
Er76 Si28 2.941369 1_655
Er76 Si37 2.971152 1_555
Er76 Si24 3.002033 1_555
Er76 Si34 3.046422 1_655
Er76 Si27 3.118827 1_555
Er76 Si6 3.133088 1_655
Er77 Si34 2.939181 1_555
Er77 Si46 2.939181 1_555
Er77 Si32 3.260725 1_555
Er78 Si10 2.932694 1_555
Er78 Si40 2.932694 1_555
Er78 Si17 3.514997 1_555
Er79 Si7 2.919386 1_555
Er79 Si38 2.919386 1_555
Er79 Si1 3.199279 1_555
Er79 Si50 3.440238 1_555
Er80 Si28 2.914345 1_555
Er80 Si20 2.972818 1_455
Er80 Si35 2.989039 1_555
Er80 Si6 3.043909 1_555
Er80 Si24 3.053120 1_455
Er80 Si11 3.072783 1_455
Er81 Si48 2.996790 1_555
Er81 Si5 3.202954 1_555
Er81 Si50 3.511133 1_556
Er82 Si13 2.896244 1_655
Er82 Si41 2.896244 1_555
Er82 Si33 3.071904 1_555
Er82 Si37 3.189910 1_555
Er82 Si16 3.632364 1_555
Er83 Si32 2.860003 1_545
Er83 Si5 2.971514 1_555
Er83 Si45 2.971514 1_555
Er84 Si23 2.914345 1_555
Er84 Si43 2.972818 1_545
Er84 Si40 2.989039 1_555
Er84 Si7 3.043909 1_555
Er84 Si49 3.053120 1_545
Er84 Si52 3.072782 1_545
Er85 Si28 2.941369 1_545
Er85 Si18 2.971152 1_555
Er85 Si45 3.002033 1_555
Er85 Si34 3.046422 1_545
Er85 Si39 3.118827 1_555
Er85 Si32 3.133088 1_545
Er86 Si38 2.860003 1_455
Er86 Si25 2.971514 1_555
Er86 Si49 2.971514 1_555
Er87 Si17 2.860003 1_555
Er87 Si25 2.971514 1_555
Er87 Si42 2.971514 1_555
Er88 Si1 2.914345 1_555
Er88 Si14 2.972818 1_545
Er88 Si50 2.989039 1_555
Er88 Si7 3.043909 1_555
Er88 Si42 3.053120 1_545
Er88 Si52 3.072782 1_545
Er89 Si2 2.914345 1_555
Er89 Si48 2.972818 1_565
Er89 Si44 2.989039 1_555
Er89 Si32 3.043909 1_555
Er89 Si5 3.053120 1_565
Er89 Si29 3.072782 1_565
C0 Si36 1.875130 1_555
C0 Si4 1.875130 1_555
C0 Er38 2.357381 1_555
C0 Er33 2.357381 1_555
C0 Er16 2.844839 1_555
C0 Er26 2.844839 1_555
C1 Er75 2.429625 1_555
C1 Er64 2.429625 1_555
C1 Er78 2.429635 1_555
C1 Er79 2.508968 1_555
C1 Er56 2.508977 1_555
C1 Er12 2.508977 1_555
C2 Er10 2.357187 1_455
C2 Er0 2.357187 1_555
C2 Er21 2.357187 1_445
C2 Er3 2.538426 1_445
C2 Er17 2.538426 1_545
C2 Er73 2.538426 1_555
C3 C7 1.352597 1_555
C3 Er28 2.474359 1_555
C3 Er2 2.474369 1_555
C3 Er45 2.474369 1_555
C4 Er42 2.357187 1_445
C4 Er36 2.357187 1_545
C4 Er19 2.357187 1_555
C4 Er62 2.538426 1_555
C4 Er27 2.538426 1_455
C4 Er46 2.538426 1_445
C5 Er81 2.474359 1_555
C5 Er69 2.474369 1_555
C5 Er18 2.474369 1_555
C6 Si47 1.836949 1_554
C6 Si53 1.836949 1_555
C6 Er8 2.409255 1_555
C6 Er31 2.409255 1_555
C6 Er78 2.694955 1_555
C6 Er37 2.694955 1_554
C7 Er86 2.226251 1_555
C7 Er66 2.226251 1_555
C7 Er87 2.226263 1_555
C8 Er62 2.441790 1_555
C8 Er17 2.441790 1_544
C8 Er3 2.441790 1_444
C8 Er27 2.441790 1_455
C8 Er73 2.441790 1_554
C8 Er46 2.441790 1_445
C9 Er50 2.429625 1_555
C9 Er72 2.429625 1_555
C9 Er37 2.429635 1_555
C9 Er24 2.508968 1_555
C9 Er39 2.508977 1_555
C9 Er7 2.508977 1_555
C10 Si27 1.875130 1_455
C10 Si31 1.875130 1_555
C10 Er65 2.357381 1_555
C10 Er15 2.357381 1_455
C10 Er58 2.844839 1_555
C10 Er1 2.844839 1_455
C11 Er58 2.426458 1_555
C11 Er77 2.426458 1_555
C11 Er16 2.426468 1_555
C11 Er24 2.513761 1_555
C11 Er39 2.513770 1_555
C11 Er7 2.513770 1_555
C12 Si29 1.836949 1_554
C12 Si52 1.836949 1_545
C12 Er63 2.409255 1_555
C12 Er22 2.409255 1_555
C12 Er72 2.694955 1_544
C12 Er64 2.694955 1_555
C13 C5 1.352597 1_555
C13 Er68 2.226251 1_555
C13 Er83 2.226251 1_555
C13 Er6 2.226263 1_555
C14 Si39 1.875130 1_555
C14 Si3 1.875130 1_545
C14 Er71 2.357381 1_555
C14 Er13 2.357381 1_555
C14 Er23 2.844839 1_555
C14 Er77 2.844839 1_545
C15 Er25 2.431892 1_545
C15 Er59 2.431892 1_455
C15 Er20 2.431892 1_445
C15 Er49 2.431892 1_555
C15 Er82 2.431892 1_445
C15 Er40 2.431892 1_555
C16 Si11 1.836949 1_454
C16 Si21 1.836949 1_555
C16 Er14 2.409255 1_555
C16 Er32 2.409255 1_455
C16 Er75 2.694955 1_455
C16 Er50 2.694955 1_554
C17 Er1 2.426458 1_555
C17 Er23 2.426458 1_555
C17 Er26 2.426468 1_555
C17 Er79 2.513761 1_555
C17 Er56 2.513770 1_555
C17 Er12 2.513770 1_555
