# generated using pymatgen
data_Cu39S20
_symmetry_space_group_name_H-M   'P 1'
_cell_length_a   10.30806879
_cell_length_b   10.30806879
_cell_length_c   12.47155198
_cell_angle_alpha   54.08556139
_cell_angle_beta   54.08556139
_cell_angle_gamma   62.91112638
_symmetry_Int_Tables_number   1
_chemical_formula_structural   Cu39S20
_chemical_formula_sum   'Cu39 S20'
_cell_volume   856.61829366
_cell_formula_units_Z   1
loop_
 _symmetry_equiv_pos_site_id
 _symmetry_equiv_pos_as_xyz
  1  'x, y, z'
loop_
 _atom_site_type_symbol
 _atom_site_label
 _atom_site_symmetry_multiplicity
 _atom_site_fract_x
 _atom_site_fract_y
 _atom_site_fract_z
 _atom_site_occupancy
  Cu  Cu0  1  0.05828200  0.63280200  0.60262500  1
  Cu  Cu1  1  0.95926500  0.10556200  0.37327400  1
  Cu  Cu2  1  0.17186400  0.70913200  0.21332000  1
  Cu  Cu3  1  0.10028400  0.89971600  0.00000000  1
  Cu  Cu4  1  0.12184800  0.18667900  0.90672200  1
  Cu  Cu5  1  0.29086800  0.82813600  0.78668000  1
  Cu  Cu6  1  0.05011100  0.34941300  0.69991700  1
  Cu  Cu7  1  0.14402800  0.98652600  0.63565200  1
  Cu  Cu8  1  0.23887500  0.27417700  0.48355700  1
  Cu  Cu9  1  0.36719800  0.94171800  0.39737500  1
  Cu  Cu10  1  0.08897200  0.45516400  0.32370600  1
  Cu  Cu11  1  0.25145500  0.08753400  0.21169500  1
  Cu  Cu12  1  0.31968200  0.36273300  0.11924900  1
  Cu  Cu13  1  0.47946100  0.04506400  0.99502400  1
  Cu  Cu14  1  0.24863300  0.54771400  0.90644200  1
  Cu  Cu15  1  0.42232000  0.18146900  0.76421000  1
  Cu  Cu16  1  0.43506200  0.46298900  0.70758200  1
  Cu  Cu17  1  0.67826700  0.13238700  0.56456100  1
  Cu  Cu18  1  0.34974400  0.65025600  0.50000000  1
  Cu  Cu19  1  0.49888500  0.26344700  0.45216700  1
  Cu  Cu20  1  0.53701100  0.56493800  0.29241800  1
  Cu  Cu21  1  0.67829600  0.23952100  0.20126900  1
  Cu  Cu22  1  0.45228600  0.75136700  0.09355800  1
  Cu  Cu23  1  0.59950800  0.40049200  0.00000000  1
  Cu  Cu24  1  0.63726700  0.68031800  0.88075100  1
  Cu  Cu25  1  0.76047900  0.32170400  0.79873100  1
  Cu  Cu26  1  0.54483600  0.91102800  0.67629400  1
  Cu  Cu27  1  0.73655300  0.50111500  0.54783300  1
  Cu  Cu28  1  0.72582300  0.76112500  0.51644300  1
  Cu  Cu29  1  0.86761300  0.32173300  0.43543900  1
  Cu  Cu30  1  0.65058700  0.94988900  0.30008300  1
  Cu  Cu31  1  0.81853100  0.57768000  0.23579000  1
  Cu  Cu32  1  0.81332100  0.87815200  0.09327800  1
  Cu  Cu33  1  0.79164600  0.02647200  0.86633400  1
  Cu  Cu34  1  0.95493600  0.52053900  0.00497600  1
  Cu  Cu35  1  0.91246600  0.74854500  0.78830500  1
  Cu  Cu36  1  0.89443800  0.04073500  0.62672600  1
  Cu  Cu37  1  0.01347400  0.85597200  0.36434800  1
  Cu  Cu38  1  0.97352800  0.20835400  0.13366600  1
  S  S0  1  0.00788500  0.80417500  0.88989700  1
  S  S1  1  0.10564200  0.89435800  0.50000000  1
  S  S2  1  0.04957700  0.35653100  0.19157500  1
  S  S3  1  0.19582500  0.99211500  0.11010300  1
  S  S4  1  0.15225300  0.45600600  0.79796100  1
  S  S5  1  0.30262800  0.10748200  0.69939300  1
  S  S6  1  0.24903800  0.54851500  0.40668800  1
  S  S7  1  0.41037700  0.20000200  0.29521100  1
  S  S8  1  0.34220200  0.65779800  0.00000000  1
  S  S9  1  0.49287300  0.30749900  0.90667300  1
  S  S10  1  0.45148500  0.75096200  0.59331200  1
  S  S11  1  0.59356000  0.40644000  0.50000000  1
  S  S12  1  0.54399400  0.84774700  0.20203900  1
  S  S13  1  0.69250100  0.50712700  0.09332700  1
  S  S14  1  0.64346900  0.95042300  0.80842500  1
  S  S15  1  0.79999800  0.58962300  0.70478900  1
  S  S16  1  0.74653800  0.04055300  0.39998400  1
  S  S17  1  0.89251800  0.69737200  0.30060700  1
  S  S18  1  0.85675300  0.14324700  0.00000000  1
  S  S19  1  0.95944700  0.25346200  0.60001600  1
loop_
_geom_bond_atom_site_label_1
_geom_bond_atom_site_label_2
_geom_bond_distance
_geom_bond_site_symmetry_2
Cu0 S15 2.311760 1_455
Cu0 S1 2.358614 1_555
Cu0 S6 2.427038 1_555
Cu0 Cu6 2.441041 1_555
Cu0 S4 2.479223 1_555
Cu0 Cu18 2.531398 1_555
Cu0 Cu35 2.563173 1_455
Cu1 S1 2.298604 1_645
Cu1 S2 2.352752 1_655
Cu1 S16 2.363870 1_555
Cu1 Cu11 2.444617 1_655
Cu1 Cu38 2.446636 1_555
Cu2 S6 2.357291 1_555
Cu2 S8 2.401269 1_555
Cu2 S17 2.444799 1_455
Cu2 Cu22 2.468660 1_555
Cu2 S3 2.470831 1_555
Cu2 Cu3 2.516540 1_555
Cu3 Cu5 2.516540 1_554
Cu3 Cu4 2.532030 1_564
Cu3 Cu32 2.532030 1_455
Cu3 S8 2.602618 1_555
Cu3 S18 2.619971 1_465
Cu3 S3 2.781685 1_555
Cu3 S0 2.781685 1_554
Cu3 S17 2.909929 1_455
Cu3 S5 2.909929 1_564
Cu4 S4 2.349796 1_555
Cu4 S18 2.407239 1_456
Cu4 S3 2.438415 1_546
Cu4 Cu6 2.458656 1_555
Cu4 S5 2.502615 1_555
Cu5 S10 2.357291 1_555
Cu5 S8 2.401269 1_556
Cu5 S5 2.444799 1_565
Cu5 S0 2.470831 1_555
Cu6 Cu8 2.567053 1_555
Cu6 S15 2.638270 1_455
Cu6 S19 2.656605 1_455
Cu6 S5 2.661181 1_555
Cu6 S4 2.819777 1_555
Cu6 S6 2.832152 1_555
Cu6 S18 2.876010 1_456
Cu7 S0 2.397236 1_555
Cu7 S19 2.485608 1_465
Cu7 S1 2.633384 1_555
Cu8 S7 2.287324 1_555
Cu8 S19 2.395838 1_455
Cu8 S6 2.428694 1_555
Cu8 S5 2.500179 1_555
Cu9 S7 2.311760 1_565
Cu9 S1 2.358614 1_555
Cu9 S10 2.427038 1_555
Cu9 S12 2.479223 1_555
Cu10 S17 2.377661 1_455
Cu10 S19 2.589542 1_455
Cu10 S2 2.653436 1_555
Cu11 S3 2.393663 1_545
Cu11 Cu13 2.453076 1_554
Cu11 Cu9 2.563173 1_545
Cu11 S2 2.573558 1_555
Cu11 Cu12 2.626774 1_555
Cu11 S1 2.671858 1_545
Cu11 S12 2.890018 1_545
Cu12 S7 2.272398 1_555
Cu12 S2 2.391229 1_555
Cu12 S9 2.415055 1_554
Cu12 Cu23 2.448311 1_555
Cu12 Cu14 2.507517 1_554
Cu12 S8 2.539302 1_555
Cu13 S9 2.283926 1_555
Cu13 S14 2.402373 1_545
Cu13 S12 2.422231 1_546
Cu13 S3 2.552956 1_546
Cu13 Cu33 2.590052 1_555
Cu13 Cu22 2.599621 1_546
Cu13 Cu15 2.663990 1_555
Cu14 Cu16 2.455161 1_555
Cu14 Cu5 2.468660 1_555
Cu14 Cu34 2.599621 1_456
Cu14 S9 2.606217 1_555
Cu14 S0 2.678749 1_555
Cu14 S8 2.729431 1_556
Cu14 S2 2.764195 1_556
Cu14 S4 2.764728 1_555
Cu14 S10 2.970526 1_555
Cu15 S5 2.346841 1_555
Cu15 Cu17 2.443757 1_555
Cu15 S14 2.482399 1_545
Cu15 Cu4 2.501472 1_555
Cu15 Cu16 2.602152 1_555
Cu15 S11 2.700253 1_555
Cu15 S4 2.963686 1_555
Cu16 S9 2.299219 1_555
Cu16 S11 2.377452 1_555
Cu16 S4 2.452588 1_555
Cu16 S10 2.466381 1_555
Cu16 Cu18 2.542463 1_555
Cu17 S11 2.302383 1_555
Cu17 S14 2.353138 1_545
Cu17 S16 2.362707 1_555
Cu18 Cu9 2.531398 1_555
Cu18 Cu20 2.542463 1_555
Cu18 S11 2.623037 1_555
Cu18 S1 2.626114 1_555
Cu18 S10 2.715214 1_555
Cu18 S6 2.715214 1_555
Cu18 S4 2.840957 1_555
Cu18 S12 2.840957 1_555
Cu19 S5 2.452180 1_555
Cu19 S11 2.550598 1_555
Cu19 S16 2.585098 1_555
Cu20 S13 2.299219 1_555
Cu20 S11 2.377452 1_555
Cu20 S12 2.452588 1_555
Cu20 Cu22 2.455161 1_555
Cu20 S6 2.466381 1_555
Cu20 Cu31 2.602152 1_555
Cu21 S13 2.285418 1_555
Cu21 S16 2.368846 1_555
Cu21 S7 2.415478 1_555
Cu21 Cu23 2.447789 1_555
Cu21 Cu38 2.548092 1_555
Cu21 S18 2.551920 1_555
Cu21 Cu30 2.561470 1_545
Cu22 Cu24 2.507517 1_554
Cu22 S13 2.606217 1_555
Cu22 S3 2.678749 1_555
Cu22 S8 2.729431 1_555
Cu22 S14 2.764195 1_554
Cu22 S12 2.764728 1_555
Cu22 S6 2.970526 1_555
Cu23 Cu25 2.447789 1_554
Cu23 Cu24 2.448311 1_554
Cu23 S9 2.692827 1_554
Cu23 S13 2.692827 1_555
Cu23 S18 2.767510 1_555
Cu23 S8 2.768166 1_555
Cu23 S7 2.819491 1_555
Cu23 S15 2.819491 1_554
Cu24 S15 2.272398 1_555
Cu24 S14 2.391229 1_555
Cu24 S13 2.415055 1_556
Cu24 S8 2.539302 1_556
Cu24 Cu35 2.626774 1_555
Cu25 S9 2.285418 1_555
Cu25 S19 2.368846 1_555
Cu25 S15 2.415478 1_555
Cu25 Cu33 2.548092 1_555
Cu25 S18 2.551920 1_556
Cu25 Cu6 2.561470 1_655
Cu26 S5 2.377661 1_565
Cu26 S16 2.589542 1_565
Cu26 S14 2.653436 1_555
Cu27 S17 2.452180 1_555
Cu27 S11 2.550598 1_555
Cu27 S19 2.585098 1_555
Cu28 S15 2.287324 1_555
Cu28 S16 2.395838 1_565
Cu28 S10 2.428694 1_555
Cu28 S17 2.500179 1_555
Cu28 Cu30 2.567053 1_555
Cu29 S11 2.302383 1_555
Cu29 S2 2.353138 1_655
Cu29 S19 2.362707 1_555
Cu29 Cu31 2.443757 1_555
Cu30 Cu9 2.441041 1_555
Cu30 Cu32 2.458656 1_555
Cu30 S7 2.638270 1_565
Cu30 S16 2.656605 1_565
Cu30 S17 2.661181 1_555
Cu30 S12 2.819777 1_555
Cu30 S10 2.832152 1_555
Cu30 S18 2.876010 1_565
Cu31 S17 2.346841 1_555
Cu31 S2 2.482399 1_655
Cu31 Cu32 2.501472 1_555
Cu31 Cu34 2.663990 1_555
Cu31 S11 2.700253 1_555
Cu31 S12 2.963686 1_555
Cu32 S12 2.349796 1_555
Cu32 Cu33 2.398431 1_564
Cu32 S18 2.407239 1_565
Cu32 S0 2.438415 1_654
Cu32 S17 2.502615 1_555
Cu33 S0 2.373243 1_645
Cu33 Cu36 2.446636 1_555
Cu33 S14 2.553028 1_545
Cu33 S19 2.706911 1_555
Cu33 S18 3.013415 1_556
Cu34 S13 2.283926 1_555
Cu34 S2 2.402373 1_655
Cu34 S4 2.422231 1_654
Cu34 Cu35 2.453076 1_554
Cu34 S0 2.552956 1_654
Cu34 Cu38 2.590052 1_555
Cu35 S0 2.393663 1_655
Cu35 Cu36 2.444617 1_565
Cu35 S14 2.573558 1_555
Cu35 S1 2.671858 1_655
Cu35 S4 2.890018 1_655
Cu36 S1 2.298604 1_645
Cu36 S14 2.352752 1_545
Cu36 S19 2.363870 1_555
Cu37 S3 2.397236 1_555
Cu37 S16 2.485608 1_465
Cu37 S1 2.633384 1_555
Cu38 S3 2.373243 1_645
Cu38 Cu4 2.398431 1_654
Cu38 S2 2.553028 1_655
Cu38 S16 2.706911 1_555
Cu38 S18 3.013415 1_555
