# generated using pymatgen
data_CaLaMnNbO6
_symmetry_space_group_name_H-M   'P 1'
_cell_length_a   6.31559200
_cell_length_b   6.03295900
_cell_length_c   9.58347557
_cell_angle_alpha   50.99858133
_cell_angle_beta   90.00000000
_cell_angle_gamma   90.00000000
_symmetry_Int_Tables_number   1
_chemical_formula_structural   CaLaMnNbO6
_chemical_formula_sum   'Ca2 La2 Mn2 Nb2 O12'
_cell_volume   283.76665851
_cell_formula_units_Z   2
loop_
 _symmetry_equiv_pos_site_id
 _symmetry_equiv_pos_as_xyz
  1  'x, y, z'
loop_
 _atom_site_type_symbol
 _atom_site_label
 _atom_site_symmetry_multiplicity
 _atom_site_fract_x
 _atom_site_fract_y
 _atom_site_fract_z
 _atom_site_occupancy
  Ca  Ca0  1  0.84302300  0.19145200  0.29776400  1
  Ca  Ca1  1  0.15697700  0.19145200  0.79776400  1
  La  La0  1  0.14515700  0.68517400  0.29844900  1
  La  La1  1  0.85484300  0.68517400  0.79844900  1
  Mn  Mn0  1  0.68356100  0.44116700  0.54736400  1
  Mn  Mn1  1  0.31643900  0.44116700  0.04736400  1
  Nb  Nb0  1  0.30047000  0.99049400  0.55049300  1
  Nb  Nb1  1  0.69953000  0.99049400  0.05049300  1
  O  O0  1  0.92798900  0.20537000  0.54015300  1
  O  O1  1  0.42923700  0.85743700  0.05290000  1
  O  O2  1  0.37906500  0.32477600  0.54613300  1
  O  O3  1  0.89556700  0.71782400  0.06553200  1
  O  O4  1  0.22172600  0.28315200  0.29875800  1
  O  O5  1  0.22145900  0.80315400  0.80245300  1
  O  O6  1  0.07201100  0.20537000  0.04015300  1
  O  O7  1  0.57076300  0.85743700  0.55290000  1
  O  O8  1  0.62093500  0.32477600  0.04613300  1
  O  O9  1  0.10443300  0.71782400  0.56553200  1
  O  O10  1  0.77827400  0.28315200  0.79875800  1
  O  O11  1  0.77854100  0.80315400  0.30245300  1
loop_
_geom_bond_atom_site_label_1
_geom_bond_atom_site_label_2
_geom_bond_distance
_geom_bond_site_symmetry_2
Ca0 O11 2.350122 1_545
Ca0 O0 2.436494 1_555
Ca0 O8 2.447083 1_555
Ca0 O4 2.456251 1_655
Ca0 O3 2.500384 1_555
Ca0 O7 2.606544 1_545
Ca0 O6 2.816492 1_655
Ca0 O9 2.871617 1_645
Ca1 O5 2.350122 1_545
Ca1 O6 2.436494 1_556
Ca1 O2 2.447083 1_555
Ca1 O10 2.456251 1_455
Ca1 O9 2.500384 1_555
Ca1 O1 2.606544 1_546
Ca1 O0 2.816492 1_455
Ca1 O3 2.871617 1_446
La0 O11 2.429718 1_455
La0 O2 2.459276 1_555
La0 O4 2.471294 1_555
La0 O6 2.532167 1_565
La0 O1 2.599685 1_555
La0 O3 2.636787 1_455
La0 O0 2.680693 1_455
La0 O9 2.700188 1_555
La1 O5 2.429718 1_655
La1 O8 2.459276 1_556
La1 O10 2.471294 1_555
La1 O0 2.532167 1_565
La1 O7 2.599685 1_555
La1 O9 2.636787 1_655
La1 O6 2.680693 1_656
La1 O3 2.700188 1_556
Mn0 O10 2.044539 1_555
Mn0 O11 2.046039 1_555
Mn0 O2 2.049837 1_555
Mn0 O0 2.129602 1_555
Mn0 O7 2.642885 1_555
Mn1 O4 2.044539 1_555
Mn1 O5 2.046039 1_554
Mn1 O8 2.049837 1_555
Mn1 O6 2.129602 1_555
Mn1 O1 2.642885 1_555
Nb0 O7 1.880333 1_555
Nb0 O4 1.955365 1_565
Nb0 O5 1.980380 1_555
Nb0 O9 1.990294 1_555
Nb0 O2 2.051630 1_565
Nb0 O0 2.657553 1_465
Nb1 O1 1.880333 1_555
Nb1 O10 1.955365 1_564
Nb1 O11 1.980380 1_555
Nb1 O3 1.990294 1_555
Nb1 O8 2.051630 1_565
Nb1 O6 2.657553 1_665
