# generated using pymatgen
data_FeH2SO5
_symmetry_space_group_name_H-M   'P 1'
_cell_length_a   6.97304938
_cell_length_b   7.83239600
_cell_length_c   8.04361642
_cell_angle_alpha   60.86722519
_cell_angle_beta   89.01456546
_cell_angle_gamma   90.00211579
_symmetry_Int_Tables_number   1
_chemical_formula_structural   FeH2SO5
_chemical_formula_sum   'Fe4 H8 S4 O20'
_cell_volume   383.65797188
_cell_formula_units_Z   4
loop_
 _symmetry_equiv_pos_site_id
 _symmetry_equiv_pos_as_xyz
  1  'x, y, z'
loop_
 _atom_site_type_symbol
 _atom_site_label
 _atom_site_symmetry_multiplicity
 _atom_site_fract_x
 _atom_site_fract_y
 _atom_site_fract_z
 _atom_site_occupancy
  Fe  Fe0  1  0.75012400  0.75105900  0.49970800  1
  Fe  Fe1  1  0.49975000  0.00074600  0.00016500  1
  Fe  Fe2  1  0.24980500  0.24941300  0.50038700  1
  Fe  Fe3  1  0.00003400  0.49944700  0.99976600  1
  H  H0  1  0.76469600  0.81732500  0.79141100  1
  H  H1  1  0.26609200  0.31869000  0.79074500  1
  H  H2  1  0.98409200  0.85941000  0.70924100  1
  H  H3  1  0.48550900  0.35881000  0.70857300  1
  H  H4  1  0.73431900  0.68226700  0.20846600  1
  H  H5  1  0.23491000  0.18154100  0.20936500  1
  H  H6  1  0.51557400  0.64070800  0.29151700  1
  H  H7  1  0.01498400  0.14084200  0.29070900  1
  S  S0  1  0.87515900  0.28560900  0.75044600  1
  S  S1  1  0.37496800  0.78601200  0.74965300  1
  S  S2  1  0.62490100  0.21532900  0.24995900  1
  S  S3  1  0.12493900  0.71307000  0.24995300  1
  O  O0  1  0.87468100  0.76482300  0.74984800  1
  O  O1  1  0.37551500  0.26475300  0.75010800  1
  O  O2  1  0.62493200  0.73538800  0.24999700  1
  O  O3  1  0.12492800  0.23484600  0.25003100  1
  O  O4  1  0.28125400  0.60443600  0.89555200  1
  O  O5  1  0.78065300  0.10554800  0.89828300  1
  O  O6  1  0.46949900  0.75382800  0.60175500  1
  O  O7  1  0.96889200  0.24994100  0.60452300  1
  O  O8  1  0.21919500  0.89383700  0.10313300  1
  O  O9  1  0.71846300  0.39630800  0.10270200  1
  O  O10  1  0.03067700  0.74695500  0.39682000  1
  O  O11  1  0.53133200  0.24908600  0.39721800  1
  O  O12  1  0.72713200  0.44322900  0.66021200  1
  O  O13  1  0.22579200  0.94295200  0.66110100  1
  O  O14  1  0.02442100  0.35395700  0.83897000  1
  O  O15  1  0.52308800  0.85341300  0.83982700  1
  O  O16  1  0.77367800  0.05813600  0.33900100  1
  O  O17  1  0.27361700  0.55588500  0.33934100  1
  O  O18  1  0.47612800  0.14716300  0.16092600  1
  O  O19  1  0.97626400  0.64524100  0.16058500  1
loop_
_geom_bond_atom_site_label_1
_geom_bond_atom_site_label_2
_geom_bond_distance
_geom_bond_site_symmetry_2
Fe0 O16 2.109070 1_565
Fe0 O6 2.113156 1_555
Fe0 O12 2.113690 1_555
Fe0 O10 2.117382 1_655
Fe0 O0 2.255117 1_555
Fe0 O2 2.260947 1_555
Fe1 O18 2.109726 1_555
Fe1 O15 2.112660 1_544
Fe1 O5 2.114657 1_554
Fe1 O8 2.117361 1_545
Fe1 O1 2.254405 1_554
Fe1 O2 2.261364 1_545
Fe2 O13 2.105231 1_545
Fe2 O17 2.105362 1_555
Fe2 O7 2.117913 1_455
Fe2 O11 2.118600 1_555
Fe2 O3 2.260651 1_555
Fe2 O1 2.261214 1_555
Fe3 O14 2.104231 1_555
Fe3 O19 2.106098 1_456
Fe3 O9 2.117975 1_456
Fe3 O4 2.120477 1_555
Fe3 O3 2.259248 1_556
Fe3 O0 2.262221 1_455
H0 O0 0.997051 1_555
H1 O1 0.996693 1_555
H2 O0 0.996680 1_555
H3 O1 0.997052 1_555
H4 O2 0.996544 1_555
H5 O3 0.996907 1_555
H6 O2 0.996502 1_555
H7 O3 0.996831 1_555
O4 S1 1.474902 1_555
O5 S0 1.475596 1_555
O6 S1 1.475907 1_555
O7 S0 1.475069 1_555
O8 S3 1.475282 1_555
O9 S2 1.475296 1_555
O10 S3 1.475337 1_555
O11 S2 1.475467 1_555
O12 S0 1.506567 1_555
O13 S1 1.507794 1_555
O14 S0 1.507807 1_455
O15 S1 1.506690 1_555
O16 S2 1.507362 1_555
O17 S3 1.507096 1_555
O18 S2 1.507289 1_555
O19 S3 1.507047 1_655
