# generated using pymatgen
data_Sr(AlH)2
_symmetry_space_group_name_H-M   'P 1'
_cell_length_a   4.53948360
_cell_length_b   4.53948360
_cell_length_c   4.70887600
_cell_angle_alpha   90.00000000
_cell_angle_beta   90.00000000
_cell_angle_gamma   119.99999414
_symmetry_Int_Tables_number   1
_chemical_formula_structural   Sr(AlH)2
_chemical_formula_sum   'Sr1 Al2 H2'
_cell_volume   84.03511797
_cell_formula_units_Z   1
loop_
 _symmetry_equiv_pos_site_id
 _symmetry_equiv_pos_as_xyz
  1  'x, y, z'
loop_
 _atom_site_type_symbol
 _atom_site_label
 _atom_site_symmetry_multiplicity
 _atom_site_fract_x
 _atom_site_fract_y
 _atom_site_fract_z
 _atom_site_occupancy
  Sr  Sr0  1  0.00000000  0.00000000  0.00000000  1
  Al  Al0  1  0.66666700  0.33333300  0.46066600  1
  Al  Al1  1  0.33333300  0.66666700  0.53933400  1
  H  H0  1  0.66666700  0.33333300  0.09701200  1
  H  H1  1  0.33333300  0.66666700  0.90298800  1
loop_
_geom_bond_atom_site_label_1
_geom_bond_atom_site_label_2
_geom_bond_distance
_geom_bond_site_symmetry_2
Al0 H0 1.712402 1_555
Al1 H1 1.712402 1_555
H0 Sr0 2.660383 1_655
H0 Sr0 2.660387 1_555
H0 Sr0 2.660387 1_665
H1 Sr0 2.660383 1_566
H1 Sr0 2.660387 1_666
H1 Sr0 2.660387 1_556
