# generated using pymatgen
data_NdZnRh
_symmetry_space_group_name_H-M   'P 1'
_cell_length_a   4.00203416
_cell_length_b   7.25418933
_cell_length_c   16.43956722
_cell_angle_alpha   90.00000000
_cell_angle_beta   90.00000000
_cell_angle_gamma   90.00000000
_symmetry_Int_Tables_number   1
_chemical_formula_structural   NdZnRh
_chemical_formula_sum   'Nd8 Zn8 Rh8'
_cell_volume   477.26551771
_cell_formula_units_Z   8
loop_
 _symmetry_equiv_pos_site_id
 _symmetry_equiv_pos_as_xyz
  1  'x, y, z'
loop_
 _atom_site_type_symbol
 _atom_site_label
 _atom_site_symmetry_multiplicity
 _atom_site_fract_x
 _atom_site_fract_y
 _atom_site_fract_z
 _atom_site_occupancy
  Nd  Nd0  1  0.25000000  0.16780705  0.93930740  1
  Nd  Nd1  1  0.25000000  0.66780705  0.56069260  1
  Nd  Nd2  1  0.75000000  0.33219295  0.43930740  1
  Nd  Nd3  1  0.75000000  0.95149274  0.28395699  1
  Nd  Nd4  1  0.75000000  0.83219295  0.06069260  1
  Nd  Nd5  1  0.75000000  0.45149274  0.21604301  1
  Nd  Nd6  1  0.25000000  0.04850726  0.71604301  1
  Nd  Nd7  1  0.25000000  0.54850726  0.78395699  1
  Zn  Zn0  1  0.75000000  0.00208727  0.56010884  1
  Zn  Zn1  1  0.25000000  0.62477542  0.34956954  1
  Zn  Zn2  1  0.75000000  0.37522458  0.65043046  1
  Zn  Zn3  1  0.25000000  0.49791273  0.06010884  1
  Zn  Zn4  1  0.75000000  0.50208727  0.93989116  1
  Zn  Zn5  1  0.25000000  0.99791273  0.43989116  1
  Zn  Zn6  1  0.25000000  0.12477542  0.15043046  1
  Zn  Zn7  1  0.75000000  0.87522458  0.84956954  1
  Rh  Rh0  1  0.75000000  0.75736249  0.43486034  1
  Rh  Rh1  1  0.25000000  0.24707628  0.31397281  1
  Rh  Rh2  1  0.75000000  0.25292372  0.81397281  1
  Rh  Rh3  1  0.75000000  0.75292372  0.68602719  1
  Rh  Rh4  1  0.25000000  0.24263751  0.56513966  1
  Rh  Rh5  1  0.25000000  0.74707628  0.18602719  1
  Rh  Rh6  1  0.75000000  0.25736249  0.06513966  1
  Rh  Rh7  1  0.25000000  0.74263751  0.93486034  1
loop_
_geom_bond_atom_site_label_1
_geom_bond_atom_site_label_2
_geom_bond_distance
_geom_bond_site_symmetry_2
Nd0 Rh2 2.937815 1_455
Nd0 Rh2 2.937815 1_555
Nd0 Rh6 2.950481 1_456
Nd0 Rh6 2.950481 1_556
Nd0 Rh7 3.085127 1_545
Nd1 Rh3 2.937815 1_455
Nd1 Rh3 2.937815 1_555
Nd1 Rh0 2.950481 1_555
Nd1 Rh0 2.950481 1_455
Nd1 Rh4 3.085127 1_555
Nd2 Rh1 2.937815 1_555
Nd2 Rh1 2.937815 1_655
Nd2 Rh4 2.950481 1_655
Nd2 Rh4 2.950481 1_555
Nd2 Rh0 3.085127 1_555
Nd3 Rh0 2.852628 1_555
Nd3 Rh5 2.965610 1_655
Nd3 Rh5 2.965610 1_555
Nd3 Rh1 2.974094 1_565
Nd3 Rh1 2.974094 1_665
Nd4 Rh5 2.937815 1_655
Nd4 Rh5 2.937815 1_555
Nd4 Rh7 2.950481 1_654
Nd4 Rh7 2.950481 1_554
Nd4 Rh6 3.085127 1_565
Nd5 Rh6 2.852628 1_555
Nd5 Rh1 2.965610 1_555
Nd5 Rh1 2.965610 1_655
Nd5 Rh5 2.974094 1_555
Nd5 Rh5 2.974094 1_655
Nd6 Rh4 2.852628 1_555
Nd6 Rh2 2.965610 1_555
Nd6 Rh2 2.965610 1_455
Nd6 Rh3 2.974094 1_445
Nd6 Rh3 2.974094 1_545
Nd7 Rh7 2.852628 1_555
Nd7 Rh3 2.965610 1_455
Nd7 Rh3 2.965610 1_555
Nd7 Rh2 2.974094 1_555
Nd7 Rh2 2.974094 1_455
Rh0 Zn1 2.625863 1_555
Rh0 Zn1 2.625863 1_655
Rh0 Zn5 2.656299 1_655
Rh0 Zn5 2.656299 1_555
Rh0 Zn0 2.718681 1_565
Rh1 Zn5 2.748101 1_545
Rh1 Zn1 2.801698 1_555
Rh1 Zn6 2.831165 1_555
Rh2 Zn4 2.748101 1_555
Rh2 Zn7 2.801698 1_545
Rh2 Zn2 2.831165 1_555
Rh3 Zn0 2.748101 1_565
Rh3 Zn2 2.801698 1_555
Rh3 Zn7 2.831165 1_555
Rh4 Zn2 2.625863 1_455
Rh4 Zn2 2.625863 1_555
Rh4 Zn0 2.656299 1_555
Rh4 Zn0 2.656299 1_455
Rh4 Zn5 2.718681 1_545
Rh5 Zn3 2.748101 1_555
Rh5 Zn6 2.801698 1_565
Rh5 Zn1 2.831165 1_555
Rh6 Zn6 2.625863 1_555
Rh6 Zn6 2.625863 1_655
Rh6 Zn3 2.656299 1_555
Rh6 Zn3 2.656299 1_655
Rh6 Zn4 2.718681 1_554
Rh7 Zn7 2.625863 1_455
Rh7 Zn7 2.625863 1_555
Rh7 Zn4 2.656299 1_455
Rh7 Zn4 2.656299 1_555
Rh7 Zn3 2.718681 1_556
