# generated using pymatgen
data_K2NbAgS4
_symmetry_space_group_name_H-M   'P 1'
_cell_length_a   13.38617315
_cell_length_b   11.93209941
_cell_length_c   7.38939590
_cell_angle_alpha   84.21042910
_cell_angle_beta   62.47733720
_cell_angle_gamma   33.31223370
_symmetry_Int_Tables_number   1
_chemical_formula_structural   K2NbAgS4
_chemical_formula_sum   'K4 Nb2 Ag2 S8'
_cell_volume   465.90223629
_cell_formula_units_Z   2
loop_
 _symmetry_equiv_pos_site_id
 _symmetry_equiv_pos_as_xyz
  1  'x, y, z'
loop_
 _atom_site_type_symbol
 _atom_site_label
 _atom_site_symmetry_multiplicity
 _atom_site_fract_x
 _atom_site_fract_y
 _atom_site_fract_z
 _atom_site_occupancy
  K  K0  1  0.80334400  0.81106400  0.44744600  1
  K  K1  1  0.20402900  0.18645000  0.54838000  1
  K  K2  1  0.43785300  0.45344900  0.80795200  1
  K  K3  1  0.55682300  0.55157300  0.18865100  1
  Nb  Nb0  1  0.62790800  0.62346900  0.62901700  1
  Nb  Nb1  1  0.36990300  0.38148700  0.37343900  1
  Ag  Ag0  1  0.12222000  0.13104200  0.12937100  1
  Ag  Ag1  1  0.86827900  0.88394700  0.87873200  1
  S  S0  1  0.12322500  0.74055000  0.42606600  1
  S  S1  1  0.20934900  0.42181400  0.74557900  1
  S  S2  1  0.43012000  0.20363500  0.12240100  1
  S  S3  1  0.74576500  0.12338400  0.20641800  1
  S  S4  1  0.89118000  0.24533800  0.56177500  1
  S  S5  1  0.25927700  0.87603200  0.78663200  1
  S  S6  1  0.56763400  0.79844500  0.87949200  1
  S  S7  1  0.79383600  0.56788400  0.24936100  1
loop_
_geom_bond_atom_site_label_1
_geom_bond_atom_site_label_2
_geom_bond_distance
_geom_bond_site_symmetry_2
K0 S1 3.374292 1_565
K0 S6 3.399712 1_555
K0 S2 3.456155 1_655
K0 S7 3.496366 1_555
K0 S0 3.528208 1_655
K0 S3 3.575312 1_565
K0 S2 3.787794 1_566
K1 S2 3.348503 1_555
K1 S1 3.357275 1_555
K1 S7 3.385864 1_545
K1 S6 3.500064 1_455
K1 S5 3.560190 1_545
K1 S4 3.571318 1_455
K1 S6 3.778166 1_544
K2 S5 3.347522 1_555
K2 S0 3.405759 1_556
K2 S3 3.424234 1_555
K2 S4 3.438504 1_555
K2 S1 3.602632 1_555
K2 S2 3.631948 1_556
K2 S3 3.762829 1_466
K3 S3 3.330406 1_555
K3 S0 3.371011 1_555
K3 S4 3.429425 1_554
K3 S5 3.433732 1_555
K3 S7 3.559525 1_555
K3 S6 3.600877 1_554
K3 S4 3.760409 1_465
Nb0 S6 2.240462 1_555
Nb0 S4 2.298192 1_555
Nb0 S5 2.308671 1_555
Nb0 S7 2.323372 1_555
Nb1 S0 2.216889 1_555
Nb1 S2 2.268823 1_555
Nb1 S3 2.334960 1_555
Nb1 S1 2.342840 1_555
Ag0 S7 2.512563 1_455
Ag0 S4 2.516135 1_455
Ag0 S6 2.542472 1_544
Ag0 S5 2.639845 1_544
Ag1 S2 2.534805 1_566
Ag1 S0 2.570581 1_655
Ag1 S3 2.570915 1_566
Ag1 S1 2.661601 1_655
