# generated using pymatgen
data_Ba2YTlCu2O7
_symmetry_space_group_name_H-M   'P 1'
_cell_length_a   3.87822800
_cell_length_b   3.87822800
_cell_length_c   12.81036100
_cell_angle_alpha   90.00000000
_cell_angle_beta   90.00000000
_cell_angle_gamma   90.00000000
_symmetry_Int_Tables_number   1
_chemical_formula_structural   Ba2YTlCu2O7
_chemical_formula_sum   'Ba2 Y1 Tl1 Cu2 O7'
_cell_volume   192.67618718
_cell_formula_units_Z   1
loop_
 _symmetry_equiv_pos_site_id
 _symmetry_equiv_pos_as_xyz
  1  'x, y, z'
loop_
 _atom_site_type_symbol
 _atom_site_label
 _atom_site_symmetry_multiplicity
 _atom_site_fract_x
 _atom_site_fract_y
 _atom_site_fract_z
 _atom_site_occupancy
  Ba  Ba0  1  0.50000000  0.50000000  0.20682600  1
  Ba  Ba1  1  0.50000000  0.50000000  0.79317400  1
  Y  Y0  1  0.50000000  0.50000000  0.50000000  1
  Tl  Tl0  1  0.00000000  0.00000000  0.00000000  1
  Cu  Cu0  1  0.00000000  0.00000000  0.37482500  1
  Cu  Cu1  1  0.00000000  0.00000000  0.62517500  1
  O  O0  1  0.00000000  0.00000000  0.16461500  1
  O  O1  1  0.00000000  0.50000000  0.38764400  1
  O  O2  1  0.50000000  0.00000000  0.38764400  1
  O  O3  1  0.50000000  0.00000000  0.61235600  1
  O  O4  1  0.50000000  0.50000000  0.00000000  1
  O  O5  1  0.00000000  0.50000000  0.61235600  1
  O  O6  1  0.00000000  0.00000000  0.83538500  1
loop_
_geom_bond_atom_site_label_1
_geom_bond_atom_site_label_2
_geom_bond_distance
_geom_bond_site_symmetry_2
Ba0 O4 2.649516 1_555
Ba0 O0 2.795125 1_565
Ba0 O0 2.795125 1_665
Ba0 O0 2.795125 1_655
Ba0 O0 2.795125 1_555
Ba0 O1 3.020863 1_655
Ba0 O2 3.020863 1_565
Ba0 O1 3.020863 1_555
Ba0 O2 3.020863 1_555
Ba1 O4 2.649516 1_556
Ba1 O6 2.795125 1_665
Ba1 O6 2.795125 1_555
Ba1 O6 2.795125 1_565
Ba1 O6 2.795125 1_655
Ba1 O5 3.020863 1_655
Ba1 O3 3.020863 1_555
Ba1 O3 3.020863 1_565
Ba1 O5 3.020863 1_555
Cu0 O2 1.946055 1_455
Cu0 O2 1.946055 1_555
Cu0 O1 1.946055 1_545
Cu0 O1 1.946055 1_555
Cu0 O0 2.692866 1_555
Cu1 O3 1.946055 1_455
Cu1 O3 1.946055 1_555
Cu1 O5 1.946055 1_545
Cu1 O5 1.946055 1_555
Cu1 O6 2.692866 1_555
O0 Tl0 2.108778 1_555
O1 Y0 2.414914 1_555
O1 Y0 2.414914 1_455
O2 Y0 2.414914 1_545
O2 Y0 2.414914 1_555
O3 Y0 2.414914 1_545
O3 Y0 2.414914 1_555
O4 Tl0 2.742321 1_555
O4 Tl0 2.742321 1_565
O4 Tl0 2.742321 1_655
O4 Tl0 2.742321 1_665
O5 Y0 2.414914 1_555
O5 Y0 2.414914 1_455
O6 Tl0 2.108778 1_556
