# generated using pymatgen
data_Sr10Mn5Zn9(AsO)10
_symmetry_space_group_name_H-M   'P 1'
_cell_length_a   9.34526700
_cell_length_b   9.80613472
_cell_length_c   12.19556174
_cell_angle_alpha   92.00392251
_cell_angle_beta   112.24940818
_cell_angle_gamma   108.89686987
_symmetry_Int_Tables_number   1
_chemical_formula_structural   Sr10Mn5Zn9(AsO)10
_chemical_formula_sum   'Sr10 Mn5 Zn9 As10 O10'
_cell_volume   962.66928402
_cell_formula_units_Z   1
loop_
 _symmetry_equiv_pos_site_id
 _symmetry_equiv_pos_as_xyz
  1  'x, y, z'
loop_
 _atom_site_type_symbol
 _atom_site_label
 _atom_site_symmetry_multiplicity
 _atom_site_fract_x
 _atom_site_fract_y
 _atom_site_fract_z
 _atom_site_occupancy
  Sr  Sr0  1  0.87677200  0.50412500  0.44825800  1
  Sr  Sr1  1  0.97404000  0.32529700  0.82059200  1
  Sr  Sr2  1  0.27819700  0.15861400  0.87426600  1
  Sr  Sr3  1  0.39930600  0.31538900  0.24888900  1
  Sr  Sr4  1  0.51001300  0.01705200  0.33236500  1
  Sr  Sr5  1  0.24877000  0.81490900  0.64444600  1
  Sr  Sr6  1  0.83685700  0.85741100  0.87354500  1
  Sr  Sr7  1  0.48403900  0.54458500  0.02020400  1
  Sr  Sr8  1  0.93444900  0.70841200  0.20643600  1
  Sr  Sr9  1  0.31208100  0.64039000  0.44406300  1
  Mn  Mn0  1  0.03388400  0.05893200  0.15293800  1
  Mn  Mn1  1  0.21965700  0.96938200  0.42933100  1
  Mn  Mn2  1  0.25388900  0.41789300  0.68028800  1
  Mn  Mn3  1  0.67830600  0.32306800  0.17495200  1
  Mn  Mn4  1  0.65952300  0.01376000  0.64261100  1
  Zn  Zn0  1  0.44924200  0.92331600  0.98833100  1
  Zn  Zn1  1  0.61680500  0.67785100  0.31322700  1
  Zn  Zn2  1  0.92720100  0.95862000  0.61474700  1
  Zn  Zn3  1  0.72565100  0.51549400  0.70431900  1
  Zn  Zn4  1  0.11277900  0.66567300  0.02281600  1
  Zn  Zn5  1  0.77403200  0.27902400  0.99394400  1
  Zn  Zn6  1  0.00583600  0.16907100  0.37149300  1
  Zn  Zn7  1  0.48866400  0.19911400  0.68248500  1
  Zn  Zn8  1  0.70816100  0.95153400  0.15259100  1
  As  As0  1  0.18356500  0.14303600  0.58535000  1
  As  As1  1  0.21303600  0.94879600  0.05789000  1
  As  As2  1  0.70978900  0.69954500  0.56806000  1
  As  As3  1  0.15191900  0.79394800  0.85732100  1
  As  As4  1  0.80345200  0.52152400  0.93148300  1
  As  As5  1  0.30670900  0.60040400  0.19312400  1
  As  As6  1  0.99207000  0.31715300  0.20943900  1
  As  As7  1  0.66833700  0.28365000  0.58028200  1
  As  As8  1  0.58745800  0.05455100  0.84828700  1
  As  As9  1  0.81719900  0.93152700  0.37482000  1
  O  O0  1  0.24585800  0.07127400  0.29102800  1
  O  O1  1  0.09655200  0.74652700  0.41747900  1
  O  O2  1  0.83156700  0.87817100  0.07884500  1
  O  O3  1  0.25086500  0.39640400  0.83802900  1
  O  O4  1  0.70520100  0.55283800  0.24279400  1
  O  O5  1  0.64998600  0.26521700  0.31960000  1
  O  O6  1  0.18736800  0.55703300  0.58585600  1
  O  O7  1  0.90692300  0.06048000  0.75234800  1
  O  O8  1  0.45102600  0.30601300  0.06464300  1
  O  O9  1  0.43296600  0.91299400  0.51618500  1
loop_
_geom_bond_atom_site_label_1
_geom_bond_atom_site_label_2
_geom_bond_distance
_geom_bond_site_symmetry_2
Sr1 Zn5 3.267909 1_555
Sr2 Zn0 3.277759 1_545
Mn0 O2 1.989137 1_445
Mn0 O0 2.019670 1_555
Mn1 O0 2.043363 1_565
Mn1 O1 2.084146 1_555
Mn1 O9 2.134812 1_555
Mn2 O6 1.921342 1_555
Mn2 O3 1.952343 1_555
Mn3 O5 1.957059 1_555
Mn3 O8 1.984804 1_555
Mn3 O4 2.273710 1_555
Mn3 Zn5 2.745707 1_554
Mn4 O9 1.975498 1_545
Mn4 O7 2.067425 1_555
Zn0 Zn8 2.408573 1_556
As0 Zn7 2.493250 1_555
As0 Zn6 2.582028 1_555
As0 Zn2 2.651061 1_445
As0 Mn2 2.663682 1_555
As0 Mn1 2.695440 1_545
As0 Sr2 3.276519 1_555
As0 Sr5 3.513357 1_545
As1 Zn4 2.587939 1_555
As1 As3 2.595306 1_554
As1 Zn0 2.723086 1_554
As1 Mn0 2.804712 1_565
As1 Sr6 3.170092 1_454
As1 Sr2 3.187853 1_564
As1 Sr4 3.310634 1_565
As2 Zn3 2.497461 1_555
As2 Zn2 2.566301 1_555
As2 Zn1 2.871915 1_555
As2 Sr9 3.274596 1_555
As2 Mn4 3.406808 1_565
As2 Sr0 3.421966 1_555
As2 Sr6 3.569608 1_555
As3 Zn0 2.468952 1_555
As3 Zn4 2.495635 1_556
As3 Sr5 3.049193 1_555
As3 Sr6 3.273376 1_455
As3 Sr2 3.354560 1_565
As4 Zn5 2.484446 1_555
As4 Zn4 2.529817 1_656
As4 Zn3 2.577312 1_555
As4 Sr6 3.333063 1_555
As4 Sr8 3.333115 1_556
As4 Sr1 3.392736 1_555
As4 Sr7 3.605281 1_556
As5 Zn4 2.449872 1_555
As5 Zn1 2.530304 1_555
As5 Sr9 3.051056 1_555
As5 Sr3 3.205716 1_555
As5 Sr7 3.262904 1_555
As6 Zn6 2.481989 1_655
As6 Zn5 2.565359 1_554
As6 Mn0 2.786050 1_655
As6 Mn3 2.820649 1_555
As7 Zn7 2.411568 1_555
As7 Zn3 2.470037 1_555
As7 Mn4 2.763308 1_555
As7 Sr1 3.120533 1_555
As7 Sr0 3.309327 1_555
As7 Sr4 3.423338 1_555
As8 Zn5 2.436386 1_555
As8 Zn7 2.566159 1_555
As8 Zn0 2.643695 1_545
As8 Mn4 2.879041 1_555
As8 Sr5 3.245836 1_545
As8 Sr6 3.417699 1_545
As8 Sr2 3.475007 1_555
As9 Zn6 2.436456 1_665
As9 Zn1 2.458855 1_555
As9 Zn8 2.548996 1_555
As9 Zn2 2.679545 1_555
As9 Sr4 3.110759 1_565
O0 Sr3 2.543912 1_555
O0 Sr4 2.560734 1_555
O1 Sr8 2.381663 1_455
O1 Sr9 2.476332 1_555
O1 Sr5 2.530912 1_555
O1 Sr0 2.737438 1_455
O2 Zn8 1.983442 1_555
O2 Sr8 2.490333 1_555
O2 Sr6 2.525322 1_554
O3 Sr1 2.372469 1_455
O3 Sr7 2.419282 1_556
O3 Sr2 2.463781 1_555
O4 Zn1 2.010652 1_555
O4 Sr8 2.400721 1_555
O4 Sr0 2.571985 1_555
O4 Sr7 2.697202 1_555
O5 Sr3 2.391692 1_555
O5 Sr4 2.403379 1_555
O5 Sr0 2.539837 1_555
O6 Sr5 2.420277 1_555
O6 Sr9 2.454542 1_555
O6 Sr0 2.604872 1_455
O7 Zn2 2.023836 1_545
O7 Sr1 2.495622 1_555
O7 Sr6 2.583208 1_545
O7 Sr2 3.000969 1_655
O8 Sr2 2.345596 1_554
O8 Sr7 2.368501 1_555
O8 Sr3 2.475436 1_555
O9 Sr9 2.514522 1_555
O9 Sr5 2.721544 1_555
O9 Sr4 2.737100 1_565
