# generated using pymatgen
data_Na3DyTi2Nb2O12
_symmetry_space_group_name_H-M   'P 1'
_cell_length_a   5.47232500
_cell_length_b   5.63279100
_cell_length_c   15.47606700
_cell_angle_alpha   90.00000000
_cell_angle_beta   90.00000000
_cell_angle_gamma   90.00000000
_symmetry_Int_Tables_number   1
_chemical_formula_structural   Na3DyTi2Nb2O12
_chemical_formula_sum   'Na6 Dy2 Ti4 Nb4 O24'
_cell_volume   477.04145477
_cell_formula_units_Z   2
loop_
 _symmetry_equiv_pos_site_id
 _symmetry_equiv_pos_as_xyz
  1  'x, y, z'
loop_
 _atom_site_type_symbol
 _atom_site_label
 _atom_site_symmetry_multiplicity
 _atom_site_fract_x
 _atom_site_fract_y
 _atom_site_fract_z
 _atom_site_occupancy
  Na  Na0  1  0.75407600  0.96718600  0.24825700  1
  Na  Na1  1  0.75407600  0.96718600  0.75174300  1
  Na  Na2  1  0.24592400  0.46718600  0.75174300  1
  Na  Na3  1  0.24592400  0.46718600  0.24825700  1
  Na  Na4  1  0.25787000  0.51298100  0.50000000  1
  Na  Na5  1  0.74213000  0.01298100  0.50000000  1
  Dy  Dy0  1  0.26454300  0.56814900  0.00000000  1
  Dy  Dy1  1  0.73545700  0.06814900  0.00000000  1
  Ti  Ti0  1  0.76521200  0.52987900  0.87347200  1
  Ti  Ti1  1  0.76521200  0.52987900  0.12652800  1
  Ti  Ti2  1  0.23478800  0.02987900  0.12652800  1
  Ti  Ti3  1  0.23478800  0.02987900  0.87347200  1
  Nb  Nb0  1  0.74752800  0.48129900  0.37261500  1
  Nb  Nb1  1  0.74752800  0.48129900  0.62738500  1
  Nb  Nb2  1  0.25247200  0.98129900  0.62738500  1
  Nb  Nb3  1  0.25247200  0.98129900  0.37261500  1
  O  O0  1  0.84843100  0.46517800  0.00000000  1
  O  O1  1  0.82816700  0.49048800  0.50000000  1
  O  O2  1  0.96714200  0.22122700  0.35275200  1
  O  O3  1  0.94655100  0.19413200  0.13634800  1
  O  O4  1  0.96714200  0.22122700  0.64724800  1
  O  O5  1  0.94655100  0.19413200  0.86365200  1
  O  O6  1  0.05344900  0.69413200  0.13634800  1
  O  O7  1  0.03285800  0.72122700  0.35275200  1
  O  O8  1  0.03285800  0.72122700  0.64724800  1
  O  O9  1  0.05344900  0.69413200  0.86365200  1
  O  O10  1  0.15156900  0.96517800  0.00000000  1
  O  O11  1  0.17183300  0.99048800  0.50000000  1
  O  O12  1  0.32260800  0.02077700  0.75451100  1
  O  O13  1  0.32260800  0.02077700  0.24548900  1
  O  O14  1  0.45114900  0.28164200  0.90742700  1
  O  O15  1  0.45114900  0.28164200  0.09257300  1
  O  O16  1  0.46465700  0.28569400  0.60687100  1
  O  O17  1  0.46465700  0.28569400  0.39312900  1
  O  O18  1  0.54885100  0.78164200  0.90742700  1
  O  O19  1  0.54885100  0.78164200  0.09257300  1
  O  O20  1  0.53534300  0.78569400  0.39312900  1
  O  O21  1  0.53534300  0.78569400  0.60687100  1
  O  O22  1  0.67739200  0.52077700  0.24548900  1
  O  O23  1  0.67739200  0.52077700  0.75451100  1
loop_
_geom_bond_atom_site_label_1
_geom_bond_atom_site_label_2
_geom_bond_distance
_geom_bond_site_symmetry_2
Na0 O13 2.380737 1_565
Na0 O3 2.396472 1_565
Na0 O2 2.454051 1_565
Na0 O22 2.549664 1_555
Na0 O7 2.619559 1_655
Na0 O20 2.739462 1_555
Na0 O6 2.837085 1_655
Na0 O19 2.856335 1_555
Na1 O12 2.380737 1_565
Na1 O5 2.396472 1_565
Na1 O4 2.454051 1_565
Na1 O23 2.549664 1_555
Na1 O8 2.619559 1_655
Na1 O21 2.739462 1_555
Na1 O9 2.837085 1_655
Na1 O18 2.856335 1_555
Na2 O23 2.380737 1_555
Na2 O9 2.396472 1_555
Na2 O8 2.454051 1_555
Na2 O12 2.549664 1_555
Na2 O4 2.619559 1_455
Na2 O16 2.739462 1_555
Na2 O5 2.837085 1_455
Na2 O14 2.856335 1_555
Na3 O22 2.380737 1_555
Na3 O6 2.396472 1_555
Na3 O7 2.454051 1_555
Na3 O13 2.549664 1_555
Na3 O2 2.619559 1_455
Na3 O17 2.739462 1_555
Na3 O3 2.837085 1_455
Na3 O15 2.856335 1_555
Na4 O1 2.354885 1_455
Na4 O17 2.378050 1_555
Na4 O16 2.378050 1_555
Na4 O20 2.720449 1_555
Na4 O21 2.720449 1_555
Na4 O8 2.843441 1_555
Na4 O7 2.843441 1_555
Na5 O11 2.354885 1_645
Na5 O20 2.378050 1_545
Na5 O21 2.378050 1_545
Na5 O17 2.720449 1_555
Na5 O16 2.720449 1_555
Na5 O2 2.843441 1_555
Na5 O4 2.843441 1_555
Dy0 O10 2.320261 1_555
Dy0 O0 2.349809 1_455
Dy0 O15 2.387421 1_555
Dy0 O14 2.387421 1_554
Dy0 O19 2.432957 1_555
Dy0 O18 2.432957 1_554
Dy0 O6 2.508120 1_555
Dy0 O9 2.508120 1_554
Dy1 O0 2.320261 1_555
Dy1 O10 2.349809 1_645
Dy1 O19 2.387421 1_545
Dy1 O18 2.387421 1_544
Dy1 O15 2.432957 1_555
Dy1 O14 2.432957 1_554
Dy1 O3 2.508120 1_555
Dy1 O5 2.508120 1_554
Nb0 O2 1.919594 1_555
Nb0 O17 1.926381 1_555
Nb0 O22 2.016795 1_555
Nb0 O1 2.020867 1_555
Nb0 O7 2.087817 1_655
Nb0 O20 2.094965 1_555
Nb1 O4 1.919594 1_555
Nb1 O16 1.926381 1_555
Nb1 O23 2.016795 1_555
Nb1 O1 2.020867 1_555
Nb1 O8 2.087817 1_655
Nb1 O21 2.094965 1_555
Nb2 O8 1.919594 1_555
Nb2 O21 1.926381 1_555
Nb2 O12 2.016795 1_565
Nb2 O11 2.020867 1_555
Nb2 O4 2.087817 1_465
Nb2 O16 2.094965 1_565
Nb3 O7 1.919594 1_555
Nb3 O20 1.926381 1_555
Nb3 O13 2.016795 1_565
Nb3 O11 2.020867 1_555
Nb3 O2 2.087817 1_465
Nb3 O17 2.094965 1_565
O0 Ti0 2.043180 1_554
O0 Ti1 2.043180 1_555
O3 Ti2 1.834954 1_655
O3 Ti1 2.141134 1_555
O5 Ti3 1.834954 1_655
O5 Ti0 2.141134 1_555
O6 Ti1 1.834954 1_455
O6 Ti2 2.141134 1_565
O9 Ti0 1.834954 1_455
O9 Ti3 2.141134 1_565
O10 Ti3 2.043180 1_564
O10 Ti2 2.043180 1_565
O12 Ti3 1.903430 1_555
O13 Ti2 1.903430 1_555
O14 Ti3 1.920697 1_555
O14 Ti0 2.277074 1_555
O15 Ti2 1.920697 1_555
O15 Ti1 2.277074 1_555
O18 Ti0 1.920697 1_555
O18 Ti3 2.277074 1_565
O19 Ti1 1.920697 1_555
O19 Ti2 2.277074 1_565
O22 Ti1 1.903430 1_555
O23 Ti0 1.903430 1_555
