# generated using pymatgen
data_BaCO3
_symmetry_space_group_name_H-M   'P 1'
_cell_length_a   4.62171680
_cell_length_b   4.62171680
_cell_length_c   9.06145981
_cell_angle_alpha   70.80446823
_cell_angle_beta   70.80446823
_cell_angle_gamma   71.02264189
_symmetry_Int_Tables_number   1
_chemical_formula_structural   BaCO3
_chemical_formula_sum   'Ba2 C2 O6'
_cell_volume   167.43912294
_cell_formula_units_Z   2
loop_
 _symmetry_equiv_pos_site_id
 _symmetry_equiv_pos_as_xyz
  1  'x, y, z'
loop_
 _atom_site_type_symbol
 _atom_site_label
 _atom_site_symmetry_multiplicity
 _atom_site_fract_x
 _atom_site_fract_y
 _atom_site_fract_z
 _atom_site_occupancy
  Ba  Ba0  1  0.50000000  0.50000000  0.00000000  1
  Ba  Ba1  1  0.00000000  0.00000000  0.50000000  1
  C  C0  1  0.70633400  0.70633400  0.26591200  1
  C  C1  1  0.29366600  0.29366600  0.73408800  1
  O  O0  1  0.50897600  0.08918400  0.80471400  1
  O  O1  1  0.08918400  0.50897600  0.80471400  1
  O  O2  1  0.29024600  0.29024600  0.59295600  1
  O  O3  1  0.91081600  0.49102400  0.19528600  1
  O  O4  1  0.49102400  0.91081600  0.19528600  1
  O  O5  1  0.70975400  0.70975400  0.40704400  1
loop_
_geom_bond_atom_site_label_1
_geom_bond_atom_site_label_2
_geom_bond_distance
_geom_bond_site_symmetry_2
Ba0 O4 2.721141 1_545
Ba0 O3 2.721141 1_455
Ba0 O0 2.721141 1_564
Ba0 O1 2.721141 1_654
Ba0 O3 2.974555 1_555
Ba0 O4 2.974555 1_555
Ba0 O1 2.974555 1_554
Ba0 O0 2.974555 1_554
Ba1 O2 2.639084 1_555
Ba1 O5 2.639084 1_445
Ba1 O1 2.993903 1_545
Ba1 O0 2.993903 1_455
Ba1 O4 2.993903 1_545
Ba1 O3 2.993903 1_455
Ba1 O2 3.055058 1_455
Ba1 O2 3.055058 1_545
Ba1 O5 3.055058 1_545
Ba1 O5 3.055058 1_455
C0 O5 1.289471 1_555
C0 O4 1.304740 1_555
C0 O3 1.304740 1_555
C1 O2 1.289471 1_555
C1 O0 1.304740 1_555
C1 O1 1.304740 1_555
