# generated using pymatgen
data_H2WO5
_symmetry_space_group_name_H-M   'P 1'
_cell_length_a   3.94785200
_cell_length_b   7.56019200
_cell_length_c   12.53955691
_cell_angle_alpha   69.81628684
_cell_angle_beta   90.00000000
_cell_angle_gamma   90.00000000
_symmetry_Int_Tables_number   1
_chemical_formula_structural   H2WO5
_chemical_formula_sum   'H8 W4 O20'
_cell_volume   351.27911403
_cell_formula_units_Z   4
loop_
 _symmetry_equiv_pos_site_id
 _symmetry_equiv_pos_as_xyz
  1  'x, y, z'
loop_
 _atom_site_type_symbol
 _atom_site_label
 _atom_site_symmetry_multiplicity
 _atom_site_fract_x
 _atom_site_fract_y
 _atom_site_fract_z
 _atom_site_occupancy
  H  H0  1  0.56862100  0.67132400  0.14446900  1
  H  H1  1  0.30295200  0.82741800  0.07792600  1
  H  H2  1  0.06862100  0.32867600  0.35553100  1
  H  H3  1  0.80295200  0.17258200  0.42207400  1
  H  H4  1  0.43137900  0.32867600  0.85553100  1
  H  H5  1  0.69704800  0.17258200  0.92207400  1
  H  H6  1  0.19704800  0.82741800  0.57792600  1
  H  H7  1  0.93137900  0.67132400  0.64446900  1
  W  W0  1  0.42649100  0.81554400  0.31846200  1
  W  W1  1  0.92649100  0.18445600  0.18153800  1
  W  W2  1  0.57350900  0.18445600  0.68153800  1
  W  W3  1  0.07350900  0.81554400  0.81846200  1
  O  O0  1  0.42439500  0.84299600  0.45135400  1
  O  O1  1  0.92439500  0.15700400  0.04864600  1
  O  O2  1  0.57560500  0.15700400  0.54864600  1
  O  O3  1  0.07560500  0.84299600  0.95135400  1
  O  O4  1  0.92892800  0.89752000  0.28039500  1
  O  O5  1  0.42892800  0.10248000  0.21960500  1
  O  O6  1  0.07107200  0.10248000  0.71960500  1
  O  O7  1  0.57107200  0.89752000  0.78039500  1
  O  O8  1  0.46700700  0.79209300  0.14198400  1
  O  O9  1  0.96700700  0.20790700  0.35801600  1
  O  O10  1  0.53299300  0.20790700  0.85801600  1
  O  O11  1  0.03299300  0.79209300  0.64198400  1
  O  O12  1  0.24711500  0.55696200  0.36157100  1
  O  O13  1  0.74711500  0.44303800  0.13842900  1
  O  O14  1  0.75288500  0.44303800  0.63842900  1
  O  O15  1  0.25288500  0.55696200  0.86157100  1
  O  O16  1  0.61929700  0.56345300  0.35748300  1
  O  O17  1  0.11929700  0.43654700  0.14251700  1
  O  O18  1  0.38070300  0.43654700  0.64251700  1
  O  O19  1  0.88070300  0.56345300  0.85748300  1
loop_
_geom_bond_atom_site_label_1
_geom_bond_atom_site_label_2
_geom_bond_distance
_geom_bond_site_symmetry_2
H0 O8 0.987877 1_555
H1 O8 0.993974 1_555
H2 O9 0.987877 1_455
H3 O9 0.993974 1_555
H4 O10 0.987877 1_555
H5 O10 0.993974 1_555
H6 O11 0.993974 1_555
H7 O11 0.987877 1_655
O0 W0 1.748917 1_555
O1 W1 1.748917 1_555
O2 W2 1.748917 1_555
O3 W3 1.748917 1_555
O4 W0 2.065503 1_655
O4 W0 2.083810 1_555
O4 W1 2.094500 1_565
O5 W1 2.065503 1_555
O5 W1 2.083810 1_455
O5 W0 2.094500 1_545
O6 W2 2.065503 1_455
O6 W2 2.083810 1_555
O6 W3 2.094500 1_545
O7 W3 2.065503 1_555
O7 W3 2.083810 1_655
O7 W2 2.094500 1_565
O8 W0 2.285811 1_555
O9 W1 2.285811 1_555
O10 W2 2.285811 1_555
O11 W3 2.285811 1_555
O12 O16 1.470442 1_555
O12 W0 1.971345 1_555
O13 O17 1.470442 1_655
O13 W1 1.971345 1_555
O14 O18 1.470442 1_555
O14 W2 1.971345 1_555
O15 O19 1.470442 1_455
O15 W3 1.971345 1_555
O16 W0 1.951300 1_555
O17 W1 1.951300 1_455
O18 W2 1.951300 1_555
O19 W3 1.951300 1_655
