# generated using pymatgen
data_CuH12(C2N5)2
_symmetry_space_group_name_H-M   'P 1'
_cell_length_a   15.93978700
_cell_length_b   7.54806300
_cell_length_c   11.75747730
_cell_angle_alpha   52.75939256
_cell_angle_beta   90.00000000
_cell_angle_gamma   90.00000000
_symmetry_Int_Tables_number   1
_chemical_formula_structural   CuH12(C2N5)2
_chemical_formula_sum   'Cu4 H48 C16 N40'
_cell_volume   1126.16095894
_cell_formula_units_Z   4
loop_
 _symmetry_equiv_pos_site_id
 _symmetry_equiv_pos_as_xyz
  1  'x, y, z'
loop_
 _atom_site_type_symbol
 _atom_site_label
 _atom_site_symmetry_multiplicity
 _atom_site_fract_x
 _atom_site_fract_y
 _atom_site_fract_z
 _atom_site_occupancy
  Cu  Cu0  1  0.00000000  0.50000000  0.00000000  1
  Cu  Cu1  1  0.00000000  0.00000000  0.00000000  1
  Cu  Cu2  1  0.50000000  0.50000000  0.50000000  1
  Cu  Cu3  1  0.50000000  0.00000000  0.50000000  1
  H  H0  1  0.58974900  0.28566400  0.87180900  1
  H  H1  1  0.70062900  0.53510000  0.01393000  1
  H  H2  1  0.23208500  0.85168100  0.05618400  1
  H  H3  1  0.29904600  0.62507100  0.55210600  1
  H  H4  1  0.62934200  0.58465400  0.87884100  1
  H  H5  1  0.22692800  0.57518500  0.68663400  1
  H  H6  1  0.85651300  0.05484200  0.73980800  1
  H  H7  1  0.12934200  0.41534600  0.62115900  1
  H  H8  1  0.20095400  0.62507100  0.05210600  1
  H  H9  1  0.63004900  0.00982500  0.00281600  1
  H  H10  1  0.20062900  0.46490000  0.48607000  1
  H  H11  1  0.40581500  0.56752500  0.93902000  1
  H  H12  1  0.77307200  0.42481500  0.31336600  1
  H  H13  1  0.91025100  0.28566400  0.37180900  1
  H  H14  1  0.87065800  0.58465400  0.37884100  1
  H  H15  1  0.64348700  0.05484200  0.23980800  1
  H  H16  1  0.74962300  0.15882400  0.19907600  1
  H  H17  1  0.41025100  0.71433600  0.12819100  1
  H  H18  1  0.22034400  0.06438500  0.30836700  1
  H  H19  1  0.29937100  0.46490000  0.98607000  1
  H  H20  1  0.59418500  0.43247500  0.06098000  1
  H  H21  1  0.09418500  0.56752500  0.43902000  1
  H  H22  1  0.26791500  0.85168100  0.55618400  1
  H  H23  1  0.27965600  0.06438500  0.80836700  1
  H  H24  1  0.75037700  0.15882400  0.69907600  1
  H  H25  1  0.27307200  0.57518500  0.18663400  1
  H  H26  1  0.14348700  0.94515800  0.26019200  1
  H  H27  1  0.94726100  0.12450300  0.55407400  1
  H  H28  1  0.25037700  0.84117600  0.80092400  1
  H  H29  1  0.05273900  0.87549700  0.44592600  1
  H  H30  1  0.13004900  0.99017500  0.49718400  1
  H  H31  1  0.08974900  0.71433600  0.62819100  1
  H  H32  1  0.76791500  0.14831900  0.94381600  1
  H  H33  1  0.90581500  0.43247500  0.56098000  1
  H  H34  1  0.70095400  0.37492900  0.44789400  1
  H  H35  1  0.37065800  0.41534600  0.12115900  1
  H  H36  1  0.72034400  0.93561500  0.19163300  1
  H  H37  1  0.36995100  0.99017500  0.99718400  1
  H  H38  1  0.72692800  0.42481500  0.81336600  1
  H  H39  1  0.79937100  0.53510000  0.51393000  1
  H  H40  1  0.24962300  0.84117600  0.30092400  1
  H  H41  1  0.73208500  0.14831900  0.44381600  1
  H  H42  1  0.55273900  0.12450300  0.05407400  1
  H  H43  1  0.86995100  0.00982500  0.50281600  1
  H  H44  1  0.35651300  0.94515800  0.76019200  1
  H  H45  1  0.77965600  0.93561500  0.69163300  1
  H  H46  1  0.44726100  0.87549700  0.94592600  1
  H  H47  1  0.79904600  0.37492900  0.94789400  1
  C  C0  1  0.74837300  0.30407000  0.92392100  1
  C  C1  1  0.80090900  0.08832100  0.67445700  1
  C  C2  1  0.89369500  0.16138700  0.48452900  1
  C  C3  1  0.69909100  0.08832100  0.17445700  1
  C  C4  1  0.60630500  0.16138700  0.98452900  1
  C  C5  1  0.30090900  0.91167900  0.82554300  1
  C  C6  1  0.75162700  0.30407000  0.42392100  1
  C  C7  1  0.10630500  0.83861300  0.51547100  1
  C  C8  1  0.85237100  0.46800600  0.49136800  1
  C  C9  1  0.14762900  0.53199400  0.50863200  1
  C  C10  1  0.19909100  0.91167900  0.32554300  1
  C  C11  1  0.25162700  0.69593000  0.07607900  1
  C  C12  1  0.39369500  0.83861300  0.01547100  1
  C  C13  1  0.64762900  0.46800600  0.99136800  1
  C  C14  1  0.35237100  0.53199400  0.00863200  1
  C  C15  1  0.24837300  0.69593000  0.57607900  1
  N  N0  1  0.57621600  0.60537300  0.25089200  1
  N  N1  1  0.36245900  0.33901600  0.43508800  1
  N  N2  1  0.42378400  0.39462700  0.74910800  1
  N  N3  1  0.46980800  0.73754600  0.69490900  1
  N  N4  1  0.96980800  0.26245400  0.80509100  1
  N  N5  1  0.94633300  0.43460000  0.77965100  1
  N  N6  1  0.32449400  0.74506700  0.98035500  1
  N  N7  1  0.02185300  0.82497100  0.92007100  1
  N  N8  1  0.38970400  0.50004800  0.42007300  1
  N  N9  1  0.67550600  0.25493300  0.01964500  1
  N  N10  1  0.55366700  0.43460000  0.27965100  1
  N  N11  1  0.52185300  0.17502900  0.57992900  1
  N  N12  1  0.63754100  0.66098400  0.56491200  1
  N  N13  1  0.33420200  0.18510900  0.44629100  1
  N  N14  1  0.44480200  0.93493600  0.30361200  1
  N  N15  1  0.58712900  0.95950400  0.80806300  1
  N  N16  1  0.97814700  0.17502900  0.07992900  1
  N  N17  1  0.17550600  0.74506700  0.48035500  1
  N  N18  1  0.05366700  0.56540000  0.22034900  1
  N  N19  1  0.44633300  0.56540000  0.72034900  1
  N  N20  1  0.16579800  0.18510900  0.94629100  1
  N  N21  1  0.86245900  0.66098400  0.06491200  1
  N  N22  1  0.91287100  0.95950400  0.30806300  1
  N  N23  1  0.11029600  0.50004800  0.92007300  1
  N  N24  1  0.53019200  0.26245400  0.30509100  1
  N  N25  1  0.61029600  0.49995200  0.57992700  1
  N  N26  1  0.94480200  0.06506400  0.19638800  1
  N  N27  1  0.83420200  0.81489100  0.05370900  1
  N  N28  1  0.92378400  0.60537300  0.75089200  1
  N  N29  1  0.07621600  0.39462700  0.24910800  1
  N  N30  1  0.47814700  0.82497100  0.42007100  1
  N  N31  1  0.13754100  0.33901600  0.93508800  1
  N  N32  1  0.66579800  0.81489100  0.55370900  1
  N  N33  1  0.03019200  0.73754600  0.19490900  1
  N  N34  1  0.41287100  0.04049600  0.19193700  1
  N  N35  1  0.55519800  0.06506400  0.69638800  1
  N  N36  1  0.08712900  0.04049600  0.69193700  1
  N  N37  1  0.05519800  0.93493600  0.80361200  1
  N  N38  1  0.88970400  0.49995200  0.07992700  1
  N  N39  1  0.82449400  0.25493300  0.51964500  1
loop_
_geom_bond_atom_site_label_1
_geom_bond_atom_site_label_2
_geom_bond_distance
_geom_bond_site_symmetry_2
Cu0 N23 1.993388 1_554
Cu0 N38 1.993388 1_455
Cu0 N7 2.056997 1_554
Cu0 N16 2.056997 1_455
Cu1 N4 1.978138 1_454
Cu1 N33 1.978138 1_545
Cu1 N7 2.062173 1_544
Cu1 N16 2.062173 1_455
Cu2 N25 1.993388 1_555
Cu2 N8 1.993388 1_555
Cu2 N30 2.056997 1_555
Cu2 N11 2.056997 1_555
Cu3 N24 1.978138 1_555
Cu3 N3 1.978138 1_545
Cu3 N11 2.062173 1_555
Cu3 N30 2.062173 1_545
C0 H47 1.095617 1_555
C0 H32 1.095897 1_555
C0 H38 1.096926 1_555
C0 N9 1.499357 1_556
C1 H24 1.096448 1_555
C1 H45 1.096533 1_545
C1 H6 1.097630 1_555
C1 N39 1.505149 1_555
C2 H27 1.095264 1_555
C2 H43 1.095674 1_555
C2 H13 1.096052 1_555
C2 N39 1.496193 1_555
C3 H16 1.096448 1_555
C3 H36 1.096533 1_545
C3 H15 1.097630 1_555
C3 N9 1.505149 1_555
C4 H42 1.095264 1_556
C4 H9 1.095674 1_556
C4 H0 1.096052 1_555
C4 N9 1.496193 1_556
C5 H28 1.096448 1_555
C5 H23 1.096533 1_565
C5 H44 1.097630 1_555
C5 N6 1.505149 1_555
C6 H34 1.095617 1_555
C6 H41 1.095897 1_555
C6 H12 1.096926 1_555
C6 N39 1.499357 1_555
C7 H29 1.095264 1_555
C7 H30 1.095674 1_555
C7 H31 1.096052 1_555
C7 N17 1.496193 1_555
C8 H14 1.095770 1_555
C8 H33 1.096287 1_555
C8 H39 1.096877 1_555
C8 N39 1.499137 1_555
C9 H7 1.095770 1_555
C9 H21 1.096287 1_555
C9 H10 1.096877 1_555
C9 N17 1.499137 1_555
C10 H40 1.096448 1_555
C10 H18 1.096533 1_565
C10 H26 1.097630 1_555
C10 N17 1.505149 1_555
C11 H8 1.095617 1_555
C11 H2 1.095897 1_555
C11 H25 1.096926 1_555
C11 N6 1.499357 1_554
C12 H46 1.095264 1_554
C12 H37 1.095674 1_554
C12 H17 1.096052 1_555
C12 N6 1.496193 1_554
C13 H4 1.095770 1_555
C13 H20 1.096287 1_556
C13 H1 1.096877 1_556
C13 N9 1.499137 1_556
C14 H35 1.095770 1_555
C14 H11 1.096287 1_554
C14 H19 1.096877 1_554
C14 N6 1.499137 1_554
C15 H3 1.095617 1_555
C15 H22 1.095897 1_555
C15 H5 1.096926 1_555
C15 N17 1.499357 1_555
N0 N10 1.173682 1_555
N1 N13 1.176675 1_555
N1 N8 1.198935 1_555
N4 N5 1.203097 1_555
N10 N24 1.203097 1_555
N11 N35 1.212751 1_555
N12 N32 1.176675 1_555
N12 N25 1.198935 1_555
N14 N34 1.162625 1_565
N14 N30 1.212751 1_555
N15 N35 1.162625 1_565
N16 N26 1.212751 1_555
N18 N29 1.173682 1_555
N18 N33 1.203097 1_555
N19 N2 1.173682 1_555
N19 N3 1.203097 1_555
N20 N31 1.176675 1_555
N21 N27 1.176675 1_555
N21 N38 1.198935 1_555
N22 N26 1.162625 1_565
N23 N31 1.198935 1_555
N28 N5 1.173682 1_555
N36 N37 1.162625 1_545
N37 N7 1.212751 1_555
