# generated using pymatgen
data_Na2TiFe(PO4)3
_symmetry_space_group_name_H-M   'P 1'
_cell_length_a   9.90361000
_cell_length_b   9.90361000
_cell_length_c   9.90361000
_cell_angle_alpha   90.00000000
_cell_angle_beta   90.00000000
_cell_angle_gamma   90.00000000
_symmetry_Int_Tables_number   1
_chemical_formula_structural   Na2TiFe(PO4)3
_chemical_formula_sum   'Na8 Ti4 Fe4 P12 O48'
_cell_volume   971.36083540
_cell_formula_units_Z   4
loop_
 _symmetry_equiv_pos_site_id
 _symmetry_equiv_pos_as_xyz
  1  'x, y, z'
loop_
 _atom_site_type_symbol
 _atom_site_label
 _atom_site_symmetry_multiplicity
 _atom_site_fract_x
 _atom_site_fract_y
 _atom_site_fract_z
 _atom_site_occupancy
  Na  Na0  1  0.82379400  0.67620600  0.32379400  1
  Na  Na1  1  0.17620600  0.17620600  0.17620600  1
  Na  Na2  1  0.54274000  0.04274000  0.45726000  1
  Na  Na3  1  0.04274000  0.45726000  0.54274000  1
  Na  Na4  1  0.67620600  0.32379400  0.82379400  1
  Na  Na5  1  0.45726000  0.54274000  0.04274000  1
  Na  Na6  1  0.95726000  0.95726000  0.95726000  1
  Na  Na7  1  0.32379400  0.82379400  0.67620600  1
  Ti  Ti0  1  0.60860600  0.89139400  0.10860600  1
  Ti  Ti1  1  0.89139400  0.10860600  0.60860600  1
  Ti  Ti2  1  0.39139400  0.39139400  0.39139400  1
  Ti  Ti3  1  0.10860600  0.60860600  0.89139400  1
  Fe  Fe0  1  0.33645300  0.16354700  0.83645300  1
  Fe  Fe1  1  0.16354700  0.83645300  0.33645300  1
  Fe  Fe2  1  0.66354700  0.66354700  0.66354700  1
  Fe  Fe3  1  0.83645300  0.33645300  0.16354700  1
  P  P0  1  0.70914500  0.37969800  0.47481400  1
  P  P1  1  0.79085500  0.62030200  0.97481400  1
  P  P2  1  0.62030200  0.97481400  0.79085500  1
  P  P3  1  0.02518600  0.29085500  0.87969800  1
  P  P4  1  0.97481400  0.79085500  0.62030200  1
  P  P5  1  0.37969800  0.47481400  0.70914500  1
  P  P6  1  0.52518600  0.20914500  0.12030200  1
  P  P7  1  0.87969800  0.02518600  0.29085500  1
  P  P8  1  0.12030200  0.52518600  0.20914500  1
  P  P9  1  0.29085500  0.87969800  0.02518600  1
  P  P10  1  0.47481400  0.70914500  0.37969800  1
  P  P11  1  0.20914500  0.12030200  0.52518600  1
  O  O0  1  0.44013100  0.82920900  0.01539100  1
  O  O1  1  0.32764700  0.74591300  0.40446500  1
  O  O2  1  0.98460900  0.94013100  0.67079100  1
  O  O3  1  0.27069200  0.54524800  0.80029200  1
  O  O4  1  0.90446500  0.17235300  0.25408700  1
  O  O5  1  0.17079100  0.51539100  0.05986900  1
  O  O6  1  0.82920900  0.01539100  0.44013100  1
  O  O7  1  0.72930800  0.04524800  0.69970800  1
  O  O8  1  0.30029200  0.22930800  0.45475200  1
  O  O9  1  0.01002800  0.94641800  0.26441200  1
  O  O10  1  0.51539100  0.05986900  0.17079100  1
  O  O11  1  0.73558800  0.51002800  0.55358200  1
  O  O12  1  0.98997200  0.44641800  0.23558800  1
  O  O13  1  0.32920900  0.48460900  0.55986900  1
  O  O14  1  0.17235300  0.25408700  0.90446500  1
  O  O15  1  0.51002800  0.55358200  0.73558800  1
  O  O16  1  0.48997200  0.05358200  0.76441200  1
  O  O17  1  0.82764700  0.75408700  0.59553500  1
  O  O18  1  0.23558800  0.98997200  0.44641800  1
  O  O19  1  0.25408700  0.90446500  0.17235300  1
  O  O20  1  0.55986900  0.32920900  0.48460900  1
  O  O21  1  0.55358200  0.73558800  0.51002800  1
  O  O22  1  0.80029200  0.27069200  0.54524800  1
  O  O23  1  0.59553500  0.82764700  0.75408700  1
  O  O24  1  0.05986900  0.17079100  0.51539100  1
  O  O25  1  0.94013100  0.67079100  0.98460900  1
  O  O26  1  0.24591300  0.09553500  0.67235300  1
  O  O27  1  0.48460900  0.55986900  0.32920900  1
  O  O28  1  0.67079100  0.98460900  0.94013100  1
  O  O29  1  0.19970800  0.77069200  0.95475200  1
  O  O30  1  0.94641800  0.26441200  0.01002800  1
  O  O31  1  0.75408700  0.59553500  0.82764700  1
  O  O32  1  0.76441200  0.48997200  0.05358200  1
  O  O33  1  0.54524800  0.80029200  0.27069200  1
  O  O34  1  0.95475200  0.19970800  0.77069200  1
  O  O35  1  0.22930800  0.45475200  0.30029200  1
  O  O36  1  0.74591300  0.40446500  0.32764700  1
  O  O37  1  0.04524800  0.69970800  0.72930800  1
  O  O38  1  0.09553500  0.67235300  0.24591300  1
  O  O39  1  0.40446500  0.32764700  0.74591300  1
  O  O40  1  0.77069200  0.95475200  0.19970800  1
  O  O41  1  0.67235300  0.24591300  0.09553500  1
  O  O42  1  0.44641800  0.23558800  0.98997200  1
  O  O43  1  0.26441200  0.01002800  0.94641800  1
  O  O44  1  0.01539100  0.44013100  0.82920900  1
  O  O45  1  0.45475200  0.30029200  0.22930800  1
  O  O46  1  0.69970800  0.72930800  0.04524800  1
  O  O47  1  0.05358200  0.76441200  0.48997200  1
loop_
_geom_bond_atom_site_label_1
_geom_bond_atom_site_label_2
_geom_bond_distance
_geom_bond_site_symmetry_2
Na0 O17 2.799824 1_555
Na0 O38 2.799824 1_655
Na0 O36 2.799824 1_555
Na0 O12 2.941188 1_555
Na0 O47 2.941188 1_655
Na0 O11 2.941188 1_555
Na0 O46 3.065404 1_555
Na0 O40 3.065404 1_555
Na0 O33 3.065404 1_555
Na1 O19 2.799824 1_545
Na1 O14 2.799824 1_554
Na1 O4 2.799824 1_455
Na1 O30 2.941188 1_455
Na1 O43 2.941188 1_554
Na1 O9 2.941188 1_545
Na1 O8 3.065404 1_555
Na1 O35 3.065404 1_555
Na1 O45 3.065404 1_555
Na2 O20 2.855021 1_555
Na2 O6 2.855021 1_555
Na2 O10 2.855021 1_555
Na3 O13 2.855021 1_555
Na3 O44 2.855021 1_555
Na3 O24 2.855021 1_555
Na4 O31 2.799824 1_555
Na4 O41 2.799824 1_556
Na4 O39 2.799824 1_555
Na4 O42 2.941188 1_555
Na4 O32 2.941188 1_556
Na4 O15 2.941188 1_555
Na4 O7 3.065404 1_555
Na4 O34 3.065404 1_555
Na4 O22 3.065404 1_555
Na5 O27 2.855021 1_555
Na5 O0 2.855021 1_555
Na5 O5 2.855021 1_555
Na6 O2 2.855021 1_555
Na6 O28 2.855021 1_555
Na6 O25 2.855021 1_555
Na7 O23 2.799824 1_555
Na7 O26 2.799824 1_565
Na7 O1 2.799824 1_555
Na7 O18 2.941188 1_555
Na7 O16 2.941188 1_565
Na7 O21 2.941188 1_555
Na7 O37 3.065404 1_555
Na7 O29 3.065404 1_555
Na7 O3 3.065404 1_555
Fe0 O39 1.974571 1_555
Fe0 O26 1.974571 1_555
Fe0 O14 1.974571 1_555
Fe0 O16 2.001664 1_555
Fe0 O42 2.001664 1_555
Fe0 O43 2.001664 1_555
Fe1 O1 1.974571 1_555
Fe1 O38 1.974571 1_555
Fe1 O19 1.974571 1_555
Fe1 O47 2.001664 1_555
Fe1 O18 2.001664 1_555
Fe1 O9 2.001664 1_555
Fe2 O31 1.974571 1_555
Fe2 O17 1.974571 1_555
Fe2 O23 1.974571 1_555
Fe2 O11 2.001664 1_555
Fe2 O21 2.001664 1_555
Fe2 O15 2.001664 1_555
Fe3 O36 1.974571 1_555
Fe3 O41 1.974571 1_555
Fe3 O4 1.974571 1_555
Fe3 O32 2.001664 1_555
Fe3 O12 2.001664 1_555
Fe3 O30 2.001664 1_555
O0 P9 1.563654 1_555
O0 Ti0 2.003856 1_555
O1 P10 1.522176 1_555
O2 P4 1.563654 1_555
O2 Ti1 2.003856 1_565
O3 P5 1.570621 1_555
O3 Ti3 1.945390 1_555
O4 P7 1.522176 1_555
O5 P8 1.563654 1_555
O5 Ti3 2.003856 1_554
O6 P7 1.563654 1_555
O6 Ti1 2.003856 1_555
O7 P2 1.570621 1_545
O7 Ti1 1.945390 1_555
O8 P11 1.570621 1_555
O8 Ti2 1.945390 1_555
O9 P7 1.530726 1_465
O10 P6 1.563654 1_555
O10 Ti0 2.003856 1_545
O11 P0 1.530726 1_555
O12 P8 1.530726 1_655
O13 P5 1.563654 1_555
O13 Ti2 2.003856 1_555
O14 P3 1.522176 1_555
O15 P5 1.530726 1_555
O16 P2 1.530726 1_545
O17 P4 1.522176 1_555
O18 P11 1.530726 1_565
O19 P9 1.522176 1_555
O20 P0 1.563654 1_555
O20 Ti2 2.003856 1_555
O21 P10 1.530726 1_555
O22 P0 1.570621 1_555
O22 Ti1 1.945390 1_555
O23 P2 1.522176 1_555
O24 P11 1.563654 1_555
O24 Ti1 2.003856 1_455
O25 P1 1.563654 1_555
O25 Ti3 2.003856 1_655
O26 P11 1.522176 1_555
O27 P10 1.563654 1_555
O27 Ti2 2.003856 1_555
O28 P2 1.563654 1_555
O28 Ti0 2.003856 1_556
O29 P9 1.570621 1_556
O29 Ti3 1.945390 1_555
O30 P3 1.530726 1_654
O31 P1 1.522176 1_555
O32 P1 1.530726 1_554
O33 P10 1.570621 1_555
O33 Ti0 1.945390 1_555
O34 P3 1.570621 1_655
O34 Ti1 1.945390 1_555
O35 P8 1.570621 1_555
O35 Ti2 1.945390 1_555
O36 P0 1.522176 1_555
O37 P4 1.570621 1_455
O37 Ti3 1.945390 1_555
O38 P8 1.522176 1_555
O39 P5 1.522176 1_555
O40 P7 1.570621 1_565
O40 Ti0 1.945390 1_555
O41 P6 1.522176 1_555
O42 P6 1.530726 1_556
O43 P9 1.530726 1_546
O44 P3 1.563654 1_555
O44 Ti3 2.003856 1_555
O45 P6 1.570621 1_555
O45 Ti2 1.945390 1_555
O46 P1 1.570621 1_554
O46 Ti0 1.945390 1_555
O47 P4 1.530726 1_455
