# generated using pymatgen
data_Y(Sn3Ru2)2
_symmetry_space_group_name_H-M   'P 1'
_cell_length_a   6.87240032
_cell_length_b   6.87240011
_cell_length_c   6.90752402
_cell_angle_alpha   119.83193575
_cell_angle_beta   119.83194405
_cell_angle_gamma   89.99999643
_symmetry_Int_Tables_number   1
_chemical_formula_structural   Y(Sn3Ru2)2
_chemical_formula_sum   'Y1 Sn6 Ru4'
_cell_volume   231.85468313
_cell_formula_units_Z   1
loop_
 _symmetry_equiv_pos_site_id
 _symmetry_equiv_pos_as_xyz
  1  'x, y, z'
loop_
 _atom_site_type_symbol
 _atom_site_label
 _atom_site_symmetry_multiplicity
 _atom_site_fract_x
 _atom_site_fract_y
 _atom_site_fract_z
 _atom_site_occupancy
  Y  Y0  1  0.00000000  0.00000000  0.00000000  1
  Sn  Sn0  1  0.53186520  0.88075613  0.41262133  1
  Sn  Sn1  1  0.88075613  0.53186520  0.41262133  1
  Sn  Sn2  1  0.11924387  0.11924387  0.58737867  1
  Sn  Sn3  1  0.50000000  0.00000000  0.00000000  1
  Sn  Sn4  1  0.46813480  0.46813480  0.58737867  1
  Sn  Sn5  1  0.00000000  0.50000000  0.00000000  1
  Ru  Ru0  1  0.59666215  0.24859163  0.84525578  1
  Ru  Ru1  1  0.40333785  0.40333785  0.15474422  1
  Ru  Ru2  1  0.24859163  0.59666215  0.84525578  1
  Ru  Ru3  1  0.75140837  0.75140837  0.15474422  1
loop_
_geom_bond_atom_site_label_1
_geom_bond_atom_site_label_2
_geom_bond_distance
_geom_bond_site_symmetry_2
Sn0 Y0 3.344995 1_666
Sn0 Y0 3.756912 1_565
Sn1 Y0 3.344995 1_666
Sn1 Y0 3.756912 1_655
Sn2 Y0 3.344995 1_555
Sn2 Y0 3.756912 1_556
Sn3 Y0 3.436200 1_655
Sn3 Y0 3.436200 1_555
Sn4 Y0 3.344995 1_555
Sn4 Y0 3.756912 1_666
Sn5 Y0 3.436200 1_555
Sn5 Y0 3.436200 1_565
Ru0 Sn0 2.584430 1_545
Ru0 Sn3 2.650632 1_556
Ru0 Sn5 2.650650 1_656
Ru0 Sn2 2.708895 1_555
Ru0 Sn4 2.708907 1_555
Ru0 Sn1 2.785239 1_556
Ru0 Y0 3.257868 1_656
Ru1 Sn4 2.584435 1_555
Ru1 Sn5 2.650643 1_555
Ru1 Sn3 2.650644 1_555
Ru1 Sn1 2.708895 1_555
Ru1 Sn0 2.708895 1_555
Ru1 Sn2 2.785239 1_554
Ru1 Y0 3.257877 1_555
Ru2 Sn1 2.584430 1_455
Ru2 Sn5 2.650632 1_556
Ru2 Sn3 2.650650 1_566
Ru2 Sn2 2.708895 1_555
Ru2 Sn4 2.708907 1_555
Ru2 Sn0 2.785239 1_556
Ru2 Y0 3.257868 1_566
Ru3 Sn2 2.584424 1_665
Ru3 Sn3 2.650638 1_565
Ru3 Sn5 2.650638 1_655
Ru3 Sn1 2.708907 1_555
Ru3 Sn0 2.708907 1_555
Ru3 Sn4 2.785239 1_554
Ru3 Y0 3.257859 1_665
