# generated using pymatgen
data_K3Yb(SO4)3
_symmetry_space_group_name_H-M   'P 1'
_cell_length_a   9.62654842
_cell_length_b   9.62654842
_cell_length_c   9.55056960
_cell_angle_alpha   71.31481080
_cell_angle_beta   71.31481080
_cell_angle_gamma   111.27118391
_symmetry_Int_Tables_number   1
_chemical_formula_structural   K3Yb(SO4)3
_chemical_formula_sum   'K6 Yb2 S6 O24'
_cell_volume   679.04483749
_cell_formula_units_Z   2
loop_
 _symmetry_equiv_pos_site_id
 _symmetry_equiv_pos_as_xyz
  1  'x, y, z'
loop_
 _atom_site_type_symbol
 _atom_site_label
 _atom_site_symmetry_multiplicity
 _atom_site_fract_x
 _atom_site_fract_y
 _atom_site_fract_z
 _atom_site_occupancy
  K  K0  1  0.07701400  0.57529800  0.63316800  1
  K  K1  1  0.57529800  0.07701400  0.13316800  1
  K  K2  1  0.78292000  0.68256800  0.97268200  1
  K  K3  1  0.68256800  0.78292000  0.47268200  1
  K  K4  1  0.18300000  0.19982300  0.30740200  1
  K  K5  1  0.19982300  0.18300000  0.80740200  1
  Yb  Yb0  1  0.64451200  0.34736300  0.50811000  1
  Yb  Yb1  1  0.34736300  0.64451200  0.00811000  1
  S  S0  1  0.00326300  0.32127500  0.10045700  1
  S  S1  1  0.71112900  0.02802900  0.68671800  1
  S  S2  1  0.43125900  0.56405100  0.35760900  1
  S  S3  1  0.02802900  0.71112900  0.18671800  1
  S  S4  1  0.56405100  0.43125900  0.85760900  1
  S  S5  1  0.32127500  0.00326300  0.60045700  1
  O  O0  1  0.52558800  0.56752100  0.86860300  1
  O  O1  1  0.66043500  0.26380300  0.29482500  1
  O  O2  1  0.42789900  0.97724700  0.47029300  1
  O  O3  1  0.91498900  0.60305000  0.37623000  1
  O  O4  1  0.60305000  0.91498900  0.87623000  1
  O  O5  1  0.26380300  0.66043500  0.79482500  1
  O  O6  1  0.41557700  0.54887000  0.21072600  1
  O  O7  1  0.15386900  0.83682900  0.72684800  1
  O  O8  1  0.41401000  0.06283300  0.68802500  1
  O  O9  1  0.26529900  0.44140600  0.51682700  1
  O  O10  1  0.83682900  0.15386900  0.22684800  1
  O  O11  1  0.44140600  0.26529900  0.01682700  1
  O  O12  1  0.99410000  0.84855500  0.11311000  1
  O  O13  1  0.06283300  0.41401000  0.18802500  1
  O  O14  1  0.74309200  0.48927400  0.82267900  1
  O  O15  1  0.84855500  0.99410000  0.61311000  1
  O  O16  1  0.56752100  0.52558800  0.36860300  1
  O  O17  1  0.28277300  0.13414600  0.52274500  1
  O  O18  1  0.97724700  0.42789900  0.97029300  1
  O  O19  1  0.21230400  0.77302600  0.13294400  1
  O  O20  1  0.13414600  0.28277300  0.02274500  1
  O  O21  1  0.77302600  0.21230400  0.63294400  1
  O  O22  1  0.48927400  0.74309200  0.32267900  1
  O  O23  1  0.54887000  0.41557700  0.71072600  1
loop_
_geom_bond_atom_site_label_1
_geom_bond_atom_site_label_2
_geom_bond_distance
_geom_bond_site_symmetry_2
K0 O18 2.721231 1_455
K0 O9 2.739247 1_555
K0 O14 2.770399 1_455
K0 O5 2.794449 1_555
K0 O7 2.863964 1_555
K0 O3 3.295526 1_455
K1 O2 2.721231 1_545
K1 O11 2.739247 1_555
K1 O22 2.770399 1_545
K1 O1 2.794449 1_555
K1 O10 2.863964 1_555
K1 O4 3.295526 1_544
K2 O14 2.684051 1_555
K2 O0 2.940025 1_555
K2 O6 3.000304 1_556
K2 O7 3.002641 1_655
K2 O12 3.041044 1_556
K2 O16 3.150024 1_556
K3 O22 2.684051 1_555
K3 O16 2.940025 1_555
K3 O23 3.000304 1_555
K3 O10 3.002641 1_565
K3 O15 3.041044 1_555
K3 O0 3.150024 1_555
K4 O17 2.534790 1_555
K4 O11 2.757731 1_555
K4 O20 2.819669 1_555
K4 O13 2.821137 1_555
K4 O6 2.895654 1_555
K4 O15 2.908273 1_445
K5 O20 2.534790 1_556
K5 O9 2.757731 1_555
K5 O17 2.819669 1_555
K5 O8 2.821137 1_555
K5 O23 2.895654 1_555
K5 O12 2.908273 1_446
O0 S4 1.511457 1_555
O0 Yb1 2.314907 1_556
O1 Yb0 2.399826 1_555
O2 S5 1.493349 1_565
O3 S3 1.500842 1_655
O3 Yb0 2.384669 1_555
O4 S1 1.500842 1_565
O4 Yb1 2.384669 1_556
O5 Yb1 2.399826 1_556
O6 S2 1.504354 1_555
O6 Yb1 2.266010 1_555
O7 S5 1.504046 1_565
O8 S5 1.496482 1_555
O8 Yb0 2.347371 1_555
O9 S2 1.477538 1_555
O10 S0 1.504046 1_655
O11 S4 1.477538 1_554
O12 S3 1.488552 1_655
O13 S0 1.496482 1_555
O13 Yb1 2.347371 1_555
O14 S4 1.485804 1_555
O15 S1 1.488552 1_565
O16 S2 1.511457 1_555
O16 Yb0 2.314907 1_555
O17 S5 1.480414 1_555
O18 S0 1.493349 1_656
O19 S3 1.489596 1_555
O19 Yb1 2.400266 1_555
O20 S0 1.480414 1_555
O21 S1 1.489596 1_555
O21 Yb0 2.400266 1_555
O22 S2 1.485804 1_555
O23 S4 1.504354 1_555
O23 Yb0 2.266010 1_555
