# generated using pymatgen
data_YbFeGe
_symmetry_space_group_name_H-M   'P 1'
_cell_length_a   5.69080160
_cell_length_b   5.69080160
_cell_length_c   7.14486319
_cell_angle_alpha   55.05360428
_cell_angle_beta   55.05360428
_cell_angle_gamma   40.52220405
_symmetry_Int_Tables_number   1
_chemical_formula_structural   YbFeGe
_chemical_formula_sum   'Yb2 Fe2 Ge2'
_cell_volume   119.06332823
_cell_formula_units_Z   2
loop_
 _symmetry_equiv_pos_site_id
 _symmetry_equiv_pos_as_xyz
  1  'x, y, z'
loop_
 _atom_site_type_symbol
 _atom_site_label
 _atom_site_symmetry_multiplicity
 _atom_site_fract_x
 _atom_site_fract_y
 _atom_site_fract_z
 _atom_site_occupancy
  Yb  Yb0  1  0.44477900  0.44477900  0.79193200  1
  Yb  Yb1  1  0.55522100  0.55522100  0.20806800  1
  Fe  Fe0  1  0.77864800  0.77864800  0.57530400  1
  Fe  Fe1  1  0.22135200  0.22135200  0.42469600  1
  Ge  Ge0  1  0.84268800  0.84268800  0.18727000  1
  Ge  Ge1  1  0.15731200  0.15731200  0.81273000  1
loop_
_geom_bond_atom_site_label_1
_geom_bond_atom_site_label_2
_geom_bond_distance
_geom_bond_site_symmetry_2
Fe0 Ge1 2.399173 1_655
Fe0 Ge1 2.399173 1_565
Fe0 Ge0 2.416400 1_555
Fe0 Fe1 2.493961 1_565
Fe0 Fe1 2.493961 1_655
Fe0 Yb0 2.892357 1_555
Fe0 Yb1 3.166500 1_565
Fe0 Yb1 3.166500 1_655
Fe0 Yb0 3.574719 1_655
Fe0 Yb0 3.574719 1_565
Fe0 Yb1 3.599971 1_556
Fe1 Ge0 2.399173 1_545
Fe1 Ge0 2.399173 1_455
Fe1 Ge1 2.416400 1_555
Fe1 Yb1 2.892357 1_555
Fe1 Yb0 3.166500 1_455
Fe1 Yb0 3.166500 1_545
Fe1 Yb1 3.574719 1_545
Fe1 Yb1 3.574719 1_455
Fe1 Yb0 3.599971 1_554
Ge0 Ge1 2.732821 1_664
Ge0 Yb1 2.980979 1_555
Ge0 Yb0 3.048029 1_654
Ge0 Yb0 3.048029 1_564
Ge0 Yb1 3.076896 1_655
Ge0 Yb1 3.076896 1_565
Ge1 Yb0 2.980979 1_555
Ge1 Yb1 3.048029 1_546
Ge1 Yb1 3.048029 1_456
Ge1 Yb0 3.076896 1_455
Ge1 Yb0 3.076896 1_545
