# generated using pymatgen
data_Li3As7
_symmetry_space_group_name_H-M   'P 1'
_cell_length_a   12.66034600
_cell_length_b   12.74559100
_cell_length_c   22.88236900
_cell_angle_alpha   90.00000000
_cell_angle_beta   90.00000000
_cell_angle_gamma   90.00000000
_symmetry_Int_Tables_number   1
_chemical_formula_structural   Li3As7
_chemical_formula_sum   'Li48 As112'
_cell_volume   3692.38125610
_cell_formula_units_Z   16
loop_
 _symmetry_equiv_pos_site_id
 _symmetry_equiv_pos_as_xyz
  1  'x, y, z'
loop_
 _atom_site_type_symbol
 _atom_site_label
 _atom_site_symmetry_multiplicity
 _atom_site_fract_x
 _atom_site_fract_y
 _atom_site_fract_z
 _atom_site_occupancy
  Li  Li0  1  0.77981100  0.54278600  0.80575200  1
  Li  Li1  1  0.01313900  0.24667700  0.85126500  1
  Li  Li2  1  0.11934600  0.41921600  0.48154300  1
  Li  Li3  1  0.22018900  0.95721400  0.30575200  1
  Li  Li4  1  0.81693100  0.00440800  0.31520400  1
  Li  Li5  1  0.31693100  0.49559200  0.31520400  1
  Li  Li6  1  0.27981100  0.95721400  0.80575200  1
  Li  Li7  1  0.18306900  0.99559200  0.68479700  1
  Li  Li8  1  0.48686100  0.24667700  0.35126500  1
  Li  Li9  1  0.68306900  0.50440800  0.68479700  1
  Li  Li10  1  0.98686100  0.25332300  0.35126500  1
  Li  Li11  1  0.79948800  0.33494900  0.84827400  1
  Li  Li12  1  0.79948800  0.83494900  0.65172600  1
  Li  Li13  1  0.88065400  0.08078400  0.98154300  1
  Li  Li14  1  0.16323300  0.74623400  0.92571700  1
  Li  Li15  1  0.81693100  0.50440800  0.18479600  1
  Li  Li16  1  0.20051200  0.66505100  0.15172600  1
  Li  Li17  1  0.66323300  0.25376600  0.57428300  1
  Li  Li18  1  0.29948800  0.16505100  0.84827400  1
  Li  Li19  1  0.29948800  0.66505100  0.65172600  1
  Li  Li20  1  0.18306900  0.49559200  0.81520300  1
  Li  Li21  1  0.51313900  0.25332300  0.85126500  1
  Li  Li22  1  0.27981100  0.45721400  0.69424800  1
  Li  Li23  1  0.68306900  0.00440800  0.81520300  1
  Li  Li24  1  0.20051200  0.16505100  0.34827400  1
  Li  Li25  1  0.51313900  0.75332300  0.64873500  1
  Li  Li26  1  0.01313900  0.74667700  0.64873500  1
  Li  Li27  1  0.31693100  0.99559200  0.18479600  1
  Li  Li28  1  0.22018900  0.45721400  0.19424800  1
  Li  Li29  1  0.66323300  0.75376600  0.92571700  1
  Li  Li30  1  0.38065400  0.41921600  0.98154300  1
  Li  Li31  1  0.77981100  0.04278600  0.69424800  1
  Li  Li32  1  0.33676700  0.24623400  0.07428300  1
  Li  Li33  1  0.72018900  0.04278600  0.19424800  1
  Li  Li34  1  0.70051200  0.83494900  0.15172600  1
  Li  Li35  1  0.38065400  0.91921600  0.51845700  1
  Li  Li36  1  0.88065400  0.58078400  0.51845700  1
  Li  Li37  1  0.98686100  0.75332300  0.14873500  1
  Li  Li38  1  0.61934600  0.58078400  0.01845700  1
  Li  Li39  1  0.16323300  0.24623400  0.57428300  1
  Li  Li40  1  0.61934600  0.08078400  0.48154300  1
  Li  Li41  1  0.33676700  0.74623400  0.42571700  1
  Li  Li42  1  0.72018900  0.54278600  0.30575200  1
  Li  Li43  1  0.70051200  0.33494900  0.34827400  1
  Li  Li44  1  0.11934600  0.91921600  0.01845700  1
  Li  Li45  1  0.83676700  0.75376600  0.42571700  1
  Li  Li46  1  0.48686100  0.74667700  0.14873500  1
  Li  Li47  1  0.83676700  0.25376600  0.07428300  1
  As  As0  1  0.15537700  0.85200600  0.21032600  1
  As  As1  1  0.02569300  0.38728000  0.13141700  1
  As  As2  1  0.52569300  0.61272000  0.36858300  1
  As  As3  1  0.64066700  0.37114200  0.77642600  1
  As  As4  1  0.88587200  0.24401400  0.69991600  1
  As  As5  1  0.90899300  0.84388100  0.96212700  1
  As  As6  1  0.98708000  0.01400200  0.78901000  1
  As  As7  1  0.97430700  0.11272000  0.63141700  1
  As  As8  1  0.34875300  0.53182800  0.51072700  1
  As  As9  1  0.08437600  0.23546100  0.69356300  1
  As  As10  1  0.58437600  0.26453900  0.69356300  1
  As  As11  1  0.85933300  0.87114200  0.22357400  1
  As  As12  1  0.48708000  0.48599800  0.78901000  1
  As  As13  1  0.01292000  0.48599800  0.28901000  1
  As  As14  1  0.85506400  0.28488800  0.95459000  1
  As  As15  1  0.52697200  0.44902000  0.31295600  1
  As  As16  1  0.65537700  0.14799400  0.28967400  1
  As  As17  1  0.97430700  0.61272000  0.86858300  1
  As  As18  1  0.47302800  0.05098000  0.81295600  1
  As  As19  1  0.14066700  0.12885800  0.77642600  1
  As  As20  1  0.16767600  0.26263100  0.95525000  1
  As  As21  1  0.84462300  0.14799400  0.78967400  1
  As  As22  1  0.51292000  0.01400200  0.28901000  1
  As  As23  1  0.26193900  0.55415100  0.92333900  1
  As  As24  1  0.51292000  0.51400200  0.21099000  1
  As  As25  1  0.38587200  0.75598600  0.80008400  1
  As  As26  1  0.11412800  0.75598600  0.30008400  1
  As  As27  1  0.83232400  0.23736900  0.45525000  1
  As  As28  1  0.57637300  0.40980500  0.93186900  1
  As  As29  1  0.92362700  0.40980500  0.43186900  1
  As  As30  1  0.02697200  0.55098000  0.18704400  1
  As  As31  1  0.07637300  0.09019500  0.93186900  1
  As  As32  1  0.16767600  0.76263100  0.54475000  1
  As  As33  1  0.42362700  0.09019500  0.43186900  1
  As  As34  1  0.34462300  0.35200600  0.78967400  1
  As  As35  1  0.52697200  0.94902000  0.18704400  1
  As  As36  1  0.21751800  0.96330900  0.91800600  1
  As  As37  1  0.85933300  0.37114200  0.27642600  1
  As  As38  1  0.41562400  0.73546100  0.30643700  1
  As  As39  1  0.23806100  0.05415100  0.07666100  1
  As  As40  1  0.42362700  0.59019500  0.06813100  1
  As  As41  1  0.84875300  0.46817200  0.98927300  1
  As  As42  1  0.35933300  0.62885800  0.22357400  1
  As  As43  1  0.21751800  0.46330900  0.58199400  1
  As  As44  1  0.65124700  0.46817200  0.48927300  1
  As  As45  1  0.98708000  0.51400200  0.71099000  1
  As  As46  1  0.97302800  0.94902000  0.68704400  1
  As  As47  1  0.83232400  0.73736900  0.04475000  1
  As  As48  1  0.61412800  0.74401400  0.30008400  1
  As  As49  1  0.33232400  0.76263100  0.04475000  1
  As  As50  1  0.35933300  0.12885800  0.27642600  1
  As  As51  1  0.40899300  0.65611900  0.96212700  1
  As  As52  1  0.48708000  0.98599800  0.71099000  1
  As  As53  1  0.34462300  0.85200600  0.71032600  1
  As  As54  1  0.23806100  0.55415100  0.42333900  1
  As  As55  1  0.84462300  0.64799400  0.71032600  1
  As  As56  1  0.66767600  0.23736900  0.95525000  1
  As  As57  1  0.15124700  0.53182800  0.01072700  1
  As  As58  1  0.78248200  0.53669100  0.41800600  1
  As  As59  1  0.07637300  0.59019500  0.56813100  1
  As  As60  1  0.66767600  0.73736900  0.54475000  1
  As  As61  1  0.02697200  0.05098000  0.31295600  1
  As  As62  1  0.78248200  0.03669100  0.08199400  1
  As  As63  1  0.85506400  0.78488800  0.54541000  1
  As  As64  1  0.92362700  0.90980500  0.06813100  1
  As  As65  1  0.15124700  0.03182800  0.48927300  1
  As  As66  1  0.38587200  0.25598600  0.69991600  1
  As  As67  1  0.73806100  0.44584900  0.07666100  1
  As  As68  1  0.52569300  0.11272000  0.13141700  1
  As  As69  1  0.26193900  0.05415100  0.57666100  1
  As  As70  1  0.02569300  0.88728000  0.36858300  1
  As  As71  1  0.76193900  0.94584900  0.92333900  1
  As  As72  1  0.47302800  0.55098000  0.68704400  1
  As  As73  1  0.59100700  0.84388100  0.46212700  1
  As  As74  1  0.97302800  0.44902000  0.81295600  1
  As  As75  1  0.91562400  0.76453900  0.30643700  1
  As  As76  1  0.59100700  0.34388100  0.03787300  1
  As  As77  1  0.14493600  0.71511200  0.04541000  1
  As  As78  1  0.73806100  0.94584900  0.42333900  1
  As  As79  1  0.64493600  0.28488800  0.45459000  1
  As  As80  1  0.88587200  0.74401400  0.80008400  1
  As  As81  1  0.64066700  0.87114200  0.72357400  1
  As  As82  1  0.65537700  0.64799400  0.21032600  1
  As  As83  1  0.84875300  0.96817200  0.51072700  1
  As  As84  1  0.76193900  0.44584900  0.57666100  1
  As  As85  1  0.47430700  0.38728000  0.63141700  1
  As  As86  1  0.40899300  0.15611900  0.53787300  1
  As  As87  1  0.08437600  0.73546100  0.80643700  1
  As  As88  1  0.35506400  0.71511200  0.54541000  1
  As  As89  1  0.58437600  0.76453900  0.80643700  1
  As  As90  1  0.64493600  0.78488800  0.04541000  1
  As  As91  1  0.11412800  0.25598600  0.19991600  1
  As  As92  1  0.14066700  0.62885800  0.72357400  1
  As  As93  1  0.34875300  0.03182800  0.98927300  1
  As  As94  1  0.15537700  0.35200600  0.28967400  1
  As  As95  1  0.28248200  0.96330900  0.41800600  1
  As  As96  1  0.91562400  0.26453900  0.19356300  1
  As  As97  1  0.61412800  0.24401400  0.19991600  1
  As  As98  1  0.33232400  0.26263100  0.45525000  1
  As  As99  1  0.57637300  0.90980500  0.56813100  1
  As  As100  1  0.28248200  0.46330900  0.08199400  1
  As  As101  1  0.71751800  0.53669100  0.91800600  1
  As  As102  1  0.71751800  0.03669100  0.58199400  1
  As  As103  1  0.90899300  0.34388100  0.53787300  1
  As  As104  1  0.09100700  0.15611900  0.03787300  1
  As  As105  1  0.14493600  0.21511200  0.45459000  1
  As  As106  1  0.01292000  0.98599800  0.21099000  1
  As  As107  1  0.47430700  0.88728000  0.86858300  1
  As  As108  1  0.09100700  0.65611900  0.46212700  1
  As  As109  1  0.65124700  0.96817200  0.01072700  1
  As  As110  1  0.41562400  0.23546100  0.19356300  1
  As  As111  1  0.35506400  0.21511200  0.95459000  1
loop_
_geom_bond_atom_site_label_1
_geom_bond_atom_site_label_2
_geom_bond_distance
_geom_bond_site_symmetry_2
As0 As26 2.447221 1_555
As0 As106 2.483877 1_555
As0 Li3 2.690613 1_555
As0 Li16 2.793303 1_555
As0 Li27 2.806042 1_555
As0 Li37 2.849553 1_455
As1 As30 2.444129 1_555
As1 As96 2.532087 1_455
As1 As91 2.551604 1_555
As1 Li28 2.987457 1_555
As1 Li47 3.213419 1_455
As2 As38 2.532087 1_555
As2 As48 2.551604 1_555
As2 Li42 2.987457 1_555
As2 Li41 3.213419 1_555
As3 Li11 2.637942 1_555
As3 Li9 2.751249 1_555
As3 Li21 2.791849 1_555
As3 Li0 2.887842 1_555
As4 As9 2.519690 1_655
As4 As7 2.551604 1_555
As4 Li31 2.897912 1_555
As5 As71 2.437820 1_555
As5 As64 2.573708 1_556
As5 Li13 3.072996 1_565
As5 Li44 3.110581 1_656
As7 As9 2.532087 1_655
As7 Li31 2.987457 1_555
As7 Li39 3.213419 1_655
As8 As88 2.468486 1_555
As9 Li39 2.909509 1_555
As10 As3 2.439100 1_555
As10 As66 2.519690 1_555
As10 As85 2.532087 1_555
As10 Li17 2.909509 1_555
As11 As75 2.439100 1_555
As11 Li34 2.637942 1_555
As11 Li4 2.751266 1_565
As11 Li37 2.791849 1_555
As11 Li33 2.887842 1_565
As12 As3 2.450895 1_555
As12 As72 2.482248 1_555
As12 As34 2.483877 1_555
As13 As37 2.450895 1_455
As13 As30 2.482248 1_555
As13 As94 2.483877 1_555
As14 As56 2.448534 1_555
As14 As41 2.468486 1_555
As14 Li11 2.611612 1_555
As14 Li13 2.693095 1_555
As14 Li47 2.777113 1_556
As14 Li1 3.135656 1_655
As15 As2 2.444129 1_555
As15 As24 2.482248 1_555
As15 Li5 2.725123 1_555
As15 Li42 2.727510 1_555
As15 Li43 2.755739 1_555
As15 Li8 2.770822 1_555
As16 As97 2.447221 1_555
As16 As22 2.483877 1_555
As16 Li33 2.690613 1_555
As16 Li43 2.793303 1_555
As16 Li4 2.806042 1_555
As16 Li8 2.849553 1_555
As17 As74 2.444129 1_555
As17 As87 2.532087 1_655
As17 As80 2.551604 1_555
As17 Li0 2.987457 1_555
As17 Li14 3.213419 1_655
As18 As52 2.482248 1_545
As18 Li23 2.725122 1_555
As18 Li6 2.727510 1_545
As18 Li18 2.755739 1_555
As18 Li21 2.770822 1_555
As19 As9 2.439100 1_555
As19 As6 2.450895 1_455
As19 Li18 2.637942 1_555
As19 Li7 2.751249 1_545
As19 Li1 2.791849 1_555
As19 Li6 2.887842 1_545
As20 As31 2.540222 1_555
As20 Li1 3.087210 1_555
As20 Li18 3.213053 1_555
As21 As4 2.447221 1_555
As21 As6 2.483877 1_555
As21 Li31 2.690613 1_555
As21 Li11 2.793303 1_555
As21 Li23 2.806037 1_555
As21 Li1 2.849553 1_655
As22 As50 2.450895 1_555
As22 As35 2.482248 1_545
As23 As51 2.437820 1_555
As23 As57 2.458343 1_556
As23 Li30 2.643963 1_555
As23 Li14 2.749242 1_555
As23 Li20 2.770705 1_555
As24 As42 2.450895 1_555
As24 As82 2.483877 1_555
As25 As53 2.447221 1_555
As25 As89 2.519690 1_555
As25 Li6 2.897912 1_555
As26 As75 2.519690 1_455
As26 As70 2.551604 1_555
As26 Li3 2.897912 1_555
As27 As79 2.448534 1_555
As27 As29 2.540222 1_555
As27 Li10 3.087210 1_555
As27 Li43 3.213053 1_555
As28 As56 2.540222 1_555
As28 As76 2.573708 1_556
As28 Li30 2.728777 1_555
As28 Li21 2.832067 1_555
As28 Li38 2.995118 1_556
As29 As58 2.430896 1_555
As29 Li2 2.728777 1_655
As29 Li10 2.832067 1_555
As29 Li36 2.995118 1_555
As30 Li15 2.725123 1_455
As30 Li28 2.727510 1_555
As30 Li16 2.755739 1_555
As30 Li37 2.770822 1_455
As31 As36 2.430896 1_545
As31 Li13 2.728777 1_455
As31 Li1 2.832067 1_555
As31 Li44 2.995118 1_546
As32 As88 2.448534 1_555
As32 As59 2.540222 1_555
As32 Li26 3.087210 1_555
As32 Li19 3.213053 1_555
As33 As95 2.430896 1_545
As33 As98 2.540222 1_555
As33 As86 2.573708 1_555
As33 Li40 2.728777 1_555
As33 Li8 2.832067 1_555
As33 Li35 2.995118 1_545
As34 As66 2.447221 1_555
As34 Li22 2.690613 1_555
As34 Li18 2.793303 1_555
As34 Li20 2.806037 1_555
As34 Li21 2.849553 1_555
As35 As68 2.444129 1_565
As35 Li27 2.725123 1_555
As35 Li33 2.727510 1_565
As35 Li34 2.755739 1_555
As35 Li46 2.770822 1_555
As36 As93 2.486477 1_565
As36 Li44 2.672822 1_556
As36 Li6 2.688104 1_555
As36 Li14 2.856286 1_555
As37 As96 2.439100 1_555
As37 Li43 2.637942 1_555
As37 Li15 2.751266 1_555
As37 Li10 2.791849 1_555
As37 Li42 2.887842 1_555
As38 As42 2.439100 1_555
As38 As48 2.519690 1_555
As38 Li41 2.909509 1_555
As39 As93 2.458343 1_554
As39 Li44 2.643963 1_545
As39 Li32 2.749242 1_555
As39 Li27 2.770685 1_545
As40 As49 2.540222 1_555
As40 As51 2.573708 1_554
As40 Li38 2.728777 1_555
As40 Li46 2.832067 1_555
As40 Li30 2.995118 1_554
As41 As67 2.458343 1_556
As42 Li16 2.637942 1_555
As42 Li5 2.751266 1_555
As42 Li46 2.791849 1_555
As42 Li28 2.887842 1_555
As43 As59 2.430896 1_555
As43 As8 2.486477 1_555
As43 Li2 2.672822 1_555
As43 Li22 2.688104 1_555
As43 Li39 2.856286 1_555
As44 As84 2.458343 1_555
As44 As79 2.468486 1_555
As44 As58 2.486477 1_555
As45 As92 2.450895 1_655
As45 As74 2.482248 1_555
As45 As55 2.483877 1_555
As46 As7 2.444129 1_565
As46 As6 2.482248 1_565
As46 Li7 2.725122 1_655
As46 Li31 2.727510 1_565
As46 Li12 2.755739 1_555
As46 Li26 2.770822 1_655
As47 As90 2.448534 1_555
As47 As5 2.521814 1_554
As47 As64 2.540222 1_555
As47 Li37 3.087210 1_555
As47 Li34 3.213053 1_555
As48 As82 2.447221 1_555
As48 Li42 2.897912 1_555
As49 As77 2.448534 1_555
As49 As51 2.521814 1_554
As49 Li46 3.087210 1_555
As49 Li16 3.213053 1_555
As50 Li24 2.637942 1_555
As50 Li27 2.751266 1_545
As50 Li8 2.791849 1_555
As50 Li3 2.887842 1_545
As51 Li30 3.072996 1_555
As51 Li38 3.110581 1_556
As52 As81 2.450895 1_555
As52 As53 2.483877 1_555
As53 Li6 2.690613 1_555
As53 Li19 2.793303 1_555
As53 Li7 2.806037 1_555
As53 Li25 2.849553 1_555
As54 As8 2.458343 1_555
As54 Li2 2.643963 1_555
As54 Li41 2.749242 1_555
As54 Li5 2.770685 1_555
As55 As80 2.447221 1_555
As55 Li0 2.690613 1_555
As55 Li12 2.793303 1_555
As55 Li9 2.806037 1_555
As55 Li26 2.849553 1_655
As56 As76 2.521814 1_556
As56 Li21 3.087210 1_555
As56 Li11 3.213053 1_555
As57 As77 2.468486 1_555
As58 Li36 2.672822 1_555
As58 Li42 2.688104 1_555
As58 Li45 2.856286 1_555
As59 Li36 2.728777 1_455
As59 Li26 2.832067 1_555
As59 Li2 2.995118 1_555
As60 As63 2.448534 1_555
As60 As73 2.521814 1_555
As60 As99 2.540222 1_555
As60 Li25 3.087210 1_555
As60 Li12 3.213053 1_555
As61 As70 2.444129 1_545
As61 Li4 2.725123 1_455
As61 Li3 2.727510 1_545
As61 Li24 2.755739 1_555
As61 Li10 2.770822 1_455
As62 As64 2.430896 1_545
As62 Li13 2.672822 1_554
As62 Li33 2.688104 1_555
As62 Li47 2.856286 1_555
As63 As83 2.468486 1_555
As63 Li12 2.611612 1_555
As63 Li36 2.693095 1_555
As63 Li45 2.777113 1_555
As63 Li26 3.135656 1_655
As64 Li44 2.728777 1_655
As64 Li37 2.832067 1_555
As64 Li13 2.995118 1_564
As65 As69 2.458343 1_555
As65 As95 2.486477 1_545
As66 As85 2.551604 1_555
As66 Li22 2.897912 1_555
As67 As76 2.437820 1_555
As67 Li38 2.643963 1_555
As67 Li47 2.749242 1_555
As67 Li15 2.770685 1_555
As68 As97 2.551604 1_555
As68 Li33 2.987457 1_555
As68 Li32 3.213419 1_555
As69 As86 2.437820 1_555
As69 Li35 2.643963 1_545
As69 Li39 2.749242 1_555
As69 Li7 2.770705 1_545
As70 As75 2.532087 1_455
As70 Li3 2.987457 1_555
As70 Li45 3.213419 1_455
As71 Li13 2.643963 1_565
As71 Li29 2.749242 1_555
As71 Li23 2.770705 1_565
As72 As85 2.444129 1_555
As72 Li9 2.725122 1_555
As72 Li22 2.727510 1_555
As72 Li19 2.755739 1_555
As72 Li25 2.770822 1_555
As73 As78 2.437820 1_555
As73 As99 2.573708 1_555
As73 Li40 3.072996 1_565
As73 Li35 3.110581 1_555
As74 Li20 2.725122 1_655
As74 Li0 2.727510 1_555
As74 Li11 2.755739 1_555
As74 Li1 2.770822 1_655
As75 Li45 2.909509 1_555
As76 Li38 3.072996 1_555
As76 Li30 3.110581 1_554
As77 Li16 2.611612 1_555
As77 Li44 2.693095 1_555
As77 Li14 2.777113 1_554
As77 Li37 3.135656 1_455
As78 As83 2.458343 1_555
As78 Li40 2.643963 1_565
As78 Li45 2.749242 1_555
As78 Li4 2.770685 1_565
As79 Li43 2.611612 1_555
As79 Li40 2.693095 1_555
As79 Li17 2.777113 1_555
As79 Li8 3.135656 1_555
As80 As87 2.519690 1_655
As80 Li0 2.897912 1_555
As81 As89 2.439100 1_555
As81 Li12 2.637942 1_555
As81 Li23 2.751249 1_565
As81 Li25 2.791849 1_555
As81 Li31 2.887842 1_565
As82 Li42 2.690613 1_555
As82 Li34 2.793303 1_555
As82 Li15 2.806042 1_555
As82 Li46 2.849553 1_555
As84 Li36 2.643963 1_555
As84 Li17 2.749242 1_555
As84 Li9 2.770705 1_555
As85 Li22 2.987457 1_555
As85 Li17 3.213419 1_555
As86 As98 2.521814 1_555
As86 Li35 3.072996 1_545
As86 Li40 3.110581 1_555
As87 As92 2.439100 1_555
As87 Li14 2.909509 1_555
As88 Li19 2.611612 1_555
As88 Li35 2.693095 1_555
As88 Li41 2.777113 1_555
As88 Li25 3.135656 1_555
As89 Li29 2.909509 1_555
As90 Li34 2.611612 1_555
As90 Li38 2.693095 1_555
As90 Li29 2.777113 1_554
As90 Li46 3.135656 1_555
As91 As94 2.447221 1_555
As91 As96 2.519690 1_455
As91 Li28 2.897912 1_555
As92 Li19 2.637942 1_555
As92 Li20 2.751249 1_555
As92 Li26 2.791849 1_555
As92 Li22 2.887842 1_555
As94 Li28 2.690613 1_555
As94 Li24 2.793303 1_555
As94 Li5 2.806042 1_555
As94 Li10 2.849553 1_455
As95 Li35 2.672822 1_555
As95 Li3 2.688104 1_555
As95 Li41 2.856286 1_555
As96 Li47 2.909509 1_555
As97 Li33 2.897912 1_555
As98 Li8 3.087210 1_555
As98 Li24 3.213053 1_555
As99 Li35 2.728777 1_555
As99 Li25 2.832067 1_555
As99 Li40 2.995118 1_565
As100 As40 2.430896 1_555
As100 As57 2.486477 1_555
As100 Li30 2.672822 1_554
As100 Li28 2.688104 1_555
As100 Li32 2.856286 1_555
As101 As28 2.430896 1_555
As101 As41 2.486477 1_555
As101 Li38 2.672822 1_556
As101 Li0 2.688104 1_555
As101 Li29 2.856286 1_555
As102 As99 2.430896 1_545
As102 As83 2.486477 1_545
As102 Li40 2.672822 1_555
As102 Li31 2.688104 1_555
As102 Li17 2.856286 1_555
As103 As84 2.437820 1_555
As103 As27 2.521814 1_555
As103 As29 2.573708 1_555
As103 Li36 3.072996 1_555
As103 Li2 3.110581 1_655
As104 As39 2.437820 1_555
As104 As20 2.521814 1_554
As104 As31 2.573708 1_554
As104 Li44 3.072996 1_545
As104 Li13 3.110581 1_454
As105 As98 2.448534 1_555
As105 As65 2.468486 1_555
As105 Li24 2.611612 1_555
As105 Li2 2.693095 1_555
As105 Li39 2.777113 1_555
As105 Li10 3.135656 1_455
As106 As11 2.450895 1_455
As106 As61 2.482248 1_565
As107 As18 2.444129 1_565
As107 As89 2.532087 1_555
As107 As25 2.551604 1_555
As107 Li6 2.987457 1_555
As107 Li29 3.213419 1_555
As108 As54 2.437820 1_555
As108 As32 2.521814 1_555
As108 As59 2.573708 1_555
As108 Li2 3.072996 1_555
As108 Li36 3.110581 1_455
As109 As71 2.458343 1_554
As109 As90 2.468486 1_555
As109 As62 2.486477 1_565
As110 As50 2.439100 1_555
As110 As97 2.519690 1_555
As110 As68 2.532087 1_555
As110 Li32 2.909509 1_555
As111 As20 2.448534 1_555
As111 As93 2.468486 1_555
As111 Li18 2.611612 1_555
As111 Li30 2.693095 1_555
As111 Li32 2.777113 1_556
As111 Li21 3.135656 1_555
