# generated using pymatgen
data_SnH2C4O3
_symmetry_space_group_name_H-M   'P 1'
_cell_length_a   11.05284000
_cell_length_b   6.34716300
_cell_length_c   11.65852720
_cell_angle_alpha   63.57451331
_cell_angle_beta   90.00000000
_cell_angle_gamma   90.00000000
_symmetry_Int_Tables_number   1
_chemical_formula_structural   SnH2C4O3
_chemical_formula_sum   'Sn4 H8 C16 O12'
_cell_volume   732.43577636
_cell_formula_units_Z   4
loop_
 _symmetry_equiv_pos_site_id
 _symmetry_equiv_pos_as_xyz
  1  'x, y, z'
loop_
 _atom_site_type_symbol
 _atom_site_label
 _atom_site_symmetry_multiplicity
 _atom_site_fract_x
 _atom_site_fract_y
 _atom_site_fract_z
 _atom_site_occupancy
  Sn  Sn0  1  0.74943300  0.19202900  0.23344500  1
  Sn  Sn1  1  0.75056700  0.19202900  0.73344500  1
  Sn  Sn2  1  0.25056700  0.80797100  0.76655500  1
  Sn  Sn3  1  0.24943300  0.80797100  0.26655500  1
  H  H0  1  0.94080900  0.93292800  0.42357400  1
  H  H1  1  0.55919100  0.93292800  0.92357400  1
  H  H2  1  0.05919100  0.06707200  0.57642600  1
  H  H3  1  0.44080900  0.06707200  0.07642600  1
  H  H4  1  0.96405500  0.20282200  0.39079000  1
  H  H5  1  0.53594500  0.20282200  0.89079000  1
  H  H6  1  0.03594500  0.79717800  0.60921000  1
  H  H7  1  0.46405500  0.79717800  0.10921000  1
  C  C0  1  0.54665200  0.47191900  0.05465600  1
  C  C1  1  0.95334800  0.47191900  0.55465600  1
  C  C2  1  0.45334800  0.52808100  0.94534400  1
  C  C3  1  0.04665200  0.52808100  0.44534400  1
  C  C4  1  0.86262800  0.47778800  0.09183000  1
  C  C5  1  0.63737200  0.47778800  0.59183000  1
  C  C6  1  0.13737200  0.52221200  0.90817000  1
  C  C7  1  0.36262800  0.52221200  0.40817000  1
  C  C8  1  0.77142900  0.83927100  0.24482600  1
  C  C9  1  0.72857100  0.83927100  0.74482600  1
  C  C10  1  0.22857100  0.16072900  0.75517400  1
  C  C11  1  0.27142900  0.16072900  0.25517400  1
  C  C12  1  0.63343900  0.22793200  0.37827200  1
  C  C13  1  0.86656100  0.22793200  0.87827200  1
  C  C14  1  0.36656100  0.77206800  0.62172800  1
  C  C15  1  0.13343900  0.77206800  0.12172800  1
  O  O0  1  0.59494400  0.26788800  0.09537500  1
  O  O1  1  0.90505600  0.26788800  0.59537500  1
  O  O2  1  0.40505600  0.73211200  0.90462500  1
  O  O3  1  0.09494400  0.73211200  0.40462500  1
  O  O4  1  0.56869300  0.62187100  0.09352100  1
  O  O5  1  0.93130700  0.62187100  0.59352100  1
  O  O6  1  0.43130700  0.37812900  0.90647900  1
  O  O7  1  0.06869300  0.37812900  0.40647900  1
  O  O8  1  0.90856600  0.09292200  0.37630100  1
  O  O9  1  0.59143400  0.09292200  0.87630100  1
  O  O10  1  0.09143400  0.90707800  0.62369900  1
  O  O11  1  0.40856600  0.90707800  0.12369900  1
loop_
_geom_bond_atom_site_label_1
_geom_bond_atom_site_label_2
_geom_bond_distance
_geom_bond_site_symmetry_2
H0 O8 0.981762 1_565
H1 O9 0.981762 1_565
H2 O10 0.981762 1_545
H3 O11 0.981762 1_545
H4 O8 0.998069 1_555
H4 O7 1.670423 1_655
H5 O9 0.998069 1_555
H5 O6 1.670423 1_555
H6 O10 0.998069 1_555
H6 O5 1.670423 1_455
H7 O11 0.998069 1_555
H7 O4 1.670423 1_555
C0 O4 1.246743 1_555
C0 O0 1.280682 1_555
C1 O5 1.246743 1_555
C1 O1 1.280682 1_555
C2 O6 1.246743 1_555
C2 O2 1.280682 1_555
C3 O7 1.246743 1_555
C3 O3 1.280682 1_555
C4 Sn0 2.217105 1_555
C5 Sn1 2.217105 1_555
C6 Sn2 2.217105 1_555
C7 Sn3 2.217105 1_555
C8 Sn0 2.196694 1_565
C9 Sn1 2.196694 1_565
C10 Sn2 2.196694 1_545
C11 Sn3 2.196694 1_545
C12 Sn0 2.211113 1_555
C13 Sn1 2.211113 1_555
C14 Sn2 2.211113 1_555
C15 Sn3 2.211113 1_555
O0 Sn0 2.246953 1_555
O1 Sn1 2.246953 1_555
O2 Sn2 2.246953 1_555
O3 Sn3 2.246953 1_555
O8 Sn0 2.308829 1_555
O9 Sn1 2.308829 1_555
O10 Sn2 2.308829 1_555
O11 Sn3 2.308829 1_555
