# generated using pymatgen
data_CuAgPO4
_symmetry_space_group_name_H-M   'P 1'
_cell_length_a   5.77081700
_cell_length_b   7.62298800
_cell_length_c   15.95047600
_cell_angle_alpha   90.00000000
_cell_angle_beta   90.00000000
_cell_angle_gamma   90.00000000
_symmetry_Int_Tables_number   1
_chemical_formula_structural   CuAgPO4
_chemical_formula_sum   'Cu8 Ag8 P8 O32'
_cell_volume   701.67529608
_cell_formula_units_Z   8
loop_
 _symmetry_equiv_pos_site_id
 _symmetry_equiv_pos_as_xyz
  1  'x, y, z'
loop_
 _atom_site_type_symbol
 _atom_site_label
 _atom_site_symmetry_multiplicity
 _atom_site_fract_x
 _atom_site_fract_y
 _atom_site_fract_z
 _atom_site_occupancy
  Cu  Cu0  1  0.88489200  0.82055400  0.47153800  1
  Cu  Cu1  1  0.38489200  0.82055400  0.02846200  1
  Cu  Cu2  1  0.61510800  0.17944600  0.97153800  1
  Cu  Cu3  1  0.38489200  0.67944600  0.52846200  1
  Cu  Cu4  1  0.11510800  0.32055400  0.02846200  1
  Cu  Cu5  1  0.88489200  0.67944600  0.97153800  1
  Cu  Cu6  1  0.11510800  0.17944600  0.52846200  1
  Cu  Cu7  1  0.61510800  0.32055400  0.47153800  1
  Ag  Ag0  1  0.12454400  0.83510400  0.71463600  1
  Ag  Ag1  1  0.87545600  0.33510400  0.78536400  1
  Ag  Ag2  1  0.62454400  0.83510400  0.78536400  1
  Ag  Ag3  1  0.37545600  0.16489600  0.21463600  1
  Ag  Ag4  1  0.12454400  0.66489600  0.21463600  1
  Ag  Ag5  1  0.87545600  0.16489600  0.28536400  1
  Ag  Ag6  1  0.62454400  0.66489600  0.28536400  1
  Ag  Ag7  1  0.37545600  0.33510400  0.71463600  1
  P  P0  1  0.39956600  0.97416100  0.38954800  1
  P  P1  1  0.39956600  0.52583900  0.88954800  1
  P  P2  1  0.10043400  0.47416100  0.38954800  1
  P  P3  1  0.89956600  0.52583900  0.61045200  1
  P  P4  1  0.89956600  0.97416100  0.11045200  1
  P  P5  1  0.60043400  0.47416100  0.11045200  1
  P  P6  1  0.60043400  0.02583900  0.61045200  1
  P  P7  1  0.10043400  0.02583900  0.88954800  1
  O  O0  1  0.44797000  0.32509300  0.06887800  1
  O  O1  1  0.17571200  0.99693400  0.44410800  1
  O  O2  1  0.96162400  0.85044700  0.88460200  1
  O  O3  1  0.33750600  0.58434400  0.79946900  1
  O  O4  1  0.32428800  0.49693400  0.44410800  1
  O  O5  1  0.94797000  0.32509300  0.43112200  1
  O  O6  1  0.94797000  0.17490700  0.93112200  1
  O  O7  1  0.53837600  0.14955300  0.38460200  1
  O  O8  1  0.66249400  0.08434400  0.70053100  1
  O  O9  1  0.55203000  0.67490700  0.93112200  1
  O  O10  1  0.46162400  0.85044700  0.61539800  1
  O  O11  1  0.83750600  0.58434400  0.70053100  1
  O  O12  1  0.82428800  0.00306600  0.55589200  1
  O  O13  1  0.16249400  0.41565600  0.29946900  1
  O  O14  1  0.05203000  0.67490700  0.56887800  1
  O  O15  1  0.67571200  0.50306600  0.55589200  1
  O  O16  1  0.82428800  0.49693400  0.05589200  1
  O  O17  1  0.16249400  0.08434400  0.79946900  1
  O  O18  1  0.05203000  0.82509300  0.06887800  1
  O  O19  1  0.96162400  0.64955300  0.38460200  1
  O  O20  1  0.55203000  0.82509300  0.43112200  1
  O  O21  1  0.03837600  0.35044700  0.61539800  1
  O  O22  1  0.53837600  0.35044700  0.88460200  1
  O  O23  1  0.17571200  0.50306600  0.94410800  1
  O  O24  1  0.33750600  0.91565600  0.29946900  1
  O  O25  1  0.46162400  0.64955300  0.11539800  1
  O  O26  1  0.83750600  0.91565600  0.20053100  1
  O  O27  1  0.66249400  0.41565600  0.20053100  1
  O  O28  1  0.44797000  0.17490700  0.56887800  1
  O  O29  1  0.03837600  0.14955300  0.11539800  1
  O  O30  1  0.32428800  0.00306600  0.94410800  1
  O  O31  1  0.67571200  0.99693400  0.05589200  1
loop_
_geom_bond_atom_site_label_1
_geom_bond_atom_site_label_2
_geom_bond_distance
_geom_bond_site_symmetry_2
Cu0 O19 1.954008 1_555
Cu0 O12 1.966806 1_565
Cu0 O20 2.026469 1_555
Cu0 O14 2.138602 1_655
Cu0 O1 2.194495 1_655
Cu1 O25 1.954008 1_555
Cu1 O30 1.966806 1_564
Cu1 O18 2.026469 1_555
Cu1 O9 2.138602 1_554
Cu1 O31 2.194495 1_555
Cu2 O22 1.954008 1_555
Cu2 O31 1.966806 1_546
Cu2 O6 2.026469 1_555
Cu2 O0 2.138602 1_556
Cu2 O30 2.194495 1_555
Cu3 O10 1.954008 1_555
Cu3 O4 1.966806 1_555
Cu3 O14 2.026469 1_555
Cu3 O20 2.138602 1_555
Cu3 O15 2.194495 1_555
Cu4 O29 1.954008 1_555
Cu4 O23 1.966806 1_554
Cu4 O0 2.026469 1_555
Cu4 O6 2.138602 1_454
Cu4 O16 2.194495 1_455
Cu5 O2 1.954008 1_555
Cu5 O16 1.966806 1_556
Cu5 O9 2.026469 1_555
Cu5 O18 2.138602 1_656
Cu5 O23 2.194495 1_655
Cu6 O21 1.954008 1_555
Cu6 O1 1.966806 1_545
Cu6 O28 2.026469 1_555
Cu6 O5 2.138602 1_455
Cu6 O12 2.194495 1_455
Cu7 O7 1.954008 1_555
Cu7 O15 1.966806 1_555
Cu7 O5 2.026469 1_555
Cu7 O28 2.138602 1_555
Cu7 O4 2.194495 1_555
Ag0 O17 2.342805 1_565
Ag0 O10 2.510605 1_555
Ag0 O11 2.539372 1_455
Ag0 O3 2.644862 1_555
Ag0 O14 2.659247 1_555
Ag1 O11 2.342805 1_555
Ag1 O22 2.510605 1_555
Ag1 O17 2.539372 1_655
Ag1 O8 2.644862 1_555
Ag1 O6 2.659247 1_555
Ag2 O8 2.342805 1_565
Ag2 O2 2.510605 1_555
Ag2 O3 2.539372 1_555
Ag2 O11 2.644862 1_555
Ag2 O9 2.659247 1_555
Ag3 O24 2.342805 1_545
Ag3 O29 2.510605 1_555
Ag3 O27 2.539372 1_555
Ag3 O13 2.644862 1_555
Ag3 O0 2.659247 1_555
Ag4 O13 2.342805 1_555
Ag4 O25 2.510605 1_555
Ag4 O26 2.539372 1_455
Ag4 O24 2.644862 1_555
Ag4 O18 2.659247 1_555
Ag5 O26 2.342805 1_545
Ag5 O7 2.510605 1_555
Ag5 O13 2.539372 1_655
Ag5 O27 2.644862 1_555
Ag5 O5 2.659247 1_555
Ag6 O27 2.342805 1_555
Ag6 O19 2.510605 1_555
Ag6 O24 2.539372 1_555
Ag6 O26 2.644862 1_555
Ag6 O20 2.659247 1_555
Ag7 O3 2.342805 1_555
Ag7 O21 2.510605 1_555
Ag7 O8 2.539372 1_555
Ag7 O17 2.644862 1_555
Ag7 O28 2.659247 1_555
O0 P5 1.582761 1_555
O1 P0 1.567254 1_555
O2 P7 1.560609 1_665
O3 P1 1.546469 1_555
O4 P2 1.567254 1_555
O5 P2 1.582761 1_655
O6 P7 1.582761 1_655
O7 P0 1.560609 1_545
O8 P6 1.546469 1_555
O9 P1 1.582761 1_555
O10 P6 1.560609 1_565
O11 P3 1.546469 1_555
O12 P6 1.567254 1_555
O13 P2 1.546469 1_555
O14 P3 1.582761 1_455
O15 P3 1.567254 1_555
O16 P5 1.567254 1_555
O17 P7 1.546469 1_555
O18 P4 1.582761 1_455
O19 P2 1.560609 1_655
O20 P0 1.582761 1_555
O21 P3 1.560609 1_455
O22 P1 1.560609 1_555
O23 P1 1.567254 1_555
O24 P0 1.546469 1_555
O25 P5 1.560609 1_555
O26 P4 1.546469 1_555
O27 P5 1.546469 1_555
O28 P6 1.582761 1_555
O29 P4 1.560609 1_445
O30 P7 1.567254 1_555
O31 P4 1.567254 1_555
