# generated using pymatgen
data_Tl2Cl3
_symmetry_space_group_name_H-M   'P 1'
_cell_length_a   13.12115474
_cell_length_b   15.19630233
_cell_length_c   25.21376802
_cell_angle_alpha   90.00000000
_cell_angle_beta   90.00000000
_cell_angle_gamma   90.00000000
_symmetry_Int_Tables_number   1
_chemical_formula_structural   Tl2Cl3
_chemical_formula_sum   'Tl64 Cl96'
_cell_volume   5027.44971285
_cell_formula_units_Z   32
loop_
 _symmetry_equiv_pos_site_id
 _symmetry_equiv_pos_as_xyz
  1  'x, y, z'
loop_
 _atom_site_type_symbol
 _atom_site_label
 _atom_site_symmetry_multiplicity
 _atom_site_fract_x
 _atom_site_fract_y
 _atom_site_fract_z
 _atom_site_occupancy
  Tl  Tl0  1  0.25666325  0.92018720  0.66438808  1
  Tl  Tl1  1  0.22933412  0.39538459  0.65949736  1
  Tl  Tl2  1  0.42344708  0.12980409  0.25000000  1
  Tl  Tl3  1  0.24771436  0.39124720  0.00432088  1
  Tl  Tl4  1  0.42443178  0.11972731  0.44306966  1
  Tl  Tl5  1  0.59050789  0.36091929  0.52565159  1
  Tl  Tl6  1  0.75666325  0.57981280  0.83561192  1
  Tl  Tl7  1  0.74771436  0.10875280  0.00432088  1
  Tl  Tl8  1  0.07655292  0.62980409  0.75000000  1
  Tl  Tl9  1  0.75228564  0.60875280  0.99567912  1
  Tl  Tl10  1  0.92443178  0.38027269  0.05693034  1
  Tl  Tl11  1  0.08793214  0.13085003  0.75000000  1
  Tl  Tl12  1  0.58237150  0.35684731  0.16122559  1
  Tl  Tl13  1  0.90949211  0.86091929  0.02565159  1
  Tl  Tl14  1  0.24771436  0.39124720  0.49567912  1
  Tl  Tl15  1  0.57556822  0.88027269  0.94306966  1
  Tl  Tl16  1  0.57556822  0.88027269  0.55693034  1
  Tl  Tl17  1  0.08237150  0.14315269  0.16122559  1
  Tl  Tl18  1  0.92443178  0.38027269  0.44306966  1
  Tl  Tl19  1  0.27066588  0.89538459  0.15949736  1
  Tl  Tl20  1  0.27066588  0.89538459  0.34050264  1
  Tl  Tl21  1  0.90949211  0.86091929  0.47434841  1
  Tl  Tl22  1  0.75228564  0.60875280  0.50432088  1
  Tl  Tl23  1  0.57655292  0.87019591  0.75000000  1
  Tl  Tl24  1  0.75666325  0.57981280  0.66438808  1
  Tl  Tl25  1  0.59050789  0.36091929  0.97434841  1
  Tl  Tl26  1  0.07597878  0.67254251  0.15668876  1
  Tl  Tl27  1  0.25228564  0.89124720  0.50432088  1
  Tl  Tl28  1  0.57597878  0.82745749  0.34331124  1
  Tl  Tl29  1  0.74771436  0.10875280  0.49567912  1
  Tl  Tl30  1  0.24333675  0.42018720  0.16438808  1
  Tl  Tl31  1  0.57597878  0.82745749  0.15668876  1
  Tl  Tl32  1  0.22933412  0.39538459  0.84050264  1
  Tl  Tl33  1  0.25666325  0.92018720  0.83561192  1
  Tl  Tl34  1  0.08237150  0.14315269  0.33877441  1
  Tl  Tl35  1  0.72933412  0.10461541  0.65949736  1
  Tl  Tl36  1  0.24333675  0.42018720  0.33561192  1
  Tl  Tl37  1  0.07556822  0.61972731  0.94306966  1
  Tl  Tl38  1  0.42402122  0.17254251  0.84331124  1
  Tl  Tl39  1  0.91762850  0.85684731  0.66122559  1
  Tl  Tl40  1  0.09050789  0.13908071  0.97434841  1
  Tl  Tl41  1  0.77066588  0.60461541  0.34050264  1
  Tl  Tl42  1  0.07597878  0.67254251  0.34331124  1
  Tl  Tl43  1  0.41762850  0.64315269  0.66122559  1
  Tl  Tl44  1  0.92402122  0.32745749  0.65668876  1
  Tl  Tl45  1  0.92402122  0.32745749  0.84331124  1
  Tl  Tl46  1  0.41762850  0.64315269  0.83877441  1
  Tl  Tl47  1  0.91206786  0.86914997  0.25000000  1
  Tl  Tl48  1  0.77066588  0.60461541  0.15949736  1
  Tl  Tl49  1  0.09050789  0.13908071  0.52565159  1
  Tl  Tl50  1  0.40949211  0.63908071  0.47434841  1
  Tl  Tl51  1  0.91762850  0.85684731  0.83877441  1
  Tl  Tl52  1  0.42402122  0.17254251  0.65668876  1
  Tl  Tl53  1  0.25228564  0.89124720  0.99567912  1
  Tl  Tl54  1  0.42443178  0.11972731  0.05693034  1
  Tl  Tl55  1  0.58793214  0.36914997  0.75000000  1
  Tl  Tl56  1  0.92344708  0.37019591  0.25000000  1
  Tl  Tl57  1  0.07556822  0.61972731  0.55693034  1
  Tl  Tl58  1  0.74333675  0.07981280  0.16438808  1
  Tl  Tl59  1  0.58237150  0.35684731  0.33877441  1
  Tl  Tl60  1  0.74333675  0.07981280  0.33561192  1
  Tl  Tl61  1  0.41206786  0.63085003  0.25000000  1
  Tl  Tl62  1  0.72933412  0.10461541  0.84050264  1
  Tl  Tl63  1  0.40949211  0.63908071  0.02565159  1
  Cl  Cl0  1  0.34279208  0.77808318  0.92826137  1
  Cl  Cl1  1  0.91761299  0.62667636  0.05400543  1
  Cl  Cl2  1  0.08238701  0.37332364  0.94599457  1
  Cl  Cl3  1  0.25690709  0.54937535  0.75000000  1
  Cl  Cl4  1  0.51567236  0.97823605  0.82654694  1
  Cl  Cl5  1  0.68648012  0.48542116  0.43478995  1
  Cl  Cl6  1  0.91761299  0.62667636  0.44599457  1
  Cl  Cl7  1  0.15720792  0.27808318  0.07173863  1
  Cl  Cl8  1  0.59706498  0.18868680  0.75000000  1
  Cl  Cl9  1  0.16470293  0.76483567  0.45340842  1
  Cl  Cl10  1  0.84279208  0.72191682  0.92826137  1
  Cl  Cl11  1  0.21148437  0.59266678  0.25000000  1
  Cl  Cl12  1  0.81351988  0.98542116  0.93478995  1
  Cl  Cl13  1  0.08735058  0.90905443  0.56251347  1
  Cl  Cl14  1  0.59678603  0.35802708  0.85071543  1
  Cl  Cl15  1  0.89124776  0.70498106  0.75000000  1
  Cl  Cl16  1  0.40321397  0.64197292  0.14928457  1
  Cl  Cl17  1  0.39124776  0.79501894  0.75000000  1
  Cl  Cl18  1  0.78851563  0.40733322  0.75000000  1
  Cl  Cl19  1  0.71148437  0.90733322  0.25000000  1
  Cl  Cl20  1  0.36947049  0.23439321  0.32741088  1
  Cl  Cl21  1  0.16470293  0.76483567  0.04659158  1
  Cl  Cl22  1  0.60875224  0.20498106  0.25000000  1
  Cl  Cl23  1  0.90321397  0.85802708  0.14928457  1
  Cl  Cl24  1  0.48432764  0.02176395  0.32654694  1
  Cl  Cl25  1  0.58735058  0.59094557  0.56251347  1
  Cl  Cl26  1  0.58735058  0.59094557  0.93748653  1
  Cl  Cl27  1  0.40321397  0.64197292  0.35071543  1
  Cl  Cl28  1  0.44057267  0.45723777  0.25000000  1
  Cl  Cl29  1  0.01567236  0.52176395  0.67345306  1
  Cl  Cl30  1  0.86947049  0.26560679  0.17258912  1
  Cl  Cl31  1  0.90321397  0.85802708  0.35071543  1
  Cl  Cl32  1  0.40293502  0.81131320  0.25000000  1
  Cl  Cl33  1  0.59678603  0.35802708  0.64928457  1
  Cl  Cl34  1  0.08735058  0.90905443  0.93748653  1
  Cl  Cl35  1  0.81351988  0.98542116  0.56521005  1
  Cl  Cl36  1  0.83529707  0.23516433  0.54659158  1
  Cl  Cl37  1  0.98432764  0.47823605  0.32654694  1
  Cl  Cl38  1  0.41761299  0.87332364  0.05400543  1
  Cl  Cl39  1  0.68648012  0.48542116  0.06521005  1
  Cl  Cl40  1  0.65720792  0.22191682  0.07173863  1
  Cl  Cl41  1  0.84279208  0.72191682  0.57173863  1
  Cl  Cl42  1  0.18648012  0.01457884  0.43478995  1
  Cl  Cl43  1  0.24309291  0.04937535  0.25000000  1
  Cl  Cl44  1  0.51567236  0.97823605  0.67345306  1
  Cl  Cl45  1  0.08238701  0.37332364  0.55400543  1
  Cl  Cl46  1  0.34279208  0.77808318  0.57173863  1
  Cl  Cl47  1  0.09706498  0.31131320  0.75000000  1
  Cl  Cl48  1  0.94057267  0.04276223  0.25000000  1
  Cl  Cl49  1  0.66470293  0.73516433  0.45340842  1
  Cl  Cl50  1  0.09678603  0.14197292  0.64928457  1
  Cl  Cl51  1  0.98432764  0.47823605  0.17345306  1
  Cl  Cl52  1  0.61063437  0.66790208  0.25000000  1
  Cl  Cl53  1  0.41761299  0.87332364  0.44599457  1
  Cl  Cl54  1  0.33529707  0.26483567  0.54659158  1
  Cl  Cl55  1  0.83459736  0.47937751  0.55597420  1
  Cl  Cl56  1  0.91264942  0.09094557  0.43748653  1
  Cl  Cl57  1  0.33529707  0.26483567  0.95340842  1
  Cl  Cl58  1  0.31351988  0.51457884  0.93478995  1
  Cl  Cl59  1  0.11063437  0.83209792  0.25000000  1
  Cl  Cl60  1  0.13052951  0.73439321  0.82741088  1
  Cl  Cl61  1  0.01567236  0.52176395  0.82654694  1
  Cl  Cl62  1  0.91264942  0.09094557  0.06251347  1
  Cl  Cl63  1  0.65720792  0.22191682  0.42826137  1
  Cl  Cl64  1  0.90293502  0.68868680  0.25000000  1
  Cl  Cl65  1  0.66540264  0.97937751  0.44402580  1
  Cl  Cl66  1  0.10875224  0.29501894  0.25000000  1
  Cl  Cl67  1  0.75690709  0.95062465  0.75000000  1
  Cl  Cl68  1  0.86947049  0.26560679  0.32741088  1
  Cl  Cl69  1  0.63052951  0.76560679  0.82741088  1
  Cl  Cl70  1  0.58238701  0.12667636  0.55400543  1
  Cl  Cl71  1  0.18648012  0.01457884  0.06521005  1
  Cl  Cl72  1  0.16540264  0.52062249  0.05597420  1
  Cl  Cl73  1  0.33459736  0.02062249  0.55597420  1
  Cl  Cl74  1  0.33459736  0.02062249  0.94402580  1
  Cl  Cl75  1  0.55942733  0.54276223  0.75000000  1
  Cl  Cl76  1  0.58238701  0.12667636  0.94599457  1
  Cl  Cl77  1  0.15720792  0.27808318  0.42826137  1
  Cl  Cl78  1  0.48432764  0.02176395  0.17345306  1
  Cl  Cl79  1  0.41264942  0.40905443  0.43748653  1
  Cl  Cl80  1  0.36947049  0.23439321  0.17258912  1
  Cl  Cl81  1  0.41264942  0.40905443  0.06251347  1
  Cl  Cl82  1  0.16540264  0.52062249  0.44402580  1
  Cl  Cl83  1  0.13052951  0.73439321  0.67258912  1
  Cl  Cl84  1  0.28851563  0.09266678  0.75000000  1
  Cl  Cl85  1  0.31351988  0.51457884  0.56521005  1
  Cl  Cl86  1  0.74309291  0.45062465  0.25000000  1
  Cl  Cl87  1  0.38936563  0.33209792  0.75000000  1
  Cl  Cl88  1  0.83529707  0.23516433  0.95340842  1
  Cl  Cl89  1  0.83459736  0.47937751  0.94402580  1
  Cl  Cl90  1  0.66470293  0.73516433  0.04659158  1
  Cl  Cl91  1  0.63052951  0.76560679  0.67258912  1
  Cl  Cl92  1  0.88936563  0.16790208  0.75000000  1
  Cl  Cl93  1  0.66540264  0.97937751  0.05597420  1
  Cl  Cl94  1  0.09678603  0.14197292  0.85071543  1
  Cl  Cl95  1  0.05942733  0.95723777  0.75000000  1
loop_
_geom_bond_atom_site_label_1
_geom_bond_atom_site_label_2
_geom_bond_distance
_geom_bond_site_symmetry_2
Cl0 Tl53 2.693894 1_555
Cl1 Tl9 2.634906 1_554
Cl1 Tl48 3.302244 1_555
Cl2 Tl3 2.634906 1_556
Cl2 Tl32 3.302244 1_555
Cl3 Tl8 2.663443 1_555
Cl3 Tl1 3.288471 1_555
Cl3 Tl32 3.288471 1_555
Cl4 Tl23 2.656822 1_555
Cl5 Tl22 2.707692 1_555
Cl5 Tl41 3.186340 1_555
Cl6 Tl22 2.634906 1_555
Cl6 Tl41 3.302244 1_555
Cl7 Tl3 2.693894 1_555
Cl8 Tl55 2.744990 1_555
Cl8 Tl62 3.138688 1_555
Cl8 Tl35 3.138688 1_555
Cl9 Tl27 2.580445 1_555
Cl10 Tl9 2.693894 1_555
Cl11 Tl61 2.695090 1_555
Cl12 Tl7 2.707692 1_566
Cl12 Tl62 3.186340 1_565
Cl13 Tl27 2.628604 1_555
Cl14 Tl55 2.547685 1_555
Cl14 Tl25 3.118651 1_555
Cl15 Tl8 2.686428 1_655
Cl16 Tl61 2.547685 1_555
Cl16 Tl63 3.118651 1_555
Cl17 Tl23 2.686428 1_555
Cl18 Tl55 2.695090 1_555
Cl19 Tl47 2.695090 1_555
Cl20 Tl2 2.614821 1_555
Cl21 Tl53 2.580445 1_554
Cl22 Tl2 2.686428 1_555
Cl23 Tl47 2.547685 1_555
Cl23 Tl13 3.118651 1_555
Cl24 Tl2 2.656822 1_555
Cl25 Tl22 2.628604 1_555
Cl26 Tl9 2.628604 1_555
Cl27 Tl61 2.547685 1_555
Cl27 Tl50 3.118651 1_555
Cl28 Tl61 2.664644 1_555
Cl29 Tl8 2.656822 1_555
Cl30 Tl56 2.614821 1_555
Cl31 Tl47 2.547685 1_555
Cl31 Tl21 3.118651 1_555
Cl32 Tl61 2.744990 1_555
Cl32 Tl19 3.138688 1_555
Cl32 Tl20 3.138688 1_555
Cl33 Tl55 2.547685 1_555
Cl33 Tl5 3.118651 1_555
Cl34 Tl53 2.628604 1_555
Cl35 Tl29 2.707692 1_565
Cl35 Tl35 3.186340 1_565
Cl36 Tl29 2.580445 1_555
Cl37 Tl56 2.656822 1_555
Cl38 Tl53 2.634906 1_554
Cl38 Tl19 3.302244 1_555
Cl39 Tl9 2.707692 1_554
Cl39 Tl48 3.186340 1_555
Cl40 Tl7 2.693894 1_555
Cl41 Tl22 2.693894 1_555
Cl42 Tl27 2.707692 1_545
Cl42 Tl20 3.186340 1_545
Cl43 Tl2 2.663443 1_555
Cl43 Tl19 3.288471 1_545
Cl43 Tl20 3.288471 1_545
Cl44 Tl23 2.656822 1_555
Cl45 Tl14 2.634906 1_555
Cl45 Tl1 3.302244 1_555
Cl46 Tl27 2.693894 1_555
Cl47 Tl11 2.744990 1_555
Cl47 Tl32 3.138688 1_555
Cl47 Tl1 3.138688 1_555
Cl48 Tl47 2.664644 1_545
Cl49 Tl22 2.580445 1_555
Cl50 Tl11 2.547685 1_555
Cl50 Tl49 3.118651 1_555
Cl51 Tl56 2.656822 1_555
Cl52 Tl61 2.665568 1_555
Cl52 Tl48 3.246720 1_555
Cl52 Tl41 3.246720 1_555
Cl53 Tl27 2.634906 1_555
Cl53 Tl20 3.302244 1_555
Cl54 Tl14 2.580445 1_555
Cl55 Tl22 2.593818 1_555
Cl56 Tl29 2.628604 1_555
Cl57 Tl3 2.580445 1_556
Cl58 Tl3 2.707692 1_556
Cl58 Tl32 3.186340 1_555
Cl59 Tl47 2.665568 1_455
Cl59 Tl19 3.246720 1_555
Cl59 Tl20 3.246720 1_555
Cl60 Tl8 2.614821 1_555
Cl61 Tl8 2.656822 1_555
Cl62 Tl7 2.628604 1_555
Cl63 Tl29 2.693894 1_555
Cl64 Tl47 2.744990 1_555
Cl64 Tl48 3.138688 1_555
Cl64 Tl41 3.138688 1_555
Cl65 Tl29 2.593818 1_565
Cl66 Tl56 2.686428 1_455
Cl67 Tl23 2.663443 1_555
Cl67 Tl62 3.288471 1_565
Cl67 Tl35 3.288471 1_565
Cl68 Tl56 2.614821 1_555
Cl69 Tl23 2.614821 1_555
Cl70 Tl29 2.634906 1_555
Cl70 Tl35 3.302244 1_555
Cl71 Tl53 2.707692 1_544
Cl71 Tl19 3.186340 1_545
Cl72 Tl3 2.593818 1_555
Cl73 Tl27 2.593818 1_545
Cl74 Tl53 2.593818 1_545
Cl75 Tl55 2.664644 1_555
Cl76 Tl7 2.634906 1_556
Cl76 Tl62 3.302244 1_555
Cl77 Tl14 2.693894 1_555
Cl78 Tl2 2.656822 1_555
Cl79 Tl14 2.628604 1_555
Cl80 Tl2 2.614821 1_555
Cl81 Tl3 2.628604 1_555
Cl82 Tl14 2.593818 1_555
Cl83 Tl8 2.614821 1_555
Cl84 Tl11 2.695090 1_555
Cl85 Tl14 2.707692 1_555
Cl85 Tl1 3.186340 1_555
Cl86 Tl56 2.663443 1_555
Cl86 Tl48 3.288471 1_555
Cl86 Tl41 3.288471 1_555
Cl87 Tl55 2.665568 1_555
Cl87 Tl1 3.246720 1_555
Cl87 Tl32 3.246720 1_555
Cl88 Tl7 2.580445 1_556
Cl89 Tl9 2.593818 1_555
Cl90 Tl9 2.580445 1_554
Cl91 Tl23 2.614821 1_555
Cl92 Tl11 2.665568 1_655
Cl92 Tl35 3.246720 1_555
Cl92 Tl62 3.246720 1_555
Cl93 Tl7 2.593818 1_565
Cl94 Tl11 2.547685 1_555
Cl94 Tl40 3.118651 1_555
Cl95 Tl11 2.664644 1_565
