# generated using pymatgen
data_TlHO
_symmetry_space_group_name_H-M   'P 1'
_cell_length_a   4.43893413
_cell_length_b   4.43893413
_cell_length_c   21.78736198
_cell_angle_alpha   88.43754222
_cell_angle_beta   88.43754222
_cell_angle_gamma   91.98186660
_symmetry_Int_Tables_number   1
_chemical_formula_structural   TlHO
_chemical_formula_sum   'Tl8 H8 O8'
_cell_volume   428.71381421
_cell_formula_units_Z   8
loop_
 _symmetry_equiv_pos_site_id
 _symmetry_equiv_pos_as_xyz
  1  'x, y, z'
loop_
 _atom_site_type_symbol
 _atom_site_label
 _atom_site_symmetry_multiplicity
 _atom_site_fract_x
 _atom_site_fract_y
 _atom_site_fract_z
 _atom_site_occupancy
  Tl  Tl0  1  0.08741100  0.41645700  0.94572900  1
  Tl  Tl1  1  0.58354300  0.91258900  0.05427100  1
  Tl  Tl2  1  0.61842800  0.90584100  0.54834700  1
  Tl  Tl3  1  0.09415900  0.38157200  0.45165300  1
  Tl  Tl4  1  0.07396600  0.89802600  0.80254200  1
  Tl  Tl5  1  0.10197400  0.92603400  0.19745800  1
  Tl  Tl6  1  0.59963700  0.41519300  0.69330500  1
  Tl  Tl7  1  0.58480700  0.40036300  0.30669500  1
  H  H0  1  0.10317600  0.95949000  0.65974400  1
  H  H1  1  0.04051000  0.89682400  0.34025600  1
  H  H2  1  0.54946300  0.39763500  0.83430500  1
  H  H3  1  0.60236500  0.45053700  0.16569500  1
  H  H4  1  0.11745500  0.46196400  0.59946200  1
  H  H5  1  0.53803600  0.88254500  0.40053800  1
  H  H6  1  0.56698800  0.92103200  0.91100800  1
  H  H7  1  0.07896800  0.43301200  0.08899200  1
  O  O0  1  0.12635000  0.09465300  0.69387000  1
  O  O1  1  0.90534700  0.87365000  0.30613000  1
  O  O2  1  0.40798700  0.37841600  0.80114800  1
  O  O3  1  0.62158400  0.59201300  0.19885200  1
  O  O4  1  0.13981700  0.59372800  0.56278600  1
  O  O5  1  0.40627200  0.86018300  0.43721400  1
  O  O6  1  0.41660300  0.89504900  0.94425100  1
  O  O7  1  0.10495100  0.58339700  0.05574900  1
loop_
_geom_bond_atom_site_label_1
_geom_bond_atom_site_label_2
_geom_bond_distance
_geom_bond_site_symmetry_2
H0 O0 0.973448 1_565
H1 O1 0.973448 1_455
H2 O2 0.973616 1_555
H3 O3 0.973616 1_555
H4 O4 0.978080 1_555
H5 O5 0.978080 1_555
H6 O6 0.973270 1_555
H7 O7 0.973270 1_555
O0 Tl6 2.495854 1_555
O0 Tl4 2.503000 1_545
O0 Tl6 2.778818 1_455
O1 Tl7 2.495854 1_555
O1 Tl5 2.503000 1_655
O1 Tl7 2.778818 1_565
O2 Tl6 2.476194 1_555
O2 Tl4 2.553792 1_545
O2 Tl4 2.785180 1_555
O3 Tl7 2.476194 1_555
O3 Tl5 2.553792 1_655
O3 Tl5 2.785180 1_555
O4 Tl2 2.503643 1_555
O4 Tl3 2.632212 1_555
O4 Tl2 2.759104 1_455
O5 Tl3 2.503643 1_555
O5 Tl2 2.632212 1_555
O5 Tl3 2.759104 1_565
O6 Tl1 2.530628 1_556
O6 Tl0 2.535458 1_555
O6 Tl0 2.780043 1_565
O7 Tl0 2.530628 1_554
O7 Tl1 2.535458 1_555
O7 Tl1 2.780043 1_455
