# generated using pymatgen
data_Sr14La6Mg3Ti17O60
_symmetry_space_group_name_H-M   'P 1'
_cell_length_a   5.58239806
_cell_length_b   5.58239806
_cell_length_c   45.86957294
_cell_angle_alpha   86.27621311
_cell_angle_beta   86.27621311
_cell_angle_gamma   59.96006390
_symmetry_Int_Tables_number   1
_chemical_formula_structural   Sr14La6Mg3Ti17O60
_chemical_formula_sum   'Sr14 La6 Mg3 Ti17 O60'
_cell_volume   1233.95071501
_cell_formula_units_Z   1
loop_
 _symmetry_equiv_pos_site_id
 _symmetry_equiv_pos_as_xyz
  1  'x, y, z'
loop_
 _atom_site_type_symbol
 _atom_site_label
 _atom_site_symmetry_multiplicity
 _atom_site_fract_x
 _atom_site_fract_y
 _atom_site_fract_z
 _atom_site_occupancy
  Sr  Sr0  1  0.32571700  0.32571700  0.02503100  1
  Sr  Sr1  1  0.62508000  0.62508000  0.12482900  1
  Sr  Sr2  1  0.92509500  0.92509500  0.22474800  1
  Sr  Sr3  1  0.97616300  0.97616300  0.07547900  1
  Sr  Sr4  1  0.22509400  0.22509400  0.32470700  1
  Sr  Sr5  1  0.27555500  0.27555500  0.17488800  1
  Sr  Sr6  1  0.52505500  0.52505500  0.42468200  1
  Sr  Sr7  1  0.57542600  0.57542600  0.27485700  1
  Sr  Sr8  1  0.82504600  0.82504600  0.52459000  1
  Sr  Sr9  1  0.87540200  0.87540200  0.37483700  1
  Sr  Sr10  1  0.12385900  0.12385900  0.62436300  1
  Sr  Sr11  1  0.17557600  0.17557600  0.47482600  1
  Sr  Sr12  1  0.42532900  0.42532900  0.72449000  1
  Sr  Sr13  1  0.47517800  0.47517800  0.57441100  1
  La  La0  1  0.72143400  0.72143400  0.82333100  1
  La  La1  1  0.77734500  0.77734500  0.67511000  1
  La  La2  1  0.02029600  0.02029600  0.92417400  1
  La  La3  1  0.07943900  0.07943900  0.77661600  1
  La  La4  1  0.37807400  0.37807400  0.87561400  1
  La  La5  1  0.67930000  0.67930000  0.97563600  1
  Mg  Mg0  1  0.74928100  0.74928100  0.74992400  1
  Mg  Mg1  1  0.05005100  0.05005100  0.85033600  1
  Mg  Mg2  1  0.35187200  0.35187200  0.94972000  1
  Ti  Ti0  1  0.99638800  0.99638800  0.99838500  1
  Ti  Ti1  1  0.30070200  0.30070200  0.09927900  1
  Ti  Ti2  1  0.60038500  0.60038500  0.19943500  1
  Ti  Ti3  1  0.65403100  0.65403100  0.04943700  1
  Ti  Ti4  1  0.95146300  0.95146300  0.14949700  1
  Ti  Ti5  1  0.90010100  0.90010100  0.29940600  1
  Ti  Ti6  1  0.20012800  0.20012800  0.39939200  1
  Ti  Ti7  1  0.25086700  0.25086700  0.24942700  1
  Ti  Ti8  1  0.55070700  0.55070700  0.34940700  1
  Ti  Ti9  1  0.50052100  0.50052100  0.49934200  1
  Ti  Ti10  1  0.85093300  0.85093300  0.44938200  1
  Ti  Ti11  1  0.80150100  0.80150100  0.59923400  1
  Ti  Ti12  1  0.10166000  0.10166000  0.70204600  1
  Ti  Ti13  1  0.15044400  0.15044400  0.54943300  1
  Ti  Ti14  1  0.40323400  0.40323400  0.79956700  1
  Ti  Ti15  1  0.44627400  0.44627400  0.64989300  1
  Ti  Ti16  1  0.70018500  0.70018500  0.89965300  1
  O  O0  1  0.96153700  0.45777800  0.07726900  1
  O  O1  1  0.83882600  0.35077400  0.02171000  1
  O  O2  1  0.46351300  0.46351300  0.07143100  1
  O  O3  1  0.83814300  0.83814300  0.03083500  1
  O  O4  1  0.26223800  0.76157700  0.17710100  1
  O  O5  1  0.13708500  0.63742300  0.12338100  1
  O  O6  1  0.45777800  0.96153700  0.07726900  1
  O  O7  1  0.35077400  0.83882600  0.02171000  1
  O  O8  1  0.76403300  0.76403300  0.17189400  1
  O  O9  1  0.13442700  0.13442700  0.12889700  1
  O  O10  1  0.56255500  0.06207300  0.27705500  1
  O  O11  1  0.43719000  0.93771500  0.22346300  1
  O  O12  1  0.76157700  0.26223800  0.17710100  1
  O  O13  1  0.63742300  0.13708500  0.12338100  1
  O  O14  1  0.06432000  0.06432000  0.27185000  1
  O  O15  1  0.43460800  0.43460800  0.22867200  1
  O  O16  1  0.86250200  0.36210400  0.37705200  1
  O  O17  1  0.73733800  0.23777500  0.32345100  1
  O  O18  1  0.06207300  0.56255500  0.27705500  1
  O  O19  1  0.93771500  0.43719000  0.22346300  1
  O  O20  1  0.36435500  0.36435500  0.37182800  1
  O  O21  1  0.73474700  0.73474700  0.32862300  1
  O  O22  1  0.16236700  0.66179700  0.47702500  1
  O  O23  1  0.03732800  0.53775500  0.42342200  1
  O  O24  1  0.36210400  0.86250200  0.37705200  1
  O  O25  1  0.23777500  0.73733800  0.32345100  1
  O  O26  1  0.66413100  0.66413100  0.47177200  1
  O  O27  1  0.03473000  0.03473000  0.42861800  1
  O  O28  1  0.46169600  0.95888000  0.57723900  1
  O  O29  1  0.33732000  0.83781100  0.52334500  1
  O  O30  1  0.66179700  0.16236700  0.47702500  1
  O  O31  1  0.53775500  0.03732800  0.42342200  1
  O  O32  1  0.96379900  0.96379900  0.57133000  1
  O  O33  1  0.33431200  0.33431200  0.52874900  1
  O  O34  1  0.75491200  0.24652600  0.67689800  1
  O  O35  1  0.64244400  0.14171100  0.62242800  1
  O  O36  1  0.95888000  0.46169600  0.57723900  1
  O  O37  1  0.83781100  0.33732000  0.52334500  1
  O  O38  1  0.26140300  0.26140300  0.66871100  1
  O  O39  1  0.64388800  0.64388800  0.63098900  1
  O  O40  1  0.04885400  0.53765700  0.78065300  1
  O  O41  1  0.94765200  0.45003100  0.71893900  1
  O  O42  1  0.24652600  0.75491200  0.67689800  1
  O  O43  1  0.14171100  0.64244400  0.62242800  1
  O  O44  1  0.54878700  0.54878700  0.76918300  1
  O  O45  1  0.95399500  0.95399500  0.73168000  1
  O  O46  1  0.34431400  0.83597900  0.88134500  1
  O  O47  1  0.25917900  0.75384800  0.82004100  1
  O  O48  1  0.53765700  0.04885400  0.78065300  1
  O  O49  1  0.45003100  0.94765200  0.71893900  1
  O  O50  1  0.84103900  0.84103900  0.86707400  1
  O  O51  1  0.25677700  0.25677700  0.83364200  1
  O  O52  1  0.65855100  0.13664200  0.97910200  1
  O  O53  1  0.56196700  0.05210300  0.91955700  1
  O  O54  1  0.83597900  0.34431400  0.88134500  1
  O  O55  1  0.75384800  0.25917900  0.82004100  1
  O  O56  1  0.14716300  0.14716300  0.96863800  1
  O  O57  1  0.55851100  0.55851100  0.93374100  1
  O  O58  1  0.13664200  0.65855100  0.97910200  1
  O  O59  1  0.05210300  0.56196700  0.91955700  1
loop_
_geom_bond_atom_site_label_1
_geom_bond_atom_site_label_2
_geom_bond_distance
_geom_bond_site_symmetry_2
La0 O50 2.389959 1_555
La0 O40 2.478765 1_655
La0 O48 2.478765 1_565
La0 O55 2.508783 1_555
La0 O47 2.508783 1_555
La1 O39 2.480584 1_555
La1 O49 2.513198 1_555
La1 O41 2.513198 1_555
La1 O42 2.565260 1_655
La1 O34 2.565260 1_565
La1 O42 3.023549 1_555
La1 O34 3.023549 1_555
La2 O56 2.457709 1_555
La2 O54 2.475382 1_455
La2 O46 2.475382 1_545
La2 O59 2.496665 1_545
La2 O53 2.496665 1_455
La3 O45 2.468859 1_445
La3 O40 2.495342 1_555
La3 O48 2.495342 1_555
La3 O55 2.498278 1_455
La3 O47 2.498278 1_545
La4 O51 2.328361 1_555
La4 O46 2.497467 1_555
La4 O54 2.497467 1_555
La4 O59 2.519925 1_555
La4 O53 2.519925 1_555
La5 O57 2.322529 1_555
La5 O58 2.512188 1_655
La5 O52 2.512188 1_565
La5 O1 2.593982 1_556
La5 O7 2.593982 1_556
La5 O56 2.827716 1_655
La5 O56 2.827716 1_565
La5 O3 3.058406 1_556
La5 O58 3.082517 1_555
La5 O52 3.082517 1_555
La5 O59 3.087989 1_655
La5 O53 3.087989 1_565
Mg0 O44 2.069572 1_555
Mg0 O49 2.070941 1_555
Mg0 O41 2.070941 1_555
Mg0 O40 2.071464 1_655
Mg0 O48 2.071464 1_565
Mg0 O45 2.090785 1_555
Mg1 O55 2.045266 1_455
Mg1 O47 2.045266 1_545
Mg1 O54 2.065659 1_455
Mg1 O46 2.065659 1_545
Mg1 O51 2.086561 1_555
Mg1 O50 2.107740 1_445
Mg2 O53 2.053070 1_555
Mg2 O59 2.053070 1_555
Mg2 O58 2.054477 1_555
Mg2 O52 2.054477 1_555
Mg2 O57 2.076330 1_555
Mg2 O56 2.101123 1_555
O0 Ti1 1.960621 1_655
O0 Ti3 1.999228 1_555
O0 Sr3 2.655150 1_545
O0 Sr1 2.671207 1_555
O0 Sr0 2.917903 1_655
O0 Sr3 2.931296 1_555
O1 Ti3 1.976967 1_555
O1 Ti0 2.059765 1_544
O1 Sr0 2.664726 1_655
O1 Sr0 2.930723 1_555
O1 Sr3 3.002398 1_545
O2 Ti1 1.951729 1_555
O2 Ti3 2.033178 1_555
O2 Sr0 2.594428 1_555
O2 Sr3 2.798971 1_545
O2 Sr3 2.798971 1_455
O2 Sr1 3.002434 1_555
O3 Ti3 1.915867 1_555
O3 Ti0 2.053291 1_554
O3 Sr3 2.526861 1_555
O3 Sr0 2.805620 1_565
O3 Sr0 2.805620 1_655
O4 Ti2 1.962986 1_555
O4 Ti4 2.001602 1_455
O4 Sr2 2.675222 1_455
O4 Sr5 2.685138 1_555
O4 Sr5 2.902250 1_565
O4 Sr1 2.914364 1_555
O5 Ti4 1.968475 1_455
O5 Ti1 2.002403 1_555
O5 Sr3 2.688235 1_455
O5 Sr1 2.695423 1_555
O5 Sr5 2.883412 1_555
O5 Sr1 2.889720 1_455
O6 Ti1 1.960621 1_565
O6 Ti3 1.999228 1_555
O6 Sr3 2.655150 1_455
O6 Sr1 2.671207 1_555
O6 Sr0 2.917903 1_565
O6 Sr3 2.931296 1_555
O7 Ti3 1.976967 1_555
O7 Ti0 2.059765 1_454
O7 Sr0 2.664726 1_565
O7 Sr0 2.930723 1_555
O7 Sr3 3.002398 1_455
O8 Ti2 1.949568 1_555
O8 Ti4 2.015388 1_555
O8 Sr1 2.627069 1_555
O8 Sr5 2.795525 1_565
O8 Sr5 2.795525 1_655
O8 Sr2 2.978277 1_555
O9 Ti4 1.942430 1_445
O9 Ti1 2.025803 1_555
O9 Sr5 2.597097 1_555
O9 Sr1 2.797661 1_455
O9 Sr1 2.797661 1_545
O9 Sr3 2.984758 1_445
O10 Ti5 1.960610 1_545
O10 Ti7 2.005286 1_555
O10 Sr4 2.676142 1_555
O10 Sr7 2.689751 1_545
O10 Sr7 2.897496 1_555
O10 Sr2 2.914693 1_545
O11 Ti7 1.960939 1_565
O11 Ti2 2.003085 1_555
O11 Sr2 2.693524 1_555
O11 Sr5 2.710542 1_565
O11 Sr7 2.880561 1_555
O11 Sr2 2.891353 1_455
O12 Ti2 1.962986 1_555
O12 Ti4 2.001602 1_545
O12 Sr2 2.675222 1_545
O12 Sr5 2.685138 1_555
O12 Sr5 2.902250 1_655
O12 Sr1 2.914364 1_555
O13 Ti4 1.968475 1_545
O13 Ti1 2.002403 1_555
O13 Sr3 2.688235 1_545
O13 Sr1 2.695423 1_555
O13 Sr5 2.883412 1_555
O13 Sr1 2.889720 1_545
O14 Ti5 1.954189 1_445
O14 Ti7 2.008569 1_555
O14 Sr2 2.630037 1_445
O14 Sr7 2.795384 1_455
O14 Sr7 2.795384 1_545
O14 Sr4 2.976769 1_555
O15 Ti7 1.951976 1_555
O15 Ti2 2.011570 1_555
O15 Sr7 2.602928 1_555
O15 Sr2 2.797272 1_455
O15 Sr2 2.797272 1_545
O15 Sr5 3.003569 1_555
O16 Ti6 1.960670 1_655
O16 Ti8 2.006129 1_555
O16 Sr6 2.675288 1_555
O16 Sr9 2.690059 1_545
O16 Sr9 2.897249 1_555
O16 Sr4 2.916221 1_655
O17 Ti8 1.959969 1_555
O17 Ti5 2.005103 1_545
O17 Sr4 2.692414 1_655
O17 Sr7 2.710795 1_555
O17 Sr9 2.880542 1_545
O17 Sr4 2.892421 1_555
O18 Ti5 1.960610 1_455
O18 Ti7 2.005286 1_555
O18 Sr4 2.676142 1_555
O18 Sr7 2.689751 1_455
O18 Sr7 2.897496 1_555
O18 Sr2 2.914693 1_455
O19 Ti7 1.960939 1_655
O19 Ti2 2.003085 1_555
O19 Sr2 2.693524 1_555
O19 Sr5 2.710542 1_655
O19 Sr7 2.880561 1_555
O19 Sr2 2.891353 1_545
O20 Ti6 1.954463 1_555
O20 Ti8 2.006907 1_555
O20 Sr4 2.630986 1_555
O20 Sr9 2.795365 1_545
O20 Sr9 2.795365 1_455
O20 Sr6 2.976234 1_555
O21 Ti8 1.955061 1_555
O21 Ti5 2.007959 1_555
O21 Sr9 2.603143 1_555
O21 Sr4 2.797299 1_565
O21 Sr4 2.797299 1_655
O21 Sr7 3.004347 1_555
O22 Ti9 1.962557 1_555
O22 Ti10 2.004919 1_455
O22 Sr8 2.672654 1_455
O22 Sr11 2.686472 1_555
O22 Sr11 2.900848 1_565
O22 Sr6 2.916469 1_555
O23 Ti10 1.960938 1_455
O23 Ti6 2.004495 1_555
O23 Sr6 2.692217 1_555
O23 Sr9 2.710458 1_455
O23 Sr11 2.880605 1_555
O23 Sr6 2.892630 1_455
O24 Ti6 1.960670 1_565
O24 Ti8 2.006129 1_555
O24 Sr6 2.675288 1_555
O24 Sr9 2.690059 1_455
O24 Sr9 2.897249 1_555
O24 Sr4 2.916221 1_565
O25 Ti8 1.959969 1_555
O25 Ti5 2.005103 1_455
O25 Sr4 2.692414 1_565
O25 Sr7 2.710795 1_555
O25 Sr9 2.880542 1_455
O25 Sr4 2.892421 1_555
O26 Ti9 1.950069 1_555
O26 Ti10 2.010018 1_555
O26 Sr6 2.628738 1_555
O26 Sr11 2.795637 1_565
O26 Sr11 2.795637 1_655
O26 Sr8 2.976038 1_555
O27 Ti10 1.952623 1_445
O27 Ti6 2.008527 1_555
O27 Sr11 2.603986 1_555
O27 Sr6 2.797369 1_545
O27 Sr6 2.797369 1_455
O27 Sr9 3.004977 1_445
O28 Ti11 1.962897 1_555
O28 Ti13 2.009909 1_565
O28 Sr10 2.658451 1_565
O28 Sr13 2.674776 1_555
O28 Sr13 2.914928 1_565
O28 Sr8 2.930092 1_555
O29 Ti13 1.962750 1_565
O29 Ti9 2.002250 1_555
O29 Sr8 2.691978 1_555
O29 Sr11 2.708315 1_565
O29 Sr13 2.869748 1_555
O29 Sr8 2.892855 1_455
O30 Ti9 1.962557 1_555
O30 Ti10 2.004919 1_545
O30 Sr8 2.672654 1_545
O30 Sr11 2.686472 1_555
O30 Sr11 2.900848 1_655
O30 Sr6 2.916469 1_555
O31 Ti10 1.960938 1_545
O31 Ti6 2.004495 1_555
O31 Sr6 2.692217 1_555
O31 Sr9 2.710458 1_545
O31 Sr11 2.880605 1_555
O31 Sr6 2.892630 1_545
O32 Ti11 1.949503 1_555
O32 Ti13 1.998776 1_665
O32 Sr8 2.613145 1_555
O32 Sr13 2.795676 1_655
O32 Sr13 2.795676 1_565
O32 Sr10 2.979648 1_665
O33 Ti13 1.951687 1_555
O33 Ti9 2.019427 1_555
O33 Sr13 2.582765 1_555
O33 Sr8 2.797923 1_455
O33 Sr8 2.797923 1_545
O33 Sr11 3.007297 1_555
O34 Ti15 1.980048 1_555
O34 Ti12 2.081606 1_655
O34 Sr12 2.658880 1_555
O34 Sr10 2.945408 1_655
O35 Ti15 1.977853 1_555
O35 Ti11 1.994639 1_545
O35 Sr10 2.646108 1_655
O35 Sr13 2.680033 1_555
O35 Sr10 2.941574 1_555
O36 Ti11 1.962897 1_555
O36 Ti13 2.009909 1_655
O36 Sr10 2.658451 1_655
O36 Sr13 2.674776 1_555
O36 Sr13 2.914928 1_655
O36 Sr8 2.930092 1_555
O37 Ti13 1.962750 1_655
O37 Ti9 2.002250 1_555
O37 Sr8 2.691978 1_555
O37 Sr11 2.708315 1_655
O37 Sr13 2.869748 1_555
O37 Sr8 2.892855 1_545
O38 Ti15 1.926175 1_555
O38 Ti12 2.090553 1_555
O38 Sr10 2.512611 1_555
O38 Sr12 3.109294 1_555
O39 Ti11 2.027831 1_555
O39 Ti15 2.038565 1_555
O39 Sr10 2.814269 1_565
O39 Sr10 2.814269 1_655
O39 Sr13 3.167356 1_555
O40 Ti14 1.970151 1_555
O40 Sr12 3.103846 1_555
O41 Ti12 1.885957 1_655
O41 Sr12 2.628686 1_655
O41 Sr12 2.981173 1_555
O42 Ti15 1.980048 1_555
O42 Ti12 2.081606 1_565
O42 Sr12 2.658880 1_555
O42 Sr10 2.945408 1_565
O43 Ti15 1.977853 1_555
O43 Ti11 1.994639 1_455
O43 Sr10 2.646108 1_565
O43 Sr13 2.680033 1_555
O43 Sr10 2.941574 1_555
O44 Ti14 1.905163 1_555
O44 Sr12 2.448525 1_555
O45 Ti12 1.896301 1_665
O45 Sr12 2.825017 1_565
O45 Sr12 2.825017 1_655
O46 Ti16 1.962841 1_555
O47 Ti14 1.980995 1_555
O48 Ti14 1.970151 1_555
O48 Sr12 3.103846 1_555
O49 Ti12 1.885957 1_565
O49 Sr12 2.628686 1_565
O49 Sr12 2.981173 1_555
O50 Ti16 1.945120 1_555
O51 Ti14 2.029072 1_555
O52 Ti0 1.897491 1_545
O52 Sr0 2.611809 1_556
O53 Ti16 1.977918 1_545
O54 Ti16 1.962841 1_555
O55 Ti14 1.980995 1_555
O56 Ti0 1.920838 1_445
O57 Ti16 2.000206 1_555
O58 Ti0 1.897491 1_455
O58 Sr0 2.611809 1_556
O59 Ti16 1.977918 1_455
