# generated using pymatgen
data_Ga2Ge4Pb3O14
_symmetry_space_group_name_H-M   'P 1'
_cell_length_a   8.54163843
_cell_length_b   8.54163843
_cell_length_c   5.01101600
_cell_angle_alpha   90.00000000
_cell_angle_beta   90.00000000
_cell_angle_gamma   120.00000337
_symmetry_Int_Tables_number   1
_chemical_formula_structural   Ga2Ge4Pb3O14
_chemical_formula_sum   'Ga2 Ge4 Pb3 O14'
_cell_volume   316.62031324
_cell_formula_units_Z   1
loop_
 _symmetry_equiv_pos_site_id
 _symmetry_equiv_pos_as_xyz
  1  'x, y, z'
loop_
 _atom_site_type_symbol
 _atom_site_label
 _atom_site_symmetry_multiplicity
 _atom_site_fract_x
 _atom_site_fract_y
 _atom_site_fract_z
 _atom_site_occupancy
  Ga  Ga0  1  0.66666700  0.33333300  0.49515200  1
  Ga  Ga1  1  0.33333300  0.66666700  0.50484800  1
  Ge  Ge0  1  0.24539900  0.00000000  0.50000000  1
  Ge  Ge1  1  0.00000000  0.00000000  0.00000000  1
  Ge  Ge2  1  0.00000000  0.24539900  0.50000000  1
  Ge  Ge3  1  0.75460100  0.75460100  0.50000000  1
  Pb  Pb0  1  0.57913200  0.00000000  0.00000000  1
  Pb  Pb1  1  0.00000000  0.57913200  0.00000000  1
  Pb  Pb2  1  0.42086800  0.42086800  0.00000000  1
  O  O0  1  0.66666700  0.33333300  0.85260500  1
  O  O1  1  0.55281100  0.71456600  0.66514600  1
  O  O2  1  0.28543400  0.83824600  0.66514600  1
  O  O3  1  0.79237700  0.90970500  0.23263800  1
  O  O4  1  0.11732800  0.20762300  0.23263800  1
  O  O5  1  0.83824600  0.28543400  0.33485400  1
  O  O6  1  0.88267200  0.09029500  0.76736200  1
  O  O7  1  0.44718900  0.16175400  0.33485400  1
  O  O8  1  0.71456600  0.55281100  0.33485400  1
  O  O9  1  0.09029500  0.88267200  0.23263800  1
  O  O10  1  0.90970500  0.79237700  0.76736200  1
  O  O11  1  0.16175400  0.44718900  0.66514600  1
  O  O12  1  0.33333300  0.66666700  0.14739500  1
  O  O13  1  0.20762300  0.11732800  0.76736200  1
loop_
_geom_bond_atom_site_label_1
_geom_bond_atom_site_label_2
_geom_bond_distance
_geom_bond_site_symmetry_2
Ga0 O0 1.791203 1_555
Ga0 O7 1.886826 1_555
Ga0 O8 1.886826 1_555
Ga0 O5 1.886826 1_555
Ga1 O12 1.791203 1_555
Ga1 O11 1.886826 1_555
Ga1 O1 1.886826 1_555
Ga1 O2 1.886826 1_555
Ge0 O2 1.784150 1_545
Ge0 O7 1.784155 1_555
Ge0 O9 1.796324 1_545
Ge0 O13 1.796324 1_555
Ge1 O4 1.931613 1_555
Ge1 O13 1.931613 1_554
Ge1 O10 1.931613 1_444
Ge1 O3 1.931613 1_445
Ge1 O9 1.931613 1_545
Ge1 O6 1.931613 1_454
Ge2 O5 1.784150 1_455
Ge2 O11 1.784155 1_555
Ge2 O6 1.796324 1_455
Ge2 O4 1.796324 1_555
Ge3 O8 1.784157 1_555
Ge3 O1 1.784157 1_555
Ge3 O10 1.796324 1_555
Ge3 O3 1.796324 1_555
O0 Pb0 2.661266 1_556
O0 Pb1 2.661269 1_656
O0 Pb2 2.661274 1_556
O1 Pb2 2.748053 1_556
O2 Pb0 2.748053 1_566
O3 Pb0 2.583871 1_565
O4 Pb2 2.583871 1_555
O5 Pb1 2.748053 1_655
O6 Pb0 2.583871 1_556
O7 Pb0 2.748047 1_555
O8 Pb2 2.748053 1_555
O9 Pb1 2.583871 1_555
O10 Pb1 2.583871 1_656
O11 Pb1 2.748047 1_556
O12 Pb1 2.661266 1_555
O12 Pb0 2.661269 1_565
O12 Pb2 2.661274 1_555
O13 Pb2 2.583871 1_556
