# generated using pymatgen
data_Ce2Zn4Ru
_symmetry_space_group_name_H-M   'P 1'
_cell_length_a   5.17441186
_cell_length_b   7.14448390
_cell_length_c   7.14448390
_cell_angle_alpha   90.00000000
_cell_angle_beta   90.00000000
_cell_angle_gamma   90.00000000
_symmetry_Int_Tables_number   1
_chemical_formula_structural   Ce2Zn4Ru
_chemical_formula_sum   'Ce4 Zn8 Ru2'
_cell_volume   264.12086896
_cell_formula_units_Z   2
loop_
 _symmetry_equiv_pos_site_id
 _symmetry_equiv_pos_as_xyz
  1  'x, y, z'
loop_
 _atom_site_type_symbol
 _atom_site_label
 _atom_site_symmetry_multiplicity
 _atom_site_fract_x
 _atom_site_fract_y
 _atom_site_fract_z
 _atom_site_occupancy
  Ce  Ce0  1  0.78287147  0.25000000  0.25000000  1
  Ce  Ce1  1  0.00002171  0.75000000  0.25000000  1
  Ce  Ce2  1  0.21712956  0.75000000  0.75000000  1
  Ce  Ce3  1  0.00002171  0.25000000  0.75000000  1
  Zn  Zn0  1  0.29488204  0.43348481  0.43348481  1
  Zn  Zn1  1  0.29488204  0.43348481  0.06651519  1
  Zn  Zn2  1  0.29488204  0.06651519  0.06651519  1
  Zn  Zn3  1  0.70514418  0.93348597  0.56651403  1
  Zn  Zn4  1  0.29488204  0.06651519  0.43348481  1
  Zn  Zn5  1  0.70514418  0.93348597  0.93348597  1
  Zn  Zn6  1  0.70514418  0.56651403  0.93348597  1
  Zn  Zn7  1  0.70514418  0.56651403  0.56651403  1
  Ru  Ru0  1  0.49992484  0.25000000  0.75000000  1
  Ru  Ru1  1  0.49992484  0.75000000  0.25000000  1
loop_
_geom_bond_atom_site_label_1
_geom_bond_atom_site_label_2
_geom_bond_distance
_geom_bond_site_symmetry_2
Ce0 Zn4 3.132548 1_555
Ce0 Zn1 3.132548 1_555
Ce0 Zn2 3.132548 1_555
Ce0 Zn0 3.132548 1_555
Ce0 Zn3 3.223194 1_545
Ce0 Zn7 3.223194 1_555
Ce0 Zn6 3.223194 1_554
Ce0 Zn5 3.223194 1_544
Ce0 Zn4 3.233576 1_655
Ce0 Zn0 3.233576 1_655
Ce0 Zn1 3.233576 1_655
Ce0 Zn2 3.233576 1_655
Ce1 Ru1 2.586705 1_555
Ce1 Ru1 2.587707 1_455
Ce1 Zn0 3.026544 1_555
Ce1 Zn1 3.026544 1_555
Ce1 Zn2 3.026544 1_565
Ce1 Zn4 3.026544 1_565
Ce1 Zn7 3.026586 1_455
Ce1 Zn6 3.026586 1_454
Ce1 Zn5 3.026586 1_454
Ce1 Zn3 3.026586 1_455
Ce2 Zn6 3.132660 1_555
Ce2 Zn3 3.132660 1_555
Ce2 Zn7 3.132660 1_555
Ce2 Zn5 3.132660 1_555
Ce2 Zn0 3.223222 1_555
Ce2 Zn4 3.223222 1_565
Ce2 Zn1 3.223222 1_556
Ce2 Zn2 3.223222 1_566
Ce2 Zn6 3.233476 1_455
Ce2 Zn5 3.233476 1_455
Ce2 Zn3 3.233476 1_455
Ce2 Zn7 3.233476 1_455
Ce3 Ru0 2.586705 1_555
Ce3 Ru0 2.587707 1_455
Ce3 Zn0 3.026544 1_555
Ce3 Zn4 3.026544 1_555
Ce3 Zn2 3.026544 1_556
Ce3 Zn1 3.026544 1_556
Ce3 Zn7 3.026586 1_455
Ce3 Zn6 3.026586 1_455
Ce3 Zn5 3.026586 1_445
Ce3 Zn3 3.026586 1_445
Zn0 Zn7 2.512603 1_555
Zn0 Zn1 2.621809 1_555
Zn0 Zn4 2.621809 1_555
Zn1 Zn6 2.512603 1_554
Zn1 Zn2 2.621809 1_555
Zn2 Zn5 2.512603 1_544
Zn2 Zn4 2.621809 1_555
Zn3 Zn4 2.512603 1_565
Zn3 Zn5 2.621825 1_555
Zn3 Zn7 2.621825 1_555
Zn5 Zn6 2.621825 1_555
Zn6 Zn7 2.621825 1_555
Ru0 Zn0 2.820955 1_555
Ru0 Zn4 2.820955 1_555
Ru0 Zn1 2.820955 1_556
Ru0 Zn2 2.820955 1_556
Ru0 Zn7 2.821296 1_555
Ru0 Zn5 2.821296 1_545
Ru0 Zn6 2.821296 1_555
Ru0 Zn3 2.821296 1_545
Ru1 Zn0 2.820955 1_555
Ru1 Zn1 2.820955 1_555
Ru1 Zn2 2.820955 1_565
Ru1 Zn4 2.820955 1_565
Ru1 Zn7 2.821296 1_555
Ru1 Zn6 2.821296 1_554
Ru1 Zn5 2.821296 1_554
Ru1 Zn3 2.821296 1_555
