# generated using pymatgen
data_K24Zr18Se91
_symmetry_space_group_name_H-M   'P 1'
_cell_length_a   18.35013681
_cell_length_b   18.94988280
_cell_length_c   17.86229256
_cell_angle_alpha   62.19648011
_cell_angle_beta   78.17080319
_cell_angle_gamma   68.25902404
_symmetry_Int_Tables_number   1
_chemical_formula_structural   K24Zr18Se91
_chemical_formula_sum   'K24 Zr18 Se91'
_cell_volume   5099.48519662
_cell_formula_units_Z   1
loop_
 _symmetry_equiv_pos_site_id
 _symmetry_equiv_pos_as_xyz
  1  'x, y, z'
loop_
 _atom_site_type_symbol
 _atom_site_label
 _atom_site_symmetry_multiplicity
 _atom_site_fract_x
 _atom_site_fract_y
 _atom_site_fract_z
 _atom_site_occupancy
  K  K0  1  0.82384494  0.22140766  0.31888364  1
  K  K1  1  0.22016017  0.09278061  0.74167086  1
  K  K2  1  0.12086875  0.42206121  0.07039602  1
  K  K3  1  0.06598017  0.45735203  0.65701386  1
  K  K4  1  0.08447058  0.81983540  0.94713547  1
  K  K5  1  0.32338472  0.06437443  0.97262483  1
  K  K6  1  0.23393144  0.43630471  0.27802774  1
  K  K7  1  0.24339846  0.56843315  0.47690787  1
  K  K8  1  0.30015384  0.41393381  0.81561067  1
  K  K9  1  0.71854614  0.02452706  0.43673778  1
  K  K10  1  0.46489827  0.55943576  0.74330888  1
  K  K11  1  0.34548922  0.71426717  0.04204129  1
  K  K12  1  0.51131725  0.25633517  0.06432133  1
  K  K13  1  0.53464231  0.41263265  0.29046567  1
  K  K14  1  0.51809730  0.03528746  0.33204541  1
  K  K15  1  0.66700263  0.65747325  0.09979693  1
  K  K16  1  0.85727143  0.41999067  0.46265872  1
  K  K17  1  0.77868193  0.48629167  0.76336878  1
  K  K18  1  0.62723962  0.95307128  0.08271198  1
  K  K19  1  0.00852700  0.26048525  0.96728493  1
  K  K20  1  0.96297912  0.61174324  0.23363239  1
  K  K21  1  0.72074427  0.76058503  0.62762318  1
  K  K22  1  0.81152640  0.92894072  0.21300416  1
  K  K23  1  0.01829496  0.83243197  0.66084267  1
  Zr  Zr0  1  0.08182994  0.10273808  0.53375407  1
  Zr  Zr1  1  0.94521970  0.56897840  0.82522281  1
  Zr  Zr2  1  0.11407462  0.30197265  0.50561036  1
  Zr  Zr3  1  0.13927966  0.80574937  0.27358033  1
  Zr  Zr4  1  0.30175307  0.20892071  0.15001417  1
  Zr  Zr5  1  0.71909332  0.24695198  0.85412092  1
  Zr  Zr6  1  0.55751820  0.21960367  0.80416708  1
  Zr  Zr7  1  0.18709994  0.82912454  0.44207903  1
  Zr  Zr8  1  0.31000295  0.80917957  0.77385996  1
  Zr  Zr9  1  0.71855723  0.21659469  0.12261707  1
  Zr  Zr10  1  0.79717164  0.83134161  0.84922410  1
  Zr  Zr11  1  0.41956987  0.75283079  0.24702699  1
  Zr  Zr12  1  0.63224500  0.97994508  0.80858633  1
  Zr  Zr13  1  0.50206106  0.83474103  0.85668788  1
  Zr  Zr14  1  0.93564602  0.18329470  0.78275750  1
  Zr  Zr15  1  0.90105847  0.65624349  0.51057072  1
  Zr  Zr16  1  0.04138990  0.27122540  0.33152173  1
  Zr  Zr17  1  0.96784867  0.88640801  0.41552974  1
  Se  Se0  1  0.88624804  0.03458468  0.30334344  1
  Se  Se1  1  0.07163801  0.84836469  0.13534139  1
  Se  Se2  1  0.03499931  0.08724933  0.41655987  1
  Se  Se3  1  0.99669737  0.39659892  0.56116361  1
  Se  Se4  1  0.06594227  0.39757832  0.35022529  1
  Se  Se5  1  0.05212832  0.18206130  0.63659824  1
  Se  Se6  1  0.16704491  0.19863054  0.86070206  1
  Se  Se7  1  0.26726675  0.26340444  0.55232723  1
  Se  Se8  1  0.06207497  0.70351126  0.29279812  1
  Se  Se9  1  0.16387190  0.21445133  0.11306373  1
  Se  Se10  1  0.18406612  0.60001218  0.00877425  1
  Se  Se11  1  0.08449246  0.74767216  0.50299555  1
  Se  Se12  1  0.92058549  0.05648530  0.15714570  1
  Se  Se13  1  0.50368076  0.07884879  0.49801408  1
  Se  Se14  1  0.13416405  0.62744982  0.12527773  1
  Se  Se15  1  0.19128022  0.40864125  0.48667599  1
  Se  Se16  1  0.17516296  0.19758428  0.25399592  1
  Se  Se17  1  0.74926225  0.57200906  0.94265475  1
  Se  Se18  1  0.00454005  0.62282151  0.90304290  1
  Se  Se19  1  0.20747228  0.85001375  0.12233757  1
  Se  Se20  1  0.21731518  0.30755353  0.76385623  1
  Se  Se21  1  0.37289428  0.21612728  0.25675371  1
  Se  Se22  1  0.84177800  0.28826596  0.85644157  1
  Se  Se23  1  0.15417386  0.96871332  0.47179351  1
  Se  Se24  1  0.73594073  0.32391747  0.45141237  1
  Se  Se25  1  0.46139624  0.95914311  0.23040048  1
  Se  Se26  1  0.16420481  0.84096419  0.74606125  1
  Se  Se27  1  0.32461373  0.79570446  0.49325644  1
  Se  Se28  1  0.27301334  0.74646911  0.34421495  1
  Se  Se29  1  0.33600112  0.66091362  0.87610697  1
  Se  Se30  1  0.31674188  0.33527872  0.01982884  1
  Se  Se31  1  0.34485967  0.05989501  0.15123495  1
  Se  Se32  1  0.36251982  0.45262044  0.06962387  1
  Se  Se33  1  0.32814550  0.56491211  0.62594908  1
  Se  Se34  1  0.56628763  0.19772508  0.37091906  1
  Se  Se35  1  0.58075961  0.21850213  0.48725526  1
  Se  Se36  1  0.60607121  0.62932452  0.78240540  1
  Se  Se37  1  0.62483519  0.14472546  0.94275068  1
  Se  Se38  1  0.59658399  0.35320781  0.75414195  1
  Se  Se39  1  0.48537894  0.98020835  0.87039660  1
  Se  Se40  1  0.34609399  0.88740421  0.84143799  1
  Se  Se41  1  0.61944375  0.13717065  0.71544906  1
  Se  Se42  1  0.41309770  0.22742628  0.82696732  1
  Se  Se43  1  0.54966100  0.79794702  0.16443357  1
  Se  Se44  1  0.41239163  0.84634245  0.32883041  1
  Se  Se45  1  0.66171289  0.09576370  0.19319593  1
  Se  Se46  1  0.40050741  0.60994423  0.26225793  1
  Se  Se47  1  0.53082724  0.59614555  0.28022344  1
  Se  Se48  1  0.37823263  0.84981421  0.10028313  1
  Se  Se49  1  0.41045997  0.35326282  0.19842801  1
  Se  Se50  1  0.40098450  0.90415333  0.56029906  1
  Se  Se51  1  0.40827685  0.76732255  0.66331422  1
  Se  Se52  1  0.61794020  0.42658232  0.44008228  1
  Se  Se53  1  0.64019773  0.54475812  0.92357773  1
  Se  Se54  1  0.73833021  0.94186962  0.91090863  1
  Se  Se55  1  0.52618438  0.70398456  0.98793119  1
  Se  Se56  1  0.66940658  0.30843338  0.97049413  1
  Se  Se57  1  0.79930138  0.22451289  0.70814582  1
  Se  Se58  1  0.71293371  0.18190898  0.50961223  1
  Se  Se59  1  0.86836693  0.20536042  0.10233283  1
  Se  Se60  1  0.51429019  0.99106089  0.72650762  1
  Se  Se61  1  0.25973318  0.70558234  0.60857769  1
  Se  Se62  1  0.89861112  0.96096282  0.50419068  1
  Se  Se63  1  0.17657523  0.18293183  0.44006567  1
  Se  Se64  1  0.55759912  0.78539966  0.73420851  1
  Se  Se65  1  0.64945776  0.86280875  0.28526192  1
  Se  Se66  1  0.65927610  0.74778729  0.26001338  1
  Se  Se67  1  0.82213939  0.10517434  0.84220407  1
  Se  Se68  1  0.33517884  0.24986754  0.70376587  1
  Se  Se69  1  0.96699587  0.28572767  0.20703456  1
  Se  Se70  1  0.82851603  0.82143525  0.69926555  1
  Se  Se71  1  0.82096662  0.54703745  0.56134899  1
  Se  Se72  1  0.06507972  0.44993798  0.85191062  1
  Se  Se73  1  0.52412725  0.93016108  0.56797954  1
  Se  Se74  1  0.05184599  0.03582824  0.84761614  1
  Se  Se75  1  0.66802508  0.80404660  0.87251808  1
  Se  Se76  1  0.94643335  0.23254732  0.46385787  1
  Se  Se77  1  0.86699620  0.46700215  0.92660449  1
  Se  Se78  1  0.92707820  0.34601335  0.70461138  1
  Se  Se79  1  0.75830532  0.69282185  0.47004466  1
  Se  Se80  1  0.95694614  0.41169362  0.21383185  1
  Se  Se81  1  0.76563585  0.74141082  0.16084015  1
  Se  Se82  1  0.87155372  0.81514525  0.40947164  1
  Se  Se83  1  0.91410414  0.63613815  0.66623156  1
  Se  Se84  1  0.02546668  0.59149790  0.43279466  1
  Se  Se85  1  0.76564941  0.96008866  0.69492397  1
  Se  Se86  1  0.93573539  0.75071995  0.92021122  1
  Se  Se87  1  0.08991429  0.93551827  0.30905921  1
  Se  Se88  1  0.66612710  0.30865808  0.19725319  1
  Se  Se89  1  0.98135837  0.09811053  0.94205390  1
  Se  Se90  1  0.12982432  0.99562733  0.69198006  1
loop_
_geom_bond_atom_site_label_1
_geom_bond_atom_site_label_2
_geom_bond_distance
_geom_bond_site_symmetry_2
K0 Se69 3.213407 1_555
K0 Se88 3.392918 1_555
K0 Se0 3.421259 1_555
K0 Se58 3.495136 1_555
K0 Se24 3.518864 1_555
K1 Se6 3.342836 1_555
K1 Se90 3.363581 1_545
K1 Se5 3.382023 1_555
K1 Se40 3.495457 1_545
K1 Se74 3.528903 1_555
K1 Se7 3.648371 1_555
K1 Se68 3.995329 1_555
K2 Se9 3.439604 1_555
K2 Se30 3.480663 1_555
K2 Se80 3.529804 1_455
K2 Se10 3.583144 1_555
K2 Se18 3.735882 1_554
K3 Se3 3.112645 1_455
K3 Se20 3.269729 1_555
K3 Se72 3.414870 1_555
K3 Se83 3.551041 1_455
K3 Se78 3.618446 1_455
K3 Se84 3.657627 1_555
K3 Se15 3.684533 1_555
K4 Se74 3.479196 1_565
K4 Se26 3.484097 1_555
K4 Se14 3.486061 1_556
K4 Se10 3.579278 1_556
K4 Se1 3.595270 1_556
K4 Se86 3.629018 1_455
K5 Se31 3.252552 1_556
K5 Se6 3.301406 1_555
K5 Se39 3.419618 1_545
K5 Se48 3.464733 1_546
K5 Se42 3.679549 1_555
K6 Se4 3.296571 1_555
K6 Se49 3.378424 1_555
K6 Se14 3.439769 1_555
K6 Se15 3.473162 1_555
K6 Se32 3.922549 1_555
K7 Se28 3.265855 1_555
K7 Se33 3.311353 1_555
K7 Se15 3.420264 1_555
K7 Se11 3.720038 1_555
K8 Se30 3.266148 1_556
K8 Se42 3.302249 1_555
K8 Se33 3.355541 1_555
K8 Se20 3.437144 1_555
K9 Se34 3.303666 1_555
K9 Se62 3.339203 1_545
K9 Se0 3.491193 1_555
K9 Se58 3.733451 1_555
K9 Se13 3.752117 1_555
K10 Se51 3.311434 1_555
K10 Se33 3.530363 1_555
K10 Se36 3.619226 1_555
K10 Se29 3.674871 1_555
K10 Se38 3.693159 1_555
K11 Se55 3.217090 1_554
K11 Se48 3.454486 1_555
K11 Se19 3.494957 1_555
K11 Se40 3.556343 1_554
K11 Se29 3.602107 1_554
K11 Se46 3.646323 1_555
K12 Se56 3.283890 1_554
K12 Se30 3.422746 1_555
K12 Se45 3.467489 1_555
K12 Se49 3.507957 1_555
K12 Se37 3.562868 1_554
K12 Se32 3.741439 1_555
K12 Se21 3.776033 1_555
K13 Se88 3.219825 1_555
K13 Se47 3.370919 1_555
K13 Se34 3.481088 1_555
K13 Se52 3.490227 1_555
K13 Se46 3.496528 1_555
K13 Se35 3.668155 1_555
K13 Se49 3.784429 1_555
K14 Se25 3.285079 1_545
K14 Se21 3.325232 1_555
K14 Se45 3.363906 1_555
K14 Se13 3.367459 1_555
K14 Se65 3.616222 1_545
K14 Se73 3.733262 1_545
K14 Se34 3.873179 1_555
K15 Se55 3.198986 1_554
K15 Se43 3.264515 1_555
K15 Se81 3.399207 1_555
K15 Se47 3.651983 1_555
K15 Se17 3.670537 1_554
K15 Se75 3.699270 1_554
K16 Se3 3.180589 1_555
K16 Se76 3.306409 1_555
K16 Se71 3.411318 1_555
K16 Se24 3.440823 1_555
K17 Se22 3.152259 1_555
K17 Se71 3.253821 1_555
K17 Se36 3.398961 1_555
K17 Se78 3.413425 1_555
K17 Se77 3.430123 1_555
K17 Se53 3.710126 1_555
K18 Se65 3.239894 1_555
K18 Se37 3.301287 1_564
K18 Se43 3.323210 1_555
K18 Se54 3.367565 1_554
K18 Se25 3.600860 1_555
K18 Se81 3.629032 1_555
K19 Se59 3.259008 1_456
K19 Se6 3.277973 1_555
K19 Se89 3.527281 1_455
K19 Se77 3.630375 1_455
K19 Se72 3.632357 1_555
K19 Se22 3.725336 1_455
K19 Se9 3.840500 1_556
K20 Se14 3.371163 1_655
K20 Se8 3.506093 1_655
K20 Se4 3.524996 1_655
K20 Se81 3.633184 1_555
K20 Se84 3.767107 1_655
K21 Se64 3.203705 1_555
K21 Se70 3.313884 1_555
K21 Se83 3.451630 1_555
K21 Se79 3.459382 1_555
K21 Se36 3.651814 1_555
K21 Se73 3.777788 1_555
K22 Se45 3.254766 1_565
K22 Se82 3.308249 1_555
K22 Se12 3.370039 1_565
K22 Se65 3.429184 1_555
K22 Se0 3.800797 1_565
K23 Se62 3.283942 1_455
K23 Se26 3.425394 1_555
K23 Se70 3.473663 1_455
K23 Se11 3.657891 1_555
Se0 Se12 2.428349 1_555
Se0 Zr17 2.647357 1_545
Se1 Se19 2.466056 1_555
Se1 Zr3 2.635121 1_555
Se1 Se8 2.903157 1_555
Se2 Se23 2.445295 1_545
Se2 Zr0 2.589276 1_555
Se2 Zr16 3.124922 1_555
Se3 Se78 2.527882 1_555
Se3 Zr2 2.600333 1_655
Se4 Zr2 2.625768 1_555
Se4 Zr16 2.766721 1_555
Se5 Zr0 2.736759 1_555
Se5 Zr2 2.791639 1_555
Se5 Zr14 3.019485 1_455
Se7 Zr2 2.829050 1_555
Se8 Se84 2.574113 1_555
Se8 Zr3 2.663082 1_555
Se9 Zr4 2.696645 1_555
Se10 Se14 2.305405 1_555
Se11 Zr7 2.618744 1_555
Se11 Zr17 2.702707 1_455
Se12 Se59 2.375075 1_555
Se13 Se73 2.401189 1_545
Se13 Se34 2.761416 1_555
Se15 Se7 2.389709 1_555
Se15 Zr2 2.737646 1_555
Se16 Se9 2.428254 1_555
Se16 Zr4 2.668434 1_555
Se16 Zr16 2.786068 1_555
Se17 Se53 2.365922 1_555
Se17 Se77 2.408883 1_555
Se18 Se86 2.414526 1_455
Se18 Zr1 2.631435 1_455
Se19 Zr3 2.616374 1_555
Se20 Se68 2.327254 1_555
Se20 Se6 2.351428 1_555
Se21 Zr4 2.598741 1_555
Se21 Se49 2.611667 1_555
Se22 Zr5 2.656530 1_555
Se22 Zr14 2.762378 1_555
Se22 Se78 2.786147 1_555
Se23 Zr7 2.763708 1_555
Se23 Zr0 2.993274 1_565
Se24 Se52 2.281683 1_555
Se24 Se58 2.559806 1_555
Se25 Se44 2.395583 1_555
Se25 Se31 2.431945 1_565
Se26 Se90 2.481919 1_555
Se26 Zr8 2.615159 1_555
Se27 Se61 2.407540 1_555
Se27 Zr7 2.612670 1_555
Se28 Zr3 2.604042 1_555
Se28 Zr7 2.754918 1_555
Se28 Zr11 2.896821 1_555
Se29 Zr8 2.456509 1_555
Se30 Zr4 2.499586 1_555
Se30 Se32 3.158544 1_555
Se31 Zr4 2.626026 1_555
Se32 Se49 2.274625 1_555
Se33 Se61 2.384761 1_555
Se34 Se35 2.368696 1_555
Se35 Se58 2.327180 1_555
Se36 Se53 2.335209 1_555
Se36 Se64 2.503895 1_555
Se37 Zr6 2.519020 1_555
Se37 Zr5 2.783749 1_555
Se38 Zr6 2.587224 1_555
Se38 Zr5 2.689883 1_555
Se39 Se60 2.440964 1_555
Se39 Zr12 2.693947 1_555
Se39 Zr13 2.779618 1_555
Se40 Zr8 2.611003 1_555
Se40 Zr13 2.685401 1_555
Se41 Zr6 2.549258 1_555
Se41 Zr12 2.591815 1_545
Se42 Zr6 2.556138 1_555
Se42 Se68 2.652302 1_555
Se43 Se66 2.518309 1_555
Se43 Zr11 2.738162 1_555
Se44 Zr11 2.730609 1_555
Se45 Zr9 2.541187 1_555
Se46 Se47 2.379746 1_555
Se46 Zr11 2.739227 1_555
Se47 Zr11 2.774671 1_555
Se48 Zr11 2.472256 1_555
Se50 Se51 2.349474 1_555
Se50 Se73 2.526481 1_555
Se51 Zr8 2.592633 1_555
Se54 Zr10 2.599328 1_555
Se54 Zr12 2.615079 1_555
Se55 Zr13 2.454652 1_555
Se56 Zr9 2.579953 1_556
Se56 Zr5 2.684199 1_555
Se57 Se67 2.383567 1_555
Se57 Zr14 2.755764 1_555
Se57 Zr5 2.853618 1_555
Se59 Zr9 2.638900 1_555
Se60 Zr12 2.748464 1_555
Se60 Zr13 2.843418 1_555
Se61 Zr7 2.986721 1_555
Se62 Zr17 2.459849 1_555
Se63 Zr0 2.554333 1_555
Se63 Zr2 2.787723 1_555
Se63 Zr16 2.929695 1_555
Se64 Zr13 2.643373 1_555
Se64 Se73 2.935942 1_555
Se65 Se66 2.362097 1_555
Se66 Se81 2.359947 1_555
Se67 Zr5 2.728363 1_555
Se67 Zr14 2.751073 1_555
Se68 Se7 3.071479 1_555
Se69 Se80 2.383650 1_555
Se69 Zr16 2.698183 1_655
Se70 Se85 2.416923 1_555
Se70 Zr10 2.701560 1_555
Se71 Se79 2.413791 1_555
Se71 Zr15 2.687170 1_555
Se72 Zr1 2.429928 1_455
Se74 Se89 2.396530 1_455
Se74 Zr14 2.697452 1_455
Se75 Zr10 2.521889 1_555
Se75 Zr12 2.825045 1_555
Se75 Zr13 2.929240 1_555
Se76 Zr16 2.608108 1_655
Se76 Zr0 2.767993 1_655
Se77 Zr1 2.607436 1_555
Se78 Zr14 2.682666 1_555
Se79 Zr15 2.613556 1_555
Se80 Zr16 2.639234 1_655
Se82 Zr15 2.596483 1_555
Se82 Zr17 2.634429 1_555
Se83 Zr1 2.601108 1_555
Se83 Zr15 2.674044 1_555
Se84 Zr15 2.619512 1_455
Se85 Zr10 2.686724 1_555
Se85 Zr12 2.872078 1_555
Se86 Zr10 2.654031 1_555
Se87 Zr3 2.614880 1_555
Se87 Zr7 2.737795 1_555
Se87 Zr17 2.765297 1_455
Se88 Zr9 2.479313 1_555
Se89 Zr14 2.663881 1_555
Se90 Zr0 2.688488 1_565
