# generated using pymatgen
data_La13Mn14O42
_symmetry_space_group_name_H-M   'P 1'
_cell_length_a   9.19657452
_cell_length_b   9.19657452
_cell_length_c   9.19657492
_cell_angle_alpha   97.35976222
_cell_angle_beta   97.35976222
_cell_angle_gamma   97.35976555
_symmetry_Int_Tables_number   1
_chemical_formula_structural   La13Mn14O42
_chemical_formula_sum   'La13 Mn14 O42'
_cell_volume   756.75300929
_cell_formula_units_Z   1
loop_
 _symmetry_equiv_pos_site_id
 _symmetry_equiv_pos_as_xyz
  1  'x, y, z'
loop_
 _atom_site_type_symbol
 _atom_site_label
 _atom_site_symmetry_multiplicity
 _atom_site_fract_x
 _atom_site_fract_y
 _atom_site_fract_z
 _atom_site_occupancy
  La  La0  1  0.39246500  0.82019300  0.53800100  1
  La  La1  1  0.96346800  0.10798200  0.67815300  1
  La  La2  1  0.53800100  0.39246500  0.82019300  1
  La  La3  1  0.10798200  0.67815300  0.96346800  1
  La  La4  1  0.67815300  0.96346800  0.10798200  1
  La  La5  1  0.18002100  0.45668500  0.59776700  1
  La  La6  1  0.75015100  0.75015100  0.75015100  1
  La  La7  1  0.82019300  0.53800100  0.39246500  1
  La  La8  1  0.32024600  0.04261600  0.90201800  1
  La  La9  1  0.90201800  0.32024600  0.04261600  1
  La  La10  1  0.45668500  0.59776700  0.18002100  1
  La  La11  1  0.04261600  0.90201800  0.32024600  1
  La  La12  1  0.59776700  0.18002100  0.45668500  1
  Mn  Mn0  1  0.00187200  0.00187200  0.00187200  1
  Mn  Mn1  1  0.56539400  0.28484400  0.14514800  1
  Mn  Mn2  1  0.14514800  0.56539400  0.28484400  1
  Mn  Mn3  1  0.71375200  0.85887400  0.42781000  1
  Mn  Mn4  1  0.28484400  0.14514800  0.56539400  1
  Mn  Mn5  1  0.78626300  0.64173400  0.07207700  1
  Mn  Mn6  1  0.85887400  0.42781000  0.71375200  1
  Mn  Mn7  1  0.35442500  0.93472600  0.21537800  1
  Mn  Mn8  1  0.42781000  0.71375200  0.85887400  1
  Mn  Mn9  1  0.93472600  0.21537800  0.35442500  1
  Mn  Mn10  1  0.49816900  0.49816900  0.49816900  1
  Mn  Mn11  1  0.07207700  0.78626300  0.64173400  1
  Mn  Mn12  1  0.64173400  0.07207700  0.78626300  1
  Mn  Mn13  1  0.21537800  0.35442500  0.93472600  1
  O  O0  1  0.67343700  0.97734900  0.59904000  1
  O  O1  1  0.11304500  0.16861100  0.95362600  1
  O  O2  1  0.24643700  0.26076100  0.74213300  1
  O  O3  1  0.40522600  0.32589800  0.01683900  1
  O  O4  1  0.69130500  0.45478800  0.10261800  1
  O  O5  1  0.82003900  0.54769100  0.88504500  1
  O  O6  1  0.97435200  0.61249400  0.16715000  1
  O  O7  1  0.16861100  0.95362600  0.11304500  1
  O  O8  1  0.26076100  0.74213300  0.24643700  1
  O  O9  1  0.39102600  0.83392700  0.03058000  1
  O  O10  1  0.44804700  0.11743200  0.18368600  1
  O  O11  1  0.54092500  0.89410800  0.30842800  1
  O  O12  1  0.74213300  0.24643700  0.26076100  1
  O  O13  1  0.83392700  0.03058000  0.39102600  1
  O  O14  1  0.89410800  0.30842800  0.54092500  1
  O  O15  1  0.95362600  0.11304500  0.16861100  1
  O  O16  1  0.01683900  0.40522600  0.32589800  1
  O  O17  1  0.11743200  0.18368600  0.44804700  1
  O  O18  1  0.31739300  0.54067800  0.40760700  1
  O  O19  1  0.40760700  0.31739300  0.54067800  1
  O  O20  1  0.46821600  0.59718900  0.68622100  1
  O  O21  1  0.54067800  0.40760700  0.31739300  1
  O  O22  1  0.59718900  0.68622100  0.46821600  1
  O  O23  1  0.68622100  0.46821600  0.59718900  1
  O  O24  1  0.88504500  0.82003900  0.54769100  1
  O  O25  1  0.97734900  0.59904000  0.67343700  1
  O  O26  1  0.03706500  0.88102900  0.82765000  1
  O  O27  1  0.10261800  0.69130500  0.45478800  1
  O  O28  1  0.16715000  0.97435200  0.61249400  1
  O  O29  1  0.25672100  0.75363500  0.74036400  1
  O  O30  1  0.45478800  0.10261800  0.69130500  1
  O  O31  1  0.54769100  0.88504500  0.82003900  1
  O  O32  1  0.61249400  0.16715000  0.97435200  1
  O  O33  1  0.74036400  0.25672100  0.75363500  1
  O  O34  1  0.82765000  0.03706500  0.88102900  1
  O  O35  1  0.03058000  0.39102600  0.83392700  1
  O  O36  1  0.18368600  0.44804700  0.11743200  1
  O  O37  1  0.30842800  0.54092500  0.89410800  1
  O  O38  1  0.59904000  0.67343700  0.97734900  1
  O  O39  1  0.75363500  0.74036400  0.25672100  1
  O  O40  1  0.88102900  0.82765000  0.03706500  1
  O  O41  1  0.32589800  0.01683900  0.40522600  1
loop_
_geom_bond_atom_site_label_1
_geom_bond_atom_site_label_2
_geom_bond_distance
_geom_bond_site_symmetry_2
La0 O41 2.407124 1_565
La0 O29 2.467371 1_555
La0 O22 2.485154 1_555
La0 O18 2.658199 1_555
La0 O20 2.718172 1_555
La0 O27 2.744369 1_555
La0 O30 2.745147 1_565
La0 O0 2.746756 1_555
La0 O31 2.749221 1_555
La0 O8 2.761209 1_555
La0 O28 2.764147 1_555
La0 O11 2.766250 1_555
La1 O28 2.464374 1_645
La1 O14 2.467554 1_555
La1 O34 2.483282 1_555
La1 O1 2.677699 1_655
La1 O13 2.719171 1_555
La1 O33 2.720944 1_555
La1 O24 2.728934 1_545
La1 O0 2.746818 1_545
La1 O2 2.748035 1_655
La1 O26 2.750168 1_645
La1 O35 2.759623 1_655
La1 O17 2.803646 1_655
La2 O3 2.407124 1_556
La2 O33 2.467371 1_555
La2 O20 2.485154 1_555
La2 O19 2.658199 1_555
La2 O23 2.718172 1_555
La2 O30 2.744369 1_555
La2 O4 2.745147 1_556
La2 O38 2.746756 1_555
La2 O5 2.749221 1_555
La2 O2 2.761209 1_555
La2 O32 2.764147 1_555
La2 O37 2.766250 1_555
La3 O6 2.464374 1_456
La3 O37 2.467554 1_555
La3 O26 2.483282 1_555
La3 O7 2.677699 1_556
La3 O35 2.719171 1_555
La3 O29 2.720944 1_555
La3 O5 2.728934 1_455
La3 O25 2.746819 1_455
La3 O8 2.748035 1_556
La3 O40 2.750168 1_456
La3 O9 2.759623 1_556
La3 O36 2.803646 1_556
La4 O32 2.464374 1_564
La4 O11 2.467554 1_555
La4 O40 2.483282 1_555
La4 O15 2.677699 1_565
La4 O9 2.719171 1_555
La4 O39 2.720944 1_555
La4 O31 2.728934 1_554
La4 O38 2.746818 1_554
La4 O12 2.748035 1_565
La4 O34 2.750168 1_564
La4 O13 2.759623 1_565
La4 O10 2.803646 1_565
La5 O18 2.431711 1_555
La5 O2 2.463629 1_555
La5 O25 2.529106 1_455
La5 O17 2.659255 1_555
La5 O19 2.663356 1_555
La5 O16 2.698338 1_555
La5 O14 2.755518 1_455
La5 O20 2.767124 1_555
La5 O27 2.787828 1_555
La5 O37 2.796830 1_555
La5 O35 2.803308 1_555
La5 O29 2.833236 1_555
La6 O24 2.472451 1_555
La6 O5 2.472451 1_555
La6 O31 2.472451 1_555
La6 O26 2.720990 1_655
La6 O34 2.720990 1_565
La6 O40 2.720991 1_556
La6 O20 2.740518 1_555
La6 O23 2.740518 1_555
La6 O22 2.740518 1_555
La6 O38 2.768608 1_555
La6 O0 2.768608 1_555
La6 O25 2.768608 1_555
La7 O16 2.407124 1_655
La7 O39 2.467371 1_555
La7 O23 2.485154 1_555
La7 O21 2.658199 1_555
La7 O22 2.718172 1_555
La7 O4 2.744369 1_555
La7 O27 2.745147 1_655
La7 O25 2.746756 1_555
La7 O24 2.749221 1_555
La7 O12 2.761209 1_555
La7 O6 2.764147 1_555
La7 O14 2.766250 1_555
La8 O1 2.419808 1_555
La8 O9 2.491843 1_546
La8 O30 2.510780 1_555
La8 O3 2.659917 1_556
La8 O10 2.668533 1_556
La8 O7 2.681192 1_546
La8 O2 2.737980 1_555
La8 O32 2.745170 1_555
La8 O26 2.783921 1_545
La8 O28 2.801946 1_545
La8 O31 2.818563 1_545
La8 O29 2.825236 1_545
La9 O15 2.419808 1_555
La9 O35 2.491843 1_654
La9 O4 2.510780 1_555
La9 O16 2.659917 1_655
La9 O36 2.668533 1_655
La9 O1 2.681192 1_654
La9 O12 2.737980 1_555
La9 O6 2.745170 1_555
La9 O34 2.783921 1_554
La9 O32 2.801946 1_554
La9 O5 2.818563 1_554
La9 O33 2.825236 1_554
La10 O21 2.431711 1_555
La10 O8 2.463629 1_555
La10 O38 2.529106 1_554
La10 O36 2.659255 1_555
La10 O18 2.663356 1_555
La10 O3 2.698337 1_555
La10 O37 2.755518 1_554
La10 O22 2.767125 1_555
La10 O4 2.787828 1_555
La10 O11 2.796830 1_555
La10 O9 2.803308 1_555
La10 O39 2.833236 1_555
La11 O7 2.419808 1_555
La11 O13 2.491843 1_465
La11 O27 2.510780 1_555
La11 O41 2.659917 1_565
La11 O17 2.668533 1_565
La11 O15 2.681192 1_465
La11 O8 2.737980 1_555
La11 O28 2.745171 1_555
La11 O40 2.783921 1_455
La11 O6 2.801946 1_455
La11 O24 2.818563 1_455
La11 O39 2.825236 1_455
La12 O19 2.431711 1_555
La12 O12 2.463629 1_555
La12 O0 2.529106 1_545
La12 O10 2.659255 1_555
La12 O21 2.663356 1_555
La12 O41 2.698337 1_555
La12 O11 2.755518 1_545
La12 O23 2.767124 1_555
La12 O30 2.787828 1_555
La12 O14 2.796830 1_555
La12 O13 2.803308 1_555
La12 O33 2.833236 1_555
Mn0 O1 1.866135 1_554
Mn0 O7 1.866135 1_545
Mn0 O15 1.866135 1_455
Mn0 O40 1.917247 1_445
Mn0 O34 1.917247 1_454
Mn0 O26 1.917247 1_544
Mn1 O10 1.863543 1_555
Mn1 O3 1.875097 1_555
Mn1 O21 1.880258 1_555
Mn1 O32 1.919701 1_554
Mn1 O12 1.922939 1_555
Mn1 O4 1.935326 1_555
Mn2 O36 1.863543 1_555
Mn2 O16 1.875097 1_555
Mn2 O18 1.880258 1_555
Mn2 O6 1.919701 1_455
Mn2 O8 1.922938 1_555
Mn2 O27 1.935326 1_555
Mn3 O39 1.899738 1_555
Mn3 O11 1.900699 1_555
Mn3 O13 1.901316 1_565
Mn3 O0 1.902074 1_555
Mn3 O24 1.903868 1_555
Mn3 O22 1.904082 1_555
Mn4 O17 1.863543 1_555
Mn4 O41 1.875097 1_555
Mn4 O19 1.880258 1_555
Mn4 O28 1.919701 1_545
Mn4 O2 1.922939 1_555
Mn4 O30 1.935326 1_555
Mn5 O4 1.897178 1_555
Mn5 O39 1.897886 1_555
Mn5 O40 1.902048 1_555
Mn5 O38 1.902097 1_554
Mn5 O6 1.902850 1_555
Mn5 O5 1.904642 1_554
Mn6 O33 1.899737 1_555
Mn6 O14 1.900699 1_555
Mn6 O35 1.901316 1_655
Mn6 O25 1.902074 1_555
Mn6 O5 1.903868 1_555
Mn6 O23 1.904082 1_555
Mn7 O10 1.862442 1_565
Mn7 O41 1.875569 1_565
Mn7 O7 1.882037 1_555
Mn7 O11 1.919275 1_555
Mn7 O9 1.919335 1_555
Mn7 O8 1.939713 1_555
Mn8 O29 1.899738 1_555
Mn8 O37 1.900699 1_555
Mn8 O9 1.901316 1_556
Mn8 O38 1.902074 1_555
Mn8 O31 1.903868 1_555
Mn8 O20 1.904082 1_555
Mn9 O17 1.862442 1_655
Mn9 O16 1.875568 1_655
Mn9 O15 1.882037 1_555
Mn9 O14 1.919275 1_555
Mn9 O13 1.919335 1_555
Mn9 O12 1.939713 1_555
Mn10 O19 1.872337 1_555
Mn10 O18 1.872337 1_555
Mn10 O21 1.872337 1_555
Mn10 O22 1.918054 1_555
Mn10 O23 1.918054 1_555
Mn10 O20 1.918054 1_555
Mn11 O27 1.897178 1_555
Mn11 O29 1.897886 1_555
Mn11 O26 1.902048 1_555
Mn11 O25 1.902097 1_455
Mn11 O28 1.902850 1_555
Mn11 O24 1.904642 1_455
Mn12 O30 1.897178 1_555
Mn12 O33 1.897886 1_555
Mn12 O34 1.902048 1_555
Mn12 O0 1.902097 1_545
Mn12 O32 1.902851 1_555
Mn12 O31 1.904642 1_545
Mn13 O36 1.862442 1_556
Mn13 O3 1.875569 1_556
Mn13 O1 1.882037 1_555
Mn13 O37 1.919275 1_555
Mn13 O35 1.919335 1_555
Mn13 O2 1.939713 1_555
