# generated using pymatgen
data_Nb6Tl3SBr17
_symmetry_space_group_name_H-M   'P 1'
_cell_length_a   14.30958000
_cell_length_b   14.30958000
_cell_length_c   9.65480350
_cell_angle_alpha   84.16868360
_cell_angle_beta   84.16868360
_cell_angle_gamma   103.93806917
_symmetry_Int_Tables_number   1
_chemical_formula_structural   Nb6Tl3SBr17
_chemical_formula_sum   'Nb12 Tl6 S2 Br34'
_cell_volume   1892.47782530
_cell_formula_units_Z   2
loop_
 _symmetry_equiv_pos_site_id
 _symmetry_equiv_pos_as_xyz
  1  'x, y, z'
loop_
 _atom_site_type_symbol
 _atom_site_label
 _atom_site_symmetry_multiplicity
 _atom_site_fract_x
 _atom_site_fract_y
 _atom_site_fract_z
 _atom_site_occupancy
  Nb  Nb0  1  0.06366400  0.30899700  0.49822000  1
  Nb  Nb1  1  0.09350500  0.75539100  0.38061000  1
  Nb  Nb2  1  0.34395600  0.66611400  0.47438200  1
  Nb  Nb3  1  0.90649500  0.24460900  0.61939000  1
  Nb  Nb4  1  0.69100300  0.93633600  0.00178000  1
  Nb  Nb5  1  0.93633600  0.69100300  0.50178000  1
  Nb  Nb6  1  0.75539100  0.09350500  0.88061000  1
  Nb  Nb7  1  0.65604400  0.33388600  0.52561800  1
  Nb  Nb8  1  0.66611400  0.34395600  0.97438200  1
  Nb  Nb9  1  0.30899700  0.06366400  0.99822000  1
  Nb  Nb10  1  0.24460900  0.90649500  0.11939000  1
  Nb  Nb11  1  0.33388600  0.65604400  0.02561800  1
  Tl  Tl0  1  0.60026800  0.75126100  0.63988600  1
  Tl  Tl1  1  0.95156900  0.04843100  0.25000000  1
  Tl  Tl2  1  0.24873900  0.39973200  0.86011400  1
  Tl  Tl3  1  0.75126100  0.60026800  0.13988600  1
  Tl  Tl4  1  0.39973200  0.24873900  0.36011400  1
  Tl  Tl5  1  0.04843100  0.95156900  0.75000000  1
  S  S0  1  0.69344700  0.30655300  0.75000000  1
  S  S1  1  0.30655300  0.69344700  0.25000000  1
  Br  Br0  1  0.05663600  0.31100400  0.23732500  1
  Br  Br1  1  0.94336400  0.68899600  0.76267500  1
  Br  Br2  1  0.18732000  0.15533100  0.07377600  1
  Br  Br3  1  0.31100400  0.05663600  0.73732500  1
  Br  Br4  1  0.26129900  0.47892300  0.50148300  1
  Br  Br5  1  0.16077400  0.58178400  0.98098900  1
  Br  Br6  1  0.63789400  0.51058400  0.89692600  1
  Br  Br7  1  0.15533100  0.18732000  0.57377600  1
  Br  Br8  1  0.36210600  0.48941600  0.10307400  1
  Br  Br9  1  0.00668200  0.41125300  0.68325100  1
  Br  Br10  1  0.31256500  0.82943500  0.91023900  1
  Br  Br11  1  0.41821600  0.83922600  0.51901100  1
  Br  Br12  1  0.82943500  0.31256500  0.41023900  1
  Br  Br13  1  0.94321800  0.16425600  0.88446800  1
  Br  Br14  1  0.83574400  0.05678200  0.61553200  1
  Br  Br15  1  0.47892300  0.26129900  0.00148300  1
  Br  Br16  1  0.84466900  0.81268000  0.42622400  1
  Br  Br17  1  0.16425600  0.94321800  0.38446800  1
  Br  Br18  1  0.58874700  0.99331800  0.81674900  1
  Br  Br19  1  0.61297200  0.38702800  0.25000000  1
  Br  Br20  1  0.58178400  0.16077400  0.48098900  1
  Br  Br21  1  0.17056500  0.68743500  0.58976100  1
  Br  Br22  1  0.38702800  0.61297200  0.75000000  1
  Br  Br23  1  0.41125300  0.00668200  0.18325100  1
  Br  Br24  1  0.51058400  0.63789400  0.39692600  1
  Br  Br25  1  0.81268000  0.84466900  0.92622400  1
  Br  Br26  1  0.99331800  0.58874700  0.31674900  1
  Br  Br27  1  0.48941600  0.36210600  0.60307400  1
  Br  Br28  1  0.52107700  0.73870100  0.99851700  1
  Br  Br29  1  0.73870100  0.52107700  0.49851700  1
  Br  Br30  1  0.83922600  0.41821600  0.01901100  1
  Br  Br31  1  0.05678200  0.83574400  0.11553200  1
  Br  Br32  1  0.68743500  0.17056500  0.08976100  1
  Br  Br33  1  0.68899600  0.94336400  0.26267500  1
loop_
_geom_bond_atom_site_label_1
_geom_bond_atom_site_label_2
_geom_bond_distance
_geom_bond_site_symmetry_2
Nb0 Nb3 2.350255 1_455
Nb1 Nb5 2.350255 1_455
Nb2 S1 2.301489 1_555
Nb4 Nb6 2.350255 1_564
Nb7 S0 2.301489 1_555
Nb8 S0 2.301489 1_555
Nb10 Nb9 2.350255 1_564
Nb11 S1 2.301489 1_555
Br0 Nb0 2.528618 1_555
Br1 Nb5 2.528618 1_555
Br2 Nb9 2.514146 1_554
Br3 Nb9 2.528618 1_555
Br4 Nb2 2.628856 1_555
Br4 Nb0 3.260735 1_555
Br5 Nb11 2.548135 1_556
Br6 Nb8 2.563288 1_555
Br6 Tl3 3.187958 1_556
Br7 Nb0 2.514146 1_555
Br8 Nb11 2.563288 1_555
Br8 Tl2 3.187958 1_554
Br9 Nb0 2.609069 1_555
Br9 Nb3 2.636902 1_455
Br10 Nb10 2.609442 1_556
Br10 Nb11 2.713341 1_556
Br11 Nb2 2.548135 1_555
Br12 Nb3 2.609442 1_555
Br12 Nb7 2.713341 1_555
Br13 Nb6 2.639578 1_555
Br13 Nb3 2.848599 1_555
Br14 Nb3 2.639578 1_555
Br14 Nb6 2.848599 1_555
Br15 Nb8 2.628856 1_554
Br15 Nb9 3.260735 1_554
Br16 Nb5 2.514146 1_555
Br17 Nb1 2.639578 1_555
Br17 Nb10 2.848599 1_555
Br18 Nb4 2.609069 1_556
Br18 Nb6 2.636902 1_565
Br19 Nb7 2.861318 1_555
Br19 Nb8 2.861318 1_554
Br19 Tl4 3.218919 1_555
Br19 Tl3 3.218919 1_555
Br20 Nb7 2.548135 1_555
Br21 Nb1 2.609442 1_555
Br21 Nb2 2.713341 1_555
Br22 Nb11 2.861318 1_556
Br22 Nb2 2.861318 1_555
Br22 Tl2 3.218919 1_555
Br22 Tl0 3.218919 1_555
Br23 Nb9 2.609069 1_554
Br23 Nb10 2.636902 1_545
Br24 Nb2 2.563288 1_555
Br24 Tl0 3.187958 1_555
Br25 Nb4 2.514146 1_556
Br26 Nb5 2.609069 1_555
Br26 Nb1 2.636902 1_655
Br27 Nb7 2.563288 1_555
Br27 Tl4 3.187958 1_555
Br28 Nb11 2.628856 1_556
Br28 Nb4 3.260735 1_556
Br29 Nb7 2.628856 1_555
Br29 Nb5 3.260735 1_555
Br30 Nb8 2.548135 1_554
Br31 Nb10 2.639578 1_555
Br31 Nb1 2.848599 1_555
Br32 Nb6 2.609442 1_554
Br32 Nb8 2.713341 1_554
Br33 Nb4 2.528618 1_555
