# generated using pymatgen
data_Co3Ge(CO)10
_symmetry_space_group_name_H-M   'P 1'
_cell_length_a   8.79618000
_cell_length_b   9.28224185
_cell_length_c   22.20795193
_cell_angle_alpha   95.67277445
_cell_angle_beta   96.66690601
_cell_angle_gamma   117.70247991
_symmetry_Int_Tables_number   1
_chemical_formula_structural   Co3Ge(CO)10
_chemical_formula_sum   'Co12 Ge4 C40 O40'
_cell_volume   1570.27833000
_cell_formula_units_Z   4
loop_
 _symmetry_equiv_pos_site_id
 _symmetry_equiv_pos_as_xyz
  1  'x, y, z'
loop_
 _atom_site_type_symbol
 _atom_site_label
 _atom_site_symmetry_multiplicity
 _atom_site_fract_x
 _atom_site_fract_y
 _atom_site_fract_z
 _atom_site_occupancy
  Co  Co0  1  0.78723800  0.62024200  0.92908800  1
  Co  Co1  1  0.21276200  0.37975800  0.07091200  1
  Co  Co2  1  0.98229000  0.25544600  0.13812000  1
  Co  Co3  1  0.34194200  0.75515700  0.23539500  1
  Co  Co4  1  0.16398700  0.44219900  0.38494400  1
  Co  Co5  1  0.83601300  0.55780100  0.61505600  1
  Co  Co6  1  0.01771000  0.74455400  0.86188000  1
  Co  Co7  1  0.48098300  0.41419300  0.74632900  1
  Co  Co8  1  0.59371900  0.26404000  0.56982200  1
  Co  Co9  1  0.51901700  0.58580700  0.25367100  1
  Co  Co10  1  0.65805800  0.24484300  0.76460500  1
  Co  Co11  1  0.40628100  0.73596000  0.43017800  1
  Ge  Ge0  1  0.65724600  0.37772400  0.67821300  1
  Ge  Ge1  1  0.26159400  0.48819400  0.17934100  1
  Ge  Ge2  1  0.73840600  0.51180600  0.82065900  1
  Ge  Ge3  1  0.34275400  0.62227600  0.32178700  1
  C  C0  1  0.52816700  0.61347200  0.73446500  1
  C  C1  1  0.64796100  0.70697800  0.90734600  1
  C  C2  1  0.80190100  0.10906800  0.08076000  1
  C  C3  1  0.12188700  0.26054600  0.33679800  1
  C  C4  1  0.29807700  0.27741200  0.68877400  1
  C  C5  1  0.85986400  0.26599300  0.75310900  1
  C  C6  1  0.94642600  0.88363700  0.83474500  1
  C  C7  1  0.63436800  0.86570800  0.44298800  1
  C  C8  1  0.36563200  0.13429200  0.55701200  1
  C  C9  1  0.63995200  0.17659200  0.83607800  1
  C  C10  1  0.48191000  0.06148500  0.71895500  1
  C  C11  1  0.40711200  0.52872200  0.42376400  1
  C  C12  1  0.12163600  0.68376300  0.80997100  1
  C  C13  1  0.70192300  0.72258800  0.31122600  1
  C  C14  1  0.01408200  0.51593500  0.63551200  1
  C  C15  1  0.68866500  0.13900600  0.59283700  1
  C  C16  1  0.14013600  0.73400700  0.24689100  1
  C  C17  1  0.09968500  0.24298100  0.99954700  1
  C  C18  1  0.47183300  0.38652800  0.26553500  1
  C  C19  1  0.64911400  0.43641700  0.95352000  1
  C  C20  1  0.35203900  0.29302200  0.09265400  1
  C  C21  1  0.31133500  0.86099400  0.40716300  1
  C  C22  1  0.87836400  0.31623700  0.19002900  1
  C  C23  1  0.90031500  0.75701900  0.00045300  1
  C  C24  1  0.63109900  0.63614300  0.19090600  1
  C  C25  1  0.19809900  0.89093200  0.91924000  1
  C  C26  1  0.36050000  0.73824900  0.50645000  1
  C  C27  1  0.36004800  0.82340800  0.16392200  1
  C  C28  1  0.51809000  0.93851500  0.28104500  1
  C  C29  1  0.02001900  0.41472500  0.08184500  1
  C  C30  1  0.63950000  0.26175100  0.49355000  1
  C  C31  1  0.36890100  0.36385700  0.80909400  1
  C  C32  1  0.87811300  0.73945400  0.66320200  1
  C  C33  1  0.90068100  0.63280900  0.54638600  1
  C  C34  1  0.09931900  0.36719100  0.45361400  1
  C  C35  1  0.35088600  0.56358300  0.04648000  1
  C  C36  1  0.59288800  0.47127800  0.57623600  1
  C  C37  1  0.05357400  0.11636300  0.16525500  1
  C  C38  1  0.97998100  0.58527500  0.91815500  1
  C  C39  1  0.98591800  0.48406500  0.36448800  1
  O  O0  1  0.50429100  0.47539400  0.43424100  1
  O  O1  1  0.25266000  0.94490800  0.39414700  1
  O  O2  1  0.93949800  0.67900500  0.50119300  1
  O  O3  1  0.29245800  0.32949900  0.84919300  1
  O  O4  1  0.36571400  0.94160100  0.69019900  1
  O  O5  1  0.74734000  0.05509200  0.60585300  1
  O  O6  1  0.55644600  0.32669700  0.97490200  1
  O  O7  1  0.70754200  0.67050100  0.15080700  1
  O  O8  1  0.97392500  0.84646400  0.04661200  1
  O  O9  1  0.90056300  0.97521000  0.82000100  1
  O  O10  1  0.02607500  0.15353600  0.95338800  1
  O  O11  1  0.68797600  0.02043900  0.04139600  1
  O  O12  1  0.04894600  0.50868500  0.93412400  1
  O  O13  1  0.79830200  0.34602100  0.22226800  1
  O  O14  1  0.82703900  0.81007500  0.34678300  1
  O  O15  1  0.78235500  0.95704600  0.45741000  1
  O  O16  1  0.44355400  0.67330300  0.02509800  1
  O  O17  1  0.98985200  0.26813800  0.74699700  1
  O  O18  1  0.21764500  0.04295400  0.54259000  1
  O  O19  1  0.91780000  0.86623600  0.69229500  1
  O  O20  1  0.17296100  0.18992500  0.65321700  1
  O  O21  1  0.45230200  0.25850700  0.27411800  1
  O  O22  1  0.01014800  0.73186200  0.25300300  1
  O  O23  1  0.06050200  0.32099500  0.49880700  1
  O  O24  1  0.49570900  0.52460600  0.56575900  1
  O  O25  1  0.36772100  0.87842900  0.11906600  1
  O  O26  1  0.31202400  0.97956100  0.95860400  1
  O  O27  1  0.08220000  0.13376400  0.30770500  1
  O  O28  1  0.63227900  0.12157100  0.88093400  1
  O  O29  1  0.54769800  0.74149300  0.72588200  1
  O  O30  1  0.09943700  0.02479000  0.17999900  1
  O  O31  1  0.44246200  0.23775200  0.10606300  1
  O  O32  1  0.63428600  0.05839900  0.30980100  1
  O  O33  1  0.95105400  0.49131500  0.06587600  1
  O  O34  1  0.86875300  0.50800200  0.35409700  1
  O  O35  1  0.32882100  0.74309500  0.55546700  1
  O  O36  1  0.67117900  0.25690500  0.44453300  1
  O  O37  1  0.55753800  0.76224800  0.89393700  1
  O  O38  1  0.13124700  0.49199800  0.64590300  1
  O  O39  1  0.20169800  0.65397900  0.77773200  1
loop_
_geom_bond_atom_site_label_1
_geom_bond_atom_site_label_2
_geom_bond_distance
_geom_bond_site_symmetry_2
Co0 Ge2 2.423780 1_555
Co1 Ge1 2.423780 1_555
Co2 Ge1 2.386047 1_655
Co3 Ge3 2.382276 1_555
Co3 Ge1 2.397341 1_555
Co4 Ge3 2.401183 1_555
Co5 Ge0 2.401183 1_555
Co6 Ge2 2.386047 1_455
Co7 Ge2 2.366843 1_555
Co7 Ge0 2.395434 1_555
Co8 Ge0 2.420204 1_555
Co9 Ge1 2.366843 1_555
Co9 Ge3 2.395434 1_555
Co10 Ge0 2.382276 1_555
Co10 Ge2 2.397341 1_555
Co11 Ge3 2.420204 1_555
C0 O29 1.157811 1_555
C0 Co7 1.752489 1_555
C1 O37 1.157194 1_555
C1 Co0 1.799660 1_555
C2 O11 1.154615 1_555
C2 Co2 1.780601 1_555
C3 O27 1.157395 1_555
C3 Co4 1.759136 1_555
C4 O20 1.155291 1_555
C4 Co7 1.771065 1_555
C5 O17 1.158267 1_555
C5 Co10 1.745251 1_555
C6 O9 1.155698 1_555
C6 Co6 1.800470 1_655
C7 O15 1.157265 1_555
C7 Co11 1.763458 1_555
C8 O18 1.157265 1_555
C8 Co8 1.763458 1_555
C9 O28 1.158388 1_555
C9 Co10 1.763468 1_555
C10 O4 1.158127 1_545
C10 Co10 1.779753 1_555
C11 O0 1.183154 1_555
C11 Co11 1.918295 1_555
C11 Co4 1.949323 1_555
C11 Ge3 2.598388 1_555
C12 O39 1.159289 1_555
C12 Co6 1.754625 1_555
C13 O14 1.155291 1_555
C13 Co9 1.771065 1_555
C14 O38 1.154376 1_555
C14 Co5 1.801775 1_455
C15 O5 1.157702 1_555
C15 Co8 1.795850 1_555
C16 O22 1.158267 1_555
C16 Co3 1.745251 1_555
C17 O10 1.156370 1_555
C17 Co1 1.781879 1_556
C18 O21 1.157811 1_555
C18 Co9 1.752489 1_555
C19 O6 1.157918 1_555
C19 Co0 1.758018 1_555
C20 O31 1.157194 1_555
C20 Co1 1.799660 1_555
C21 O1 1.157702 1_555
C21 Co11 1.795850 1_555
C22 O13 1.159289 1_555
C22 Co2 1.754625 1_555
C23 O8 1.156370 1_555
C23 Co0 1.781879 1_554
C24 O7 1.158732 1_555
C24 Co9 1.775598 1_555
C25 O26 1.154615 1_555
C25 Co6 1.780601 1_555
C26 O35 1.156311 1_555
C26 Co11 1.786323 1_555
C27 O25 1.158388 1_555
C27 Co3 1.763468 1_555
C28 O32 1.158127 1_565
C28 Co3 1.779753 1_555
C29 O33 1.183237 1_455
C29 Co1 1.905339 1_555
C29 Co2 1.965521 1_455
C29 Ge1 2.638355 1_555
C30 O36 1.156311 1_555
C30 Co8 1.786323 1_555
C31 O3 1.158732 1_555
C31 Co7 1.775598 1_555
C32 O19 1.157395 1_555
C32 Co5 1.759136 1_555
C33 O2 1.155975 1_555
C33 Co5 1.782446 1_555
C34 O23 1.155975 1_555
C34 Co4 1.782446 1_555
C35 O16 1.157918 1_555
C35 Co1 1.758018 1_555
C36 O24 1.183154 1_555
C36 Co8 1.918295 1_555
C36 Co5 1.949323 1_555
C36 Ge0 2.598388 1_555
C37 O30 1.155698 1_555
C37 Co2 1.800470 1_455
C38 O12 1.183237 1_655
C38 Co0 1.905339 1_555
C38 Co6 1.965521 1_655
C38 Ge2 2.638355 1_555
C39 O34 1.154376 1_555
C39 Co4 1.801775 1_655
