# generated using pymatgen
data_Cu4W(SCl)4
_symmetry_space_group_name_H-M   'P 1'
_cell_length_a   9.96563982
_cell_length_b   9.96563982
_cell_length_c   9.96563982
_cell_angle_alpha   95.40622318
_cell_angle_beta   95.40622318
_cell_angle_gamma   144.24932596
_symmetry_Int_Tables_number   1
_chemical_formula_structural   Cu4W(SCl)4
_chemical_formula_sum   'Cu8 W2 S8 Cl8'
_cell_volume   550.34287147
_cell_formula_units_Z   2
loop_
 _symmetry_equiv_pos_site_id
 _symmetry_equiv_pos_as_xyz
  1  'x, y, z'
loop_
 _atom_site_type_symbol
 _atom_site_label
 _atom_site_symmetry_multiplicity
 _atom_site_fract_x
 _atom_site_fract_y
 _atom_site_fract_z
 _atom_site_occupancy
  Cu  Cu0  1  0.13723500  0.13723500  0.27447000  1
  Cu  Cu1  1  0.86276500  0.13723500  0.00000000  1
  Cu  Cu2  1  0.50000000  0.13336700  0.63336700  1
  Cu  Cu3  1  0.86276500  0.86276500  0.72553000  1
  Cu  Cu4  1  0.13723500  0.86276500  0.00000000  1
  Cu  Cu5  1  0.50000000  0.86663300  0.36663300  1
  Cu  Cu6  1  0.13336700  0.50000000  0.63336700  1
  Cu  Cu7  1  0.86663300  0.50000000  0.36663300  1
  W  W0  1  0.00000000  0.00000000  0.00000000  1
  W  W1  1  0.50000000  0.50000000  0.00000000  1
  S  S0  1  0.09754700  0.25045900  0.84708800  1
  S  S1  1  0.40337100  0.25045900  0.15291200  1
  S  S2  1  0.59662900  0.74954100  0.84708800  1
  S  S3  1  0.25045900  0.09754700  0.84708800  1
  S  S4  1  0.90245300  0.74954100  0.15291200  1
  S  S5  1  0.74954100  0.90245300  0.15291200  1
  S  S6  1  0.25045900  0.40337100  0.15291200  1
  S  S7  1  0.74954100  0.59662900  0.84708800  1
  Cl  Cl0  1  0.87885900  0.37885900  0.75771800  1
  Cl  Cl1  1  0.37885900  0.87885900  0.75771800  1
  Cl  Cl2  1  0.62114100  0.37885900  0.50000000  1
  Cl  Cl3  1  0.12114100  0.87885900  0.50000000  1
  Cl  Cl4  1  0.87885900  0.12114100  0.50000000  1
  Cl  Cl5  1  0.62114100  0.12114100  0.24228200  1
  Cl  Cl6  1  0.12114100  0.62114100  0.24228200  1
  Cl  Cl7  1  0.37885900  0.62114100  0.50000000  1
loop_
_geom_bond_atom_site_label_1
_geom_bond_atom_site_label_2
_geom_bond_distance
_geom_bond_site_symmetry_2
Cu0 S5 2.404260 1_445
Cu0 S4 2.404260 1_445
Cu0 S6 2.404260 1_555
Cu0 S1 2.404260 1_555
Cu0 W0 2.603228 1_555
Cu1 S6 2.404260 1_655
Cu1 S2 2.404260 1_544
Cu1 S5 2.404260 1_545
Cu1 S0 2.404260 1_654
Cu1 W0 2.603228 1_655
Cu3 S3 2.404260 1_665
Cu3 S0 2.404260 1_665
Cu3 S7 2.404260 1_555
Cu3 S2 2.404260 1_555
Cu3 W0 2.603228 1_666
Cu4 S7 2.404260 1_454
Cu4 S1 2.404260 1_565
Cu4 S4 2.404260 1_455
Cu4 S3 2.404260 1_564
Cu4 W0 2.603228 1_565
S0 W1 2.556840 1_556
S0 W0 2.560198 1_556
S1 W1 2.556840 1_555
S1 W0 2.560198 1_555
S2 W1 2.556840 1_556
S2 W0 2.560198 1_666
S3 W1 2.556840 1_556
S3 W0 2.560198 1_556
S4 W1 2.556840 1_555
S4 W0 2.560198 1_665
S5 W1 2.556840 1_555
S5 W0 2.560198 1_665
S6 W1 2.556840 1_555
S6 W0 2.560198 1_555
S7 W1 2.556840 1_556
S7 W0 2.560198 1_666
Cl0 Cu2 2.308748 1_555
Cl0 Cu6 2.308748 1_655
Cl1 Cu6 2.308748 1_555
Cl1 Cu2 2.308748 1_565
Cl2 Cu7 2.308748 1_555
Cl2 Cu2 2.308748 1_555
Cl3 Cu7 2.308748 1_455
Cl3 Cu2 2.308748 1_565
Cl4 Cu5 2.308748 1_545
Cl4 Cu6 2.308748 1_655
Cl5 Cu5 2.308748 1_545
Cl5 Cu7 2.308748 1_555
Cl6 Cu7 2.308748 1_455
Cl6 Cu5 2.308748 1_555
Cl7 Cu5 2.308748 1_555
Cl7 Cu6 2.308748 1_555
