# generated using pymatgen
data_U2CuP2(HO)24
_symmetry_space_group_name_H-M   'P 1'
_cell_length_a   7.04817400
_cell_length_b   7.04817400
_cell_length_c   21.10035800
_cell_angle_alpha   90.00000000
_cell_angle_beta   90.00000000
_cell_angle_gamma   90.00000000
_symmetry_Int_Tables_number   1
_chemical_formula_structural   U2CuP2(HO)24
_chemical_formula_sum   'U4 Cu2 P4 H48 O48'
_cell_volume   1048.19735137
_cell_formula_units_Z   2
loop_
 _symmetry_equiv_pos_site_id
 _symmetry_equiv_pos_as_xyz
  1  'x, y, z'
loop_
 _atom_site_type_symbol
 _atom_site_label
 _atom_site_symmetry_multiplicity
 _atom_site_fract_x
 _atom_site_fract_y
 _atom_site_fract_z
 _atom_site_occupancy
  U  U0  1  0.50000000  0.50000000  0.29129700  1
  U  U1  1  0.50000000  0.50000000  0.70870300  1
  U  U2  1  0.00000000  0.00000000  0.20870300  1
  U  U3  1  0.00000000  0.00000000  0.79129700  1
  Cu  Cu0  1  0.50000000  0.50000000  0.50000000  1
  Cu  Cu1  1  0.00000000  0.00000000  0.00000000  1
  P  P0  1  0.00000000  0.50000000  0.25000000  1
  P  P1  1  0.00000000  0.50000000  0.75000000  1
  P  P2  1  0.50000000  0.00000000  0.25000000  1
  P  P3  1  0.50000000  0.00000000  0.75000000  1
  H  H0  1  0.84032100  0.14885400  0.41539500  1
  H  H1  1  0.15967900  0.85114600  0.41539500  1
  H  H2  1  0.15967900  0.14885400  0.58460500  1
  H  H3  1  0.84032100  0.85114600  0.58460500  1
  H  H4  1  0.65967900  0.35114600  0.08460500  1
  H  H5  1  0.34032100  0.64885400  0.08460500  1
  H  H6  1  0.34032100  0.35114600  0.91539500  1
  H  H7  1  0.65967900  0.64885400  0.91539500  1
  H  H8  1  0.14885400  0.84032100  0.58460500  1
  H  H9  1  0.85114600  0.15967900  0.58460500  1
  H  H10  1  0.14885400  0.15967900  0.41539500  1
  H  H11  1  0.85114600  0.84032100  0.41539500  1
  H  H12  1  0.35114600  0.65967900  0.91539500  1
  H  H13  1  0.64885400  0.34032100  0.91539500  1
  H  H14  1  0.35114600  0.34032100  0.08460500  1
  H  H15  1  0.64885400  0.65967900  0.08460500  1
  H  H16  1  0.90342600  0.32236400  0.37310300  1
  H  H17  1  0.09657400  0.67763600  0.37310300  1
  H  H18  1  0.09657400  0.32236400  0.62689700  1
  H  H19  1  0.90342600  0.67763600  0.62689700  1
  H  H20  1  0.59657400  0.17763600  0.12689700  1
  H  H21  1  0.40342600  0.82236400  0.12689700  1
  H  H22  1  0.40342600  0.17763600  0.87310300  1
  H  H23  1  0.59657400  0.82236400  0.87310300  1
  H  H24  1  0.32236400  0.90342600  0.62689700  1
  H  H25  1  0.67763600  0.09657400  0.62689700  1
  H  H26  1  0.32236400  0.09657400  0.37310300  1
  H  H27  1  0.67763600  0.90342600  0.37310300  1
  H  H28  1  0.17763600  0.59657400  0.87310300  1
  H  H29  1  0.82236400  0.40342600  0.87310300  1
  H  H30  1  0.17763600  0.40342600  0.12689700  1
  H  H31  1  0.82236400  0.59657400  0.12689700  1
  H  H32  1  0.84492300  0.41611800  0.47034500  1
  H  H33  1  0.15507700  0.58388200  0.47034500  1
  H  H34  1  0.15507700  0.41611800  0.52965500  1
  H  H35  1  0.84492300  0.58388200  0.52965500  1
  H  H36  1  0.65507700  0.08388200  0.02965500  1
  H  H37  1  0.34492300  0.91611800  0.02965500  1
  H  H38  1  0.34492300  0.08388200  0.97034500  1
  H  H39  1  0.65507700  0.91611800  0.97034500  1
  H  H40  1  0.41611800  0.84492300  0.52965500  1
  H  H41  1  0.58388200  0.15507700  0.52965500  1
  H  H42  1  0.41611800  0.15507700  0.47034500  1
  H  H43  1  0.58388200  0.84492300  0.47034500  1
  H  H44  1  0.08388200  0.65507700  0.97034500  1
  H  H45  1  0.91611800  0.34492300  0.97034500  1
  H  H46  1  0.08388200  0.34492300  0.02965500  1
  H  H47  1  0.91611800  0.65507700  0.02965500  1
  O  O0  1  0.50000000  0.50000000  0.37735600  1
  O  O1  1  0.50000000  0.50000000  0.62264400  1
  O  O2  1  0.00000000  0.00000000  0.12264400  1
  O  O3  1  0.00000000  0.00000000  0.87735600  1
  O  O4  1  0.50000000  0.50000000  0.20515800  1
  O  O5  1  0.50000000  0.50000000  0.79484200  1
  O  O6  1  0.00000000  0.00000000  0.29484200  1
  O  O7  1  0.00000000  0.00000000  0.70515800  1
  O  O8  1  0.77285800  0.50000000  0.50000000  1
  O  O9  1  0.22714200  0.50000000  0.50000000  1
  O  O10  1  0.72714200  0.00000000  0.00000000  1
  O  O11  1  0.27285800  0.00000000  0.00000000  1
  O  O12  1  0.50000000  0.77285800  0.50000000  1
  O  O13  1  0.50000000  0.22714200  0.50000000  1
  O  O14  1  0.00000000  0.72714200  0.00000000  1
  O  O15  1  0.00000000  0.27285800  0.00000000  1
  O  O16  1  0.82667400  0.46197700  0.29390400  1
  O  O17  1  0.17332600  0.53802300  0.29390400  1
  O  O18  1  0.17332600  0.46197700  0.70609600  1
  O  O19  1  0.82667400  0.53802300  0.70609600  1
  O  O20  1  0.67332600  0.03802300  0.20609600  1
  O  O21  1  0.32667400  0.96197700  0.20609600  1
  O  O22  1  0.32667400  0.03802300  0.79390400  1
  O  O23  1  0.67332600  0.96197700  0.79390400  1
  O  O24  1  0.46197700  0.82667400  0.70609600  1
  O  O25  1  0.53802300  0.17332600  0.70609600  1
  O  O26  1  0.46197700  0.17332600  0.29390400  1
  O  O27  1  0.53802300  0.82667400  0.29390400  1
  O  O28  1  0.03802300  0.67332600  0.79390400  1
  O  O29  1  0.96197700  0.32667400  0.79390400  1
  O  O30  1  0.03802300  0.32667400  0.20609600  1
  O  O31  1  0.96197700  0.67332600  0.20609600  1
  O  O32  1  0.92282500  0.26490600  0.41519300  1
  O  O33  1  0.07717500  0.73509400  0.41519300  1
  O  O34  1  0.07717500  0.26490600  0.58480700  1
  O  O35  1  0.92282500  0.73509400  0.58480700  1
  O  O36  1  0.57717500  0.23509400  0.08480700  1
  O  O37  1  0.42282500  0.76490600  0.08480700  1
  O  O38  1  0.42282500  0.23509400  0.91519300  1
  O  O39  1  0.57717500  0.76490600  0.91519300  1
  O  O40  1  0.26490600  0.92282500  0.58480700  1
  O  O41  1  0.73509400  0.07717500  0.58480700  1
  O  O42  1  0.26490600  0.07717500  0.41519300  1
  O  O43  1  0.73509400  0.92282500  0.41519300  1
  O  O44  1  0.23509400  0.57717500  0.91519300  1
  O  O45  1  0.76490600  0.42282500  0.91519300  1
  O  O46  1  0.23509400  0.42282500  0.08480700  1
  O  O47  1  0.76490600  0.57717500  0.08480700  1
loop_
_geom_bond_atom_site_label_1
_geom_bond_atom_site_label_2
_geom_bond_distance
_geom_bond_site_symmetry_2
Cu0 O8 1.923151 1_555
Cu0 O12 1.923151 1_555
Cu0 O9 1.923151 1_555
Cu0 O13 1.923151 1_555
Cu0 O1 2.587832 1_555
Cu0 O0 2.587832 1_555
Cu1 O15 1.923151 1_555
Cu1 O11 1.923151 1_555
Cu1 O10 1.923151 1_455
Cu1 O14 1.923151 1_545
Cu1 O2 2.587832 1_555
Cu1 O3 2.587832 1_554
H0 O32 1.003600 1_555
H1 O33 1.003600 1_555
H2 O34 1.003600 1_555
H3 O35 1.003600 1_555
H4 O36 1.003600 1_555
H5 O37 1.003600 1_555
H6 O38 1.003600 1_555
H7 O39 1.003600 1_555
H8 O40 1.003600 1_555
H9 O41 1.003600 1_555
H10 O42 1.003600 1_555
H11 O43 1.003600 1_555
H12 O44 1.003600 1_555
H13 O45 1.003600 1_555
H14 O46 1.003600 1_555
H15 O47 1.003600 1_555
H16 O32 0.985619 1_555
H17 O33 0.985619 1_555
H18 O34 0.985619 1_555
H19 O35 0.985619 1_555
H20 O36 0.985619 1_555
H21 O37 0.985619 1_555
H22 O38 0.985619 1_555
H23 O39 0.985619 1_555
H24 O40 0.985619 1_555
H25 O41 0.985619 1_555
H26 O42 0.985619 1_555
H27 O43 0.985619 1_555
H28 O44 0.985619 1_555
H29 O45 0.985619 1_555
H30 O46 0.985619 1_555
H31 O47 0.985619 1_555
H32 O8 0.999532 1_555
H33 O9 0.999532 1_555
H34 O9 0.999532 1_555
H35 O8 0.999532 1_555
H36 O10 0.999532 1_555
H37 O11 0.999532 1_565
H38 O11 0.999532 1_556
H39 O10 0.999532 1_566
H40 O12 0.999532 1_555
H41 O13 0.999532 1_555
H42 O13 0.999532 1_555
H43 O12 0.999532 1_555
H44 O14 0.999532 1_556
H45 O15 0.999532 1_656
H46 O15 0.999532 1_555
H47 O14 0.999532 1_655
O0 U0 1.815876 1_555
O1 U1 1.815876 1_555
O2 U2 1.815876 1_555
O3 U3 1.815876 1_555
O4 U0 1.817564 1_555
O5 U1 1.817564 1_555
O6 U2 1.817564 1_555
O7 U3 1.817564 1_555
O16 P0 1.556407 1_655
O16 U0 2.318652 1_555
O17 P0 1.556407 1_555
O17 U0 2.318652 1_555
O18 P1 1.556407 1_555
O18 U1 2.318652 1_555
O19 P1 1.556407 1_655
O19 U1 2.318652 1_555
O20 P2 1.556407 1_555
O20 U2 2.318652 1_655
O21 P2 1.556407 1_565
O21 U2 2.318652 1_565
O22 P3 1.556407 1_555
O22 U3 2.318652 1_555
O23 P3 1.556407 1_565
O23 U3 2.318652 1_665
O24 P3 1.556407 1_565
O24 U1 2.318652 1_555
O25 P3 1.556407 1_555
O25 U1 2.318652 1_555
O26 P2 1.556407 1_555
O26 U0 2.318652 1_555
O27 P2 1.556407 1_565
O27 U0 2.318652 1_555
O28 P1 1.556407 1_555
O28 U3 2.318652 1_565
O29 P1 1.556407 1_655
O29 U3 2.318652 1_655
O30 P0 1.556407 1_555
O30 U2 2.318652 1_555
O31 P0 1.556407 1_655
O31 U2 2.318652 1_665
