# generated using pymatgen
data_CeMg2H7
_symmetry_space_group_name_H-M   'P 1'
_cell_length_a   6.28062211
_cell_length_b   6.28062211
_cell_length_c   9.43592393
_cell_angle_alpha   90.00000000
_cell_angle_beta   90.00000000
_cell_angle_gamma   90.00000000
_symmetry_Int_Tables_number   1
_chemical_formula_structural   CeMg2H7
_chemical_formula_sum   'Ce4 Mg8 H28'
_cell_volume   372.21147547
_cell_formula_units_Z   4
loop_
 _symmetry_equiv_pos_site_id
 _symmetry_equiv_pos_as_xyz
  1  'x, y, z'
loop_
 _atom_site_type_symbol
 _atom_site_label
 _atom_site_symmetry_multiplicity
 _atom_site_fract_x
 _atom_site_fract_y
 _atom_site_fract_z
 _atom_site_occupancy
  Ce  Ce0  1  0.77105805  0.22894195  0.75000000  1
  Ce  Ce1  1  0.22894195  0.77105805  0.25000000  1
  Ce  Ce2  1  0.72894195  0.72894195  0.50000000  1
  Ce  Ce3  1  0.27105805  0.27105805  0.00000000  1
  Mg  Mg0  1  0.52719634  0.23674956  0.39967796  1
  Mg  Mg1  1  0.47280366  0.76325044  0.89967796  1
  Mg  Mg2  1  0.73674956  0.97280366  0.14967796  1
  Mg  Mg3  1  0.26325044  0.02719634  0.64967796  1
  Mg  Mg4  1  0.76325044  0.47280366  0.10032204  1
  Mg  Mg5  1  0.23674956  0.52719634  0.60032204  1
  Mg  Mg6  1  0.97280366  0.73674956  0.85032204  1
  Mg  Mg7  1  0.02719634  0.26325044  0.35032204  1
  H  H0  1  0.53493073  0.47056787  0.62145258  1
  H  H1  1  0.46506927  0.52943213  0.12145258  1
  H  H2  1  0.97056787  0.96506927  0.37145258  1
  H  H3  1  0.02943213  0.03493073  0.87145258  1
  H  H4  1  0.52943213  0.46506927  0.87854742  1
  H  H5  1  0.47056787  0.53493073  0.37854742  1
  H  H6  1  0.96506927  0.97056787  0.62854742  1
  H  H7  1  0.03493073  0.02943213  0.12854742  1
  H  H8  1  0.57185927  0.06398172  0.57329175  1
  H  H9  1  0.42814073  0.93601828  0.07329175  1
  H  H10  1  0.56398172  0.92814073  0.32329175  1
  H  H11  1  0.43601828  0.07185927  0.82329175  1
  H  H12  1  0.93601828  0.42814073  0.92670825  1
  H  H13  1  0.06398172  0.57185927  0.42670825  1
  H  H14  1  0.92814073  0.56398172  0.67670825  1
  H  H15  1  0.07185927  0.43601828  0.17670825  1
  H  H16  1  0.80401178  0.34025665  0.49498333  1
  H  H17  1  0.19598822  0.65974335  -0.00501667  1
  H  H18  1  0.84025665  0.69598822  0.24498333  1
  H  H19  1  0.15974335  0.30401178  0.74498333  1
  H  H20  1  0.65974335  0.19598822  0.00501667  1
  H  H21  1  0.34025665  0.80401178  0.50501667  1
  H  H22  1  0.69598822  0.84025665  0.75501667  1
  H  H23  1  0.30401178  0.15974335  0.25501667  1
  H  H24  1  0.25642244  0.74357756  0.75000000  1
  H  H25  1  0.74357756  0.25642244  0.25000000  1
  H  H26  1  0.24357756  0.24357756  0.50000000  1
  H  H27  1  0.75642244  0.75642244  0.00000000  1
loop_
_geom_bond_atom_site_label_1
_geom_bond_atom_site_label_2
_geom_bond_distance
_geom_bond_site_symmetry_2
Ce0 H12 2.327849 1_555
Ce0 H8 2.327849 1_555
Ce0 H3 2.330546 1_655
Ce0 H6 2.330546 1_545
Ce0 H14 2.424771 1_555
Ce0 H11 2.424771 1_555
Ce0 H4 2.444103 1_555
Ce0 H0 2.444103 1_555
Ce0 H22 2.486750 1_545
Ce0 H19 2.486750 1_655
Ce0 H16 2.514355 1_555
Ce0 H20 2.514355 1_556
Ce1 H9 2.327849 1_555
Ce1 H13 2.327849 1_555
Ce1 H2 2.330546 1_455
Ce1 H7 2.330546 1_565
Ce1 H10 2.424771 1_555
Ce1 H15 2.424771 1_555
Ce1 H5 2.444103 1_555
Ce1 H1 2.444103 1_555
Ce1 H18 2.486750 1_455
Ce1 H23 2.486750 1_565
Ce1 H17 2.514355 1_555
Ce1 H21 2.514355 1_555
Ce2 H14 2.327849 1_555
Ce2 H10 2.327849 1_555
Ce2 H0 2.330546 1_555
Ce2 H5 2.330546 1_555
Ce2 H8 2.424771 1_565
Ce2 H13 2.424771 1_655
Ce2 H2 2.444103 1_555
Ce2 H6 2.444103 1_555
Ce2 H21 2.486750 1_555
Ce2 H16 2.486750 1_555
Ce2 H18 2.514355 1_555
Ce2 H22 2.514355 1_555
Ce3 H11 2.327849 1_554
Ce3 H15 2.327849 1_555
Ce3 H1 2.330546 1_555
Ce3 H4 2.330546 1_554
Ce3 H12 2.424771 1_454
Ce3 H9 2.424771 1_545
Ce3 H3 2.444103 1_554
Ce3 H7 2.444103 1_555
Ce3 H20 2.486750 1_555
Ce3 H17 2.486750 1_555
Ce3 H19 2.514355 1_554
Ce3 H23 2.514355 1_555
H0 Mg5 1.916636 1_555
H1 Mg4 1.916636 1_555
H2 Mg7 1.916636 1_665
H3 Mg6 1.916636 1_445
H4 Mg1 1.916636 1_555
H5 Mg0 1.916636 1_555
H6 Mg3 1.916636 1_665
H7 Mg2 1.916636 1_445
H8 Mg0 1.984900 1_555
H8 Mg3 2.080800 1_555
H9 Mg1 1.984900 1_554
H9 Mg2 2.080800 1_555
H10 Mg2 1.984900 1_555
H10 Mg0 2.080800 1_565
H11 Mg3 1.984900 1_555
H11 Mg1 2.080800 1_545
H12 Mg4 1.984900 1_556
H12 Mg6 2.080800 1_555
H13 Mg5 1.984900 1_555
H13 Mg7 2.080800 1_555
H14 Mg6 1.984900 1_555
H14 Mg5 2.080800 1_655
H15 Mg7 1.984900 1_555
H15 Mg4 2.080800 1_455
H16 Mg7 2.015451 1_655
H16 Mg0 2.062518 1_555
H17 Mg6 2.015451 1_454
H17 Mg1 2.062518 1_554
H18 Mg4 2.015451 1_555
H18 Mg2 2.062518 1_555
H19 Mg5 2.015451 1_555
H19 Mg3 2.062518 1_555
H20 Mg2 2.015451 1_545
H20 Mg4 2.062518 1_555
H21 Mg3 2.015451 1_565
H21 Mg5 2.062518 1_555
H22 Mg1 2.015451 1_555
H22 Mg6 2.062518 1_555
H23 Mg0 2.015451 1_555
H23 Mg7 2.062518 1_555
H24 Mg5 1.963900 1_555
H24 Mg1 1.963900 1_555
H24 Mg3 2.017669 1_565
H24 Mg6 2.017669 1_455
H25 Mg4 1.963900 1_555
H25 Mg0 1.963900 1_555
H25 Mg7 2.017669 1_655
H25 Mg2 2.017669 1_545
H26 Mg7 1.963900 1_555
H26 Mg3 1.963900 1_555
H26 Mg5 2.017669 1_555
H26 Mg0 2.017669 1_555
H27 Mg6 1.963900 1_554
H27 Mg2 1.963900 1_555
H27 Mg4 2.017669 1_555
H27 Mg1 2.017669 1_554
