# generated using pymatgen
data_Zn(InS2)2
_symmetry_space_group_name_H-M   'P 1'
_cell_length_a   3.88677781
_cell_length_b   6.71891209
_cell_length_c   12.73451179
_cell_angle_alpha   80.04170799
_cell_angle_beta   90.00000000
_cell_angle_gamma   90.00000000
_symmetry_Int_Tables_number   1
_chemical_formula_structural   Zn(InS2)2
_chemical_formula_sum   'Zn2 In4 S8'
_cell_volume   327.55034223
_cell_formula_units_Z   2
loop_
 _symmetry_equiv_pos_site_id
 _symmetry_equiv_pos_as_xyz
  1  'x, y, z'
loop_
 _atom_site_type_symbol
 _atom_site_label
 _atom_site_symmetry_multiplicity
 _atom_site_fract_x
 _atom_site_fract_y
 _atom_site_fract_z
 _atom_site_occupancy
  Zn  Zn0  1  0.00000000  0.76173188  0.70006003  1
  Zn  Zn1  1  0.00000000  0.23826812  0.29993997  1
  In  In0  1  -0.00000000  0.00000000  0.00000000  1
  In  In1  1  0.50000000  0.27707119  0.68584326  1
  In  In2  1  0.50000000  0.50000000  0.00000000  1
  In  In3  1  0.50000000  0.72292881  0.31415674  1
  S  S0  1  0.00000000  0.89292854  0.37565024  1
  S  S1  1  0.50000000  0.35814265  0.36813778  1
  S  S2  1  0.50000000  0.20207714  0.88920435  1
  S  S3  1  0.00000000  0.29573234  0.11013181  1
  S  S4  1  0.00000000  0.70426766  0.88986819  1
  S  S5  1  0.50000000  0.79792286  0.11079565  1
  S  S6  1  0.50000000  0.64185735  0.63186222  1
  S  S7  1  0.00000000  0.10707146  0.62434976  1
loop_
_geom_bond_atom_site_label_1
_geom_bond_atom_site_label_2
_geom_bond_distance
_geom_bond_site_symmetry_2
In0 S3 2.622770 1_555
In0 S4 2.622770 1_544
In0 S5 2.635977 1_545
In0 S2 2.635977 1_454
In0 S2 2.635977 1_554
In0 S5 2.635977 1_445
In1 S6 2.428386 1_555
In1 S7 2.450306 1_555
In1 S7 2.450306 1_655
In1 S2 2.551303 1_555
In2 S4 2.638485 1_554
In2 S4 2.638485 1_654
In2 S3 2.638485 1_655
In2 S3 2.638485 1_555
In2 S5 2.640910 1_555
In2 S2 2.640910 1_554
In3 S1 2.428386 1_555
In3 S0 2.450306 1_555
In3 S0 2.450306 1_655
In3 S5 2.551303 1_555
S0 Zn1 2.353646 1_565
S1 Zn1 2.328440 1_555
S1 Zn1 2.328440 1_655
S3 Zn1 2.380911 1_555
S4 Zn0 2.380911 1_555
S6 Zn0 2.328440 1_555
S6 Zn0 2.328440 1_655
S7 Zn0 2.353646 1_545
