# generated using pymatgen
data_FeAgTe2
_symmetry_space_group_name_H-M   'P 1'
_cell_length_a   3.98538500
_cell_length_b   8.21812400
_cell_length_c   11.20981900
_cell_angle_alpha   90.00000000
_cell_angle_beta   90.00000000
_cell_angle_gamma   90.00000000
_symmetry_Int_Tables_number   1
_chemical_formula_structural   FeAgTe2
_chemical_formula_sum   'Fe4 Ag4 Te8'
_cell_volume   367.14834262
_cell_formula_units_Z   4
loop_
 _symmetry_equiv_pos_site_id
 _symmetry_equiv_pos_as_xyz
  1  'x, y, z'
loop_
 _atom_site_type_symbol
 _atom_site_label
 _atom_site_symmetry_multiplicity
 _atom_site_fract_x
 _atom_site_fract_y
 _atom_site_fract_z
 _atom_site_occupancy
  Fe  Fe0  1  0.50000000  0.53732800  0.15865500  1
  Fe  Fe1  1  0.00000000  0.01242400  0.31171400  1
  Fe  Fe2  1  0.00000000  0.03732800  0.84134500  1
  Fe  Fe3  1  0.50000000  0.51242400  0.68828600  1
  Ag  Ag0  1  0.00000000  0.98595300  0.58257300  1
  Ag  Ag1  1  0.00000000  0.67333300  0.01792000  1
  Ag  Ag2  1  0.50000000  0.48595300  0.41742700  1
  Ag  Ag3  1  0.50000000  0.17333300  0.98208000  1
  Te  Te0  1  0.50000000  0.79873800  0.29371200  1
  Te  Te1  1  0.50000000  0.86443500  0.77256700  1
  Te  Te2  1  0.50000000  0.48841100  0.91442000  1
  Te  Te3  1  0.00000000  0.63937900  0.57399600  1
  Te  Te4  1  0.00000000  0.98841100  0.08558000  1
  Te  Te5  1  0.00000000  0.29873800  0.70628800  1
  Te  Te6  1  0.00000000  0.36443500  0.22743300  1
  Te  Te7  1  0.50000000  0.13937900  0.42600400  1
loop_
_geom_bond_atom_site_label_1
_geom_bond_atom_site_label_2
_geom_bond_distance
_geom_bond_site_symmetry_2
Fe0 Te6 2.565946 1_655
Fe0 Te6 2.565946 1_555
Fe0 Te0 2.628171 1_555
Fe0 Te2 2.767187 1_554
Fe1 Te4 2.542591 1_545
Fe1 Te7 2.588583 1_555
Fe1 Te7 2.588583 1_455
Fe1 Te0 2.663724 1_445
Fe1 Te0 2.663724 1_545
Fe1 Te6 3.043238 1_555
Fe2 Te1 2.565946 1_545
Fe2 Te1 2.565946 1_445
Fe2 Te5 2.628171 1_555
Fe2 Te4 2.767187 1_546
Fe3 Te2 2.542591 1_555
Fe3 Te3 2.588583 1_655
Fe3 Te3 2.588583 1_555
Fe3 Te5 2.663724 1_555
Fe3 Te5 2.663724 1_655
Fe3 Te1 3.043238 1_555
Ag0 Te3 2.849810 1_555
Ag0 Te5 2.920750 1_565
Ag0 Fe2 2.931352 1_565
Ag0 Te7 2.939564 1_465
Ag0 Te7 2.939564 1_565
Ag0 Fe1 3.044064 1_565
Ag0 Te1 3.082883 1_455
Ag0 Te1 3.082883 1_555
Ag1 Te4 2.698146 1_555
Ag1 Te2 2.761603 1_554
Ag1 Te2 2.761603 1_454
Ag1 Fe0 2.776501 1_555
Ag1 Fe0 2.776501 1_455
Ag2 Te7 2.849810 1_555
Ag2 Te0 2.920750 1_555
Ag2 Fe0 2.931352 1_555
Ag2 Te3 2.939564 1_555
Ag2 Te3 2.939564 1_655
Ag2 Fe3 3.044064 1_555
Ag2 Te6 3.082883 1_655
Ag2 Te6 3.082883 1_555
Ag3 Te2 2.698146 1_555
Ag3 Te4 2.761603 1_546
Ag3 Te4 2.761603 1_646
Ag3 Fe2 2.776501 1_655
Ag3 Fe2 2.776501 1_555
