# generated using pymatgen
data_Ho2Si4CN6
_symmetry_space_group_name_H-M   'P 1'
_cell_length_a   9.98531400
_cell_length_b   5.93784900
_cell_length_c   11.91406041
_cell_angle_alpha   60.37022962
_cell_angle_beta   90.00000000
_cell_angle_gamma   90.00000000
_symmetry_Int_Tables_number   1
_chemical_formula_structural   Ho2Si4CN6
_chemical_formula_sum   'Ho8 Si16 C4 N24'
_cell_volume   614.02981502
_cell_formula_units_Z   4
loop_
 _symmetry_equiv_pos_site_id
 _symmetry_equiv_pos_as_xyz
  1  'x, y, z'
loop_
 _atom_site_type_symbol
 _atom_site_label
 _atom_site_symmetry_multiplicity
 _atom_site_fract_x
 _atom_site_fract_y
 _atom_site_fract_z
 _atom_site_occupancy
  Ho  Ho0  1  0.91198800  0.34610400  0.91682600  1
  Ho  Ho1  1  0.41198800  0.65389600  0.58317400  1
  Ho  Ho2  1  0.08801200  0.65389600  0.08317400  1
  Ho  Ho3  1  0.58801200  0.34610400  0.41682600  1
  Ho  Ho4  1  0.06880800  0.67193600  0.59368100  1
  Ho  Ho5  1  0.56880800  0.32806400  0.90631900  1
  Ho  Ho6  1  0.93119200  0.32806400  0.40631900  1
  Ho  Ho7  1  0.43119200  0.67193600  0.09368100  1
  Si  Si0  1  0.72644200  0.32180000  0.65878100  1
  Si  Si1  1  0.22644200  0.67820000  0.84121900  1
  Si  Si2  1  0.27355800  0.67820000  0.34121900  1
  Si  Si3  1  0.77355800  0.32180000  0.15878100  1
  Si  Si4  1  0.70516600  0.79892400  0.67624000  1
  Si  Si5  1  0.20516600  0.20107600  0.82376000  1
  Si  Si6  1  0.29483400  0.20107600  0.32376000  1
  Si  Si7  1  0.79483400  0.79892400  0.17624000  1
  Si  Si8  1  0.71217300  0.83608100  0.92061000  1
  Si  Si9  1  0.21217300  0.16391900  0.57939000  1
  Si  Si10  1  0.28782700  0.16391900  0.07939000  1
  Si  Si11  1  0.78782700  0.83608100  0.42061000  1
  Si  Si12  1  0.97921000  0.99646600  0.74990500  1
  Si  Si13  1  0.47921000  0.00353400  0.75009500  1
  Si  Si14  1  0.02079000  0.00353400  0.25009500  1
  Si  Si15  1  0.52079000  0.99646600  0.24990500  1
  C  C0  1  0.79132700  0.97600600  0.75300300  1
  C  C1  1  0.29132700  0.02399400  0.74699700  1
  C  C2  1  0.20867300  0.02399400  0.24699700  1
  C  C3  1  0.70867300  0.97600600  0.25300300  1
  N  N0  1  0.55303800  0.29764400  0.63591500  1
  N  N1  1  0.05303800  0.70235600  0.86408500  1
  N  N2  1  0.44696200  0.70235600  0.36408500  1
  N  N3  1  0.94696200  0.29764400  0.13591500  1
  N  N4  1  0.76165200  0.47990100  0.74621500  1
  N  N5  1  0.26165200  0.52009900  0.75378500  1
  N  N6  1  0.23834800  0.52009900  0.25378500  1
  N  N7  1  0.73834800  0.47990100  0.24621500  1
  N  N8  1  0.78888300  0.49491900  0.50082700  1
  N  N9  1  0.28888300  0.50508100  0.99917300  1
  N  N10  1  0.21111700  0.50508100  0.49917300  1
  N  N11  1  0.71111700  0.49491900  0.00082700  1
  N  N12  1  0.53533200  0.75541000  0.72273000  1
  N  N13  1  0.03533200  0.24459000  0.77727000  1
  N  N14  1  0.46466800  0.24459000  0.27727000  1
  N  N15  1  0.96466800  0.75541000  0.22273000  1
  N  N16  1  0.54420600  0.93999100  0.89937700  1
  N  N17  1  0.04420600  0.06000900  0.60062300  1
  N  N18  1  0.45579400  0.06000900  0.10062300  1
  N  N19  1  0.95579400  0.93999100  0.39937700  1
  N  N20  1  0.78559500  0.96359300  0.00918200  1
  N  N21  1  0.28559500  0.03640700  0.49081800  1
  N  N22  1  0.21440500  0.03640700  0.99081800  1
  N  N23  1  0.71440500  0.96359300  0.50918200  1
loop_
_geom_bond_atom_site_label_1
_geom_bond_atom_site_label_2
_geom_bond_distance
_geom_bond_site_symmetry_2
Ho0 N4 2.328004 1_555
Ho0 N20 2.343326 1_546
Ho0 N1 2.353506 1_655
Ho0 N13 2.373969 1_655
Ho0 N3 2.505083 1_556
Ho0 N11 2.584552 1_556
Ho1 N5 2.328004 1_555
Ho1 N21 2.343326 1_565
Ho1 N0 2.353506 1_555
Ho1 N12 2.373969 1_555
Ho1 N2 2.505083 1_555
Ho1 N10 2.584552 1_555
Ho2 N6 2.328004 1_555
Ho2 N22 2.343326 1_564
Ho2 N3 2.353506 1_455
Ho2 N15 2.373969 1_455
Ho2 N1 2.505083 1_554
Ho2 N9 2.584552 1_554
Ho3 N7 2.328004 1_555
Ho3 N23 2.343326 1_545
Ho3 N2 2.353506 1_555
Ho3 N14 2.373969 1_555
Ho3 N0 2.505083 1_555
Ho3 N8 2.584552 1_555
Ho4 N10 2.317698 1_555
Ho4 N19 2.350011 1_455
Ho4 N17 2.359136 1_565
Ho4 N13 2.418039 1_555
Ho4 N5 2.541428 1_555
Ho4 N21 2.872092 1_565
Ho5 N11 2.317698 1_556
Ho5 N18 2.350011 1_556
Ho5 N16 2.359136 1_545
Ho5 N12 2.418039 1_555
Ho5 N4 2.541428 1_555
Ho5 N20 2.872092 1_546
Ho6 N8 2.317698 1_555
Ho6 N17 2.350011 1_655
Ho6 N19 2.359136 1_545
Ho6 N15 2.418039 1_555
Ho6 N7 2.541428 1_555
Ho6 N23 2.872092 1_545
Ho7 N9 2.317698 1_554
Ho7 N16 2.350011 1_554
Ho7 N18 2.359136 1_565
Ho7 N14 2.418039 1_555
Ho7 N6 2.541428 1_555
Ho7 N22 2.872092 1_564
C0 Si12 1.879183 1_555
C0 Si0 1.901779 1_565
C0 Si4 1.906069 1_555
C0 Si8 1.913644 1_555
C1 Si13 1.879183 1_555
C1 Si1 1.901779 1_545
C1 Si5 1.906069 1_555
C1 Si9 1.913644 1_555
C2 Si14 1.879183 1_555
C2 Si2 1.901779 1_545
C2 Si6 1.906069 1_555
C2 Si10 1.913644 1_555
C3 Si15 1.879183 1_555
C3 Si3 1.901779 1_565
C3 Si7 1.906069 1_555
C3 Si11 1.913644 1_555
N0 Si13 1.759205 1_555
N0 Si0 1.769604 1_555
N1 Si12 1.759205 1_455
N1 Si1 1.769604 1_555
N2 Si15 1.759205 1_555
N2 Si2 1.769604 1_555
N3 Si14 1.759205 1_655
N3 Si3 1.769604 1_555
N4 Si4 1.743566 1_555
N4 Si0 1.748428 1_555
N5 Si5 1.743566 1_555
N5 Si1 1.748428 1_555
N6 Si6 1.743566 1_555
N6 Si2 1.748428 1_555
N7 Si7 1.743566 1_555
N7 Si3 1.748428 1_555
N8 Si0 1.753309 1_555
N8 Si11 1.761503 1_555
N9 Si1 1.753309 1_555
N9 Si10 1.761503 1_556
N10 Si2 1.753309 1_555
N10 Si9 1.761503 1_555
N11 Si3 1.753309 1_555
N11 Si8 1.761503 1_554
N12 Si13 1.750993 1_565
N12 Si4 1.762933 1_555
N13 Si12 1.750993 1_445
N13 Si5 1.762933 1_555
N14 Si15 1.750993 1_545
N14 Si6 1.762933 1_555
N15 Si14 1.750993 1_665
N15 Si7 1.762933 1_555
N16 Si13 1.750225 1_565
N16 Si8 1.761636 1_555
N17 Si12 1.750225 1_445
N17 Si9 1.761636 1_555
N18 Si15 1.750225 1_545
N18 Si10 1.761636 1_555
N19 Si14 1.750225 1_665
N19 Si11 1.761636 1_555
N20 Si7 1.732548 1_555
N20 Si8 1.736188 1_554
N21 Si6 1.732548 1_555
N21 Si9 1.736188 1_555
N22 Si5 1.732548 1_555
N22 Si10 1.736188 1_556
N23 Si4 1.732548 1_555
N23 Si11 1.736188 1_555
