# generated using pymatgen
data_Nb2Ni4O9
_symmetry_space_group_name_H-M   'P 1'
_cell_length_a   10.21240443
_cell_length_b   10.23681641
_cell_length_c   15.36080845
_cell_angle_alpha   80.45556725
_cell_angle_beta   70.58442255
_cell_angle_gamma   60.07885471
_symmetry_Int_Tables_number   1
_chemical_formula_structural   Nb2Ni4O9
_chemical_formula_sum   'Nb16 Ni32 O72'
_cell_volume   1312.66767331
_cell_formula_units_Z   8
loop_
 _symmetry_equiv_pos_site_id
 _symmetry_equiv_pos_as_xyz
  1  'x, y, z'
loop_
 _atom_site_type_symbol
 _atom_site_label
 _atom_site_symmetry_multiplicity
 _atom_site_fract_x
 _atom_site_fract_y
 _atom_site_fract_z
 _atom_site_occupancy
  Nb  Nb0  1  0.98482100  0.72529200  0.35523700  1
  Nb  Nb1  1  0.45482500  0.69484500  0.35441400  1
  Nb  Nb2  1  0.29086500  0.22414400  0.64485700  1
  Nb  Nb3  1  0.05674800  0.69601300  0.14578000  1
  Nb  Nb4  1  0.68572200  0.72414400  0.85514300  1
  Nb  Nb5  1  0.28988800  0.72529200  0.64476300  1
  Nb  Nb6  1  0.68465100  0.22529200  0.85523700  1
  Nb  Nb7  1  0.55923900  0.19484500  0.14558600  1
  Nb  Nb8  1  0.48499000  0.22414400  0.35514300  1
  Nb  Nb9  1  0.24723800  0.69601300  0.85422000  1
  Nb  Nb10  1  0.85033000  0.69484500  0.64558600  1
  Nb  Nb11  1  0.85145800  0.19601300  0.64578000  1
  Nb  Nb12  1  0.09005800  0.22529200  0.14476300  1
  Nb  Nb13  1  0.59013300  0.72414400  0.14485700  1
  Nb  Nb14  1  0.24591600  0.19484500  0.85441400  1
  Nb  Nb15  1  0.95252800  0.19601300  0.35422000  1
  Ni  Ni0  1  0.81830300  0.88072300  0.99774400  1
  Ni  Ni1  1  0.90036600  0.87882600  0.81376000  1
  Ni  Ni2  1  0.30097400  0.88072300  0.00225600  1
  Ni  Ni3  1  0.32216600  0.04242500  0.31242300  1
  Ni  Ni4  1  0.05323000  0.38072300  0.49774400  1
  Ni  Ni5  1  0.97393000  0.05214100  0.00000000  1
  Ni  Ni6  1  0.72393000  0.55214100  0.50000000  1
  Ni  Ni7  1  0.46412600  0.37882600  0.68624000  1
  Ni  Ni8  1  0.47856500  0.04286900  0.00000000  1
  Ni  Ni9  1  0.23758300  0.04533500  0.49666100  1
  Ni  Ni10  1  0.63540900  0.04242500  0.68757700  1
  Ni  Ni11  1  0.46505400  0.87799800  0.68554500  1
  Ni  Ni12  1  0.30647300  0.38705400  0.00000000  1
  Ni  Ni13  1  0.72140200  0.37799800  0.18554500  1
  Ni  Ni14  1  0.22856500  0.54286900  0.50000000  1
  Ni  Ni15  1  0.22080800  0.87882600  0.18624000  1
  Ni  Ni16  1  0.65694700  0.87799800  0.31445500  1
  Ni  Ni17  1  0.88468000  0.04281300  0.18580800  1
  Ni  Ni18  1  0.82048800  0.54281300  0.31419200  1
  Ni  Ni19  1  0.07298600  0.54242500  0.81242300  1
  Ni  Ni20  1  0.81352600  0.37294800  0.00000000  1
  Ni  Ni21  1  0.71708300  0.04533500  0.50333900  1
  Ni  Ni22  1  0.56352600  0.87294800  0.50000000  1
  Ni  Ni23  1  0.97042200  0.54533500  0.99666100  1
  Ni  Ni24  1  0.56604700  0.38072300  0.50225600  1
  Ni  Ni25  1  0.90059900  0.37799800  0.81445500  1
  Ni  Ni26  1  0.38458900  0.54242500  0.18757700  1
  Ni  Ni27  1  0.07250700  0.04281300  0.81419200  1
  Ni  Ni28  1  0.48424300  0.54533500  0.00333900  1
  Ni  Ni29  1  0.15704800  0.37882600  0.31376000  1
  Ni  Ni30  1  0.05647300  0.88705400  0.50000000  1
  Ni  Ni31  1  0.63669900  0.54281300  0.68580800  1
  O  O0  1  0.51123000  0.21145100  0.59705100  1
  O  O1  1  0.51206000  0.38452400  0.92716800  1
  O  O2  1  0.17627100  0.04993400  0.91779800  1
  O  O3  1  0.52277300  0.06070000  0.24815800  1
  O  O4  1  0.77379500  0.04993400  0.08220200  1
  O  O5  1  0.02872600  0.20972300  0.57155800  1
  O  O6  1  0.26847500  0.85696800  0.74956300  1
  O  O7  1  0.61683300  0.21273600  0.75184400  1
  O  O8  1  0.35028400  0.70972300  0.92844200  1
  O  O9  1  0.84235900  0.04838600  0.58857300  1
  O  O10  1  0.11947800  0.21069300  0.74911400  1
  O  O11  1  0.52093000  0.56070000  0.25184200  1
  O  O12  1  0.76155100  0.20972300  0.42844200  1
  O  O13  1  0.43026800  0.71145100  0.09705100  1
  O  O14  1  0.43399800  0.21229800  0.07680600  1
  O  O15  1  0.51214200  0.71415800  0.59367900  1
  O  O16  1  0.43749100  0.37888200  0.42656900  1
  O  O17  1  0.60599700  0.54993400  0.41779800  1
  O  O18  1  0.02739100  0.88007000  0.90425300  1
  O  O19  1  0.59987500  0.03999600  0.41624600  1
  O  O20  1  0.68164400  0.38007000  0.59574700  1
  O  O21  1  0.37650800  0.85617600  0.24905000  1
  O  O22  1  0.02400800  0.37809000  0.90422000  1
  O  O23  1  0.84406900  0.54993400  0.58220200  1
  O  O24  1  0.76612200  0.53999600  0.08375400  1
  O  O25  1  0.61859200  0.71069300  0.75088600  1
  O  O26  1  0.91837000  0.56070000  0.74815800  1
  O  O27  1  0.27731800  0.21145100  0.40294900  1
  O  O28  1  0.91669800  0.06402400  0.75076600  1
  O  O29  1  0.02689800  0.71229800  0.57680600  1
  O  O30  1  0.18362800  0.37888200  0.57343100  1
  O  O31  1  0.66983000  0.21069300  0.25088600  1
  O  O32  1  0.85582100  0.21415800  0.90632100  1
  O  O33  1  0.92624700  0.88452400  0.42716800  1
  O  O34  1  0.26543900  0.04097100  0.08515700  1
  O  O35  1  0.67071600  0.71069300  0.24911400  1
  O  O36  1  0.41652800  0.06070000  0.75184200  1
  O  O37  1  0.35843300  0.54097100  0.58515700  1
  O  O38  1  0.01851300  0.56402400  0.25076600  1
  O  O39  1  0.93002100  0.21415800  0.09367900  1
  O  O40  1  0.10925500  0.04838600  0.41142700  1
  O  O41  1  0.76731600  0.85617600  0.75095000  1
  O  O42  1  0.01927800  0.06402400  0.24923400  1
  O  O43  1  0.87455700  0.85696800  0.25043700  1
  O  O44  1  0.26080400  0.71229800  0.42319400  1
  O  O45  1  0.93828600  0.38007000  0.40425300  1
  O  O46  1  0.09253900  0.88007000  0.09574700  1
  O  O47  1  0.87499400  0.35696800  0.24956300  1
  O  O48  1  0.59790200  0.37809000  0.09578000  1
  O  O49  1  0.36012900  0.03999600  0.58375400  1
  O  O50  1  0.77370000  0.71415800  0.40632100  1
  O  O51  1  0.18922800  0.88452400  0.57283200  1
  O  O52  1  0.16858600  0.71273600  0.25184400  1
  O  O53  1  0.44368200  0.87809000  0.40422000  1
  O  O54  1  0.67822800  0.87809000  0.59578000  1
  O  O55  1  0.17043100  0.21273600  0.24815600  1
  O  O56  1  0.69388300  0.53999600  0.91624600  1
  O  O57  1  0.50705900  0.87888200  0.92656900  1
  O  O58  1  0.18093200  0.54838600  0.91142700  1
  O  O59  1  0.26826600  0.35617600  0.74905000  1
  O  O60  1  0.61406000  0.87888200  0.07343100  1
  O  O61  1  0.76803800  0.35696800  0.75043700  1
  O  O62  1  0.10059500  0.54097100  0.41484300  1
  O  O63  1  0.37555800  0.35617600  0.25095000  1
  O  O64  1  0.41746400  0.56402400  0.74923400  1
  O  O65  1  0.85828100  0.71145100  0.90294900  1
  O  O66  1  0.10341600  0.38452400  0.07283200  1
  O  O67  1  0.11867800  0.71273600  0.74815600  1
  O  O68  1  0.69359000  0.04097100  0.91484300  1
  O  O69  1  0.27068100  0.54838600  0.08857300  1
  O  O70  1  0.35370500  0.21229800  0.92319400  1
  O  O71  1  0.93999300  0.70972300  0.07155800  1
loop_
_geom_bond_atom_site_label_1
_geom_bond_atom_site_label_2
_geom_bond_distance
_geom_bond_site_symmetry_2
Nb0 O33 1.849537 1_555
Nb0 O62 1.928130 1_655
Nb0 O52 1.976441 1_655
Nb0 O50 2.089976 1_555
Nb0 O43 2.155873 1_555
Nb0 O38 2.315989 1_655
Nb1 O44 1.841696 1_555
Nb1 O17 1.941026 1_555
Nb1 O11 1.977238 1_555
Nb1 O53 2.078979 1_555
Nb1 O21 2.154788 1_555
Nb1 O35 2.324323 1_555
Nb2 O30 1.845030 1_555
Nb2 O49 1.936487 1_555
Nb2 O10 1.987684 1_555
Nb2 O0 2.064440 1_555
Nb2 O59 2.145279 1_555
Nb2 O36 2.344192 1_555
Nb3 O71 1.850681 1_455
Nb3 O69 1.923388 1_555
Nb3 O38 1.990943 1_555
Nb3 O46 2.072288 1_555
Nb3 O43 2.143022 1_455
Nb3 O52 2.347943 1_555
Nb4 O57 1.845030 1_555
Nb4 O56 1.936487 1_555
Nb4 O25 1.987684 1_555
Nb4 O65 2.064440 1_555
Nb4 O41 2.145279 1_555
Nb4 O26 2.344192 1_555
Nb5 O51 1.849543 1_555
Nb5 O37 1.928136 1_555
Nb5 O67 1.976448 1_555
Nb5 O15 2.089966 1_555
Nb5 O6 2.155868 1_555
Nb5 O64 2.315989 1_555
Nb6 O1 1.849543 1_555
Nb6 O68 1.928136 1_555
Nb6 O7 1.976455 1_555
Nb6 O32 2.089966 1_555
Nb6 O61 2.155868 1_555
Nb6 O28 2.315989 1_555
Nb7 O14 1.841696 1_555
Nb7 O4 1.941026 1_555
Nb7 O3 1.977235 1_555
Nb7 O48 2.078979 1_555
Nb7 O63 2.154788 1_555
Nb7 O31 2.324323 1_555
Nb8 O16 1.845037 1_555
Nb8 O19 1.936489 1_555
Nb8 O31 1.987697 1_555
Nb8 O27 2.064440 1_555
Nb8 O63 2.145275 1_555
Nb8 O3 2.344184 1_555
Nb9 O8 1.850689 1_555
Nb9 O58 1.923388 1_555
Nb9 O64 1.990948 1_555
Nb9 O18 2.072283 1_555
Nb9 O6 2.143024 1_555
Nb9 O67 2.347936 1_555
Nb10 O29 1.841696 1_655
Nb10 O23 1.941026 1_555
Nb10 O26 1.977238 1_555
Nb10 O54 2.078979 1_555
Nb10 O41 2.154788 1_555
Nb10 O25 2.324315 1_555
Nb11 O5 1.850689 1_655
Nb11 O9 1.923388 1_555
Nb11 O28 1.990948 1_555
Nb11 O20 2.072283 1_555
Nb11 O61 2.143024 1_555
Nb11 O7 2.347943 1_555
Nb12 O66 1.849540 1_555
Nb12 O34 1.928133 1_555
Nb12 O55 1.976448 1_555
Nb12 O39 2.089976 1_455
Nb12 O47 2.155873 1_455
Nb12 O42 2.315994 1_555
Nb13 O60 1.845037 1_555
Nb13 O24 1.936492 1_555
Nb13 O35 1.987697 1_555
Nb13 O13 2.064430 1_555
Nb13 O21 2.145275 1_555
Nb13 O11 2.344188 1_555
Nb14 O70 1.841704 1_555
Nb14 O2 1.941026 1_555
Nb14 O36 1.977238 1_555
Nb14 O22 2.078979 1_555
Nb14 O59 2.154788 1_555
Nb14 O10 2.324315 1_555
Nb15 O12 1.850681 1_555
Nb15 O40 1.923394 1_655
Nb15 O42 1.990946 1_655
Nb15 O45 2.072288 1_555
Nb15 O47 2.143022 1_555
Nb15 O55 2.347951 1_655
Ni0 O71 2.000655 1_556
Ni0 O60 2.030361 1_556
Ni0 O68 2.058142 1_565
Ni0 O4 2.111372 1_566
Ni0 O18 2.138253 1_655
Ni0 O65 2.241730 1_555
Ni1 O41 2.022598 1_555
Ni1 O28 2.039151 1_565
Ni1 O67 2.042014 1_655
Ni1 O65 2.135903 1_555
Ni1 O68 2.191645 1_565
Ni1 O18 2.199178 1_655
Ni2 O8 2.000655 1_554
Ni2 O57 2.030370 1_554
Ni2 O34 2.058142 1_565
Ni2 O2 2.111372 1_564
Ni2 O46 2.138253 1_555
Ni2 O13 2.241730 1_555
Ni3 O21 2.022741 1_545
Ni3 O55 2.041185 1_555
Ni3 O3 2.045271 1_555
Ni3 O53 2.156941 1_545
Ni3 O27 2.172832 1_555
Ni3 O40 2.178126 1_555
Ni4 O5 2.000655 1_555
Ni4 O30 2.030370 1_555
Ni4 O62 2.058137 1_555
Ni4 O23 2.111372 1_455
Ni4 O45 2.138253 1_455
Ni4 O27 2.241726 1_555
Ni5 O2 2.023129 1_654
Ni5 O4 2.023137 1_555
Ni5 O39 2.154769 1_555
Ni5 O32 2.154773 1_554
Ni5 O46 2.220313 1_645
Ni5 O18 2.220316 1_644
Ni6 O23 2.023129 1_555
Ni6 O17 2.023137 1_555
Ni6 O50 2.154769 1_555
Ni6 O15 2.154773 1_555
Ni6 O45 2.220313 1_555
Ni6 O20 2.220316 1_555
Ni7 O59 2.022598 1_555
Ni7 O64 2.039151 1_555
Ni7 O7 2.042009 1_555
Ni7 O0 2.135903 1_555
Ni7 O37 2.191645 1_555
Ni7 O20 2.199178 1_555
Ni8 O57 2.024207 1_544
Ni8 O60 2.024216 1_545
Ni8 O70 2.035024 1_554
Ni8 O14 2.035032 1_555
Ni8 O34 2.142348 1_555
Ni8 O68 2.142356 1_554
Ni9 O51 2.027540 1_545
Ni9 O5 2.033395 1_555
Ni9 O49 2.092749 1_555
Ni9 O40 2.125796 1_555
Ni9 O53 2.145183 1_545
Ni9 O27 2.148669 1_555
Ni10 O41 2.022741 1_545
Ni10 O7 2.041185 1_555
Ni10 O36 2.045262 1_555
Ni10 O54 2.156941 1_545
Ni10 O0 2.172836 1_555
Ni10 O9 2.178126 1_555
Ni11 O6 2.022883 1_555
Ni11 O36 2.037673 1_565
Ni11 O25 2.048518 1_555
Ni11 O15 2.136508 1_555
Ni11 O54 2.155593 1_555
Ni11 O49 2.196447 1_565
Ni12 O1 2.013479 1_554
Ni12 O66 2.013479 1_555
Ni12 O70 2.070184 1_554
Ni12 O14 2.070188 1_555
Ni12 O69 2.127098 1_555
Ni12 O58 2.127102 1_554
Ni13 O47 2.022892 1_555
Ni13 O11 2.037669 1_555
Ni13 O31 2.048508 1_555
Ni13 O39 2.136512 1_555
Ni13 O48 2.155585 1_555
Ni13 O24 2.196454 1_555
Ni14 O30 2.024206 1_555
Ni14 O16 2.024216 1_555
Ni14 O29 2.035028 1_555
Ni14 O44 2.035032 1_555
Ni14 O62 2.142356 1_555
Ni14 O37 2.142356 1_555
Ni15 O21 2.022598 1_555
Ni15 O42 2.039151 1_565
Ni15 O52 2.042014 1_555
Ni15 O13 2.135903 1_555
Ni15 O34 2.191645 1_565
Ni15 O46 2.199178 1_555
Ni16 O43 2.022892 1_555
Ni16 O3 2.037665 1_565
Ni16 O35 2.048508 1_555
Ni16 O50 2.136512 1_555
Ni16 O53 2.155585 1_555
Ni16 O19 2.196450 1_565
Ni17 O31 2.028966 1_555
Ni17 O43 2.029101 1_545
Ni17 O42 2.035696 1_655
Ni17 O46 2.116424 1_645
Ni17 O39 2.201172 1_555
Ni17 O4 2.213090 1_555
Ni18 O35 2.028966 1_555
Ni18 O47 2.029101 1_555
Ni18 O38 2.035705 1_655
Ni18 O45 2.116424 1_555
Ni18 O50 2.201172 1_555
Ni18 O17 2.213090 1_555
Ni19 O59 2.022741 1_555
Ni19 O67 2.041190 1_555
Ni19 O26 2.045262 1_455
Ni19 O22 2.156941 1_555
Ni19 O65 2.172836 1_455
Ni19 O58 2.178126 1_555
Ni20 O56 2.074458 1_554
Ni20 O24 2.074462 1_555
Ni20 O32 2.135777 1_554
Ni20 O39 2.135777 1_555
Ni20 O48 2.184602 1_555
Ni20 O22 2.184602 1_654
Ni21 O33 2.027531 1_545
Ni21 O12 2.033390 1_555
Ni21 O19 2.092757 1_555
Ni21 O9 2.125788 1_555
Ni21 O54 2.145187 1_545
Ni21 O0 2.148676 1_555
Ni22 O19 2.074458 1_565
Ni22 O49 2.074458 1_565
Ni22 O15 2.135777 1_555
Ni22 O50 2.135777 1_555
Ni22 O53 2.184602 1_555
Ni22 O54 2.184602 1_555
Ni23 O66 2.027535 1_656
Ni23 O71 2.033390 1_556
Ni23 O24 2.092749 1_556
Ni23 O58 2.125788 1_655
Ni23 O22 2.145187 1_655
Ni23 O65 2.148677 1_555
Ni24 O12 2.000655 1_555
Ni24 O16 2.030361 1_555
Ni24 O37 2.058141 1_555
Ni24 O17 2.111372 1_555
Ni24 O20 2.138253 1_555
Ni24 O0 2.241730 1_555
Ni25 O61 2.022883 1_555
Ni25 O26 2.037673 1_555
Ni25 O10 2.048518 1_655
Ni25 O32 2.136508 1_555
Ni25 O22 2.155593 1_655
Ni25 O56 2.196447 1_555
Ni26 O63 2.022741 1_555
Ni26 O52 2.041190 1_555
Ni26 O11 2.045262 1_555
Ni26 O48 2.156941 1_555
Ni26 O13 2.172836 1_555
Ni26 O69 2.178134 1_555
Ni27 O10 2.028971 1_555
Ni27 O6 2.029101 1_545
Ni27 O28 2.035696 1_455
Ni27 O18 2.116424 1_545
Ni27 O32 2.201172 1_455
Ni27 O2 2.213090 1_555
Ni28 O1 2.027535 1_554
Ni28 O8 2.033390 1_554
Ni28 O56 2.092757 1_554
Ni28 O69 2.125796 1_555
Ni28 O48 2.145187 1_555
Ni28 O13 2.148677 1_555
Ni29 O63 2.022598 1_555
Ni29 O38 2.039147 1_555
Ni29 O55 2.042009 1_555
Ni29 O27 2.135899 1_555
Ni29 O62 2.191642 1_555
Ni29 O45 2.199178 1_455
Ni30 O51 2.013479 1_555
Ni30 O33 2.013487 1_455
Ni30 O44 2.070188 1_555
Ni30 O29 2.070188 1_555
Ni30 O40 2.127102 1_565
Ni30 O9 2.127102 1_465
Ni31 O25 2.028971 1_555
Ni31 O61 2.029101 1_555
Ni31 O64 2.035696 1_555
Ni31 O20 2.116424 1_555
Ni31 O15 2.201172 1_555
Ni31 O23 2.213090 1_555
