# generated using pymatgen
data_MnH14C3NCl3O2
_symmetry_space_group_name_H-M   'P 1'
_cell_length_a   7.50529400
_cell_length_b   8.39236100
_cell_length_c   17.08788500
_cell_angle_alpha   90.00000000
_cell_angle_beta   90.00000000
_cell_angle_gamma   90.00000000
_symmetry_Int_Tables_number   1
_chemical_formula_structural   MnH14C3NCl3O2
_chemical_formula_sum   'Mn4 H56 C12 N4 Cl12 O8'
_cell_volume   1076.31694771
_cell_formula_units_Z   4
loop_
 _symmetry_equiv_pos_site_id
 _symmetry_equiv_pos_as_xyz
  1  'x, y, z'
loop_
 _atom_site_type_symbol
 _atom_site_label
 _atom_site_symmetry_multiplicity
 _atom_site_fract_x
 _atom_site_fract_y
 _atom_site_fract_z
 _atom_site_occupancy
  Mn  Mn0  1  0.00000000  0.50000000  0.50000000  1
  Mn  Mn1  1  0.50000000  0.00000000  0.00000000  1
  Mn  Mn2  1  0.00000000  0.00000000  0.00000000  1
  Mn  Mn3  1  0.50000000  0.50000000  0.50000000  1
  H  H0  1  0.53086000  0.21235300  0.69203500  1
  H  H1  1  0.25000000  0.25237500  0.12976100  1
  H  H2  1  0.90227800  0.68098300  0.01794300  1
  H  H3  1  0.59772200  0.68098300  0.01794300  1
  H  H4  1  0.09703200  0.37055900  0.73568000  1
  H  H5  1  0.75000000  0.45185100  0.77600900  1
  H  H6  1  0.90296800  0.87055900  0.76432000  1
  H  H7  1  0.75000000  0.75237500  0.37023900  1
  H  H8  1  0.36991700  0.51548900  0.13440900  1
  H  H9  1  0.93780800  0.17934900  0.54230500  1
  H  H10  1  0.58468500  0.68017900  0.71654200  1
  H  H11  1  0.91531500  0.81982100  0.21654200  1
  H  H12  1  0.63008300  0.48451100  0.86559100  1
  H  H13  1  0.91531500  0.68017900  0.71654200  1
  H  H14  1  0.75000000  0.04814900  0.27600900  1
  H  H15  1  0.53086000  0.28764700  0.19203500  1
  H  H16  1  0.75000000  0.74762500  0.87023900  1
  H  H17  1  0.63008300  0.01548900  0.36559100  1
  H  H18  1  0.41531500  0.31982100  0.28345800  1
  H  H19  1  0.59703200  0.87055900  0.76432000  1
  H  H20  1  0.03086000  0.71235300  0.80796500  1
  H  H21  1  0.43780800  0.67934900  0.95769500  1
  H  H22  1  0.25000000  0.54814900  0.22399100  1
  H  H23  1  0.03086000  0.78764700  0.30796500  1
  H  H24  1  0.13008300  0.98451100  0.63440900  1
  H  H25  1  0.86991700  0.01548900  0.36559100  1
  H  H26  1  0.56219200  0.32065100  0.04230500  1
  H  H27  1  0.36991700  0.98451100  0.63440900  1
  H  H28  1  0.25000000  0.24762500  0.62976100  1
  H  H29  1  0.46914000  0.78764700  0.30796500  1
  H  H30  1  0.25000000  0.95185100  0.72399100  1
  H  H31  1  0.93780800  0.32065100  0.04230500  1
  H  H32  1  0.43780800  0.82065100  0.45769500  1
  H  H33  1  0.58468500  0.81982100  0.21654200  1
  H  H34  1  0.96914000  0.28764700  0.19203500  1
  H  H35  1  0.09772200  0.18098300  0.48205700  1
  H  H36  1  0.96914000  0.21235300  0.69203500  1
  H  H37  1  0.08468500  0.18017900  0.78345800  1
  H  H38  1  0.59772200  0.81901700  0.51794300  1
  H  H39  1  0.08468500  0.31982100  0.28345800  1
  H  H40  1  0.40296800  0.37055900  0.73568000  1
  H  H41  1  0.09703200  0.12944100  0.23568000  1
  H  H42  1  0.56219200  0.17934900  0.54230500  1
  H  H43  1  0.06219200  0.82065100  0.45769500  1
  H  H44  1  0.06219200  0.67934900  0.95769500  1
  H  H45  1  0.90227800  0.81901700  0.51794300  1
  H  H46  1  0.40227800  0.18098300  0.48205700  1
  H  H47  1  0.41531500  0.18017900  0.78345800  1
  H  H48  1  0.40296800  0.12944100  0.23568000  1
  H  H49  1  0.90296800  0.62944100  0.26432000  1
  H  H50  1  0.46914000  0.71235300  0.80796500  1
  H  H51  1  0.86991700  0.48451100  0.86559100  1
  H  H52  1  0.40227800  0.31901700  0.98205700  1
  H  H53  1  0.13008300  0.51548900  0.13440900  1
  H  H54  1  0.09772200  0.31901700  0.98205700  1
  H  H55  1  0.59703200  0.62944100  0.26432000  1
  C  C0  1  0.25000000  0.01465800  0.66784800  1
  C  C1  1  0.25000000  0.48534200  0.16784800  1
  C  C2  1  0.75000000  0.98534200  0.33215200  1
  C  C3  1  0.58711700  0.75824100  0.27299500  1
  C  C4  1  0.41288300  0.25824100  0.22700500  1
  C  C5  1  0.75000000  0.51465800  0.83215200  1
  C  C6  1  0.41288300  0.24175900  0.72700500  1
  C  C7  1  0.58711700  0.74175900  0.77299500  1
  C  C8  1  0.91288300  0.74175900  0.77299500  1
  C  C9  1  0.91288300  0.75824100  0.27299500  1
  C  C10  1  0.08711700  0.25824100  0.22700500  1
  C  C11  1  0.08711700  0.24175900  0.72700500  1
  N  N0  1  0.25000000  0.19008100  0.68342100  1
  N  N1  1  0.75000000  0.80991900  0.31657900  1
  N  N2  1  0.75000000  0.69008100  0.81657900  1
  N  N3  1  0.25000000  0.30991900  0.18342100  1
  Cl  Cl0  1  0.25000000  0.93666800  0.10032700  1
  Cl  Cl1  1  0.75000000  0.50109800  0.08710900  1
  Cl  Cl2  1  0.75000000  0.50048700  0.60042900  1
  Cl  Cl3  1  0.25000000  0.00109800  0.41289100  1
  Cl  Cl4  1  0.75000000  0.06333200  0.89967300  1
  Cl  Cl5  1  0.25000000  0.56333200  0.60032700  1
  Cl  Cl6  1  0.25000000  0.49890200  0.91289100  1
  Cl  Cl7  1  0.25000000  0.49951300  0.39957100  1
  Cl  Cl8  1  0.75000000  0.43666800  0.39967300  1
  Cl  Cl9  1  0.75000000  0.99951300  0.10042900  1
  Cl  Cl10  1  0.25000000  0.00048700  0.89957100  1
  Cl  Cl11  1  0.75000000  0.99890200  0.58710900  1
  O  O0  1  0.54092100  0.74394100  0.97580900  1
  O  O1  1  0.95907900  0.74394100  0.97580900  1
  O  O2  1  0.95907900  0.75605900  0.47580900  1
  O  O3  1  0.54092100  0.75605900  0.47580900  1
  O  O4  1  0.45907900  0.25605900  0.02419100  1
  O  O5  1  0.45907900  0.24394100  0.52419100  1
  O  O6  1  0.04092100  0.25605900  0.02419100  1
  O  O7  1  0.04092100  0.24394100  0.52419100  1
loop_
_geom_bond_atom_site_label_1
_geom_bond_atom_site_label_2
_geom_bond_distance
_geom_bond_site_symmetry_2
Mn0 O7 2.209784 1_555
Mn0 O2 2.209784 1_455
Mn1 O4 2.209784 1_555
Mn1 O0 2.209784 1_544
Mn2 O6 2.209784 1_555
Mn2 O1 2.209784 1_444
Mn3 O3 2.209784 1_555
Mn3 O5 2.209784 1_555
H1 N3 1.036336 1_555
H2 O1 0.989587 1_554
H3 O0 0.989587 1_554
H7 N1 1.036336 1_555
H9 O7 0.994268 1_655
H16 N2 1.036336 1_555
H21 O0 0.994268 1_555
H26 O4 0.994268 1_555
H28 N0 1.036336 1_555
H31 O6 0.994268 1_655
H32 O3 0.994268 1_555
H35 O7 0.989587 1_555
H38 O3 0.989587 1_555
H42 O5 0.994268 1_555
H43 O2 0.994268 1_455
H44 O1 0.994268 1_455
H45 O2 0.989587 1_555
H46 O5 0.989587 1_555
H52 O4 0.989587 1_556
H54 O6 0.989587 1_556
C0 H30 1.094630 1_545
C0 H27 1.095689 1_545
C0 H24 1.095689 1_545
C0 N0 1.496070 1_555
C1 H22 1.094630 1_555
C1 H53 1.095689 1_555
C1 H8 1.095689 1_555
C1 N3 1.496070 1_555
C2 H14 1.094630 1_565
C2 H17 1.095689 1_565
C2 H25 1.095689 1_565
C2 N1 1.496070 1_555
C3 H55 1.093588 1_555
C3 H33 1.094528 1_555
C3 H29 1.096362 1_555
C3 N1 1.495737 1_555
C4 H48 1.093588 1_555
C4 H18 1.094528 1_555
C4 H15 1.096362 1_555
C4 N3 1.495737 1_555
C5 H5 1.094630 1_555
C5 H51 1.095689 1_555
C5 H12 1.095689 1_555
C5 N2 1.496070 1_555
C6 H40 1.093588 1_555
C6 H47 1.094528 1_555
C6 H0 1.096362 1_555
C6 N0 1.495737 1_555
C7 H19 1.093588 1_555
C7 H10 1.094528 1_555
C7 H50 1.096362 1_555
C7 N2 1.495737 1_555
C8 H6 1.093588 1_555
C8 H13 1.094528 1_555
C8 H20 1.096362 1_655
C8 N2 1.495737 1_555
C9 H49 1.093588 1_555
C9 H11 1.094528 1_555
C9 H23 1.096362 1_655
C9 N1 1.495737 1_555
C10 H41 1.093588 1_555
C10 H39 1.094528 1_555
C10 H34 1.096362 1_455
C10 N3 1.495737 1_555
C11 H4 1.093588 1_555
C11 H37 1.094528 1_555
C11 H36 1.096362 1_455
C11 N0 1.495737 1_555
Cl0 Mn2 2.596570 1_565
Cl0 Mn1 2.596570 1_565
Cl2 Mn3 2.542769 1_555
Cl2 Mn0 2.542769 1_655
Cl4 Mn2 2.596570 1_656
Cl4 Mn1 2.596570 1_556
Cl5 Mn3 2.596570 1_555
Cl5 Mn0 2.596570 1_555
Cl7 Mn3 2.542769 1_555
Cl7 Mn0 2.542769 1_555
Cl8 Mn3 2.596570 1_555
Cl8 Mn0 2.596570 1_655
Cl9 Mn2 2.542769 1_665
Cl9 Mn1 2.542769 1_565
Cl10 Mn1 2.542769 1_556
Cl10 Mn2 2.542769 1_556
