# generated using pymatgen
data_MgTi3Nb2(PbO3)6
_symmetry_space_group_name_H-M   'P 1'
_cell_length_a   5.68833558
_cell_length_b   5.68833558
_cell_length_c   13.96448000
_cell_angle_alpha   90.00000000
_cell_angle_beta   90.00000000
_cell_angle_gamma   119.99999515
_symmetry_Int_Tables_number   1
_chemical_formula_structural   MgTi3Nb2(PbO3)6
_chemical_formula_sum   'Mg1 Ti3 Nb2 Pb6 O18'
_cell_volume   391.31440973
_cell_formula_units_Z   1
loop_
 _symmetry_equiv_pos_site_id
 _symmetry_equiv_pos_as_xyz
  1  'x, y, z'
loop_
 _atom_site_type_symbol
 _atom_site_label
 _atom_site_symmetry_multiplicity
 _atom_site_fract_x
 _atom_site_fract_y
 _atom_site_fract_z
 _atom_site_occupancy
  Mg  Mg0  1  0.00000000  0.00000000  0.50000000  1
  Ti  Ti0  1  0.66666700  0.33333300  0.83709400  1
  Ti  Ti1  1  0.00000000  0.00000000  0.00000000  1
  Ti  Ti2  1  0.33333300  0.66666700  0.16290600  1
  Nb  Nb0  1  0.66666700  0.33333300  0.33616100  1
  Nb  Nb1  1  0.33333300  0.66666700  0.66383900  1
  Pb  Pb0  1  0.00000000  0.00000000  0.75254500  1
  Pb  Pb1  1  0.33333300  0.66666700  0.91952900  1
  Pb  Pb2  1  0.66666700  0.33333300  0.08047100  1
  Pb  Pb3  1  0.00000000  0.00000000  0.24745500  1
  Pb  Pb4  1  0.33333300  0.66666700  0.41582700  1
  Pb  Pb5  1  0.66666700  0.33333300  0.58417300  1
  O  O0  1  0.83369000  0.66738000  0.91843700  1
  O  O1  1  0.33262000  0.16631000  0.91843700  1
  O  O2  1  0.83369000  0.16631000  0.91843700  1
  O  O3  1  0.16631000  0.33262000  0.08156300  1
  O  O4  1  0.66738000  0.83369000  0.08156300  1
  O  O5  1  0.16631000  0.83369000  0.08156300  1
  O  O6  1  0.49711900  0.99423900  0.24500400  1
  O  O7  1  0.00576100  0.50288100  0.24500400  1
  O  O8  1  0.49711900  0.50288100  0.24500400  1
  O  O9  1  0.83129400  0.66258800  0.41237100  1
  O  O10  1  0.33741200  0.16870600  0.41237100  1
  O  O11  1  0.83129400  0.16870600  0.41237100  1
  O  O12  1  0.16870600  0.33741200  0.58762900  1
  O  O13  1  0.66258800  0.83129400  0.58762900  1
  O  O14  1  0.16870600  0.83129400  0.58762900  1
  O  O15  1  0.50288100  0.00576100  0.75499600  1
  O  O16  1  0.99423900  0.49711900  0.75499600  1
  O  O17  1  0.50288100  0.49711900  0.75499600  1
loop_
_geom_bond_atom_site_label_1
_geom_bond_atom_site_label_2
_geom_bond_distance
_geom_bond_site_symmetry_2
Mg0 O14 2.064036 1_545
Mg0 O11 2.064036 1_455
Mg0 O12 2.064037 1_555
Mg0 O13 2.064037 1_445
Mg0 O10 2.064037 1_555
Mg0 O9 2.064037 1_445
Nb0 O11 1.939956 1_555
Nb0 O9 1.939960 1_555
Nb0 O10 1.939960 1_555
Nb0 O7 2.100205 1_655
Nb0 O6 2.100205 1_545
Nb0 O8 2.100213 1_555
Nb1 O14 1.939956 1_555
Nb1 O13 1.939960 1_555
Nb1 O12 1.939960 1_555
Nb1 O15 2.100205 1_565
Nb1 O16 2.100205 1_455
Nb1 O17 2.100213 1_555
O0 Ti1 1.995542 1_666
O0 Ti0 1.999572 1_555
O0 Pb2 2.797837 1_556
O0 Pb0 2.837519 1_665
O0 Pb1 2.844208 1_655
O0 Pb1 2.844214 1_555
O1 Ti1 1.995542 1_556
O1 Ti0 1.999572 1_555
O1 Pb2 2.797837 1_556
O1 Pb0 2.837519 1_555
O1 Pb1 2.844208 1_545
O1 Pb1 2.844214 1_555
O2 Ti1 1.995542 1_656
O2 Ti0 1.999567 1_555
O2 Pb2 2.797834 1_556
O2 Pb0 2.837519 1_655
O2 Pb1 2.844211 1_545
O2 Pb1 2.844211 1_655
O3 Ti1 1.995542 1_555
O3 Ti2 1.999572 1_555
O3 Pb1 2.797837 1_554
O3 Pb3 2.837519 1_555
O3 Pb2 2.844208 1_455
O3 Pb2 2.844214 1_555
O4 Ti1 1.995542 1_665
O4 Ti2 1.999572 1_555
O4 Pb1 2.797837 1_554
O4 Pb3 2.837519 1_665
O4 Pb2 2.844208 1_565
O4 Pb2 2.844214 1_555
O5 Ti1 1.995542 1_565
O5 Ti2 1.999567 1_555
O5 Pb1 2.797834 1_554
O5 Pb3 2.837519 1_565
O5 Pb2 2.844211 1_565
O5 Pb2 2.844211 1_455
O6 Ti2 1.979492 1_555
O6 Pb2 2.840683 1_565
O6 Pb3 2.844512 1_565
O6 Pb3 2.844518 1_665
O6 Pb4 2.880003 1_555
O7 Ti2 1.979492 1_555
O7 Pb2 2.840683 1_455
O7 Pb3 2.844512 1_565
O7 Pb3 2.844518 1_555
O7 Pb4 2.880003 1_555
O8 Ti2 1.979491 1_555
O8 Pb2 2.840689 1_555
O8 Pb3 2.844516 1_665
O8 Pb3 2.844516 1_555
O8 Pb4 2.880003 1_555
O9 Pb3 2.840154 1_665
O9 Pb4 2.844645 1_655
O9 Pb4 2.844651 1_555
O9 Pb5 2.895972 1_555
O10 Pb3 2.840154 1_555
O10 Pb4 2.844645 1_545
O10 Pb4 2.844651 1_555
O10 Pb5 2.895972 1_555
O11 Pb3 2.840154 1_655
O11 Pb4 2.844648 1_545
O11 Pb4 2.844648 1_655
O11 Pb5 2.895970 1_555
O12 Pb0 2.840154 1_555
O12 Pb5 2.844645 1_455
O12 Pb5 2.844651 1_555
O12 Pb4 2.895972 1_555
O13 Pb0 2.840154 1_665
O13 Pb5 2.844645 1_565
O13 Pb5 2.844651 1_555
O13 Pb4 2.895972 1_555
O14 Pb0 2.840154 1_565
O14 Pb5 2.844648 1_565
O14 Pb5 2.844648 1_455
O14 Pb4 2.895970 1_555
O15 Ti0 1.979492 1_555
O15 Pb1 2.840683 1_545
O15 Pb0 2.844512 1_655
O15 Pb0 2.844518 1_555
O15 Pb5 2.880003 1_555
O16 Ti0 1.979492 1_555
O16 Pb1 2.840683 1_655
O16 Pb0 2.844512 1_655
O16 Pb0 2.844518 1_665
O16 Pb5 2.880003 1_555
O17 Ti0 1.979491 1_555
O17 Pb1 2.840689 1_555
O17 Pb0 2.844516 1_555
O17 Pb0 2.844516 1_665
O17 Pb5 2.880003 1_555
