# generated using pymatgen
data_SrLa9Mg2Ga6(FeO14)2
_symmetry_space_group_name_H-M   'P 1'
_cell_length_a   5.58444200
_cell_length_b   5.60322123
_cell_length_c   23.05999916
_cell_angle_alpha   90.75668986
_cell_angle_beta   96.23311107
_cell_angle_gamma   119.57619348
_symmetry_Int_Tables_number   1
_chemical_formula_structural   SrLa9Mg2Ga6(FeO14)2
_chemical_formula_sum   'Sr1 La9 Mg2 Ga6 Fe2 O28'
_cell_volume   621.97263567
_cell_formula_units_Z   1
loop_
 _symmetry_equiv_pos_site_id
 _symmetry_equiv_pos_as_xyz
  1  'x, y, z'
loop_
 _atom_site_type_symbol
 _atom_site_label
 _atom_site_symmetry_multiplicity
 _atom_site_fract_x
 _atom_site_fract_y
 _atom_site_fract_z
 _atom_site_occupancy
  Sr  Sr0  1  0.09194500  0.54559500  0.15774200  1
  La  La0  1  0.65963600  0.83812200  0.04499100  1
  La  La1  1  0.92299200  0.95336100  0.35561300  1
  La  La2  1  0.51326900  0.24027100  0.25431400  1
  La  La3  1  0.70135100  0.34931600  0.54876600  1
  La  La4  1  0.32161000  0.66336000  0.44891900  1
  La  La5  1  0.50599800  0.75414900  0.74948800  1
  La  La6  1  0.10609600  0.05218200  0.64993600  1
  La  La7  1  0.30455200  0.15108900  0.94804200  1
  La  La8  1  0.89617300  0.44825500  0.84421700  1
  Mg  Mg0  1  0.18466500  0.58564300  0.30459600  1
  Mg  Mg1  1  0.01889800  0.51522100  0.99167700  1
  Ga  Ga0  1  0.00496000  0.00066900  0.50216100  1
  Ga  Ga1  1  0.61523800  0.30451600  0.40044500  1
  Ga  Ga2  1  0.80247000  0.40487200  0.69795000  1
  Ga  Ga3  1  0.40486800  0.70302900  0.60005300  1
  Ga  Ga4  1  0.59661900  0.80387600  0.89955800  1
  Ga  Ga5  1  0.20515300  0.10456300  0.79887800  1
  Fe  Fe0  1  0.34484400  0.16656300  0.10463800  1
  Fe  Fe1  1  0.79740400  0.89494100  0.20157300  1
  O  O0  1  0.53304400  0.48404500  0.17093600  1
  O  O1  1  0.26649900  0.39415200  0.04627300  1
  O  O2  1  0.47462600  0.93101100  0.35700600  1
  O  O3  1  0.53440100  0.00103500  0.15125600  1
  O  O4  1  0.08599600  0.82269200  0.25070900  1
  O  O5  1  0.26303600  0.90329000  0.03528500  1
  O  O6  1  0.34573300  0.13325200  0.45924700  1
  O  O7  1  0.99327200  0.96069000  0.12757700  1
  O  O8  1  0.21298800  0.30896300  0.56345000  1
  O  O9  1  0.33800100  0.37048700  0.35117000  1
  O  O10  1  0.89235200  0.24075400  0.45416800  1
  O  O11  1  0.96500800  0.25790200  0.24525400  1
  O  O12  1  0.15972200  0.57593200  0.66291100  1
  O  O13  1  0.86790400  0.48871700  0.34578600  1
  O  O14  1  0.98823200  0.71733200  0.76075300  1
  O  O15  1  0.12845000  0.77443400  0.55104300  1
  O  O16  1  0.67610700  0.62998200  0.64996400  1
  O  O17  1  0.78594600  0.69063000  0.44181600  1
  O  O18  1  0.95354400  0.98070500  0.86404900  1
  O  O19  1  0.64895200  0.83644000  0.53772500  1
  O  O20  1  0.74112300  0.12009800  0.96430400  1
  O  O21  1  0.93619600  0.19040600  0.75052600  1
  O  O22  1  0.47077700  0.01638200  0.84465300  1
  O  O23  1  0.61697600  0.09879800  0.63536300  1
  O  O24  1  0.44898500  0.22693300  0.73426200  1
  O  O25  1  0.72197900  0.60735000  0.95892300  1
  O  O26  1  0.43436900  0.49199500  0.83477100  1
  O  O27  1  0.23464100  0.62479700  0.92666000  1
loop_
_geom_bond_atom_site_label_1
_geom_bond_atom_site_label_2
_geom_bond_distance
_geom_bond_site_symmetry_2
La0 O7 2.345577 1_555
La0 O1 2.373596 1_555
La0 O20 2.391054 1_564
La0 O5 2.404493 1_555
La0 O25 2.501807 1_554
La0 O3 2.875842 1_565
La1 O9 2.356928 1_665
La1 O2 2.448292 1_555
La1 O17 2.449465 1_555
La1 O13 2.470395 1_555
La1 O10 2.836772 1_565
La1 O4 2.882010 1_655
La2 O0 2.353988 1_555
La2 O4 2.369693 1_545
La2 O11 2.507279 1_555
La2 O13 2.569662 1_555
La2 O3 2.755286 1_555
La2 O9 2.759622 1_555
La2 O2 2.916735 1_545
La2 O11 3.096424 1_455
La2 O4 3.263080 1_655
La3 O15 2.393035 1_655
La3 O23 2.409475 1_555
La3 O6 2.518201 1_555
La3 O8 2.682800 1_555
La3 O10 2.716078 1_555
La3 O19 2.746509 1_545
La3 O16 2.851704 1_555
La3 O19 2.896729 1_555
La3 O8 2.959576 1_655
La3 O17 3.073898 1_555
La3 O12 3.214512 1_655
La3 O15 3.237616 1_545
La4 O10 2.415645 1_455
La4 O19 2.420851 1_555
La4 O17 2.544775 1_555
La4 O6 2.575542 1_565
La4 O2 2.585310 1_555
La4 O9 2.806721 1_555
La5 O26 2.419174 1_555
La5 O12 2.434182 1_555
La5 O21 2.436447 1_565
La5 O22 2.703217 1_565
La5 O16 2.781600 1_555
La5 O14 2.785723 1_555
La5 O24 2.823342 1_555
La5 O14 2.836568 1_455
La5 O24 2.841717 1_565
La6 O24 2.386833 1_555
La6 O16 2.398992 1_445
La6 O8 2.427023 1_555
La6 O21 2.834872 1_455
La7 O18 2.405127 1_445
La7 O5 2.426176 1_546
La7 O25 2.450686 1_555
La7 O20 2.517095 1_555
La7 O1 2.709231 1_556
La7 O27 2.806244 1_545
La7 O22 2.870590 1_555
La7 O27 2.908012 1_555
La7 O20 3.128805 1_455
La7 O26 3.189511 1_555
La7 O25 3.215946 1_445
La8 O27 2.343033 1_655
La8 O14 2.401707 1_555
La8 O22 2.414614 1_555
La8 O21 2.673269 1_555
Mg0 O13 1.938140 1_455
Mg0 O11 2.023628 1_455
Mg0 O9 2.047844 1_555
Mg0 O4 2.056541 1_555
Mg0 O2 2.060950 1_555
Mg1 O27 1.939776 1_555
Mg1 O20 2.016573 1_455
Mg1 O25 2.041976 1_455
Mg1 O5 2.077552 1_556
Mg1 O1 2.127823 1_556
Ga0 O17 1.979738 1_445
Ga0 O8 1.982189 1_555
Ga0 O19 2.009956 1_445
Ga0 O15 2.021148 1_545
Ga0 O10 2.037959 1_455
Ga0 O6 2.045841 1_555
Ga1 O13 1.904683 1_555
Ga1 O9 2.004689 1_555
Ga1 O6 2.019028 1_555
Ga1 O2 2.037524 1_545
Ga1 O10 2.049003 1_555
Ga1 O17 2.052220 1_555
Ga2 O23 1.988345 1_555
Ga2 O24 2.007504 1_555
Ga2 O12 2.008635 1_655
Ga2 O14 2.013125 1_555
Ga2 O16 2.014790 1_555
Ga2 O21 2.049258 1_555
Ga3 O19 1.982548 1_555
Ga3 O12 1.994529 1_555
Ga3 O16 2.008100 1_555
Ga3 O15 2.015683 1_555
Ga3 O23 2.033121 1_565
Ga3 O8 2.038340 1_555
Ga4 O27 1.942231 1_555
Ga4 O18 2.012819 1_555
Ga4 O25 2.041921 1_555
Ga4 O26 2.044722 1_555
Ga4 O22 2.046304 1_565
Ga4 O20 2.068063 1_565
Ga5 O22 1.988972 1_555
Ga5 O26 2.003896 1_555
Ga5 O14 2.017886 1_445
Ga5 O24 2.022476 1_555
Ga5 O21 2.023409 1_455
Ga5 O18 2.058625 1_445
Fe0 O7 1.863083 1_445
Fe0 O3 1.971013 1_555
Fe0 O5 2.014027 1_545
Fe0 O1 2.024180 1_555
Fe0 O0 2.083291 1_555
Fe1 O11 1.972024 1_565
Fe1 O7 2.065883 1_555
Fe1 O4 2.074782 1_655
Fe1 O0 2.086771 1_555
Fe1 O3 2.089719 1_565
O0 Sr0 2.637797 1_555
O0 Sr0 3.016533 1_655
O1 Sr0 3.095264 1_555
O3 Sr0 2.550631 1_545
O3 Sr0 3.087954 1_655
O4 Sr0 2.643144 1_555
O7 Sr0 2.724307 1_655
O7 Sr0 3.098766 1_665
O11 Sr0 2.538114 1_655
