# generated using pymatgen
data_Ca10TaTi8Al(SiO5)10
_symmetry_space_group_name_H-M   'P 1'
_cell_length_a   6.67652600
_cell_length_b   7.20015252
_cell_length_c   22.42005782
_cell_angle_alpha   87.61942161
_cell_angle_beta   98.25571235
_cell_angle_gamma   113.05808206
_symmetry_Int_Tables_number   1
_chemical_formula_structural   Ca10TaTi8Al(SiO5)10
_chemical_formula_sum   'Ca10 Ta1 Ti8 Al1 Si10 O50'
_cell_volume   981.26712437
_cell_formula_units_Z   1
loop_
 _symmetry_equiv_pos_site_id
 _symmetry_equiv_pos_as_xyz
  1  'x, y, z'
loop_
 _atom_site_type_symbol
 _atom_site_label
 _atom_site_symmetry_multiplicity
 _atom_site_fract_x
 _atom_site_fract_y
 _atom_site_fract_z
 _atom_site_occupancy
  Ca  Ca0  1  0.55587600  0.27037800  0.13211500  1
  Ca  Ca1  1  0.04433100  0.75834000  0.06943400  1
  Ca  Ca2  1  0.16371000  0.25533200  0.32854400  1
  Ca  Ca3  1  0.63362600  0.73986200  0.26627400  1
  Ca  Ca4  1  0.77760600  0.23800700  0.52196200  1
  Ca  Ca5  1  0.23156500  0.72623200  0.46443400  1
  Ca  Ca6  1  0.33258900  0.19383400  0.74067600  1
  Ca  Ca7  1  0.73744400  0.86141700  0.68983600  1
  Ca  Ca8  1  0.99179300  0.20635200  0.93885200  1
  Ca  Ca9  1  0.45530900  0.81931400  0.86589500  1
  Ta  Ta0  1  0.87858600  0.55106100  0.79819300  1
  Ti  Ti0  1  0.53239700  0.52582000  0.99650600  1
  Ti  Ti1  1  0.51319000  0.01131100  0.00564900  1
  Ti  Ti2  1  0.09633800  0.50087900  0.19860800  1
  Ti  Ti3  1  0.09823600  0.00266900  0.20042200  1
  Ti  Ti4  1  0.69841100  0.49741200  0.39496100  1
  Ti  Ti5  1  0.69607200  0.99971500  0.39229800  1
  Ti  Ti6  1  0.31725900  0.49031100  0.60282600  1
  Ti  Ti7  1  0.33549900  0.03986700  0.58825000  1
  Al  Al0  1  0.99575500  0.68265600  0.60797000  1
  Si  Si0  1  0.56505300  0.74897200  0.12778200  1
  Si  Si1  1  0.01906000  0.23637100  0.07542500  1
  Si  Si2  1  0.16403700  0.74749200  0.32600900  1
  Si  Si3  1  0.63212700  0.24717300  0.26945500  1
  Si  Si4  1  0.76194300  0.75602800  0.52152500  1
  Si  Si5  1  0.24024600  0.25880700  0.46635800  1
  Si  Si6  1  0.28658000  0.73211200  0.72453500  1
  Si  Si7  1  0.83831800  0.28134500  0.67227700  1
  Si  Si8  1  0.96786600  0.77133500  0.92874400  1
  Si  Si9  1  0.45462900  0.23468600  0.87957400  1
  O  O0  1  0.22835400  0.36839200  0.03390000  1
  O  O1  1  0.44801600  0.88602800  0.08658000  1
  O  O2  1  0.53382200  0.25290300  0.02981500  1
  O  O3  1  0.64628700  0.61956700  0.08398200  1
  O  O4  1  0.82937400  0.06170600  0.03007800  1
  O  O5  1  0.77088800  0.89394800  0.17675400  1
  O  O6  1  0.94301700  0.35849800  0.12196200  1
  O  O7  1  0.08616900  0.74135600  0.17327300  1
  O  O8  1  0.79645100  0.40756100  0.22618900  1
  O  O9  1  0.14837500  0.10696800  0.11775000  1
  O  O10  1  0.04870800  0.88494300  0.28536600  1
  O  O11  1  0.39837100  0.58531500  0.17128100  1
  O  O12  1  0.11349100  0.24458800  0.22779400  1
  O  O13  1  0.24259000  0.61213300  0.28368500  1
  O  O14  1  0.42711700  0.09363100  0.22288000  1
  O  O15  1  0.37219300  0.89626900  0.37413400  1
  O  O16  1  0.55487300  0.38149100  0.31275700  1
  O  O17  1  0.69377800  0.75056100  0.37072500  1
  O  O18  1  0.39669900  0.41708000  0.42126100  1
  O  O19  1  0.74917300  0.11019800  0.31141800  1
  O  O20  1  0.62875100  0.87989300  0.48506000  1
  O  O21  1  0.00331900  0.59021900  0.37197300  1
  O  O22  1  0.71107900  0.24865800  0.42166000  1
  O  O23  1  0.83693000  0.60914200  0.48312800  1
  O  O24  1  0.03103300  0.09851500  0.42287900  1
  O  O25  1  0.98977400  0.91135300  0.56355000  1
  O  O26  1  0.17119500  0.38980300  0.51303600  1
  O  O27  1  0.26268800  0.74671800  0.57858700  1
  O  O28  1  0.96898300  0.42537900  0.61688200  1
  O  O29  1  0.37837900  0.13671400  0.50854300  1
  O  O30  1  0.08683200  0.78576200  0.68201700  1
  O  O31  1  0.66460600  0.61958400  0.58264500  1
  O  O32  1  0.30307500  0.23413200  0.63079600  1
  O  O33  1  0.38461800  0.60040300  0.68756500  1
  O  O34  1  0.64195000  0.10531200  0.62622800  1
  O  O35  1  0.48352600  0.94205400  0.74648500  1
  O  O36  1  0.75299900  0.40749300  0.71544000  1
  O  O37  1  0.82075500  0.76742000  0.78035800  1
  O  O38  1  0.61313900  0.37742100  0.82943600  1
  O  O39  1  0.98237800  0.17911400  0.71212600  1
  O  O40  1  0.83070400  0.89539500  0.89589900  1
  O  O41  1  0.18388600  0.60134800  0.78307600  1
  O  O42  1  0.05015600  0.45242100  0.01515000  1
  O  O43  1  0.02672000  0.62841800  0.88283900  1
  O  O44  1  0.26958600  0.06120300  0.83681500  1
  O  O45  1  0.18550600  0.92106300  0.97363800  1
  O  O46  1  0.37261700  0.37475100  0.91826200  1
  O  O47  1  0.47043600  0.73730600  0.97143400  1
  O  O48  1  0.60220100  0.13173900  0.92402200  1
  O  O49  1  0.81354000  0.61500800  0.97674800  1
loop_
_geom_bond_atom_site_label_1
_geom_bond_atom_site_label_2
_geom_bond_distance
_geom_bond_site_symmetry_2
Ca0 O2 2.282643 1_555
Ca0 O14 2.435134 1_555
Ca0 O8 2.441603 1_555
Ca0 O6 2.451058 1_555
Ca0 O9 2.482447 1_555
Ca0 O3 2.573528 1_555
Ca0 O1 2.771588 1_545
Ca1 O7 2.308521 1_555
Ca1 O49 2.402187 1_454
Ca1 O1 2.459268 1_555
Ca1 O3 2.511803 1_455
Ca1 O45 2.526112 1_554
Ca1 O9 2.569211 1_565
Ca1 O42 2.576402 1_555
Ca2 O12 2.235481 1_555
Ca2 O18 2.439375 1_555
Ca2 O24 2.467580 1_555
Ca2 O16 2.480197 1_555
Ca2 O19 2.522307 1_455
Ca2 O13 2.601230 1_555
Ca2 O10 2.652512 1_545
Ca3 O17 2.317736 1_555
Ca3 O5 2.376077 1_555
Ca3 O11 2.471483 1_555
Ca3 O13 2.489237 1_555
Ca3 O10 2.526532 1_655
Ca3 O16 2.625230 1_555
Ca3 O19 2.668006 1_565
Ca4 O22 2.232862 1_555
Ca4 O29 2.447899 1_555
Ca4 O26 2.454190 1_655
Ca4 O28 2.467563 1_555
Ca4 O20 2.500898 1_545
Ca4 O34 2.634844 1_555
Ca4 O23 2.670656 1_555
Ca5 O21 2.381381 1_555
Ca5 O20 2.421197 1_555
Ca5 O15 2.432840 1_555
Ca5 O26 2.521824 1_555
Ca5 O23 2.525137 1_455
Ca5 O27 2.543553 1_555
Ca5 O29 2.892932 1_565
Ca5 O18 3.084663 1_555
Ca6 O39 2.295604 1_455
Ca6 O44 2.347242 1_555
Ca6 O35 2.385932 1_545
Ca6 O32 2.457219 1_555
Ca6 O38 2.534657 1_555
Ca6 O36 2.750749 1_555
Ca6 O30 2.996602 1_545
Ca6 O33 3.023350 1_555
Ca7 O37 2.177827 1_555
Ca7 O39 2.255337 1_565
Ca7 O33 2.364162 1_555
Ca7 O34 2.435556 1_565
Ca7 O35 2.504958 1_555
Ca7 O30 2.624819 1_655
Ca7 O31 2.896998 1_555
Ca8 O40 2.256628 1_545
Ca8 O42 2.395122 1_656
Ca8 O48 2.415957 1_555
Ca8 O4 2.453389 1_556
Ca8 O46 2.454312 1_655
Ca8 O0 2.488644 1_656
Ca8 O45 2.856336 1_645
Ca9 O40 2.346328 1_555
Ca9 O47 2.412411 1_555
Ca9 O48 2.422564 1_565
Ca9 O41 2.498525 1_555
Ca9 O44 2.522125 1_565
Ca9 O43 2.722047 1_555
Ca9 O35 2.793146 1_555
Al0 O30 1.770821 1_655
Al0 O28 1.795417 1_555
Al0 O27 1.868398 1_655
Al0 O25 1.899666 1_555
Al0 O31 2.071526 1_555
O0 O42 1.535367 1_555
O0 Si1 1.727003 1_555
O0 Ti0 2.171590 1_554
O1 Si0 1.660943 1_555
O1 Ti1 2.019574 1_565
O2 Ti1 1.790962 1_555
O2 Ti0 2.076025 1_554
O3 Si0 1.658739 1_555
O3 Ti0 2.039567 1_554
O4 Si1 1.645589 1_655
O4 Ti1 1.993102 1_555
O5 Si0 1.649821 1_555
O5 Ti3 2.008051 1_665
O6 Si1 1.642451 1_655
O6 Ti2 1.967459 1_655
O7 Ti2 1.823334 1_555
O7 Ti3 1.969599 1_565
O8 Si3 1.642660 1_555
O8 Ti2 2.027287 1_655
O9 Si1 1.683860 1_555
O9 Ti3 1.994280 1_555
O10 Si2 1.650204 1_555
O10 Ti3 2.069290 1_565
O11 Si0 1.663457 1_555
O11 Ti2 2.043260 1_555
O12 Ti3 1.831097 1_555
O12 Ti2 1.972374 1_555
O13 Si2 1.656949 1_555
O13 Ti2 2.052504 1_555
O14 Si3 1.638954 1_555
O14 Ti3 2.021709 1_555
O15 Si2 1.655996 1_555
O15 Ti5 1.976663 1_555
O16 Si3 1.660242 1_555
O16 Ti4 2.001439 1_555
O17 Ti5 1.871055 1_555
O17 Ti4 1.890912 1_555
O18 Si5 1.639263 1_555
O18 Ti4 2.034722 1_555
O19 Si3 1.668526 1_555
O19 Ti5 1.972449 1_545
O20 Si4 1.614449 1_555
O20 Ti5 2.255494 1_555
O21 Si2 1.662672 1_555
O21 Ti4 2.015802 1_455
O22 Ti4 1.894319 1_555
O22 Ti5 1.895941 1_545
O23 Si4 1.650586 1_555
O23 Ti4 2.105746 1_555
O24 Si5 1.634921 1_555
O24 Ti5 2.081224 1_445
O25 Si4 1.672024 1_555
O25 Ti7 2.119732 1_665
O26 Si5 1.660883 1_555
O26 Ti6 2.128778 1_555
O27 Ti7 1.985541 1_565
O27 Ti6 2.055020 1_555
O28 Si7 1.695432 1_555
O28 Ti6 2.251981 1_655
O29 Si5 1.683260 1_555
O29 Ti7 1.910165 1_555
O30 Si6 1.686513 1_555
O31 Si4 1.705589 1_555
O31 Ti6 2.241576 1_555
O32 Ti7 1.822240 1_555
O32 Ti6 1.894367 1_555
O33 Si6 1.649887 1_555
O33 Ti6 2.010105 1_555
O34 Si7 1.676170 1_555
O34 Ti7 1.977644 1_555
O35 Si6 1.604727 1_555
O36 Si7 1.650016 1_555
O36 Ta0 2.060939 1_555
O37 Ta0 1.763759 1_555
O38 Si9 1.683295 1_555
O38 Ta0 1.934624 1_555
O39 Si7 1.586906 1_555
O40 Si8 1.603512 1_555
O41 Si6 1.652060 1_555
O41 Ta0 2.002722 1_455
O42 Si1 1.985478 1_555
O43 Si8 1.671343 1_455
O43 Ta0 2.001798 1_455
O44 Si9 1.598790 1_555
O45 Si8 1.652206 1_455
O45 Ti1 2.048894 1_566
O46 Si9 1.646466 1_555
O46 Ti0 2.027470 1_555
O47 Ti0 1.778025 1_555
O47 Ti1 2.045453 1_566
O48 Si9 1.655896 1_555
O48 Ti1 2.056962 1_556
O49 Si8 1.672200 1_555
O49 Ti0 1.844695 1_555
