# generated using pymatgen
data_Nb3(BiO3)5
_symmetry_space_group_name_H-M   'P 1'
_cell_length_a   5.52565900
_cell_length_b   5.59827800
_cell_length_c   22.12210000
_cell_angle_alpha   90.00000000
_cell_angle_beta   90.00000000
_cell_angle_gamma   90.00000000
_symmetry_Int_Tables_number   1
_chemical_formula_structural   Nb3(BiO3)5
_chemical_formula_sum   'Nb6 Bi10 O30'
_cell_volume   684.32891753
_cell_formula_units_Z   2
loop_
 _symmetry_equiv_pos_site_id
 _symmetry_equiv_pos_as_xyz
  1  'x, y, z'
loop_
 _atom_site_type_symbol
 _atom_site_label
 _atom_site_symmetry_multiplicity
 _atom_site_fract_x
 _atom_site_fract_y
 _atom_site_fract_z
 _atom_site_occupancy
  Nb  Nb0  1  0.00000000  0.46114500  0.50000000  1
  Nb  Nb1  1  0.99816900  0.97907200  0.10847700  1
  Nb  Nb2  1  0.00183100  0.97907200  0.89152300  1
  Nb  Nb3  1  0.50000000  0.96114500  0.50000000  1
  Nb  Nb4  1  0.49816900  0.47907200  0.89152300  1
  Nb  Nb5  1  0.50183100  0.47907200  0.10847700  1
  Bi  Bi0  1  0.98808600  0.48126300  0.25861300  1
  Bi  Bi1  1  0.02474400  0.02182100  0.37613800  1
  Bi  Bi2  1  0.97525600  0.02182100  0.62386200  1
  Bi  Bi3  1  0.51191400  0.98126300  0.25861300  1
  Bi  Bi4  1  0.47525600  0.52182100  0.37613800  1
  Bi  Bi5  1  0.01191400  0.48126300  0.74138700  1
  Bi  Bi6  1  0.48808600  0.98126300  0.74138700  1
  Bi  Bi7  1  0.52474400  0.52182100  0.62386200  1
  Bi  Bi8  1  0.50000000  0.05557900  0.00000000  1
  Bi  Bi9  1  0.00000000  0.55557900  0.00000000  1
  O  O0  1  0.25515400  0.66672600  0.52243100  1
  O  O1  1  0.25780100  0.72692500  0.69055800  1
  O  O2  1  0.29333600  0.16958600  0.90979500  1
  O  O3  1  0.00000000  0.94085700  0.00000000  1
  O  O4  1  0.39454000  0.89416100  0.41426600  1
  O  O5  1  0.70666400  0.16958600  0.09020500  1
  O  O6  1  0.22991300  0.23052400  0.08883300  1
  O  O7  1  0.72991300  0.73052400  0.91116700  1
  O  O8  1  0.24219900  0.22692500  0.69055800  1
  O  O9  1  0.10546000  0.39416100  0.41426600  1
  O  O10  1  0.60546000  0.89416100  0.58573400  1
  O  O11  1  0.99347600  0.97284000  0.19024200  1
  O  O12  1  0.00652400  0.97284000  0.80975800  1
  O  O13  1  0.89454000  0.39416100  0.58573400  1
  O  O14  1  0.74484600  0.66672600  0.47756900  1
  O  O15  1  0.74219900  0.72692500  0.30944200  1
  O  O16  1  0.27008700  0.73052400  0.08883300  1
  O  O17  1  0.75780100  0.22692500  0.30944200  1
  O  O18  1  0.49347600  0.47284000  0.80975800  1
  O  O19  1  0.75567600  0.72336600  0.69233700  1
  O  O20  1  0.20666400  0.66958600  0.90979500  1
  O  O21  1  0.24432400  0.72336600  0.30766300  1
  O  O22  1  0.50000000  0.44085700  0.00000000  1
  O  O23  1  0.74432400  0.22336600  0.69233700  1
  O  O24  1  0.75515400  0.16672600  0.47756900  1
  O  O25  1  0.77008700  0.23052400  0.91116700  1
  O  O26  1  0.25567600  0.22336600  0.30766300  1
  O  O27  1  0.24484600  0.16672600  0.52243100  1
  O  O28  1  0.50652400  0.47284000  0.19024200  1
  O  O29  1  0.79333600  0.66958600  0.09020500  1
loop_
_geom_bond_atom_site_label_1
_geom_bond_atom_site_label_2
_geom_bond_distance
_geom_bond_site_symmetry_2
Nb0 O0 1.886427 1_555
Nb0 O14 1.886427 1_455
Nb0 O13 2.019246 1_455
Nb0 O9 2.019246 1_555
Nb0 O27 2.189375 1_555
Nb0 O24 2.189375 1_455
Nb1 O11 1.809336 1_555
Nb1 O6 1.951984 1_665
Nb1 O5 1.973692 1_565
Nb1 O16 2.093452 1_655
Nb1 O29 2.108627 1_555
Nb1 O3 2.409278 1_655
Nb2 O12 1.809336 1_555
Nb2 O25 1.951984 1_465
Nb2 O2 1.973692 1_565
Nb2 O7 2.093452 1_455
Nb2 O20 2.108627 1_555
Nb2 O3 2.409278 1_556
Nb3 O27 1.886427 1_565
Nb3 O24 1.886427 1_565
Nb3 O10 2.019246 1_555
Nb3 O4 2.019246 1_555
Nb3 O0 2.189375 1_555
Nb3 O14 2.189375 1_555
Nb4 O18 1.809336 1_555
Nb4 O7 1.951984 1_555
Nb4 O20 1.973692 1_555
Nb4 O25 2.093452 1_555
Nb4 O2 2.108627 1_555
Nb4 O22 2.409278 1_556
Nb5 O28 1.809336 1_555
Nb5 O16 1.951984 1_555
Nb5 O29 1.973692 1_555
Nb5 O6 2.093452 1_555
Nb5 O5 2.108627 1_555
Nb5 O22 2.409278 1_555
Bi0 O17 2.216063 1_555
Bi0 O15 2.236473 1_555
Bi0 O21 2.240345 1_655
Bi0 O26 2.334139 1_655
Bi1 O26 2.279480 1_555
Bi1 O9 2.292456 1_555
Bi1 O4 2.323263 1_545
Bi1 O17 2.381414 1_455
Bi1 O21 2.560956 1_545
Bi1 O15 2.709237 1_445
Bi1 O24 2.812847 1_455
Bi2 O23 2.279480 1_555
Bi2 O13 2.292456 1_555
Bi2 O10 2.323263 1_545
Bi2 O8 2.381414 1_655
Bi2 O19 2.560956 1_545
Bi2 O1 2.709237 1_645
Bi2 O27 2.812847 1_655
Bi3 O15 2.216063 1_555
Bi3 O17 2.236473 1_565
Bi3 O26 2.240345 1_565
Bi3 O21 2.334139 1_555
Bi4 O21 2.279480 1_555
Bi4 O4 2.292456 1_555
Bi4 O9 2.323263 1_555
Bi4 O15 2.381414 1_555
Bi4 O26 2.560956 1_555
Bi4 O17 2.709237 1_555
Bi4 O14 2.812847 1_555
Bi5 O8 2.216063 1_555
Bi5 O1 2.236473 1_555
Bi5 O19 2.240345 1_455
Bi5 O23 2.334139 1_455
Bi6 O1 2.216063 1_555
Bi6 O8 2.236473 1_565
Bi6 O23 2.240345 1_565
Bi6 O19 2.334139 1_555
Bi7 O19 2.279480 1_555
Bi7 O10 2.292456 1_555
Bi7 O13 2.323263 1_555
Bi7 O1 2.381414 1_555
Bi7 O23 2.560956 1_555
Bi7 O8 2.709237 1_555
Bi7 O0 2.812847 1_555
Bi8 O22 2.156893 1_555
Bi8 O5 2.386112 1_555
Bi8 O2 2.386112 1_554
Bi9 O3 2.156893 1_555
Bi9 O29 2.386112 1_455
Bi9 O20 2.386112 1_554
