# generated using pymatgen
data_Bi17P5Pb5O43
_symmetry_space_group_name_H-M   'P 1'
_cell_length_a   11.66327119
_cell_length_b   11.66327119
_cell_length_c   11.65341734
_cell_angle_alpha   61.89773084
_cell_angle_beta   61.89773084
_cell_angle_gamma   92.92068439
_symmetry_Int_Tables_number   1
_chemical_formula_structural   Bi17P5Pb5O43
_chemical_formula_sum   'Bi17 P5 Pb5 O43'
_cell_volume   1155.18159828
_cell_formula_units_Z   1
loop_
 _symmetry_equiv_pos_site_id
 _symmetry_equiv_pos_as_xyz
  1  'x, y, z'
loop_
 _atom_site_type_symbol
 _atom_site_label
 _atom_site_symmetry_multiplicity
 _atom_site_fract_x
 _atom_site_fract_y
 _atom_site_fract_z
 _atom_site_occupancy
  Bi  Bi0  1  0.02965600  0.67347100  0.66557300  1
  Bi  Bi1  1  0.02381000  0.02381000  0.29634400  1
  Bi  Bi2  1  0.34428400  0.00334300  0.33220700  1
  Bi  Bi3  1  0.66419500  0.66419500  0.66786400  1
  Bi  Bi4  1  0.34378300  0.00816700  0.66395900  1
  Bi  Bi5  1  0.67347100  0.02965600  0.66557300  1
  Bi  Bi6  1  0.01312900  0.66435400  0.02301200  1
  Bi  Bi7  1  0.34679900  0.64295000  0.67473800  1
  Bi  Bi8  1  0.00816700  0.34378300  0.66395900  1
  Bi  Bi9  1  0.64295000  0.34679900  0.67473800  1
  Bi  Bi10  1  0.67032100  0.67032100  0.02273400  1
  Bi  Bi11  1  0.00024300  0.00024300  0.01298900  1
  Bi  Bi12  1  0.32855300  0.32855300  0.35029900  1
  Bi  Bi13  1  0.67369800  0.35052200  0.32996900  1
  Bi  Bi14  1  0.66435400  0.01312900  0.02301200  1
  Bi  Bi15  1  0.35052200  0.67369800  0.32996900  1
  Bi  Bi16  1  0.00334300  0.34428400  0.33220700  1
  P  P0  1  0.98343500  0.67269200  0.35680600  1
  P  P1  1  0.35256700  0.65479000  0.97722200  1
  P  P2  1  0.65479000  0.35256700  0.97722200  1
  P  P3  1  0.00483500  0.00483500  0.64290300  1
  P  P4  1  0.67269200  0.98343500  0.35680600  1
  Pb  Pb0  1  0.33489200  0.99945400  0.99225000  1
  Pb  Pb1  1  0.33108200  0.33108200  0.00545200  1
  Pb  Pb2  1  0.31817200  0.31817200  0.69201400  1
  Pb  Pb3  1  0.65894200  0.65894200  0.35973100  1
  Pb  Pb4  1  0.99945400  0.33489200  0.99225000  1
  O  O0  1  0.11290700  0.11290700  0.05029400  1
  O  O1  1  0.26088100  0.73012600  0.92859100  1
  O  O2  1  0.50053600  0.50053600  0.24901900  1
  O  O3  1  0.89877100  0.89877100  0.82306600  1
  O  O4  1  0.06562700  0.48133500  0.71116100  1
  O  O5  1  0.54609800  0.54609800  0.64459600  1
  O  O6  1  0.92874900  0.07934000  0.56381600  1
  O  O7  1  0.02474400  0.82937200  0.23302700  1
  O  O8  1  0.45510200  0.74534400  0.97596500  1
  O  O9  1  0.60230800  0.41831400  0.48684100  1
  O  O10  1  0.07934000  0.92874900  0.56381600  1
  O  O11  1  0.42146400  0.22554800  0.47799800  1
  O  O12  1  0.26312500  0.50947300  0.13496700  1
  O  O13  1  0.07222800  0.65227900  0.42577000  1
  O  O14  1  0.21045100  0.02948800  0.84733000  1
  O  O15  1  0.73012600  0.26088100  0.92859100  1
  O  O16  1  0.44494200  0.94860700  0.16541100  1
  O  O17  1  0.62602500  0.43902700  0.84495200  1
  O  O18  1  0.02948800  0.21045100  0.84733000  1
  O  O19  1  0.25209000  0.76768400  0.48706900  1
  O  O20  1  0.58810800  0.99229600  0.28437800  1
  O  O21  1  0.11735000  0.11735000  0.60826100  1
  O  O22  1  0.63848100  0.08948000  0.82681900  1
  O  O23  1  0.22554800  0.42146400  0.47799800  1
  O  O24  1  0.74534400  0.45510200  0.97596500  1
  O  O25  1  0.82937200  0.02474400  0.23302700  1
  O  O26  1  0.42550100  0.24027700  0.84496700  1
  O  O27  1  0.76768400  0.25209000  0.48706900  1
  O  O28  1  0.41831400  0.60230800  0.48684100  1
  O  O29  1  0.99229600  0.58810800  0.28437800  1
  O  O30  1  0.08948000  0.63848100  0.82681900  1
  O  O31  1  0.77824500  0.59590400  0.13732800  1
  O  O32  1  0.61715000  0.82594000  0.49559000  1
  O  O33  1  0.65227900  0.07222800  0.42577000  1
  O  O34  1  0.06325200  0.24011000  0.21185800  1
  O  O35  1  0.24027700  0.42550100  0.84496700  1
  O  O36  1  0.43902700  0.62602500  0.84495200  1
  O  O37  1  0.24011000  0.06325200  0.21185800  1
  O  O38  1  0.82594000  0.61715000  0.49559000  1
  O  O39  1  0.50947300  0.26312500  0.13496700  1
  O  O40  1  0.94860700  0.44494200  0.16541100  1
  O  O41  1  0.59590400  0.77824500  0.13732800  1
  O  O42  1  0.48133500  0.06562700  0.71116100  1
loop_
_geom_bond_atom_site_label_1
_geom_bond_atom_site_label_2
_geom_bond_distance
_geom_bond_site_symmetry_2
Bi0 O4 2.159687 1_555
Bi0 O30 2.173947 1_555
Bi0 O19 2.176459 1_555
Bi0 O10 2.541134 1_555
Bi0 O13 2.733681 1_555
Bi1 O0 2.158023 1_555
Bi1 O37 2.158793 1_555
Bi1 O34 2.158793 1_555
Bi1 O25 2.694207 1_455
Bi1 O7 2.694207 1_545
Bi2 O16 2.158603 1_545
Bi2 O37 2.167965 1_555
Bi2 O19 2.272723 1_545
Bi2 O39 2.616789 1_555
Bi2 O20 2.650682 1_545
Bi2 O10 2.692018 1_545
Bi3 O5 2.092449 1_555
Bi3 O36 2.294211 1_555
Bi3 O17 2.294211 1_555
Bi3 O38 2.337851 1_555
Bi3 O32 2.337851 1_555
Bi4 O42 2.096329 1_555
Bi4 O14 2.110891 1_555
Bi4 O11 2.164536 1_555
Bi5 O42 2.159687 1_555
Bi5 O22 2.173947 1_555
Bi5 O27 2.176459 1_555
Bi5 O6 2.541134 1_555
Bi5 O33 2.733681 1_555
Bi6 O40 2.120240 1_455
Bi6 O30 2.206942 1_554
Bi6 O31 2.292156 1_455
Bi6 O1 2.476385 1_554
Bi6 O29 2.618364 1_455
Bi7 O35 2.127952 1_555
Bi7 O28 2.238850 1_555
Bi7 O5 2.583560 1_555
Bi7 O36 2.606437 1_555
Bi7 O30 2.652710 1_555
Bi7 O19 2.749872 1_555
Bi7 O32 2.787636 1_555
Bi8 O4 2.096329 1_555
Bi8 O18 2.110891 1_555
Bi8 O23 2.164536 1_555
Bi9 O26 2.127952 1_555
Bi9 O9 2.238850 1_555
Bi9 O5 2.583560 1_555
Bi9 O17 2.606437 1_555
Bi9 O22 2.652710 1_555
Bi9 O27 2.749872 1_555
Bi9 O38 2.787636 1_555
Bi10 O2 2.134911 1_555
Bi10 O41 2.173498 1_555
Bi10 O31 2.173498 1_555
Bi10 O3 2.684765 1_554
Bi11 O0 2.131367 1_555
Bi11 O14 2.165533 1_554
Bi11 O18 2.165533 1_554
Bi11 O7 2.561740 1_545
Bi11 O25 2.561740 1_455
Bi12 O2 2.137612 1_555
Bi12 O23 2.190831 1_555
Bi12 O11 2.190831 1_555
Bi12 O21 2.569402 1_555
Bi13 O9 2.157593 1_555
Bi13 O31 2.393741 1_555
Bi13 O27 2.431065 1_555
Bi13 O11 2.483586 1_555
Bi13 O40 2.651186 1_555
Bi14 O16 2.120240 1_545
Bi14 O22 2.206942 1_554
Bi14 O41 2.292156 1_545
Bi14 O15 2.476385 1_554
Bi14 O20 2.618364 1_545
Bi15 O28 2.157593 1_555
Bi15 O41 2.393741 1_555
Bi15 O19 2.431065 1_555
Bi15 O23 2.483586 1_555
Bi15 O16 2.651186 1_555
Bi16 O40 2.158603 1_455
Bi16 O34 2.167965 1_555
Bi16 O27 2.272723 1_455
Bi16 O12 2.616789 1_555
Bi16 O29 2.650682 1_455
Bi16 O6 2.692018 1_455
O1 P1 1.560228 1_555
O3 P3 1.555308 1_665
O4 Pb4 2.540846 1_455
O5 Pb3 2.464907 1_555
O6 P3 1.576901 1_655
O7 P0 1.557061 1_455
O8 P1 1.544684 1_555
O9 Pb3 2.340898 1_555
O9 Pb2 2.751932 1_555
O10 P3 1.576901 1_565
O12 P1 1.555009 1_554
O13 P0 1.550493 1_455
O14 Pb0 2.623929 1_545
O14 Pb2 2.806506 1_555
O15 P2 1.560228 1_555
O16 Pb0 2.731562 1_554
O17 P2 1.600831 1_555
O18 Pb4 2.623929 1_455
O18 Pb2 2.806506 1_555
O20 P4 1.552084 1_555
O21 P3 1.559973 1_555
O24 P2 1.544684 1_555
O25 P4 1.557061 1_545
O26 Pb0 2.323565 1_545
O26 Pb1 2.424171 1_556
O26 Pb2 2.502362 1_555
O28 Pb3 2.340898 1_555
O28 Pb2 2.751932 1_555
O29 P0 1.552084 1_555
O31 Pb3 2.774143 1_555
O32 P4 1.581915 1_555
O33 P4 1.550493 1_545
O34 Pb1 2.616991 1_555
O34 Pb4 2.745489 1_454
O35 Pb4 2.323565 1_455
O35 Pb1 2.424171 1_556
O35 Pb2 2.502362 1_555
O36 P1 1.600831 1_555
O37 Pb1 2.616991 1_555
O37 Pb0 2.745489 1_544
O38 P0 1.581915 1_555
O39 P2 1.555009 1_554
O40 Pb4 2.731562 1_554
O41 Pb3 2.774143 1_555
O42 Pb0 2.540846 1_545
