# generated using pymatgen
data_Np(OF)2
_symmetry_space_group_name_H-M   'P 1'
_cell_length_a   4.32348633
_cell_length_b   4.32348633
_cell_length_c   3.81321559
_cell_angle_alpha   83.41596408
_cell_angle_beta   83.41596408
_cell_angle_gamma   61.79911706
_symmetry_Int_Tables_number   1
_chemical_formula_structural   Np(OF)2
_chemical_formula_sum   'Np1 O2 F2'
_cell_volume   62.25425268
_cell_formula_units_Z   1
loop_
 _symmetry_equiv_pos_site_id
 _symmetry_equiv_pos_as_xyz
  1  'x, y, z'
loop_
 _atom_site_type_symbol
 _atom_site_label
 _atom_site_symmetry_multiplicity
 _atom_site_fract_x
 _atom_site_fract_y
 _atom_site_fract_z
 _atom_site_occupancy
  Np  Np0  1  0.00000000  0.00000000  0.00000000  1
  O  O0  1  0.56963500  0.56963500  0.12030300  1
  O  O1  1  0.43036500  0.43036500  0.87969700  1
  F  F0  1  0.83272600  0.83272600  0.52790800  1
  F  F1  1  0.16727400  0.16727400  0.47209200  1
loop_
_geom_bond_atom_site_label_1
_geom_bond_atom_site_label_2
_geom_bond_distance
_geom_bond_site_symmetry_2
Np0 O0 2.338865 1_545
Np0 O1 2.338865 1_544
Np0 O1 2.338865 1_454
Np0 O0 2.338865 1_455
O0 O1 1.470695 1_554
F0 Np0 2.219224 1_665
F0 Np0 2.319089 1_666
F1 Np0 2.219224 1_556
F1 Np0 2.319089 1_555
