# generated using pymatgen
data_LiMn16O32
_symmetry_space_group_name_H-M   'P 1'
_cell_length_a   5.88925797
_cell_length_b   5.88925797
_cell_length_c   19.18085701
_cell_angle_alpha   82.67817955
_cell_angle_beta   82.67817955
_cell_angle_gamma   58.85142297
_symmetry_Int_Tables_number   1
_chemical_formula_structural   LiMn16O32
_chemical_formula_sum   'Li1 Mn16 O32'
_cell_volume   563.21819631
_cell_formula_units_Z   1
loop_
 _symmetry_equiv_pos_site_id
 _symmetry_equiv_pos_as_xyz
  1  'x, y, z'
loop_
 _atom_site_type_symbol
 _atom_site_label
 _atom_site_symmetry_multiplicity
 _atom_site_fract_x
 _atom_site_fract_y
 _atom_site_fract_z
 _atom_site_occupancy
  Li  Li0  1  0.15447000  0.15447000  0.02713900  1
  Mn  Mn0  1  0.49551000  0.49551000  0.99484800  1
  Mn  Mn1  1  0.87049300  0.37601000  0.87612000  1
  Mn  Mn2  1  0.37601000  0.87049300  0.87612000  1
  Mn  Mn3  1  0.62018600  0.12759600  0.62298500  1
  Mn  Mn4  1  0.24106500  0.24106500  0.74473900  1
  Mn  Mn5  1  0.12759600  0.62018600  0.62298500  1
  Mn  Mn6  1  0.87745500  0.87745500  0.37733100  1
  Mn  Mn7  1  0.62570400  0.62570400  0.62348700  1
  Mn  Mn8  1  0.01180400  0.01180400  0.50472100  1
  Mn  Mn9  1  0.37647500  0.87677800  0.37623400  1
  Mn  Mn10  1  0.89378000  0.89378000  0.78089700  1
  Mn  Mn11  1  0.87677800  0.37647500  0.37623400  1
  Mn  Mn12  1  0.62398700  0.62398700  0.12561100  1
  Mn  Mn13  1  0.75027100  0.75027100  0.25143500  1
  Mn  Mn14  1  0.12386000  0.62509600  0.12555100  1
  Mn  Mn15  1  0.62509600  0.12386000  0.12555100  1
  O  O0  1  0.70081100  0.22424400  0.93855700  1
  O  O1  1  0.57066800  0.57066800  0.82341700  1
  O  O2  1  0.22424400  0.70081100  0.93855700  1
  O  O3  1  0.66702900  0.66702900  0.93646700  1
  O  O4  1  0.45696700  0.95535700  0.67937800  1
  O  O5  1  0.07189400  0.07189400  0.81387100  1
  O  O6  1  0.52216300  0.05770900  0.81080000  1
  O  O7  1  0.32399300  0.32399300  0.56983400  1
  O  O8  1  0.17923000  0.17923000  0.92658900  1
  O  O9  1  0.95535700  0.45696700  0.67937800  1
  O  O10  1  0.05770900  0.52216300  0.81080000  1
  O  O11  1  0.42280100  0.42280100  0.68231700  1
  O  O12  1  0.17629100  0.73547500  0.43473800  1
  O  O13  1  0.82965100  0.82965100  0.56527200  1
  O  O14  1  0.93221900  0.93221900  0.67983600  1
  O  O15  1  0.29249900  0.79455900  0.56812800  1
  O  O16  1  0.73547500  0.17629100  0.43473800  1
  O  O17  1  0.05642500  0.05642500  0.32504500  1
  O  O18  1  0.79455900  0.29249900  0.56812800  1
  O  O19  1  0.17244300  0.17244300  0.43598500  1
  O  O20  1  0.58429000  0.58429000  0.31548600  1
  O  O21  1  0.92515500  0.47866700  0.18322800  1
  O  O22  1  0.02119100  0.57768200  0.31797000  1
  O  O23  1  0.69610300  0.69610300  0.42757300  1
  O  O24  1  0.80442400  0.80442400  0.07425300  1
  O  O25  1  0.47866700  0.92515500  0.18322800  1
  O  O26  1  0.91690000  0.91690000  0.18550200  1
  O  O27  1  0.57768200  0.02119100  0.31797000  1
  O  O28  1  0.32887000  0.32887000  0.06485800  1
  O  O29  1  0.44383900  0.44383900  0.17643700  1
  O  O30  1  0.77453500  0.32287700  0.06858600  1
  O  O31  1  0.32287700  0.77453500  0.06858600  1
loop_
_geom_bond_atom_site_label_1
_geom_bond_atom_site_label_2
_geom_bond_distance
_geom_bond_site_symmetry_2
Li0 O8 1.908086 1_554
Li0 O30 2.018422 1_455
Li0 O31 2.018422 1_545
Li0 O28 2.025675 1_555
Mn0 O2 1.813419 1_555
Mn0 O0 1.813419 1_555
Mn0 O3 1.942570 1_555
Mn0 O28 2.013467 1_556
Mn0 O31 2.057150 1_556
Mn0 O30 2.057150 1_556
Mn1 O1 1.876018 1_555
Mn1 O8 1.889156 1_655
Mn1 O0 1.891515 1_555
Mn1 O3 1.934065 1_555
Mn1 O10 1.970039 1_655
Mn1 O5 2.006646 1_655
Mn2 O1 1.876018 1_555
Mn2 O8 1.889156 1_565
Mn2 O2 1.891515 1_555
Mn2 O3 1.934065 1_555
Mn2 O6 1.970039 1_565
Mn2 O5 2.006646 1_565
Mn3 O7 1.866928 1_555
Mn3 O4 1.893920 1_545
Mn3 O18 1.897557 1_555
Mn3 O13 1.932306 1_545
Mn3 O11 1.935283 1_555
Mn3 O14 1.973190 1_545
Mn4 O6 1.961817 1_555
Mn4 O10 1.961817 1_555
Mn4 O4 1.984358 1_545
Mn4 O9 1.984358 1_455
Mn4 O5 2.024082 1_555
Mn4 O11 2.063104 1_555
Mn5 O7 1.866928 1_555
Mn5 O9 1.893920 1_455
Mn5 O15 1.897557 1_555
Mn5 O13 1.932306 1_455
Mn5 O11 1.935283 1_555
Mn5 O14 1.973190 1_455
Mn6 O12 1.935416 1_655
Mn6 O16 1.935416 1_565
Mn6 O17 1.959091 1_665
Mn6 O27 1.962243 1_565
Mn6 O22 1.962243 1_655
Mn6 O23 1.966073 1_555
Mn7 O4 2.041803 1_555
Mn7 O9 2.041803 1_555
Mn7 O18 2.051906 1_555
Mn7 O15 2.051906 1_555
Mn7 O11 2.217866 1_555
Mn7 O13 2.222800 1_555
Mn8 O15 1.943343 1_545
Mn8 O18 1.943343 1_455
Mn8 O19 1.954044 1_555
Mn8 O12 1.995768 1_545
Mn8 O16 1.995768 1_455
Mn8 O13 2.050816 1_445
Mn9 O23 1.943844 1_555
Mn9 O17 1.944220 1_565
Mn9 O12 1.944570 1_555
Mn9 O19 1.944842 1_565
Mn9 O20 1.946754 1_555
Mn9 O27 1.959380 1_565
Mn10 O6 1.919933 1_565
Mn10 O10 1.919933 1_655
Mn10 O14 1.920768 1_555
Mn10 O5 2.019194 1_665
Mn11 O23 1.943844 1_555
Mn11 O17 1.944220 1_655
Mn11 O16 1.944570 1_555
Mn11 O19 1.944842 1_655
Mn11 O20 1.946754 1_555
Mn11 O22 1.959380 1_655
Mn12 O30 1.935920 1_555
Mn12 O31 1.935920 1_555
Mn12 O25 1.946236 1_555
Mn12 O21 1.946236 1_555
Mn12 O29 1.959279 1_555
Mn12 O24 1.965545 1_555
Mn13 O27 1.928249 1_565
Mn13 O22 1.928249 1_655
Mn13 O20 1.948508 1_555
Mn13 O21 1.953593 1_555
Mn13 O25 1.953593 1_555
Mn13 O26 1.972034 1_555
Mn14 O26 1.934090 1_455
Mn14 O29 1.940483 1_555
Mn14 O24 1.942712 1_455
Mn14 O21 1.951364 1_455
Mn14 O28 1.958774 1_555
Mn14 O31 1.959015 1_555
Mn15 O26 1.934090 1_545
Mn15 O29 1.940483 1_555
Mn15 O24 1.942712 1_545
Mn15 O25 1.951364 1_545
Mn15 O28 1.958774 1_555
Mn15 O30 1.959015 1_555
