# generated using pymatgen
data_K3Y3(BO3)4
_symmetry_space_group_name_H-M   'P 1'
_cell_length_a   17.67154100
_cell_length_b   10.66447400
_cell_length_c   14.03317677
_cell_angle_alpha   69.50756292
_cell_angle_beta   90.00000000
_cell_angle_gamma   90.00000000
_symmetry_Int_Tables_number   1
_chemical_formula_structural   K3Y3(BO3)4
_chemical_formula_sum   'K24 Y24 B32 O96'
_cell_volume   2477.30177072
_cell_formula_units_Z   8
loop_
 _symmetry_equiv_pos_site_id
 _symmetry_equiv_pos_as_xyz
  1  'x, y, z'
loop_
 _atom_site_type_symbol
 _atom_site_label
 _atom_site_symmetry_multiplicity
 _atom_site_fract_x
 _atom_site_fract_y
 _atom_site_fract_z
 _atom_site_occupancy
  K  K0  1  0.82755900  0.91899200  0.90617100  1
  K  K1  1  0.17749200  0.90993700  0.40678500  1
  K  K2  1  0.46671800  0.70028800  0.39896500  1
  K  K3  1  0.71086500  0.39382100  0.45983100  1
  K  K4  1  0.21086500  0.60617900  0.04016900  1
  K  K5  1  0.32755900  0.08100800  0.59382900  1
  K  K6  1  0.17244100  0.08100800  0.09382900  1
  K  K7  1  0.53690100  0.70694600  0.89956300  1
  K  K8  1  0.71097300  0.60641500  0.04473700  1
  K  K9  1  0.28902700  0.39358500  0.95526300  1
  K  K10  1  0.78913500  0.39382100  0.95983100  1
  K  K11  1  0.82250800  0.09006300  0.59321500  1
  K  K12  1  0.96309900  0.70694600  0.39956300  1
  K  K13  1  0.78902700  0.60641500  0.54473700  1
  K  K14  1  0.21097300  0.39358500  0.45526300  1
  K  K15  1  0.96671800  0.29971200  0.10103500  1
  K  K16  1  0.32250800  0.90993700  0.90678500  1
  K  K17  1  0.46309900  0.29305400  0.10043700  1
  K  K18  1  0.03690100  0.29305400  0.60043700  1
  K  K19  1  0.67749200  0.09006300  0.09321500  1
  K  K20  1  0.03328200  0.70028800  0.89896500  1
  K  K21  1  0.28913500  0.60617900  0.54016900  1
  K  K22  1  0.53328200  0.29971200  0.60103500  1
  K  K23  1  0.67244100  0.91899200  0.40617100  1
  Y  Y0  1  0.84667200  0.70889600  0.75238400  1
  Y  Y1  1  0.85572300  0.29024200  0.75019200  1
  Y  Y2  1  0.51523200  0.83219600  0.61141000  1
  Y  Y3  1  0.34667200  0.29110400  0.74761600  1
  Y  Y4  1  0.14427700  0.70975800  0.24980800  1
  Y  Y5  1  0.62078900  0.47660800  0.76034000  1
  Y  Y6  1  0.12078900  0.52339200  0.73966000  1
  Y  Y7  1  0.15540400  0.99918500  0.74529400  1
  Y  Y8  1  0.98476800  0.83219600  0.11141000  1
  Y  Y9  1  0.15332800  0.29110400  0.24761600  1
  Y  Y10  1  0.84459600  0.00081500  0.25470600  1
  Y  Y11  1  0.87921100  0.47660800  0.26034000  1
  Y  Y12  1  0.48629400  0.84298100  0.11982400  1
  Y  Y13  1  0.01523200  0.16780400  0.88859000  1
  Y  Y14  1  0.35572300  0.70975800  0.74980800  1
  Y  Y15  1  0.01370600  0.84298100  0.61982400  1
  Y  Y16  1  0.65540400  0.00081500  0.75470600  1
  Y  Y17  1  0.65332800  0.70889600  0.25238400  1
  Y  Y18  1  0.34459600  0.99918500  0.24529400  1
  Y  Y19  1  0.98629400  0.15701900  0.38017600  1
  Y  Y20  1  0.51370600  0.15701900  0.88017600  1
  Y  Y21  1  0.48476800  0.16780400  0.38859000  1
  Y  Y22  1  0.64427700  0.29024200  0.25019200  1
  Y  Y23  1  0.37921100  0.52339200  0.23966000  1
  B  B0  1  0.80559900  0.76958800  0.21895700  1
  B  B1  1  0.95551100  0.50198800  0.75329200  1
  B  B2  1  0.61797400  0.62285200  0.51440400  1
  B  B3  1  0.38582500  0.61679300  0.01751400  1
  B  B4  1  0.46107000  0.99973500  0.75763900  1
  B  B5  1  0.96107000  0.00026500  0.74236100  1
  B  B6  1  0.30559900  0.23041200  0.28104300  1
  B  B7  1  0.87755400  0.88185400  0.50079900  1
  B  B8  1  0.29630000  0.76553000  0.22020500  1
  B  B9  1  0.03893000  0.99973500  0.25763900  1
  B  B10  1  0.45551100  0.49801200  0.74670800  1
  B  B11  1  0.70370000  0.23447000  0.77979500  1
  B  B12  1  0.61417500  0.38320700  0.98248600  1
  B  B13  1  0.11417500  0.61679300  0.51751400  1
  B  B14  1  0.79630000  0.23447000  0.27979500  1
  B  B15  1  0.53893000  0.00026500  0.24236100  1
  B  B16  1  0.88582500  0.38320700  0.48248600  1
  B  B17  1  0.61719200  0.13179200  0.51654900  1
  B  B18  1  0.38280800  0.86820800  0.48345100  1
  B  B19  1  0.62244600  0.88185400  0.00079900  1
  B  B20  1  0.12244600  0.11814600  0.49920100  1
  B  B21  1  0.88280800  0.13179200  0.01654900  1
  B  B22  1  0.38202600  0.37714800  0.48559600  1
  B  B23  1  0.19440100  0.23041200  0.78104300  1
  B  B24  1  0.37755400  0.11814600  0.99920100  1
  B  B25  1  0.11797400  0.37714800  0.98559600  1
  B  B26  1  0.88202600  0.62285200  0.01440400  1
  B  B27  1  0.11719200  0.86820800  0.98345100  1
  B  B28  1  0.04448900  0.49801200  0.24670800  1
  B  B29  1  0.20370000  0.76553000  0.72020500  1
  B  B30  1  0.54448900  0.50198800  0.25329200  1
  B  B31  1  0.69440100  0.76958800  0.71895700  1
  O  O0  1  0.21919900  0.35094200  0.78400300  1
  O  O1  1  0.36318900  0.65359800  0.91606100  1
  O  O2  1  0.94453300  0.04516400  0.04327300  1
  O  O3  1  0.24924100  0.14003300  0.77049800  1
  O  O4  1  0.61947600  0.80955100  0.71599600  1
  O  O5  1  0.87046900  0.50245800  0.09293400  1
  O  O6  1  0.07504000  0.27507400  0.97211500  1
  O  O7  1  0.92357900  0.98854500  0.49918500  1
  O  O8  1  0.15106900  0.35570400  0.08031200  1
  O  O9  1  0.28080100  0.35094200  0.28400300  1
  O  O10  1  0.38983700  0.23341400  0.91341100  1
  O  O11  1  0.25530200  0.86020200  0.72911800  1
  O  O12  1  0.86363000  0.50581200  0.41292200  1
  O  O13  1  0.61266300  0.22597700  0.41768900  1
  O  O14  1  0.53315300  0.99398000  0.79735100  1
  O  O15  1  0.37687400  0.50076800  0.74701200  1
  O  O16  1  0.74924100  0.85996700  0.72950200  1
  O  O17  1  0.03315300  0.00602000  0.70264900  1
  O  O18  1  0.34893100  0.35570400  0.58031200  1
  O  O19  1  0.43409000  0.89787300  0.72592500  1
  O  O20  1  0.63681100  0.34640200  0.08393900  1
  O  O21  1  0.38733700  0.77402300  0.58231100  1
  O  O22  1  0.88733700  0.22597700  0.91768900  1
  O  O23  1  0.87687400  0.49923200  0.75298800  1
  O  O24  1  0.74469800  0.13979800  0.27088200  1
  O  O25  1  0.57242600  0.29636700  0.94847500  1
  O  O26  1  0.37046900  0.49754200  0.40706600  1
  O  O27  1  0.36363000  0.49418800  0.08707800  1
  O  O28  1  0.42757400  0.70363300  0.05152500  1
  O  O29  1  0.32785400  0.86656100  0.41626800  1
  O  O30  1  0.17214600  0.86656100  0.91626800  1
  O  O31  1  0.07642100  0.01145500  0.50081500  1
  O  O32  1  0.82785400  0.13343900  0.08373200  1
  O  O33  1  0.88052400  0.80955100  0.21599600  1
  O  O34  1  0.63637000  0.50581200  0.91292200  1
  O  O35  1  0.07242600  0.70363300  0.55152500  1
  O  O36  1  0.42357900  0.01145500  0.00081500  1
  O  O37  1  0.87323100  0.21342600  0.27789300  1
  O  O38  1  0.25075900  0.14003300  0.27049800  1
  O  O39  1  0.62676900  0.21342600  0.77789300  1
  O  O40  1  0.71919900  0.64905800  0.71599700  1
  O  O41  1  0.00678100  0.38298100  0.24913600  1
  O  O42  1  0.12676900  0.78657400  0.72210700  1
  O  O43  1  0.23254600  0.64791200  0.71434700  1
  O  O44  1  0.06591000  0.89787300  0.22592500  1
  O  O45  1  0.61016300  0.76658600  0.08658900  1
  O  O46  1  0.11947600  0.19044900  0.78400400  1
  O  O47  1  0.88983700  0.76658600  0.58658900  1
  O  O48  1  0.41891000  0.11052700  0.75589100  1
  O  O49  1  0.99556300  0.38817200  0.75611300  1
  O  O50  1  0.12953100  0.49754200  0.90706600  1
  O  O51  1  0.92757400  0.29636700  0.44847500  1
  O  O52  1  0.76745400  0.35208800  0.28565300  1
  O  O53  1  0.46684700  0.00602000  0.20264900  1
  O  O54  1  0.91891000  0.88947300  0.74410900  1
  O  O55  1  0.75530200  0.13979800  0.77088200  1
  O  O56  1  0.08109000  0.11052700  0.25589100  1
  O  O57  1  0.65106900  0.64429600  0.41968800  1
  O  O58  1  0.12312600  0.50076800  0.24701200  1
  O  O59  1  0.58109000  0.88947300  0.24410900  1
  O  O60  1  0.24469800  0.86020200  0.22911800  1
  O  O61  1  0.57642100  0.98854500  0.99918500  1
  O  O62  1  0.38052400  0.19044900  0.28400400  1
  O  O63  1  0.55546700  0.04516400  0.54327300  1
  O  O64  1  0.62312600  0.49923200  0.25298800  1
  O  O65  1  0.42496000  0.27507400  0.47211500  1
  O  O66  1  0.67250300  0.88366700  0.92575900  1
  O  O67  1  0.00443700  0.61182800  0.24388700  1
  O  O68  1  0.78080100  0.64905800  0.21599700  1
  O  O69  1  0.11016300  0.23341400  0.41341100  1
  O  O70  1  0.17250300  0.11633300  0.57424100  1
  O  O71  1  0.32749700  0.11633300  0.07424100  1
  O  O72  1  0.13637000  0.49418800  0.58707800  1
  O  O73  1  0.93409000  0.10212700  0.77407500  1
  O  O74  1  0.57504000  0.72492600  0.52788500  1
  O  O75  1  0.49321900  0.38298100  0.74913600  1
  O  O76  1  0.75075900  0.85996700  0.22950200  1
  O  O77  1  0.62953100  0.50245800  0.59293400  1
  O  O78  1  0.67214600  0.13343900  0.58373200  1
  O  O79  1  0.50678100  0.61701900  0.25086400  1
  O  O80  1  0.86318900  0.34640200  0.58393900  1
  O  O81  1  0.96684700  0.99398000  0.29735100  1
  O  O82  1  0.73254600  0.35208800  0.78565300  1
  O  O83  1  0.84893100  0.64429600  0.91968800  1
  O  O84  1  0.92496000  0.72492600  0.02788500  1
  O  O85  1  0.82749700  0.88366700  0.42575900  1
  O  O86  1  0.13681100  0.65359800  0.41606100  1
  O  O87  1  0.99321900  0.61701900  0.75086400  1
  O  O88  1  0.26745400  0.64791200  0.21434700  1
  O  O89  1  0.50443700  0.38817200  0.25611300  1
  O  O90  1  0.49556300  0.61182800  0.74388700  1
  O  O91  1  0.44453300  0.95483600  0.45672700  1
  O  O92  1  0.37323100  0.78657400  0.22210700  1
  O  O93  1  0.11266300  0.77402300  0.08231100  1
  O  O94  1  0.56591000  0.10212700  0.27407500  1
  O  O95  1  0.05546700  0.95483600  0.95672700  1
loop_
_geom_bond_atom_site_label_1
_geom_bond_atom_site_label_2
_geom_bond_distance
_geom_bond_site_symmetry_2
K0 O55 2.765806 1_565
K0 O66 2.766406 1_555
K0 O84 2.772764 1_556
K0 O73 2.873993 1_565
K0 O83 2.893346 1_555
K0 O54 2.894577 1_555
K0 O16 3.090459 1_555
K1 O31 2.665261 1_565
K1 O29 2.692382 1_555
K1 O86 2.785288 1_555
K1 O38 2.840705 1_565
K1 O56 2.964891 1_565
K1 O60 2.972189 1_555
K1 O35 3.047048 1_555
K2 O79 2.627067 1_555
K2 O74 2.709085 1_555
K2 O26 2.721910 1_555
K2 O92 2.852496 1_555
K3 O13 2.703043 1_555
K3 O57 2.741454 1_555
K3 O78 2.796718 1_555
K3 O52 2.816779 1_555
K3 O77 2.900370 1_555
K3 O12 2.932077 1_555
K3 O64 3.131853 1_555
K3 O80 3.149306 1_555
K4 O93 2.703043 1_555
K4 O8 2.741454 1_555
K4 O30 2.796718 1_554
K4 O88 2.816779 1_555
K4 O50 2.900370 1_554
K4 O27 2.932077 1_555
K4 O58 3.131853 1_555
K4 O1 3.149306 1_554
K5 O11 2.765806 1_545
K5 O70 2.766406 1_555
K5 O65 2.772764 1_555
K5 O19 2.873993 1_545
K5 O18 2.893346 1_555
K5 O48 2.894577 1_555
K5 O3 3.090459 1_555
K6 O60 2.765806 1_545
K6 O71 2.766406 1_555
K6 O6 2.772764 1_554
K6 O44 2.873993 1_545
K6 O8 2.893346 1_555
K6 O56 2.894577 1_555
K6 O38 3.090459 1_555
K7 O34 2.728429 1_555
K7 O90 2.808349 1_555
K7 O4 2.826481 1_555
K7 O28 2.868558 1_556
K7 O14 2.890968 1_555
K8 O45 2.671840 1_555
K8 O34 2.774952 1_554
K8 O68 2.875881 1_555
K8 O66 2.921590 1_554
K8 O20 2.939577 1_555
K8 O83 2.947845 1_554
K8 O5 3.017567 1_555
K8 O64 3.149309 1_555
K9 O10 2.671840 1_555
K9 O27 2.774952 1_556
K9 O0 2.875881 1_555
K9 O71 2.921590 1_556
K9 O1 2.939577 1_555
K9 O8 2.947845 1_556
K9 O50 3.017567 1_555
K9 O15 3.149309 1_555
K10 O22 2.703043 1_555
K10 O83 2.741454 1_555
K10 O32 2.796718 1_556
K10 O82 2.816779 1_555
K10 O5 2.900370 1_556
K10 O34 2.932077 1_555
K10 O23 3.131853 1_555
K10 O20 3.149306 1_556
K11 O7 2.665261 1_545
K11 O78 2.692382 1_555
K11 O80 2.785288 1_555
K11 O16 2.840705 1_545
K11 O54 2.964891 1_545
K11 O55 2.972189 1_555
K11 O51 3.047048 1_555
K12 O12 2.728429 1_555
K12 O67 2.808349 1_655
K12 O33 2.826481 1_555
K12 O35 2.868558 1_655
K12 O81 2.890968 1_555
K13 O47 2.671840 1_555
K13 O12 2.774952 1_555
K13 O40 2.875881 1_555
K13 O85 2.921590 1_555
K13 O80 2.939577 1_555
K13 O57 2.947845 1_555
K13 O77 3.017567 1_555
K13 O23 3.149309 1_555
K14 O69 2.671840 1_555
K14 O72 2.774952 1_555
K14 O9 2.875881 1_555
K14 O70 2.921590 1_555
K14 O86 2.939577 1_555
K14 O18 2.947845 1_555
K14 O26 3.017567 1_555
K14 O58 3.149309 1_555
K15 O41 2.627067 1_655
K15 O6 2.709085 1_654
K15 O5 2.721910 1_555
K15 O37 2.852496 1_555
K16 O36 2.665261 1_566
K16 O30 2.692382 1_555
K16 O1 2.785288 1_555
K16 O3 2.840705 1_565
K16 O48 2.964891 1_565
K16 O11 2.972189 1_555
K16 O28 3.047048 1_556
K17 O27 2.728429 1_555
K17 O89 2.808349 1_555
K17 O62 2.826481 1_555
K17 O25 2.868558 1_554
K17 O53 2.890968 1_555
K18 O72 2.728429 1_555
K18 O49 2.808349 1_455
K18 O46 2.826481 1_555
K18 O51 2.868558 1_455
K18 O17 2.890968 1_555
K19 O61 2.665261 1_544
K19 O32 2.692382 1_555
K19 O20 2.785288 1_555
K19 O76 2.840705 1_545
K19 O59 2.964891 1_545
K19 O24 2.972189 1_555
K19 O25 3.047048 1_554
K20 O87 2.627067 1_455
K20 O84 2.709085 1_456
K20 O50 2.721910 1_555
K20 O42 2.852496 1_555
K21 O21 2.703043 1_555
K21 O18 2.741454 1_555
K21 O29 2.796718 1_555
K21 O43 2.816779 1_555
K21 O26 2.900370 1_555
K21 O72 2.932077 1_555
K21 O15 3.131853 1_555
K21 O86 3.149306 1_555
K22 O75 2.627067 1_555
K22 O65 2.709085 1_555
K22 O77 2.721910 1_555
K22 O39 2.852496 1_555
K23 O24 2.765806 1_565
K23 O85 2.766406 1_555
K23 O74 2.772764 1_555
K23 O94 2.873993 1_565
K23 O57 2.893346 1_555
K23 O59 2.894577 1_555
K23 O76 3.090459 1_555
B0 O68 1.372359 1_555
B0 O33 1.387099 1_555
B0 O76 1.410648 1_555
B1 O87 1.385941 1_555
B1 O23 1.389986 1_555
B1 O49 1.393613 1_555
B2 O77 1.383466 1_555
B2 O74 1.393052 1_555
B2 O57 1.395777 1_555
B3 O27 1.386621 1_555
B3 O28 1.392570 1_555
B3 O1 1.396335 1_554
B4 O14 1.383112 1_555
B4 O48 1.389753 1_565
B4 O19 1.394254 1_555
B5 O17 1.383112 1_655
B5 O54 1.389753 1_545
B5 O73 1.394254 1_555
B6 O9 1.372359 1_555
B6 O62 1.387099 1_555
B6 O38 1.410648 1_555
B7 O85 1.370227 1_555
B7 O7 1.392327 1_555
B7 O47 1.404072 1_555
B8 O92 1.379668 1_555
B8 O88 1.382808 1_555
B8 O60 1.398194 1_555
B9 O81 1.383112 1_455
B9 O56 1.389753 1_565
B9 O44 1.394254 1_555
B10 O75 1.385941 1_555
B10 O15 1.389986 1_555
B10 O90 1.393613 1_555
B11 O39 1.379668 1_555
B11 O82 1.382808 1_555
B11 O55 1.398194 1_555
B12 O34 1.386621 1_555
B12 O25 1.392570 1_555
B12 O20 1.396335 1_556
B13 O72 1.386621 1_555
B13 O35 1.392570 1_555
B13 O86 1.396335 1_555
B14 O37 1.379668 1_555
B14 O52 1.382808 1_555
B14 O24 1.398194 1_555
B15 O53 1.383112 1_555
B15 O59 1.389753 1_545
B15 O94 1.394254 1_555
B16 O12 1.386621 1_555
B16 O51 1.392570 1_555
B16 O80 1.396335 1_555
B17 O78 1.357879 1_555
B17 O63 1.393319 1_555
B17 O13 1.401530 1_555
B18 O29 1.357879 1_555
B18 O91 1.393319 1_555
B18 O21 1.401530 1_555
B19 O66 1.370227 1_554
B19 O61 1.392327 1_554
B19 O45 1.404072 1_555
B20 O70 1.370227 1_555
B20 O31 1.392327 1_555
B20 O69 1.404072 1_555
B21 O32 1.357879 1_555
B21 O2 1.393319 1_555
B21 O22 1.401530 1_554
B22 O26 1.383466 1_555
B22 O65 1.393052 1_555
B22 O18 1.395777 1_555
B23 O0 1.372359 1_555
B23 O46 1.387099 1_555
B23 O3 1.410648 1_555
B24 O71 1.370227 1_556
B24 O36 1.392327 1_556
B24 O10 1.404072 1_555
B25 O50 1.383466 1_555
B25 O6 1.393052 1_555
B25 O8 1.395777 1_556
B26 O5 1.383466 1_555
B26 O84 1.393052 1_555
B26 O83 1.395777 1_554
B27 O30 1.357879 1_555
B27 O95 1.393319 1_555
B27 O93 1.401530 1_556
B28 O41 1.385941 1_555
B28 O58 1.389986 1_555
B28 O67 1.393613 1_555
B29 O42 1.379668 1_555
B29 O43 1.382808 1_555
B29 O11 1.398194 1_555
B30 O79 1.385941 1_555
B30 O64 1.389986 1_555
B30 O89 1.393613 1_555
B31 O40 1.372359 1_555
B31 O4 1.387099 1_555
B31 O16 1.410648 1_555
O0 Y3 2.443464 1_555
O0 Y6 2.447959 1_555
O1 Y14 2.200209 1_555
O2 Y8 2.248911 1_545
O2 Y13 2.448590 1_654
O3 Y3 2.302380 1_555
O3 Y7 2.345861 1_545
O4 Y2 2.314680 1_555
O4 Y16 2.373710 1_565
O5 Y11 2.272737 1_555
O6 Y13 2.176794 1_555
O7 Y19 2.268165 1_565
O7 Y15 2.443861 1_655
O8 Y9 2.203613 1_555
O9 Y9 2.443464 1_555
O9 Y23 2.447959 1_555
O10 Y3 2.317615 1_555
O10 Y20 2.436976 1_555
O11 Y14 2.341248 1_555
O11 Y7 2.366523 1_555
O12 Y11 2.285719 1_555
O13 Y22 2.275701 1_555
O13 Y21 2.416002 1_555
O14 Y16 2.236085 1_565
O14 Y20 2.430470 1_565
O15 Y14 2.273737 1_555
O15 Y3 2.295900 1_555
O16 Y0 2.302380 1_555
O16 Y16 2.345861 1_565
O17 Y7 2.236085 1_545
O17 Y15 2.430470 1_545
O18 Y3 2.203613 1_555
O19 Y14 2.363057 1_555
O19 Y2 2.432534 1_555
O20 Y22 2.200209 1_555
O21 Y14 2.275701 1_555
O21 Y2 2.416002 1_555
O22 Y1 2.275701 1_555
O22 Y13 2.416002 1_655
O23 Y1 2.273737 1_555
O23 Y0 2.295900 1_555
O24 Y22 2.341248 1_555
O24 Y10 2.366523 1_555
O25 Y20 2.280587 1_555
O25 Y5 2.800406 1_555
O26 Y23 2.272737 1_555
O27 Y23 2.285719 1_555
O28 Y12 2.280587 1_555
O28 Y23 2.800406 1_555
O29 Y18 2.338509 1_555
O30 Y7 2.338509 1_555
O31 Y15 2.268165 1_545
O31 Y19 2.443861 1_455
O32 Y10 2.338509 1_555
O33 Y8 2.314680 1_555
O33 Y10 2.373710 1_565
O34 Y5 2.285719 1_555
O35 Y15 2.280587 1_555
O35 Y6 2.800406 1_555
O36 Y12 2.268165 1_545
O36 Y20 2.443861 1_554
O37 Y19 2.410301 1_555
O37 Y10 2.453475 1_555
O37 Y11 2.732275 1_555
O38 Y9 2.302380 1_555
O38 Y18 2.345861 1_545
O39 Y20 2.410301 1_555
O39 Y16 2.453475 1_555
O39 Y5 2.732275 1_555
O40 Y0 2.443464 1_555
O40 Y5 2.447959 1_555
O41 Y11 2.492737 1_455
O41 Y19 2.493380 1_455
O41 Y9 2.771595 1_555
O42 Y15 2.410301 1_555
O42 Y7 2.453475 1_555
O42 Y6 2.732275 1_555
O43 Y6 2.336586 1_555
O43 Y14 2.377098 1_555
O44 Y4 2.363057 1_555
O44 Y8 2.432534 1_455
O45 Y17 2.317615 1_555
O45 Y12 2.436976 1_555
O46 Y13 2.314680 1_555
O46 Y7 2.373710 1_545
O47 Y0 2.317615 1_555
O47 Y15 2.436976 1_655
O48 Y3 2.279266 1_555
O48 Y20 2.588339 1_555
O49 Y13 2.457830 1_655
O49 Y6 2.607064 1_655
O49 Y1 2.695394 1_555
O50 Y6 2.272737 1_555
O51 Y19 2.280587 1_555
O51 Y11 2.800406 1_555
O52 Y11 2.336586 1_555
O52 Y22 2.377098 1_555
O53 Y18 2.236085 1_545
O53 Y12 2.430470 1_545
O54 Y0 2.279266 1_555
O54 Y15 2.588339 1_655
O55 Y1 2.341248 1_555
O55 Y16 2.366523 1_555
O56 Y9 2.279266 1_555
O56 Y19 2.588339 1_455
O57 Y17 2.203613 1_555
O58 Y4 2.273737 1_555
O58 Y9 2.295900 1_555
O59 Y17 2.279266 1_555
O59 Y12 2.588339 1_555
O60 Y4 2.341248 1_555
O60 Y18 2.366523 1_555
O61 Y20 2.268165 1_565
O61 Y12 2.443861 1_556
O62 Y21 2.314680 1_555
O62 Y18 2.373710 1_545
O63 Y2 2.248911 1_545
O63 Y21 2.448590 1_555
O64 Y22 2.273737 1_555
O64 Y17 2.295900 1_555
O65 Y21 2.176794 1_555
O66 Y16 2.305295 1_565
O67 Y8 2.457830 1_455
O67 Y11 2.607064 1_455
O67 Y4 2.695394 1_555
O68 Y17 2.443464 1_555
O68 Y11 2.447959 1_555
O69 Y9 2.317615 1_555
O69 Y19 2.436976 1_455
O70 Y7 2.305295 1_545
O71 Y18 2.305295 1_545
O72 Y6 2.285719 1_555
O73 Y1 2.363057 1_555
O73 Y13 2.432534 1_655
O74 Y2 2.176794 1_555
O75 Y5 2.492737 1_555
O75 Y20 2.493380 1_555
O75 Y3 2.771595 1_555
O76 Y17 2.302380 1_555
O76 Y10 2.345861 1_565
O77 Y5 2.272737 1_555
O78 Y16 2.338509 1_555
O79 Y23 2.492737 1_555
O79 Y12 2.493380 1_555
O79 Y17 2.771595 1_555
O80 Y1 2.200209 1_555
O81 Y10 2.236085 1_565
O81 Y19 2.430470 1_565
O82 Y5 2.336586 1_555
O82 Y1 2.377098 1_555
O83 Y0 2.203613 1_555
O84 Y8 2.176794 1_555
O85 Y10 2.305295 1_565
O86 Y4 2.200209 1_555
O87 Y6 2.492737 1_655
O87 Y15 2.493380 1_655
O87 Y0 2.771595 1_555
O88 Y23 2.336586 1_555
O88 Y4 2.377098 1_555
O89 Y21 2.457830 1_555
O89 Y23 2.607064 1_555
O89 Y22 2.695394 1_555
O90 Y2 2.457830 1_555
O90 Y5 2.607064 1_555
O90 Y14 2.695394 1_555
O91 Y21 2.248911 1_565
O91 Y2 2.448590 1_555
O92 Y12 2.410301 1_555
O92 Y18 2.453475 1_555
O92 Y23 2.732275 1_555
O93 Y4 2.275701 1_555
O93 Y8 2.416002 1_455
O94 Y22 2.363057 1_555
O94 Y21 2.432534 1_555
O95 Y13 2.248911 1_565
O95 Y8 2.448590 1_456
