# generated using pymatgen
data_H9BrO4
_symmetry_space_group_name_H-M   'P 1'
_cell_length_a   11.30575600
_cell_length_b   7.13585600
_cell_length_c   7.73319312
_cell_angle_alpha   68.59534178
_cell_angle_beta   90.00000000
_cell_angle_gamma   90.00000000
_symmetry_Int_Tables_number   1
_chemical_formula_structural   H9BrO4
_chemical_formula_sum   'H36 Br4 O16'
_cell_volume   580.85324500
_cell_formula_units_Z   4
loop_
 _symmetry_equiv_pos_site_id
 _symmetry_equiv_pos_as_xyz
  1  'x, y, z'
loop_
 _atom_site_type_symbol
 _atom_site_label
 _atom_site_symmetry_multiplicity
 _atom_site_fract_x
 _atom_site_fract_y
 _atom_site_fract_z
 _atom_site_occupancy
  H  H0  1  0.66916300  0.64644600  0.99970800  1
  H  H1  1  0.75079900  0.79492400  0.80859500  1
  H  H2  1  0.73482400  0.86295800  0.99760200  1
  H  H3  1  0.16916300  0.35355400  0.00029200  1
  H  H4  1  0.25079900  0.20507600  0.19140500  1
  H  H5  1  0.23482400  0.13704200  0.00239800  1
  H  H6  1  0.80682800  0.02114200  0.14250800  1
  H  H7  1  0.66233300  0.03422000  0.12137700  1
  H  H8  1  0.30682800  0.97885800  0.85749200  1
  H  H9  1  0.16233300  0.96578000  0.87862300  1
  H  H10  1  0.74447000  0.28364100  0.86607200  1
  H  H11  1  0.84394300  0.44141400  0.77851000  1
  H  H12  1  0.34394300  0.55858600  0.22149000  1
  H  H13  1  0.24447000  0.71635900  0.13392800  1
  H  H14  1  0.75480200  0.34406000  0.57739400  1
  H  H15  1  0.69009000  0.34163200  0.38993400  1
  H  H16  1  0.25480200  0.65594000  0.42260600  1
  H  H17  1  0.19009000  0.65836800  0.61006600  1
  H  H18  1  0.85051700  0.86957200  0.55223400  1
  H  H19  1  0.76961400  0.05211500  0.55228800  1
  H  H20  1  0.35051700  0.13042800  0.44776600  1
  H  H21  1  0.26961400  0.94788500  0.44771200  1
  H  H22  1  0.56853500  0.81322600  0.35955200  1
  H  H23  1  0.66741700  0.78891600  0.51752300  1
  H  H24  1  0.53109600  0.61408100  0.59064200  1
  H  H25  1  0.03109600  0.38591900  0.40935800  1
  H  H26  1  0.16741700  0.21108400  0.48247700  1
  H  H27  1  0.06853500  0.18677400  0.64044800  1
  H  H28  1  0.45878100  0.38329600  0.70118700  1
  H  H29  1  0.37823100  0.59175100  0.63902900  1
  H  H30  1  0.95878100  0.61670400  0.29881300  1
  H  H31  1  0.87823100  0.40824900  0.36097100  1
  H  H32  1  0.49204500  0.00146700  0.03844500  1
  H  H33  1  0.49903600  0.13848400  0.16107600  1
  H  H34  1  0.99204500  0.99853300  0.96155500  1
  H  H35  1  0.99903600  0.86151600  0.83892400  1
  Br  Br0  1  0.48028800  0.06677500  0.71853000  1
  Br  Br1  1  0.98028800  0.93322500  0.28147000  1
  Br  Br2  1  0.53568900  0.44164900  0.17916500  1
  Br  Br3  1  0.03568900  0.55835100  0.82083500  1
  O  O0  1  0.73910100  0.74009800  0.95240600  1
  O  O1  1  0.23910100  0.25990200  0.04759400  1
  O  O2  1  0.73875000  0.03962900  0.05497400  1
  O  O3  1  0.23875000  0.96037100  0.94502600  1
  O  O4  1  0.76235000  0.40545000  0.75649700  1
  O  O5  1  0.26235000  0.59455000  0.24350300  1
  O  O6  1  0.76272200  0.29711700  0.46759100  1
  O  O7  1  0.26272200  0.70288300  0.53240900  1
  O  O8  1  0.77557900  0.89896600  0.60235900  1
  O  O9  1  0.27557900  0.10103400  0.39764100  1
  O  O10  1  0.60877500  0.71499300  0.46914200  1
  O  O11  1  0.10877500  0.28500700  0.53085800  1
  O  O12  1  0.45815500  0.52805400  0.69046800  1
  O  O13  1  0.95815500  0.47194600  0.30953200  1
  O  O14  1  0.51094200  0.99916100  0.16455100  1
  O  O15  1  0.01094200  0.00083900  0.83544900  1
loop_
_geom_bond_atom_site_label_1
_geom_bond_atom_site_label_2
_geom_bond_distance
_geom_bond_site_symmetry_2
H0 O0 1.013506 1_555
H1 O0 1.043926 1_555
H1 O8 1.519545 1_555
H2 O0 1.056775 1_555
H2 O2 1.482037 1_566
H3 O1 1.013506 1_555
H4 O1 1.043926 1_555
H4 O9 1.519545 1_555
H5 O1 1.056775 1_555
H5 O3 1.482037 1_544
H6 O2 1.001418 1_555
H7 O2 0.998562 1_555
H8 O3 1.001418 1_555
H9 O3 0.998562 1_555
H10 O4 0.988340 1_555
H11 O4 0.988776 1_555
H12 O5 0.988776 1_555
H13 O5 0.988340 1_555
H14 O6 1.024139 1_555
H14 O4 1.600120 1_555
H15 O6 0.998305 1_555
H16 O7 1.024139 1_555
H16 O5 1.600120 1_555
H17 O7 0.998305 1_555
H18 O8 0.985594 1_555
H19 O8 1.019770 1_545
H20 O9 0.985594 1_555
H21 O9 1.019770 1_565
H22 O10 0.991441 1_555
H23 O10 1.000926 1_555
H24 O12 1.143215 1_555
H24 O10 1.295676 1_555
H25 O13 1.143215 1_455
H25 O11 1.295676 1_555
H26 O11 1.000926 1_555
H27 O11 0.991441 1_555
H28 O12 1.005711 1_555
H29 O12 1.024382 1_555
H29 O7 1.592756 1_555
H30 O13 1.005711 1_555
H31 O13 1.024382 1_555
H31 O6 1.592756 1_555
H32 O14 0.992583 1_545
H33 O14 0.993857 1_545
H34 O15 0.992583 1_665
H35 O15 0.993857 1_665
Br0 H8 2.214093 1_545
Br0 H28 2.226544 1_555
Br1 H6 2.214093 1_565
Br1 H30 2.226544 1_555
Br2 H0 2.204190 1_554
Br2 H33 2.256595 1_555
Br3 H3 2.204190 1_556
Br3 H35 2.256595 1_455
