# generated using pymatgen
data_H3NO4
_symmetry_space_group_name_H-M   'P 1'
_cell_length_a   5.43055620
_cell_length_b   6.17575005
_cell_length_c   8.60927030
_cell_angle_alpha   90.00000000
_cell_angle_beta   90.00000000
_cell_angle_gamma   90.00000000
_symmetry_Int_Tables_number   1
_chemical_formula_structural   H3NO4
_chemical_formula_sum   'H12 N4 O16'
_cell_volume   288.73562150
_cell_formula_units_Z   4
loop_
 _symmetry_equiv_pos_site_id
 _symmetry_equiv_pos_as_xyz
  1  'x, y, z'
loop_
 _atom_site_type_symbol
 _atom_site_label
 _atom_site_symmetry_multiplicity
 _atom_site_fract_x
 _atom_site_fract_y
 _atom_site_fract_z
 _atom_site_occupancy
  H  H0  1  0.08551577  0.87557569  0.32635440  1
  H  H1  1  0.58551577  0.12442431  0.67364560  1
  H  H2  1  0.58551577  0.62442431  0.82635440  1
  H  H3  1  0.08551577  0.37557569  0.17364560  1
  H  H4  1  0.80214138  0.90705254  0.25042860  1
  H  H5  1  0.04872507  0.87936180  0.13542889  1
  H  H6  1  0.54872507  0.12063820  0.86457111  1
  H  H7  1  0.30214138  0.09294746  0.74957140  1
  H  H8  1  0.30214138  0.59294746  0.75042860  1
  H  H9  1  0.54872507  0.62063820  0.63542889  1
  H  H10  1  0.80214138  0.40705254  0.24957140  1
  H  H11  1  0.04872507  0.37936180  0.36457111  1
  N  N0  1  0.47763694  0.79780801  0.40426804  1
  N  N1  1  0.97763694  0.20219199  0.59573196  1
  N  N2  1  0.97763694  0.70219199  0.90426804  1
  N  N3  1  0.47763694  0.29780801  0.09573196  1
  O  O0  1  0.65210033  0.72037341  0.48315419  1
  O  O1  1  0.15210033  0.27962659  0.51684581  1
  O  O2  1  0.15210033  0.77962659  -0.01684581  1
  O  O3  1  0.65210033  0.22037341  0.01684581  1
  O  O4  1  0.26026634  0.78818613  0.45520253  1
  O  O5  1  0.76026634  0.21181387  0.54479747  1
  O  O6  1  0.76026634  0.71181387  0.95520253  1
  O  O7  1  0.26026634  0.28818613  0.04479747  1
  O  O8  1  0.52044113  0.88422427  0.27469488  1
  O  O9  1  0.02044113  0.11577573  0.72530512  1
  O  O10  1  0.02044113  0.61577573  0.77469488  1
  O  O11  1  0.52044113  0.38422427  0.22530512  1
  O  O12  1  0.98490206  0.94001847  0.23793167  1
  O  O13  1  0.48490206  0.05998153  0.76206833  1
  O  O14  1  0.48490206  0.55998153  0.73793167  1
  O  O15  1  0.98490206  0.44001847  0.26206833  1
loop_
_geom_bond_atom_site_label_1
_geom_bond_atom_site_label_2
_geom_bond_distance
_geom_bond_site_symmetry_2
H0 O12 1.018057 1_455
H0 O4 1.556400 1_555
H1 O13 1.018057 1_555
H1 O5 1.556400 1_555
H2 O14 1.018057 1_555
H2 O6 1.556400 1_555
H3 O15 1.018057 1_455
H3 O7 1.556400 1_555
H4 O12 1.018855 1_555
H4 O8 1.550411 1_555
H5 O12 1.019418 1_455
H5 O2 1.553444 1_555
H6 O13 1.019418 1_555
H6 O3 1.553444 1_556
H7 O13 1.018855 1_555
H7 O9 1.550411 1_555
H8 O14 1.018855 1_555
H8 O10 1.550411 1_555
H9 O14 1.019418 1_555
H9 O0 1.553444 1_555
H10 O15 1.018855 1_555
H10 O11 1.550411 1_555
H11 O15 1.019418 1_455
H11 O1 1.553444 1_555
N0 O8 1.258277 1_555
N0 O0 1.259988 1_555
N0 O4 1.260661 1_555
N1 O9 1.258277 1_655
N1 O1 1.259988 1_655
N1 O5 1.260661 1_555
N2 O10 1.258277 1_655
N2 O2 1.259988 1_656
N2 O6 1.260661 1_555
N3 O11 1.258277 1_555
N3 O3 1.259988 1_555
N3 O7 1.260661 1_555
