# generated using pymatgen
data_Sr8La3(RuO7)3
_symmetry_space_group_name_H-M   'P 1'
_cell_length_a   5.77218300
_cell_length_b   6.95639398
_cell_length_c   14.86353995
_cell_angle_alpha   98.69588467
_cell_angle_beta   90.17895106
_cell_angle_gamma   114.40323636
_symmetry_Int_Tables_number   1
_chemical_formula_structural   Sr8La3(RuO7)3
_chemical_formula_sum   'Sr8 La3 Ru3 O21'
_cell_volume   535.82857432
_cell_formula_units_Z   1
loop_
 _symmetry_equiv_pos_site_id
 _symmetry_equiv_pos_as_xyz
  1  'x, y, z'
loop_
 _atom_site_type_symbol
 _atom_site_label
 _atom_site_symmetry_multiplicity
 _atom_site_fract_x
 _atom_site_fract_y
 _atom_site_fract_z
 _atom_site_occupancy
  Sr  Sr0  1  0.79654200  0.54373200  0.06735000  1
  Sr  Sr1  1  0.49397900  0.98841100  0.12799700  1
  Sr  Sr2  1  0.18192300  0.35796100  0.20818000  1
  Sr  Sr3  1  0.12715000  0.20034100  0.72883700  1
  Sr  Sr4  1  0.84194600  0.68148100  0.54505100  1
  Sr  Sr5  1  0.82363300  0.64669700  0.78709300  1
  Sr  Sr6  1  0.56552300  0.10293100  0.58208300  1
  Sr  Sr7  1  0.24833900  0.46967900  0.94773700  1
  La  La0  1  0.18395000  0.35715300  0.45503600  1
  La  La1  1  0.91024300  0.82666800  0.31713400  1
  La  La2  1  0.50945900  0.00620000  0.87322100  1
  Ru  Ru0  1  0.99555300  0.99644100  0.99758100  1
  Ru  Ru1  1  0.65626300  0.31895000  0.32947300  1
  Ru  Ru2  1  0.32664100  0.65492800  0.66207600  1
  O  O0  1  0.68596100  0.40337700  0.20858300  1
  O  O1  1  0.84398500  0.20170400  0.01830100  1
  O  O2  1  0.34723000  0.20899500  0.02601600  1
  O  O3  1  0.24328600  0.61663500  0.11376900  1
  O  O4  1  0.35145900  0.70981300  0.53681200  1
  O  O5  1  0.53007700  0.54767400  0.36181500  1
  O  O6  1  0.00919500  0.54302400  0.36186200  1
  O  O7  1  0.30838900  0.11114000  0.29732000  1
  O  O8  1  0.79060500  0.10983400  0.29161200  1
  O  O9  1  0.96762300  0.94730100  0.12247900  1
  O  O10  1  0.98015600  0.99579800  0.46630200  1
  O  O11  1  0.00780100  0.05748400  0.86999000  1
  O  O12  1  0.19366200  0.87439100  0.68714700  1
  O  O13  1  0.67847900  0.87921500  0.69158700  1
  O  O14  1  0.98114500  0.42503200  0.62845400  1
  O  O15  1  0.45098000  0.42982900  0.62620500  1
  O  O16  1  0.63916700  0.29150000  0.45466900  1
  O  O17  1  0.57561800  0.29735100  0.82135000  1
  O  O18  1  0.65370500  0.77137000  0.96385600  1
  O  O19  1  0.12062500  0.77988400  0.95583900  1
  O  O20  1  0.29488300  0.60742200  0.79089200  1
loop_
_geom_bond_atom_site_label_1
_geom_bond_atom_site_label_2
_geom_bond_distance
_geom_bond_site_symmetry_2
La0 O10 2.327177 1_445
La0 O4 2.358314 1_555
La0 O5 2.460206 1_555
La0 O6 2.493539 1_555
La0 O15 2.836697 1_555
La0 O16 2.846721 1_555
La0 O14 2.888763 1_455
La0 O7 2.958585 1_555
La0 O16 2.984873 1_455
La0 O8 3.080486 1_455
La1 O10 2.297001 1_555
La1 O7 2.388908 1_665
La1 O8 2.418534 1_565
La1 O5 2.429562 1_555
La1 O6 2.446840 1_655
La1 O0 2.889669 1_555
La1 O9 3.113736 1_555
La2 O17 2.162694 1_555
La2 O19 2.589594 1_545
La2 O20 2.617607 1_545
La2 O18 2.637983 1_545
La2 O1 2.673099 1_556
La2 O11 2.749915 1_655
La2 O2 2.856724 1_556
La2 O13 3.004682 1_545
La2 O11 3.061430 1_555
La2 O12 3.103752 1_545
O0 Ru1 1.959804 1_555
O0 Sr0 2.424996 1_555
O0 Sr1 2.701571 1_545
O0 Sr2 2.793609 1_555
O0 Sr2 3.007036 1_655
O1 Ru0 1.949383 1_544
O1 Sr0 2.506514 1_555
O1 Sr7 2.652155 1_654
O1 Sr1 2.686389 1_545
O1 Sr2 3.199641 1_655
O2 Ru0 1.952202 1_444
O2 Sr7 2.541113 1_554
O2 Sr0 2.663305 1_555
O2 Sr1 2.671907 1_545
O2 Sr2 3.049621 1_555
O3 Sr1 2.359563 1_555
O3 Sr2 2.360641 1_555
O3 Sr0 2.487031 1_455
O3 Sr7 2.529487 1_554
O4 Ru2 1.950452 1_555
O4 Sr6 2.470685 1_565
O4 Sr4 2.869481 1_455
O4 Sr4 2.921581 1_555
O5 Ru1 2.005421 1_555
O5 Sr2 2.804179 1_555
O5 Sr4 3.056613 1_555
O6 Ru1 1.988626 1_455
O6 Sr2 2.838102 1_555
O6 Sr4 3.043887 1_455
O7 Ru1 1.933060 1_555
O7 Sr2 2.637022 1_555
O7 Sr1 2.886750 1_545
O8 Ru1 1.929102 1_555
O8 Sr2 2.657495 1_655
O8 Sr1 2.777945 1_545
O9 Ru0 1.933231 1_554
O9 Sr0 2.556672 1_555
O9 Sr2 2.698782 1_665
O9 Sr1 2.864159 1_555
O9 Sr1 2.931332 1_655
O10 Sr4 2.475008 1_555
O10 Sr6 3.218198 1_565
O11 Ru0 2.000348 1_445
O11 Sr3 2.436737 1_555
O11 Sr7 2.680188 1_555
O11 Sr5 2.689073 1_445
O12 Ru2 1.963882 1_555
O12 Sr3 2.443069 1_565
O12 Sr5 2.685797 1_455
O12 Sr4 2.692243 1_455
O12 Sr6 2.743232 1_565
O13 Ru2 1.979996 1_555
O13 Sr3 2.615426 1_665
O13 Sr6 2.663441 1_565
O13 Sr5 2.672099 1_555
O13 Sr4 2.775898 1_555
O14 Ru2 1.975136 1_655
O14 Sr6 2.516332 1_555
O14 Sr3 2.676820 1_655
O14 Sr4 2.685475 1_555
O14 Sr5 2.972649 1_555
O15 Ru2 1.982405 1_555
O15 Sr3 2.580308 1_555
O15 Sr6 2.613918 1_555
O15 Sr4 2.646408 1_555
O15 Sr5 2.969343 1_555
O16 Ru1 1.897896 1_555
O16 Sr6 2.404877 1_555
O16 Sr4 2.607431 1_555
O17 Sr5 2.391335 1_555
O17 Sr3 2.702028 1_555
O17 Sr7 3.122070 1_555
O18 Ru0 1.949326 1_555
O18 Sr7 2.392389 1_555
O18 Sr0 2.713150 1_556
O18 Sr5 2.940593 1_555
O18 Sr1 3.021963 1_556
O19 Ru0 1.947919 1_455
O19 Sr7 2.539878 1_555
O19 Sr0 2.692319 1_456
O19 Sr5 2.836569 1_455
O19 Sr1 3.091341 1_556
O20 Ru2 1.988016 1_555
O20 Sr3 2.597385 1_555
O20 Sr7 2.625224 1_555
O20 Sr5 2.845137 1_455
O20 Sr5 2.951188 1_555
