# generated using pymatgen
data_FeSCl7
_symmetry_space_group_name_H-M   'P 1'
_cell_length_a   12.15308339
_cell_length_b   6.46105003
_cell_length_c   13.89627934
_cell_angle_alpha   79.14969924
_cell_angle_beta   90.00000000
_cell_angle_gamma   90.00000000
_symmetry_Int_Tables_number   1
_chemical_formula_structural   FeSCl7
_chemical_formula_sum   'Fe4 S4 Cl28'
_cell_volume   1071.65185401
_cell_formula_units_Z   4
loop_
 _symmetry_equiv_pos_site_id
 _symmetry_equiv_pos_as_xyz
  1  'x, y, z'
loop_
 _atom_site_type_symbol
 _atom_site_label
 _atom_site_symmetry_multiplicity
 _atom_site_fract_x
 _atom_site_fract_y
 _atom_site_fract_z
 _atom_site_occupancy
  Fe  Fe0  1  0.51744493  0.60595760  0.75938600  1
  Fe  Fe1  1  0.01744493  0.39404240  0.74061400  1
  Fe  Fe2  1  0.48255507  0.39404240  0.24061400  1
  Fe  Fe3  1  0.98255507  0.60595760  0.25938600  1
  S  S0  1  0.25524263  0.96958760  0.08715708  1
  S  S1  1  0.75524263  0.03041240  0.41284292  1
  S  S2  1  0.74475737  0.03041240  0.91284292  1
  S  S3  1  0.24475737  0.96958760  0.58715708  1
  Cl  Cl0  1  0.35773021  0.14716256  0.99309960  1
  Cl  Cl1  1  0.86078318  0.82228232  0.89265119  1
  Cl  Cl2  1  0.93494291  0.38424819  0.39354622  1
  Cl  Cl3  1  0.56505709  0.38424819  0.89354622  1
  Cl  Cl4  1  0.13921682  0.17771768  0.10734881  1
  Cl  Cl5  1  0.94999660  0.47611847  0.12683224  1
  Cl  Cl6  1  0.05000340  0.52388153  0.87316776  1
  Cl  Cl7  1  0.44999660  0.52388153  0.37316776  1
  Cl  Cl8  1  0.39148472  0.09723514  0.25278046  1
  Cl  Cl9  1  0.06505709  0.61575181  0.60645378  1
  Cl  Cl10  1  0.17721077  0.80411091  0.00001349  1
  Cl  Cl11  1  0.16025725  0.66403237  0.26677269  1
  Cl  Cl12  1  0.63921682  0.82228232  0.39265119  1
  Cl  Cl13  1  0.33974275  0.66403237  0.76677269  1
  Cl  Cl14  1  0.43494291  0.61575181  0.10645378  1
  Cl  Cl15  1  0.89148472  0.90276486  0.24721954  1
  Cl  Cl16  1  0.14226979  0.14716256  0.49309960  1
  Cl  Cl17  1  0.10851528  0.09723514  0.75278046  1
  Cl  Cl18  1  0.55000340  0.47611847  0.62683224  1
  Cl  Cl19  1  0.82278923  0.19588909  0.99998651  1
  Cl  Cl20  1  0.83974275  0.33596763  0.73322731  1
  Cl  Cl21  1  0.32278923  0.80411091  0.50001349  1
  Cl  Cl22  1  0.36078318  0.17771768  0.60734881  1
  Cl  Cl23  1  0.67721077  0.19588909  0.49998651  1
  Cl  Cl24  1  0.66025725  0.33596763  0.23322731  1
  Cl  Cl25  1  0.64226979  0.85283744  0.00690040  1
  Cl  Cl26  1  0.85773021  0.85283744  0.50690040  1
  Cl  Cl27  1  0.60851528  0.90276486  0.74721954  1
loop_
_geom_bond_atom_site_label_1
_geom_bond_atom_site_label_2
_geom_bond_distance
_geom_bond_site_symmetry_2
Cl0 S0 2.002875 1_546
Cl1 S2 2.004348 1_565
Cl2 Fe3 2.203877 1_555
Cl3 Fe0 2.203877 1_555
Cl4 S0 2.004348 1_545
Cl5 Fe3 2.198877 1_555
Cl6 Fe1 2.198877 1_555
Cl7 Fe2 2.198877 1_555
Cl8 Fe2 2.192947 1_555
Cl9 Fe1 2.203877 1_555
Cl10 S0 1.999077 1_555
Cl11 Fe3 2.197687 1_455
Cl12 S1 2.004348 1_565
Cl13 Fe0 2.197687 1_555
Cl14 Fe2 2.203877 1_555
Cl15 Fe3 2.192947 1_555
Cl16 S3 2.002875 1_545
Cl17 Fe1 2.192947 1_555
Cl18 Fe0 2.198877 1_555
Cl19 S2 1.999077 1_555
Cl20 Fe1 2.197687 1_655
Cl21 S3 1.999077 1_555
Cl22 S3 2.004348 1_545
Cl23 S1 1.999077 1_555
Cl24 Fe2 2.197687 1_555
Cl25 S2 2.002875 1_564
Cl26 S1 2.002875 1_565
Cl27 Fe0 2.192947 1_555
