# generated using pymatgen
data_Eu(ZnSn)2
_symmetry_space_group_name_H-M   'P 1'
_cell_length_a   4.58474500
_cell_length_b   4.63670600
_cell_length_c   11.32971597
_cell_angle_alpha   89.25686007
_cell_angle_beta   90.00000000
_cell_angle_gamma   90.00000000
_symmetry_Int_Tables_number   1
_chemical_formula_structural   Eu(ZnSn)2
_chemical_formula_sum   'Eu2 Zn4 Sn4'
_cell_volume   240.82814270
_cell_formula_units_Z   2
loop_
 _symmetry_equiv_pos_site_id
 _symmetry_equiv_pos_as_xyz
  1  'x, y, z'
loop_
 _atom_site_type_symbol
 _atom_site_label
 _atom_site_symmetry_multiplicity
 _atom_site_fract_x
 _atom_site_fract_y
 _atom_site_fract_z
 _atom_site_occupancy
  Eu  Eu0  1  0.75000000  0.25935400  0.24591500  1
  Eu  Eu1  1  0.25000000  0.74064600  0.75408500  1
  Zn  Zn0  1  0.25000000  0.73945600  0.36066900  1
  Zn  Zn1  1  0.75000000  0.72028600  0.99921700  1
  Zn  Zn2  1  0.75000000  0.26054400  0.63933100  1
  Zn  Zn3  1  0.25000000  0.27971400  0.00078300  1
  Sn  Sn0  1  0.25000000  0.77896100  0.13238500  1
  Sn  Sn1  1  0.75000000  0.22103900  0.86761500  1
  Sn  Sn2  1  0.75000000  0.75770200  0.50051000  1
  Sn  Sn3  1  0.25000000  0.24229800  0.49949000  1
loop_
_geom_bond_atom_site_label_1
_geom_bond_atom_site_label_2
_geom_bond_distance
_geom_bond_site_symmetry_2
Eu0 Sn0 3.456191 1_645
Eu0 Sn0 3.456191 1_545
Eu0 Zn0 3.460617 1_655
Eu0 Zn0 3.460617 1_555
Eu0 Zn1 3.496402 1_554
Eu0 Sn0 3.554380 1_555
Eu0 Sn0 3.554380 1_655
Eu0 Zn0 3.560207 1_545
Eu0 Zn0 3.560207 1_645
Eu0 Zn3 3.601436 1_655
Eu0 Zn3 3.601436 1_555
Eu0 Sn3 3.675469 1_655
Eu0 Sn3 3.675469 1_555
Eu0 Sn2 3.681925 1_545
Eu0 Sn2 3.719203 1_555
Eu0 Zn1 3.773704 1_544
Eu1 Sn1 3.456191 1_565
Eu1 Sn1 3.456191 1_465
Eu1 Zn2 3.460617 1_455
Eu1 Zn2 3.460617 1_555
Eu1 Zn3 3.496402 1_556
Eu1 Sn1 3.554380 1_455
Eu1 Sn1 3.554380 1_555
Eu1 Zn2 3.560207 1_465
Eu1 Zn2 3.560207 1_565
Eu1 Zn1 3.601436 1_455
Eu1 Zn1 3.601436 1_555
Eu1 Sn2 3.675469 1_455
Eu1 Sn2 3.675469 1_555
Eu1 Sn3 3.681925 1_565
Eu1 Sn3 3.719203 1_555
Eu1 Zn3 3.773704 1_566
Sn0 Zn0 2.590500 1_555
Sn0 Zn3 2.743042 1_565
Sn0 Zn1 2.759706 1_454
Sn0 Zn1 2.759706 1_554
Sn0 Zn3 2.769700 1_555
Sn1 Zn2 2.590500 1_555
Sn1 Zn1 2.743042 1_545
Sn1 Zn3 2.759706 1_556
Sn1 Zn3 2.759706 1_656
Sn1 Zn1 2.769700 1_555
Sn2 Zn2 2.773715 1_555
Sn2 Zn0 2.788512 1_655
Sn2 Zn0 2.788512 1_555
Sn2 Zn2 2.829287 1_565
Sn3 Zn0 2.773715 1_555
Sn3 Zn2 2.788512 1_455
Sn3 Zn2 2.788512 1_555
Sn3 Zn0 2.829287 1_545
