# generated using pymatgen
data_H6N4O9
_symmetry_space_group_name_H-M   'P 1'
_cell_length_a   13.59337400
_cell_length_b   4.90173700
_cell_length_c   6.53572410
_cell_angle_alpha   87.16232501
_cell_angle_beta   90.00000000
_cell_angle_gamma   90.00000000
_symmetry_Int_Tables_number   1
_chemical_formula_structural   H6N4O9
_chemical_formula_sum   'H12 N8 O18'
_cell_volume   434.94878690
_cell_formula_units_Z   2
loop_
 _symmetry_equiv_pos_site_id
 _symmetry_equiv_pos_as_xyz
  1  'x, y, z'
loop_
 _atom_site_type_symbol
 _atom_site_label
 _atom_site_symmetry_multiplicity
 _atom_site_fract_x
 _atom_site_fract_y
 _atom_site_fract_z
 _atom_site_occupancy
  H  H0  1  0.03407300  0.75204300  0.85737300  1
  H  H1  1  0.53407300  0.24795700  0.14262700  1
  H  H2  1  0.98388700  0.04460600  0.35716500  1
  H  H3  1  0.07036000  0.52983900  0.38765300  1
  H  H4  1  0.57036000  0.47016100  0.61234700  1
  H  H5  1  0.48388700  0.95539400  0.64283500  1
  H  H6  1  0.35036700  0.61337200  0.65250100  1
  H  H7  1  0.85036700  0.38662800  0.34749900  1
  H  H8  1  0.85077400  0.32425600  0.88111300  1
  H  H9  1  0.07569600  0.25168600  0.98506200  1
  H  H10  1  0.57569600  0.74831400  0.01493800  1
  H  H11  1  0.35077400  0.67574400  0.11888700  1
  N  N0  1  0.51573300  0.75462700  0.91383200  1
  N  N1  1  0.01573300  0.24537300  0.08616800  1
  N  N2  1  0.02118900  0.79056100  0.57071000  1
  N  N3  1  0.52118900  0.20943900  0.42929000  1
  N  N4  1  0.73637500  0.14343900  0.78760900  1
  N  N5  1  0.26793600  0.34264500  0.78381100  1
  N  N6  1  0.76793600  0.65735500  0.21618900  1
  N  N7  1  0.23637500  0.85656100  0.21239100  1
  O  O0  1  0.97665800  0.75087400  0.76618600  1
  O  O1  1  0.47665800  0.24912600  0.23381400  1
  O  O2  1  0.94604000  0.92225000  0.45270800  1
  O  O3  1  0.02273400  0.51096800  0.50047000  1
  O  O4  1  0.52273400  0.48903200  0.49953000  1
  O  O5  1  0.44604000  0.07775000  0.54729200  1
  O  O6  1  0.70788600  0.96509600  0.67806400  1
  O  O7  1  0.27858600  0.57748000  0.65324200  1
  O  O8  1  0.77858600  0.42252000  0.34675800  1
  O  O9  1  0.20788600  0.03490400  0.32193600  1
  O  O10  1  0.68843900  0.27183200  0.91144700  1
  O  O11  1  0.33726400  0.28414700  0.89881500  1
  O  O12  1  0.83726400  0.71585300  0.10118500  1
  O  O13  1  0.18843900  0.72816800  0.08855300  1
  O  O14  1  0.83533500  0.21036700  0.76474900  1
  O  O15  1  0.18924200  0.22720700  0.76842700  1
  O  O16  1  0.68924200  0.77279300  0.23157300  1
  O  O17  1  0.33533500  0.78963300  0.23525100  1
loop_
_geom_bond_atom_site_label_1
_geom_bond_atom_site_label_2
_geom_bond_distance
_geom_bond_site_symmetry_2
H0 O0 0.982180 1_455
H1 O1 0.982180 1_555
H2 O2 0.988551 1_545
H3 O3 0.982140 1_555
H4 O4 0.982140 1_555
H5 O5 0.988551 1_565
H6 O7 0.991449 1_555
H7 O8 0.991449 1_555
H8 O14 0.987990 1_555
H9 N1 1.048798 1_556
H10 N0 1.048798 1_554
H11 O17 0.987990 1_555
N2 O2 1.416227 1_455
N2 O0 1.418400 1_455
N2 O3 1.466876 1_555
N3 O5 1.416227 1_555
N3 O1 1.418400 1_555
N3 O4 1.466876 1_555
N4 O6 1.220141 1_545
N4 O10 1.235392 1_555
N4 O14 1.390920 1_555
N5 O15 1.216643 1_555
N5 O11 1.230429 1_555
N5 O7 1.406042 1_555
N6 O16 1.216643 1_555
N6 O12 1.230429 1_555
N6 O8 1.406042 1_555
N7 O9 1.220141 1_565
N7 O13 1.235392 1_555
N7 O17 1.390920 1_555
