# generated using pymatgen
data_Nd(MnSn)6
_symmetry_space_group_name_H-M   'P 1'
_cell_length_a   5.50269722
_cell_length_b   9.05269611
_cell_length_c   15.21419216
_cell_angle_alpha   107.32612328
_cell_angle_beta   100.42569306
_cell_angle_gamma   90.00443364
_symmetry_Int_Tables_number   1
_chemical_formula_structural   Nd(MnSn)6
_chemical_formula_sum   'Nd3 Mn18 Sn18'
_cell_volume   710.37346298
_cell_formula_units_Z   3
loop_
 _symmetry_equiv_pos_site_id
 _symmetry_equiv_pos_as_xyz
  1  'x, y, z'
loop_
 _atom_site_type_symbol
 _atom_site_label
 _atom_site_symmetry_multiplicity
 _atom_site_fract_x
 _atom_site_fract_y
 _atom_site_fract_z
 _atom_site_occupancy
  Nd  Nd0  1  0.32974500  0.82996100  0.66118100  1
  Nd  Nd1  1  0.66860000  0.16880900  0.33904300  1
  Nd  Nd2  1  0.99968400  0.99897000  0.00079100  1
  Mn  Mn0  1  0.16758200  0.41455200  0.33430100  1
  Mn  Mn1  1  0.33234600  0.83481700  0.16761800  1
  Mn  Mn2  1  0.66828400  0.66788900  0.83371500  1
  Mn  Mn3  1  0.50049300  0.75258000  0.00049200  1
  Mn  Mn4  1  0.16423100  0.16460300  0.83252100  1
  Mn  Mn5  1  0.83501100  0.33121400  0.16784600  1
  Mn  Mn6  1  0.82962900  0.07971100  0.66606500  1
  Mn  Mn7  1  0.16487800  0.66778200  0.83318400  1
  Mn  Mn8  1  0.49873700  0.99795700  0.50025000  1
  Mn  Mn9  1  0.50096000  0.24622300  0.00044400  1
  Mn  Mn10  1  0.99900200  0.99774700  0.50049800  1
  Mn  Mn11  1  0.00005700  0.49826100  0.49990000  1
  Mn  Mn12  1  0.83485500  0.83507800  0.16744100  1
  Mn  Mn13  1  0.83287500  0.58372200  0.66636100  1
  Mn  Mn14  1  0.33257700  0.33133600  0.16789600  1
  Mn  Mn15  1  0.16656200  0.91789800  0.33409400  1
  Mn  Mn16  1  0.66615600  0.16414000  0.83254300  1
  Mn  Mn17  1  0.49973200  0.49816200  0.50024600  1
  Sn  Sn0  1  0.00122400  0.33386300  0.00065300  1
  Sn  Sn1  1  0.88672000  0.88690800  0.77558700  1
  Sn  Sn2  1  0.11229700  0.11224900  0.22524300  1
  Sn  Sn3  1  0.22456400  0.22362200  0.45056700  1
  Sn  Sn4  1  0.44403100  0.44436500  0.88977300  1
  Sn  Sn5  1  0.10985100  0.60928700  0.21984900  1
  Sn  Sn6  1  0.78048400  0.27937800  0.56272200  1
  Sn  Sn7  1  0.88839300  0.38931900  0.78033500  1
  Sn  Sn8  1  0.21862600  0.71745000  0.43773200  1
  Sn  Sn9  1  0.33442000  0.49792500  0.66844700  1
  Sn  Sn10  1  0.55680700  0.05631200  0.11388700  1
  Sn  Sn11  1  0.66606000  0.50100700  0.33239200  1
  Sn  Sn12  1  0.44198700  0.94264500  0.88639900  1
  Sn  Sn13  1  0.33118700  0.16950200  0.66756100  1
  Sn  Sn14  1  0.77421200  0.77313000  0.55045100  1
  Sn  Sn15  1  0.66616700  0.82974000  0.33253500  1
  Sn  Sn16  1  0.55619700  0.55455300  0.11158700  1
  Sn  Sn17  1  0.00003500  0.66338100  0.00021600  1
loop_
_geom_bond_atom_site_label_1
_geom_bond_atom_site_label_2
_geom_bond_distance
_geom_bond_site_symmetry_2
Nd0 Sn9 3.040516 1_555
Nd0 Sn13 3.046228 1_565
Nd0 Sn14 3.171711 1_555
Nd0 Sn14 3.172897 1_455
Nd0 Sn8 3.186491 1_555
Nd0 Sn1 3.197404 1_555
Nd0 Sn1 3.199988 1_455
Nd0 Sn12 3.211711 1_555
Nd1 Sn11 3.038907 1_555
Nd1 Sn15 3.041420 1_545
Nd1 Sn3 3.177189 1_555
Nd1 Sn3 3.178696 1_655
Nd1 Sn6 3.189788 1_555
Nd1 Sn2 3.191257 1_555
Nd1 Sn2 3.197340 1_655
Nd1 Sn10 3.210830 1_555
Nd2 Sn0 3.032323 1_665
Nd2 Sn17 3.035393 1_655
Nd2 Sn10 3.186696 1_565
Nd2 Sn10 3.191732 1_665
Nd2 Sn12 3.196446 1_654
Nd2 Sn12 3.200763 1_554
Nd2 Sn2 3.200798 1_665
Nd2 Sn1 3.211516 1_554
Mn0 Sn8 2.709949 1_555
Mn0 Sn2 2.729013 1_555
Mn0 Sn3 2.799139 1_555
Mn0 Sn5 2.805176 1_555
Mn0 Sn11 2.859953 1_555
Mn0 Sn11 2.866064 1_455
Mn1 Sn10 2.748767 1_565
Mn1 Sn2 2.759653 1_565
Mn1 Sn5 2.759866 1_555
Mn1 Sn16 2.788080 1_555
Mn1 Sn15 2.841209 1_555
Mn1 Sn17 2.863342 1_555
Mn2 Sn12 2.748441 1_555
Mn2 Sn1 2.754411 1_555
Mn2 Sn7 2.760922 1_555
Mn2 Sn4 2.784441 1_555
Mn2 Sn9 2.843980 1_555
Mn2 Sn17 2.852916 1_656
Mn3 Sn10 2.759280 1_565
Mn3 Sn12 2.766584 1_554
Mn3 Sn4 2.780317 1_554
Mn3 Sn16 2.789591 1_555
Mn3 Sn17 2.865418 1_655
Mn3 Sn17 2.868676 1_555
Mn4 Sn12 2.751977 1_545
Mn4 Sn7 2.756614 1_455
Mn4 Sn1 2.761439 1_445
Mn4 Sn4 2.782696 1_555
Mn4 Sn13 2.836464 1_555
Mn4 Sn0 2.862132 1_556
Mn5 Sn10 2.745611 1_555
Mn5 Sn2 2.751208 1_655
Mn5 Sn5 2.762271 1_655
Mn5 Sn16 2.780323 1_555
Mn5 Sn11 2.836326 1_555
Mn5 Sn0 2.861100 1_655
Mn6 Sn6 2.711318 1_555
Mn6 Sn1 2.732118 1_545
Mn6 Sn14 2.790656 1_545
Mn6 Sn7 2.806556 1_555
Mn6 Sn13 2.862862 1_555
Mn6 Sn13 2.871291 1_655
Mn7 Sn12 2.743126 1_555
Mn7 Sn1 2.756096 1_455
Mn7 Sn7 2.768619 1_455
Mn7 Sn4 2.783961 1_555
Mn7 Sn9 2.840343 1_555
Mn7 Sn17 2.859535 1_556
Mn8 Sn3 2.743784 1_565
Mn8 Sn14 2.744251 1_555
Mn8 Sn8 2.785491 1_555
Mn8 Sn6 2.796643 1_565
Mn8 Sn15 2.866244 1_555
Mn8 Sn13 2.869907 1_565
Mn9 Sn10 2.757620 1_555
Mn9 Sn12 2.761233 1_544
Mn9 Sn16 2.783026 1_555
Mn9 Sn4 2.785450 1_554
Mn9 Sn0 2.862409 1_555
Mn9 Sn0 2.863977 1_655
Mn10 Sn14 2.739089 1_555
Mn10 Sn3 2.750424 1_665
Mn10 Sn8 2.790333 1_655
Mn10 Sn6 2.795890 1_565
Mn10 Sn13 2.860658 1_665
Mn10 Sn15 2.861554 1_555
Mn11 Sn3 2.737781 1_555
Mn11 Sn14 2.744841 1_455
Mn11 Sn8 2.794205 1_555
Mn11 Sn6 2.800939 1_455
Mn11 Sn11 2.866330 1_455
Mn11 Sn9 2.873671 1_555
Mn12 Sn10 2.745380 1_565
Mn12 Sn2 2.756655 1_665
Mn12 Sn5 2.763718 1_655
Mn12 Sn16 2.786556 1_555
Mn12 Sn15 2.844130 1_555
Mn12 Sn17 2.863002 1_655
Mn13 Sn6 2.721756 1_555
Mn13 Sn1 2.736323 1_555
Mn13 Sn14 2.783731 1_555
Mn13 Sn7 2.797016 1_555
Mn13 Sn9 2.858903 1_555
Mn13 Sn9 2.864323 1_655
Mn14 Sn10 2.746848 1_555
Mn14 Sn2 2.752664 1_555
Mn14 Sn5 2.761270 1_555
Mn14 Sn16 2.782737 1_555
Mn14 Sn11 2.835114 1_555
Mn14 Sn0 2.855690 1_555
Mn15 Sn8 2.720626 1_555
Mn15 Sn2 2.735658 1_565
Mn15 Sn3 2.788512 1_565
Mn15 Sn5 2.799086 1_555
Mn15 Sn15 2.860788 1_455
Mn15 Sn15 2.864979 1_555
Mn16 Sn12 2.749093 1_545
Mn16 Sn7 2.756333 1_555
Mn16 Sn1 2.758317 1_545
Mn16 Sn4 2.785225 1_555
Mn16 Sn13 2.845771 1_555
Mn16 Sn0 2.872982 1_656
Mn17 Sn3 2.739924 1_555
Mn17 Sn14 2.740478 1_555
Mn17 Sn6 2.793425 1_555
Mn17 Sn8 2.798341 1_555
Mn17 Sn9 2.867396 1_555
Mn17 Sn11 2.871438 1_555
Sn0 Sn17 2.985018 1_555
Sn11 Sn15 2.975273 1_555
Sn13 Sn9 2.969164 1_555
