# generated using pymatgen
data_Bi2O3
_symmetry_space_group_name_H-M   'P 1'
_cell_length_a   7.91620900
_cell_length_b   7.91620900
_cell_length_c   5.59223700
_cell_angle_alpha   90.00000000
_cell_angle_beta   90.00000000
_cell_angle_gamma   90.00000000
_symmetry_Int_Tables_number   1
_chemical_formula_structural   Bi2O3
_chemical_formula_sum   'Bi8 O12'
_cell_volume   350.44516463
_cell_formula_units_Z   4
loop_
 _symmetry_equiv_pos_site_id
 _symmetry_equiv_pos_as_xyz
  1  'x, y, z'
loop_
 _atom_site_type_symbol
 _atom_site_label
 _atom_site_symmetry_multiplicity
 _atom_site_fract_x
 _atom_site_fract_y
 _atom_site_fract_z
 _atom_site_occupancy
  Bi  Bi0  1  0.24933300  0.49258900  0.24900100  1
  Bi  Bi1  1  0.50741100  0.24933300  0.75099900  1
  Bi  Bi2  1  0.75066700  0.50741100  0.24900100  1
  Bi  Bi3  1  0.74933300  0.00741100  0.24900100  1
  Bi  Bi4  1  0.25066700  0.99258900  0.24900100  1
  Bi  Bi5  1  0.00741100  0.25066700  0.75099900  1
  Bi  Bi6  1  0.99258900  0.74933300  0.75099900  1
  Bi  Bi7  1  0.49258900  0.75066700  0.75099900  1
  O  O0  1  0.25146600  0.75146600  0.00000000  1
  O  O1  1  0.24471600  0.25528400  0.50000000  1
  O  O2  1  0.74853400  0.24853400  0.00000000  1
  O  O3  1  0.50000000  0.00000000  0.00000000  1
  O  O4  1  0.75528400  0.74471600  0.50000000  1
  O  O5  1  0.24853400  0.25146600  0.00000000  1
  O  O6  1  0.00000000  0.00000000  0.50000000  1
  O  O7  1  0.74471600  0.24471600  0.50000000  1
  O  O8  1  0.25528400  0.75528400  0.50000000  1
  O  O9  1  0.75146600  0.74853400  0.00000000  1
  O  O10  1  0.00000000  0.50000000  0.00000000  1
  O  O11  1  0.50000000  0.50000000  0.50000000  1
loop_
_geom_bond_atom_site_label_1
_geom_bond_atom_site_label_2
_geom_bond_distance
_geom_bond_site_symmetry_2
Bi0 O1 2.345321 1_555
Bi0 O5 2.362723 1_555
Bi0 O10 2.416236 1_555
Bi0 O11 2.431304 1_555
Bi0 O0 2.477700 1_555
Bi0 O8 2.509375 1_555
Bi1 O7 2.345321 1_555
Bi1 O2 2.362723 1_556
Bi1 O3 2.416236 1_556
Bi1 O11 2.431304 1_555
Bi1 O5 2.477700 1_556
Bi1 O1 2.509375 1_555
Bi2 O4 2.345321 1_555
Bi2 O9 2.362723 1_555
Bi2 O10 2.416236 1_655
Bi2 O11 2.431304 1_555
Bi2 O2 2.477700 1_555
Bi2 O7 2.509375 1_555
Bi3 O7 2.345321 1_555
Bi3 O2 2.362723 1_555
Bi3 O3 2.416236 1_555
Bi3 O6 2.431304 1_655
Bi3 O9 2.477700 1_545
Bi3 O4 2.509375 1_545
Bi4 O8 2.345321 1_555
Bi4 O0 2.362723 1_555
Bi4 O3 2.416236 1_565
Bi4 O6 2.431304 1_565
Bi4 O5 2.477700 1_565
Bi4 O1 2.509375 1_565
Bi5 O1 2.345321 1_555
Bi5 O5 2.362723 1_556
Bi5 O10 2.416236 1_556
Bi5 O6 2.431304 1_555
Bi5 O2 2.477700 1_456
Bi5 O7 2.509375 1_455
Bi6 O4 2.345321 1_555
Bi6 O9 2.362723 1_556
Bi6 O10 2.416236 1_656
Bi6 O6 2.431304 1_665
Bi6 O0 2.477700 1_656
Bi6 O8 2.509375 1_655
Bi7 O8 2.345321 1_555
Bi7 O0 2.362723 1_556
Bi7 O3 2.416236 1_566
Bi7 O11 2.431304 1_555
Bi7 O9 2.477700 1_556
Bi7 O4 2.509375 1_555
