# generated using pymatgen
data_Fe3H4(S2O9)2
_symmetry_space_group_name_H-M   'P 1'
_cell_length_a   14.55877600
_cell_length_b   5.19202200
_cell_length_c   9.77382166
_cell_angle_alpha   60.79625469
_cell_angle_beta   90.00000000
_cell_angle_gamma   90.00000000
_symmetry_Int_Tables_number   1
_chemical_formula_structural   Fe3H4(S2O9)2
_chemical_formula_sum   'Fe6 H8 S8 O36'
_cell_volume   644.88965279
_cell_formula_units_Z   2
loop_
 _symmetry_equiv_pos_site_id
 _symmetry_equiv_pos_as_xyz
  1  'x, y, z'
loop_
 _atom_site_type_symbol
 _atom_site_label
 _atom_site_symmetry_multiplicity
 _atom_site_fract_x
 _atom_site_fract_y
 _atom_site_fract_z
 _atom_site_occupancy
  Fe  Fe0  1  0.00000000  0.00000000  0.00000000  1
  Fe  Fe1  1  0.50000000  0.00000000  0.50000000  1
  Fe  Fe2  1  0.84699900  0.27746500  0.47389400  1
  Fe  Fe3  1  0.65300100  0.27746500  0.97389400  1
  Fe  Fe4  1  0.15300100  0.72253500  0.52610600  1
  Fe  Fe5  1  0.34699900  0.72253500  0.02610600  1
  H  H0  1  0.82699800  0.87144400  0.95321600  1
  H  H1  1  0.67300200  0.87144400  0.45321600  1
  H  H2  1  0.17300200  0.12855600  0.04678400  1
  H  H3  1  0.32699800  0.12855600  0.54678400  1
  H  H4  1  0.89191200  0.64159300  0.93766100  1
  H  H5  1  0.60808800  0.64159300  0.43766100  1
  H  H6  1  0.10808800  0.35840700  0.06233900  1
  H  H7  1  0.39191200  0.35840700  0.56233900  1
  S  S0  1  0.06719400  0.40396000  0.32210400  1
  S  S1  1  0.43280600  0.40396000  0.82210400  1
  S  S2  1  0.93280600  0.59604000  0.67789600  1
  S  S3  1  0.56719400  0.59604000  0.17789600  1
  S  S4  1  0.82920300  0.98787500  0.23020400  1
  S  S5  1  0.67079700  0.98787500  0.73020400  1
  S  S6  1  0.17079700  0.01212500  0.76979600  1
  S  S7  1  0.32920300  0.01212500  0.26979600  1
  O  O0  1  0.06257900  0.58390100  0.14917600  1
  O  O1  1  0.43742100  0.58390100  0.64917600  1
  O  O2  1  0.93742100  0.41609900  0.85082400  1
  O  O3  1  0.56257900  0.41609900  0.35082400  1
  O  O4  1  0.97470300  0.37010800  0.39208800  1
  O  O5  1  0.52529700  0.37010800  0.89208800  1
  O  O6  1  0.02529700  0.62989200  0.60791200  1
  O  O7  1  0.47470300  0.62989200  0.10791200  1
  O  O8  1  0.12981600  0.54616200  0.38520400  1
  O  O9  1  0.37018400  0.54616200  0.88520400  1
  O  O10  1  0.87018400  0.45383800  0.61479600  1
  O  O11  1  0.62981600  0.45383800  0.11479600  1
  O  O12  1  0.10514500  0.11339500  0.35653100  1
  O  O13  1  0.39485500  0.11339500  0.85653100  1
  O  O14  1  0.89485500  0.88660500  0.64346900  1
  O  O15  1  0.60514500  0.88660500  0.14346900  1
  O  O16  1  0.79833500  0.67240000  0.30404600  1
  O  O17  1  0.70166500  0.67240000  0.80404600  1
  O  O18  1  0.20166500  0.32760000  0.69595400  1
  O  O19  1  0.29833500  0.32760000  0.19595400  1
  O  O20  1  0.92812000  0.01836600  0.19835200  1
  O  O21  1  0.57188000  0.01836600  0.69835200  1
  O  O22  1  0.07188000  0.98163400  0.80164800  1
  O  O23  1  0.42812000  0.98163400  0.30164800  1
  O  O24  1  0.80275500  0.10002700  0.34005200  1
  O  O25  1  0.69724500  0.10002700  0.84005200  1
  O  O26  1  0.19724500  0.89997300  0.65994800  1
  O  O27  1  0.30275500  0.89997300  0.15994800  1
  O  O28  1  0.77835900  0.15855900  0.07915800  1
  O  O29  1  0.72164100  0.15855900  0.57915800  1
  O  O30  1  0.22164100  0.84144100  0.92084200  1
  O  O31  1  0.27835900  0.84144100  0.42084200  1
  O  O32  1  0.88603600  0.76828900  0.98612800  1
  O  O33  1  0.61396400  0.76828900  0.48612800  1
  O  O34  1  0.11396400  0.23171100  0.01387200  1
  O  O35  1  0.38603600  0.23171100  0.51387200  1
loop_
_geom_bond_atom_site_label_1
_geom_bond_atom_site_label_2
_geom_bond_distance
_geom_bond_site_symmetry_2
Fe0 O32 2.092306 1_444
Fe0 O34 2.092306 1_555
Fe0 O0 2.132934 1_545
Fe0 O2 2.132934 1_454
Fe0 O22 2.245665 1_544
Fe0 O20 2.245665 1_455
Fe1 O33 2.092306 1_545
Fe1 O35 2.092306 1_555
Fe1 O1 2.132934 1_545
Fe1 O3 2.132934 1_555
Fe1 O23 2.245665 1_545
Fe1 O21 2.245665 1_555
Fe2 O4 1.987973 1_555
Fe2 O14 2.017053 1_545
Fe2 O10 2.019820 1_555
Fe2 O16 2.034858 1_555
Fe2 O29 2.037317 1_555
Fe2 O24 2.037379 1_555
Fe3 O5 1.987973 1_555
Fe3 O15 2.017053 1_546
Fe3 O11 2.019820 1_556
Fe3 O17 2.034858 1_555
Fe3 O28 2.037317 1_556
Fe3 O25 2.037379 1_555
Fe4 O6 1.987973 1_555
Fe4 O12 2.017053 1_565
Fe4 O8 2.019820 1_555
Fe4 O18 2.034858 1_555
Fe4 O31 2.037317 1_555
Fe4 O26 2.037379 1_555
Fe5 O7 1.987973 1_555
Fe5 O13 2.017053 1_564
Fe5 O9 2.019820 1_554
Fe5 O19 2.034858 1_555
Fe5 O30 2.037317 1_554
Fe5 O27 2.037379 1_555
H0 O32 0.980296 1_555
H1 O33 0.980296 1_555
H2 O34 0.980296 1_555
H3 O35 0.980296 1_555
H4 O32 0.984128 1_555
H5 O33 0.984128 1_555
H6 O34 0.984128 1_555
H7 O35 0.984128 1_555
O0 S0 1.480921 1_555
O1 S1 1.480921 1_555
O2 S2 1.480921 1_555
O3 S3 1.480921 1_555
O4 S0 1.481438 1_655
O5 S1 1.481438 1_555
O6 S2 1.481438 1_455
O7 S3 1.481438 1_555
O8 S0 1.483576 1_555
O9 S1 1.483576 1_555
O10 S2 1.483576 1_555
O11 S3 1.483576 1_555
O12 S0 1.482928 1_555
O13 S1 1.482928 1_555
O14 S2 1.482928 1_555
O15 S3 1.482928 1_555
O16 S4 1.500718 1_555
O17 S5 1.500718 1_555
O18 S6 1.500718 1_555
O19 S7 1.500718 1_555
O20 S4 1.465539 1_545
O21 S5 1.465539 1_545
O22 S6 1.465539 1_565
O23 S7 1.465539 1_565
O24 S4 1.500029 1_545
O25 S5 1.500029 1_545
O26 S6 1.500029 1_565
O27 S7 1.500029 1_565
O28 S4 1.495346 1_545
O29 S5 1.495346 1_545
O30 S6 1.495346 1_565
O31 S7 1.495346 1_565
