# generated using pymatgen
data_Ho2O3
_symmetry_space_group_name_H-M   'P 1'
_cell_length_a   4.79595100
_cell_length_b   4.79595100
_cell_length_c   4.79595100
_cell_angle_alpha   90.00000000
_cell_angle_beta   90.00000000
_cell_angle_gamma   90.00000000
_symmetry_Int_Tables_number   1
_chemical_formula_structural   Ho2O3
_chemical_formula_sum   'Ho4 O6'
_cell_volume   110.31236913
_cell_formula_units_Z   2
loop_
 _symmetry_equiv_pos_site_id
 _symmetry_equiv_pos_as_xyz
  1  'x, y, z'
loop_
 _atom_site_type_symbol
 _atom_site_label
 _atom_site_symmetry_multiplicity
 _atom_site_fract_x
 _atom_site_fract_y
 _atom_site_fract_z
 _atom_site_occupancy
  Ho  Ho0  1  0.75000000  0.75000000  0.25000000  1
  Ho  Ho1  1  0.25000000  0.75000000  0.75000000  1
  Ho  Ho2  1  0.75000000  0.25000000  0.75000000  1
  Ho  Ho3  1  0.25000000  0.25000000  0.25000000  1
  O  O0  1  0.00000000  0.00000000  0.50000000  1
  O  O1  1  0.00000000  0.50000000  0.50000000  1
  O  O2  1  0.50000000  0.00000000  0.00000000  1
  O  O3  1  0.50000000  0.50000000  0.00000000  1
  O  O4  1  0.00000000  0.50000000  0.00000000  1
  O  O5  1  0.50000000  0.00000000  0.50000000  1
loop_
_geom_bond_atom_site_label_1
_geom_bond_atom_site_label_2
_geom_bond_distance
_geom_bond_site_symmetry_2
Ho0 O0 2.076708 1_665
Ho0 O4 2.076708 1_655
Ho0 O1 2.076708 1_655
Ho0 O5 2.076708 1_565
Ho0 O3 2.076708 1_555
Ho0 O2 2.076708 1_565
Ho1 O2 2.076708 1_566
Ho1 O5 2.076708 1_565
Ho1 O3 2.076708 1_556
Ho1 O1 2.076708 1_555
Ho1 O4 2.076708 1_556
Ho1 O0 2.076708 1_565
Ho2 O4 2.076708 1_656
Ho2 O2 2.076708 1_556
Ho2 O5 2.076708 1_555
Ho2 O1 2.076708 1_655
Ho2 O3 2.076708 1_556
Ho2 O0 2.076708 1_655
Ho3 O5 2.076708 1_555
Ho3 O3 2.076708 1_555
Ho3 O2 2.076708 1_555
Ho3 O0 2.076708 1_555
Ho3 O4 2.076708 1_555
Ho3 O1 2.076708 1_555
