# generated using pymatgen
data_FeHO2
_symmetry_space_group_name_H-M   'P 1'
_cell_length_a   7.25271590
_cell_length_b   7.25271590
_cell_length_c   7.25271590
_cell_angle_alpha   92.45818876
_cell_angle_beta   92.45818876
_cell_angle_gamma   156.09510612
_symmetry_Int_Tables_number   1
_chemical_formula_structural   FeHO2
_chemical_formula_sum   'Fe4 H4 O8'
_cell_volume   151.24233524
_cell_formula_units_Z   4
loop_
 _symmetry_equiv_pos_site_id
 _symmetry_equiv_pos_as_xyz
  1  'x, y, z'
loop_
 _atom_site_type_symbol
 _atom_site_label
 _atom_site_symmetry_multiplicity
 _atom_site_fract_x
 _atom_site_fract_y
 _atom_site_fract_z
 _atom_site_occupancy
  Fe  Fe0  1  0.85482500  0.65545200  0.48471800  1
  Fe  Fe1  1  0.17073300  0.37010600  0.51528100  1
  Fe  Fe2  1  0.34454800  0.82926700  0.19937300  1
  Fe  Fe3  1  0.62989400  0.14517500  0.80062700  1
  H  H0  1  0.00129500  0.02170400  0.76681700  1
  H  H1  1  0.25488700  0.23447800  0.23318300  1
  H  H2  1  0.97829600  0.74511300  0.97959200  1
  H  H3  1  0.76552200  0.99870500  0.02040800  1
  O  O0  1  0.82903500  0.87369300  0.63856900  1
  O  O1  1  0.23512300  0.19046600  0.36143100  1
  O  O2  1  0.12630700  0.76487700  0.95534200  1
  O  O3  1  0.80953400  0.17096500  0.04465800  1
  O  O4  1  0.82737500  0.45166300  0.29154200  1
  O  O5  1  0.16012000  0.53583300  0.70845800  1
  O  O6  1  0.54833700  0.83988000  0.37571300  1
  O  O7  1  0.46416700  0.17262500  0.62428700  1
loop_
_geom_bond_atom_site_label_1
_geom_bond_atom_site_label_2
_geom_bond_distance
_geom_bond_site_symmetry_2
Fe0 O4 1.856756 1_555
Fe0 O7 1.898947 1_665
Fe0 O7 1.929716 1_555
Fe0 O1 2.013871 1_555
Fe0 O0 2.047731 1_555
Fe0 O1 2.098573 1_665
Fe1 O5 1.856766 1_555
Fe1 O6 1.898945 1_555
Fe1 O6 1.929715 1_445
Fe1 O0 2.013868 1_445
Fe1 O1 2.047721 1_555
Fe1 O0 2.098575 1_555
Fe2 O6 1.856761 1_555
Fe2 O4 1.898947 1_455
Fe2 O4 1.929716 1_565
Fe2 O3 2.013868 1_565
Fe2 O2 2.047731 1_554
Fe2 O3 2.098575 1_455
Fe3 O7 1.856766 1_555
Fe3 O5 1.898944 1_545
Fe3 O5 1.929711 1_655
Fe3 O2 2.013872 1_655
Fe3 O3 2.047727 1_556
Fe3 O2 2.098577 1_545
H0 O0 0.969978 1_445
H1 O1 0.969977 1_555
H2 O2 0.969974 1_655
H3 O3 0.969979 1_565
