# generated using pymatgen
data_Co2TeBr2O3
_symmetry_space_group_name_H-M   'P 1'
_cell_length_a   7.83619200
_cell_length_b   10.67811500
_cell_length_c   16.26008300
_cell_angle_alpha   90.00000000
_cell_angle_beta   90.00000000
_cell_angle_gamma   90.00000000
_symmetry_Int_Tables_number   1
_chemical_formula_structural   Co2TeBr2O3
_chemical_formula_sum   'Co16 Te8 Br16 O24'
_cell_volume   1360.57479193
_cell_formula_units_Z   8
loop_
 _symmetry_equiv_pos_site_id
 _symmetry_equiv_pos_as_xyz
  1  'x, y, z'
loop_
 _atom_site_type_symbol
 _atom_site_label
 _atom_site_symmetry_multiplicity
 _atom_site_fract_x
 _atom_site_fract_y
 _atom_site_fract_z
 _atom_site_occupancy
  Co  Co0  1  0.89420700  0.77116000  0.53676300  1
  Co  Co1  1  0.39420700  0.77116000  0.96323700  1
  Co  Co2  1  0.10579300  0.22884000  0.46323700  1
  Co  Co3  1  0.60579300  0.22884000  0.03676300  1
  Co  Co4  1  0.34514800  0.00709800  0.39884500  1
  Co  Co5  1  0.10579300  0.27116000  0.03676300  1
  Co  Co6  1  0.84514800  0.49290200  0.39884500  1
  Co  Co7  1  0.15485200  0.50709800  0.60115500  1
  Co  Co8  1  0.60579300  0.27116000  0.46323700  1
  Co  Co9  1  0.65485200  0.99290200  0.60115500  1
  Co  Co10  1  0.65485200  0.50709800  0.89884500  1
  Co  Co11  1  0.84514800  0.00709800  0.10115500  1
  Co  Co12  1  0.39420700  0.72884000  0.53676300  1
  Co  Co13  1  0.15485200  0.99290200  0.89884500  1
  Co  Co14  1  0.89420700  0.72884000  0.96323700  1
  Co  Co15  1  0.34514800  0.49290200  0.10115500  1
  Te  Te0  1  0.71116900  0.52665600  0.59804400  1
  Te  Te1  1  0.28883100  0.02665600  0.09804400  1
  Te  Te2  1  0.21116900  0.97334400  0.59804400  1
  Te  Te3  1  0.71116900  0.97334400  0.90195600  1
  Te  Te4  1  0.78883100  0.02665600  0.40195600  1
  Te  Te5  1  0.78883100  0.47334400  0.09804400  1
  Te  Te6  1  0.21116900  0.52665600  0.90195600  1
  Te  Te7  1  0.28883100  0.47334400  0.40195600  1
  Br  Br0  1  0.05812600  0.20867600  0.88294500  1
  Br  Br1  1  0.15715700  0.41085000  0.20516000  1
  Br  Br2  1  0.34284300  0.58915000  0.70516000  1
  Br  Br3  1  0.84284300  0.58915000  0.79484000  1
  Br  Br4  1  0.05812600  0.29132400  0.61705500  1
  Br  Br5  1  0.44187400  0.70867600  0.11705500  1
  Br  Br6  1  0.44187400  0.79132400  0.38294500  1
  Br  Br7  1  0.94187400  0.79132400  0.11705500  1
  Br  Br8  1  0.84284300  0.91085000  0.70516000  1
  Br  Br9  1  0.65715700  0.41085000  0.29484000  1
  Br  Br10  1  0.15715700  0.08915000  0.29484000  1
  Br  Br11  1  0.65715700  0.08915000  0.20516000  1
  Br  Br12  1  0.55812600  0.29132400  0.88294500  1
  Br  Br13  1  0.94187400  0.70867600  0.38294500  1
  Br  Br14  1  0.34284300  0.91085000  0.79484000  1
  Br  Br15  1  0.55812600  0.20867600  0.61705500  1
  O  O0  1  0.56308000  0.41090400  0.08173000  1
  O  O1  1  0.69339600  0.44504000  0.49185700  1
  O  O2  1  0.56308000  0.08909600  0.41827000  1
  O  O3  1  0.35661500  0.18808100  0.06039300  1
  O  O4  1  0.85661500  0.31191900  0.06039300  1
  O  O5  1  0.19339600  0.44504000  0.00814300  1
  O  O6  1  0.69339600  0.05496000  0.00814300  1
  O  O7  1  0.06308000  0.08909600  0.08173000  1
  O  O8  1  0.80660400  0.55496000  0.99185700  1
  O  O9  1  0.64338500  0.81191900  0.93960700  1
  O  O10  1  0.19339600  0.05496000  0.49185700  1
  O  O11  1  0.43692000  0.58909600  0.91827000  1
  O  O12  1  0.30660400  0.55496000  0.50814300  1
  O  O13  1  0.14338500  0.81191900  0.56039300  1
  O  O14  1  0.64338500  0.68808100  0.56039300  1
  O  O15  1  0.80660400  0.94504000  0.50814300  1
  O  O16  1  0.14338500  0.68808100  0.93960700  1
  O  O17  1  0.85661500  0.18808100  0.43960700  1
  O  O18  1  0.06308000  0.41090400  0.41827000  1
  O  O19  1  0.35661500  0.31191900  0.43960700  1
  O  O20  1  0.43692000  0.91090400  0.58173000  1
  O  O21  1  0.93692000  0.91090400  0.91827000  1
  O  O22  1  0.30660400  0.94504000  0.99185700  1
  O  O23  1  0.93692000  0.58909600  0.58173000  1
loop_
_geom_bond_atom_site_label_1
_geom_bond_atom_site_label_2
_geom_bond_distance
_geom_bond_site_symmetry_2
Co0 O15 2.033515 1_555
Co0 O13 2.037088 1_655
Co0 O23 2.103844 1_555
Co0 O14 2.190382 1_555
Co1 O22 2.033515 1_555
Co1 O9 2.037088 1_555
Co1 O11 2.103844 1_555
Co1 O16 2.190382 1_555
Co2 O10 2.033515 1_555
Co2 O17 2.037088 1_455
Co2 O18 2.103844 1_555
Co2 O19 2.190382 1_555
Co3 O6 2.033515 1_555
Co3 O3 2.037088 1_555
Co3 O0 2.103844 1_555
Co3 O4 2.190382 1_555
Co4 O2 1.944953 1_555
Co4 O10 1.990627 1_555
Co5 O5 2.033515 1_555
Co5 O4 2.037088 1_455
Co5 O7 2.103844 1_555
Co5 O3 2.190382 1_555
Co6 O18 1.944953 1_655
Co6 O1 1.990627 1_555
Co7 O23 1.944953 1_455
Co7 O12 1.990627 1_555
Co8 O1 2.033515 1_555
Co8 O19 2.037088 1_555
Co8 O2 2.103844 1_555
Co8 O17 2.190382 1_555
Co9 O20 1.944953 1_555
Co9 O15 1.990627 1_555
Co10 O11 1.944953 1_555
Co10 O8 1.990627 1_555
Co11 O7 1.944953 1_655
Co11 O6 1.990627 1_555
Co12 O12 2.033515 1_555
Co12 O14 2.037088 1_555
Co12 O20 2.103844 1_555
Co12 O13 2.190382 1_555
Co13 O21 1.944953 1_455
Co13 O22 1.990627 1_555
Co14 O8 2.033515 1_555
Co14 O16 2.037088 1_655
Co14 O21 2.103844 1_555
Co14 O9 2.190382 1_555
Co15 O0 1.944953 1_555
Co15 O5 1.990627 1_555
Br0 Co13 2.439270 1_545
Br0 Co5 2.615370 1_556
Br1 Co15 2.407841 1_555
Br2 Co7 2.407841 1_555
Br3 Co10 2.407841 1_555
Br4 Co7 2.439270 1_555
Br4 Co2 2.615370 1_555
Br5 Co15 2.439270 1_555
Br5 Co1 2.615370 1_554
Br6 Co4 2.439270 1_565
Br6 Co12 2.615370 1_555
Br7 Co11 2.439270 1_565
Br7 Co14 2.615370 1_554
Br8 Co9 2.407841 1_555
Br9 Co6 2.407841 1_555
Br10 Co4 2.407841 1_555
Br11 Co11 2.407841 1_555
Br12 Co10 2.439270 1_555
Br12 Co3 2.615370 1_556
Br13 Co6 2.439270 1_555
Br13 Co0 2.615370 1_555
Br14 Co13 2.407841 1_555
Br15 Co9 2.439270 1_545
Br15 Co8 2.615370 1_555
O0 Te5 1.909024 1_555
O1 Te0 1.939097 1_555
O2 Te4 1.909024 1_555
O3 Te1 1.904765 1_555
O4 Te5 1.904765 1_555
O5 Te6 1.939097 1_554
O6 Te3 1.939097 1_544
O7 Te1 1.909024 1_555
O8 Te5 1.939097 1_556
O9 Te3 1.904765 1_555
O10 Te2 1.939097 1_545
O11 Te6 1.909024 1_555
O12 Te7 1.939097 1_555
O13 Te2 1.904765 1_555
O14 Te0 1.904765 1_555
O15 Te4 1.939097 1_565
O16 Te6 1.904765 1_555
O17 Te4 1.904765 1_555
O18 Te7 1.909024 1_555
O19 Te7 1.904765 1_555
O20 Te2 1.909024 1_555
O21 Te3 1.909024 1_555
O22 Te1 1.939097 1_566
O23 Te0 1.909024 1_555
