# generated using pymatgen
data_K2ZnH4
_symmetry_space_group_name_H-M   'P 1'
_cell_length_a   5.78022727
_cell_length_b   7.72728798
_cell_length_c   10.18788112
_cell_angle_alpha   90.00000000
_cell_angle_beta   90.00000000
_cell_angle_gamma   90.00000000
_symmetry_Int_Tables_number   1
_chemical_formula_structural   K2ZnH4
_chemical_formula_sum   'K8 Zn4 H16'
_cell_volume   455.04660759
_cell_formula_units_Z   4
loop_
 _symmetry_equiv_pos_site_id
 _symmetry_equiv_pos_as_xyz
  1  'x, y, z'
loop_
 _atom_site_type_symbol
 _atom_site_label
 _atom_site_symmetry_multiplicity
 _atom_site_fract_x
 _atom_site_fract_y
 _atom_site_fract_z
 _atom_site_occupancy
  K  K0  1  0.25000000  0.15931074  0.59156507  1
  K  K1  1  0.25000000  0.65931074  0.90843493  1
  K  K2  1  0.75000000  0.84068926  0.40843493  1
  K  K3  1  0.75000000  0.34068926  0.09156507  1
  K  K4  1  0.25000000  0.48637262  0.31266899  1
  K  K5  1  0.25000000  0.98637262  0.18733101  1
  K  K6  1  0.75000000  0.51362738  0.68733101  1
  K  K7  1  0.75000000  0.01362738  0.81266899  1
  Zn  Zn0  1  0.25000000  0.23564950  0.91821345  1
  Zn  Zn1  1  0.25000000  0.73564950  0.58178655  1
  Zn  Zn2  1  0.75000000  0.76435050  0.08178655  1
  Zn  Zn3  1  0.75000000  0.26435050  0.41821345  1
  H  H0  1  0.01796245  0.31250375  0.84569719  1
  H  H1  1  0.48203755  0.81250375  0.65430281  1
  H  H2  1  0.51796245  0.68749625  0.15430281  1
  H  H3  1  0.98203755  0.18749625  0.34569719  1
  H  H4  1  0.98203755  0.68749625  0.15430281  1
  H  H5  1  0.51796245  0.18749625  0.34569719  1
  H  H6  1  0.48203755  0.31250375  0.84569719  1
  H  H7  1  0.01796245  0.81250375  0.65430281  1
  H  H8  1  0.25000000  0.02417287  0.91230806  1
  H  H9  1  0.25000000  0.52417287  0.58769194  1
  H  H10  1  0.75000000  0.97582713  0.08769194  1
  H  H11  1  0.75000000  0.47582713  0.41230806  1
  H  H12  1  0.25000000  0.80772847  0.42905895  1
  H  H13  1  0.25000000  0.30772847  0.07094105  1
  H  H14  1  0.75000000  0.19227153  0.57094105  1
  H  H15  1  0.75000000  0.69227153  0.92905895  1
loop_
_geom_bond_atom_site_label_1
_geom_bond_atom_site_label_2
_geom_bond_distance
_geom_bond_site_symmetry_2
H0 Zn0 1.642374 1_555
H0 K6 2.723509 1_455
H0 K7 2.801084 1_455
H0 K3 2.953111 1_456
H1 Zn1 1.642374 1_555
H1 K7 2.723509 1_565
H1 K6 2.801084 1_555
H1 K2 2.953111 1_555
H2 Zn2 1.642374 1_555
H2 K4 2.723509 1_555
H2 K5 2.801084 1_555
H2 K1 2.953111 1_554
H3 Zn3 1.642374 1_555
H3 K5 2.723509 1_645
H3 K4 2.801084 1_655
H3 K0 2.953111 1_655
H4 Zn2 1.642374 1_555
H4 K4 2.723509 1_655
H4 K5 2.801084 1_655
H4 K1 2.953111 1_654
H5 Zn3 1.642374 1_555
H5 K5 2.723509 1_545
H5 K4 2.801084 1_555
H5 K0 2.953111 1_555
H6 Zn0 1.642374 1_555
H6 K6 2.723509 1_555
H6 K7 2.801084 1_555
H6 K3 2.953111 1_556
H7 Zn1 1.642374 1_555
H7 K7 2.723509 1_465
H7 K6 2.801084 1_455
H7 K2 2.953111 1_455
H8 Zn0 1.635248 1_555
H8 K5 2.817085 1_546
H8 K1 2.819671 1_545
H9 Zn1 1.635248 1_555
H9 K4 2.817085 1_555
H9 K0 2.819671 1_555
H10 Zn2 1.635248 1_555
H10 K7 2.817085 1_564
H10 K3 2.819671 1_565
H11 Zn3 1.635248 1_555
H11 K6 2.817085 1_555
H11 K2 2.819671 1_555
H12 Zn1 1.652654 1_555
H12 K4 2.751794 1_555
H12 K5 2.823202 1_555
H12 K2 2.908913 1_455
H12 K2 2.908913 1_555
H13 Zn0 1.652654 1_554
H13 K5 2.751794 1_545
H13 K4 2.823202 1_555
H13 K3 2.908913 1_455
H13 K3 2.908913 1_555
H14 Zn3 1.652654 1_555
H14 K6 2.751794 1_555
H14 K7 2.823202 1_555
H14 K0 2.908913 1_555
H14 K0 2.908913 1_655
H15 Zn2 1.652654 1_556
H15 K7 2.751794 1_565
H15 K6 2.823202 1_555
H15 K1 2.908913 1_555
H15 K1 2.908913 1_655
