# generated using pymatgen
data_Sr2LaF7
_symmetry_space_group_name_H-M   'P 1'
_cell_length_a   4.15040025
_cell_length_b   4.15040025
_cell_length_c   21.09164095
_cell_angle_alpha   88.79724024
_cell_angle_beta   88.79724024
_cell_angle_gamma   59.29863729
_symmetry_Int_Tables_number   1
_chemical_formula_structural   Sr2LaF7
_chemical_formula_sum   'Sr4 La2 F14'
_cell_volume   312.30671828
_cell_formula_units_Z   2
loop_
 _symmetry_equiv_pos_site_id
 _symmetry_equiv_pos_as_xyz
  1  'x, y, z'
loop_
 _atom_site_type_symbol
 _atom_site_label
 _atom_site_symmetry_multiplicity
 _atom_site_fract_x
 _atom_site_fract_y
 _atom_site_fract_z
 _atom_site_occupancy
  Sr  Sr0  1  0.02155100  0.02155100  0.00508600  1
  Sr  Sr1  1  0.35253000  0.35253000  0.17089100  1
  Sr  Sr2  1  0.66915100  0.66915100  0.33334300  1
  Sr  Sr3  1  0.99880600  0.99880600  0.49717000  1
  La  La0  1  0.33772000  0.33772000  0.67061200  1
  La  La1  1  0.67174400  0.67174400  0.84381200  1
  F  F0  1  0.68172900  0.68172900  0.21476100  1
  F  F1  1  0.71540700  0.71540700  0.06345800  1
  F  F2  1  0.99936900  0.99936900  0.37521800  1
  F  F3  1  0.02798900  0.02798900  0.13026900  1
  F  F4  1  0.33213600  0.33213600  0.54463600  1
  F  F5  1  0.33964900  0.33964900  0.29255800  1
  F  F6  1  0.66777500  0.66777500  0.68183300  1
  F  F7  1  0.66796100  0.66796100  0.45685000  1
  F  F8  1  0.99535100  0.99535100  0.73190900  1
  F  F9  1  0.99869200  0.99869200  0.86213900  1
  F  F10  1  0.99947000  0.99947000  0.61320900  1
  F  F11  1  0.32076400  0.32076400  0.91104400  1
  F  F12  1  0.32919500  0.32919500  0.78846700  1
  F  F13  1  0.64767600  0.64767600  0.95356700  1
loop_
_geom_bond_atom_site_label_1
_geom_bond_atom_site_label_2
_geom_bond_distance
_geom_bond_site_symmetry_2
F0 Sr2 2.500543 1_555
F0 Sr1 2.556319 1_655
F0 Sr1 2.556319 1_565
F0 Sr1 2.569463 1_555
F1 Sr0 2.502388 1_665
F1 Sr0 2.787495 1_565
F1 Sr0 2.787495 1_655
F2 Sr2 2.538390 1_565
F2 Sr2 2.538390 1_655
F2 Sr2 2.560566 1_555
F2 Sr3 2.572073 1_555
F3 Sr1 2.512436 1_555
F3 Sr1 2.549374 1_545
F3 Sr1 2.549374 1_455
F3 Sr0 2.641845 1_555
F4 Sr3 2.570069 1_545
F4 Sr3 2.570069 1_455
F4 Sr3 2.626942 1_445
F4 La0 2.658319 1_555
F5 Sr2 2.533213 1_455
F5 Sr2 2.533213 1_545
F5 Sr2 2.547346 1_555
F5 Sr1 2.565595 1_555
F6 La0 2.398422 1_555
F6 La0 2.400103 1_565
F6 La0 2.400103 1_655
F7 Sr3 2.525398 1_455
F7 Sr3 2.525398 1_545
F7 Sr3 2.552963 1_555
F7 Sr2 2.604772 1_555
F8 La0 2.692780 1_565
F8 La0 2.692780 1_655
F8 La0 2.759952 1_665
F9 La1 2.399255 1_555
F9 La1 2.429005 1_655
F9 La1 2.429005 1_565
F9 Sr0 3.023467 1_666
F10 Sr3 2.447573 1_555
F10 La0 2.640955 1_565
F10 La0 2.640955 1_655
F10 La0 2.750050 1_665
F11 La1 2.730497 1_455
F11 La1 2.730497 1_545
F11 La1 2.871968 1_555
F11 Sr0 2.895969 1_556
F12 La0 2.485031 1_555
F12 La1 2.608487 1_455
F12 La1 2.608487 1_545
F12 La1 2.758351 1_555
F13 La1 2.317230 1_555
F13 Sr0 2.485218 1_566
F13 Sr0 2.485218 1_656
F13 Sr0 2.932029 1_666
