# generated using pymatgen
data_Li17(WO3)19
_symmetry_space_group_name_H-M   'P 1'
_cell_length_a   8.83266500
_cell_length_b   8.84346579
_cell_length_c   16.75352546
_cell_angle_alpha   78.00532652
_cell_angle_beta   83.98269681
_cell_angle_gamma   66.51834435
_symmetry_Int_Tables_number   1
_chemical_formula_structural   Li17(WO3)19
_chemical_formula_sum   'Li17 W19 O57'
_cell_volume   1173.70996988
_cell_formula_units_Z   1
loop_
 _symmetry_equiv_pos_site_id
 _symmetry_equiv_pos_as_xyz
  1  'x, y, z'
loop_
 _atom_site_type_symbol
 _atom_site_label
 _atom_site_symmetry_multiplicity
 _atom_site_fract_x
 _atom_site_fract_y
 _atom_site_fract_z
 _atom_site_occupancy
  Li  Li0  1  0.34050700  0.73908600  0.81486300  1
  Li  Li1  1  0.81826800  0.52547800  0.86842800  1
  Li  Li2  1  0.28787700  0.31373100  0.92128600  1
  Li  Li3  1  0.76408900  0.10256600  0.97478600  1
  Li  Li4  1  0.23591100  0.89743400  0.02521400  1
  Li  Li5  1  0.71212300  0.68626900  0.07871400  1
  Li  Li6  1  0.18173200  0.47452200  0.13157200  1
  Li  Li7  1  0.65949300  0.26091400  0.18513700  1
  Li  Li8  1  0.60714900  0.84036000  0.29045400  1
  Li  Li9  1  0.07792100  0.63139600  0.34259000  1
  Li  Li10  1  0.55468100  0.42100600  0.39475800  1
  Li  Li11  1  0.02592700  0.20796200  0.44862800  1
  Li  Li12  1  0.50000000  0.00000000  0.50000000  1
  Li  Li13  1  0.97407300  0.79203800  0.55137200  1
  Li  Li14  1  0.44531900  0.57899400  0.60524200  1
  Li  Li15  1  0.92207900  0.36860400  0.65741000  1
  Li  Li16  1  0.39285100  0.15964000  0.70954600  1
  W  W0  1  0.60613700  0.33966400  0.78897400  1
  W  W1  1  0.07993800  0.13165600  0.84147300  1
  W  W2  1  0.55521300  0.91792300  0.89444500  1
  W  W3  1  0.02468900  0.71268400  0.94671400  1
  W  W4  1  0.50000000  0.50000000  0.00000000  1
  W  W5  1  0.97531100  0.28731600  0.05328600  1
  W  W6  1  0.44478700  0.08207700  0.10555500  1
  W  W7  1  0.92006200  0.86834400  0.15852700  1
  W  W8  1  0.39386300  0.66033600  0.21102600  1
  W  W9  1  0.87081000  0.44536300  0.26228500  1
  W  W10  1  0.34185500  0.23552300  0.31529700  1
  W  W11  1  0.81804100  0.02593400  0.36732100  1
  W  W12  1  0.28770200  0.81719500  0.42064900  1
  W  W13  1  0.76426900  0.60505000  0.47362500  1
  W  W14  1  0.23573100  0.39495000  0.52637500  1
  W  W15  1  0.71229800  0.18280500  0.57935100  1
  W  W16  1  0.18195900  0.97406600  0.63267900  1
  W  W17  1  0.65814500  0.76447700  0.68470300  1
  W  W18  1  0.12919000  0.55463700  0.73771500  1
  O  O0  1  0.59730900  0.84601200  0.79156700  1
  O  O1  1  0.08086700  0.62187700  0.84285900  1
  O  O2  1  0.10350100  0.34171600  0.78772500  1
  O  O3  1  0.37240600  0.44541900  0.76191100  1
  O  O4  1  0.55452700  0.41909100  0.89143100  1
  O  O5  1  0.57437500  0.14006500  0.84220800  1
  O  O6  1  0.83984200  0.24087300  0.81435900  1
  O  O7  1  0.05921600  0.91267200  0.89791200  1
  O  O8  1  0.02590100  0.21176600  0.94561200  1
  O  O9  1  0.31110600  0.02877400  0.87143300  1
  O  O10  1  0.50000000  0.00000000  0.00000000  1
  O  O11  1  0.52439300  0.71205300  0.94932200  1
  O  O12  1  0.78792400  0.81079400  0.92550300  1
  O  O13  1  0.97409900  0.78823400  0.05438800  1
  O  O14  1  0.00000000  0.50000000  0.00000000  1
  O  O15  1  0.26797800  0.59853800  0.97465300  1
  O  O16  1  0.47560700  0.28794700  0.05067800  1
  O  O17  1  0.44547300  0.58090900  0.10856900  1
  O  O18  1  0.73202200  0.40146200  0.02534700  1
  O  O19  1  0.91913300  0.37812300  0.15714100  1
  O  O20  1  0.94078400  0.08732800  0.10208800  1
  O  O21  1  0.21207600  0.18920600  0.07449700  1
  O  O22  1  0.40269100  0.15398800  0.20843300  1
  O  O23  1  0.42562500  0.85993500  0.15779200  1
  O  O24  1  0.68889400  0.97122600  0.12856700  1
  O  O25  1  0.89649900  0.65828400  0.21227500  1
  O  O26  1  0.85649600  0.94720400  0.26562300  1
  O  O27  1  0.16015800  0.75912700  0.18564100  1
  O  O28  1  0.36736500  0.45258000  0.26087100  1
  O  O29  1  0.34528700  0.73094600  0.31365500  1
  O  O30  1  0.62759400  0.55458100  0.23808900  1
  O  O31  1  0.83155200  0.24246500  0.31646400  1
  O  O32  1  0.81598200  0.52211500  0.36638200  1
  O  O33  1  0.11347300  0.34303000  0.28941800  1
  O  O34  1  0.31769300  0.02122000  0.37169900  1
  O  O35  1  0.29247700  0.31914700  0.42173500  1
  O  O36  1  0.57205200  0.13427900  0.33936600  1
  O  O37  1  0.78692400  0.81015300  0.42223200  1
  O  O38  1  0.75884800  0.10378100  0.47107800  1
  O  O39  1  0.04826700  0.91868600  0.39892700  1
  O  O40  1  0.26497900  0.60930400  0.47151600  1
  O  O41  1  0.24115200  0.89621900  0.52892200  1
  O  O42  1  0.52694500  0.70577100  0.44711500  1
  O  O43  1  0.73502100  0.39069600  0.52848400  1
  O  O44  1  0.70752300  0.68085300  0.57826500  1
  O  O45  1  0.00000000  0.50000000  0.50000000  1
  O  O46  1  0.18401800  0.47788500  0.63361800  1
  O  O47  1  0.21307600  0.18984700  0.57776800  1
  O  O48  1  0.47305500  0.29422900  0.55288500  1
  O  O49  1  0.65471300  0.26905400  0.68634500  1
  O  O50  1  0.68230700  0.97878000  0.62830100  1
  O  O51  1  0.95173300  0.08131400  0.60107300  1
  O  O52  1  0.14350400  0.05279600  0.73437700  1
  O  O53  1  0.16844800  0.75753500  0.68353600  1
  O  O54  1  0.42794800  0.86572100  0.66063400  1
  O  O55  1  0.63263500  0.54742000  0.73912900  1
  O  O56  1  0.88652700  0.65697000  0.71058200  1
loop_
_geom_bond_atom_site_label_1
_geom_bond_atom_site_label_2
_geom_bond_distance
_geom_bond_site_symmetry_2
O0 W2 1.909489 1_555
O0 W17 2.010002 1_555
O1 W18 1.927237 1_555
O1 W3 2.000171 1_555
O2 W1 1.969415 1_555
O2 W18 1.985925 1_555
O3 W0 1.955407 1_555
O3 W18 2.019528 1_555
O4 W0 1.931198 1_555
O4 W4 2.033475 1_556
O5 W0 1.917734 1_555
O5 W2 2.042828 1_545
O6 W0 1.948761 1_555
O6 W1 2.005955 1_655
O7 W3 1.914656 1_555
O7 W1 2.040340 1_565
O8 W1 1.960450 1_555
O8 W5 1.998554 1_456
O9 W1 1.947670 1_555
O9 W2 2.022688 1_545
O10 W2 1.990628 1_544
O10 W6 1.990628 1_555
O11 W2 1.969960 1_555
O11 W4 1.976316 1_556
O12 W3 1.958101 1_655
O12 W2 1.964866 1_555
O13 W7 1.960450 1_555
O13 W3 1.998554 1_654
O14 W5 1.992563 1_455
O14 W3 1.992563 1_554
O15 W4 1.935228 1_556
O15 W3 2.035104 1_555
O16 W6 1.969960 1_555
O16 W4 1.976316 1_555
O17 W8 1.931198 1_555
O17 W4 2.033475 1_555
O18 W4 1.935228 1_555
O18 W5 2.035104 1_555
O19 W9 1.927237 1_555
O19 W5 2.000171 1_555
O20 W5 1.914656 1_555
O20 W7 2.040340 1_545
O21 W5 1.958101 1_455
O21 W6 1.964866 1_555
O22 W6 1.909489 1_555
O22 W10 2.010002 1_555
O23 W8 1.917734 1_555
O23 W6 2.042828 1_565
O24 W7 1.947670 1_555
O24 W6 2.022688 1_565
O25 W7 1.969415 1_555
O25 W9 1.985925 1_555
O26 W11 1.919982 1_565
O26 W7 2.004426 1_555
O27 W8 1.948761 1_555
O27 W7 2.005955 1_455
O28 W8 1.947239 1_555
O28 W10 2.034926 1_555
O29 W8 1.899584 1_555
O29 W12 2.030170 1_555
O30 W8 1.955407 1_555
O30 W9 2.019528 1_555
O31 W11 1.972217 1_555
O31 W9 1.979044 1_555
O32 W9 1.946723 1_555
O32 W13 2.020735 1_555
O33 W10 1.909121 1_555
O33 W9 2.026608 1_455
O34 W12 1.928341 1_545
O34 W10 2.016397 1_555
O35 W14 1.952026 1_555
O35 W10 2.011216 1_555
O36 W10 1.915581 1_555
O36 W11 2.055724 1_555
O37 W13 1.917116 1_555
O37 W11 2.049041 1_565
O38 W11 1.946533 1_555
O38 W15 2.022231 1_555
O39 W11 1.948107 1_465
O39 W12 1.980792 1_555
O40 W12 1.937398 1_555
O40 W14 2.030074 1_555
O41 W16 1.946533 1_555
O41 W12 2.022231 1_555
O42 W13 1.981801 1_555
O42 W12 1.997113 1_555
O43 W15 1.937398 1_555
O43 W13 2.030074 1_555
O44 W13 1.952026 1_555
O44 W17 2.011216 1_555
O45 W14 1.968344 1_555
O45 W13 1.968344 1_455
O46 W18 1.946723 1_555
O46 W14 2.020735 1_555
O47 W14 1.917116 1_555
O47 W16 2.049041 1_545
O48 W14 1.981801 1_555
O48 W15 1.997113 1_555
O49 W0 1.899584 1_555
O49 W15 2.030170 1_555
O50 W15 1.928341 1_565
O50 W17 2.016397 1_555
O51 W16 1.948107 1_645
O51 W15 1.980792 1_555
O52 W16 1.919982 1_545
O52 W1 2.004426 1_555
O53 W16 1.972217 1_555
O53 W18 1.979044 1_555
O54 W17 1.915581 1_555
O54 W16 2.055724 1_555
O55 W0 1.947239 1_555
O55 W17 2.034926 1_555
O56 W17 1.909121 1_555
O56 W18 2.026608 1_655
