# generated using pymatgen
data_K2MgSi5O12
_symmetry_space_group_name_H-M   'P 1'
_cell_length_a   13.83558000
_cell_length_b   13.23993400
_cell_length_c   13.35674766
_cell_angle_alpha   88.22144405
_cell_angle_beta   90.00000000
_cell_angle_gamma   90.00000000
_symmetry_Int_Tables_number   1
_chemical_formula_structural   K2MgSi5O12
_chemical_formula_sum   'K16 Mg8 Si40 O96'
_cell_volume   2445.53925281
_cell_formula_units_Z   8
loop_
 _symmetry_equiv_pos_site_id
 _symmetry_equiv_pos_as_xyz
  1  'x, y, z'
loop_
 _atom_site_type_symbol
 _atom_site_label
 _atom_site_symmetry_multiplicity
 _atom_site_fract_x
 _atom_site_fract_y
 _atom_site_fract_z
 _atom_site_occupancy
  K  K0  1  0.38915000  0.40537700  0.11464600  1
  K  K1  1  0.88915000  0.09462300  0.88535400  1
  K  K2  1  0.14038700  0.12483300  0.36793100  1
  K  K3  1  0.13164800  0.35395700  0.85355700  1
  K  K4  1  0.64038700  0.37516700  0.63206900  1
  K  K5  1  0.11085000  0.90537700  0.11464600  1
  K  K6  1  0.39583500  0.14828700  0.62912900  1
  K  K7  1  0.35961300  0.62483300  0.36793100  1
  K  K8  1  0.63164800  0.14604300  0.14644300  1
  K  K9  1  0.60416500  0.85171300  0.37087100  1
  K  K10  1  0.89583500  0.35171300  0.37087100  1
  K  K11  1  0.86835200  0.64604300  0.14644300  1
  K  K12  1  0.36835200  0.85395700  0.85355700  1
  K  K13  1  0.10416500  0.64828700  0.62912900  1
  K  K14  1  0.61085000  0.59462300  0.88535400  1
  K  K15  1  0.85961300  0.87516700  0.63206900  1
  Mg  Mg0  1  0.57047800  0.88945100  0.64291700  1
  Mg  Mg1  1  0.06515100  0.86900200  0.81452700  1
  Mg  Mg2  1  0.92952200  0.38945100  0.64291700  1
  Mg  Mg3  1  0.56515100  0.63099800  0.18547300  1
  Mg  Mg4  1  0.93484900  0.13099800  0.18547300  1
  Mg  Mg5  1  0.42952200  0.11054900  0.35708300  1
  Mg  Mg6  1  0.07047800  0.61054900  0.35708300  1
  Mg  Mg7  1  0.43484900  0.36900200  0.81452700  1
  Si  Si0  1  0.31981800  0.56842200  0.89075100  1
  Si  Si1  1  0.86159200  0.37578200  0.86916300  1
  Si  Si2  1  0.88908500  0.16273200  0.60743200  1
  Si  Si3  1  0.81535500  0.59653100  0.64355300  1
  Si  Si4  1  0.90172800  0.85027900  0.32326800  1
  Si  Si5  1  0.15087600  0.18663500  0.09417100  1
  Si  Si6  1  0.85741400  0.63084400  0.42372000  1
  Si  Si7  1  0.40386100  0.90295500  0.14994100  1
  Si  Si8  1  0.40172800  0.64972100  0.67673200  1
  Si  Si9  1  0.18464500  0.40346900  0.35644700  1
  Si  Si10  1  0.38908500  0.33726800  0.39256800  1
  Si  Si11  1  0.90386100  0.59704500  0.85005900  1
  Si  Si12  1  0.09613900  0.40295500  0.14994100  1
  Si  Si13  1  0.68018200  0.43157800  0.10924900  1
  Si  Si14  1  0.31535500  0.90346900  0.35644700  1
  Si  Si15  1  0.34912400  0.68663500  0.09417100  1
  Si  Si16  1  0.11095300  0.63641100  0.90070300  1
  Si  Si17  1  0.68464500  0.09653100  0.64355300  1
  Si  Si18  1  0.14258600  0.36915600  0.57628000  1
  Si  Si19  1  0.84912400  0.81336500  0.90582900  1
  Si  Si20  1  0.35741400  0.86915600  0.57628000  1
  Si  Si21  1  0.13840800  0.62421800  0.13083700  1
  Si  Si22  1  0.61091500  0.66273200  0.60743200  1
  Si  Si23  1  0.65087600  0.31336500  0.90582900  1
  Si  Si24  1  0.64258600  0.13084400  0.42372000  1
  Si  Si25  1  0.85989300  0.05247500  0.40865100  1
  Si  Si26  1  0.64010700  0.55247500  0.40865100  1
  Si  Si27  1  0.88904700  0.36358900  0.09929700  1
  Si  Si28  1  0.18018200  0.06842200  0.89075100  1
  Si  Si29  1  0.11091500  0.83726800  0.39256800  1
  Si  Si30  1  0.14010700  0.94752500  0.59134900  1
  Si  Si31  1  0.36159200  0.12421800  0.13083700  1
  Si  Si32  1  0.35989300  0.44752500  0.59134900  1
  Si  Si33  1  0.81981800  0.93157800  0.10924900  1
  Si  Si34  1  0.61095300  0.86358900  0.09929700  1
  Si  Si35  1  0.38904700  0.13641100  0.90070300  1
  Si  Si36  1  0.63840800  0.87578200  0.86916300  1
  Si  Si37  1  0.59827200  0.35027900  0.32326800  1
  Si  Si38  1  0.59613900  0.09704500  0.85005900  1
  Si  Si39  1  0.09827200  0.14972100  0.67673200  1
  O  O0  1  0.14243400  0.07340200  0.59465200  1
  O  O1  1  0.06829500  0.89582300  0.67009400  1
  O  O2  1  0.20780200  0.86091300  0.32225500  1
  O  O3  1  0.14230400  0.12900400  0.78829400  1
  O  O4  1  0.39046700  0.42766700  0.47456100  1
  O  O5  1  0.60848400  0.13364600  0.73213300  1
  O  O6  1  0.33590500  0.00102200  0.12288500  1
  O  O7  1  0.12898500  0.96150600  0.90788000  1
  O  O8  1  0.51931300  0.63727500  0.68505700  1
  O  O9  1  0.42646300  0.62254200  0.15688800  1
  O  O10  1  0.35769600  0.62900400  0.78829400  1
  O  O11  1  0.92646300  0.87745800  0.84311200  1
  O  O12  1  0.85118200  0.66368600  0.54291400  1
  O  O13  1  0.89046700  0.07233300  0.52543900  1
  O  O14  1  0.29219800  0.36091300  0.32225500  1
  O  O15  1  0.66409500  0.99897800  0.87711500  1
  O  O16  1  0.61849400  0.76645600  0.17104400  1
  O  O17  1  0.64881800  0.16368600  0.54291400  1
  O  O18  1  0.10528900  0.72576800  0.44003400  1
  O  O19  1  0.12957200  0.31039900  0.07896500  1
  O  O20  1  0.25278300  0.91432300  0.61069800  1
  O  O21  1  0.13323100  0.26254900  0.64383500  1
  O  O22  1  0.62957200  0.18960100  0.92103500  1
  O  O23  1  0.98408100  0.43487000  0.12660400  1
  O  O24  1  0.60953300  0.57233300  0.52543900  1
  O  O25  1  0.63323100  0.23745100  0.35616500  1
  O  O26  1  0.51591900  0.93487000  0.12660400  1
  O  O27  1  0.11849400  0.73354400  0.82895600  1
  O  O28  1  0.01591900  0.56513000  0.87339600  1
  O  O29  1  0.75678800  0.32099500  0.85008000  1
  O  O30  1  0.38150600  0.23354400  0.82895600  1
  O  O31  1  0.74721700  0.08567700  0.38930200  1
  O  O32  1  0.34104000  0.65175200  0.97713600  1
  O  O33  1  0.43170500  0.39582300  0.67009400  1
  O  O34  1  0.62898500  0.53849400  0.09212000  1
  O  O35  1  0.10848400  0.36635400  0.26786700  1
  O  O36  1  0.93959800  0.34955000  0.78647000  1
  O  O37  1  0.48068700  0.36272500  0.31494300  1
  O  O38  1  0.84104000  0.84824800  0.02286300  1
  O  O39  1  0.75278300  0.58567700  0.38930200  1
  O  O40  1  0.79219800  0.13908700  0.67774500  1
  O  O41  1  0.85756600  0.92659800  0.40534800  1
  O  O42  1  0.39913600  0.16519400  0.01937400  1
  O  O43  1  0.10086400  0.66519400  0.01937400  1
  O  O44  1  0.14881800  0.33631400  0.45708600  1
  O  O45  1  0.10953300  0.92766700  0.47456100  1
  O  O46  1  0.89913600  0.33480600  0.98062600  1
  O  O47  1  0.60086400  0.83480600  0.98062600  1
  O  O48  1  0.37101500  0.46150600  0.90788000  1
  O  O49  1  0.15896000  0.15175200  0.97713600  1
  O  O50  1  0.24321200  0.67900500  0.14992000  1
  O  O51  1  0.89471100  0.27423200  0.55996600  1
  O  O52  1  0.29909300  0.05527500  0.88436300  1
  O  O53  1  0.31700000  0.02187100  0.37103200  1
  O  O54  1  0.85769600  0.87099600  0.21170600  1
  O  O55  1  0.98068700  0.13727500  0.68505700  1
  O  O56  1  0.36676900  0.76254900  0.64383500  1
  O  O57  1  0.64230400  0.37099600  0.21170600  1
  O  O58  1  0.06040200  0.65045000  0.21353000  1
  O  O59  1  0.35756600  0.57340200  0.59465200  1
  O  O60  1  0.56829500  0.60417700  0.32990600  1
  O  O61  1  0.70780200  0.63908700  0.67774500  1
  O  O62  1  0.07353700  0.12254200  0.15688800  1
  O  O63  1  0.81700000  0.47812900  0.62896800  1
  O  O64  1  0.37042800  0.81039900  0.07896500  1
  O  O65  1  0.94317900  0.55615200  0.39681600  1
  O  O66  1  0.89151600  0.63364600  0.73213300  1
  O  O67  1  0.39151600  0.86635400  0.26786700  1
  O  O68  1  0.56040200  0.84955000  0.78647000  1
  O  O69  1  0.74321200  0.82099500  0.85008000  1
  O  O70  1  0.25678800  0.17900500  0.14992000  1
  O  O71  1  0.55682100  0.05615200  0.39681600  1
  O  O72  1  0.79909300  0.44472500  0.11563700  1
  O  O73  1  0.05682100  0.44384800  0.60318400  1
  O  O74  1  0.70090700  0.94472500  0.11563700  1
  O  O75  1  0.87101500  0.03849400  0.09212000  1
  O  O76  1  0.93170500  0.10417700  0.32990600  1
  O  O77  1  0.64243400  0.42659800  0.40534800  1
  O  O78  1  0.68300000  0.97812900  0.62896800  1
  O  O79  1  0.01931300  0.86272500  0.31494300  1
  O  O80  1  0.24721700  0.41432300  0.61069800  1
  O  O81  1  0.20090700  0.55527500  0.88436300  1
  O  O82  1  0.65896000  0.34824800  0.02286300  1
  O  O83  1  0.57353700  0.37745800  0.84311200  1
  O  O84  1  0.44317900  0.94384800  0.60318400  1
  O  O85  1  0.83590500  0.49897800  0.87711500  1
  O  O86  1  0.86676900  0.73745100  0.35616500  1
  O  O87  1  0.60528900  0.77423200  0.55996600  1
  O  O88  1  0.43959800  0.15045000  0.21353000  1
  O  O89  1  0.16409500  0.50102200  0.12288500  1
  O  O90  1  0.48408100  0.06513000  0.87339600  1
  O  O91  1  0.39471100  0.22576800  0.44003400  1
  O  O92  1  0.18300000  0.52187100  0.37103200  1
  O  O93  1  0.87042800  0.68960100  0.92103500  1
  O  O94  1  0.35118200  0.83631400  0.45708600  1
  O  O95  1  0.88150600  0.26645600  0.17104400  1
loop_
_geom_bond_atom_site_label_1
_geom_bond_atom_site_label_2
_geom_bond_distance
_geom_bond_site_symmetry_2
K0 O48 2.848671 1_554
K0 O9 2.992092 1_555
K0 O37 2.997729 1_555
K0 O14 3.119933 1_555
K1 O75 2.848671 1_556
K1 O11 2.992092 1_545
K1 O55 2.997729 1_555
K1 O40 3.119933 1_555
K2 O53 2.797759 1_555
K2 O76 2.945760 1_455
K2 O45 2.965536 1_545
K2 O62 2.967758 1_555
K2 O44 3.078734 1_555
K2 O0 3.083312 1_555
K3 O36 2.805331 1_455
K3 O81 2.874049 1_555
K3 O19 3.047960 1_556
K3 O21 3.085827 1_555
K3 O49 3.124150 1_555
K3 O3 3.132635 1_555
K3 O28 3.239927 1_555
K4 O63 2.797759 1_555
K4 O33 2.945760 1_555
K4 O24 2.965536 1_555
K4 O83 2.967758 1_555
K4 O17 3.078734 1_555
K4 O77 3.083312 1_555
K5 O7 2.848671 1_554
K5 O62 2.992092 1_565
K5 O79 2.997729 1_555
K5 O2 3.119933 1_555
K6 O91 2.696460 1_555
K6 O84 2.816722 1_545
K6 O30 2.936711 1_555
K6 O5 3.251142 1_555
K6 O33 3.376105 1_555
K7 O92 2.797759 1_555
K7 O60 2.945760 1_555
K7 O4 2.965536 1_555
K7 O9 2.967758 1_555
K7 O94 3.078734 1_555
K7 O59 3.083312 1_555
K8 O88 2.805331 1_555
K8 O74 2.874049 1_545
K8 O22 3.047960 1_554
K8 O25 3.085827 1_555
K8 O82 3.124157 1_555
K8 O57 3.132635 1_555
K8 O26 3.239927 1_545
K9 O87 2.696460 1_555
K9 O71 2.816722 1_565
K9 O16 2.936711 1_555
K9 O67 3.251142 1_555
K9 O60 3.376105 1_555
K10 O51 2.696460 1_555
K10 O65 2.816722 1_555
K10 O95 2.936711 1_555
K10 O35 3.251142 1_655
K10 O76 3.376105 1_555
K11 O58 2.805331 1_655
K11 O72 2.874049 1_555
K11 O93 3.047960 1_554
K11 O86 3.085827 1_555
K11 O38 3.124157 1_555
K11 O54 3.132635 1_555
K11 O23 3.239927 1_555
K12 O68 2.805331 1_555
K12 O52 2.874049 1_565
K12 O64 3.047960 1_556
K12 O56 3.085827 1_555
K12 O32 3.124150 1_555
K12 O10 3.132635 1_555
K12 O90 3.239927 1_565
K13 O18 2.696460 1_555
K13 O73 2.816722 1_555
K13 O27 2.936711 1_555
K13 O66 3.251142 1_455
K13 O1 3.376105 1_555
K14 O34 2.848671 1_556
K14 O83 2.992092 1_555
K14 O8 2.997729 1_555
K14 O61 3.119933 1_555
K15 O78 2.797759 1_555
K15 O1 2.945760 1_655
K15 O13 2.965536 1_565
K15 O11 2.967758 1_555
K15 O12 3.078734 1_555
K15 O41 3.083312 1_555
Mg0 O78 1.955319 1_555
Mg0 O84 1.969428 1_555
Mg0 O87 1.972707 1_555
Mg0 O68 1.977896 1_555
Mg1 O27 1.943414 1_555
Mg1 O1 1.951182 1_555
Mg1 O11 1.960323 1_455
Mg1 O7 1.982309 1_555
Mg2 O63 1.955319 1_555
Mg2 O73 1.969428 1_655
Mg2 O51 1.972707 1_555
Mg2 O36 1.977896 1_555
Mg3 O16 1.943414 1_555
Mg3 O60 1.951182 1_555
Mg3 O9 1.960323 1_555
Mg3 O34 1.982309 1_555
Mg4 O95 1.943414 1_555
Mg4 O76 1.951182 1_555
Mg4 O62 1.960323 1_655
Mg4 O75 1.982309 1_555
Mg5 O53 1.955319 1_555
Mg5 O71 1.969428 1_555
Mg5 O91 1.972707 1_555
Mg5 O88 1.977896 1_555
Mg6 O92 1.955319 1_555
Mg6 O65 1.969428 1_455
Mg6 O18 1.972707 1_555
Mg6 O58 1.977896 1_555
Mg7 O30 1.943414 1_555
Mg7 O33 1.951182 1_555
Mg7 O83 1.960323 1_555
Mg7 O48 1.982309 1_555
O0 Si39 1.632495 1_555
O0 Si30 1.668866 1_545
O1 Si30 1.586597 1_555
O2 Si14 1.660217 1_555
O2 Si29 1.660925 1_555
O3 Si39 1.625243 1_555
O3 Si28 1.650044 1_555
O4 Si32 1.645246 1_555
O4 Si10 1.647306 1_555
O5 Si38 1.642434 1_555
O5 Si17 1.669651 1_555
O6 Si7 1.634414 1_545
O6 Si31 1.675962 1_555
O7 Si28 1.593047 1_565
O8 Si8 1.638610 1_555
O8 Si22 1.665269 1_555
O9 Si15 1.588292 1_555
O10 Si8 1.625243 1_555
O10 Si0 1.650044 1_555
O11 Si19 1.588292 1_555
O12 Si3 1.664021 1_555
O12 Si6 1.665558 1_555
O13 Si25 1.645246 1_555
O13 Si2 1.647306 1_555
O14 Si9 1.660217 1_555
O14 Si10 1.660925 1_555
O15 Si38 1.634414 1_565
O15 Si36 1.675962 1_555
O16 Si34 1.583231 1_555
O17 Si17 1.664021 1_555
O17 Si24 1.665558 1_555
O18 Si29 1.590355 1_555
O19 Si12 1.639052 1_555
O19 Si5 1.671099 1_555
O20 Si20 1.637574 1_555
O20 Si30 1.638068 1_555
O21 Si39 1.617966 1_555
O21 Si18 1.656537 1_555
O22 Si38 1.639052 1_555
O22 Si23 1.671099 1_555
O23 Si12 1.634392 1_655
O23 Si27 1.665504 1_555
O24 Si26 1.645246 1_555
O24 Si22 1.647306 1_555
O25 Si37 1.617966 1_555
O25 Si24 1.656537 1_555
O26 Si7 1.634392 1_555
O26 Si34 1.665504 1_555
O27 Si16 1.583231 1_555
O28 Si11 1.634392 1_455
O28 Si16 1.665504 1_555
O29 Si1 1.644745 1_555
O29 Si23 1.645377 1_555
O30 Si35 1.583231 1_555
O31 Si24 1.637574 1_555
O31 Si25 1.638068 1_555
O32 Si0 1.647353 1_555
O32 Si15 1.647496 1_556
O33 Si32 1.586597 1_555
O34 Si13 1.593047 1_555
O35 Si12 1.642434 1_555
O35 Si9 1.669651 1_555
O36 Si1 1.590338 1_555
O37 Si37 1.638610 1_555
O37 Si10 1.665269 1_555
O38 Si33 1.647363 1_555
O38 Si19 1.647484 1_554
O39 Si6 1.637574 1_555
O39 Si26 1.638068 1_555
O40 Si17 1.660217 1_555
O40 Si2 1.660925 1_555
O41 Si4 1.632495 1_555
O41 Si25 1.668866 1_565
O42 Si35 1.647609 1_554
O42 Si31 1.652419 1_555
O43 Si16 1.647609 1_554
O43 Si21 1.652419 1_555
O44 Si9 1.664021 1_555
O44 Si18 1.665558 1_555
O45 Si30 1.645246 1_555
O45 Si29 1.647306 1_555
O46 Si27 1.647609 1_556
O46 Si1 1.652419 1_555
O47 Si34 1.647609 1_556
O47 Si36 1.652419 1_555
O48 Si0 1.593047 1_555
O49 Si28 1.647353 1_555
O49 Si5 1.647496 1_556
O50 Si21 1.644745 1_555
O50 Si15 1.645377 1_555
O51 Si2 1.590355 1_555
O52 Si28 1.656862 1_555
O52 Si35 1.662862 1_555
O53 Si14 1.585845 1_545
O54 Si4 1.625243 1_555
O54 Si33 1.650044 1_555
O55 Si39 1.638610 1_655
O55 Si2 1.665269 1_555
O56 Si8 1.617966 1_555
O56 Si20 1.656537 1_555
O57 Si37 1.625243 1_555
O57 Si13 1.650044 1_555
O58 Si21 1.590338 1_555
O59 Si8 1.632495 1_555
O59 Si32 1.668866 1_555
O60 Si26 1.586597 1_555
O61 Si3 1.660217 1_555
O61 Si22 1.660925 1_555
O62 Si5 1.588292 1_555
O63 Si3 1.585845 1_555
O64 Si7 1.639052 1_555
O64 Si15 1.671099 1_555
O65 Si6 1.592855 1_555
O66 Si11 1.642434 1_555
O66 Si3 1.669651 1_555
O67 Si7 1.642434 1_555
O67 Si14 1.669651 1_555
O68 Si36 1.590338 1_555
O69 Si36 1.644745 1_555
O69 Si19 1.645377 1_555
O70 Si31 1.644745 1_555
O70 Si5 1.645377 1_555
O71 Si24 1.592855 1_555
O72 Si13 1.656862 1_555
O72 Si27 1.662862 1_555
O73 Si18 1.592855 1_555
O74 Si33 1.656862 1_555
O74 Si34 1.662862 1_555
O75 Si33 1.593047 1_545
O76 Si25 1.586597 1_555
O77 Si37 1.632495 1_555
O77 Si26 1.668866 1_555
O78 Si17 1.585845 1_565
O79 Si4 1.638610 1_455
O79 Si29 1.665269 1_555
O80 Si18 1.637574 1_555
O80 Si32 1.638068 1_555
O81 Si0 1.656862 1_555
O81 Si16 1.662862 1_555
O82 Si13 1.647363 1_555
O82 Si23 1.647484 1_554
O83 Si23 1.588292 1_555
O84 Si20 1.592855 1_555
O85 Si11 1.634414 1_555
O85 Si1 1.675962 1_555
O86 Si4 1.617966 1_555
O86 Si6 1.656537 1_555
O87 Si22 1.590355 1_555
O88 Si31 1.590338 1_555
O89 Si12 1.634414 1_555
O89 Si21 1.675962 1_555
O90 Si38 1.634392 1_555
O90 Si35 1.665504 1_555
O91 Si10 1.590355 1_555
O92 Si9 1.585845 1_555
O93 Si11 1.639052 1_555
O93 Si19 1.671099 1_555
O94 Si14 1.664021 1_555
O94 Si20 1.665558 1_555
O95 Si27 1.583231 1_555
