# generated using pymatgen
data_NaAlSiO4
_symmetry_space_group_name_H-M   'P 1'
_cell_length_a   10.10035833
_cell_length_b   10.10035833
_cell_length_c   25.07005500
_cell_angle_alpha   90.00000000
_cell_angle_beta   90.00000000
_cell_angle_gamma   120.00000218
_symmetry_Int_Tables_number   1
_chemical_formula_structural   NaAlSiO4
_chemical_formula_sum   'Na24 Al24 Si24 O96'
_cell_volume   2214.92728014
_cell_formula_units_Z   24
loop_
 _symmetry_equiv_pos_site_id
 _symmetry_equiv_pos_as_xyz
  1  'x, y, z'
loop_
 _atom_site_type_symbol
 _atom_site_label
 _atom_site_symmetry_multiplicity
 _atom_site_fract_x
 _atom_site_fract_y
 _atom_site_fract_z
 _atom_site_occupancy
  Na  Na0  1  0.02073600  0.56469300  0.03573500  1
  Na  Na1  1  0.52651300  0.55799100  0.53027000  1
  Na  Na2  1  0.44247100  0.96046300  0.51964400  1
  Na  Na3  1  0.00444400  0.01498400  0.02801800  1
  Na  Na4  1  0.43530700  0.45604300  0.36906900  1
  Na  Na5  1  0.51799200  0.55752900  0.18631100  1
  Na  Na6  1  0.44200900  0.96852200  0.86360300  1
  Na  Na7  1  0.97926400  0.43530700  0.53573500  1
  Na  Na8  1  0.03147800  0.47348700  0.19693600  1
  Na  Na9  1  0.03953700  0.48200800  0.85297800  1
  Na  Na10  1  0.55799100  0.03147800  0.36360300  1
  Na  Na11  1  0.96852200  0.52651300  0.69693600  1
  Na  Na12  1  0.54395700  0.97926400  0.70240200  1
  Na  Na13  1  0.45604300  0.02073600  0.20240200  1
  Na  Na14  1  0.99555600  0.98501600  0.52801800  1
  Na  Na15  1  0.55752900  0.03953700  0.01964400  1
  Na  Na16  1  0.48200800  0.44247100  0.68631100  1
  Na  Na17  1  0.96046300  0.51799200  0.35297800  1
  Na  Na18  1  0.98946000  0.00444400  0.19468400  1
  Na  Na19  1  0.01054000  0.99555600  0.69468400  1
  Na  Na20  1  0.01498400  0.01054000  0.86135100  1
  Na  Na21  1  0.56469300  0.54395700  0.86906900  1
  Na  Na22  1  0.98501600  0.98946000  0.36135100  1
  Na  Na23  1  0.47348700  0.44200900  0.03027000  1
  Al  Al0  1  0.63530100  0.88084900  0.25850400  1
  Al  Al1  1  0.70793600  0.89685100  0.92875600  1
  Al  Al2  1  0.77130800  0.67322800  0.75323700  1
  Al  Al3  1  0.90192000  0.22869200  0.41990400  1
  Al  Al4  1  0.88084900  0.24554800  0.09183700  1
  Al  Al5  1  0.64474800  0.31426600  0.92391800  1
  Al  Al6  1  0.67322800  0.90192000  0.58657100  1
  Al  Al7  1  0.66951700  0.35525200  0.59058400  1
  Al  Al8  1  0.09808000  0.77130800  0.91990400  1
  Al  Al9  1  0.35525200  0.68573400  0.42391800  1
  Al  Al10  1  0.18891500  0.29206400  0.59542300  1
  Al  Al11  1  0.29206400  0.10314900  0.42875600  1
  Al  Al12  1  0.11915100  0.75445200  0.59183700  1
  Al  Al13  1  0.10314900  0.81108500  0.26209000  1
  Al  Al14  1  0.68573400  0.33048300  0.25725100  1
  Al  Al15  1  0.89685100  0.18891500  0.76209000  1
  Al  Al16  1  0.81108500  0.70793600  0.09542300  1
  Al  Al17  1  0.22869200  0.32677200  0.25323700  1
  Al  Al18  1  0.33048300  0.64474800  0.09058400  1
  Al  Al19  1  0.32677200  0.09808000  0.08657100  1
  Al  Al20  1  0.24554800  0.36469900  0.92517000  1
  Al  Al21  1  0.31426600  0.66951700  0.75725100  1
  Al  Al22  1  0.75445200  0.63530100  0.42517000  1
  Al  Al23  1  0.36469900  0.11915100  0.75850400  1
  Si  Si0  1  0.77822000  0.64453200  0.96919200  1
  Si  Si1  1  0.33844200  0.63629600  0.62939000  1
  Si  Si2  1  0.29785400  0.66155800  0.29605600  1
  Si  Si3  1  0.67610000  0.91254900  0.13180900  1
  Si  Si4  1  0.91254900  0.23644900  0.96514200  1
  Si  Si5  1  0.69643100  0.89846700  0.46129600  1
  Si  Si6  1  0.10153300  0.79796400  0.79462900  1
  Si  Si7  1  0.32390000  0.08745100  0.63180900  1
  Si  Si8  1  0.30356900  0.10153300  0.96129600  1
  Si  Si9  1  0.23644900  0.32390000  0.79847500  1
  Si  Si10  1  0.35546800  0.13368700  0.30252500  1
  Si  Si11  1  0.36370400  0.70214600  0.96272300  1
  Si  Si12  1  0.63629600  0.29785400  0.46272300  1
  Si  Si13  1  0.89846700  0.20203600  0.29462900  1
  Si  Si14  1  0.66155800  0.36370400  0.12939000  1
  Si  Si15  1  0.22178000  0.35546800  0.46919200  1
  Si  Si16  1  0.76355100  0.67610000  0.29847500  1
  Si  Si17  1  0.13368700  0.77822000  0.13585900  1
  Si  Si18  1  0.20203600  0.30356900  0.12796300  1
  Si  Si19  1  0.79796400  0.69643100  0.62796300  1
  Si  Si20  1  0.64453200  0.86631300  0.80252500  1
  Si  Si21  1  0.86631300  0.22178000  0.63585900  1
  Si  Si22  1  0.70214600  0.33844200  0.79605600  1
  Si  Si23  1  0.08745100  0.76355100  0.46514200  1
  O  O0  1  0.24508100  0.97230100  0.80320800  1
  O  O1  1  0.37599400  0.69863600  0.69074500  1
  O  O2  1  0.17812900  0.62250200  0.60842800  1
  O  O3  1  0.31275700  0.03547600  0.02012900  1
  O  O4  1  0.24632100  0.30353100  0.52841700  1
  O  O5  1  0.05316000  0.34163700  0.46374600  1
  O  O6  1  0.62400600  0.30136400  0.19074500  1
  O  O7  1  0.65836300  0.71152300  0.79707900  1
  O  O8  1  0.80931800  0.84258100  0.59529700  1
  O  O9  1  0.35506600  0.53453900  0.45967600  1
  O  O10  1  0.67735800  0.37599400  0.85741200  1
  O  O11  1  0.44437300  0.82187100  0.27509500  1
  O  O12  1  0.46491000  0.14564500  0.45987000  1
  O  O13  1  0.94575100  0.80849300  0.29407900  1
  O  O14  1  0.27728100  0.31275700  0.18679600  1
  O  O15  1  0.85435500  0.31926500  0.79320400  1
  O  O16  1  0.28847700  0.94684000  0.13041300  1
  O  O17  1  0.53509000  0.85435500  0.95987000  1
  O  O18  1  0.85147700  0.31435400  0.26307300  1
  O  O19  1  0.96673600  0.80931800  0.76196400  1
  O  O20  1  0.00482000  0.75637500  0.09157600  1
  O  O21  1  0.62250200  0.44437300  0.44176200  1
  O  O22  1  0.66981400  0.96096600  0.19385100  1
  O  O23  1  0.82052700  0.35506600  0.62634300  1
  O  O24  1  0.31926500  0.46491000  0.62653700  1
  O  O25  1  0.94279000  0.24632100  0.69508300  1
  O  O26  1  0.80849300  0.86274200  0.12741200  1
  O  O27  1  0.72271900  0.68724300  0.68679600  1
  O  O28  1  0.51688800  0.24879900  0.09137700  1
  O  O29  1  0.23098100  0.74169200  0.44936700  1
  O  O30  1  0.24879900  0.73191100  0.92471000  1
  O  O31  1  0.48311200  0.75120100  0.59137700  1
  O  O32  1  0.69863600  0.32264200  0.52407900  1
  O  O33  1  0.73191100  0.48311200  0.75804400  1
  O  O34  1  0.55562700  0.17812900  0.77509500  1
  O  O35  1  0.72160700  0.05835800  0.09215700  1
  O  O36  1  0.53712400  0.85147700  0.42973900  1
  O  O37  1  0.68724300  0.96452400  0.52012900  1
  O  O38  1  0.86274200  0.05424900  0.96074500  1
  O  O39  1  0.68564600  0.53712400  0.59640600  1
  O  O40  1  0.29115200  0.33018600  0.86051800  1
  O  O41  1  0.26808900  0.51688800  0.25804400  1
  O  O42  1  0.97230100  0.72722100  0.63654200  1
  O  O43  1  0.64493400  0.46546100  0.95967600  1
  O  O44  1  0.32264200  0.62400600  0.35741200  1
  O  O45  1  0.14852300  0.68564600  0.76307300  1
  O  O46  1  0.75491900  0.02769900  0.30320800  1
  O  O47  1  0.05424900  0.19150700  0.79407900  1
  O  O48  1  0.31435400  0.46287600  0.09640600  1
  O  O49  1  0.66324900  0.72160700  0.25882300  1
  O  O50  1  0.75637500  0.75155500  0.92491000  1
  O  O51  1  0.69646900  0.94279000  0.86175000  1
  O  O52  1  0.70884800  0.66981400  0.36051800  1
  O  O53  1  0.99518000  0.24362500  0.59157600  1
  O  O54  1  0.82187100  0.37749800  0.10842800  1
  O  O55  1  0.94164200  0.66324900  0.42549000  1
  O  O56  1  0.53453900  0.17947300  0.29301000  1
  O  O57  1  0.51071100  0.76901900  0.11603400  1
  O  O58  1  0.14564500  0.68073500  0.29320400  1
  O  O59  1  0.02769900  0.27277900  0.13654200  1
  O  O60  1  0.84258100  0.03326400  0.42863000  1
  O  O61  1  0.33018600  0.03903400  0.69385100  1
  O  O62  1  0.74169200  0.51071100  0.28270100  1
  O  O63  1  0.46546100  0.82052700  0.79301000  1
  O  O64  1  0.34163700  0.28847700  0.29707900  1
  O  O65  1  0.19068200  0.15741900  0.09529700  1
  O  O66  1  0.46287600  0.14852300  0.92973900  1
  O  O67  1  0.68073500  0.53509000  0.12653700  1
  O  O68  1  0.05835800  0.33675100  0.92549000  1
  O  O69  1  0.48928900  0.23098100  0.61603400  1
  O  O70  1  0.76901900  0.25830800  0.94936700  1
  O  O71  1  0.03326400  0.19068200  0.26196400  1
  O  O72  1  0.05721000  0.75367900  0.19508300  1
  O  O73  1  0.96452400  0.27728100  0.35346300  1
  O  O74  1  0.33675100  0.27839300  0.75882300  1
  O  O75  1  0.75155500  0.99518000  0.75824300  1
  O  O76  1  0.30353100  0.05721000  0.36175000  1
  O  O77  1  0.15741900  0.96673600  0.92863000  1
  O  O78  1  0.27277900  0.24508100  0.96987500  1
  O  O79  1  0.25830800  0.48928900  0.78270100  1
  O  O80  1  0.13725800  0.94575100  0.46074500  1
  O  O81  1  0.17947300  0.64493400  0.12634300  1
  O  O82  1  0.24844500  0.00482000  0.25824300  1
  O  O83  1  0.71152300  0.05316000  0.63041300  1
  O  O84  1  0.37749800  0.55562700  0.94176200  1
  O  O85  1  0.03547600  0.72271900  0.85346300  1
  O  O86  1  0.03903400  0.70884800  0.52718500  1
  O  O87  1  0.30136400  0.67735800  0.02407900  1
  O  O88  1  0.24362500  0.24844500  0.42491000  1
  O  O89  1  0.96096600  0.29115200  0.02718500  1
  O  O90  1  0.72722100  0.75491900  0.46987500  1
  O  O91  1  0.19150700  0.13725800  0.62741200  1
  O  O92  1  0.94684000  0.65836300  0.96374600  1
  O  O93  1  0.27839300  0.94164200  0.59215700  1
  O  O94  1  0.75367900  0.69646900  0.02841700  1
  O  O95  1  0.75120100  0.26808900  0.42471000  1
loop_
_geom_bond_atom_site_label_1
_geom_bond_atom_site_label_2
_geom_bond_distance
_geom_bond_site_symmetry_2
Na0 O92 2.327127 1_454
Na0 O20 2.458702 1_555
Na0 O87 2.487756 1_555
Na0 O89 2.525048 1_455
Na0 O81 2.662318 1_555
Na0 O54 2.670739 1_455
Na1 O39 2.390747 1_555
Na1 O9 2.403497 1_555
Na1 O90 2.515195 1_555
Na1 O31 2.683810 1_555
Na1 O4 2.709852 1_555
Na1 O21 2.879765 1_555
Na2 O12 2.317646 1_565
Na2 O93 2.402570 1_555
Na2 O37 2.452064 1_555
Na2 O29 2.798149 1_555
Na2 O36 2.873728 1_555
Na2 O31 2.955939 1_555
Na3 O38 2.370182 1_454
Na3 O65 2.397259 1_555
Na4 O64 2.327146 1_555
Na4 O88 2.458702 1_555
Na4 O44 2.487759 1_555
Na4 O52 2.525050 1_555
Na4 O9 2.662296 1_555
Na4 O21 2.670739 1_555
Na5 O67 2.317646 1_555
Na5 O49 2.402551 1_555
Na5 O14 2.452064 1_555
Na5 O57 2.798149 1_555
Na5 O48 2.873722 1_555
Na5 O41 2.955939 1_555
Na6 O66 2.390754 1_565
Na6 O63 2.403479 1_555
Na6 O0 2.515191 1_555
Na6 O30 2.683809 1_555
Na6 O51 2.709852 1_555
Na6 O34 2.879765 1_565
Na7 O5 2.327127 1_655
Na7 O53 2.458702 1_555
Na7 O32 2.487756 1_555
Na7 O86 2.525048 1_655
Na7 O23 2.662318 1_555
Na7 O2 2.670739 1_655
Na8 O18 2.390769 1_455
Na8 O81 2.403479 1_555
Na8 O59 2.515184 1_555
Na8 O41 2.683824 1_555
Na8 O72 2.709852 1_555
Na8 O54 2.879765 1_455
Na9 O15 2.317646 1_455
Na9 O68 2.402551 1_555
Na9 O85 2.452064 1_555
Na9 O79 2.798149 1_555
Na9 O45 2.873723 1_555
Na9 O30 2.955924 1_555
Na10 O36 2.390754 1_545
Na10 O56 2.403479 1_555
Na10 O46 2.515191 1_555
Na10 O95 2.683809 1_555
Na10 O76 2.709852 1_555
Na10 O11 2.879765 1_545
Na11 O45 2.390769 1_655
Na11 O23 2.403479 1_555
Na11 O42 2.515184 1_555
Na11 O33 2.683824 1_555
Na11 O25 2.709852 1_555
Na11 O2 2.879765 1_655
Na12 O83 2.327127 1_565
Na12 O75 2.458702 1_555
Na12 O1 2.487759 1_555
Na12 O61 2.525050 1_565
Na12 O63 2.662318 1_555
Na12 O34 2.670739 1_565
Na13 O16 2.327127 1_545
Na13 O82 2.458702 1_555
Na13 O6 2.487759 1_555
Na13 O22 2.525050 1_545
Na13 O56 2.662318 1_555
Na13 O11 2.670739 1_545
Na14 O80 2.370182 1_655
Na14 O8 2.397259 1_555
Na15 O17 2.317646 1_544
Na15 O35 2.402570 1_555
Na15 O3 2.452064 1_555
Na15 O70 2.798149 1_554
Na15 O66 2.873728 1_554
Na15 O28 2.955939 1_555
Na16 O24 2.317646 1_555
Na16 O74 2.402551 1_555
Na16 O27 2.452064 1_555
Na16 O69 2.798149 1_555
Na16 O39 2.873722 1_555
Na16 O33 2.955939 1_555
Na17 O58 2.317646 1_655
Na17 O55 2.402551 1_555
Na17 O73 2.452064 1_555
Na17 O62 2.798149 1_555
Na17 O18 2.873723 1_555
Na17 O95 2.955924 1_555
Na18 O26 2.370164 1_545
Na18 O71 2.397274 1_655
Na19 O91 2.370164 1_565
Na19 O19 2.397274 1_455
Na20 O47 2.370164 1_555
Na20 O77 2.397264 1_545
Na21 O7 2.327146 1_555
Na21 O50 2.458702 1_555
Na21 O10 2.487759 1_555
Na21 O40 2.525050 1_555
Na21 O43 2.662296 1_555
Na21 O84 2.670739 1_555
Na22 O13 2.370164 1_555
Na22 O60 2.397264 1_565
Na23 O48 2.390747 1_555
Na23 O43 2.403497 1_554
Na23 O78 2.515195 1_554
Na23 O28 2.683810 1_555
Na23 O94 2.709852 1_555
Na23 O84 2.879765 1_554
Al0 O11 1.760107 1_555
Al0 O49 1.766559 1_555
Al0 O22 1.766755 1_555
Al0 O46 1.767404 1_565
Al1 O17 1.758174 1_555
Al1 O51 1.761910 1_555
Al1 O50 1.766448 1_555
Al1 O38 1.769068 1_565
Al2 O33 1.759568 1_555
Al2 O7 1.760771 1_555
Al2 O27 1.762058 1_555
Al2 O19 1.766437 1_555
Al3 O95 1.759566 1_555
Al3 O5 1.760771 1_655
Al3 O73 1.762058 1_555
Al3 O60 1.766432 1_555
Al4 O54 1.760107 1_555
Al4 O35 1.766559 1_555
Al4 O89 1.766732 1_555
Al4 O59 1.767423 1_655
Al5 O70 1.735340 1_555
Al5 O10 1.752647 1_555
Al5 O66 1.767214 1_555
Al5 O43 1.769992 1_555
Al6 O31 1.759566 1_555
Al6 O83 1.760771 1_565
Al6 O37 1.762082 1_555
Al6 O8 1.766441 1_555
Al7 O69 1.735342 1_555
Al7 O32 1.752626 1_555
Al7 O39 1.767216 1_555
Al7 O23 1.770014 1_555
Al8 O30 1.759566 1_555
Al8 O92 1.760771 1_455
Al8 O85 1.762058 1_555
Al8 O77 1.766432 1_555
Al9 O29 1.735340 1_555
Al9 O44 1.752647 1_555
Al9 O36 1.767214 1_555
Al9 O9 1.769992 1_555
Al10 O24 1.758174 1_555
Al10 O4 1.761910 1_555
Al10 O53 1.766449 1_455
Al10 O91 1.769068 1_555
Al11 O12 1.758174 1_555
Al11 O76 1.761910 1_555
Al11 O88 1.766448 1_555
Al11 O80 1.769068 1_545
Al12 O2 1.760107 1_555
Al12 O93 1.766559 1_555
Al12 O86 1.766732 1_555
Al12 O42 1.767423 1_455
Al13 O58 1.758174 1_555
Al13 O72 1.761934 1_555
Al13 O82 1.766449 1_565
Al13 O13 1.769068 1_455
Al14 O62 1.735340 1_555
Al14 O6 1.752647 1_555
Al14 O18 1.767216 1_555
Al14 O56 1.770009 1_555
Al15 O15 1.758174 1_555
Al15 O25 1.761934 1_555
Al15 O75 1.766449 1_545
Al15 O47 1.769068 1_655
Al16 O67 1.758174 1_555
Al16 O94 1.761910 1_555
Al16 O20 1.766449 1_655
Al16 O26 1.769068 1_555
Al17 O41 1.759568 1_555
Al17 O64 1.760771 1_555
Al17 O14 1.762058 1_555
Al17 O71 1.766437 1_555
Al18 O57 1.735342 1_555
Al18 O87 1.752626 1_555
Al18 O48 1.767216 1_555
Al18 O81 1.770014 1_555
Al19 O28 1.759566 1_555
Al19 O16 1.760771 1_545
Al19 O3 1.762082 1_555
Al19 O65 1.766441 1_555
Al20 O84 1.760113 1_555
Al20 O68 1.766559 1_555
Al20 O40 1.766732 1_555
Al20 O78 1.767415 1_555
Al21 O79 1.735340 1_555
Al21 O1 1.752647 1_555
Al21 O45 1.767216 1_555
Al21 O63 1.770009 1_555
Al22 O21 1.760113 1_555
Al22 O55 1.766559 1_555
Al22 O52 1.766732 1_555
Al22 O90 1.767415 1_555
Al23 O34 1.760107 1_555
Al23 O74 1.766559 1_555
Al23 O61 1.766755 1_555
Al23 O0 1.767404 1_545
O0 Si6 1.641957 1_555
O1 Si1 1.633243 1_555
O2 Si1 1.640687 1_555
O3 Si8 1.640473 1_554
O4 Si15 1.634384 1_555
O5 Si15 1.643429 1_555
O6 Si14 1.633243 1_555
O7 Si20 1.643439 1_555
O8 Si19 1.641218 1_555
O9 Si15 1.644896 1_555
O10 Si22 1.633267 1_555
O11 Si2 1.640679 1_555
O12 Si12 1.644356 1_555
O13 Si16 1.651086 1_555
O14 Si18 1.640473 1_555
O15 Si22 1.644354 1_555
O16 Si17 1.643434 1_555
O17 Si11 1.644356 1_555
O18 Si13 1.636009 1_555
O19 Si6 1.641214 1_655
O20 Si17 1.639560 1_555
O21 Si12 1.640679 1_555
O22 Si3 1.641185 1_555
O23 Si21 1.644903 1_555
O24 Si1 1.644356 1_555
O25 Si21 1.634357 1_555
O26 Si3 1.651087 1_555
O27 Si19 1.640473 1_555
O28 Si14 1.641473 1_555
O29 Si23 1.620760 1_555
O30 Si11 1.641473 1_555
O31 Si1 1.641473 1_555
O32 Si12 1.633267 1_555
O33 Si22 1.641458 1_555
O34 Si22 1.640679 1_555
O35 Si3 1.640565 1_545
O36 Si5 1.636013 1_555
O37 Si5 1.640473 1_555
O38 Si4 1.651087 1_555
O39 Si19 1.636015 1_555
O40 Si9 1.641208 1_555
O41 Si2 1.641458 1_555
O42 Si19 1.641953 1_555
O43 Si0 1.644896 1_555
O44 Si2 1.633267 1_555
O45 Si6 1.636009 1_555
O46 Si13 1.641957 1_555
O47 Si9 1.651086 1_555
O48 Si18 1.636015 1_555
O49 Si16 1.640565 1_555
O50 Si0 1.639551 1_555
O51 Si20 1.634381 1_555
O52 Si16 1.641208 1_555
O53 Si21 1.639560 1_555
O54 Si14 1.640687 1_555
O55 Si23 1.640565 1_655
O56 Si10 1.644889 1_555
O57 Si3 1.620760 1_555
O58 Si2 1.644354 1_555
O59 Si18 1.641953 1_555
O60 Si5 1.641221 1_545
O61 Si7 1.641185 1_555
O62 Si16 1.620754 1_555
O63 Si20 1.644889 1_555
O64 Si10 1.643439 1_555
O65 Si18 1.641218 1_555
O66 Si8 1.636013 1_555
O67 Si14 1.644356 1_555
O68 Si4 1.640565 1_455
O69 Si7 1.620760 1_555
O70 Si4 1.620760 1_555
O71 Si13 1.641214 1_455
O72 Si17 1.634357 1_555
O73 Si13 1.640496 1_555
O74 Si9 1.640565 1_555
O75 Si20 1.639546 1_555
O76 Si10 1.634381 1_555
O77 Si8 1.641221 1_565
O78 Si8 1.641963 1_555
O79 Si9 1.620754 1_555
O80 Si23 1.651087 1_555
O81 Si17 1.644903 1_555
O82 Si10 1.639546 1_555
O83 Si21 1.643434 1_555
O84 Si11 1.640679 1_555
O85 Si6 1.640496 1_555
O86 Si23 1.641208 1_555
O87 Si11 1.633267 1_554
O88 Si15 1.639551 1_555
O89 Si4 1.641208 1_554
O90 Si5 1.641963 1_555
O91 Si7 1.651087 1_555
O92 Si0 1.643429 1_555
O93 Si7 1.640565 1_565
O94 Si0 1.634384 1_554
O95 Si12 1.641473 1_555
