# generated using pymatgen
data_Sr19In8N7
_symmetry_space_group_name_H-M   'P 1'
_cell_length_a   11.07269008
_cell_length_b   11.07269075
_cell_length_c   11.07269140
_cell_angle_alpha   59.99989716
_cell_angle_beta   59.99989357
_cell_angle_gamma   59.99989746
_symmetry_Int_Tables_number   1
_chemical_formula_structural   Sr19In8N7
_chemical_formula_sum   'Sr19 In8 N7'
_cell_volume   959.93867669
_cell_formula_units_Z   1
loop_
 _symmetry_equiv_pos_site_id
 _symmetry_equiv_pos_as_xyz
  1  'x, y, z'
loop_
 _atom_site_type_symbol
 _atom_site_label
 _atom_site_symmetry_multiplicity
 _atom_site_fract_x
 _atom_site_fract_y
 _atom_site_fract_z
 _atom_site_occupancy
  Sr  Sr0  1  0.16665531  0.83334501  0.16665500  1
  Sr  Sr1  1  0.82968498  0.50000001  0.17031501  1
  Sr  Sr2  1  0.82968510  0.49999986  0.49999989  1
  Sr  Sr3  1  0.83334475  0.16665521  0.16665519  1
  Sr  Sr4  1  0.82968504  0.17031510  0.49999994  1
  Sr  Sr5  1  0.83334483  0.16665500  0.83334494  1
  Sr  Sr6  1  0.17031484  0.50000007  0.82968485  1
  Sr  Sr7  1  0.49999988  0.49999988  0.82968495  1
  Sr  Sr8  1  0.16665519  0.16665517  0.83334490  1
  Sr  Sr9  1  0.50000014  0.50000005  0.17031497  1
  Sr  Sr10  1  0.50000011  0.17031506  0.50000005  1
  Sr  Sr11  1  0.49999975  0.82968513  0.49999979  1
  Sr  Sr12  1  0.17031510  0.82968497  0.49999998  1
  Sr  Sr13  1  0.17031501  0.50000013  0.50000022  1
  Sr  Sr14  1  0.50000002  0.50000000  0.49999999  1
  Sr  Sr15  1  0.16665513  0.83334479  0.83334492  1
  Sr  Sr16  1  0.50000006  0.17031510  0.82968499  1
  Sr  Sr17  1  0.50000007  0.82968505  0.17031498  1
  Sr  Sr18  1  0.83334478  0.83334488  0.16665507  1
  In  In0  1  0.17877463  0.17877423  0.46367665  1
  In  In1  1  0.82122559  0.82122574  0.53632350  1
  In  In2  1  0.82122530  0.53632295  0.82122618  1
  In  In3  1  0.17877485  0.46367687  0.17877392  1
  In  In4  1  0.17877437  0.17877391  0.17877341  1
  In  In5  1  0.46367739  0.17877434  0.17877393  1
  In  In6  1  0.82122576  0.82122602  0.82122678  1
  In  In7  1  0.53632285  0.82122557  0.82122594  1
  N  N0  1  0.32590005  0.32590004  0.67409991  1
  N  N1  1  0.67409995  0.67410002  0.32590011  1
  N  N2  1  0.67410007  0.32590003  0.67409994  1
  N  N3  1  0.32590003  0.67409993  0.32590000  1
  N  N4  1  0.67410000  0.32589998  0.32590005  1
  N  N5  1  0.32590004  0.67409998  0.67409998  1
  N  N6  1  0.00000004  -0.00000008  0.00000006  1
loop_
_geom_bond_atom_site_label_1
_geom_bond_atom_site_label_2
_geom_bond_distance
_geom_bond_site_symmetry_2
In0 In3 3.154635 1_555
In0 In5 3.154635 1_555
In0 In4 3.154649 1_555
In0 Sr11 3.725751 1_545
In0 Sr2 3.725756 1_455
In0 Sr12 3.725759 1_545
In0 Sr4 3.725760 1_455
In0 Sr10 3.725762 1_555
In0 Sr13 3.725766 1_555
In0 Sr15 3.963568 1_545
In0 Sr5 3.963570 1_455
In0 Sr8 3.963575 1_555
In1 In7 3.154633 1_555
In1 In2 3.154635 1_555
In1 In6 3.154649 1_555
In1 Sr10 3.725754 1_565
In1 Sr13 3.725755 1_655
In1 Sr4 3.725758 1_565
In1 Sr12 3.725759 1_655
In1 Sr2 3.725766 1_555
In1 Sr11 3.725767 1_555
In1 Sr3 3.963568 1_565
In1 Sr0 3.963570 1_655
In1 Sr18 3.963578 1_555
In2 In7 3.154633 1_555
In2 In6 3.154649 1_555
In2 Sr9 3.725749 1_556
In2 Sr1 3.725757 1_556
In2 Sr13 3.725758 1_655
In2 Sr6 3.725759 1_655
In2 Sr7 3.725762 1_555
In2 Sr2 3.725766 1_555
In2 Sr3 3.963563 1_556
In2 Sr8 3.963567 1_655
In2 Sr5 3.963573 1_555
In3 In5 3.154633 1_555
In3 In4 3.154648 1_555
In3 Sr7 3.725749 1_554
In3 Sr2 3.725759 1_455
In3 Sr9 3.725760 1_555
In3 Sr6 3.725760 1_554
In3 Sr1 3.725763 1_455
In3 Sr13 3.725767 1_555
In3 Sr15 3.963564 1_554
In3 Sr18 3.963569 1_455
In3 Sr0 3.963574 1_555
In4 In5 3.154648 1_555
In4 Sr16 3.725749 1_554
In4 Sr17 3.725751 1_545
In4 Sr6 3.725753 1_554
In4 Sr1 3.725757 1_455
In4 Sr12 3.725757 1_545
In4 Sr4 3.725758 1_455
In4 Sr8 3.963559 1_554
In4 Sr0 3.963560 1_545
In4 Sr3 3.963565 1_455
In5 Sr7 3.725752 1_554
In5 Sr11 3.725755 1_545
In5 Sr16 3.725757 1_554
In5 Sr17 3.725759 1_545
In5 Sr9 3.725762 1_555
In5 Sr10 3.725765 1_555
In5 Sr5 3.963560 1_554
In5 Sr18 3.963563 1_545
In5 Sr3 3.963568 1_555
In6 In7 3.154649 1_555
In6 Sr17 3.725747 1_556
In6 Sr1 3.725750 1_556
In6 Sr16 3.725753 1_565
In6 Sr6 3.725754 1_655
In6 Sr4 3.725759 1_565
In6 Sr12 3.725760 1_655
In6 Sr18 3.963556 1_556
In6 Sr5 3.963560 1_565
In6 Sr15 3.963562 1_655
In7 Sr9 3.725752 1_556
In7 Sr10 3.725757 1_565
In7 Sr17 3.725759 1_556
In7 Sr16 3.725762 1_565
In7 Sr7 3.725763 1_555
In7 Sr11 3.725766 1_555
In7 Sr0 3.963561 1_556
In7 Sr8 3.963565 1_565
In7 Sr15 3.963570 1_555
N0 Sr8 2.493637 1_555
N0 Sr13 2.585356 1_555
N0 Sr10 2.585357 1_555
N0 Sr6 2.585359 1_555
N0 Sr16 2.585360 1_555
N0 Sr14 2.726255 1_555
N1 Sr18 2.493637 1_555
N1 Sr11 2.585357 1_555
N1 Sr2 2.585358 1_555
N1 Sr17 2.585359 1_555
N1 Sr1 2.585360 1_555
N1 Sr14 2.726255 1_555
N2 Sr5 2.493638 1_555
N2 Sr2 2.585357 1_555
N2 Sr7 2.585357 1_555
N2 Sr16 2.585358 1_555
N2 Sr4 2.585358 1_555
N2 Sr14 2.726256 1_555
N3 Sr0 2.493637 1_555
N3 Sr13 2.585357 1_555
N3 Sr9 2.585358 1_555
N3 Sr12 2.585359 1_555
N3 Sr17 2.585360 1_555
N3 Sr14 2.726256 1_555
N4 Sr3 2.493636 1_555
N4 Sr10 2.585357 1_555
N4 Sr9 2.585358 1_555
N4 Sr4 2.585358 1_555
N4 Sr1 2.585359 1_555
N4 Sr14 2.726255 1_555
N5 Sr15 2.493637 1_555
N5 Sr7 2.585357 1_555
N5 Sr11 2.585357 1_555
N5 Sr12 2.585359 1_555
N5 Sr6 2.585360 1_555
N5 Sr14 2.726256 1_555
N6 Sr0 2.609675 1_545
N6 Sr15 2.609676 1_544
N6 Sr18 2.609676 1_445
N6 Sr5 2.609676 1_454
N6 Sr8 2.609676 1_554
N6 Sr3 2.609677 1_455
