# generated using pymatgen
data_Ba3NaBiO6
_symmetry_space_group_name_H-M   'P 1'
_cell_length_a   10.12032802
_cell_length_b   10.12032802
_cell_length_c   6.67055161
_cell_angle_alpha   85.46459529
_cell_angle_beta   85.46459529
_cell_angle_gamma   121.89796456
_symmetry_Int_Tables_number   1
_chemical_formula_structural   Ba3NaBiO6
_chemical_formula_sum   'Ba6 Na2 Bi2 O12'
_cell_volume   572.29198791
_cell_formula_units_Z   2
loop_
 _symmetry_equiv_pos_site_id
 _symmetry_equiv_pos_as_xyz
  1  'x, y, z'
loop_
 _atom_site_type_symbol
 _atom_site_label
 _atom_site_symmetry_multiplicity
 _atom_site_fract_x
 _atom_site_fract_y
 _atom_site_fract_z
 _atom_site_occupancy
  Ba  Ba0  1  0.56171700  0.82979900  0.25157600  1
  Ba  Ba1  1  0.28896900  0.71103100  0.75000000  1
  Ba  Ba2  1  0.17020100  0.43828300  0.24842400  1
  Ba  Ba3  1  0.43828300  0.17020100  0.74842400  1
  Ba  Ba4  1  0.71103100  0.28896900  0.25000000  1
  Ba  Ba5  1  0.82979900  0.56171700  0.75157600  1
  Na  Na0  1  0.52445400  0.47554600  0.25000000  1
  Na  Na1  1  0.47554600  0.52445400  0.75000000  1
  Bi  Bi0  1  0.00000000  0.00000000  0.50000000  1
  Bi  Bi1  1  0.00000000  0.00000000  0.00000000  1
  O  O0  1  0.62949900  0.40667600  0.50891000  1
  O  O1  1  0.82655100  0.85146100  0.28941400  1
  O  O2  1  0.01152600  0.56022700  0.06925800  1
  O  O3  1  0.37050100  0.59332400  0.49109000  1
  O  O4  1  0.17344900  0.14853900  0.71058600  1
  O  O5  1  0.98847400  0.43977300  0.93074200  1
  O  O6  1  0.85146100  0.82655100  0.78941400  1
  O  O7  1  0.56022700  0.01152600  0.56925800  1
  O  O8  1  0.40667600  0.62949900  0.00891000  1
  O  O9  1  0.14853900  0.17344900  0.21058600  1
  O  O10  1  0.43977300  0.98847400  0.43074200  1
  O  O11  1  0.59332400  0.37050100  0.99109000  1
loop_
_geom_bond_atom_site_label_1
_geom_bond_atom_site_label_2
_geom_bond_distance
_geom_bond_site_symmetry_2
Ba0 O3 2.457003 1_555
Ba0 O8 2.598192 1_555
Ba0 O1 2.605774 1_555
Ba0 O10 2.773945 1_555
Ba0 O7 2.917862 1_565
Ba1 O3 2.494278 1_555
Ba1 O8 2.494278 1_556
Ba1 O7 2.883057 1_565
Ba1 O5 2.883057 1_455
Ba1 O2 2.959723 1_556
Ba1 O10 2.959723 1_555
Ba2 O8 2.457003 1_555
Ba2 O3 2.598192 1_555
Ba2 O9 2.605774 1_555
Ba2 O2 2.773945 1_555
Ba2 O5 2.917862 1_454
Ba3 O0 2.457003 1_555
Ba3 O11 2.598192 1_555
Ba3 O4 2.605774 1_555
Ba3 O7 2.773945 1_555
Ba3 O10 2.917862 1_545
Ba4 O11 2.494278 1_554
Ba4 O0 2.494278 1_555
Ba4 O2 2.883057 1_655
Ba4 O10 2.883057 1_545
Ba4 O7 2.959723 1_555
Ba4 O5 2.959723 1_554
Ba5 O11 2.457003 1_555
Ba5 O0 2.598192 1_555
Ba5 O6 2.605774 1_555
Ba5 O5 2.773945 1_555
Ba5 O2 2.917862 1_656
Na0 O0 2.341321 1_555
Na0 O11 2.341321 1_554
Na0 O8 2.881689 1_555
Na0 O3 2.881689 1_555
Na1 O8 2.341321 1_556
Na1 O3 2.341321 1_555
Na1 O0 2.881689 1_555
Na1 O11 2.881689 1_555
Bi0 O4 2.291196 1_555
Bi0 O1 2.291196 1_445
Bi0 O9 2.298806 1_555
Bi0 O6 2.298806 1_445
Bi1 O9 2.291196 1_555
Bi1 O6 2.291196 1_444
Bi1 O4 2.298806 1_554
Bi1 O1 2.298806 1_445
O2 O5 1.518512 1_454
O10 O7 1.518512 1_565
