# generated using pymatgen
data_Na3Zr2Si2PO12
_symmetry_space_group_name_H-M   'P 1'
_cell_length_a   9.19204800
_cell_length_b   9.20194931
_cell_length_c   9.34918953
_cell_angle_alpha   60.91052480
_cell_angle_beta   60.61745940
_cell_angle_gamma   60.17357845
_symmetry_Int_Tables_number   1
_chemical_formula_structural   Na3Zr2Si2PO12
_chemical_formula_sum   'Na6 Zr4 Si4 P2 O24'
_cell_volume   566.29728910
_cell_formula_units_Z   2
loop_
 _symmetry_equiv_pos_site_id
 _symmetry_equiv_pos_as_xyz
  1  'x, y, z'
loop_
 _atom_site_type_symbol
 _atom_site_label
 _atom_site_symmetry_multiplicity
 _atom_site_fract_x
 _atom_site_fract_y
 _atom_site_fract_z
 _atom_site_occupancy
  Na  Na0  1  0.24340600  0.89181100  0.25644900  1
  Na  Na1  1  0.87976900  0.62155600  0.25006200  1
  Na  Na2  1  0.63377300  0.24167600  0.22737900  1
  Na  Na3  1  0.47450600  0.51646600  0.51164900  1
  Na  Na4  1  0.20508000  0.82390500  0.92897200  1
  Na  Na5  1  0.75665600  0.10907400  0.77391500  1
  Zr  Zr0  1  0.85773800  0.84917400  0.44055100  1
  Zr  Zr1  1  0.65363200  0.64559400  0.05339400  1
  Zr  Zr2  1  0.34383400  0.35550500  0.94396400  1
  Zr  Zr3  1  0.14761600  0.14932400  0.55808900  1
  Si  Si0  1  0.53579800  0.96180400  0.24632300  1
  Si  Si1  1  0.25522100  0.53504300  0.25432200  1
  Si  Si2  1  0.95339600  0.25051900  0.26053700  1
  Si  Si3  1  0.05146200  0.74751000  0.74351000  1
  P  P0  1  0.74724800  0.45721300  0.74504400  1
  P  P1  1  0.46113400  0.04139800  0.74952300  1
  O  O0  1  0.48208900  0.88095800  0.91761900  1
  O  O1  1  0.87617500  0.71352500  0.91453700  1
  O  O2  1  0.70740400  0.92453000  0.28744100  1
  O  O3  1  0.70169800  0.49334200  0.91163800  1
  O  O4  1  0.56393700  0.78061100  0.22529700  1
  O  O5  1  0.34731100  0.99927600  0.40389600  1
  O  O6  1  0.07956000  0.71542600  0.27010000  1
  O  O7  1  0.42488700  0.57070500  0.22921900  1
  O  O8  1  0.77893500  0.42552200  0.22521500  1
  O  O9  1  0.01816100  0.78604600  0.57009000  1
  O  O10  1  0.06341100  0.92424000  0.73591800  1
  O  O11  1  0.78276500  0.61742500  0.58274500  1
  O  O12  1  0.24108900  0.35638100  0.41602900  1
  O  O13  1  0.92125300  0.07942600  0.28414700  1
  O  O14  1  0.97120200  0.23863100  0.43192000  1
  O  O15  1  0.23310500  0.57819000  0.76122500  1
  O  O16  1  0.58951800  0.42737800  0.75585100  1
  O  O17  1  0.91114100  0.28760900  0.73304700  1
  O  O18  1  0.62728600  0.00049300  0.59285000  1
  O  O19  1  0.45192300  0.20695900  0.76345100  1
  O  O20  1  0.27583900  0.51380800  0.07918800  1
  O  O21  1  0.29343100  0.06647700  0.72875200  1
  O  O22  1  0.13773500  0.26544000  0.09814100  1
  O  O23  1  0.52317500  0.13402800  0.06990100  1
loop_
_geom_bond_atom_site_label_1
_geom_bond_atom_site_label_2
_geom_bond_distance
_geom_bond_site_symmetry_2
Na0 O4 2.502297 1_555
Na0 O13 2.532448 1_465
Na0 O6 2.638294 1_555
Na0 O7 2.643848 1_555
Na0 O9 2.665404 1_555
Na0 O5 2.710607 1_555
Na0 O22 2.845256 1_565
Na0 O0 2.850986 1_554
Na1 O6 2.495369 1_655
Na1 O2 2.532807 1_555
Na1 O8 2.539493 1_555
Na1 O4 2.593710 1_555
Na1 O11 2.769097 1_555
Na1 O1 2.837238 1_554
Na1 O14 2.940104 1_555
Na1 O20 3.005325 1_655
Na2 O2 2.470811 1_545
Na2 O13 2.484926 1_555
Na2 O8 2.613155 1_555
Na2 O7 2.662583 1_555
Na2 O3 2.729350 1_554
Na2 O23 2.840945 1_555
Na2 O12 3.004490 1_555
Na2 O18 3.026909 1_555
Na3 O15 2.375953 1_555
Na3 O16 2.586249 1_555
Na3 O7 2.665187 1_555
Na3 O4 2.692911 1_555
Na3 O19 2.699218 1_555
Na3 O8 2.863289 1_555
Na4 O10 2.301289 1_555
Na4 O21 2.322645 1_565
Na4 O20 2.385646 1_556
Na4 O6 2.634082 1_556
Na4 O0 2.789411 1_555
Na5 O10 2.409085 1_645
Na5 O17 2.457522 1_555
Na5 O16 2.503056 1_555
Na5 O19 2.518050 1_555
Na5 O23 2.572200 1_556
Na5 O14 2.824630 1_555
Na5 O1 2.995042 1_545
O0 P1 1.563545 1_565
O0 Zr1 2.163836 1_556
O1 Si3 1.654549 1_655
O1 Zr1 2.034130 1_556
O2 Si0 1.637765 1_555
O2 Zr0 2.112390 1_555
O3 P0 1.561027 1_555
O3 Zr1 2.128279 1_556
O4 Si0 1.650858 1_555
O4 Zr1 2.104433 1_555
O5 Si0 1.638910 1_555
O5 Zr3 2.042457 1_565
O6 Si1 1.649972 1_555
O6 Zr0 2.105711 1_455
O7 Si1 1.634044 1_555
O7 Zr1 2.132221 1_555
O8 Si2 1.645511 1_555
O8 Zr1 2.083342 1_555
O9 Si3 1.633453 1_555
O9 Zr0 2.048154 1_455
O10 Si3 1.649127 1_555
O10 Zr3 2.153323 1_565
O11 P0 1.549182 1_555
O11 Zr0 2.143896 1_555
O12 Si1 1.615028 1_555
O12 Zr3 2.044649 1_555
O13 Si2 1.635707 1_555
O13 Zr0 2.085304 1_545
O14 Si2 1.635602 1_555
O14 Zr3 2.074886 1_655
O15 Si3 1.635683 1_555
O15 Zr2 2.093167 1_555
O16 P0 1.553357 1_555
O16 Zr2 2.255643 1_555
O17 P0 1.543845 1_555
O17 Zr3 2.191613 1_655
O18 P1 1.545582 1_555
O18 Zr0 2.118376 1_545
O19 P1 1.548836 1_555
O19 Zr2 2.224971 1_555
O20 Si1 1.650699 1_555
O20 Zr2 2.054395 1_554
O21 P1 1.537396 1_555
O21 Zr3 2.196101 1_555
O22 Si2 1.642995 1_455
O22 Zr2 2.018476 1_554
O23 Si0 1.645831 1_545
O23 Zr2 2.118195 1_554
