# generated using pymatgen
data_LaPd3
_symmetry_space_group_name_H-M   'P 1'
_cell_length_a   4.20266203
_cell_length_b   4.20266203
_cell_length_c   4.20266203
_cell_angle_alpha   90.00000000
_cell_angle_beta   90.00000000
_cell_angle_gamma   90.00000000
_symmetry_Int_Tables_number   1
_chemical_formula_structural   LaPd3
_chemical_formula_sum   'La1 Pd3'
_cell_volume   74.22896394
_cell_formula_units_Z   1
loop_
 _symmetry_equiv_pos_site_id
 _symmetry_equiv_pos_as_xyz
  1  'x, y, z'
loop_
 _atom_site_type_symbol
 _atom_site_label
 _atom_site_symmetry_multiplicity
 _atom_site_fract_x
 _atom_site_fract_y
 _atom_site_fract_z
 _atom_site_occupancy
  La  La0  1  -0.00000000  -0.00000000  -0.00000000  1
  Pd  Pd0  1  0.50000000  0.00000000  0.50000000  1
  Pd  Pd1  1  0.00000000  0.50000000  0.50000000  1
  Pd  Pd2  1  0.50000000  0.50000000  0.00000000  1
loop_
_geom_bond_atom_site_label_1
_geom_bond_atom_site_label_2
_geom_bond_distance
_geom_bond_site_symmetry_2
La0 Pd1 2.971731 1_554
La0 Pd0 2.971731 1_555
La0 Pd2 2.971731 1_455
La0 Pd1 2.971731 1_555
La0 Pd1 2.971731 1_544
La0 Pd2 2.971731 1_555
La0 Pd0 2.971731 1_554
La0 Pd1 2.971731 1_545
La0 Pd0 2.971731 1_455
La0 Pd0 2.971731 1_454
La0 Pd2 2.971731 1_545
La0 Pd2 2.971731 1_445
Pd0 Pd1 2.971731 1_655
Pd0 Pd1 2.971731 1_555
Pd0 Pd2 2.971731 1_556
Pd0 Pd2 2.971731 1_555
Pd0 Pd1 2.971731 1_545
Pd0 Pd2 2.971731 1_546
Pd0 Pd2 2.971731 1_545
Pd0 Pd1 2.971731 1_645
Pd1 Pd2 2.971731 1_456
Pd1 Pd2 2.971731 1_455
Pd1 Pd2 2.971731 1_556
Pd1 Pd2 2.971731 1_555
