# generated using pymatgen
data_MgH10CO8
_symmetry_space_group_name_H-M   'P 1'
_cell_length_a   7.67990100
_cell_length_b   7.29314200
_cell_length_c   12.64181876
_cell_angle_alpha   78.55259762
_cell_angle_beta   90.00000000
_cell_angle_gamma   90.00000000
_symmetry_Int_Tables_number   1
_chemical_formula_structural   MgH10CO8
_chemical_formula_sum   'Mg4 H40 C4 O32'
_cell_volume   693.99042739
_cell_formula_units_Z   4
loop_
 _symmetry_equiv_pos_site_id
 _symmetry_equiv_pos_as_xyz
  1  'x, y, z'
loop_
 _atom_site_type_symbol
 _atom_site_label
 _atom_site_symmetry_multiplicity
 _atom_site_fract_x
 _atom_site_fract_y
 _atom_site_fract_z
 _atom_site_occupancy
  Mg  Mg0  1  0.50000000  0.00000000  0.50000000  1
  Mg  Mg1  1  0.00000000  0.00000000  0.00000000  1
  Mg  Mg2  1  0.50000000  0.50000000  0.00000000  1
  Mg  Mg3  1  0.00000000  0.50000000  0.50000000  1
  H  H0  1  0.62848700  0.63915200  0.14427200  1
  H  H1  1  0.12848700  0.36084800  0.35572800  1
  H  H2  1  0.37151300  0.36084800  0.85572800  1
  H  H3  1  0.87151300  0.63915200  0.64427200  1
  H  H4  1  0.55906900  0.25973300  0.85837100  1
  H  H5  1  0.05906900  0.74026700  0.64162900  1
  H  H6  1  0.44093100  0.74026700  0.14162900  1
  H  H7  1  0.94093100  0.25973300  0.35837100  1
  H  H8  1  0.71278900  0.55855200  0.82756500  1
  H  H9  1  0.21278900  0.44144800  0.67243500  1
  H  H10  1  0.28721100  0.44144800  0.17243500  1
  H  H11  1  0.78721100  0.55855200  0.32756500  1
  H  H12  1  0.21964400  0.29683300  0.10166200  1
  H  H13  1  0.71964400  0.70316700  0.39833800  1
  H  H14  1  0.78035600  0.70316700  0.89833800  1
  H  H15  1  0.28035600  0.29683300  0.60166200  1
  H  H16  1  0.65954200  0.90792200  0.05887900  1
  H  H17  1  0.15954200  0.09207800  0.44112100  1
  H  H18  1  0.34045800  0.09207800  0.94112100  1
  H  H19  1  0.84045800  0.90792200  0.55887900  1
  H  H20  1  0.70011200  0.11900600  0.07640400  1
  H  H21  1  0.20011200  0.88099400  0.42359600  1
  H  H22  1  0.29988800  0.88099400  0.92359600  1
  H  H23  1  0.79988800  0.11900600  0.57640400  1
  H  H24  1  0.66969600  0.03440000  0.30918500  1
  H  H25  1  0.16969600  0.96560000  0.19081500  1
  H  H26  1  0.33030400  0.96560000  0.69081500  1
  H  H27  1  0.83030400  0.03440000  0.80918500  1
  H  H28  1  0.50037100  0.09601200  0.69543000  1
  H  H29  1  0.00037100  0.90398800  0.80457000  1
  H  H30  1  0.49962900  0.90398800  0.30457000  1
  H  H31  1  0.99962900  0.09601200  0.19543000  1
  H  H32  1  0.39437800  0.62530300  0.55857100  1
  H  H33  1  0.89437800  0.37469700  0.94142900  1
  H  H34  1  0.60562200  0.37469700  0.44142900  1
  H  H35  1  0.10562200  0.62530300  0.05857100  1
  H  H36  1  0.57482900  0.64309300  0.61579400  1
  H  H37  1  0.07482900  0.35690700  0.88420600  1
  H  H38  1  0.42517100  0.35690700  0.38420600  1
  H  H39  1  0.92517100  0.64309300  0.11579400  1
  C  C0  1  0.74845400  0.34712800  0.69205600  1
  C  C1  1  0.24845400  0.65287200  0.80794400  1
  C  C2  1  0.25154600  0.65287200  0.30794400  1
  C  C3  1  0.75154600  0.34712800  0.19205600  1
  O  O0  1  0.72238800  0.51908700  0.70559500  1
  O  O1  1  0.22238800  0.48091300  0.79440500  1
  O  O2  1  0.27761200  0.48091300  0.29440500  1
  O  O3  1  0.77761200  0.51908700  0.20559500  1
  O  O4  1  0.84137900  0.31871200  0.61162100  1
  O  O5  1  0.34137900  0.68128800  0.88837900  1
  O  O6  1  0.15862100  0.68128800  0.38837900  1
  O  O7  1  0.65862100  0.31871200  0.11162100  1
  O  O8  1  0.68010700  0.20817700  0.75933100  1
  O  O9  1  0.18010700  0.79182300  0.74066900  1
  O  O10  1  0.31989300  0.79182300  0.24066900  1
  O  O11  1  0.81989300  0.20817700  0.25933100  1
  O  O12  1  0.53538600  0.70705000  0.09283900  1
  O  O13  1  0.03538600  0.29295000  0.40716100  1
  O  O14  1  0.46461400  0.29295000  0.90716100  1
  O  O15  1  0.96461400  0.70705000  0.59283900  1
  O  O16  1  0.72142000  0.58121200  0.90397100  1
  O  O17  1  0.22142000  0.41878800  0.59602900  1
  O  O18  1  0.27858000  0.41878800  0.09602900  1
  O  O19  1  0.77858000  0.58121200  0.40397100  1
  O  O20  1  0.75264000  0.01007500  0.54777900  1
  O  O21  1  0.25264000  0.98992500  0.95222100  1
  O  O22  1  0.24736000  0.98992500  0.45222100  1
  O  O23  1  0.74736000  0.01007500  0.04777900  1
  O  O24  1  0.59303300  0.93548900  0.35205400  1
  O  O25  1  0.09303300  0.06451100  0.14794600  1
  O  O26  1  0.40696700  0.06451100  0.64794600  1
  O  O27  1  0.90696700  0.93548900  0.85205400  1
  O  O28  1  0.49192000  0.71204600  0.56180600  1
  O  O29  1  0.99192000  0.28795400  0.93819400  1
  O  O30  1  0.50808000  0.28795400  0.43819400  1
  O  O31  1  0.00808000  0.71204600  0.06180600  1
loop_
_geom_bond_atom_site_label_1
_geom_bond_atom_site_label_2
_geom_bond_distance
_geom_bond_site_symmetry_2
Mg0 O20 2.037748 1_555
Mg0 O22 2.037748 1_545
Mg0 O30 2.091266 1_555
Mg0 O28 2.091266 1_545
Mg0 O24 2.139902 1_545
Mg0 O26 2.139902 1_555
Mg1 O23 2.037748 1_455
Mg1 O21 2.037748 1_544
Mg1 O29 2.091266 1_454
Mg1 O31 2.091266 1_545
Mg1 O25 2.139902 1_555
Mg1 O27 2.139902 1_444
Mg2 O18 2.104945 1_555
Mg2 O16 2.104945 1_554
Mg2 O12 2.105952 1_555
Mg2 O14 2.105952 1_554
Mg2 O7 2.117244 1_555
Mg2 O5 2.117244 1_554
Mg3 O17 2.104945 1_555
Mg3 O19 2.104945 1_455
Mg3 O13 2.105952 1_555
Mg3 O15 2.105952 1_455
Mg3 O6 2.117244 1_555
Mg3 O4 2.117244 1_455
H0 O12 1.025384 1_555
H0 O3 1.552395 1_555
H1 O13 1.025384 1_555
H1 O2 1.552395 1_555
H2 O14 1.025384 1_555
H2 O1 1.552395 1_555
H3 O15 1.025384 1_555
H3 O0 1.552395 1_555
H4 O14 1.012249 1_555
H5 O15 1.012249 1_455
H6 O12 1.012249 1_555
H7 O13 1.012249 1_655
H8 O16 1.013929 1_555
H8 O0 1.625412 1_555
H9 O17 1.013929 1_555
H9 O1 1.625412 1_555
H10 O18 1.013929 1_555
H10 O2 1.625412 1_555
H11 O19 1.013929 1_555
H11 O3 1.625412 1_555
H12 O18 0.987872 1_555
H13 O19 0.987872 1_555
H14 O16 0.987872 1_555
H15 O17 0.987872 1_555
H16 O23 0.994034 1_565
H17 O22 0.994034 1_545
H18 O21 0.994034 1_545
H19 O20 0.994034 1_565
H20 O23 1.003934 1_555
H20 O7 1.636606 1_555
H21 O22 1.003934 1_555
H21 O6 1.636606 1_555
H22 O21 1.003934 1_555
H22 O5 1.636606 1_555
H23 O20 1.003934 1_555
H23 O4 1.636606 1_555
H24 O24 1.002768 1_545
H25 O25 1.002768 1_565
H26 O26 1.002768 1_565
H27 O27 1.002768 1_545
H28 O26 0.991177 1_555
H29 O27 0.991177 1_455
H30 O24 0.991177 1_555
H31 O25 0.991177 1_655
H32 O28 0.986576 1_555
H33 O29 0.986576 1_555
H34 O30 0.986576 1_555
H35 O31 0.986576 1_555
H36 O28 0.993931 1_555
H36 O0 1.727254 1_555
H37 O29 0.993931 1_455
H37 O1 1.727254 1_555
H38 O30 0.993931 1_555
H38 O2 1.727254 1_555
H39 O31 0.993931 1_655
H39 O3 1.727254 1_555
C0 O4 1.292236 1_555
C0 O8 1.297568 1_555
C0 O0 1.314303 1_555
C1 O5 1.292236 1_555
C1 O9 1.297568 1_555
C1 O1 1.314303 1_555
C2 O6 1.292236 1_555
C2 O10 1.297568 1_555
C2 O2 1.314303 1_555
C3 O7 1.292236 1_555
C3 O11 1.297568 1_555
C3 O3 1.314303 1_555
