# generated using pymatgen
data_Ce(InPt)2
_symmetry_space_group_name_H-M   'P 1'
_cell_length_a   4.49859211
_cell_length_b   10.27945323
_cell_length_c   10.31226673
_cell_angle_alpha   62.65894730
_cell_angle_beta   90.00000000
_cell_angle_gamma   90.00000000
_symmetry_Int_Tables_number   1
_chemical_formula_structural   Ce(InPt)2
_chemical_formula_sum   'Ce4 In8 Pt8'
_cell_volume   423.59882904
_cell_formula_units_Z   4
loop_
 _symmetry_equiv_pos_site_id
 _symmetry_equiv_pos_as_xyz
  1  'x, y, z'
loop_
 _atom_site_type_symbol
 _atom_site_label
 _atom_site_symmetry_multiplicity
 _atom_site_fract_x
 _atom_site_fract_y
 _atom_site_fract_z
 _atom_site_occupancy
  Ce  Ce0  1  0.75000000  0.40205493  0.29066436  1
  Ce  Ce1  1  0.75000000  0.04607623  0.20768915  1
  Ce  Ce2  1  0.25000000  0.59794507  0.70933564  1
  Ce  Ce3  1  0.25000000  0.95392377  0.79231085  1
  In  In0  1  0.75000000  0.88250788  0.57442576  1
  In  In1  1  0.25000000  0.59392857  0.03865143  1
  In  In2  1  0.75000000  0.40607143  0.96134857  1
  In  In3  1  0.75000000  0.64693255  0.44461900  1
  In  In4  1  0.25000000  0.11749212  0.42557424  1
  In  In5  1  0.75000000  0.77211507  0.10115213  1
  In  In6  1  0.25000000  0.35306745  0.55538100  1
  In  In7  1  0.25000000  0.22788493  0.89884787  1
  Pt  Pt0  1  0.75000000  0.37762219  0.70368303  1
  Pt  Pt1  1  0.25000000  0.62237781  0.29631697  1
  Pt  Pt2  1  0.75000000  0.15896483  0.57801278  1
  Pt  Pt3  1  0.75000000  0.70670931  0.86699120  1
  Pt  Pt4  1  0.25000000  0.84103517  0.42198722  1
  Pt  Pt5  1  0.25000000  0.29329069  0.13300880  1
  Pt  Pt6  1  0.75000000  0.07196149  0.89771808  1
  Pt  Pt7  1  0.25000000  0.92803851  0.10228192  1
loop_
_geom_bond_atom_site_label_1
_geom_bond_atom_site_label_2
_geom_bond_distance
_geom_bond_site_symmetry_2
Ce0 Pt2 2.867606 1_555
Ce0 Pt1 3.211435 1_655
Ce0 Pt1 3.211435 1_555
Ce0 Pt5 3.259171 1_555
Ce0 Pt5 3.259171 1_655
Ce0 In1 3.315869 1_655
Ce0 In1 3.315869 1_555
Ce0 In2 3.377229 1_554
Ce0 In5 3.385408 1_555
Ce0 In6 3.391484 1_555
Ce0 In6 3.391484 1_655
Ce0 In4 3.437030 1_655
Ce0 In4 3.437030 1_555
Ce0 In3 3.539468 1_555
Ce1 Pt7 2.987414 1_545
Ce1 Pt7 2.987414 1_645
Ce1 Pt6 3.083367 1_554
Ce1 Pt4 3.179132 1_545
Ce1 Pt4 3.179132 1_645
Ce1 Pt5 3.211319 1_655
Ce1 Pt5 3.211319 1_555
Ce2 Pt4 2.867606 1_555
Ce2 Pt0 3.211435 1_455
Ce2 Pt0 3.211435 1_555
Ce2 Pt3 3.259171 1_555
Ce2 Pt3 3.259171 1_455
Ce2 In2 3.315869 1_455
Ce2 In2 3.315869 1_555
Ce2 In1 3.377229 1_556
Ce2 In7 3.385408 1_555
Ce2 In3 3.391484 1_455
Ce2 In3 3.391484 1_555
Ce2 In0 3.437030 1_555
Ce2 In0 3.437030 1_455
Ce2 In6 3.539468 1_555
Ce3 Pt6 2.987414 1_465
Ce3 Pt6 2.987414 1_565
Ce3 Pt7 3.083367 1_556
Ce3 Pt2 3.179132 1_465
Ce3 Pt2 3.179132 1_565
Ce3 Pt3 3.211319 1_455
Ce3 Pt3 3.211319 1_555
In0 Pt3 2.712912 1_555
In0 Pt2 2.859004 1_565
In0 Pt4 2.885796 1_555
In0 Pt4 2.885796 1_655
In1 Pt3 2.766200 1_454
In1 Pt3 2.766200 1_554
In1 Pt5 2.781208 1_555
In1 Pt1 2.803492 1_555
In2 Pt5 2.766200 1_556
In2 Pt5 2.766200 1_656
In2 Pt3 2.781208 1_555
In2 Pt0 2.803492 1_555
In3 Pt1 2.795797 1_655
In3 Pt1 2.795797 1_555
In3 Pt0 2.829732 1_555
In3 Pt4 2.944003 1_555
In3 Pt4 2.944003 1_655
In4 Pt5 2.712912 1_555
In4 Pt4 2.859004 1_545
In4 Pt2 2.885796 1_455
In4 Pt2 2.885796 1_555
In5 Pt7 2.765070 1_555
In5 Pt7 2.765070 1_655
In5 Pt3 2.788237 1_554
In5 Pt6 2.821651 1_564
In5 Pt1 2.938278 1_555
In5 Pt1 2.938278 1_655
In6 Pt0 2.795797 1_455
In6 Pt0 2.795797 1_555
In6 Pt1 2.829732 1_555
In6 Pt2 2.944003 1_455
In6 Pt2 2.944003 1_555
In7 Pt6 2.765070 1_455
In7 Pt6 2.765070 1_555
In7 Pt5 2.788237 1_556
In7 Pt7 2.821651 1_546
In7 Pt0 2.938278 1_455
In7 Pt0 2.938278 1_555
