# generated using pymatgen
data_NaHO
_symmetry_space_group_name_H-M   'P 1'
_cell_length_a   3.12594678
_cell_length_b   5.86711262
_cell_length_c   6.10433792
_cell_angle_alpha   90.00000000
_cell_angle_beta   90.00000000
_cell_angle_gamma   90.00000000
_symmetry_Int_Tables_number   1
_chemical_formula_structural   NaHO
_chemical_formula_sum   'Na4 H4 O4'
_cell_volume   111.95527767
_cell_formula_units_Z   4
loop_
 _symmetry_equiv_pos_site_id
 _symmetry_equiv_pos_as_xyz
  1  'x, y, z'
loop_
 _atom_site_type_symbol
 _atom_site_label
 _atom_site_symmetry_multiplicity
 _atom_site_fract_x
 _atom_site_fract_y
 _atom_site_fract_z
 _atom_site_occupancy
  Na  Na0  1  0.84386747  0.25000000  -0.00000000  1
  Na  Na1  1  0.15613253  0.75000000  0.50000000  1
  Na  Na2  1  0.15613253  0.75000000  0.00000000  1
  Na  Na3  1  0.84386747  0.25000000  0.50000000  1
  H  H0  1  0.54992817  0.52166040  0.25000000  1
  H  H1  1  0.45007183  0.47833960  0.75000000  1
  H  H2  1  0.54992817  0.97833960  0.75000000  1
  H  H3  1  0.45007183  0.02166040  0.25000000  1
  O  O0  1  0.29362705  0.42874283  0.25000000  1
  O  O1  1  0.70637295  0.57125717  0.75000000  1
  O  O2  1  0.29362705  0.07125717  0.75000000  1
  O  O3  1  0.70637295  0.92874283  0.25000000  1
loop_
_geom_bond_atom_site_label_1
_geom_bond_atom_site_label_2
_geom_bond_distance
_geom_bond_site_symmetry_2
Na0 O0 2.324938 1_655
Na0 O2 2.324938 1_654
Na0 O1 2.462992 1_554
Na0 O3 2.462992 1_545
Na0 O2 2.527289 1_554
Na0 O0 2.527289 1_555
Na1 O3 2.324938 1_455
Na1 O1 2.324938 1_455
Na1 O0 2.462992 1_555
Na1 O2 2.462992 1_565
Na1 O3 2.527289 1_555
Na1 O1 2.527289 1_555
Na2 O3 2.324938 1_455
Na2 O1 2.324938 1_454
Na2 O0 2.462992 1_555
Na2 O2 2.462992 1_564
Na2 O3 2.527289 1_555
Na2 O1 2.527289 1_554
Na3 O2 2.324938 1_655
Na3 O0 2.324938 1_655
Na3 O1 2.462992 1_555
Na3 O3 2.462992 1_545
Na3 O2 2.527289 1_555
Na3 O0 2.527289 1_555
H0 O0 0.969068 1_555
H0 Na1 2.374666 1_555
H0 Na2 2.374666 1_555
H0 Na0 2.390313 1_555
H0 Na3 2.390313 1_555
H1 O1 0.969068 1_555
H1 Na3 2.374666 1_555
H1 Na0 2.374666 1_556
H1 Na1 2.390313 1_555
H1 Na2 2.390313 1_556
H2 O2 0.969068 1_565
H2 Na1 2.374666 1_555
H2 Na2 2.374666 1_556
H2 Na3 2.390313 1_565
H2 Na0 2.390313 1_566
H3 O3 0.969068 1_545
H3 Na3 2.374666 1_555
H3 Na0 2.374666 1_555
H3 Na2 2.390313 1_545
H3 Na1 2.390313 1_545
