# generated using pymatgen
data_BaLa5TiCr5O18
_symmetry_space_group_name_H-M   'P 1'
_cell_length_a   5.56195700
_cell_length_b   5.56585379
_cell_length_c   27.43049331
_cell_angle_alpha   89.60184120
_cell_angle_beta   89.54867647
_cell_angle_gamma   60.66259919
_symmetry_Int_Tables_number   1
_chemical_formula_structural   BaLa5TiCr5O18
_chemical_formula_sum   'Ba2 La10 Ti2 Cr10 O36'
_cell_volume   740.23328594
_cell_formula_units_Z   2
loop_
 _symmetry_equiv_pos_site_id
 _symmetry_equiv_pos_as_xyz
  1  'x, y, z'
loop_
 _atom_site_type_symbol
 _atom_site_label
 _atom_site_symmetry_multiplicity
 _atom_site_fract_x
 _atom_site_fract_y
 _atom_site_fract_z
 _atom_site_occupancy
  Ba  Ba0  1  0.99986500  0.99901800  0.12548300  1
  Ba  Ba1  1  0.33694400  0.33139200  0.95566800  1
  La  La0  1  0.66961600  0.66340000  0.03914900  1
  La  La1  1  0.33004800  0.32792500  0.21090700  1
  La  La2  1  0.99710000  0.99959300  0.37616500  1
  La  La3  1  0.66531500  0.66559100  0.54234300  1
  La  La4  1  0.66079300  0.66727900  0.29227800  1
  La  La5  1  0.33132900  0.33532500  0.70835000  1
  La  La6  1  0.33153700  0.33263600  0.45933800  1
  La  La7  1  0.00692300  0.00184400  0.87123900  1
  La  La8  1  0.99783700  0.99993200  0.62519900  1
  La  La9  1  0.66558100  0.67155900  0.79263900  1
  Ti  Ti0  1  0.99992400  0.99816100  0.99909000  1
  Ti  Ti1  1  0.66063400  0.66908000  0.16711300  1
  Cr  Cr0  1  0.33038800  0.33541200  0.33495800  1
  Cr  Cr1  1  0.33286400  0.33295200  0.08400200  1
  Cr  Cr2  1  0.00124400  0.99727200  0.25221100  1
  Cr  Cr3  1  0.66643700  0.66710800  0.66626900  1
  Cr  Cr4  1  0.66625900  0.66687600  0.41727700  1
  Cr  Cr5  1  0.33305000  0.33355200  0.58334900  1
  Cr  Cr6  1  0.99971900  0.00004300  0.50027600  1
  Cr  Cr7  1  0.99768100  0.00353200  0.74809700  1
  Cr  Cr8  1  0.66701800  0.66579000  0.91491400  1
  Cr  Cr9  1  0.33813500  0.33023800  0.83107800  1
  O  O0  1  0.52345200  0.47776400  0.12797300  1
  O  O1  1  0.65577100  0.17284700  0.03787400  1
  O  O2  1  0.52060300  0.96359800  0.11882200  1
  O  O3  1  0.15910200  0.68400600  0.04534400  1
  O  O4  1  0.23507100  0.09951700  0.29329600  1
  O  O5  1  0.02752800  0.48429000  0.13596800  1
  O  O6  1  0.32052100  0.84083100  0.20561100  1
  O  O7  1  0.11833600  0.21350000  0.04132200  1
  O  O8  1  0.18784600  0.61695400  0.28144000  1
  O  O9  1  0.81966400  0.36718000  0.21866100  1
  O  O10  1  0.90802400  0.76097000  0.45813700  1
  O  O11  1  0.70976600  0.14940400  0.30421900  1
  O  O12  1  0.94879600  0.52676500  0.36355900  1
  O  O13  1  0.77136000  0.88509700  0.21240100  1
  O  O14  1  0.85721500  0.28498100  0.44650100  1
  O  O15  1  0.47690000  0.04852400  0.38787800  1
  O  O16  1  0.57440200  0.42784800  0.62414800  1
  O  O17  1  0.38184400  0.80974000  0.47097700  1
  O  O18  1  0.61806000  0.19116500  0.52957700  1
  O  O19  1  0.42633700  0.57624400  0.37528500  1
  O  O20  1  0.52360800  0.95259700  0.61257800  1
  O  O21  1  0.14199200  0.71584000  0.55394500  1
  O  O22  1  0.23420000  0.09985000  0.78924500  1
  O  O23  1  0.04938400  0.47622400  0.63706700  1
  O  O24  1  0.28532600  0.85569200  0.69538300  1
  O  O25  1  0.09376800  0.24156400  0.54123200  1
  O  O26  1  0.18113300  0.62643800  0.77946000  1
  O  O27  1  0.80753000  0.38539900  0.71965700  1
  O  O28  1  0.85653300  0.80935500  0.95920000  1
  O  O29  1  0.71550000  0.14878200  0.80101700  1
  O  O30  1  0.96751000  0.50387500  0.86410500  1
  O  O31  1  0.75864000  0.91015200  0.70679900  1
  O  O32  1  0.85317900  0.29870700  0.95041800  1
  O  O33  1  0.49984500  0.01317100  0.87683100  1
  O  O34  1  0.36427800  0.81701100  0.96652300  1
  O  O35  1  0.44073600  0.56861300  0.87015700  1
loop_
_geom_bond_atom_site_label_1
_geom_bond_atom_site_label_2
_geom_bond_distance
_geom_bond_site_symmetry_2
Ba0 O3 2.681804 1_655
Ba0 O0 2.684617 1_565
Ba0 O6 2.698725 1_655
Ba0 O2 2.775064 1_555
Ba0 O5 2.796471 1_665
Ba0 O5 2.805594 1_655
Ba0 O2 2.809552 1_655
Ba0 O7 2.810224 1_665
Ba0 O13 2.902182 1_555
Ba0 O1 2.932526 1_565
Ba0 O0 2.936633 1_655
Ba0 O9 3.123483 1_565
Ba1 O33 2.661652 1_555
Ba1 O28 2.694475 1_455
Ba1 O1 2.740449 1_556
Ba1 O32 2.789214 1_455
Ba1 O32 2.789278 1_555
Ba1 O34 2.798556 1_555
Ba1 O34 2.805481 1_545
Ba1 O7 2.853875 1_556
Ba1 O35 2.874187 1_555
Ba1 O28 2.928449 1_545
Ba1 O3 3.001263 1_556
Ba1 O30 3.093021 1_455
La0 O34 2.488108 1_554
La0 O7 2.525682 1_655
La0 O2 2.630626 1_555
La0 O28 2.705011 1_554
La0 O1 2.769357 1_555
La0 O3 2.787035 1_655
La0 O3 2.788925 1_555
La0 O1 2.798564 1_565
La0 O0 2.902035 1_555
La0 O32 3.014198 1_554
La0 O7 3.095142 1_565
La0 O5 3.179898 1_655
La1 O8 2.393553 1_555
La1 O13 2.484619 1_545
La1 O5 2.531563 1_555
La1 O6 2.742318 1_545
La1 O9 2.744951 1_455
La1 O4 2.757177 1_555
La1 O0 2.800375 1_555
La1 O6 2.831906 1_555
La1 O9 2.846353 1_555
La1 O2 3.088467 1_545
La1 O13 3.135540 1_455
La1 O11 3.161128 1_555
La2 O14 2.378816 1_565
La2 O19 2.395810 1_655
La2 O11 2.421797 1_565
La2 O10 2.766052 1_555
La2 O15 2.786250 1_565
La2 O12 2.797230 1_555
La2 O4 2.807973 1_665
La2 O12 2.831247 1_565
La2 O15 2.832996 1_665
La3 O20 2.381139 1_555
La3 O25 2.395512 1_655
La3 O17 2.397708 1_555
La3 O16 2.763782 1_555
La3 O21 2.800111 1_555
La3 O18 2.803351 1_555
La3 O21 2.819538 1_655
La3 O18 2.825369 1_565
La3 O10 2.841733 1_555
La4 O12 2.408564 1_555
La4 O4 2.411036 1_565
La4 O9 2.494193 1_555
La4 O13 2.705763 1_555
La4 O11 2.776462 1_555
La4 O19 2.779616 1_555
La4 O8 2.796767 1_555
La4 O8 2.818340 1_655
La4 O11 2.848189 1_565
La4 O6 2.900711 1_555
La4 O4 3.209145 1_655
La4 O15 3.214641 1_565
La5 O23 2.391521 1_555
La5 O31 2.395634 1_545
La5 O26 2.412442 1_555
La5 O22 2.750997 1_555
La5 O24 2.800251 1_555
La5 O27 2.802283 1_455
La5 O27 2.815403 1_555
La5 O24 2.828874 1_545
La5 O16 2.836234 1_555
La6 O18 2.381065 1_555
La6 O10 2.393877 1_455
La6 O15 2.400393 1_555
La6 O25 2.765207 1_555
La6 O17 2.800171 1_545
La6 O14 2.802828 1_455
La6 O14 2.822782 1_555
La6 O17 2.823673 1_555
La6 O19 2.840821 1_555
La7 O29 2.394738 1_455
La7 O35 2.436345 1_545
La7 O32 2.610488 1_455
La7 O30 2.699431 1_455
La7 O22 2.750997 1_555
La7 O33 2.778500 1_555
La7 O33 2.793016 1_455
La7 O30 2.893410 1_445
La7 O28 2.911973 1_445
La7 O26 3.113438 1_545
La7 O34 3.143412 1_545
La7 O35 3.183513 1_455
La8 O24 2.382594 1_655
La8 O16 2.392411 1_565
La8 O21 2.395672 1_655
La8 O31 2.760213 1_555
La8 O20 2.800539 1_555
La8 O23 2.802515 1_655
La8 O20 2.823340 1_655
La8 O23 2.823837 1_665
La8 O25 2.835340 1_665
La9 O22 2.417396 1_565
La9 O27 2.440296 1_555
La9 O30 2.454535 1_555
La9 O35 2.656498 1_555
La9 O26 2.774069 1_655
La9 O29 2.792192 1_555
La9 O29 2.813751 1_565
La9 O33 2.847523 1_565
La9 O26 2.851958 1_555
La9 O31 2.861221 1_555
Cr0 O8 2.002045 1_555
Cr0 O4 2.005841 1_555
Cr0 O12 2.006180 1_455
Cr0 O15 2.008064 1_555
Cr0 O19 2.009004 1_555
Cr0 O11 2.019579 1_555
Cr1 O3 2.003301 1_555
Cr1 O1 2.008058 1_555
Cr1 O7 2.011602 1_555
Cr1 O0 2.024598 1_555
Cr1 O2 2.028237 1_545
Cr1 O5 2.049961 1_555
Cr2 O6 2.002534 1_555
Cr2 O11 2.003906 1_465
Cr2 O13 2.007698 1_455
Cr2 O8 2.009362 1_555
Cr2 O4 2.010615 1_565
Cr2 O9 2.014094 1_465
Cr3 O27 1.999854 1_555
Cr3 O24 2.009353 1_555
Cr3 O31 2.009626 1_555
Cr3 O16 2.017191 1_555
Cr3 O20 2.018414 1_555
Cr3 O23 2.018549 1_655
Cr4 O12 2.006864 1_555
Cr4 O17 2.012824 1_555
Cr4 O19 2.013425 1_555
Cr4 O10 2.015106 1_555
Cr4 O14 2.016495 1_555
Cr4 O15 2.017201 1_565
Cr5 O23 2.010727 1_555
Cr5 O20 2.012370 1_545
Cr5 O16 2.012993 1_555
Cr5 O18 2.016169 1_555
Cr5 O25 2.016980 1_555
Cr5 O21 2.020188 1_555
Cr6 O21 2.013719 1_645
Cr6 O18 2.013953 1_555
Cr6 O25 2.015469 1_655
Cr6 O10 2.015557 1_545
Cr6 O17 2.015927 1_645
Cr6 O14 2.018261 1_555
Cr7 O29 1.990259 1_555
Cr7 O22 2.003698 1_655
Cr7 O24 2.004393 1_645
Cr7 O31 2.007516 1_545
Cr7 O27 2.007932 1_555
Cr7 O26 2.019063 1_645
Cr8 O33 1.979829 1_565
Cr8 O30 2.013147 1_555
Cr8 O28 2.020962 1_555
Cr8 O35 2.020996 1_555
Cr8 O32 2.027360 1_555
Cr8 O34 2.034217 1_555
Cr9 O33 1.982432 1_555
Cr9 O35 2.001589 1_555
Cr9 O29 2.003101 1_555
Cr9 O30 2.008652 1_455
Cr9 O22 2.013088 1_555
Cr9 O26 2.015337 1_555
O0 Ti1 1.921891 1_555
O1 Ti0 1.974779 1_544
O2 Ti1 1.945102 1_555
O3 Ti0 1.980131 1_454
O5 Ti1 1.969783 1_455
O6 Ti1 1.953985 1_555
O7 Ti0 2.004265 1_444
O9 Ti1 2.033596 1_555
O13 Ti1 2.031371 1_555
O28 Ti0 1.946445 1_555
O32 Ti0 1.973611 1_545
O34 Ti0 1.975655 1_455
