# generated using pymatgen
data_La2Cu2O5
_symmetry_space_group_name_H-M   'P 1'
_cell_length_a   3.76783172
_cell_length_b   7.21586175
_cell_length_c   27.00196965
_cell_angle_alpha   87.23848398
_cell_angle_beta   85.95679395
_cell_angle_gamma   74.84620648
_symmetry_Int_Tables_number   1
_chemical_formula_structural   La2Cu2O5
_chemical_formula_sum   'La12 Cu12 O30'
_cell_volume   706.50506398
_cell_formula_units_Z   6
loop_
 _symmetry_equiv_pos_site_id
 _symmetry_equiv_pos_as_xyz
  1  'x, y, z'
loop_
 _atom_site_type_symbol
 _atom_site_label
 _atom_site_symmetry_multiplicity
 _atom_site_fract_x
 _atom_site_fract_y
 _atom_site_fract_z
 _atom_site_occupancy
  La  La0  1  0.36894100  0.49195200  0.23115100  1
  La  La1  1  0.12922800  0.84750500  0.40275500  1
  La  La2  1  0.62807500  0.50902000  0.76840700  1
  La  La3  1  0.08593800  0.00608500  0.26860600  1
  La  La4  1  0.63670100  0.67442300  0.63500100  1
  La  La5  1  0.91092100  0.99262900  0.73212500  1
  La  La6  1  0.86121300  0.15465800  0.59743900  1
  La  La7  1  0.38400900  0.65127300  0.09709700  1
  La  La8  1  0.06435100  0.17208900  0.13432600  1
  La  La9  1  0.37125900  0.32618300  0.36523500  1
  La  La10  1  0.94094400  0.82678900  0.86586300  1
  La  La11  1  0.62250000  0.34759600  0.90226600  1
  Cu  Cu0  1  0.74053100  0.66537200  0.31940100  1
  Cu  Cu1  1  0.74394900  0.98081900  0.03992700  1
  Cu  Cu2  1  0.56401500  0.16159500  0.47113000  1
  Cu  Cu3  1  0.80289100  0.65719400  0.97115500  1
  Cu  Cu4  1  0.43119300  0.84097100  0.52912200  1
  Cu  Cu5  1  0.26948600  0.16780600  0.81976200  1
  Cu  Cu6  1  0.72317400  0.83440400  0.18077500  1
  Cu  Cu7  1  0.77217800  0.51635000  0.46037400  1
  Cu  Cu8  1  0.26058300  0.33073600  0.68119400  1
  Cu  Cu9  1  0.22838200  0.48619300  0.54021100  1
  Cu  Cu10  1  0.25242700  0.01368100  0.96036900  1
  Cu  Cu11  1  0.20475300  0.33616100  0.02845200  1
  O  O0  1  0.50534900  0.68027100  0.91288400  1
  O  O1  1  0.26260500  0.08649400  0.89000800  1
  O  O2  1  0.60170300  0.88209900  0.46136000  1
  O  O3  1  0.73266700  0.74544900  0.24977300  1
  O  O4  1  0.73020400  0.91185300  0.11057300  1
  O  O5  1  0.22238700  0.83467400  0.18109900  1
  O  O6  1  0.26616000  0.24945800  0.75032000  1
  O  O7  1  0.24308900  0.41178400  0.61122200  1
  O  O8  1  0.88369900  0.49354100  0.16189000  1
  O  O9  1  0.77026700  0.16592500  0.81980100  1
  O  O10  1  0.30390800  0.44674800  0.46423200  1
  O  O11  1  0.38832900  0.12093200  0.53894700  1
  O  O12  1  0.21213800  0.04638700  0.03574700  1
  O  O13  1  0.54420800  0.00464900  0.33745300  1
  O  O14  1  0.05841600  0.37845400  0.96069700  1
  O  O15  1  0.95042700  0.61770300  0.03867000  1
  O  O16  1  0.76033500  0.58790900  0.38975700  1
  O  O17  1  0.45322500  0.83518200  0.79136900  1
  O  O18  1  0.09725000  0.81969300  0.58742000  1
  O  O19  1  0.10948900  0.50662400  0.83740600  1
  O  O20  1  0.90405800  0.18046500  0.41268100  1
  O  O21  1  0.45806900  0.99394100  0.66322500  1
  O  O22  1  0.90990500  0.33144300  0.29111600  1
  O  O23  1  0.78711000  0.94262400  0.96458800  1
  O  O24  1  0.70009200  0.54957900  0.53562400  1
  O  O25  1  0.49878000  0.31728800  0.08689600  1
  O  O26  1  0.08520900  0.66662700  0.70921200  1
  O  O27  1  0.75691500  0.33772800  0.68172600  1
  O  O28  1  0.24156600  0.66348500  0.31896200  1
  O  O29  1  0.53339400  0.16497900  0.20846400  1
loop_
_geom_bond_atom_site_label_1
_geom_bond_atom_site_label_2
_geom_bond_distance
_geom_bond_site_symmetry_2
La0 O29 2.376415 1_555
La0 O8 2.599522 1_555
La0 O3 2.640478 1_455
La0 O3 2.640720 1_555
La0 O22 2.677337 1_555
La0 O28 2.682554 1_555
La0 O8 2.703625 1_455
La0 O5 2.704921 1_555
La0 O22 2.725122 1_455
La1 O20 2.351246 1_465
La1 O2 2.419139 1_455
La1 O2 2.530465 1_555
La1 O16 2.627427 1_555
La1 O28 2.631012 1_555
La1 O16 2.656569 1_455
La1 O13 2.680528 1_565
La1 O13 2.881383 1_465
La1 O10 3.201213 1_555
La2 O17 2.372753 1_555
La2 O19 2.605872 1_555
La2 O27 2.654514 1_555
La2 O6 2.663641 1_655
La2 O26 2.664896 1_555
La2 O6 2.668965 1_555
La2 O19 2.686768 1_655
La2 O26 2.697336 1_655
La2 O9 2.724409 1_555
La3 O22 2.363845 1_455
La3 O13 2.622763 1_555
La3 O3 2.657788 1_445
La3 O13 2.663907 1_455
La3 O5 2.674910 1_545
La3 O29 2.690600 1_555
La3 O3 2.693493 1_545
La3 O28 2.708292 1_545
La3 O29 2.708406 1_455
La4 O21 2.373869 1_555
La4 O18 2.450578 1_555
La4 O18 2.503498 1_655
La4 O7 2.621191 1_655
La4 O27 2.628599 1_555
La4 O26 2.700238 1_655
La4 O26 2.792744 1_555
La4 O7 2.815033 1_555
La4 O24 2.845900 1_555
La5 O26 2.371295 1_655
La5 O21 2.609631 1_555
La5 O6 2.635291 1_665
La5 O17 2.664029 1_655
La5 O6 2.672680 1_565
La5 O21 2.679365 1_655
La5 O9 2.685352 1_565
La5 O17 2.698884 1_555
La5 O27 2.723796 1_565
La6 O18 2.368867 1_645
La6 O11 2.416661 1_655
La6 O11 2.527632 1_555
La6 O7 2.586552 1_555
La6 O27 2.640350 1_555
La6 O21 2.673881 1_545
La6 O7 2.681235 1_655
La6 O21 2.925576 1_645
La6 O24 3.171022 1_555
La7 O25 2.360767 1_555
La7 O15 2.413228 1_455
La7 O15 2.528646 1_555
La7 O4 2.604730 1_555
La7 O5 2.634417 1_555
La7 O8 2.655812 1_555
La7 O4 2.693372 1_455
La7 O8 2.893899 1_455
La7 O12 3.165940 1_565
La8 O8 2.380556 1_455
La8 O25 2.426719 1_555
La8 O25 2.523345 1_455
La8 O5 2.632371 1_545
La8 O4 2.643612 1_445
La8 O29 2.737035 1_455
La8 O29 2.752269 1_555
La8 O4 2.767281 1_545
La8 O12 2.824481 1_555
La9 O13 2.383020 1_555
La9 O20 2.430277 1_555
La9 O20 2.523012 1_455
La9 O28 2.625867 1_555
La9 O16 2.633714 1_455
La9 O22 2.734476 1_455
La9 O22 2.754275 1_555
La9 O16 2.803409 1_555
La9 O10 2.824855 1_555
La10 O19 2.380387 1_655
La10 O0 2.430540 1_555
La10 O0 2.515572 1_655
La10 O1 2.611966 1_665
La10 O9 2.635493 1_565
La10 O17 2.697636 1_655
La10 O1 2.801422 1_565
La10 O17 2.806778 1_555
La10 O23 2.807926 1_555
La11 O0 2.352467 1_555
La11 O14 2.413927 1_655
La11 O14 2.523816 1_555
La11 O9 2.590676 1_555
La11 O1 2.637653 1_555
La11 O1 2.654791 1_655
La11 O19 2.691532 1_555
La11 O19 2.864418 1_655
Cu0 O28 1.883506 1_655
Cu0 O28 1.884497 1_555
Cu0 O3 1.940035 1_555
Cu0 O16 1.955229 1_555
Cu0 O13 2.428101 1_565
Cu0 O22 2.470085 1_555
Cu1 O12 1.936912 1_665
Cu1 O12 1.944940 1_565
Cu1 O4 1.948659 1_555
Cu1 O23 2.055415 1_554
Cu1 O15 2.531979 1_555
Cu2 O11 1.938139 1_555
Cu2 O20 1.984003 1_555
Cu2 O2 2.013334 1_545
Cu2 O10 2.040466 1_555
Cu3 O15 1.929694 1_556
Cu3 O0 1.971333 1_555
Cu3 O14 2.013992 1_655
Cu3 O23 2.044332 1_555
Cu4 O2 1.931384 1_555
Cu4 O18 1.970566 1_555
Cu4 O11 2.013090 1_565
Cu4 O24 2.086666 1_555
Cu5 O9 1.883430 1_555
Cu5 O9 1.884493 1_455
Cu5 O6 1.938090 1_555
Cu5 O1 1.958696 1_555
Cu5 O19 2.422586 1_555
Cu5 O17 2.462030 1_545
Cu6 O5 1.882098 1_655
Cu6 O5 1.885776 1_555
Cu6 O3 1.940756 1_555
Cu6 O4 1.950610 1_555
Cu6 O29 2.442344 1_565
Cu6 O8 2.444416 1_555
Cu7 O10 1.943013 1_655
Cu7 O10 1.951512 1_555
Cu7 O16 1.951814 1_555
Cu7 O24 2.048157 1_555
Cu7 O2 2.548862 1_555
Cu8 O27 1.884230 1_455
Cu8 O27 1.884992 1_555
Cu8 O6 1.929244 1_555
Cu8 O7 1.951172 1_555
Cu8 O21 2.410924 1_545
Cu8 O26 2.480398 1_555
Cu9 O24 1.933903 1_455
Cu9 O24 1.942146 1_555
Cu9 O7 1.966761 1_555
Cu9 O10 2.074265 1_555
Cu9 O11 2.546850 1_555
Cu10 O23 1.945742 1_445
Cu10 O1 1.947091 1_555
Cu10 O23 1.954778 1_545
Cu10 O12 2.050706 1_556
Cu10 O14 2.541266 1_555
Cu11 O14 1.935139 1_554
Cu11 O25 1.970590 1_555
Cu11 O15 2.029918 1_455
Cu11 O12 2.083841 1_555
