# generated using pymatgen
data_ZnS
_symmetry_space_group_name_H-M   'P 1'
_cell_length_a   37.78446740
_cell_length_b   37.78446736
_cell_length_c   37.78446787
_cell_angle_alpha   5.88244202
_cell_angle_beta   5.88244263
_cell_angle_gamma   5.88244202
_symmetry_Int_Tables_number   1
_chemical_formula_structural   ZnS
_chemical_formula_sum   'Zn12 S12'
_cell_volume   491.12888683
_cell_formula_units_Z   12
loop_
 _symmetry_equiv_pos_site_id
 _symmetry_equiv_pos_as_xyz
  1  'x, y, z'
loop_
 _atom_site_type_symbol
 _atom_site_label
 _atom_site_symmetry_multiplicity
 _atom_site_fract_x
 _atom_site_fract_y
 _atom_site_fract_z
 _atom_site_occupancy
  Zn  Zn0  1  0.08335358  0.08335358  0.08335358  1
  Zn  Zn1  1  0.52780507  0.52780507  0.52780507  1
  Zn  Zn2  1  0.16668563  0.16668563  0.16668563  1
  Zn  Zn3  1  0.38889832  0.38889832  0.38889832  1
  Zn  Zn4  1  0.58335929  0.58335929  0.58335929  1
  Zn  Zn5  1  0.77780734  0.77780734  0.77780734  1
  Zn  Zn6  1  0.27781263  0.27781263  0.27781263  1
  Zn  Zn7  1  0.00002216  0.00002216  0.00002216  1
  Zn  Zn8  1  0.88889024  0.88889024  0.88889024  1
  Zn  Zn9  1  0.63891304  0.63891304  0.63891304  1
  Zn  Zn10  1  0.47223065  0.47223065  0.47223065  1
  Zn  Zn11  1  0.69447714  0.69447714  0.69447714  1
  S  S0  1  0.29860591  0.29860591  0.29860591  1
  S  S1  1  0.79859006  0.79859006  0.79859006  1
  S  S2  1  0.54857573  0.54857573  0.54857573  1
  S  S3  1  0.40969931  0.40969931  0.40969931  1
  S  S4  1  0.65968872  0.65968872  0.65968872  1
  S  S5  1  0.60413406  0.60413406  0.60413406  1
  S  S6  1  0.02082507  0.02082507  0.02082507  1
  S  S7  1  0.49301781  0.49301781  0.49301781  1
  S  S8  1  0.90971083  0.90971083  0.90971083  1
  S  S9  1  0.10414846  0.10414846  0.10414846  1
  S  S10  1  0.18749238  0.18749238  0.18749238  1
  S  S11  1  0.71525857  0.71525857  0.71525857  1
loop_
_geom_bond_atom_site_label_1
_geom_bond_atom_site_label_2
_geom_bond_distance
_geom_bond_site_symmetry_2
S0 Zn6 2.352848 1_555
S0 Zn9 2.373711 1_545
S0 Zn9 2.373711 1_554
S0 Zn9 2.373711 1_455
S1 Zn5 2.351653 1_555
S1 Zn10 2.373716 1_565
S1 Zn10 2.373716 1_655
S1 Zn10 2.373716 1_556
S2 Zn1 2.350289 1_555
S2 Zn8 2.373989 1_545
S2 Zn8 2.373989 1_554
S2 Zn8 2.373989 1_455
S3 Zn3 2.353721 1_555
S3 Zn0 2.374231 1_565
S3 Zn0 2.374231 1_655
S3 Zn0 2.374231 1_556
S4 Zn9 2.350857 1_555
S4 Zn7 2.374702 1_656
S4 Zn7 2.374702 1_665
S4 Zn7 2.374703 1_566
S5 Zn4 2.350754 1_555
S5 Zn6 2.375148 1_565
S5 Zn6 2.375148 1_655
S5 Zn6 2.375148 1_556
S6 Zn7 2.353938 1_555
S6 Zn11 2.374148 1_454
S6 Zn11 2.374148 1_544
S6 Zn11 2.374148 1_445
S7 Zn10 2.352156 1_555
S7 Zn2 2.374742 1_565
S7 Zn2 2.374742 1_655
S7 Zn2 2.374742 1_556
S8 Zn8 2.355939 1_555
S8 Zn4 2.374012 1_565
S8 Zn4 2.374012 1_655
S8 Zn4 2.374012 1_556
S9 Zn0 2.353029 1_555
S9 Zn5 2.374404 1_454
S9 Zn5 2.374405 1_544
S9 Zn5 2.374405 1_445
S10 Zn2 2.354373 1_555
S10 Zn1 2.373920 1_545
S10 Zn1 2.373920 1_554
S10 Zn1 2.373920 1_455
S11 Zn11 2.351507 1_555
S11 Zn3 2.373684 1_565
S11 Zn3 2.373684 1_655
S11 Zn3 2.373684 1_556
