# generated using pymatgen
data_Na4UC3O11
_symmetry_space_group_name_H-M   'P 1'
_cell_length_a   9.24123292
_cell_length_b   9.24123346
_cell_length_c   12.76690930
_cell_angle_alpha   90.00000000
_cell_angle_beta   90.00000000
_cell_angle_gamma   120.00000143
_symmetry_Int_Tables_number   1
_chemical_formula_structural   Na4UC3O11
_chemical_formula_sum   'Na16 U4 C12 O44'
_cell_volume   944.22665680
_cell_formula_units_Z   4
loop_
 _symmetry_equiv_pos_site_id
 _symmetry_equiv_pos_as_xyz
  1  'x, y, z'
loop_
 _atom_site_type_symbol
 _atom_site_label
 _atom_site_symmetry_multiplicity
 _atom_site_fract_x
 _atom_site_fract_y
 _atom_site_fract_z
 _atom_site_occupancy
  Na  Na0  1  0.69211401  0.12949732  0.87501477  1
  Na  Na1  1  0.87050268  0.56261768  0.87501477  1
  Na  Na2  1  0.43738232  0.30788599  0.87501477  1
  Na  Na3  1  0.56261768  0.87050268  0.62498523  1
  Na  Na4  1  0.30788599  0.43738232  0.62498523  1
  Na  Na5  1  0.12949732  0.69211401  0.62498523  1
  Na  Na6  1  0.30788599  0.87050268  0.12498523  1
  Na  Na7  1  0.12949732  0.43738232  0.12498523  1
  Na  Na8  1  0.56261768  0.69211401  0.12498523  1
  Na  Na9  1  0.43738232  0.12949732  0.37501477  1
  Na  Na10  1  0.69211401  0.56261768  0.37501477  1
  Na  Na11  1  0.87050268  0.30788599  0.37501477  1
  Na  Na12  1  0.00000000  0.00000000  0.50000000  1
  Na  Na13  1  0.00000000  0.00000000  -0.00000000  1
  Na  Na14  1  0.00000000  0.00000000  0.75000000  1
  Na  Na15  1  0.00000000  0.00000000  0.25000000  1
  U  U0  1  0.66666700  0.33333300  0.62926606  1
  U  U1  1  0.33333300  0.66666700  0.87073394  1
  U  U2  1  0.33333300  0.66666700  0.37073394  1
  U  U3  1  0.66666700  0.33333300  0.12926606  1
  C  C0  1  0.25220439  0.92577021  0.87193804  1
  C  C1  1  0.07422979  0.32643418  0.87193804  1
  C  C2  1  0.67356582  0.74779561  0.87193804  1
  C  C3  1  0.32643418  0.07422979  0.62806196  1
  C  C4  1  0.74779561  0.67356582  0.62806196  1
  C  C5  1  0.92577021  0.25220439  0.62806196  1
  C  C6  1  0.74779561  0.07422979  0.12806196  1
  C  C7  1  0.92577021  0.67356582  0.12806196  1
  C  C8  1  0.32643418  0.25220439  0.12806196  1
  C  C9  1  0.67356582  0.92577021  0.37193804  1
  C  C10  1  0.25220439  0.32643418  0.37193804  1
  C  C11  1  0.07422979  0.74779561  0.37193804  1
  O  O0  1  0.62508104  0.85664722  0.85664387  1
  O  O1  1  0.14335278  0.76843382  0.85664387  1
  O  O2  1  0.23156618  0.37491896  0.85664387  1
  O  O3  1  0.76843382  0.14335278  0.64335613  1
  O  O4  1  0.37491896  0.23156618  0.64335613  1
  O  O5  1  0.85664722  0.62508104  0.64335613  1
  O  O6  1  0.37491896  0.14335278  0.14335613  1
  O  O7  1  0.85664722  0.23156618  0.14335613  1
  O  O8  1  0.76843382  0.62508104  0.14335613  1
  O  O9  1  0.23156618  0.85664722  0.35664387  1
  O  O10  1  0.62508104  0.76843382  0.35664387  1
  O  O11  1  0.14335278  0.37491896  0.35664387  1
  O  O12  1  0.40475576  0.95554581  0.88212025  1
  O  O13  1  0.04445419  0.44920894  0.88212025  1
  O  O14  1  0.55079106  0.59524424  0.88212025  1
  O  O15  1  0.44920894  0.04445419  0.61787975  1
  O  O16  1  0.59524424  0.55079106  0.61787975  1
  O  O17  1  0.95554581  0.40475576  0.61787975  1
  O  O18  1  0.59524424  0.04445419  0.11787975  1
  O  O19  1  0.95554581  0.55079106  0.11787975  1
  O  O20  1  0.44920894  0.40475576  0.11787975  1
  O  O21  1  0.55079106  0.95554581  0.38212025  1
  O  O22  1  0.40475576  0.44920894  0.38212025  1
  O  O23  1  0.04445419  0.59524424  0.38212025  1
  O  O24  1  0.21334303  0.03752752  0.87738227  1
  O  O25  1  0.96247248  0.17581651  0.87738227  1
  O  O26  1  0.82418349  0.78665697  0.87738227  1
  O  O27  1  0.17581651  0.96247248  0.62261773  1
  O  O28  1  0.78665697  0.82418349  0.62261773  1
  O  O29  1  0.03752752  0.21334303  0.62261773  1
  O  O30  1  0.78665697  0.96247248  0.12261773  1
  O  O31  1  0.03752752  0.82418349  0.12261773  1
  O  O32  1  0.17581651  0.21334303  0.12261773  1
  O  O33  1  0.82418349  0.03752752  0.37738227  1
  O  O34  1  0.21334303  0.17581651  0.37738227  1
  O  O35  1  0.96247248  0.78665697  0.37738227  1
  O  O36  1  0.66666700  0.33333300  0.48474843  1
  O  O37  1  0.33333300  0.66666700  0.01525157  1
  O  O38  1  0.33333300  0.66666700  0.51525157  1
  O  O39  1  0.66666700  0.33333300  0.98474843  1
  O  O40  1  0.66666700  0.33333300  0.77388347  1
  O  O41  1  0.33333300  0.66666700  0.72611653  1
  O  O42  1  0.33333300  0.66666700  0.22611653  1
  O  O43  1  0.66666700  0.33333300  0.27388347  1
loop_
_geom_bond_atom_site_label_1
_geom_bond_atom_site_label_2
_geom_bond_distance
_geom_bond_site_symmetry_2
Na0 O0 2.287924 1_545
Na0 O25 2.314501 1_555
Na0 O12 2.318497 1_545
Na0 O40 2.390314 1_555
Na0 O39 2.451379 1_555
Na1 O1 2.287922 1_655
Na1 O26 2.314502 1_555
Na1 O13 2.318512 1_655
Na1 O40 2.390323 1_555
Na1 O39 2.451388 1_555
Na2 O2 2.287915 1_555
Na2 O24 2.314502 1_555
Na2 O14 2.318495 1_555
Na2 O40 2.390329 1_555
Na2 O39 2.451394 1_555
Na3 O3 2.287922 1_565
Na3 O28 2.314502 1_555
Na3 O15 2.318512 1_565
Na3 O41 2.390323 1_555
Na3 O38 2.451388 1_555
Na4 O4 2.287915 1_555
Na4 O29 2.314501 1_555
Na4 O16 2.318495 1_555
Na4 O41 2.390329 1_555
Na4 O38 2.451395 1_555
Na5 O5 2.287924 1_455
Na5 O27 2.314502 1_555
Na5 O17 2.318497 1_455
Na5 O41 2.390314 1_555
Na5 O38 2.451379 1_555
Na6 O6 2.287924 1_565
Na6 O31 2.314501 1_555
Na6 O18 2.318497 1_565
Na6 O42 2.390314 1_555
Na6 O37 2.451379 1_555
Na7 O7 2.287922 1_455
Na7 O32 2.314502 1_555
Na7 O19 2.318512 1_455
Na7 O42 2.390323 1_555
Na7 O37 2.451388 1_555
Na8 O8 2.287915 1_555
Na8 O30 2.314502 1_555
Na8 O20 2.318495 1_555
Na8 O42 2.390329 1_555
Na8 O37 2.451394 1_555
Na9 O9 2.287922 1_545
Na9 O34 2.314502 1_555
Na9 O21 2.318512 1_545
Na9 O43 2.390323 1_555
Na9 O36 2.451388 1_555
Na10 O10 2.287915 1_555
Na10 O35 2.314501 1_555
Na10 O22 2.318495 1_555
Na10 O43 2.390329 1_555
Na10 O36 2.451395 1_555
Na11 O11 2.287924 1_655
Na11 O33 2.314502 1_555
Na11 O23 2.318497 1_655
Na11 O43 2.390314 1_555
Na11 O36 2.451379 1_555
Na12 O35 2.402954 1_445
Na12 O29 2.402954 1_555
Na12 O34 2.402956 1_555
Na12 O28 2.402956 1_445
Na12 O33 2.402961 1_455
Na12 O27 2.402961 1_545
Na13 O24 2.402954 1_554
Na13 O30 2.402954 1_445
Na13 O26 2.402956 1_444
Na13 O32 2.402956 1_555
Na13 O25 2.402961 1_454
Na13 O31 2.402961 1_545
Na14 O24 2.443018 1_555
Na14 O29 2.443018 1_555
Na14 O28 2.443020 1_445
Na14 O26 2.443020 1_445
Na14 O27 2.443024 1_545
Na14 O25 2.443024 1_455
Na15 O30 2.443018 1_445
Na15 O35 2.443018 1_445
Na15 O34 2.443020 1_555
Na15 O32 2.443020 1_555
Na15 O33 2.443024 1_455
Na15 O31 2.443024 1_545
C0 O24 1.253525 1_565
C0 O12 1.300819 1_555
C0 O1 1.304407 1_555
C1 O25 1.253519 1_455
C1 O13 1.300810 1_555
C1 O2 1.304407 1_555
C2 O26 1.253516 1_555
C2 O14 1.300816 1_555
C2 O0 1.304407 1_555
C3 O27 1.253519 1_545
C3 O15 1.300810 1_555
C3 O4 1.304407 1_555
C4 O28 1.253516 1_555
C4 O16 1.300816 1_555
C4 O5 1.304407 1_555
C5 O29 1.253525 1_655
C5 O17 1.300819 1_555
C5 O3 1.304407 1_555
C6 O30 1.253525 1_545
C6 O18 1.300819 1_555
C6 O7 1.304407 1_555
C7 O31 1.253519 1_655
C7 O19 1.300810 1_555
C7 O8 1.304407 1_555
C8 O32 1.253516 1_555
C8 O20 1.300816 1_555
C8 O6 1.304407 1_555
C9 O33 1.253519 1_565
C9 O21 1.300810 1_555
C9 O10 1.304407 1_555
C10 O34 1.253516 1_555
C10 O22 1.300816 1_555
C10 O11 1.304407 1_555
C11 O35 1.253525 1_455
C11 O23 1.300819 1_555
C11 O9 1.304407 1_555
O0 U1 2.377027 1_555
O1 U1 2.377020 1_555
O2 U1 2.377029 1_555
O3 U0 2.377020 1_555
O4 U0 2.377028 1_555
O5 U0 2.377027 1_555
O6 U3 2.377027 1_555
O7 U3 2.377020 1_555
O8 U3 2.377029 1_555
O9 U2 2.377020 1_555
O10 U2 2.377028 1_555
O11 U2 2.377027 1_555
O12 U1 2.412778 1_555
O13 U1 2.412783 1_555
O14 U1 2.412796 1_555
O15 U0 2.412783 1_555
O16 U0 2.412796 1_555
O17 U0 2.412778 1_555
O18 U3 2.412778 1_555
O19 U3 2.412783 1_555
O20 U3 2.412796 1_555
O21 U2 2.412783 1_555
O22 U2 2.412796 1_555
O23 U2 2.412778 1_555
O36 U0 1.845043 1_555
O37 U1 1.845043 1_554
O38 U2 1.845043 1_555
O39 U3 1.845043 1_556
O40 U0 1.846317 1_555
O41 U1 1.846317 1_555
O42 U2 1.846317 1_555
O43 U3 1.846317 1_555
