# generated using pymatgen
data_K2NaAg3(CN)6
_symmetry_space_group_name_H-M   'P 1'
_cell_length_a   7.18875076
_cell_length_b   7.18875076
_cell_length_c   8.65007400
_cell_angle_alpha   90.00000000
_cell_angle_beta   90.00000000
_cell_angle_gamma   120.00000700
_symmetry_Int_Tables_number   1
_chemical_formula_structural   K2NaAg3(CN)6
_chemical_formula_sum   'K2 Na1 Ag3 C6 N6'
_cell_volume   387.13040063
_cell_formula_units_Z   1
loop_
 _symmetry_equiv_pos_site_id
 _symmetry_equiv_pos_as_xyz
  1  'x, y, z'
loop_
 _atom_site_type_symbol
 _atom_site_label
 _atom_site_symmetry_multiplicity
 _atom_site_fract_x
 _atom_site_fract_y
 _atom_site_fract_z
 _atom_site_occupancy
  K  K0  1  0.33333300  0.66666700  0.50000000  1
  K  K1  1  0.66666700  0.33333300  0.50000000  1
  Na  Na0  1  0.00000000  0.00000000  0.50000000  1
  Ag  Ag0  1  0.00000000  0.50000000  0.00000000  1
  Ag  Ag1  1  0.50000000  0.00000000  0.00000000  1
  Ag  Ag2  1  0.50000000  0.50000000  0.00000000  1
  C  C0  1  0.63358600  0.00000000  0.78998600  1
  C  C1  1  0.36641400  0.36641400  0.78998600  1
  C  C2  1  0.63358600  0.63358600  0.21001400  1
  C  C3  1  0.00000000  0.36641400  0.21001400  1
  C  C4  1  0.00000000  0.63358600  0.78998600  1
  C  C5  1  0.36641400  0.00000000  0.21001400  1
  N  N0  1  0.70385500  0.00000000  0.66750600  1
  N  N1  1  0.00000000  0.29614500  0.33249400  1
  N  N2  1  0.70385500  0.70385500  0.33249400  1
  N  N3  1  0.29614500  0.00000000  0.33249400  1
  N  N4  1  0.29614500  0.29614500  0.66750600  1
  N  N5  1  0.00000000  0.70385500  0.66750600  1
loop_
_geom_bond_atom_site_label_1
_geom_bond_atom_site_label_2
_geom_bond_distance
_geom_bond_site_symmetry_2
K0 N5 2.924637 1_555
K0 N3 2.924637 1_565
K0 N0 2.924640 1_565
K0 N1 2.924640 1_555
K0 N4 2.924643 1_555
K0 N2 2.924643 1_555
K1 N0 2.924637 1_555
K1 N1 2.924637 1_655
K1 N5 2.924640 1_655
K1 N3 2.924640 1_555
K1 N4 2.924643 1_555
K1 N2 2.924643 1_555
Ag0 C3 2.054842 1_555
Ag0 C4 2.054842 1_554
Ag1 C5 2.054842 1_555
Ag1 C0 2.054842 1_554
Ag2 C2 2.054842 1_555
Ag2 C1 2.054842 1_554
C0 N0 1.173725 1_555
C1 N4 1.173725 1_555
C2 N2 1.173725 1_555
C3 N1 1.173725 1_555
C4 N5 1.173725 1_555
C5 N3 1.173725 1_555
N0 Na0 2.575208 1_655
N1 Na0 2.575208 1_555
N2 Na0 2.575207 1_665
N3 Na0 2.575208 1_555
N4 Na0 2.575207 1_555
N5 Na0 2.575208 1_565
