# generated using pymatgen
data_Ce2P3Au
_symmetry_space_group_name_H-M   'P 1'
_cell_length_a   4.19836021
_cell_length_b   7.73889008
_cell_length_c   16.12555633
_cell_angle_alpha   90.00000000
_cell_angle_beta   90.00000000
_cell_angle_gamma   90.00000000
_symmetry_Int_Tables_number   1
_chemical_formula_structural   Ce2P3Au
_chemical_formula_sum   'Ce8 P12 Au4'
_cell_volume   523.92977745
_cell_formula_units_Z   4
loop_
 _symmetry_equiv_pos_site_id
 _symmetry_equiv_pos_as_xyz
  1  'x, y, z'
loop_
 _atom_site_type_symbol
 _atom_site_label
 _atom_site_symmetry_multiplicity
 _atom_site_fract_x
 _atom_site_fract_y
 _atom_site_fract_z
 _atom_site_occupancy
  Ce  Ce0  1  0.25000000  0.23678596  0.47543580  1
  Ce  Ce1  1  0.75000000  0.89885591  0.79540751  1
  Ce  Ce2  1  0.75000000  0.26321404  0.97543580  1
  Ce  Ce3  1  0.75000000  0.39885591  0.70459249  1
  Ce  Ce4  1  0.25000000  0.60114409  0.29540751  1
  Ce  Ce5  1  0.25000000  0.10114409  0.20459249  1
  Ce  Ce6  1  0.75000000  0.76321404  0.52456420  1
  Ce  Ce7  1  0.25000000  0.73678596  0.02456420  1
  P  P0  1  0.25000000  0.38445349  0.08825362  1
  P  P1  1  0.25000000  0.70237672  0.70082327  1
  P  P2  1  0.75000000  0.11554651  0.58825362  1
  P  P3  1  0.75000000  0.29762328  0.29917673  1
  P  P4  1  0.75000000  0.79762328  0.20082327  1
  P  P5  1  0.25000000  0.88445349  0.41174638  1
  P  P6  1  0.25000000  0.53084683  0.59408729  1
  P  P7  1  0.75000000  0.61554651  0.91174638  1
  P  P8  1  0.75000000  0.96915317  0.09408729  1
  P  P9  1  0.25000000  0.20237672  0.79917673  1
  P  P10  1  0.75000000  0.46915317  0.40591271  1
  P  P11  1  0.25000000  0.03084683  0.90591271  1
  Au  Au0  1  0.25000000  0.00909759  0.64987298  1
  Au  Au1  1  0.75000000  0.99090241  0.35012702  1
  Au  Au2  1  0.25000000  0.50909759  0.85012702  1
  Au  Au3  1  0.75000000  0.49090241  0.14987298  1
loop_
_geom_bond_atom_site_label_1
_geom_bond_atom_site_label_2
_geom_bond_distance
_geom_bond_site_symmetry_2
Ce0 P5 2.913670 1_545
Ce0 P2 2.931989 1_555
Ce0 P2 2.931989 1_455
Ce0 P6 2.973152 1_555
Ce0 P10 2.982813 1_555
Ce0 P10 2.982813 1_455
Ce1 P7 2.885575 1_555
Ce1 P11 2.936889 1_665
Ce1 P11 2.936889 1_565
Ce1 P1 3.007470 1_555
Ce1 P1 3.007470 1_655
Ce1 P9 3.150817 1_565
Ce1 P9 3.150817 1_665
Ce2 P7 2.913670 1_555
Ce2 P0 2.931989 1_656
Ce2 P0 2.931989 1_556
Ce2 P8 2.973152 1_546
Ce2 P11 2.982813 1_655
Ce2 P11 2.982813 1_555
Ce3 P2 2.885575 1_555
Ce3 P6 2.936889 1_555
Ce3 P6 2.936889 1_655
Ce3 P9 3.007470 1_555
Ce3 P9 3.007470 1_655
Ce3 P1 3.150817 1_555
Ce3 P1 3.150817 1_655
Ce4 P5 2.885575 1_555
Ce4 P10 2.936889 1_555
Ce4 P10 2.936889 1_455
Ce4 P4 3.007470 1_555
Ce4 P4 3.007470 1_455
Ce4 P3 3.150817 1_455
Ce4 P3 3.150817 1_555
Ce5 P0 2.885575 1_555
Ce5 P8 2.936889 1_445
Ce5 P8 2.936889 1_545
Ce5 P3 3.007470 1_455
Ce5 P3 3.007470 1_555
Ce5 P4 3.150817 1_545
Ce5 P4 3.150817 1_445
Ce6 P2 2.913670 1_565
Ce6 P5 2.931989 1_655
Ce6 P5 2.931989 1_555
Ce6 P10 2.973152 1_555
Ce6 P6 2.982813 1_655
Ce6 P6 2.982813 1_555
Ce7 P0 2.913670 1_555
Ce7 P7 2.931989 1_554
Ce7 P7 2.931989 1_454
Ce7 P11 2.973152 1_564
Ce7 P8 2.982813 1_455
Ce7 P8 2.982813 1_555
P1 P6 2.173609 1_555
P4 P8 2.173609 1_555
P10 P3 2.173609 1_555
P11 P9 2.173609 1_555
Au0 P2 2.464251 1_555
Au0 P2 2.464251 1_455
Au0 P1 2.511848 1_545
Au0 P9 2.834410 1_555
Au0 Ce1 3.262209 1_445
Au0 Ce1 3.262209 1_545
Au0 Ce0 3.319221 1_555
Au0 Ce6 3.480026 1_545
Au0 Ce6 3.480026 1_445
Au1 P5 2.464251 1_555
Au1 P5 2.464251 1_655
Au1 P3 2.511848 1_565
Au1 P4 2.834410 1_555
Au1 Ce5 3.262209 1_565
Au1 Ce5 3.262209 1_665
Au1 Ce6 3.319221 1_555
Au1 Ce0 3.480026 1_665
Au1 Ce0 3.480026 1_565
Au2 P7 2.464251 1_555
Au2 P7 2.464251 1_455
Au2 P9 2.511848 1_555
Au2 P1 2.834410 1_555
Au2 Ce3 3.262209 1_555
Au2 Ce3 3.262209 1_455
Au2 Ce7 3.319221 1_556
Au2 Ce2 3.480026 1_555
Au2 Ce2 3.480026 1_455
Au3 P0 2.464251 1_655
Au3 P0 2.464251 1_555
Au3 P4 2.511848 1_555
Au3 P3 2.834410 1_555
Au3 Ce4 3.262209 1_555
Au3 Ce4 3.262209 1_655
Au3 Ce2 3.319221 1_554
Au3 Ce7 3.480026 1_655
Au3 Ce7 3.480026 1_555
