# generated using pymatgen
data_UH12(NO4)2
_symmetry_space_group_name_H-M   'P 1'
_cell_length_a   5.65348400
_cell_length_b   5.99691994
_cell_length_c   6.31418669
_cell_angle_alpha   105.01186833
_cell_angle_beta   90.80529243
_cell_angle_gamma   96.05479218
_symmetry_Int_Tables_number   1
_chemical_formula_structural   UH12(NO4)2
_chemical_formula_sum   'U1 H12 N2 O8'
_cell_volume   205.42280685
_cell_formula_units_Z   1
loop_
 _symmetry_equiv_pos_site_id
 _symmetry_equiv_pos_as_xyz
  1  'x, y, z'
loop_
 _atom_site_type_symbol
 _atom_site_label
 _atom_site_symmetry_multiplicity
 _atom_site_fract_x
 _atom_site_fract_y
 _atom_site_fract_z
 _atom_site_occupancy
  U  U0  1  0.50000000  0.50000000  0.50000000  1
  H  H0  1  0.28312700  0.61068700  0.95118800  1
  H  H1  1  0.71687300  0.38931300  0.04881200  1
  H  H2  1  0.20518500  0.79311400  0.82710900  1
  H  H3  1  0.79481500  0.20688600  0.17289100  1
  H  H4  1  0.05348400  0.63861600  0.30755000  1
  H  H5  1  0.94651600  0.36138400  0.69245000  1
  H  H6  1  0.22504200  0.89779100  0.39275700  1
  H  H7  1  0.77495800  0.10220900  0.60724300  1
  H  H8  1  0.35341800  0.16913200  0.84723700  1
  H  H9  1  0.64658200  0.83086800  0.15276300  1
  H  H10  1  0.20621900  0.14527300  0.05001300  1
  H  H11  1  0.79378100  0.85472700  0.94998700  1
  N  N0  1  0.77906800  0.27968700  0.63545900  1
  N  N1  1  0.22093200  0.72031300  0.36454100  1
  O  O0  1  0.70415700  0.76951400  0.61034200  1
  O  O1  1  0.29584300  0.23048600  0.38965800  1
  O  O2  1  0.61172700  0.36206800  0.79383400  1
  O  O3  1  0.38827300  0.63793200  0.20616600  1
  O  O4  1  0.77427300  0.37624000  0.19628100  1
  O  O5  1  0.22572700  0.62376000  0.80371900  1
  O  O6  1  0.79192400  0.91419500  0.11008100  1
  O  O7  1  0.20807600  0.08580500  0.88991900  1
loop_
_geom_bond_atom_site_label_1
_geom_bond_atom_site_label_2
_geom_bond_distance
_geom_bond_site_symmetry_2
H0 O5 1.006567 1_555
H0 O3 1.669858 1_556
H1 O4 1.006567 1_555
H1 O2 1.669858 1_554
H2 O5 1.007179 1_555
H3 O4 1.007179 1_555
H4 N1 1.032932 1_555
H5 N0 1.032932 1_555
H6 N1 1.030290 1_555
H7 N0 1.030290 1_555
H8 O7 0.993418 1_555
H9 O6 0.993418 1_555
H10 O7 0.981566 1_554
H11 O6 0.981566 1_556
N0 O2 1.417172 1_555
N1 O3 1.417172 1_555
O0 U0 1.852127 1_555
O1 U0 1.852127 1_555
O2 U0 2.323295 1_555
O3 U0 2.323295 1_555
