# generated using pymatgen
data_SnHg2(SBr)2
_symmetry_space_group_name_H-M   'P 1'
_cell_length_a   9.03509400
_cell_length_b   10.46548800
_cell_length_c   14.49226345
_cell_angle_alpha   69.44072217
_cell_angle_beta   90.00000000
_cell_angle_gamma   90.00000000
_symmetry_Int_Tables_number   1
_chemical_formula_structural   SnHg2(SBr)2
_chemical_formula_sum   'Sn4 Hg8 S8 Br8'
_cell_volume   1283.06230858
_cell_formula_units_Z   4
loop_
 _symmetry_equiv_pos_site_id
 _symmetry_equiv_pos_as_xyz
  1  'x, y, z'
loop_
 _atom_site_type_symbol
 _atom_site_label
 _atom_site_symmetry_multiplicity
 _atom_site_fract_x
 _atom_site_fract_y
 _atom_site_fract_z
 _atom_site_occupancy
  Sn  Sn0  1  0.37769100  0.85261900  0.46511000  1
  Sn  Sn1  1  0.87769100  0.14738100  0.03489000  1
  Sn  Sn2  1  0.12230900  0.85261900  0.96511000  1
  Sn  Sn3  1  0.62230900  0.14738100  0.53489000  1
  Hg  Hg0  1  0.82747600  0.45321100  0.61540700  1
  Hg  Hg1  1  0.67252400  0.45321100  0.11540700  1
  Hg  Hg2  1  0.57047000  0.31837500  0.81602500  1
  Hg  Hg3  1  0.07047000  0.68162500  0.68397500  1
  Hg  Hg4  1  0.17252400  0.54678900  0.38459300  1
  Hg  Hg5  1  0.32747600  0.54678900  0.88459300  1
  Hg  Hg6  1  0.42953000  0.68162500  0.18397500  1
  Hg  Hg7  1  0.92953000  0.31837500  0.31602500  1
  S  S0  1  0.03111600  0.34642900  0.45774200  1
  S  S1  1  0.46888400  0.34642900  0.95774200  1
  S  S2  1  0.18482500  0.74711400  0.80826800  1
  S  S3  1  0.31517500  0.74711400  0.30826800  1
  S  S4  1  0.96888400  0.65357100  0.54225800  1
  S  S5  1  0.68482500  0.25288600  0.69173200  1
  S  S6  1  0.81517500  0.25288600  0.19173200  1
  S  S7  1  0.53111600  0.65357100  0.04225800  1
  Br  Br0  1  0.05445700  0.62124400  0.11135100  1
  Br  Br1  1  0.34452700  0.05586700  0.57712300  1
  Br  Br2  1  0.44554300  0.62124400  0.61135100  1
  Br  Br3  1  0.84452700  0.94413300  0.92287700  1
  Br  Br4  1  0.15547300  0.05586700  0.07712300  1
  Br  Br5  1  0.65547300  0.94413300  0.42287700  1
  Br  Br6  1  0.94554300  0.37875600  0.88864900  1
  Br  Br7  1  0.55445700  0.37875600  0.38864900  1
loop_
_geom_bond_atom_site_label_1
_geom_bond_atom_site_label_2
_geom_bond_distance
_geom_bond_site_symmetry_2
Hg0 S4 2.364689 1_555
Hg0 S5 2.377234 1_555
Hg1 S7 2.364689 1_555
Hg1 S6 2.377234 1_555
Hg2 S1 2.360135 1_555
Hg2 S5 2.376759 1_555
Hg3 S4 2.360135 1_455
Hg3 S2 2.376759 1_555
Hg4 S0 2.364689 1_555
Hg4 S3 2.377234 1_555
Hg5 S1 2.364689 1_555
Hg5 S2 2.377234 1_555
Hg6 S7 2.360135 1_555
Hg6 S3 2.376759 1_555
Hg7 S0 2.360135 1_655
Hg7 S6 2.376759 1_555
S2 Sn2 2.909889 1_555
S3 Sn0 2.909889 1_555
S5 Sn3 2.909889 1_555
S6 Sn1 2.909889 1_555
Br0 Sn2 2.669556 1_554
Br1 Sn3 2.679401 1_555
Br1 Sn0 3.110411 1_545
Br2 Sn0 2.669556 1_555
Br3 Sn2 2.679401 1_655
Br3 Sn1 3.110411 1_566
Br4 Sn1 2.679401 1_455
Br4 Sn2 3.110411 1_544
Br5 Sn0 2.679401 1_555
Br5 Sn3 3.110411 1_565
Br6 Sn1 2.669556 1_556
Br7 Sn3 2.669556 1_555
