# generated using pymatgen
data_La6Ge11
_symmetry_space_group_name_H-M   'P 1'
_cell_length_a   8.83590618
_cell_length_b   12.98102448
_cell_length_c   14.36626271
_cell_angle_alpha   89.99219995
_cell_angle_beta   89.97943912
_cell_angle_gamma   89.87101087
_symmetry_Int_Tables_number   1
_chemical_formula_structural   La6Ge11
_chemical_formula_sum   'La24 Ge44'
_cell_volume   1647.79331271
_cell_formula_units_Z   4
loop_
 _symmetry_equiv_pos_site_id
 _symmetry_equiv_pos_as_xyz
  1  'x, y, z'
loop_
 _atom_site_type_symbol
 _atom_site_label
 _atom_site_symmetry_multiplicity
 _atom_site_fract_x
 _atom_site_fract_y
 _atom_site_fract_z
 _atom_site_occupancy
  La  La0  1  0.12019092  0.16503325  0.87546428  1
  La  La1  1  0.86819574  0.16861604  0.12248115  1
  La  La2  1  0.12979521  0.00266903  0.62328802  1
  La  La3  1  0.61856286  0.83278598  0.87847915  1
  La  La4  1  0.62950897  0.16486860  0.87602644  1
  La  La5  1  0.87054560  0.33566409  0.37635205  1
  La  La6  1  0.63182235  0.33191647  0.62235776  1
  La  La7  1  0.37012289  0.49720395  0.12321941  1
  La  La8  1  0.37040321  0.83522903  0.12383944  1
  La  La9  1  0.88155988  0.66668123  0.37881059  1
  La  La10  1  0.38145163  0.16726912  0.12140752  1
  La  La11  1  0.87984338  0.83500095  0.12436136  1
  La  La12  1  0.37968337  0.99596640  0.37546398  1
  La  La13  1  0.12939720  0.66431166  0.62380356  1
  La  La14  1  0.87021756  0.99734425  0.37679853  1
  La  La15  1  0.62019303  0.66447686  0.62438636  1
  La  La16  1  0.12037600  0.50406100  0.87524617  1
  La  La17  1  0.37975048  0.33550598  0.37572501  1
  La  La18  1  0.13179462  0.83136554  0.87733599  1
  La  La19  1  0.62030759  0.00411742  0.62463316  1
  La  La20  1  0.11859274  0.33334405  0.62131383  1
  La  La21  1  0.36813577  0.66810347  0.37775365  1
  La  La22  1  0.62978152  0.50267566  0.87659073  1
  La  La23  1  0.87975625  0.49582244  0.12454743  1
  Ge  Ge0  1  0.12532634  0.29384369  0.22169821  1
  Ge  Ge1  1  0.37856694  0.50372200  0.54824276  1
  Ge  Ge2  1  0.87374767  0.15137436  0.71235533  1
  Ge  Ge3  1  0.37458689  0.20640776  0.72138412  1
  Ge  Ge4  1  0.64288108  0.83499764  0.45678100  1
  Ge  Ge5  1  0.37381381  0.65126748  0.78751927  1
  Ge  Ge6  1  0.12626896  0.84848948  0.28775247  1
  Ge  Ge7  1  0.62802295  0.66663489  0.06983831  1
  Ge  Ge8  1  0.87170924  0.50188021  0.54286798  1
  Ge  Ge9  1  0.37368813  0.01563228  0.78569622  1
  Ge  Ge10  1  0.12240350  0.66722336  0.03733902  1
  Ge  Ge11  1  0.12137556  0.99634479  0.04813160  1
  Ge  Ge12  1  0.60638377  0.33381517  0.03813037  1
  Ge  Ge13  1  0.12829678  0.49821474  0.45717667  1
  Ge  Ge14  1  0.12396125  0.66661744  0.20976898  1
  Ge  Ge15  1  0.35698111  0.16503360  0.54332897  1
  Ge  Ge16  1  0.87383735  0.51578536  0.71443893  1
  Ge  Ge17  1  0.62619312  0.34862530  0.21242740  1
  Ge  Ge18  1  0.62618965  0.98443750  0.21431165  1
  Ge  Ge19  1  0.62527905  0.79372743  0.27866109  1
  Ge  Ge20  1  0.37587217  0.83325646  0.70968953  1
  Ge  Ge21  1  0.10630732  0.83368627  0.46188807  1
  Ge  Ge22  1  0.37203644  0.33328593  0.93009313  1
  Ge  Ge23  1  0.62406441  0.54077909  0.27653233  1
  Ge  Ge24  1  0.62140588  0.49635039  0.45186055  1
  Ge  Ge25  1  0.12410404  0.04070759  0.22339193  1
  Ge  Ge26  1  0.37763247  0.83241727  0.53742145  1
  Ge  Ge27  1  0.12622965  0.48430917  0.28559842  1
  Ge  Ge28  1  0.87867744  0.00379443  0.95173116  1
  Ge  Ge29  1  0.87765451  0.33270893  0.96249759  1
  Ge  Ge30  1  0.14297216  0.33508771  0.04314927  1
  Ge  Ge31  1  0.37166341  0.00191003  0.95709959  1
  Ge  Ge32  1  0.87195446  0.83287952  0.56998107  1
  Ge  Ge33  1  0.87590159  0.95918004  0.77667197  1
  Ge  Ge34  1  0.12807190  0.16711059  0.43007984  1
  Ge  Ge35  1  0.87610915  0.33328810  0.79015033  1
  Ge  Ge36  1  0.87481828  0.70641434  0.77836909  1
  Ge  Ge37  1  0.62399569  0.16677467  0.29041483  1
  Ge  Ge38  1  0.89374913  0.16645180  0.53829400  1
  Ge  Ge39  1  0.37586555  0.45890088  0.72368566  1
  Ge  Ge40  1  0.39364749  0.66602918  0.96173285  1
  Ge  Ge41  1  0.62228040  0.16753708  0.46272026  1
  Ge  Ge42  1  0.85717683  0.66483418  0.95658701  1
  Ge  Ge43  1  0.62830771  0.99819939  0.04282417  1
loop_
_geom_bond_atom_site_label_1
_geom_bond_atom_site_label_2
_geom_bond_distance
_geom_bond_site_symmetry_2
Ge0 Ge30 2.624940 1_555
Ge0 Ge27 2.637510 1_555
Ge0 La1 3.139381 1_455
Ge0 La10 3.143050 1_555
Ge0 La17 3.201890 1_555
Ge0 La5 3.207852 1_455
Ge0 La23 3.675053 1_455
Ge0 La7 3.697474 1_555
Ge1 Ge24 2.554885 1_555
Ge1 Ge13 2.570924 1_555
Ge1 Ge39 2.586778 1_555
Ge1 La15 3.183035 1_555
Ge1 La13 3.217057 1_555
Ge1 La21 3.249408 1_555
Ge1 La17 3.303375 1_555
Ge1 La6 3.330710 1_555
Ge1 La20 3.360169 1_555
Ge2 Ge38 2.514418 1_555
Ge2 Ge35 2.612817 1_555
Ge2 Ge33 2.660397 1_545
Ge2 La4 3.195548 1_555
Ge2 La0 3.204617 1_655
Ge2 La19 3.206081 1_555
Ge2 La2 3.234342 1_655
Ge2 La6 3.422322 1_555
Ge2 La20 3.462802 1_655
Ge3 Ge9 2.643108 1_555
Ge3 La6 3.139766 1_555
Ge3 La20 3.143756 1_555
Ge3 La0 3.200394 1_555
Ge3 La4 3.209021 1_555
Ge3 La19 3.676223 1_555
Ge3 La2 3.699734 1_555
Ge4 La14 3.132614 1_555
Ge4 La9 3.233336 1_555
Ge4 La19 3.267009 1_565
Ge4 La15 3.276877 1_555
Ge4 La12 3.334470 1_555
Ge4 La21 3.449955 1_555
Ge5 La13 3.197881 1_555
Ge5 La15 3.202980 1_555
Ge5 La16 3.204866 1_555
Ge5 La22 3.233430 1_555
Ge5 La18 3.417582 1_555
Ge5 La3 3.458655 1_555
Ge6 La8 3.197323 1_555
Ge6 La11 3.207352 1_455
Ge6 La12 3.207571 1_555
Ge6 La14 3.235400 1_455
Ge6 La21 3.420635 1_555
Ge6 La9 3.460707 1_455
Ge7 La11 3.219433 1_555
Ge7 La23 3.234239 1_555
Ge7 La8 3.248049 1_555
Ge7 La7 3.261765 1_555
Ge7 La3 3.494882 1_554
Ge7 La22 3.498445 1_554
Ge8 La9 3.184082 1_555
Ge8 La5 3.221767 1_555
Ge8 La6 3.268530 1_555
Ge8 La15 3.277662 1_555
Ge8 La20 3.285529 1_655
Ge8 La13 3.317581 1_655
Ge9 La19 3.181174 1_555
Ge9 La2 3.181442 1_555
Ge9 La0 3.228070 1_555
Ge9 La4 3.250984 1_555
Ge9 La18 3.470325 1_545
Ge9 La3 3.474196 1_545
Ge10 Ge14 2.477229 1_555
Ge10 Ge42 2.615563 1_454
Ge10 Ge40 2.630988 1_554
Ge10 La18 3.135284 1_554
Ge10 La16 3.148102 1_554
Ge10 La11 3.298120 1_455
Ge10 La8 3.335648 1_555
Ge10 La23 3.337014 1_455
Ge10 La7 3.341194 1_555
Ge11 Ge28 2.554838 1_464
Ge11 Ge31 2.570014 1_564
Ge11 Ge25 2.583062 1_565
Ge11 La11 3.187211 1_455
Ge11 La8 3.221674 1_555
Ge11 La18 3.258209 1_554
Ge11 La0 3.308602 1_564
Ge11 La1 3.335063 1_465
Ge11 La10 3.367091 1_565
Ge12 Ge17 2.517577 1_555
Ge12 Ge22 2.588259 1_554
Ge12 Ge29 2.631357 1_554
Ge12 La10 3.173691 1_555
Ge12 La22 3.198997 1_554
Ge12 La4 3.205294 1_554
Ge12 La7 3.213979 1_555
Ge12 La1 3.376047 1_555
Ge12 La23 3.438653 1_555
Ge13 Ge27 2.471640 1_555
Ge13 Ge8 2.579812 1_455
Ge13 La20 3.185501 1_555
Ge13 La13 3.221912 1_555
Ge13 La21 3.267261 1_555
Ge13 La17 3.277882 1_555
Ge13 La9 3.283676 1_455
Ge13 La5 3.318392 1_455
Ge14 Ge27 2.605151 1_555
Ge14 Ge6 2.613483 1_555
Ge14 La9 3.237486 1_455
Ge14 La21 3.237778 1_555
Ge14 La11 3.303904 1_455
Ge14 La8 3.327920 1_555
Ge14 La7 3.330239 1_555
Ge14 La23 3.330857 1_455
Ge15 Ge34 2.596314 1_555
Ge15 Ge41 2.614497 1_555
Ge15 Ge3 2.618585 1_555
Ge15 La2 3.131793 1_555
Ge15 La20 3.231687 1_555
Ge15 La12 3.266755 1_545
Ge15 La17 3.276483 1_555
Ge15 La19 3.334771 1_555
Ge15 La6 3.450468 1_555
Ge16 Ge8 2.471540 1_555
Ge16 Ge35 2.606672 1_555
Ge16 Ge36 2.639653 1_555
Ge16 La22 3.178653 1_555
Ge16 La16 3.179245 1_655
Ge16 La15 3.225532 1_555
Ge16 La13 3.244773 1_655
Ge16 La6 3.470667 1_555
Ge16 La20 3.471500 1_655
Ge17 Ge37 2.612965 1_555
Ge17 Ge23 2.659078 1_555
Ge17 La5 3.199652 1_555
Ge17 La17 3.205027 1_555
Ge17 La23 3.206433 1_555
Ge17 La7 3.234738 1_555
Ge17 La1 3.417407 1_555
Ge17 La10 3.457501 1_555
Ge18 Ge43 2.470146 1_555
Ge18 Ge37 2.607399 1_565
Ge18 Ge19 2.642501 1_555
Ge18 La12 3.181431 1_555
Ge18 La14 3.183040 1_555
Ge18 La11 3.230350 1_555
Ge18 La8 3.251372 1_555
Ge18 La1 3.471188 1_565
Ge18 La10 3.473984 1_565
Ge19 Ge4 2.619215 1_555
Ge19 La21 3.140385 1_555
Ge19 La9 3.146842 1_555
Ge19 La11 3.203398 1_555
Ge19 La8 3.210438 1_555
Ge19 La12 3.675379 1_555
Ge19 La14 3.699588 1_555
Ge20 Ge26 2.474917 1_555
Ge20 Ge9 2.607273 1_565
Ge20 Ge5 2.613606 1_555
Ge20 La18 3.232471 1_555
Ge20 La3 3.237615 1_555
Ge20 La15 3.307558 1_555
Ge20 La2 3.329309 1_565
Ge20 La19 3.331089 1_565
Ge20 La13 3.331533 1_555
Ge21 Ge6 2.515180 1_555
Ge21 Ge32 2.587905 1_455
Ge21 Ge26 2.631922 1_555
Ge21 La9 3.176417 1_455
Ge21 La2 3.199224 1_565
Ge21 La13 3.206786 1_555
Ge21 La14 3.215654 1_455
Ge21 La21 3.377806 1_555
Ge21 La12 3.440053 1_555
Ge22 Ge30 2.594712 1_556
Ge22 La0 3.218956 1_555
Ge22 La16 3.233947 1_555
Ge22 La4 3.245822 1_555
Ge22 La22 3.260855 1_555
Ge22 La10 3.493292 1_556
Ge22 La7 3.496741 1_556
Ge23 Ge24 2.584028 1_555
Ge23 La21 3.153028 1_555
Ge23 La9 3.166454 1_555
Ge23 La23 3.194247 1_555
Ge23 La7 3.196149 1_555
Ge24 Ge8 2.570756 1_555
Ge24 La17 3.183934 1_555
Ge24 La5 3.217434 1_555
Ge24 La6 3.249939 1_555
Ge24 La15 3.302693 1_555
Ge24 La21 3.330305 1_555
Ge24 La9 3.360760 1_555
Ge25 Ge6 2.660906 1_545
Ge25 La1 3.155355 1_455
Ge25 La10 3.167037 1_555
Ge25 La12 3.194895 1_545
Ge25 La14 3.195029 1_445
Ge26 Ge4 2.614312 1_555
Ge26 La21 3.133767 1_555
Ge26 La12 3.149611 1_555
Ge26 La15 3.299561 1_555
Ge26 La13 3.336430 1_555
Ge26 La19 3.340592 1_565
Ge26 La2 3.343432 1_565
Ge27 La7 3.179920 1_555
Ge27 La23 3.181271 1_455
Ge27 La17 3.226068 1_555
Ge27 La5 3.247138 1_455
Ge27 La21 3.469812 1_555
Ge27 La9 3.470900 1_455
Ge28 Ge43 2.571094 1_546
Ge28 Ge33 2.580981 1_545
Ge28 La0 3.186386 1_655
Ge28 La4 3.222158 1_555
Ge28 La1 3.256385 1_556
Ge28 La11 3.309104 1_546
Ge28 La18 3.336272 1_645
Ge28 La3 3.367938 1_545
Ge29 Ge35 2.476039 1_555
Ge29 Ge30 2.615642 1_656
Ge29 La1 3.134661 1_556
Ge29 La23 3.147223 1_556
Ge29 La0 3.297172 1_655
Ge29 La4 3.334935 1_555
Ge29 La16 3.337245 1_655
Ge29 La22 3.341772 1_555
Ge30 La7 3.130746 1_555
Ge30 La10 3.229591 1_555
Ge30 La16 3.265949 1_554
Ge30 La0 3.274233 1_554
Ge30 La23 3.332707 1_455
Ge30 La1 3.447374 1_455
Ge31 Ge9 2.468897 1_555
Ge31 Ge43 2.581261 1_546
Ge31 La10 3.192076 1_556
Ge31 La8 3.227760 1_546
Ge31 La18 3.275646 1_545
Ge31 La0 3.282761 1_555
Ge31 La3 3.291225 1_545
Ge31 La4 3.322819 1_555
Ge32 Ge4 2.597007 1_555
Ge32 La15 3.218451 1_555
Ge32 La19 3.237056 1_565
Ge32 La13 3.246361 1_655
Ge32 La2 3.264821 1_665
Ge32 La9 3.493572 1_555
Ge32 La14 3.501249 1_555
Ge33 La18 3.152991 1_655
Ge33 La3 3.164674 1_555
Ge33 La19 3.195120 1_565
Ge33 La2 3.195140 1_665
Ge34 Ge38 2.588726 1_455
Ge34 La17 3.217704 1_555
Ge34 La12 3.235882 1_545
Ge34 La5 3.246428 1_455
Ge34 La14 3.264615 1_445
Ge34 La20 3.494546 1_555
Ge34 La2 3.501357 1_555
Ge35 La20 3.235760 1_655
Ge35 La6 3.236371 1_555
Ge35 La0 3.302094 1_655
Ge35 La4 3.326910 1_555
Ge35 La16 3.330357 1_655
Ge35 La22 3.330388 1_555
Ge36 Ge42 2.621186 1_555
Ge36 La18 3.134896 1_655
Ge36 La3 3.141316 1_555
Ge36 La15 3.203313 1_555
Ge36 La13 3.206341 1_655
Ge36 La16 3.676962 1_655
Ge36 La22 3.700824 1_555
Ge37 Ge41 2.475447 1_555
Ge37 La1 3.236261 1_555
Ge37 La10 3.239101 1_555
Ge37 La17 3.306746 1_555
Ge37 La12 3.329888 1_545
Ge37 La14 3.330201 1_545
Ge37 La5 3.331765 1_555
Ge38 Ge41 2.633308 1_555
Ge38 La20 3.175638 1_655
Ge38 La14 3.201355 1_545
Ge38 La5 3.205681 1_555
Ge38 La2 3.215951 1_655
Ge38 La6 3.377063 1_555
Ge38 La19 3.440452 1_555
Ge39 Ge5 2.660320 1_555
Ge39 La6 3.151609 1_555
Ge39 La20 3.163343 1_555
Ge39 La16 3.189300 1_555
Ge39 La22 3.192418 1_555
Ge40 Ge5 2.516352 1_555
Ge40 Ge7 2.589051 1_556
Ge40 La3 3.175339 1_555
Ge40 La7 3.198205 1_556
Ge40 La8 3.207637 1_556
Ge40 La22 3.213241 1_555
Ge40 La18 3.377661 1_555
Ge40 La16 3.438076 1_555
Ge41 La6 3.134040 1_555
Ge41 La19 3.148000 1_555
Ge41 La17 3.299794 1_555
Ge41 La5 3.336712 1_555
Ge41 La12 3.339265 1_545
Ge41 La14 3.343797 1_545
Ge42 Ge7 2.597084 1_556
Ge42 La22 3.132115 1_555
Ge42 La3 3.230778 1_555
Ge42 La23 3.266883 1_556
Ge42 La11 3.276097 1_556
Ge42 La16 3.332627 1_655
Ge42 La18 3.446488 1_655
Ge43 La3 3.192934 1_554
Ge43 La4 3.228272 1_564
Ge43 La1 3.274097 1_565
Ge43 La11 3.283263 1_555
Ge43 La10 3.290319 1_565
Ge43 La8 3.322983 1_555
