# generated using pymatgen
data_BaGa2(SiO4)2
_symmetry_space_group_name_H-M   'P 1'
_cell_length_a   9.56994223
_cell_length_b   9.56994223
_cell_length_c   8.84834120
_cell_angle_alpha   82.26956269
_cell_angle_beta   82.26956269
_cell_angle_gamma   88.89248540
_symmetry_Int_Tables_number   1
_chemical_formula_structural   BaGa2(SiO4)2
_chemical_formula_sum   'Ba4 Ga8 Si8 O32'
_cell_volume   795.70158345
_cell_formula_units_Z   4
loop_
 _symmetry_equiv_pos_site_id
 _symmetry_equiv_pos_as_xyz
  1  'x, y, z'
loop_
 _atom_site_type_symbol
 _atom_site_label
 _atom_site_symmetry_multiplicity
 _atom_site_fract_x
 _atom_site_fract_y
 _atom_site_fract_z
 _atom_site_occupancy
  Ba  Ba0  1  0.56386800  0.06521800  0.71442200  1
  Ba  Ba1  1  0.93478200  0.43613200  0.78557800  1
  Ba  Ba2  1  0.43613200  0.93478200  0.28557800  1
  Ba  Ba3  1  0.06521800  0.56386800  0.21442200  1
  Ga  Ga0  1  0.30430900  0.43537500  0.88630400  1
  Ga  Ga1  1  0.56462500  0.69569100  0.61369600  1
  Ga  Ga2  1  0.69569100  0.56462500  0.11369600  1
  Ga  Ga3  1  0.43537500  0.30430900  0.38630400  1
  Ga  Ga4  1  0.95130800  0.20042300  0.46458400  1
  Ga  Ga5  1  0.79957700  0.04869200  0.03541600  1
  Ga  Ga6  1  0.04869200  0.79957700  0.53541600  1
  Ga  Ga7  1  0.20042300  0.95130800  0.96458400  1
  Si  Si0  1  0.28567100  0.56154700  0.52162600  1
  Si  Si1  1  0.43845300  0.71432900  0.97837400  1
  Si  Si2  1  0.71432900  0.43845300  0.47837400  1
  Si  Si3  1  0.56154700  0.28567100  0.02162600  1
  Si  Si4  1  0.07336500  0.21482800  0.09523700  1
  Si  Si5  1  0.78517200  0.92663500  0.40476300  1
  Si  Si6  1  0.92663500  0.78517200  0.90476300  1
  Si  Si7  1  0.21482800  0.07336500  0.59523700  1
  O  O0  1  0.32278700  0.58767200  0.99138800  1
  O  O1  1  0.41232800  0.67721300  0.50861200  1
  O  O2  1  0.67721300  0.41232800  0.00861200  1
  O  O3  1  0.58767200  0.32278700  0.49138800  1
  O  O4  1  0.81947100  0.05925400  0.49489500  1
  O  O5  1  0.94074600  0.18052900  0.00510500  1
  O  O6  1  0.18052900  0.94074600  0.50510500  1
  O  O7  1  0.05925400  0.81947100  0.99489500  1
  O  O8  1  0.45355900  0.31481600  0.89089200  1
  O  O9  1  0.68518400  0.54644100  0.60910800  1
  O  O10  1  0.54644100  0.68518400  0.10910800  1
  O  O11  1  0.31481600  0.45355900  0.39089200  1
  O  O12  1  0.91717300  0.81632800  0.39932900  1
  O  O13  1  0.18367200  0.08282700  0.10067100  1
  O  O14  1  0.08282700  0.18367200  0.60067100  1
  O  O15  1  0.81632800  0.91717300  0.89932900  1
  O  O16  1  0.24532300  0.47938900  0.69615100  1
  O  O17  1  0.52061100  0.75467700  0.80384900  1
  O  O18  1  0.75467700  0.52061100  0.30384900  1
  O  O19  1  0.47938900  0.24532300  0.19615100  1
  O  O20  1  0.86599600  0.63476800  0.00471900  1
  O  O21  1  0.36523200  0.13400400  0.49528100  1
  O  O22  1  0.13400400  0.36523200  0.99528100  1
  O  O23  1  0.63476800  0.86599600  0.50471900  1
  O  O24  1  0.14305100  0.64310800  0.46869900  1
  O  O25  1  0.35689200  0.85694900  0.03130100  1
  O  O26  1  0.85694900  0.35689200  0.53130100  1
  O  O27  1  0.64310800  0.14305100  0.96869900  1
  O  O28  1  0.97379300  0.73784300  0.73431800  1
  O  O29  1  0.26215700  0.02620700  0.76568200  1
  O  O30  1  0.02620700  0.26215700  0.26568200  1
  O  O31  1  0.73784300  0.97379300  0.23431800  1
loop_
_geom_bond_atom_site_label_1
_geom_bond_atom_site_label_2
_geom_bond_distance
_geom_bond_site_symmetry_2
Ba0 O27 2.669034 1_555
Ba0 O23 2.846270 1_545
Ba0 O29 2.885434 1_555
Ba0 O21 2.899413 1_555
Ba0 O4 2.916500 1_555
Ba0 O3 2.935038 1_555
Ba0 O17 2.992698 1_545
Ba0 O8 3.117795 1_555
Ba0 O15 3.290722 1_545
Ba1 O26 2.669034 1_555
Ba1 O22 2.846270 1_655
Ba1 O28 2.885434 1_555
Ba1 O20 2.899413 1_556
Ba1 O5 2.916500 1_556
Ba1 O2 2.935038 1_556
Ba1 O16 2.992698 1_655
Ba1 O9 3.117795 1_555
Ba1 O14 3.290722 1_655
Ba2 O25 2.669034 1_555
Ba2 O21 2.846270 1_565
Ba2 O31 2.885434 1_555
Ba2 O23 2.899413 1_555
Ba2 O6 2.916500 1_555
Ba2 O1 2.935038 1_555
Ba2 O19 2.992698 1_565
Ba2 O10 3.117795 1_555
Ba2 O13 3.290722 1_565
Ba3 O24 2.669034 1_555
Ba3 O20 2.846270 1_455
Ba3 O30 2.885434 1_555
Ba3 O22 2.899413 1_554
Ba3 O7 2.916500 1_554
Ba3 O0 2.935038 1_554
Ba3 O18 2.992698 1_455
Ba3 O11 3.117795 1_555
Ba3 O12 3.290722 1_455
Ga0 O8 1.819930 1_555
Ga0 O16 1.839204 1_555
Ga0 O0 1.854411 1_555
Ga0 O22 1.866025 1_555
Ga1 O9 1.819930 1_555
Ga1 O17 1.839204 1_555
Ga1 O1 1.854411 1_555
Ga1 O23 1.866025 1_555
Ga2 O10 1.819930 1_555
Ga2 O18 1.839204 1_555
Ga2 O2 1.854411 1_555
Ga2 O20 1.866025 1_555
Ga3 O11 1.819930 1_555
Ga3 O19 1.839204 1_555
Ga3 O3 1.854411 1_555
Ga3 O21 1.866025 1_555
Ga4 O30 1.832352 1_655
Ga4 O4 1.834741 1_555
Ga4 O14 1.846024 1_655
Ga4 O26 1.856948 1_555
Ga5 O31 1.832352 1_545
Ga5 O5 1.834741 1_555
Ga5 O15 1.846024 1_544
Ga5 O27 1.856948 1_554
Ga6 O28 1.832352 1_455
Ga6 O6 1.834741 1_555
Ga6 O12 1.846024 1_455
Ga6 O24 1.856948 1_555
Ga7 O29 1.832352 1_565
Ga7 O7 1.834741 1_555
Ga7 O13 1.846024 1_566
Ga7 O25 1.856948 1_556
O0 Si1 1.639432 1_555
O1 Si0 1.639432 1_555
O2 Si3 1.639432 1_555
O3 Si2 1.639432 1_555
O4 Si5 1.647229 1_545
O5 Si4 1.647229 1_655
O6 Si7 1.647229 1_565
O7 Si6 1.647229 1_455
O8 Si3 1.645477 1_556
O9 Si2 1.645477 1_555
O10 Si1 1.645477 1_554
O11 Si0 1.645477 1_555
O12 Si5 1.630403 1_555
O13 Si4 1.630403 1_555
O14 Si7 1.630403 1_555
O15 Si6 1.630403 1_555
O16 Si0 1.636059 1_555
O17 Si1 1.636059 1_555
O18 Si2 1.636059 1_555
O19 Si3 1.636059 1_555
O20 Si6 1.656046 1_554
O21 Si7 1.656046 1_555
O22 Si4 1.656046 1_556
O23 Si5 1.656046 1_555
O24 Si0 1.650408 1_555
O25 Si1 1.650408 1_554
O26 Si2 1.650408 1_555
O27 Si3 1.650408 1_556
O28 Si6 1.635884 1_555
O29 Si7 1.635884 1_555
O30 Si4 1.635884 1_555
O31 Si5 1.635884 1_555
