# generated using pymatgen
data_Bi9AuBr9
_symmetry_space_group_name_H-M   'P 1'
_cell_length_a   15.59380700
_cell_length_b   10.87644900
_cell_length_c   15.08766167
_cell_angle_alpha   86.99184386
_cell_angle_beta   90.00000000
_cell_angle_gamma   90.00000000
_symmetry_Int_Tables_number   1
_chemical_formula_structural   Bi9AuBr9
_chemical_formula_sum   'Bi36 Au4 Br36'
_cell_volume   2555.42054032
_cell_formula_units_Z   4
loop_
 _symmetry_equiv_pos_site_id
 _symmetry_equiv_pos_as_xyz
  1  'x, y, z'
loop_
 _atom_site_type_symbol
 _atom_site_label
 _atom_site_symmetry_multiplicity
 _atom_site_fract_x
 _atom_site_fract_y
 _atom_site_fract_z
 _atom_site_occupancy
  Bi  Bi0  1  0.31497600  0.41459900  0.06482100  1
  Bi  Bi1  1  0.54921400  0.77261900  0.02664600  1
  Bi  Bi2  1  0.99440400  0.77569000  0.22432900  1
  Bi  Bi3  1  0.13606400  0.44722800  0.35417200  1
  Bi  Bi4  1  0.50559600  0.77569000  0.72432900  1
  Bi  Bi5  1  0.85670100  0.05309300  0.81206800  1
  Bi  Bi6  1  0.85215500  0.30990100  0.52395300  1
  Bi  Bi7  1  0.92928500  0.38123700  0.32904800  1
  Bi  Bi8  1  0.64187900  0.96746600  0.69253400  1
  Bi  Bi9  1  0.04921400  0.22738100  0.47335400  1
  Bi  Bi10  1  0.35670100  0.94690700  0.68793200  1
  Bi  Bi11  1  0.14784500  0.69009900  0.47604700  1
  Bi  Bi12  1  0.57071500  0.38123700  0.82904800  1
  Bi  Bi13  1  0.86393600  0.55277200  0.64582800  1
  Bi  Bi14  1  0.07071500  0.61876300  0.67095200  1
  Bi  Bi15  1  0.85812100  0.96746600  0.19253400  1
  Bi  Bi16  1  0.64784500  0.30990100  0.02395300  1
  Bi  Bi17  1  0.81497600  0.58540100  0.43517900  1
  Bi  Bi18  1  0.95078600  0.77261900  0.52664600  1
  Bi  Bi19  1  0.14187900  0.03253400  0.80746600  1
  Bi  Bi20  1  0.49440400  0.22431000  0.27567100  1
  Bi  Bi21  1  0.14329900  0.94690700  0.18793200  1
  Bi  Bi22  1  0.98681300  0.66852300  0.04423600  1
  Bi  Bi23  1  0.35812100  0.03253400  0.30746600  1
  Bi  Bi24  1  0.42928500  0.61876300  0.17095200  1
  Bi  Bi25  1  0.00559600  0.22431000  0.77567100  1
  Bi  Bi26  1  0.45078600  0.22738100  0.97335400  1
  Bi  Bi27  1  0.64329900  0.05309300  0.31206800  1
  Bi  Bi28  1  0.68502400  0.58540100  0.93517900  1
  Bi  Bi29  1  0.51318700  0.66852300  0.54423600  1
  Bi  Bi30  1  0.01318700  0.33147700  0.95576400  1
  Bi  Bi31  1  0.35215500  0.69009900  0.97604700  1
  Bi  Bi32  1  0.63606400  0.55277200  0.14582800  1
  Bi  Bi33  1  0.48681300  0.33147700  0.45576400  1
  Bi  Bi34  1  0.36393600  0.44722800  0.85417200  1
  Bi  Bi35  1  0.18502400  0.41459900  0.56482100  1
  Au  Au0  1  0.00574400  0.38301800  0.61778800  1
  Au  Au1  1  0.99425600  0.61698200  0.38221200  1
  Au  Au2  1  0.49425600  0.38301800  0.11778800  1
  Au  Au3  1  0.50574400  0.61698200  0.88221200  1
  Br  Br0  1  0.66495200  0.82386500  0.51403000  1
  Br  Br1  1  0.85191800  0.16904500  0.98632200  1
  Br  Br2  1  0.88896800  0.50599900  0.87104000  1
  Br  Br3  1  0.38896800  0.49400100  0.62896000  1
  Br  Br4  1  0.37114200  0.99457600  0.12414100  1
  Br  Br5  1  0.75474900  0.25799200  0.74615900  1
  Br  Br6  1  0.36738100  0.97878100  0.87793500  1
  Br  Br7  1  0.24829000  0.23415700  0.24216300  1
  Br  Br8  1  0.64808200  0.16904500  0.48632200  1
  Br  Br9  1  0.14808200  0.83095500  0.01367800  1
  Br  Br10  1  0.86971300  0.49495600  0.12362700  1
  Br  Br11  1  0.61103200  0.50599900  0.37104000  1
  Br  Br12  1  0.50381000  0.85497800  0.32094000  1
  Br  Br13  1  0.25474900  0.74200800  0.75384100  1
  Br  Br14  1  0.74525100  0.25799200  0.24615900  1
  Br  Br15  1  0.99619000  0.85497800  0.82094000  1
  Br  Br16  1  0.13028700  0.50504400  0.87637300  1
  Br  Br17  1  0.35191800  0.83095500  0.51367800  1
  Br  Br18  1  0.75171000  0.76584300  0.75783700  1
  Br  Br19  1  0.63028700  0.49495600  0.62362700  1
  Br  Br20  1  0.25171000  0.23415700  0.74216300  1
  Br  Br21  1  0.00381000  0.14502200  0.17906000  1
  Br  Br22  1  0.83504800  0.82386500  0.01403000  1
  Br  Br23  1  0.63261900  0.02121900  0.12206500  1
  Br  Br24  1  0.24525100  0.74200800  0.25384100  1
  Br  Br25  1  0.86738100  0.02121900  0.62206500  1
  Br  Br26  1  0.12885800  0.99457600  0.62414100  1
  Br  Br27  1  0.49619000  0.14502200  0.67906000  1
  Br  Br28  1  0.33504800  0.17613500  0.48597000  1
  Br  Br29  1  0.36971300  0.50504400  0.37637300  1
  Br  Br30  1  0.13261900  0.97878100  0.37793500  1
  Br  Br31  1  0.62885800  0.00542400  0.87585900  1
  Br  Br32  1  0.11103200  0.49400100  0.12896000  1
  Br  Br33  1  0.74829000  0.76584300  0.25783700  1
  Br  Br34  1  0.87114200  0.00542400  0.37585900  1
  Br  Br35  1  0.16495200  0.17613500  0.98597000  1
loop_
_geom_bond_atom_site_label_1
_geom_bond_atom_site_label_2
_geom_bond_distance
_geom_bond_site_symmetry_2
Bi0 Bi31 3.269196 1_554
Bi0 Bi34 3.269773 1_554
Bi0 Bi26 3.291024 1_554
Bi0 Bi24 3.323489 1_555
Bi0 Br7 3.397225 1_555
Bi0 Br32 3.447328 1_555
Bi1 Bi28 3.291024 1_554
Bi1 Br23 3.388762 1_565
Bi3 Bi35 3.269773 1_555
Bi4 Bi8 2.998698 1_555
Bi5 Br5 2.872338 1_555
Bi5 Br25 2.910361 1_555
Bi5 Br1 2.975927 1_555
Bi5 Br15 3.059754 1_545
Bi6 Br25 3.408570 1_555
Bi8 Br31 2.825239 1_565
Bi8 Br18 2.913119 1_555
Bi8 Br27 2.981754 1_565
Bi8 Br0 3.203709 1_555
Bi9 Br30 3.388762 1_545
Bi10 Br13 2.872338 1_555
Bi10 Br6 2.910361 1_555
Bi10 Br17 2.975927 1_555
Bi10 Br27 3.059754 1_565
Bi11 Bi35 3.269196 1_555
Bi11 Br30 3.408570 1_555
Bi12 Bi28 3.323489 1_555
Bi13 Bi17 3.269773 1_555
Bi14 Bi35 3.323489 1_555
Bi15 Br34 2.825239 1_565
Bi15 Br33 2.913119 1_555
Bi15 Br21 2.981754 1_665
Bi15 Bi2 2.998698 1_555
Bi15 Br22 3.203709 1_555
Bi16 Bi28 3.269196 1_554
Bi16 Br23 3.408570 1_555
Bi17 Bi6 3.269196 1_555
Bi17 Bi18 3.291024 1_555
Bi17 Bi7 3.323489 1_555
Bi17 Br33 3.397225 1_555
Bi17 Br11 3.447328 1_555
Bi18 Br25 3.388762 1_565
Bi19 Br26 2.825239 1_545
Bi19 Br20 2.913119 1_555
Bi19 Br15 2.981754 1_445
Bi19 Bi25 2.998698 1_555
Bi19 Br35 3.203709 1_555
Bi20 Bi23 2.998698 1_555
Bi21 Br24 2.872338 1_555
Bi21 Br30 2.910361 1_555
Bi21 Br9 2.975927 1_555
Bi21 Br21 3.059754 1_565
Bi22 Br10 2.845280 1_555
Bi22 Br22 2.929555 1_555
Bi22 Br32 2.955434 1_655
Bi22 Br9 3.093938 1_655
Bi23 Br4 2.825239 1_545
Bi23 Br7 2.913119 1_555
Bi23 Br12 2.981754 1_545
Bi23 Br28 3.203709 1_555
Bi26 Br6 3.388762 1_545
Bi27 Br14 2.872338 1_555
Bi27 Br23 2.910361 1_555
Bi27 Br8 2.975927 1_555
Bi27 Br12 3.059754 1_545
Bi28 Bi32 3.269773 1_556
Bi28 Br18 3.397225 1_555
Bi28 Br2 3.447328 1_555
Bi29 Br19 2.845280 1_555
Bi29 Br0 2.929555 1_555
Bi29 Br3 2.955434 1_555
Bi29 Br17 3.093938 1_555
Bi30 Br16 2.845280 1_555
Bi30 Br35 2.929555 1_555
Bi30 Br2 2.955434 1_455
Bi30 Br1 3.093938 1_455
Bi31 Br6 3.408570 1_555
Bi33 Br29 2.845280 1_555
Bi33 Br28 2.929555 1_555
Bi33 Br11 2.955434 1_555
Bi33 Br8 3.093938 1_555
Bi35 Bi9 3.291024 1_555
Bi35 Br20 3.397225 1_555
Bi35 Br3 3.447328 1_555
Au0 Bi25 2.867483 1_555
Au0 Bi14 2.908637 1_555
Au0 Bi9 2.908771 1_555
Au0 Bi6 2.913958 1_455
Au0 Bi35 2.922929 1_555
Au0 Bi13 2.925718 1_455
Au1 Bi2 2.867483 1_555
Au1 Bi7 2.908637 1_555
Au1 Bi18 2.908771 1_555
Au1 Bi11 2.913958 1_655
Au1 Bi17 2.922929 1_555
Au1 Bi3 2.925718 1_655
Au2 Bi20 2.867483 1_555
Au2 Bi24 2.908637 1_555
Au2 Bi26 2.908771 1_554
Au2 Bi16 2.913958 1_555
Au2 Bi0 2.922929 1_555
Au2 Bi32 2.925718 1_555
Au3 Bi4 2.867483 1_555
Au3 Bi12 2.908637 1_555
Au3 Bi1 2.908771 1_556
Au3 Bi31 2.913958 1_555
Au3 Bi28 2.922929 1_555
Au3 Bi34 2.925718 1_555
