# generated using pymatgen
data_CeZn11
_symmetry_space_group_name_H-M   'P 1'
_cell_length_a   8.16094366
_cell_length_b   8.16094366
_cell_length_c   8.16094366
_cell_angle_alpha   99.98606498
_cell_angle_beta   99.98606498
_cell_angle_gamma   130.78199504
_symmetry_Int_Tables_number   1
_chemical_formula_structural   CeZn11
_chemical_formula_sum   'Ce2 Zn22'
_cell_volume   374.17724601
_cell_formula_units_Z   2
loop_
 _symmetry_equiv_pos_site_id
 _symmetry_equiv_pos_as_xyz
  1  'x, y, z'
loop_
 _atom_site_type_symbol
 _atom_site_label
 _atom_site_symmetry_multiplicity
 _atom_site_fract_x
 _atom_site_fract_y
 _atom_site_fract_z
 _atom_site_occupancy
  Ce  Ce0  1  0.00000000  -0.00000000  0.00000000  1
  Ce  Ce1  1  0.25000000  0.75000000  0.50000000  1
  Zn  Zn0  1  0.75889335  0.17557714  0.82785298  1
  Zn  Zn1  1  0.62500000  0.87500000  0.25000000  1
  Zn  Zn2  1  0.06895963  0.24110665  0.41668379  1
  Zn  Zn3  1  0.34772416  0.17557714  0.41668379  1
  Zn  Zn4  1  0.06895963  0.65227584  0.82785298  1
  Zn  Zn5  1  0.90227584  0.57442286  0.08331621  1
  Zn  Zn6  1  0.34772416  0.93104037  0.17214702  1
  Zn  Zn7  1  0.75000000  0.25000000  0.50000000  1
  Zn  Zn8  1  0.90227584  0.81895963  0.32785298  1
  Zn  Zn9  1  0.50000000  0.50000000  0.00000000  1
  Zn  Zn10  1  0.42557714  0.09772416  0.91668379  1
  Zn  Zn11  1  0.62500000  0.37500000  0.25000000  1
  Zn  Zn12  1  0.49110665  0.57442286  0.67214702  1
  Zn  Zn13  1  0.18104037  0.09772416  0.67214702  1
  Zn  Zn14  1  0.75889335  0.93104037  0.58331621  1
  Zn  Zn15  1  0.82442286  0.65227584  0.58331621  1
  Zn  Zn16  1  0.42557714  0.50889335  0.32785298  1
  Zn  Zn17  1  0.49110665  0.81895963  0.91668379  1
  Zn  Zn18  1  0.18104037  0.50889335  0.08331621  1
  Zn  Zn19  1  0.82442286  0.24110665  0.17214702  1
  Zn  Zn20  1  0.12500000  0.37500000  0.75000000  1
  Zn  Zn21  1  0.62500000  0.37500000  0.75000000  1
loop_
_geom_bond_atom_site_label_1
_geom_bond_atom_site_label_2
_geom_bond_distance
_geom_bond_site_symmetry_2
Ce0 Zn13 3.247993 1_554
Ce0 Zn18 3.247993 1_555
Ce0 Zn8 3.247993 1_445
Ce0 Zn16 3.247993 1_555
Ce0 Zn17 3.247993 1_444
Ce0 Zn5 3.247993 1_445
Ce0 Zn10 3.247993 1_554
Ce0 Zn12 3.247993 1_444
Ce0 Zn14 3.364686 1_444
Ce0 Zn4 3.364686 1_544
Ce0 Zn0 3.364686 1_454
Ce0 Zn2 3.364686 1_555
Ce0 Zn6 3.364686 1_545
Ce0 Zn3 3.364686 1_555
Ce0 Zn19 3.364686 1_455
Ce0 Zn15 3.364686 1_444
Ce0 Zn9 3.398410 1_555
Ce0 Zn9 3.398410 1_445
Ce1 Zn3 3.247993 1_565
Ce1 Zn6 3.247993 1_555
Ce1 Zn0 3.247993 1_565
Ce1 Zn4 3.247993 1_555
Ce1 Zn2 3.247993 1_555
Ce1 Zn15 3.247993 1_455
Ce1 Zn19 3.247993 1_455
Ce1 Zn14 3.247993 1_555
Ce1 Zn17 3.364686 1_555
Ce1 Zn5 3.364686 1_455
Ce1 Zn18 3.364686 1_555
Ce1 Zn12 3.364686 1_555
Ce1 Zn8 3.364686 1_455
Ce1 Zn16 3.364686 1_555
Ce1 Zn13 3.364686 1_565
Ce1 Zn10 3.364686 1_565
Ce1 Zn7 3.398410 1_455
Ce1 Zn7 3.398410 1_565
Zn0 Zn14 2.565931 1_545
Zn0 Zn20 2.577574 1_655
Zn0 Zn21 2.585991 1_555
Zn0 Zn17 2.596910 1_545
Zn0 Zn10 2.629538 1_555
Zn0 Zn18 2.629538 1_656
Zn0 Zn19 2.655350 1_556
Zn0 Zn7 2.843724 1_555
Zn0 Zn5 2.852238 1_556
Zn0 Zn4 2.945764 1_655
Zn1 Zn16 2.577574 1_555
Zn1 Zn2 2.577574 1_665
Zn1 Zn18 2.577574 1_555
Zn1 Zn19 2.577574 1_565
Zn1 Zn6 2.585991 1_555
Zn1 Zn8 2.585991 1_555
Zn1 Zn14 2.585991 1_555
Zn1 Zn17 2.585991 1_554
Zn1 Zn9 2.757408 1_555
Zn1 Zn7 2.757408 1_565
Zn2 Zn20 2.585991 1_555
Zn2 Zn8 2.629538 1_445
Zn2 Zn3 2.655350 1_555
Zn2 Zn7 2.843724 1_455
Zn3 Zn6 2.565931 1_545
Zn3 Zn8 2.596910 1_445
Zn3 Zn7 2.843724 1_555
Zn4 Zn5 2.629538 1_456
Zn4 Zn6 2.655350 1_556
Zn4 Zn7 2.843724 1_455
Zn5 Zn8 2.565931 1_555
Zn5 Zn6 2.596910 1_655
Zn5 Zn9 2.843724 1_555
Zn6 Zn7 2.843724 1_565
Zn8 Zn9 2.843724 1_555
Zn10 Zn13 2.565931 1_555
Zn10 Zn21 2.577574 1_555
Zn10 Zn11 2.585991 1_556
Zn10 Zn4 2.596910 1_545
Zn10 Zn6 2.629538 1_546
Zn10 Zn17 2.655350 1_545
Zn10 Zn9 2.843724 1_556
Zn10 Zn19 2.852238 1_556
Zn10 Zn5 2.945764 1_556
Zn11 Zn3 2.577574 1_555
Zn11 Zn6 2.577574 1_545
Zn11 Zn5 2.577574 1_555
Zn11 Zn8 2.577574 1_555
Zn11 Zn16 2.585991 1_555
Zn11 Zn15 2.585991 1_555
Zn11 Zn19 2.585991 1_555
Zn11 Zn9 2.757408 1_555
Zn11 Zn7 2.757408 1_555
Zn12 Zn17 2.565931 1_555
Zn12 Zn20 2.577574 1_555
Zn12 Zn21 2.585991 1_555
Zn12 Zn14 2.596910 1_555
Zn12 Zn15 2.629538 1_555
Zn12 Zn2 2.629538 1_555
Zn12 Zn16 2.655350 1_555
Zn12 Zn9 2.843724 1_556
Zn12 Zn3 2.852238 1_555
Zn12 Zn13 2.945764 1_555
Zn13 Zn21 2.577574 1_555
Zn13 Zn20 2.585991 1_555
Zn13 Zn15 2.596910 1_445
Zn13 Zn14 2.629538 1_445
Zn13 Zn3 2.629538 1_555
Zn13 Zn8 2.655350 1_445
Zn13 Zn9 2.843724 1_556
Zn13 Zn2 2.852238 1_555
Zn14 Zn20 2.577574 1_665
Zn14 Zn16 2.629538 1_555
Zn14 Zn15 2.655350 1_555
Zn14 Zn7 2.843724 1_565
Zn14 Zn8 2.852238 1_555
Zn14 Zn2 2.945764 1_665
Zn15 Zn4 2.565931 1_655
Zn15 Zn21 2.577574 1_555
Zn15 Zn8 2.629538 1_555
Zn15 Zn7 2.843724 1_555
Zn15 Zn16 2.852238 1_555
Zn15 Zn3 2.945764 1_555
Zn16 Zn18 2.565931 1_555
Zn16 Zn2 2.596910 1_555
Zn16 Zn3 2.629538 1_555
Zn16 Zn9 2.843724 1_555
Zn16 Zn8 2.945764 1_555
Zn17 Zn20 2.577574 1_555
Zn17 Zn19 2.629538 1_566
Zn17 Zn4 2.629538 1_555
Zn17 Zn9 2.843724 1_556
Zn17 Zn6 2.852238 1_556
Zn17 Zn18 2.945764 1_556
Zn18 Zn20 2.585991 1_554
Zn18 Zn19 2.596910 1_455
Zn18 Zn6 2.629538 1_555
Zn18 Zn5 2.655350 1_455
Zn18 Zn9 2.843724 1_555
Zn18 Zn4 2.852238 1_554
Zn19 Zn2 2.565931 1_655
Zn19 Zn5 2.629538 1_555
Zn19 Zn7 2.843724 1_555
Zn19 Zn6 2.945764 1_545
Zn20 Zn4 2.585991 1_555
Zn20 Zn7 2.757408 1_455
Zn20 Zn9 2.757408 1_556
Zn21 Zn4 2.577574 1_655
Zn21 Zn3 2.585991 1_555
Zn21 Zn5 2.585991 1_556
Zn21 Zn9 2.757408 1_556
Zn21 Zn7 2.757408 1_555
