# generated using pymatgen
data_K2CuH4(Cl2O)2
_symmetry_space_group_name_H-M   'P 1'
_cell_length_a   7.47384200
_cell_length_b   7.47384200
_cell_length_c   7.91125100
_cell_angle_alpha   90.00000000
_cell_angle_beta   90.00000000
_cell_angle_gamma   90.00000000
_symmetry_Int_Tables_number   1
_chemical_formula_structural   K2CuH4(Cl2O)2
_chemical_formula_sum   'K4 Cu2 H8 Cl8 O4'
_cell_volume   441.90914440
_cell_formula_units_Z   2
loop_
 _symmetry_equiv_pos_site_id
 _symmetry_equiv_pos_as_xyz
  1  'x, y, z'
loop_
 _atom_site_type_symbol
 _atom_site_label
 _atom_site_symmetry_multiplicity
 _atom_site_fract_x
 _atom_site_fract_y
 _atom_site_fract_z
 _atom_site_occupancy
  K  K0  1  0.00000000  0.50000000  0.25000000  1
  K  K1  1  0.50000000  0.00000000  0.75000000  1
  K  K2  1  0.00000000  0.50000000  0.75000000  1
  K  K3  1  0.50000000  0.00000000  0.25000000  1
  Cu  Cu0  1  0.50000000  0.50000000  0.50000000  1
  Cu  Cu1  1  0.00000000  0.00000000  0.00000000  1
  H  H0  1  0.42375100  0.57624900  0.17812500  1
  H  H1  1  0.57624900  0.42375100  0.17812500  1
  H  H2  1  0.07624900  0.07624900  0.67812500  1
  H  H3  1  0.92375100  0.92375100  0.67812500  1
  H  H4  1  0.57624900  0.42375100  0.82187500  1
  H  H5  1  0.42375100  0.57624900  0.82187500  1
  H  H6  1  0.92375100  0.92375100  0.32187500  1
  H  H7  1  0.07624900  0.07624900  0.32187500  1
  Cl  Cl0  1  0.28109500  0.71890500  0.50000000  1
  Cl  Cl1  1  0.71890500  0.28109500  0.50000000  1
  Cl  Cl2  1  0.21890500  0.21890500  0.00000000  1
  Cl  Cl3  1  0.78109500  0.78109500  0.00000000  1
  Cl  Cl4  1  0.28009300  0.71990700  0.00000000  1
  Cl  Cl5  1  0.71990700  0.28009300  0.00000000  1
  Cl  Cl6  1  0.21990700  0.21990700  0.50000000  1
  Cl  Cl7  1  0.78009300  0.78009300  0.50000000  1
  O  O0  1  0.50000000  0.50000000  0.25179500  1
  O  O1  1  0.00000000  0.00000000  0.75179500  1
  O  O2  1  0.50000000  0.50000000  0.74820500  1
  O  O3  1  0.00000000  0.00000000  0.24820500  1
loop_
_geom_bond_atom_site_label_1
_geom_bond_atom_site_label_2
_geom_bond_distance
_geom_bond_site_symmetry_2
Cu0 O0 1.963612 1_555
Cu0 O2 1.963612 1_555
Cu1 O3 1.963612 1_555
Cu1 O1 1.963612 1_554
H0 O0 0.994581 1_555
H1 O0 0.994581 1_555
H2 O1 0.994581 1_555
H3 O1 0.994581 1_665
H4 O2 0.994581 1_555
H5 O2 0.994581 1_555
H6 O3 0.994581 1_665
H7 O3 0.994581 1_555
Cl0 Cu0 2.313740 1_555
Cl0 K0 3.316934 1_555
Cl0 K3 3.316934 1_565
Cl0 K2 3.316934 1_555
Cl0 K1 3.316934 1_565
Cl1 Cu0 2.313740 1_555
Cl1 K2 3.316934 1_655
Cl1 K1 3.316934 1_555
Cl1 K3 3.316934 1_555
Cl1 K0 3.316934 1_655
Cl2 Cu1 2.313740 1_555
Cl2 K1 3.316934 1_554
Cl2 K3 3.316934 1_555
Cl2 K0 3.316934 1_555
Cl2 K2 3.316934 1_554
Cl3 Cu1 2.313740 1_665
Cl3 K0 3.316934 1_655
Cl3 K3 3.316934 1_565
Cl3 K2 3.316934 1_654
Cl3 K1 3.316934 1_564
Cl4 H0 2.071566 1_555
Cl4 H5 2.071566 1_554
Cl4 Cu1 2.960473 1_565
Cl4 K0 3.315901 1_555
Cl4 K2 3.315901 1_554
Cl4 K3 3.315901 1_565
Cl4 K1 3.315901 1_564
Cl5 H1 2.071566 1_555
Cl5 H4 2.071566 1_554
Cl5 Cu1 2.960473 1_655
Cl5 K3 3.315901 1_555
Cl5 K1 3.315901 1_554
Cl5 K2 3.315901 1_654
Cl5 K0 3.315901 1_655
Cl6 H2 2.071566 1_555
Cl6 H7 2.071566 1_555
Cl6 Cu0 2.960473 1_555
Cl6 K3 3.315901 1_555
Cl6 K1 3.315901 1_555
Cl6 K2 3.315901 1_555
Cl6 K0 3.315901 1_555
Cl7 H3 2.071566 1_555
Cl7 H6 2.071566 1_555
Cl7 Cu0 2.960473 1_555
Cl7 K1 3.315901 1_565
Cl7 K2 3.315901 1_655
Cl7 K0 3.315901 1_655
Cl7 K3 3.315901 1_565
