# generated using pymatgen
data_Rb3Ce(PSe4)2
_symmetry_space_group_name_H-M   'P 1'
_cell_length_a   9.68822661
_cell_length_b   10.24438477
_cell_length_c   18.39758532
_cell_angle_alpha   90.00000000
_cell_angle_beta   90.00000000
_cell_angle_gamma   90.85464735
_symmetry_Int_Tables_number   1
_chemical_formula_structural   Rb3Ce(PSe4)2
_chemical_formula_sum   'Rb12 Ce4 P8 Se32'
_cell_volume   1825.75575913
_cell_formula_units_Z   4
loop_
 _symmetry_equiv_pos_site_id
 _symmetry_equiv_pos_as_xyz
  1  'x, y, z'
loop_
 _atom_site_type_symbol
 _atom_site_label
 _atom_site_symmetry_multiplicity
 _atom_site_fract_x
 _atom_site_fract_y
 _atom_site_fract_z
 _atom_site_occupancy
  Rb  Rb0  1  0.39007390  0.36719085  0.29411368  1
  Rb  Rb1  1  0.23710380  0.01691649  0.96473233  1
  Rb  Rb2  1  0.76289620  0.98308351  0.03526767  1
  Rb  Rb3  1  0.90221094  0.35924150  0.21059915  1
  Rb  Rb4  1  0.90221094  0.85924150  0.28940085  1
  Rb  Rb5  1  0.60992610  0.13280915  0.79411368  1
  Rb  Rb6  1  0.76289620  0.48308351  0.46473233  1
  Rb  Rb7  1  0.60992610  0.63280915  0.70588632  1
  Rb  Rb8  1  0.39007390  0.86719085  0.20588632  1
  Rb  Rb9  1  0.23710380  0.51691649  0.53526767  1
  Rb  Rb10  1  0.09778906  0.64075850  0.78940085  1
  Rb  Rb11  1  0.09778906  0.14075850  0.71059915  1
  Ce  Ce0  1  0.27340331  0.97388434  0.48683614  1
  Ce  Ce1  1  0.72659669  0.52611566  0.98683614  1
  Ce  Ce2  1  0.27340331  0.47388434  0.01316386  1
  Ce  Ce3  1  0.72659669  0.02611566  0.51316386  1
  P  P0  1  0.50189775  0.76073222  0.39714979  1
  P  P1  1  0.50189775  0.26073222  0.10285021  1
  P  P2  1  0.02721132  0.22165786  0.40247516  1
  P  P3  1  0.97278868  0.27834214  0.90247516  1
  P  P4  1  0.49810225  0.73926778  0.89714979  1
  P  P5  1  0.97278868  0.77834214  0.59752484  1
  P  P6  1  0.49810225  0.23926778  0.60285021  1
  P  P7  1  0.02721132  0.72165786  0.09752484  1
  Se  Se0  1  0.95998952  0.32500920  0.02184911  1
  Se  Se1  1  0.82612772  0.41011756  0.84607844  1
  Se  Se2  1  0.82612772  0.91011756  0.65392156  1
  Se  Se3  1  0.55601866  0.74975955  0.51543815  1
  Se  Se4  1  0.07333799  0.42618146  0.37530985  1
  Se  Se5  1  0.38363797  0.35518488  0.68241009  1
  Se  Se6  1  0.53191063  0.47721663  0.11911366  1
  Se  Se7  1  0.61636203  0.14481512  0.18241009  1
  Se  Se8  1  0.61636203  0.64481512  0.31758991  1
  Se  Se9  1  0.27540215  0.23116163  0.11226309  1
  Se  Se10  1  0.81031655  0.66426189  0.12755323  1
  Se  Se11  1  0.07333799  0.92618146  0.12469015  1
  Se  Se12  1  0.92666201  0.07381854  0.87530985  1
  Se  Se13  1  0.81031655  0.16426189  0.37244677  1
  Se  Se14  1  0.04001048  0.17499080  0.52184911  1
  Se  Se15  1  0.95998952  0.82500920  0.47815089  1
  Se  Se16  1  0.17387228  0.58988244  0.15392156  1
  Se  Se17  1  0.18968345  0.83573811  0.62755323  1
  Se  Se18  1  0.92666201  0.57381854  0.62469015  1
  Se  Se19  1  0.04001048  0.67499080  0.97815089  1
  Se  Se20  1  0.72459785  0.26883837  0.61226309  1
  Se  Se21  1  0.46808937  0.52278337  0.88088634  1
  Se  Se22  1  0.53191063  0.97721663  0.38088634  1
  Se  Se23  1  0.44398134  0.25024045  0.48456185  1
  Se  Se24  1  0.27540215  0.73116163  0.38773691  1
  Se  Se25  1  0.72459785  0.76883837  0.88773691  1
  Se  Se26  1  0.44398134  0.75024045  0.01543815  1
  Se  Se27  1  0.38363797  0.85518488  0.81758991  1
  Se  Se28  1  0.55601866  0.24975955  0.98456185  1
  Se  Se29  1  0.46808937  0.02278337  0.61911366  1
  Se  Se30  1  0.17387228  0.08988244  0.34607844  1
  Se  Se31  1  0.18968345  0.33573811  0.87244677  1
loop_
_geom_bond_atom_site_label_1
_geom_bond_atom_site_label_2
_geom_bond_distance
_geom_bond_site_symmetry_2
Rb0 Se4 3.473956 1_555
Rb0 Se8 3.591058 1_555
Rb0 Se30 3.632398 1_555
Rb0 Se6 3.671269 1_555
Rb0 Se23 3.742106 1_555
Rb0 Se9 3.784590 1_555
Rb0 Se7 3.790566 1_555
Rb0 Se16 4.048049 1_555
Rb1 Se11 3.463757 1_546
Rb1 Se12 3.484894 1_455
Rb1 Se27 3.486964 1_545
Rb1 Se9 3.506780 1_556
Rb1 Se26 3.537536 1_546
Rb1 Se31 3.715653 1_555
Rb1 Se28 3.892225 1_555
Rb1 Se19 3.972063 1_545
Rb2 Se12 3.463757 1_564
Rb2 Se11 3.484894 1_655
Rb2 Se7 3.486964 1_565
Rb2 Se25 3.506780 1_554
Rb2 Se28 3.537536 1_564
Rb2 Se10 3.715653 1_555
Rb2 Se26 3.892225 1_555
Rb2 Se0 3.972063 1_565
Rb3 Se4 3.516764 1_655
Rb3 Se0 3.535640 1_555
Rb3 Se7 3.547144 1_555
Rb3 Se10 3.601938 1_555
Rb3 Se16 3.662167 1_655
Rb3 Se13 3.687207 1_555
Rb4 Se11 3.516764 1_655
Rb4 Se15 3.535640 1_555
Rb4 Se8 3.547144 1_555
Rb4 Se13 3.601938 1_565
Rb4 Se30 3.662167 1_665
Rb4 Se10 3.687207 1_555
Rb5 Se12 3.473956 1_555
Rb5 Se27 3.591058 1_545
Rb5 Se1 3.632398 1_555
Rb5 Se29 3.671269 1_555
Rb5 Se28 3.742106 1_555
Rb5 Se20 3.784590 1_555
Rb5 Se5 3.790566 1_555
Rb5 Se2 4.048049 1_545
Rb6 Se18 3.463757 1_555
Rb6 Se4 3.484894 1_655
Rb6 Se8 3.486964 1_555
Rb6 Se20 3.506780 1_555
Rb6 Se3 3.537536 1_555
Rb6 Se13 3.715653 1_555
Rb6 Se23 3.892225 1_555
Rb6 Se15 3.972063 1_555
Rb7 Se18 3.473956 1_555
Rb7 Se5 3.591058 1_555
Rb7 Se2 3.632398 1_555
Rb7 Se21 3.671269 1_555
Rb7 Se3 3.742106 1_555
Rb7 Se25 3.784590 1_555
Rb7 Se27 3.790566 1_555
Rb7 Se1 4.048049 1_555
Rb8 Se11 3.473956 1_555
Rb8 Se7 3.591058 1_565
Rb8 Se16 3.632398 1_555
Rb8 Se22 3.671269 1_555
Rb8 Se26 3.742106 1_555
Rb8 Se24 3.784590 1_555
Rb8 Se8 3.790566 1_555
Rb8 Se30 4.048049 1_565
Rb9 Se4 3.463757 1_555
Rb9 Se18 3.484894 1_455
Rb9 Se5 3.486964 1_555
Rb9 Se24 3.506780 1_555
Rb9 Se23 3.537536 1_555
Rb9 Se17 3.715653 1_555
Rb9 Se3 3.892225 1_555
Rb9 Se14 3.972063 1_555
Rb10 Se18 3.516764 1_455
Rb10 Se19 3.535640 1_555
Rb10 Se27 3.547144 1_555
Rb10 Se31 3.601938 1_555
Rb10 Se1 3.662167 1_455
Rb10 Se17 3.687207 1_555
Rb11 Se12 3.516764 1_455
Rb11 Se14 3.535640 1_555
Rb11 Se5 3.547144 1_555
Rb11 Se17 3.601938 1_545
Rb11 Se2 3.662167 1_445
Rb11 Se31 3.687207 1_555
Ce0 Se30 3.013666 1_565
Ce0 Se17 3.054286 1_555
Ce0 Se24 3.083622 1_555
Ce0 Se29 3.114917 1_565
Ce0 Se14 3.148211 1_565
Ce0 Se22 3.173402 1_555
Ce0 Se23 3.257050 1_565
Ce0 Se15 3.381314 1_455
Ce0 Se3 3.637721 1_555
Ce1 Se1 3.013666 1_555
Ce1 Se10 3.054286 1_556
Ce1 Se25 3.083622 1_555
Ce1 Se6 3.114917 1_556
Ce1 Se0 3.148211 1_556
Ce1 Se21 3.173402 1_555
Ce1 Se28 3.257050 1_555
Ce1 Se19 3.381314 1_655
Ce1 Se26 3.637721 1_556
Ce2 Se16 3.013666 1_555
Ce2 Se31 3.054286 1_554
Ce2 Se9 3.083622 1_555
Ce2 Se21 3.114917 1_554
Ce2 Se19 3.148211 1_554
Ce2 Se6 3.173402 1_555
Ce2 Se26 3.257050 1_555
Ce2 Se0 3.381314 1_455
Ce2 Se28 3.637721 1_554
Ce3 Se2 3.013666 1_545
Ce3 Se13 3.054286 1_555
Ce3 Se20 3.083622 1_555
Ce3 Se22 3.114917 1_545
Ce3 Se15 3.148211 1_545
Ce3 Se29 3.173402 1_555
Ce3 Se3 3.257050 1_545
Ce3 Se14 3.381314 1_655
Ce3 Se23 3.637721 1_555
P0 Se8 2.195830 1_555
P0 Se24 2.217444 1_555
P0 Se3 2.241708 1_555
P0 Se22 2.252388 1_555
P1 Se7 2.195830 1_555
P1 Se9 2.217444 1_555
P1 Se28 2.241708 1_554
P1 Se6 2.252388 1_555
P2 Se4 2.193511 1_555
P2 Se30 2.230484 1_555
P2 Se13 2.242686 1_455
P2 Se14 2.251436 1_555
P3 Se12 2.193511 1_555
P3 Se1 2.230484 1_555
P3 Se31 2.242686 1_655
P3 Se0 2.251436 1_556
P4 Se27 2.195830 1_555
P4 Se25 2.217444 1_555
P4 Se26 2.241708 1_556
P4 Se21 2.252388 1_555
P5 Se18 2.193511 1_555
P5 Se2 2.230484 1_555
P5 Se17 2.242686 1_655
P5 Se15 2.251436 1_555
P6 Se5 2.195830 1_555
P6 Se20 2.217444 1_555
P6 Se23 2.241708 1_555
P6 Se29 2.252388 1_555
P7 Se11 2.193511 1_555
P7 Se16 2.230484 1_555
P7 Se10 2.242686 1_455
P7 Se19 2.251436 1_554
