# generated using pymatgen
data_CeAl8O16
_symmetry_space_group_name_H-M   'P 1'
_cell_length_a   3.59034100
_cell_length_b   3.67606100
_cell_length_c   28.49417900
_cell_angle_alpha   90.00000000
_cell_angle_beta   90.00000000
_cell_angle_gamma   90.00000000
_symmetry_Int_Tables_number   1
_chemical_formula_structural   CeAl8O16
_chemical_formula_sum   'Ce1 Al8 O16'
_cell_volume   376.07507964
_cell_formula_units_Z   1
loop_
 _symmetry_equiv_pos_site_id
 _symmetry_equiv_pos_as_xyz
  1  'x, y, z'
loop_
 _atom_site_type_symbol
 _atom_site_label
 _atom_site_symmetry_multiplicity
 _atom_site_fract_x
 _atom_site_fract_y
 _atom_site_fract_z
 _atom_site_occupancy
  Ce  Ce0  1  0.50000000  0.00000000  0.31231400  1
  Al  Al0  1  0.00000000  0.50000000  0.99719300  1
  Al  Al1  1  0.00000000  0.50000000  0.11827900  1
  Al  Al2  1  0.00000000  0.50000000  0.23997600  1
  Al  Al3  1  0.00000000  0.50000000  0.50631700  1
  Al  Al4  1  0.00000000  0.50000000  0.62788900  1
  Al  Al5  1  0.00000000  0.50000000  0.38456000  1
  Al  Al6  1  0.00000000  0.50000000  0.75112300  1
  Al  Al7  1  0.00000000  0.50000000  0.87479200  1
  O  O0  1  0.00000000  0.50000000  0.06092500  1
  O  O1  1  0.00000000  0.50000000  0.31228800  1
  O  O2  1  0.00000000  0.50000000  0.56346000  1
  O  O3  1  0.00000000  0.50000000  0.68933400  1
  O  O4  1  0.00000000  0.50000000  0.81293800  1
  O  O5  1  0.00000000  0.50000000  0.93652400  1
  O  O6  1  0.50000000  0.50000000  0.25077500  1
  O  O7  1  0.50000000  0.50000000  0.37375900  1
  O  O8  1  0.50000000  0.50000000  0.62604600  1
  O  O9  1  0.50000000  0.50000000  0.75081100  1
  O  O10  1  0.50000000  0.50000000  0.87434400  1
  O  O11  1  0.00000000  0.00000000  0.99990200  1
  O  O12  1  0.00000000  0.50000000  0.17495200  1
  O  O13  1  0.00000000  0.00000000  0.25180900  1
  O  O14  1  0.00000000  0.50000000  0.44946300  1
  O  O15  1  0.00000000  0.00000000  0.37272700  1
loop_
_geom_bond_atom_site_label_1
_geom_bond_atom_site_label_2
_geom_bond_distance
_geom_bond_site_symmetry_2
Ce0 O15 2.487151 1_555
Ce0 O15 2.487151 1_655
Ce0 O13 2.488966 1_655
Ce0 O13 2.488966 1_555
Ce0 O7 2.538453 1_555
Ce0 O7 2.538453 1_545
Ce0 O6 2.540301 1_545
Ce0 O6 2.540301 1_555
Ce0 O1 2.569240 1_555
Ce0 O1 2.569240 1_545
Ce0 O1 2.569240 1_655
Ce0 O1 2.569240 1_645
Al0 O5 1.728713 1_555
Al0 O0 1.815991 1_556
Al0 O11 1.839651 1_555
Al0 O11 1.839651 1_565
Al1 O12 1.614851 1_555
Al1 O0 1.634255 1_555
Al2 O6 1.821352 1_555
Al2 O6 1.821352 1_455
Al2 O12 1.852805 1_555
Al2 O13 1.868700 1_555
Al2 O13 1.868700 1_565
Al2 O1 2.060471 1_555
Al3 O14 1.620008 1_555
Al3 O2 1.628243 1_555
Al4 O3 1.750825 1_555
Al4 O8 1.795938 1_455
Al4 O8 1.795938 1_555
Al4 O2 1.835851 1_555
Al5 O7 1.821361 1_455
Al5 O7 1.821361 1_555
Al5 O14 1.849358 1_555
Al5 O15 1.868700 1_555
Al5 O15 1.868700 1_565
Al5 O1 2.059331 1_555
Al6 O3 1.760627 1_555
Al6 O4 1.761368 1_555
Al6 O9 1.795193 1_555
Al6 O9 1.795193 1_455
Al7 O5 1.759003 1_555
Al7 O4 1.762479 1_555
Al7 O10 1.795216 1_455
Al7 O10 1.795216 1_555
