# generated using pymatgen
data_AlPd
_symmetry_space_group_name_H-M   'P 1'
_cell_length_a   9.19692258
_cell_length_b   9.19692265
_cell_length_c   9.19692389
_cell_angle_alpha   116.42589225
_cell_angle_beta   116.42590915
_cell_angle_gamma   116.42588928
_symmetry_Int_Tables_number   1
_chemical_formula_structural   AlPd
_chemical_formula_sum   'Al13 Pd13'
_cell_volume   372.68846216
_cell_formula_units_Z   13
loop_
 _symmetry_equiv_pos_site_id
 _symmetry_equiv_pos_as_xyz
  1  'x, y, z'
loop_
 _atom_site_type_symbol
 _atom_site_label
 _atom_site_symmetry_multiplicity
 _atom_site_fract_x
 _atom_site_fract_y
 _atom_site_fract_z
 _atom_site_occupancy
  Al  Al0  1  0.34619127  0.09747112  0.05529594  1
  Al  Al1  1  0.75261859  0.15404612  0.59777384  1
  Al  Al2  1  0.15404612  0.59777384  0.75261859  1
  Al  Al3  1  0.24738141  0.84595388  0.40222616  1
  Al  Al4  1  0.84595388  0.40222616  0.24738141  1
  Al  Al5  1  0.05529594  0.34619127  0.09747112  1
  Al  Al6  1  0.90252888  0.94470406  0.65380873  1
  Al  Al7  1  0.40222616  0.24738141  0.84595388  1
  Al  Al8  1  0.94470406  0.65380873  0.90252888  1
  Al  Al9  1  0.59777384  0.75261859  0.15404612  1
  Al  Al10  1  0.09747112  0.05529594  0.34619127  1
  Al  Al11  1  0.50000000  0.50000000  0.50000000  1
  Al  Al12  1  0.65380873  0.90252888  0.94470406  1
  Pd  Pd0  1  0.59683403  0.55464856  0.84330152  1
  Pd  Pd1  1  0.40316597  0.44535144  0.15669848  1
  Pd  Pd2  1  0.65519772  0.09834379  0.25167306  1
  Pd  Pd3  1  0.90165621  0.74832694  0.34480228  1
  Pd  Pd4  1  0.09834379  0.25167306  0.65519772  1
  Pd  Pd5  1  0.34480228  0.90165621  0.74832694  1
  Pd  Pd6  1  0.15669848  0.40316597  0.44535144  1
  Pd  Pd7  1  0.44535144  0.15669848  0.40316597  1
  Pd  Pd8  1  0.25167306  0.65519772  0.09834379  1
  Pd  Pd9  1  0.74832694  0.34480228  0.90165621  1
  Pd  Pd10  1  0.55464856  0.84330152  0.59683403  1
  Pd  Pd11  1  -0.00000000  -0.00000000  -0.00000000  1
  Pd  Pd12  1  0.84330152  0.59683403  0.55464856  1
loop_
_geom_bond_atom_site_label_1
_geom_bond_atom_site_label_2
_geom_bond_distance
_geom_bond_site_symmetry_2
Al0 Pd5 2.575990 1_544
Al0 Pd2 2.595513 1_555
Al0 Pd7 2.602662 1_555
Al0 Pd1 2.607240 1_555
Al0 Pd11 2.609983 1_555
Al0 Pd12 2.633384 1_555
Al0 Pd12 2.648081 1_444
Al1 Pd9 2.585704 1_555
Al1 Pd4 2.595616 1_655
Al1 Pd7 2.605399 1_555
Al1 Pd2 2.607429 1_555
Al1 Pd10 2.610592 1_545
Al1 Pd8 2.639343 1_545
Al1 Pd8 2.642075 1_656
Al2 Pd5 2.585704 1_555
Al2 Pd8 2.595616 1_556
Al2 Pd6 2.605400 1_555
Al2 Pd4 2.607429 1_555
Al2 Pd12 2.610592 1_455
Al2 Pd2 2.639343 1_455
Al2 Pd2 2.642075 1_566
Al3 Pd8 2.585704 1_555
Al3 Pd3 2.595616 1_455
Al3 Pd10 2.605399 1_555
Al3 Pd5 2.607429 1_555
Al3 Pd7 2.610592 1_565
Al3 Pd9 2.639343 1_565
Al3 Pd9 2.642075 1_454
Al4 Pd2 2.585704 1_555
Al4 Pd9 2.595616 1_554
Al4 Pd12 2.605400 1_555
Al4 Pd3 2.607429 1_555
Al4 Pd6 2.610592 1_655
Al4 Pd5 2.639343 1_655
Al4 Pd5 2.642075 1_544
Al5 Pd9 2.575990 1_454
Al5 Pd8 2.595513 1_555
Al5 Pd1 2.602662 1_555
Al5 Pd6 2.607240 1_555
Al5 Pd11 2.609983 1_555
Al5 Pd10 2.633384 1_555
Al5 Pd10 2.648081 1_444
Al6 Pd4 2.575990 1_665
Al6 Pd3 2.595513 1_555
Al6 Pd12 2.602662 1_555
Al6 Pd10 2.607240 1_555
Al6 Pd11 2.609983 1_666
Al6 Pd1 2.633384 1_555
Al6 Pd1 2.648081 1_666
Al7 Pd4 2.585703 1_555
Al7 Pd5 2.595616 1_545
Al7 Pd0 2.605400 1_555
Al7 Pd9 2.607429 1_555
Al7 Pd1 2.610593 1_556
Al7 Pd3 2.639343 1_556
Al7 Pd3 2.642075 1_445
Al8 Pd8 2.575990 1_656
Al8 Pd9 2.595513 1_555
Al8 Pd0 2.602662 1_555
Al8 Pd12 2.607240 1_555
Al8 Pd11 2.609983 1_666
Al8 Pd7 2.633384 1_555
Al8 Pd7 2.648081 1_666
Al9 Pd3 2.585703 1_555
Al9 Pd2 2.595616 1_565
Al9 Pd1 2.605400 1_555
Al9 Pd8 2.607429 1_555
Al9 Pd0 2.610593 1_554
Al9 Pd4 2.639343 1_554
Al9 Pd4 2.642075 1_665
Al10 Pd3 2.575990 1_445
Al10 Pd4 2.595513 1_555
Al10 Pd6 2.602662 1_555
Al10 Pd7 2.607240 1_555
Al10 Pd11 2.609983 1_555
Al10 Pd0 2.633384 1_555
Al10 Pd0 2.648081 1_444
Al11 Pd6 2.588589 1_555
Al11 Pd12 2.588589 1_555
Al11 Pd10 2.588589 1_555
Al11 Pd7 2.588589 1_555
Al11 Pd1 2.588590 1_555
Al11 Pd0 2.588590 1_555
Al11 Pd11 2.640655 1_666
Al11 Pd11 2.640655 1_555
Al12 Pd2 2.575990 1_566
Al12 Pd5 2.595513 1_555
Al12 Pd10 2.602662 1_555
Al12 Pd0 2.607240 1_555
Al12 Pd11 2.609983 1_666
Al12 Pd6 2.633384 1_555
Al12 Pd6 2.648081 1_666
