# generated using pymatgen
data_K3Fe(CN)6
_symmetry_space_group_name_H-M   'P 1'
_cell_length_a   8.39330600
_cell_length_b   10.41579500
_cell_length_c   13.44090400
_cell_angle_alpha   90.00000000
_cell_angle_beta   90.00000000
_cell_angle_gamma   90.00000000
_symmetry_Int_Tables_number   1
_chemical_formula_structural   K3Fe(CN)6
_chemical_formula_sum   'K12 Fe4 C24 N24'
_cell_volume   1175.04354109
_cell_formula_units_Z   4
loop_
 _symmetry_equiv_pos_site_id
 _symmetry_equiv_pos_as_xyz
  1  'x, y, z'
loop_
 _atom_site_type_symbol
 _atom_site_label
 _atom_site_symmetry_multiplicity
 _atom_site_fract_x
 _atom_site_fract_y
 _atom_site_fract_z
 _atom_site_occupancy
  K  K0  1  0.62652500  0.00000000  0.75000000  1
  K  K1  1  0.12588000  0.26981800  0.00129500  1
  K  K2  1  0.62588000  0.23018200  0.00129500  1
  K  K3  1  0.37347500  0.00000000  0.25000000  1
  K  K4  1  0.87412000  0.73018200  0.99870500  1
  K  K5  1  0.37412000  0.76981800  0.99870500  1
  K  K6  1  0.62588000  0.76981800  0.49870500  1
  K  K7  1  0.12652500  0.50000000  0.75000000  1
  K  K8  1  0.87347500  0.50000000  0.25000000  1
  K  K9  1  0.37412000  0.23018200  0.50129500  1
  K  K10  1  0.12588000  0.73018200  0.49870500  1
  K  K11  1  0.87412000  0.26981800  0.50129500  1
  Fe  Fe0  1  0.37658800  0.50000000  0.25000000  1
  Fe  Fe1  1  0.62341200  0.50000000  0.75000000  1
  Fe  Fe2  1  0.87658800  0.00000000  0.25000000  1
  Fe  Fe3  1  0.12341200  0.00000000  0.75000000  1
  C  C0  1  0.37630800  0.66703800  0.31038100  1
  C  C1  1  0.53626200  0.55406000  0.15583400  1
  C  C2  1  0.53626200  0.44594000  0.34416600  1
  C  C3  1  0.96373800  0.05406000  0.84416600  1
  C  C4  1  0.78576300  0.44791100  0.84234200  1
  C  C5  1  0.12369200  0.16703800  0.68961900  1
  C  C6  1  0.78576300  0.55208900  0.65765800  1
  C  C7  1  0.21423700  0.44791100  0.34234200  1
  C  C8  1  0.71423700  0.05208900  0.34234200  1
  C  C9  1  0.21423700  0.55208900  0.15765800  1
  C  C10  1  0.71423700  0.94791100  0.15765800  1
  C  C11  1  0.03626200  0.05406000  0.34416600  1
  C  C12  1  0.46373800  0.55406000  0.65583400  1
  C  C13  1  0.03626200  0.94594000  0.15583400  1
  C  C14  1  0.37630800  0.33296200  0.18961900  1
  C  C15  1  0.62369200  0.33296200  0.68961900  1
  C  C16  1  0.46373800  0.44594000  0.84416600  1
  C  C17  1  0.28576300  0.94791100  0.65765800  1
  C  C18  1  0.87630800  0.16703800  0.18961900  1
  C  C19  1  0.28576300  0.05208900  0.84234200  1
  C  C20  1  0.62369200  0.66703800  0.81038100  1
  C  C21  1  0.12369200  0.83296200  0.81038100  1
  C  C22  1  0.87630800  0.83296200  0.31038100  1
  C  C23  1  0.96373800  0.94594000  0.65583400  1
  N  N0  1  0.37976500  0.23183300  0.15049100  1
  N  N1  1  0.38692500  0.08359000  0.89795800  1
  N  N2  1  0.13644800  0.08797300  0.39965300  1
  N  N3  1  0.87976500  0.26816700  0.15049100  1
  N  N4  1  0.88692500  0.58359000  0.60204200  1
  N  N5  1  0.88692500  0.41641000  0.89795800  1
  N  N6  1  0.36355200  0.58797300  0.60034700  1
  N  N7  1  0.63644800  0.41202700  0.39965300  1
  N  N8  1  0.38692500  0.91641000  0.60204200  1
  N  N9  1  0.12023500  0.73183300  0.84950900  1
  N  N10  1  0.87976500  0.73183300  0.34950900  1
  N  N11  1  0.13644800  0.91202700  0.10034700  1
  N  N12  1  0.61307500  0.91641000  0.10204200  1
  N  N13  1  0.36355200  0.41202700  0.89965300  1
  N  N14  1  0.86355200  0.08797300  0.89965300  1
  N  N15  1  0.86355200  0.91202700  0.60034700  1
  N  N16  1  0.11307500  0.41641000  0.39795800  1
  N  N17  1  0.11307500  0.58359000  0.10204200  1
  N  N18  1  0.37976500  0.76816700  0.34950900  1
  N  N19  1  0.12023500  0.26816700  0.65049100  1
  N  N20  1  0.62023500  0.23183300  0.65049100  1
  N  N21  1  0.61307500  0.08359000  0.39795800  1
  N  N22  1  0.62023500  0.76816700  0.84950900  1
  N  N23  1  0.63644800  0.58797300  0.10034700  1
loop_
_geom_bond_atom_site_label_1
_geom_bond_atom_site_label_2
_geom_bond_distance
_geom_bond_site_symmetry_2
K0 N20 2.760899 1_555
K0 N22 2.760899 1_545
K0 N1 2.959256 1_555
K0 N8 2.959256 1_545
K0 N14 2.973804 1_555
K0 N15 2.973804 1_545
K1 N13 2.835463 1_554
K1 N5 2.878024 1_454
K1 N3 2.879033 1_455
K1 N0 2.952755 1_555
K1 N14 3.209638 1_454
K1 N1 3.239176 1_554
K2 N14 2.835463 1_554
K2 N1 2.878024 1_554
K2 N0 2.879033 1_555
K2 N3 2.952755 1_555
K2 N13 3.209638 1_554
K2 N5 3.239176 1_554
K3 N0 2.760899 1_555
K3 N18 2.760899 1_545
K3 N21 2.959256 1_555
K3 N12 2.959256 1_545
K3 N2 2.973804 1_555
K3 N11 2.973804 1_545
K4 N23 2.835463 1_556
K4 N17 2.878024 1_656
K4 N9 2.879033 1_655
K4 N22 2.952755 1_555
K4 N11 3.209638 1_656
K4 N12 3.239176 1_556
K5 N11 2.835463 1_556
K5 N12 2.878024 1_556
K5 N22 2.879033 1_555
K5 N9 2.952755 1_555
K5 N23 3.209638 1_556
K5 N17 3.239176 1_556
K6 N15 2.835463 1_555
K6 N8 2.878024 1_555
K6 N18 2.879033 1_555
K6 N10 2.952755 1_555
K6 N6 3.209638 1_555
K6 N4 3.239176 1_555
K7 N9 2.760899 1_555
K7 N19 2.760899 1_555
K7 N5 2.959256 1_455
K7 N4 2.959256 1_455
K7 N13 2.973804 1_555
K7 N6 2.973804 1_555
K8 N10 2.760899 1_555
K8 N3 2.760899 1_555
K8 N16 2.959256 1_655
K8 N17 2.959256 1_655
K8 N7 2.973804 1_555
K8 N23 2.973804 1_555
K9 N2 2.835463 1_555
K9 N21 2.878024 1_555
K9 N20 2.879033 1_555
K9 N19 2.952755 1_555
K9 N7 3.209638 1_555
K9 N16 3.239176 1_555
K10 N6 2.835463 1_555
K10 N4 2.878024 1_455
K10 N10 2.879033 1_455
K10 N18 2.952755 1_555
K10 N15 3.209638 1_455
K10 N8 3.239176 1_555
K11 N7 2.835463 1_555
K11 N16 2.878024 1_655
K11 N19 2.879033 1_655
K11 N20 2.952755 1_555
K11 N2 3.209638 1_655
K11 N21 3.239176 1_555
C0 N18 1.177689 1_555
C0 Fe0 1.919813 1_555
C1 N23 1.178169 1_555
C1 Fe0 1.927462 1_555
C2 N7 1.178169 1_555
C2 Fe0 1.927462 1_555
C3 N14 1.178169 1_555
C3 Fe3 1.927462 1_655
C4 N5 1.177879 1_555
C4 Fe1 1.921375 1_555
C5 N19 1.177689 1_555
C5 Fe3 1.919813 1_555
C6 N4 1.177879 1_555
C6 Fe1 1.921375 1_555
C7 N16 1.177879 1_555
C7 Fe0 1.921375 1_555
C8 N21 1.177879 1_555
C8 Fe2 1.921375 1_555
C9 N17 1.177879 1_555
C9 Fe0 1.921375 1_555
C10 N12 1.177879 1_555
C10 Fe2 1.921375 1_565
C11 N2 1.178169 1_555
C11 Fe2 1.927462 1_455
C12 N6 1.178169 1_555
C12 Fe1 1.927462 1_555
C13 N11 1.178169 1_555
C13 Fe2 1.927462 1_465
C14 N0 1.177689 1_555
C14 Fe0 1.919813 1_555
C15 N20 1.177689 1_555
C15 Fe1 1.919813 1_555
C16 N13 1.178169 1_555
C16 Fe1 1.927462 1_555
C17 N8 1.177879 1_555
C17 Fe3 1.921375 1_565
C18 N3 1.177689 1_555
C18 Fe2 1.919813 1_555
C19 N1 1.177879 1_555
C19 Fe3 1.921375 1_555
C20 N22 1.177689 1_555
C20 Fe1 1.919813 1_555
C21 N9 1.177689 1_555
C21 Fe3 1.919813 1_565
C22 N10 1.177689 1_555
C22 Fe2 1.919813 1_565
C23 N15 1.178169 1_555
C23 Fe3 1.927462 1_665
