# generated using pymatgen
data_Na2Al2Si3(HO3)4
_symmetry_space_group_name_H-M   'P 1'
_cell_length_a   8.72228100
_cell_length_b   8.79937460
_cell_length_c   16.05827210
_cell_angle_alpha   86.70780122
_cell_angle_beta   101.25987532
_cell_angle_gamma   115.90926866
_symmetry_Int_Tables_number   1
_chemical_formula_structural   Na2Al2Si3(HO3)4
_chemical_formula_sum   'Na8 Al8 Si12 H16 O48'
_cell_volume   1086.71967302
_cell_formula_units_Z   4
loop_
 _symmetry_equiv_pos_site_id
 _symmetry_equiv_pos_as_xyz
  1  'x, y, z'
loop_
 _atom_site_type_symbol
 _atom_site_label
 _atom_site_symmetry_multiplicity
 _atom_site_fract_x
 _atom_site_fract_y
 _atom_site_fract_z
 _atom_site_occupancy
  Na  Na0  1  0.39152200  0.47133000  0.84610100  1
  Na  Na1  1  0.33803500  0.97975400  0.82553200  1
  Na  Na2  1  0.62246100  0.96501900  0.73430400  1
  Na  Na3  1  0.42760300  0.36152800  0.46447500  1
  Na  Na4  1  0.07785700  0.82032900  0.30126200  1
  Na  Na5  1  0.54715400  0.95511300  0.29852000  1
  Na  Na6  1  0.80368400  0.47949600  0.49472000  1
  Na  Na7  1  0.96718600  0.48446700  0.05035000  1
  Al  Al0  1  0.72219600  0.38616400  0.82832800  1
  Al  Al1  1  0.04674100  0.30136000  0.56000500  1
  Al  Al2  1  0.32406200  0.65233200  0.64804400  1
  Al  Al3  1  0.53243900  0.31646200  0.08173800  1
  Al  Al4  1  0.13819100  0.17569800  0.03465000  1
  Al  Al5  1  0.31026900  0.47562200  0.16401500  1
  Al  Al6  1  0.56776700  0.78512300  0.50040200  1
  Al  Al7  1  0.52711300  0.67751900  0.04987500  1
  Si  Si0  1  0.95121600  0.05418100  0.86290700  1
  Si  Si1  1  0.09350500  0.05412900  0.45073400  1
  Si  Si2  1  0.75546400  0.95759300  0.95816000  1
  Si  Si3  1  0.42414200  0.18697000  0.67079400  1
  Si  Si4  1  0.35210500  0.13223300  0.19022200  1
  Si  Si5  1  0.72891000  0.37531300  0.28360300  1
  Si  Si6  1  0.80964600  0.84937400  0.42368500  1
  Si  Si7  1  0.04815400  0.90868400  0.63851500  1
  Si  Si8  1  0.91709900  0.74236400  0.74692900  1
  Si  Si9  1  0.09378800  0.63202300  0.88828400  1
  Si  Si10  1  0.68757000  0.69330600  0.23415500  1
  Si  Si11  1  0.16036700  0.61466200  0.45424100  1
  H  H0  1  0.07708000  0.75584300  0.94107800  1
  H  H1  1  0.25458200  0.03740400  0.44683800  1
  H  H2  1  0.89434700  0.36440700  0.28843900  1
  H  H3  1  0.61470600  0.20943100  0.58170700  1
  H  H4  1  0.92993900  0.96749400  0.58501400  1
  H  H5  1  0.08442000  0.36583400  0.72468200  1
  H  H6  1  0.44736400  0.61068200  0.33427100  1
  H  H7  1  0.62415800  0.14762900  0.94193900  1
  H  H8  1  0.40274300  0.34647800  0.67246200  1
  H  H9  1  0.08702800  0.82033300  0.57503500  1
  H  H10  1  0.12701800  0.53487200  0.23017300  1
  H  H11  1  0.86614200  0.95646900  0.10017200  1
  H  H12  1  0.21210900  0.26675100  0.28755800  1
  H  H13  1  0.56940200  0.60651100  0.72863100  1
  H  H14  1  0.14383400  0.35280100  0.05525300  1
  H  H15  1  0.25956900  0.84706900  0.07277700  1
  O  O0  1  0.48678100  0.59756200  0.25040100  1
  O  O1  1  0.05118500  0.72082400  0.43297100  1
  O  O2  1  0.29651100  0.65501400  0.89765300  1
  O  O3  1  0.13538000  0.13417800  0.92884200  1
  O  O4  1  0.14365200  0.45337400  0.64427300  1
  O  O5  1  0.56175300  0.20546100  0.76748500  1
  O  O6  1  0.09071900  0.33571300  0.78887400  1
  O  O7  1  0.48927800  0.65538100  0.73236600  1
  O  O8  1  0.40732600  0.99342300  0.63148300  1
  O  O9  1  0.33169000  0.54984300  0.96771600  1
  O  O10  1  0.03011300  0.42379300  0.47168900  1
  O  O11  1  0.66140800  0.75909700  0.97278800  1
  O  O12  1  0.23618800  0.73180300  0.05737000  1
  O  O13  1  0.25311200  0.64294300  0.36717000  1
  O  O14  1  0.32398300  0.84432800  0.68491100  1
  O  O15  1  0.15991900  0.19778000  0.52765700  1
  O  O16  1  0.60887600  0.02972700  0.95425700  1
  O  O17  1  0.65339400  0.88884200  0.60474300  1
  O  O18  1  0.38347500  0.71499200  0.11222000  1
  O  O19  1  0.26315200  0.25571500  0.19997500  1
  O  O20  1  0.91664800  0.03112400  0.05195000  1
  O  O21  1  0.19847800  0.28863000  0.34597900  1
  O  O22  1  0.34717700  0.67695300  0.53261700  1
  O  O23  1  0.32303300  0.12643300  0.07983100  1
  O  O24  1  0.41350600  0.61636900  0.39369900  1
  O  O25  1  0.58745000  0.31887800  0.91598500  1
  O  O26  1  0.93019800  0.45102500  0.89624700  1
  O  O27  1  0.11214200  0.47054400  0.17888300  1
  O  O28  1  0.71021400  0.68452200  0.48335100  1
  O  O29  1  0.29669600  0.95731800  0.23283000  1
  O  O30  1  0.75189300  0.56437400  0.76255900  1
  O  O31  1  0.67523300  0.93657900  0.42723600  1
  O  O32  1  0.70970400  0.79480700  0.14488100  1
  O  O33  1  0.78465400  0.06431100  0.63210400  1
  O  O34  1  0.21298800  0.06954300  0.69721400  1
  O  O35  1  0.55238300  0.27421100  0.59292300  1
  O  O36  1  0.08934700  0.71320000  0.79390000  1
  O  O37  1  0.47305800  0.47402300  0.09720900  1
  O  O38  1  0.65204600  0.23357000  0.36348300  1
  O  O39  1  0.81544100  0.18246400  0.56442900  1
  O  O40  1  0.91232200  0.89022700  0.80689000  1
  O  O41  1  0.60614500  0.38703400  0.35252800  1
  O  O42  1  0.57556400  0.24804300  0.19309400  1
  O  O43  1  0.67343300  0.37120300  0.00795200  1
  O  O44  1  0.91934300  0.19846700  0.79778500  1
  O  O45  1  0.78079000  0.56409800  0.23595600  1
  O  O46  1  0.79256400  0.81547900  0.31923000  1
  O  O47  1  0.04376600  0.12861900  0.35383300  1
loop_
_geom_bond_atom_site_label_1
_geom_bond_atom_site_label_2
_geom_bond_distance
_geom_bond_site_symmetry_2
Na0 O9 2.330583 1_555
Na0 O2 2.361493 1_555
Na0 O6 2.366551 1_555
Na0 O7 2.397343 1_555
Na0 O25 2.657251 1_555
Na1 O36 2.392693 1_555
Na1 O5 2.394157 1_565
Na1 O34 2.397540 1_565
Na1 O14 2.570523 1_555
Na1 O16 2.708613 1_565
Na1 O2 2.918405 1_555
Na2 O33 2.262729 1_565
Na2 O17 2.321236 1_555
Na2 O14 2.325701 1_555
Na2 O8 2.337165 1_555
Na2 O7 2.450235 1_555
Na2 O5 2.501867 1_565
Na2 O44 2.554500 1_565
Na2 O40 2.898091 1_555
Na3 O21 2.358194 1_555
Na3 O35 2.387778 1_555
Na3 O24 2.495805 1_555
Na3 O15 2.524705 1_555
Na3 O41 2.539420 1_555
Na3 O28 2.816146 1_555
Na4 O29 2.227175 1_555
Na4 O1 2.257324 1_555
Na4 O46 2.542323 1_455
Na4 O45 2.646164 1_455
Na4 O13 2.675215 1_555
Na5 O31 2.183042 1_555
Na5 O29 2.240584 1_555
Na5 O38 2.427104 1_565
Na6 O28 2.267636 1_555
Na6 O10 2.330148 1_655
Na6 O41 2.509245 1_555
Na6 O1 2.596325 1_655
Na6 O38 2.794204 1_555
Na7 O27 2.227322 1_655
Na7 O43 2.277457 1_555
Na7 O12 2.391012 1_655
Na7 O26 2.450175 1_554
Al0 O5 1.772351 1_555
Al0 O26 1.789043 1_555
Al0 O30 1.789753 1_555
Al0 O25 1.911933 1_555
Al1 O10 1.753202 1_555
Al1 O4 1.762957 1_555
Al1 O15 1.765212 1_555
Al1 O39 1.836484 1_455
Al2 O4 1.764170 1_555
Al2 O7 1.766137 1_555
Al2 O14 1.822297 1_555
Al2 O22 1.893385 1_555
Al3 O37 1.723235 1_555
Al3 O43 1.770354 1_555
Al3 O23 1.856907 1_555
Al3 O42 1.874334 1_555
Al4 H14 1.589437 1_555
Al4 O3 1.751629 1_554
Al4 O23 1.852429 1_555
Al4 O20 1.857515 1_455
Al5 O27 1.771389 1_555
Al5 O0 1.827367 1_555
Al5 O19 1.875133 1_555
Al5 O37 1.944534 1_555
Al5 H14 2.044846 1_555
Al5 O18 2.089709 1_555
Al6 O31 1.787105 1_555
Al6 O17 1.813683 1_555
Al6 O28 1.877276 1_555
Al6 O22 1.899284 1_555
Al6 O24 2.144119 1_555
Al7 O11 1.774574 1_554
Al7 O37 1.803405 1_555
Al7 O9 1.877973 1_554
Al7 O18 1.889294 1_555
Al7 O32 1.929949 1_555
H0 Si9 1.490020 1_555
H1 Si1 1.488475 1_555
H1 Na3 2.580033 1_555
H2 Si5 1.474399 1_555
H3 O35 0.986753 1_555
H4 Si7 1.462319 1_655
H5 O6 1.046457 1_555
H5 O4 1.525137 1_555
H6 O24 1.062490 1_555
H6 O0 1.476073 1_555
H7 O16 0.999551 1_555
H7 O25 1.686505 1_555
H8 Si3 1.496921 1_555
H9 Si7 1.488244 1_555
H10 O27 0.981447 1_555
H11 O20 1.023296 1_565
H12 O21 1.007776 1_555
H12 O19 1.575973 1_555
H13 O7 0.979231 1_555
H14 Na7 2.285745 1_455
H15 O12 0.979745 1_555
O0 Si10 1.645842 1_555
O1 Si11 1.584291 1_555
O2 O9 1.486663 1_555
O2 Si9 1.666468 1_555
O3 Si0 1.621771 1_455
O5 Si3 1.734517 1_555
O8 Si3 1.785934 1_565
O10 Si11 1.610225 1_555
O11 Si2 1.598398 1_555
O12 O18 1.468776 1_555
O13 Si11 1.702097 1_555
O14 O8 1.505516 1_555
O15 Si1 1.649002 1_555
O16 Si2 1.647708 1_545
O17 O33 1.491466 1_565
O19 Si4 1.615814 1_555
O20 Si2 1.775845 1_544
O22 Si11 1.742795 1_555
O23 Si4 1.741514 1_555
O25 O43 1.516339 1_556
O26 Si9 1.628135 1_655
O28 Si6 1.685190 1_555
O29 Si4 1.558462 1_565
O30 Si8 1.648096 1_555
O31 Si6 1.668498 1_555
O32 Si10 1.643315 1_555
O33 O39 1.440227 1_555
O34 Si7 1.674719 1_545
O34 Si3 1.797617 1_555
O35 Si3 1.757765 1_555
O36 Si9 1.638846 1_555
O36 Si8 1.662568 1_455
O38 O41 1.559634 1_555
O38 Si5 1.752670 1_555
O40 Si0 1.614866 1_565
O40 Si8 1.681861 1_555
O41 Si5 1.718932 1_555
O42 Si4 1.753293 1_555
O42 Si5 1.809518 1_555
O44 O6 1.483060 1_655
O44 Si0 1.680848 1_555
O45 Si10 1.658166 1_555
O45 Si5 1.697660 1_555
O46 Si10 1.637230 1_555
O46 Si6 1.686933 1_555
O47 Si1 1.704966 1_555
