# generated using pymatgen
data_MnPO4
_symmetry_space_group_name_H-M   'P 1'
_cell_length_a   5.96485200
_cell_length_b   5.29494800
_cell_length_c   10.66082093
_cell_angle_alpha   60.68330772
_cell_angle_beta   90.00000000
_cell_angle_gamma   90.00000000
_symmetry_Int_Tables_number   1
_chemical_formula_structural   MnPO4
_chemical_formula_sum   'Mn4 P4 O16'
_cell_volume   293.58372590
_cell_formula_units_Z   4
loop_
 _symmetry_equiv_pos_site_id
 _symmetry_equiv_pos_as_xyz
  1  'x, y, z'
loop_
 _atom_site_type_symbol
 _atom_site_label
 _atom_site_symmetry_multiplicity
 _atom_site_fract_x
 _atom_site_fract_y
 _atom_site_fract_z
 _atom_site_occupancy
  Mn  Mn0  1  0.11989200  0.80812600  0.85947800  1
  Mn  Mn1  1  0.61989200  0.19187400  0.64052200  1
  Mn  Mn2  1  0.38010800  0.80812600  0.35947800  1
  Mn  Mn3  1  0.88010800  0.19187400  0.14052200  1
  P  P0  1  0.83725600  0.37770000  0.86651900  1
  P  P1  1  0.33725600  0.62230000  0.63348100  1
  P  P2  1  0.66274400  0.37770000  0.36651900  1
  P  P3  1  0.16274400  0.62230000  0.13348100  1
  O  O0  1  0.66500500  0.23223500  0.27237400  1
  O  O1  1  0.85290500  0.71416900  0.77278700  1
  O  O2  1  0.05677600  0.28963700  0.96228500  1
  O  O3  1  0.65812200  0.26907600  0.98773100  1
  O  O4  1  0.34187800  0.73092400  0.01226900  1
  O  O5  1  0.83499500  0.23223500  0.77237400  1
  O  O6  1  0.14709500  0.28583100  0.22721300  1
  O  O7  1  0.84187800  0.26907600  0.48773100  1
  O  O8  1  0.55677600  0.71036300  0.53771500  1
  O  O9  1  0.35290500  0.28583100  0.72721300  1
  O  O10  1  0.33499500  0.76776500  0.72762600  1
  O  O11  1  0.16500500  0.76776500  0.22762600  1
  O  O12  1  0.94322400  0.71036300  0.03771500  1
  O  O13  1  0.64709500  0.71416900  0.27278700  1
  O  O14  1  0.44322400  0.28963700  0.46228500  1
  O  O15  1  0.15812200  0.73092400  0.51226900  1
loop_
_geom_bond_atom_site_label_1
_geom_bond_atom_site_label_2
_geom_bond_distance
_geom_bond_site_symmetry_2
Mn0 O4 1.980295 1_556
Mn0 O10 1.990461 1_555
Mn0 O12 2.006441 1_456
Mn0 O1 2.021899 1_455
Mn0 O2 2.435868 1_555
Mn0 O5 2.598260 1_465
Mn0 O9 2.612532 1_565
Mn1 O7 1.980295 1_555
Mn1 O5 1.990461 1_555
Mn1 O14 2.006441 1_555
Mn1 O9 2.021899 1_555
Mn1 O8 2.435868 1_555
Mn1 O10 2.598260 1_545
Mn1 O1 2.612532 1_545
Mn2 O15 1.980295 1_555
Mn2 O11 1.990461 1_555
Mn2 O8 2.006441 1_555
Mn2 O13 2.021899 1_555
Mn2 O14 2.435868 1_555
Mn2 O0 2.598260 1_565
Mn2 O6 2.612532 1_565
Mn3 O3 1.980295 1_554
Mn3 O0 1.990461 1_555
Mn3 O2 2.006441 1_654
Mn3 O6 2.021899 1_655
Mn3 O12 2.435868 1_555
Mn3 O11 2.598260 1_645
Mn3 O13 2.612532 1_545
O0 P2 1.535514 1_555
O1 P0 1.561382 1_555
O2 P0 1.583700 1_455
O3 P0 1.553873 1_555
O4 P3 1.553873 1_555
O5 P0 1.535514 1_555
O6 P3 1.561382 1_555
O7 P2 1.553873 1_555
O8 P1 1.583700 1_555
O9 P1 1.561382 1_555
O10 P1 1.535514 1_555
O11 P3 1.535514 1_555
O12 P3 1.583700 1_655
O13 P2 1.561382 1_555
O14 P2 1.583700 1_555
O15 P1 1.553873 1_555
