# generated using pymatgen
data_Li9Nd6Sb3TeO24
_symmetry_space_group_name_H-M   'P 1'
_cell_length_a   11.17254182
_cell_length_b   11.10301110
_cell_length_c   11.10179769
_cell_angle_alpha   109.52975602
_cell_angle_beta   110.04289448
_cell_angle_gamma   108.78263128
_symmetry_Int_Tables_number   1
_chemical_formula_structural   Li9Nd6Sb3TeO24
_chemical_formula_sum   'Li18 Nd12 Sb6 Te2 O48'
_cell_volume   1060.80819954
_cell_formula_units_Z   2
loop_
 _symmetry_equiv_pos_site_id
 _symmetry_equiv_pos_as_xyz
  1  'x, y, z'
loop_
 _atom_site_type_symbol
 _atom_site_label
 _atom_site_symmetry_multiplicity
 _atom_site_fract_x
 _atom_site_fract_y
 _atom_site_fract_z
 _atom_site_occupancy
  Li  Li0  1  0.16032200  0.87111900  0.88197400  1
  Li  Li1  1  0.12925600  0.87083400  0.24832300  1
  Li  Li2  1  0.29312500  0.64332900  0.39308900  1
  Li  Li3  1  0.27480200  0.13627000  0.88030100  1
  Li  Li4  1  0.38077700  0.63220600  0.75781400  1
  Li  Li5  1  0.37438000  0.24957400  0.62603800  1
  Li  Li6  1  0.62204300  0.74912700  0.37198400  1
  Li  Li7  1  0.60505300  0.38821600  0.25568900  1
  Li  Li8  1  0.74639000  0.85163200  0.14727400  1
  Li  Li9  1  0.73619800  0.36886800  0.61132500  1
  Li  Li10  1  0.99043400  0.60567900  0.78733400  1
  Li  Li11  1  0.83596500  0.12939500  0.70264800  1
  Li  Li12  1  0.74190000  0.30912900  0.20856900  1
  Li  Li13  1  0.04137300  0.09287800  0.79729700  1
  Li  Li14  1  0.78860600  0.02965800  0.10520500  1
  Li  Li15  1  0.87896000  0.25149400  0.12766600  1
  Li  Li16  1  0.07558400  0.46094100  0.26110800  1
  Li  Li17  1  0.89204800  0.18259300  0.92947600  1
  Nd  Nd0  1  0.25506000  0.88158600  0.62200500  1
  Nd  Nd1  1  0.13906000  0.37551300  0.75157500  1
  Nd  Nd2  1  0.13337200  0.24253200  0.37711300  1
  Nd  Nd3  1  0.38382700  0.75602300  0.12431800  1
  Nd  Nd4  1  0.26601100  0.37620800  0.12931400  1
  Nd  Nd5  1  0.61431800  0.86277300  0.73549800  1
  Nd  Nd6  1  0.38214200  0.12465900  0.26118700  1
  Nd  Nd7  1  0.60903300  0.24198000  0.86757000  1
  Nd  Nd8  1  0.73528200  0.61888600  0.86767500  1
  Nd  Nd9  1  0.85276500  0.73675300  0.60700300  1
  Nd  Nd10  1  0.87133600  0.63419200  0.24987100  1
  Nd  Nd11  1  0.74600900  0.11676500  0.38456900  1
  Sb  Sb0  1  0.00392600  0.99904800  0.49797100  1
  Sb  Sb1  1  0.99526400  0.99117500  0.99722400  1
  Sb  Sb2  1  0.49231100  0.49462400  0.49961600  1
  Sb  Sb3  1  0.49653100  0.99980300  0.50049800  1
  Sb  Sb4  1  0.50034900  0.49599100  0.00024600  1
  Sb  Sb5  1  0.50209200  0.00225600  0.00417700  1
  Te  Te0  1  0.00629600  0.50381700  0.50543300  1
  Te  Te1  1  0.00182200  0.49711300  0.99772100  1
  O  O0  1  0.09281100  0.97465000  0.67785000  1
  O  O1  1  0.01284300  0.31765700  0.89492300  1
  O  O2  1  0.12621300  0.58868100  0.93239700  1
  O  O3  1  0.06546800  0.68722500  0.67267700  1
  O  O4  1  0.07932600  0.87787600  0.40569000  1
  O  O5  1  0.09901600  0.61602700  0.42723500  1
  O  O6  1  0.17108400  0.47878500  0.59681800  1
  O  O7  1  0.43213900  0.83595600  0.80751100  1
  O  O8  1  0.38515800  0.57972300  0.90859400  1
  O  O9  1  0.29995100  0.32422700  0.91739700  1
  O  O10  1  0.32867300  0.91325600  0.29815600  1
  O  O11  1  0.00774900  0.18722200  0.11305200  1
  O  O12  1  0.17332100  0.19779900  0.57876600  1
  O  O13  1  0.17848900  0.55362300  0.17371000  1
  O  O14  1  0.41271800  0.83269000  0.53309700  1
  O  O15  1  0.33568100  0.91494500  0.03224800  1
  O  O16  1  0.28917900  0.46593600  0.37659300  1
  O  O17  1  0.12495300  0.02514900  0.19410500  1
  O  O18  1  0.52416200  0.61688400  0.69878900  1
  O  O19  1  0.41155800  0.07869800  0.87916500  1
  O  O20  1  0.52889600  0.40437500  0.82838000  1
  O  O21  1  0.37984700  0.29787900  0.47540800  1
  O  O22  1  0.58567200  0.91199100  0.38783100  1
  O  O23  1  0.17629300  0.10909900  0.99647300  1
  O  O24  1  0.80107600  0.87766400  0.97833100  1
  O  O25  1  0.41258900  0.08871400  0.61632500  1
  O  O26  1  0.60748600  0.69158700  0.51900700  1
  O  O27  1  0.47148000  0.58954400  0.17150500  1
  O  O28  1  0.60824500  0.92952900  0.12700500  1
  O  O29  1  0.46002100  0.37288900  0.29830400  1
  O  O30  1  0.87365800  0.98636900  0.80556900  1
  O  O31  1  0.69536200  0.52383500  0.61266000  1
  O  O32  1  0.68796500  0.11250200  0.00473100  1
  O  O33  1  0.59172200  0.17108300  0.47672800  1
  O  O34  1  0.82501500  0.43969300  0.82469500  1
  O  O35  1  0.82803700  0.80144400  0.41762700  1
  O  O36  1  0.96793900  0.79535600  0.86589100  1
  O  O37  1  0.66822000  0.08664500  0.70989200  1
  O  O38  1  0.62116200  0.41470400  0.09807100  1
  O  O39  1  0.70025300  0.66148800  0.07895200  1
  O  O40  1  0.58507100  0.17938500  0.20671000  1
  O  O41  1  0.82958300  0.51277600  0.39403400  1
  O  O42  1  0.90901200  0.38763600  0.57725100  1
  O  O43  1  0.93268000  0.12067300  0.60241500  1
  O  O44  1  0.93148100  0.31955800  0.32399700  1
  O  O45  1  0.88434500  0.38796700  0.06407800  1
  O  O46  1  0.97889200  0.66194200  0.09756200  1
  O  O47  1  0.90637800  0.03042000  0.32580100  1
loop_
_geom_bond_atom_site_label_1
_geom_bond_atom_site_label_2
_geom_bond_distance
_geom_bond_site_symmetry_2
Li0 O15 1.860489 1_556
Li0 O36 1.957458 1_455
Li0 O3 2.106592 1_555
Li0 O23 2.434061 1_565
Li1 O10 1.948588 1_555
Li1 O46 1.992746 1_455
Li1 O4 1.993564 1_555
Li1 O17 2.005730 1_565
Li2 O14 1.790018 1_555
Li2 O16 1.900573 1_555
Li2 O13 1.995650 1_555
Li2 O5 2.270642 1_555
Li3 O19 1.838487 1_555
Li3 O9 1.890006 1_555
Li3 O23 1.996243 1_555
Li3 O0 2.056052 1_545
Li4 O8 1.938651 1_555
Li4 O18 1.960911 1_555
Li4 O7 1.965692 1_555
Li4 O6 2.027129 1_555
Li5 O21 1.932982 1_555
Li5 O25 1.943589 1_555
Li5 O12 1.952074 1_555
Li5 O20 1.957097 1_555
Li6 O22 1.943050 1_555
Li6 O27 1.949490 1_555
Li6 O26 1.977621 1_555
Li6 O35 2.008463 1_555
Li7 O29 1.811113 1_555
Li7 O38 1.925278 1_555
Li7 O41 2.066233 1_555
Li7 O40 2.112384 1_555
Li8 O39 1.805176 1_555
Li8 O47 1.928741 1_565
Li8 O28 1.983061 1_555
Li8 O24 2.238038 1_554
Li9 O33 1.879079 1_555
Li9 O31 1.913620 1_555
Li9 O34 1.963445 1_555
Li9 O42 2.051500 1_555
Li10 O2 1.908787 1_655
Li10 O3 2.038632 1_655
Li10 O36 2.126507 1_555
Li10 O42 2.341045 1_555
Li10 O34 2.413983 1_555
Li11 O43 1.798538 1_555
Li11 O37 1.816631 1_555
Li11 O1 2.072767 1_655
Li11 O30 2.306227 1_545
Li12 O40 1.864312 1_555
Li12 O44 2.006058 1_555
Li12 O41 2.095236 1_555
Li12 O32 2.272732 1_555
Li12 O38 2.354564 1_555
Li13 O0 1.912127 1_545
Li13 O30 1.918764 1_445
Li13 O23 2.113845 1_555
Li13 O43 2.266647 1_455
Li13 O1 2.538800 1_555
Li14 O24 1.883610 1_544
Li14 O32 1.961347 1_555
Li14 O28 2.103966 1_545
Li14 O47 2.345050 1_555
Li14 O11 2.460964 1_655
Li15 O32 1.809061 1_555
Li15 O11 1.830256 1_655
Li15 O44 1.844634 1_555
Li15 O45 1.866435 1_555
Li16 O5 1.921066 1_555
Li16 O13 1.998135 1_555
Li16 O45 2.122039 1_455
Li16 O16 2.260926 1_555
Li16 O44 2.327984 1_455
Li16 O11 2.614441 1_555
Li17 O1 1.911432 1_655
Li17 O11 1.977008 1_656
Li17 O30 2.048257 1_545
Li17 O45 2.318698 1_556
Li17 O37 2.387631 1_555
Nd0 O14 2.412655 1_555
Nd0 O19 2.436041 1_565
Nd0 O25 2.440693 1_565
Nd0 O5 2.500367 1_555
Nd0 O4 2.504716 1_555
Nd0 O0 2.507246 1_555
Nd0 O7 2.638634 1_555
Nd0 O3 2.853964 1_555
Nd1 O8 2.407722 1_555
Nd1 O6 2.422576 1_555
Nd1 O9 2.456873 1_555
Nd1 O43 2.472576 1_455
Nd1 O12 2.485816 1_555
Nd1 O1 2.563640 1_555
Nd1 O2 2.625233 1_555
Nd1 O42 2.712377 1_455
Nd2 O21 2.356638 1_555
Nd2 O12 2.378861 1_555
Nd2 O11 2.522307 1_555
Nd2 O17 2.531088 1_555
Nd2 O16 2.533550 1_555
Nd2 O47 2.563065 1_455
Nd2 O44 2.614329 1_455
Nd2 O6 2.704389 1_555
Nd3 O15 2.426486 1_555
Nd3 O2 2.445804 1_554
Nd3 O27 2.472155 1_555
Nd3 O22 2.493740 1_555
Nd3 O10 2.531256 1_555
Nd3 O8 2.544867 1_554
Nd3 O28 2.607408 1_555
Nd3 O13 2.996687 1_555
Nd4 O29 2.351539 1_555
Nd4 O9 2.420019 1_554
Nd4 O13 2.449692 1_555
Nd4 O16 2.472684 1_555
Nd4 O27 2.473755 1_555
Nd4 O23 2.474530 1_554
Nd4 O1 2.798968 1_554
Nd4 O11 2.872641 1_555
Nd5 O7 2.398950 1_555
Nd5 O14 2.403844 1_555
Nd5 O18 2.416206 1_555
Nd5 O30 2.462626 1_555
Nd5 O26 2.474169 1_555
Nd5 O37 2.499556 1_565
Nd5 O24 2.696845 1_555
Nd5 O32 2.933098 1_566
Nd6 O10 2.438013 1_545
Nd6 O17 2.443504 1_555
Nd6 O29 2.444099 1_555
Nd6 O33 2.456007 1_555
Nd6 O40 2.484709 1_555
Nd6 O21 2.524093 1_555
Nd6 O15 2.551787 1_545
Nd6 O23 2.954252 1_554
Nd7 O20 2.353519 1_555
Nd7 O25 2.391258 1_555
Nd7 O19 2.438437 1_555
Nd7 O37 2.446515 1_555
Nd7 O32 2.553944 1_556
Nd7 O38 2.560928 1_556
Nd7 O45 2.583315 1_556
Nd7 O34 2.990511 1_555
Nd8 O39 2.425937 1_556
Nd8 O24 2.442518 1_555
Nd8 O18 2.446744 1_555
Nd8 O31 2.482275 1_555
Nd8 O34 2.483718 1_555
Nd8 O20 2.501826 1_555
Nd8 O36 2.716188 1_555
Nd8 O46 2.781187 1_556
Nd9 O26 2.380767 1_555
Nd9 O35 2.398262 1_555
Nd9 O36 2.452594 1_555
Nd9 O31 2.486571 1_555
Nd9 O3 2.530490 1_655
Nd9 O41 2.660042 1_555
Nd9 O0 2.718736 1_655
Nd9 O30 2.782275 1_555
Nd10 O39 2.370106 1_555
Nd10 O4 2.404042 1_655
Nd10 O46 2.429152 1_555
Nd10 O35 2.456568 1_555
Nd10 O41 2.479065 1_555
Nd10 O38 2.496089 1_555
Nd10 O5 2.747949 1_655
Nd10 O45 2.905287 1_555
Nd11 O28 2.411527 1_545
Nd11 O33 2.418207 1_555
Nd11 O22 2.419995 1_545
Nd11 O47 2.458508 1_555
Nd11 O42 2.537479 1_555
Nd11 O43 2.571929 1_555
Nd11 O40 2.627676 1_555
Nd11 O44 2.962914 1_555
O0 Sb0 2.055014 1_555
O1 Te1 2.005403 1_555
O2 Te1 1.940347 1_555
O3 Te0 1.948088 1_555
O4 Sb0 1.992265 1_555
O5 Te0 1.971663 1_555
O6 Te0 1.932329 1_555
O7 Sb5 1.998209 1_566
O8 Sb4 2.015256 1_556
O9 Sb4 2.040085 1_556
O10 Sb3 1.998815 1_555
O11 Sb1 2.054552 1_444
O12 Sb0 2.019812 1_545
O13 Te1 1.961238 1_554
O14 Sb3 2.003237 1_555
O15 Sb5 1.982959 1_565
O16 Sb2 2.058260 1_555
O17 Sb1 1.986240 1_444
O18 Sb2 2.000343 1_555
O19 Sb5 2.011907 1_556
O20 Sb4 2.026177 1_556
O21 Sb2 2.007834 1_555
O22 Sb3 2.042250 1_555
O23 Sb1 2.029446 1_445
O24 Sb1 2.022368 1_555
O25 Sb3 2.020319 1_545
O26 Sb2 2.041534 1_555
O27 Sb4 2.028184 1_555
O28 Sb5 2.040203 1_565
O29 Sb2 2.016332 1_555
O30 Sb1 2.066844 1_555
O31 Sb2 2.032058 1_555
O32 Sb5 2.039663 1_555
O33 Sb3 2.010661 1_545
O34 Te1 1.941066 1_655
O35 Sb0 2.045645 1_655
O36 Sb1 2.023395 1_555
O37 Sb3 2.065682 1_545
O38 Sb4 2.061790 1_555
O39 Sb4 2.018478 1_555
O40 Sb5 2.055105 1_555
O41 Te0 1.993097 1_655
O42 Te0 1.964650 1_655
O43 Sb0 2.019812 1_645
O44 Te0 1.982658 1_655
O45 Te1 1.992327 1_654
O46 Te1 1.945195 1_654
O47 Sb0 2.055302 1_645
