# generated using pymatgen
data_YAgSe2
_symmetry_space_group_name_H-M   'P 1'
_cell_length_a   8.10138158
_cell_length_b   10.91057685
_cell_length_c   7.29901914
_cell_angle_alpha   28.84980171
_cell_angle_beta   55.98268734
_cell_angle_gamma   41.79738461
_symmetry_Int_Tables_number   1
_chemical_formula_structural   YAgSe2
_chemical_formula_sum   'Y2 Ag2 Se4'
_cell_volume   198.51265934
_cell_formula_units_Z   2
loop_
 _symmetry_equiv_pos_site_id
 _symmetry_equiv_pos_as_xyz
  1  'x, y, z'
loop_
 _atom_site_type_symbol
 _atom_site_label
 _atom_site_symmetry_multiplicity
 _atom_site_fract_x
 _atom_site_fract_y
 _atom_site_fract_z
 _atom_site_occupancy
  Y  Y0  1  0.99580000  0.00453800  0.99662100  1
  Y  Y1  1  0.75241200  0.49478400  0.00817800  1
  Ag  Ag0  1  0.49919500  0.00885900  0.98683300  1
  Ag  Ag1  1  0.24158300  0.50275100  0.00175100  1
  Se  Se0  1  0.23861800  0.99634200  0.52989400  1
  Se  Se1  1  0.75799700  0.00272700  0.47414300  1
  Se  Se2  1  0.50859100  0.50595200  0.47178700  1
  Se  Se3  1  0.98434300  0.50278800  0.52483700  1
loop_
_geom_bond_atom_site_label_1
_geom_bond_atom_site_label_2
_geom_bond_distance
_geom_bond_site_symmetry_2
Ag0 Se2 2.851652 1_555
Ag0 Se3 2.863364 1_455
Ag0 Se3 2.878269 1_546
Ag0 Se2 2.880564 1_546
Ag0 Se1 3.139218 1_555
Ag0 Se0 3.210287 1_546
Ag1 Se1 2.855165 1_464
Ag1 Se0 2.858624 1_545
Ag1 Se0 2.876245 1_554
Ag1 Se1 2.883000 1_555
Ag1 Se3 3.165287 1_455
Ag1 Se2 3.187037 1_554
Se0 Y1 2.856084 1_465
Se0 Y0 2.873361 1_465
Se0 Y1 2.879181 1_556
Se1 Y1 2.866292 1_555
Se1 Y1 2.871163 1_546
Se1 Y0 2.878058 1_554
Se2 Y0 2.862320 1_555
Se2 Y1 2.872620 1_555
Se2 Y0 2.873097 1_464
Se3 Y0 2.868072 1_564
Se3 Y0 2.869013 1_555
Se3 Y1 2.876173 1_556
