# generated using pymatgen
data_Yb16S29
_symmetry_space_group_name_H-M   'P 1'
_cell_length_a   11.13139100
_cell_length_b   11.14658823
_cell_length_c   11.61831442
_cell_angle_alpha   114.78366889
_cell_angle_beta   118.40523856
_cell_angle_gamma   90.15006340
_symmetry_Int_Tables_number   1
_chemical_formula_structural   Yb16S29
_chemical_formula_sum   'Yb16 S29'
_cell_volume   1113.77241614
_cell_formula_units_Z   1
loop_
 _symmetry_equiv_pos_site_id
 _symmetry_equiv_pos_as_xyz
  1  'x, y, z'
loop_
 _atom_site_type_symbol
 _atom_site_label
 _atom_site_symmetry_multiplicity
 _atom_site_fract_x
 _atom_site_fract_y
 _atom_site_fract_z
 _atom_site_occupancy
  Yb  Yb0  1  0.70434800  0.94680600  0.65218800  1
  Yb  Yb1  1  0.78658800  0.79141000  0.31562700  1
  Yb  Yb2  1  0.95566000  0.69777100  0.65692000  1
  Yb  Yb3  1  0.21494200  0.95268900  0.67282700  1
  Yb  Yb4  1  0.04325600  0.55067300  0.34093300  1
  Yb  Yb5  1  0.29213000  0.79884400  0.33166200  1
  Yb  Yb6  1  0.20699400  0.44721300  0.66211900  1
  Yb  Yb7  1  0.44968800  0.69260200  0.64687200  1
  Yb  Yb8  1  0.29984400  0.30380000  0.34902100  1
  Yb  Yb9  1  0.54442000  0.55224100  0.33845600  1
  Yb  Yb10  1  0.45715900  0.19623600  0.66226700  1
  Yb  Yb11  1  0.70318700  0.44611200  0.65191300  1
  Yb  Yb12  1  0.54733700  0.05216500  0.34076600  1
  Yb  Yb13  1  0.80158300  0.30500900  0.34860900  1
  Yb  Yb14  1  0.96198900  0.20112300  0.67057100  1
  Yb  Yb15  1  0.05616200  0.05722900  0.35515800  1
  S  S0  1  0.07722600  0.05751000  0.01454000  1
  S  S1  1  0.19675600  0.96826200  0.93954000  1
  S  S2  1  0.52594100  0.92284600  0.95413200  1
  S  S3  1  0.54946800  0.80568700  0.34255800  1
  S  S4  1  0.53154900  0.82435100  0.06704400  1
  S  S5  1  0.73156100  0.02770600  0.03954900  1
  S  S6  1  0.43472100  0.52810100  0.98188700  1
  S  S7  1  0.94183400  0.93348400  0.62658000  1
  S  S8  1  0.79625300  0.55365500  0.34257900  1
  S  S9  1  0.79387800  0.52735600  0.04800000  1
  S  S10  1  0.05632500  0.81090400  0.35983800  1
  S  S11  1  0.00233200  0.74024400  0.05024100  1
  S  S12  1  0.70087100  0.20607500  0.01208400  1
  S  S13  1  0.20275900  0.69477200  0.65337800  1
  S  S14  1  0.93499100  0.54865600  0.99371700  1
  S  S15  1  0.44772900  0.93507600  0.63649400  1
  S  S16  1  0.05179000  0.30452000  0.35029100  1
  S  S17  1  0.99406700  0.18942200  0.94565700  1
  S  S18  1  0.28977400  0.54724800  0.33272500  1
  S  S19  1  0.29223200  0.49492800  0.02306200  1
  S  S20  1  0.45710500  0.44749500  0.65979800  1
  S  S21  1  0.70396800  0.69782200  0.65420100  1
  S  S22  1  0.30078000  0.05513500  0.34861600  1
  S  S23  1  0.54620700  0.30245900  0.33992400  1
  S  S24  1  0.50915500  0.22693600  0.95590300  1
  S  S25  1  0.70543700  0.19647700  0.65568300  1
  S  S26  1  0.95616700  0.44772000  0.65892300  1
  S  S27  1  0.80908000  0.06082900  0.35953500  1
  S  S28  1  0.20607200  0.19503900  0.66100900  1
loop_
_geom_bond_atom_site_label_1
_geom_bond_atom_site_label_2
_geom_bond_distance
_geom_bond_site_symmetry_2
S0 S1 1.975474 1_544
S0 S17 1.987012 1_454
S0 Yb8 3.261469 1_555
S1 Yb3 3.133597 1_555
S1 Yb2 3.216867 1_455
S2 S4 2.014975 1_556
S2 S5 2.107659 1_566
S2 Yb7 3.078224 1_555
S3 Yb12 2.756260 1_565
S3 Yb0 2.780062 1_555
S3 Yb1 2.799331 1_555
S3 Yb9 2.805374 1_555
S3 Yb5 2.805909 1_555
S4 Yb12 3.047658 1_565
S4 Yb1 3.103121 1_555
S5 Yb13 3.327852 1_555
S5 Yb15 3.603654 1_655
S6 Yb6 3.043165 1_555
S7 Yb2 2.788930 1_555
S7 Yb1 2.792021 1_555
S7 Yb0 2.795038 1_555
S7 Yb14 2.796512 1_565
S7 Yb3 2.814717 1_655
S8 Yb4 2.758826 1_655
S8 Yb9 2.780673 1_555
S8 Yb1 2.792517 1_555
S8 Yb13 2.801721 1_555
S8 Yb2 2.822761 1_555
S9 Yb4 3.102014 1_655
S9 Yb1 3.302478 1_555
S10 Yb15 2.768905 1_565
S10 Yb1 2.786040 1_455
S10 Yb5 2.792395 1_555
S10 Yb3 2.810193 1_555
S10 Yb4 2.813651 1_555
S11 S14 1.975152 1_454
S11 Yb5 3.112375 1_555
S11 Yb15 3.587273 1_565
S12 S24 1.959318 1_554
S12 S5 2.145515 1_555
S12 Yb13 3.157261 1_555
S13 Yb2 2.770449 1_455
S13 Yb7 2.785307 1_555
S13 Yb3 2.785433 1_555
S13 Yb6 2.803232 1_555
S13 Yb4 2.806151 1_555
S14 S9 1.996895 1_556
S14 Yb11 3.188230 1_555
S15 Yb5 2.736822 1_555
S15 Yb7 2.755166 1_555
S15 Yb0 2.773553 1_555
S15 Yb10 2.795093 1_565
S15 Yb3 2.811609 1_555
S16 Yb8 2.768250 1_555
S16 Yb13 2.775945 1_455
S16 Yb15 2.780710 1_555
S16 Yb4 2.791189 1_555
S16 Yb6 2.799930 1_555
S17 Yb14 3.102114 1_555
S17 Yb0 3.331896 1_545
S18 Yb4 2.790526 1_555
S18 Yb8 2.797188 1_555
S18 Yb9 2.803352 1_555
S18 Yb5 2.809745 1_555
S18 Yb7 2.821515 1_555
S19 S6 1.936084 1_554
S19 Yb9 3.155503 1_555
S20 Yb11 2.783851 1_555
S20 Yb8 2.791087 1_555
S20 Yb6 2.797018 1_555
S20 Yb7 2.797705 1_555
S20 Yb10 2.812825 1_555
S21 Yb0 2.785216 1_555
S21 Yb2 2.786797 1_555
S21 Yb7 2.790697 1_555
S21 Yb11 2.794620 1_555
S21 Yb9 2.835546 1_555
S22 Yb15 2.759795 1_555
S22 Yb8 2.769853 1_555
S22 Yb5 2.778119 1_545
S22 Yb12 2.788890 1_555
S22 Yb10 2.815780 1_555
S23 Yb9 2.791475 1_555
S23 Yb8 2.794029 1_555
S23 Yb12 2.794079 1_555
S23 Yb13 2.795737 1_555
S23 Yb11 2.801694 1_555
S24 Yb10 3.038484 1_555
S24 Yb3 3.486824 1_545
S25 Yb0 2.766114 1_545
S25 Yb14 2.776658 1_555
S25 Yb10 2.800902 1_555
S25 Yb11 2.801213 1_555
S25 Yb12 2.827763 1_555
S26 Yb6 2.774634 1_655
S26 Yb11 2.777990 1_555
S26 Yb13 2.786538 1_555
S26 Yb2 2.797049 1_555
S26 Yb14 2.807562 1_555
S27 Yb15 2.775004 1_655
S27 Yb13 2.777033 1_555
S27 Yb14 2.792445 1_555
S27 Yb12 2.814628 1_555
S27 Yb1 2.816326 1_545
S28 Yb15 2.745911 1_555
S28 Yb3 2.761431 1_545
S28 Yb14 2.771419 1_455
S28 Yb10 2.787992 1_555
S28 Yb6 2.805468 1_555
