# generated using pymatgen
data_Ga4Hg11(AsBr4)4
_symmetry_space_group_name_H-M   'P 1'
_cell_length_a   7.92999975
_cell_length_b   7.92999975
_cell_length_c   23.32367110
_cell_angle_alpha   82.50138229
_cell_angle_beta   82.50138229
_cell_angle_gamma   59.36331946
_symmetry_Int_Tables_number   1
_chemical_formula_structural   Ga4Hg11(AsBr4)4
_chemical_formula_sum   'Ga4 Hg11 As4 Br16'
_cell_volume   1247.65925326
_cell_formula_units_Z   1
loop_
 _symmetry_equiv_pos_site_id
 _symmetry_equiv_pos_as_xyz
  1  'x, y, z'
loop_
 _atom_site_type_symbol
 _atom_site_label
 _atom_site_symmetry_multiplicity
 _atom_site_fract_x
 _atom_site_fract_y
 _atom_site_fract_z
 _atom_site_occupancy
  Ga  Ga0  1  0.63870800  0.63870800  0.10959800  1
  Ga  Ga1  1  0.36129200  0.36129200  0.89040200  1
  Ga  Ga2  1  0.75919700  0.75919700  0.61401200  1
  Ga  Ga3  1  0.24080300  0.24080300  0.38598800  1
  Hg  Hg0  1  0.03164800  0.03164800  0.88360600  1
  Hg  Hg1  1  0.76647600  0.76647600  0.28301300  1
  Hg  Hg2  1  0.47081500  0.47081500  0.55733500  1
  Hg  Hg3  1  0.73299800  0.23500600  0.72077800  1
  Hg  Hg4  1  0.26700200  0.76499400  0.27922200  1
  Hg  Hg5  1  0.76499400  0.26700200  0.27922200  1
  Hg  Hg6  1  0.23500600  0.73299800  0.72077800  1
  Hg  Hg7  1  0.52918500  0.52918500  0.44266500  1
  Hg  Hg8  1  0.96835200  0.96835200  0.11639400  1
  Hg  Hg9  1  0.00000000  0.00000000  0.00000000  1
  Hg  Hg10  1  0.23352400  0.23352400  0.71698700  1
  As  As0  1  0.94286200  0.94286200  0.23139700  1
  As  As1  1  0.05713800  0.05713800  0.76860300  1
  As  As2  1  0.58641200  0.58641200  0.33006400  1
  As  As3  1  0.41358800  0.41358800  0.66993600  1
  Br  Br0  1  0.53353600  0.04924500  0.85083200  1
  Br  Br1  1  0.07139500  0.07139500  0.42071500  1
  Br  Br2  1  0.53109100  0.53109100  0.85106000  1
  Br  Br3  1  0.43412600  0.93001800  0.58493600  1
  Br  Br4  1  0.73753400  0.73753400  0.71667500  1
  Br  Br5  1  0.33703900  0.33703900  0.99091700  1
  Br  Br6  1  0.46646400  0.95075500  0.14916800  1
  Br  Br7  1  0.95075500  0.46646400  0.14916800  1
  Br  Br8  1  0.46890900  0.46890900  0.14894000  1
  Br  Br9  1  0.56587400  0.06998200  0.41506400  1
  Br  Br10  1  0.66296100  0.66296100  0.00908300  1
  Br  Br11  1  0.93001800  0.43412600  0.58493600  1
  Br  Br12  1  0.26246600  0.26246600  0.28332500  1
  Br  Br13  1  0.06998200  0.56587400  0.41506400  1
  Br  Br14  1  0.92860500  0.92860500  0.57928500  1
  Br  Br15  1  0.04924500  0.53353600  0.85083200  1
loop_
_geom_bond_atom_site_label_1
_geom_bond_atom_site_label_2
_geom_bond_distance
_geom_bond_site_symmetry_2
Hg0 Hg9 2.684083 1_556
Hg2 Hg7 2.674644 1_555
Hg8 Hg9 2.684083 1_665
As0 Hg1 2.545046 1_555
As0 Hg5 2.546255 1_565
As0 Hg4 2.546255 1_655
As0 Hg8 2.652362 1_555
As1 Hg10 2.545046 1_555
As1 Hg6 2.546255 1_545
As1 Hg3 2.546255 1_455
As1 Hg0 2.652362 1_555
As2 Hg4 2.552877 1_555
As2 Hg5 2.552877 1_555
As2 Hg1 2.557769 1_555
As2 Hg7 2.626200 1_555
As3 Hg6 2.552877 1_555
As3 Hg3 2.552877 1_555
As3 Hg10 2.557769 1_555
As3 Hg2 2.626200 1_555
Br0 Ga1 2.379710 1_555
Br1 Ga3 2.353056 1_555
Br2 Ga1 2.381394 1_555
Br3 Ga2 2.365919 1_555
Br4 Ga2 2.368101 1_555
Br5 Ga1 2.317849 1_555
Br6 Ga0 2.379710 1_555
Br7 Ga0 2.379710 1_555
Br8 Ga0 2.381394 1_555
Br9 Ga3 2.365919 1_555
Br10 Ga0 2.317849 1_555
Br11 Ga2 2.365919 1_555
Br12 Ga3 2.368101 1_555
Br13 Ga3 2.365919 1_555
Br14 Ga2 2.353056 1_555
Br15 Ga1 2.379710 1_555
