# generated using pymatgen
data_Ba4Zr(RuO4)3
_symmetry_space_group_name_H-M   'P 1'
_cell_length_a   10.32082214
_cell_length_b   10.32082214
_cell_length_c   10.32082279
_cell_angle_alpha   33.13238573
_cell_angle_beta   33.13238573
_cell_angle_gamma   33.13238154
_symmetry_Int_Tables_number   1
_chemical_formula_structural   Ba4Zr(RuO4)3
_chemical_formula_sum   'Ba4 Zr1 Ru3 O12'
_cell_volume   292.33729540
_cell_formula_units_Z   1
loop_
 _symmetry_equiv_pos_site_id
 _symmetry_equiv_pos_as_xyz
  1  'x, y, z'
loop_
 _atom_site_type_symbol
 _atom_site_label
 _atom_site_symmetry_multiplicity
 _atom_site_fract_x
 _atom_site_fract_y
 _atom_site_fract_z
 _atom_site_occupancy
  Ba  Ba0  1  0.71335900  0.71335900  0.71335900  1
  Ba  Ba1  1  0.28664100  0.28664100  0.28664100  1
  Ba  Ba2  1  0.87152600  0.87152600  0.87152600  1
  Ba  Ba3  1  0.12847400  0.12847400  0.12847400  1
  Zr  Zr0  1  0.00000000  0.00000000  0.00000000  1
  Ru  Ru0  1  0.41258200  0.41258200  0.41258200  1
  Ru  Ru1  1  0.50000000  0.50000000  0.50000000  1
  Ru  Ru2  1  0.58741800  0.58741800  0.58741800  1
  O  O0  1  0.21104900  0.21104900  0.70098700  1
  O  O1  1  0.70098700  0.21104900  0.21104900  1
  O  O2  1  0.21104900  0.70098700  0.21104900  1
  O  O3  1  0.78895100  0.29901300  0.78895100  1
  O  O4  1  0.78895100  0.78895100  0.29901300  1
  O  O5  1  0.29901300  0.78895100  0.78895100  1
  O  O6  1  0.38807100  0.38807100  0.85451300  1
  O  O7  1  0.85451300  0.38807100  0.38807100  1
  O  O8  1  0.14548700  0.61192900  0.61192900  1
  O  O9  1  0.61192900  0.61192900  0.14548700  1
  O  O10  1  0.61192900  0.14548700  0.61192900  1
  O  O11  1  0.38807100  0.85451300  0.38807100  1
loop_
_geom_bond_atom_site_label_1
_geom_bond_atom_site_label_2
_geom_bond_distance
_geom_bond_site_symmetry_2
Ba0 O8 2.877347 1_655
Ba0 O10 2.877347 1_565
Ba0 O9 2.877347 1_556
Ba0 O0 2.947556 1_655
Ba0 O0 2.947556 1_565
Ba0 O2 2.947556 1_556
Ba0 O1 2.947556 1_556
Ba0 O2 2.947556 1_655
Ba0 O1 2.947556 1_565
Ba0 O3 3.057581 1_555
Ba0 O5 3.057581 1_555
Ba0 O4 3.057581 1_555
Ba1 O7 2.877347 1_455
Ba1 O11 2.877347 1_545
Ba1 O6 2.877347 1_554
Ba1 O4 2.947556 1_455
Ba1 O4 2.947556 1_545
Ba1 O5 2.947556 1_554
Ba1 O3 2.947556 1_554
Ba1 O3 2.947556 1_455
Ba1 O5 2.947556 1_545
Ba1 O1 3.057581 1_555
Ba1 O2 3.057581 1_555
Ba1 O0 3.057581 1_555
Ba2 O6 2.949075 1_565
Ba2 O6 2.949075 1_655
Ba2 O7 2.949076 1_565
Ba2 O11 2.949076 1_655
Ba2 O7 2.949076 1_556
Ba2 O11 2.949076 1_556
Ba2 O9 2.999764 1_556
Ba2 O10 2.999765 1_565
Ba2 O8 2.999765 1_655
Ba2 O5 3.088685 1_655
Ba2 O3 3.088685 1_565
Ba2 O4 3.088686 1_556
Ba3 O9 2.949075 1_455
Ba3 O9 2.949075 1_545
Ba3 O8 2.949076 1_545
Ba3 O10 2.949076 1_455
Ba3 O10 2.949076 1_554
Ba3 O8 2.949076 1_554
Ba3 O6 2.999764 1_554
Ba3 O11 2.999765 1_545
Ba3 O7 2.999765 1_455
Ba3 O1 3.088685 1_455
Ba3 O2 3.088685 1_545
Ba3 O0 3.088686 1_554
O0 Ru0 2.005024 1_555
O0 Zr0 2.107767 1_556
O1 Ru0 2.005024 1_555
O1 Zr0 2.107767 1_655
O2 Ru0 2.005024 1_555
O2 Zr0 2.107767 1_565
O3 Ru2 2.005024 1_555
O3 Zr0 2.107767 1_656
O4 Ru2 2.005024 1_555
O4 Zr0 2.107767 1_665
O5 Ru2 2.005024 1_555
O5 Zr0 2.107767 1_566
O6 Ru1 2.033054 1_555
O6 Ru2 2.038828 1_555
O7 Ru1 2.033053 1_555
O7 Ru2 2.038828 1_555
O8 Ru1 2.033053 1_555
O8 Ru0 2.038828 1_555
O9 Ru1 2.033054 1_555
O9 Ru0 2.038828 1_555
O10 Ru1 2.033053 1_555
O10 Ru0 2.038828 1_555
O11 Ru1 2.033053 1_555
O11 Ru2 2.038828 1_555
