# generated using pymatgen
data_RbCr3S5
_symmetry_space_group_name_H-M   'P 1'
_cell_length_a   9.94692336
_cell_length_b   9.94692336
_cell_length_c   12.21930977
_cell_angle_alpha   57.71759479
_cell_angle_beta   57.71759479
_cell_angle_gamma   20.45925204
_symmetry_Int_Tables_number   1
_chemical_formula_structural   RbCr3S5
_chemical_formula_sum   'Rb2 Cr6 S10'
_cell_volume   354.94186050
_cell_formula_units_Z   2
loop_
 _symmetry_equiv_pos_site_id
 _symmetry_equiv_pos_as_xyz
  1  'x, y, z'
loop_
 _atom_site_type_symbol
 _atom_site_label
 _atom_site_symmetry_multiplicity
 _atom_site_fract_x
 _atom_site_fract_y
 _atom_site_fract_z
 _atom_site_occupancy
  Rb  Rb0  1  0.74603967  0.74603967  0.16716065  1
  Rb  Rb1  1  0.25396033  0.25396033  0.83283935  1
  Cr  Cr0  1  0.01785455  0.01785455  0.22897829  1
  Cr  Cr1  1  0.16476126  0.16476126  0.61056050  1
  Cr  Cr2  1  0.50000000  0.50000000  -0.00000000  1
  Cr  Cr3  1  0.98214545  0.98214545  0.77102171  1
  Cr  Cr4  1  0.83523874  0.83523874  0.38943950  1
  Cr  Cr5  1  0.50000000  0.50000000  0.50000000  1
  S  S0  1  0.59220666  0.59220666  0.08034913  1
  S  S1  1  0.57456699  0.57456699  0.60830102  1
  S  S2  1  0.92691543  0.92691543  0.15194361  1
  S  S3  1  0.42543301  0.42543301  0.39169898  1
  S  S4  1  0.08031305  0.08031305  0.34908871  1
  S  S5  1  0.07308457  0.07308457  0.84805639  1
  S  S6  1  0.74314680  0.74314680  0.61645356  1
  S  S7  1  0.40779334  0.40779334  0.91965087  1
  S  S8  1  0.25685320  0.25685320  0.38354644  1
  S  S9  1  0.91968695  0.91968695  0.65091129  1
loop_
_geom_bond_atom_site_label_1
_geom_bond_atom_site_label_2
_geom_bond_distance
_geom_bond_site_symmetry_2
Rb0 S4 3.280315 1_565
Rb0 S4 3.280315 1_655
Rb0 S8 3.280876 1_655
Rb0 S8 3.280876 1_565
Rb0 S2 3.443744 1_555
Rb0 S7 3.449643 1_654
Rb0 S7 3.449643 1_564
Rb0 S0 3.696372 1_555
Rb1 S9 3.280315 1_545
Rb1 S9 3.280315 1_455
Rb1 S6 3.280876 1_545
Rb1 S6 3.280876 1_455
Rb1 S5 3.443744 1_555
Rb1 S0 3.449643 1_546
Rb1 S0 3.449643 1_456
Rb1 S7 3.696372 1_555
Cr0 S4 2.365848 1_555
Cr0 S0 2.380819 1_545
Cr0 S0 2.380819 1_455
Cr0 S2 2.423810 1_445
Cr0 S3 2.538281 1_545
Cr0 S3 2.538281 1_455
Cr1 S8 2.348795 1_555
Cr1 S6 2.366578 1_455
Cr1 S6 2.366578 1_545
Cr1 S5 2.447352 1_555
Cr1 S1 2.508435 1_455
Cr1 S1 2.508435 1_545
Cr2 S2 2.394043 1_545
Cr2 S5 2.394043 1_654
Cr2 S5 2.394043 1_564
Cr2 S2 2.394043 1_455
Cr2 S0 2.479200 1_555
Cr2 S7 2.479200 1_554
Cr3 S9 2.365848 1_555
Cr3 S7 2.380819 1_655
Cr3 S7 2.380819 1_565
Cr3 S5 2.423810 1_665
Cr3 S1 2.538281 1_565
Cr3 S1 2.538281 1_655
Cr4 S6 2.348795 1_555
Cr4 S8 2.366578 1_565
Cr4 S8 2.366578 1_655
Cr4 S2 2.447352 1_555
Cr4 S3 2.508435 1_565
Cr4 S3 2.508435 1_655
Cr5 S9 2.417869 1_545
Cr5 S4 2.417869 1_565
Cr5 S9 2.417869 1_455
Cr5 S4 2.417869 1_655
Cr5 S1 2.445281 1_555
Cr5 S3 2.445281 1_555
