# generated using pymatgen
data_K2Na2Gd4Nb2O13
_symmetry_space_group_name_H-M   'P 1'
_cell_length_a   12.44017168
_cell_length_b   12.44017168
_cell_length_c   11.25431600
_cell_angle_alpha   64.40815056
_cell_angle_beta   64.40815056
_cell_angle_gamma   26.40386000
_symmetry_Int_Tables_number   1
_chemical_formula_structural   K2Na2Gd4Nb2O13
_chemical_formula_sum   'K4 Na4 Gd8 Nb4 O26'
_cell_volume   694.11524478
_cell_formula_units_Z   2
loop_
 _symmetry_equiv_pos_site_id
 _symmetry_equiv_pos_as_xyz
  1  'x, y, z'
loop_
 _atom_site_type_symbol
 _atom_site_label
 _atom_site_symmetry_multiplicity
 _atom_site_fract_x
 _atom_site_fract_y
 _atom_site_fract_z
 _atom_site_occupancy
  K  K0  1  0.19587100  0.30563000  0.63327000  1
  K  K1  1  0.80412900  0.69437000  0.36673000  1
  K  K2  1  0.69437000  0.80412900  0.86673000  1
  K  K3  1  0.30563000  0.19587100  0.13327000  1
  Na  Na0  1  0.80128400  0.88075400  0.52227300  1
  Na  Na1  1  0.19871600  0.11924600  0.47772700  1
  Na  Na2  1  0.88075400  0.80128400  0.02227300  1
  Na  Na3  1  0.11924600  0.19871600  0.97772700  1
  Gd  Gd0  1  0.39145800  0.48353400  0.44951000  1
  Gd  Gd1  1  0.48353400  0.39145800  0.94951000  1
  Gd  Gd2  1  0.09881800  0.02567700  0.32849500  1
  Gd  Gd3  1  0.60854200  0.51646600  0.55049000  1
  Gd  Gd4  1  0.51646600  0.60854200  0.05049000  1
  Gd  Gd5  1  0.97432300  0.90118200  0.17150500  1
  Gd  Gd6  1  0.02567700  0.09881800  0.82849500  1
  Gd  Gd7  1  0.90118200  0.97432300  0.67150500  1
  Nb  Nb0  1  0.61610700  0.68474000  0.71766900  1
  Nb  Nb1  1  0.38389300  0.31526000  0.28233100  1
  Nb  Nb2  1  0.68474000  0.61610700  0.21766900  1
  Nb  Nb3  1  0.31526000  0.38389300  0.78233100  1
  O  O0  1  0.24621500  0.75378500  0.25000000  1
  O  O1  1  0.66920100  0.80230400  0.62236600  1
  O  O2  1  0.75113400  0.24630900  0.47742600  1
  O  O3  1  0.13478600  0.59501800  0.37724900  1
  O  O4  1  0.40498200  0.86521400  0.12275100  1
  O  O5  1  0.33079900  0.19769600  0.37763400  1
  O  O6  1  0.75378500  0.24621500  0.75000000  1
  O  O7  1  0.19769600  0.33079900  0.87763400  1
  O  O8  1  0.82939700  0.36872000  0.16100000  1
  O  O9  1  0.09195900  0.64538400  0.63856000  1
  O  O10  1  0.75369100  0.24886600  0.02257400  1
  O  O11  1  0.64538400  0.09195900  0.13856000  1
  O  O12  1  0.36872000  0.82939700  0.66100000  1
  O  O13  1  0.35461600  0.90804100  0.86144000  1
  O  O14  1  0.86521400  0.40498200  0.62275100  1
  O  O15  1  0.56119900  0.17957600  0.63596300  1
  O  O16  1  0.24886600  0.75369100  0.52257400  1
  O  O17  1  0.59501800  0.13478600  0.87724900  1
  O  O18  1  0.63128000  0.17060300  0.33900000  1
  O  O19  1  0.17957600  0.56119900  0.13596300  1
  O  O20  1  0.17060300  0.63128000  0.83900000  1
  O  O21  1  0.90804100  0.35461600  0.36144000  1
  O  O22  1  0.80230400  0.66920100  0.12236600  1
  O  O23  1  0.24630900  0.75113400  0.97742600  1
  O  O24  1  0.43880100  0.82042400  0.36403700  1
  O  O25  1  0.82042400  0.43880100  0.86403700  1
loop_
_geom_bond_atom_site_label_1
_geom_bond_atom_site_label_2
_geom_bond_distance
_geom_bond_site_symmetry_2
K0 O1 2.808232 1_545
K0 O5 2.832934 1_555
K0 O7 2.910749 1_555
K0 O1 2.939371 1_455
K0 O14 3.106263 1_455
K0 O3 3.141573 1_555
K0 O9 3.146779 1_555
K0 O15 3.228926 1_555
K0 O25 3.268172 1_455
K0 O13 3.296783 1_545
K1 O5 2.808232 1_565
K1 O1 2.832934 1_555
K1 O22 2.910749 1_555
K1 O5 2.939371 1_655
K1 O3 3.106263 1_655
K1 O14 3.141573 1_555
K1 O21 3.146779 1_555
K1 O24 3.228926 1_555
K1 O19 3.268172 1_655
K1 O11 3.296783 1_565
K2 O7 2.808232 1_655
K2 O22 2.832934 1_556
K2 O1 2.910749 1_555
K2 O7 2.939371 1_565
K2 O17 3.106263 1_565
K2 O4 3.141573 1_556
K2 O13 3.146779 1_555
K2 O25 3.228926 1_555
K2 O15 3.268172 1_565
K2 O9 3.296783 1_655
K3 O22 2.808232 1_455
K3 O7 2.832934 1_554
K3 O5 2.910749 1_555
K3 O22 2.939371 1_545
K3 O4 3.106263 1_545
K3 O17 3.141573 1_554
K3 O11 3.146779 1_555
K3 O19 3.228926 1_555
K3 O24 3.268172 1_545
K3 O21 3.296783 1_455
Na0 O9 2.274430 1_655
Na0 O1 2.290212 1_555
Na0 O3 2.292592 1_655
Na0 O15 2.301127 1_565
Na0 O18 2.326261 1_565
Na1 O21 2.274430 1_455
Na1 O5 2.290212 1_555
Na1 O14 2.292592 1_455
Na1 O24 2.301127 1_545
Na1 O12 2.326261 1_545
Na2 O11 2.274430 1_565
Na2 O22 2.290212 1_555
Na2 O17 2.292592 1_564
Na2 O19 2.301127 1_655
Na2 O20 2.326261 1_654
Na3 O13 2.274430 1_545
Na3 O7 2.290212 1_555
Na3 O4 2.292592 1_546
Na3 O25 2.301127 1_455
Na3 O8 2.326261 1_456
Gd0 O16 2.359162 1_555
Gd0 O2 2.363810 1_555
Gd0 O0 2.389719 1_555
Gd0 O18 2.402989 1_555
Gd0 O15 2.414568 1_555
Gd0 O9 2.424184 1_555
Gd0 O3 2.473153 1_555
Gd1 O10 2.359162 1_556
Gd1 O23 2.363810 1_555
Gd1 O6 2.389719 1_555
Gd1 O20 2.402989 1_555
Gd1 O19 2.414568 1_556
Gd1 O11 2.424184 1_556
Gd1 O17 2.473153 1_555
Gd2 O2 2.344282 1_455
Gd2 O16 2.351001 1_545
Gd2 O0 2.378017 1_545
Gd2 O21 2.380832 1_455
Gd2 O24 2.408637 1_545
Gd2 O8 2.425872 1_455
Gd2 O4 2.570473 1_545
Gd3 O2 2.359162 1_555
Gd3 O16 2.363810 1_555
Gd3 O6 2.389719 1_555
Gd3 O12 2.402989 1_555
Gd3 O24 2.414568 1_555
Gd3 O21 2.424184 1_555
Gd3 O14 2.473153 1_555
Gd4 O23 2.359162 1_554
Gd4 O10 2.363810 1_555
Gd4 O0 2.389719 1_555
Gd4 O8 2.402989 1_555
Gd4 O25 2.414568 1_554
Gd4 O13 2.424184 1_554
Gd4 O4 2.473153 1_555
Gd5 O10 2.344282 1_565
Gd5 O23 2.351001 1_654
Gd5 O0 2.378017 1_655
Gd5 O11 2.380832 1_565
Gd5 O19 2.408637 1_655
Gd5 O18 2.425872 1_565
Gd5 O3 2.570473 1_655
Gd6 O23 2.344282 1_545
Gd6 O10 2.351001 1_456
Gd6 O6 2.378017 1_455
Gd6 O13 2.380832 1_545
Gd6 O25 2.408637 1_455
Gd6 O12 2.425872 1_545
Gd6 O14 2.570473 1_455
Gd7 O16 2.344282 1_655
Gd7 O2 2.351001 1_565
Gd7 O6 2.378017 1_565
Gd7 O9 2.380832 1_655
Gd7 O15 2.408637 1_565
Gd7 O20 2.425872 1_655
Gd7 O17 2.570473 1_565
Nb0 O1 1.867847 1_555
Nb0 O25 1.966522 1_555
Nb0 O14 1.971944 1_555
Nb0 O12 1.974739 1_555
Nb0 O13 2.016188 1_555
Nb1 O5 1.867847 1_555
Nb1 O19 1.966522 1_555
Nb1 O3 1.971944 1_555
Nb1 O18 1.974739 1_555
Nb1 O11 2.016188 1_555
Nb2 O22 1.867847 1_555
Nb2 O24 1.966522 1_555
Nb2 O4 1.971944 1_555
Nb2 O8 1.974739 1_555
Nb2 O21 2.016188 1_555
Nb3 O7 1.867847 1_555
Nb3 O15 1.966522 1_555
Nb3 O17 1.971944 1_555
Nb3 O20 1.974739 1_555
Nb3 O9 2.016188 1_555
