# generated using pymatgen
data_TiBrO
_symmetry_space_group_name_H-M   'P 1'
_cell_length_a   4.41806500
_cell_length_b   11.04976439
_cell_length_c   11.16217347
_cell_angle_alpha   92.96845915
_cell_angle_beta   89.87286499
_cell_angle_gamma   92.92241849
_symmetry_Int_Tables_number   1
_chemical_formula_structural   TiBrO
_chemical_formula_sum   'Ti8 Br8 O8'
_cell_volume   543.48247310
_cell_formula_units_Z   8
loop_
 _symmetry_equiv_pos_site_id
 _symmetry_equiv_pos_as_xyz
  1  'x, y, z'
loop_
 _atom_site_type_symbol
 _atom_site_label
 _atom_site_symmetry_multiplicity
 _atom_site_fract_x
 _atom_site_fract_y
 _atom_site_fract_z
 _atom_site_occupancy
  Ti  Ti0  1  0.01196400  0.82249100  0.76228100  1
  Ti  Ti1  1  0.50206200  0.92041600  0.88396300  1
  Ti  Ti2  1  0.49684900  0.08220000  0.11501600  1
  Ti  Ti3  1  0.98989200  0.17145600  0.23962100  1
  Ti  Ti4  1  0.99980700  0.91039200  0.10818500  1
  Ti  Ti5  1  0.49975900  0.84262400  0.23455900  1
  Ti  Ti6  1  0.99752100  0.09032400  0.89352300  1
  Ti  Ti7  1  0.50250100  0.14902000  0.76178500  1
  Br  Br0  1  0.96886000  0.36029200  0.14416900  1
  Br  Br1  1  0.00115000  0.84952000  0.34613100  1
  Br  Br2  1  0.00203700  0.15176800  0.64939200  1
  Br  Br3  1  0.49338400  0.63491700  0.16023100  1
  Br  Br4  1  0.03464300  0.63598000  0.85922800  1
  Br  Br5  1  0.51124000  0.35953000  0.83468400  1
  Br  Br6  1  0.48719000  0.16362200  0.35037600  1
  Br  Br7  1  0.51490100  0.83935700  0.65058900  1
  O  O0  1  0.50462000  0.10207500  0.93055600  1
  O  O1  1  0.02186500  0.48536800  0.44802200  1
  O  O2  1  0.47545300  0.52133100  0.55482700  1
  O  O3  1  0.00534400  0.09004000  0.08068700  1
  O  O4  1  0.46951500  0.47816300  0.44998000  1
  O  O5  1  0.02774800  0.52849300  0.55336900  1
  O  O6  1  0.49147100  0.90008500  0.07089000  1
  O  O7  1  0.99022400  0.91053400  0.91793700  1
loop_
_geom_bond_atom_site_label_1
_geom_bond_atom_site_label_2
_geom_bond_distance
_geom_bond_site_symmetry_2
Br0 Ti3 2.397532 1_555
Br1 Ti5 2.530734 1_555
Br1 Ti5 2.539490 1_455
Br1 Ti4 2.773494 1_455
Br2 Ti7 2.535826 1_455
Br2 Ti7 2.546921 1_555
Br2 Ti6 2.842035 1_455
Br3 Ti5 2.398535 1_555
Br4 Ti0 2.383465 1_555
Br5 Ti7 2.422651 1_555
Br6 Ti3 2.530930 1_455
Br6 Ti3 2.539262 1_555
Br6 Ti2 2.733439 1_555
Br7 Ti0 2.547483 1_655
Br7 Ti0 2.548710 1_555
Br7 Ti1 2.711855 1_555
O0 Ti7 1.979861 1_555
O0 Ti1 2.046804 1_545
O0 Ti2 2.081955 1_556
O0 Ti6 2.224692 1_555
O0 Ti6 2.275082 1_455
O1 O5 1.245524 1_555
O1 O4 1.983614 1_555
O2 O4 1.240526 1_555
O2 O5 1.983736 1_555
O3 Ti3 1.949786 1_455
O3 Ti4 2.023221 1_445
O3 Ti6 2.089687 1_454
O3 Ti2 2.212706 1_555
O3 Ti2 2.276216 1_455
O6 Ti5 1.965923 1_555
O6 Ti2 2.045763 1_565
O6 Ti1 2.110268 1_554
O6 Ti4 2.218342 1_455
O6 Ti4 2.281079 1_555
O7 Ti0 1.951450 1_655
O7 Ti6 2.017804 1_565
O7 Ti4 2.124181 1_556
O7 Ti1 2.199808 1_555
O7 Ti1 2.290124 1_655
