# generated using pymatgen
data_Mn2C7S2O7
_symmetry_space_group_name_H-M   'P 1'
_cell_length_a   6.95266900
_cell_length_b   10.19053700
_cell_length_c   17.54036900
_cell_angle_alpha   90.00000000
_cell_angle_beta   90.00000000
_cell_angle_gamma   90.00000000
_symmetry_Int_Tables_number   1
_chemical_formula_structural   Mn2C7S2O7
_chemical_formula_sum   'Mn8 C28 S8 O28'
_cell_volume   1242.76023854
_cell_formula_units_Z   4
loop_
 _symmetry_equiv_pos_site_id
 _symmetry_equiv_pos_as_xyz
  1  'x, y, z'
loop_
 _atom_site_type_symbol
 _atom_site_label
 _atom_site_symmetry_multiplicity
 _atom_site_fract_x
 _atom_site_fract_y
 _atom_site_fract_z
 _atom_site_occupancy
  Mn  Mn0  1  0.75299300  0.74895000  0.33531800  1
  Mn  Mn1  1  0.73728400  0.51480900  0.40881800  1
  Mn  Mn2  1  0.23728400  0.98519100  0.59118200  1
  Mn  Mn3  1  0.74700700  0.25105000  0.83531800  1
  Mn  Mn4  1  0.26271600  0.01480900  0.09118200  1
  Mn  Mn5  1  0.24700700  0.24895000  0.16468200  1
  Mn  Mn6  1  0.25299400  0.75105000  0.66468200  1
  Mn  Mn7  1  0.76271600  0.48519100  0.90881800  1
  C  C0  1  0.25376400  0.76141400  0.76913800  1
  C  C1  1  0.26413900  0.87326200  0.15503500  1
  C  C2  1  0.37167600  0.40840300  0.17635100  1
  C  C3  1  0.95901700  0.47713700  0.46068200  1
  C  C4  1  0.12832400  0.59159700  0.67635100  1
  C  C5  1  0.24623600  0.23858600  0.26913800  1
  C  C6  1  0.02095900  0.33826000  0.15181400  1
  C  C7  1  0.42766000  0.91224700  0.67338800  1
  C  C8  1  0.04098300  0.97713700  0.03931800  1
  C  C9  1  0.10039600  0.08530800  0.52145700  1
  C  C10  1  0.54098300  0.52286300  0.96068200  1
  C  C11  1  0.62832400  0.90840300  0.32364900  1
  C  C12  1  0.76413900  0.62673800  0.84496500  1
  C  C13  1  0.39960400  0.91469200  0.02145700  1
  C  C14  1  0.23586100  0.12673800  0.65503500  1
  C  C15  1  0.45901700  0.02286300  0.53931800  1
  C  C16  1  0.47904100  0.66174000  0.65181400  1
  C  C17  1  0.73586100  0.37326200  0.34496500  1
  C  C18  1  0.97904100  0.83826000  0.34818600  1
  C  C19  1  0.75376400  0.73858600  0.23086200  1
  C  C20  1  0.89960400  0.58530800  0.97854300  1
  C  C21  1  0.87167600  0.09159700  0.82364900  1
  C  C22  1  0.57234000  0.41224700  0.82661200  1
  C  C23  1  0.52095900  0.16174000  0.84818600  1
  C  C24  1  0.07234000  0.08775300  0.17338800  1
  C  C25  1  0.74623600  0.26141400  0.73086200  1
  C  C26  1  0.60039600  0.41469200  0.47854300  1
  C  C27  1  0.92766000  0.58775300  0.32661200  1
  S  S0  1  0.35667500  0.21573800  0.04070000  1
  S  S1  1  0.14332500  0.78426200  0.54070000  1
  S  S2  1  0.52706100  0.14127500  0.12631300  1
  S  S3  1  0.97293900  0.85872500  0.62631300  1
  S  S4  1  0.85667500  0.28426200  0.95930000  1
  S  S5  1  0.64332500  0.71573800  0.45930000  1
  S  S6  1  0.02706100  0.35872500  0.87368700  1
  S  S7  1  0.47293900  0.64127500  0.37368700  1
  O  O0  1  0.05003100  0.49269000  0.68596200  1
  O  O1  1  0.98566900  0.64907400  0.02128800  1
  O  O2  1  0.93647200  0.05041800  0.20664000  1
  O  O3  1  0.38036300  0.10167900  0.85632100  1
  O  O4  1  0.75309100  0.73791100  0.16463000  1
  O  O5  1  0.25309100  0.76208900  0.83537000  1
  O  O6  1  0.74690900  0.26208900  0.66463000  1
  O  O7  1  0.48566900  0.85092600  0.97871200  1
  O  O8  1  0.88036300  0.39832100  0.14367900  1
  O  O9  1  0.55003100  0.00731000  0.31403800  1
  O  O10  1  0.76424600  0.71780400  0.80506100  1
  O  O11  1  0.73575400  0.28219600  0.30506100  1
  O  O12  1  0.51433100  0.35092600  0.52128800  1
  O  O13  1  0.59847300  0.04655200  0.50549800  1
  O  O14  1  0.06352800  0.55041800  0.29336000  1
  O  O15  1  0.11963700  0.89832100  0.35632100  1
  O  O16  1  0.94996900  0.99269000  0.81403800  1
  O  O17  1  0.23575400  0.21780400  0.69493900  1
  O  O18  1  0.61963700  0.60167900  0.64367900  1
  O  O19  1  0.40152700  0.54655200  0.99450200  1
  O  O20  1  0.44996900  0.50731000  0.18596200  1
  O  O21  1  0.90152700  0.95344800  0.00549800  1
  O  O22  1  0.24690900  0.23791100  0.33537000  1
  O  O23  1  0.43647200  0.44958200  0.79336000  1
  O  O24  1  0.09847300  0.45344800  0.49450200  1
  O  O25  1  0.56352800  0.94958200  0.70664000  1
  O  O26  1  0.01433100  0.14907400  0.47871200  1
  O  O27  1  0.26424600  0.78219600  0.19493900  1
loop_
_geom_bond_atom_site_label_1
_geom_bond_atom_site_label_2
_geom_bond_distance
_geom_bond_site_symmetry_2
Mn0 S5 2.329208 1_555
Mn0 S7 2.334142 1_555
Mn1 S5 2.324517 1_555
Mn1 S7 2.327767 1_555
Mn2 S1 2.324517 1_555
Mn2 S3 2.327767 1_455
Mn3 S4 2.329208 1_555
Mn3 S6 2.334142 1_655
Mn4 S0 2.324517 1_555
Mn4 S2 2.327767 1_555
Mn5 S0 2.329208 1_555
Mn5 S2 2.334142 1_555
Mn6 S1 2.329210 1_555
Mn6 S3 2.334148 1_455
Mn7 S4 2.324517 1_555
Mn7 S6 2.327767 1_655
C0 O5 1.161764 1_555
C0 Mn6 1.835246 1_555
C1 O27 1.162372 1_555
C1 Mn4 1.826237 1_565
C2 O20 1.157854 1_555
C2 Mn5 1.852982 1_555
C3 O24 1.162019 1_655
C3 Mn1 1.830737 1_555
C4 O0 1.157854 1_555
C4 Mn6 1.852985 1_555
C5 O22 1.161764 1_555
C5 Mn5 1.835246 1_555
C6 O8 1.162115 1_455
C6 Mn5 1.830109 1_555
C7 O25 1.173580 1_555
C7 Mn6 2.048532 1_555
C7 Mn2 2.093721 1_555
C8 O21 1.162019 1_455
C8 Mn4 1.830737 1_565
C9 O26 1.158645 1_555
C9 Mn2 1.855381 1_545
C10 O19 1.162019 1_555
C10 Mn7 1.830737 1_555
C11 O9 1.157854 1_565
C11 Mn0 1.852982 1_555
C12 O10 1.162372 1_555
C12 Mn7 1.826237 1_555
C13 O7 1.158645 1_554
C13 Mn4 1.855381 1_565
C14 O17 1.162372 1_555
C14 Mn2 1.826237 1_545
C15 O13 1.162019 1_555
C15 Mn2 1.830737 1_545
C16 O18 1.162115 1_555
C16 Mn6 1.830103 1_555
C17 O11 1.162372 1_555
C17 Mn1 1.826237 1_555
C18 O15 1.162115 1_655
C18 Mn0 1.830109 1_555
C19 O4 1.161764 1_555
C19 Mn0 1.835246 1_555
C20 O1 1.158645 1_556
C20 Mn7 1.855381 1_555
C21 O16 1.157854 1_545
C21 Mn3 1.852982 1_555
C22 O23 1.173580 1_555
C22 Mn3 2.048536 1_555
C22 Mn7 2.093721 1_555
C23 O3 1.162115 1_555
C23 Mn3 1.830109 1_555
C24 O2 1.173580 1_455
C24 Mn5 2.048536 1_555
C24 Mn4 2.093721 1_555
C25 O6 1.161764 1_555
C25 Mn3 1.835246 1_555
C26 O12 1.158645 1_555
C26 Mn1 1.855381 1_555
C27 O14 1.173580 1_655
C27 Mn0 2.048536 1_555
C27 Mn1 2.093721 1_555
S0 S2 2.057723 1_555
S1 S3 2.057723 1_455
S4 S6 2.057723 1_655
S5 S7 2.057723 1_555
