# generated using pymatgen
data_Ba5Ga5Pb
_symmetry_space_group_name_H-M   'P 1'
_cell_length_a   6.02867980
_cell_length_b   6.02862599
_cell_length_c   11.06897398
_cell_angle_alpha   89.99990683
_cell_angle_beta   90.00015374
_cell_angle_gamma   119.99892481
_symmetry_Int_Tables_number   1
_chemical_formula_structural   Ba5Ga5Pb
_chemical_formula_sum   'Ba5 Ga5 Pb1'
_cell_volume   348.40410474
_cell_formula_units_Z   1
loop_
 _symmetry_equiv_pos_site_id
 _symmetry_equiv_pos_as_xyz
  1  'x, y, z'
loop_
 _atom_site_type_symbol
 _atom_site_label
 _atom_site_symmetry_multiplicity
 _atom_site_fract_x
 _atom_site_fract_y
 _atom_site_fract_z
 _atom_site_occupancy
  Ba  Ba0  1  -0.00000215  -0.00000512  0.33161635  1
  Ba  Ba1  1  0.66667850  0.33333342  0.20529776  1
  Ba  Ba2  1  0.66667111  0.33332439  0.79470467  1
  Ba  Ba3  1  -0.00000689  -0.00001083  0.66837881  1
  Ba  Ba4  1  0.33332976  0.66667101  0.00000001  1
  Ga  Ga0  1  0.33333760  0.66666313  0.67087475  1
  Ga  Ga1  1  0.51406518  0.48593639  0.50000068  1
  Ga  Ga2  1  0.51405460  0.02812162  0.50000107  1
  Ga  Ga3  1  0.33335349  0.66667129  0.32912375  1
  Ga  Ga4  1  0.97187634  0.48594515  0.50000024  1
  Pb  Pb0  1  -0.00002054  0.00002056  0.00000091  1
loop_
_geom_bond_atom_site_label_1
_geom_bond_atom_site_label_2
_geom_bond_distance
_geom_bond_site_symmetry_2
Ba0 Ga3 3.480690 1_445
Ba0 Ga3 3.480801 1_545
Ba0 Ga3 3.480827 1_555
Ba0 Ga4 3.546988 1_445
Ba0 Ga2 3.547039 1_555
Ba0 Ga1 3.547079 1_445
Ba0 Ga4 3.547102 1_455
Ba0 Ga2 3.547109 1_455
Ba0 Ga1 3.547123 1_555
Ba0 Pb0 3.670643 1_555
Ba0 Ba3 3.727615 1_555
Ba0 Ba1 3.750923 1_455
Ba0 Ba1 3.750982 1_445
Ba0 Ba1 3.751106 1_555
Ba1 Ga4 3.630436 1_555
Ba1 Ga2 3.630472 1_555
Ba1 Ga1 3.630475 1_555
Ba1 Ga3 3.740756 1_555
Ba1 Ga3 3.740787 1_545
Ba1 Ga3 3.740876 1_655
Ba1 Pb0 4.156536 1_655
Ba1 Ba4 4.156765 1_655
Ba1 Ba4 4.156784 1_545
Ba1 Ba4 4.156849 1_555
Ba1 Pb0 4.156885 1_665
Ba1 Pb0 4.156960 1_555
Ba1 Ba2 4.544844 1_554
Ba2 Ga2 3.630456 1_555
Ba2 Ga4 3.630478 1_555
Ba2 Ga1 3.630482 1_555
Ba2 Ga0 3.740800 1_545
Ba2 Ga0 3.740811 1_555
Ba2 Ga0 3.740856 1_655
Ba2 Ba3 3.750956 1_655
Ba2 Ba3 3.751027 1_665
Ba2 Ba3 3.751118 1_555
Ba2 Pb0 4.156516 1_656
Ba2 Ba4 4.156729 1_546
Ba2 Ba4 4.156774 1_656
Ba2 Ba4 4.156851 1_556
Ba2 Pb0 4.156922 1_666
Ba2 Pb0 4.156932 1_556
Ba3 Ga0 3.480749 1_445
Ba3 Ga0 3.480755 1_545
Ba3 Ga0 3.480814 1_555
Ba3 Ga4 3.546944 1_445
Ba3 Ga1 3.547013 1_445
Ba3 Ga2 3.547017 1_555
Ba3 Ga2 3.547051 1_455
Ba3 Ga4 3.547082 1_455
Ba3 Ga1 3.547118 1_555
Ba3 Pb0 3.670716 1_556
Ba4 Pb0 3.480582 1_555
Ba4 Pb0 3.480609 1_665
Ba4 Pb0 3.480799 1_565
Ba4 Ga3 3.643062 1_555
Ba4 Ga0 3.643079 1_554
Ga0 Ga1 2.671830 1_555
Ga0 Ga2 2.671854 1_565
Ga0 Ga4 2.671881 1_455
Ga1 Ga3 2.671817 1_555
Ga1 Ga2 2.759962 1_555
Ga1 Ga4 2.759970 1_555
Ga2 Ga3 2.671854 1_545
Ga2 Ga4 2.760099 1_555
Ga3 Ga4 2.671960 1_455
