# generated using pymatgen
data_Al6B5(O5F)3
_symmetry_space_group_name_H-M   'P 1'
_cell_length_a   8.64915169
_cell_length_b   8.64915169
_cell_length_c   8.26594200
_cell_angle_alpha   90.00000000
_cell_angle_beta   90.00000000
_cell_angle_gamma   119.99999766
_symmetry_Int_Tables_number   1
_chemical_formula_structural   Al6B5(O5F)3
_chemical_formula_sum   'Al12 B10 O30 F6'
_cell_volume   535.51300693
_cell_formula_units_Z   2
loop_
 _symmetry_equiv_pos_site_id
 _symmetry_equiv_pos_as_xyz
  1  'x, y, z'
loop_
 _atom_site_type_symbol
 _atom_site_label
 _atom_site_symmetry_multiplicity
 _atom_site_fract_x
 _atom_site_fract_y
 _atom_site_fract_z
 _atom_site_occupancy
  Al  Al0  1  0.01446000  0.35161800  0.42519900  1
  Al  Al1  1  0.66284100  0.01446000  0.92519900  1
  Al  Al2  1  0.35161800  0.33715900  0.92519900  1
  Al  Al3  1  0.64838200  0.66284100  0.42519900  1
  Al  Al4  1  0.33715900  0.98554000  0.42519900  1
  Al  Al5  1  0.98554000  0.64838200  0.92519900  1
  Al  Al6  1  0.98554000  0.64838200  0.57480100  1
  Al  Al7  1  0.33715900  0.98554000  0.07480100  1
  Al  Al8  1  0.64838200  0.66284100  0.07480100  1
  Al  Al9  1  0.35161800  0.33715900  0.57480100  1
  Al  Al10  1  0.66284100  0.01446000  0.57480100  1
  Al  Al11  1  0.01446000  0.35161800  0.07480100  1
  B  B0  1  0.66666700  0.33333300  0.44772300  1
  B  B1  1  0.33333300  0.66666700  0.55227700  1
  B  B2  1  0.66666700  0.33333300  0.05227700  1
  B  B3  1  0.33333300  0.66666700  0.94772300  1
  B  B4  1  0.00235100  0.23279700  0.75000000  1
  B  B5  1  0.76955500  0.00235100  0.25000000  1
  B  B6  1  0.23279700  0.23044500  0.25000000  1
  B  B7  1  0.76720300  0.76955500  0.75000000  1
  B  B8  1  0.23044500  0.99764900  0.75000000  1
  B  B9  1  0.99764900  0.76720300  0.25000000  1
  O  O0  1  0.41131900  0.84943100  0.55259800  1
  O  O1  1  0.84943100  0.43811200  0.05259800  1
  O  O2  1  0.43811200  0.58868100  0.55259800  1
  O  O3  1  0.56188800  0.41131900  0.05259800  1
  O  O4  1  0.58868100  0.15056900  0.05259800  1
  O  O5  1  0.15056900  0.56188800  0.55259800  1
  O  O6  1  0.81457700  0.69743200  0.25000000  1
  O  O7  1  0.11714500  0.81457700  0.75000000  1
  O  O8  1  0.69743200  0.88285500  0.75000000  1
  O  O9  1  0.18542300  0.30256800  0.75000000  1
  O  O10  1  0.30256800  0.11714500  0.25000000  1
  O  O11  1  0.88285500  0.18542300  0.25000000  1
  O  O12  1  0.84943100  0.43811200  0.44740200  1
  O  O13  1  0.41131900  0.84943100  0.94740200  1
  O  O14  1  0.43811200  0.58868100  0.94740200  1
  O  O15  1  0.56188800  0.41131900  0.44740200  1
  O  O16  1  0.58868100  0.15056900  0.44740200  1
  O  O17  1  0.15056900  0.56188800  0.94740200  1
  O  O18  1  0.19592300  0.28391600  0.10214200  1
  O  O19  1  0.91200700  0.19592300  0.60214200  1
  O  O20  1  0.28391600  0.08799300  0.60214200  1
  O  O21  1  0.71608400  0.91200700  0.10214200  1
  O  O22  1  0.08799300  0.80407700  0.10214200  1
  O  O23  1  0.80407700  0.71608400  0.60214200  1
  O  O24  1  0.80407700  0.71608400  0.89785800  1
  O  O25  1  0.08799300  0.80407700  0.39785800  1
  O  O26  1  0.71608400  0.91200700  0.39785800  1
  O  O27  1  0.28391600  0.08799300  0.89785800  1
  O  O28  1  0.91200700  0.19592300  0.89785800  1
  O  O29  1  0.19592300  0.28391600  0.39785800  1
  F  F0  1  0.88932500  0.50168800  0.75000000  1
  F  F1  1  0.38763800  0.88932500  0.25000000  1
  F  F2  1  0.50168800  0.61236200  0.25000000  1
  F  F3  1  0.49831200  0.38763800  0.75000000  1
  F  F4  1  0.61236200  0.11067500  0.75000000  1
  F  F5  1  0.11067500  0.49831200  0.25000000  1
loop_
_geom_bond_atom_site_label_1
_geom_bond_atom_site_label_2
_geom_bond_distance
_geom_bond_site_symmetry_2
Al0 F5 1.828581 1_555
Al0 O19 1.882698 1_455
Al0 O5 1.913470 1_555
Al0 O12 1.923149 1_455
Al0 O29 1.943281 1_555
Al0 O11 1.955236 1_455
Al1 F4 1.828581 1_555
Al1 O21 1.882702 1_546
Al1 O4 1.913464 1_556
Al1 O13 1.923143 1_545
Al1 O28 1.943287 1_555
Al1 O8 1.955240 1_545
Al2 F3 1.828581 1_555
Al2 O18 1.882697 1_556
Al2 O3 1.913471 1_556
Al2 O14 1.923141 1_555
Al2 O27 1.943289 1_555
Al2 O9 1.955234 1_555
Al3 F2 1.828581 1_555
Al3 O23 1.882697 1_555
Al3 O2 1.913471 1_555
Al3 O15 1.923141 1_555
Al3 O26 1.943289 1_555
Al3 O6 1.955234 1_555
Al4 F1 1.828581 1_555
Al4 O20 1.882702 1_565
Al4 O0 1.913464 1_555
Al4 O16 1.923143 1_565
Al4 O25 1.943287 1_555
Al4 O10 1.955240 1_565
Al5 F0 1.828581 1_555
Al5 O22 1.882698 1_656
Al5 O1 1.913470 1_556
Al5 O17 1.923149 1_655
Al5 O24 1.943281 1_555
Al5 O7 1.955236 1_655
Al6 F0 1.828581 1_555
Al6 O25 1.882698 1_655
Al6 O12 1.913470 1_555
Al6 O5 1.923149 1_655
Al6 O23 1.943281 1_555
Al6 O7 1.955236 1_655
Al7 F1 1.828581 1_555
Al7 O27 1.882702 1_564
Al7 O13 1.913464 1_554
Al7 O4 1.923143 1_565
Al7 O22 1.943287 1_555
Al7 O10 1.955240 1_565
Al8 F2 1.828581 1_555
Al8 O24 1.882697 1_554
Al8 O14 1.913471 1_554
Al8 O3 1.923141 1_555
Al8 O21 1.943289 1_555
Al8 O6 1.955234 1_555
Al9 F3 1.828581 1_555
Al9 O29 1.882697 1_555
Al9 O15 1.913471 1_555
Al9 O2 1.923141 1_555
Al9 O20 1.943289 1_555
Al9 O9 1.955234 1_555
Al10 F4 1.828581 1_555
Al10 O26 1.882702 1_545
Al10 O16 1.913464 1_555
Al10 O0 1.923143 1_545
Al10 O19 1.943287 1_555
Al10 O8 1.955240 1_545
Al11 F5 1.828581 1_555
Al11 O28 1.882698 1_454
Al11 O17 1.913470 1_554
Al11 O1 1.923149 1_455
Al11 O18 1.943281 1_555
Al11 O11 1.955236 1_455
B0 O16 1.373870 1_555
B0 O12 1.373870 1_555
B0 O15 1.373877 1_555
B1 O0 1.373870 1_555
B1 O5 1.373870 1_555
B1 O2 1.373877 1_555
B2 O4 1.373870 1_555
B2 O1 1.373870 1_555
B2 O3 1.373877 1_555
B3 O13 1.373870 1_555
B3 O17 1.373870 1_555
B3 O14 1.373877 1_555
B4 O9 1.384141 1_555
B4 O28 1.398866 1_455
B4 O19 1.398866 1_455
B5 O11 1.384140 1_555
B5 O26 1.398867 1_545
B5 O21 1.398867 1_545
B6 O10 1.384133 1_555
B6 O18 1.398870 1_555
B6 O29 1.398870 1_555
B7 O8 1.384133 1_555
B7 O24 1.398870 1_555
B7 O23 1.398870 1_555
B8 O7 1.384140 1_555
B8 O27 1.398867 1_565
B8 O20 1.398867 1_565
B9 O6 1.384141 1_555
B9 O22 1.398866 1_655
B9 O25 1.398866 1_655
