# generated using pymatgen
data_Cs5Te3H4NCl18
_symmetry_space_group_name_H-M   'P 1'
_cell_length_a   7.52195155
_cell_length_b   7.52195155
_cell_length_c   18.42669400
_cell_angle_alpha   90.00000000
_cell_angle_beta   90.00000000
_cell_angle_gamma   119.99999605
_symmetry_Int_Tables_number   1
_chemical_formula_structural   Cs5Te3H4NCl18
_chemical_formula_sum   'Cs5 Te3 H4 N1 Cl18'
_cell_volume   902.89892607
_cell_formula_units_Z   1
loop_
 _symmetry_equiv_pos_site_id
 _symmetry_equiv_pos_as_xyz
  1  'x, y, z'
loop_
 _atom_site_type_symbol
 _atom_site_label
 _atom_site_symmetry_multiplicity
 _atom_site_fract_x
 _atom_site_fract_y
 _atom_site_fract_z
 _atom_site_occupancy
  Cs  Cs0  1  0.33333300  0.66666700  0.91676400  1
  Cs  Cs1  1  0.00000000  0.00000000  0.58332600  1
  Cs  Cs2  1  0.66666700  0.33333300  0.24991000  1
  Cs  Cs3  1  0.66666700  0.33333300  0.75000200  1
  Cs  Cs4  1  0.33333300  0.66666700  0.41665300  1
  Te  Te0  1  0.66666700  0.33333300  0.00028700  1
  Te  Te1  1  0.33333300  0.66666700  0.66667400  1
  Te  Te2  1  0.00000000  0.00000000  0.33303700  1
  H  H0  1  0.07505900  0.15011800  0.10209900  1
  H  H1  1  0.84988200  0.92494100  0.10209900  1
  H  H2  1  0.00000000  0.00000000  0.02683800  1
  H  H3  1  0.07505900  0.92494100  0.10209900  1
  N  N0  1  0.00000000  0.00000000  0.08355800  1
  Cl  Cl0  1  0.82843400  0.17156600  0.91963000  1
  Cl  Cl1  1  0.17193900  0.34387800  0.74736300  1
  Cl  Cl2  1  0.65612200  0.82806100  0.74736300  1
  Cl  Cl3  1  0.34313300  0.17156600  0.91963000  1
  Cl  Cl4  1  0.83866900  0.67733800  0.41396200  1
  Cl  Cl5  1  0.49472700  0.50527300  0.58597000  1
  Cl  Cl6  1  0.17193900  0.82806100  0.74736300  1
  Cl  Cl7  1  0.82843400  0.65686700  0.91963000  1
  Cl  Cl8  1  0.32266200  0.16133100  0.41396200  1
  Cl  Cl9  1  0.01054700  0.50527300  0.58597000  1
  Cl  Cl10  1  0.50498300  0.00996700  0.08088000  1
  Cl  Cl11  1  0.16125100  0.83874900  0.25219000  1
  Cl  Cl12  1  0.83866900  0.16133100  0.41396200  1
  Cl  Cl13  1  0.49472700  0.98945300  0.58597000  1
  Cl  Cl14  1  0.99003300  0.49501700  0.08088000  1
  Cl  Cl15  1  0.67749800  0.83874900  0.25219000  1
  Cl  Cl16  1  0.50498300  0.49501700  0.08088000  1
  Cl  Cl17  1  0.16125100  0.32250200  0.25219000  1
loop_
_geom_bond_atom_site_label_1
_geom_bond_atom_site_label_2
_geom_bond_distance
_geom_bond_site_symmetry_2
H0 N0 1.035862 1_555
H1 N0 1.035862 1_665
H2 N0 1.045162 1_555
H3 N0 1.035862 1_565
Cl0 Te0 2.578904 1_556
Cl0 Cs0 3.761888 1_545
Cl0 Cs0 3.761888 1_655
Cl0 Cs3 3.769845 1_555
Cl1 Te1 2.575280 1_555
Cl1 Cs3 3.761914 1_455
Cl1 Cs3 3.761921 1_555
Cl1 Cs1 3.762244 1_555
Cl1 Cs0 3.763664 1_555
Cl2 Te1 2.575280 1_555
Cl2 Cs3 3.761914 1_565
Cl2 Cs3 3.761921 1_555
Cl2 Cs1 3.762244 1_665
Cl2 Cs0 3.763664 1_555
Cl3 Te0 2.578904 1_556
Cl3 Cs0 3.761881 1_545
Cl3 Cs0 3.761896 1_555
Cl3 Cs3 3.769845 1_555
Cl4 Te2 2.577119 1_665
Cl4 Cs4 3.761941 1_655
Cl4 Cs4 3.761949 1_555
Cl4 Cs1 3.762636 1_665
Cl4 Cs2 3.762958 1_555
Cl5 Te1 2.575434 1_555
Cl5 Cs1 3.761919 1_555
Cl5 Cs1 3.761919 1_665
Cl5 Cs3 3.762177 1_555
Cl5 Cs4 3.762376 1_555
Cl6 Te1 2.575275 1_555
Cl6 Cs3 3.761917 1_455
Cl6 Cs3 3.761917 1_565
Cl6 Cs1 3.762243 1_565
Cl6 Cs0 3.763660 1_555
Cl7 Te0 2.578904 1_556
Cl7 Cs0 3.761881 1_655
Cl7 Cs0 3.761896 1_555
Cl7 Cs3 3.769845 1_555
Cl8 Te2 2.577119 1_555
Cl8 Cs4 3.761941 1_545
Cl8 Cs4 3.761949 1_555
Cl8 Cs1 3.762636 1_555
Cl8 Cs2 3.762958 1_555
Cl9 Te1 2.575424 1_555
Cl9 Cs1 3.761915 1_555
Cl9 Cs1 3.761923 1_565
Cl9 Cs3 3.762177 1_455
Cl9 Cs4 3.762369 1_555
Cl10 Te0 2.577330 1_555
Cl10 Cs2 3.760100 1_555
Cl10 Cs0 3.761173 1_544
Cl11 Te2 2.575437 1_565
Cl11 Cs2 3.761872 1_565
Cl11 Cs2 3.761872 1_455
Cl11 Cs4 3.769661 1_555
Cl12 Te2 2.577118 1_655
Cl12 Cs4 3.761945 1_545
Cl12 Cs4 3.761945 1_655
Cl12 Cs1 3.762636 1_655
Cl12 Cs2 3.762954 1_555
Cl13 Te1 2.575424 1_555
Cl13 Cs1 3.761915 1_665
Cl13 Cs1 3.761923 1_565
Cl13 Cs3 3.762177 1_565
Cl13 Cs4 3.762369 1_555
Cl14 Te0 2.577330 1_555
Cl14 Cs2 3.760100 1_555
Cl14 Cs0 3.761173 1_654
Cl15 Te2 2.575437 1_665
Cl15 Cs2 3.761868 1_565
Cl15 Cs2 3.761876 1_555
Cl15 Cs4 3.769665 1_555
Cl16 Te0 2.577341 1_555
Cl16 Cs2 3.760107 1_555
Cl16 Cs0 3.761173 1_554
Cl17 Te2 2.575437 1_555
Cl17 Cs2 3.761868 1_455
Cl17 Cs2 3.761876 1_555
Cl17 Cs4 3.769665 1_555
