# generated using pymatgen
data_Ge2RuC4(Cl3O2)2
_symmetry_space_group_name_H-M   'P 1'
_cell_length_a   12.84463200
_cell_length_b   9.87149500
_cell_length_c   13.11312434
_cell_angle_alpha   88.49403632
_cell_angle_beta   90.00000000
_cell_angle_gamma   90.00000000
_symmetry_Int_Tables_number   1
_chemical_formula_structural   Ge2RuC4(Cl3O2)2
_chemical_formula_sum   'Ge8 Ru4 C16 Cl24 O16'
_cell_volume   1662.11374862
_cell_formula_units_Z   4
loop_
 _symmetry_equiv_pos_site_id
 _symmetry_equiv_pos_as_xyz
  1  'x, y, z'
loop_
 _atom_site_type_symbol
 _atom_site_label
 _atom_site_symmetry_multiplicity
 _atom_site_fract_x
 _atom_site_fract_y
 _atom_site_fract_z
 _atom_site_occupancy
  Ge  Ge0  1  0.47384900  0.43718200  0.64292700  1
  Ge  Ge1  1  0.18192000  0.00233100  0.64828200  1
  Ge  Ge2  1  0.69592900  0.48107900  0.81151300  1
  Ge  Ge3  1  0.97384900  0.56281800  0.35707300  1
  Ge  Ge4  1  0.01848900  0.00286400  0.87267600  1
  Ge  Ge5  1  0.51848900  0.99713600  0.12732400  1
  Ge  Ge6  1  0.68192000  0.99766900  0.35171800  1
  Ge  Ge7  1  0.19592900  0.51892100  0.18848700  1
  Ru  Ru0  1  0.98715400  0.03901200  0.68120100  1
  Ru  Ru1  1  0.99878700  0.54826400  0.16395800  1
  Ru  Ru2  1  0.49878700  0.45173600  0.83604200  1
  Ru  Ru3  1  0.48715400  0.96098800  0.31879900  1
  C  C0  1  0.52244400  0.76919200  0.30011900  1
  C  C1  1  0.02905100  0.74474600  0.16324700  1
  C  C2  1  0.47226200  0.93688500  0.46783200  1
  C  C3  1  0.97052800  0.84052000  0.67763200  1
  C  C4  1  0.52905100  0.25525400  0.83675300  1
  C  C5  1  0.84756900  0.57441000  0.14976200  1
  C  C6  1  0.33901100  0.93580700  0.28821300  1
  C  C7  1  0.48263500  0.64982200  0.81339800  1
  C  C8  1  0.52437700  0.46878800  0.98430100  1
  C  C9  1  0.83901100  0.06419300  0.71178700  1
  C  C10  1  0.02437700  0.53121200  0.01569900  1
  C  C11  1  0.98263500  0.35017800  0.18660200  1
  C  C12  1  0.34756900  0.42559000  0.85023800  1
  C  C13  1  0.47052800  0.15948000  0.32236800  1
  C  C14  1  0.02244400  0.23080800  0.69988100  1
  C  C15  1  0.97226200  0.06311500  0.53216800  1
  Cl  Cl0  1  0.87766100  0.95163900  0.95896800  1
  Cl  Cl1  1  0.27249100  0.56916000  0.33068500  1
  Cl  Cl2  1  0.73175300  0.20680600  0.36625900  1
  Cl  Cl3  1  0.31151900  0.44733900  0.59586000  1
  Cl  Cl4  1  0.04757400  0.40098600  0.44753400  1
  Cl  Cl5  1  0.25011700  0.31476200  0.15797000  1
  Cl  Cl6  1  0.62712100  0.16077500  0.08977600  1
  Cl  Cl7  1  0.12712100  0.83922500  0.91022400  1
  Cl  Cl8  1  0.53453900  0.25301300  0.57709100  1
  Cl  Cl9  1  0.58332500  0.82885400  0.04406000  1
  Cl  Cl10  1  0.75011700  0.68523800  0.84203000  1
  Cl  Cl11  1  0.37766100  0.04836100  0.04103200  1
  Cl  Cl12  1  0.28605300  0.64416700  0.07863700  1
  Cl  Cl13  1  0.77249100  0.43084000  0.66931500  1
  Cl  Cl14  1  0.72925400  0.90083300  0.49751000  1
  Cl  Cl15  1  0.78605300  0.35583300  0.92136300  1
  Cl  Cl16  1  0.79252200  0.91429800  0.24387100  1
  Cl  Cl17  1  0.22925400  0.09916700  0.50249000  1
  Cl  Cl18  1  0.81151900  0.55266100  0.40414000  1
  Cl  Cl19  1  0.54757400  0.59901400  0.55246600  1
  Cl  Cl20  1  0.03453900  0.74698700  0.42290900  1
  Cl  Cl21  1  0.23175300  0.79319400  0.63374100  1
  Cl  Cl22  1  0.08332500  0.17114600  0.95594000  1
  Cl  Cl23  1  0.29252200  0.08570200  0.75612900  1
  O  O0  1  0.46169900  0.27510400  0.32225400  1
  O  O1  1  0.97410600  0.23570500  0.20174800  1
  O  O2  1  0.46225300  0.92338100  0.55442500  1
  O  O3  1  0.96169900  0.72489600  0.67774600  1
  O  O4  1  0.75184600  0.07690300  0.72828700  1
  O  O5  1  0.04440700  0.34232300  0.71010900  1
  O  O6  1  0.96225300  0.07661900  0.44557500  1
  O  O7  1  0.03735100  0.52007600  0.92962300  1
  O  O8  1  0.04576200  0.85886200  0.16358300  1
  O  O9  1  0.25933300  0.41461800  0.86192000  1
  O  O10  1  0.25184600  0.92309700  0.27171300  1
  O  O11  1  0.54576200  0.14113800  0.83641700  1
  O  O12  1  0.53735100  0.47992400  0.07037700  1
  O  O13  1  0.47410600  0.76429500  0.79825200  1
  O  O14  1  0.75933300  0.58538200  0.13808000  1
  O  O15  1  0.54440700  0.65767700  0.28989100  1
loop_
_geom_bond_atom_site_label_1
_geom_bond_atom_site_label_2
_geom_bond_distance
_geom_bond_site_symmetry_2
Ge0 Ru2 2.560297 1_555
Ge1 Ru0 2.565962 1_455
Ge2 Ru2 2.567992 1_555
Ge3 Ru1 2.560297 1_555
Ge4 Ru0 2.558618 1_455
Ge5 Ru3 2.558618 1_555
Ge6 Ru3 2.565962 1_555
Ge7 Ru1 2.567992 1_455
C0 O15 1.147666 1_555
C0 Ru3 1.968371 1_555
C1 O8 1.146885 1_555
C1 Ru1 1.977924 1_455
C2 O2 1.147045 1_555
C2 Ru3 1.971802 1_555
C3 O3 1.146964 1_555
C3 Ru0 1.972794 1_565
C4 O11 1.146885 1_555
C4 Ru2 1.977924 1_555
C5 O14 1.148402 1_555
C5 Ru1 1.967594 1_555
C6 O10 1.147821 1_555
C6 Ru3 1.961811 1_555
C7 O13 1.147430 1_555
C7 Ru2 1.980985 1_555
C8 O12 1.149086 1_556
C8 Ru2 1.983243 1_555
C9 O4 1.147821 1_555
C9 Ru0 1.961811 1_555
C10 O7 1.149086 1_554
C10 Ru1 1.983243 1_455
C11 O1 1.147430 1_555
C11 Ru1 1.980985 1_555
C12 O9 1.148402 1_555
C12 Ru2 1.967594 1_555
C13 O0 1.146964 1_555
C13 Ru3 1.972794 1_545
C14 O5 1.147666 1_555
C14 Ru0 1.968371 1_455
C15 O6 1.147045 1_555
C15 Ru0 1.971802 1_555
Cl0 Ge4 2.185888 1_665
Cl1 Ge7 2.176835 1_555
Cl2 Ge6 2.174603 1_545
Cl3 Ge0 2.176062 1_555
Cl4 Ge3 2.180909 1_455
Cl5 Ge7 2.179136 1_555
Cl6 Ge5 2.181051 1_545
Cl7 Ge4 2.181051 1_565
Cl8 Ge0 2.177316 1_555
Cl9 Ge5 2.177290 1_555
Cl10 Ge2 2.179136 1_555
Cl11 Ge5 2.185888 1_545
Cl12 Ge7 2.202276 1_555
Cl13 Ge2 2.176835 1_555
Cl14 Ge6 2.200523 1_555
Cl15 Ge2 2.202276 1_555
Cl16 Ge6 2.180990 1_555
Cl17 Ge1 2.200523 1_555
Cl18 Ge3 2.176062 1_555
Cl19 Ge0 2.180909 1_555
Cl20 Ge3 2.177316 1_455
Cl21 Ge1 2.174603 1_565
Cl22 Ge4 2.177290 1_555
Cl23 Ge1 2.180990 1_555
