# generated using pymatgen
data_Be3Zn4Si3SO12
_symmetry_space_group_name_H-M   'P 1'
_cell_length_a   8.19780300
_cell_length_b   8.19780300
_cell_length_c   8.19780300
_cell_angle_alpha   90.00000000
_cell_angle_beta   90.00000000
_cell_angle_gamma   90.00000000
_symmetry_Int_Tables_number   1
_chemical_formula_structural   Be3Zn4Si3SO12
_chemical_formula_sum   'Be6 Zn8 Si6 S2 O24'
_cell_volume   550.92493989
_cell_formula_units_Z   2
loop_
 _symmetry_equiv_pos_site_id
 _symmetry_equiv_pos_as_xyz
  1  'x, y, z'
loop_
 _atom_site_type_symbol
 _atom_site_label
 _atom_site_symmetry_multiplicity
 _atom_site_fract_x
 _atom_site_fract_y
 _atom_site_fract_z
 _atom_site_occupancy
  Be  Be0  1  0.50000000  0.75000000  0.00000000  1
  Be  Be1  1  0.50000000  0.25000000  0.00000000  1
  Be  Be2  1  0.00000000  0.50000000  0.25000000  1
  Be  Be3  1  0.00000000  0.50000000  0.75000000  1
  Be  Be4  1  0.25000000  0.00000000  0.50000000  1
  Be  Be5  1  0.75000000  0.00000000  0.50000000  1
  Zn  Zn0  1  0.66581900  0.66581900  0.66581900  1
  Zn  Zn1  1  0.83418100  0.16581900  0.83418100  1
  Zn  Zn2  1  0.16581900  0.83418100  0.83418100  1
  Zn  Zn3  1  0.83418100  0.83418100  0.16581900  1
  Zn  Zn4  1  0.66581900  0.33418100  0.33418100  1
  Zn  Zn5  1  0.33418100  0.33418100  0.66581900  1
  Zn  Zn6  1  0.33418100  0.66581900  0.33418100  1
  Zn  Zn7  1  0.16581900  0.16581900  0.16581900  1
  Si  Si0  1  0.50000000  0.00000000  0.25000000  1
  Si  Si1  1  0.50000000  0.00000000  0.75000000  1
  Si  Si2  1  0.00000000  0.25000000  0.50000000  1
  Si  Si3  1  0.25000000  0.50000000  0.00000000  1
  Si  Si4  1  0.00000000  0.75000000  0.50000000  1
  Si  Si5  1  0.75000000  0.50000000  0.00000000  1
  S  S0  1  0.00000000  0.00000000  0.00000000  1
  S  S1  1  0.50000000  0.50000000  0.50000000  1
  O  O0  1  0.36221400  0.63809800  0.09298500  1
  O  O1  1  0.13809800  0.86221400  0.59298500  1
  O  O2  1  0.13809800  0.13778600  0.40701500  1
  O  O3  1  0.36190200  0.90701500  0.36221400  1
  O  O4  1  0.36190200  0.09298500  0.63778600  1
  O  O5  1  0.09298500  0.36221400  0.63809800  1
  O  O6  1  0.90701500  0.36221400  0.36190200  1
  O  O7  1  0.63778600  0.36190200  0.09298500  1
  O  O8  1  0.40701500  0.86190200  0.86221400  1
  O  O9  1  0.40701500  0.13809800  0.13778600  1
  O  O10  1  0.13778600  0.40701500  0.13809800  1
  O  O11  1  0.86221400  0.59298500  0.13809800  1
  O  O12  1  0.63809800  0.90701500  0.63778600  1
  O  O13  1  0.86221400  0.40701500  0.86190200  1
  O  O14  1  0.59298500  0.86190200  0.13778600  1
  O  O15  1  0.59298500  0.13809800  0.86221400  1
  O  O16  1  0.90701500  0.63778600  0.63809800  1
  O  O17  1  0.13778600  0.59298500  0.86190200  1
  O  O18  1  0.86190200  0.13778600  0.59298500  1
  O  O19  1  0.86190200  0.86221400  0.40701500  1
  O  O20  1  0.36221400  0.36190200  0.90701500  1
  O  O21  1  0.63778600  0.63809800  0.90701500  1
  O  O22  1  0.09298500  0.63778600  0.36190200  1
  O  O23  1  0.63809800  0.09298500  0.36221400  1
loop_
_geom_bond_atom_site_label_1
_geom_bond_atom_site_label_2
_geom_bond_distance
_geom_bond_site_symmetry_2
Be0 O14 1.642698 1_555
Be0 O0 1.642698 1_555
Be0 O21 1.642698 1_554
Be0 O8 1.642698 1_554
Be1 O7 1.642698 1_555
Be1 O9 1.642698 1_555
Be1 O20 1.642698 1_554
Be1 O15 1.642698 1_554
Be2 O22 1.642698 1_555
Be2 O10 1.642698 1_555
Be2 O6 1.642698 1_455
Be2 O11 1.642698 1_455
Be3 O17 1.642698 1_555
Be3 O5 1.642698 1_555
Be3 O16 1.642698 1_455
Be3 O13 1.642698 1_455
Be4 O4 1.642698 1_555
Be4 O2 1.642698 1_555
Be4 O3 1.642698 1_545
Be4 O1 1.642698 1_545
Be5 O18 1.642698 1_555
Be5 O23 1.642698 1_555
Be5 O12 1.642698 1_545
Be5 O19 1.642698 1_545
S0 Zn7 2.354466 1_555
S0 Zn3 2.354466 1_445
S0 Zn1 2.354466 1_454
S0 Zn2 2.354466 1_544
S1 Zn0 2.354466 1_555
S1 Zn6 2.354466 1_555
S1 Zn4 2.354466 1_555
S1 Zn5 2.354466 1_555
O0 Si3 1.645886 1_555
O0 Zn6 2.003517 1_555
O1 Si4 1.645886 1_555
O1 Zn2 2.003517 1_555
O2 Si2 1.645886 1_555
O2 Zn7 2.003517 1_555
O3 Si0 1.645886 1_565
O3 Zn6 2.003517 1_555
O4 Si1 1.645886 1_555
O4 Zn5 2.003517 1_555
O5 Si2 1.645886 1_555
O5 Zn5 2.003517 1_555
O6 Si2 1.645886 1_655
O6 Zn4 2.003517 1_555
O7 Si5 1.645886 1_555
O7 Zn4 2.003517 1_555
O8 Si1 1.645886 1_565
O8 Zn2 2.003517 1_555
O9 Si0 1.645886 1_555
O9 Zn7 2.003517 1_555
O10 Si3 1.645886 1_555
O10 Zn7 2.003517 1_555
O11 Si5 1.645886 1_555
O11 Zn3 2.003517 1_555
O12 Si1 1.645886 1_565
O12 Zn0 2.003517 1_555
O13 Si5 1.645886 1_556
O13 Zn1 2.003517 1_555
O14 Si0 1.645886 1_565
O14 Zn3 2.003517 1_555
O15 Si1 1.645886 1_555
O15 Zn1 2.003517 1_555
O16 Si4 1.645886 1_655
O16 Zn0 2.003517 1_555
O17 Si3 1.645886 1_556
O17 Zn2 2.003517 1_555
O18 Si2 1.645886 1_655
O18 Zn1 2.003517 1_555
O19 Si4 1.645886 1_655
O19 Zn3 2.003517 1_555
O20 Si3 1.645886 1_556
O20 Zn5 2.003517 1_555
O21 Si5 1.645886 1_556
O21 Zn0 2.003517 1_555
O22 Si4 1.645886 1_555
O22 Zn6 2.003517 1_555
O23 Si0 1.645886 1_555
O23 Zn4 2.003517 1_555
