# generated using pymatgen
data_Dy3NbO7
_symmetry_space_group_name_H-M   'P 1'
_cell_length_a   5.38487000
_cell_length_b   7.58076906
_cell_length_c   8.28812511
_cell_angle_alpha   63.75184294
_cell_angle_beta   88.07841438
_cell_angle_gamma   88.95573806
_symmetry_Int_Tables_number   1
_chemical_formula_structural   Dy3NbO7
_chemical_formula_sum   'Dy6 Nb2 O14'
_cell_volume   303.27393990
_cell_formula_units_Z   2
loop_
 _symmetry_equiv_pos_site_id
 _symmetry_equiv_pos_as_xyz
  1  'x, y, z'
loop_
 _atom_site_type_symbol
 _atom_site_label
 _atom_site_symmetry_multiplicity
 _atom_site_fract_x
 _atom_site_fract_y
 _atom_site_fract_z
 _atom_site_occupancy
  Dy  Dy0  1  0.04148000  0.97588700  0.98636300  1
  Dy  Dy1  1  0.99601200  0.50367900  0.98106400  1
  Dy  Dy2  1  0.55522100  0.90007700  0.74473900  1
  Dy  Dy3  1  0.49043900  0.38733500  0.72713300  1
  Dy  Dy4  1  0.50042900  0.60792800  0.20907300  1
  Dy  Dy5  1  0.46380400  0.10337300  0.25230600  1
  Nb  Nb0  1  0.98771000  0.26317200  0.51536600  1
  Nb  Nb1  1  0.00905500  0.77635000  0.46694200  1
  O  O0  1  0.77388200  0.75475500  0.99290200  1
  O  O1  1  0.24388400  0.13899700  0.69834900  1
  O  O2  1  0.71102000  0.44351600  0.46258700  1
  O  O3  1  0.24711700  0.25655000  0.98125000  1
  O  O4  1  0.27262200  0.73189300  0.95612000  1
  O  O5  1  0.25149300  0.84607000  0.24032400  1
  O  O6  1  0.78336200  0.63986100  0.69920100  1
  O  O7  1  0.81498100  0.05051200  0.49381100  1
  O  O8  1  0.27702100  0.89312300  0.53081200  1
  O  O9  1  0.18840300  0.34832400  0.29588800  1
  O  O10  1  0.67318400  0.36786200  0.13133300  1
  O  O11  1  0.75001400  0.14974100  0.78509200  1
  O  O12  1  0.16432300  0.51805400  0.54257700  1
  O  O13  1  0.77340200  0.88151100  0.27060300  1
loop_
_geom_bond_atom_site_label_1
_geom_bond_atom_site_label_2
_geom_bond_distance
_geom_bond_site_symmetry_2
Dy0 O0 2.211778 1_455
Dy0 O5 2.228159 1_556
Dy0 O11 2.266853 1_465
Dy0 O4 2.310527 1_555
Dy0 O1 2.383052 1_565
Dy0 O3 2.399543 1_565
Dy0 O13 2.542513 1_456
Dy1 O10 2.102145 1_556
Dy1 O4 2.238598 1_655
Dy1 O0 2.266593 1_555
Dy1 O3 2.289835 1_655
Dy1 O6 2.416101 1_555
Dy1 O9 2.586008 1_656
Dy2 O4 2.219643 1_555
Dy2 O0 2.222930 1_555
Dy2 O7 2.312478 1_565
Dy2 O11 2.334527 1_565
Dy2 O1 2.357019 1_565
Dy2 O8 2.377898 1_555
Dy2 O6 2.466192 1_555
Dy3 O11 2.148633 1_555
Dy3 O3 2.269561 1_555
Dy3 O12 2.276305 1_555
Dy3 O2 2.327555 1_555
Dy3 O1 2.423504 1_555
Dy3 O6 2.428973 1_555
Dy4 O0 2.176257 1_554
Dy4 O2 2.246362 1_555
Dy4 O4 2.273999 1_554
Dy4 O5 2.329207 1_555
Dy4 O10 2.351125 1_555
Dy4 O9 2.449656 1_555
Dy4 O13 2.796248 1_555
Dy5 O10 2.127221 1_555
Dy5 O13 2.306568 1_545
Dy5 O5 2.319875 1_545
Dy5 O8 2.351327 1_545
Dy5 O3 2.361318 1_554
Dy5 O9 2.496975 1_555
Dy5 O7 2.694414 1_555
Nb0 O2 1.928949 1_555
Nb0 O9 1.936119 1_655
Nb0 O7 1.953598 1_555
Nb0 O1 1.979718 1_655
Nb0 O12 2.270583 1_655
Nb0 O11 2.350145 1_555
Nb1 O8 1.912661 1_555
Nb1 O12 1.953426 1_555
Nb1 O13 1.961629 1_455
Nb1 O6 2.092935 1_455
Nb1 O5 2.119926 1_555
Nb1 O7 2.403318 1_465
