# generated using pymatgen
data_Rb2MnV2(ClO3)2
_symmetry_space_group_name_H-M   'P 1'
_cell_length_a   5.51543800
_cell_length_b   9.85652344
_cell_length_c   10.97809972
_cell_angle_alpha   95.27171847
_cell_angle_beta   97.49433291
_cell_angle_gamma   95.48225930
_symmetry_Int_Tables_number   1
_chemical_formula_structural   Rb2MnV2(ClO3)2
_chemical_formula_sum   'Rb4 Mn2 V4 Cl4 O12'
_cell_volume   585.69739182
_cell_formula_units_Z   2
loop_
 _symmetry_equiv_pos_site_id
 _symmetry_equiv_pos_as_xyz
  1  'x, y, z'
loop_
 _atom_site_type_symbol
 _atom_site_label
 _atom_site_symmetry_multiplicity
 _atom_site_fract_x
 _atom_site_fract_y
 _atom_site_fract_z
 _atom_site_occupancy
  Rb  Rb0  1  0.44513800  0.78553800  0.91175400  1
  Rb  Rb1  1  0.91656800  0.58241500  0.61846800  1
  Rb  Rb2  1  0.39939800  0.28669800  0.44896200  1
  Rb  Rb3  1  0.69210700  0.06583100  0.22034700  1
  Mn  Mn0  1  0.80272900  0.43475700  0.26322400  1
  Mn  Mn1  1  0.24663700  0.32167900  0.06706700  1
  V  V0  1  0.18921900  0.29109000  0.77005400  1
  V  V1  1  0.31917100  0.85397500  0.45634700  1
  V  V2  1  0.95581200  0.00223700  0.54852100  1
  V  V3  1  0.85909100  0.49760800  0.97366700  1
  Cl  Cl0  1  0.07927600  0.08174000  0.03853500  1
  Cl  Cl1  1  0.28556200  0.80861900  0.24336400  1
  Cl  Cl2  1  0.39964300  0.63610400  0.50905000  1
  Cl  Cl3  1  0.48661400  0.16325000  0.84410200  1
  O  O0  1  0.10740200  0.02541600  0.42333500  1
  O  O1  1  0.00660900  0.14775500  0.65574500  1
  O  O2  1  0.77345500  0.58283800  0.33487400  1
  O  O3  1  0.29920800  0.40070900  0.68010900  1
  O  O4  1  0.96421500  0.65121600  0.93371200  1
  O  O5  1  0.54991700  0.48797300  0.95545700  1
  O  O6  1  0.00823200  0.36449600  0.88729100  1
  O  O7  1  0.52455000  0.33413400  0.19972600  1
  O  O8  1  0.11140000  0.86330100  0.59452900  1
  O  O9  1  0.97854400  0.45475200  0.12773200  1
  O  O10  1  0.92842400  0.32957100  0.36197500  1
  O  O11  1  0.63726400  0.95616800  0.50253600  1
loop_
_geom_bond_atom_site_label_1
_geom_bond_atom_site_label_2
_geom_bond_distance
_geom_bond_site_symmetry_2
Mn0 O2 1.625514 1_555
Mn0 O10 1.696642 1_555
Mn0 O7 1.768277 1_555
Mn0 O9 1.893475 1_555
Mn1 O7 1.958163 1_555
Mn1 O9 2.194830 1_455
Mn1 O6 2.320414 1_554
Mn1 O5 2.713975 1_554
Cl0 Mn1 2.431987 1_555
Cl0 Rb3 3.110259 1_455
Cl0 Rb3 3.719136 1_555
Cl1 V1 2.319522 1_555
Cl1 Rb3 3.270823 1_565
Cl2 V1 2.342378 1_555
Cl2 Rb1 3.059942 1_555
Cl2 Rb1 3.082864 1_455
Cl2 Rb2 3.446332 1_555
Cl3 V0 2.274720 1_555
O0 V2 1.720720 1_455
O0 V1 2.174918 1_545
O0 Rb2 2.874253 1_555
O0 Rb3 3.062202 1_455
O1 V2 1.745927 1_455
O1 V0 1.912527 1_555
O2 Rb1 3.110919 1_555
O3 V0 1.654533 1_555
O3 Rb2 2.822728 1_555
O3 Rb1 2.948196 1_455
O4 V3 1.685684 1_555
O4 Rb0 2.898471 1_655
O4 Rb0 3.257334 1_555
O4 Rb1 3.435604 1_555
O5 V3 1.683282 1_555
O5 Rb0 3.110708 1_555
O6 V3 1.865012 1_455
O6 V0 1.865056 1_555
O7 Rb3 2.901944 1_555
O7 Rb2 2.974493 1_555
O8 V2 1.762218 1_465
O8 V1 2.017630 1_555
O8 Rb1 2.920210 1_455
O9 V3 1.834915 1_554
O10 Rb2 2.734043 1_655
O10 Rb3 2.992525 1_555
O10 Rb2 3.188969 1_555
O11 V2 1.766896 1_565
O11 V1 1.919928 1_555
O11 Rb3 3.413809 1_565
