# generated using pymatgen
data_K
_symmetry_space_group_name_H-M   'P 1'
_cell_length_a   9.53686928
_cell_length_b   9.53686725
_cell_length_c   31.39840246
_cell_angle_alpha   90.00000000
_cell_angle_beta   90.00000000
_cell_angle_gamma   120.00000706
_symmetry_Int_Tables_number   1
_chemical_formula_structural   K
_chemical_formula_sum   K32
_cell_volume   2473.14579793
_cell_formula_units_Z   32
loop_
 _symmetry_equiv_pos_site_id
 _symmetry_equiv_pos_as_xyz
  1  'x, y, z'
loop_
 _atom_site_type_symbol
 _atom_site_label
 _atom_site_symmetry_multiplicity
 _atom_site_fract_x
 _atom_site_fract_y
 _atom_site_fract_z
 _atom_site_occupancy
  K  K0_0  1  0.00000000  0.00000000  0.00000000  1
  K  K0_1  1  0.00000000  0.00000000  0.50000000  1
  K  K0_2  1  0.00000000  0.50000000  0.00000000  1
  K  K0_3  1  0.00000000  0.50000000  0.50000000  1
  K  K0_4  1  0.50000000  0.00000000  0.00000000  1
  K  K0_5  1  0.50000000  0.00000000  0.50000000  1
  K  K0_6  1  0.50000000  0.50000000  0.00000000  1
  K  K0_7  1  0.50000000  0.50000000  0.50000000  1
  K  K1_0  1  0.16666650  0.33333350  0.37500000  1
  K  K1_1  1  0.16666650  0.33333350  0.87500000  1
  K  K1_2  1  0.16666650  0.83333350  0.37500000  1
  K  K1_3  1  0.16666650  0.83333350  0.87500000  1
  K  K1_4  1  0.66666650  0.33333350  0.37500000  1
  K  K1_5  1  0.66666650  0.33333350  0.87500000  1
  K  K1_6  1  0.66666650  0.83333350  0.37500000  1
  K  K1_7  1  0.66666650  0.83333350  0.87500000  1
  K  K2_0  1  0.00000000  0.00000000  0.25000000  1
  K  K2_1  1  0.00000000  0.00000000  0.75000000  1
  K  K2_2  1  0.00000000  0.50000000  0.25000000  1
  K  K2_3  1  0.00000000  0.50000000  0.75000000  1
  K  K2_4  1  0.50000000  0.00000000  0.25000000  1
  K  K2_5  1  0.50000000  0.00000000  0.75000000  1
  K  K2_6  1  0.50000000  0.50000000  0.25000000  1
  K  K2_7  1  0.50000000  0.50000000  0.75000000  1
  K  K3_0  1  0.33333350  0.16666650  0.12500000  1
  K  K3_1  1  0.33333350  0.16666650  0.62500000  1
  K  K3_2  1  0.33333350  0.66666650  0.12500000  1
  K  K3_3  1  0.33333350  0.66666650  0.62500000  1
  K  K3_4  1  0.83333350  0.16666650  0.12500000  1
  K  K3_5  1  0.83333350  0.16666650  0.62500000  1
  K  K3_6  1  0.83333350  0.66666650  0.12500000  1
  K  K3_7  1  0.83333350  0.66666650  0.62500000  1
loop_
_geom_bond_atom_site_label_1
_geom_bond_atom_site_label_2
_geom_bond_distance
_geom_bond_site_symmetry_2
K0_0 K0_2 4.768434 1_555
K0_0 K0_6 4.768434 1_555
K0_0 K0_2 4.768434 1_545
K0_0 K0_6 4.768434 1_445
K0_0 K0_4 4.768435 1_555
K0_0 K0_4 4.768435 1_455
K0_0 K3_4 4.794097 1_455
K0_0 K1_3 4.794097 1_544
K0_0 K3_6 4.794099 1_445
K0_0 K1_1 4.794099 1_554
K0_0 K3_0 4.794099 1_555
K0_0 K1_7 4.794099 1_444
K0_1 K0_3 4.768434 1_545
K0_1 K0_7 4.768434 1_445
K0_1 K0_3 4.768434 1_555
K0_1 K0_7 4.768434 1_555
K0_1 K0_5 4.768435 1_455
K0_1 K0_5 4.768435 1_555
K0_1 K3_5 4.794097 1_455
K0_1 K1_2 4.794097 1_545
K0_1 K3_7 4.794099 1_445
K0_1 K1_0 4.794099 1_555
K0_1 K3_1 4.794099 1_555
K0_1 K1_6 4.794099 1_445
K0_2 K0_4 4.768434 1_565
K0_2 K0_4 4.768434 1_455
K0_2 K0_6 4.768435 1_455
K0_2 K0_6 4.768435 1_555
K0_2 K3_6 4.794097 1_455
K0_2 K1_1 4.794097 1_554
K0_2 K3_4 4.794099 1_455
K0_2 K1_3 4.794099 1_554
K0_2 K3_2 4.794099 1_555
K0_2 K1_5 4.794099 1_454
K0_3 K0_5 4.768434 1_455
K0_3 K0_5 4.768434 1_565
K0_3 K0_7 4.768435 1_555
K0_3 K0_7 4.768435 1_455
K0_3 K3_7 4.794097 1_455
K0_3 K1_0 4.794097 1_555
K0_3 K3_5 4.794099 1_455
K0_3 K1_2 4.794099 1_555
K0_3 K3_3 4.794099 1_555
K0_3 K1_4 4.794099 1_455
K0_4 K0_6 4.768434 1_555
K0_4 K0_6 4.768434 1_545
K0_4 K3_0 4.794097 1_555
K0_4 K1_7 4.794097 1_544
K0_4 K3_2 4.794099 1_545
K0_4 K1_5 4.794099 1_554
K0_4 K3_4 4.794099 1_555
K0_4 K1_3 4.794099 1_544
K0_5 K0_7 4.768434 1_545
K0_5 K0_7 4.768434 1_555
K0_5 K3_1 4.794097 1_555
K0_5 K1_6 4.794097 1_545
K0_5 K3_3 4.794099 1_545
K0_5 K1_4 4.794099 1_555
K0_5 K3_5 4.794099 1_555
K0_5 K1_2 4.794099 1_545
K0_6 K3_2 4.794097 1_555
K0_6 K1_5 4.794097 1_554
K0_6 K3_0 4.794099 1_555
K0_6 K1_7 4.794099 1_554
K0_6 K3_6 4.794099 1_555
K0_6 K1_1 4.794099 1_554
K0_7 K3_3 4.794097 1_555
K0_7 K1_4 4.794097 1_555
K0_7 K3_1 4.794099 1_555
K0_7 K1_6 4.794099 1_555
K0_7 K3_7 4.794099 1_555
K0_7 K1_0 4.794099 1_555
K1_0 K1_6 4.768434 1_445
K1_0 K1_2 4.768434 1_545
K1_0 K1_2 4.768434 1_555
K1_0 K1_6 4.768434 1_555
K1_0 K1_4 4.768435 1_555
K1_0 K1_4 4.768435 1_455
K1_0 K2_2 4.794097 1_555
K1_0 K2_0 4.794099 1_555
K1_0 K2_6 4.794099 1_555
K1_1 K1_3 4.768434 1_555
K1_1 K1_7 4.768434 1_445
K1_1 K1_7 4.768434 1_555
K1_1 K1_3 4.768434 1_545
K1_1 K1_5 4.768435 1_555
K1_1 K1_5 4.768435 1_455
K1_1 K2_3 4.794097 1_555
K1_1 K2_1 4.794099 1_555
K1_1 K2_7 4.794099 1_555
K1_2 K1_4 4.768434 1_455
K1_2 K1_4 4.768434 1_565
K1_2 K1_6 4.768435 1_455
K1_2 K1_6 4.768435 1_555
K1_2 K2_0 4.794097 1_565
K1_2 K2_2 4.794099 1_555
K1_2 K2_4 4.794099 1_565
K1_3 K1_5 4.768434 1_565
K1_3 K1_5 4.768434 1_455
K1_3 K1_7 4.768435 1_555
K1_3 K1_7 4.768435 1_455
K1_3 K2_1 4.794097 1_565
K1_3 K2_3 4.794099 1_555
K1_3 K2_5 4.794099 1_565
K1_4 K1_6 4.768434 1_545
K1_4 K1_6 4.768434 1_555
K1_4 K2_6 4.794097 1_555
K1_4 K2_4 4.794099 1_555
K1_4 K2_2 4.794099 1_655
K1_5 K1_7 4.768434 1_555
K1_5 K1_7 4.768434 1_545
K1_5 K2_7 4.794097 1_555
K1_5 K2_5 4.794099 1_555
K1_5 K2_3 4.794099 1_655
K1_6 K2_4 4.794097 1_565
K1_6 K2_6 4.794099 1_555
K1_6 K2_0 4.794099 1_665
K1_7 K2_5 4.794097 1_565
K1_7 K2_7 4.794099 1_555
K1_7 K2_1 4.794099 1_665
K2_0 K2_6 4.768434 1_445
K2_0 K2_2 4.768434 1_545
K2_0 K2_2 4.768434 1_555
K2_0 K2_6 4.768434 1_555
K2_0 K2_4 4.768435 1_455
K2_0 K2_4 4.768435 1_555
K2_0 K3_4 4.794097 1_455
K2_0 K3_6 4.794099 1_445
K2_0 K3_0 4.794099 1_555
K2_1 K2_7 4.768434 1_445
K2_1 K2_3 4.768434 1_555
K2_1 K2_3 4.768434 1_545
K2_1 K2_7 4.768434 1_555
K2_1 K2_5 4.768435 1_455
K2_1 K2_5 4.768435 1_555
K2_1 K3_5 4.794097 1_455
K2_1 K3_7 4.794099 1_445
K2_1 K3_1 4.794099 1_555
K2_2 K2_4 4.768434 1_565
K2_2 K2_4 4.768434 1_455
K2_2 K2_6 4.768435 1_455
K2_2 K2_6 4.768435 1_555
K2_2 K3_6 4.794097 1_455
K2_2 K3_4 4.794099 1_455
K2_2 K3_2 4.794099 1_555
K2_3 K2_5 4.768434 1_565
K2_3 K2_5 4.768434 1_455
K2_3 K2_7 4.768435 1_555
K2_3 K2_7 4.768435 1_455
K2_3 K3_7 4.794097 1_455
K2_3 K3_5 4.794099 1_455
K2_3 K3_3 4.794099 1_555
K2_4 K2_6 4.768434 1_545
K2_4 K2_6 4.768434 1_555
K2_4 K3_0 4.794097 1_555
K2_4 K3_2 4.794099 1_545
K2_4 K3_4 4.794099 1_555
K2_5 K2_7 4.768434 1_555
K2_5 K2_7 4.768434 1_545
K2_5 K3_1 4.794097 1_555
K2_5 K3_3 4.794099 1_545
K2_5 K3_5 4.794099 1_555
K2_6 K3_2 4.794097 1_555
K2_6 K3_0 4.794099 1_555
K2_6 K3_6 4.794099 1_555
K2_7 K3_3 4.794097 1_555
K2_7 K3_1 4.794099 1_555
K2_7 K3_7 4.794099 1_555
K3_0 K3_6 4.768434 1_445
K3_0 K3_2 4.768434 1_545
K3_0 K3_2 4.768434 1_555
K3_0 K3_6 4.768434 1_555
K3_0 K3_4 4.768435 1_455
K3_0 K3_4 4.768435 1_555
K3_1 K3_3 4.768434 1_545
K3_1 K3_7 4.768434 1_445
K3_1 K3_3 4.768434 1_555
K3_1 K3_7 4.768434 1_555
K3_1 K3_5 4.768435 1_455
K3_1 K3_5 4.768435 1_555
K3_2 K3_4 4.768434 1_455
K3_2 K3_4 4.768434 1_565
K3_2 K3_6 4.768435 1_455
K3_2 K3_6 4.768435 1_555
K3_3 K3_5 4.768434 1_565
K3_3 K3_5 4.768434 1_455
K3_3 K3_7 4.768435 1_455
K3_3 K3_7 4.768435 1_555
K3_4 K3_6 4.768434 1_545
K3_4 K3_6 4.768434 1_555
K3_5 K3_7 4.768434 1_545
K3_5 K3_7 4.768434 1_555
