# generated using pymatgen
data_Y2V2O7
_symmetry_space_group_name_H-M   'P 1'
_cell_length_a   7.07607181
_cell_length_b   7.07607235
_cell_length_c   7.07607163
_cell_angle_alpha   60.00000343
_cell_angle_beta   60.00000088
_cell_angle_gamma   59.99999771
_symmetry_Int_Tables_number   1
_chemical_formula_structural   Y2V2O7
_chemical_formula_sum   'Y4 V4 O14'
_cell_volume   250.53114650
_cell_formula_units_Z   2
loop_
 _symmetry_equiv_pos_site_id
 _symmetry_equiv_pos_as_xyz
  1  'x, y, z'
loop_
 _atom_site_type_symbol
 _atom_site_label
 _atom_site_symmetry_multiplicity
 _atom_site_fract_x
 _atom_site_fract_y
 _atom_site_fract_z
 _atom_site_occupancy
  Y  Y0  1  0.50000000  -0.00000000  0.00000000  1
  Y  Y1  1  -0.00000000  -0.00000000  0.00000000  1
  Y  Y2  1  -0.00000000  -0.00000000  0.50000000  1
  Y  Y3  1  -0.00000000  0.50000000  0.00000000  1
  V  V0  1  0.50000000  0.50000000  0.50000000  1
  V  V1  1  0.50000000  0.50000000  0.00000000  1
  V  V2  1  -0.00000000  0.50000000  0.50000000  1
  V  V3  1  0.50000000  -0.00000000  0.50000000  1
  O  O0  1  0.58002402  0.16997598  0.58002402  1
  O  O1  1  0.16997598  0.16997598  0.58002402  1
  O  O2  1  0.58002402  0.16997598  0.16997598  1
  O  O3  1  0.16997598  0.58002402  0.16997598  1
  O  O4  1  0.41997598  0.83002402  0.83002402  1
  O  O5  1  0.83002402  0.83002402  0.41997598  1
  O  O6  1  0.83002402  0.41997598  0.41997598  1
  O  O7  1  0.12500000  0.12500000  0.12500000  1
  O  O8  1  0.41997598  0.41997598  0.83002402  1
  O  O9  1  0.58002402  0.58002402  0.16997598  1
  O  O10  1  0.16997598  0.58002402  0.58002402  1
  O  O11  1  0.87500000  0.87500000  0.87500000  1
  O  O12  1  0.41997598  0.83002402  0.41997598  1
  O  O13  1  0.83002402  0.41997598  0.83002402  1
loop_
_geom_bond_atom_site_label_1
_geom_bond_atom_site_label_2
_geom_bond_distance
_geom_bond_site_symmetry_2
O0 V3 1.941833 1_555
O0 V0 1.941833 1_555
O0 Y2 2.454119 1_655
O0 Y0 2.454119 1_556
O1 V3 1.941833 1_555
O1 V2 1.941833 1_555
O1 Y2 2.454119 1_555
O1 Y1 2.454119 1_556
O2 V3 1.941833 1_555
O2 V1 1.941833 1_555
O2 Y1 2.454119 1_655
O2 Y0 2.454119 1_555
O3 V1 1.941833 1_555
O3 V2 1.941833 1_555
O3 Y3 2.454119 1_555
O3 Y1 2.454119 1_565
O4 V3 1.941833 1_565
O4 V1 1.941833 1_556
O4 Y1 2.454119 1_566
O4 Y0 2.454119 1_566
O5 V3 1.941833 1_565
O5 V2 1.941833 1_655
O5 Y2 2.454119 1_665
O5 Y1 2.454119 1_665
O6 V0 1.941833 1_555
O6 V2 1.941833 1_655
O6 Y3 2.454119 1_655
O6 Y2 2.454119 1_655
O7 Y0 2.166596 1_555
O7 Y1 2.166596 1_555
O7 Y2 2.166596 1_555
O7 Y3 2.166596 1_555
O8 V1 1.941833 1_556
O8 V0 1.941833 1_555
O8 Y3 2.454119 1_556
O8 Y0 2.454119 1_556
O9 V1 1.941833 1_555
O9 V0 1.941833 1_555
O9 Y3 2.454119 1_655
O9 Y0 2.454119 1_565
O10 V0 1.941833 1_555
O10 V2 1.941833 1_555
O10 Y3 2.454119 1_556
O10 Y2 2.454119 1_565
O11 Y0 2.166596 1_566
O11 Y1 2.166596 1_666
O11 Y2 2.166596 1_665
O11 Y3 2.166596 1_656
O12 V3 1.941833 1_565
O12 V0 1.941833 1_555
O12 Y2 2.454119 1_565
O12 Y0 2.454119 1_565
O13 V1 1.941833 1_556
O13 V2 1.941833 1_655
O13 Y3 2.454119 1_656
O13 Y1 2.454119 1_656
