# generated using pymatgen
data_YCBr
_symmetry_space_group_name_H-M   'P 1'
_cell_length_a   3.97411951
_cell_length_b   3.97411951
_cell_length_c   10.15077222
_cell_angle_alpha   81.77153259
_cell_angle_beta   98.22846741
_cell_angle_gamma   123.06218080
_symmetry_Int_Tables_number   1
_chemical_formula_structural   YCBr
_chemical_formula_sum   'Y2 C2 Br2'
_cell_volume   132.56608123
_cell_formula_units_Z   2
loop_
 _symmetry_equiv_pos_site_id
 _symmetry_equiv_pos_as_xyz
  1  'x, y, z'
loop_
 _atom_site_type_symbol
 _atom_site_label
 _atom_site_symmetry_multiplicity
 _atom_site_fract_x
 _atom_site_fract_y
 _atom_site_fract_z
 _atom_site_occupancy
  Y  Y0  1  0.59294779  0.40705221  0.85460996  1
  Y  Y1  1  0.40705221  0.59294779  0.14539004  1
  C  C0  1  0.91254613  0.08745387  0.96217407  1
  C  C1  1  0.08745387  0.91254613  0.03782593  1
  Br  Br0  1  0.20399880  0.79600120  0.66713277  1
  Br  Br1  1  0.79600120  0.20399880  0.33286723  1
loop_
_geom_bond_atom_site_label_1
_geom_bond_atom_site_label_2
_geom_bond_distance
_geom_bond_site_symmetry_2
C0 C1 1.333285 1_646
C0 Y0 2.320524 1_555
C0 Y0 2.611098 1_545
C0 Y0 2.611098 1_655
C0 Y1 2.659366 1_546
C0 Y1 2.659366 1_656
C1 Y1 2.320524 1_555
C1 Y1 2.611098 1_455
C1 Y1 2.611098 1_565
C1 Y0 2.659366 1_564
C1 Y0 2.659366 1_454
Br0 Y0 2.879781 1_565
Br0 Y0 2.879781 1_455
Br0 Y0 3.053367 1_555
Br1 Y1 2.879781 1_655
Br1 Y1 2.879781 1_545
Br1 Y1 3.053367 1_555
