# generated using pymatgen
data_CdSnAs2
_symmetry_space_group_name_H-M   'P 1'
_cell_length_a   4.67930200
_cell_length_b   4.67930200
_cell_length_c   39.89633979
_cell_angle_alpha   89.45558449
_cell_angle_beta   89.45558449
_cell_angle_gamma   56.30644017
_symmetry_Int_Tables_number   1
_chemical_formula_structural   CdSnAs2
_chemical_formula_sum   'Cd6 Sn6 As12'
_cell_volume   726.77823657
_cell_formula_units_Z   6
loop_
 _symmetry_equiv_pos_site_id
 _symmetry_equiv_pos_as_xyz
  1  'x, y, z'
loop_
 _atom_site_type_symbol
 _atom_site_label
 _atom_site_symmetry_multiplicity
 _atom_site_fract_x
 _atom_site_fract_y
 _atom_site_fract_z
 _atom_site_occupancy
  Cd  Cd0  1  0.33928800  0.33928800  0.41200000  1
  Cd  Cd1  1  0.00681200  0.00681200  0.48769100  1
  Cd  Cd2  1  0.00616100  0.00616100  0.24657500  1
  Cd  Cd3  1  0.67245500  0.67245500  0.32901000  1
  Cd  Cd4  1  0.33822700  0.33822700  0.16465400  1
  Cd  Cd5  1  0.67008300  0.67008300  0.08339400  1
  Sn  Sn0  1  0.00144000  0.00144000  0.00442000  1
  Sn  Sn1  1  0.33912800  0.33912800  0.91216900  1
  Sn  Sn2  1  0.67135300  0.67135300  0.83034600  1
  Sn  Sn3  1  0.00388900  0.00388900  0.74710300  1
  Sn  Sn4  1  0.33808100  0.33808100  0.66474400  1
  Sn  Sn5  1  0.67083700  0.67083700  0.58208600  1
  As  As0  1  0.33079800  0.33079800  0.98039900  1
  As  As1  1  0.66112400  0.66112400  0.89848300  1
  As  As2  1  0.99429300  0.99429300  0.81553200  1
  As  As3  1  0.32711300  0.32711300  0.73308300  1
  As  As4  1  0.66092600  0.66092600  0.65089600  1
  As  As5  1  0.99857900  0.99857900  0.55937700  1
  As  As6  1  0.32796600  0.32796600  0.48073800  1
  As  As7  1  0.66199900  0.66199900  0.39720400  1
  As  As8  1  0.99501200  0.99501200  0.31514900  1
  As  As9  1  0.32881500  0.32881500  0.23366400  1
  As  As10  1  0.66098100  0.66098100  0.15142000  1
  As  As11  1  0.99448700  0.99448700  0.06986000  1
loop_
_geom_bond_atom_site_label_1
_geom_bond_atom_site_label_2
_geom_bond_distance
_geom_bond_site_symmetry_2
As0 Sn1 2.722254 1_555
As0 Sn0 2.793677 1_566
As0 Sn0 2.793677 1_656
As0 Sn0 2.871926 1_556
As1 Sn1 2.706667 1_555
As1 Sn1 2.710589 1_655
As1 Sn1 2.710589 1_565
As1 Sn2 2.718818 1_555
As2 Sn2 2.716057 1_565
As2 Sn2 2.716057 1_655
As2 Sn2 2.723232 1_555
As2 Sn3 2.730362 1_665
As3 Sn3 2.707888 1_655
As3 Sn3 2.707888 1_565
As3 Sn3 2.719161 1_555
As3 Sn4 2.727003 1_555
As4 Sn4 2.708133 1_655
As4 Sn4 2.708133 1_565
As4 Sn4 2.714768 1_555
As4 Sn5 2.745604 1_555
As5 Sn5 2.782704 1_565
As5 Sn5 2.782704 1_655
As5 Sn5 2.842781 1_555
As5 Cd1 2.860084 1_665
As6 Cd1 2.661468 1_555
As6 Cd1 2.671722 1_565
As6 Cd1 2.671722 1_655
As6 Cd0 2.742979 1_555
As7 Cd0 2.716918 1_655
As7 Cd0 2.716918 1_565
As7 Cd3 2.721129 1_555
As7 Cd0 2.721239 1_555
As8 Cd3 2.709530 1_655
As8 Cd3 2.709530 1_565
As8 Cd3 2.712542 1_555
As8 Cd2 2.736407 1_665
As9 Cd2 2.701393 1_655
As9 Cd2 2.701393 1_565
As9 Cd2 2.706257 1_555
As9 Cd4 2.753505 1_555
As10 Cd4 2.703507 1_655
As10 Cd4 2.703507 1_565
As10 Cd4 2.709412 1_555
As10 Cd5 2.714218 1_555
As11 Sn0 2.610829 1_665
As11 Cd5 2.698576 1_655
As11 Cd5 2.698576 1_565
As11 Cd5 2.724987 1_555
