# generated using pymatgen
data_Ba2LaTa(CuO4)2
_symmetry_space_group_name_H-M   'P 1'
_cell_length_a   3.99960100
_cell_length_b   3.99960100
_cell_length_c   12.23232600
_cell_angle_alpha   90.00000000
_cell_angle_beta   90.00000000
_cell_angle_gamma   90.00000000
_symmetry_Int_Tables_number   1
_chemical_formula_structural   Ba2LaTa(CuO4)2
_chemical_formula_sum   'Ba2 La1 Ta1 Cu2 O8'
_cell_volume   195.67817236
_cell_formula_units_Z   1
loop_
 _symmetry_equiv_pos_site_id
 _symmetry_equiv_pos_as_xyz
  1  'x, y, z'
loop_
 _atom_site_type_symbol
 _atom_site_label
 _atom_site_symmetry_multiplicity
 _atom_site_fract_x
 _atom_site_fract_y
 _atom_site_fract_z
 _atom_site_occupancy
  Ba  Ba0  1  0.00000000  0.00000000  0.19480800  1
  Ba  Ba1  1  0.00000000  0.00000000  0.80519200  1
  La  La0  1  0.00000000  0.00000000  0.50000000  1
  Ta  Ta0  1  0.50000000  0.50000000  0.00000000  1
  Cu  Cu0  1  0.50000000  0.50000000  0.64063700  1
  Cu  Cu1  1  0.50000000  0.50000000  0.35936300  1
  O  O0  1  0.50000000  0.50000000  0.16208500  1
  O  O1  1  0.00000000  0.50000000  0.62802300  1
  O  O2  1  0.50000000  0.00000000  0.62802300  1
  O  O3  1  0.50000000  0.00000000  0.37197700  1
  O  O4  1  0.00000000  0.50000000  0.37197700  1
  O  O5  1  0.00000000  0.50000000  0.00000000  1
  O  O6  1  0.50000000  0.50000000  0.83791500  1
  O  O7  1  0.50000000  0.00000000  0.00000000  1
loop_
_geom_bond_atom_site_label_1
_geom_bond_atom_site_label_2
_geom_bond_distance
_geom_bond_site_symmetry_2
Ba0 O0 2.856331 1_545
Ba0 O0 2.856331 1_555
Ba0 O0 2.856331 1_445
Ba0 O0 2.856331 1_455
Ba0 O3 2.948883 1_455
Ba0 O3 2.948883 1_555
Ba0 O4 2.948883 1_555
Ba0 O4 2.948883 1_545
Ba0 O5 3.110896 1_555
Ba0 O7 3.110896 1_455
Ba0 O7 3.110896 1_555
Ba0 O5 3.110896 1_545
Ba1 O6 2.856331 1_545
Ba1 O6 2.856331 1_445
Ba1 O6 2.856331 1_455
Ba1 O6 2.856331 1_555
Ba1 O1 2.948883 1_545
Ba1 O1 2.948883 1_555
Ba1 O2 2.948883 1_455
Ba1 O2 2.948883 1_555
Ba1 O7 3.110896 1_556
Ba1 O5 3.110896 1_556
Ba1 O5 3.110896 1_546
Ba1 O7 3.110896 1_456
La0 O4 2.540003 1_545
La0 O3 2.540003 1_455
La0 O1 2.540003 1_545
La0 O3 2.540003 1_555
La0 O1 2.540003 1_555
La0 O4 2.540003 1_555
La0 O2 2.540003 1_455
La0 O2 2.540003 1_555
Cu0 O1 2.005744 1_655
Cu0 O2 2.005744 1_565
Cu0 O1 2.005744 1_555
Cu0 O2 2.005744 1_555
Cu0 O6 2.413169 1_555
Cu1 O3 2.005744 1_555
Cu1 O3 2.005744 1_565
Cu1 O4 2.005744 1_555
Cu1 O4 2.005744 1_655
Cu1 O0 2.413169 1_555
O0 Ta0 1.982677 1_555
O5 Ta0 1.999801 1_555
O5 Ta0 1.999801 1_455
O6 Ta0 1.982677 1_556
O7 Ta0 1.999801 1_545
O7 Ta0 1.999801 1_555
