# generated using pymatgen
data_Ce5C2Cl9
_symmetry_space_group_name_H-M   'P 1'
_cell_length_a   8.68597888
_cell_length_b   8.80159007
_cell_length_c   11.90748892
_cell_angle_alpha   95.41750830
_cell_angle_beta   96.22190973
_cell_angle_gamma   60.89695111
_symmetry_Int_Tables_number   1
_chemical_formula_structural   Ce5C2Cl9
_chemical_formula_sum   'Ce10 C4 Cl18'
_cell_volume   789.80285873
_cell_formula_units_Z   2
loop_
 _symmetry_equiv_pos_site_id
 _symmetry_equiv_pos_as_xyz
  1  'x, y, z'
loop_
 _atom_site_type_symbol
 _atom_site_label
 _atom_site_symmetry_multiplicity
 _atom_site_fract_x
 _atom_site_fract_y
 _atom_site_fract_z
 _atom_site_occupancy
  Ce  Ce0  1  0.89688762  0.29519716  0.00990961  1
  Ce  Ce1  1  0.10311238  0.70480284  0.99009039  1
  Ce  Ce2  1  0.12804925  0.26455454  0.73321753  1
  Ce  Ce3  1  0.23368837  0.90574305  0.26748296  1
  Ce  Ce4  1  0.37781193  0.40213821  0.21734719  1
  Ce  Ce5  1  0.20618474  0.67075060  0.51264010  1
  Ce  Ce6  1  0.79381526  0.32924940  0.48735990  1
  Ce  Ce7  1  0.62218807  0.59786179  0.78265281  1
  Ce  Ce8  1  0.76631163  0.09425695  0.73251704  1
  Ce  Ce9  1  0.87195075  0.73544546  0.26678247  1
  C  C0  1  0.17049649  0.67904439  0.31177238  1
  C  C1  1  0.14029819  0.69209728  0.18693936  1
  C  C2  1  0.82950351  0.32095561  0.68822762  1
  C  C3  1  0.85970181  0.30790272  0.81306064  1
  Cl  Cl0  1  0.92854669  0.65228826  0.76936484  1
  Cl  Cl1  1  0.78980644  0.66642256  0.02802678  1
  Cl  Cl2  1  0.46529687  0.32528071  0.45013078  1
  Cl  Cl3  1  0.78688491  0.03964645  0.96580004  1
  Cl  Cl4  1  0.07145331  0.34771174  0.23063516  1
  Cl  Cl5  1  0.21311509  0.96035355  0.03419996  1
  Cl  Cl6  1  0.16414722  0.05919720  0.49832219  1
  Cl  Cl7  1  0.49578724  0.98803125  0.75475007  1
  Cl  Cl8  1  0.21019356  0.33357744  0.97197322  1
  Cl  Cl9  1  0.53470313  0.67471929  0.54986922  1
  Cl  Cl10  1  0.84838179  0.11650168  0.25328659  1
  Cl  Cl11  1  0.15161821  0.88349832  0.74671341  1
  Cl  Cl12  1  0.50000000  0.50000000  0.00000000  1
  Cl  Cl13  1  0.50421276  0.01196875  0.24524993  1
  Cl  Cl14  1  0.83585278  0.94080280  0.50167781  1
  Cl  Cl15  1  0.00000000  0.50000000  0.50000000  1
  Cl  Cl16  1  0.39400607  0.42622954  0.72225960  1
  Cl  Cl17  1  0.60599393  0.57377046  0.27774040  1
loop_
_geom_bond_atom_site_label_1
_geom_bond_atom_site_label_2
_geom_bond_distance
_geom_bond_site_symmetry_2
Ce0 Cl3 2.829608 1_554
Ce0 Cl5 2.903126 1_645
Ce0 Cl1 2.922590 1_555
Ce0 Cl8 2.985558 1_654
Ce0 Cl4 3.001525 1_655
Ce0 Cl12 3.009086 1_555
Ce0 Cl10 3.580448 1_555
Ce1 Cl5 2.829608 1_556
Ce1 Cl3 2.903126 1_465
Ce1 Cl8 2.922590 1_555
Ce1 Cl1 2.985558 1_456
Ce1 Cl0 3.001525 1_455
Ce1 Cl12 3.009086 1_556
Ce1 Cl11 3.580448 1_555
Ce2 Cl7 2.927452 1_545
Ce2 Cl8 2.935393 1_555
Ce2 Cl0 2.994345 1_455
Ce2 Cl6 3.142092 1_555
Ce2 Cl16 3.267508 1_555
Ce2 Cl11 3.277670 1_545
Ce2 Cl15 3.379119 1_555
Ce3 Cl5 2.835522 1_555
Ce3 Cl10 2.927091 1_465
Ce3 Cl6 2.934243 1_565
Ce3 Cl13 2.963834 1_565
Ce3 Cl17 3.130538 1_555
Ce3 Cl4 3.488043 1_565
Ce4 Cl2 2.848816 1_555
Ce4 Cl4 2.946381 1_555
Ce4 Cl17 3.020905 1_555
Ce4 Cl13 3.094776 1_555
Ce4 Cl12 3.236037 1_555
Ce4 Cl8 3.258890 1_554
Ce4 Cl10 3.610839 1_555
Ce5 Cl15 2.829444 1_555
Ce5 Cl2 2.853740 1_555
Ce5 Cl9 2.856583 1_555
Ce5 Cl14 2.922987 1_455
Ce5 Cl11 3.152317 1_555
Ce5 Cl16 3.199972 1_555
Ce5 Cl6 3.276245 1_565
Ce6 Cl15 2.829444 1_655
Ce6 Cl9 2.853740 1_555
Ce6 Cl2 2.856583 1_555
Ce6 Cl6 2.922987 1_655
Ce6 Cl10 3.152317 1_555
Ce6 Cl17 3.199972 1_555
Ce6 Cl14 3.276245 1_545
Ce7 Cl9 2.848816 1_555
Ce7 Cl0 2.946381 1_555
Ce7 Cl16 3.020905 1_555
Ce7 Cl7 3.094776 1_555
Ce7 Cl12 3.236037 1_556
Ce7 Cl1 3.258890 1_556
Ce7 Cl11 3.610839 1_555
Ce8 Cl3 2.835522 1_555
Ce8 Cl11 2.927091 1_645
Ce8 Cl14 2.934243 1_545
Ce8 Cl7 2.963834 1_545
Ce8 Cl16 3.130538 1_555
Ce8 Cl0 3.488043 1_545
Ce9 Cl13 2.927452 1_565
Ce9 Cl1 2.935393 1_555
Ce9 Cl4 2.994345 1_655
Ce9 Cl14 3.142092 1_555
Ce9 Cl17 3.267508 1_555
Ce9 Cl10 3.277670 1_565
Ce9 Cl15 3.379119 1_655
C0 C1 1.486589 1_555
C0 Ce5 2.381704 1_555
C0 Ce9 2.398911 1_455
C0 Ce3 2.426409 1_555
C0 Ce4 2.469625 1_555
C1 Ce1 2.336945 1_554
C1 Ce4 2.406520 1_555
C1 Ce9 2.455430 1_455
C1 Ce3 2.467485 1_555
C2 C3 1.486589 1_555
C2 Ce6 2.381704 1_555
C2 Ce2 2.398911 1_655
C2 Ce8 2.426409 1_555
C2 Ce7 2.469625 1_555
C3 Ce0 2.336945 1_556
C3 Ce7 2.406520 1_555
C3 Ce2 2.455430 1_655
C3 Ce8 2.467485 1_555
