# generated using pymatgen
data_Ca4Si2H2CO11
_symmetry_space_group_name_H-M   'P 1'
_cell_length_a   23.63018500
_cell_length_b   7.64299900
_cell_length_c   11.65566864
_cell_angle_alpha   71.05936414
_cell_angle_beta   90.00000000
_cell_angle_gamma   90.00000000
_symmetry_Int_Tables_number   1
_chemical_formula_structural   Ca4Si2H2CO11
_chemical_formula_sum   'Ca32 Si16 H16 C8 O88'
_cell_volume   1991.09902446
_cell_formula_units_Z   8
loop_
 _symmetry_equiv_pos_site_id
 _symmetry_equiv_pos_as_xyz
  1  'x, y, z'
loop_
 _atom_site_type_symbol
 _atom_site_label
 _atom_site_symmetry_multiplicity
 _atom_site_fract_x
 _atom_site_fract_y
 _atom_site_fract_z
 _atom_site_occupancy
  Ca  Ca0  1  0.69360100  0.40295500  0.94034900  1
  Ca  Ca1  1  0.19239500  0.09499600  0.55642500  1
  Ca  Ca2  1  0.54415600  0.93845800  0.37724100  1
  Ca  Ca3  1  0.80639900  0.40295500  0.44034900  1
  Ca  Ca4  1  0.45667100  0.56620200  0.62545100  1
  Ca  Ca5  1  0.95459500  0.18875500  0.37453800  1
  Ca  Ca6  1  0.19147600  0.77652100  0.19341500  1
  Ca  Ca7  1  0.45441800  0.31044400  0.12764300  1
  Ca  Ca8  1  0.80852400  0.22347900  0.80658500  1
  Ca  Ca9  1  0.45584400  0.06154200  0.62275900  1
  Ca  Ca10  1  0.54558200  0.68955600  0.87235700  1
  Ca  Ca11  1  0.19005300  0.27799600  0.19586000  1
  Ca  Ca12  1  0.04332900  0.56620200  0.12545100  1
  Ca  Ca13  1  0.45459500  0.81124500  0.12546200  1
  Ca  Ca14  1  0.95584400  0.93845800  0.87724100  1
  Ca  Ca15  1  0.80994700  0.72200400  0.80414000  1
  Ca  Ca16  1  0.95441800  0.68955600  0.37235700  1
  Ca  Ca17  1  0.30760500  0.09499600  0.05642500  1
  Ca  Ca18  1  0.54332900  0.43379800  0.37454900  1
  Ca  Ca19  1  0.19360100  0.59704500  0.55965100  1
  Ca  Ca20  1  0.04415600  0.06154200  0.12275900  1
  Ca  Ca21  1  0.30994700  0.27799600  0.69586000  1
  Ca  Ca22  1  0.04558200  0.31044400  0.62764300  1
  Ca  Ca23  1  0.04540500  0.81124500  0.62546200  1
  Ca  Ca24  1  0.69239500  0.90500400  0.94357500  1
  Ca  Ca25  1  0.69147600  0.22347900  0.30658500  1
  Ca  Ca26  1  0.54540500  0.18875500  0.87453800  1
  Ca  Ca27  1  0.95667100  0.43379800  0.87454900  1
  Ca  Ca28  1  0.69005300  0.72200400  0.30414000  1
  Ca  Ca29  1  0.30639900  0.59704500  0.05965100  1
  Ca  Ca30  1  0.80760500  0.90500400  0.44357500  1
  Ca  Ca31  1  0.30852400  0.77652100  0.69341500  1
  Si  Si0  1  0.91367700  0.10186100  0.12579900  1
  Si  Si1  1  0.58610200  0.52423700  0.62371000  1
  Si  Si2  1  0.08632300  0.89813900  0.87420100  1
  Si  Si3  1  0.21765600  0.39310500  0.87843900  1
  Si  Si4  1  0.21787400  0.98157100  0.87207500  1
  Si  Si5  1  0.78234400  0.60689500  0.12156100  1
  Si  Si6  1  0.28212600  0.98157100  0.37207500  1
  Si  Si7  1  0.78212600  0.01842900  0.12792500  1
  Si  Si8  1  0.41389800  0.47576300  0.37629000  1
  Si  Si9  1  0.58632300  0.10186100  0.62579900  1
  Si  Si10  1  0.71765600  0.60689500  0.62156100  1
  Si  Si11  1  0.71787400  0.01842900  0.62792500  1
  Si  Si12  1  0.28234400  0.39310500  0.37843900  1
  Si  Si13  1  0.91389800  0.52423700  0.12371000  1
  Si  Si14  1  0.41367700  0.89813900  0.37420100  1
  Si  Si15  1  0.08610200  0.47576300  0.87629000  1
  H  H0  1  0.85348200  0.88990100  0.96308300  1
  H  H1  1  0.65232700  0.40018100  0.45374500  1
  H  H2  1  0.64651800  0.88990100  0.46308300  1
  H  H3  1  0.15232700  0.59981900  0.04625500  1
  H  H4  1  0.84767300  0.40018100  0.95374500  1
  H  H5  1  0.64756400  0.73538400  0.78647000  1
  H  H6  1  0.14756400  0.26461600  0.71353000  1
  H  H7  1  0.34767300  0.59981900  0.54625500  1
  H  H8  1  0.35243600  0.26461600  0.21353000  1
  H  H9  1  0.35348200  0.11009900  0.53691700  1
  H  H10  1  0.65257100  0.22573200  0.79414600  1
  H  H11  1  0.15257100  0.77426800  0.70585400  1
  H  H12  1  0.85243600  0.73538400  0.28647000  1
  H  H13  1  0.14651800  0.11009900  0.03691700  1
  H  H14  1  0.34742900  0.77426800  0.20585400  1
  H  H15  1  0.84742900  0.22573200  0.29414600  1
  C  C0  1  0.08099600  0.68638700  0.37669600  1
  C  C1  1  0.57888600  0.81289200  0.12376400  1
  C  C2  1  0.42111400  0.18710800  0.87623600  1
  C  C3  1  0.58099600  0.31361300  0.12330400  1
  C  C4  1  0.92111400  0.81289200  0.62376400  1
  C  C5  1  0.91900400  0.31361300  0.62330400  1
  C  C6  1  0.07888600  0.18710800  0.37623600  1
  C  C7  1  0.41900400  0.68638700  0.87669600  1
  O  O0  1  0.05088700  0.23915700  0.27424200  1
  O  O1  1  0.35593000  0.30995100  0.12514500  1
  O  O2  1  0.13318300  0.18459100  0.37836400  1
  O  O3  1  0.94911300  0.76084300  0.72575800  1
  O  O4  1  0.35225700  0.37585800  0.37593500  1
  O  O5  1  0.75833100  0.46399700  0.24667800  1
  O  O6  1  0.75765900  0.02618500  0.25611300  1
  O  O7  1  0.75959800  0.16077700  0.00108100  1
  O  O8  1  0.64797400  0.99966300  0.63095400  1
  O  O9  1  0.14329600  0.06425500  0.12529700  1
  O  O10  1  0.04886300  0.37496200  0.99646100  1
  O  O11  1  0.74166900  0.46399700  0.74667800  1
  O  O12  1  0.39653200  0.68818200  0.37253900  1
  O  O13  1  0.45113700  0.37496200  0.49646100  1
  O  O14  1  0.24040200  0.83922300  0.99891900  1
  O  O15  1  0.36468500  0.68569800  0.87907700  1
  O  O16  1  0.14407000  0.30995100  0.62514500  1
  O  O17  1  0.64259900  0.18176700  0.88020000  1
  O  O18  1  0.74234100  0.02618500  0.75611300  1
  O  O19  1  0.85202600  0.99966300  0.13095400  1
  O  O20  1  0.85670400  0.93574500  0.87470300  1
  O  O21  1  0.75958100  0.60039800  0.99175700  1
  O  O22  1  0.89653200  0.31181800  0.12746100  1
  O  O23  1  0.54791800  0.50784100  0.74340200  1
  O  O24  1  0.36681700  0.18459100  0.87836400  1
  O  O25  1  0.24234100  0.97381500  0.74388700  1
  O  O26  1  0.94906300  0.36469600  0.52284200  1
  O  O27  1  0.95296900  0.00116200  0.24375400  1
  O  O28  1  0.44960200  0.88023900  0.49590700  1
  O  O29  1  0.55039800  0.11976100  0.50409300  1
  O  O30  1  0.74180200  0.81260600  0.62458500  1
  O  O31  1  0.55302200  0.26191600  0.22556100  1
  O  O32  1  0.04703100  0.99883800  0.75624600  1
  O  O33  1  0.44911300  0.23915700  0.77424200  1
  O  O34  1  0.35740100  0.81823300  0.11980000  1
  O  O35  1  0.04791800  0.49215900  0.75659800  1
  O  O36  1  0.95078500  0.86306500  0.52278900  1
  O  O37  1  0.85740100  0.18176700  0.38020000  1
  O  O38  1  0.95208200  0.50784100  0.24340200  1
  O  O39  1  0.74041900  0.60039800  0.49175700  1
  O  O40  1  0.44906300  0.63530400  0.97715800  1
  O  O41  1  0.35670400  0.06425500  0.62529700  1
  O  O42  1  0.85851700  0.44369000  0.86821300  1
  O  O43  1  0.44697800  0.73808400  0.77443900  1
  O  O44  1  0.94960200  0.11976100  0.00409300  1
  O  O45  1  0.64329600  0.93574500  0.37470300  1
  O  O46  1  0.55088700  0.76084300  0.22575800  1
  O  O47  1  0.24166900  0.53600300  0.75332200  1
  O  O48  1  0.05093700  0.63530400  0.47715800  1
  O  O49  1  0.45078500  0.13693500  0.97721100  1
  O  O50  1  0.04921500  0.13693500  0.47721100  1
  O  O51  1  0.85225700  0.62414200  0.12406500  1
  O  O52  1  0.85593000  0.69004900  0.37485500  1
  O  O53  1  0.74040200  0.16077700  0.50108100  1
  O  O54  1  0.54703100  0.00116200  0.74375400  1
  O  O55  1  0.64148300  0.44369000  0.36821300  1
  O  O56  1  0.60346800  0.31181800  0.62746100  1
  O  O57  1  0.86681700  0.81540900  0.62163600  1
  O  O58  1  0.25819800  0.18739400  0.37541500  1
  O  O59  1  0.14797400  0.00033700  0.86904600  1
  O  O60  1  0.25959800  0.83922300  0.49891900  1
  O  O61  1  0.24180200  0.18739400  0.87541500  1
  O  O62  1  0.14259900  0.81823300  0.61980000  1
  O  O63  1  0.54921500  0.86306500  0.02278900  1
  O  O64  1  0.45208200  0.49215900  0.25659800  1
  O  O65  1  0.64774300  0.62414200  0.62406500  1
  O  O66  1  0.25958100  0.39960200  0.50824300  1
  O  O67  1  0.25833100  0.53600300  0.25332200  1
  O  O68  1  0.54886300  0.62503800  0.50353900  1
  O  O69  1  0.14148300  0.55631000  0.13178700  1
  O  O70  1  0.94697800  0.26191600  0.72556100  1
  O  O71  1  0.45296900  0.99883800  0.25624600  1
  O  O72  1  0.05039800  0.88023900  0.99590700  1
  O  O73  1  0.24041900  0.39960200  0.00824300  1
  O  O74  1  0.10346800  0.68818200  0.87253900  1
  O  O75  1  0.05302200  0.73808400  0.27443900  1
  O  O76  1  0.75819800  0.81260600  0.12458500  1
  O  O77  1  0.64407000  0.69004900  0.87485500  1
  O  O78  1  0.35202600  0.00033700  0.36904600  1
  O  O79  1  0.13531500  0.68569800  0.37907700  1
  O  O80  1  0.14774300  0.37585800  0.87593500  1
  O  O81  1  0.63531500  0.31430200  0.12092300  1
  O  O82  1  0.35851700  0.55631000  0.63178700  1
  O  O83  1  0.95113700  0.62503800  0.00353900  1
  O  O84  1  0.63318300  0.81540900  0.12163600  1
  O  O85  1  0.55093700  0.36469600  0.02284200  1
  O  O86  1  0.25765900  0.97381500  0.24388700  1
  O  O87  1  0.86468500  0.31430200  0.62092300  1
loop_
_geom_bond_atom_site_label_1
_geom_bond_atom_site_label_2
_geom_bond_distance
_geom_bond_site_symmetry_2
Ca0 O7 2.347058 1_556
Ca0 O17 2.360362 1_555
Ca0 O21 2.377843 1_555
Ca0 O77 2.383278 1_555
Ca0 O81 2.420765 1_556
Ca0 O11 2.433072 1_555
Ca1 O62 2.321719 1_545
Ca1 O16 2.344986 1_555
Ca1 O25 2.389817 1_545
Ca1 O2 2.410687 1_555
Ca1 O58 2.529929 1_555
Ca1 O66 2.721620 1_555
Ca1 O60 2.764635 1_545
Ca2 O29 2.336248 1_565
Ca2 O45 2.343060 1_555
Ca2 O68 2.372439 1_555
Ca2 O71 2.534239 1_555
Ca2 O31 2.538477 1_565
Ca2 O46 2.557655 1_555
Ca2 O28 2.589158 1_555
Ca3 O53 2.347058 1_555
Ca3 O37 2.360362 1_555
Ca3 O39 2.377843 1_555
Ca3 O52 2.383278 1_555
Ca3 O87 2.420765 1_555
Ca3 O5 2.433072 1_555
Ca4 O82 2.321023 1_555
Ca4 O28 2.390811 1_555
Ca4 O13 2.416714 1_555
Ca4 O43 2.504964 1_555
Ca4 O23 2.517948 1_555
Ca4 O33 2.544291 1_555
Ca4 O68 2.559779 1_555
Ca5 O37 2.297783 1_555
Ca5 O27 2.408266 1_555
Ca5 O38 2.422294 1_555
Ca5 O50 2.506095 1_655
Ca5 O26 2.514424 1_555
Ca5 O36 2.529427 1_545
Ca5 O0 2.529839 1_655
Ca6 O69 2.351409 1_555
Ca6 O67 2.351448 1_555
Ca6 O9 2.372622 1_565
Ca6 O86 2.375206 1_555
Ca6 O79 2.439431 1_555
Ca6 O14 2.449537 1_554
Ca7 O1 2.327490 1_555
Ca7 O64 2.355057 1_555
Ca7 O71 2.366975 1_545
Ca7 O49 2.519886 1_554
Ca7 O40 2.535779 1_554
Ca7 O85 2.556780 1_555
Ca7 O31 2.567951 1_555
Ca8 O42 2.351409 1_555
Ca8 O11 2.351448 1_555
Ca8 O20 2.372622 1_545
Ca8 O18 2.375206 1_555
Ca8 O87 2.439431 1_555
Ca8 O7 2.449537 1_556
Ca9 O28 2.336248 1_545
Ca9 O41 2.343060 1_555
Ca9 O13 2.372439 1_555
Ca9 O54 2.534239 1_555
Ca9 O43 2.538477 1_545
Ca9 O33 2.557655 1_555
Ca9 O29 2.589158 1_555
Ca10 O77 2.327490 1_555
Ca10 O23 2.355057 1_555
Ca10 O54 2.366975 1_565
Ca10 O63 2.519886 1_556
Ca10 O85 2.535779 1_556
Ca10 O40 2.556780 1_555
Ca10 O43 2.567951 1_555
Ca11 O69 2.317002 1_555
Ca11 O9 2.331982 1_555
Ca11 O73 2.396452 1_555
Ca11 O2 2.419657 1_555
Ca11 O58 2.551796 1_555
Ca11 O86 2.724995 1_545
Ca11 O67 2.792430 1_555
Ca12 O69 2.321023 1_555
Ca12 O72 2.390811 1_554
Ca12 O10 2.416714 1_554
Ca12 O75 2.504964 1_555
Ca12 O38 2.517948 1_455
Ca12 O0 2.544291 1_555
Ca12 O83 2.559779 1_455
Ca13 O34 2.297783 1_555
Ca13 O71 2.408266 1_555
Ca13 O64 2.422294 1_555
Ca13 O63 2.506095 1_555
Ca13 O40 2.514424 1_554
Ca13 O49 2.529427 1_564
Ca13 O46 2.529839 1_555
Ca14 O44 2.336248 1_566
Ca14 O20 2.343060 1_555
Ca14 O83 2.372439 1_556
Ca14 O32 2.534239 1_655
Ca14 O70 2.538477 1_565
Ca14 O3 2.557655 1_555
Ca14 O72 2.589158 1_655
Ca15 O42 2.317002 1_555
Ca15 O20 2.331982 1_555
Ca15 O21 2.396452 1_555
Ca15 O57 2.419657 1_555
Ca15 O30 2.551796 1_555
Ca15 O18 2.724995 1_565
Ca15 O11 2.792430 1_555
Ca16 O52 2.327490 1_555
Ca16 O38 2.355057 1_555
Ca16 O27 2.366975 1_565
Ca16 O36 2.519886 1_555
Ca16 O26 2.535779 1_555
Ca16 O48 2.556780 1_655
Ca16 O75 2.567951 1_655
Ca17 O34 2.321719 1_545
Ca17 O1 2.344986 1_555
Ca17 O86 2.389817 1_545
Ca17 O24 2.410687 1_554
Ca17 O61 2.529929 1_554
Ca17 O73 2.721620 1_555
Ca17 O14 2.764635 1_544
Ca18 O55 2.321023 1_555
Ca18 O29 2.390811 1_555
Ca18 O68 2.416714 1_555
Ca18 O31 2.504964 1_555
Ca18 O64 2.517948 1_555
Ca18 O46 2.544291 1_555
Ca18 O13 2.559779 1_555
Ca19 O60 2.347058 1_555
Ca19 O62 2.360362 1_555
Ca19 O66 2.377843 1_555
Ca19 O16 2.383278 1_555
Ca19 O79 2.420765 1_555
Ca19 O47 2.433072 1_555
Ca20 O72 2.336248 1_544
Ca20 O9 2.343060 1_555
Ca20 O10 2.372439 1_554
Ca20 O27 2.534239 1_455
Ca20 O75 2.538477 1_545
Ca20 O0 2.557655 1_555
Ca20 O44 2.589158 1_455
Ca21 O82 2.317002 1_555
Ca21 O41 2.331982 1_555
Ca21 O66 2.396452 1_555
Ca21 O24 2.419657 1_555
Ca21 O61 2.551796 1_555
Ca21 O25 2.724995 1_545
Ca21 O47 2.792430 1_555
Ca22 O16 2.327490 1_555
Ca22 O35 2.355057 1_555
Ca22 O32 2.366975 1_545
Ca22 O50 2.519886 1_555
Ca22 O48 2.535779 1_555
Ca22 O26 2.556780 1_455
Ca22 O70 2.567951 1_455
Ca23 O62 2.297783 1_555
Ca23 O32 2.408266 1_555
Ca23 O35 2.422294 1_555
Ca23 O36 2.506095 1_455
Ca23 O48 2.514424 1_555
Ca23 O50 2.529427 1_565
Ca23 O3 2.529839 1_455
Ca24 O17 2.321719 1_565
Ca24 O77 2.344986 1_555
Ca24 O18 2.389817 1_565
Ca24 O84 2.410687 1_556
Ca24 O76 2.529929 1_556
Ca24 O21 2.721620 1_555
Ca24 O7 2.764635 1_566
Ca25 O55 2.351409 1_555
Ca25 O5 2.351448 1_555
Ca25 O45 2.372622 1_545
Ca25 O6 2.375206 1_555
Ca25 O81 2.439431 1_555
Ca25 O53 2.449537 1_555
Ca26 O17 2.297783 1_555
Ca26 O54 2.408266 1_555
Ca26 O23 2.422294 1_555
Ca26 O49 2.506095 1_555
Ca26 O85 2.514424 1_556
Ca26 O63 2.529427 1_546
Ca26 O33 2.529839 1_555
Ca27 O42 2.321023 1_555
Ca27 O44 2.390811 1_556
Ca27 O83 2.416714 1_556
Ca27 O70 2.504964 1_555
Ca27 O35 2.517948 1_655
Ca27 O3 2.544291 1_555
Ca27 O10 2.559779 1_655
Ca28 O55 2.317002 1_555
Ca28 O45 2.331982 1_555
Ca28 O39 2.396452 1_555
Ca28 O84 2.419657 1_555
Ca28 O76 2.551796 1_555
Ca28 O6 2.724995 1_565
Ca28 O5 2.792430 1_555
Ca29 O14 2.347058 1_554
Ca29 O34 2.360362 1_555
Ca29 O73 2.377843 1_555
Ca29 O1 2.383278 1_555
Ca29 O15 2.420765 1_554
Ca29 O67 2.433072 1_555
Ca30 O37 2.321719 1_565
Ca30 O52 2.344986 1_555
Ca30 O6 2.389817 1_565
Ca30 O57 2.410687 1_555
Ca30 O30 2.529929 1_555
Ca30 O39 2.721620 1_555
Ca30 O53 2.764635 1_565
Ca31 O82 2.351409 1_555
Ca31 O47 2.351448 1_555
Ca31 O41 2.372622 1_565
Ca31 O25 2.375206 1_555
Ca31 O15 2.439431 1_555
Ca31 O60 2.449537 1_555
H0 O20 0.977454 1_555
H1 O55 0.977192 1_555
H2 O45 0.977454 1_555
H3 O69 0.977192 1_555
H4 O42 0.977192 1_555
H5 O77 0.977974 1_555
H6 O16 0.977974 1_555
H7 O82 0.977192 1_555
H8 O1 0.977974 1_555
H9 O41 0.977454 1_555
H10 O17 0.977591 1_555
H11 O62 0.977591 1_555
H12 O52 0.977974 1_555
H13 O9 0.977454 1_555
H14 O34 0.977591 1_555
H15 O37 0.977591 1_555
C0 O79 1.283842 1_555
C0 O75 1.306876 1_555
C0 O48 1.315790 1_555
C1 O84 1.283311 1_555
C1 O46 1.304704 1_555
C1 O63 1.315605 1_555
C2 O24 1.283311 1_555
C2 O33 1.304704 1_555
C2 O49 1.315605 1_555
C3 O81 1.283842 1_555
C3 O31 1.306876 1_555
C3 O85 1.315790 1_555
C4 O57 1.283311 1_555
C4 O3 1.304704 1_555
C4 O36 1.315605 1_555
C5 O87 1.283842 1_555
C5 O70 1.306876 1_555
C5 O26 1.315790 1_555
C6 O2 1.283311 1_555
C6 O0 1.304704 1_555
C6 O50 1.315605 1_555
C7 O15 1.283842 1_555
C7 O43 1.306876 1_555
C7 O40 1.315790 1_555
O4 Si8 1.645224 1_555
O4 Si12 1.658318 1_555
O5 Si5 1.614791 1_555
O6 Si7 1.621008 1_555
O7 Si7 1.615138 1_555
O8 Si9 1.644870 1_565
O8 Si11 1.657350 1_565
O10 Si15 1.621493 1_555
O11 Si10 1.614791 1_555
O12 Si14 1.661252 1_555
O12 Si8 1.661337 1_555
O13 Si8 1.621493 1_555
O14 Si4 1.615138 1_555
O18 Si11 1.621008 1_555
O19 Si0 1.644870 1_565
O19 Si7 1.657350 1_565
O21 Si5 1.621602 1_556
O22 Si0 1.661252 1_555
O22 Si13 1.661337 1_555
O23 Si1 1.631755 1_555
O25 Si4 1.621008 1_555
O27 Si0 1.630245 1_555
O28 Si14 1.620404 1_555
O29 Si9 1.620404 1_555
O30 Si10 1.683668 1_555
O30 Si11 1.683934 1_565
O32 Si2 1.630245 1_555
O35 Si15 1.631755 1_555
O38 Si13 1.631755 1_555
O39 Si10 1.621602 1_555
O44 Si0 1.620404 1_555
O47 Si3 1.614791 1_555
O51 Si13 1.645224 1_555
O51 Si5 1.658318 1_555
O53 Si11 1.615138 1_555
O54 Si9 1.630245 1_555
O56 Si9 1.661252 1_555
O56 Si1 1.661337 1_555
O58 Si12 1.683668 1_555
O58 Si6 1.683934 1_545
O59 Si2 1.644870 1_545
O59 Si4 1.657350 1_545
O60 Si6 1.615138 1_555
O61 Si3 1.683668 1_555
O61 Si4 1.683934 1_545
O64 Si8 1.631755 1_555
O65 Si1 1.645224 1_555
O65 Si10 1.658318 1_555
O66 Si12 1.621602 1_555
O67 Si12 1.614791 1_555
O68 Si1 1.621493 1_555
O71 Si14 1.630245 1_555
O72 Si2 1.620404 1_555
O73 Si3 1.621602 1_554
O74 Si2 1.661252 1_555
O74 Si15 1.661337 1_555
O76 Si5 1.683668 1_555
O76 Si7 1.683934 1_565
O78 Si14 1.644870 1_545
O78 Si6 1.657350 1_545
O80 Si15 1.645224 1_555
O80 Si3 1.658318 1_555
O83 Si13 1.621493 1_555
O86 Si6 1.621008 1_555
