# generated using pymatgen
data_FeH4(CO3)2
_symmetry_space_group_name_H-M   'P 1'
_cell_length_a   6.90208182
_cell_length_b   10.57043513
_cell_length_c   8.14319807
_cell_angle_alpha   105.61370145
_cell_angle_beta   99.05745127
_cell_angle_gamma   102.34751391
_symmetry_Int_Tables_number   1
_chemical_formula_structural   FeH4(CO3)2
_chemical_formula_sum   'Fe4 H16 C8 O24'
_cell_volume   544.16419035
_cell_formula_units_Z   4
loop_
 _symmetry_equiv_pos_site_id
 _symmetry_equiv_pos_as_xyz
  1  'x, y, z'
loop_
 _atom_site_type_symbol
 _atom_site_label
 _atom_site_symmetry_multiplicity
 _atom_site_fract_x
 _atom_site_fract_y
 _atom_site_fract_z
 _atom_site_occupancy
  Fe  Fe0  1  0.54078800  0.29146100  0.75003400  1
  Fe  Fe1  1  0.45869000  0.70844700  0.24999300  1
  Fe  Fe2  1  0.04183100  0.79130500  0.74982500  1
  Fe  Fe3  1  0.95868400  0.20852600  0.24995200  1
  H  H0  1  0.41490800  0.74945800  0.85604500  1
  H  H1  1  0.91369600  0.24993100  0.85660400  1
  H  H2  1  0.23926700  0.40367400  0.64360700  1
  H  H3  1  0.73882500  0.90396900  0.64375400  1
  H  H4  1  0.58645000  0.25050300  0.14431400  1
  H  H5  1  0.08533200  0.75014700  0.14321900  1
  H  H6  1  0.76131500  0.59599000  0.35687000  1
  H  H7  1  0.26039900  0.09646200  0.35568400  1
  H  H8  1  0.33846900  0.67438600  0.64567100  1
  H  H9  1  0.83848800  0.17481200  0.64613000  1
  H  H10  1  0.26935200  0.43380700  0.85416700  1
  H  H11  1  0.77009600  0.93349900  0.85418200  1
  H  H12  1  0.66055300  0.32598200  0.35464800  1
  H  H13  1  0.16190600  0.82497500  0.35367300  1
  H  H14  1  0.73028600  0.56653800  0.14635700  1
  H  H15  1  0.23080800  0.06581600  0.14517300  1
  C  C0  1  0.81669900  0.56783900  0.85242000  1
  C  C1  1  0.31721300  0.06728400  0.85188500  1
  C  C2  1  0.76642400  0.51647900  0.64809200  1
  C  C3  1  0.26700800  0.01601000  0.64746100  1
  C  C4  1  0.18329600  0.43231200  0.14779500  1
  C  C5  1  0.68314600  0.93251900  0.14794700  1
  C  C6  1  0.23326300  0.48376400  0.35218500  1
  C  C7  1  0.73288500  0.98396000  0.35229200  1
  O  O0  1  0.93524100  0.68633100  0.92767800  1
  O  O1  1  0.43482300  0.18597100  0.92755000  1
  O  O2  1  0.84772400  0.59703400  0.57260900  1
  O  O3  1  0.34801800  0.09673900  0.57200300  1
  O  O4  1  0.06541500  0.31364100  0.07236100  1
  O  O5  1  0.56491000  0.81401400  0.07249000  1
  O  O6  1  0.15156900  0.40327500  0.42762100  1
  O  O7  1  0.65217700  0.90313200  0.42770000  1
  O  O8  1  0.73509700  0.48760200  0.92870600  1
  O  O9  1  0.23620500  0.98661700  0.92795700  1
  O  O10  1  0.64819200  0.39760700  0.57185600  1
  O  O11  1  0.14901800  0.89708100  0.57124200  1
  O  O12  1  0.26447500  0.51277600  0.07156200  1
  O  O13  1  0.76490500  0.01281300  0.07180000  1
  O  O14  1  0.35173300  0.60254400  0.42837100  1
  O  O15  1  0.85032300  0.10311400  0.42847800  1
  O  O16  1  0.29436100  0.70652300  0.75648300  1
  O  O17  1  0.79371500  0.20734900  0.75646200  1
  O  O18  1  0.28470600  0.37224400  0.74374600  1
  O  O19  1  0.78527100  0.87229600  0.74342500  1
  O  O20  1  0.70609600  0.29360000  0.24462400  1
  O  O21  1  0.20587600  0.79255900  0.24286700  1
  O  O22  1  0.71529800  0.62778800  0.25722400  1
  O  O23  1  0.21477700  0.12749200  0.25520800  1
loop_
_geom_bond_atom_site_label_1
_geom_bond_atom_site_label_2
_geom_bond_distance
_geom_bond_site_symmetry_2
Fe0 O18 2.120466 1_555
Fe0 O17 2.121528 1_555
Fe0 O1 2.172483 1_555
Fe0 O3 2.173421 1_555
Fe0 O10 2.184704 1_555
Fe0 O8 2.187860 1_555
Fe1 O21 2.120873 1_555
Fe1 O22 2.123043 1_555
Fe1 O5 2.173481 1_555
Fe1 O7 2.173855 1_555
Fe1 O14 2.183477 1_555
Fe1 O12 2.183881 1_555
Fe2 O16 2.123329 1_555
Fe2 O19 2.124780 1_455
Fe2 O2 2.171140 1_455
Fe2 O0 2.172894 1_455
Fe2 O9 2.181039 1_555
Fe2 O11 2.184606 1_555
Fe3 O23 2.122098 1_655
Fe3 O20 2.125475 1_555
Fe3 O4 2.172312 1_655
Fe3 O6 2.172916 1_655
Fe3 O13 2.182531 1_555
Fe3 O15 2.184556 1_555
H0 O16 0.991769 1_555
H1 O17 0.991846 1_555
H2 O18 0.991752 1_555
H3 O19 0.991904 1_555
H3 O7 1.763860 1_555
H4 O20 0.991531 1_555
H5 O21 0.991845 1_555
H5 O0 1.760744 1_454
H6 O22 0.991773 1_555
H6 O2 1.760410 1_555
H7 O23 0.991817 1_555
H8 O16 0.994010 1_555
H8 O14 1.753182 1_555
H9 O17 0.993752 1_555
H9 O15 1.752536 1_555
H10 O18 0.993853 1_555
H10 O12 1.751333 1_556
H11 O19 0.993775 1_555
H11 O13 1.754313 1_566
H12 O20 0.994133 1_555
H12 O10 1.750230 1_555
H13 O21 0.993955 1_555
H13 O11 1.754851 1_555
H14 O22 0.994160 1_555
H14 O8 1.752979 1_554
H15 O23 0.993863 1_555
H15 O9 1.751562 1_544
C0 O0 1.266665 1_555
C0 O8 1.269623 1_555
C1 O1 1.266256 1_555
C1 O9 1.270009 1_545
C2 O2 1.266390 1_555
C2 O10 1.269743 1_555
C3 O3 1.266795 1_555
C3 O11 1.269570 1_545
C4 O4 1.266572 1_555
C4 O12 1.269900 1_555
C5 O5 1.266199 1_555
C5 O13 1.269622 1_565
C6 O6 1.266640 1_555
C6 O14 1.269576 1_555
C7 O7 1.266461 1_555
C7 O15 1.269919 1_565
