# generated using pymatgen
data_CdI2
_symmetry_space_group_name_H-M   'P 1'
_cell_length_a   4.34447773
_cell_length_b   4.34447773
_cell_length_c   110.42495800
_cell_angle_alpha   90.00000000
_cell_angle_beta   90.00000000
_cell_angle_gamma   119.99999586
_symmetry_Int_Tables_number   1
_chemical_formula_structural   CdI2
_chemical_formula_sum   'Cd15 I30'
_cell_volume   1804.98269637
_cell_formula_units_Z   15
loop_
 _symmetry_equiv_pos_site_id
 _symmetry_equiv_pos_as_xyz
  1  'x, y, z'
loop_
 _atom_site_type_symbol
 _atom_site_label
 _atom_site_symmetry_multiplicity
 _atom_site_fract_x
 _atom_site_fract_y
 _atom_site_fract_z
 _atom_site_occupancy
  Cd  Cd0  1  0.33333300  0.66666700  0.21667600  1
  Cd  Cd1  1  0.33333300  0.66666700  0.81666900  1
  Cd  Cd2  1  0.00000000  0.00000000  0.48333900  1
  Cd  Cd3  1  0.33333300  0.66666700  0.01666600  1
  Cd  Cd4  1  0.33333300  0.66666700  0.35000400  1
  Cd  Cd5  1  0.33333300  0.66666700  0.61666500  1
  Cd  Cd6  1  0.33333300  0.66666700  0.88334100  1
  Cd  Cd7  1  0.00000000  0.00000000  0.68331600  1
  Cd  Cd8  1  0.33333300  0.66666700  0.55001200  1
  Cd  Cd9  1  0.33333300  0.66666700  0.41665800  1
  Cd  Cd10  1  0.00000000  0.00000000  0.08332100  1
  Cd  Cd11  1  0.00000000  0.00000000  0.28333200  1
  Cd  Cd12  1  0.33333300  0.66666700  0.14999500  1
  Cd  Cd13  1  0.00000000  0.00000000  0.94999300  1
  Cd  Cd14  1  0.33333300  0.66666700  0.74999200  1
  I  I0  1  0.00000000  0.00000000  0.73432900  1
  I  I1  1  0.66666700  0.33333300  0.43231900  1
  I  I2  1  0.00000000  0.00000000  0.20101500  1
  I  I3  1  0.33333300  0.66666700  0.66764900  1
  I  I4  1  0.33333300  0.66666700  0.26766100  1
  I  I5  1  0.66666700  0.33333300  0.56567600  1
  I  I6  1  0.00000000  0.00000000  0.86768200  1
  I  I7  1  0.66666700  0.33333300  0.23234000  1
  I  I8  1  0.00000000  0.00000000  0.53434900  1
  I  I9  1  0.66666700  0.33333300  0.89900700  1
  I  I10  1  0.00000000  0.00000000  0.60100800  1
  I  I11  1  0.66666700  0.33333300  0.96566000  1
  I  I12  1  0.66666700  0.33333300  0.69898200  1
  I  I13  1  0.00000000  0.00000000  0.40099800  1
  I  I14  1  0.00000000  0.00000000  0.80101300  1
  I  I15  1  0.66666700  0.33333300  0.76565300  1
  I  I16  1  0.33333300  0.66666700  0.06766200  1
  I  I17  1  0.33333300  0.66666700  0.46767400  1
  I  I18  1  0.66666700  0.33333300  0.09899000  1
  I  I19  1  0.66666700  0.33333300  0.63233000  1
  I  I20  1  0.66666700  0.33333300  0.29899600  1
  I  I21  1  0.00000000  0.00000000  0.00101000  1
  I  I22  1  0.00000000  0.00000000  0.13434100  1
  I  I23  1  0.66666700  0.33333300  0.83233700  1
  I  I24  1  0.66666700  0.33333300  0.36566700  1
  I  I25  1  0.66666700  0.33333300  0.03233100  1
  I  I26  1  0.00000000  0.00000000  0.33434300  1
  I  I27  1  0.66666700  0.33333300  0.49900600  1
  I  I28  1  0.33333300  0.66666700  0.93432400  1
  I  I29  1  0.66666700  0.33333300  0.16566500  1
loop_
_geom_bond_atom_site_label_1
_geom_bond_atom_site_label_2
_geom_bond_distance
_geom_bond_site_symmetry_2
Cd0 I2 3.046668 1_565
Cd0 I2 3.046671 1_665
Cd0 I2 3.046671 1_555
Cd0 I7 3.046856 1_455
Cd0 I7 3.046856 1_565
Cd0 I7 3.046862 1_555
Cd1 I14 3.046355 1_565
Cd1 I14 3.046358 1_555
Cd1 I14 3.046358 1_665
Cd1 I23 3.047107 1_455
Cd1 I23 3.047107 1_565
Cd1 I23 3.047113 1_555
Cd2 I17 3.046919 1_545
Cd2 I17 3.046922 1_445
Cd2 I17 3.046922 1_555
Cd2 I27 3.047044 1_455
Cd2 I27 3.047048 1_445
Cd2 I27 3.047048 1_555
Cd3 I21 3.046355 1_565
Cd3 I21 3.046358 1_555
Cd3 I21 3.046358 1_665
Cd3 I25 3.046919 1_455
Cd3 I25 3.046919 1_565
Cd3 I25 3.046925 1_555
Cd4 I26 3.046668 1_565
Cd4 I26 3.046671 1_665
Cd4 I26 3.046671 1_555
Cd4 I24 3.046794 1_455
Cd4 I24 3.046794 1_565
Cd4 I24 3.046800 1_555
Cd5 I10 3.046417 1_565
Cd5 I10 3.046421 1_555
Cd5 I10 3.046421 1_665
Cd5 I19 3.046919 1_455
Cd5 I19 3.046919 1_565
Cd5 I19 3.046925 1_555
Cd6 I6 3.046543 1_565
Cd6 I6 3.046546 1_665
Cd6 I6 3.046546 1_555
Cd6 I9 3.046982 1_455
Cd6 I9 3.046982 1_565
Cd6 I9 3.046988 1_555
Cd7 I12 3.046982 1_455
Cd7 I12 3.046985 1_445
Cd7 I12 3.046985 1_555
Cd7 I3 3.047044 1_545
Cd7 I3 3.047048 1_445
Cd7 I3 3.047048 1_555
Cd8 I8 3.046794 1_565
Cd8 I8 3.046797 1_555
Cd8 I8 3.046797 1_665
Cd8 I5 3.046856 1_455
Cd8 I5 3.046856 1_565
Cd8 I5 3.046862 1_555
Cd9 I13 3.046605 1_565
Cd9 I13 3.046609 1_555
Cd9 I13 3.046609 1_665
Cd9 I1 3.046668 1_455
Cd9 I1 3.046668 1_565
Cd9 I1 3.046674 1_555
Cd10 I16 3.046543 1_545
Cd10 I16 3.046546 1_555
Cd10 I16 3.046546 1_445
Cd10 I18 3.047170 1_455
Cd10 I18 3.047173 1_445
Cd10 I18 3.047173 1_555
Cd11 I20 3.046856 1_455
Cd11 I20 3.046859 1_445
Cd11 I20 3.046859 1_555
Cd11 I4 3.047295 1_545
Cd11 I4 3.047298 1_445
Cd11 I4 3.047298 1_555
Cd12 I22 3.046229 1_565
Cd12 I22 3.046233 1_665
Cd12 I22 3.046233 1_555
Cd12 I29 3.047233 1_455
Cd12 I29 3.047233 1_565
Cd12 I29 3.047239 1_555
Cd13 I11 3.047044 1_455
Cd13 I11 3.047048 1_445
Cd13 I11 3.047048 1_555
Cd13 I28 3.047170 1_545
Cd13 I28 3.047173 1_445
Cd13 I28 3.047173 1_555
Cd14 I15 3.046668 1_455
Cd14 I15 3.046668 1_565
Cd14 I15 3.046674 1_555
Cd14 I0 3.046794 1_565
Cd14 I0 3.046797 1_555
Cd14 I0 3.046797 1_665
