# generated using pymatgen
data_Na3(TiS2)10
_symmetry_space_group_name_H-M   'P 1'
_cell_length_a   9.08019762
_cell_length_b   9.08019762
_cell_length_c   13.03789869
_cell_angle_alpha   87.17728714
_cell_angle_beta   87.17728714
_cell_angle_gamma   141.74259724
_symmetry_Int_Tables_number   1
_chemical_formula_structural   Na3(TiS2)10
_chemical_formula_sum   'Na3 Ti10 S20'
_cell_volume   658.06013182
_cell_formula_units_Z   1
loop_
 _symmetry_equiv_pos_site_id
 _symmetry_equiv_pos_as_xyz
  1  'x, y, z'
loop_
 _atom_site_type_symbol
 _atom_site_label
 _atom_site_symmetry_multiplicity
 _atom_site_fract_x
 _atom_site_fract_y
 _atom_site_fract_z
 _atom_site_occupancy
  Na  Na0  1  0.28057293  0.28057293  0.99895685  1
  Na  Na1  1  0.11111972  0.73077384  0.00171212  1
  Na  Na2  1  0.73077384  0.11111972  0.00171212  1
  Ti  Ti0  1  0.57572448  0.77417885  0.27291401  1
  Ti  Ti1  1  0.17877139  0.17877139  0.27513275  1
  Ti  Ti2  1  0.02314735  0.02314735  0.72747020  1
  Ti  Ti3  1  0.77417885  0.57572448  0.27291401  1
  Ti  Ti4  1  0.62551484  0.42698434  0.72763010  1
  Ti  Ti5  1  0.37441806  0.97386463  0.27316748  1
  Ti  Ti6  1  0.22538031  0.82462904  0.72621209  1
  Ti  Ti7  1  0.97386463  0.37441806  0.27316748  1
  Ti  Ti8  1  0.82462904  0.22538031  0.72621209  1
  Ti  Ti9  1  0.42698434  0.62551484  0.72763010  1
  S  S0  1  0.94806351  0.14653191  0.16082601  1
  S  S1  1  0.79344639  0.99354523  0.62028607  1
  S  S2  1  0.54765777  0.54765777  0.16100829  1
  S  S3  1  0.39299273  0.39299273  0.62054205  1
  S  S4  1  0.14653191  0.94806351  0.16082601  1
  S  S5  1  0.99354523  0.79344639  0.62028607  1
  S  S6  1  0.74375634  0.34373386  0.15934194  1
  S  S7  1  0.80651651  0.80651651  0.38057081  1
  S  S8  1  0.59364439  0.19407053  0.62018114  1
  S  S9  1  0.65728698  0.65728698  0.84006428  1
  S  S10  1  0.34373386  0.74375634  0.15934194  1
  S  S11  1  0.40772148  0.20672673  0.38060565  1
  S  S12  1  0.19407053  0.59364439  0.62018114  1
  S  S13  1  0.25490697  0.05507917  0.84001148  1
  S  S14  1  0.00690076  0.60707184  0.37969135  1
  S  S15  1  0.85294181  0.45232131  0.84054943  1
  S  S16  1  0.60707184  0.00690076  0.37969135  1
  S  S17  1  0.45232131  0.85294181  0.84054943  1
  S  S18  1  0.20672673  0.40772148  0.38060565  1
  S  S19  1  0.05507917  0.25490697  0.84001148  1
loop_
_geom_bond_atom_site_label_1
_geom_bond_atom_site_label_2
_geom_bond_distance
_geom_bond_site_symmetry_2
Na0 S9 2.814523 1_555
Na0 S2 2.828350 1_556
Na0 S13 2.873542 1_555
Na0 S19 2.873542 1_555
Na0 S0 2.898182 1_456
Na0 S4 2.898182 1_546
Na1 S4 2.787890 1_555
Na1 S13 2.810745 1_564
Na1 S6 2.811479 1_455
Na1 S15 2.829028 1_454
Na1 S10 2.959606 1_555
Na1 S17 2.996030 1_554
Na2 S0 2.787890 1_555
Na2 S19 2.810745 1_654
Na2 S10 2.811479 1_545
Na2 S17 2.829028 1_544
Na2 S6 2.959606 1_555
Na2 S15 2.996030 1_554
S0 Ti7 2.460283 1_555
S0 Ti0 2.464204 1_545
S0 Ti1 2.466294 1_655
S1 Ti8 2.409924 1_565
S1 Ti9 2.411620 1_555
S1 Ti2 2.412264 1_665
S2 Ti3 2.435836 1_555
S2 Ti0 2.435836 1_555
S2 Ti1 2.459942 1_555
S3 Ti9 2.410765 1_555
S3 Ti4 2.410765 1_555
S3 Ti2 2.421882 1_555
S4 Ti5 2.460283 1_555
S4 Ti3 2.464204 1_455
S4 Ti1 2.466294 1_565
S5 Ti6 2.409924 1_655
S5 Ti4 2.411620 1_555
S5 Ti2 2.412264 1_665
S6 Ti5 2.461541 1_545
S6 Ti7 2.465280 1_555
S6 Ti3 2.477895 1_555
S7 Ti0 2.410804 1_555
S7 Ti3 2.410804 1_555
S7 Ti1 2.425277 1_665
S8 Ti8 2.403908 1_555
S8 Ti6 2.411920 1_545
S8 Ti4 2.426863 1_555
S9 Ti2 2.436126 1_665
S9 Ti4 2.449756 1_555
S9 Ti9 2.449756 1_555
S10 Ti7 2.461541 1_455
S10 Ti5 2.465280 1_555
S10 Ti0 2.477895 1_555
S11 Ti1 2.400943 1_555
S11 Ti3 2.416041 1_555
S11 Ti5 2.419440 1_545
S12 Ti6 2.403908 1_555
S12 Ti8 2.411920 1_455
S12 Ti9 2.426863 1_555
S13 Ti2 2.460368 1_555
S13 Ti4 2.460739 1_555
S13 Ti6 2.473024 1_545
S14 Ti5 2.406415 1_555
S14 Ti7 2.411742 1_455
S14 Ti3 2.422541 1_455
S15 Ti8 2.458252 1_555
S15 Ti4 2.464066 1_555
S15 Ti6 2.477900 1_655
S16 Ti7 2.406415 1_555
S16 Ti5 2.411742 1_545
S16 Ti0 2.422541 1_545
S17 Ti6 2.458252 1_555
S17 Ti9 2.464066 1_555
S17 Ti8 2.477900 1_565
S18 Ti1 2.400943 1_555
S18 Ti0 2.416041 1_555
S18 Ti7 2.419440 1_455
S19 Ti2 2.460368 1_555
S19 Ti9 2.460739 1_555
S19 Ti8 2.473024 1_455
