# generated using pymatgen
data_CsPbBr3
_symmetry_space_group_name_H-M   'P 1'
_cell_length_a   5.94863632
_cell_length_b   5.94862291
_cell_length_c   5.94863323
_cell_angle_alpha   89.99992044
_cell_angle_beta   90.00002976
_cell_angle_gamma   90.00013908
_symmetry_Int_Tables_number   1
_chemical_formula_structural   CsPbBr3
_chemical_formula_sum   'Cs1 Pb1 Br3'
_cell_volume   210.49949127
_cell_formula_units_Z   1
loop_
 _symmetry_equiv_pos_site_id
 _symmetry_equiv_pos_as_xyz
  1  'x, y, z'
loop_
 _atom_site_type_symbol
 _atom_site_label
 _atom_site_symmetry_multiplicity
 _atom_site_fract_x
 _atom_site_fract_y
 _atom_site_fract_z
 _atom_site_occupancy
  Cs  Cs0  1  0.00000000  0.00000000  0.00000000  1
  Pb  Pb0  1  0.49999900  0.50000000  0.50000000  1
  Br  Br0  1  0.50000000  0.50000000  0.00000000  1
  Br  Br1  1  0.50000000  -0.00000000  0.50000000  1
  Br  Br2  1  -0.00000000  0.50000000  0.50000000  1
loop_
_geom_bond_atom_site_label_1
_geom_bond_atom_site_label_2
_geom_bond_distance
_geom_bond_site_symmetry_2
Br0 Pb0 2.974317 1_554
Br0 Pb0 2.974317 1_555
Br0 Cs0 4.206311 1_555
Br0 Cs0 4.206311 1_665
Br0 Cs0 4.206321 1_565
Br0 Cs0 4.206321 1_655
Br1 Pb0 2.974311 1_545
Br1 Pb0 2.974311 1_555
Br1 Cs0 4.206319 1_656
Br1 Cs0 4.206319 1_555
Br1 Cs0 4.206321 1_655
Br1 Cs0 4.206321 1_556
Br2 Pb0 2.974312 1_555
Br2 Pb0 2.974324 1_455
Br2 Cs0 4.206312 1_556
Br2 Cs0 4.206312 1_565
Br2 Cs0 4.206318 1_566
Br2 Cs0 4.206318 1_555
