# generated using pymatgen
data_CaP4(HO6)2
_symmetry_space_group_name_H-M   'P 1'
_cell_length_a   9.67555840
_cell_length_b   5.69415395
_cell_length_c   8.83838127
_cell_angle_alpha   87.58909010
_cell_angle_beta   90.00000000
_cell_angle_gamma   90.00000000
_symmetry_Int_Tables_number   1
_chemical_formula_structural   CaP4(HO6)2
_chemical_formula_sum   'Ca2 P8 H4 O24'
_cell_volume   486.51180694
_cell_formula_units_Z   2
loop_
 _symmetry_equiv_pos_site_id
 _symmetry_equiv_pos_as_xyz
  1  'x, y, z'
loop_
 _atom_site_type_symbol
 _atom_site_label
 _atom_site_symmetry_multiplicity
 _atom_site_fract_x
 _atom_site_fract_y
 _atom_site_fract_z
 _atom_site_occupancy
  Ca  Ca0  1  0.50000000  -0.00000000  0.50000000  1
  Ca  Ca1  1  0.00000000  -0.00000000  -0.00000000  1
  P  P0  1  0.71221517  0.28675627  0.19807972  1
  P  P1  1  0.21221517  0.71324373  0.30192028  1
  P  P2  1  0.28778483  0.71324373  0.80192028  1
  P  P3  1  0.78778483  0.28675627  0.69807972  1
  P  P4  1  0.72202845  0.61305276  0.93869630  1
  P  P5  1  0.22202845  0.38694724  0.56130370  1
  P  P6  1  0.27797155  0.38694724  0.06130370  1
  P  P7  1  0.77797155  0.61305276  0.43869630  1
  H  H0  1  0.04194463  0.19330682  0.67033622  1
  H  H1  1  0.54194463  0.80669318  0.82966378  1
  H  H2  1  0.95805537  0.80669318  0.32966378  1
  H  H3  1  0.45805537  0.19330682  0.17033622  1
  O  O0  1  0.69374849  0.13689161  0.61458016  1
  O  O1  1  0.19374849  0.86310839  0.88541984  1
  O  O2  1  0.30625151  0.86310839  0.38541984  1
  O  O3  1  0.80625151  0.13689161  0.11458016  1
  O  O4  1  0.91510735  0.18694489  0.77159339  1
  O  O5  1  0.41510735  0.81305511  0.72840661  1
  O  O6  1  0.08489265  0.81305511  0.22840661  1
  O  O7  1  0.58489265  0.18694489  0.27159339  1
  O  O8  1  0.69622143  0.41831211  0.81920561  1
  O  O9  1  0.19622143  0.58168789  0.68079439  1
  O  O10  1  0.30377857  0.58168789  0.18079439  1
  O  O11  1  0.80377857  0.41831211  0.31920561  1
  O  O12  1  0.34436379  0.50050309  0.91119769  1
  O  O13  1  0.84436379  0.49949691  0.58880231  1
  O  O14  1  0.65563621  0.49949691  0.08880231  1
  O  O15  1  0.15563621  0.50050309  0.41119769  1
  O  O16  1  0.62789604  0.81944693  0.89560725  1
  O  O17  1  0.12789604  0.18055307  0.60439275  1
  O  O18  1  0.37210396  0.18055307  0.10439275  1
  O  O19  1  0.87210396  0.81944693  0.39560725  1
  O  O20  1  0.86820477  0.67215564  0.95672025  1
  O  O21  1  0.36820477  0.32784436  0.54327975  1
  O  O22  1  0.13179523  0.32784436  0.04327975  1
  O  O23  1  0.63179523  0.67215564  0.45672025  1
loop_
_geom_bond_atom_site_label_1
_geom_bond_atom_site_label_2
_geom_bond_distance
_geom_bond_site_symmetry_2
Ca0 O2 2.283373 1_545
Ca0 O0 2.283373 1_555
Ca0 O21 2.305959 1_555
Ca0 O23 2.305959 1_545
Ca0 O5 2.387960 1_545
Ca0 O7 2.387960 1_555
Ca1 O3 2.283373 1_455
Ca1 O1 2.283373 1_544
Ca1 O20 2.305959 1_444
Ca1 O22 2.305959 1_555
Ca1 O4 2.387960 1_454
Ca1 O6 2.387960 1_545
H0 O17 1.019870 1_555
H0 O4 1.518418 1_455
H1 O16 1.019870 1_555
H1 O5 1.518418 1_555
H2 O19 1.019870 1_555
H2 O6 1.518418 1_655
H3 O18 1.019870 1_555
H3 O7 1.518418 1_555
O0 P3 1.467540 1_555
O1 P2 1.467540 1_555
O2 P1 1.467540 1_555
O3 P0 1.467540 1_555
O4 P3 1.493897 1_555
O5 P2 1.493897 1_555
O6 P1 1.493897 1_555
O7 P0 1.493897 1_555
O8 P4 1.582989 1_555
O8 P3 1.599868 1_555
O9 P5 1.582989 1_555
O9 P2 1.599868 1_555
O10 P6 1.582989 1_555
O10 P1 1.599868 1_555
O11 P7 1.582989 1_555
O11 P0 1.599868 1_555
O12 P6 1.587040 1_556
O12 P2 1.612924 1_555
O13 P7 1.587040 1_555
O13 P3 1.612924 1_555
O14 P4 1.587040 1_554
O14 P0 1.612924 1_555
O15 P5 1.587040 1_555
O15 P1 1.612924 1_555
O16 P4 1.522530 1_555
O17 P5 1.522530 1_555
O18 P6 1.522530 1_555
O19 P7 1.522530 1_555
O20 P4 1.464069 1_555
O21 P5 1.464069 1_555
O22 P6 1.464069 1_555
O23 P7 1.464069 1_555
