# generated using pymatgen
data_Zr3S4
_symmetry_space_group_name_H-M   'P 1'
_cell_length_a   30.65101308
_cell_length_b   30.65101308
_cell_length_c   6.36999536
_cell_angle_alpha   89.39923229
_cell_angle_beta   89.39923229
_cell_angle_gamma   6.67389097
_symmetry_Int_Tables_number   1
_chemical_formula_structural   Zr3S4
_chemical_formula_sum   'Zr15 S20'
_cell_volume   695.47060660
_cell_formula_units_Z   5
loop_
 _symmetry_equiv_pos_site_id
 _symmetry_equiv_pos_as_xyz
  1  'x, y, z'
loop_
 _atom_site_type_symbol
 _atom_site_label
 _atom_site_symmetry_multiplicity
 _atom_site_fract_x
 _atom_site_fract_y
 _atom_site_fract_z
 _atom_site_occupancy
  Zr  Zr0  1  0.34996500  0.34996500  0.93494800  1
  Zr  Zr1  1  0.75050500  0.75050500  0.71810600  1
  Zr  Zr2  1  0.15044800  0.15044800  0.53918800  1
  Zr  Zr3  1  0.05034600  0.05034600  0.84673700  1
  Zr  Zr4  1  0.54995400  0.54995400  0.35328100  1
  Zr  Zr5  1  0.45004600  0.45004600  0.64671900  1
  Zr  Zr6  1  0.94965400  0.94965400  0.15326300  1
  Zr  Zr7  1  0.40067200  0.40067200  0.29702300  1
  Zr  Zr8  1  0.84955200  0.84955200  0.46081200  1
  Zr  Zr9  1  0.24949500  0.24949500  0.28189400  1
  Zr  Zr10  1  0.69997300  0.69997300  0.40838300  1
  Zr  Zr11  1  0.65003500  0.65003500  0.06505200  1
  Zr  Zr12  1  0.59932800  0.59932800  0.70297700  1
  Zr  Zr13  1  0.50000000  0.50000000  0.00000000  1
  Zr  Zr14  1  0.30002700  0.30002700  0.59161700  1
  S  S0  1  0.07650200  0.07650200  0.50472500  1
  S  S1  1  0.47551900  0.47551900  0.32654900  1
  S  S2  1  0.37595400  0.37595400  0.62257900  1
  S  S3  1  0.87589100  0.87589100  0.11087400  1
  S  S4  1  0.77792200  0.77792200  0.39096700  1
  S  S5  1  0.27354800  0.27354800  0.91548700  1
  S  S6  1  0.72645200  0.72645200  0.08451300  1
  S  S7  1  0.17729000  0.17729000  0.20551600  1
  S  S8  1  0.67465200  0.67465200  0.73107900  1
  S  S9  1  0.12410900  0.12410900  0.88912600  1
  S  S10  1  0.57540500  0.57540500  0.03091400  1
  S  S11  1  0.02382900  0.02382900  0.19046000  1
  S  S12  1  0.52448100  0.52448100  0.67345100  1
  S  S13  1  0.97617100  0.97617100  0.80954000  1
  S  S14  1  0.42459500  0.42459500  0.96908600  1
  S  S15  1  0.92349800  0.92349800  0.49527500  1
  S  S16  1  0.82271000  0.82271000  0.79448400  1
  S  S17  1  0.32534800  0.32534800  0.26892100  1
  S  S18  1  0.22207800  0.22207800  0.60903300  1
  S  S19  1  0.62404600  0.62404600  0.37742100  1
loop_
_geom_bond_atom_site_label_1
_geom_bond_atom_site_label_2
_geom_bond_distance
_geom_bond_site_symmetry_2
S0 Zr12 2.601220 1_455
S0 Zr12 2.601220 1_545
S0 Zr4 2.605049 1_545
S0 Zr4 2.605049 1_455
S0 Zr3 2.689859 1_555
S1 Zr13 2.550685 1_555
S1 Zr5 2.553990 1_555
S1 Zr6 2.635107 1_455
S1 Zr6 2.635107 1_545
S2 Zr0 2.534245 1_555
S2 Zr7 2.554007 1_555
S2 Zr8 2.624990 1_545
S2 Zr8 2.624990 1_455
S3 Zr7 2.631892 1_565
S3 Zr7 2.631892 1_655
S3 Zr0 2.644556 1_654
S3 Zr0 2.644556 1_564
S3 Zr8 2.737085 1_555
S4 Zr14 2.585168 1_655
S4 Zr14 2.585168 1_565
S4 Zr9 2.591856 1_565
S4 Zr9 2.591856 1_655
S4 Zr1 2.661639 1_555
S5 Zr1 2.605730 1_545
S5 Zr1 2.605730 1_455
S5 Zr14 2.609953 1_555
S5 Zr9 2.746309 1_556
S6 Zr9 2.605730 1_565
S6 Zr9 2.605730 1_655
S6 Zr10 2.609953 1_555
S6 Zr1 2.746309 1_554
S7 Zr11 2.607128 1_455
S7 Zr11 2.607128 1_545
S7 Zr10 2.611074 1_455
S7 Zr10 2.611074 1_545
S7 Zr2 2.672594 1_555
S8 Zr10 2.561194 1_555
S8 Zr11 2.593861 1_556
S8 Zr2 2.628562 1_565
S8 Zr2 2.628562 1_655
S9 Zr12 2.631892 1_545
S9 Zr12 2.631892 1_455
S9 Zr11 2.644556 1_546
S9 Zr11 2.644556 1_456
S9 Zr2 2.737085 1_555
S10 Zr12 2.538290 1_554
S10 Zr4 2.564283 1_555
S10 Zr3 2.636121 1_654
S10 Zr3 2.636121 1_564
S11 Zr13 2.611284 1_455
S11 Zr13 2.611284 1_545
S11 Zr4 2.617217 1_545
S11 Zr4 2.617217 1_455
S11 Zr3 2.711601 1_554
S12 Zr13 2.550685 1_556
S12 Zr4 2.553990 1_555
S12 Zr3 2.635107 1_655
S12 Zr3 2.635107 1_565
S13 Zr13 2.611284 1_566
S13 Zr13 2.611284 1_656
S13 Zr5 2.617217 1_565
S13 Zr5 2.617217 1_655
S13 Zr6 2.711601 1_556
S14 Zr7 2.538290 1_556
S14 Zr5 2.564283 1_555
S14 Zr6 2.636121 1_546
S14 Zr6 2.636121 1_456
S15 Zr7 2.601220 1_565
S15 Zr7 2.601220 1_655
S15 Zr5 2.605049 1_565
S15 Zr5 2.605049 1_655
S15 Zr6 2.689859 1_555
S16 Zr0 2.607128 1_655
S16 Zr0 2.607128 1_565
S16 Zr14 2.611074 1_655
S16 Zr14 2.611074 1_565
S16 Zr8 2.672594 1_555
S17 Zr14 2.561194 1_555
S17 Zr0 2.593861 1_554
S17 Zr8 2.628562 1_545
S17 Zr8 2.628562 1_455
S18 Zr10 2.585168 1_545
S18 Zr10 2.585168 1_455
S18 Zr1 2.591856 1_545
S18 Zr1 2.591856 1_455
S18 Zr9 2.661639 1_555
S19 Zr11 2.534245 1_555
S19 Zr12 2.554007 1_555
S19 Zr2 2.624990 1_655
S19 Zr2 2.624990 1_565
