# generated using pymatgen
data_Sc13Cu13O33
_symmetry_space_group_name_H-M   'P 1'
_cell_length_a   5.96404422
_cell_length_b   5.96404422
_cell_length_c   36.25867887
_cell_angle_alpha   87.86782069
_cell_angle_beta   87.86782069
_cell_angle_gamma   33.36506050
_symmetry_Int_Tables_number   1
_chemical_formula_structural   Sc13Cu13O33
_chemical_formula_sum   'Sc13 Cu13 O33'
_cell_volume   708.77123195
_cell_formula_units_Z   1
loop_
 _symmetry_equiv_pos_site_id
 _symmetry_equiv_pos_as_xyz
  1  'x, y, z'
loop_
 _atom_site_type_symbol
 _atom_site_label
 _atom_site_symmetry_multiplicity
 _atom_site_fract_x
 _atom_site_fract_y
 _atom_site_fract_z
 _atom_site_occupancy
  Sc  Sc0  1  0.72333700  0.72333700  0.96086800  1
  Sc  Sc1  1  0.18831000  0.18831000  0.88491300  1
  Sc  Sc2  1  0.67215900  0.67215900  0.80720400  1
  Sc  Sc3  1  0.10542300  0.10542300  0.73168000  1
  Sc  Sc4  1  0.59450400  0.59450400  0.65350800  1
  Sc  Sc5  1  0.02849200  0.02849200  0.57754900  1
  Sc  Sc6  1  0.51818600  0.51818600  0.49935700  1
  Sc  Sc7  1  0.95370600  0.95370600  0.42319700  1
  Sc  Sc8  1  0.41847900  0.41847900  0.34760700  1
  Sc  Sc9  1  0.90126900  0.90126900  0.27009000  1
  Sc  Sc10  1  0.35126700  0.35126700  0.19277600  1
  Sc  Sc11  1  0.81473600  0.81473600  0.11493300  1
  Sc  Sc12  1  0.28034500  0.28034500  0.03686000  1
  Cu  Cu0  1  0.99656000  0.99656000  0.00397200  1
  Cu  Cu1  1  0.45574200  0.45574200  0.92082700  1
  Cu  Cu2  1  0.92682900  0.92682900  0.84574300  1
  Cu  Cu3  1  0.38111000  0.38111000  0.77329000  1
  Cu  Cu4  1  0.84716700  0.84716700  0.69056200  1
  Cu  Cu5  1  0.77046200  0.77046200  0.53649800  1
  Cu  Cu6  1  0.30349000  0.30349000  0.61880600  1
  Cu  Cu7  1  0.22833200  0.22833200  0.46481200  1
  Cu  Cu8  1  0.68609400  0.68609400  0.38289800  1
  Cu  Cu9  1  0.15549600  0.15549600  0.30773700  1
  Cu  Cu10  1  0.61304200  0.61304200  0.23278100  1
  Cu  Cu11  1  0.53756700  0.53756700  0.07936400  1
  Cu  Cu12  1  0.07369600  0.07369600  0.15609100  1
  O  O0  1  0.15687300  0.15687300  0.99164000  1
  O  O1  1  0.61463600  0.61463600  0.91536700  1
  O  O2  1  0.08905900  0.08905900  0.83809400  1
  O  O3  1  0.29842300  0.29842300  0.93128400  1
  O  O4  1  0.54145600  0.54145600  0.76244900  1
  O  O5  1  0.76637200  0.76637200  0.85819900  1
  O  O6  1  0.87343800  0.87343800  0.79265100  1
  O  O7  1  0.00928800  0.00928800  0.68420500  1
  O  O8  1  0.21913000  0.21913000  0.77527800  1
  O  O9  1  0.46408100  0.46408100  0.60824400  1
  O  O10  1  0.68771400  0.68771400  0.70409000  1
  O  O11  1  0.79541500  0.79541500  0.63789200  1
  O  O12  1  0.93265900  0.93265900  0.52993500  1
  O  O13  1  0.14138100  0.14138100  0.62136300  1
  O  O14  1  0.38920300  0.38920300  0.45400100  1
  O  O15  1  0.61094600  0.61094600  0.54995700  1
  O  O16  1  0.71994400  0.71994400  0.48365800  1
  O  O17  1  0.84475000  0.84475000  0.37795100  1
  O  O18  1  0.06601100  0.06601100  0.46701300  1
  O  O19  1  0.31728300  0.31728300  0.30134100  1
  O  O20  1  0.52927700  0.52927700  0.39350300  1
  O  O21  1  0.77705800  0.77705800  0.22439500  1
  O  O22  1  0.99643900  0.99643900  0.32118300  1
  O  O23  1  0.10450000  0.10450000  0.25608200  1
  O  O24  1  0.23634700  0.23634700  0.14617100  1
  O  O25  1  0.44988500  0.44988500  0.24021800  1
  O  O26  1  0.56965300  0.56965300  0.17693200  1
  O  O27  1  0.70072700  0.70072700  0.06800900  1
  O  O28  1  0.91079900  0.91079900  0.16306100  1
  O  O29  1  0.03149300  0.03149300  0.09859800  1
  O  O30  1  0.37362600  0.37362600  0.08538000  1
  O  O31  1  0.48810300  0.48810300  0.01949000  1
  O  O32  1  0.83380700  0.83380700  0.00499500  1
loop_
_geom_bond_atom_site_label_1
_geom_bond_atom_site_label_2
_geom_bond_distance
_geom_bond_site_symmetry_2
Cu0 O31 1.803594 1_565
Cu0 O31 1.803594 1_655
Cu0 O32 1.858551 1_555
Cu0 O0 1.868580 1_664
Cu1 O1 1.818631 1_555
Cu1 O3 1.822619 1_555
Cu2 O2 1.863595 1_665
Cu2 O5 1.871087 1_555
Cu2 O6 2.041858 1_555
Cu3 O8 1.849393 1_555
Cu3 O6 1.851206 1_545
Cu3 O6 1.851206 1_455
Cu3 O4 1.858825 1_555
Cu4 O7 1.857781 1_665
Cu4 O10 1.868303 1_555
Cu4 O11 2.021016 1_555
Cu5 O12 1.859294 1_555
Cu5 O15 1.868437 1_555
Cu5 O16 2.022324 1_555
Cu6 O11 1.847623 1_455
Cu6 O11 1.847623 1_545
Cu6 O13 1.850982 1_555
Cu6 O9 1.859839 1_555
Cu7 O16 1.844529 1_455
Cu7 O16 1.844529 1_545
Cu7 O18 1.853302 1_555
Cu7 O14 1.864501 1_555
Cu8 O17 1.814716 1_555
Cu8 O20 1.817931 1_555
Cu9 O19 1.854115 1_555
Cu9 O22 1.863269 1_445
Cu9 O23 1.982979 1_555
Cu10 O25 1.873245 1_555
Cu10 O21 1.886866 1_555
Cu10 O23 1.910017 1_565
Cu10 O23 1.910017 1_655
Cu10 O26 2.103434 1_555
Cu11 O29 1.848965 1_655
Cu11 O29 1.848965 1_565
Cu11 O30 1.877419 1_555
Cu11 O27 1.893515 1_555
Cu11 O31 2.264458 1_555
Cu12 O28 1.868594 1_445
Cu12 O26 1.871284 1_545
Cu12 O26 1.871284 1_455
Cu12 O24 1.879177 1_555
Cu12 O29 2.157836 1_555
O0 Sc0 2.164960 1_545
O0 Sc0 2.164960 1_455
O0 Sc12 2.204172 1_556
O1 Sc0 2.103248 1_555
O1 Sc1 2.187917 1_655
O1 Sc1 2.187917 1_565
O2 Sc1 2.077843 1_555
O2 Sc2 2.237111 1_455
O2 Sc2 2.237111 1_545
O3 Sc1 2.138742 1_555
O3 Sc0 2.178635 1_545
O3 Sc0 2.178635 1_455
O4 Sc3 2.155636 1_565
O4 Sc3 2.155636 1_655
O4 Sc2 2.247641 1_555
O5 Sc1 2.144273 1_655
O5 Sc1 2.144273 1_565
O5 Sc2 2.175378 1_555
O6 Sc2 2.339519 1_555
O7 Sc3 2.077644 1_555
O7 Sc4 2.243649 1_455
O7 Sc4 2.243649 1_545
O8 Sc3 2.084816 1_555
O8 Sc2 2.123924 1_545
O8 Sc2 2.123924 1_455
O9 Sc5 2.155909 1_565
O9 Sc5 2.155909 1_655
O9 Sc4 2.259273 1_555
O10 Sc4 2.156314 1_555
O10 Sc3 2.177849 1_655
O10 Sc3 2.177849 1_565
O11 Sc4 2.342965 1_555
O12 Sc5 2.079995 1_665
O12 Sc6 2.243062 1_655
O12 Sc6 2.243062 1_565
O13 Sc5 2.084879 1_555
O13 Sc4 2.127937 1_455
O13 Sc4 2.127937 1_545
O14 Sc7 2.158237 1_545
O14 Sc7 2.158237 1_455
O14 Sc6 2.250509 1_555
O15 Sc6 2.154177 1_555
O15 Sc5 2.178652 1_655
O15 Sc5 2.178652 1_565
O16 Sc6 2.352969 1_555
O17 Sc7 2.097607 1_555
O17 Sc8 2.186196 1_655
O17 Sc8 2.186196 1_565
O18 Sc7 2.080617 1_445
O18 Sc6 2.134343 1_455
O18 Sc6 2.134343 1_545
O19 Sc8 2.074075 1_555
O19 Sc9 2.247583 1_545
O19 Sc9 2.247583 1_455
O20 Sc8 2.129715 1_555
O20 Sc7 2.182621 1_455
O20 Sc7 2.182621 1_545
O21 Sc10 2.211125 1_565
O21 Sc10 2.211125 1_655
O21 Sc9 2.223065 1_555
O22 Sc8 2.139249 1_655
O22 Sc8 2.139249 1_565
O22 Sc9 2.184252 1_555
O23 Sc9 2.357672 1_445
O24 Sc10 2.179928 1_555
O24 Sc11 2.222065 1_545
O24 Sc11 2.222065 1_455
O25 Sc9 2.089552 1_455
O25 Sc9 2.089552 1_545
O25 Sc10 2.092680 1_555
O26 Sc10 2.538726 1_555
O27 Sc11 2.182633 1_555
O27 Sc12 2.225897 1_655
O27 Sc12 2.225897 1_565
O28 Sc11 2.097327 1_555
O28 Sc10 2.120816 1_565
O28 Sc10 2.120816 1_655
O29 Sc11 2.524037 1_445
O30 Sc12 2.092054 1_555
O30 Sc11 2.115711 1_455
O30 Sc11 2.115711 1_545
O31 Sc12 2.432220 1_555
O32 Sc0 2.076071 1_554
O32 Sc12 2.141140 1_655
O32 Sc12 2.141140 1_565
