# generated using pymatgen
data_SbP2O7
_symmetry_space_group_name_H-M   'P 1'
_cell_length_a   8.98999900
_cell_length_b   5.08265300
_cell_length_c   12.71113367
_cell_angle_alpha   68.43601300
_cell_angle_beta   90.00000000
_cell_angle_gamma   90.00000000
_symmetry_Int_Tables_number   1
_chemical_formula_structural   SbP2O7
_chemical_formula_sum   'Sb4 P8 O28'
_cell_volume   540.15814278
_cell_formula_units_Z   4
loop_
 _symmetry_equiv_pos_site_id
 _symmetry_equiv_pos_as_xyz
  1  'x, y, z'
loop_
 _atom_site_type_symbol
 _atom_site_label
 _atom_site_symmetry_multiplicity
 _atom_site_fract_x
 _atom_site_fract_y
 _atom_site_fract_z
 _atom_site_occupancy
  Sb  Sb0  1  0.72647900  0.60091600  0.22168800  1
  Sb  Sb1  1  0.27352100  0.39908400  0.77831200  1
  Sb  Sb2  1  0.22647900  0.39908400  0.27831200  1
  Sb  Sb3  1  0.77352100  0.60091600  0.72168800  1
  P  P0  1  0.96014200  0.12013300  0.16438900  1
  P  P1  1  0.21870200  0.70148400  0.47749500  1
  P  P2  1  0.53985800  0.12013300  0.66438900  1
  P  P3  1  0.71870200  0.29851600  0.02250500  1
  P  P4  1  0.78129800  0.29851600  0.52250500  1
  P  P5  1  0.46014200  0.87986700  0.33561100  1
  P  P6  1  0.03985800  0.87986700  0.83561100  1
  P  P7  1  0.28129800  0.70148400  0.97749500  1
  O  O0  1  0.07025300  0.20608800  0.79491000  1
  O  O1  1  0.85454700  0.02513800  0.60191300  1
  O  O2  1  0.87249200  0.83029800  0.83485700  1
  O  O3  1  0.62874400  0.25664600  0.73187700  1
  O  O4  1  0.18776700  0.62858700  0.60238800  1
  O  O5  1  0.31223300  0.62858700  0.10238800  1
  O  O6  1  0.37125600  0.74335400  0.26812300  1
  O  O7  1  0.10021200  0.75381400  0.96401300  1
  O  O8  1  0.42974700  0.20608800  0.29491000  1
  O  O9  1  0.12874400  0.74335400  0.76812300  1
  O  O10  1  0.14545300  0.97486200  0.39808700  1
  O  O11  1  0.92974700  0.79391200  0.20509000  1
  O  O12  1  0.68776700  0.37141300  0.89761200  1
  O  O13  1  0.62750800  0.83029800  0.33485700  1
  O  O14  1  0.12750800  0.16970200  0.16514300  1
  O  O15  1  0.67990800  0.55222300  0.05824200  1
  O  O16  1  0.60021200  0.24618600  0.53598700  1
  O  O17  1  0.81223300  0.37141300  0.39761200  1
  O  O18  1  0.35454700  0.97486200  0.89808700  1
  O  O19  1  0.32009200  0.44777700  0.94175800  1
  O  O20  1  0.89978800  0.24618600  0.03598700  1
  O  O21  1  0.64545300  0.02513800  0.10191300  1
  O  O22  1  0.57025300  0.79391200  0.70509000  1
  O  O23  1  0.17990800  0.44777700  0.44175800  1
  O  O24  1  0.37249200  0.16970200  0.66514300  1
  O  O25  1  0.87125600  0.25664600  0.23187700  1
  O  O26  1  0.39978800  0.75381400  0.46401300  1
  O  O27  1  0.82009200  0.55222300  0.55824200  1
loop_
_geom_bond_atom_site_label_1
_geom_bond_atom_site_label_2
_geom_bond_distance
_geom_bond_site_symmetry_2
O0 P6 1.568743 1_545
O0 Sb1 2.047907 1_555
O1 P4 1.533680 1_555
O1 Sb3 2.254895 1_545
O2 P6 1.526179 1_655
O2 Sb3 2.335169 1_555
O3 P2 1.514397 1_555
O3 Sb3 2.146165 1_555
O4 P1 1.517401 1_555
O4 Sb1 2.244578 1_555
O5 P7 1.517401 1_554
O5 Sb2 2.244578 1_555
O6 P5 1.514397 1_555
O6 Sb2 2.146165 1_555
O7 P6 1.612475 1_555
O7 P7 1.648293 1_555
O8 P5 1.568743 1_545
O8 Sb2 2.047907 1_555
O9 P6 1.514397 1_555
O9 Sb1 2.146165 1_555
O10 P1 1.533680 1_555
O10 Sb2 2.254895 1_565
O11 P0 1.568743 1_565
O11 Sb0 2.047907 1_555
O12 P3 1.517401 1_556
O12 Sb3 2.244578 1_555
O13 P5 1.526179 1_555
O13 Sb0 2.335169 1_555
O14 P0 1.526179 1_455
O14 Sb2 2.335169 1_555
O15 P3 1.556082 1_555
O15 Sb0 2.220553 1_555
O16 P2 1.612475 1_555
O16 P4 1.648293 1_555
O17 P4 1.517401 1_555
O17 Sb0 2.244578 1_555
O18 P7 1.533680 1_555
O18 Sb1 2.254895 1_565
O19 P7 1.556082 1_555
O19 Sb1 2.220553 1_555
O20 P0 1.612475 1_555
O20 P3 1.648293 1_555
O21 P3 1.533680 1_555
O21 Sb0 2.254895 1_545
O22 P2 1.568743 1_565
O22 Sb3 2.047907 1_555
O23 P1 1.556082 1_555
O23 Sb2 2.220553 1_555
O24 P2 1.526179 1_555
O24 Sb1 2.335169 1_555
O25 P0 1.514397 1_555
O25 Sb0 2.146165 1_555
O26 P5 1.612475 1_555
O26 P1 1.648293 1_555
O27 P4 1.556082 1_555
O27 Sb3 2.220553 1_555
