# generated using pymatgen
data_V2Ni(PO5)2
_symmetry_space_group_name_H-M   'P 1'
_cell_length_a   7.85514400
_cell_length_b   7.73883700
_cell_length_c   8.74198971
_cell_angle_alpha   58.44429298
_cell_angle_beta   90.00000000
_cell_angle_gamma   90.00000000
_symmetry_Int_Tables_number   1
_chemical_formula_structural   V2Ni(PO5)2
_chemical_formula_sum   'V4 Ni2 P4 O20'
_cell_volume   452.84219730
_cell_formula_units_Z   2
loop_
 _symmetry_equiv_pos_site_id
 _symmetry_equiv_pos_as_xyz
  1  'x, y, z'
loop_
 _atom_site_type_symbol
 _atom_site_label
 _atom_site_symmetry_multiplicity
 _atom_site_fract_x
 _atom_site_fract_y
 _atom_site_fract_z
 _atom_site_occupancy
  V  V0  1  0.80534400  0.75314000  0.69912100  1
  V  V1  1  0.30534400  0.24686000  0.80087900  1
  V  V2  1  0.69465600  0.75314000  0.19912100  1
  V  V3  1  0.19465600  0.24686000  0.30087900  1
  Ni  Ni0  1  0.00000000  0.00000000  0.00000000  1
  Ni  Ni1  1  0.50000000  0.00000000  0.50000000  1
  P  P0  1  0.35402900  0.99804500  0.22172600  1
  P  P1  1  0.64597100  0.00195500  0.77827400  1
  P  P2  1  0.85402900  0.00195500  0.27827400  1
  P  P3  1  0.14597100  0.99804500  0.72172600  1
  O  O0  1  0.93176400  0.81494100  0.26884300  1
  O  O1  1  0.06823600  0.18505900  0.73115700  1
  O  O2  1  0.56823600  0.81494100  0.76884300  1
  O  O3  1  0.02349800  0.87605400  0.68027400  1
  O  O4  1  0.80809200  0.51436400  0.77200300  1
  O  O5  1  0.19190800  0.48563600  0.22799700  1
  O  O6  1  0.27416600  0.87640800  0.40696100  1
  O  O7  1  0.97650200  0.12394600  0.31972600  1
  O  O8  1  0.22583400  0.87640800  0.90696100  1
  O  O9  1  0.21953400  0.11323600  0.06071400  1
  O  O10  1  0.72583400  0.12359200  0.59303900  1
  O  O11  1  0.78046600  0.88676400  0.93928600  1
  O  O12  1  0.43176400  0.18505900  0.23115700  1
  O  O13  1  0.47650200  0.87605400  0.18027400  1
  O  O14  1  0.30809200  0.48563600  0.72799700  1
  O  O15  1  0.69190800  0.51436400  0.27200300  1
  O  O16  1  0.52349800  0.12394600  0.81972600  1
  O  O17  1  0.28046600  0.11323600  0.56071400  1
  O  O18  1  0.77416600  0.12359200  0.09303900  1
  O  O19  1  0.71953400  0.88676400  0.43928600  1
loop_
_geom_bond_atom_site_label_1
_geom_bond_atom_site_label_2
_geom_bond_distance
_geom_bond_site_symmetry_2
Ni0 O0 2.083025 1_445
Ni0 O1 2.083025 1_554
Ni0 O9 2.123735 1_555
Ni0 O11 2.123735 1_444
Ni0 O18 2.353189 1_455
Ni0 O8 2.353189 1_544
Ni1 O12 2.083025 1_555
Ni1 O2 2.083025 1_545
Ni1 O19 2.123735 1_545
Ni1 O17 2.123735 1_555
Ni1 O10 2.353189 1_555
Ni1 O6 2.353189 1_545
O0 P2 1.612183 1_565
O0 V2 2.091488 1_555
O1 P3 1.612183 1_545
O1 V1 2.091488 1_555
O2 P1 1.612183 1_565
O2 V0 2.091488 1_555
O3 P3 1.518609 1_555
O3 V0 1.924694 1_455
O4 V0 1.608942 1_555
O5 V3 1.608942 1_555
O6 P0 1.518691 1_555
O7 P2 1.518609 1_555
O7 V3 1.924694 1_655
O8 P3 1.518691 1_555
O9 P0 1.605849 1_545
O9 V1 2.055428 1_554
O10 P1 1.518691 1_555
O11 P1 1.605849 1_565
O11 V2 2.055428 1_556
O12 P0 1.612183 1_545
O12 V3 2.091488 1_555
O13 P0 1.518609 1_555
O13 V2 1.924694 1_555
O14 V1 1.608942 1_555
O15 V2 1.608942 1_555
O16 P1 1.518609 1_555
O16 V1 1.924694 1_555
O17 P3 1.605849 1_545
O17 V3 2.055428 1_555
O18 P2 1.518691 1_555
O19 P2 1.605849 1_565
O19 V0 2.055428 1_555
