# generated using pymatgen
data_YbHO2
_symmetry_space_group_name_H-M   'P 1'
_cell_length_a   3.53004255
_cell_length_b   4.22424580
_cell_length_c   5.80744257
_cell_angle_alpha   109.36976444
_cell_angle_beta   90.00000000
_cell_angle_gamma   90.00000000
_symmetry_Int_Tables_number   1
_chemical_formula_structural   YbHO2
_chemical_formula_sum   'Yb2 H2 O4'
_cell_volume   81.69752680
_cell_formula_units_Z   2
loop_
 _symmetry_equiv_pos_site_id
 _symmetry_equiv_pos_as_xyz
  1  'x, y, z'
loop_
 _atom_site_type_symbol
 _atom_site_label
 _atom_site_symmetry_multiplicity
 _atom_site_fract_x
 _atom_site_fract_y
 _atom_site_fract_z
 _atom_site_occupancy
  Yb  Yb0  1  0.25000000  0.33328583  0.18861969  1
  Yb  Yb1  1  0.75000000  0.66671417  0.81138031  1
  H  H0  1  0.25000000  0.98584669  0.58353922  1
  H  H1  1  0.75000000  0.01415331  0.41646078  1
  O  O0  1  0.25000000  0.76744445  0.05352398  1
  O  O1  1  0.75000000  0.23255555  0.94647602  1
  O  O2  1  0.25000000  0.74942652  0.56232227  1
  O  O3  1  0.75000000  0.25057348  0.43767773  1
loop_
_geom_bond_atom_site_label_1
_geom_bond_atom_site_label_2
_geom_bond_distance
_geom_bond_site_symmetry_2
H0 O2 0.964858 1_555
H1 O3 0.964858 1_555
O0 Yb1 2.208380 1_454
O0 Yb1 2.208380 1_554
O0 Yb0 2.221151 1_555
O0 Yb0 2.254974 1_565
O1 Yb0 2.208380 1_556
O1 Yb0 2.208380 1_656
O1 Yb1 2.221151 1_555
O1 Yb1 2.254974 1_545
O2 Yb0 2.295546 1_555
O2 Yb1 2.380052 1_455
O2 Yb1 2.380052 1_555
O3 Yb1 2.295546 1_555
O3 Yb0 2.380052 1_555
O3 Yb0 2.380052 1_655
