# generated using pymatgen
data_Ba3Na7Ti3Nb7O30
_symmetry_space_group_name_H-M   'P 1'
_cell_length_a   4.01785500
_cell_length_b   8.03528000
_cell_length_c   20.10536501
_cell_angle_alpha   89.99796811
_cell_angle_beta   90.00000000
_cell_angle_gamma   90.00000000
_symmetry_Int_Tables_number   1
_chemical_formula_structural   Ba3Na7Ti3Nb7O30
_chemical_formula_sum   'Ba3 Na7 Ti3 Nb7 O30'
_cell_volume   649.09346431
_cell_formula_units_Z   1
loop_
 _symmetry_equiv_pos_site_id
 _symmetry_equiv_pos_as_xyz
  1  'x, y, z'
loop_
 _atom_site_type_symbol
 _atom_site_label
 _atom_site_symmetry_multiplicity
 _atom_site_fract_x
 _atom_site_fract_y
 _atom_site_fract_z
 _atom_site_occupancy
  Ba  Ba0  1  0.00000000  0.50127200  0.99610200  1
  Ba  Ba1  1  0.00000000  0.50508600  0.80149000  1
  Ba  Ba2  1  0.00000000  0.99507400  0.80148500  1
  Na  Na0  1  0.00000000  0.99928200  0.99719900  1
  Na  Na1  1  0.00000000  0.50445200  0.60049700  1
  Na  Na2  1  0.00000000  0.99553000  0.60051400  1
  Na  Na3  1  0.00000000  0.50165200  0.40029200  1
  Na  Na4  1  0.00000000  0.50099300  0.20109900  1
  Na  Na5  1  0.00000000  0.99835900  0.40027700  1
  Na  Na6  1  0.00000000  0.99896800  0.20117500  1
  Ti  Ti0  1  0.50000000  0.75595600  0.90000300  1
  Ti  Ti1  1  0.50000000  0.75007100  0.69713400  1
  Ti  Ti2  1  0.50000000  0.24293000  0.90220200  1
  Nb  Nb0  1  0.50000000  0.24991500  0.69704500  1
  Nb  Nb1  1  0.50000000  0.75000500  0.50320500  1
  Nb  Nb2  1  0.50000000  0.25000000  0.29966400  1
  Nb  Nb3  1  0.50000000  0.74999600  0.30197700  1
  Nb  Nb4  1  0.50000000  0.24999300  0.49863100  1
  Nb  Nb5  1  0.50000000  0.75364200  0.10111400  1
  Nb  Nb6  1  0.50000000  0.24644500  0.10085300  1
  O  O0  1  0.50000000  0.74981500  0.00090900  1
  O  O1  1  0.50000000  0.75093500  0.80041200  1
  O  O2  1  0.50000000  0.24999700  0.00067400  1
  O  O3  1  0.50000000  0.49979200  0.90085200  1
  O  O4  1  0.50000000  0.24926000  0.79958500  1
  O  O5  1  0.50000000  0.24998600  0.59897800  1
  O  O6  1  0.50000000  0.75000200  0.59980700  1
  O  O7  1  0.50000000  0.74995900  0.39953800  1
  O  O8  1  0.50000000  0.50075600  0.69935200  1
  O  O9  1  0.50000000  0.00058800  0.90015900  1
  O  O10  1  0.50000000  0.49992000  0.49966300  1
  O  O11  1  0.50000000  0.25002600  0.39990100  1
  O  O12  1  0.50000000  0.24955200  0.20013300  1
  O  O13  1  0.50000000  0.99925700  0.69936700  1
  O  O14  1  0.50000000  0.75046800  0.19987500  1
  O  O15  1  0.50000000  0.49919700  0.29950100  1
  O  O16  1  0.50000000  0.00007000  0.49966000  1
  O  O17  1  0.50000000  0.49914600  0.10020100  1
  O  O18  1  0.50000000  0.00079600  0.29954500  1
  O  O19  1  0.50000000  0.00082900  0.10067900  1
  O  O20  1  0.00000000  0.75124200  0.90067300  1
  O  O21  1  0.00000000  0.75008200  0.69927600  1
  O  O22  1  0.00000000  0.75000100  0.49936800  1
  O  O23  1  0.00000000  0.24886200  0.90040700  1
  O  O24  1  0.00000000  0.74997200  0.29928400  1
  O  O25  1  0.00000000  0.75019100  0.10039900  1
  O  O26  1  0.00000000  0.24995500  0.69944600  1
  O  O27  1  0.00000000  0.24999000  0.50009900  1
  O  O28  1  0.00000000  0.25002100  0.29983400  1
  O  O29  1  0.00000000  0.24970900  0.10046600  1
loop_
_geom_bond_atom_site_label_1
_geom_bond_atom_site_label_2
_geom_bond_distance
_geom_bond_site_symmetry_2
Ba0 O3 2.775481 1_555
Ba0 O3 2.775481 1_455
Ba0 O20 2.777639 1_555
Ba0 O23 2.795625 1_555
Ba0 O0 2.834361 1_556
Ba0 O0 2.834361 1_456
Ba0 O2 2.849710 1_456
Ba0 O2 2.849710 1_556
Ba0 O25 2.897921 1_556
Ba0 O17 2.901123 1_456
Ba0 O17 2.901123 1_556
Ba0 O29 2.913492 1_556
Ba1 O20 2.808731 1_555
Ba1 O1 2.817574 1_455
Ba1 O1 2.817574 1_555
Ba1 O3 2.833449 1_555
Ba1 O3 2.833449 1_455
Ba1 O21 2.845764 1_555
Ba1 O23 2.862459 1_555
Ba1 O8 2.872970 1_555
Ba1 O8 2.872970 1_455
Ba1 O4 2.874525 1_555
Ba1 O4 2.874525 1_455
Ba1 O26 2.900378 1_555
Ba2 O20 2.795585 1_555
Ba2 O1 2.807957 1_455
Ba2 O1 2.807957 1_555
Ba2 O9 2.823743 1_565
Ba2 O9 2.823743 1_465
Ba2 O21 2.845770 1_555
Ba2 O23 2.848585 1_565
Ba2 O4 2.865112 1_565
Ba2 O4 2.865112 1_465
Ba2 O13 2.872667 1_555
Ba2 O13 2.872667 1_455
Ba2 O26 2.898784 1_565
Na0 O20 2.781885 1_555
Na0 O23 2.794387 1_565
Na0 O9 2.800428 1_565
Na0 O9 2.800428 1_465
Na0 O0 2.838928 1_456
Na0 O0 2.838928 1_556
Na0 O2 2.845901 1_466
Na0 O2 2.845901 1_566
Na0 O25 2.882858 1_556
Na0 O29 2.891391 1_566
Na0 O19 2.892134 1_566
Na0 O19 2.892134 1_466
Na1 O21 2.799989 1_555
Na1 O6 2.815841 1_455
Na1 O6 2.815841 1_555
Na1 O8 2.826108 1_555
Na1 O8 2.826108 1_455
Na1 O22 2.833145 1_555
Na1 O26 2.852943 1_555
Na1 O10 2.854310 1_455
Na1 O10 2.854310 1_555
Na1 O5 2.866627 1_555
Na1 O5 2.866627 1_455
Na1 O27 2.873235 1_555
Na2 O21 2.798617 1_555
Na2 O6 2.815719 1_455
Na2 O6 2.815719 1_555
Na2 O13 2.826084 1_555
Na2 O13 2.826084 1_455
Na2 O22 2.833378 1_555
Na2 O26 2.852392 1_565
Na2 O16 2.854594 1_465
Na2 O16 2.854594 1_565
Na2 O5 2.866571 1_465
Na2 O5 2.866571 1_565
Na2 O27 2.873362 1_565
Na3 O22 2.819649 1_555
Na3 O7 2.831414 1_455
Na3 O7 2.831414 1_555
Na3 O10 2.833293 1_455
Na3 O10 2.833293 1_555
Na3 O24 2.846959 1_555
Na3 O27 2.848784 1_555
Na3 O11 2.850241 1_455
Na3 O11 2.850241 1_555
Na3 O15 2.853531 1_555
Na3 O15 2.853531 1_455
Na3 O28 2.857944 1_555
Na4 O24 2.810623 1_555
Na4 O15 2.819591 1_555
Na4 O15 2.819591 1_455
Na4 O28 2.829691 1_555
Na4 O14 2.838101 1_455
Na4 O14 2.838101 1_555
Na4 O25 2.847502 1_555
Na4 O12 2.849242 1_455
Na4 O12 2.849242 1_555
Na4 O17 2.855030 1_455
Na4 O17 2.855030 1_555
Na4 O29 2.858461 1_555
Na5 O22 2.819813 1_555
Na5 O7 2.831940 1_455
Na5 O7 2.831940 1_555
Na5 O16 2.833463 1_565
Na5 O16 2.833463 1_465
Na5 O24 2.847222 1_555
Na5 O27 2.848921 1_565
Na5 O11 2.850473 1_565
Na5 O11 2.850473 1_465
Na5 O18 2.852687 1_565
Na5 O18 2.852687 1_465
Na5 O28 2.857805 1_565
Na6 O24 2.809547 1_555
Na6 O18 2.819142 1_465
Na6 O18 2.819142 1_565
Na6 O28 2.829183 1_565
Na6 O14 2.832588 1_455
Na6 O14 2.832588 1_555
Na6 O12 2.844373 1_565
Na6 O12 2.844373 1_465
Na6 O25 2.846313 1_555
Na6 O19 2.849292 1_465
Na6 O19 2.849292 1_565
Na6 O29 2.856362 1_565
Nb0 O5 1.971673 1_555
Nb0 O26 2.009507 1_555
Nb0 O26 2.009507 1_655
Nb0 O13 2.014647 1_545
Nb0 O8 2.016113 1_555
Nb0 O4 2.061611 1_555
Nb1 O6 1.942218 1_555
Nb1 O22 2.010408 1_555
Nb1 O22 2.010408 1_655
Nb1 O16 2.010603 1_565
Nb1 O10 2.010767 1_555
Nb1 O7 2.084263 1_555
Nb2 O12 2.001110 1_555
Nb2 O15 2.002370 1_555
Nb2 O18 2.002425 1_555
Nb2 O28 2.008930 1_655
Nb2 O28 2.008930 1_555
Nb2 O11 2.015301 1_555
Nb3 O7 1.961500 1_555
Nb3 O24 2.009657 1_655
Nb3 O24 2.009657 1_555
Nb3 O18 2.015840 1_565
Nb3 O15 2.015857 1_555
Nb3 O14 2.052801 1_555
Nb4 O11 1.985003 1_555
Nb4 O16 2.008307 1_555
Nb4 O10 2.008341 1_555
Nb4 O27 2.009144 1_655
Nb4 O27 2.009144 1_555
Nb4 O5 2.017513 1_555
Nb5 O14 1.985789 1_555
Nb5 O19 1.986236 1_565
Nb5 O25 2.009170 1_555
Nb5 O25 2.009170 1_655
Nb5 O0 2.014894 1_555
Nb5 O17 2.045030 1_555
Nb6 O19 1.973597 1_555
Nb6 O12 1.996218 1_555
Nb6 O29 2.009114 1_555
Nb6 O29 2.009114 1_655
Nb6 O2 2.014337 1_555
Nb6 O17 2.030565 1_555
O0 Ti0 2.029350 1_554
O1 Ti0 2.002721 1_555
O1 Ti1 2.076454 1_555
O2 Ti2 1.980632 1_554
O3 Ti0 2.058420 1_555
O3 Ti2 2.064136 1_555
O4 Ti2 2.063777 1_555
O6 Ti1 1.956795 1_555
O8 Ti1 2.003811 1_555
O9 Ti2 1.947720 1_555
O9 Ti0 1.965689 1_545
O13 Ti1 2.002784 1_555
O20 Ti0 2.009330 1_455
O20 Ti0 2.009330 1_555
O21 Ti1 2.009389 1_455
O21 Ti1 2.009389 1_555
O23 Ti2 2.009817 1_455
O23 Ti2 2.009817 1_555
