# generated using pymatgen
data_Ce6In5Pd12
_symmetry_space_group_name_H-M   'P 1'
_cell_length_a   8.27848448
_cell_length_b   8.27848448
_cell_length_c   16.31880500
_cell_angle_alpha   90.00000000
_cell_angle_beta   90.00000000
_cell_angle_gamma   120.00000381
_symmetry_Int_Tables_number   1
_chemical_formula_structural   Ce6In5Pd12
_chemical_formula_sum   'Ce12 In10 Pd24'
_cell_volume   968.54687781
_cell_formula_units_Z   2
loop_
 _symmetry_equiv_pos_site_id
 _symmetry_equiv_pos_as_xyz
  1  'x, y, z'
loop_
 _atom_site_type_symbol
 _atom_site_label
 _atom_site_symmetry_multiplicity
 _atom_site_fract_x
 _atom_site_fract_y
 _atom_site_fract_z
 _atom_site_occupancy
  Ce  Ce0  1  0.72301700  0.72301700  0.62215800  1
  Ce  Ce1  1  0.27698300  0.00000000  0.62215800  1
  Ce  Ce2  1  0.00000000  0.72301700  0.37784200  1
  Ce  Ce3  1  0.00000000  0.27698300  0.62215800  1
  Ce  Ce4  1  0.72301700  0.00000000  0.12215800  1
  Ce  Ce5  1  0.72301700  0.00000000  0.37784200  1
  Ce  Ce6  1  0.27698300  0.27698300  0.12215800  1
  Ce  Ce7  1  0.00000000  0.27698300  0.87784200  1
  Ce  Ce8  1  0.72301700  0.72301700  0.87784200  1
  Ce  Ce9  1  0.00000000  0.72301700  0.12215800  1
  Ce  Ce10  1  0.27698300  0.00000000  0.87784200  1
  Ce  Ce11  1  0.27698300  0.27698300  0.37784200  1
  In  In0  1  0.63169300  0.63169300  0.25000000  1
  In  In1  1  0.63169300  0.00000000  0.75000000  1
  In  In2  1  0.66666700  0.33333300  0.00000000  1
  In  In3  1  0.00000000  0.36830700  0.25000000  1
  In  In4  1  0.33333300  0.66666700  0.00000000  1
  In  In5  1  0.36830700  0.36830700  0.75000000  1
  In  In6  1  0.66666700  0.33333300  0.50000000  1
  In  In7  1  0.36830700  0.00000000  0.25000000  1
  In  In8  1  0.33333300  0.66666700  0.50000000  1
  In  In9  1  0.00000000  0.63169300  0.75000000  1
  Pd  Pd0  1  0.38340900  0.38340900  0.57100800  1
  Pd  Pd1  1  0.66666700  0.33333300  0.33325800  1
  Pd  Pd2  1  0.38340900  0.00000000  0.07100800  1
  Pd  Pd3  1  0.38340900  0.00000000  0.42899200  1
  Pd  Pd4  1  0.33333300  0.66666700  0.33325800  1
  Pd  Pd5  1  0.00000000  0.61659100  0.92899200  1
  Pd  Pd6  1  0.66666700  0.33333300  0.66674200  1
  Pd  Pd7  1  0.61659100  0.00000000  0.57100800  1
  Pd  Pd8  1  0.33333300  0.66666700  0.66674200  1
  Pd  Pd9  1  0.33333300  0.66666700  0.16674200  1
  Pd  Pd10  1  0.61659100  0.00000000  0.92899200  1
  Pd  Pd11  1  0.33333300  0.66666700  0.83325800  1
  Pd  Pd12  1  0.38340900  0.38340900  0.92899200  1
  Pd  Pd13  1  0.66666700  0.33333300  0.83325800  1
  Pd  Pd14  1  0.61659100  0.61659100  0.42899200  1
  Pd  Pd15  1  0.00000000  0.61659100  0.57100800  1
  Pd  Pd16  1  0.00000000  0.00000000  0.00000000  1
  Pd  Pd17  1  0.61659100  0.61659100  0.07100800  1
  Pd  Pd18  1  0.00000000  0.38340900  0.42899200  1
  Pd  Pd19  1  0.00000000  0.38340900  0.07100800  1
  Pd  Pd20  1  0.00000000  0.00000000  0.50000000  1
  Pd  Pd21  1  0.66666700  0.33333300  0.16674200  1
  Pd  Pd22  1  0.00000000  0.00000000  0.75000000  1
  Pd  Pd23  1  0.00000000  0.00000000  0.25000000  1
loop_
_geom_bond_atom_site_label_1
_geom_bond_atom_site_label_2
_geom_bond_distance
_geom_bond_site_symmetry_2
Ce0 Pd0 2.932734 1_555
Ce0 Pd15 2.958219 1_655
Ce0 Pd7 2.958219 1_565
Ce0 Pd20 3.038384 1_665
Ce0 Pd22 3.100032 1_665
Ce0 Pd6 3.106297 1_555
Ce0 Pd8 3.106297 1_555
Ce0 Pd14 3.273049 1_555
Ce1 Pd7 2.932734 1_555
Ce1 Pd15 2.958219 1_545
Ce1 Pd0 2.958219 1_555
Ce1 Pd20 3.038384 1_555
Ce1 Pd22 3.100032 1_555
Ce1 Pd8 3.106290 1_545
Ce1 Pd6 3.106294 1_555
Ce1 Pd3 3.273049 1_555
Ce2 Pd18 2.932734 1_555
Ce2 Pd3 2.958219 1_565
Ce2 Pd14 2.958219 1_455
Ce2 Pd20 3.038384 1_565
Ce2 Pd23 3.100032 1_565
Ce2 Pd4 3.106290 1_555
Ce2 Pd1 3.106294 1_455
Ce2 Pd15 3.273049 1_555
Ce3 Pd15 2.932734 1_555
Ce3 Pd7 2.958219 1_455
Ce3 Pd0 2.958219 1_555
Ce3 Pd20 3.038384 1_555
Ce3 Pd22 3.100032 1_555
Ce3 Pd6 3.106290 1_455
Ce3 Pd8 3.106294 1_555
Ce3 Pd18 3.273049 1_555
Ce4 Pd2 2.932734 1_555
Ce4 Pd19 2.958219 1_655
Ce4 Pd17 2.958219 1_545
Ce4 Pd16 3.038384 1_655
Ce4 Pd23 3.100032 1_655
Ce4 Pd21 3.106290 1_555
Ce4 Pd9 3.106294 1_545
Ce4 Pd10 3.273049 1_554
Ce5 Pd3 2.932734 1_555
Ce5 Pd18 2.958219 1_655
Ce5 Pd14 2.958219 1_545
Ce5 Pd20 3.038384 1_655
Ce5 Pd23 3.100032 1_655
Ce5 Pd1 3.106290 1_555
Ce5 Pd4 3.106294 1_545
Ce5 Pd7 3.273049 1_555
Ce6 Pd17 2.932734 1_555
Ce6 Pd2 2.958219 1_555
Ce6 Pd19 2.958219 1_555
Ce6 Pd16 3.038384 1_555
Ce6 Pd23 3.100032 1_555
Ce6 Pd9 3.106297 1_555
Ce6 Pd21 3.106297 1_555
Ce6 Pd12 3.273049 1_554
Ce7 Pd5 2.932734 1_555
Ce7 Pd10 2.958219 1_455
Ce7 Pd12 2.958219 1_555
Ce7 Pd16 3.038384 1_556
Ce7 Pd22 3.100032 1_555
Ce7 Pd13 3.106290 1_455
Ce7 Pd11 3.106294 1_555
Ce7 Pd19 3.273049 1_556
Ce8 Pd12 2.932734 1_555
Ce8 Pd10 2.958219 1_565
Ce8 Pd5 2.958219 1_655
Ce8 Pd16 3.038384 1_666
Ce8 Pd22 3.100032 1_665
Ce8 Pd13 3.106297 1_555
Ce8 Pd11 3.106297 1_555
Ce8 Pd17 3.273049 1_556
Ce9 Pd19 2.932734 1_555
Ce9 Pd2 2.958219 1_565
Ce9 Pd17 2.958219 1_455
Ce9 Pd16 3.038384 1_565
Ce9 Pd23 3.100032 1_565
Ce9 Pd9 3.106290 1_555
Ce9 Pd21 3.106294 1_455
Ce9 Pd5 3.273049 1_554
Ce10 Pd10 2.932734 1_555
Ce10 Pd5 2.958219 1_545
Ce10 Pd12 2.958219 1_555
Ce10 Pd16 3.038384 1_556
Ce10 Pd22 3.100032 1_555
Ce10 Pd11 3.106290 1_545
Ce10 Pd13 3.106294 1_555
Ce10 Pd2 3.273049 1_556
Ce11 Pd14 2.932734 1_555
Ce11 Pd3 2.958219 1_555
Ce11 Pd18 2.958219 1_555
Ce11 Pd20 3.038384 1_555
Ce11 Pd23 3.100032 1_555
Ce11 Pd4 3.106297 1_555
Ce11 Pd1 3.106297 1_555
Ce11 Pd0 3.273049 1_555
In0 Pd14 2.923610 1_555
In0 Pd17 2.923610 1_555
In0 Pd9 2.957312 1_555
In0 Pd21 2.957312 1_555
In0 Pd1 2.957312 1_555
In0 Pd4 2.957312 1_555
In0 Pd23 3.049024 1_665
In1 Pd10 2.923610 1_555
In1 Pd7 2.923610 1_555
In1 Pd13 2.957305 1_555
In1 Pd6 2.957305 1_555
In1 Pd11 2.957308 1_545
In1 Pd8 2.957308 1_545
In1 Pd22 3.049024 1_655
In2 Pd21 2.721030 1_555
In2 Pd13 2.721030 1_554
In2 Pd19 2.825851 1_655
In2 Pd10 2.825851 1_554
In2 Pd2 2.825853 1_555
In2 Pd5 2.825853 1_654
In2 Pd17 2.825858 1_555
In2 Pd12 2.825858 1_554
In3 Pd18 2.923610 1_555
In3 Pd19 2.923610 1_555
In3 Pd1 2.957305 1_455
In3 Pd21 2.957305 1_455
In3 Pd4 2.957308 1_555
In3 Pd9 2.957308 1_555
In3 Pd23 3.049024 1_555
In4 Pd9 2.721030 1_555
In4 Pd11 2.721030 1_554
In4 Pd2 2.825851 1_565
In4 Pd5 2.825851 1_554
In4 Pd19 2.825853 1_555
In4 Pd10 2.825853 1_564
In4 Pd17 2.825858 1_555
In4 Pd12 2.825858 1_554
In5 Pd12 2.923610 1_555
In5 Pd0 2.923610 1_555
In5 Pd11 2.957312 1_555
In5 Pd13 2.957312 1_555
In5 Pd8 2.957312 1_555
In5 Pd6 2.957312 1_555
In5 Pd22 3.049024 1_555
In6 Pd6 2.721030 1_555
In6 Pd1 2.721030 1_555
In6 Pd7 2.825851 1_555
In6 Pd18 2.825851 1_655
In6 Pd15 2.825853 1_655
In6 Pd3 2.825853 1_555
In6 Pd0 2.825858 1_555
In6 Pd14 2.825858 1_555
In7 Pd2 2.923610 1_555
In7 Pd3 2.923610 1_555
In7 Pd4 2.957305 1_545
In7 Pd9 2.957305 1_545
In7 Pd21 2.957308 1_555
In7 Pd1 2.957308 1_555
In7 Pd23 3.049024 1_555
In8 Pd8 2.721030 1_555
In8 Pd4 2.721030 1_555
In8 Pd15 2.825851 1_555
In8 Pd3 2.825851 1_565
In8 Pd7 2.825853 1_565
In8 Pd18 2.825853 1_555
In8 Pd0 2.825858 1_555
In8 Pd14 2.825858 1_555
In9 Pd5 2.923610 1_555
In9 Pd15 2.923610 1_555
In9 Pd11 2.957305 1_555
In9 Pd8 2.957305 1_555
In9 Pd13 2.957308 1_455
In9 Pd6 2.957308 1_455
In9 Pd22 3.049024 1_565
Pd0 Pd8 3.013869 1_555
Pd0 Pd6 3.013869 1_555
Pd0 Pd14 3.016185 1_555
Pd0 Pd20 3.378950 1_555
Pd1 Pd21 2.717342 1_555
Pd1 Pd18 3.013862 1_655
Pd1 Pd3 3.013865 1_555
Pd1 Pd14 3.013869 1_555
Pd2 Pd9 3.013862 1_545
Pd2 Pd21 3.013865 1_555
Pd3 Pd4 3.013862 1_545
Pd3 Pd7 3.016185 1_555
Pd4 Pd9 2.717342 1_555
Pd6 Pd7 3.013862 1_555
Pd7 Pd8 3.013865 1_545
Pd10 Pd13 3.013862 1_555
Pd10 Pd11 3.013865 1_545
Pd10 Pd2 3.016185 1_556
Pd10 Pd16 3.378950 1_656
Pd11 Pd8 2.717342 1_555
Pd11 Pd5 3.013862 1_555
Pd11 Pd12 3.013869 1_555
Pd12 Pd13 3.013869 1_555
Pd12 Pd17 3.016185 1_556
Pd12 Pd16 3.378950 1_556
Pd13 Pd6 2.717342 1_555
Pd13 Pd5 3.013865 1_655
Pd14 Pd4 3.013869 1_555
Pd14 Pd20 3.378950 1_665
Pd15 Pd8 3.013862 1_555
Pd15 Pd6 3.013865 1_455
Pd15 Pd18 3.016185 1_555
Pd15 Pd20 3.378950 1_565
Pd16 Pd17 3.378950 1_445
Pd16 Pd19 3.378950 1_555
Pd16 Pd2 3.378950 1_555
Pd16 Pd5 3.378950 1_544
Pd17 Pd21 3.013869 1_555
Pd17 Pd9 3.013869 1_555
Pd18 Pd4 3.013865 1_555
Pd18 Pd20 3.378950 1_555
Pd19 Pd21 3.013862 1_455
Pd19 Pd9 3.013865 1_555
Pd19 Pd5 3.016185 1_554
Pd20 Pd7 3.378950 1_455
Pd20 Pd3 3.378950 1_555
