# generated using pymatgen
data_CaLaMnRuO6
_symmetry_space_group_name_H-M   'P 1'
_cell_length_a   5.71624800
_cell_length_b   5.55904600
_cell_length_c   9.66349457
_cell_angle_alpha   55.05739802
_cell_angle_beta   90.00000000
_cell_angle_gamma   90.00000000
_symmetry_Int_Tables_number   1
_chemical_formula_structural   CaLaMnRuO6
_chemical_formula_sum   'Ca2 La2 Mn2 Ru2 O12'
_cell_volume   251.71805697
_cell_formula_units_Z   2
loop_
 _symmetry_equiv_pos_site_id
 _symmetry_equiv_pos_as_xyz
  1  'x, y, z'
loop_
 _atom_site_type_symbol
 _atom_site_label
 _atom_site_symmetry_multiplicity
 _atom_site_fract_x
 _atom_site_fract_y
 _atom_site_fract_z
 _atom_site_occupancy
  Ca  Ca0  1  0.80566500  0.76572200  0.74964200  1
  Ca  Ca1  1  0.19433500  0.76572200  0.24964200  1
  La  La0  1  0.29683200  0.23929400  0.74926500  1
  La  La1  1  0.70316800  0.23929400  0.24926500  1
  Mn  Mn0  1  0.75161000  0.49911700  0.50051300  1
  Mn  Mn1  1  0.24839000  0.49911700  0.00051300  1
  Ru  Ru0  1  0.75075300  0.00064000  0.99919600  1
  Ru  Ru1  1  0.24924700  0.00064000  0.49919600  1
  O  O0  1  0.78343900  0.66577300  0.24038800  1
  O  O1  1  0.03532200  0.85659000  0.94714600  1
  O  O2  1  0.04861200  0.23325800  0.55017800  1
  O  O3  1  0.55593500  0.76201200  0.94911200  1
  O  O4  1  0.53682800  0.13632200  0.55411600  1
  O  O5  1  0.28047700  0.34127100  0.26044500  1
  O  O6  1  0.21656100  0.66577300  0.74038800  1
  O  O7  1  0.96467800  0.85659000  0.44714600  1
  O  O8  1  0.95138800  0.23325800  0.05017800  1
  O  O9  1  0.44406500  0.76201200  0.44911200  1
  O  O10  1  0.46317200  0.13632200  0.05411600  1
  O  O11  1  0.71952300  0.34127100  0.76044500  1
loop_
_geom_bond_atom_site_label_1
_geom_bond_atom_site_label_2
_geom_bond_distance
_geom_bond_site_symmetry_2
Ca0 O11 2.353431 1_555
Ca0 O3 2.389194 1_555
Ca0 O4 2.391010 1_565
Ca0 O6 2.427017 1_655
Ca0 O2 2.580761 1_665
Ca0 O1 2.593377 1_655
Ca0 O7 2.816880 1_555
Ca0 O8 2.835945 1_556
Ca1 O5 2.353431 1_555
Ca1 O9 2.389194 1_555
Ca1 O10 2.391010 1_565
Ca1 O0 2.427017 1_455
Ca1 O8 2.580761 1_465
Ca1 O7 2.593377 1_455
Ca1 O1 2.816880 1_554
Ca1 O2 2.835945 1_555
La0 O6 2.367637 1_555
La0 O1 2.399407 1_545
La0 O2 2.406162 1_555
La0 O11 2.498250 1_555
La0 O4 2.646245 1_555
La0 O3 2.663331 1_545
La0 O9 2.812529 1_555
La0 O10 2.824632 1_556
La1 O0 2.367637 1_555
La1 O7 2.399407 1_545
La1 O8 2.406162 1_555
La1 O5 2.498250 1_555
La1 O10 2.646245 1_555
La1 O9 2.663331 1_545
La1 O3 2.812529 1_554
La1 O4 2.824632 1_555
Mn0 O2 2.117636 1_655
Mn0 O7 2.127066 1_555
Mn0 O0 2.131310 1_555
Mn0 O11 2.142008 1_555
Mn0 O9 2.154431 1_555
Mn0 O4 2.155560 1_555
Mn1 O8 2.117636 1_455
Mn1 O1 2.127066 1_554
Mn1 O6 2.131310 1_554
Mn1 O5 2.142008 1_555
Mn1 O3 2.154431 1_554
Mn1 O10 2.155560 1_555
O0 Ru0 1.990611 1_564
O1 Ru0 2.000420 1_465
O2 Ru1 1.989982 1_555
O3 Ru0 1.992381 1_565
O4 Ru1 2.002868 1_555
O5 Ru1 1.983942 1_555
O6 Ru1 1.990611 1_565
O7 Ru1 2.000420 1_665
O8 Ru0 1.989982 1_554
O9 Ru1 1.992381 1_565
O10 Ru0 2.002868 1_554
O11 Ru0 1.983942 1_555
