# generated using pymatgen
data_YB4
_symmetry_space_group_name_H-M   'P 1'
_cell_length_a   4.01896140
_cell_length_b   7.10411839
_cell_length_c   7.10411839
_cell_angle_alpha   90.00000000
_cell_angle_beta   90.00000000
_cell_angle_gamma   90.00000000
_symmetry_Int_Tables_number   1
_chemical_formula_structural   YB4
_chemical_formula_sum   'Y4 B16'
_cell_volume   202.83094578
_cell_formula_units_Z   4
loop_
 _symmetry_equiv_pos_site_id
 _symmetry_equiv_pos_as_xyz
  1  'x, y, z'
loop_
 _atom_site_type_symbol
 _atom_site_label
 _atom_site_symmetry_multiplicity
 _atom_site_fract_x
 _atom_site_fract_y
 _atom_site_fract_z
 _atom_site_occupancy
  Y  Y0  1  -0.00000000  0.68229517  0.18229517  1
  Y  Y1  1  -0.00000000  0.81770483  0.68229517  1
  Y  Y2  1  -0.00000000  0.18229517  0.31770483  1
  Y  Y3  1  -0.00000000  0.31770483  0.81770483  1
  B  B0  1  0.50000000  0.46169713  0.32422319  1
  B  B1  1  0.50000000  0.53830287  0.67577681  1
  B  B2  1  0.50000000  0.32422319  0.53830287  1
  B  B3  1  0.50000000  0.67577681  0.46169713  1
  B  B4  1  0.20303487  -0.00000000  0.00000000  1
  B  B5  1  0.79696513  0.50000000  0.50000000  1
  B  B6  1  0.79696513  -0.00000000  0.00000000  1
  B  B7  1  0.20303487  0.50000000  0.50000000  1
  B  B8  1  0.50000000  0.08716979  0.58716979  1
  B  B9  1  0.50000000  0.41283021  0.08716979  1
  B  B10  1  0.50000000  0.58716979  0.91283021  1
  B  B11  1  0.50000000  0.91283021  0.41283021  1
  B  B12  1  0.50000000  0.17577681  0.03830287  1
  B  B13  1  0.50000000  0.96169713  0.17577681  1
  B  B14  1  0.50000000  0.03830287  0.82422319  1
  B  B15  1  0.50000000  0.82422319  0.96169713  1
loop_
_geom_bond_atom_site_label_1
_geom_bond_atom_site_label_2
_geom_bond_distance
_geom_bond_site_symmetry_2
B0 B9 1.719465 1_555
B0 B5 1.748661 1_555
B0 B7 1.748661 1_555
B0 B2 1.807425 1_555
B0 B3 1.807425 1_555
B0 Y0 2.740548 1_655
B0 Y0 2.740548 1_555
B0 Y2 2.824890 1_655
B0 Y2 2.824890 1_555
B1 B10 1.719465 1_555
B1 B5 1.748661 1_555
B1 B7 1.748661 1_555
B1 B2 1.807425 1_555
B1 B3 1.807425 1_555
B1 Y3 2.740548 1_655
B1 Y3 2.740548 1_555
B1 Y1 2.824890 1_555
B1 Y1 2.824890 1_655
B2 B8 1.719465 1_555
B2 B5 1.748661 1_555
B2 B7 1.748661 1_555
B2 Y2 2.740548 1_655
B2 Y2 2.740548 1_555
B2 Y3 2.824890 1_555
B2 Y3 2.824890 1_655
B3 B5 1.748661 1_555
B3 B7 1.748661 1_555
B3 Y1 2.740548 1_655
B3 Y1 2.740548 1_555
B3 Y0 2.824890 1_555
B3 Y0 2.824890 1_655
B4 B6 1.631979 1_455
B4 Y1 2.727103 1_544
B4 Y0 2.727103 1_545
B4 Y3 2.727103 1_554
B4 Y2 2.727103 1_555
B5 B7 1.631979 1_655
B5 Y0 2.727103 1_655
B5 Y2 2.727103 1_655
B5 Y1 2.727103 1_655
B5 Y3 2.727103 1_655
B6 Y1 2.727103 1_644
B6 Y0 2.727103 1_645
B6 Y3 2.727103 1_654
B6 Y2 2.727103 1_655
B7 Y2 2.727103 1_555
B7 Y0 2.727103 1_555
B7 Y3 2.727103 1_555
B7 Y1 2.727103 1_555
B8 Y1 2.856445 1_545
B8 Y2 2.856445 1_655
B8 Y2 2.856445 1_555
B8 Y1 2.856445 1_645
B8 Y3 3.066342 1_555
B8 Y3 3.066342 1_655
B9 Y0 2.856445 1_655
B9 Y3 2.856445 1_554
B9 Y3 2.856445 1_654
B9 Y0 2.856445 1_555
B9 Y2 3.066342 1_655
B9 Y2 3.066342 1_555
B10 B15 1.719465 1_555
B10 B9 1.751545 1_556
B10 Y0 2.856445 1_556
B10 Y0 2.856445 1_656
B10 Y3 2.856445 1_555
B10 Y3 2.856445 1_655
B10 Y1 3.066342 1_555
B10 Y1 3.066342 1_655
B11 B3 1.719465 1_555
B11 B13 1.719465 1_555
B11 B8 1.751545 1_565
B11 Y1 2.856445 1_555
B11 Y1 2.856445 1_655
B11 Y2 2.856445 1_565
B11 Y2 2.856445 1_665
B11 Y0 3.066342 1_655
B11 Y0 3.066342 1_555
B12 B9 1.719465 1_555
B12 B6 1.748661 1_555
B12 B4 1.748661 1_555
B12 B14 1.807425 1_554
B12 B13 1.807425 1_545
B12 Y3 2.740548 1_654
B12 Y3 2.740548 1_554
B12 Y2 2.824890 1_655
B12 Y2 2.824890 1_555
B13 B4 1.748661 1_565
B13 B6 1.748661 1_565
B13 B15 1.807425 1_554
B13 Y2 2.740548 1_665
B13 Y2 2.740548 1_565
B13 Y0 2.824890 1_655
B13 Y0 2.824890 1_555
B14 B8 1.719465 1_555
B14 B6 1.748661 1_556
B14 B4 1.748661 1_556
B14 B15 1.807425 1_545
B14 Y1 2.740548 1_645
B14 Y1 2.740548 1_545
B14 Y3 2.824890 1_655
B14 Y3 2.824890 1_555
B15 B4 1.748661 1_566
B15 B6 1.748661 1_566
B15 Y0 2.740548 1_656
B15 Y0 2.740548 1_556
B15 Y1 2.824890 1_555
B15 Y1 2.824890 1_655
