# generated using pymatgen
data_Ce5AgSe8
_symmetry_space_group_name_H-M   'P 1'
_cell_length_a   7.71367331
_cell_length_b   7.71367331
_cell_length_c   7.71367331
_cell_angle_alpha   110.00776631
_cell_angle_beta   110.00776631
_cell_angle_gamma   108.40337762
_symmetry_Int_Tables_number   1
_chemical_formula_structural   Ce5AgSe8
_chemical_formula_sum   'Ce5 Ag1 Se8'
_cell_volume   353.22296849
_cell_formula_units_Z   1
loop_
 _symmetry_equiv_pos_site_id
 _symmetry_equiv_pos_as_xyz
  1  'x, y, z'
loop_
 _atom_site_type_symbol
 _atom_site_label
 _atom_site_symmetry_multiplicity
 _atom_site_fract_x
 _atom_site_fract_y
 _atom_site_fract_z
 _atom_site_occupancy
  Ce  Ce0  1  0.01212000  0.63280400  0.88012600  1
  Ce  Ce1  1  0.86800600  0.98788000  0.62068400  1
  Ce  Ce2  1  0.75267800  0.13199400  0.11987400  1
  Ce  Ce3  1  0.50000000  0.50000000  0.00000000  1
  Ce  Ce4  1  0.36719600  0.24732200  0.37931600  1
  Ag  Ag0  1  0.25000000  0.75000000  0.50000000  1
  Se  Se0  1  0.13637400  0.38499800  0.11165500  1
  Se  Se1  1  0.64332900  0.24568100  0.76029900  1
  Se  Se2  1  0.97528200  0.86362600  0.24862400  1
  Se  Se3  1  0.75431900  0.51461800  0.39764900  1
  Se  Se4  1  0.48538200  0.88303000  0.23970100  1
  Se  Se5  1  0.61500200  0.72665800  0.75137600  1
  Se  Se6  1  0.27334200  0.02471800  0.88834500  1
  Se  Se7  1  0.11697000  0.35667100  0.60235100  1
loop_
_geom_bond_atom_site_label_1
_geom_bond_atom_site_label_2
_geom_bond_distance
_geom_bond_site_symmetry_2
Ce0 Se2 2.956262 1_456
Ce0 Se1 2.968532 1_455
Ce0 Se7 2.988741 1_555
Ce0 Se6 3.022993 1_565
Ce0 Se4 3.115149 1_556
Ce0 Se0 3.175459 1_556
Ce0 Se3 3.178938 1_455
Ce0 Se5 3.271750 1_455
Ce1 Se6 2.956264 1_665
Ce1 Se7 2.968537 1_665
Ce1 Se4 2.988736 1_555
Ce1 Se5 3.022998 1_555
Ce1 Se3 3.115148 1_555
Ce1 Se2 3.175464 1_555
Ce1 Se1 3.178945 1_565
Ce1 Se0 3.271745 1_666
Ce2 Se5 2.956262 1_544
Ce2 Se4 2.968532 1_545
Ce2 Se3 2.988739 1_555
Ce2 Se0 3.023002 1_655
Ce2 Se1 3.115149 1_554
Ce2 Se6 3.175463 1_554
Ce2 Se7 3.178939 1_655
Ce2 Se2 3.271750 1_545
Ce3 Se4 2.962376 1_555
Ce3 Se1 2.962376 1_554
Ce3 Se7 2.962380 1_554
Ce3 Se3 2.962382 1_555
Ce3 Se0 3.162433 1_555
Ce3 Se2 3.162438 1_555
Ce3 Se5 3.162438 1_554
Ce3 Se6 3.162441 1_554
Ce4 Se0 2.956267 1_555
Ce4 Se3 2.968528 1_555
Ce4 Se1 2.988736 1_555
Ce4 Se2 3.022998 1_445
Ce4 Se7 3.115144 1_555
Ce4 Se5 3.175464 1_555
Ce4 Se4 3.178945 1_545
Ce4 Se6 3.271743 1_554
Ag0 Se2 2.922759 1_455
Ag0 Se5 2.922759 1_555
Ag0 Se0 2.922764 1_555
Ag0 Se6 2.922765 1_565
Ag0 Se7 3.333052 1_555
Ag0 Se4 3.333057 1_555
Ag0 Se1 3.333057 1_565
Ag0 Se3 3.333059 1_455
