# generated using pymatgen
data_Ca2Fe2O5
_symmetry_space_group_name_H-M   'P 1'
_cell_length_a   6.03122200
_cell_length_b   6.50714129
_cell_length_c   6.53057505
_cell_angle_alpha   109.21267847
_cell_angle_beta   96.86839258
_cell_angle_gamma   103.21635777
_symmetry_Int_Tables_number   1
_chemical_formula_structural   Ca2Fe2O5
_chemical_formula_sum   'Ca4 Fe4 O10'
_cell_volume   230.26178287
_cell_formula_units_Z   2
loop_
 _symmetry_equiv_pos_site_id
 _symmetry_equiv_pos_as_xyz
  1  'x, y, z'
loop_
 _atom_site_type_symbol
 _atom_site_label
 _atom_site_symmetry_multiplicity
 _atom_site_fract_x
 _atom_site_fract_y
 _atom_site_fract_z
 _atom_site_occupancy
  Ca  Ca0  1  0.71597700  0.89079300  0.98246300  1
  Ca  Ca1  1  0.24170100  0.48833500  0.61759400  1
  Ca  Ca2  1  0.75829900  0.51166500  0.38240600  1
  Ca  Ca3  1  0.28402300  0.10920700  0.01753700  1
  Fe  Fe0  1  0.66199200  0.20234800  0.65464400  1
  Fe  Fe1  1  0.00000000  0.00000000  0.50000000  1
  Fe  Fe2  1  0.33800800  0.79765200  0.34535600  1
  Fe  Fe3  1  0.00000000  0.50000000  0.00000000  1
  O  O0  1  0.34311300  0.75209500  0.02191200  1
  O  O1  1  0.78179200  0.53204800  0.75114400  1
  O  O2  1  0.84453700  0.18828900  0.39277900  1
  O  O3  1  0.64120000  0.85506000  0.55017300  1
  O  O4  1  0.05793700  0.23442500  0.79809300  1
  O  O5  1  0.94206300  0.76557500  0.20190700  1
  O  O6  1  0.35880000  0.14494000  0.44982700  1
  O  O7  1  0.15546300  0.81171100  0.60722100  1
  O  O8  1  0.21820800  0.46795200  0.24885600  1
  O  O9  1  0.65688700  0.24790500  0.97808800  1
loop_
_geom_bond_atom_site_label_1
_geom_bond_atom_site_label_2
_geom_bond_distance
_geom_bond_site_symmetry_2
Ca0 O0 2.302537 1_556
Ca0 O5 2.320817 1_556
Ca0 O9 2.438794 1_565
Ca0 O1 2.476943 1_555
Ca0 O2 2.632804 1_566
Ca0 O3 2.728162 1_555
Ca1 O7 2.299747 1_555
Ca1 O8 2.352884 1_555
Ca1 O6 2.446968 1_555
Ca1 O4 2.470762 1_555
Ca1 O0 2.538271 1_556
Ca1 O2 2.615176 1_455
Ca2 O2 2.299747 1_555
Ca2 O1 2.352884 1_555
Ca2 O3 2.446968 1_555
Ca2 O5 2.470762 1_555
Ca2 O9 2.538271 1_554
Ca2 O7 2.615176 1_655
Ca3 O9 2.302537 1_554
Ca3 O4 2.320817 1_554
Ca3 O0 2.438794 1_545
Ca3 O8 2.476943 1_555
Ca3 O7 2.632804 1_544
Ca3 O6 2.728162 1_555
Fe0 O1 1.953052 1_555
Fe0 O6 2.011536 1_555
Fe0 O9 2.039153 1_555
Fe0 O3 2.103176 1_545
Fe0 O2 2.130366 1_555
Fe0 O4 2.394198 1_655
Fe1 O2 1.950266 1_455
Fe1 O7 1.950266 1_545
Fe1 O4 1.969237 1_555
Fe1 O5 1.969237 1_445
Fe1 O3 2.262636 1_445
Fe1 O6 2.262636 1_555
Fe2 O8 1.953052 1_555
Fe2 O3 2.011536 1_555
Fe2 O0 2.039153 1_555
Fe2 O6 2.103176 1_565
Fe2 O7 2.130366 1_555
Fe2 O5 2.394198 1_455
Fe3 O4 1.932302 1_554
Fe3 O5 1.932302 1_455
Fe3 O8 2.062446 1_555
Fe3 O1 2.062446 1_454
Fe3 O9 2.283915 1_454
Fe3 O0 2.283915 1_555
