# generated using pymatgen
data_Tb15(Ni4P3)7
_symmetry_space_group_name_H-M   'P 1'
_cell_length_a   24.04470667
_cell_length_b   24.04470667
_cell_length_c   3.82990900
_cell_angle_alpha   90.00000000
_cell_angle_beta   90.00000000
_cell_angle_gamma   120.00000185
_symmetry_Int_Tables_number   1
_chemical_formula_structural   Tb15(Ni4P3)7
_chemical_formula_sum   'Tb30 Ni56 P42'
_cell_volume   1917.60010791
_cell_formula_units_Z   2
loop_
 _symmetry_equiv_pos_site_id
 _symmetry_equiv_pos_as_xyz
  1  'x, y, z'
loop_
 _atom_site_type_symbol
 _atom_site_label
 _atom_site_symmetry_multiplicity
 _atom_site_fract_x
 _atom_site_fract_y
 _atom_site_fract_z
 _atom_site_occupancy
  Tb  Tb0  1  0.38716600  0.24233500  0.25000000  1
  Tb  Tb1  1  0.11771700  0.53293300  0.75000000  1
  Tb  Tb2  1  0.29326400  0.56076400  0.75000000  1
  Tb  Tb3  1  0.75799500  0.92995400  0.75000000  1
  Tb  Tb4  1  0.07004600  0.82804100  0.75000000  1
  Tb  Tb5  1  0.92995400  0.17195900  0.25000000  1
  Tb  Tb6  1  0.58674800  0.90665800  0.75000000  1
  Tb  Tb7  1  0.09334200  0.68009000  0.75000000  1
  Tb  Tb8  1  0.17195900  0.24200500  0.75000000  1
  Tb  Tb9  1  0.14483100  0.38716600  0.75000000  1
  Tb  Tb10  1  0.68009000  0.58674800  0.25000000  1
  Tb  Tb11  1  0.41325200  0.09334200  0.25000000  1
  Tb  Tb12  1  0.24233500  0.85516900  0.75000000  1
  Tb  Tb13  1  0.56076400  0.26750000  0.25000000  1
  Tb  Tb14  1  0.70673600  0.43923600  0.25000000  1
  Tb  Tb15  1  0.26750000  0.70673600  0.75000000  1
  Tb  Tb16  1  0.85516900  0.61283400  0.25000000  1
  Tb  Tb17  1  0.43923600  0.73250000  0.75000000  1
  Tb  Tb18  1  0.58478500  0.11771700  0.25000000  1
  Tb  Tb19  1  0.88228300  0.46706700  0.25000000  1
  Tb  Tb20  1  0.73250000  0.29326400  0.25000000  1
  Tb  Tb21  1  0.31991000  0.41325200  0.75000000  1
  Tb  Tb22  1  0.41521500  0.88228300  0.75000000  1
  Tb  Tb23  1  0.53293300  0.41521500  0.25000000  1
  Tb  Tb24  1  0.61283400  0.75766500  0.75000000  1
  Tb  Tb25  1  0.82804100  0.75799500  0.25000000  1
  Tb  Tb26  1  0.90665800  0.31991000  0.25000000  1
  Tb  Tb27  1  0.24200500  0.07004600  0.25000000  1
  Tb  Tb28  1  0.46706700  0.58478500  0.75000000  1
  Tb  Tb29  1  0.75766500  0.14483100  0.25000000  1
  Ni  Ni0  1  0.65265900  0.86430200  0.25000000  1
  Ni  Ni1  1  0.80068300  0.04298100  0.25000000  1
  Ni  Ni2  1  0.37012800  0.98062800  0.75000000  1
  Ni  Ni3  1  0.30794900  0.81448300  0.25000000  1
  Ni  Ni4  1  0.35986400  0.51948300  0.25000000  1
  Ni  Ni5  1  0.54361600  0.00694600  0.75000000  1
  Ni  Ni6  1  0.19931700  0.95701900  0.75000000  1
  Ni  Ni7  1  0.00694600  0.46332900  0.25000000  1
  Ni  Ni8  1  0.11420400  0.93963900  0.25000000  1
  Ni  Ni9  1  0.95701900  0.75770200  0.25000000  1
  Ni  Ni10  1  0.93422100  0.89881700  0.25000000  1
  Ni  Ni11  1  0.13569800  0.78835800  0.25000000  1
  Ni  Ni12  1  0.33333300  0.66666700  0.25000000  1
  Ni  Ni13  1  0.04298100  0.24229800  0.75000000  1
  Ni  Ni14  1  0.45638400  0.99305400  0.25000000  1
  Ni  Ni15  1  0.03540400  0.93422100  0.75000000  1
  Ni  Ni16  1  0.53667100  0.54361600  0.25000000  1
  Ni  Ni17  1  0.10118300  0.03540400  0.25000000  1
  Ni  Ni18  1  0.96459600  0.06577900  0.25000000  1
  Ni  Ni19  1  0.64013600  0.48051700  0.75000000  1
  Ni  Ni20  1  0.81448300  0.50653400  0.75000000  1
  Ni  Ni21  1  0.31627600  0.28523000  0.75000000  1
  Ni  Ni22  1  0.24229800  0.19931700  0.25000000  1
  Ni  Ni23  1  0.34734100  0.13569800  0.75000000  1
  Ni  Ni24  1  0.03104600  0.31627600  0.25000000  1
  Ni  Ni25  1  0.49346600  0.30794900  0.75000000  1
  Ni  Ni26  1  0.51948300  0.15961900  0.75000000  1
  Ni  Ni27  1  0.99305400  0.53667100  0.75000000  1
  Ni  Ni28  1  0.38950000  0.37012800  0.25000000  1
  Ni  Ni29  1  0.46332900  0.45638400  0.75000000  1
  Ni  Ni30  1  0.71477000  0.03104600  0.75000000  1
  Ni  Ni31  1  0.98062800  0.61050000  0.25000000  1
  Ni  Ni32  1  0.06036100  0.17456500  0.25000000  1
  Ni  Ni33  1  0.15961900  0.64013600  0.25000000  1
  Ni  Ni34  1  0.01937200  0.38950000  0.75000000  1
  Ni  Ni35  1  0.86430200  0.21164200  0.75000000  1
  Ni  Ni36  1  0.69205100  0.18551700  0.75000000  1
  Ni  Ni37  1  0.82543500  0.88579600  0.25000000  1
  Ni  Ni38  1  0.66666700  0.33333300  0.75000000  1
  Ni  Ni39  1  0.96895400  0.68372400  0.75000000  1
  Ni  Ni40  1  0.78835800  0.65265900  0.75000000  1
  Ni  Ni41  1  0.93963900  0.82543500  0.75000000  1
  Ni  Ni42  1  0.21164200  0.34734100  0.25000000  1
  Ni  Ni43  1  0.18551700  0.49346600  0.25000000  1
  Ni  Ni44  1  0.88579600  0.06036100  0.75000000  1
  Ni  Ni45  1  0.61050000  0.62987200  0.75000000  1
  Ni  Ni46  1  0.17456500  0.11420400  0.75000000  1
  Ni  Ni47  1  0.06577900  0.10118300  0.75000000  1
  Ni  Ni48  1  0.75770200  0.80068300  0.75000000  1
  Ni  Ni49  1  0.28523000  0.96895400  0.25000000  1
  Ni  Ni50  1  0.89881700  0.96459600  0.75000000  1
  Ni  Ni51  1  0.68372400  0.71477000  0.25000000  1
  Ni  Ni52  1  0.62987200  0.01937200  0.25000000  1
  Ni  Ni53  1  0.84038100  0.35986400  0.75000000  1
  Ni  Ni54  1  0.50653400  0.69205100  0.25000000  1
  Ni  Ni55  1  0.48051700  0.84038100  0.25000000  1
  P  P0  1  0.57275100  0.65252000  0.25000000  1
  P  P1  1  0.92023100  0.57275100  0.75000000  1
  P  P2  1  0.05338400  0.57436300  0.25000000  1
  P  P3  1  0.82291000  0.10606700  0.75000000  1
  P  P4  1  0.86190200  0.99327300  0.25000000  1
  P  P5  1  0.47902100  0.05338400  0.75000000  1
  P  P6  1  0.13137100  0.13809800  0.25000000  1
  P  P7  1  0.62531800  0.22573200  0.75000000  1
  P  P8  1  0.89393300  0.71684200  0.75000000  1
  P  P9  1  0.71684200  0.82291000  0.25000000  1
  P  P10  1  0.52097900  0.94661600  0.25000000  1
  P  P11  1  0.79791000  0.25262700  0.75000000  1
  P  P12  1  0.86862900  0.86190200  0.75000000  1
  P  P13  1  0.39958600  0.62531800  0.25000000  1
  P  P14  1  0.72170300  0.69147900  0.75000000  1
  P  P15  1  0.37468200  0.77426800  0.25000000  1
  P  P16  1  0.25262700  0.45471700  0.25000000  1
  P  P17  1  0.74737300  0.54528300  0.75000000  1
  P  P18  1  0.22573200  0.60041400  0.25000000  1
  P  P19  1  0.94661600  0.42563700  0.75000000  1
  P  P20  1  0.57436300  0.52097900  0.75000000  1
  P  P21  1  0.45471700  0.20209000  0.75000000  1
  P  P22  1  0.00672700  0.86862900  0.25000000  1
  P  P23  1  0.27829700  0.30852100  0.25000000  1
  P  P24  1  0.42724900  0.34748000  0.75000000  1
  P  P25  1  0.17709000  0.89393300  0.25000000  1
  P  P26  1  0.28315800  0.17709000  0.75000000  1
  P  P27  1  0.42563700  0.47902100  0.25000000  1
  P  P28  1  0.60041400  0.37468200  0.75000000  1
  P  P29  1  0.34748000  0.92023100  0.25000000  1
  P  P30  1  0.10606700  0.28315800  0.25000000  1
  P  P31  1  0.03022400  0.72170300  0.25000000  1
  P  P32  1  0.07976900  0.42724900  0.25000000  1
  P  P33  1  0.77426800  0.39958600  0.75000000  1
  P  P34  1  0.30852100  0.03022400  0.75000000  1
  P  P35  1  0.20209000  0.74737300  0.25000000  1
  P  P36  1  0.54528300  0.79791000  0.25000000  1
  P  P37  1  0.99327300  0.13137100  0.75000000  1
  P  P38  1  0.96977600  0.27829700  0.75000000  1
  P  P39  1  0.69147900  0.96977600  0.25000000  1
  P  P40  1  0.65252000  0.07976900  0.75000000  1
  P  P41  1  0.13809800  0.00672700  0.75000000  1
loop_
_geom_bond_atom_site_label_1
_geom_bond_atom_site_label_2
_geom_bond_distance
_geom_bond_site_symmetry_2
Ni0 P9 2.215432 1_555
Ni0 P39 2.221665 1_555
Ni0 P36 2.256695 1_555
Ni0 Tb3 2.928433 1_555
Ni0 Tb3 2.928433 1_554
Ni0 Tb24 2.950102 1_555
Ni0 Tb24 2.950102 1_554
Ni0 Tb6 2.971518 1_554
Ni0 Tb6 2.971518 1_555
Ni1 P4 2.314011 1_545
Ni1 P39 2.317566 1_545
Ni1 P3 2.333009 1_554
Ni1 P3 2.333009 1_555
Ni1 Tb3 3.052374 1_544
Ni1 Tb3 3.052374 1_545
Ni1 Tb29 3.098443 1_555
Ni1 Tb5 3.104767 1_555
Ni2 P29 2.298203 1_555
Ni2 P29 2.298203 1_556
Ni2 P5 2.309857 1_565
Ni2 P34 2.320114 1_565
Ni2 Tb12 3.045073 1_555
Ni2 Tb11 3.045830 1_566
Ni2 Tb11 3.045830 1_565
Ni2 Tb22 3.054592 1_555
Ni3 P29 2.225274 1_555
Ni3 P35 2.230551 1_555
Ni3 P15 2.249717 1_555
Ni3 Tb12 2.942199 1_554
Ni3 Tb12 2.942199 1_555
Ni3 Tb22 2.961792 1_554
Ni3 Tb22 2.961792 1_555
Ni3 Tb15 2.967358 1_554
Ni3 Tb15 2.967358 1_555
Ni4 P13 2.226559 1_555
Ni4 P27 2.232997 1_555
Ni4 P16 2.249060 1_555
Ni4 Tb21 2.942875 1_555
Ni4 Tb21 2.942875 1_554
Ni4 Tb28 2.954567 1_555
Ni4 Tb28 2.954567 1_554
Ni4 Tb2 2.967525 1_555
Ni4 Tb2 2.967525 1_554
Ni5 P10 2.297397 1_546
Ni5 P10 2.297397 1_545
Ni5 P40 2.310364 1_555
Ni5 P5 2.322358 1_555
Ni5 Tb18 3.017350 1_555
Ni5 Tb18 3.017350 1_556
Ni5 Tb22 3.043420 1_545
Ni5 Tb6 3.064514 1_545
Ni6 P41 2.314011 1_565
Ni6 P34 2.317566 1_565
Ni6 P25 2.333009 1_556
Ni6 P25 2.333009 1_555
Ni6 Tb27 3.052374 1_565
Ni6 Tb27 3.052374 1_566
Ni6 Tb12 3.098443 1_555
Ni6 Tb4 3.104767 1_555
Ni7 P19 2.297395 1_454
Ni7 P19 2.297395 1_455
Ni7 P32 2.310346 1_555
Ni7 P2 2.322380 1_555
Ni7 Tb1 3.017355 1_554
Ni7 Tb1 3.017355 1_555
Ni7 Tb19 3.043420 1_455
Ni7 Tb26 3.064496 1_455
Ni8 P25 2.270660 1_555
Ni8 P22 2.276233 1_555
Ni8 P41 2.381698 1_565
Ni8 P41 2.381698 1_564
Ni8 Tb4 3.024175 1_555
Ni8 Tb4 3.024175 1_554
Ni8 Tb27 3.104742 1_565
Ni9 P22 2.314011 1_655
Ni9 P31 2.317566 1_655
Ni9 P8 2.333011 1_555
Ni9 P8 2.333011 1_554
Ni9 Tb4 3.052374 1_655
Ni9 Tb4 3.052374 1_654
Ni9 Tb16 3.098443 1_555
Ni9 Tb25 3.104767 1_555
Ni10 P22 2.198118 1_655
Ni10 P12 2.354228 1_555
Ni10 P12 2.354228 1_554
Ni10 Tb25 3.055906 1_555
Ni11 P25 2.215432 1_555
Ni11 P31 2.221669 1_555
Ni11 P35 2.256714 1_555
Ni11 Tb4 2.928419 1_555
Ni11 Tb4 2.928419 1_554
Ni11 Tb12 2.950099 1_554
Ni11 Tb12 2.950099 1_555
Ni11 Tb7 2.971535 1_554
Ni11 Tb7 2.971535 1_555
Ni12 P15 2.260525 1_555
Ni12 P18 2.260528 1_555
Ni12 P13 2.260547 1_555
Ni12 Tb15 2.937012 1_554
Ni12 Tb15 2.937012 1_555
Ni12 Tb17 2.937026 1_554
Ni12 Tb17 2.937026 1_555
Ni12 Tb2 2.937029 1_555
Ni12 Tb2 2.937029 1_554
Ni13 P37 2.314011 1_455
Ni13 P38 2.317566 1_455
Ni13 P30 2.333011 1_555
Ni13 P30 2.333011 1_556
Ni13 Tb5 3.052374 1_456
Ni13 Tb5 3.052374 1_455
Ni13 Tb9 3.098443 1_555
Ni13 Tb8 3.104767 1_555
Ni14 P5 2.297397 1_565
Ni14 P5 2.297397 1_564
Ni14 P29 2.310364 1_555
Ni14 P10 2.322358 1_555
Ni14 Tb22 3.017350 1_555
Ni14 Tb22 3.017350 1_554
Ni14 Tb18 3.043420 1_565
Ni14 Tb11 3.064514 1_565
Ni15 P41 2.198118 1_565
Ni15 P22 2.354228 1_555
Ni15 P22 2.354228 1_556
Ni15 Tb4 3.055906 1_555
Ni16 P20 2.297385 1_554
Ni16 P20 2.297385 1_555
Ni16 P0 2.310369 1_555
Ni16 P27 2.322378 1_555
Ni16 Tb28 3.017384 1_555
Ni16 Tb28 3.017384 1_554
Ni16 Tb23 3.043420 1_555
Ni16 Tb10 3.064491 1_555
Ni17 P6 2.198118 1_555
Ni17 P41 2.354228 1_554
Ni17 P41 2.354228 1_555
Ni17 Tb27 3.055906 1_555
Ni18 P4 2.198118 1_545
Ni18 P37 2.354228 1_555
Ni18 P37 2.354228 1_554
Ni18 Tb5 3.055906 1_555
Ni19 P28 2.226559 1_555
Ni19 P20 2.232997 1_555
Ni19 P17 2.249060 1_555
Ni19 Tb10 2.942875 1_556
Ni19 Tb10 2.942875 1_555
Ni19 Tb23 2.954567 1_555
Ni19 Tb23 2.954567 1_556
Ni19 Tb14 2.967525 1_556
Ni19 Tb14 2.967525 1_555
Ni20 P1 2.225274 1_555
Ni20 P17 2.230551 1_555
Ni20 P33 2.249717 1_555
Ni20 Tb16 2.942199 1_556
Ni20 Tb16 2.942199 1_555
Ni20 Tb19 2.961806 1_556
Ni20 Tb19 2.961806 1_555
Ni20 Tb14 2.967358 1_556
Ni20 Tb14 2.967358 1_555
Ni21 P26 2.307500 1_555
Ni21 P23 2.307816 1_555
Ni21 P23 2.307816 1_556
Ni21 P24 2.316542 1_555
Ni21 Tb21 3.035506 1_555
Ni21 Tb0 3.065012 1_555
Ni21 Tb0 3.065012 1_556
Ni21 Tb8 3.084636 1_555
Ni22 P6 2.314011 1_555
Ni22 P23 2.317566 1_555
Ni22 P26 2.333022 1_555
Ni22 P26 2.333022 1_554
Ni22 Tb8 3.052374 1_555
Ni22 Tb8 3.052374 1_554
Ni22 Tb0 3.098443 1_555
Ni22 Tb27 3.104767 1_555
Ni23 P26 2.215432 1_555
Ni23 P34 2.221665 1_555
Ni23 P21 2.256695 1_555
Ni23 Tb27 2.928433 1_555
Ni23 Tb27 2.928433 1_556
Ni23 Tb0 2.950102 1_555
Ni23 Tb0 2.950102 1_556
Ni23 Tb11 2.971518 1_556
Ni23 Tb11 2.971518 1_555
Ni24 P30 2.307477 1_555
Ni24 P38 2.307816 1_455
Ni24 P38 2.307816 1_454
Ni24 P32 2.316542 1_555
Ni24 Tb26 3.035506 1_455
Ni24 Tb9 3.065012 1_555
Ni24 Tb9 3.065012 1_554
Ni24 Tb5 3.084636 1_455
Ni25 P24 2.225274 1_555
Ni25 P21 2.230551 1_555
Ni25 P28 2.249717 1_555
Ni25 Tb0 2.942199 1_555
Ni25 Tb0 2.942199 1_556
Ni25 Tb23 2.961789 1_555
Ni25 Tb23 2.961789 1_556
Ni25 Tb13 2.967358 1_555
Ni25 Tb13 2.967358 1_556
Ni26 P7 2.226559 1_555
Ni26 P5 2.232997 1_555
Ni26 P21 2.249060 1_555
Ni26 Tb11 2.942875 1_556
Ni26 Tb11 2.942875 1_555
Ni26 Tb18 2.954582 1_556
Ni26 Tb18 2.954582 1_555
Ni26 Tb13 2.967525 1_555
Ni26 Tb13 2.967525 1_556
Ni27 P2 2.297395 1_656
Ni27 P2 2.297395 1_655
Ni27 P1 2.310346 1_555
Ni27 P19 2.322380 1_555
Ni27 Tb19 3.017355 1_556
Ni27 Tb19 3.017355 1_555
Ni27 Tb1 3.043420 1_655
Ni27 Tb7 3.064496 1_655
Ni28 P24 2.298203 1_554
Ni28 P24 2.298203 1_555
Ni28 P27 2.309857 1_555
Ni28 P23 2.320114 1_555
Ni28 Tb0 3.045073 1_555
Ni28 Tb21 3.045830 1_555
Ni28 Tb21 3.045830 1_554
Ni28 Tb23 3.054615 1_555
Ni29 P27 2.297385 1_556
Ni29 P27 2.297385 1_555
Ni29 P24 2.310369 1_555
Ni29 P20 2.322378 1_555
Ni29 Tb23 3.017384 1_555
Ni29 Tb23 3.017384 1_556
Ni29 Tb28 3.043420 1_555
Ni29 Tb21 3.064491 1_555
Ni30 P3 2.307495 1_555
Ni30 P39 2.307816 1_545
Ni30 P39 2.307816 1_546
Ni30 P40 2.316542 1_555
Ni30 Tb6 3.035505 1_545
Ni30 Tb29 3.065012 1_555
Ni30 Tb29 3.065012 1_556
Ni30 Tb3 3.084636 1_545
Ni31 P1 2.298203 1_555
Ni31 P1 2.298203 1_554
Ni31 P2 2.309857 1_655
Ni31 P31 2.320114 1_655
Ni31 Tb16 3.045073 1_555
Ni31 Tb7 3.045830 1_655
Ni31 Tb7 3.045830 1_654
Ni31 Tb19 3.054610 1_555
Ni32 P30 2.270682 1_555
Ni32 P6 2.276233 1_555
Ni32 P37 2.381698 1_454
Ni32 P37 2.381698 1_455
Ni32 Tb8 3.024175 1_555
Ni32 Tb8 3.024175 1_554
Ni32 Tb5 3.104742 1_455
Ni33 P18 2.226559 1_555
Ni33 P2 2.232997 1_555
Ni33 P35 2.249060 1_555
Ni33 Tb7 2.942875 1_554
Ni33 Tb7 2.942875 1_555
Ni33 Tb1 2.954565 1_554
Ni33 Tb1 2.954565 1_555
Ni33 Tb15 2.967525 1_554
Ni33 Tb15 2.967525 1_555
Ni34 P32 2.298203 1_556
Ni34 P32 2.298203 1_555
Ni34 P19 2.309857 1_455
Ni34 P38 2.320114 1_455
Ni34 Tb9 3.045073 1_555
Ni34 Tb26 3.045830 1_456
Ni34 Tb26 3.045830 1_455
Ni34 Tb1 3.054610 1_555
Ni35 P3 2.215432 1_555
Ni35 P38 2.221669 1_555
Ni35 P11 2.256714 1_555
Ni35 Tb5 2.928419 1_555
Ni35 Tb5 2.928419 1_556
Ni35 Tb29 2.950099 1_555
Ni35 Tb29 2.950099 1_556
Ni35 Tb26 2.971535 1_555
Ni35 Tb26 2.971535 1_556
Ni36 P40 2.225274 1_555
Ni36 P11 2.230551 1_555
Ni36 P7 2.249717 1_555
Ni36 Tb29 2.942199 1_555
Ni36 Tb29 2.942199 1_556
Ni36 Tb18 2.961792 1_555
Ni36 Tb18 2.961792 1_556
Ni36 Tb20 2.967358 1_556
Ni36 Tb20 2.967358 1_555
Ni37 P9 2.270680 1_555
Ni37 P4 2.276233 1_555
Ni37 P12 2.381698 1_555
Ni37 P12 2.381698 1_554
Ni37 Tb3 3.024175 1_554
Ni37 Tb3 3.024175 1_555
Ni37 Tb25 3.104742 1_555
Ni38 P7 2.260525 1_555
Ni38 P33 2.260528 1_555
Ni38 P28 2.260547 1_555
Ni38 Tb20 2.937012 1_556
Ni38 Tb20 2.937012 1_555
Ni38 Tb13 2.937026 1_555
Ni38 Tb13 2.937026 1_556
Ni38 Tb14 2.937029 1_555
Ni38 Tb14 2.937029 1_556
Ni39 P8 2.307477 1_555
Ni39 P31 2.307816 1_656
Ni39 P31 2.307816 1_655
Ni39 P1 2.316542 1_555
Ni39 Tb7 3.035506 1_655
Ni39 Tb16 3.065012 1_555
Ni39 Tb16 3.065012 1_556
Ni39 Tb4 3.084636 1_655
Ni40 P8 2.215432 1_555
Ni40 P14 2.221688 1_555
Ni40 P17 2.256691 1_555
Ni40 Tb25 2.928436 1_555
Ni40 Tb25 2.928436 1_556
Ni40 Tb16 2.950085 1_556
Ni40 Tb16 2.950085 1_555
Ni40 Tb10 2.971533 1_556
Ni40 Tb10 2.971533 1_555
Ni41 P8 2.270682 1_555
Ni41 P12 2.276233 1_555
Ni41 P22 2.381698 1_655
Ni41 P22 2.381698 1_656
Ni41 Tb25 3.024175 1_555
Ni41 Tb25 3.024175 1_556
Ni41 Tb4 3.104742 1_655
Ni42 P30 2.215432 1_555
Ni42 P23 2.221688 1_555
Ni42 P16 2.256691 1_555
Ni42 Tb8 2.928436 1_555
Ni42 Tb8 2.928436 1_554
Ni42 Tb9 2.950085 1_555
Ni42 Tb9 2.950085 1_554
Ni42 Tb21 2.971533 1_555
Ni42 Tb21 2.971533 1_554
Ni43 P32 2.225274 1_555
Ni43 P16 2.230551 1_555
Ni43 P18 2.249717 1_555
Ni43 Tb9 2.942199 1_555
Ni43 Tb9 2.942199 1_554
Ni43 Tb1 2.961806 1_554
Ni43 Tb1 2.961806 1_555
Ni43 Tb2 2.967358 1_555
Ni43 Tb2 2.967358 1_554
Ni44 P3 2.270660 1_555
Ni44 P37 2.276233 1_555
Ni44 P4 2.381698 1_546
Ni44 P4 2.381698 1_545
Ni44 Tb5 3.024175 1_555
Ni44 Tb5 3.024175 1_556
Ni44 Tb3 3.104742 1_545
Ni45 P0 2.298203 1_556
Ni45 P0 2.298203 1_555
Ni45 P20 2.309857 1_555
Ni45 P14 2.320114 1_555
Ni45 Tb24 3.045073 1_555
Ni45 Tb10 3.045830 1_556
Ni45 Tb10 3.045830 1_555
Ni45 Tb28 3.054615 1_555
Ni46 P26 2.270680 1_555
Ni46 P41 2.276233 1_555
Ni46 P6 2.381698 1_556
Ni46 P6 2.381698 1_555
Ni46 Tb27 3.024175 1_555
Ni46 Tb27 3.024175 1_556
Ni46 Tb8 3.104742 1_555
Ni47 P37 2.198118 1_455
Ni47 P6 2.354228 1_555
Ni47 P6 2.354228 1_556
Ni47 Tb8 3.055906 1_555
Ni48 P12 2.314011 1_555
Ni48 P14 2.317566 1_555
Ni48 P9 2.333022 1_555
Ni48 P9 2.333022 1_556
Ni48 Tb25 3.052374 1_555
Ni48 Tb25 3.052374 1_556
Ni48 Tb24 3.098443 1_555
Ni48 Tb3 3.104767 1_555
Ni49 P25 2.307495 1_555
Ni49 P34 2.307816 1_564
Ni49 P34 2.307816 1_565
Ni49 P29 2.316542 1_555
Ni49 Tb11 3.035505 1_565
Ni49 Tb12 3.065012 1_554
Ni49 Tb12 3.065012 1_555
Ni49 Tb27 3.084636 1_565
Ni50 P12 2.198118 1_555
Ni50 P4 2.354228 1_556
Ni50 P4 2.354228 1_555
Ni50 Tb3 3.055906 1_555
Ni51 P9 2.307500 1_555
Ni51 P14 2.307816 1_554
Ni51 P14 2.307816 1_555
Ni51 P0 2.316542 1_555
Ni51 Tb10 3.035506 1_555
Ni51 Tb24 3.065012 1_555
Ni51 Tb24 3.065012 1_554
Ni51 Tb25 3.084636 1_555
Ni52 P40 2.298203 1_554
Ni52 P40 2.298203 1_555
Ni52 P10 2.309857 1_545
Ni52 P39 2.320114 1_545
Ni52 Tb29 3.045073 1_555
Ni52 Tb6 3.045830 1_544
Ni52 Tb6 3.045830 1_545
Ni52 Tb18 3.054592 1_555
Ni53 P33 2.226559 1_555
Ni53 P19 2.232997 1_555
Ni53 P11 2.249060 1_555
Ni53 Tb26 2.942875 1_556
Ni53 Tb26 2.942875 1_555
Ni53 Tb19 2.954565 1_556
Ni53 Tb19 2.954565 1_555
Ni53 Tb20 2.967525 1_555
Ni53 Tb20 2.967525 1_556
Ni54 P0 2.225274 1_555
Ni54 P36 2.230551 1_555
Ni54 P13 2.249717 1_555
Ni54 Tb24 2.942199 1_555
Ni54 Tb24 2.942199 1_554
Ni54 Tb28 2.961789 1_555
Ni54 Tb28 2.961789 1_554
Ni54 Tb17 2.967358 1_554
Ni54 Tb17 2.967358 1_555
Ni55 P15 2.226559 1_555
Ni55 P10 2.232997 1_555
Ni55 P36 2.249060 1_555
Ni55 Tb6 2.942875 1_554
Ni55 Tb6 2.942875 1_555
Ni55 Tb22 2.954582 1_554
Ni55 Tb22 2.954582 1_555
Ni55 Tb17 2.967525 1_555
Ni55 Tb17 2.967525 1_554
P0 Tb24 2.924211 1_555
P0 Tb24 2.924211 1_554
P0 Tb28 2.939104 1_555
P0 Tb28 2.939104 1_554
P1 Tb16 2.924211 1_555
P1 Tb16 2.924211 1_556
P1 Tb19 2.939107 1_556
P1 Tb19 2.939107 1_555
P2 Tb1 2.931409 1_554
P2 Tb1 2.931409 1_555
P2 Tb7 2.934337 1_555
P2 Tb7 2.934337 1_554
P3 Tb29 2.908462 1_555
P3 Tb29 2.908462 1_556
P3 Tb5 2.953644 1_555
P3 Tb5 2.953644 1_556
P4 Tb3 2.902290 1_554
P4 Tb3 2.902290 1_555
P5 Tb18 2.931423 1_555
P5 Tb18 2.931423 1_556
P5 Tb11 2.934337 1_556
P5 Tb11 2.934337 1_555
P6 Tb8 2.902290 1_555
P6 Tb8 2.902290 1_554
P7 Tb13 2.940033 1_555
P7 Tb13 2.940033 1_556
P7 Tb20 2.959853 1_556
P7 Tb20 2.959853 1_555
P7 Tb18 2.971711 1_556
P7 Tb18 2.971711 1_555
P8 Tb16 2.908446 1_556
P8 Tb16 2.908446 1_555
P8 Tb25 2.953658 1_555
P8 Tb25 2.953658 1_556
P9 Tb24 2.908448 1_555
P9 Tb24 2.908448 1_554
P9 Tb3 2.953641 1_555
P9 Tb3 2.953641 1_554
P10 Tb22 2.931423 1_555
P10 Tb22 2.931423 1_554
P10 Tb6 2.934337 1_554
P10 Tb6 2.934337 1_555
P11 Tb20 2.938048 1_556
P11 Tb20 2.938048 1_555
P11 Tb29 2.968732 1_555
P11 Tb29 2.968732 1_556
P11 Tb26 2.981834 1_555
P11 Tb26 2.981834 1_556
P12 Tb25 2.902290 1_555
P12 Tb25 2.902290 1_556
P13 Tb2 2.940033 1_555
P13 Tb2 2.940033 1_554
P13 Tb17 2.959853 1_554
P13 Tb17 2.959853 1_555
P13 Tb28 2.971693 1_555
P13 Tb28 2.971693 1_554
P14 Tb10 2.913759 1_555
P14 Tb10 2.913759 1_556
P14 Tb25 2.945032 1_555
P14 Tb25 2.945032 1_556
P15 Tb17 2.940033 1_555
P15 Tb17 2.940033 1_554
P15 Tb15 2.959853 1_555
P15 Tb15 2.959853 1_554
P15 Tb22 2.971711 1_554
P15 Tb22 2.971711 1_555
P16 Tb2 2.938048 1_555
P16 Tb2 2.938048 1_554
P16 Tb9 2.968732 1_555
P16 Tb9 2.968732 1_554
P16 Tb21 2.981834 1_555
P16 Tb21 2.981834 1_554
P17 Tb14 2.938048 1_555
P17 Tb14 2.938048 1_556
P17 Tb16 2.968732 1_556
P17 Tb16 2.968732 1_555
P17 Tb10 2.981834 1_556
P17 Tb10 2.981834 1_555
P18 Tb15 2.940033 1_555
P18 Tb15 2.940033 1_554
P18 Tb2 2.959853 1_555
P18 Tb2 2.959853 1_554
P18 Tb1 2.971708 1_554
P18 Tb1 2.971708 1_555
P19 Tb19 2.931409 1_556
P19 Tb19 2.931409 1_555
P19 Tb26 2.934337 1_555
P19 Tb26 2.934337 1_556
P20 Tb23 2.931426 1_555
P20 Tb23 2.931426 1_556
P20 Tb10 2.934337 1_556
P20 Tb10 2.934337 1_555
P21 Tb13 2.938048 1_555
P21 Tb13 2.938048 1_556
P21 Tb0 2.968732 1_555
P21 Tb0 2.968732 1_556
P21 Tb11 2.981834 1_556
P21 Tb11 2.981834 1_555
P22 Tb4 2.902290 1_555
P22 Tb4 2.902290 1_554
P23 Tb21 2.913759 1_555
P23 Tb21 2.913759 1_554
P23 Tb8 2.945032 1_555
P23 Tb8 2.945032 1_554
P24 Tb0 2.924211 1_555
P24 Tb0 2.924211 1_556
P24 Tb23 2.939104 1_556
P24 Tb23 2.939104 1_555
P25 Tb12 2.908462 1_554
P25 Tb12 2.908462 1_555
P25 Tb4 2.953644 1_554
P25 Tb4 2.953644 1_555
P26 Tb0 2.908448 1_556
P26 Tb0 2.908448 1_555
P26 Tb27 2.953641 1_555
P26 Tb27 2.953641 1_556
P27 Tb28 2.931426 1_555
P27 Tb28 2.931426 1_554
P27 Tb21 2.934337 1_555
P27 Tb21 2.934337 1_554
P28 Tb14 2.940033 1_556
P28 Tb14 2.940033 1_555
P28 Tb13 2.959853 1_555
P28 Tb13 2.959853 1_556
P28 Tb23 2.971693 1_555
P28 Tb23 2.971693 1_556
P29 Tb12 2.924211 1_554
P29 Tb12 2.924211 1_555
P29 Tb22 2.939090 1_555
P29 Tb22 2.939090 1_554
P30 Tb9 2.908446 1_555
P30 Tb9 2.908446 1_554
P30 Tb8 2.953658 1_555
P30 Tb8 2.953658 1_554
P31 Tb7 2.913759 1_554
P31 Tb7 2.913759 1_555
P31 Tb4 2.945032 1_555
P31 Tb4 2.945032 1_554
P32 Tb9 2.924211 1_555
P32 Tb9 2.924211 1_554
P32 Tb1 2.939107 1_554
P32 Tb1 2.939107 1_555
P33 Tb20 2.940033 1_556
P33 Tb20 2.940033 1_555
P33 Tb14 2.959853 1_556
P33 Tb14 2.959853 1_555
P33 Tb19 2.971708 1_556
P33 Tb19 2.971708 1_555
P34 Tb11 2.913759 1_556
P34 Tb11 2.913759 1_555
P34 Tb27 2.945032 1_555
P34 Tb27 2.945032 1_556
P35 Tb15 2.938048 1_555
P35 Tb15 2.938048 1_554
P35 Tb12 2.968732 1_554
P35 Tb12 2.968732 1_555
P35 Tb7 2.981834 1_554
P35 Tb7 2.981834 1_555
P36 Tb17 2.938048 1_554
P36 Tb17 2.938048 1_555
P36 Tb24 2.968732 1_555
P36 Tb24 2.968732 1_554
P36 Tb6 2.981834 1_554
P36 Tb6 2.981834 1_555
P37 Tb5 2.902290 1_555
P37 Tb5 2.902290 1_556
P38 Tb26 2.913759 1_555
P38 Tb26 2.913759 1_556
P38 Tb5 2.945032 1_555
P38 Tb5 2.945032 1_556
P39 Tb6 2.913759 1_554
P39 Tb6 2.913759 1_555
P39 Tb3 2.945032 1_554
P39 Tb3 2.945032 1_555
P40 Tb29 2.924211 1_556
P40 Tb29 2.924211 1_555
P40 Tb18 2.939090 1_556
P40 Tb18 2.939090 1_555
P41 Tb27 2.902290 1_556
P41 Tb27 2.902290 1_555
