# generated using pymatgen
data_NbHO3
_symmetry_space_group_name_H-M   'P 1'
_cell_length_a   6.75610400
_cell_length_b   6.79088268
_cell_length_c   6.76769423
_cell_angle_alpha   109.85035248
_cell_angle_beta   109.30557642
_cell_angle_gamma   108.82538047
_symmetry_Int_Tables_number   1
_chemical_formula_structural   NbHO3
_chemical_formula_sum   'Nb4 H4 O12'
_cell_volume   240.27639176
_cell_formula_units_Z   4
loop_
 _symmetry_equiv_pos_site_id
 _symmetry_equiv_pos_as_xyz
  1  'x, y, z'
loop_
 _atom_site_type_symbol
 _atom_site_label
 _atom_site_symmetry_multiplicity
 _atom_site_fract_x
 _atom_site_fract_y
 _atom_site_fract_z
 _atom_site_occupancy
  Nb  Nb0  1  0.45911300  0.96847700  0.98290400  1
  Nb  Nb1  1  0.98512000  0.96838800  0.47641900  1
  Nb  Nb2  1  0.98001400  0.45526500  0.97496200  1
  Nb  Nb3  1  0.53584400  0.52962800  0.53644800  1
  H  H0  1  0.82169800  0.26210200  0.44140500  1
  H  H1  1  0.17950100  0.62923700  0.43819300  1
  H  H2  1  0.44254700  0.18213500  0.62717900  1
  H  H3  1  0.51713500  0.39816100  0.11354800  1
  O  O0  1  0.20430900  0.90454400  0.69163900  1
  O  O1  1  0.79824900  0.11585000  0.31542400  1
  O  O2  1  0.20187300  0.51851700  0.31964500  1
  O  O3  1  0.79685200  0.49445700  0.69653100  1
  O  O4  1  0.69838300  0.21842000  0.91512100  1
  O  O5  1  0.27846800  0.79216200  0.07086000  1
  O  O6  1  0.32445300  0.20964600  0.52283200  1
  O  O7  1  0.71577500  0.78576900  0.50121900  1
  O  O8  1  0.91407600  0.72394600  0.19611300  1
  O  O9  1  0.08164600  0.27984600  0.80085100  1
  O  O10  1  0.47847900  0.30017200  0.18755100  1
  O  O11  1  0.52349500  0.72798100  0.80469900  1
loop_
_geom_bond_atom_site_label_1
_geom_bond_atom_site_label_2
_geom_bond_distance
_geom_bond_site_symmetry_2
Nb0 O5 1.816253 1_556
Nb0 O0 1.931398 1_555
Nb0 O11 1.943879 1_555
Nb0 O10 2.140184 1_566
Nb0 O1 2.212895 1_566
Nb0 O4 2.225513 1_565
Nb1 O8 1.824763 1_555
Nb1 O7 1.940207 1_555
Nb1 O0 1.979765 1_655
Nb1 O1 2.105056 1_565
Nb1 O9 2.174609 1_665
Nb1 O6 2.188393 1_665
Nb2 O9 1.840811 1_655
Nb2 O4 1.855902 1_555
Nb2 O3 2.040637 1_555
Nb2 O2 2.113013 1_656
Nb2 O5 2.206879 1_656
Nb2 O8 2.208725 1_556
Nb3 O3 1.877414 1_555
Nb3 O11 1.905025 1_555
Nb3 O7 1.915424 1_555
Nb3 O6 2.131692 1_555
Nb3 O10 2.158720 1_555
Nb3 O2 2.208059 1_555
H0 O1 0.986154 1_555
H1 O2 0.987780 1_555
H2 O6 0.991678 1_555
H3 O10 0.981070 1_555
