# generated using pymatgen
data_Nd5(FeB)18
_symmetry_space_group_name_H-M   'P 1'
_cell_length_a   7.06666706
_cell_length_b   7.07183587
_cell_length_c   34.70381100
_cell_angle_alpha   90.00000000
_cell_angle_beta   90.00000000
_cell_angle_gamma   90.00000000
_symmetry_Int_Tables_number   1
_chemical_formula_structural   Nd5(FeB)18
_chemical_formula_sum   'Nd20 Fe72 B72'
_cell_volume   1734.29899508
_cell_formula_units_Z   4
loop_
 _symmetry_equiv_pos_site_id
 _symmetry_equiv_pos_as_xyz
  1  'x, y, z'
loop_
 _atom_site_type_symbol
 _atom_site_label
 _atom_site_symmetry_multiplicity
 _atom_site_fract_x
 _atom_site_fract_y
 _atom_site_fract_z
 _atom_site_occupancy
  Nd  Nd0  1  0.25000000  0.75000000  0.07763432  1
  Nd  Nd1  1  0.25000000  0.75000000  0.77661288  1
  Nd  Nd2  1  0.75000000  0.25000000  0.52377292  1
  Nd  Nd3  1  0.25000000  0.75000000  0.17794108  1
  Nd  Nd4  1  0.25000000  0.75000000  0.57763432  1
  Nd  Nd5  1  0.75000000  0.25000000  0.22338712  1
  Nd  Nd6  1  0.75000000  0.25000000  0.92236568  1
  Nd  Nd7  1  0.25000000  0.75000000  0.27661288  1
  Nd  Nd8  1  0.25000000  0.75000000  0.97622708  1
  Nd  Nd9  1  0.75000000  0.25000000  0.32205892  1
  Nd  Nd10  1  0.75000000  0.25000000  0.72338712  1
  Nd  Nd11  1  0.25000000  0.75000000  0.87551705  1
  Nd  Nd12  1  0.25000000  0.75000000  0.37551705  1
  Nd  Nd13  1  0.75000000  0.25000000  0.02377292  1
  Nd  Nd14  1  0.25000000  0.75000000  0.47622708  1
  Nd  Nd15  1  0.25000000  0.75000000  0.67794108  1
  Nd  Nd16  1  0.75000000  0.25000000  0.12448295  1
  Nd  Nd17  1  0.75000000  0.25000000  0.62448295  1
  Nd  Nd18  1  0.75000000  0.25000000  0.42236568  1
  Nd  Nd19  1  0.75000000  0.25000000  0.82205892  1
  Fe  Fe0  1  0.36719056  0.12550952  0.40453662  1
  Fe  Fe1  1  0.11732218  0.36216017  0.07102983  1
  Fe  Fe2  1  0.63605022  0.61957103  0.76317225  1
  Fe  Fe3  1  0.86394978  0.61957103  0.26317225  1
  Fe  Fe4  1  0.86197393  0.61695947  0.37379116  1
  Fe  Fe5  1  0.87591614  0.86674808  0.20737045  1
  Fe  Fe6  1  0.12890670  0.37167397  0.84861209  1
  Fe  Fe7  1  0.86313723  0.88071636  0.98428421  1
  Fe  Fe8  1  0.36394978  0.38042897  0.23682775  1
  Fe  Fe9  1  0.37867290  0.36474051  0.46023332  1
  Fe  Fe10  1  0.63280944  0.87449048  0.59546338  1
  Fe  Fe11  1  0.36719056  0.37449048  0.90453662  1
  Fe  Fe12  1  0.38218615  0.13757724  0.18143199  1
  Fe  Fe13  1  0.13280944  0.37449048  0.40453662  1
  Fe  Fe14  1  0.87867290  0.63525949  0.03976668  1
  Fe  Fe15  1  0.38267782  0.36216017  0.57102983  1
  Fe  Fe16  1  0.86197393  0.88304053  0.87379116  1
  Fe  Fe17  1  0.61732218  0.86216017  0.92897017  1
  Fe  Fe18  1  0.87591614  0.63325192  0.70737045  1
  Fe  Fe19  1  0.86313723  0.61928364  0.48428421  1
  Fe  Fe20  1  0.63605022  0.88042897  0.26317225  1
  Fe  Fe21  1  0.37591614  0.13325192  0.29262955  1
  Fe  Fe22  1  0.36197393  0.11695947  0.62620884  1
  Fe  Fe23  1  0.38218615  0.36242276  0.68143199  1
  Fe  Fe24  1  0.61781385  0.86242276  0.81856801  1
  Fe  Fe25  1  0.36313723  0.11928364  0.51571579  1
  Fe  Fe26  1  0.12890670  0.12832603  0.34861209  1
  Fe  Fe27  1  0.36313723  0.38071636  0.01571579  1
  Fe  Fe28  1  0.61732218  0.63783983  0.42897017  1
  Fe  Fe29  1  0.62408386  0.63325192  0.20737045  1
  Fe  Fe30  1  0.36394978  0.11957103  0.73682775  1
  Fe  Fe31  1  0.62408386  0.86674808  0.70737045  1
  Fe  Fe32  1  0.63686277  0.88071636  0.48428421  1
  Fe  Fe33  1  0.86394978  0.88042897  0.76317225  1
  Fe  Fe34  1  0.88267782  0.63783983  0.92897017  1
  Fe  Fe35  1  0.62890670  0.62832603  0.65138791  1
  Fe  Fe36  1  0.37867290  0.13525949  0.96023332  1
  Fe  Fe37  1  0.63280944  0.62550952  0.09546338  1
  Fe  Fe38  1  0.63686277  0.61928364  0.98428421  1
  Fe  Fe39  1  0.87867290  0.86474051  0.53976668  1
  Fe  Fe40  1  0.13605022  0.38042897  0.73682775  1
  Fe  Fe41  1  0.88218615  0.63757724  0.81856801  1
  Fe  Fe42  1  0.62890670  0.87167397  0.15138791  1
  Fe  Fe43  1  0.12132710  0.36474051  0.96023332  1
  Fe  Fe44  1  0.62132710  0.63525949  0.53976668  1
  Fe  Fe45  1  0.63802607  0.61695947  0.87379116  1
  Fe  Fe46  1  0.12408386  0.36674808  0.29262955  1
  Fe  Fe47  1  0.11732218  0.13783983  0.57102983  1
  Fe  Fe48  1  0.88218615  0.86242276  0.31856801  1
  Fe  Fe49  1  0.12132710  0.13525949  0.46023332  1
  Fe  Fe50  1  0.13280944  0.12550952  0.90453662  1
  Fe  Fe51  1  0.13802607  0.38304053  0.62620884  1
  Fe  Fe52  1  0.11781385  0.13757724  0.68143199  1
  Fe  Fe53  1  0.13605022  0.11957103  0.23682775  1
  Fe  Fe54  1  0.88267782  0.86216017  0.42897017  1
  Fe  Fe55  1  0.61781385  0.63757724  0.31856801  1
  Fe  Fe56  1  0.13686277  0.38071636  0.51571579  1
  Fe  Fe57  1  0.13802607  0.11695947  0.12620884  1
  Fe  Fe58  1  0.13686277  0.11928364  0.01571579  1
  Fe  Fe59  1  0.87109330  0.62832603  0.15138791  1
  Fe  Fe60  1  0.63802607  0.88304053  0.37379116  1
  Fe  Fe61  1  0.86719056  0.62550952  0.59546338  1
  Fe  Fe62  1  0.87109330  0.87167397  0.65138791  1
  Fe  Fe63  1  0.38267782  0.13783983  0.07102983  1
  Fe  Fe64  1  0.36197393  0.38304053  0.12620884  1
  Fe  Fe65  1  0.12408386  0.13325192  0.79262955  1
  Fe  Fe66  1  0.86719056  0.87449048  0.09546338  1
  Fe  Fe67  1  0.37109330  0.37167397  0.34861209  1
  Fe  Fe68  1  0.62132710  0.86474051  0.03976668  1
  Fe  Fe69  1  0.37109330  0.12832603  0.84861209  1
  Fe  Fe70  1  0.37591614  0.36674808  0.79262955  1
  Fe  Fe71  1  0.11781385  0.36242276  0.18143199  1
  B  B0  1  0.44397572  0.08227782  0.46038033  1
  B  B1  1  0.41712639  0.44976919  0.62648463  1
  B  B2  1  0.91712639  0.94976919  0.37351537  1
  B  B3  1  0.92086361  0.93697922  0.59528386  1
  B  B4  1  0.56804229  0.92538395  0.65106962  1
  B  B5  1  0.43195771  0.42538395  0.84893038  1
  B  B6  1  0.54936572  0.58358171  0.92887086  1
  B  B7  1  0.04936572  0.41641829  0.57112914  1
  B  B8  1  0.55602428  0.58227782  0.03961967  1
  B  B9  1  0.07913639  0.43697922  0.90471614  1
  B  B10  1  0.08271652  0.44725933  0.01592880  1
  B  B11  1  0.06804229  0.07461605  0.84893038  1
  B  B12  1  0.58287361  0.94976919  0.87351537  1
  B  B13  1  0.43112170  0.07478787  0.79293492  1
  B  B14  1  0.05602428  0.41772218  0.46038033  1
  B  B15  1  0.93195771  0.92538395  0.15106962  1
  B  B16  1  0.06887830  0.07478787  0.29293492  1
  B  B17  1  0.94503289  0.58142770  0.31839189  1
  B  B18  1  0.56887830  0.92521213  0.20706508  1
  B  B19  1  0.56887830  0.57478787  0.70706508  1
  B  B20  1  0.42086361  0.43697922  0.40471614  1
  B  B21  1  0.91712639  0.55023081  0.87351537  1
  B  B22  1  0.08287361  0.44976919  0.12648463  1
  B  B23  1  0.44397572  0.41772218  0.96038033  1
  B  B24  1  0.92122443  0.55920022  0.76269795  1
  B  B25  1  0.54936572  0.91641829  0.42887086  1
  B  B26  1  0.57877557  0.55920022  0.26269795  1
  B  B27  1  0.44503289  0.41857230  0.18160811  1
  B  B28  1  0.07913639  0.06302078  0.40471614  1
  B  B29  1  0.91728348  0.94725933  0.48407120  1
  B  B30  1  0.45063428  0.08358171  0.57112914  1
  B  B31  1  0.91728348  0.55274067  0.98407120  1
  B  B32  1  0.43195771  0.07461605  0.34893038  1
  B  B33  1  0.41712639  0.05023081  0.12648463  1
  B  B34  1  0.41728348  0.05274067  0.01592880  1
  B  B35  1  0.57913639  0.56302078  0.59528386  1
  B  B36  1  0.92122443  0.94079978  0.26269795  1
  B  B37  1  0.93112170  0.57478787  0.20706508  1
  B  B38  1  0.06887830  0.42521213  0.79293492  1
  B  B39  1  0.05602428  0.08227782  0.96038033  1
  B  B40  1  0.44503289  0.08142770  0.68160811  1
  B  B41  1  0.56804229  0.57461605  0.15106962  1
  B  B42  1  0.55496711  0.58142770  0.81839189  1
  B  B43  1  0.95063428  0.58358171  0.42887086  1
  B  B44  1  0.07877557  0.44079978  0.23730205  1
  B  B45  1  0.94397572  0.91772218  0.03961967  1
  B  B46  1  0.42086361  0.06302078  0.90471614  1
  B  B47  1  0.08271652  0.05274067  0.51592880  1
  B  B48  1  0.94503289  0.91857230  0.81839189  1
  B  B49  1  0.41728348  0.44725933  0.51592880  1
  B  B50  1  0.58271652  0.55274067  0.48407120  1
  B  B51  1  0.04936572  0.08358171  0.07112914  1
  B  B52  1  0.08287361  0.05023081  0.62648463  1
  B  B53  1  0.94397572  0.58227782  0.53961967  1
  B  B54  1  0.93112170  0.92521213  0.70706508  1
  B  B55  1  0.43112170  0.42521213  0.29293492  1
  B  B56  1  0.07877557  0.05920022  0.73730205  1
  B  B57  1  0.58271652  0.94725933  0.98407120  1
  B  B58  1  0.05496711  0.41857230  0.68160811  1
  B  B59  1  0.57913639  0.93697922  0.09528386  1
  B  B60  1  0.42122443  0.44079978  0.73730205  1
  B  B61  1  0.93195771  0.57461605  0.65106962  1
  B  B62  1  0.06804229  0.42538395  0.34893038  1
  B  B63  1  0.92086361  0.56302078  0.09528386  1
  B  B64  1  0.58287361  0.55023081  0.37351537  1
  B  B65  1  0.05496711  0.08142770  0.18160811  1
  B  B66  1  0.45063428  0.41641829  0.07112914  1
  B  B67  1  0.42122443  0.05920022  0.23730205  1
  B  B68  1  0.55602428  0.91772218  0.53961967  1
  B  B69  1  0.55496711  0.91857230  0.31839189  1
  B  B70  1  0.95063428  0.91641829  0.92887086  1
  B  B71  1  0.57877557  0.94079978  0.76269795  1
loop_
_geom_bond_atom_site_label_1
_geom_bond_atom_site_label_2
_geom_bond_distance
_geom_bond_site_symmetry_2
Fe0 Nd18 2.911346 1_555
Fe1 Nd0 2.907616 1_555
Fe5 Nd3 2.951772 1_655
Fe6 Nd19 2.959582 1_455
Fe7 Nd8 2.899403 1_655
Fe9 Nd14 2.925361 1_555
Fe10 Nd4 2.911346 1_555
Fe11 Nd6 2.911346 1_555
Fe12 Nd3 2.898221 1_545
Fe13 Nd18 2.911346 1_455
Fe14 Nd13 2.925361 1_555
Fe15 Nd4 2.907616 1_555
Fe17 Nd6 2.907616 1_565
Fe18 Nd15 2.951772 1_655
Fe19 Nd14 2.899403 1_655
Fe21 Nd9 2.951772 1_555
Fe23 Nd15 2.898221 1_555
Fe24 Nd19 2.898221 1_565
Fe25 Nd2 2.899403 1_555
Fe26 Nd9 2.959582 1_455
Fe27 Nd13 2.899403 1_555
Fe28 Nd18 2.907616 1_555
Fe29 Nd3 2.951772 1_555
Fe31 Nd15 2.951772 1_555
Fe32 Nd14 2.899403 1_555
Fe34 Nd6 2.907616 1_555
Fe35 Nd15 2.959582 1_555
Fe36 Nd8 2.925361 1_545
Fe37 Nd0 2.911346 1_555
Fe38 Nd8 2.899403 1_555
Fe39 Nd2 2.925361 1_565
Fe41 Nd19 2.898221 1_555
Fe42 Nd3 2.959582 1_555
Fe43 Nd8 2.925361 1_555
Fe44 Nd2 2.925361 1_555
Fe46 Nd9 2.951772 1_455
Fe47 Nd4 2.907616 1_545
Fe48 Nd9 2.898221 1_565
Fe49 Nd14 2.925361 1_545
Fe50 Nd6 2.911346 1_455
Fe52 Nd15 2.898221 1_545
Fe54 Nd18 2.907616 1_565
Fe55 Nd9 2.898221 1_555
Fe56 Nd2 2.899403 1_455
Fe58 Nd13 2.899403 1_455
Fe59 Nd3 2.959582 1_655
Fe61 Nd4 2.911346 1_655
Fe62 Nd15 2.959582 1_655
Fe63 Nd0 2.907616 1_545
Fe65 Nd19 2.951772 1_455
Fe66 Nd0 2.911346 1_655
Fe67 Nd9 2.959582 1_555
Fe68 Nd13 2.925361 1_565
Fe69 Nd19 2.959582 1_555
Fe70 Nd19 2.951772 1_555
Fe71 Nd3 2.898221 1_555
B0 B25 1.768098 1_545
B0 Fe25 2.020538 1_555
B0 Fe0 2.035609 1_555
B0 Fe9 2.050148 1_555
B0 Fe32 2.139605 1_545
B0 Fe49 2.310636 1_555
B0 Nd14 2.775437 1_545
B0 Nd18 2.797139 1_555
B1 B35 1.767651 1_555
B1 Fe23 2.019584 1_555
B1 Fe51 2.027999 1_555
B1 Fe15 2.036366 1_555
B1 Fe35 2.140359 1_555
B1 Fe22 2.385647 1_555
B1 Nd17 2.744812 1_555
B1 Nd4 2.962557 1_555
B1 Nd15 3.015225 1_555
B2 B28 1.767651 1_665
B2 Fe48 2.019584 1_555
B2 Fe60 2.027999 1_555
B2 Fe54 2.036366 1_555
B2 Fe26 2.140359 1_665
B2 Fe4 2.385647 1_555
B2 Nd12 2.744812 1_655
B2 Nd18 2.962557 1_565
B2 Nd9 3.015225 1_565
B3 B52 1.767651 1_665
B3 Fe39 2.015411 1_555
B3 Fe62 2.031721 1_555
B3 Fe10 2.083008 1_555
B3 Fe47 2.157210 1_665
B3 Fe61 2.235089 1_555
B3 Nd17 2.717514 1_565
B3 Nd4 2.744705 1_655
B4 B40 1.759702 1_565
B4 Fe10 2.015674 1_555
B4 Fe31 2.036253 1_555
B4 Fe35 2.144352 1_555
B4 Fe22 2.168037 1_565
B4 Fe62 2.175011 1_555
B4 Nd15 2.731153 1_555
B4 Nd17 2.788296 1_565
B5 Fe11 2.015674 1_555
B5 Fe70 2.036253 1_555
B5 Fe69 2.144352 1_555
B5 Fe45 2.168037 1_555
B5 Fe6 2.175011 1_555
B5 Nd19 2.731153 1_555
B5 Nd11 2.788296 1_555
B6 Fe45 2.025339 1_555
B6 Fe17 2.027750 1_555
B6 Fe38 2.035729 1_555
B6 Fe11 2.134695 1_555
B6 Fe34 2.386457 1_555
B6 Nd6 2.761560 1_555
B6 Nd8 2.925982 1_555
B6 Nd11 3.047756 1_555
B7 Fe51 2.025339 1_555
B7 Fe47 2.027750 1_555
B7 Fe56 2.035729 1_555
B7 Fe61 2.134695 1_455
B7 Fe15 2.386457 1_555
B7 Nd4 2.761560 1_555
B7 Nd2 2.925982 1_455
B7 Nd17 3.047756 1_455
B8 Fe38 2.020538 1_554
B8 Fe37 2.035609 1_555
B8 Fe68 2.050148 1_555
B8 Fe27 2.139605 1_555
B8 Fe14 2.310636 1_555
B8 Nd13 2.775437 1_555
B8 Nd0 2.797139 1_555
B9 Fe43 2.015411 1_555
B9 Fe6 2.031721 1_555
B9 Fe11 2.083008 1_555
B9 Fe34 2.157210 1_455
B9 Fe50 2.235089 1_555
B9 Nd11 2.717514 1_555
B9 Nd6 2.744705 1_455
B10 B31 1.773540 1_454
B10 Fe1 2.019541 1_555
B10 Fe27 2.036761 1_555
B10 Fe43 2.037371 1_554
B10 Fe14 2.128627 1_455
B10 Fe58 2.350752 1_555
B10 Nd13 2.747402 1_455
B10 Nd8 2.807022 1_554
B11 B48 1.759702 1_445
B11 Fe50 2.015674 1_555
B11 Fe65 2.036253 1_555
B11 Fe6 2.144352 1_555
B11 Fe16 2.168037 1_445
B11 Fe69 2.175011 1_555
B11 Nd19 2.731153 1_455
B11 Nd11 2.788296 1_545
B12 B46 1.767651 1_565
B12 Fe24 2.019584 1_555
B12 Fe16 2.027999 1_555
B12 Fe17 2.036366 1_555
B12 Fe69 2.140359 1_565
B12 Fe45 2.385647 1_555
B12 Nd11 2.744812 1_555
B12 Nd6 2.962557 1_565
B12 Nd19 3.015225 1_565
B13 B71 1.757177 1_545
B13 Fe69 2.014132 1_555
B13 Fe30 2.029026 1_555
B13 Fe70 2.101254 1_555
B13 Fe24 2.187989 1_545
B13 Fe65 2.208800 1_555
B13 Nd1 2.689715 1_545
B13 Nd19 2.763093 1_555
B14 B43 1.768098 1_455
B14 Fe56 2.020538 1_555
B14 Fe13 2.035609 1_555
B14 Fe49 2.050148 1_555
B14 Fe19 2.139605 1_455
B14 Fe9 2.310636 1_555
B14 Nd14 2.775437 1_555
B14 Nd18 2.797139 1_455
B15 B65 1.759702 1_665
B15 Fe66 2.015674 1_555
B15 Fe5 2.036253 1_555
B15 Fe59 2.144352 1_555
B15 Fe57 2.168037 1_665
B15 Fe42 2.175011 1_555
B15 Nd3 2.731153 1_655
B15 Nd16 2.788296 1_565
B16 B36 1.757177 1_445
B16 Fe26 2.014132 1_555
B16 Fe53 2.029026 1_555
B16 Fe46 2.101254 1_555
B16 Fe48 2.187989 1_445
B16 Fe21 2.208800 1_555
B16 Nd7 2.689715 1_545
B16 Nd9 2.763093 1_455
B17 B62 1.759702 1_655
B17 Fe3 2.018268 1_555
B17 Fe4 2.025811 1_555
B17 Fe48 2.036184 1_555
B17 Fe46 2.169139 1_655
B17 Fe55 2.346202 1_555
B17 Nd9 2.721972 1_555
B17 Nd7 2.857933 1_655
B18 B67 1.757177 1_565
B18 Fe42 2.014132 1_555
B18 Fe20 2.029026 1_555
B18 Fe29 2.101254 1_555
B18 Fe12 2.187989 1_565
B18 Fe5 2.208800 1_555
B18 Nd5 2.689715 1_565
B18 Nd3 2.763093 1_555
B19 B60 1.757177 1_555
B19 Fe35 2.014132 1_555
B19 Fe2 2.029026 1_555
B19 Fe31 2.101254 1_555
B19 Fe23 2.187989 1_555
B19 Fe18 2.208800 1_555
B19 Nd10 2.689715 1_555
B19 Nd15 2.763093 1_555
B20 B64 1.767651 1_555
B20 Fe9 2.015411 1_555
B20 Fe67 2.031721 1_555
B20 Fe13 2.083008 1_555
B20 Fe28 2.157210 1_555
B20 Fe0 2.235089 1_555
B20 Nd12 2.717514 1_555
B20 Nd18 2.744705 1_555
B21 B9 1.767651 1_655
B21 Fe41 2.019584 1_555
B21 Fe45 2.027999 1_555
B21 Fe34 2.036366 1_555
B21 Fe6 2.140359 1_655
B21 Fe16 2.385647 1_555
B21 Nd11 2.744812 1_655
B21 Nd6 2.962557 1_555
B21 Nd19 3.015225 1_555
B22 B63 1.767651 1_455
B22 Fe71 2.019584 1_555
B22 Fe64 2.027999 1_555
B22 Fe1 2.036366 1_555
B22 Fe59 2.140359 1_455
B22 Fe57 2.385647 1_555
B22 Nd16 2.744812 1_455
B22 Nd0 2.962557 1_555
B22 Nd3 3.015225 1_555
B23 B6 1.768098 1_555
B23 Fe27 2.020538 1_556
B23 Fe11 2.035609 1_555
B23 Fe36 2.050148 1_555
B23 Fe38 2.139605 1_555
B23 Fe43 2.310636 1_555
B23 Nd8 2.775437 1_555
B23 Nd6 2.797139 1_555
B24 B38 1.757177 1_655
B24 Fe18 2.015799 1_555
B24 Fe41 2.035354 1_555
B24 Fe2 2.060024 1_555
B24 Fe40 2.170017 1_655
B24 Fe33 2.307510 1_555
B24 Nd1 2.729791 1_655
B24 Nd10 2.847188 1_555
B25 Fe60 2.025339 1_555
B25 Fe28 2.027750 1_555
B25 Fe32 2.035729 1_555
B25 Fe0 2.134695 1_565
B25 Fe54 2.386457 1_555
B25 Nd18 2.761560 1_565
B25 Nd14 2.925982 1_555
B25 Nd12 3.047756 1_555
B26 B55 1.757177 1_555
B26 Fe29 2.015799 1_555
B26 Fe55 2.035354 1_555
B26 Fe3 2.060024 1_555
B26 Fe8 2.170017 1_555
B26 Fe20 2.307510 1_555
B26 Nd7 2.729791 1_555
B26 Nd5 2.847188 1_555
B27 B41 1.759702 1_555
B27 Fe8 2.018268 1_555
B27 Fe64 2.025811 1_555
B27 Fe12 2.036184 1_555
B27 Fe29 2.169139 1_555
B27 Fe71 2.346202 1_555
B27 Nd3 2.721972 1_555
B27 Nd5 2.857933 1_555
B28 Fe49 2.015411 1_555
B28 Fe26 2.031721 1_555
B28 Fe0 2.083008 1_555
B28 Fe54 2.157210 1_445
B28 Fe13 2.235089 1_555
B28 Nd12 2.717514 1_545
B28 Nd18 2.744705 1_455
B29 B47 1.773540 1_665
B29 Fe54 2.019541 1_555
B29 Fe32 2.036761 1_555
B29 Fe39 2.037371 1_555
B29 Fe49 2.128627 1_665
B29 Fe19 2.350752 1_555
B29 Nd14 2.747402 1_655
B29 Nd2 2.807022 1_565
B30 B68 1.768098 1_545
B30 Fe22 2.025339 1_555
B30 Fe15 2.027750 1_555
B30 Fe25 2.035729 1_555
B30 Fe10 2.134695 1_545
B30 Fe47 2.386457 1_555
B30 Nd4 2.761560 1_545
B30 Nd2 2.925982 1_555
B30 Nd17 3.047756 1_555
B31 Fe34 2.019541 1_555
B31 Fe38 2.036761 1_555
B31 Fe14 2.037371 1_556
B31 Fe43 2.128627 1_655
B31 Fe7 2.350752 1_555
B31 Nd8 2.747402 1_655
B31 Nd13 2.807022 1_556
B32 B69 1.759702 1_545
B32 Fe0 2.015674 1_555
B32 Fe21 2.036253 1_555
B32 Fe67 2.144352 1_555
B32 Fe60 2.168037 1_545
B32 Fe26 2.175011 1_555
B32 Nd9 2.731153 1_555
B32 Nd12 2.788296 1_545
B33 B59 1.767651 1_545
B33 Fe12 2.019584 1_555
B33 Fe57 2.027999 1_555
B33 Fe63 2.036366 1_555
B33 Fe42 2.140359 1_545
B33 Fe64 2.385647 1_555
B33 Nd16 2.744812 1_555
B33 Nd0 2.962557 1_545
B33 Nd3 3.015225 1_545
B34 B57 1.773540 1_544
B34 Fe63 2.019541 1_555
B34 Fe58 2.036761 1_555
B34 Fe36 2.037371 1_554
B34 Fe68 2.128627 1_545
B34 Fe27 2.350752 1_555
B34 Nd13 2.747402 1_555
B34 Nd8 2.807022 1_544
B35 Fe44 2.015411 1_555
B35 Fe35 2.031721 1_555
B35 Fe61 2.083008 1_555
B35 Fe15 2.157210 1_555
B35 Fe10 2.235089 1_555
B35 Nd17 2.717514 1_555
B35 Nd4 2.744705 1_555
B36 Fe5 2.015799 1_555
B36 Fe48 2.035354 1_555
B36 Fe20 2.060024 1_555
B36 Fe53 2.170017 1_665
B36 Fe3 2.307510 1_555
B36 Nd7 2.729791 1_655
B36 Nd5 2.847188 1_565
B37 B44 1.757177 1_655
B37 Fe59 2.014132 1_555
B37 Fe3 2.029026 1_555
B37 Fe5 2.101254 1_555
B37 Fe71 2.187989 1_655
B37 Fe29 2.208800 1_555
B37 Nd5 2.689715 1_555
B37 Nd3 2.763093 1_655
B38 Fe6 2.014132 1_555
B38 Fe40 2.029026 1_555
B38 Fe65 2.101254 1_555
B38 Fe41 2.187989 1_455
B38 Fe70 2.208800 1_555
B38 Nd1 2.689715 1_555
B38 Nd19 2.763093 1_455
B39 B70 1.768098 1_445
B39 Fe58 2.020538 1_556
B39 Fe50 2.035609 1_555
B39 Fe43 2.050148 1_555
B39 Fe7 2.139605 1_445
B39 Fe36 2.310636 1_555
B39 Nd8 2.775437 1_545
B39 Nd6 2.797139 1_455
B40 Fe30 2.018268 1_555
B40 Fe22 2.025811 1_555
B40 Fe23 2.036184 1_555
B40 Fe31 2.169139 1_545
B40 Fe52 2.346202 1_555
B40 Nd15 2.721972 1_545
B40 Nd10 2.857933 1_555
B41 Fe37 2.015674 1_555
B41 Fe29 2.036253 1_555
B41 Fe42 2.144352 1_555
B41 Fe64 2.168037 1_555
B41 Fe59 2.175011 1_555
B41 Nd3 2.731153 1_555
B41 Nd16 2.788296 1_555
B42 B5 1.759702 1_555
B42 Fe2 2.018268 1_555
B42 Fe45 2.025811 1_555
B42 Fe24 2.036184 1_555
B42 Fe70 2.169139 1_555
B42 Fe41 2.346202 1_555
B42 Nd19 2.721972 1_555
B42 Nd1 2.857933 1_555
B43 Fe4 2.025339 1_555
B43 Fe54 2.027750 1_555
B43 Fe19 2.035729 1_555
B43 Fe13 2.134695 1_655
B43 Fe28 2.386457 1_555
B43 Nd18 2.761560 1_555
B43 Nd14 2.925982 1_655
B43 Nd12 3.047756 1_655
B44 Fe46 2.015799 1_555
B44 Fe71 2.035354 1_555
B44 Fe8 2.060024 1_555
B44 Fe3 2.170017 1_455
B44 Fe53 2.307510 1_555
B44 Nd5 2.729791 1_455
B44 Nd7 2.847188 1_555
B45 B51 1.768098 1_665
B45 Fe7 2.020538 1_554
B45 Fe66 2.035609 1_555
B45 Fe14 2.050148 1_555
B45 Fe58 2.139605 1_665
B45 Fe68 2.310636 1_555
B45 Nd13 2.775437 1_565
B45 Nd0 2.797139 1_655
B46 Fe36 2.015411 1_555
B46 Fe69 2.031721 1_555
B46 Fe50 2.083008 1_555
B46 Fe17 2.157210 1_545
B46 Fe11 2.235089 1_555
B46 Nd11 2.717514 1_545
B46 Nd6 2.744705 1_555
B47 Fe47 2.019541 1_555
B47 Fe25 2.036761 1_555
B47 Fe49 2.037371 1_555
B47 Fe39 2.128627 1_445
B47 Fe56 2.350752 1_555
B47 Nd2 2.747402 1_455
B47 Nd14 2.807022 1_545
B48 Fe33 2.018268 1_555
B48 Fe16 2.025811 1_555
B48 Fe41 2.036184 1_555
B48 Fe65 2.169139 1_665
B48 Fe24 2.346202 1_555
B48 Nd19 2.721972 1_565
B48 Nd1 2.857933 1_655
B49 B50 1.773540 1_555
B49 Fe15 2.019541 1_555
B49 Fe56 2.036761 1_555
B49 Fe9 2.037371 1_555
B49 Fe44 2.128627 1_555
B49 Fe25 2.350752 1_555
B49 Nd2 2.747402 1_555
B49 Nd14 2.807022 1_555
B50 Fe28 2.019541 1_555
B50 Fe19 2.036761 1_555
B50 Fe44 2.037371 1_555
B50 Fe9 2.128627 1_555
B50 Fe32 2.350752 1_555
B50 Nd14 2.747402 1_555
B50 Nd2 2.807022 1_555
B51 Fe57 2.025339 1_555
B51 Fe1 2.027750 1_555
B51 Fe58 2.035729 1_555
B51 Fe66 2.134695 1_445
B51 Fe63 2.386457 1_555
B51 Nd0 2.761560 1_545
B51 Nd13 2.925982 1_455
B51 Nd16 3.047756 1_455
B52 Fe52 2.019584 1_555
B52 Fe22 2.027999 1_555
B52 Fe47 2.036366 1_555
B52 Fe62 2.140359 1_445
B52 Fe51 2.385647 1_555
B52 Nd17 2.744812 1_455
B52 Nd4 2.962557 1_545
B52 Nd15 3.015225 1_545
B53 B7 1.768098 1_655
B53 Fe19 2.020538 1_555
B53 Fe61 2.035609 1_555
B53 Fe39 2.050148 1_555
B53 Fe56 2.139605 1_655
B53 Fe44 2.310636 1_555
B53 Nd2 2.775437 1_555
B53 Nd4 2.797139 1_655
B54 B56 1.757177 1_665
B54 Fe62 2.014132 1_555
B54 Fe33 2.029026 1_555
B54 Fe18 2.101254 1_555
B54 Fe52 2.187989 1_665
B54 Fe31 2.208800 1_555
B54 Nd10 2.689715 1_565
B54 Nd15 2.763093 1_655
B55 Fe67 2.014132 1_555
B55 Fe8 2.029026 1_555
B55 Fe21 2.101254 1_555
B55 Fe55 2.187989 1_555
B55 Fe46 2.208800 1_555
B55 Nd7 2.689715 1_555
B55 Nd9 2.763093 1_555
B56 Fe65 2.015799 1_555
B56 Fe52 2.035354 1_555
B56 Fe30 2.060024 1_555
B56 Fe33 2.170017 1_445
B56 Fe40 2.307510 1_555
B56 Nd10 2.729791 1_455
B56 Nd1 2.847188 1_545
B57 Fe17 2.019541 1_555
B57 Fe7 2.036761 1_555
B57 Fe68 2.037371 1_556
B57 Fe36 2.128627 1_565
B57 Fe38 2.350752 1_555
B57 Nd8 2.747402 1_555
B57 Nd13 2.807022 1_566
B58 B61 1.759702 1_455
B58 Fe40 2.018268 1_555
B58 Fe51 2.025811 1_555
B58 Fe52 2.036184 1_555
B58 Fe18 2.169139 1_455
B58 Fe23 2.346202 1_555
B58 Nd15 2.721972 1_555
B58 Nd10 2.857933 1_455
B59 Fe68 2.015411 1_555
B59 Fe42 2.031721 1_555
B59 Fe66 2.083008 1_555
B59 Fe63 2.157210 1_565
B59 Fe37 2.235089 1_555
B59 Nd16 2.717514 1_565
B59 Nd0 2.744705 1_555
B60 Fe70 2.015799 1_555
B60 Fe23 2.035354 1_555
B60 Fe40 2.060024 1_555
B60 Fe2 2.170017 1_555
B60 Fe30 2.307510 1_555
B60 Nd10 2.729791 1_555
B60 Nd1 2.847188 1_555
B61 Fe61 2.015674 1_555
B61 Fe18 2.036253 1_555
B61 Fe62 2.144352 1_555
B61 Fe51 2.168037 1_655
B61 Fe35 2.175011 1_555
B61 Nd15 2.731153 1_655
B61 Nd17 2.788296 1_555
B62 Fe13 2.015674 1_555
B62 Fe46 2.036253 1_555
B62 Fe26 2.144352 1_555
B62 Fe4 2.168037 1_455
B62 Fe67 2.175011 1_555
B62 Nd9 2.731153 1_455
B62 Nd12 2.788296 1_555
B63 Fe14 2.015411 1_555
B63 Fe59 2.031721 1_555
B63 Fe37 2.083008 1_555
B63 Fe1 2.157210 1_655
B63 Fe66 2.235089 1_555
B63 Nd16 2.717514 1_555
B63 Nd0 2.744705 1_655
B64 Fe55 2.019584 1_555
B64 Fe4 2.027999 1_555
B64 Fe28 2.036366 1_555
B64 Fe67 2.140359 1_555
B64 Fe60 2.385647 1_555
B64 Nd12 2.744812 1_555
B64 Nd18 2.962557 1_555
B64 Nd9 3.015225 1_555
B65 Fe53 2.018268 1_555
B65 Fe57 2.025811 1_555
B65 Fe71 2.036184 1_555
B65 Fe5 2.169139 1_445
B65 Fe12 2.346202 1_555
B65 Nd3 2.721972 1_545
B65 Nd5 2.857933 1_455
B66 B8 1.768098 1_555
B66 Fe64 2.025339 1_555
B66 Fe63 2.027750 1_555
B66 Fe27 2.035729 1_555
B66 Fe37 2.134695 1_555
B66 Fe1 2.386457 1_555
B66 Nd0 2.761560 1_555
B66 Nd13 2.925982 1_555
B66 Nd16 3.047756 1_555
B67 Fe21 2.015799 1_555
B67 Fe12 2.035354 1_555
B67 Fe53 2.060024 1_555
B67 Fe20 2.170017 1_545
B67 Fe8 2.307510 1_555
B67 Nd5 2.729791 1_555
B67 Nd7 2.847188 1_545
B68 Fe32 2.020538 1_555
B68 Fe10 2.035609 1_555
B68 Fe44 2.050148 1_555
B68 Fe25 2.139605 1_565
B68 Fe39 2.310636 1_555
B68 Nd2 2.775437 1_565
B68 Nd4 2.797139 1_555
B69 Fe20 2.018268 1_555
B69 Fe60 2.025811 1_555
B69 Fe55 2.036184 1_555
B69 Fe21 2.169139 1_565
B69 Fe48 2.346202 1_555
B69 Nd9 2.721972 1_565
B69 Nd7 2.857933 1_555
B70 Fe16 2.025339 1_555
B70 Fe34 2.027750 1_555
B70 Fe7 2.035729 1_555
B70 Fe50 2.134695 1_665
B70 Fe17 2.386457 1_555
B70 Nd6 2.761560 1_565
B70 Nd8 2.925982 1_655
B70 Nd11 3.047756 1_655
B71 Fe31 2.015799 1_555
B71 Fe24 2.035354 1_555
B71 Fe33 2.060024 1_555
B71 Fe30 2.170017 1_565
B71 Fe2 2.307510 1_555
B71 Nd1 2.729791 1_555
B71 Nd10 2.847188 1_565
