# generated using pymatgen
data_ScF3
_symmetry_space_group_name_H-M   'P 1'
_cell_length_a   3.97884486
_cell_length_b   3.97884486
_cell_length_c   3.35000228
_cell_angle_alpha   87.53102991
_cell_angle_beta   87.53102991
_cell_angle_gamma   124.77790150
_symmetry_Int_Tables_number   1
_chemical_formula_structural   ScF3
_chemical_formula_sum   'Sc1 F3'
_cell_volume   43.37239510
_cell_formula_units_Z   1
loop_
 _symmetry_equiv_pos_site_id
 _symmetry_equiv_pos_as_xyz
  1  'x, y, z'
loop_
 _atom_site_type_symbol
 _atom_site_label
 _atom_site_symmetry_multiplicity
 _atom_site_fract_x
 _atom_site_fract_y
 _atom_site_fract_z
 _atom_site_occupancy
  Sc  Sc0  1  0.99495800  0.00504200  0.00000000  1
  F  F0  1  0.51914700  0.00740300  0.81709000  1
  F  F1  1  0.99259700  0.48085300  0.18291000  1
  F  F2  1  0.49329800  0.50670200  0.50000000  1
loop_
_geom_bond_atom_site_label_1
_geom_bond_atom_site_label_2
_geom_bond_distance
_geom_bond_site_symmetry_2
F0 Sc0 2.019755 1_556
F0 Sc0 2.143035 1_456
F1 Sc0 2.019755 1_555
F1 Sc0 2.143035 1_565
F2 Sc0 2.373212 1_456
F2 Sc0 2.373212 1_565
F2 Sc0 2.603945 1_566
F2 Sc0 2.603945 1_455
