# generated using pymatgen
data_H(CO)2
_symmetry_space_group_name_H-M   'P 1'
_cell_length_a   11.47085100
_cell_length_b   6.09153700
_cell_length_c   6.09192113
_cell_angle_alpha   89.98798015
_cell_angle_beta   90.00000000
_cell_angle_gamma   90.00000000
_symmetry_Int_Tables_number   1
_chemical_formula_structural   H(CO)2
_chemical_formula_sum   'H8 C16 O16'
_cell_volume   425.67367002
_cell_formula_units_Z   8
loop_
 _symmetry_equiv_pos_site_id
 _symmetry_equiv_pos_as_xyz
  1  'x, y, z'
loop_
 _atom_site_type_symbol
 _atom_site_label
 _atom_site_symmetry_multiplicity
 _atom_site_fract_x
 _atom_site_fract_y
 _atom_site_fract_z
 _atom_site_occupancy
  H  H0  1  0.00000000  0.22686800  0.73750100  1
  H  H1  1  0.00000000  0.73357700  0.25918600  1
  H  H2  1  0.74999600  0.77115900  0.26613000  1
  H  H3  1  0.75001500  0.24080500  0.76907100  1
  H  H4  1  0.50000000  0.75900400  0.23096700  1
  H  H5  1  0.50000000  0.22896100  0.73423900  1
  H  H6  1  0.25000400  0.77115900  0.26613000  1
  H  H7  1  0.24998500  0.24080500  0.76907100  1
  C  C0  1  0.00000000  0.89798400  0.69184300  1
  C  C1  1  0.00000000  0.80166500  0.91067000  1
  C  C2  1  0.00000000  0.68204500  0.59324400  1
  C  C3  1  0.00000000  0.58054300  0.81206700  1
  C  C4  1  0.74996500  0.31790600  0.41335700  1
  C  C5  1  0.74986800  0.41666300  0.19156100  1
  C  C6  1  0.74999600  0.19721000  0.09651100  1
  C  C7  1  0.75008600  0.09973400  0.31187800  1
  C  C8  1  0.50000000  0.89994200  0.68824200  1
  C  C9  1  0.50000000  0.80234500  0.90354800  1
  C  C10  1  0.50000000  0.68170700  0.58676800  1
  C  C11  1  0.50000000  0.58287800  0.80853200  1
  C  C12  1  0.25013200  0.41666300  0.19156100  1
  C  C13  1  0.25003500  0.31790600  0.41335700  1
  C  C14  1  0.25000400  0.19721000  0.09651100  1
  C  C15  1  0.24991400  0.09973400  0.31187800  1
  O  O0  1  0.00000000  0.87850600  0.10292200  1
  O  O1  1  0.00000000  0.38945500  0.88879300  1
  O  O2  1  0.00000000  0.60484200  0.39799700  1
  O  O3  1  0.00000000  0.09311000  0.61257700  1
  O  O4  1  0.75004000  0.90396000  0.39063900  1
  O  O5  1  0.75001500  0.39452600  0.60475500  1
  O  O6  1  0.74988500  0.60777200  0.11405900  1
  O  O7  1  0.74999900  0.11701200  0.90127500  1
  O  O8  1  0.50000000  0.88270700  0.09881900  1
  O  O9  1  0.50000000  0.60518400  0.39533800  1
  O  O10  1  0.50000000  0.39180400  0.88595300  1
  O  O11  1  0.50000000  0.09567900  0.60962100  1
  O  O12  1  0.24996000  0.90396000  0.39063900  1
  O  O13  1  0.25011500  0.60777200  0.11405900  1
  O  O14  1  0.24998500  0.39452600  0.60475500  1
  O  O15  1  0.25000100  0.11701200  0.90127500  1
loop_
_geom_bond_atom_site_label_1
_geom_bond_atom_site_label_2
_geom_bond_distance
_geom_bond_site_symmetry_2
H0 O3 1.115037 1_555
H0 O1 1.353048 1_555
H1 O2 1.153154 1_555
H1 O0 1.298175 1_555
H2 O4 1.109053 1_555
H2 O6 1.359850 1_555
H3 O7 1.103190 1_555
H3 O5 1.370565 1_555
H4 O8 1.102566 1_555
H4 O9 1.371221 1_555
H5 O11 1.111646 1_555
H5 O10 1.355942 1_555
H6 O12 1.109053 1_555
H6 O13 1.359850 1_555
H7 O15 1.103190 1_555
H7 O14 1.370565 1_555
C0 O3 1.282866 1_565
C1 O0 1.261349 1_556
C2 O2 1.279119 1_555
C3 O1 1.254266 1_555
C4 O5 1.256018 1_555
C5 O6 1.256153 1_555
C6 O7 1.285880 1_554
C7 O4 1.285373 1_545
C8 O11 1.284846 1_565
C9 O8 1.286457 1_556
C10 O9 1.255980 1_555
C11 O10 1.255771 1_555
C12 O13 1.256153 1_555
C13 O14 1.256018 1_555
C14 O15 1.285880 1_554
C15 O12 1.285373 1_545
