# generated using pymatgen
data_SiO2
_symmetry_space_group_name_H-M   'P 1'
_cell_length_a   8.54646524
_cell_length_b   15.26932189
_cell_length_c   9.62007824
_cell_angle_alpha   90.00000000
_cell_angle_beta   90.00000000
_cell_angle_gamma   90.00000000
_symmetry_Int_Tables_number   1
_chemical_formula_structural   SiO2
_chemical_formula_sum   'Si24 O48'
_cell_volume   1255.40798100
_cell_formula_units_Z   24
loop_
 _symmetry_equiv_pos_site_id
 _symmetry_equiv_pos_as_xyz
  1  'x, y, z'
loop_
 _atom_site_type_symbol
 _atom_site_label
 _atom_site_symmetry_multiplicity
 _atom_site_fract_x
 _atom_site_fract_y
 _atom_site_fract_z
 _atom_site_occupancy
  Si  Si0  1  0.18750358  0.09662148  0.34872678  1
  Si  Si1  1  0.18750358  0.90337852  0.65127322  1
  Si  Si2  1  0.31249642  0.09662148  0.65127322  1
  Si  Si3  1  0.31249642  0.90337852  0.34872678  1
  Si  Si4  1  0.81249642  0.90337852  0.65127322  1
  Si  Si5  1  0.81249642  0.09662148  0.34872678  1
  Si  Si6  1  0.68750358  0.90337852  0.34872678  1
  Si  Si7  1  0.68750358  0.09662148  0.65127322  1
  Si  Si8  1  0.68750358  0.59662148  0.34872678  1
  Si  Si9  1  0.68750358  0.40337852  0.65127322  1
  Si  Si10  1  0.81249642  0.59662148  0.65127322  1
  Si  Si11  1  0.81249642  0.40337852  0.34872678  1
  Si  Si12  1  0.31249642  0.40337852  0.65127322  1
  Si  Si13  1  0.31249642  0.59662148  0.34872678  1
  Si  Si14  1  0.18750358  0.40337852  0.34872678  1
  Si  Si15  1  0.18750358  0.59662148  0.65127322  1
  Si  Si16  1  0.31272193  0.25000000  0.15656032  1
  Si  Si17  1  0.31272193  0.75000000  0.84343968  1
  Si  Si18  1  0.18727807  0.25000000  0.84343968  1
  Si  Si19  1  0.18727807  0.75000000  0.15656032  1
  Si  Si20  1  0.68727807  0.75000000  0.84343968  1
  Si  Si21  1  0.68727807  0.25000000  0.15656032  1
  Si  Si22  1  0.81272193  0.75000000  0.15656032  1
  Si  Si23  1  0.81272193  0.25000000  0.84343968  1
  O  O0  1  0.25000000  0.12629718  0.50000000  1
  O  O1  1  0.25000000  0.87370282  0.50000000  1
  O  O2  1  0.75000000  0.87370282  0.50000000  1
  O  O3  1  0.75000000  0.12629718  0.50000000  1
  O  O4  1  0.75000000  0.62629718  0.50000000  1
  O  O5  1  0.75000000  0.37370282  0.50000000  1
  O  O6  1  0.25000000  0.37370282  0.50000000  1
  O  O7  1  0.25000000  0.62629718  0.50000000  1
  O  O8  1  0.24973619  0.16361763  0.23354919  1
  O  O9  1  0.24973619  0.83638237  0.76645081  1
  O  O10  1  0.25026381  0.16361763  0.76645081  1
  O  O11  1  0.25026381  0.83638237  0.23354919  1
  O  O12  1  0.75026381  0.83638237  0.76645081  1
  O  O13  1  0.75026381  0.16361763  0.23354919  1
  O  O14  1  0.74973619  0.83638237  0.23354919  1
  O  O15  1  0.74973619  0.16361763  0.76645081  1
  O  O16  1  0.74973619  0.66361763  0.23354919  1
  O  O17  1  0.74973619  0.33638237  0.76645081  1
  O  O18  1  0.75026381  0.66361763  0.76645081  1
  O  O19  1  0.75026381  0.33638237  0.23354919  1
  O  O20  1  0.25026381  0.33638237  0.76645081  1
  O  O21  1  0.25026381  0.66361763  0.23354919  1
  O  O22  1  0.24973619  0.33638237  0.23354919  1
  O  O23  1  0.24973619  0.66361763  0.76645081  1
  O  O24  1  0.25000000  -0.00000000  0.31139941  1
  O  O25  1  0.25000000  -0.00000000  0.68860059  1
  O  O26  1  0.75000000  -0.00000000  0.68860059  1
  O  O27  1  0.75000000  -0.00000000  0.31139941  1
  O  O28  1  0.75000000  0.50000000  0.31139941  1
  O  O29  1  0.75000000  0.50000000  0.68860059  1
  O  O30  1  0.25000000  0.50000000  0.68860059  1
  O  O31  1  0.25000000  0.50000000  0.31139941  1
  O  O32  1  0.00000000  0.09630062  0.34968016  1
  O  O33  1  0.00000000  0.90369938  0.65031984  1
  O  O34  1  0.50000000  0.09630062  0.65031984  1
  O  O35  1  0.50000000  0.90369938  0.34968016  1
  O  O36  1  0.50000000  0.59630062  0.34968016  1
  O  O37  1  0.50000000  0.40369938  0.65031984  1
  O  O38  1  0.00000000  0.59630062  0.65031984  1
  O  O39  1  0.00000000  0.40369938  0.34968016  1
  O  O40  1  0.50000000  0.25000000  0.15710868  1
  O  O41  1  0.50000000  0.75000000  0.84289132  1
  O  O42  1  0.00000000  0.25000000  0.84289132  1
  O  O43  1  0.00000000  0.75000000  0.15710868  1
  O  O44  1  0.25000000  0.25000000  -0.00000000  1
  O  O45  1  0.25000000  0.75000000  -0.00000000  1
  O  O46  1  0.75000000  0.75000000  -0.00000000  1
  O  O47  1  0.75000000  0.25000000  -0.00000000  1
loop_
_geom_bond_atom_site_label_1
_geom_bond_atom_site_label_2
_geom_bond_distance
_geom_bond_site_symmetry_2
O0 Si2 1.615053 1_555
O0 Si0 1.615053 1_555
O1 Si1 1.615053 1_555
O1 Si3 1.615053 1_555
O2 Si6 1.615053 1_555
O2 Si4 1.615053 1_555
O3 Si7 1.615053 1_555
O3 Si5 1.615053 1_555
O4 Si8 1.615053 1_555
O4 Si10 1.615053 1_555
O5 Si9 1.615053 1_555
O5 Si11 1.615053 1_555
O6 Si14 1.615053 1_555
O6 Si12 1.615053 1_555
O7 Si13 1.615053 1_555
O7 Si15 1.615053 1_555
O8 Si0 1.599089 1_555
O8 Si16 1.605640 1_555
O9 Si1 1.599089 1_555
O9 Si17 1.605640 1_555
O10 Si2 1.599089 1_555
O10 Si18 1.605640 1_555
O11 Si3 1.599089 1_555
O11 Si19 1.605640 1_555
O12 Si4 1.599089 1_555
O12 Si20 1.605640 1_555
O13 Si5 1.599089 1_555
O13 Si21 1.605640 1_555
O14 Si6 1.599089 1_555
O14 Si22 1.605640 1_555
O15 Si7 1.599089 1_555
O15 Si23 1.605640 1_555
O16 Si8 1.599089 1_555
O16 Si22 1.605640 1_555
O17 Si9 1.599089 1_555
O17 Si23 1.605640 1_555
O18 Si10 1.599089 1_555
O18 Si20 1.605640 1_555
O19 Si11 1.599089 1_555
O19 Si21 1.605640 1_555
O20 Si12 1.599089 1_555
O20 Si18 1.605640 1_555
O21 Si13 1.599089 1_555
O21 Si19 1.605640 1_555
O22 Si14 1.599089 1_555
O22 Si16 1.605640 1_555
O23 Si15 1.599089 1_555
O23 Si17 1.605640 1_555
O24 Si3 1.609620 1_545
O24 Si0 1.609620 1_555
O25 Si1 1.609620 1_545
O25 Si2 1.609620 1_555
O26 Si4 1.609620 1_545
O26 Si7 1.609620 1_555
O27 Si6 1.609620 1_545
O27 Si5 1.609620 1_555
O28 Si11 1.609620 1_555
O28 Si8 1.609620 1_555
O29 Si9 1.609620 1_555
O29 Si10 1.609620 1_555
O30 Si12 1.609620 1_555
O30 Si15 1.609620 1_555
O31 Si14 1.609620 1_555
O31 Si13 1.609620 1_555
O32 Si5 1.602527 1_455
O32 Si0 1.602527 1_555
O33 Si4 1.602527 1_455
O33 Si1 1.602527 1_555
O34 Si7 1.602527 1_555
O34 Si2 1.602527 1_555
O35 Si6 1.602527 1_555
O35 Si3 1.602527 1_555
O36 Si13 1.602527 1_555
O36 Si8 1.602527 1_555
O37 Si9 1.602527 1_555
O37 Si12 1.602527 1_555
O38 Si10 1.602527 1_455
O38 Si15 1.602527 1_555
O39 Si11 1.602527 1_455
O39 Si14 1.602527 1_555
O40 Si21 1.600574 1_555
O40 Si16 1.600574 1_555
O41 Si20 1.600574 1_555
O41 Si17 1.600574 1_555
O42 Si23 1.600574 1_455
O42 Si18 1.600574 1_555
O43 Si22 1.600574 1_455
O43 Si19 1.600574 1_555
O44 Si18 1.598673 1_554
O44 Si16 1.598673 1_555
O45 Si17 1.598673 1_554
O45 Si19 1.598673 1_555
O46 Si20 1.598673 1_554
O46 Si22 1.598673 1_555
O47 Si23 1.598673 1_554
O47 Si21 1.598673 1_555
