# generated using pymatgen
data_Li4H6Ru
_symmetry_space_group_name_H-M   'P 1'
_cell_length_a   5.71110855
_cell_length_b   5.71110855
_cell_length_c   5.71110866
_cell_angle_alpha   90.18529744
_cell_angle_beta   90.18529744
_cell_angle_gamma   90.18528816
_symmetry_Int_Tables_number   1
_chemical_formula_structural   Li4H6Ru
_chemical_formula_sum   'Li8 H12 Ru2'
_cell_volume   186.27493663
_cell_formula_units_Z   2
loop_
 _symmetry_equiv_pos_site_id
 _symmetry_equiv_pos_as_xyz
  1  'x, y, z'
loop_
 _atom_site_type_symbol
 _atom_site_label
 _atom_site_symmetry_multiplicity
 _atom_site_fract_x
 _atom_site_fract_y
 _atom_site_fract_z
 _atom_site_occupancy
  Li  Li0  1  0.25000000  0.25000000  0.25000000  1
  Li  Li1  1  0.75000000  0.75000000  0.75000000  1
  Li  Li2  1  0.86524068  0.63475932  0.25000000  1
  Li  Li3  1  0.25000000  0.86524068  0.63475932  1
  Li  Li4  1  0.63475932  0.25000000  0.86524068  1
  Li  Li5  1  0.75000000  0.13475932  0.36524068  1
  Li  Li6  1  0.36524068  0.75000000  0.13475932  1
  Li  Li7  1  0.13475932  0.36524068  0.75000000  1
  H  H0  1  0.21063268  0.54783917  0.43985830  1
  H  H1  1  0.43985830  0.21063268  0.54783917  1
  H  H2  1  0.54783917  0.43985830  0.21063268  1
  H  H3  1  0.93985830  0.04783917  0.71063268  1
  H  H4  1  0.71063268  0.93985830  0.04783917  1
  H  H5  1  0.04783917  0.71063268  0.93985830  1
  H  H6  1  0.78936732  0.45216083  0.56014170  1
  H  H7  1  0.56014170  0.78936732  0.45216083  1
  H  H8  1  0.45216083  0.56014170  0.78936732  1
  H  H9  1  0.06014170  0.95216083  0.28936732  1
  H  H10  1  0.28936732  0.06014170  0.95216083  1
  H  H11  1  0.95216083  0.28936732  0.06014170  1
  Ru  Ru0  1  0.50000000  0.50000000  0.50000000  1
  Ru  Ru1  1  -0.00000000  -0.00000000  0.00000000  1
loop_
_geom_bond_atom_site_label_1
_geom_bond_atom_site_label_2
_geom_bond_distance
_geom_bond_site_symmetry_2
H0 Ru0 1.709851 1_555
H0 Li0 2.027746 1_555
H0 Li7 2.103951 1_555
H0 Li3 2.134987 1_555
H0 Li6 2.272705 1_555
H0 Li2 2.304159 1_455
H1 Ru0 1.709851 1_555
H1 Li0 2.027746 1_555
H1 Li5 2.103950 1_555
H1 Li4 2.134987 1_555
H1 Li7 2.272705 1_555
H1 Li3 2.304160 1_545
H2 Ru0 1.709851 1_555
H2 Li0 2.027746 1_555
H2 Li6 2.103950 1_555
H2 Li2 2.134987 1_555
H2 Li5 2.272705 1_555
H2 Li4 2.304159 1_554
H3 Ru1 1.709851 1_656
H3 Li1 2.027746 1_545
H3 Li3 2.103950 1_645
H3 Li7 2.134987 1_655
H3 Li4 2.272705 1_555
H3 Li5 2.304159 1_555
H4 Ru1 1.709851 1_665
H4 Li1 2.027746 1_554
H4 Li4 2.103950 1_564
H4 Li5 2.134987 1_565
H4 Li2 2.272705 1_555
H4 Li6 2.304160 1_555
H5 Ru1 1.709851 1_566
H5 Li1 2.027746 1_455
H5 Li2 2.103951 1_456
H5 Li6 2.134987 1_556
H5 Li3 2.272705 1_555
H5 Li7 2.304159 1_555
H6 Ru0 1.709851 1_555
H6 Li1 2.027746 1_555
H6 Li2 2.103951 1_555
H6 Li5 2.134987 1_555
H6 Li4 2.272705 1_555
H6 Li7 2.304159 1_655
H7 Ru0 1.709851 1_555
H7 Li1 2.027746 1_555
H7 Li3 2.103950 1_555
H7 Li6 2.134987 1_555
H7 Li2 2.272705 1_555
H7 Li5 2.304160 1_565
H8 Ru0 1.709851 1_555
H8 Li1 2.027746 1_555
H8 Li4 2.103950 1_555
H8 Li7 2.134987 1_555
H8 Li3 2.272705 1_555
H8 Li6 2.304159 1_556
H9 Ru1 1.709851 1_565
H9 Li0 2.027746 1_565
H9 Li5 2.103950 1_465
H9 Li2 2.134987 1_455
H9 Li6 2.272705 1_555
H9 Li3 2.304159 1_555
H10 Ru1 1.709851 1_556
H10 Li0 2.027746 1_556
H10 Li6 2.103950 1_546
H10 Li3 2.134987 1_545
H10 Li7 2.272705 1_555
H10 Li4 2.304160 1_555
H11 Ru1 1.709851 1_655
H11 Li0 2.027746 1_655
H11 Li7 2.103951 1_654
H11 Li4 2.134987 1_554
H11 Li5 2.272705 1_555
H11 Li2 2.304159 1_555
