# generated using pymatgen
data_V2NO
_symmetry_space_group_name_H-M   'P 1'
_cell_length_a   5.37701930
_cell_length_b   5.37701930
_cell_length_c   5.37701930
_cell_angle_alpha   132.01336159
_cell_angle_beta   132.01336159
_cell_angle_gamma   70.20792452
_symmetry_Int_Tables_number   1
_chemical_formula_structural   V2NO
_chemical_formula_sum   'V4 N2 O2'
_cell_volume   84.11927886
_cell_formula_units_Z   2
loop_
 _symmetry_equiv_pos_site_id
 _symmetry_equiv_pos_as_xyz
  1  'x, y, z'
loop_
 _atom_site_type_symbol
 _atom_site_label
 _atom_site_symmetry_multiplicity
 _atom_site_fract_x
 _atom_site_fract_y
 _atom_site_fract_z
 _atom_site_occupancy
  V  V0  1  0.76078300  0.76078300  0.00000000  1
  V  V1  1  0.98921700  0.48921700  0.50000000  1
  V  V2  1  0.51078300  0.01078300  0.50000000  1
  V  V3  1  0.23921700  0.23921700  0.00000000  1
  N  N0  1  0.00000000  0.00000000  0.00000000  1
  N  N1  1  0.75000000  0.25000000  0.50000000  1
  O  O0  1  0.50000000  0.50000000  0.00000000  1
  O  O1  1  0.25000000  0.75000000  0.50000000  1
loop_
_geom_bond_atom_site_label_1
_geom_bond_atom_site_label_2
_geom_bond_distance
_geom_bond_site_symmetry_2
N0 V3 2.104628 1_555
N0 V0 2.104628 1_445
N0 V2 2.188515 1_454
N0 V2 2.188515 1_555
N0 V1 2.188515 1_444
N0 V1 2.188515 1_455
N1 V1 2.104628 1_555
N1 V2 2.104628 1_555
N1 V3 2.188515 1_656
N1 V0 2.188515 1_545
N1 V3 2.188515 1_555
N1 V0 2.188515 1_556
O0 V2 2.188515 1_554
O0 V1 2.188515 1_454
O0 V2 2.188515 1_565
O0 V1 2.188515 1_555
O0 V0 2.294365 1_555
O0 V3 2.294365 1_555
O1 V3 2.188515 1_566
O1 V0 2.188515 1_455
O1 V3 2.188515 1_555
O1 V0 2.188515 1_556
O1 V2 2.294365 1_565
O1 V1 2.294365 1_455
