# generated using pymatgen
data_Na4Zr2(SiO4)3
_symmetry_space_group_name_H-M   'P 1'
_cell_length_a   9.19988064
_cell_length_b   9.19988064
_cell_length_c   9.19987979
_cell_angle_alpha   60.91103785
_cell_angle_beta   60.91103785
_cell_angle_gamma   60.91103805
_symmetry_Int_Tables_number   1
_chemical_formula_structural   Na4Zr2(SiO4)3
_chemical_formula_sum   'Na8 Zr4 Si6 O24'
_cell_volume   561.89961711
_cell_formula_units_Z   2
loop_
 _symmetry_equiv_pos_site_id
 _symmetry_equiv_pos_as_xyz
  1  'x, y, z'
loop_
 _atom_site_type_symbol
 _atom_site_label
 _atom_site_symmetry_multiplicity
 _atom_site_fract_x
 _atom_site_fract_y
 _atom_site_fract_z
 _atom_site_occupancy
  Na  Na0  1  0.00000000  0.00000000  0.00000000  1
  Na  Na1  1  0.38224300  0.11775700  0.75000000  1
  Na  Na2  1  0.11775700  0.75000000  0.38224300  1
  Na  Na3  1  0.75000000  0.38224300  0.11775700  1
  Na  Na4  1  0.25000000  0.61775700  0.88224300  1
  Na  Na5  1  0.88224300  0.25000000  0.61775700  1
  Na  Na6  1  0.50000000  0.50000000  0.50000000  1
  Na  Na7  1  0.61775700  0.88224300  0.25000000  1
  Zr  Zr0  1  0.35351200  0.35351200  0.35351200  1
  Zr  Zr1  1  0.85351200  0.85351200  0.85351200  1
  Zr  Zr2  1  0.64648800  0.64648800  0.64648800  1
  Zr  Zr3  1  0.14648800  0.14648800  0.14648800  1
  Si  Si0  1  0.95301300  0.54698700  0.25000000  1
  Si  Si1  1  0.75000000  0.04698700  0.45301300  1
  Si  Si2  1  0.25000000  0.95301300  0.54698700  1
  Si  Si3  1  0.04698700  0.45301300  0.75000000  1
  Si  Si4  1  0.45301300  0.75000000  0.04698700  1
  Si  Si5  1  0.54698700  0.25000000  0.95301300  1
  O  O0  1  0.70470300  0.87729900  0.49012300  1
  O  O1  1  0.49012300  0.70470300  0.87729900  1
  O  O2  1  0.87729900  0.49012300  0.70470300  1
  O  O3  1  0.79529700  0.00987700  0.62270100  1
  O  O4  1  0.62270100  0.79529700  0.00987700  1
  O  O5  1  0.00987700  0.62270100  0.79529700  1
  O  O6  1  0.29529700  0.12270100  0.50987700  1
  O  O7  1  0.50987700  0.29529700  0.12270100  1
  O  O8  1  0.12270100  0.50987700  0.29529700  1
  O  O9  1  0.20470300  0.99012300  0.37729900  1
  O  O10  1  0.37729900  0.20470300  0.99012300  1
  O  O11  1  0.99012300  0.37729900  0.20470300  1
  O  O12  1  0.41698400  0.76907800  0.56503700  1
  O  O13  1  0.56503700  0.41698400  0.76907800  1
  O  O14  1  0.76907800  0.56503700  0.41698400  1
  O  O15  1  0.08301600  0.93496300  0.73092200  1
  O  O16  1  0.73092200  0.08301600  0.93496300  1
  O  O17  1  0.93496300  0.73092200  0.08301600  1
  O  O18  1  0.06503700  0.26907800  0.91698400  1
  O  O19  1  0.26907800  0.91698400  0.06503700  1
  O  O20  1  0.91698400  0.06503700  0.26907800  1
  O  O21  1  0.23092200  0.43496300  0.58301600  1
  O  O22  1  0.43496300  0.58301600  0.23092200  1
  O  O23  1  0.58301600  0.23092200  0.43496300  1
loop_
_geom_bond_atom_site_label_1
_geom_bond_atom_site_label_2
_geom_bond_distance
_geom_bond_site_symmetry_2
Na0 O20 2.495369 1_455
Na0 O15 2.495369 1_544
Na0 O19 2.495370 1_545
Na0 O16 2.495370 1_454
Na0 O18 2.495370 1_554
Na0 O17 2.495370 1_445
Na1 O18 2.566018 1_555
Na1 O21 2.566018 1_555
Na1 O23 2.574166 1_555
Na1 O19 2.574166 1_546
Na1 O10 2.665917 1_555
Na1 O6 2.665917 1_555
Na2 O19 2.566018 1_555
Na2 O22 2.566018 1_555
Na2 O21 2.574166 1_555
Na2 O20 2.574166 1_465
Na2 O8 2.665918 1_555
Na2 O9 2.665918 1_555
Na3 O23 2.566018 1_555
Na3 O20 2.566018 1_555
Na3 O18 2.574166 1_654
Na3 O22 2.574166 1_555
Na3 O11 2.665918 1_555
Na3 O7 2.665918 1_555
Na4 O12 2.566018 1_555
Na4 O15 2.566018 1_555
Na4 O17 2.574166 1_456
Na4 O13 2.574166 1_555
Na4 O5 2.665918 1_555
Na4 O1 2.665918 1_555
Na5 O16 2.566018 1_555
Na5 O13 2.566018 1_555
Na5 O14 2.574166 1_555
Na5 O15 2.574166 1_645
Na5 O2 2.665918 1_555
Na5 O3 2.665918 1_555
Na6 O13 2.495369 1_555
Na6 O22 2.495369 1_555
Na6 O23 2.495370 1_555
Na6 O12 2.495370 1_555
Na6 O14 2.495370 1_555
Na6 O21 2.495370 1_555
Na7 O17 2.566018 1_555
Na7 O14 2.566018 1_555
Na7 O12 2.574166 1_555
Na7 O16 2.574166 1_564
Na7 O0 2.665917 1_555
Na7 O4 2.665917 1_555
O0 Si1 1.644164 1_565
O0 Zr2 2.061972 1_555
O1 Si4 1.644164 1_556
O1 Zr2 2.061972 1_555
O2 Si3 1.644164 1_655
O2 Zr2 2.061972 1_555
O3 Si1 1.644164 1_555
O3 Zr1 2.061972 1_545
O4 Si4 1.644164 1_555
O4 Zr1 2.061972 1_554
O5 Si3 1.644164 1_555
O5 Zr1 2.061972 1_455
O6 Si2 1.644164 1_545
O6 Zr0 2.061972 1_555
O7 Si5 1.644164 1_554
O7 Zr0 2.061972 1_555
O8 Si0 1.644164 1_455
O8 Zr0 2.061972 1_555
O9 Si2 1.644164 1_555
O9 Zr3 2.061972 1_565
O10 Si5 1.644164 1_555
O10 Zr3 2.061972 1_556
O11 Si0 1.644164 1_555
O11 Zr3 2.061972 1_655
O12 Si2 1.642625 1_555
O12 Zr2 2.166283 1_555
O13 Si5 1.642625 1_555
O13 Zr2 2.166283 1_555
O14 Si0 1.642625 1_555
O14 Zr2 2.166283 1_555
O15 Si2 1.642625 1_555
O15 Zr1 2.166283 1_455
O16 Si5 1.642625 1_555
O16 Zr1 2.166283 1_545
O17 Si0 1.642625 1_555
O17 Zr1 2.166283 1_554
O18 Si3 1.642625 1_555
O18 Zr3 2.166283 1_556
O19 Si4 1.642625 1_555
O19 Zr3 2.166283 1_565
O20 Si1 1.642625 1_555
O20 Zr3 2.166283 1_655
O21 Si3 1.642625 1_555
O21 Zr0 2.166283 1_555
O22 Si4 1.642625 1_555
O22 Zr0 2.166283 1_555
O23 Si1 1.642625 1_555
O23 Zr0 2.166283 1_555
