# generated using pymatgen
data_BaY(CoO2)4
_symmetry_space_group_name_H-M   'P 1'
_cell_length_a   10.21114147
_cell_length_b   10.95294969
_cell_length_c   12.96876387
_cell_angle_alpha   90.00000000
_cell_angle_beta   90.00000000
_cell_angle_gamma   90.00000000
_symmetry_Int_Tables_number   1
_chemical_formula_structural   BaY(CoO2)4
_chemical_formula_sum   'Ba8 Y8 Co32 O64'
_cell_volume   1450.45402942
_cell_formula_units_Z   8
loop_
 _symmetry_equiv_pos_site_id
 _symmetry_equiv_pos_as_xyz
  1  'x, y, z'
loop_
 _atom_site_type_symbol
 _atom_site_label
 _atom_site_symmetry_multiplicity
 _atom_site_fract_x
 _atom_site_fract_y
 _atom_site_fract_z
 _atom_site_occupancy
  Ba  Ba0  1  0.52891287  0.07489342  0.62687324  1
  Ba  Ba1  1  0.99962591  0.42690458  0.10145254  1
  Ba  Ba2  1  0.99962591  0.92690458  0.89854746  1
  Ba  Ba3  1  0.52891287  0.57489342  0.37312676  1
  Ba  Ba4  1  0.49962591  0.07309542  0.10145254  1
  Ba  Ba5  1  0.02891287  0.92510658  0.37312676  1
  Ba  Ba6  1  0.49962591  0.57309542  0.89854746  1
  Ba  Ba7  1  0.02891287  0.42510658  0.62687324  1
  Y  Y0  1  0.42368318  0.43852703  0.62626270  1
  Y  Y1  1  0.42368318  0.93852703  0.37373730  1
  Y  Y2  1  0.38037075  0.90514924  0.85473044  1
  Y  Y3  1  0.92368318  0.56147297  0.37373730  1
  Y  Y4  1  0.92368318  0.06147297  0.62626270  1
  Y  Y5  1  0.88037075  0.09485076  0.14526956  1
  Y  Y6  1  0.88037075  0.59485076  0.85473044  1
  Y  Y7  1  0.38037075  0.40514924  0.14526956  1
  Co  Co0  1  0.21179950  0.66769072  0.25980683  1
  Co  Co1  1  0.71265326  0.84257040  0.77238170  1
  Co  Co2  1  0.73078554  0.32013013  0.51953311  1
  Co  Co3  1  0.70342418  0.58153314  0.11648205  1
  Co  Co4  1  0.19417389  0.15532200  0.98464139  1
  Co  Co5  1  0.23078554  0.67986987  0.48046689  1
  Co  Co6  1  0.19417389  0.65532200  0.01535861  1
  Co  Co7  1  0.21081250  0.40118698  0.37103126  1
  Co  Co8  1  0.46110189  0.74648434  0.62813954  1
  Co  Co9  1  0.71081250  0.09881302  0.37103126  1
  Co  Co10  1  0.73078554  0.82013013  0.48046689  1
  Co  Co11  1  0.20342418  0.91846686  0.11648205  1
  Co  Co12  1  0.71081250  0.59881302  0.62896874  1
  Co  Co13  1  0.21265326  0.65742960  0.77238170  1
  Co  Co14  1  0.96110189  0.75351566  0.62813954  1
  Co  Co15  1  0.46110189  0.24648434  0.37186046  1
  Co  Co16  1  0.96053748  0.75213793  0.12605388  1
  Co  Co17  1  0.71179950  0.33230928  0.74019317  1
  Co  Co18  1  0.70342418  0.08153314  0.88351795  1
  Co  Co19  1  0.96110189  0.25351566  0.37186046  1
  Co  Co20  1  0.46053748  0.24786207  0.87394612  1
  Co  Co21  1  0.21081250  0.90118698  0.62896874  1
  Co  Co22  1  0.69417389  0.34467800  0.98464139  1
  Co  Co23  1  0.21179950  0.16769072  0.74019317  1
  Co  Co24  1  0.71265326  0.34257040  0.22761830  1
  Co  Co25  1  0.96053748  0.25213793  0.87394612  1
  Co  Co26  1  0.46053748  0.74786207  0.12605388  1
  Co  Co27  1  0.21265326  0.15742960  0.22761830  1
  Co  Co28  1  0.23078554  0.17986987  0.51953311  1
  Co  Co29  1  0.20342418  0.41846686  0.88351795  1
  Co  Co30  1  0.69417389  0.84467800  0.01535861  1
  Co  Co31  1  0.71179950  0.83230928  0.25980683  1
  O  O0  1  0.78360829  0.50019569  0.23761046  1
  O  O1  1  0.01121745  0.41952596  0.87776744  1
  O  O2  1  0.04321924  0.89089450  0.70137184  1
  O  O3  1  0.27138505  0.25022186  0.87115886  1
  O  O4  1  0.63482365  0.46263067  0.55261228  1
  O  O5  1  0.78969224  0.48782095  0.72793412  1
  O  O6  1  0.13482365  0.03736933  0.55261228  1
  O  O7  1  0.53997529  0.85414255  0.73070656  1
  O  O8  1  0.61546522  0.71799540  0.54703344  1
  O  O9  1  0.78969224  0.98782095  0.27206588  1
  O  O10  1  0.27138505  0.75022186  0.12884114  1
  O  O11  1  0.54321924  0.60910550  0.70137184  1
  O  O12  1  0.13482365  0.53736933  0.44738772  1
  O  O13  1  0.28360829  0.99980431  0.23761046  1
  O  O14  1  0.00304555  0.67297308  0.00163968  1
  O  O15  1  0.54321924  0.10910550  0.29862816  1
  O  O16  1  0.51121745  0.08047404  0.87776744  1
  O  O17  1  0.51121745  0.58047404  0.12223256  1
  O  O18  1  0.27775888  0.77465881  0.36673579  1
  O  O19  1  0.02119281  0.17852937  0.75295796  1
  O  O20  1  0.30325610  0.27700126  0.29609570  1
  O  O21  1  0.03997529  0.14585745  0.26929344  1
  O  O22  1  0.74969817  0.01316087  0.01937751  1
  O  O23  1  0.77357577  0.27287280  0.10446821  1
  O  O24  1  0.87496293  0.37763346  0.44814519  1
  O  O25  1  0.88374243  0.12102425  0.44818129  1
  O  O26  1  0.53997529  0.35414255  0.26929344  1
  O  O27  1  0.88374243  0.62102425  0.55181871  1
  O  O28  1  0.87496293  0.87763346  0.55185481  1
  O  O29  1  0.37496293  0.62236654  0.55185481  1
  O  O30  1  0.77357577  0.77287280  0.89553179  1
  O  O31  1  0.50304555  0.82702692  0.00163968  1
  O  O32  1  0.63482365  0.96263067  0.44738772  1
  O  O33  1  0.30325610  0.77700126  0.70390430  1
  O  O34  1  0.02119281  0.67852937  0.24704204  1
  O  O35  1  0.78360829  0.00019569  0.76238954  1
  O  O36  1  0.80325610  0.22299874  0.29609570  1
  O  O37  1  0.11546522  0.78200460  0.54703344  1
  O  O38  1  0.28969224  0.01217905  0.72793412  1
  O  O39  1  0.52119281  0.82147063  0.24704204  1
  O  O40  1  0.01121745  0.91952596  0.12223256  1
  O  O41  1  0.04321924  0.39089450  0.29862816  1
  O  O42  1  0.77775888  0.72534119  0.36673579  1
  O  O43  1  0.24969817  0.98683913  0.98062249  1
  O  O44  1  0.74969817  0.51316087  0.98062249  1
  O  O45  1  0.37496293  0.12236654  0.44814519  1
  O  O46  1  0.77138505  0.24977814  0.87115886  1
  O  O47  1  0.28360829  0.49980431  0.76238954  1
  O  O48  1  0.77138505  0.74977814  0.12884114  1
  O  O49  1  0.50304555  0.32702692  0.99836032  1
  O  O50  1  0.38374243  0.37897575  0.44818129  1
  O  O51  1  0.27357577  0.22712720  0.10446821  1
  O  O52  1  0.77775888  0.22534119  0.63326421  1
  O  O53  1  0.00304555  0.17297308  0.99836032  1
  O  O54  1  0.27357577  0.72712720  0.89553179  1
  O  O55  1  0.38374243  0.87897575  0.55181871  1
  O  O56  1  0.52119281  0.32147063  0.75295796  1
  O  O57  1  0.11546522  0.28200460  0.45296656  1
  O  O58  1  0.80325610  0.72299874  0.70390430  1
  O  O59  1  0.28969224  0.51217905  0.27206588  1
  O  O60  1  0.61546522  0.21799540  0.45296656  1
  O  O61  1  0.03997529  0.64585745  0.73070656  1
  O  O62  1  0.27775888  0.27465881  0.63326421  1
  O  O63  1  0.24969817  0.48683913  0.01937751  1
loop_
_geom_bond_atom_site_label_1
_geom_bond_atom_site_label_2
_geom_bond_distance
_geom_bond_site_symmetry_2
Ba0 O7 2.769869 1_545
Ba0 O55 2.783811 1_545
Ba0 O32 2.846002 1_545
Ba0 O45 2.848534 1_555
Ba0 O38 2.855953 1_555
Ba0 O60 2.885209 1_555
Ba0 O52 3.029680 1_555
Ba0 O56 3.158166 1_555
Ba0 O35 3.243751 1_555
Ba0 O16 3.259374 1_555
Ba0 O62 3.372138 1_555
Ba1 O41 2.625375 1_655
Ba1 O63 2.843307 1_655
Ba1 O23 2.859330 1_555
Ba1 O1 2.904458 1_654
Ba1 O0 2.937338 1_555
Ba1 O14 2.990116 1_655
Ba1 O53 3.086155 1_654
Ba1 O44 3.140232 1_554
Ba1 O34 3.348014 1_655
Ba2 O2 2.625375 1_655
Ba2 O43 2.843307 1_655
Ba2 O30 2.859330 1_555
Ba2 O40 2.904458 1_656
Ba2 O35 2.937338 1_565
Ba2 O53 2.990116 1_665
Ba2 O14 3.086155 1_656
Ba2 O22 3.140232 1_566
Ba2 O19 3.348014 1_665
Ba3 O26 2.769869 1_555
Ba3 O50 2.783811 1_555
Ba3 O4 2.846002 1_555
Ba3 O29 2.848534 1_555
Ba3 O59 2.855953 1_555
Ba3 O8 2.885209 1_555
Ba3 O42 3.029680 1_555
Ba3 O39 3.158166 1_555
Ba3 O0 3.243751 1_555
Ba3 O17 3.259374 1_555
Ba3 O18 3.372138 1_555
Ba4 O15 2.625375 1_555
Ba4 O22 2.843307 1_555
Ba4 O51 2.859330 1_555
Ba4 O16 2.904458 1_554
Ba4 O13 2.937338 1_545
Ba4 O31 2.990116 1_545
Ba4 O49 3.086155 1_554
Ba4 O43 3.140232 1_544
Ba4 O39 3.348014 1_545
Ba5 O21 2.769869 1_565
Ba5 O25 2.783811 1_465
Ba5 O6 2.846002 1_565
Ba5 O28 2.848534 1_455
Ba5 O9 2.855953 1_455
Ba5 O37 2.885209 1_555
Ba5 O18 3.029680 1_555
Ba5 O34 3.158166 1_555
Ba5 O13 3.243751 1_555
Ba5 O40 3.259374 1_555
Ba5 O42 3.372138 1_455
Ba6 O11 2.625375 1_555
Ba6 O44 2.843307 1_555
Ba6 O54 2.859330 1_555
Ba6 O17 2.904458 1_556
Ba6 O47 2.937338 1_555
Ba6 O49 2.990116 1_555
Ba6 O31 3.086155 1_556
Ba6 O63 3.140232 1_556
Ba6 O56 3.348014 1_555
Ba7 O61 2.769869 1_555
Ba7 O27 2.783811 1_455
Ba7 O12 2.846002 1_555
Ba7 O24 2.848534 1_455
Ba7 O5 2.855953 1_455
Ba7 O57 2.885209 1_555
Ba7 O62 3.029680 1_555
Ba7 O19 3.158166 1_555
Ba7 O47 3.243751 1_555
Ba7 O1 3.259374 1_555
Ba7 O52 3.372138 1_455
Co0 O59 1.886575 1_555
Co0 O18 1.936324 1_555
Co0 O34 1.956944 1_555
Co0 O10 2.017948 1_555
Co1 O58 1.832975 1_555
Co1 O7 1.848565 1_555
Co1 O30 1.876302 1_555
Co1 O35 1.876808 1_565
Co2 O60 1.839383 1_555
Co2 O24 1.849658 1_555
Co2 O52 1.866399 1_555
Co2 O4 1.892169 1_555
Co3 O17 1.964101 1_555
Co3 O44 1.971924 1_554
Co3 O48 1.975627 1_555
Co3 O0 1.982863 1_555
Co4 O51 1.921159 1_556
Co4 O43 1.931220 1_545
Co4 O3 1.966724 1_555
Co4 O53 1.969245 1_555
Co5 O37 1.839383 1_555
Co5 O29 1.849658 1_555
Co5 O18 1.866399 1_555
Co5 O12 1.892169 1_555
Co6 O54 1.921159 1_554
Co6 O63 1.931220 1_555
Co6 O10 1.966724 1_555
Co6 O14 1.969245 1_555
Co7 O20 1.919800 1_555
Co7 O59 1.942659 1_555
Co7 O57 1.944502 1_555
Co7 O12 1.951289 1_555
Co7 O41 1.955250 1_555
Co7 O50 2.044103 1_555
Co8 O29 1.897506 1_555
Co8 O33 1.917037 1_555
Co8 O8 1.920478 1_555
Co8 O55 1.926023 1_555
Co8 O7 1.951525 1_555
Co8 O11 1.967035 1_555
Co9 O36 1.919800 1_555
Co9 O9 1.942659 1_545
Co9 O60 1.944502 1_555
Co9 O32 1.951289 1_545
Co9 O15 1.955250 1_555
Co9 O25 2.044103 1_555
Co10 O8 1.839383 1_555
Co10 O28 1.849658 1_555
Co10 O42 1.866399 1_555
Co10 O32 1.892169 1_555
Co11 O40 1.964101 1_555
Co11 O43 1.971924 1_554
Co11 O10 1.975627 1_555
Co11 O13 1.982863 1_555
Co12 O58 1.919800 1_555
Co12 O5 1.942659 1_555
Co12 O8 1.944502 1_555
Co12 O4 1.951289 1_555
Co12 O11 1.955250 1_555
Co12 O27 2.044103 1_555
Co13 O33 1.832975 1_555
Co13 O61 1.848565 1_555
Co13 O54 1.876302 1_555
Co13 O47 1.876808 1_555
Co14 O28 1.897506 1_555
Co14 O58 1.917037 1_555
Co14 O37 1.920478 1_655
Co14 O27 1.926023 1_555
Co14 O61 1.951525 1_655
Co14 O2 1.967035 1_655
Co15 O45 1.897506 1_555
Co15 O20 1.917037 1_555
Co15 O60 1.920478 1_555
Co15 O50 1.926023 1_555
Co15 O26 1.951525 1_555
Co15 O15 1.967035 1_555
Co16 O34 1.869649 1_655
Co16 O14 1.882452 1_655
Co16 O40 1.905673 1_655
Co16 O48 1.931973 1_555
Co17 O5 1.886575 1_555
Co17 O52 1.936324 1_555
Co17 O56 1.956944 1_555
Co17 O46 2.017948 1_555
Co18 O16 1.964101 1_555
Co18 O22 1.971924 1_556
Co18 O46 1.975627 1_555
Co18 O35 1.982863 1_555
Co19 O24 1.897506 1_555
Co19 O36 1.917037 1_555
Co19 O57 1.920478 1_655
Co19 O25 1.926023 1_555
Co19 O21 1.951525 1_655
Co19 O41 1.967035 1_655
Co20 O56 1.869649 1_555
Co20 O49 1.882452 1_555
Co20 O16 1.905673 1_555
Co20 O3 1.931973 1_555
Co21 O33 1.919800 1_555
Co21 O38 1.942659 1_565
Co21 O37 1.944502 1_555
Co21 O6 1.951289 1_565
Co21 O2 1.955250 1_555
Co21 O55 2.044103 1_555
Co22 O23 1.921159 1_556
Co22 O44 1.931220 1_555
Co22 O46 1.966724 1_555
Co22 O49 1.969245 1_555
Co23 O38 1.886575 1_555
Co23 O62 1.936324 1_555
Co23 O19 1.956944 1_555
Co23 O3 2.017948 1_555
Co24 O36 1.832975 1_555
Co24 O26 1.848565 1_555
Co24 O23 1.876302 1_555
Co24 O0 1.876808 1_555
Co25 O19 1.869649 1_655
Co25 O53 1.882452 1_655
Co25 O1 1.905673 1_655
Co25 O46 1.931973 1_555
Co26 O39 1.869649 1_555
Co26 O31 1.882452 1_555
Co26 O17 1.905673 1_555
Co26 O10 1.931973 1_555
Co27 O20 1.832975 1_555
Co27 O21 1.848565 1_555
Co27 O51 1.876302 1_555
Co27 O13 1.876808 1_545
Co28 O57 1.839383 1_555
Co28 O45 1.849658 1_555
Co28 O62 1.866399 1_555
Co28 O6 1.892169 1_555
Co29 O1 1.964101 1_555
Co29 O63 1.971924 1_556
Co29 O3 1.975627 1_555
Co29 O47 1.982863 1_555
Co30 O30 1.921159 1_554
Co30 O22 1.931220 1_565
Co30 O48 1.966724 1_555
Co30 O31 1.969245 1_555
Co31 O9 1.886575 1_555
Co31 O42 1.936324 1_555
Co31 O39 1.956944 1_555
Co31 O48 2.017948 1_555
O0 Y3 2.369160 1_555
O1 Y6 2.358400 1_455
O2 Y4 2.435029 1_465
O4 Y0 2.372824 1_555
O5 Y6 2.221630 1_555
O6 Y4 2.372824 1_455
O7 Y2 2.356958 1_555
O9 Y5 2.221630 1_565
O11 Y0 2.435029 1_555
O12 Y3 2.372824 1_455
O13 Y1 2.369160 1_555
O14 Y6 2.435407 1_454
O15 Y1 2.435029 1_545
O16 Y2 2.358400 1_545
O17 Y7 2.358400 1_555
O18 Y1 2.334514 1_555
O19 Y4 2.309744 1_455
O20 Y7 2.533018 1_555
O21 Y5 2.356958 1_455
O22 Y5 2.290537 1_555
O23 Y5 2.295900 1_555
O24 Y3 2.287620 1_555
O25 Y4 2.434245 1_555
O26 Y7 2.356958 1_555
O27 Y3 2.434245 1_555
O28 Y4 2.287620 1_565
O29 Y0 2.287620 1_555
O30 Y6 2.295900 1_555
O31 Y2 2.435407 1_554
O32 Y1 2.372824 1_555
O33 Y2 2.533018 1_555
O34 Y3 2.309744 1_455
O35 Y4 2.369160 1_555
O36 Y5 2.533018 1_555
O38 Y2 2.221630 1_545
O39 Y1 2.309744 1_555
O40 Y5 2.358400 1_465
O41 Y3 2.435029 1_455
O42 Y3 2.334514 1_555
O43 Y2 2.290537 1_555
O44 Y6 2.290537 1_555
O45 Y1 2.287620 1_545
O47 Y0 2.369160 1_555
O49 Y7 2.435407 1_556
O50 Y0 2.434245 1_555
O51 Y7 2.295900 1_555
O52 Y4 2.334514 1_555
O53 Y5 2.435407 1_456
O54 Y2 2.295900 1_555
O55 Y1 2.434245 1_555
O56 Y0 2.309744 1_555
O58 Y6 2.533018 1_555
O59 Y7 2.221630 1_555
O61 Y6 2.356958 1_455
O62 Y0 2.334514 1_555
O63 Y7 2.290537 1_555
