# generated using pymatgen
data_Na2Ti2Se9
_symmetry_space_group_name_H-M   'P 1'
_cell_length_a   13.11534855
_cell_length_b   14.02294221
_cell_length_c   15.23769542
_cell_angle_alpha   90.00000000
_cell_angle_beta   90.00000000
_cell_angle_gamma   94.41089616
_symmetry_Int_Tables_number   1
_chemical_formula_structural   Na2Ti2Se9
_chemical_formula_sum   'Na16 Ti16 Se72'
_cell_volume   2794.15209984
_cell_formula_units_Z   8
loop_
 _symmetry_equiv_pos_site_id
 _symmetry_equiv_pos_as_xyz
  1  'x, y, z'
loop_
 _atom_site_type_symbol
 _atom_site_label
 _atom_site_symmetry_multiplicity
 _atom_site_fract_x
 _atom_site_fract_y
 _atom_site_fract_z
 _atom_site_occupancy
  Na  Na0  1  0.78033652  0.39055183  0.96276743  1
  Na  Na1  1  0.69557696  0.58100311  0.73467449  1
  Na  Na2  1  0.91211434  0.36692049  0.43854457  1
  Na  Na3  1  0.64079964  0.62242429  0.26146028  1
  Na  Na4  1  0.35920036  0.37757571  0.76146028  1
  Na  Na5  1  0.11803269  0.12231272  0.52836699  1
  Na  Na6  1  0.82218534  0.94943297  0.49489315  1
  Na  Na7  1  0.30442304  0.41899689  0.23467449  1
  Na  Na8  1  0.08788566  0.63307951  0.93854457  1
  Na  Na9  1  0.21966348  0.60944817  0.46276743  1
  Na  Na10  1  0.88196731  0.87768728  0.02836699  1
  Na  Na11  1  0.63230989  0.12861115  0.25625234  1
  Na  Na12  1  0.36769011  0.87138885  0.75625234  1
  Na  Na13  1  0.67906666  0.15338696  0.66579378  1
  Na  Na14  1  0.32093334  0.84661304  0.16579378  1
  Na  Na15  1  0.17781466  0.05056703  0.99489315  1
  Ti  Ti0  1  0.01086692  0.51916071  0.23224478  1
  Ti  Ti1  1  0.98913308  0.48083929  0.73224478  1
  Ti  Ti2  1  0.49023294  0.73721518  0.96831697  1
  Ti  Ti3  1  0.99018151  0.97966779  0.72354926  1
  Ti  Ti4  1  0.98082867  0.73765136  0.73258394  1
  Ti  Ti5  1  0.51388687  0.49731213  0.96741784  1
  Ti  Ti6  1  0.49270343  0.99437261  0.97637852  1
  Ti  Ti7  1  0.50976706  0.26278482  0.46831697  1
  Ti  Ti8  1  0.50729657  0.00562739  0.47637852  1
  Ti  Ti9  1  0.00981849  0.02033221  0.22354926  1
  Ti  Ti10  1  0.01854436  0.76230530  0.22074564  1
  Ti  Ti11  1  0.01917133  0.26234864  0.23258394  1
  Ti  Ti12  1  0.49395022  0.76134053  0.46471373  1
  Ti  Ti13  1  0.50604978  0.23865947  0.96471373  1
  Ti  Ti14  1  0.48611313  0.50268787  0.46741784  1
  Ti  Ti15  1  0.98145564  0.23769470  0.72074564  1
  Se  Se0  1  0.32126644  0.21209365  0.90446859  1
  Se  Se1  1  0.33740044  0.48086100  0.57349177  1
  Se  Se2  1  0.56684548  0.63465580  0.56873721  1
  Se  Se3  1  0.66259956  0.51913900  0.07349177  1
  Se  Se4  1  0.95272803  0.88766368  0.33419952  1
  Se  Se5  1  0.95108102  0.14519636  0.35073190  1
  Se  Se6  1  0.50804035  0.99925098  0.64452602  1
  Se  Se7  1  0.35841106  0.85882811  0.95570328  1
  Se  Se8  1  0.10493914  0.98681476  0.36870657  1
  Se  Se9  1  0.64158894  0.14117189  0.45570328  1
  Se  Se10  1  0.40905565  0.61498771  0.07450069  1
  Se  Se11  1  0.89506086  0.01318524  0.86870657  1
  Se  Se12  1  0.09097370  0.90008167  0.12586361  1
  Se  Se13  1  0.39216489  0.10869413  0.06635670  1
  Se  Se14  1  0.04816836  0.86584935  0.60756059  1
  Se  Se15  1  0.34389403  0.36963775  0.45489351  1
  Se  Se16  1  0.63856188  0.25315054  0.08926596  1
  Se  Se17  1  0.47947542  0.25541431  0.63495197  1
  Se  Se18  1  0.16602287  0.64826156  0.20428810  1
  Se  Se19  1  0.31864005  0.44663809  0.97637986  1
  Se  Se20  1  0.16795385  0.14937215  0.23126077  1
  Se  Se21  1  0.45078162  0.26909885  0.30674894  1
  Se  Se22  1  0.82478628  0.24071738  0.82371189  1
  Se  Se23  1  0.91601787  0.51718124  0.57849032  1
  Se  Se24  1  0.36143812  0.74684946  0.58926596  1
  Se  Se25  1  0.04891898  0.85480364  0.85073190  1
  Se  Se26  1  0.16598037  0.74750167  0.79012950  1
  Se  Se27  1  0.89982446  0.59881258  0.82194533  1
  Se  Se28  1  0.49195965  0.00074902  0.14452602  1
  Se  Se29  1  0.84685999  0.74329168  0.61173041  1
  Se  Se30  1  0.57589538  0.39222150  0.35308604  1
  Se  Se31  1  0.38180315  0.03298325  0.34970771  1
  Se  Se32  1  0.56956334  0.37332348  0.86304921  1
  Se  Se33  1  0.43043666  0.62667652  0.36304921  1
  Se  Se34  1  0.82872620  0.01705181  0.16690311  1
  Se  Se35  1  0.17521372  0.75928262  0.32371189  1
  Se  Se36  1  0.60783511  0.89130587  0.56635670  1
  Se  Se37  1  0.15965460  0.48180081  0.80985937  1
  Se  Se38  1  0.83401963  0.25249833  0.29012950  1
  Se  Se39  1  0.65323229  0.13371880  0.97733533  1
  Se  Se40  1  0.44322151  0.10943882  0.84795588  1
  Se  Se41  1  0.97184419  0.63669800  0.35276662  1
  Se  Se42  1  0.63430150  0.87708612  0.98297986  1
  Se  Se43  1  0.34676771  0.86628120  0.47733533  1
  Se  Se44  1  0.65610597  0.63036225  0.95489351  1
  Se  Se45  1  0.90902630  0.09991833  0.62586361  1
  Se  Se46  1  0.83204615  0.85062785  0.73126077  1
  Se  Se47  1  0.68135995  0.55336191  0.47637986  1
  Se  Se48  1  0.59094435  0.38501229  0.57450069  1
  Se  Se49  1  0.17220467  0.24752702  0.68324122  1
  Se  Se50  1  0.06646562  0.35596382  0.61208674  1
  Se  Se51  1  0.42410462  0.60777850  0.85308604  1
  Se  Se52  1  0.52052458  0.74458569  0.13495197  1
  Se  Se53  1  0.43315452  0.36534420  0.06873721  1
  Se  Se54  1  0.67873356  0.78790635  0.40446859  1
  Se  Se55  1  0.04727197  0.11233632  0.83419952  1
  Se  Se56  1  0.55677849  0.89056118  0.34795588  1
  Se  Se57  1  0.93353438  0.64403618  0.11208674  1
  Se  Se58  1  0.82779533  0.75247298  0.18324122  1
  Se  Se59  1  0.15314001  0.25670832  0.11173041  1
  Se  Se60  1  0.17127380  0.98294819  0.66690311  1
  Se  Se61  1  0.36569850  0.12291388  0.48297986  1
  Se  Se62  1  0.54921838  0.73090115  0.80674894  1
  Se  Se63  1  0.84034540  0.51819919  0.30985937  1
  Se  Se64  1  0.10017554  0.40118742  0.32194533  1
  Se  Se65  1  0.93597451  0.38656096  0.12921219  1
  Se  Se66  1  0.06402549  0.61343904  0.62921219  1
  Se  Se67  1  0.08398213  0.48281876  0.07849032  1
  Se  Se68  1  0.95183164  0.13415065  0.10756059  1
  Se  Se69  1  0.83397713  0.35173844  0.70428810  1
  Se  Se70  1  0.02815581  0.36330200  0.85276662  1
  Se  Se71  1  0.61819685  0.96701675  0.84970771  1
loop_
_geom_bond_atom_site_label_1
_geom_bond_atom_site_label_2
_geom_bond_distance
_geom_bond_site_symmetry_2
Na0 Se3 2.985085 1_556
Na0 Se22 3.071262 1_555
Na0 Se32 3.147404 1_555
Na0 Se16 3.214694 1_556
Na0 Se65 3.258815 1_556
Na1 Se27 2.983907 1_555
Na1 Se62 3.151173 1_555
Na1 Se2 3.163119 1_555
Na1 Se29 3.454112 1_555
Na1 Se44 3.473103 1_555
Na2 Se38 2.912939 1_555
Na2 Se23 2.995536 1_555
Na2 Se64 3.047759 1_655
Na2 Se63 3.088423 1_555
Na2 Se50 3.341001 1_655
Na2 Se5 3.458799 1_555
Na3 Se52 3.091050 1_555
Na3 Se33 3.168138 1_555
Na3 Se58 3.173830 1_555
Na3 Se63 3.180822 1_555
Na3 Se54 3.194279 1_555
Na3 Se3 3.232164 1_555
Na3 Se47 3.467704 1_555
Na3 Se30 3.559772 1_555
Na4 Se17 3.091050 1_555
Na4 Se32 3.168138 1_555
Na4 Se49 3.173830 1_555
Na4 Se37 3.180822 1_555
Na4 Se0 3.194279 1_555
Na4 Se1 3.232164 1_555
Na4 Se19 3.467704 1_555
Na4 Se51 3.559772 1_555
Na5 Se49 2.994201 1_555
Na5 Se60 2.995494 1_545
Na5 Se8 3.083569 1_545
Na5 Se45 3.112462 1_455
Na5 Se61 3.320409 1_555
Na5 Se5 3.511698 1_455
Na6 Se45 3.059972 1_565
Na6 Se36 3.066107 1_555
Na6 Se4 3.147279 1_555
Na6 Se54 3.148543 1_555
Na6 Se29 3.431383 1_555
Na7 Se64 2.983907 1_555
Na7 Se21 3.151173 1_555
Na7 Se53 3.163119 1_555
Na7 Se59 3.454112 1_555
Na7 Se15 3.473103 1_555
Na8 Se26 2.912939 1_555
Na8 Se67 2.995536 1_556
Na8 Se27 3.047759 1_455
Na8 Se37 3.088423 1_555
Na8 Se57 3.341001 1_456
Na8 Se25 3.458799 1_555
Na9 Se1 2.985085 1_555
Na9 Se35 3.071262 1_555
Na9 Se33 3.147404 1_555
Na9 Se24 3.214694 1_555
Na9 Se66 3.258815 1_555
Na10 Se58 2.994201 1_555
Na10 Se34 2.995494 1_565
Na10 Se11 3.083569 1_564
Na10 Se12 3.112462 1_655
Na10 Se42 3.320409 1_554
Na10 Se25 3.511698 1_654
Na11 Se28 2.998978 1_555
Na11 Se9 3.046163 1_555
Na11 Se16 3.083676 1_555
Na11 Se38 3.094553 1_555
Na11 Se21 3.295883 1_555
Na11 Se34 3.399550 1_555
Na12 Se6 2.998978 1_555
Na12 Se7 3.046163 1_555
Na12 Se24 3.083676 1_555
Na12 Se26 3.094553 1_555
Na12 Se62 3.295883 1_555
Na12 Se60 3.399550 1_555
Na13 Se6 3.010392 1_545
Na13 Se17 3.113890 1_555
Na13 Se45 3.221255 1_555
Na13 Se9 3.241340 1_555
Na13 Se22 3.253087 1_555
Na13 Se69 3.367376 1_555
Na14 Se28 3.010392 1_565
Na14 Se52 3.113890 1_555
Na14 Se12 3.221255 1_555
Na14 Se7 3.241340 1_554
Na14 Se35 3.253087 1_555
Na14 Se18 3.367376 1_555
Na15 Se12 3.059972 1_546
Na15 Se13 3.066107 1_556
Na15 Se55 3.147279 1_555
Na15 Se0 3.148543 1_555
Na15 Se59 3.431383 1_556
Se0 Se40 2.392962 1_555
Se0 Ti13 2.591519 1_555
Se1 Se15 2.392931 1_555
Se1 Ti14 2.533474 1_555
Se2 Se47 2.408139 1_555
Se2 Ti14 2.574474 1_555
Se2 Ti12 2.616041 1_555
Se3 Se44 2.392931 1_554
Se3 Ti5 2.533474 1_554
Se4 Se8 2.401653 1_655
Se4 Ti9 2.578809 1_665
Se4 Ti10 2.656573 1_655
Se5 Ti11 2.551819 1_655
Se5 Ti9 2.760894 1_655
Se6 Ti8 2.563785 1_565
Se7 Ti6 2.509829 1_555
Se7 Ti2 2.527411 1_555
Se8 Ti9 2.599961 1_565
Se9 Ti8 2.509829 1_555
Se9 Ti7 2.527411 1_555
Se10 Se52 2.424845 1_555
Se10 Ti2 2.531500 1_554
Se10 Ti5 2.761300 1_554
Se11 Se55 2.401653 1_655
Se11 Ti3 2.599961 1_545
Se12 Ti10 2.538328 1_555
Se12 Ti9 2.543249 1_565
Se13 Se28 2.393302 1_555
Se13 Ti6 2.552188 1_544
Se13 Ti13 2.744546 1_554
Se14 Se60 2.390206 1_555
Se14 Ti3 2.536974 1_455
Se14 Ti4 2.719715 1_455
Se15 Ti14 2.541914 1_555
Se15 Ti7 2.742471 1_555
Se16 Se39 2.408410 1_554
Se16 Ti13 2.570875 1_554
Se17 Se48 2.424845 1_555
Se17 Ti7 2.570875 1_555
Se18 Se35 2.391838 1_555
Se18 Ti10 2.614856 1_555
Se18 Ti0 2.652015 1_555
Se19 Se53 2.408139 1_556
Se19 Ti5 2.607881 1_555
Se20 Se59 2.380261 1_555
Se20 Ti11 2.606438 1_555
Se20 Ti9 2.648090 1_555
Se21 Se30 2.395055 1_555
Se21 Ti7 2.584169 1_555
Se22 Se69 2.391838 1_555
Se22 Ti15 2.588233 1_555
Se23 Se66 2.405092 1_655
Se23 Ti1 2.596814 1_555
Se24 Se43 2.408410 1_555
Se24 Ti12 2.570875 1_555
Se25 Se26 2.414399 1_555
Se25 Ti4 2.551819 1_455
Se25 Ti3 2.760894 1_455
Se26 Ti4 2.575491 1_455
Se27 Ti1 2.505010 1_555
Se27 Ti4 2.540706 1_555
Se28 Ti6 2.563785 1_544
Se29 Se46 2.380261 1_555
Se29 Ti4 2.550700 1_555
Se30 Ti7 2.624426 1_555
Se30 Ti14 2.664927 1_555
Se31 Se61 2.408303 1_555
Se31 Ti8 2.584335 1_555
Se32 Ti5 2.506134 1_555
Se32 Ti13 2.533327 1_555
Se33 Ti14 2.506134 1_555
Se33 Ti12 2.533327 1_555
Se34 Se68 2.390206 1_555
Se34 Ti9 2.524162 1_655
Se35 Ti10 2.588233 1_555
Se36 Se6 2.393302 1_555
Se36 Ti8 2.552188 1_565
Se36 Ti12 2.744546 1_555
Se37 Se70 2.392138 1_555
Se37 Ti1 2.529022 1_455
Se38 Se5 2.414399 1_555
Se38 Ti11 2.575491 1_655
Se39 Ti13 2.523038 1_555
Se39 Ti6 2.760139 1_545
Se40 Ti13 2.626430 1_555
Se40 Ti6 2.648614 1_545
Se41 Se63 2.392138 1_555
Se41 Ti0 2.545772 1_655
Se41 Ti10 2.712673 1_655
Se42 Se71 2.408303 1_555
Se42 Ti6 2.575622 1_555
Se42 Ti2 2.626253 1_555
Se43 Ti12 2.523038 1_555
Se43 Ti8 2.760139 1_565
Se44 Ti5 2.541914 1_555
Se44 Ti2 2.742471 1_555
Se45 Ti15 2.538328 1_555
Se45 Ti3 2.543249 1_545
Se46 Ti4 2.606438 1_555
Se46 Ti3 2.648090 1_555
Se47 Ti14 2.607881 1_555
Se48 Ti7 2.531500 1_555
Se48 Ti14 2.761300 1_555
Se49 Se50 2.394866 1_555
Se49 Ti15 2.559540 1_455
Se50 Ti15 2.539803 1_455
Se50 Ti1 2.778600 1_455
Se51 Se62 2.395055 1_555
Se51 Ti2 2.624426 1_555
Se51 Ti5 2.664927 1_555
Se52 Ti2 2.570875 1_554
Se53 Ti5 2.574474 1_554
Se53 Ti13 2.616041 1_554
Se54 Se56 2.392962 1_555
Se54 Ti12 2.591519 1_555
Se55 Ti3 2.578809 1_445
Se55 Ti15 2.656573 1_455
Se56 Ti12 2.626430 1_555
Se56 Ti8 2.648614 1_565
Se57 Se58 2.394866 1_555
Se57 Ti10 2.539803 1_655
Se57 Ti0 2.778600 1_655
Se58 Ti10 2.559540 1_655
Se59 Ti11 2.550700 1_555
Se60 Ti3 2.524162 1_455
Se61 Ti8 2.575622 1_555
Se61 Ti7 2.626253 1_555
Se62 Ti2 2.584169 1_555
Se63 Ti0 2.529022 1_655
Se64 Ti0 2.505010 1_555
Se64 Ti11 2.540706 1_555
Se65 Se67 2.405092 1_655
Se65 Ti0 2.570254 1_655
Se65 Ti11 2.645373 1_655
Se66 Ti1 2.570254 1_455
Se66 Ti4 2.645373 1_455
Se67 Ti0 2.596814 1_555
Se68 Ti9 2.536974 1_655
Se68 Ti11 2.719715 1_655
Se69 Ti15 2.614856 1_555
Se69 Ti1 2.652015 1_555
Se70 Ti1 2.545772 1_455
Se70 Ti15 2.712673 1_455
Se71 Ti6 2.584335 1_555
