# generated using pymatgen
data_CdH8C2Br3N
_symmetry_space_group_name_H-M   'P 1'
_cell_length_a   14.02375400
_cell_length_b   7.07392100
_cell_length_c   9.13633636
_cell_angle_alpha   82.74881297
_cell_angle_beta   90.00000000
_cell_angle_gamma   90.00000000
_symmetry_Int_Tables_number   1
_chemical_formula_structural   CdH8C2Br3N
_chemical_formula_sum   'Cd4 H32 C8 Br12 N4'
_cell_volume   899.10262292
_cell_formula_units_Z   4
loop_
 _symmetry_equiv_pos_site_id
 _symmetry_equiv_pos_as_xyz
  1  'x, y, z'
loop_
 _atom_site_type_symbol
 _atom_site_label
 _atom_site_symmetry_multiplicity
 _atom_site_fract_x
 _atom_site_fract_y
 _atom_site_fract_z
 _atom_site_occupancy
  Cd  Cd0  1  0.74612200  0.02235100  0.78279200  1
  Cd  Cd1  1  0.25387800  0.97764900  0.21720800  1
  Cd  Cd2  1  0.24612200  0.47764900  0.21720800  1
  Cd  Cd3  1  0.75387800  0.52235100  0.78279200  1
  H  H0  1  0.91934100  0.02510800  0.36703900  1
  H  H1  1  0.41668700  0.71946000  0.55170000  1
  H  H2  1  0.51173700  0.66244600  0.77779700  1
  H  H3  1  0.58331300  0.28054000  0.44830000  1
  H  H4  1  0.09084000  0.46349400  0.68779000  1
  H  H5  1  0.41452700  0.59020400  0.87296300  1
  H  H6  1  0.40916000  0.96349400  0.68779000  1
  H  H7  1  0.52441200  0.05588000  0.14270400  1
  H  H8  1  0.18295100  0.12330100  0.65794400  1
  H  H9  1  0.31704900  0.62330100  0.65794400  1
  H  H10  1  0.58065900  0.52510800  0.36703900  1
  H  H11  1  0.08547300  0.09020400  0.87296300  1
  H  H12  1  0.41934100  0.47489200  0.63296100  1
  H  H13  1  0.91452700  0.90979600  0.12703700  1
  H  H14  1  0.97558800  0.55588000  0.14270400  1
  H  H15  1  0.01173700  0.83755400  0.22220300  1
  H  H16  1  0.81704900  0.87669900  0.34205600  1
  H  H17  1  0.65005200  0.10688100  0.14111700  1
  H  H18  1  0.98826300  0.16244600  0.77779700  1
  H  H19  1  0.68295100  0.37669900  0.34205600  1
  H  H20  1  0.84994800  0.60688100  0.14111700  1
  H  H21  1  0.08331300  0.21946000  0.55170000  1
  H  H22  1  0.59084000  0.03650600  0.31221000  1
  H  H23  1  0.02441200  0.44412000  0.85729600  1
  H  H24  1  0.47558800  0.94412000  0.85729600  1
  H  H25  1  0.34994800  0.89311900  0.85888300  1
  H  H26  1  0.91668700  0.78054000  0.44830000  1
  H  H27  1  0.58547300  0.40979600  0.12703700  1
  H  H28  1  0.15005200  0.39311900  0.85888300  1
  H  H29  1  0.08065900  0.97489200  0.63296100  1
  H  H30  1  0.48826300  0.33755400  0.22220300  1
  H  H31  1  0.90916000  0.53650600  0.31221000  1
  C  C0  1  0.89473000  0.88110000  0.35358700  1
  C  C1  1  0.58315700  0.11504800  0.20166900  1
  C  C2  1  0.41684300  0.88495200  0.79833100  1
  C  C3  1  0.60527000  0.38110000  0.35358700  1
  C  C4  1  0.10527000  0.11890000  0.64641300  1
  C  C5  1  0.39473000  0.61890000  0.64641300  1
  C  C6  1  0.08315700  0.38495200  0.79833100  1
  C  C7  1  0.91684300  0.61504800  0.20166900  1
  Br  Br0  1  0.83215100  0.21947800  0.00014100  1
  Br  Br1  1  0.83909400  0.30729700  0.58321300  1
  Br  Br2  1  0.66090600  0.80729700  0.58321300  1
  Br  Br3  1  0.33215100  0.28052200  0.99985900  1
  Br  Br4  1  0.16784900  0.78052200  0.99985900  1
  Br  Br5  1  0.59531700  0.27985500  0.78952400  1
  Br  Br6  1  0.16090600  0.69270300  0.41678700  1
  Br  Br7  1  0.40468300  0.72014500  0.21047600  1
  Br  Br8  1  0.90468300  0.77985500  0.78952400  1
  Br  Br9  1  0.33909400  0.19270300  0.41678700  1
  Br  Br10  1  0.66784900  0.71947800  0.00014100  1
  Br  Br11  1  0.09531700  0.22014500  0.21047600  1
  N  N0  1  0.56152300  0.31956600  0.21798300  1
  N  N1  1  0.06152300  0.18043400  0.78201700  1
  N  N2  1  0.93847700  0.81956500  0.21798300  1
  N  N3  1  0.43847700  0.68043400  0.78201700  1
loop_
_geom_bond_atom_site_label_1
_geom_bond_atom_site_label_2
_geom_bond_distance
_geom_bond_site_symmetry_2
H2 N3 1.036545 1_555
H5 N3 1.037663 1_555
H11 N1 1.037663 1_555
H13 N2 1.037666 1_555
H15 N2 1.036546 1_455
H18 N1 1.036545 1_655
H27 N0 1.037663 1_555
H30 N0 1.036545 1_555
C0 H26 1.092815 1_555
C0 H16 1.095282 1_555
C0 H0 1.097079 1_565
C0 N2 1.495637 1_555
C1 H17 1.094317 1_555
C1 H22 1.094819 1_555
C1 H7 1.095909 1_555
C1 N0 1.503917 1_555
C2 H25 1.094317 1_555
C2 H6 1.094819 1_555
C2 H24 1.095909 1_555
C2 N3 1.503917 1_555
C3 H3 1.092815 1_555
C3 H19 1.095282 1_555
C3 H10 1.097079 1_555
C3 N0 1.495634 1_555
C4 H21 1.092815 1_555
C4 H8 1.095282 1_555
C4 H29 1.097079 1_545
C4 N1 1.495634 1_555
C5 H1 1.092815 1_555
C5 H9 1.095282 1_555
C5 H12 1.097079 1_555
C5 N3 1.495634 1_555
C6 H28 1.094317 1_555
C6 H4 1.094819 1_555
C6 H23 1.095909 1_555
C6 N1 1.503917 1_555
C7 H20 1.094317 1_555
C7 H31 1.094819 1_555
C7 H14 1.095909 1_555
C7 N2 1.503910 1_555
Br0 Cd0 2.835906 1_554
Br0 Cd3 2.943552 1_554
Br1 Cd3 2.787029 1_555
Br1 Cd0 2.856565 1_555
Br2 Cd0 2.787029 1_565
Br2 Cd3 2.856565 1_555
Br3 Cd2 2.835906 1_556
Br3 Cd1 2.943552 1_546
Br4 Cd1 2.835906 1_556
Br4 Cd2 2.943552 1_556
Br5 Cd0 2.796919 1_555
Br5 Cd3 2.804323 1_555
Br6 Cd2 2.787029 1_555
Br6 Cd1 2.856565 1_555
Br7 Cd1 2.796919 1_555
Br7 Cd2 2.804323 1_555
Br8 Cd3 2.796919 1_555
Br8 Cd0 2.804323 1_565
Br9 Cd1 2.787029 1_545
Br9 Cd2 2.856565 1_555
Br10 Cd3 2.835906 1_554
Br10 Cd0 2.943552 1_564
Br11 Cd2 2.796919 1_555
Br11 Cd1 2.804323 1_545
