# generated using pymatgen
data_Pb2O3
_symmetry_space_group_name_H-M   'P 1'
_cell_length_a   5.42069918
_cell_length_b   5.42069918
_cell_length_c   5.73608209
_cell_angle_alpha   89.19718788
_cell_angle_beta   89.19718788
_cell_angle_gamma   101.01051114
_symmetry_Int_Tables_number   1
_chemical_formula_structural   Pb2O3
_chemical_formula_sum   'Pb4 O6'
_cell_volume   165.40614560
_cell_formula_units_Z   2
loop_
 _symmetry_equiv_pos_site_id
 _symmetry_equiv_pos_as_xyz
  1  'x, y, z'
loop_
 _atom_site_type_symbol
 _atom_site_label
 _atom_site_symmetry_multiplicity
 _atom_site_fract_x
 _atom_site_fract_y
 _atom_site_fract_z
 _atom_site_occupancy
  Pb  Pb0  1  0.00000000  0.50000000  0.00000000  1
  Pb  Pb1  1  0.00000000  0.00000000  0.50000000  1
  Pb  Pb2  1  0.50000000  0.50000000  0.50000000  1
  Pb  Pb3  1  0.50000000  0.00000000  0.00000000  1
  O  O0  1  0.24960600  0.24960600  0.10894100  1
  O  O1  1  0.25256300  0.76017700  0.74512200  1
  O  O2  1  0.74743700  0.23982300  0.25487800  1
  O  O3  1  0.75039400  0.75039400  0.89105900  1
  O  O4  1  0.23982300  0.74743700  0.25487800  1
  O  O5  1  0.76017700  0.25256300  0.74512200  1
loop_
_geom_bond_atom_site_label_1
_geom_bond_atom_site_label_2
_geom_bond_distance
_geom_bond_site_symmetry_2
O0 Pb0 2.182871 1_555
O0 Pb3 2.182871 1_555
O1 Pb3 2.251371 1_566
O1 Pb0 2.269239 1_556
O1 Pb1 2.494771 1_565
O1 Pb2 2.547615 1_555
O2 Pb3 2.251371 1_555
O2 Pb0 2.269239 1_655
O2 Pb1 2.494771 1_655
O2 Pb2 2.547615 1_555
O3 Pb3 2.182871 1_566
O3 Pb0 2.182871 1_656
O4 Pb0 2.251371 1_555
O4 Pb3 2.269239 1_565
O4 Pb1 2.494771 1_565
O4 Pb2 2.547615 1_555
O5 Pb0 2.251371 1_656
O5 Pb3 2.269239 1_556
O5 Pb1 2.494771 1_655
O5 Pb2 2.547615 1_555
