# generated using pymatgen
data_Eu2Ge2Se5
_symmetry_space_group_name_H-M   'P 1'
_cell_length_a   12.33542800
_cell_length_b   8.51483900
_cell_length_c   12.04841292
_cell_angle_alpha   49.64079069
_cell_angle_beta   90.00000000
_cell_angle_gamma   90.00000000
_symmetry_Int_Tables_number   1
_chemical_formula_structural   Eu2Ge2Se5
_chemical_formula_sum   'Eu8 Ge8 Se20'
_cell_volume   964.30675901
_cell_formula_units_Z   4
loop_
 _symmetry_equiv_pos_site_id
 _symmetry_equiv_pos_as_xyz
  1  'x, y, z'
loop_
 _atom_site_type_symbol
 _atom_site_label
 _atom_site_symmetry_multiplicity
 _atom_site_fract_x
 _atom_site_fract_y
 _atom_site_fract_z
 _atom_site_occupancy
  Eu  Eu0  1  0.33765300  0.01422100  0.52914500  1
  Eu  Eu1  1  0.83765300  0.98577900  0.97085500  1
  Eu  Eu2  1  0.19600900  0.53584400  0.52096200  1
  Eu  Eu3  1  0.66234700  0.98577900  0.47085500  1
  Eu  Eu4  1  0.69600900  0.46415600  0.97903800  1
  Eu  Eu5  1  0.16234700  0.01422100  0.02914500  1
  Eu  Eu6  1  0.80399100  0.46415600  0.47903800  1
  Eu  Eu7  1  0.30399100  0.53584400  0.02096200  1
  Ge  Ge0  1  0.48043900  0.48556000  0.31387300  1
  Ge  Ge1  1  0.55016400  0.84438100  0.16540300  1
  Ge  Ge2  1  0.51956100  0.51444000  0.68612700  1
  Ge  Ge3  1  0.98043800  0.51444000  0.18612700  1
  Ge  Ge4  1  0.94983600  0.84438100  0.66540300  1
  Ge  Ge5  1  0.44983600  0.15561900  0.83459700  1
  Ge  Ge6  1  0.05016400  0.15561900  0.33459700  1
  Ge  Ge7  1  0.01956100  0.48556000  0.81387300  1
  Se  Se0  1  0.49304500  0.68391700  0.78514000  1
  Se  Se1  1  0.09447700  0.10163200  0.55919900  1
  Se  Se2  1  0.00695500  0.68391700  0.28514000  1
  Se  Se3  1  0.20989600  0.06034800  0.27719600  1
  Se  Se4  1  0.56056900  0.24522800  0.54734900  1
  Se  Se5  1  0.28352800  0.51717900  0.29330000  1
  Se  Se6  1  0.70989600  0.93965200  0.22280400  1
  Se  Se7  1  0.93943100  0.24522800  0.04734900  1
  Se  Se8  1  0.06056900  0.75477200  0.95265100  1
  Se  Se9  1  0.40552300  0.10163200  0.05919900  1
  Se  Se10  1  0.79010400  0.93965200  0.72280400  1
  Se  Se11  1  0.71647200  0.48282100  0.70670000  1
  Se  Se12  1  0.21647200  0.51717900  0.79330000  1
  Se  Se13  1  0.29010400  0.06034800  0.77719600  1
  Se  Se14  1  0.90552300  0.89836800  0.44080100  1
  Se  Se15  1  0.78352800  0.48282100  0.20670000  1
  Se  Se16  1  0.99304500  0.31608300  0.71486000  1
  Se  Se17  1  0.43943100  0.75477200  0.45265100  1
  Se  Se18  1  0.50695500  0.31608300  0.21486000  1
  Se  Se19  1  0.59447700  0.89836800  0.94080100  1
loop_
_geom_bond_atom_site_label_1
_geom_bond_atom_site_label_2
_geom_bond_distance
_geom_bond_site_symmetry_2
Eu0 Se0 3.140446 1_545
Eu0 Se17 3.153256 1_545
Eu0 Se1 3.167369 1_555
Eu0 Se3 3.210677 1_555
Eu0 Se13 3.309143 1_555
Eu0 Se5 3.331641 1_555
Eu0 Se4 3.469453 1_555
Eu0 Ge0 3.529140 1_555
Eu0 Se18 3.563853 1_555
Eu0 Se12 3.581922 1_545
Eu1 Se16 3.140446 1_565
Eu1 Se7 3.153256 1_566
Eu1 Se19 3.167369 1_555
Eu1 Se6 3.210677 1_556
Eu1 Se10 3.309143 1_555
Eu1 Se15 3.331641 1_556
Eu1 Se8 3.469453 1_655
Eu1 Ge3 3.529134 1_556
Eu1 Se2 3.563853 1_656
Eu1 Se11 3.581922 1_565
Eu2 Se5 3.046183 1_555
Eu2 Se16 3.092837 1_455
Eu2 Se12 3.190628 1_555
Eu2 Se2 3.234404 1_555
Eu2 Se13 3.328960 1_555
Eu2 Se17 3.343889 1_555
Eu2 Se3 3.407745 1_565
Eu2 Se1 3.639290 1_555
Eu3 Se18 3.140446 1_565
Eu3 Se4 3.153256 1_565
Eu3 Se14 3.167369 1_555
Eu3 Se10 3.210677 1_555
Eu3 Se6 3.309143 1_555
Eu3 Se11 3.331641 1_555
Eu3 Se17 3.469453 1_555
Eu3 Ge2 3.529140 1_555
Eu3 Se0 3.563853 1_555
Eu3 Se15 3.581922 1_565
Eu4 Se15 3.046183 1_556
Eu4 Se0 3.092837 1_555
Eu4 Se11 3.190628 1_555
Eu4 Se18 3.234404 1_556
Eu4 Se10 3.328960 1_555
Eu4 Se7 3.343889 1_556
Eu4 Se6 3.407745 1_546
Eu4 Se19 3.639290 1_555
Eu5 Se2 3.140446 1_545
Eu5 Se8 3.153256 1_544
Eu5 Se9 3.167369 1_555
Eu5 Se13 3.210677 1_554
Eu5 Se3 3.309143 1_555
Eu5 Se12 3.331641 1_554
Eu5 Se7 3.469453 1_455
Eu5 Ge7 3.529140 1_554
Eu5 Se16 3.563853 1_454
Eu5 Se5 3.581922 1_545
Eu6 Se11 3.046183 1_555
Eu6 Se2 3.092837 1_655
Eu6 Se15 3.190628 1_555
Eu6 Se16 3.234404 1_555
Eu6 Se6 3.328960 1_555
Eu6 Se4 3.343889 1_555
Eu6 Se10 3.407745 1_545
Eu6 Se14 3.639290 1_555
Eu7 Se12 3.046183 1_554
Eu7 Se18 3.092837 1_555
Eu7 Se5 3.190628 1_555
Eu7 Se0 3.234404 1_554
Eu7 Se3 3.328960 1_555
Eu7 Se8 3.343889 1_554
Eu7 Se13 3.407745 1_564
Eu7 Se9 3.639290 1_555
Ge0 Se4 2.371114 1_555
Ge0 Se18 2.417061 1_555
Ge0 Se5 2.438738 1_555
Ge0 Ge1 2.489172 1_555
Ge1 Se6 2.396940 1_555
Ge1 Se9 2.447174 1_565
Ge1 Se19 2.494382 1_554
Ge2 Se17 2.371114 1_555
Ge2 Se0 2.417061 1_555
Ge2 Se11 2.438738 1_555
Ge2 Ge5 2.489172 1_555
Ge3 Se8 2.371119 1_654
Ge3 Se2 2.417063 1_655
Ge3 Se15 2.438726 1_555
Ge3 Ge6 2.489176 1_655
Ge4 Se10 2.396940 1_555
Ge4 Se1 2.447174 1_665
Ge4 Ge7 2.489172 1_655
Ge4 Se14 2.494382 1_555
Ge5 Se13 2.396940 1_555
Ge5 Se19 2.447174 1_545
Ge5 Se9 2.494382 1_556
Ge6 Se3 2.396940 1_555
Ge6 Se14 2.447174 1_445
Ge6 Se1 2.494382 1_555
Ge7 Se7 2.371114 1_456
Ge7 Se16 2.417061 1_455
Ge7 Se12 2.438738 1_555
