# generated using pymatgen
data_Na5Ca6Nd5Zr16O48
_symmetry_space_group_name_H-M   'P 1'
_cell_length_a   32.66822200
_cell_length_b   5.67136300
_cell_length_c   5.85752517
_cell_angle_alpha   89.88318844
_cell_angle_beta   90.00000000
_cell_angle_gamma   90.00000000
_symmetry_Int_Tables_number   1
_chemical_formula_structural   Na5Ca6Nd5Zr16O48
_chemical_formula_sum   'Na5 Ca6 Nd5 Zr16 O48'
_cell_volume   1085.24102998
_cell_formula_units_Z   1
loop_
 _symmetry_equiv_pos_site_id
 _symmetry_equiv_pos_as_xyz
  1  'x, y, z'
loop_
 _atom_site_type_symbol
 _atom_site_label
 _atom_site_symmetry_multiplicity
 _atom_site_fract_x
 _atom_site_fract_y
 _atom_site_fract_z
 _atom_site_occupancy
  Na  Na0  1  0.25038100  0.98779500  0.02826600  1
  Na  Na1  1  0.74961900  0.98779500  0.02826600  1
  Na  Na2  1  0.00000000  0.51202200  0.52836200  1
  Na  Na3  1  0.63034500  0.49602800  0.47663300  1
  Na  Na4  1  0.36965500  0.49602800  0.47663300  1
  Ca  Ca0  1  0.87378400  0.48736700  0.45220500  1
  Ca  Ca1  1  0.12621600  0.48736700  0.45220500  1
  Ca  Ca2  1  0.37036300  0.01141700  0.94786400  1
  Ca  Ca3  1  0.87636900  0.01511900  0.95163100  1
  Ca  Ca4  1  0.12363100  0.01511900  0.95163100  1
  Ca  Ca5  1  0.62963700  0.01141700  0.94786400  1
  Nd  Nd0  1  0.50000000  0.98941100  0.05010500  1
  Nd  Nd1  1  0.00000000  0.98810400  0.06077000  1
  Nd  Nd2  1  0.24984500  0.51551300  0.56425900  1
  Nd  Nd3  1  0.50000000  0.51141700  0.55745500  1
  Nd  Nd4  1  0.75015500  0.51551300  0.56425900  1
  Zr  Zr0  1  0.31167600  0.49782600  0.01285600  1
  Zr  Zr1  1  0.56588200  0.49883000  0.00413300  1
  Zr  Zr2  1  0.81300000  0.50056900  0.00575300  1
  Zr  Zr3  1  0.06299500  0.50197000  0.99448700  1
  Zr  Zr4  1  0.18700000  0.50056900  0.00575300  1
  Zr  Zr5  1  0.43411800  0.49883000  0.00413300  1
  Zr  Zr6  1  0.93700500  0.50197000  0.99448700  1
  Zr  Zr7  1  0.68832400  0.49782600  0.01285600  1
  Zr  Zr8  1  0.31190400  0.00471300  0.49525700  1
  Zr  Zr9  1  0.56594900  0.00442700  0.49659900  1
  Zr  Zr10  1  0.81336200  0.99980400  0.49523500  1
  Zr  Zr11  1  0.06264900  0.00106800  0.50430100  1
  Zr  Zr12  1  0.18663800  0.99980400  0.49523500  1
  Zr  Zr13  1  0.43405100  0.00442700  0.49659900  1
  Zr  Zr14  1  0.93735100  0.00106800  0.50430100  1
  Zr  Zr15  1  0.68809600  0.00471300  0.49525700  1
  O  O0  1  0.37535400  0.91130600  0.54431800  1
  O  O1  1  0.87530000  0.89161200  0.54114700  1
  O  O2  1  0.12470000  0.89161200  0.54114700  1
  O  O3  1  0.62464600  0.91130600  0.54431800  1
  O  O4  1  0.29976300  0.77878900  0.78378800  1
  O  O5  1  0.20129800  0.78321100  0.78479900  1
  O  O6  1  0.54610500  0.79077200  0.78408500  1
  O  O7  1  0.79870200  0.78321100  0.78479900  1
  O  O8  1  0.45389500  0.79077200  0.78408500  1
  O  O9  1  0.70023700  0.77878900  0.78378800  1
  O  O10  1  0.04979500  0.81640600  0.81029500  1
  O  O11  1  0.95020500  0.81640600  0.81029500  1
  O  O12  1  0.29784200  0.69251700  0.30768400  1
  O  O13  1  0.19960600  0.68510600  0.31194600  1
  O  O14  1  0.54520800  0.70638400  0.28550800  1
  O  O15  1  0.80039400  0.68510600  0.31194600  1
  O  O16  1  0.45479200  0.70638400  0.28550800  1
  O  O17  1  0.70215800  0.69251700  0.30768400  1
  O  O18  1  0.04883300  0.71818700  0.28404800  1
  O  O19  1  0.95116700  0.71818700  0.28404800  1
  O  O20  1  0.62465800  0.61039600  0.03235200  1
  O  O21  1  0.87503900  0.61007100  0.04015700  1
  O  O22  1  0.37534200  0.61039600  0.03235200  1
  O  O23  1  0.12496100  0.61007100  0.04015700  1
  O  O24  1  0.24947200  0.40713000  0.96927200  1
  O  O25  1  0.50000000  0.39738400  0.96363100  1
  O  O26  1  0.00000000  0.39456700  0.96665800  1
  O  O27  1  0.75052800  0.40713000  0.96927200  1
  O  O28  1  0.32291100  0.28532500  0.71724100  1
  O  O29  1  0.42874900  0.30899100  0.68919300  1
  O  O30  1  0.57125100  0.30899100  0.68919300  1
  O  O31  1  0.67708900  0.28532500  0.71724100  1
  O  O32  1  0.82487800  0.29730400  0.70291200  1
  O  O33  1  0.92045000  0.30052200  0.70539400  1
  O  O34  1  0.17512200  0.29730400  0.70291200  1
  O  O35  1  0.07955000  0.30052200  0.70539400  1
  O  O36  1  0.42784700  0.17482600  0.17216900  1
  O  O37  1  0.32779200  0.19573500  0.20341400  1
  O  O38  1  0.92550400  0.20368000  0.20109300  1
  O  O39  1  0.67220800  0.19573500  0.20341400  1
  O  O40  1  0.07449600  0.20368000  0.20109300  1
  O  O41  1  0.57215300  0.17482600  0.17216900  1
  O  O42  1  0.82995900  0.20072500  0.20608200  1
  O  O43  1  0.17004100  0.20072500  0.20608200  1
  O  O44  1  0.24938400  0.11018900  0.46946400  1
  O  O45  1  0.50000000  0.10862100  0.45577900  1
  O  O46  1  0.75061600  0.11018900  0.46946400  1
  O  O47  1  0.00000000  0.09521600  0.46557300  1
loop_
_geom_bond_atom_site_label_1
_geom_bond_atom_site_label_2
_geom_bond_distance
_geom_bond_site_symmetry_2
Na0 O24 2.402661 1_564
Na0 O5 2.440869 1_554
Na0 O4 2.462760 1_554
Na0 O44 2.677491 1_565
Na0 O12 2.806409 1_555
Na0 O13 2.906509 1_555
Na0 O37 2.973796 1_565
Na0 O43 3.071909 1_565
Na1 O27 2.402661 1_564
Na1 O7 2.440869 1_554
Na1 O9 2.462760 1_554
Na1 O46 2.677491 1_565
Na1 O17 2.806409 1_555
Na1 O15 2.906509 1_555
Na1 O39 2.973796 1_565
Na1 O42 3.071909 1_565
Na2 O47 2.393040 1_555
Na2 O19 2.439920 1_455
Na2 O18 2.439920 1_555
Na2 O26 2.651026 1_555
Na2 O10 2.892241 1_555
Na2 O11 2.892241 1_455
Na3 O31 2.395678 1_555
Na3 O3 2.396369 1_555
Na3 O30 2.529198 1_555
Na3 O20 2.687148 1_555
Na3 O39 2.709816 1_555
Na3 O17 2.778558 1_555
Na4 O28 2.395678 1_555
Na4 O0 2.396369 1_555
Na4 O29 2.529198 1_555
Na4 O22 2.687148 1_555
Na4 O37 2.709816 1_555
Na4 O12 2.778558 1_555
Ca0 O1 2.352626 1_555
Ca0 O33 2.374877 1_555
Ca0 O32 2.421686 1_555
Ca0 O21 2.510873 1_555
Ca0 O42 2.603927 1_555
Ca0 O38 2.759794 1_555
Ca0 O15 2.770736 1_555
Ca0 O19 3.011510 1_555
Ca1 O2 2.352626 1_555
Ca1 O35 2.374877 1_555
Ca1 O34 2.421686 1_555
Ca1 O23 2.510873 1_555
Ca1 O43 2.603927 1_555
Ca1 O40 2.759794 1_555
Ca1 O13 2.770736 1_555
Ca1 O18 3.011510 1_555
Ca2 O37 2.296494 1_556
Ca2 O22 2.332249 1_546
Ca2 O0 2.437596 1_545
Ca2 O36 2.473177 1_556
Ca2 O28 2.575365 1_555
Ca2 O4 2.826449 1_545
Ca2 O29 2.961677 1_555
Ca3 O21 2.354342 1_546
Ca3 O42 2.373721 1_556
Ca3 O38 2.421093 1_556
Ca3 O1 2.505985 1_545
Ca3 O33 2.600866 1_555
Ca3 O32 2.739290 1_555
Ca3 O11 2.788806 1_545
Ca3 O7 3.021200 1_545
Ca4 O23 2.354342 1_546
Ca4 O43 2.373721 1_556
Ca4 O40 2.421093 1_556
Ca4 O2 2.505985 1_545
Ca4 O35 2.600866 1_555
Ca4 O34 2.739290 1_555
Ca4 O10 2.788806 1_545
Ca4 O5 3.021200 1_545
Ca5 O39 2.296494 1_556
Ca5 O20 2.332249 1_546
Ca5 O3 2.437596 1_545
Ca5 O41 2.473177 1_556
Ca5 O31 2.575365 1_555
Ca5 O9 2.826449 1_545
Ca5 O30 2.961677 1_555
Nd0 O25 2.367549 1_564
Nd0 O6 2.443946 1_554
Nd0 O8 2.443946 1_554
Nd0 O45 2.471878 1_565
Nd0 O14 2.578743 1_555
Nd0 O16 2.578743 1_555
Nd0 O41 2.678809 1_565
Nd0 O36 2.678809 1_565
Nd1 O26 2.369104 1_564
Nd1 O10 2.398501 1_554
Nd1 O11 2.398501 1_454
Nd1 O47 2.448922 1_565
Nd1 O18 2.567218 1_555
Nd1 O19 2.567218 1_455
Nd1 O40 2.845545 1_565
Nd1 O38 2.845545 1_465
Nd2 O44 2.365999 1_555
Nd2 O12 2.391404 1_555
Nd2 O13 2.407734 1_555
Nd2 O24 2.449529 1_555
Nd2 O5 2.548918 1_555
Nd2 O4 2.559315 1_555
Nd2 O34 2.854091 1_555
Nd2 O28 2.863557 1_555
Nd3 O45 2.361937 1_555
Nd3 O14 2.435987 1_555
Nd3 O16 2.435987 1_555
Nd3 O25 2.464245 1_555
Nd3 O6 2.559186 1_555
Nd3 O8 2.559186 1_555
Nd3 O30 2.706981 1_555
Nd3 O29 2.706981 1_555
Nd4 O46 2.365999 1_555
Nd4 O17 2.391404 1_555
Nd4 O15 2.407734 1_555
Nd4 O27 2.449529 1_555
Nd4 O7 2.548918 1_555
Nd4 O9 2.559315 1_555
Nd4 O32 2.854091 1_555
Nd4 O31 2.863557 1_555
O0 Zr13 2.008320 1_565
O0 Zr8 2.158492 1_565
O1 Zr14 2.130845 1_565
O1 Zr10 2.131271 1_555
O2 Zr11 2.130845 1_565
O2 Zr12 2.131271 1_555
O3 Zr9 2.008320 1_565
O3 Zr15 2.158492 1_565
O4 Zr0 2.117109 1_556
O4 Zr8 2.155589 1_565
O5 Zr4 2.110516 1_556
O5 Zr12 2.146306 1_555
O6 Zr9 2.171611 1_565
O6 Zr1 2.193501 1_556
O7 Zr2 2.110516 1_556
O7 Zr10 2.146306 1_555
O8 Zr13 2.171611 1_565
O8 Zr5 2.193501 1_556
O9 Zr7 2.117109 1_556
O9 Zr15 2.155589 1_565
O10 Zr11 2.116144 1_565
O10 Zr3 2.126556 1_555
O11 Zr14 2.116144 1_565
O11 Zr6 2.126556 1_555
O12 Zr0 2.100855 1_555
O12 Zr8 2.135668 1_565
O13 Zr4 2.118804 1_555
O13 Zr12 2.127284 1_555
O14 Zr1 2.136840 1_555
O14 Zr9 2.203096 1_565
O15 Zr2 2.118804 1_555
O15 Zr10 2.127284 1_555
O16 Zr5 2.136840 1_555
O16 Zr13 2.203096 1_565
O17 Zr7 2.100855 1_555
O17 Zr15 2.135668 1_565
O18 Zr11 2.109609 1_565
O18 Zr3 2.145458 1_554
O19 Zr14 2.109609 1_565
O19 Zr6 2.145458 1_554
O20 Zr1 2.028524 1_555
O20 Zr7 2.178697 1_555
O21 Zr2 2.129395 1_555
O21 Zr6 2.132127 1_554
O22 Zr5 2.028524 1_555
O22 Zr0 2.178697 1_555
O23 Zr4 2.129395 1_555
O23 Zr3 2.132127 1_554
O24 Zr0 2.111799 1_556
O24 Zr4 2.119437 1_556
O25 Zr5 2.240541 1_556
O25 Zr1 2.240541 1_556
O26 Zr3 2.152464 1_555
O26 Zr6 2.152464 1_455
O27 Zr7 2.111799 1_556
O27 Zr2 2.119437 1_556
O28 Zr8 2.088343 1_555
O28 Zr0 2.143361 1_556
O29 Zr13 2.072233 1_555
O29 Zr5 2.145041 1_556
O30 Zr9 2.072233 1_555
O30 Zr1 2.145041 1_556
O31 Zr15 2.088343 1_555
O31 Zr7 2.143361 1_556
O32 Zr10 2.115763 1_545
O32 Zr2 2.152800 1_556
O33 Zr6 2.114982 1_555
O33 Zr14 2.141198 1_555
O34 Zr12 2.115763 1_545
O34 Zr4 2.152800 1_556
O35 Zr3 2.114982 1_555
O35 Zr11 2.141198 1_555
O36 Zr5 2.092835 1_555
O36 Zr13 2.139828 1_555
O37 Zr8 2.087538 1_555
O37 Zr0 2.109637 1_555
O38 Zr6 2.111702 1_554
O38 Zr14 2.148537 1_555
O39 Zr15 2.087538 1_555
O39 Zr7 2.109637 1_555
O40 Zr3 2.111702 1_554
O40 Zr11 2.148537 1_555
O41 Zr1 2.092835 1_555
O41 Zr9 2.139828 1_555
O42 Zr10 2.110272 1_545
O42 Zr2 2.137177 1_555
O43 Zr12 2.110272 1_545
O43 Zr4 2.137177 1_555
O44 Zr8 2.133485 1_555
O44 Zr12 2.148488 1_545
O45 Zr13 2.246638 1_555
O45 Zr9 2.246638 1_555
O46 Zr15 2.133485 1_555
O46 Zr10 2.148488 1_545
O47 Zr14 2.127150 1_455
O47 Zr11 2.127150 1_555
