# generated using pymatgen
data_EuPPt
_symmetry_space_group_name_H-M   'P 1'
_cell_length_a   4.10208608
_cell_length_b   4.10123710
_cell_length_c   8.58197886
_cell_angle_alpha   89.99811628
_cell_angle_beta   89.99973641
_cell_angle_gamma   120.00918599
_symmetry_Int_Tables_number   1
_chemical_formula_structural   EuPPt
_chemical_formula_sum   'Eu2 P2 Pt2'
_cell_volume   125.02518660
_cell_formula_units_Z   2
loop_
 _symmetry_equiv_pos_site_id
 _symmetry_equiv_pos_as_xyz
  1  'x, y, z'
loop_
 _atom_site_type_symbol
 _atom_site_label
 _atom_site_symmetry_multiplicity
 _atom_site_fract_x
 _atom_site_fract_y
 _atom_site_fract_z
 _atom_site_occupancy
  Eu  Eu0  1  0.00000005  0.00000017  0.99999948  1
  Eu  Eu1  1  0.00000006  -0.00000008  0.50000050  1
  P  P0  1  0.33339377  0.66681884  0.75007471  1
  P  P1  1  0.66660617  0.33318110  0.24992531  1
  Pt  Pt0  1  0.66666181  0.33333700  0.75013149  1
  Pt  Pt1  1  0.33333814  0.66666297  0.24986850  1
loop_
_geom_bond_atom_site_label_1
_geom_bond_atom_site_label_2
_geom_bond_distance
_geom_bond_site_symmetry_2
Eu0 Pt0 3.194420 1_445
Eu0 Pt1 3.194425 1_556
Eu0 Pt0 3.194676 1_555
Eu0 Pt1 3.194683 1_446
Eu0 Pt0 3.194786 1_455
Eu0 Pt1 3.194793 1_546
Eu0 P0 3.194902 1_545
Eu0 P1 3.194907 1_456
Eu0 P0 3.194935 1_445
Eu0 P1 3.194940 1_556
Eu0 P0 3.195027 1_555
Eu0 P1 3.195034 1_446
Eu1 P0 3.195710 1_545
Eu1 P1 3.195717 1_455
Eu1 P0 3.195719 1_445
Eu1 P1 3.195724 1_555
Eu1 Pt0 3.195806 1_445
Eu1 Pt1 3.195812 1_555
Eu1 P0 3.196018 1_555
Eu1 P1 3.196023 1_445
Eu1 Pt0 3.196269 1_555
Eu1 Pt1 3.196275 1_445
Eu1 Pt0 3.196354 1_455
Eu1 Pt1 3.196359 1_545
P0 Pt0 2.367104 1_565
P0 Pt0 2.368353 1_455
P0 Pt0 2.368501 1_555
P1 Pt1 2.367104 1_545
P1 Pt1 2.368353 1_655
P1 Pt1 2.368501 1_555
