# generated using pymatgen
data_H2SO4
_symmetry_space_group_name_H-M   'P 1'
_cell_length_a   4.69724903
_cell_length_b   4.69724903
_cell_length_c   9.06769005
_cell_angle_alpha   66.83956742
_cell_angle_beta   113.16043258
_cell_angle_gamma   121.53692344
_symmetry_Int_Tables_number   1
_chemical_formula_structural   H2SO4
_chemical_formula_sum   'H4 S2 O8'
_cell_volume   152.21974225
_cell_formula_units_Z   2
loop_
 _symmetry_equiv_pos_site_id
 _symmetry_equiv_pos_as_xyz
  1  'x, y, z'
loop_
 _atom_site_type_symbol
 _atom_site_label
 _atom_site_symmetry_multiplicity
 _atom_site_fract_x
 _atom_site_fract_y
 _atom_site_fract_z
 _atom_site_occupancy
  H  H0  1  0.48943763  0.24278572  0.13741787  1
  H  H1  1  0.24278572  0.48943763  0.36258213  1
  H  H2  1  0.36848937  0.89257635  0.85989525  1
  H  H3  1  0.89257635  0.36848937  0.64010475  1
  S  S0  1  0.86109863  0.86109863  0.75000000  1
  S  S1  1  0.09447591  0.09447591  0.25000000  1
  O  O0  1  0.61107001  0.78813923  0.82807085  1
  O  O1  1  0.78813923  0.61107001  0.67192915  1
  O  O2  1  0.29478104  0.29742589  0.11411701  1
  O  O3  1  0.29742589  0.29478104  0.38588299  1
  O  O4  1  0.19872491  0.92570375  0.88397878  1
  O  O5  1  0.92570375  0.19872491  0.61602122  1
  O  O6  1  0.76677111  0.09986345  0.17559012  1
  O  O7  1  0.09986345  0.76677111  0.32440988  1
loop_
_geom_bond_atom_site_label_1
_geom_bond_atom_site_label_2
_geom_bond_distance
_geom_bond_site_symmetry_2
H0 O2 0.998711 1_555
H0 O6 1.626327 1_555
H1 O3 0.998711 1_555
H1 O7 1.626327 1_555
H2 O4 1.000656 1_555
H2 O0 1.605324 1_555
H3 O5 1.000656 1_555
H3 O1 1.605324 1_555
O0 S0 1.428301 1_555
O1 S0 1.428301 1_555
O2 S1 1.536847 1_555
O3 S1 1.536847 1_555
O4 S0 1.534318 1_455
O5 S0 1.534318 1_545
O6 S1 1.426781 1_655
O7 S1 1.426781 1_565
