# generated using pymatgen
data_GaPt3
_symmetry_space_group_name_H-M   'P 1'
_cell_length_a   5.54857100
_cell_length_b   5.54857100
_cell_length_c   7.96398300
_cell_angle_alpha   90.00000000
_cell_angle_beta   90.00000000
_cell_angle_gamma   90.00000000
_symmetry_Int_Tables_number   1
_chemical_formula_structural   GaPt3
_chemical_formula_sum   'Ga4 Pt12'
_cell_volume   245.18427872
_cell_formula_units_Z   4
loop_
 _symmetry_equiv_pos_site_id
 _symmetry_equiv_pos_as_xyz
  1  'x, y, z'
loop_
 _atom_site_type_symbol
 _atom_site_label
 _atom_site_symmetry_multiplicity
 _atom_site_fract_x
 _atom_site_fract_y
 _atom_site_fract_z
 _atom_site_occupancy
  Ga  Ga0  1  0.00000000  0.50000000  0.75420300  1
  Ga  Ga1  1  0.50000000  0.00000000  0.24579700  1
  Ga  Ga2  1  0.00000000  0.50000000  0.24579700  1
  Ga  Ga3  1  0.50000000  0.00000000  0.75420300  1
  Pt  Pt0  1  0.22594100  0.27405900  0.00000000  1
  Pt  Pt1  1  0.78870700  0.28870700  0.50000000  1
  Pt  Pt2  1  0.72594100  0.22594100  0.00000000  1
  Pt  Pt3  1  0.77405900  0.72594100  0.00000000  1
  Pt  Pt4  1  0.50000000  0.50000000  0.74864200  1
  Pt  Pt5  1  0.28870700  0.21129300  0.50000000  1
  Pt  Pt6  1  0.71129300  0.78870700  0.50000000  1
  Pt  Pt7  1  0.21129300  0.71129300  0.50000000  1
  Pt  Pt8  1  0.50000000  0.50000000  0.25135800  1
  Pt  Pt9  1  0.00000000  0.00000000  0.74864200  1
  Pt  Pt10  1  0.00000000  0.00000000  0.25135800  1
  Pt  Pt11  1  0.27405900  0.77405900  0.00000000  1
loop_
_geom_bond_atom_site_label_1
_geom_bond_atom_site_label_2
_geom_bond_distance
_geom_bond_site_symmetry_2
Ga0 Pt7 2.616753 1_555
Ga0 Pt1 2.616753 1_455
Ga0 Pt0 2.641055 1_556
Ga0 Pt3 2.641055 1_456
Ga0 Pt9 2.774639 1_555
Ga0 Pt4 2.774639 1_455
Ga0 Pt4 2.774639 1_555
Ga0 Pt9 2.774639 1_565
Ga0 Pt11 2.908017 1_556
Ga0 Pt2 2.908017 1_456
Ga0 Pt6 3.038209 1_455
Ga0 Pt5 3.038209 1_555
Ga1 Pt5 2.616753 1_555
Ga1 Pt6 2.616753 1_545
Ga1 Pt2 2.641055 1_555
Ga1 Pt11 2.641055 1_545
Ga1 Pt10 2.774639 1_655
Ga1 Pt8 2.774639 1_555
Ga1 Pt10 2.774639 1_555
Ga1 Pt8 2.774639 1_545
Ga1 Pt3 2.908017 1_545
Ga1 Pt0 2.908017 1_555
Ga1 Pt1 3.038209 1_555
Ga1 Pt7 3.038209 1_545
Ga2 Pt7 2.616753 1_555
Ga2 Pt1 2.616753 1_455
Ga2 Pt0 2.641055 1_555
Ga2 Pt3 2.641055 1_455
Ga2 Pt8 2.774639 1_555
Ga2 Pt10 2.774639 1_555
Ga2 Pt10 2.774639 1_565
Ga2 Pt8 2.774639 1_455
Ga2 Pt11 2.908017 1_555
Ga2 Pt2 2.908017 1_455
Ga2 Pt6 3.038209 1_455
Ga2 Pt5 3.038209 1_555
Ga3 Pt5 2.616753 1_555
Ga3 Pt6 2.616753 1_545
Ga3 Pt2 2.641055 1_556
Ga3 Pt11 2.641055 1_546
Ga3 Pt9 2.774639 1_555
Ga3 Pt4 2.774639 1_545
Ga3 Pt4 2.774639 1_555
Ga3 Pt9 2.774639 1_655
Ga3 Pt3 2.908017 1_546
Ga3 Pt0 2.908017 1_556
Ga3 Pt1 3.038209 1_555
Ga3 Pt7 3.038209 1_545
Pt0 Pt11 2.787103 1_555
Pt0 Pt2 2.787103 1_455
Pt0 Pt2 2.787103 1_555
Pt0 Pt11 2.787103 1_545
Pt0 Pt10 2.809131 1_555
Pt0 Pt8 2.809131 1_555
Pt0 Pt9 2.809131 1_554
Pt0 Pt4 2.809131 1_554
Pt1 Pt4 2.803872 1_555
Pt1 Pt9 2.803872 1_655
Pt1 Pt8 2.803872 1_555
Pt1 Pt10 2.803872 1_655
Pt2 Pt3 2.787103 1_555
Pt2 Pt3 2.787103 1_545
Pt2 Pt8 2.809131 1_555
Pt2 Pt4 2.809131 1_554
Pt2 Pt9 2.809131 1_654
Pt3 Pt8 2.809131 1_555
Pt3 Pt4 2.809131 1_554
Pt3 Pt9 2.809131 1_664
Pt4 Pt6 2.803872 1_555
Pt4 Pt7 2.803872 1_555
Pt4 Pt5 2.803872 1_555
Pt5 Pt9 2.803872 1_555
Pt5 Pt8 2.803872 1_555
Pt6 Pt9 2.803872 1_665
Pt6 Pt8 2.803872 1_555
Pt7 Pt9 2.803872 1_565
Pt7 Pt8 2.803872 1_555
Pt10 Pt5 2.803872 1_555
Pt10 Pt7 2.803872 1_545
Pt10 Pt6 2.803872 1_445
Pt10 Pt2 2.809131 1_455
Pt10 Pt11 2.809131 1_545
Pt10 Pt3 2.809131 1_445
Pt11 Pt3 2.787103 1_555
Pt11 Pt3 2.787103 1_455
Pt11 Pt8 2.809131 1_555
Pt11 Pt4 2.809131 1_554
Pt11 Pt9 2.809131 1_564
