# generated using pymatgen
data_Mn2PC11SO8F9
_symmetry_space_group_name_H-M   'P 1'
_cell_length_a   9.23914800
_cell_length_b   14.70219100
_cell_length_c   15.37272876
_cell_angle_alpha   72.81668107
_cell_angle_beta   90.00000000
_cell_angle_gamma   90.00000000
_symmetry_Int_Tables_number   1
_chemical_formula_structural   Mn2PC11SO8F9
_chemical_formula_sum   'Mn8 P4 C44 S4 O32 F36'
_cell_volume   1994.95915930
_cell_formula_units_Z   4
loop_
 _symmetry_equiv_pos_site_id
 _symmetry_equiv_pos_as_xyz
  1  'x, y, z'
loop_
 _atom_site_type_symbol
 _atom_site_label
 _atom_site_symmetry_multiplicity
 _atom_site_fract_x
 _atom_site_fract_y
 _atom_site_fract_z
 _atom_site_occupancy
  Mn  Mn0  1  0.73790100  0.26218900  0.67160300  1
  Mn  Mn1  1  0.99057200  0.78673000  0.14124100  1
  Mn  Mn2  1  0.50942800  0.28673000  0.14124100  1
  Mn  Mn3  1  0.49057200  0.71327000  0.85875900  1
  Mn  Mn4  1  0.76209900  0.76218900  0.67160300  1
  Mn  Mn5  1  0.23790100  0.23781100  0.32839700  1
  Mn  Mn6  1  0.00942800  0.21327000  0.85875900  1
  Mn  Mn7  1  0.26209900  0.73781100  0.32839700  1
  P  P0  1  0.96479400  0.30872000  0.71010100  1
  P  P1  1  0.03520600  0.69128000  0.28989900  1
  P  P2  1  0.53520600  0.80872000  0.71010100  1
  P  P3  1  0.46479400  0.19128000  0.28989900  1
  C  C0  1  0.14522500  0.15476700  0.27457100  1
  C  C1  1  0.01709200  0.13165700  0.97529300  1
  C  C2  1  0.98290800  0.86834300  0.02470700  1
  C  C3  1  0.82062400  0.17787400  0.61572900  1
  C  C4  1  0.56068600  0.21180200  0.65760700  1
  C  C5  1  0.88693600  0.69596500  0.37444300  1
  C  C6  1  0.51611900  0.94167800  0.69383900  1
  C  C7  1  0.98388100  0.44167800  0.69383900  1
  C  C8  1  0.11306400  0.30403500  0.62555700  1
  C  C9  1  0.34929000  0.86510800  0.10229900  1
  C  C10  1  0.67937600  0.67787400  0.61572900  1
  C  C11  1  0.35477500  0.65476700  0.27457100  1
  C  C12  1  0.22672900  0.14524100  0.43796100  1
  C  C13  1  0.58892200  0.80048400  0.90357600  1
  C  C14  1  0.91107800  0.30048400  0.90357600  1
  C  C15  1  0.41107800  0.19951600  0.09642400  1
  C  C16  1  0.48290800  0.63165700  0.97529300  1
  C  C17  1  0.18012500  0.27086200  0.86967200  1
  C  C18  1  0.06068600  0.28819800  0.34239300  1
  C  C19  1  0.72672900  0.35475900  0.56203900  1
  C  C20  1  0.51709200  0.36834300  0.02470700  1
  C  C21  1  0.85477500  0.84523300  0.72542900  1
  C  C22  1  0.27327100  0.64524100  0.43796100  1
  C  C23  1  0.84929000  0.63489200  0.89770100  1
  C  C24  1  0.38693600  0.80403500  0.62555700  1
  C  C25  1  0.15071000  0.36510800  0.10229900  1
  C  C26  1  0.01611900  0.55832200  0.30616100  1
  C  C27  1  0.32062400  0.32212600  0.38427100  1
  C  C28  1  0.31987500  0.77086200  0.86967200  1
  C  C29  1  0.43931400  0.78819800  0.34239300  1
  C  C30  1  0.48388100  0.05832200  0.30616100  1
  C  C31  1  0.88883400  0.87816300  0.17930400  1
  C  C32  1  0.61116600  0.37816300  0.17930400  1
  C  C33  1  0.11116600  0.12183700  0.82069600  1
  C  C34  1  0.08892200  0.69951600  0.09642400  1
  C  C35  1  0.81987500  0.72913800  0.13032800  1
  C  C36  1  0.64522500  0.34523300  0.72542900  1
  C  C37  1  0.68012500  0.22913800  0.13032800  1
  C  C38  1  0.17937600  0.82212600  0.38427100  1
  C  C39  1  0.93931400  0.71180200  0.65760700  1
  C  C40  1  0.61306400  0.19596500  0.37444300  1
  C  C41  1  0.38883400  0.62183700  0.82069600  1
  C  C42  1  0.77327100  0.85475900  0.56203900  1
  C  C43  1  0.65071000  0.13489200  0.89770100  1
  S  S0  1  0.79422400  0.14282500  0.81487800  1
  S  S1  1  0.20577600  0.85717500  0.18512200  1
  S  S2  1  0.29422400  0.35717500  0.18512200  1
  S  S3  1  0.70577600  0.64282500  0.81487800  1
  O  O0  1  0.71035400  0.69296700  0.12394000  1
  O  O1  1  0.63504200  0.62504300  0.57929100  1
  O  O2  1  0.28255600  0.58566600  0.50670000  1
  O  O3  1  0.32401000  0.56261500  0.80269700  1
  O  O4  1  0.55062600  0.81939100  0.35350000  1
  O  O5  1  0.85694000  0.35387300  0.93579400  1
  O  O6  1  0.78964600  0.19296700  0.12394000  1
  O  O7  1  0.58085300  0.39778000  0.75374600  1
  O  O8  1  0.82401000  0.93738500  0.19730300  1
  O  O9  1  0.47462700  0.58076600  0.04878300  1
  O  O10  1  0.94937400  0.31939100  0.35350000  1
  O  O11  1  0.71744400  0.41433400  0.49330000  1
  O  O12  1  0.64306000  0.85387300  0.93579400  1
  O  O13  1  0.14306000  0.64612700  0.06420600  1
  O  O14  1  0.44937400  0.18060900  0.64650000  1
  O  O15  1  0.52537300  0.41923400  0.95121700  1
  O  O16  1  0.02537300  0.08076600  0.04878300  1
  O  O17  1  0.41914700  0.60222000  0.24625400  1
  O  O18  1  0.91914700  0.89778000  0.75374600  1
  O  O19  1  0.35694000  0.14612700  0.06420600  1
  O  O20  1  0.21035400  0.80703300  0.87606000  1
  O  O21  1  0.67599000  0.43738500  0.19730300  1
  O  O22  1  0.13504200  0.87495700  0.42070900  1
  O  O23  1  0.78255600  0.91433400  0.49330000  1
  O  O24  1  0.05062600  0.68060900  0.64650000  1
  O  O25  1  0.08085300  0.10222000  0.24625400  1
  O  O26  1  0.21744400  0.08566600  0.50670000  1
  O  O27  1  0.36495800  0.37495700  0.42070900  1
  O  O28  1  0.17599000  0.06261500  0.80269700  1
  O  O29  1  0.28964600  0.30703300  0.87606000  1
  O  O30  1  0.97462700  0.91923400  0.95121700  1
  O  O31  1  0.86495800  0.12504300  0.57929100  1
  F  F0  1  0.38634500  0.96488300  0.72331400  1
  F  F1  1  0.57895500  0.14573100  0.46190100  1
  F  F2  1  0.62116500  0.97078600  0.74287900  1
  F  F3  1  0.52449100  0.10566500  0.86841600  1
  F  F4  1  0.02449100  0.39433500  0.13158400  1
  F  F5  1  0.11365500  0.46488300  0.72331400  1
  F  F6  1  0.81474400  0.57017200  0.97895800  1
  F  F7  1  0.03292700  0.50501900  0.39462800  1
  F  F8  1  0.12116500  0.52921400  0.25712100  1
  F  F9  1  0.42104500  0.85426900  0.53809900  1
  F  F10  1  0.12082600  0.28125900  0.08381200  1
  F  F11  1  0.87917400  0.71874100  0.91618800  1
  F  F12  1  0.24320800  0.33700100  0.64576400  1
  F  F13  1  0.53292700  0.99498100  0.60537200  1
  F  F14  1  0.31474400  0.92982800  0.02104200  1
  F  F15  1  0.47550900  0.89433500  0.13158400  1
  F  F16  1  0.61365500  0.03511700  0.27668600  1
  F  F17  1  0.13399600  0.21180200  0.62584400  1
  F  F18  1  0.88634500  0.53511700  0.27668600  1
  F  F19  1  0.87883500  0.47078600  0.74287900  1
  F  F20  1  0.68525600  0.07017200  0.97895800  1
  F  F21  1  0.75679200  0.66299900  0.35423600  1
  F  F22  1  0.46707300  0.00501900  0.39462800  1
  F  F23  1  0.62082600  0.21874100  0.91618800  1
  F  F24  1  0.96707300  0.49498100  0.60537200  1
  F  F25  1  0.07895500  0.35426900  0.53809900  1
  F  F26  1  0.86600400  0.78819800  0.37415600  1
  F  F27  1  0.36600400  0.71180200  0.62584400  1
  F  F28  1  0.97550900  0.60566500  0.86841600  1
  F  F29  1  0.37883500  0.02921400  0.25712100  1
  F  F30  1  0.63399600  0.28819800  0.37415600  1
  F  F31  1  0.92104500  0.64573100  0.46190100  1
  F  F32  1  0.37917400  0.78125900  0.08381200  1
  F  F33  1  0.74320800  0.16299900  0.35423600  1
  F  F34  1  0.25679200  0.83700100  0.64576400  1
  F  F35  1  0.18525600  0.42982800  0.02104200  1
loop_
_geom_bond_atom_site_label_1
_geom_bond_atom_site_label_2
_geom_bond_distance
_geom_bond_site_symmetry_2
Mn0 P0 2.334939 1_555
Mn0 S0 2.432657 1_555
Mn1 P1 2.338161 1_655
Mn1 S1 2.427727 1_655
Mn2 P3 2.338161 1_555
Mn2 S2 2.427727 1_555
Mn3 P2 2.338161 1_555
Mn3 S3 2.427727 1_555
Mn4 P2 2.334939 1_555
Mn4 S3 2.432657 1_555
Mn5 P3 2.334939 1_555
Mn5 S2 2.432657 1_555
Mn6 P0 2.338161 1_455
Mn6 S0 2.427727 1_455
Mn7 P1 2.334939 1_555
Mn7 S1 2.432657 1_555
C0 O25 1.157049 1_555
C0 Mn5 1.872278 1_555
C1 O16 1.158682 1_556
C1 Mn6 1.839552 1_555
C2 O30 1.158682 1_554
C2 Mn1 1.839552 1_555
C3 O31 1.158420 1_555
C3 Mn0 1.867532 1_555
C4 O14 1.159053 1_555
C4 Mn0 1.835771 1_555
C5 F31 1.365893 1_555
C5 F21 1.366080 1_555
C5 F26 1.368465 1_555
C5 P1 1.903518 1_655
C6 F0 1.360384 1_555
C6 F13 1.363112 1_555
C6 F2 1.372603 1_555
C6 P2 1.904205 1_555
C7 F5 1.360384 1_655
C7 F24 1.363112 1_555
C7 F19 1.372603 1_555
C7 P0 1.904205 1_555
C8 F25 1.365893 1_555
C8 F12 1.366080 1_555
C8 F17 1.368465 1_555
C8 P0 1.903518 1_455
C9 F15 1.364381 1_555
C9 F14 1.365774 1_555
C9 F32 1.372484 1_555
C9 S1 1.817986 1_555
C10 O1 1.158420 1_555
C10 Mn4 1.867532 1_555
C11 O17 1.157049 1_555
C11 Mn7 1.872278 1_555
C12 O26 1.159434 1_555
C12 Mn5 1.829032 1_555
C13 O12 1.158152 1_555
C13 Mn3 1.861840 1_555
C14 O5 1.158152 1_555
C14 Mn6 1.861840 1_655
C15 O19 1.158152 1_555
C15 Mn2 1.861840 1_555
C16 O9 1.158682 1_556
C16 Mn3 1.839552 1_555
C17 O29 1.160692 1_555
C17 Mn6 1.821058 1_555
C18 O10 1.159053 1_455
C18 Mn5 1.835771 1_555
C19 O11 1.159434 1_555
C19 Mn0 1.829032 1_555
C20 O15 1.158682 1_554
C20 Mn2 1.839552 1_555
C21 O18 1.157049 1_555
C21 Mn4 1.872278 1_555
C22 O2 1.159434 1_555
C22 Mn7 1.829032 1_555
C23 F28 1.364381 1_555
C23 F6 1.365774 1_555
C23 F11 1.372484 1_555
C23 S3 1.817986 1_555
C24 F9 1.365893 1_555
C24 F34 1.366080 1_555
C24 F27 1.368465 1_555
C24 P2 1.903518 1_555
C25 F4 1.364381 1_555
C25 F35 1.365774 1_555
C25 F10 1.372484 1_555
C25 S2 1.817986 1_555
C26 F18 1.360384 1_455
C26 F7 1.363112 1_555
C26 F8 1.372603 1_555
C26 P1 1.904205 1_555
C27 O27 1.158420 1_555
C27 Mn5 1.867532 1_555
C28 O20 1.160692 1_555
C28 Mn3 1.821058 1_555
C29 O4 1.159053 1_555
C29 Mn7 1.835771 1_555
C30 F16 1.360384 1_555
C30 F22 1.363112 1_555
C30 F29 1.372603 1_555
C30 P3 1.904205 1_555
C31 O8 1.155732 1_555
C31 Mn1 1.870222 1_555
C32 O21 1.155732 1_555
C32 Mn2 1.870222 1_555
C33 O28 1.155732 1_555
C33 Mn6 1.870222 1_555
C34 O13 1.158152 1_555
C34 Mn1 1.861840 1_455
C35 O0 1.160692 1_555
C35 Mn1 1.821058 1_555
C36 O7 1.157049 1_555
C36 Mn0 1.872278 1_555
C37 O6 1.160692 1_555
C37 Mn2 1.821058 1_555
C38 O22 1.158420 1_555
C38 Mn7 1.867532 1_555
C39 O24 1.159053 1_655
C39 Mn4 1.835771 1_555
C40 F1 1.365893 1_555
C40 F33 1.366080 1_555
C40 F30 1.368465 1_555
C40 P3 1.903518 1_555
C41 O3 1.155732 1_555
C41 Mn3 1.870222 1_555
C42 O23 1.159434 1_555
C42 Mn4 1.829032 1_555
C43 F3 1.364381 1_555
C43 F20 1.365774 1_555
C43 F23 1.372484 1_555
C43 S0 1.817986 1_555
