# generated using pymatgen
data_Ce11MnS16
_symmetry_space_group_name_H-M   'P 1'
_cell_length_a   29.54287642
_cell_length_b   8.49942492
_cell_length_c   8.56200600
_cell_angle_alpha   90.00000000
_cell_angle_beta   54.57529957
_cell_angle_gamma   54.87263489
_symmetry_Int_Tables_number   1
_chemical_formula_structural   Ce11MnS16
_chemical_formula_sum   'Ce22 Mn2 S32'
_cell_volume   1240.52213354
_cell_formula_units_Z   2
loop_
 _symmetry_equiv_pos_site_id
 _symmetry_equiv_pos_as_xyz
  1  'x, y, z'
loop_
 _atom_site_type_symbol
 _atom_site_label
 _atom_site_symmetry_multiplicity
 _atom_site_fract_x
 _atom_site_fract_y
 _atom_site_fract_z
 _atom_site_occupancy
  Ce  Ce0  1  0.99897500  0.12428400  0.74573200  1
  Ce  Ce1  1  0.05964300  0.63363800  0.37887500  1
  Ce  Ce2  1  0.12462300  0.25102600  0.62745400  1
  Ce  Ce3  1  0.25066800  0.36934500  0.24629200  1
  Ce  Ce4  1  0.19035700  0.87220900  0.12112500  1
  Ce  Ce5  1  0.25102500  0.12018300  0.75426800  1
  Ce  Ce6  1  0.12537700  0.74951700  0.87254600  1
  Ce  Ce7  1  0.31397000  0.62468200  0.36514800  1
  Ce  Ce8  1  0.37500000  0.25000000  0.62130300  1
  Ce  Ce9  1  0.49897500  0.37981700  0.25837000  1
  Ce  Ce10  1  0.43603000  0.87531800  0.12102600  1
  Ce  Ce11  1  0.49933200  0.13065500  0.74896500  1
  Ce  Ce12  1  0.55964300  0.62779100  0.38255400  1
  Ce  Ce13  1  0.62537700  0.24897400  0.62594400  1
  Ce  Ce14  1  0.75102500  0.37571600  0.24163000  1
  Ce  Ce15  1  0.69035700  0.86636200  0.11744600  1
  Ce  Ce16  1  0.75066800  0.12798200  0.75103500  1
  Ce  Ce17  1  0.62462300  0.75048300  0.87405600  1
  Ce  Ce18  1  0.81397000  0.61943900  0.37897400  1
  Ce  Ce19  1  0.99933200  0.37201800  0.25370800  1
  Ce  Ce20  1  0.93603000  0.88056100  0.13485200  1
  Ce  Ce21  1  0.87500000  0.75000000  0.87869700  1
  Mn  Mn0  1  0.37500000  0.75000000  0.87339600  1
  Mn  Mn1  1  0.87500000  0.25000000  0.62660400  1
  S  S0  1  0.08652200  0.50145900  0.00326900  1
  S  S1  1  0.03830400  0.34749600  0.49875400  1
  S  S2  1  0.02961200  0.01144600  0.35909200  1
  S  S3  1  0.22038800  0.12989300  0.14090800  1
  S  S4  1  0.21169600  0.50071300  0.00124600  1
  S  S5  1  0.08726400  0.64933300  0.65045200  1
  S  S6  1  0.16273600  0.99838900  0.84954800  1
  S  S7  1  0.16347800  0.84754600  0.49673100  1
  S  S8  1  0.34045200  0.50754700  0.98594000  1
  S  S9  1  0.28740400  0.35036100  0.49860800  1
  S  S10  1  0.28526900  0.00697500  0.36181900  1
  S  S11  1  0.46259600  0.14963900  0.14822500  1
  S  S12  1  0.46473100  0.49302500  0.00289300  1
  S  S13  1  0.40954800  0.99245300  0.84774800  1
  S  S14  1  0.33650500  0.64823700  0.64455400  1
  S  S15  1  0.41349500  0.85176300  0.49057500  1
  S  S16  1  0.58726400  0.50161100  0.00049200  1
  S  S17  1  0.52961200  0.37010700  0.52246100  1
  S  S18  1  0.53830400  0.99928700  0.34802900  1
  S  S19  1  0.71169600  0.15250400  0.15197100  1
  S  S20  1  0.72038800  0.48855400  0.97753900  1
  S  S21  1  0.66347800  0.99854100  0.84935600  1
  S  S22  1  0.58652200  0.65245400  0.65064400  1
  S  S23  1  0.66273600  0.85066700  0.49950800  1
  S  S24  1  0.83650500  0.50574200  0.00942500  1
  S  S25  1  0.78526900  0.35195000  0.49710700  1
  S  S26  1  0.78740400  0.00002200  0.35177500  1
  S  S27  1  0.96473100  0.14805000  0.13818100  1
  S  S28  1  0.96259600  0.49997800  0.00139200  1
  S  S29  1  0.91349500  0.99425800  0.85544600  1
  S  S30  1  0.84045200  0.63064500  0.65225200  1
  S  S31  1  0.90954800  0.86935500  0.51406000  1
loop_
_geom_bond_atom_site_label_1
_geom_bond_atom_site_label_2
_geom_bond_distance
_geom_bond_site_symmetry_2
Ce0 S24 2.859419 1_556
Ce0 S27 2.859889 1_556
Ce0 S2 2.868001 1_655
Ce0 S7 2.920664 1_645
Ce0 S29 2.990434 1_545
Ce0 S1 3.018167 1_655
Ce0 S5 3.030006 1_645
Ce0 S28 3.076761 1_556
Ce1 S2 2.832487 1_565
Ce1 S0 2.871915 1_555
Ce1 S1 2.894829 1_555
Ce1 S5 2.900911 1_555
Ce1 S31 2.973676 1_455
Ce1 S29 3.005549 1_455
Ce1 S4 3.038350 1_555
Ce1 S3 3.227926 1_555
Ce2 S10 2.856107 1_555
Ce2 S5 2.857609 1_555
Ce2 S28 2.866816 1_456
Ce2 S7 2.882933 1_545
Ce2 S6 3.032213 1_545
Ce2 S0 3.032409 1_556
Ce2 S1 3.039897 1_555
Ce2 S3 3.066479 1_555
Ce3 S13 2.840123 1_544
Ce3 S4 2.880140 1_555
Ce3 S5 2.890667 1_555
Ce3 S9 2.896098 1_555
Ce3 S3 2.964336 1_555
Ce3 S10 3.009715 1_555
Ce3 S7 3.049830 1_555
Ce3 S8 3.180496 1_554
Ce4 S3 2.832487 1_565
Ce4 S7 2.871915 1_555
Ce4 S4 2.894813 1_555
Ce4 S6 2.900912 1_554
Ce4 S8 2.973674 1_554
Ce4 S14 3.005549 1_554
Ce4 S1 3.038350 1_565
Ce4 S2 3.227918 1_565
Ce5 S15 2.859422 1_545
Ce5 S10 2.859887 1_555
Ce5 S3 2.868001 1_556
Ce5 S0 2.920667 1_556
Ce5 S14 2.990434 1_545
Ce5 S4 3.018182 1_556
Ce5 S6 3.029999 1_545
Ce5 S9 3.076761 1_555
Ce6 S27 2.856107 1_466
Ce6 S6 2.857618 1_555
Ce6 S9 2.866816 1_555
Ce6 S0 2.882916 1_556
Ce6 S5 3.032209 1_555
Ce6 S7 3.032409 1_555
Ce6 S4 3.039893 1_556
Ce6 S2 3.066482 1_566
Ce7 S10 2.852193 1_565
Ce7 S14 2.864608 1_555
Ce7 S8 2.881633 1_554
Ce7 S9 2.902430 1_555
Ce7 S12 2.993256 1_555
Ce7 S7 3.020889 1_555
Ce7 S11 3.029116 1_555
Ce7 S6 3.072348 1_555
Ce8 S15 2.845606 1_545
Ce8 S14 2.845608 1_555
Ce8 S18 2.893806 1_545
Ce8 S4 2.893807 1_556
Ce8 S11 3.023125 1_555
Ce8 S9 3.023132 1_555
Ce8 S8 3.052115 1_555
Ce8 S13 3.052115 1_545
Ce9 S14 2.859417 1_555
Ce9 S12 2.859920 1_555
Ce9 S17 2.867993 1_555
Ce9 S21 2.920673 1_544
Ce9 S15 2.990432 1_555
Ce9 S18 3.018169 1_545
Ce9 S16 3.030003 1_555
Ce9 S11 3.076765 1_555
Ce10 S12 2.852193 1_555
Ce10 S15 2.864633 1_555
Ce10 S13 2.881617 1_554
Ce10 S11 2.902436 1_565
Ce10 S10 2.993250 1_565
Ce10 S22 3.020876 1_554
Ce10 S9 3.029117 1_565
Ce10 S16 3.072357 1_555
Ce11 S8 2.840125 1_555
Ce11 S18 2.880156 1_545
Ce11 S23 2.890665 1_545
Ce11 S11 2.896098 1_556
Ce11 S17 2.964336 1_555
Ce11 S12 3.009702 1_556
Ce11 S22 3.049830 1_545
Ce11 S13 3.180498 1_545
Ce12 S17 2.832487 1_555
Ce12 S22 2.871915 1_555
Ce12 S18 2.894817 1_555
Ce12 S16 2.900921 1_555
Ce12 S13 2.973670 1_555
Ce12 S15 3.005549 1_555
Ce12 S19 3.038350 1_555
Ce12 S20 3.227922 1_554
Ce13 S12 2.856107 1_556
Ce13 S23 2.857607 1_545
Ce13 S26 2.866817 1_555
Ce13 S22 2.882929 1_555
Ce13 S16 3.032227 1_556
Ce13 S21 3.032416 1_545
Ce13 S19 3.039875 1_555
Ce13 S17 3.066457 1_555
Ce14 S29 2.859414 1_544
Ce14 S25 2.859922 1_555
Ce14 S20 2.867993 1_554
Ce14 S22 2.920670 1_555
Ce14 S24 2.990432 1_555
Ce14 S19 3.018155 1_555
Ce14 S23 3.030009 1_555
Ce14 S26 3.076765 1_555
Ce15 S20 2.832487 1_554
Ce15 S21 2.871915 1_554
Ce15 S19 2.894833 1_565
Ce15 S23 2.900919 1_555
Ce15 S30 2.973672 1_554
Ce15 S24 3.005549 1_555
Ce15 S18 3.038350 1_555
Ce15 S17 3.227930 1_565
Ce16 S31 2.840126 1_545
Ce16 S19 2.880154 1_556
Ce16 S16 2.890667 1_556
Ce16 S26 2.896098 1_555
Ce16 S20 2.964336 1_555
Ce16 S25 3.009716 1_555
Ce16 S21 3.049830 1_545
Ce16 S30 3.180490 1_545
Ce17 S25 2.856107 1_555
Ce17 S16 2.857615 1_556
Ce17 S11 2.866817 1_566
Ce17 S21 2.882912 1_555
Ce17 S23 3.032223 1_555
Ce17 S22 3.032416 1_555
Ce17 S18 3.039871 1_556
Ce17 S20 3.066461 1_555
Ce18 S25 2.852193 1_555
Ce18 S24 2.864636 1_555
Ce18 S30 2.881615 1_555
Ce18 S26 2.902420 1_565
Ce18 S27 2.993258 1_555
Ce18 S21 3.020873 1_555
Ce18 S28 3.029118 1_555
Ce18 S23 3.072359 1_555
Ce19 S30 2.840124 1_555
Ce19 S1 2.880137 1_655
Ce19 S6 2.890669 1_644
Ce19 S28 2.896098 1_555
Ce19 S2 2.964336 1_655
Ce19 S27 3.009729 1_555
Ce19 S0 3.049830 1_655
Ce19 S31 3.180488 1_555
Ce20 S27 2.852193 1_565
Ce20 S29 2.864612 1_554
Ce20 S31 2.881632 1_555
Ce20 S28 2.902414 1_555
Ce20 S25 2.993264 1_565
Ce20 S0 3.020885 1_655
Ce20 S26 3.029116 1_565
Ce20 S5 3.072350 1_654
Ce21 S24 2.845614 1_556
Ce21 S29 2.845616 1_555
Ce21 S19 2.893808 1_566
Ce21 S1 2.893809 1_655
Ce21 S26 3.023123 1_566
Ce21 S28 3.023131 1_556
Ce21 S30 3.052115 1_555
Ce21 S31 3.052115 1_555
Mn0 S17 2.726684 1_555
Mn0 S3 2.726685 1_566
Mn0 S13 2.738076 1_555
Mn0 S8 2.738076 1_555
Mn0 S15 3.097670 1_555
Mn0 S14 3.097678 1_555
Mn0 S12 3.125927 1_556
Mn0 S10 3.125941 1_566
Mn1 S20 2.726686 1_555
Mn1 S2 2.726687 1_655
Mn1 S31 2.738076 1_545
Mn1 S30 2.738076 1_555
Mn1 S24 3.097666 1_556
Mn1 S29 3.097673 1_545
Mn1 S25 3.125925 1_555
Mn1 S27 3.125939 1_555
