# generated using pymatgen
data_K2CeAg3Te4
_symmetry_space_group_name_H-M   'P 1'
_cell_length_a   4.67952887
_cell_length_b   15.51463143
_cell_length_c   17.34343920
_cell_angle_alpha   90.00000000
_cell_angle_beta   90.00000000
_cell_angle_gamma   90.00000000
_symmetry_Int_Tables_number   1
_chemical_formula_structural   K2CeAg3Te4
_chemical_formula_sum   'K8 Ce4 Ag12 Te16'
_cell_volume   1259.15390289
_cell_formula_units_Z   4
loop_
 _symmetry_equiv_pos_site_id
 _symmetry_equiv_pos_as_xyz
  1  'x, y, z'
loop_
 _atom_site_type_symbol
 _atom_site_label
 _atom_site_symmetry_multiplicity
 _atom_site_fract_x
 _atom_site_fract_y
 _atom_site_fract_z
 _atom_site_occupancy
  K  K0  1  0.75000000  0.10083331  0.91843507  1
  K  K1  1  0.25000000  0.65570396  0.11593893  1
  K  K2  1  0.25000000  0.60083331  0.58156493  1
  K  K3  1  0.25000000  0.89916669  0.08156493  1
  K  K4  1  0.25000000  0.84429604  0.61593893  1
  K  K5  1  0.75000000  0.39916669  0.41843507  1
  K  K6  1  0.75000000  0.15570396  0.38406107  1
  K  K7  1  0.75000000  0.34429604  0.88406107  1
  Ce  Ce0  1  0.25000000  0.77166819  0.35727883  1
  Ce  Ce1  1  0.25000000  0.72833181  0.85727883  1
  Ce  Ce2  1  0.75000000  0.22833181  0.64272117  1
  Ce  Ce3  1  0.75000000  0.27166819  0.14272117  1
  Ag  Ag0  1  0.75000000  0.56984828  0.96800508  1
  Ag  Ag1  1  0.75000000  0.90201516  0.77739992  1
  Ag  Ag2  1  0.25000000  0.09798484  0.22260008  1
  Ag  Ag3  1  0.25000000  0.40201516  0.72260008  1
  Ag  Ag4  1  0.75000000  0.59798484  0.27739992  1
  Ag  Ag5  1  0.25000000  0.06984828  0.53199492  1
  Ag  Ag6  1  0.25000000  0.45257611  0.22701965  1
  Ag  Ag7  1  0.75000000  0.54742389  0.77298035  1
  Ag  Ag8  1  0.25000000  0.43015172  0.03199492  1
  Ag  Ag9  1  0.25000000  0.04742389  0.72701965  1
  Ag  Ag10  1  0.75000000  0.95257611  0.27298035  1
  Ag  Ag11  1  0.75000000  0.93015172  0.46800508  1
  Te  Te0  1  0.75000000  0.77685602  0.22733015  1
  Te  Te1  1  0.75000000  0.75016439  0.48208528  1
  Te  Te2  1  0.25000000  0.93903072  0.86172115  1
  Te  Te3  1  0.25000000  0.98402143  0.37601359  1
  Te  Te4  1  0.25000000  0.22314398  0.77266985  1
  Te  Te5  1  0.25000000  0.56096928  0.36172115  1
  Te  Te6  1  0.25000000  0.25016439  0.01791472  1
  Te  Te7  1  0.75000000  0.01597857  0.62398641  1
  Te  Te8  1  0.75000000  0.43903072  0.63827885  1
  Te  Te9  1  0.75000000  0.06096928  0.13827885  1
  Te  Te10  1  0.25000000  0.27685602  0.27266985  1
  Te  Te11  1  0.25000000  0.24983561  0.51791472  1
  Te  Te12  1  0.25000000  0.51597857  0.87601359  1
  Te  Te13  1  0.75000000  0.72314398  0.72733015  1
  Te  Te14  1  0.75000000  0.74983561  0.98208528  1
  Te  Te15  1  0.75000000  0.48402143  0.12398641  1
loop_
_geom_bond_atom_site_label_1
_geom_bond_atom_site_label_2
_geom_bond_distance
_geom_bond_site_symmetry_2
K0 Te2 3.569823 1_545
K0 Te2 3.569823 1_645
K0 Te6 3.717373 1_556
K0 Te6 3.717373 1_656
K0 Te9 3.862683 1_556
K0 Te4 3.932752 1_655
K0 Te4 3.932752 1_555
K1 Te15 3.548055 1_455
K1 Te15 3.548055 1_555
K1 Te0 3.569281 1_555
K1 Te0 3.569281 1_455
K1 Te14 3.605080 1_454
K1 Te14 3.605080 1_554
K2 Te8 3.569823 1_555
K2 Te8 3.569823 1_455
K2 Te1 3.717373 1_555
K2 Te1 3.717373 1_455
K2 Te5 3.862683 1_555
K2 Te13 3.932752 1_555
K2 Te13 3.932752 1_455
K3 Te9 3.569823 1_565
K3 Te9 3.569823 1_465
K3 Te14 3.717373 1_554
K3 Te14 3.717373 1_454
K3 Te2 3.862683 1_554
K3 Te0 3.932752 1_455
K3 Te0 3.932752 1_555
K4 Te7 3.548055 1_565
K4 Te7 3.548055 1_465
K4 Te13 3.569281 1_455
K4 Te13 3.569281 1_555
K4 Te1 3.605080 1_555
K4 Te1 3.605080 1_455
K5 Te5 3.569823 1_555
K5 Te5 3.569823 1_655
K5 Te11 3.717373 1_555
K5 Te11 3.717373 1_655
K5 Te8 3.862683 1_555
K5 Te10 3.932752 1_555
K5 Te10 3.932752 1_655
K6 Te3 3.548055 1_645
K6 Te3 3.548055 1_545
K6 Te10 3.569281 1_655
K6 Te10 3.569281 1_555
K6 Te11 3.605080 1_555
K6 Te11 3.605080 1_655
K7 Te12 3.548055 1_655
K7 Te12 3.548055 1_555
K7 Te4 3.569281 1_555
K7 Te4 3.569281 1_655
K7 Te6 3.605080 1_556
K7 Te6 3.605080 1_656
Ce0 Te1 3.204868 1_455
Ce0 Te1 3.204868 1_555
Ce0 Te0 3.249676 1_555
Ce0 Te0 3.249676 1_455
Ce0 Te5 3.269824 1_555
Ce0 Te3 3.310566 1_555
Ce1 Te14 3.204868 1_455
Ce1 Te14 3.204868 1_555
Ce1 Te13 3.249676 1_455
Ce1 Te13 3.249676 1_555
Ce1 Te2 3.269824 1_555
Ce1 Te12 3.310566 1_555
Ce2 Te11 3.204868 1_655
Ce2 Te11 3.204868 1_555
Ce2 Te4 3.249676 1_555
Ce2 Te4 3.249676 1_655
Ce2 Te8 3.269824 1_555
Ce2 Te7 3.310566 1_555
Ce3 Te6 3.204868 1_555
Ce3 Te6 3.204868 1_655
Ce3 Te10 3.249676 1_555
Ce3 Te10 3.249676 1_655
Ce3 Te9 3.269824 1_555
Ce3 Te15 3.310566 1_555
Ag0 Te14 2.803094 1_555
Ag0 Te12 2.952704 1_655
Ag0 Te12 2.952704 1_555
Ag0 Te15 3.015207 1_556
Ag0 Ag8 3.376911 1_656
Ag0 Ag8 3.376911 1_556
Ag0 Ag7 3.400245 1_555
Ag0 K1 3.719072 1_556
Ag0 K1 3.719072 1_656
Ag0 K7 3.790132 1_555
Ag0 Ce1 3.899756 1_555
Ag0 Ce1 3.899756 1_655
Ag1 Te2 2.818328 1_655
Ag1 Te2 2.818328 1_555
Ag1 Te13 2.907814 1_555
Ag1 Te7 3.194620 1_565
Ag1 Ag9 3.365611 1_665
Ag1 Ag9 3.365611 1_565
Ag1 K4 3.757395 1_655
Ag1 K4 3.757395 1_555
Ag1 Ce1 3.828160 1_655
Ag1 Ce1 3.828160 1_555
Ag1 K0 3.936722 1_565
Ag2 Te9 2.818328 1_555
Ag2 Te9 2.818328 1_455
Ag2 Te10 2.907814 1_555
Ag2 Te3 3.194620 1_545
Ag2 K6 3.757395 1_455
Ag2 K6 3.757395 1_555
Ag2 Ce3 3.828160 1_455
Ag2 Ce3 3.828160 1_555
Ag2 K3 3.936722 1_545
Ag3 Te8 2.818328 1_455
Ag3 Te8 2.818328 1_555
Ag3 Te4 2.907814 1_555
Ag3 Te12 3.194620 1_555
Ag3 Ag7 3.365611 1_455
Ag3 Ag7 3.365611 1_555
Ag3 K7 3.757395 1_555
Ag3 K7 3.757395 1_455
Ag3 Ce2 3.828160 1_555
Ag3 Ce2 3.828160 1_455
Ag3 K2 3.936722 1_555
Ag4 Te5 2.818328 1_555
Ag4 Te5 2.818328 1_655
Ag4 Te0 2.907814 1_555
Ag4 Te15 3.194620 1_555
Ag4 Ag6 3.365611 1_655
Ag4 Ag6 3.365611 1_555
Ag4 K1 3.757395 1_655
Ag4 K1 3.757395 1_555
Ag4 Ce0 3.828160 1_555
Ag4 Ce0 3.828160 1_655
Ag4 K5 3.936722 1_555
Ag5 Te11 2.803094 1_555
Ag5 Te7 2.952704 1_555
Ag5 Te7 2.952704 1_455
Ag5 Te3 3.015207 1_545
Ag5 Ag9 3.400245 1_555
Ag5 K6 3.719072 1_555
Ag5 K6 3.719072 1_455
Ag5 K4 3.790132 1_545
Ag5 Ce2 3.899756 1_555
Ag5 Ce2 3.899756 1_455
Ag6 Te10 2.838870 1_555
Ag6 Te5 2.878510 1_555
Ag6 Te15 2.984242 1_455
Ag6 Te15 2.984242 1_555
Ag6 Ag8 3.400245 1_555
Ag6 K1 3.693663 1_555
Ag7 Te13 2.838870 1_555
Ag7 Te8 2.878510 1_555
Ag7 Te12 2.984242 1_655
Ag7 Te12 2.984242 1_555
Ag7 K7 3.693663 1_555
Ag8 Te6 2.803094 1_555
Ag8 Te15 2.952704 1_555
Ag8 Te15 2.952704 1_455
Ag8 Te12 3.015207 1_554
Ag8 K7 3.719072 1_454
Ag8 K7 3.719072 1_554
Ag8 K1 3.790132 1_555
Ag8 Ce3 3.899756 1_455
Ag8 Ce3 3.899756 1_555
Ag9 Te4 2.838870 1_555
Ag9 Te2 2.878510 1_545
Ag9 Te7 2.984242 1_555
Ag9 Te7 2.984242 1_455
Ag9 K4 3.693663 1_545
Ag10 Te0 2.838870 1_555
Ag10 Te9 2.878510 1_565
Ag10 Te3 2.984242 1_555
Ag10 Te3 2.984242 1_655
Ag10 Ag2 3.365611 1_565
Ag10 Ag2 3.365611 1_665
Ag10 Ag11 3.400245 1_555
Ag10 K6 3.693663 1_565
Ag11 Te1 2.803094 1_555
Ag11 Te3 2.952704 1_555
Ag11 Te3 2.952704 1_655
Ag11 Te7 3.015207 1_565
Ag11 Ag5 3.376911 1_565
Ag11 Ag5 3.376911 1_665
Ag11 K4 3.719072 1_655
Ag11 K4 3.719072 1_555
Ag11 K6 3.790132 1_565
Ag11 Ce0 3.899756 1_555
Ag11 Ce0 3.899756 1_655
