# generated using pymatgen
data_Co5(Bi2O5)4
_symmetry_space_group_name_H-M   'P 1'
_cell_length_a   8.57330581
_cell_length_b   8.78896743
_cell_length_c   8.85434112
_cell_angle_alpha   110.37939228
_cell_angle_beta   109.34283553
_cell_angle_gamma   112.03264862
_symmetry_Int_Tables_number   1
_chemical_formula_structural   Co5(Bi2O5)4
_chemical_formula_sum   'Co5 Bi8 O20'
_cell_volume   491.07362165
_cell_formula_units_Z   1
loop_
 _symmetry_equiv_pos_site_id
 _symmetry_equiv_pos_as_xyz
  1  'x, y, z'
loop_
 _atom_site_type_symbol
 _atom_site_label
 _atom_site_symmetry_multiplicity
 _atom_site_fract_x
 _atom_site_fract_y
 _atom_site_fract_z
 _atom_site_occupancy
  Co  Co0  1  0.50454200  0.70037000  0.79867500  1
  Co  Co1  1  0.99650200  0.98804700  0.97477600  1
  Co  Co2  1  0.32432300  0.22168600  0.59226900  1
  Co  Co3  1  0.67410100  0.76786900  0.48919500  1
  Co  Co4  1  0.49587600  0.27712700  0.16233700  1
  Bi  Bi0  1  0.15132800  0.82394100  0.66722600  1
  Bi  Bi1  1  0.17762700  0.37707500  0.87835500  1
  Bi  Bi2  1  0.20054600  0.50203900  0.32700100  1
  Bi  Bi3  1  0.31454100  0.87328200  0.16080400  1
  Bi  Bi4  1  0.65814400  0.15531900  0.83137600  1
  Bi  Bi5  1  0.77031800  0.49426300  0.63766400  1
  Bi  Bi6  1  0.82932200  0.67770700  0.17629400  1
  Bi  Bi7  1  0.86698500  0.13695800  0.35579900  1
  O  O0  1  0.08450200  0.70677700  0.36333200  1
  O  O1  1  0.32972600  0.67696500  0.94347600  1
  O  O2  1  0.91121500  0.94167100  0.71286400  1
  O  O3  1  0.99948000  0.76950400  0.99064700  1
  O  O4  1  0.01117000  0.39772100  0.01769400  1
  O  O5  1  0.30276200  0.42871100  0.64319100  1
  O  O6  1  0.38287700  0.78681300  0.66036100  1
  O  O7  1  0.42615300  0.70696000  0.32828500  1
  O  O8  1  0.33701400  0.09534500  0.71698300  1
  O  O9  1  0.26267700  0.25827500  0.13292400  1
  O  O10  1  0.57693300  0.62127200  0.58750600  1
  O  O11  1  0.60383300  0.35240700  0.73510800  1
  O  O12  1  0.74537800  0.87207200  0.34736700  1
  O  O13  1  0.35227000  0.01178400  0.99458800  1
  O  O14  1  0.68256400  0.55723700  0.33341100  1
  O  O15  1  0.59097300  0.21901700  0.35085500  1
  O  O16  1  0.91725500  0.29707100  0.64123100  1
  O  O17  1  0.68521700  0.32877600  0.08663300  1
  O  O18  1  0.74827500  0.92300100  0.98789200  1
  O  O19  1  0.08557100  0.05293800  0.37388000  1
loop_
_geom_bond_atom_site_label_1
_geom_bond_atom_site_label_2
_geom_bond_distance
_geom_bond_site_symmetry_2
Co0 O18 1.825393 1_555
Co0 O6 1.887173 1_555
Co0 O5 1.903346 1_555
Co0 O10 2.133449 1_555
Co0 O1 2.271057 1_555
Co1 O3 1.982966 1_555
Co1 O2 2.018313 1_555
Co1 O18 2.041176 1_555
Co1 O9 2.075980 1_666
Co2 O19 1.797648 1_555
Co2 O5 1.812278 1_555
Co2 O8 1.824632 1_555
Co2 O11 1.891197 1_555
Co3 O2 1.812269 1_555
Co3 O7 1.855791 1_555
Co3 O10 1.888912 1_555
Co3 O12 1.917985 1_555
Co3 O14 1.929665 1_555
Co4 O13 1.839164 1_554
Co4 O9 1.862503 1_555
Co4 O17 1.915797 1_555
Co4 O15 1.927804 1_555
Co4 O14 1.938418 1_555
Bi0 O8 2.091113 1_565
Bi0 O6 2.145482 1_555
Bi0 O0 2.288072 1_555
Bi0 O13 2.306630 1_565
Bi0 O2 2.707319 1_455
Bi1 O16 2.138931 1_455
Bi1 O4 2.190060 1_556
Bi1 O1 2.201069 1_555
Bi2 O7 2.083881 1_555
Bi2 O4 2.272872 1_555
Bi2 O0 2.341632 1_555
Bi2 O6 2.506619 1_555
Bi2 O9 2.593296 1_555
Bi2 O10 2.771307 1_555
Bi3 O1 2.172325 1_554
Bi3 O3 2.212805 1_454
Bi3 O13 2.240558 1_564
Bi3 O15 2.464868 1_565
Bi3 O7 2.621222 1_555
Bi4 O17 2.115055 1_556
Bi4 O11 2.305309 1_555
Bi4 O8 2.361283 1_555
Bi4 O4 2.414026 1_656
Bi4 O6 2.614287 1_545
Bi5 O11 2.136815 1_555
Bi5 O15 2.238170 1_555
Bi5 O10 2.331988 1_555
Bi5 O16 2.498284 1_555
Bi5 O3 2.565337 1_555
Bi6 O0 2.116596 1_655
Bi6 O12 2.360699 1_555
Bi6 O14 2.413583 1_555
Bi6 O17 2.524577 1_555
Bi6 O19 2.600566 1_665
Bi6 O3 2.666500 1_554
Bi7 O12 2.125747 1_545
Bi7 O16 2.213543 1_555
Bi7 O19 2.237116 1_655
Bi7 O18 2.699114 1_544
Bi7 O15 2.712086 1_555
