# generated using pymatgen
data_AsN2F7
_symmetry_space_group_name_H-M   'P 1'
_cell_length_a   5.33782791
_cell_length_b   5.33782791
_cell_length_c   26.26649709
_cell_angle_alpha   89.37069151
_cell_angle_beta   89.37069151
_cell_angle_gamma   65.94314595
_symmetry_Int_Tables_number   1
_chemical_formula_structural   AsN2F7
_chemical_formula_sum   'As5 N10 F35'
_cell_volume   683.33255245
_cell_formula_units_Z   5
loop_
 _symmetry_equiv_pos_site_id
 _symmetry_equiv_pos_as_xyz
  1  'x, y, z'
loop_
 _atom_site_type_symbol
 _atom_site_label
 _atom_site_symmetry_multiplicity
 _atom_site_fract_x
 _atom_site_fract_y
 _atom_site_fract_z
 _atom_site_occupancy
  As  As0  1  0.99994400  0.99994400  0.90003800  1
  As  As1  1  0.99997900  0.99997900  0.70002600  1
  As  As2  1  0.99966400  0.99966400  0.50017300  1
  As  As3  1  0.99965700  0.99965700  0.30018000  1
  As  As4  1  0.99969800  0.99969800  0.10017100  1
  N  N0  1  0.62414700  0.62414700  0.98521200  1
  N  N1  1  0.37595200  0.37595200  0.81479200  1
  N  N2  1  0.49499100  0.49499100  0.80150100  1
  N  N3  1  0.50490700  0.50490700  0.59855600  1
  N  N4  1  0.62413000  0.62413000  0.58521300  1
  N  N5  1  0.50490800  0.50490800  0.39856100  1
  N  N6  1  0.62414500  0.62414500  0.38521500  1
  N  N7  1  0.50490300  0.50490300  0.19856200  1
  N  N8  1  0.62412600  0.62412600  0.18521700  1
  N  N9  1  0.50490800  0.50490800  0.99856300  1
  F  F0  1  0.13174000  0.13174000  0.94966300  1
  F  F1  1  0.67857700  0.11433600  0.93285500  1
  F  F2  1  0.11433600  0.67857700  0.93285500  1
  F  F3  1  0.88561100  0.32142400  0.86713000  1
  F  F4  1  0.32142400  0.88561100  0.86713000  1
  F  F5  1  0.86819800  0.86819800  0.85033200  1
  F  F6  1  0.62745100  0.62745100  0.78456000  1
  F  F7  1  0.13164600  0.13164600  0.74965100  1
  F  F8  1  0.67919100  0.11413000  0.73277300  1
  F  F9  1  0.11413000  0.67919100  0.73277300  1
  F  F10  1  0.88584300  0.32086900  0.66719300  1
  F  F11  1  0.32086900  0.88584300  0.66719300  1
  F  F12  1  0.86833100  0.86833100  0.65032700  1
  F  F13  1  0.37253600  0.37253600  0.61545400  1
  F  F14  1  0.13167700  0.13167700  0.54971000  1
  F  F15  1  0.67810900  0.11444800  0.53295300  1
  F  F16  1  0.11444800  0.67810900  0.53295300  1
  F  F17  1  0.88591700  0.32036500  0.46728300  1
  F  F18  1  0.32036500  0.88591700  0.46728300  1
  F  F19  1  0.86824700  0.86824700  0.45039700  1
  F  F20  1  0.37256100  0.37256100  0.41546700  1
  F  F21  1  0.13169000  0.13169000  0.34971500  1
  F  F22  1  0.67808500  0.11445300  0.33295200  1
  F  F23  1  0.11445300  0.67808500  0.33295200  1
  F  F24  1  0.88591700  0.32036000  0.26729100  1
  F  F25  1  0.32036000  0.88591700  0.26729100  1
  F  F26  1  0.86825800  0.86825800  0.25039600  1
  F  F27  1  0.37253900  0.37253900  0.21546600  1
  F  F28  1  0.13169800  0.13169800  0.14971400  1
  F  F29  1  0.67811800  0.11445700  0.13293900  1
  F  F30  1  0.11445700  0.67811800  0.13293900  1
  F  F31  1  0.88593200  0.32039600  0.06729000  1
  F  F32  1  0.32039600  0.88593200  0.06729000  1
  F  F33  1  0.86828200  0.86828200  0.05038000  1
  F  F34  1  0.37254800  0.37254800  0.01546700  1
loop_
_geom_bond_atom_site_label_1
_geom_bond_atom_site_label_2
_geom_bond_distance
_geom_bond_site_symmetry_2
As0 F0 1.769935 1_665
As0 F5 1.771218 1_555
As0 F2 1.784261 1_655
As0 F1 1.784261 1_565
As0 F3 1.785907 1_565
As0 F4 1.785907 1_655
As1 F7 1.769154 1_665
As1 F12 1.770488 1_555
As1 F8 1.780919 1_565
As1 F9 1.780919 1_655
As1 F10 1.782443 1_565
As1 F11 1.782443 1_655
As2 F14 1.769530 1_665
As2 F19 1.770602 1_555
As2 F17 1.782428 1_565
As2 F18 1.782428 1_655
As2 F16 1.784526 1_655
As2 F15 1.784526 1_565
As3 F21 1.769612 1_665
As3 F26 1.770650 1_555
As3 F25 1.782426 1_655
As3 F24 1.782426 1_565
As3 F23 1.784497 1_655
As3 F22 1.784497 1_565
As4 F28 1.769568 1_665
As4 F33 1.770890 1_555
As4 F32 1.782298 1_655
As4 F31 1.782298 1_565
As4 F29 1.784491 1_565
As4 F30 1.784491 1_655
N0 N9 1.119667 1_555
N1 N2 1.117493 1_555
N3 N4 1.119468 1_555
N5 N6 1.119611 1_555
N7 N8 1.119484 1_555
F6 N2 1.261585 1_555
F13 N3 1.260455 1_555
F20 N5 1.260325 1_555
F27 N7 1.260450 1_555
F34 N9 1.260416 1_554
