# generated using pymatgen
data_KICl4
_symmetry_space_group_name_H-M   'P 1'
_cell_length_a   13.59454504
_cell_length_b   4.68720365
_cell_length_c   13.30020158
_cell_angle_alpha   75.30763102
_cell_angle_beta   90.00000000
_cell_angle_gamma   90.00000000
_symmetry_Int_Tables_number   1
_chemical_formula_structural   KICl4
_chemical_formula_sum   'K4 I4 Cl16'
_cell_volume   819.78242577
_cell_formula_units_Z   4
loop_
 _symmetry_equiv_pos_site_id
 _symmetry_equiv_pos_as_xyz
  1  'x, y, z'
loop_
 _atom_site_type_symbol
 _atom_site_label
 _atom_site_symmetry_multiplicity
 _atom_site_fract_x
 _atom_site_fract_y
 _atom_site_fract_z
 _atom_site_occupancy
  K  K0  1  0.34580247  0.65329501  0.08365617  1
  K  K1  1  0.84580247  0.34670499  0.41634383  1
  K  K2  1  0.65419753  0.34670499  0.91634383  1
  K  K3  1  0.15419753  0.65329501  0.58365617  1
  I  I0  1  0.06633884  0.80634574  0.20008886  1
  I  I1  1  0.56633884  0.19365426  0.29991114  1
  I  I2  1  0.93366116  0.19365426  0.79991114  1
  I  I3  1  0.43366116  0.80634574  0.70008886  1
  Cl  Cl0  1  0.11532020  0.74226320  0.03068993  1
  Cl  Cl1  1  0.61532020  0.25773680  0.46931007  1
  Cl  Cl2  1  0.88467980  0.25773680  0.96931007  1
  Cl  Cl3  1  0.38467980  0.74226320  0.53068993  1
  Cl  Cl4  1  0.23245304  0.04400937  0.21679580  1
  Cl  Cl5  1  0.73245304  0.95599063  0.28320420  1
  Cl  Cl6  1  0.76754696  0.95599063  0.78320420  1
  Cl  Cl7  1  0.26754696  0.04400937  0.71679580  1
  Cl  Cl8  1  0.90870954  0.55690497  0.18399492  1
  Cl  Cl9  1  0.40870954  0.44309503  0.31600508  1
  Cl  Cl10  1  0.09129046  0.44309503  0.81600508  1
  Cl  Cl11  1  0.59129046  0.55690497  0.68399492  1
  Cl  Cl12  1  0.01131133  0.86207424  0.38505977  1
  Cl  Cl13  1  0.51131133  0.13792576  0.11494023  1
  Cl  Cl14  1  0.98868867  0.13792576  0.61494023  1
  Cl  Cl15  1  0.48868867  0.86207424  0.88505977  1
loop_
_geom_bond_atom_site_label_1
_geom_bond_atom_site_label_2
_geom_bond_distance
_geom_bond_site_symmetry_2
Cl0 I0 2.439895 1_555
Cl0 K0 3.215389 1_555
Cl1 I1 2.439895 1_555
Cl1 K1 3.215389 1_555
Cl2 I2 2.439895 1_555
Cl2 K2 3.215389 1_555
Cl3 I3 2.439895 1_555
Cl3 K3 3.215389 1_555
Cl4 I0 2.552560 1_545
Cl4 K0 3.241764 1_545
Cl4 K0 3.331780 1_555
Cl5 I1 2.552560 1_565
Cl5 K1 3.241764 1_565
Cl5 K1 3.331780 1_555
Cl6 I2 2.552560 1_565
Cl6 K2 3.241764 1_565
Cl6 K2 3.331780 1_555
Cl7 I3 2.552560 1_545
Cl7 K3 3.241764 1_545
Cl7 K3 3.331780 1_555
Cl8 I0 2.476240 1_655
Cl8 K1 3.115686 1_555
Cl9 I1 2.476240 1_555
Cl9 K0 3.115686 1_555
Cl10 I2 2.476240 1_455
Cl10 K3 3.115686 1_555
Cl11 I3 2.476240 1_555
Cl11 K2 3.115686 1_555
Cl12 I0 2.646915 1_555
Cl12 K3 3.224363 1_555
Cl12 K1 3.249796 1_455
Cl12 K1 3.297749 1_465
Cl13 I1 2.646915 1_555
Cl13 K2 3.224363 1_554
Cl13 K0 3.249796 1_555
Cl13 K0 3.297749 1_545
Cl14 I2 2.646915 1_555
Cl14 K1 3.224363 1_555
Cl14 K3 3.249796 1_655
Cl14 K3 3.297749 1_645
Cl15 I3 2.646915 1_555
Cl15 K0 3.224363 1_556
Cl15 K2 3.249796 1_555
Cl15 K2 3.297749 1_565
