# generated using pymatgen
data_NbO2
_symmetry_space_group_name_H-M   'P 1'
_cell_length_a   11.63775897
_cell_length_b   11.63775897
_cell_length_c   11.63775897
_cell_angle_alpha   94.80964944
_cell_angle_beta   94.80964944
_cell_angle_gamma   146.33662960
_symmetry_Int_Tables_number   1
_chemical_formula_structural   NbO2
_chemical_formula_sum   'Nb16 O32'
_cell_volume   836.27096918
_cell_formula_units_Z   16
loop_
 _symmetry_equiv_pos_site_id
 _symmetry_equiv_pos_as_xyz
  1  'x, y, z'
loop_
 _atom_site_type_symbol
 _atom_site_label
 _atom_site_symmetry_multiplicity
 _atom_site_fract_x
 _atom_site_fract_y
 _atom_site_fract_z
 _atom_site_occupancy
  Nb  Nb0  1  0.24304100  0.59103900  0.79215800  1
  Nb  Nb1  1  0.20905500  0.60521500  0.13807500  1
  Nb  Nb2  1  0.70088300  0.99304100  0.15200200  1
  Nb  Nb3  1  0.46714100  0.07098000  0.86192500  1
  Nb  Nb4  1  0.00695900  0.15896100  0.70784200  1
  Nb  Nb5  1  0.92902000  0.79094500  0.39616100  1
  Nb  Nb6  1  0.85521500  0.21714100  0.89616100  1
  Nb  Nb7  1  0.45111900  0.29911700  0.29215800  1
  Nb  Nb8  1  0.84103900  0.54888100  0.84799800  1
  Nb  Nb9  1  0.39478500  0.53285900  0.60383900  1
  Nb  Nb10  1  0.04094500  0.14478500  0.36192500  1
  Nb  Nb11  1  0.32098000  0.95905500  0.10383900  1
  Nb  Nb12  1  0.78285900  0.67902000  0.63807500  1
  Nb  Nb13  1  0.79888100  0.45088300  0.20784200  1
  Nb  Nb14  1  0.54911700  0.75695900  0.34799800  1
  Nb  Nb15  1  0.40896100  0.20111900  0.65200200  1
  O  O0  1  0.43408400  0.40710600  0.21371100  1
  O  O1  1  0.94978300  0.77782400  0.78543000  1
  O  O2  1  0.52095700  0.94689600  0.86648600  1
  O  O3  1  0.65710600  0.94339500  0.47302200  1
  O  O4  1  0.83564700  0.05021700  0.82804100  1
  O  O5  1  0.05310400  0.91959000  0.57406100  1
  O  O6  1  0.59289400  0.80660500  0.02697800  1
  O  O7  1  0.08041000  0.65447100  0.13351400  1
  O  O8  1  0.30021700  0.97217600  0.71457000  1
  O  O9  1  0.72904300  0.80310400  0.63351400  1
  O  O10  1  0.22217600  0.00760600  0.17195900  1
  O  O11  1  0.34552900  0.47904300  0.42593900  1
  O  O12  1  0.57727900  0.22002100  0.04069700  1
  O  O13  1  0.47002100  0.92932300  0.14274200  1
  O  O14  1  0.07067700  0.21341900  0.54069700  1
  O  O15  1  0.77962700  0.56591600  0.97302200  1
  O  O16  1  0.47037300  0.18408400  0.52697800  1
  O  O17  1  0.99239400  0.16435300  0.21457000  1
  O  O18  1  0.67272100  0.52997900  0.45930300  1
  O  O19  1  0.16959000  0.09552900  0.36648600  1
  O  O20  1  0.41435300  0.69978300  0.67195900  1
  O  O21  1  0.90447100  0.27095700  0.07406100  1
  O  O22  1  0.46341900  0.42272100  0.64274200  1
  O  O23  1  0.81591600  0.34289400  0.28628900  1
  O  O24  1  0.19689600  0.83041000  0.92593900  1
  O  O25  1  0.77997900  0.82067700  0.35725800  1
  O  O26  1  0.78658100  0.32727900  0.85725800  1
  O  O27  1  0.19339500  0.22037300  0.78628900  1
  O  O28  1  0.02782400  0.74239400  0.32804100  1
  O  O29  1  0.05660500  0.52962700  0.71371100  1
  O  O30  1  0.25760600  0.58564700  0.28543000  1
  O  O31  1  0.17932300  0.53658100  0.95930300  1
loop_
_geom_bond_atom_site_label_1
_geom_bond_atom_site_label_2
_geom_bond_distance
_geom_bond_site_symmetry_2
Nb0 O29 1.740398 1_555
Nb0 O20 2.024279 1_555
Nb0 O31 2.098004 1_555
Nb0 O2 2.234595 1_555
Nb1 O30 1.851790 1_555
Nb1 O7 1.998298 1_555
Nb1 O31 2.055912 1_554
Nb1 O13 2.079152 1_555
Nb1 O21 2.090454 1_455
Nb2 O6 1.740398 1_555
Nb2 O17 2.024279 1_565
Nb2 O13 2.097992 1_555
Nb2 O21 2.234595 1_565
Nb3 O8 1.851795 1_545
Nb3 O2 1.998287 1_545
Nb3 O12 2.055915 1_556
Nb3 O26 2.079145 1_555
Nb3 O24 2.090459 1_545
Nb4 O27 1.740398 1_555
Nb4 O4 2.024279 1_455
Nb4 O14 2.098004 1_555
Nb4 O9 2.234595 1_445
Nb5 O28 1.851795 1_655
Nb5 O5 1.998287 1_655
Nb5 O25 2.055925 1_555
Nb5 O18 2.079152 1_555
Nb5 O19 2.090459 1_665
Nb6 O4 1.851804 1_555
Nb6 O21 1.998287 1_556
Nb6 O26 2.055915 1_555
Nb6 O31 2.079149 1_655
Nb6 O2 2.090452 1_545
Nb7 O0 1.740398 1_555
Nb7 O10 2.024279 1_555
Nb7 O18 2.098001 1_555
Nb7 O19 2.234595 1_555
Nb8 O15 1.740398 1_555
Nb8 O1 2.024279 1_555
Nb8 O26 2.097992 1_555
Nb8 O24 2.234595 1_655
Nb9 O20 1.851804 1_555
Nb9 O11 1.998287 1_555
Nb9 O22 2.055915 1_555
Nb9 O14 2.079149 1_555
Nb9 O9 2.090452 1_555
Nb10 O17 1.851790 1_455
Nb10 O19 1.998298 1_555
Nb10 O14 2.055912 1_555
Nb10 O25 2.079152 1_445
Nb10 O11 2.090454 1_555
Nb11 O10 1.851795 1_565
Nb11 O24 1.998287 1_554
Nb11 O13 2.055925 1_555
Nb11 O12 2.079152 1_565
Nb11 O7 2.090459 1_555
Nb12 O1 1.851795 1_555
Nb12 O9 1.998287 1_555
Nb12 O18 2.055915 1_555
Nb12 O22 2.079145 1_555
Nb12 O5 2.090459 1_655
Nb13 O23 1.740398 1_555
Nb13 O28 2.024279 1_655
Nb13 O12 2.098001 1_555
Nb13 O7 2.234595 1_655
Nb14 O3 1.740398 1_555
Nb14 O30 2.024279 1_555
Nb14 O25 2.097992 1_555
Nb14 O11 2.234595 1_555
Nb15 O16 1.740398 1_555
Nb15 O8 2.024279 1_545
Nb15 O22 2.097992 1_555
Nb15 O5 2.234595 1_545
