# generated using pymatgen
data_FeHO2
_symmetry_space_group_name_H-M   'P 1'
_cell_length_a   3.14856600
_cell_length_b   4.91511100
_cell_length_c   9.97776500
_cell_angle_alpha   90.00000000
_cell_angle_beta   90.00000000
_cell_angle_gamma   90.00000000
_symmetry_Int_Tables_number   1
_chemical_formula_structural   FeHO2
_chemical_formula_sum   'Fe4 H4 O8'
_cell_volume   154.41141492
_cell_formula_units_Z   4
loop_
 _symmetry_equiv_pos_site_id
 _symmetry_equiv_pos_as_xyz
  1  'x, y, z'
loop_
 _atom_site_type_symbol
 _atom_site_label
 _atom_site_symmetry_multiplicity
 _atom_site_fract_x
 _atom_site_fract_y
 _atom_site_fract_z
 _atom_site_occupancy
  Fe  Fe0  1  0.77910300  0.47048900  0.65366100  1
  Fe  Fe1  1  0.77910300  0.02951100  0.15366100  1
  Fe  Fe2  1  0.27910300  0.52951100  0.34633900  1
  Fe  Fe3  1  0.27910300  0.97048900  0.84633900  1
  H  H0  1  0.52772900  0.12204500  0.47531400  1
  H  H1  1  0.52772900  0.37795500  0.97531400  1
  H  H2  1  0.02772900  0.87795500  0.52468600  1
  H  H3  1  0.02772900  0.62204500  0.02468600  1
  O  O0  1  0.77106300  0.72880400  0.28414600  1
  O  O1  1  0.77106300  0.77119600  0.78414600  1
  O  O2  1  0.27106300  0.27119600  0.71585400  1
  O  O3  1  0.27106300  0.22880400  0.21585400  1
  O  O4  1  0.68435900  0.29355400  0.46725700  1
  O  O5  1  0.68435900  0.20644600  0.96725700  1
  O  O6  1  0.18435900  0.70644600  0.53274300  1
  O  O7  1  0.18435900  0.79355400  0.03274300  1
loop_
_geom_bond_atom_site_label_1
_geom_bond_atom_site_label_2
_geom_bond_distance
_geom_bond_site_symmetry_2
Fe0 O2 1.934915 1_655
Fe0 O1 1.969827 1_555
Fe0 O2 1.975678 1_555
Fe0 O4 2.074728 1_555
Fe0 O6 2.104463 1_655
Fe0 O6 2.511424 1_555
Fe1 O3 1.934915 1_655
Fe1 O0 1.969827 1_545
Fe1 O3 1.975678 1_555
Fe1 O5 2.074728 1_554
Fe1 O7 2.104463 1_645
Fe1 O7 2.511424 1_545
Fe2 O0 1.934915 1_555
Fe2 O3 1.969827 1_555
Fe2 O0 1.975678 1_455
Fe2 O6 2.074728 1_555
Fe2 O4 2.104463 1_555
Fe2 O4 2.511424 1_455
Fe3 O1 1.934915 1_555
Fe3 O2 1.969827 1_565
Fe3 O1 1.975678 1_455
Fe3 O7 2.074728 1_556
Fe3 O5 2.104463 1_565
Fe3 O5 2.511424 1_465
H0 O4 0.979946 1_555
H1 O5 0.979946 1_555
H2 O6 0.979946 1_555
H3 O7 0.979946 1_555
