# generated using pymatgen
data_Na2MgSiO4
_symmetry_space_group_name_H-M   'P 1'
_cell_length_a   5.23032810
_cell_length_b   5.48173708
_cell_length_c   6.93723659
_cell_angle_alpha   90.00000000
_cell_angle_beta   90.20059397
_cell_angle_gamma   90.00000000
_symmetry_Int_Tables_number   1
_chemical_formula_structural   Na2MgSiO4
_chemical_formula_sum   'Na4 Mg2 Si2 O8'
_cell_volume   198.89825781
_cell_formula_units_Z   2
loop_
 _symmetry_equiv_pos_site_id
 _symmetry_equiv_pos_as_xyz
  1  'x, y, z'
loop_
 _atom_site_type_symbol
 _atom_site_label
 _atom_site_symmetry_multiplicity
 _atom_site_fract_x
 _atom_site_fract_y
 _atom_site_fract_z
 _atom_site_occupancy
  Na  Na0  1  0.51297379  0.33118069  0.25015817  1
  Na  Na1  1  0.00871861  0.18336077  0.49441753  1
  Na  Na2  1  0.01297379  0.66881931  0.75015817  1
  Na  Na3  1  0.50871861  0.81663923  0.99441753  1
  Mg  Mg0  1  0.99941129  0.18474916  -0.00009254  1
  Mg  Mg1  1  0.49941129  0.81525084  0.49990746  1
  Si  Si0  1  0.49479879  0.31401245  0.74764534  1
  Si  Si1  1  0.99479879  0.68598755  0.24764534  1
  O  O0  1  0.13591895  0.79023222  0.44152853  1
  O  O1  1  0.63591895  0.20976778  0.94152853  1
  O  O2  1  0.07619550  0.84286641  0.05582779  1
  O  O3  1  0.57619550  0.15713359  0.55582779  1
  O  O4  1  0.18597903  0.28868058  0.77572030  1
  O  O5  1  0.57007304  0.60200419  0.71834287  1
  O  O6  1  0.07007304  0.39799481  0.21834287  1
  O  O7  1  0.68597903  0.71131942  0.27572030  1
loop_
_geom_bond_atom_site_label_1
_geom_bond_atom_site_label_2
_geom_bond_distance
_geom_bond_site_symmetry_2
Na0 O7 2.278471 1_555
Na0 O1 2.334555 1_554
Na0 O3 2.347602 1_555
Na0 O6 2.354894 1_555
Na1 O4 2.233479 1_555
Na1 O6 2.271468 1_555
Na1 O0 2.285409 1_545
Na1 O3 2.307949 1_455
Na2 O4 2.278471 1_555
Na2 O0 2.334555 1_555
Na2 O2 2.347602 1_556
Na2 O5 2.354895 1_455
Na3 O7 2.233479 1_556
Na3 O5 2.271471 1_555
Na3 O1 2.285409 1_565
Na3 O2 2.307949 1_556
Mg0 O4 1.925146 1_654
Mg0 O1 1.947289 1_554
Mg0 O6 1.948174 1_655
Mg0 O2 1.955245 1_645
Mg1 O7 1.925146 1_555
Mg1 O0 1.947289 1_555
Mg1 O5 1.948177 1_555
Mg1 O3 1.955245 1_565
O0 Si1 1.635070 1_455
O1 Si0 1.635070 1_555
O2 Si1 1.641792 1_455
O3 Si0 1.641792 1_555
O4 Si0 1.633518 1_555
O5 Si0 1.639868 1_555
O6 Si1 1.639873 1_455
O7 Si1 1.633518 1_555
