# generated using pymatgen
data_KBaIn2(PO4)3
_symmetry_space_group_name_H-M   'P 1'
_cell_length_a   10.33603500
_cell_length_b   10.33922980
_cell_length_c   20.67359081
_cell_angle_alpha   89.97384793
_cell_angle_beta   89.97704133
_cell_angle_gamma   89.97752885
_symmetry_Int_Tables_number   1
_chemical_formula_structural   KBaIn2(PO4)3
_chemical_formula_sum   'K8 Ba8 In16 P24 O96'
_cell_volume   2209.31663094
_cell_formula_units_Z   8
loop_
 _symmetry_equiv_pos_site_id
 _symmetry_equiv_pos_as_xyz
  1  'x, y, z'
loop_
 _atom_site_type_symbol
 _atom_site_label
 _atom_site_symmetry_multiplicity
 _atom_site_fract_x
 _atom_site_fract_y
 _atom_site_fract_z
 _atom_site_occupancy
  K  K0  1  0.95126400  0.95060600  0.97442200  1
  K  K1  1  0.94940100  0.94990700  0.47588000  1
  K  K2  1  0.68713800  0.81247800  0.65637200  1
  K  K3  1  0.31243800  0.68684200  0.90622000  1
  K  K4  1  0.04978900  0.54999500  0.22559500  1
  K  K5  1  0.55081300  0.45189700  0.52502400  1
  K  K6  1  0.81327600  0.31323800  0.84315700  1
  K  K7  1  0.45042000  0.04920100  0.27536300  1
  Ba  Ba0  1  0.68795900  0.81380100  0.15654300  1
  Ba  Ba1  1  0.31377500  0.68869500  0.40704200  1
  Ba  Ba2  1  0.04311400  0.54903900  0.72755600  1
  Ba  Ba3  1  0.54745100  0.45365600  0.02142900  1
  Ba  Ba4  1  0.81251600  0.31210600  0.34485100  1
  Ba  Ba5  1  0.18588200  0.18450800  0.59287700  1
  Ba  Ba6  1  0.18505000  0.18645700  0.09266500  1
  Ba  Ba7  1  0.45646900  0.04424600  0.77384500  1
  In  In0  1  0.09232700  0.90506600  0.79852600  1
  In  In1  1  0.09324700  0.90648000  0.29692300  1
  In  In2  1  0.33145400  0.82899300  0.58579900  1
  In  In3  1  0.32858000  0.82861200  0.08418600  1
  In  In4  1  0.67090500  0.66979800  0.83436200  1
  In  In5  1  0.67099500  0.67196800  0.33647100  1
  In  In6  1  0.90211400  0.59629800  0.54664100  1
  In  In7  1  0.90903100  0.59449300  0.04613500  1
  In  In8  1  0.40953600  0.40840900  0.70263400  1
  In  In9  1  0.40508800  0.40653000  0.20477000  1
  In  In10  1  0.16937200  0.33105100  0.91425300  1
  In  In11  1  0.17054800  0.32902300  0.41457900  1
  In  In12  1  0.82784800  0.16937100  0.66556200  1
  In  In13  1  0.82990900  0.17068500  0.16452900  1
  In  In14  1  0.59702000  0.09301300  0.95225600  1
  In  In15  1  0.59368800  0.09236500  0.45353100  1
  P  P0  1  0.78118900  0.98731400  0.81234900  1
  P  P1  1  0.78090300  0.98782400  0.31231700  1
  P  P2  1  0.01262800  0.87515300  0.64004500  1
  P  P3  1  0.01248300  0.87485600  0.14058100  1
  P  P4  1  0.62495600  0.78087400  0.99354300  1
  P  P5  1  0.62436100  0.78120600  0.49402400  1
  P  P6  1  0.37459200  0.71985200  0.74392700  1
  P  P7  1  0.37523900  0.71943200  0.24362800  1
  P  P8  1  0.98728400  0.62454600  0.89054700  1
  P  P9  1  0.98791200  0.62480700  0.39049400  1
  P  P10  1  0.21931400  0.51227300  0.06268500  1
  P  P11  1  0.21909200  0.51247600  0.56258500  1
  P  P12  1  0.71969500  0.48730700  0.68745500  1
  P  P13  1  0.71970900  0.48771900  0.18743200  1
  P  P14  1  0.48729900  0.37497200  0.85994800  1
  P  P15  1  0.48775800  0.37485000  0.35968300  1
  P  P16  1  0.87506000  0.28107900  0.50639400  1
  P  P17  1  0.87490500  0.28026500  0.00618700  1
  P  P18  1  0.12567900  0.21952700  0.75627500  1
  P  P19  1  0.12479800  0.21878800  0.25614700  1
  P  P20  1  0.51245200  0.12532100  0.60939100  1
  P  P21  1  0.51235800  0.12523700  0.10983800  1
  P  P22  1  0.28032100  0.01292500  0.93746700  1
  P  P23  1  0.28096600  0.01232200  0.43754600  1
  O  O0  1  0.92941800  0.99778600  0.63616300  1
  O  O1  1  0.92508800  0.99528800  0.13564800  1
  O  O2  1  0.92001100  0.98771200  0.84070100  1
  O  O3  1  0.92024400  0.98753700  0.34034500  1
  O  O4  1  0.18767400  0.95294000  0.88781200  1
  O  O5  1  0.18841500  0.94901500  0.38817100  1
  O  O6  1  0.27214900  0.92912400  0.99859200  1
  O  O7  1  0.27145000  0.92551400  0.49795200  1
  O  O8  1  0.68114600  0.91988500  0.99466100  1
  O  O9  1  0.68087300  0.92037300  0.49295300  1
  O  O10  1  0.15246800  0.91447600  0.61932200  1
  O  O11  1  0.15105500  0.91438200  0.11904200  1
  O  O12  1  0.73734300  0.84898700  0.79403600  1
  O  O13  1  0.73807200  0.84917200  0.29246600  1
  O  O14  1  0.01555800  0.81614200  0.70996800  1
  O  O15  1  0.01261800  0.81880400  0.21024400  1
  O  O16  1  0.27689500  0.81655800  0.77390000  1
  O  O17  1  0.27646800  0.81169900  0.27536800  1
  O  O18  1  0.95335100  0.77554700  0.59371900  1
  O  O19  1  0.94859100  0.77636300  0.09432500  1
  O  O20  1  0.50138900  0.77080200  0.53533300  1
  O  O21  1  0.50633500  0.76932100  0.03900400  1
  O  O22  1  0.41204200  0.76198400  0.67460900  1
  O  O23  1  0.41448700  0.76207900  0.17411800  1
  O  O24  1  0.58786100  0.73686300  0.92494200  1
  O  O25  1  0.58484500  0.73858500  0.42409100  1
  O  O26  1  0.49602400  0.72818600  0.28707600  1
  O  O27  1  0.49505600  0.72969400  0.78699500  1
  O  O28  1  0.04833500  0.72089400  0.84164900  1
  O  O29  1  0.05110500  0.72334900  0.34400000  1
  O  O30  1  0.72245100  0.68678600  0.52366700  1
  O  O31  1  0.72178300  0.68482700  0.02593700  1
  O  O32  1  0.98761700  0.68152500  0.96003200  1
  O  O33  1  0.98758900  0.68055500  0.46011800  1
  O  O34  1  0.26144900  0.65068800  0.54269800  1
  O  O35  1  0.26304000  0.64986700  0.04392300  1
  O  O36  1  0.84868200  0.58786000  0.86908900  1
  O  O37  1  0.84935900  0.58514500  0.36866300  1
  O  O38  1  0.31535600  0.58054200  0.74298500  1
  O  O39  1  0.31876500  0.58005000  0.24351300  1
  O  O40  1  0.73141600  0.57310500  0.74789400  1
  O  O41  1  0.72672300  0.57505700  0.24748600  1
  O  O42  1  0.81135300  0.55086000  0.13756900  1
  O  O43  1  0.81723000  0.54765400  0.63911100  1
  O  O44  1  0.08024300  0.51145600  0.09090600  1
  O  O45  1  0.07980600  0.51361700  0.59201700  1
  O  O46  1  0.07383200  0.50400400  0.88444400  1
  O  O47  1  0.07505400  0.50407600  0.38552700  1
  O  O48  1  0.57330800  0.49549900  0.86506100  1
  O  O49  1  0.57499500  0.49536100  0.36392000  1
  O  O50  1  0.58055800  0.48720700  0.65910800  1
  O  O51  1  0.58012400  0.48596500  0.15786100  1
  O  O52  1  0.31552900  0.44870100  0.11120900  1
  O  O53  1  0.31126200  0.44875100  0.61210900  1
  O  O54  1  0.22741500  0.42489800  0.50254300  1
  O  O55  1  0.23082800  0.42270200  0.00322600  1
  O  O56  1  0.81923000  0.42047300  0.50615300  1
  O  O57  1  0.81565500  0.41987400  0.00790600  1
  O  O58  1  0.34857500  0.41190200  0.88115700  1
  O  O59  1  0.34893900  0.41441800  0.38092000  1
  O  O60  1  0.76265100  0.34838800  0.70596300  1
  O  O61  1  0.76148300  0.34909200  0.20718100  1
  O  O62  1  0.48568500  0.31526300  0.79041900  1
  O  O63  1  0.48745700  0.31876000  0.28987400  1
  O  O64  1  0.22355500  0.31485300  0.72445900  1
  O  O65  1  0.22300900  0.31168900  0.22424500  1
  O  O66  1  0.54754200  0.27754800  0.90845100  1
  O  O67  1  0.55114300  0.27582800  0.40572800  1
  O  O68  1  0.99750800  0.27231300  0.96478000  1
  O  O69  1  0.99554900  0.27132400  0.46242400  1
  O  O70  1  0.08786200  0.26234100  0.82498400  1
  O  O71  1  0.08541200  0.26196600  0.32539400  1
  O  O72  1  0.91428000  0.23882500  0.07608800  1
  O  O73  1  0.91458400  0.23793400  0.57561900  1
  O  O74  1  0.00717300  0.22923100  0.71128700  1
  O  O75  1  0.00430600  0.22876500  0.21253300  1
  O  O76  1  0.44809000  0.22192900  0.65767500  1
  O  O77  1  0.44944500  0.22480800  0.15567800  1
  O  O78  1  0.77543400  0.18743100  0.97662500  1
  O  O79  1  0.77645600  0.18874900  0.47430400  1
  O  O80  1  0.51111000  0.18181800  0.53993900  1
  O  O81  1  0.51399800  0.18397800  0.04006100  1
  O  O82  1  0.23882900  0.15242200  0.95724300  1
  O  O83  1  0.23792400  0.15107800  0.45719500  1
  O  O84  1  0.64972600  0.08773500  0.63135800  1
  O  O85  1  0.65093900  0.08556800  0.13086900  1
  O  O86  1  0.18473100  0.08042600  0.75634900  1
  O  O87  1  0.18108900  0.07955700  0.25622500  1
  O  O88  1  0.76836000  0.07398100  0.75216800  1
  O  O89  1  0.77137800  0.07481700  0.25184200  1
  O  O90  1  0.68306700  0.04814100  0.86060700  1
  O  O91  1  0.68824000  0.05138900  0.36148700  1
  O  O92  1  0.42020900  0.01521300  0.90812600  1
  O  O93  1  0.42023800  0.01305500  0.40931200  1
  O  O94  1  0.42229200  0.00676900  0.61535500  1
  O  O95  1  0.42534200  0.00478300  0.11371000  1
loop_
_geom_bond_atom_site_label_1
_geom_bond_atom_site_label_2
_geom_bond_distance
_geom_bond_site_symmetry_2
K0 O2 2.809557 1_555
K0 O32 2.823041 1_555
K0 O8 2.840876 1_555
K0 O4 3.028863 1_655
K0 O78 3.049113 1_565
K0 O19 3.063786 1_556
K1 O9 2.814443 1_555
K1 O33 2.831513 1_555
K1 O3 2.844813 1_555
K1 O18 3.030253 1_555
K1 O79 3.048132 1_565
K1 O5 3.063913 1_655
K2 O22 2.915435 1_555
K2 O12 2.917851 1_555
K2 O84 2.917929 1_565
K2 O30 3.057922 1_555
K2 O18 3.064557 1_555
K2 O43 3.070841 1_555
K2 O40 3.148058 1_555
K2 O0 3.180986 1_555
K2 O20 3.184142 1_555
K3 O58 2.913606 1_555
K3 O35 2.917052 1_556
K3 O24 2.919532 1_555
K3 O28 3.059310 1_555
K3 O4 3.061670 1_555
K3 O16 3.068204 1_555
K3 O27 3.135338 1_555
K3 O46 3.140694 1_555
K3 O6 3.177767 1_555
K4 O39 2.822162 1_555
K4 O15 2.823326 1_555
K4 O44 2.830466 1_555
K4 O29 3.034591 1_555
K4 O65 3.045276 1_555
K4 O42 3.064154 1_455
K5 O50 2.813089 1_555
K5 O56 2.820181 1_555
K5 O80 2.839197 1_555
K5 O30 3.008205 1_555
K5 O53 3.060948 1_555
K5 O67 3.066030 1_555
K6 O60 2.906980 1_555
K6 O70 2.910535 1_655
K6 O36 2.913036 1_555
K6 O78 3.074853 1_555
K6 O90 3.074991 1_555
K6 O66 3.082153 1_555
K6 O88 3.143113 1_555
K6 O48 3.147119 1_555
K6 O68 3.182686 1_555
K7 O93 2.811396 1_555
K7 O87 2.829267 1_555
K7 O63 2.829450 1_555
K7 O91 3.035883 1_555
K7 O17 3.044024 1_545
K7 O77 3.068357 1_555
Ba0 O13 2.881056 1_555
Ba0 O85 2.884686 1_565
Ba0 O23 2.899644 1_555
Ba0 O19 3.009698 1_555
Ba0 O42 3.028069 1_555
Ba0 O31 3.032013 1_555
Ba0 O21 3.105748 1_555
Ba0 O1 3.117195 1_555
Ba0 O41 3.127956 1_555
Ba1 O25 2.870961 1_555
Ba1 O34 2.882721 1_555
Ba1 O59 2.909640 1_555
Ba1 O5 3.011982 1_555
Ba1 O17 3.028797 1_555
Ba1 O29 3.033095 1_555
Ba1 O7 3.117955 1_555
Ba1 O26 3.140403 1_555
Ba1 O47 3.151980 1_555
Ba2 O14 2.799738 1_555
Ba2 O38 2.850863 1_555
Ba2 O45 2.851241 1_555
Ba2 O28 2.954256 1_555
Ba2 O43 2.966148 1_455
Ba2 O64 3.056420 1_555
Ba2 O40 3.258308 1_455
Ba2 O46 3.291935 1_555
Ba2 O74 3.344638 1_555
Ba3 O57 2.807805 1_555
Ba3 O81 2.835843 1_555
Ba3 O51 2.860558 1_555
Ba3 O66 2.962192 1_554
Ba3 O31 2.995325 1_555
Ba3 O52 3.031572 1_555
Ba3 O48 3.272153 1_554
Ba3 O55 3.309992 1_555
Ba3 O21 3.311260 1_555
Ba4 O37 2.891197 1_555
Ba4 O71 2.895656 1_655
Ba4 O61 2.919759 1_555
Ba4 O79 2.987377 1_555
Ba4 O67 3.003447 1_555
Ba4 O91 3.006015 1_555
Ba4 O69 3.109188 1_555
Ba4 O49 3.125503 1_555
Ba4 O89 3.146896 1_555
Ba5 O10 2.865697 1_545
Ba5 O83 2.876901 1_555
Ba5 O73 2.880115 1_455
Ba5 O76 3.048538 1_555
Ba5 O53 3.050558 1_555
Ba5 O64 3.061424 1_555
Ba5 O94 3.092012 1_555
Ba5 O74 3.100806 1_555
Ba5 O54 3.137731 1_555
Ba6 O72 2.871006 1_455
Ba6 O82 2.875831 1_554
Ba6 O11 2.886741 1_545
Ba6 O65 3.038844 1_555
Ba6 O52 3.053149 1_555
Ba6 O77 3.053951 1_555
Ba6 O55 3.099212 1_555
Ba6 O75 3.133538 1_555
Ba6 O95 3.143664 1_555
Ba7 O92 2.817025 1_555
Ba7 O62 2.839370 1_555
Ba7 O86 2.856464 1_555
Ba7 O90 2.950927 1_555
Ba7 O16 2.998390 1_545
Ba7 O76 3.024301 1_555
Ba7 O88 3.269127 1_555
Ba7 O27 3.287584 1_545
Ba7 O94 3.318577 1_555
In0 O4 2.150841 1_555
In0 O28 2.150886 1_555
In0 O2 2.158893 1_455
In0 O16 2.175824 1_555
In0 O14 2.197743 1_555
In0 O86 2.226888 1_565
In1 O3 2.168862 1_455
In1 O29 2.172709 1_555
In1 O5 2.173056 1_555
In1 O15 2.175015 1_555
In1 O87 2.175729 1_565
In1 O17 2.177973 1_555
In2 O20 2.129294 1_555
In2 O22 2.131763 1_555
In2 O94 2.153190 1_565
In2 O7 2.162774 1_555
In2 O10 2.163846 1_555
In2 O34 2.172377 1_555
In3 O6 2.133098 1_554
In3 O35 2.137760 1_555
In3 O21 2.149921 1_555
In3 O11 2.161201 1_555
In3 O95 2.166452 1_565
In3 O23 2.172097 1_555
In4 O40 2.141592 1_555
In4 O12 2.144325 1_555
In4 O36 2.146824 1_555
In4 O27 2.155463 1_555
In4 O48 2.160531 1_555
In4 O24 2.173402 1_555
In5 O25 2.132583 1_555
In5 O49 2.154258 1_555
In5 O37 2.155614 1_555
In5 O26 2.156723 1_555
In5 O13 2.159644 1_555
In5 O41 2.172651 1_555
In6 O30 2.132671 1_555
In6 O18 2.159921 1_555
In6 O43 2.162265 1_555
In6 O33 2.176451 1_555
In6 O56 2.177722 1_555
In6 O45 2.232356 1_655
In7 O32 2.153151 1_554
In7 O19 2.167546 1_555
In7 O44 2.173672 1_655
In7 O31 2.188913 1_555
In7 O42 2.189517 1_555
In7 O57 2.195212 1_555
In8 O50 2.144149 1_555
In8 O53 2.169944 1_555
In8 O76 2.177350 1_555
In8 O38 2.193228 1_555
In8 O64 2.198834 1_555
In8 O62 2.199896 1_555
In9 O63 2.154758 1_555
In9 O39 2.157722 1_555
In9 O65 2.160082 1_555
In9 O77 2.184277 1_555
In9 O52 2.188297 1_555
In9 O51 2.210691 1_555
In10 O46 2.133237 1_555
In10 O58 2.144164 1_555
In10 O68 2.148094 1_455
In10 O70 2.150184 1_555
In10 O55 2.165133 1_556
In10 O82 2.171232 1_555
In11 O69 2.145898 1_455
In11 O47 2.146818 1_555
In11 O54 2.153631 1_555
In11 O83 2.155018 1_555
In11 O71 2.158120 1_555
In11 O59 2.159455 1_555
In12 O88 2.134125 1_555
In12 O60 2.139517 1_555
In12 O84 2.145882 1_555
In12 O0 2.148915 1_545
In12 O74 2.171399 1_655
In12 O73 2.182141 1_555
In13 O75 2.144199 1_655
In13 O72 2.144267 1_555
In13 O89 2.145864 1_555
In13 O1 2.147580 1_545
In13 O61 2.163378 1_555
In13 O85 2.164138 1_555
In14 O90 2.143669 1_555
In14 O78 2.147110 1_555
In14 O66 2.172547 1_555
In14 O8 2.174101 1_545
In14 O92 2.195994 1_555
In14 O81 2.217141 1_556
In15 O9 2.153257 1_545
In15 O93 2.173784 1_555
In15 O79 2.179155 1_555
In15 O91 2.180473 1_555
In15 O67 2.183144 1_555
In15 O80 2.185101 1_555
O0 P2 1.533917 1_655
O1 P3 1.541401 1_655
O2 P0 1.550195 1_555
O3 P1 1.552641 1_555
O4 P22 1.535345 1_565
O5 P23 1.545110 1_565
O6 P22 1.534174 1_565
O7 P23 1.540682 1_565
O8 P4 1.550572 1_555
O9 P5 1.553277 1_555
O10 P2 1.561346 1_555
O11 P3 1.554514 1_555
O12 P0 1.547681 1_555
O13 P1 1.555849 1_555
O14 P2 1.569086 1_555
O15 P3 1.552170 1_555
O16 P6 1.550053 1_555
O17 P7 1.543418 1_555
O18 P2 1.534627 1_655
O19 P3 1.545809 1_655
O20 P5 1.534796 1_555
O21 P4 1.549164 1_554
O22 P6 1.546722 1_555
O23 P7 1.556637 1_555
O24 P4 1.538377 1_555
O25 P5 1.566029 1_555
O26 P7 1.540994 1_555
O27 P6 1.534441 1_555
O28 P8 1.552904 1_455
O29 P9 1.545219 1_455
O30 P5 1.534820 1_555
O31 P4 1.560582 1_554
O32 P8 1.552867 1_555
O33 P9 1.550742 1_555
O34 P11 1.550023 1_555
O35 P10 1.542209 1_555
O36 P8 1.547283 1_555
O37 P9 1.556882 1_555
O38 P6 1.565441 1_555
O39 P7 1.555047 1_555
O40 P12 1.537544 1_555
O41 P13 1.537279 1_555
O42 P13 1.544401 1_555
O43 P12 1.550363 1_555
O44 P10 1.551140 1_555
O45 P11 1.562785 1_555
O46 P8 1.539036 1_455
O47 P9 1.542445 1_455
O48 P14 1.534748 1_555
O49 P15 1.540859 1_555
O50 P12 1.553164 1_555
O51 P13 1.567273 1_555
O52 P10 1.557897 1_555
O53 P11 1.545837 1_555
O54 P11 1.539148 1_555
O55 P10 1.543911 1_555
O56 P16 1.552257 1_555
O57 P17 1.568181 1_555
O58 P14 1.547000 1_555
O59 P15 1.555019 1_555
O60 P12 1.551023 1_555
O61 P13 1.551318 1_555
O62 P14 1.564733 1_555
O63 P15 1.555612 1_555
O64 P18 1.557925 1_555
O65 P19 1.545215 1_555
O66 P14 1.551422 1_555
O67 P15 1.543579 1_555
O68 P17 1.531186 1_556
O69 P16 1.544840 1_555
O70 P18 1.538324 1_555
O71 P19 1.553844 1_555
O72 P17 1.561188 1_555
O73 P16 1.553627 1_555
O74 P18 1.541477 1_555
O75 P19 1.541229 1_555
O76 P20 1.560938 1_555
O77 P21 1.542939 1_555
O78 P17 1.534165 1_556
O79 P16 1.546616 1_555
O80 P20 1.549915 1_555
O81 P21 1.565011 1_555
O82 P22 1.559228 1_555
O83 P23 1.555951 1_555
O84 P20 1.539601 1_555
O85 P21 1.552044 1_555
O86 P18 1.562136 1_555
O87 P19 1.552464 1_555
O88 P0 1.538660 1_545
O89 P1 1.542977 1_545
O90 P0 1.555219 1_545
O91 P1 1.543340 1_545
O92 P22 1.567930 1_555
O93 P23 1.553162 1_555
O94 P20 1.544904 1_555
O95 P21 1.538533 1_555
