# generated using pymatgen
data_K5HfIn(MoO4)6
_symmetry_space_group_name_H-M   'P 1'
_cell_length_a   14.19255950
_cell_length_b   14.19255950
_cell_length_c   14.19255983
_cell_angle_alpha   44.60019146
_cell_angle_beta   44.60019146
_cell_angle_gamma   44.60019094
_symmetry_Int_Tables_number   1
_chemical_formula_structural   K5HfIn(MoO4)6
_chemical_formula_sum   'K10 Hf2 In2 Mo12 O48'
_cell_volume   1281.76816131
_cell_formula_units_Z   2
loop_
 _symmetry_equiv_pos_site_id
 _symmetry_equiv_pos_as_xyz
  1  'x, y, z'
loop_
 _atom_site_type_symbol
 _atom_site_label
 _atom_site_symmetry_multiplicity
 _atom_site_fract_x
 _atom_site_fract_y
 _atom_site_fract_z
 _atom_site_occupancy
  K  K0  1  0.14663900  0.14663900  0.14663900  1
  K  K1  1  0.35336100  0.35336100  0.35336100  1
  K  K2  1  0.75000000  0.13590600  0.36409400  1
  K  K3  1  0.13590600  0.36409400  0.75000000  1
  K  K4  1  0.36409400  0.75000000  0.13590600  1
  K  K5  1  0.63590600  0.25000000  0.86409400  1
  K  K6  1  0.86409400  0.63590600  0.25000000  1
  K  K7  1  0.25000000  0.86409400  0.63590600  1
  K  K8  1  0.64663900  0.64663900  0.64663900  1
  K  K9  1  0.85336100  0.85336100  0.85336100  1
  Hf  Hf0  1  0.00000000  0.00000000  0.00000000  1
  Hf  Hf1  1  0.50000000  0.50000000  0.50000000  1
  In  In0  1  0.25000000  0.25000000  0.25000000  1
  In  In1  1  0.75000000  0.75000000  0.75000000  1
  Mo  Mo0  1  0.61871300  0.02203800  0.26217100  1
  Mo  Mo1  1  0.02203800  0.26217100  0.61871300  1
  Mo  Mo2  1  0.26217100  0.61871300  0.02203800  1
  Mo  Mo3  1  0.52203800  0.11871300  0.76217100  1
  Mo  Mo4  1  0.76217100  0.52203800  0.11871300  1
  Mo  Mo5  1  0.88128700  0.23782900  0.47796200  1
  Mo  Mo6  1  0.11871300  0.76217100  0.52203800  1
  Mo  Mo7  1  0.23782900  0.47796200  0.88128700  1
  Mo  Mo8  1  0.47796200  0.88128700  0.23782900  1
  Mo  Mo9  1  0.73782900  0.38128700  0.97796200  1
  Mo  Mo10  1  0.97796200  0.73782900  0.38128700  1
  Mo  Mo11  1  0.38128700  0.97796200  0.73782900  1
  O  O0  1  0.32120900  0.02817300  0.30251000  1
  O  O1  1  0.02817300  0.30251000  0.32120900  1
  O  O2  1  0.30251000  0.32120900  0.02817300  1
  O  O3  1  0.47182700  0.17879100  0.19749000  1
  O  O4  1  0.17879100  0.19749000  0.47182700  1
  O  O5  1  0.19749000  0.47182700  0.17879100  1
  O  O6  1  0.61773100  0.07017800  0.34746800  1
  O  O7  1  0.19879000  0.00442000  0.89597600  1
  O  O8  1  0.07017800  0.34746800  0.61773100  1
  O  O9  1  0.89597600  0.19879000  0.00442000  1
  O  O10  1  0.40657400  0.14292200  0.61132800  1
  O  O11  1  0.34746800  0.61773100  0.07017800  1
  O  O12  1  0.61132800  0.40657400  0.14292200  1
  O  O13  1  0.35707800  0.09342600  0.88867200  1
  O  O14  1  0.14292200  0.61132800  0.40657400  1
  O  O15  1  0.00442000  0.89597600  0.19879000  1
  O  O16  1  0.88867200  0.35707800  0.09342600  1
  O  O17  1  0.49558000  0.30121000  0.60402400  1
  O  O18  1  0.88226900  0.15253200  0.42982200  1
  O  O19  1  0.57017800  0.11773100  0.84746800  1
  O  O20  1  0.60402400  0.49558000  0.30121000  1
  O  O21  1  0.15253200  0.42982200  0.88226900  1
  O  O22  1  0.30121000  0.60402400  0.49558000  1
  O  O23  1  0.09342600  0.88867200  0.35707800  1
  O  O24  1  0.90657400  0.11132800  0.64292200  1
  O  O25  1  0.69879000  0.39597600  0.50442000  1
  O  O26  1  0.84746800  0.57017800  0.11773100  1
  O  O27  1  0.39597600  0.50442000  0.69879000  1
  O  O28  1  0.42982200  0.88226900  0.15253200  1
  O  O29  1  0.11773100  0.84746800  0.57017800  1
  O  O30  1  0.50442000  0.69879000  0.39597600  1
  O  O31  1  0.11132800  0.64292200  0.90657400  1
  O  O32  1  0.99558000  0.10402400  0.80121000  1
  O  O33  1  0.85707800  0.38867200  0.59342600  1
  O  O34  1  0.64292200  0.90657400  0.11132800  1
  O  O35  1  0.38867200  0.59342600  0.85707800  1
  O  O36  1  0.65253200  0.38226900  0.92982200  1
  O  O37  1  0.59342600  0.85707800  0.38867200  1
  O  O38  1  0.10402400  0.80121000  0.99558000  1
  O  O39  1  0.92982200  0.65253200  0.38226900  1
  O  O40  1  0.80121000  0.99558000  0.10402400  1
  O  O41  1  0.38226900  0.92982200  0.65253200  1
  O  O42  1  0.80251000  0.52817300  0.82120900  1
  O  O43  1  0.82120900  0.80251000  0.52817300  1
  O  O44  1  0.52817300  0.82120900  0.80251000  1
  O  O45  1  0.69749000  0.67879100  0.97182700  1
  O  O46  1  0.97182700  0.69749000  0.67879100  1
  O  O47  1  0.67879100  0.97182700  0.69749000  1
loop_
_geom_bond_atom_site_label_1
_geom_bond_atom_site_label_2
_geom_bond_distance
_geom_bond_site_symmetry_2
K0 O16 2.837037 1_455
K0 O23 2.837037 1_545
K0 O13 2.837037 1_554
K0 O28 2.965711 1_545
K0 O21 2.965711 1_554
K0 O18 2.965711 1_455
K0 O2 3.230413 1_555
K0 O0 3.230413 1_555
K0 O1 3.230413 1_555
K1 O14 2.837037 1_555
K1 O12 2.837037 1_555
K1 O10 2.837037 1_555
K1 O6 2.965711 1_555
K1 O8 2.965711 1_555
K1 O11 2.965711 1_555
K1 O4 3.230413 1_555
K1 O3 3.230413 1_555
K1 O5 3.230413 1_555
K2 O6 2.808544 1_555
K2 O18 2.808544 1_555
K2 O16 3.056659 1_555
K2 O12 3.056659 1_555
K2 O43 3.111891 1_545
K2 O47 3.111891 1_545
K3 O21 2.808544 1_555
K3 O8 2.808544 1_555
K3 O13 3.056659 1_555
K3 O10 3.056659 1_555
K3 O46 3.111891 1_455
K3 O42 3.111891 1_455
K4 O28 2.808544 1_555
K4 O11 2.808544 1_555
K4 O14 3.056659 1_555
K4 O23 3.056659 1_555
K4 O45 3.111891 1_554
K4 O44 3.111891 1_554
K5 O19 2.808544 1_555
K5 O36 2.808544 1_555
K5 O33 3.056659 1_555
K5 O24 3.056659 1_555
K5 O2 3.111891 1_556
K5 O3 3.111891 1_556
K6 O39 2.808544 1_555
K6 O26 2.808544 1_555
K6 O37 3.056659 1_555
K6 O34 3.056659 1_555
K6 O1 3.111891 1_655
K6 O5 3.111891 1_655
K7 O41 2.808544 1_555
K7 O29 2.808544 1_555
K7 O31 3.056659 1_555
K7 O35 3.056659 1_555
K7 O4 3.111891 1_565
K7 O0 3.111891 1_565
K8 O33 2.837037 1_555
K8 O35 2.837037 1_555
K8 O37 2.837037 1_555
K8 O41 2.965711 1_555
K8 O39 2.965711 1_555
K8 O36 2.965711 1_555
K8 O43 3.230413 1_555
K8 O44 3.230413 1_555
K8 O42 3.230413 1_555
K9 O31 2.837037 1_655
K9 O24 2.837037 1_565
K9 O34 2.837037 1_556
K9 O19 2.965711 1_565
K9 O26 2.965711 1_556
K9 O29 2.965711 1_655
K9 O45 3.230413 1_555
K9 O47 3.230413 1_555
K9 O46 3.230413 1_555
Hf0 O9 2.081362 1_455
Hf0 O38 2.081362 1_544
Hf0 O7 2.081362 1_554
Hf0 O40 2.081362 1_445
Hf0 O15 2.081362 1_545
Hf0 O32 2.081362 1_454
Hf1 O22 2.081362 1_555
Hf1 O25 2.081362 1_555
Hf1 O17 2.081362 1_555
Hf1 O30 2.081362 1_555
Hf1 O20 2.081362 1_555
Hf1 O27 2.081362 1_555
In0 O3 2.165384 1_555
In0 O0 2.165384 1_555
In0 O5 2.165384 1_555
In0 O1 2.165384 1_555
In0 O4 2.165384 1_555
In0 O2 2.165384 1_555
In1 O47 2.165384 1_555
In1 O44 2.165384 1_555
In1 O46 2.165384 1_555
In1 O42 2.165384 1_555
In1 O45 2.165384 1_555
In1 O43 2.165384 1_555
Mo0 O6 1.752929 1_555
Mo0 O37 1.768223 1_545
Mo0 O3 1.830420 1_555
Mo0 O40 1.850389 1_545
Mo1 O8 1.752929 1_555
Mo1 O33 1.768223 1_455
Mo1 O4 1.830420 1_555
Mo1 O32 1.850389 1_455
Mo2 O11 1.752929 1_555
Mo2 O35 1.768223 1_554
Mo2 O5 1.830420 1_555
Mo2 O38 1.850389 1_554
Mo3 O19 1.752929 1_555
Mo3 O13 1.768223 1_555
Mo3 O47 1.830420 1_545
Mo3 O17 1.850389 1_555
Mo4 O26 1.752929 1_555
Mo4 O16 1.768223 1_555
Mo4 O45 1.830420 1_554
Mo4 O20 1.850389 1_555
Mo5 O18 1.752929 1_555
Mo5 O24 1.768223 1_555
Mo5 O1 1.830420 1_655
Mo5 O25 1.850389 1_555
Mo6 O29 1.752929 1_555
Mo6 O23 1.768223 1_555
Mo6 O46 1.830420 1_455
Mo6 O22 1.850389 1_555
Mo7 O21 1.752929 1_555
Mo7 O31 1.768223 1_555
Mo7 O2 1.830420 1_556
Mo7 O27 1.850389 1_555
Mo8 O28 1.752929 1_555
Mo8 O34 1.768223 1_555
Mo8 O0 1.830420 1_565
Mo8 O30 1.850389 1_555
Mo9 O36 1.752929 1_555
Mo9 O12 1.768223 1_556
Mo9 O42 1.830420 1_555
Mo9 O9 1.850389 1_556
Mo10 O39 1.752929 1_555
Mo10 O14 1.768223 1_655
Mo10 O43 1.830420 1_555
Mo10 O15 1.850389 1_655
Mo11 O41 1.752929 1_555
Mo11 O10 1.768223 1_565
Mo11 O44 1.830420 1_555
Mo11 O7 1.850389 1_565
