# generated using pymatgen
data_K3La2(NO3)9
_symmetry_space_group_name_H-M   'P 1'
_cell_length_a   13.73332700
_cell_length_b   13.73332700
_cell_length_c   13.73332700
_cell_angle_alpha   90.00000000
_cell_angle_beta   90.00000000
_cell_angle_gamma   90.00000000
_symmetry_Int_Tables_number   1
_chemical_formula_structural   K3La2(NO3)9
_chemical_formula_sum   'K12 La8 N36 O108'
_cell_volume   2590.16412022
_cell_formula_units_Z   4
loop_
 _symmetry_equiv_pos_site_id
 _symmetry_equiv_pos_as_xyz
  1  'x, y, z'
loop_
 _atom_site_type_symbol
 _atom_site_label
 _atom_site_symmetry_multiplicity
 _atom_site_fract_x
 _atom_site_fract_y
 _atom_site_fract_z
 _atom_site_occupancy
  K  K0  1  0.31322400  0.43677600  0.87500000  1
  K  K1  1  0.43677600  0.87500000  0.31322400  1
  K  K2  1  0.93677600  0.62500000  0.68677600  1
  K  K3  1  0.37500000  0.18677600  0.56322400  1
  K  K4  1  0.68677600  0.93677600  0.62500000  1
  K  K5  1  0.56322400  0.37500000  0.18677600  1
  K  K6  1  0.12500000  0.81322400  0.06322400  1
  K  K7  1  0.06322400  0.12500000  0.81322400  1
  K  K8  1  0.87500000  0.31322400  0.43677600  1
  K  K9  1  0.62500000  0.68677600  0.93677600  1
  K  K10  1  0.81322400  0.06322400  0.12500000  1
  K  K11  1  0.18677600  0.56322400  0.37500000  1
  La  La0  1  0.79820200  0.70179800  0.29820200  1
  La  La1  1  0.45179800  0.04820200  0.95179800  1
  La  La2  1  0.29820200  0.79820200  0.70179800  1
  La  La3  1  0.20179800  0.20179800  0.20179800  1
  La  La4  1  0.95179800  0.45179800  0.04820200  1
  La  La5  1  0.54820200  0.54820200  0.54820200  1
  La  La6  1  0.70179800  0.29820200  0.79820200  1
  La  La7  1  0.04820200  0.95179800  0.45179800  1
  N  N0  1  0.76225400  0.62500000  0.51225400  1
  N  N1  1  0.89887800  0.08891600  0.36032200  1
  N  N2  1  0.66108400  0.85112200  0.38967800  1
  N  N3  1  0.60112200  0.91108400  0.86032200  1
  N  N4  1  0.14887800  0.88967800  0.83891600  1
  N  N5  1  0.10112200  0.58891600  0.13967800  1
  N  N6  1  0.86032200  0.60112200  0.91108400  1
  N  N7  1  0.62500000  0.51225400  0.76225400  1
  N  N8  1  0.12500000  0.98774600  0.23774600  1
  N  N9  1  0.58891600  0.13967800  0.10112200  1
  N  N10  1  0.38967800  0.66108400  0.85112200  1
  N  N11  1  0.87500000  0.48774600  0.26225400  1
  N  N12  1  0.41108400  0.63967800  0.39887800  1
  N  N13  1  0.88967800  0.83891600  0.14887800  1
  N  N14  1  0.61032200  0.16108400  0.64887800  1
  N  N15  1  0.48774600  0.26225400  0.87500000  1
  N  N16  1  0.85112200  0.38967800  0.66108400  1
  N  N17  1  0.37500000  0.01225400  0.73774600  1
  N  N18  1  0.33891600  0.35112200  0.11032200  1
  N  N19  1  0.23774600  0.12500000  0.98774600  1
  N  N20  1  0.36032200  0.89887800  0.08891600  1
  N  N21  1  0.51225400  0.76225400  0.62500000  1
  N  N22  1  0.91108400  0.86032200  0.60112200  1
  N  N23  1  0.13967800  0.10112200  0.58891600  1
  N  N24  1  0.73774600  0.37500000  0.01225400  1
  N  N25  1  0.64887800  0.61032200  0.16108400  1
  N  N26  1  0.16108400  0.64887800  0.61032200  1
  N  N27  1  0.63967800  0.39887800  0.41108400  1
  N  N28  1  0.39887800  0.41108400  0.63967800  1
  N  N29  1  0.83891600  0.14887800  0.88967800  1
  N  N30  1  0.11032200  0.33891600  0.35112200  1
  N  N31  1  0.98774600  0.23774600  0.12500000  1
  N  N32  1  0.01225400  0.73774600  0.37500000  1
  N  N33  1  0.35112200  0.11032200  0.33891600  1
  N  N34  1  0.08891600  0.36032200  0.89887800  1
  N  N35  1  0.26225400  0.87500000  0.48774600  1
  O  O0  1  0.00879100  0.15508200  0.15730000  1
  O  O1  1  0.40508200  0.24120900  0.90730000  1
  O  O2  1  0.15730000  0.00879100  0.15508200  1
  O  O3  1  0.84491800  0.65730000  0.49120900  1
  O  O4  1  0.24482300  0.66645700  0.57382000  1
  O  O5  1  0.41645700  0.49482300  0.67618000  1
  O  O6  1  0.90730000  0.40508200  0.24120900  1
  O  O7  1  0.49120900  0.84491800  0.65730000  1
  O  O8  1  0.36119000  0.30721600  0.18963800  1
  O  O9  1  0.87500000  0.55433100  0.19566900  1
  O  O10  1  0.25517700  0.33354300  0.07382000  1
  O  O11  1  0.31036200  0.63881000  0.80721600  1
  O  O12  1  0.74120900  0.59270000  0.59491800  1
  O  O13  1  0.40730000  0.09491800  0.75879100  1
  O  O14  1  0.42980300  0.60319100  0.90839400  1
  O  O15  1  0.06036200  0.05721600  0.61119000  1
  O  O16  1  0.07382000  0.25517700  0.33354300  1
  O  O17  1  0.75517700  0.16645700  0.92618000  1
  O  O18  1  0.34160600  0.35319100  0.67980300  1
  O  O19  1  0.90839400  0.42980300  0.60319100  1
  O  O20  1  0.38881000  0.56036200  0.44278400  1
  O  O21  1  0.34491800  0.84270000  0.50879100  1
  O  O22  1  0.37500000  0.94566900  0.80433100  1
  O  O23  1  0.74482300  0.83354300  0.42618000  1
  O  O24  1  0.09491800  0.75879100  0.40730000  1
  O  O25  1  0.43963800  0.94278400  0.11119000  1
  O  O26  1  0.18963800  0.36119000  0.30721600  1
  O  O27  1  0.12500000  0.05433100  0.30433100  1
  O  O28  1  0.57382000  0.24482300  0.66645700  1
  O  O29  1  0.00517700  0.32382000  0.91645700  1
  O  O30  1  0.35319100  0.67980300  0.34160600  1
  O  O31  1  0.92618000  0.75517700  0.16645700  1
  O  O32  1  0.89680900  0.09160600  0.92980300  1
  O  O33  1  0.61119000  0.06036200  0.05721600  1
  O  O34  1  0.09160600  0.92980300  0.89680900  1
  O  O35  1  0.50879100  0.34491800  0.84270000  1
  O  O36  1  0.59160600  0.57019700  0.10319100  1
  O  O37  1  0.99120900  0.65508200  0.34270000  1
  O  O38  1  0.82019700  0.65839400  0.85319100  1
  O  O39  1  0.64680900  0.17980300  0.15839400  1
  O  O40  1  0.55433100  0.19566900  0.87500000  1
  O  O41  1  0.82382000  0.58354300  0.99482300  1
  O  O42  1  0.88881000  0.93963800  0.55721600  1
  O  O43  1  0.84160600  0.14680900  0.32019700  1
  O  O44  1  0.59270000  0.59491800  0.74120900  1
  O  O45  1  0.69566900  0.62500000  0.44566900  1
  O  O46  1  0.42618000  0.74482300  0.83354300  1
  O  O47  1  0.40839400  0.07019700  0.39680900  1
  O  O48  1  0.10319100  0.59160600  0.57019700  1
  O  O49  1  0.67618000  0.41645700  0.49482300  1
  O  O50  1  0.19566900  0.87500000  0.55433100  1
  O  O51  1  0.30433100  0.12500000  0.05433100  1
  O  O52  1  0.32019700  0.84160600  0.14680900  1
  O  O53  1  0.56036200  0.44278400  0.38881000  1
  O  O54  1  0.50517700  0.17618000  0.08354300  1
  O  O55  1  0.59491800  0.74120900  0.59270000  1
  O  O56  1  0.30721600  0.18963800  0.36119000  1
  O  O57  1  0.92980300  0.89680900  0.09160600  1
  O  O58  1  0.05721600  0.61119000  0.06036200  1
  O  O59  1  0.25879100  0.09270000  0.90508200  1
  O  O60  1  0.66645700  0.57382000  0.24482300  1
  O  O61  1  0.80721600  0.31036200  0.63881000  1
  O  O62  1  0.94566900  0.80433100  0.37500000  1
  O  O63  1  0.05433100  0.30433100  0.12500000  1
  O  O64  1  0.19278400  0.81036200  0.86119000  1
  O  O65  1  0.91645700  0.00517700  0.32382000  1
  O  O66  1  0.34270000  0.99120900  0.65508200  1
  O  O67  1  0.90508200  0.25879100  0.09270000  1
  O  O68  1  0.11119000  0.43963800  0.94278400  1
  O  O69  1  0.13881000  0.69278400  0.68963800  1
  O  O70  1  0.14680900  0.32019700  0.84160600  1
  O  O71  1  0.99482300  0.82382000  0.58354300  1
  O  O72  1  0.75879100  0.40730000  0.09491800  1
  O  O73  1  0.16645700  0.92618000  0.75517700  1
  O  O74  1  0.17980300  0.15839400  0.64680900  1
  O  O75  1  0.63881000  0.80721600  0.31036200  1
  O  O76  1  0.84270000  0.50879100  0.34491800  1
  O  O77  1  0.33354300  0.07382000  0.25517700  1
  O  O78  1  0.08354300  0.50517700  0.17618000  1
  O  O79  1  0.15839400  0.64680900  0.17980300  1
  O  O80  1  0.69278400  0.68963800  0.13881000  1
  O  O81  1  0.07019700  0.39680900  0.40839400  1
  O  O82  1  0.44566900  0.69566900  0.62500000  1
  O  O83  1  0.58354300  0.99482300  0.82382000  1
  O  O84  1  0.94278400  0.11119000  0.43963800  1
  O  O85  1  0.39680900  0.40839400  0.07019700  1
  O  O86  1  0.55721600  0.88881000  0.93963800  1
  O  O87  1  0.93963800  0.55721600  0.88881000  1
  O  O88  1  0.60319100  0.90839400  0.42980300  1
  O  O89  1  0.83354300  0.42618000  0.74482300  1
  O  O90  1  0.15508200  0.15730000  0.00879100  1
  O  O91  1  0.81036200  0.86119000  0.19278400  1
  O  O92  1  0.32382000  0.91645700  0.00517700  1
  O  O93  1  0.68963800  0.13881000  0.69278400  1
  O  O94  1  0.44278400  0.38881000  0.56036200  1
  O  O95  1  0.17618000  0.08354300  0.50517700  1
  O  O96  1  0.62500000  0.44566900  0.69566900  1
  O  O97  1  0.49482300  0.67618000  0.41645700  1
  O  O98  1  0.80433100  0.37500000  0.94566900  1
  O  O99  1  0.86119000  0.19278400  0.81036200  1
  O  O100  1  0.24120900  0.90730000  0.40508200  1
  O  O101  1  0.65508200  0.34270000  0.99120900  1
  O  O102  1  0.65730000  0.49120900  0.84491800  1
  O  O103  1  0.65839400  0.85319100  0.82019700  1
  O  O104  1  0.67980300  0.34160600  0.35319100  1
  O  O105  1  0.85319100  0.82019700  0.65839400  1
  O  O106  1  0.09270000  0.90508200  0.25879100  1
  O  O107  1  0.57019700  0.10319100  0.59160600  1
loop_
_geom_bond_atom_site_label_1
_geom_bond_atom_site_label_2
_geom_bond_distance
_geom_bond_site_symmetry_2
K0 O14 2.827858 1_555
K0 O70 2.827858 1_555
K0 O68 2.926862 1_555
K0 O11 2.926862 1_555
K0 O85 2.942070 1_556
K0 O18 2.942070 1_555
K0 O35 3.000273 1_555
K0 O1 3.000273 1_555
K0 O5 3.178187 1_555
K0 O10 3.178187 1_556
K1 O88 2.827858 1_555
K1 O52 2.827858 1_555
K1 O25 2.926862 1_555
K1 O75 2.926862 1_555
K1 O47 2.942070 1_565
K1 O30 2.942070 1_555
K1 O21 3.000273 1_555
K1 O100 3.000273 1_555
K1 O97 3.178187 1_555
K1 O77 3.178187 1_565
K2 O38 2.827858 1_555
K2 O48 2.827858 1_655
K2 O69 2.926862 1_655
K2 O87 2.926862 1_555
K2 O19 2.942070 1_555
K2 O105 2.942070 1_555
K2 O12 3.000273 1_555
K2 O3 3.000273 1_555
K2 O71 3.178187 1_555
K2 O89 3.178187 1_555
K3 O18 2.827858 1_555
K3 O47 2.827858 1_555
K3 O94 2.926862 1_555
K3 O56 2.926862 1_555
K3 O74 2.942070 1_555
K3 O107 2.942070 1_555
K3 O66 3.000273 1_545
K3 O13 3.000273 1_555
K3 O28 3.178187 1_555
K3 O95 3.178187 1_555
K4 O105 2.827858 1_555
K4 O107 2.827858 1_565
K4 O93 2.926862 1_565
K4 O42 2.926862 1_555
K4 O103 2.942070 1_555
K4 O88 2.942070 1_555
K4 O55 3.000273 1_555
K4 O7 3.000273 1_555
K4 O83 3.178187 1_555
K4 O23 3.178187 1_555
K5 O104 2.827858 1_555
K5 O85 2.827858 1_555
K5 O53 2.926862 1_555
K5 O8 2.926862 1_555
K5 O39 2.942070 1_555
K5 O36 2.942070 1_555
K5 O101 3.000273 1_554
K5 O72 3.000273 1_555
K5 O60 3.178187 1_555
K5 O54 3.178187 1_555
K6 O34 2.827858 1_554
K6 O79 2.827858 1_555
K6 O64 2.926862 1_554
K6 O58 2.926862 1_555
K6 O52 2.942070 1_555
K6 O57 2.942070 1_455
K6 O106 3.000273 1_555
K6 O2 3.000273 1_565
K6 O31 3.178187 1_455
K6 O92 3.178187 1_555
K7 O32 2.827858 1_455
K7 O74 2.827858 1_555
K7 O99 2.926862 1_455
K7 O15 2.926862 1_555
K7 O70 2.942070 1_555
K7 O34 2.942070 1_545
K7 O59 3.000273 1_555
K7 O90 3.000273 1_556
K7 O73 3.178187 1_545
K7 O29 3.178187 1_555
K8 O19 2.827858 1_555
K8 O43 2.827858 1_555
K8 O84 2.926862 1_555
K8 O61 2.926862 1_555
K8 O81 2.942070 1_655
K8 O104 2.942070 1_555
K8 O76 3.000273 1_555
K8 O6 3.000273 1_555
K8 O49 3.178187 1_555
K8 O16 3.178187 1_655
K9 O103 2.827858 1_555
K9 O36 2.827858 1_556
K9 O80 2.926862 1_556
K9 O86 2.926862 1_555
K9 O38 2.942070 1_555
K9 O14 2.942070 1_555
K9 O44 3.000273 1_555
K9 O102 3.000273 1_555
K9 O41 3.178187 1_555
K9 O46 3.178187 1_555
K10 O57 2.827858 1_545
K10 O39 2.827858 1_555
K10 O91 2.926862 1_545
K10 O33 2.926862 1_555
K10 O43 2.942070 1_555
K10 O32 2.942070 1_554
K10 O67 3.000273 1_555
K10 O0 3.000273 1_655
K10 O17 3.178187 1_554
K10 O65 3.178187 1_555
K11 O30 2.827858 1_555
K11 O81 2.827858 1_555
K11 O20 2.926862 1_555
K11 O26 2.926862 1_555
K11 O79 2.942070 1_555
K11 O48 2.942070 1_555
K11 O37 3.000273 1_455
K11 O24 3.000273 1_555
K11 O4 3.178187 1_555
K11 O78 3.178187 1_555
La0 O60 2.626781 1_555
La0 O31 2.626781 1_555
La0 O23 2.626781 1_555
La0 O80 2.629731 1_555
La0 O75 2.629731 1_555
La0 O91 2.629731 1_555
La0 O9 2.682659 1_555
La0 O45 2.682659 1_555
La0 O62 2.682659 1_555
La0 O76 2.794796 1_555
La0 O3 2.794796 1_555
La0 O37 2.794796 1_555
La1 O83 2.626781 1_545
La1 O92 2.626781 1_546
La1 O54 2.626781 1_556
La1 O86 2.629731 1_545
La1 O33 2.629731 1_556
La1 O25 2.629731 1_546
La1 O22 2.682659 1_545
La1 O40 2.682659 1_555
La1 O51 2.682659 1_556
La1 O13 2.794796 1_555
La1 O1 2.794796 1_555
La1 O59 2.794796 1_555
La2 O4 2.626781 1_555
La2 O73 2.626781 1_555
La2 O46 2.626781 1_555
La2 O69 2.629731 1_555
La2 O11 2.629731 1_555
La2 O64 2.629731 1_555
La2 O50 2.682659 1_555
La2 O82 2.682659 1_555
La2 O22 2.682659 1_555
La2 O21 2.794796 1_555
La2 O7 2.794796 1_555
La2 O66 2.794796 1_555
La3 O77 2.626781 1_555
La3 O10 2.626781 1_555
La3 O16 2.626781 1_555
La3 O26 2.629731 1_555
La3 O8 2.629731 1_555
La3 O56 2.629731 1_555
La3 O51 2.682659 1_555
La3 O27 2.682659 1_555
La3 O63 2.682659 1_555
La3 O2 2.794796 1_555
La3 O0 2.794796 1_555
La3 O90 2.794796 1_555
La4 O41 2.626781 1_554
La4 O29 2.626781 1_654
La4 O78 2.626781 1_655
La4 O87 2.629731 1_554
La4 O58 2.629731 1_655
La4 O68 2.629731 1_654
La4 O98 2.682659 1_554
La4 O9 2.682659 1_555
La4 O63 2.682659 1_655
La4 O72 2.794796 1_555
La4 O6 2.794796 1_555
La4 O67 2.794796 1_555
La5 O97 2.626781 1_555
La5 O49 2.626781 1_555
La5 O5 2.626781 1_555
La5 O94 2.629731 1_555
La5 O53 2.629731 1_555
La5 O20 2.629731 1_555
La5 O45 2.682659 1_555
La5 O96 2.682659 1_555
La5 O82 2.682659 1_555
La5 O44 2.794796 1_555
La5 O55 2.794796 1_555
La5 O12 2.794796 1_555
La6 O28 2.626781 1_555
La6 O17 2.626781 1_555
La6 O89 2.626781 1_555
La6 O93 2.629731 1_555
La6 O61 2.629731 1_555
La6 O99 2.629731 1_555
La6 O40 2.682659 1_555
La6 O96 2.682659 1_555
La6 O98 2.682659 1_555
La6 O35 2.794796 1_555
La6 O102 2.794796 1_555
La6 O101 2.794796 1_555
La7 O71 2.626781 1_455
La7 O65 2.626781 1_465
La7 O95 2.626781 1_565
La7 O42 2.629731 1_455
La7 O15 2.629731 1_565
La7 O84 2.629731 1_465
La7 O62 2.682659 1_455
La7 O50 2.682659 1_555
La7 O27 2.682659 1_565
La7 O24 2.794796 1_555
La7 O100 2.794796 1_555
La7 O106 2.794796 1_555
N0 O12 1.252636 1_555
N0 O3 1.252636 1_555
N0 O45 1.293204 1_555
N1 O43 1.246764 1_555
N1 O65 1.277542 1_555
N1 O84 1.282056 1_555
N2 O88 1.246764 1_555
N2 O23 1.277542 1_555
N2 O75 1.282056 1_555
N3 O103 1.246764 1_555
N3 O83 1.277542 1_555
N3 O86 1.282056 1_555
N4 O34 1.246764 1_555
N4 O73 1.277542 1_555
N4 O64 1.282056 1_555
N5 O79 1.246764 1_555
N5 O78 1.277542 1_555
N5 O58 1.282056 1_555
N6 O38 1.246764 1_555
N6 O41 1.277542 1_555
N6 O87 1.282056 1_555
N7 O44 1.252636 1_555
N7 O102 1.252636 1_555
N7 O96 1.293204 1_555
N8 O2 1.252636 1_565
N8 O106 1.252636 1_555
N8 O27 1.293204 1_565
N9 O39 1.246764 1_555
N9 O54 1.277542 1_555
N9 O33 1.282056 1_555
N10 O14 1.246764 1_555
N10 O46 1.277542 1_555
N10 O11 1.282056 1_555
N11 O6 1.252636 1_555
N11 O76 1.252636 1_555
N11 O9 1.293204 1_555
N12 O30 1.246764 1_555
N12 O97 1.277542 1_555
N12 O20 1.282056 1_555
N13 O57 1.246764 1_555
N13 O31 1.277542 1_555
N13 O91 1.282056 1_555
N14 O107 1.246764 1_555
N14 O28 1.277542 1_555
N14 O93 1.282056 1_555
N15 O1 1.252636 1_555
N15 O35 1.252636 1_555
N15 O40 1.293204 1_555
N16 O19 1.246764 1_555
N16 O89 1.277542 1_555
N16 O61 1.282056 1_555
N17 O13 1.252636 1_555
N17 O66 1.252636 1_545
N17 O22 1.293204 1_545
N18 O85 1.246764 1_555
N18 O10 1.277542 1_555
N18 O8 1.282056 1_555
N19 O90 1.252636 1_556
N19 O59 1.252636 1_555
N19 O51 1.293204 1_556
N20 O52 1.246764 1_555
N20 O92 1.277542 1_555
N20 O25 1.282056 1_555
N21 O55 1.252636 1_555
N21 O7 1.252636 1_555
N21 O82 1.293204 1_555
N22 O105 1.246764 1_555
N22 O71 1.277542 1_555
N22 O42 1.282056 1_555
N23 O74 1.246764 1_555
N23 O95 1.277542 1_555
N23 O15 1.282056 1_555
N24 O72 1.252636 1_555
N24 O101 1.252636 1_554
N24 O98 1.293204 1_554
N25 O36 1.246764 1_555
N25 O60 1.277542 1_555
N25 O80 1.282056 1_555
N26 O48 1.246764 1_555
N26 O4 1.277542 1_555
N26 O69 1.282056 1_555
N27 O104 1.246764 1_555
N27 O49 1.277542 1_555
N27 O53 1.282056 1_555
N28 O18 1.246764 1_555
N28 O5 1.277542 1_555
N28 O94 1.282056 1_555
N29 O32 1.246764 1_555
N29 O17 1.277542 1_555
N29 O99 1.282056 1_555
N30 O81 1.246764 1_555
N30 O16 1.277542 1_555
N30 O26 1.282056 1_555
N31 O0 1.252636 1_655
N31 O67 1.252636 1_555
N31 O63 1.293204 1_655
N32 O24 1.252636 1_555
N32 O37 1.252636 1_455
N32 O62 1.293204 1_455
N33 O47 1.246764 1_555
N33 O77 1.277542 1_555
N33 O56 1.282056 1_555
N34 O70 1.246764 1_555
N34 O29 1.277542 1_555
N34 O68 1.282056 1_555
N35 O100 1.252636 1_555
N35 O21 1.252636 1_555
N35 O50 1.293204 1_555
