# generated using pymatgen
data_FeSiGe
_symmetry_space_group_name_H-M   'P 1'
_cell_length_a   6.46673230
_cell_length_b   6.46673230
_cell_length_c   8.02976100
_cell_angle_alpha   90.00000000
_cell_angle_beta   90.00000000
_cell_angle_gamma   104.51389998
_symmetry_Int_Tables_number   1
_chemical_formula_structural   FeSiGe
_chemical_formula_sum   'Fe8 Si8 Ge8'
_cell_volume   325.07735291
_cell_formula_units_Z   8
loop_
 _symmetry_equiv_pos_site_id
 _symmetry_equiv_pos_as_xyz
  1  'x, y, z'
loop_
 _atom_site_type_symbol
 _atom_site_label
 _atom_site_symmetry_multiplicity
 _atom_site_fract_x
 _atom_site_fract_y
 _atom_site_fract_z
 _atom_site_occupancy
  Fe  Fe0  1  0.71729900  0.28270100  0.50000000  1
  Fe  Fe1  1  0.80547400  0.80547400  0.18523300  1
  Fe  Fe2  1  0.28270100  0.71729900  0.50000000  1
  Fe  Fe3  1  0.30547400  0.30547400  0.31476700  1
  Fe  Fe4  1  0.78270100  0.21729900  0.00000000  1
  Fe  Fe5  1  0.19452600  0.19452600  0.81476700  1
  Fe  Fe6  1  0.69452600  0.69452600  0.68523300  1
  Fe  Fe7  1  0.21729900  0.78270100  0.00000000  1
  Si  Si0  1  0.35695400  0.10186200  0.54439000  1
  Si  Si1  1  0.10186200  0.35695400  0.54439000  1
  Si  Si2  1  0.60186200  0.85695400  0.95561000  1
  Si  Si3  1  0.14304600  0.39813800  0.04439000  1
  Si  Si4  1  0.64304600  0.89813800  0.45561000  1
  Si  Si5  1  0.39813800  0.14304600  0.04439000  1
  Si  Si6  1  0.85695400  0.60186200  0.95561000  1
  Si  Si7  1  0.89813800  0.64304600  0.45561000  1
  Ge  Ge0  1  0.41695300  0.66960700  0.22689400  1
  Ge  Ge1  1  0.33039300  0.58304700  0.77310600  1
  Ge  Ge2  1  0.83039300  0.08304700  0.72689400  1
  Ge  Ge3  1  0.66960700  0.41695300  0.22689400  1
  Ge  Ge4  1  0.16960700  0.91695300  0.27310600  1
  Ge  Ge5  1  0.08304700  0.83039300  0.72689400  1
  Ge  Ge6  1  0.91695300  0.16960700  0.27310600  1
  Ge  Ge7  1  0.58304700  0.33039300  0.77310600  1
loop_
_geom_bond_atom_site_label_1
_geom_bond_atom_site_label_2
_geom_bond_distance
_geom_bond_site_symmetry_2
Fe0 Si0 2.357716 1_555
Fe0 Si7 2.357716 1_555
Fe0 Ge7 2.406697 1_555
Fe0 Ge3 2.406697 1_555
Fe0 Si1 2.437947 1_655
Fe0 Si4 2.437947 1_545
Fe0 Ge2 2.448358 1_555
Fe0 Ge6 2.448358 1_555
Fe1 Si2 2.337501 1_554
Fe1 Si6 2.337501 1_554
Fe1 Ge6 2.389887 1_565
Fe1 Ge4 2.389887 1_655
Fe1 Ge0 2.467768 1_555
Fe1 Ge3 2.467768 1_555
Fe1 Si7 2.547817 1_555
Fe1 Si4 2.547817 1_555
Fe2 Si4 2.357716 1_555
Fe2 Si1 2.357716 1_555
Fe2 Ge1 2.406697 1_555
Fe2 Ge0 2.406697 1_555
Fe2 Si0 2.437947 1_565
Fe2 Si7 2.437947 1_455
Fe2 Ge5 2.448358 1_555
Fe2 Ge4 2.448358 1_555
Fe3 Si0 2.337501 1_555
Fe3 Si1 2.337501 1_555
Fe3 Ge3 2.389887 1_555
Fe3 Ge0 2.389887 1_555
Fe3 Ge6 2.467768 1_455
Fe3 Ge4 2.467768 1_545
Fe3 Si5 2.547817 1_555
Fe3 Si3 2.547817 1_555
Fe4 Si3 2.357716 1_655
Fe4 Si2 2.357716 1_544
Fe4 Ge6 2.406697 1_555
Fe4 Ge2 2.406697 1_554
Fe4 Si6 2.437947 1_554
Fe4 Si5 2.437947 1_555
Fe4 Ge3 2.448358 1_555
Fe4 Ge7 2.448358 1_554
Fe5 Si3 2.337501 1_556
Fe5 Si5 2.337501 1_556
Fe5 Ge5 2.389887 1_545
Fe5 Ge2 2.389887 1_455
Fe5 Ge1 2.467768 1_555
Fe5 Ge7 2.467768 1_555
Fe5 Si0 2.547817 1_555
Fe5 Si1 2.547817 1_555
Fe6 Si7 2.337501 1_555
Fe6 Si4 2.337501 1_555
Fe6 Ge7 2.389887 1_555
Fe6 Ge1 2.389887 1_555
Fe6 Ge2 2.467768 1_565
Fe6 Ge5 2.467768 1_655
Fe6 Si2 2.547817 1_555
Fe6 Si6 2.547817 1_555
Fe7 Si6 2.357716 1_454
Fe7 Si5 2.357716 1_565
Fe7 Ge4 2.406697 1_555
Fe7 Ge5 2.406697 1_554
Fe7 Si3 2.437947 1_555
Fe7 Si2 2.437947 1_554
Fe7 Ge0 2.448358 1_555
Fe7 Ge1 2.448358 1_554
Si0 Si1 2.608906 1_555
Si0 Si4 2.624555 1_545
Si1 Si7 2.624555 1_455
Si2 Si6 2.608906 1_555
Si2 Si5 2.624555 1_566
Si3 Si5 2.608906 1_555
Si3 Si6 2.624555 1_454
Si4 Si7 2.608906 1_555
Ge0 Ge4 2.556756 1_555
Ge0 Si4 2.571295 1_555
Ge0 Ge3 2.583972 1_555
Ge0 Si3 2.609269 1_555
Ge0 Si2 2.629960 1_554
Ge1 Ge5 2.556756 1_555
Ge1 Si1 2.571295 1_555
Ge1 Ge7 2.583972 1_555
Ge1 Si2 2.609269 1_555
Ge1 Si3 2.629960 1_556
Ge2 Ge7 2.556756 1_555
Ge2 Si2 2.571295 1_545
Ge2 Ge5 2.583972 1_645
Ge2 Si1 2.609269 1_655
Ge2 Si4 2.629960 1_545
Ge3 Ge6 2.556756 1_555
Ge3 Si7 2.571295 1_555
Ge3 Si5 2.609269 1_555
Ge3 Si6 2.629960 1_554
Ge4 Si5 2.571295 1_565
Ge4 Ge6 2.583972 1_465
Ge4 Si7 2.609269 1_455
Ge4 Si0 2.629960 1_565
Ge5 Si6 2.571295 1_455
Ge5 Si0 2.609269 1_565
Ge5 Si7 2.629960 1_455
Ge6 Si3 2.571295 1_655
Ge6 Si4 2.609269 1_545
Ge6 Si1 2.629960 1_655
Ge7 Si0 2.571295 1_555
Ge7 Si6 2.609269 1_555
Ge7 Si5 2.629960 1_556
