# generated using pymatgen
data_Cr3GeN
_symmetry_space_group_name_H-M   'P 1'
_cell_length_a   5.33098900
_cell_length_b   5.33098900
_cell_length_c   4.01024300
_cell_angle_alpha   90.00000000
_cell_angle_beta   90.00000000
_cell_angle_gamma   90.00000000
_symmetry_Int_Tables_number   1
_chemical_formula_structural   Cr3GeN
_chemical_formula_sum   'Cr6 Ge2 N2'
_cell_volume   113.96887523
_cell_formula_units_Z   2
loop_
 _symmetry_equiv_pos_site_id
 _symmetry_equiv_pos_as_xyz
  1  'x, y, z'
loop_
 _atom_site_type_symbol
 _atom_site_label
 _atom_site_symmetry_multiplicity
 _atom_site_fract_x
 _atom_site_fract_y
 _atom_site_fract_z
 _atom_site_occupancy
  Cr  Cr0  1  0.20841800  0.70841800  0.92230300  1
  Cr  Cr1  1  0.79158200  0.29158200  0.92230300  1
  Cr  Cr2  1  0.50000000  0.50000000  0.50000000  1
  Cr  Cr3  1  0.29158200  0.20841800  0.07769700  1
  Cr  Cr4  1  0.70841800  0.79158200  0.07769700  1
  Cr  Cr5  1  0.00000000  0.00000000  0.50000000  1
  Ge  Ge0  1  0.00000000  0.50000000  0.44554500  1
  Ge  Ge1  1  0.50000000  0.00000000  0.55445500  1
  N  N0  1  0.00000000  0.00000000  0.00000000  1
  N  N1  1  0.50000000  0.50000000  0.00000000  1
loop_
_geom_bond_atom_site_label_1
_geom_bond_atom_site_label_2
_geom_bond_distance
_geom_bond_site_symmetry_2
Cr0 N0 1.935922 1_566
Cr0 N1 1.935922 1_556
Cr0 Ge0 2.474751 1_555
Cr0 Ge0 2.621440 1_556
Cr0 Ge1 2.647365 1_565
Cr1 N1 1.935922 1_556
Cr1 N0 1.935922 1_656
Cr1 Ge0 2.474751 1_655
Cr1 Ge0 2.621440 1_656
Cr1 Ge1 2.647365 1_555
Cr2 N1 2.005122 1_556
Cr2 N1 2.005122 1_555
Cr2 Ge1 2.674425 1_565
Cr2 Ge1 2.674425 1_555
Cr2 Ge0 2.674425 1_555
Cr2 Ge0 2.674425 1_655
Cr3 N0 1.935922 1_555
Cr3 N1 1.935922 1_555
Cr3 Ge1 2.474751 1_555
Cr3 Ge1 2.621440 1_554
Cr3 Ge0 2.647365 1_555
Cr4 N0 1.935922 1_665
Cr4 N1 1.935922 1_555
Cr4 Ge1 2.474751 1_565
Cr4 Ge1 2.621440 1_564
Cr4 Ge0 2.647365 1_655
Cr5 N0 2.005122 1_555
Cr5 N0 2.005122 1_556
Cr5 Ge1 2.674425 1_455
Cr5 Ge1 2.674425 1_555
Cr5 Ge0 2.674425 1_555
Cr5 Ge0 2.674425 1_545
