# generated using pymatgen
data_Ge3Rh5
_symmetry_space_group_name_H-M   'P 1'
_cell_length_a   3.94900962
_cell_length_b   5.48650678
_cell_length_c   10.49249257
_cell_angle_alpha   90.00030664
_cell_angle_beta   90.00000000
_cell_angle_gamma   89.99993893
_symmetry_Int_Tables_number   1
_chemical_formula_structural   Ge3Rh5
_chemical_formula_sum   'Ge6 Rh10'
_cell_volume   227.33315658
_cell_formula_units_Z   2
loop_
 _symmetry_equiv_pos_site_id
 _symmetry_equiv_pos_as_xyz
  1  'x, y, z'
loop_
 _atom_site_type_symbol
 _atom_site_label
 _atom_site_symmetry_multiplicity
 _atom_site_fract_x
 _atom_site_fract_y
 _atom_site_fract_z
 _atom_site_occupancy
  Ge  Ge0  1  0.50000100  0.90791782  0.34423492  1
  Ge  Ge1  1  0.99999900  0.50012874  0.49994795  1
  Ge  Ge2  1  0.50000200  0.40791782  0.15576508  1
  Ge  Ge3  1  0.50000000  0.09216845  0.65553452  1
  Ge  Ge4  1  0.50000200  0.59216845  0.84446548  1
  Ge  Ge5  1  0.99999900  0.00012974  0.00005205  1
  Rh  Rh0  1  0.99999900  0.34005666  0.71445480  1
  Rh  Rh1  1  0.00000000  0.15992099  0.21453624  1
  Rh  Rh2  1  -0.00000000  0.84005866  0.78554520  1
  Rh  Rh3  1  0.49999900  0.83553474  0.10819271  1
  Rh  Rh4  1  0.49999900  0.16433966  0.89178535  1
  Rh  Rh5  1  0.49999900  0.66434167  0.60821365  1
  Rh  Rh6  1  0.00000200  0.99992994  0.49997043  1
  Rh  Rh7  1  0.49999900  0.33553274  0.39180829  1
  Rh  Rh8  1  0.00000300  0.49993294  0.00002757  1
  Rh  Rh9  1  0.99999900  0.65992299  0.28546276  1
loop_
_geom_bond_atom_site_label_1
_geom_bond_atom_site_label_2
_geom_bond_distance
_geom_bond_site_symmetry_2
Ge0 Rh7 2.398623 1_565
Ge0 Rh9 2.475924 1_555
Ge0 Rh9 2.475939 1_455
Ge0 Rh3 2.508307 1_555
Ge0 Rh6 2.612206 1_555
Ge0 Rh6 2.612213 1_655
Ge0 Rh1 2.768078 1_665
Ge0 Rh1 2.768082 1_565
Ge0 Rh5 3.075341 1_555
Ge0 Rh7 3.179821 1_555
Ge1 Rh9 2.415228 1_555
Ge1 Rh0 2.415993 1_555
Ge1 Rh5 2.449657 1_555
Ge1 Rh5 2.449658 1_655
Ge1 Rh7 2.449818 1_655
Ge1 Rh7 2.449819 1_555
Ge1 Rh6 2.742163 1_655
Ge1 Rh6 2.744344 1_645
Ge2 Rh3 2.398637 1_555
Ge2 Rh1 2.475932 1_655
Ge2 Rh1 2.475946 1_555
Ge2 Rh7 2.508323 1_555
Ge2 Rh8 2.612226 1_555
Ge2 Rh8 2.612233 1_655
Ge2 Rh9 2.768065 1_555
Ge2 Rh9 2.768080 1_455
Ge2 Rh4 3.075342 1_554
Ge2 Rh3 3.179803 1_545
Ge3 Rh5 2.399211 1_545
Ge3 Rh0 2.475996 1_555
Ge3 Rh0 2.476000 1_455
Ge3 Rh4 2.510284 1_555
Ge3 Rh6 2.611320 1_545
Ge3 Rh6 2.611331 1_645
Ge3 Rh2 2.769982 1_645
Ge3 Rh2 2.769984 1_545
Ge3 Rh7 3.072449 1_555
Ge3 Rh5 3.178258 1_555
Ge4 Rh4 2.399224 1_555
Ge4 Rh2 2.476003 1_655
Ge4 Rh2 2.476013 1_555
Ge4 Rh5 2.510301 1_555
Ge4 Rh8 2.611310 1_556
Ge4 Rh8 2.611315 1_656
Ge4 Rh0 2.769971 1_555
Ge4 Rh0 2.769990 1_455
Ge4 Rh3 3.072451 1_556
Ge4 Rh4 3.178240 1_565
Ge5 Rh1 2.415203 1_655
Ge5 Rh2 2.415982 1_644
Ge5 Rh4 2.449660 1_554
Ge5 Rh4 2.449662 1_654
Ge5 Rh3 2.449825 1_645
Ge5 Rh3 2.449827 1_545
Ge5 Rh8 2.742174 1_655
Ge5 Rh8 2.744333 1_645
