# generated using pymatgen
data_SrLaTaMnO6
_symmetry_space_group_name_H-M   'P 1'
_cell_length_a   8.18588466
_cell_length_b   8.18593911
_cell_length_c   9.92389140
_cell_angle_alpha   66.40661626
_cell_angle_beta   66.40693917
_cell_angle_gamma   91.54762392
_symmetry_Int_Tables_number   1
_chemical_formula_structural   SrLaTaMnO6
_chemical_formula_sum   'Sr4 La4 Ta4 Mn4 O24'
_cell_volume   544.41350333
_cell_formula_units_Z   4
loop_
 _symmetry_equiv_pos_site_id
 _symmetry_equiv_pos_as_xyz
  1  'x, y, z'
loop_
 _atom_site_type_symbol
 _atom_site_label
 _atom_site_symmetry_multiplicity
 _atom_site_fract_x
 _atom_site_fract_y
 _atom_site_fract_z
 _atom_site_occupancy
  Sr  Sr0  1  0.39137100  0.35288700  0.24859500  1
  Sr  Sr1  1  0.89136600  0.85288200  0.24859700  1
  Sr  Sr2  1  0.10288000  0.64136600  0.74859100  1
  Sr  Sr3  1  0.60288000  0.14137000  0.74859900  1
  La  La0  1  0.41004000  0.85582100  0.24537700  1
  La  La1  1  0.91004100  0.35581900  0.24537700  1
  La  La2  1  0.10582000  0.16003300  0.74538200  1
  La  La3  1  0.60581500  0.66003500  0.74538400  1
  Ta  Ta0  1  0.74837700  0.25290200  0.99954900  1
  Ta  Ta1  1  0.24838400  0.75291300  0.99954300  1
  Ta  Ta2  1  0.00291300  0.99838300  0.49954400  1
  Ta  Ta3  1  0.50291000  0.49838200  0.49954600  1
  Mn  Mn0  1  0.99797200  0.50456800  0.49875000  1
  Mn  Mn1  1  0.25456600  0.24798400  0.99874500  1
  Mn  Mn2  1  0.49796400  0.00456800  0.49875400  1
  Mn  Mn3  1  0.75457900  0.74797400  0.99874500  1
  O  O0  1  0.34761700  0.81602500  0.76147500  1
  O  O1  1  0.84761900  0.31602500  0.76147900  1
  O  O2  1  0.56603300  0.59761900  0.26147800  1
  O  O3  1  0.06602400  0.09761600  0.26148000  1
  O  O4  1  0.76177400  0.99100300  0.04737700  1
  O  O5  1  0.26177400  0.49099800  0.04738100  1
  O  O6  1  0.24100200  0.51177500  0.54737500  1
  O  O7  1  0.74099600  0.01177000  0.54738600  1
  O  O8  1  0.55967200  0.75629600  0.46272200  1
  O  O9  1  0.05967400  0.25629300  0.46272200  1
  O  O10  1  0.00629400  0.30967200  0.96272300  1
  O  O11  1  0.50629700  0.80967000  0.96271900  1
  O  O12  1  0.48731800  0.17519500  0.04830100  1
  O  O13  1  0.98732300  0.67519200  0.04829800  1
  O  O14  1  0.92519100  0.73732000  0.54830600  1
  O  O15  1  0.42518800  0.23732100  0.54830600  1
  O  O16  1  0.26097500  0.96871300  0.44955500  1
  O  O17  1  0.76097300  0.46871200  0.44955600  1
  O  O18  1  0.71871100  0.51097200  0.94956000  1
  O  O19  1  0.21871500  0.01097800  0.94955400  1
  O  O20  1  0.94503900  0.91643600  0.73829200  1
  O  O21  1  0.44504100  0.41643800  0.73828800  1
  O  O22  1  0.16643300  0.69503900  0.23829100  1
  O  O23  1  0.66643800  0.19503500  0.23829300  1
loop_
_geom_bond_atom_site_label_1
_geom_bond_atom_site_label_2
_geom_bond_distance
_geom_bond_site_symmetry_2
La0 O22 2.399658 1_555
La0 O12 2.426416 1_565
La0 O16 2.455460 1_555
La0 O2 2.482396 1_555
La0 O4 2.633290 1_555
La0 O8 2.752882 1_555
La0 O11 2.779769 1_554
La0 O6 2.922637 1_555
La1 O23 2.399628 1_555
La1 O13 2.426415 1_555
La1 O17 2.455478 1_555
La1 O3 2.482356 1_655
La1 O5 2.633276 1_655
La1 O9 2.752889 1_655
La1 O10 2.779717 1_654
La1 O7 2.922701 1_555
La2 O20 2.399615 1_445
La2 O15 2.426366 1_555
La2 O19 2.455405 1_555
La2 O1 2.482382 1_455
La2 O6 2.633359 1_555
La2 O10 2.752907 1_555
La2 O9 2.779754 1_555
La2 O4 2.922619 1_446
La3 O21 2.399619 1_555
La3 O14 2.426423 1_555
La3 O18 2.455453 1_555
La3 O0 2.482356 1_555
La3 O7 2.633301 1_565
La3 O11 2.752832 1_555
La3 O8 2.779759 1_555
La3 O5 2.922607 1_556
Mn0 O1 2.191417 1_555
Mn0 O14 2.191754 1_555
Mn0 O22 2.195063 1_655
Mn0 O17 2.220442 1_555
Mn0 O6 2.231369 1_655
Mn0 O9 2.237412 1_655
Mn1 O3 2.191465 1_556
Mn1 O12 2.191753 1_556
Mn1 O21 2.195050 1_555
Mn1 O19 2.220484 1_555
Mn1 O5 2.231320 1_556
Mn1 O10 2.237326 1_555
Mn2 O0 2.191360 1_545
Mn2 O15 2.191735 1_555
Mn2 O23 2.195083 1_555
Mn2 O16 2.220393 1_545
Mn2 O7 2.231422 1_555
Mn2 O8 2.237414 1_545
Mn3 O2 2.191451 1_556
Mn3 O13 2.191664 1_556
Mn3 O20 2.195006 1_555
Mn3 O18 2.220443 1_555
Mn3 O4 2.231408 1_556
Mn3 O11 2.237435 1_555
O0 Ta1 1.993116 1_555
O0 Sr2 2.504147 1_555
O1 Ta0 1.993108 1_555
O1 Sr3 2.504118 1_555
O2 Ta3 1.993092 1_555
O2 Sr0 2.504128 1_555
O3 Ta2 1.993080 1_545
O3 Sr1 2.504122 1_445
O4 Ta0 2.018262 1_564
O4 Sr1 2.518814 1_555
O5 Ta1 2.018362 1_554
O5 Sr0 2.518786 1_555
O6 Ta3 2.018315 1_555
O6 Sr2 2.518791 1_555
O7 Ta2 2.018356 1_645
O7 Sr3 2.518816 1_555
O8 Ta3 2.000095 1_555
O8 Sr1 2.536446 1_555
O9 Ta2 2.000069 1_545
O9 Sr0 2.536467 1_555
O10 Ta0 2.000110 1_455
O10 Sr2 2.536471 1_555
O11 Ta1 2.000070 1_555
O11 Sr3 2.536474 1_565
O12 Ta0 2.014466 1_554
O12 Sr0 2.794646 1_555
O12 Sr3 2.870308 1_554
O13 Ta1 2.014494 1_654
O13 Sr1 2.794674 1_555
O13 Sr2 2.870363 1_654
O14 Ta2 2.014501 1_655
O14 Sr2 2.794539 1_655
O14 Sr1 2.870366 1_555
O15 Ta3 2.014491 1_555
O15 Sr3 2.794622 1_555
O15 Sr0 2.870348 1_555
O16 Ta2 2.013180 1_555
O16 Sr2 2.834580 1_555
O16 Sr0 2.846185 1_565
O17 Ta3 2.013187 1_555
O17 Sr3 2.834592 1_555
O17 Sr1 2.846156 1_555
O18 Ta0 2.013245 1_555
O18 Sr0 2.834543 1_556
O18 Sr2 2.846151 1_655
O19 Ta1 2.013212 1_545
O19 Sr1 2.834621 1_446
O19 Sr3 2.846109 1_555
O20 Ta2 2.024876 1_655
O20 Sr2 2.613179 1_655
O21 Ta3 2.024833 1_555
O21 Sr3 2.613143 1_555
O22 Ta1 2.024872 1_554
O22 Sr1 2.613152 1_455
O23 Ta0 2.024863 1_554
O23 Sr0 2.613195 1_555
