# generated using pymatgen
data_Yb4Zr3O12
_symmetry_space_group_name_H-M   'P 1'
_cell_length_a   6.39033900
_cell_length_b   6.47651907
_cell_length_c   12.87563015
_cell_angle_alpha   99.16110410
_cell_angle_beta   98.54294742
_cell_angle_gamma   100.29842688
_symmetry_Int_Tables_number   1
_chemical_formula_structural   Yb4Zr3O12
_chemical_formula_sum   'Yb8 Zr6 O24'
_cell_volume   508.94558758
_cell_formula_units_Z   2
loop_
 _symmetry_equiv_pos_site_id
 _symmetry_equiv_pos_as_xyz
  1  'x, y, z'
loop_
 _atom_site_type_symbol
 _atom_site_label
 _atom_site_symmetry_multiplicity
 _atom_site_fract_x
 _atom_site_fract_y
 _atom_site_fract_z
 _atom_site_occupancy
  Yb  Yb0  1  0.39050500  0.85891100  0.10038700  1
  Yb  Yb1  1  0.29499800  0.60536100  0.81766200  1
  Yb  Yb2  1  0.28777600  0.60717300  0.31792100  1
  Yb  Yb3  1  0.86137600  0.71455600  0.44701200  1
  Yb  Yb4  1  0.70500200  0.39463900  0.18233800  1
  Yb  Yb5  1  0.13862400  0.28544400  0.55298800  1
  Yb  Yb6  1  0.60949500  0.14108900  0.89961300  1
  Yb  Yb7  1  0.71222400  0.39282700  0.68207900  1
  Zr  Zr0  1  0.99670700  0.98927300  0.24954800  1
  Zr  Zr1  1  0.37793400  0.86035500  0.60661400  1
  Zr  Zr2  1  0.00329300  0.01072700  0.75045200  1
  Zr  Zr3  1  0.85638500  0.70880700  0.94215300  1
  Zr  Zr4  1  0.14361500  0.29119300  0.05784700  1
  Zr  Zr5  1  0.62206600  0.13964500  0.39338600  1
  O  O0  1  0.32227000  0.94264100  0.77434300  1
  O  O1  1  0.03572600  0.92075100  0.08737300  1
  O  O2  1  0.32312300  0.96817400  0.29029300  1
  O  O3  1  0.57739700  0.81289900  0.95972200  1
  O  O4  1  0.07027700  0.92959700  0.59434700  1
  O  O5  1  0.93854900  0.69736400  0.79073200  1
  O  O6  1  0.55348900  0.84780500  0.46965200  1
  O  O7  1  0.15578200  0.55858600  0.97275600  1
  O  O8  1  0.39862100  0.54089800  0.15694800  1
  O  O9  1  0.94071300  0.68662700  0.27810700  1
  O  O10  1  0.19005200  0.59643000  0.48199800  1
  O  O11  1  0.60137900  0.45910200  0.84305200  1
  O  O12  1  0.42122600  0.57319200  0.65063800  1
  O  O13  1  0.84421800  0.44141400  0.02724400  1
  O  O14  1  0.06145100  0.30263600  0.20926800  1
  O  O15  1  0.57877400  0.42680800  0.34936200  1
  O  O16  1  0.80994800  0.40357000  0.51800200  1
  O  O17  1  0.42260300  0.18710100  0.04027800  1
  O  O18  1  0.05928700  0.31337300  0.72189300  1
  O  O19  1  0.96427400  0.07924900  0.91262700  1
  O  O20  1  0.44651100  0.15219500  0.53034800  1
  O  O21  1  0.67773000  0.05735900  0.22565700  1
  O  O22  1  0.92972300  0.07040300  0.40565300  1
  O  O23  1  0.67687700  0.03182600  0.70970700  1
loop_
_geom_bond_atom_site_label_1
_geom_bond_atom_site_label_2
_geom_bond_distance
_geom_bond_site_symmetry_2
O0 Zr2 2.149956 1_565
O0 Zr1 2.236967 1_555
O0 Yb6 2.288934 1_565
O0 Yb1 2.322454 1_555
O1 Zr0 2.125672 1_455
O1 Zr3 2.162726 1_454
O1 Yb0 2.358316 1_555
O1 Zr4 2.480479 1_565
O2 Zr0 2.108206 1_455
O2 Zr5 2.159480 1_565
O2 Yb2 2.396628 1_555
O2 Yb0 2.556515 1_555
O3 Zr3 2.045759 1_555
O3 Yb0 2.322385 1_556
O3 Yb6 2.360937 1_565
O3 Yb1 2.403779 1_555
O4 Zr1 2.082515 1_555
O4 Zr2 2.121075 1_565
O4 Yb3 2.249899 1_455
O4 Yb5 2.426055 1_565
O5 Zr3 2.086699 1_555
O5 Zr2 2.158174 1_665
O5 Yb7 2.332239 1_555
O5 Yb1 2.445447 1_655
O6 Zr1 2.224800 1_555
O6 Zr5 2.269695 1_565
O6 Yb3 2.323399 1_555
O6 Yb2 2.495485 1_555
O7 Zr4 2.187864 1_556
O7 Zr3 2.307807 1_455
O7 Yb1 2.344152 1_555
O7 Yb0 2.437290 1_556
O8 Zr4 2.163776 1_555
O8 Yb2 2.289843 1_555
O8 Yb0 2.297751 1_555
O8 Yb4 2.325725 1_555
O9 Zr0 2.030526 1_555
O9 Yb4 2.247818 1_555
O9 Yb3 2.292256 1_555
O9 Yb2 2.366584 1_655
O10 Zr1 2.181350 1_555
O10 Yb2 2.298068 1_555
O10 Yb5 2.332142 1_555
O10 Yb3 2.367037 1_455
O11 Zr3 2.163776 1_555
O11 Yb7 2.289843 1_555
O11 Yb6 2.297751 1_555
O11 Yb1 2.325725 1_555
O12 Zr1 2.080822 1_555
O12 Yb7 2.385384 1_555
O12 Yb5 2.385614 1_555
O12 Yb1 2.398270 1_555
O13 Zr3 2.187864 1_554
O13 Zr4 2.307807 1_655
O13 Yb4 2.344152 1_555
O13 Yb6 2.437290 1_554
O14 Zr4 2.086699 1_555
O14 Zr0 2.158174 1_445
O14 Yb2 2.332239 1_555
O14 Yb4 2.445447 1_455
O15 Zr5 2.080822 1_555
O15 Yb2 2.385384 1_555
O15 Yb3 2.385614 1_555
O15 Yb4 2.398270 1_555
O16 Zr5 2.181350 1_555
O16 Yb7 2.298068 1_555
O16 Yb3 2.332142 1_555
O16 Yb5 2.367037 1_655
O17 Zr4 2.045759 1_555
O17 Yb6 2.322385 1_554
O17 Yb0 2.360937 1_545
O17 Yb4 2.403779 1_555
O18 Zr2 2.030526 1_555
O18 Yb1 2.247818 1_555
O18 Yb5 2.292256 1_555
O18 Yb7 2.366584 1_455
O19 Zr2 2.125672 1_655
O19 Zr4 2.162726 1_656
O19 Yb6 2.358316 1_555
O19 Zr3 2.480479 1_545
O20 Zr5 2.224800 1_555
O20 Zr1 2.269695 1_545
O20 Yb5 2.323399 1_555
O20 Yb7 2.495485 1_555
O21 Zr0 2.149956 1_545
O21 Zr5 2.236967 1_555
O21 Yb0 2.288934 1_545
O21 Yb4 2.322454 1_555
O22 Zr5 2.082515 1_555
O22 Zr0 2.121075 1_545
O22 Yb5 2.249899 1_655
O22 Yb3 2.426055 1_545
O23 Zr2 2.108206 1_655
O23 Zr1 2.159480 1_545
O23 Yb7 2.396628 1_555
O23 Yb6 2.556515 1_555
