# generated using pymatgen
data_GdMn12
_symmetry_space_group_name_H-M   'P 1'
_cell_length_a   6.31867369
_cell_length_b   6.31867369
_cell_length_c   6.31867369
_cell_angle_alpha   97.69769504
_cell_angle_beta   97.69769504
_cell_angle_gamma   137.06335382
_symmetry_Int_Tables_number   1
_chemical_formula_structural   GdMn12
_chemical_formula_sum   'Gd1 Mn12'
_cell_volume   159.92559778
_cell_formula_units_Z   1
loop_
 _symmetry_equiv_pos_site_id
 _symmetry_equiv_pos_as_xyz
  1  'x, y, z'
loop_
 _atom_site_type_symbol
 _atom_site_label
 _atom_site_symmetry_multiplicity
 _atom_site_fract_x
 _atom_site_fract_y
 _atom_site_fract_z
 _atom_site_occupancy
  Gd  Gd0  1  0.00000000  0.00000000  0.00000000  1
  Mn  Mn0  1  0.00000000  0.36131100  0.36131100  1
  Mn  Mn1  1  0.50000000  0.72698900  0.22698900  1
  Mn  Mn2  1  0.72698900  0.50000000  0.22698900  1
  Mn  Mn3  1  0.27301100  0.50000000  0.77301100  1
  Mn  Mn4  1  0.50000000  0.00000000  0.00000000  1
  Mn  Mn5  1  0.50000000  0.27301100  0.77301100  1
  Mn  Mn6  1  0.63868900  0.00000000  0.63868900  1
  Mn  Mn7  1  0.00000000  0.63868900  0.63868900  1
  Mn  Mn8  1  0.50000000  0.50000000  0.50000000  1
  Mn  Mn9  1  0.36131100  0.00000000  0.36131100  1
  Mn  Mn10  1  0.00000000  0.00000000  0.50000000  1
  Mn  Mn11  1  0.00000000  0.50000000  0.00000000  1
loop_
_geom_bond_atom_site_label_1
_geom_bond_atom_site_label_2
_geom_bond_distance
_geom_bond_site_symmetry_2
Gd0 Mn3 2.985140 1_444
Gd0 Mn1 2.985140 1_555
Gd0 Mn1 2.985140 1_445
Gd0 Mn5 2.985140 1_444
Gd0 Mn2 2.985140 1_555
Gd0 Mn3 2.985140 1_554
Gd0 Mn5 2.985140 1_554
Gd0 Mn2 2.985140 1_445
Gd0 Mn0 3.004654 1_555
Gd0 Mn9 3.004654 1_555
Gd0 Mn7 3.004654 1_544
Gd0 Mn6 3.004654 1_454
Gd0 Mn8 3.159337 1_555
Gd0 Mn4 3.159337 1_555
Gd0 Mn8 3.159337 1_444
Gd0 Mn11 3.159337 1_555
Gd0 Mn10 3.159337 1_554
Gd0 Mn11 3.159337 1_545
Gd0 Mn4 3.159337 1_455
Gd0 Mn10 3.159337 1_555
Mn0 Mn7 2.306669 1_555
Mn0 Mn2 2.546505 1_455
Mn0 Mn3 2.546505 1_555
Mn0 Mn4 2.552653 1_455
Mn0 Mn10 2.552653 1_555
Mn0 Mn8 2.552653 1_555
Mn0 Mn11 2.552653 1_555
Mn0 Mn1 2.568195 1_555
Mn0 Mn1 2.568195 1_445
Mn0 Mn6 2.829886 1_565
Mn0 Mn6 2.829886 1_455
Mn0 Mn9 2.829886 1_455
Mn0 Mn9 2.829886 1_565
Mn1 Mn8 2.386589 1_555
Mn1 Mn11 2.386589 1_555
Mn1 Mn4 2.386589 1_565
Mn1 Mn10 2.386589 1_665
Mn1 Mn6 2.546505 1_565
Mn1 Mn9 2.546505 1_565
Mn1 Mn2 2.669520 1_555
Mn1 Mn3 2.669520 1_554
Mn2 Mn4 2.386589 1_555
Mn2 Mn8 2.386589 1_555
Mn2 Mn7 2.546505 1_655
Mn2 Mn9 2.568195 1_665
Mn2 Mn9 2.568195 1_555
Mn2 Mn5 2.669520 1_554
Mn3 Mn4 2.386589 1_566
Mn3 Mn8 2.386589 1_555
Mn3 Mn7 2.546505 1_555
Mn3 Mn6 2.568195 1_455
Mn3 Mn6 2.568195 1_565
Mn3 Mn5 2.669520 1_555
Mn4 Mn5 2.386589 1_554
Mn4 Mn6 2.552653 1_554
Mn4 Mn9 2.552653 1_555
Mn4 Mn7 2.552653 1_544
Mn5 Mn8 2.386589 1_555
Mn5 Mn6 2.546505 1_555
Mn5 Mn9 2.546505 1_555
Mn5 Mn7 2.568195 1_545
Mn5 Mn7 2.568195 1_655
Mn6 Mn9 2.306669 1_555
Mn6 Mn8 2.552653 1_545
Mn6 Mn7 2.829886 1_545
Mn6 Mn7 2.829886 1_655
Mn7 Mn8 2.552653 1_455
Mn7 Mn9 2.829886 1_565
Mn7 Mn9 2.829886 1_455
Mn8 Mn9 2.552653 1_555
Mn10 Mn8 2.312551 1_555
Mn10 Mn8 2.312551 1_445
Mn10 Mn5 2.386589 1_555
Mn10 Mn2 2.386589 1_445
Mn10 Mn3 2.386589 1_555
Mn10 Mn9 2.552653 1_555
Mn10 Mn6 2.552653 1_455
Mn10 Mn7 2.552653 1_545
Mn11 Mn4 2.312551 1_565
Mn11 Mn4 2.312551 1_455
Mn11 Mn2 2.386589 1_455
Mn11 Mn5 2.386589 1_454
Mn11 Mn3 2.386589 1_554
Mn11 Mn9 2.552653 1_565
Mn11 Mn6 2.552653 1_454
Mn11 Mn7 2.552653 1_554
