# generated using pymatgen
data_Cs2Na2IrO4
_symmetry_space_group_name_H-M   'P 1'
_cell_length_a   6.75490583
_cell_length_b   6.75490583
_cell_length_c   9.76526882
_cell_angle_alpha   77.51626856
_cell_angle_beta   77.51626856
_cell_angle_gamma   53.03121834
_symmetry_Int_Tables_number   1
_chemical_formula_structural   Cs2Na2IrO4
_chemical_formula_sum   'Cs4 Na4 Ir2 O8'
_cell_volume   345.45595201
_cell_formula_units_Z   2
loop_
 _symmetry_equiv_pos_site_id
 _symmetry_equiv_pos_as_xyz
  1  'x, y, z'
loop_
 _atom_site_type_symbol
 _atom_site_label
 _atom_site_symmetry_multiplicity
 _atom_site_fract_x
 _atom_site_fract_y
 _atom_site_fract_z
 _atom_site_occupancy
  Cs  Cs0  1  0.66694300  0.66694300  0.13621200  1
  Cs  Cs1  1  0.33305700  0.33305700  0.86378800  1
  Cs  Cs2  1  0.67018700  0.67018700  0.75855100  1
  Cs  Cs3  1  0.32981300  0.32981300  0.24144900  1
  Na  Na0  1  0.97385200  0.97385200  0.65959400  1
  Na  Na1  1  0.78343000  0.78343000  0.42577000  1
  Na  Na2  1  0.02614800  0.02614800  0.34040600  1
  Na  Na3  1  0.21657000  0.21657000  0.57423000  1
  Ir  Ir0  1  0.00000000  0.00000000  0.00000000  1
  Ir  Ir1  1  0.50000000  0.50000000  0.50000000  1
  O  O0  1  0.38924600  0.84412600  0.46953400  1
  O  O1  1  0.15587400  0.61075400  0.53046600  1
  O  O2  1  0.87511200  0.87511200  0.90725000  1
  O  O3  1  0.89515100  0.89515100  0.18589200  1
  O  O4  1  0.61075400  0.15587400  0.53046600  1
  O  O5  1  0.12488800  0.12488800  0.09275000  1
  O  O6  1  0.10484900  0.10484900  0.81410800  1
  O  O7  1  0.84412600  0.38924600  0.46953400  1
loop_
_geom_bond_atom_site_label_1
_geom_bond_atom_site_label_2
_geom_bond_distance
_geom_bond_site_symmetry_2
Cs0 O3 2.914222 1_555
Cs0 O2 2.934871 1_554
Cs0 O5 3.104370 1_565
Cs0 O5 3.104370 1_655
Cs1 O6 2.914222 1_555
Cs1 O5 2.934871 1_556
Cs1 O2 3.104370 1_455
Cs1 O2 3.104370 1_545
Cs2 O6 3.131364 1_655
Cs2 O6 3.131364 1_565
Cs2 O2 3.159667 1_555
Cs3 O3 3.131364 1_545
Cs3 O3 3.131364 1_455
Cs3 O5 3.159667 1_555
Na0 O2 2.424636 1_555
Na0 O6 2.436984 1_665
Na0 O4 2.481365 1_565
Na0 O1 2.481365 1_655
Na0 O0 2.753217 1_655
Na0 O7 2.753217 1_565
Na1 O0 2.389841 1_555
Na1 O7 2.389841 1_555
Na1 O3 2.404725 1_555
Na1 O4 2.408759 1_565
Na1 O1 2.408759 1_655
Na2 O5 2.424636 1_555
Na2 O3 2.436984 1_445
Na2 O0 2.481365 1_545
Na2 O7 2.481365 1_455
Na2 O1 2.753217 1_545
Na2 O4 2.753217 1_455
Na3 O4 2.389841 1_555
Na3 O1 2.389841 1_555
Na3 O6 2.404725 1_555
Na3 O7 2.408759 1_455
Na3 O0 2.408759 1_545
Ir0 O2 1.939154 1_444
Ir0 O5 1.939154 1_555
Ir0 O3 1.946831 1_445
Ir0 O6 1.946831 1_554
Ir1 O7 1.938366 1_555
Ir1 O0 1.938366 1_555
Ir1 O1 1.938366 1_555
Ir1 O4 1.938366 1_555
