# generated using pymatgen
data_ErH9C5(NO4)2
_symmetry_space_group_name_H-M   'P 1'
_cell_length_a   6.67841429
_cell_length_b   6.67841429
_cell_length_c   6.62268310
_cell_angle_alpha   73.93051777
_cell_angle_beta   73.93051777
_cell_angle_gamma   64.98123544
_symmetry_Int_Tables_number   1
_chemical_formula_structural   ErH9C5(NO4)2
_chemical_formula_sum   'Er1 H9 C5 N2 O8'
_cell_volume   252.84065773
_cell_formula_units_Z   1
loop_
 _symmetry_equiv_pos_site_id
 _symmetry_equiv_pos_as_xyz
  1  'x, y, z'
loop_
 _atom_site_type_symbol
 _atom_site_label
 _atom_site_symmetry_multiplicity
 _atom_site_fract_x
 _atom_site_fract_y
 _atom_site_fract_z
 _atom_site_occupancy
  Er  Er0  1  0.00091300  0.99908700  0.00000000  1
  H  H0  1  0.81484000  0.65390700  0.42084700  1
  H  H1  1  0.34609300  0.18516000  0.57915300  1
  H  H2  1  0.51990900  0.73837400  0.51995700  1
  H  H3  1  0.26162600  0.48009100  0.48004300  1
  H  H4  1  0.16597700  0.46090100  0.87256400  1
  H  H5  1  0.53909900  0.83402300  0.12743600  1
  H  H6  1  0.91237200  0.08762800  0.50000000  1
  H  H7  1  0.54842900  0.45722900  0.79912500  1
  H  H8  1  0.54277100  0.45157100  0.20087500  1
  C  C0  1  0.06060000  0.46763800  0.03506600  1
  C  C1  1  0.53236200  0.93940000  0.96493400  1
  C  C2  1  0.06587600  0.93412400  0.50000000  1
  C  C3  1  0.70789200  0.46653300  0.70008100  1
  C  C4  1  0.53346700  0.29210800  0.29991900  1
  N  N0  1  0.68162300  0.63492300  0.53582700  1
  N  N1  1  0.36507700  0.31837700  0.46417400  1
  O  O0  1  0.99170000  0.31044500  0.12600900  1
  O  O1  1  0.68955500  0.00830000  0.87399100  1
  O  O2  1  0.01949900  0.63699700  0.11543100  1
  O  O3  1  0.36300300  0.98050100  0.88456900  1
  O  O4  1  0.15535200  0.85791400  0.66614800  1
  O  O5  1  0.14208600  0.84464800  0.33385200  1
  O  O6  1  0.89481100  0.32553400  0.74407700  1
  O  O7  1  0.67446600  0.10518900  0.25592300  1
loop_
_geom_bond_atom_site_label_1
_geom_bond_atom_site_label_2
_geom_bond_distance
_geom_bond_site_symmetry_2
Er0 O2 2.285319 1_555
Er0 O3 2.285319 1_554
Er0 O6 2.332464 1_464
Er0 O7 2.332464 1_465
Er0 O1 2.418271 1_464
Er0 O0 2.418271 1_465
Er0 O5 2.431101 1_555
Er0 O4 2.431101 1_554
H0 N0 1.026819 1_555
H1 N1 1.026816 1_555
H2 N0 1.022877 1_555
H3 N1 1.022876 1_555
C0 H4 1.111859 1_554
C0 O0 1.257651 1_455
C0 O2 1.275803 1_555
C1 H5 1.111859 1_556
C1 O1 1.257651 1_565
C1 O3 1.275803 1_555
C2 H6 1.101357 1_465
C2 O4 1.274206 1_555
C2 O5 1.274206 1_555
C3 H7 1.102244 1_555
C3 O6 1.259015 1_555
C3 N0 1.319207 1_555
C4 H8 1.102244 1_555
C4 O7 1.259015 1_555
C4 N1 1.319211 1_555
