# generated using pymatgen
data_Ag15Bi7I40
_symmetry_space_group_name_H-M   'P 1'
_cell_length_a   7.61663839
_cell_length_b   7.61663839
_cell_length_c   73.68613552
_cell_angle_alpha   89.61606504
_cell_angle_beta   89.61606504
_cell_angle_gamma   34.77118685
_symmetry_Int_Tables_number   1
_chemical_formula_structural   Ag15Bi7I40
_chemical_formula_sum   'Ag15 Bi7 I40'
_cell_volume   2437.84192502
_cell_formula_units_Z   1
loop_
 _symmetry_equiv_pos_site_id
 _symmetry_equiv_pos_as_xyz
  1  'x, y, z'
loop_
 _atom_site_type_symbol
 _atom_site_label
 _atom_site_symmetry_multiplicity
 _atom_site_fract_x
 _atom_site_fract_y
 _atom_site_fract_z
 _atom_site_occupancy
  Ag  Ag0  1  0.00460700  0.00460700  0.99778900  1
  Ag  Ag1  1  0.90782900  0.90782900  0.09770700  1
  Ag  Ag2  1  0.14026300  0.14026300  0.35290500  1
  Ag  Ag3  1  0.04232500  0.04232500  0.45221200  1
  Ag  Ag4  1  0.94377800  0.94377800  0.55379400  1
  Ag  Ag5  1  0.40215600  0.40215600  0.59989900  1
  Ag  Ag6  1  0.85020200  0.85020200  0.65005500  1
  Ag  Ag7  1  0.75021200  0.75021200  0.74998400  1
  Ag  Ag8  1  0.29976300  0.29976300  0.70007100  1
  Ag  Ag9  1  0.19849100  0.19849100  0.80009400  1
  Ag  Ag10  1  0.10407500  0.10407500  0.89739700  1
  Ag  Ag11  1  0.64651000  0.64651000  0.84942200  1
  Ag  Ag12  1  0.55366700  0.55366700  0.94928800  1
  Ag  Ag13  1  0.82836900  0.82836900  0.92283800  1
  Ag  Ag14  1  0.27254900  0.27254900  0.97339200  1
  Bi  Bi0  1  0.44959800  0.44959800  0.04925600  1
  Bi  Bi1  1  0.35375000  0.35375000  0.14655000  1
  Bi  Bi2  1  0.80502700  0.80502700  0.19913500  1
  Bi  Bi3  1  0.69675600  0.69675600  0.30364700  1
  Bi  Bi4  1  0.24441600  0.24441600  0.25095800  1
  Bi  Bi5  1  0.60118300  0.60118300  0.40101900  1
  Bi  Bi6  1  0.50173900  0.50173900  0.50106300  1
  I  I0  1  0.36529000  0.36529000  0.01246900  1
  I  I1  1  0.81072300  0.81072300  0.06213200  1
  I  I2  1  0.08637800  0.08637800  0.03766900  1
  I  I3  1  0.26368000  0.26368000  0.11185000  1
  I  I4  1  0.53268000  0.53268000  0.08912400  1
  I  I5  1  0.71132200  0.71132200  0.16188700  1
  I  I6  1  0.98931400  0.98931400  0.13735200  1
  I  I7  1  0.16045500  0.16045500  0.21348700  1
  I  I8  1  0.44680700  0.44680700  0.18696300  1
  I  I9  1  0.60329300  0.60329300  0.26276900  1
  I  I10  1  0.88868800  0.88868800  0.23658800  1
  I  I11  1  0.06119400  0.06119400  0.31250300  1
  I  I12  1  0.33918000  0.33918000  0.28812400  1
  I  I13  1  0.51765700  0.51765700  0.36056900  1
  I  I14  1  0.78706400  0.78706400  0.33799800  1
  I  I15  1  0.96304900  0.96304900  0.41145600  1
  I  I16  1  0.24041300  0.24041300  0.38785500  1
  I  I17  1  0.41869900  0.41869900  0.46082000  1
  I  I18  1  0.68465000  0.68465000  0.43715200  1
  I  I19  1  0.86397300  0.86397300  0.51227600  1
  I  I20  1  0.14015700  0.14015700  0.48791200  1
  I  I21  1  0.32328600  0.32328600  0.56404300  1
  I  I22  1  0.58469900  0.58469900  0.53742100  1
  I  I23  1  0.77377200  0.77377200  0.61429100  1
  I  I24  1  0.03055400  0.03055400  0.58903100  1
  I  I25  1  0.22390800  0.22390800  0.66369100  1
  I  I26  1  0.47488300  0.47488300  0.63661700  1
  I  I27  1  0.67411600  0.67411600  0.71384300  1
  I  I28  1  0.92561200  0.92561200  0.68607500  1
  I  I29  1  0.12439500  0.12439500  0.76383100  1
  I  I30  1  0.37653100  0.37653100  0.73634100  1
  I  I31  1  0.57174800  0.57174800  0.81179900  1
  I  I32  1  0.82590400  0.82590400  0.78623700  1
  I  I33  1  0.02506900  0.02506900  0.86157700  1
  I  I34  1  0.27421700  0.27421700  0.83611400  1
  I  I35  1  0.46255800  0.46255800  0.91496000  1
  I  I36  1  0.72996300  0.72996300  0.88867800  1
  I  I37  1  0.90459400  0.90459400  0.96389100  1
  I  I38  1  0.18853700  0.18853700  0.93750700  1
  I  I39  1  0.63372400  0.63372400  0.98662200  1
loop_
_geom_bond_atom_site_label_1
_geom_bond_atom_site_label_2
_geom_bond_distance
_geom_bond_site_symmetry_2
Ag0 I37 2.898959 1_445
Ag0 I39 3.059106 1_545
Ag0 I39 3.059106 1_455
Ag0 I2 3.177661 1_556
Ag0 I0 3.228112 1_456
Ag0 I0 3.228112 1_546
Ag1 I4 2.976178 1_565
Ag1 I4 2.976178 1_655
Ag1 I1 2.986037 1_555
Ag1 I6 3.160021 1_555
Ag1 I3 3.259790 1_655
Ag1 I3 3.259790 1_565
Ag2 I13 2.942982 1_545
Ag2 I13 2.942982 1_455
Ag2 I16 2.967267 1_555
Ag2 I11 3.198786 1_555
Ag2 I14 3.302658 1_545
Ag2 I14 3.302658 1_455
Ag3 I17 2.965764 1_545
Ag3 I17 2.965764 1_455
Ag3 I20 2.999212 1_555
Ag3 I15 3.224236 1_445
Ag3 I18 3.264909 1_455
Ag3 I18 3.264909 1_545
Ag4 I24 2.894661 1_665
Ag4 I21 2.966398 1_565
Ag4 I21 2.966398 1_655
Ag4 I19 3.279500 1_555
Ag4 I22 3.285911 1_655
Ag4 I22 3.285911 1_565
Ag5 I21 2.887522 1_555
Ag5 I26 2.911748 1_555
Ag5 I24 3.046953 1_565
Ag5 I24 3.046953 1_655
Ag5 I23 3.124050 1_545
Ag5 I23 3.124050 1_455
Ag6 I23 2.867142 1_555
Ag6 I28 2.878766 1_555
Ag6 I26 3.069215 1_565
Ag6 I26 3.069215 1_655
Ag6 I25 3.087724 1_565
Ag6 I25 3.087724 1_655
Ag7 I27 2.890878 1_555
Ag7 I32 2.896230 1_555
Ag7 I30 3.088105 1_655
Ag7 I30 3.088105 1_565
Ag7 I29 3.088658 1_565
Ag7 I29 3.088658 1_655
Ag8 I30 2.903467 1_555
Ag8 I25 2.905803 1_555
Ag8 I27 3.085402 1_455
Ag8 I27 3.085402 1_545
Ag8 I28 3.092531 1_455
Ag8 I28 3.092531 1_545
Ag9 I34 2.880548 1_555
Ag9 I29 2.888028 1_555
Ag9 I31 3.048925 1_455
Ag9 I31 3.048925 1_545
Ag9 I32 3.102640 1_545
Ag9 I32 3.102640 1_455
Ag10 I33 2.885887 1_555
Ag10 I36 2.987469 1_455
Ag10 I36 2.987469 1_545
Ag10 I38 3.208406 1_555
Ag10 I35 3.324060 1_455
Ag10 I35 3.324060 1_545
Ag11 I31 2.984820 1_555
Ag11 I33 3.012684 1_565
Ag11 I33 3.012684 1_655
Ag11 I34 3.092287 1_565
Ag11 I34 3.092287 1_655
Ag11 I36 3.144578 1_555
Ag12 I35 2.863506 1_555
Ag12 I39 2.994565 1_555
Ag12 I38 3.123040 1_655
Ag12 I38 3.123040 1_565
Ag12 I37 3.316787 1_545
Ag12 I37 3.316787 1_455
Ag13 I36 2.903956 1_555
Ag13 I35 3.050581 1_655
Ag13 I35 3.050581 1_565
Ag13 I37 3.228905 1_555
Ag13 I38 3.232529 1_565
Ag13 I38 3.232529 1_655
Ag14 I38 2.920427 1_555
Ag14 I37 3.055420 1_545
Ag14 I37 3.055420 1_455
Ag14 I0 3.187996 1_556
Ag14 I39 3.189857 1_455
Ag14 I39 3.189857 1_545
Bi0 I0 2.982723 1_555
Bi0 I2 3.136634 1_655
Bi0 I2 3.136634 1_565
Bi0 I1 3.182558 1_545
Bi0 I1 3.182558 1_455
Bi0 I4 3.184145 1_555
Bi1 I3 2.880846 1_555
Bi1 I6 3.082849 1_455
Bi1 I6 3.082849 1_545
Bi1 I5 3.272755 1_545
Bi1 I5 3.272755 1_455
Bi1 I8 3.279391 1_555
Bi2 I10 3.023676 1_555
Bi2 I5 3.072673 1_555
Bi2 I8 3.194710 1_655
Bi2 I8 3.194710 1_565
Bi2 I7 3.268613 1_655
Bi2 I7 3.268613 1_565
Bi3 I14 2.859571 1_555
Bi3 I11 3.077502 1_565
Bi3 I11 3.077502 1_655
Bi3 I12 3.277416 1_565
Bi3 I12 3.277416 1_655
Bi3 I9 3.313088 1_555
Bi4 I7 3.026674 1_555
Bi4 I12 3.074223 1_555
Bi4 I9 3.181315 1_455
Bi4 I9 3.181315 1_545
Bi4 I10 3.266244 1_455
Bi4 I10 3.266244 1_545
Bi5 I18 2.933700 1_555
Bi5 I15 3.127583 1_455
Bi5 I15 3.127583 1_545
Bi5 I16 3.192113 1_655
Bi5 I16 3.192113 1_565
Bi5 I13 3.226333 1_555
Bi6 I22 2.945730 1_555
Bi6 I19 3.138469 1_545
Bi6 I19 3.138469 1_455
Bi6 I20 3.184379 1_655
Bi6 I20 3.184379 1_565
Bi6 I17 3.209496 1_555
