# generated using pymatgen
data_Ti2Ag2P2S11
_symmetry_space_group_name_H-M   'P 1'
_cell_length_a   6.92249000
_cell_length_b   8.65126500
_cell_length_c   24.48983600
_cell_angle_alpha   90.00000000
_cell_angle_beta   90.00000000
_cell_angle_gamma   90.00000000
_symmetry_Int_Tables_number   1
_chemical_formula_structural   Ti2Ag2P2S11
_chemical_formula_sum   'Ti8 Ag8 P8 S44'
_cell_volume   1466.65453389
_cell_formula_units_Z   4
loop_
 _symmetry_equiv_pos_site_id
 _symmetry_equiv_pos_as_xyz
  1  'x, y, z'
loop_
 _atom_site_type_symbol
 _atom_site_label
 _atom_site_symmetry_multiplicity
 _atom_site_fract_x
 _atom_site_fract_y
 _atom_site_fract_z
 _atom_site_occupancy
  Ti  Ti0  1  0.50420300  0.75621800  0.07841300  1
  Ti  Ti1  1  0.99579700  0.25621800  0.42158700  1
  Ti  Ti2  1  0.49579700  0.74378200  0.57841300  1
  Ti  Ti3  1  0.00420300  0.24378200  0.92158700  1
  Ti  Ti4  1  0.49579700  0.24378200  0.92158700  1
  Ti  Ti5  1  0.99579700  0.75621800  0.07841300  1
  Ti  Ti6  1  0.00420300  0.74378200  0.57841300  1
  Ti  Ti7  1  0.50420300  0.25621800  0.42158700  1
  Ag  Ag0  1  0.25000000  0.89896100  0.80329600  1
  Ag  Ag1  1  0.75000000  0.60103900  0.30329600  1
  Ag  Ag2  1  0.25000000  0.39416800  0.19347200  1
  Ag  Ag3  1  0.75000000  0.10583200  0.69347200  1
  Ag  Ag4  1  0.75000000  0.60583200  0.80652800  1
  Ag  Ag5  1  0.25000000  0.39896100  0.69670400  1
  Ag  Ag6  1  0.75000000  0.10103900  0.19670400  1
  Ag  Ag7  1  0.25000000  0.89416800  0.30652800  1
  P  P0  1  0.25000000  0.99701500  0.15240300  1
  P  P1  1  0.75000000  0.50298500  0.65240300  1
  P  P2  1  0.75000000  0.49892300  0.15045000  1
  P  P3  1  0.75000000  0.00298500  0.84759700  1
  P  P4  1  0.25000000  0.49701500  0.34759700  1
  P  P5  1  0.75000000  0.99892300  0.34955000  1
  P  P6  1  0.25000000  0.50107700  0.84955000  1
  P  P7  1  0.25000000  0.00107700  0.65045000  1
  S  S0  1  0.99573700  0.46482300  0.60694800  1
  S  S1  1  0.25000000  0.10486700  0.22538000  1
  S  S2  1  0.99740000  0.53799600  0.89197500  1
  S  S3  1  0.75000000  0.74010700  0.15583900  1
  S  S4  1  0.75000000  0.24010700  0.34416100  1
  S  S5  1  0.50426300  0.96482300  0.89305200  1
  S  S6  1  0.99740000  0.03799600  0.60802500  1
  S  S7  1  0.25000000  0.25600800  0.34625100  1
  S  S8  1  0.25000000  0.24005100  0.48316600  1
  S  S9  1  0.75000000  0.39513300  0.72538000  1
  S  S10  1  0.49740000  0.46200400  0.10802500  1
  S  S11  1  0.25000000  0.75989300  0.65583900  1
  S  S12  1  0.49573700  0.03517700  0.10694800  1
  S  S13  1  0.75000000  0.89074300  0.27598900  1
  S  S14  1  0.75000000  0.37844700  0.48115200  1
  S  S15  1  0.25000000  0.60486700  0.27462000  1
  S  S16  1  0.25000000  0.74005100  0.01683400  1
  S  S17  1  0.75000000  0.24399200  0.84625100  1
  S  S18  1  0.25000000  0.62155300  0.51884800  1
  S  S19  1  0.50260000  0.53799600  0.89197500  1
  S  S20  1  0.49573700  0.53517700  0.39305200  1
  S  S21  1  0.49740000  0.96200400  0.39197500  1
  S  S22  1  0.25000000  0.25989300  0.84416100  1
  S  S23  1  0.25000000  0.10925700  0.72401100  1
  S  S24  1  0.00260000  0.96200400  0.39197500  1
  S  S25  1  0.00260000  0.46200400  0.10802500  1
  S  S26  1  0.99573700  0.96482300  0.89305200  1
  S  S27  1  0.25000000  0.60925700  0.77598900  1
  S  S28  1  0.75000000  0.74399200  0.65374900  1
  S  S29  1  0.00426300  0.03517700  0.10694800  1
  S  S30  1  0.75000000  0.64369100  0.01729000  1
  S  S31  1  0.25000000  0.12155300  0.98115200  1
  S  S32  1  0.50426300  0.46482300  0.60694800  1
  S  S33  1  0.75000000  0.25994900  0.98316600  1
  S  S34  1  0.50260000  0.03799600  0.60802500  1
  S  S35  1  0.75000000  0.87844700  0.01884800  1
  S  S36  1  0.75000000  0.14369100  0.48271000  1
  S  S37  1  0.25000000  0.85630900  0.51729000  1
  S  S38  1  0.75000000  0.39074300  0.22401100  1
  S  S39  1  0.25000000  0.75600800  0.15374900  1
  S  S40  1  0.75000000  0.89513300  0.77462000  1
  S  S41  1  0.25000000  0.35630900  0.98271000  1
  S  S42  1  0.00426300  0.53517700  0.39305200  1
  S  S43  1  0.75000000  0.75994900  0.51683400  1
loop_
_geom_bond_atom_site_label_1
_geom_bond_atom_site_label_2
_geom_bond_distance
_geom_bond_site_symmetry_2
Ag0 S27 2.593991 1_555
Ag0 S23 2.660838 1_565
Ag0 S26 2.873050 1_455
Ag0 S5 2.873050 1_555
Ag1 S13 2.593991 1_555
Ag1 S38 2.660838 1_555
Ag1 S42 2.873050 1_655
Ag1 S20 2.873050 1_555
Ag2 S1 2.621970 1_555
Ag2 S15 2.696667 1_555
Ag2 S25 2.767020 1_555
Ag2 S10 2.767020 1_555
Ag3 S9 2.621970 1_555
Ag3 S40 2.696667 1_545
Ag3 S6 2.767020 1_555
Ag3 S34 2.767020 1_555
Ag4 S40 2.621970 1_555
Ag4 S9 2.696667 1_555
Ag4 S19 2.767020 1_555
Ag4 S2 2.767020 1_555
Ag5 S23 2.593991 1_555
Ag5 S27 2.660838 1_555
Ag5 S32 2.873050 1_555
Ag5 S0 2.873050 1_455
Ag6 S38 2.593991 1_555
Ag6 S13 2.660838 1_545
Ag6 S12 2.873050 1_555
Ag6 S29 2.873050 1_655
Ag7 S15 2.621970 1_555
Ag7 S1 2.696667 1_565
Ag7 S21 2.767020 1_555
Ag7 S24 2.767020 1_555
P0 S1 2.016100 1_565
P0 S12 2.059603 1_565
P0 S29 2.059603 1_565
P0 S39 2.085276 1_555
P1 S9 2.016100 1_555
P1 S0 2.059603 1_555
P1 S32 2.059603 1_555
P1 S28 2.085276 1_555
P2 S38 2.030096 1_555
P2 S25 2.058925 1_655
P2 S10 2.058925 1_555
P2 S3 2.090716 1_555
P3 S40 2.016100 1_545
P3 S5 2.059603 1_545
P3 S26 2.059603 1_545
P3 S17 2.085276 1_555
P4 S15 2.016100 1_555
P4 S20 2.059603 1_555
P4 S42 2.059603 1_555
P4 S7 2.085276 1_555
P5 S13 2.030096 1_555
P5 S24 2.058925 1_655
P5 S21 2.058925 1_555
P5 S4 2.090716 1_565
P6 S27 2.030096 1_555
P6 S19 2.058925 1_555
P6 S2 2.058925 1_455
P6 S22 2.090716 1_555
P7 S23 2.030096 1_555
P7 S34 2.058925 1_555
P7 S6 2.058925 1_455
P7 S11 2.090716 1_545
S0 Ti6 2.513171 1_655
S2 Ti3 2.647035 1_655
S3 Ti5 2.551472 1_555
S3 Ti0 2.551472 1_555
S4 Ti1 2.551472 1_555
S4 Ti7 2.551472 1_555
S5 Ti4 2.513171 1_565
S6 Ti6 2.647035 1_645
S7 Ti1 2.549610 1_455
S7 Ti7 2.549610 1_555
S8 Ti7 2.321726 1_555
S8 Ti1 2.321726 1_455
S10 Ti0 2.647035 1_555
S11 Ti6 2.551472 1_555
S11 Ti2 2.551472 1_555
S12 Ti0 2.513171 1_545
S14 S36 2.031295 1_555
S14 Ti1 2.478160 1_555
S14 Ti7 2.478160 1_555
S16 Ti0 2.321726 1_555
S16 Ti5 2.321726 1_455
S17 Ti4 2.549610 1_555
S17 Ti3 2.549610 1_655
S18 S37 2.031295 1_555
S18 Ti2 2.478160 1_555
S18 Ti6 2.478160 1_555
S19 Ti4 2.647035 1_555
S20 Ti7 2.513171 1_555
S21 Ti7 2.647035 1_565
S22 Ti3 2.551472 1_555
S22 Ti4 2.551472 1_555
S24 Ti1 2.647035 1_465
S25 Ti5 2.647035 1_455
S26 Ti3 2.513171 1_665
S28 Ti6 2.549610 1_655
S28 Ti2 2.549610 1_555
S29 Ti5 2.513171 1_445
S30 S35 2.031295 1_555
S30 Ti5 2.466493 1_555
S30 Ti0 2.466493 1_555
S31 S41 2.031295 1_555
S31 Ti3 2.478160 1_555
S31 Ti4 2.478160 1_555
S32 Ti2 2.513171 1_555
S33 Ti4 2.321726 1_555
S33 Ti3 2.321726 1_655
S34 Ti2 2.647035 1_545
S35 Ti5 2.478160 1_555
S35 Ti0 2.478160 1_555
S36 Ti1 2.466493 1_555
S36 Ti7 2.466493 1_555
S37 Ti6 2.466493 1_555
S37 Ti2 2.466493 1_555
S39 Ti0 2.549610 1_555
S39 Ti5 2.549610 1_455
S41 Ti3 2.466493 1_555
S41 Ti4 2.466493 1_555
S42 Ti1 2.513171 1_455
S43 Ti6 2.321726 1_655
S43 Ti2 2.321726 1_555
