# generated using pymatgen
data_MoH4O5
_symmetry_space_group_name_H-M   'P 1'
_cell_length_a   4.05172900
_cell_length_b   6.39339616
_cell_length_c   7.72918399
_cell_angle_alpha   97.53976492
_cell_angle_beta   90.12719830
_cell_angle_gamma   90.01294967
_symmetry_Int_Tables_number   1
_chemical_formula_structural   MoH4O5
_chemical_formula_sum   'Mo2 H8 O10'
_cell_volume   198.48756341
_cell_formula_units_Z   2
loop_
 _symmetry_equiv_pos_site_id
 _symmetry_equiv_pos_as_xyz
  1  'x, y, z'
loop_
 _atom_site_type_symbol
 _atom_site_label
 _atom_site_symmetry_multiplicity
 _atom_site_fract_x
 _atom_site_fract_y
 _atom_site_fract_z
 _atom_site_occupancy
  Mo  Mo0  1  0.95840100  0.00138100  0.26615500  1
  Mo  Mo1  1  0.08954200  0.97574000  0.75917000  1
  H  H0  1  0.49489900  0.54774500  0.87685400  1
  H  H1  1  0.23027400  0.60510200  0.09791300  1
  H  H2  1  0.70787100  0.57724400  0.05277600  1
  H  H3  1  0.50839000  0.40037800  0.42794400  1
  H  H4  1  0.70963700  0.57640200  0.55075400  1
  H  H5  1  0.21137300  0.61185400  0.60512100  1
  H  H6  1  0.00851800  0.55123200  0.26075800  1
  H  H7  1  0.01986300  0.41824200  0.74059000  1
  O  O0  1  0.02674600  0.97033300  0.98934700  1
  O  O1  1  0.01467100  0.94200000  0.48772100  1
  O  O2  1  0.50024200  0.51573400  0.99669900  1
  O  O3  1  0.50792500  0.54852200  0.47754900  1
  O  O4  1  0.52180200  0.97735300  0.24331300  1
  O  O5  1  0.52229500  0.95743900  0.74399300  1
  O  O6  1  0.01717300  0.27471600  0.29466100  1
  O  O7  1  0.02458900  0.65571400  0.17746200  1
  O  O8  1  0.03859900  0.65202900  0.70029200  1
  O  O9  1  0.02853900  0.26074400  0.75262600  1
loop_
_geom_bond_atom_site_label_1
_geom_bond_atom_site_label_2
_geom_bond_distance
_geom_bond_site_symmetry_2
Mo0 O6 1.748622 1_655
Mo0 O4 1.781975 1_545
Mo0 O1 1.815978 1_645
Mo0 O0 2.141203 1_644
Mo0 O7 2.242634 1_645
Mo0 O4 2.293586 1_645
Mo1 O5 1.760471 1_555
Mo1 O0 1.802555 1_555
Mo1 O9 1.846129 1_565
Mo1 O8 2.070078 1_555
Mo1 O1 2.102110 1_555
Mo1 O5 2.303227 1_455
H0 O2 0.974708 1_555
H1 O7 1.061816 1_555
H1 O2 1.421870 1_554
H2 O2 1.001861 1_554
H2 O7 1.641503 1_655
H3 O3 0.974058 1_555
H4 O3 0.995632 1_555
H5 O8 1.024648 1_555
H5 O3 1.575000 1_555
H6 O7 0.988926 1_555
H7 O9 1.023922 1_555
H7 O8 1.568156 1_555
