# generated using pymatgen
data_LiCo2(PO3)5
_symmetry_space_group_name_H-M   'P 1'
_cell_length_a   8.71602100
_cell_length_b   5.27513300
_cell_length_c   13.62049252
_cell_angle_alpha   70.36601353
_cell_angle_beta   90.00000000
_cell_angle_gamma   90.00000000
_symmetry_Int_Tables_number   1
_chemical_formula_structural   LiCo2(PO3)5
_chemical_formula_sum   'Li2 Co4 P10 O30'
_cell_volume   589.83435630
_cell_formula_units_Z   2
loop_
 _symmetry_equiv_pos_site_id
 _symmetry_equiv_pos_as_xyz
  1  'x, y, z'
loop_
 _atom_site_type_symbol
 _atom_site_label
 _atom_site_symmetry_multiplicity
 _atom_site_fract_x
 _atom_site_fract_y
 _atom_site_fract_z
 _atom_site_occupancy
  Li  Li0  1  0.99921500  0.12174600  0.44988100  1
  Li  Li1  1  0.00078500  0.12174600  0.94988100  1
  Co  Co0  1  0.69884300  0.06744400  0.55220300  1
  Co  Co1  1  0.30115700  0.06744400  0.05220300  1
  Co  Co2  1  0.69681200  0.91721500  0.95574900  1
  Co  Co3  1  0.30318800  0.91721500  0.45574900  1
  P  P0  1  0.17689100  0.67225100  0.90928700  1
  P  P1  1  0.81761900  0.32282000  0.09054800  1
  P  P2  1  0.49543300  0.53716000  0.86108200  1
  P  P3  1  0.82310900  0.67225100  0.40928700  1
  P  P4  1  0.18238100  0.32282000  0.59054800  1
  P  P5  1  0.50182000  0.46336600  0.14187100  1
  P  P6  1  0.04802700  0.00094900  0.25033100  1
  P  P7  1  0.50456700  0.53716000  0.36108200  1
  P  P8  1  0.49818000  0.46336600  0.64187100  1
  P  P9  1  0.95197300  0.00094900  0.75033100  1
  O  O0  1  0.83107800  0.87341000  0.46546300  1
  O  O1  1  0.93265400  0.75118000  0.30931400  1
  O  O2  1  0.84635600  0.61075500  0.02811500  1
  O  O3  1  0.49079000  0.74330500  0.56164100  1
  O  O4  1  0.34237900  0.70842800  0.85599500  1
  O  O5  1  0.65264700  0.28842800  0.14532800  1
  O  O6  1  0.92762700  0.23871400  0.19059500  1
  O  O7  1  0.87908800  0.09266400  0.83300000  1
  O  O8  1  0.34735300  0.28842800  0.64532800  1
  O  O9  1  0.65762100  0.70842800  0.35599500  1
  O  O10  1  0.17488500  0.11754000  0.53581300  1
  O  O11  1  0.48710600  0.25968900  0.94294700  1
  O  O12  1  0.16892200  0.87341000  0.96546300  1
  O  O13  1  0.07237300  0.23871400  0.69059500  1
  O  O14  1  0.86254400  0.91426600  0.67370200  1
  O  O15  1  0.49019700  0.49657600  0.75199700  1
  O  O16  1  0.63159400  0.28804400  0.63930200  1
  O  O17  1  0.37453000  0.71970000  0.36181400  1
  O  O18  1  0.15364400  0.61075500  0.52811500  1
  O  O19  1  0.51289400  0.25968900  0.44294700  1
  O  O20  1  0.50980300  0.49657600  0.25199700  1
  O  O21  1  0.62547000  0.71970000  0.86181400  1
  O  O22  1  0.50921000  0.74330500  0.06164100  1
  O  O23  1  0.85088200  0.37895100  0.46842100  1
  O  O24  1  0.14911800  0.37895100  0.96842100  1
  O  O25  1  0.13745600  0.91426600  0.17370200  1
  O  O26  1  0.12091200  0.09266400  0.33300000  1
  O  O27  1  0.06734600  0.75118000  0.80931400  1
  O  O28  1  0.36840600  0.28804400  0.13930200  1
  O  O29  1  0.82511500  0.11754000  0.03581300  1
loop_
_geom_bond_atom_site_label_1
_geom_bond_atom_site_label_2
_geom_bond_distance
_geom_bond_site_symmetry_2
Li0 O10 1.922852 1_655
Li0 O0 1.929239 1_545
Li0 O23 1.951005 1_555
Li0 O26 1.961419 1_655
Li1 O29 1.922852 1_456
Li1 O12 1.929239 1_545
Li1 O24 1.951005 1_555
Li1 O7 1.961419 1_455
Co0 O16 2.008202 1_555
Co0 O23 2.120942 1_555
Co0 O14 2.128081 1_545
Co0 O0 2.141151 1_545
Co0 O19 2.203532 1_555
Co0 O3 2.465946 1_545
Co1 O28 2.008202 1_555
Co1 O24 2.120942 1_554
Co1 O25 2.128081 1_545
Co1 O12 2.141151 1_544
Co1 O11 2.203532 1_554
Co1 O22 2.465946 1_545
Co2 O21 2.001268 1_555
Co2 O2 2.052579 1_556
Co2 O29 2.081086 1_566
Co2 O22 2.169413 1_556
Co2 O7 2.266276 1_565
Co2 O11 2.534434 1_565
Co3 O17 2.001268 1_555
Co3 O18 2.052579 1_555
Co3 O10 2.081086 1_565
Co3 O3 2.169413 1_555
Co3 O26 2.266276 1_565
Co3 O19 2.534434 1_565
O0 P3 1.503968 1_555
O1 P3 1.599427 1_555
O1 P6 1.637460 1_665
O2 P1 1.491613 1_555
O3 P8 1.514774 1_555
O4 P0 1.597096 1_555
O4 P2 1.599559 1_555
O5 P5 1.597754 1_555
O5 P1 1.601940 1_555
O6 P1 1.602133 1_555
O6 P6 1.628063 1_655
O7 P9 1.507179 1_555
O8 P8 1.597754 1_555
O8 P4 1.601940 1_555
O9 P3 1.597096 1_555
O9 P7 1.599559 1_555
O10 P4 1.508383 1_555
O11 P2 1.514662 1_555
O12 P0 1.503968 1_555
O13 P4 1.602133 1_555
O13 P9 1.628063 1_455
O14 P9 1.492228 1_565
O15 P8 1.569087 1_555
O15 P2 1.571386 1_555
O16 P8 1.493489 1_555
O17 P7 1.489422 1_555
O18 P4 1.491613 1_555
O19 P7 1.514662 1_555
O20 P5 1.569087 1_555
O20 P7 1.571386 1_555
O21 P2 1.489422 1_555
O22 P5 1.514774 1_555
O23 P3 1.504557 1_555
O24 P0 1.504557 1_555
O25 P6 1.492228 1_565
O26 P6 1.507179 1_555
O27 P0 1.599427 1_555
O27 P9 1.637460 1_465
O28 P5 1.493489 1_555
O29 P1 1.508383 1_555
