# generated using pymatgen
data_LiBH4
_symmetry_space_group_name_H-M   'P 1'
_cell_length_a   4.18000344
_cell_length_b   4.18000344
_cell_length_c   6.70992200
_cell_angle_alpha   90.00000000
_cell_angle_beta   90.00000000
_cell_angle_gamma   119.99999106
_symmetry_Int_Tables_number   1
_chemical_formula_structural   LiBH4
_chemical_formula_sum   'Li2 B2 H8'
_cell_volume   101.53164437
_cell_formula_units_Z   2
loop_
 _symmetry_equiv_pos_site_id
 _symmetry_equiv_pos_as_xyz
  1  'x, y, z'
loop_
 _atom_site_type_symbol
 _atom_site_label
 _atom_site_symmetry_multiplicity
 _atom_site_fract_x
 _atom_site_fract_y
 _atom_site_fract_z
 _atom_site_occupancy
  Li  Li0  1  0.66666700  0.33333300  0.50588200  1
  Li  Li1  1  0.33333300  0.66666700  0.00588200  1
  B  B0  1  0.66666700  0.33333300  0.05779300  1
  B  B1  1  0.33333300  0.66666700  0.55779300  1
  H  H0  1  0.66666700  0.33333300  0.87631100  1
  H  H1  1  0.33333300  0.66666700  0.37631100  1
  H  H2  1  0.82532300  0.17467700  0.11833000  1
  H  H3  1  0.82532300  0.65064600  0.11833000  1
  H  H4  1  0.34935400  0.17467700  0.11833000  1
  H  H5  1  0.17467700  0.82532300  0.61833000  1
  H  H6  1  0.17467700  0.34935400  0.61833000  1
  H  H7  1  0.65064600  0.82532300  0.61833000  1
loop_
_geom_bond_atom_site_label_1
_geom_bond_atom_site_label_2
_geom_bond_distance
_geom_bond_site_symmetry_2
B0 H0 1.217730 1_554
B0 H2 1.218372 1_555
B0 H3 1.218376 1_555
B0 H4 1.218376 1_555
B1 H1 1.217730 1_555
B1 H5 1.218372 1_555
B1 H7 1.218376 1_555
B1 H6 1.218376 1_555
H2 Li1 2.222784 1_545
H2 Li1 2.222784 1_655
H3 Li1 2.222782 1_655
H3 Li1 2.222786 1_555
H4 Li1 2.222782 1_545
H4 Li1 2.222786 1_555
H5 Li0 2.222784 1_455
H5 Li0 2.222784 1_565
H6 Li0 2.222782 1_455
H6 Li0 2.222786 1_555
H7 Li0 2.222782 1_565
H7 Li0 2.222786 1_555
