# generated using pymatgen
data_Ce4(SiS4)3
_symmetry_space_group_name_H-M   'P 1'
_cell_length_a   11.45363392
_cell_length_b   11.45363392
_cell_length_c   11.45363361
_cell_angle_alpha   114.75650216
_cell_angle_beta   114.75650216
_cell_angle_gamma   114.75649757
_symmetry_Int_Tables_number   1
_chemical_formula_structural   Ce4(SiS4)3
_chemical_formula_sum   'Ce8 Si6 S24'
_cell_volume   859.27507867
_cell_formula_units_Z   2
loop_
 _symmetry_equiv_pos_site_id
 _symmetry_equiv_pos_as_xyz
  1  'x, y, z'
loop_
 _atom_site_type_symbol
 _atom_site_label
 _atom_site_symmetry_multiplicity
 _atom_site_fract_x
 _atom_site_fract_y
 _atom_site_fract_z
 _atom_site_occupancy
  Ce  Ce0  1  0.97220200  0.43145200  0.20608600  1
  Ce  Ce1  1  0.43145200  0.20608600  0.97220200  1
  Ce  Ce2  1  0.47220200  0.70608600  0.93145200  1
  Ce  Ce3  1  0.99807700  0.99807700  0.99807700  1
  Ce  Ce4  1  0.93145200  0.47220200  0.70608600  1
  Ce  Ce5  1  0.49807700  0.49807700  0.49807700  1
  Ce  Ce6  1  0.70608600  0.93145200  0.47220200  1
  Ce  Ce7  1  0.20608600  0.97220200  0.43145200  1
  Si  Si0  1  0.35303300  0.96689100  0.13933500  1
  Si  Si1  1  0.85303300  0.63933500  0.46689100  1
  Si  Si2  1  0.96689100  0.13933500  0.35303300  1
  Si  Si3  1  0.46689100  0.85303300  0.63933500  1
  Si  Si4  1  0.63933500  0.46689100  0.85303300  1
  Si  Si5  1  0.13933500  0.35303300  0.96689100  1
  S  S0  1  0.30051000  0.62045600  0.58611400  1
  S  S1  1  0.61485300  0.07751400  0.34707100  1
  S  S2  1  0.12045600  0.80051000  0.08611400  1
  S  S3  1  0.89155200  0.28475300  0.81828100  1
  S  S4  1  0.18869200  0.37370500  0.18269900  1
  S  S5  1  0.81828100  0.89155200  0.28475300  1
  S  S6  1  0.31828100  0.78475300  0.39155200  1
  S  S7  1  0.28475300  0.81828100  0.89155200  1
  S  S8  1  0.11485300  0.84707100  0.57751400  1
  S  S9  1  0.68869200  0.68269900  0.87370500  1
  S  S10  1  0.07751400  0.34707100  0.61485300  1
  S  S11  1  0.08611400  0.12045600  0.80051000  1
  S  S12  1  0.87370500  0.68869200  0.68269900  1
  S  S13  1  0.68269900  0.87370500  0.68869200  1
  S  S14  1  0.84707100  0.57751400  0.11485300  1
  S  S15  1  0.34707100  0.61485300  0.07751400  1
  S  S16  1  0.80051000  0.08611400  0.12045600  1
  S  S17  1  0.18269900  0.18869200  0.37370500  1
  S  S18  1  0.37370500  0.18269900  0.18869200  1
  S  S19  1  0.57751400  0.11485300  0.84707100  1
  S  S20  1  0.58611400  0.30051000  0.62045600  1
  S  S21  1  0.39155200  0.31828100  0.78475300  1
  S  S22  1  0.78475300  0.39155200  0.31828100  1
  S  S23  1  0.62045600  0.58611400  0.30051000  1
loop_
_geom_bond_atom_site_label_1
_geom_bond_atom_site_label_2
_geom_bond_distance
_geom_bond_site_symmetry_2
Ce0 S14 2.857034 1_555
Ce0 S4 2.905012 1_655
Ce0 S22 2.906966 1_555
Ce0 S19 2.950887 1_554
Ce0 S6 2.985626 1_655
Ce0 S16 3.015823 1_555
Ce0 S0 3.058538 1_655
Ce0 S3 3.524046 1_554
Ce1 S19 2.857034 1_555
Ce1 S18 2.905012 1_556
Ce1 S21 2.906966 1_555
Ce1 S8 2.950887 1_545
Ce1 S22 2.985625 1_556
Ce1 S11 3.015822 1_555
Ce1 S23 3.058538 1_556
Ce1 S7 3.524046 1_545
Ce2 S15 2.857034 1_556
Ce2 S9 2.905012 1_555
Ce2 S7 2.906966 1_555
Ce2 S10 2.950887 1_555
Ce2 S5 2.985625 1_556
Ce2 S0 3.015822 1_555
Ce2 S16 3.058539 1_566
Ce2 S21 3.524046 1_555
Ce3 S12 2.894223 1_555
Ce3 S13 2.894223 1_555
Ce3 S9 2.894223 1_555
Ce3 S17 2.897406 1_666
Ce3 S18 2.897406 1_666
Ce3 S4 2.897406 1_666
Ce3 S2 3.389065 1_656
Ce3 S16 3.389065 1_566
Ce3 S11 3.389065 1_665
Ce4 S10 2.857034 1_655
Ce4 S12 2.905012 1_555
Ce4 S3 2.906966 1_555
Ce4 S1 2.950887 1_555
Ce4 S7 2.985626 1_655
Ce4 S20 3.015823 1_555
Ce4 S2 3.058538 1_656
Ce4 S22 3.524046 1_555
Ce5 S4 2.894223 1_555
Ce5 S18 2.894223 1_555
Ce5 S17 2.894223 1_555
Ce5 S9 2.897406 1_555
Ce5 S13 2.897406 1_555
Ce5 S12 2.897406 1_555
Ce5 S0 3.389065 1_555
Ce5 S20 3.389065 1_555
Ce5 S23 3.389065 1_555
Ce6 S1 2.857034 1_565
Ce6 S13 2.905012 1_555
Ce6 S5 2.906966 1_555
Ce6 S15 2.950887 1_555
Ce6 S3 2.985625 1_565
Ce6 S23 3.015822 1_555
Ce6 S11 3.058538 1_665
Ce6 S6 3.524046 1_555
Ce7 S8 2.857034 1_555
Ce7 S17 2.905012 1_565
Ce7 S6 2.906966 1_555
Ce7 S14 2.950887 1_455
Ce7 S21 2.985625 1_565
Ce7 S2 3.015822 1_555
Ce7 S20 3.058539 1_565
Ce7 S5 3.524046 1_455
S0 Si3 2.124790 1_555
S1 Si0 2.139246 1_545
S2 Si0 2.124790 1_555
S3 Si5 2.131578 1_655
S4 Si5 2.170898 1_554
S5 Si2 2.131578 1_565
S6 Si3 2.131578 1_555
S7 Si0 2.131578 1_556
S8 Si1 2.139246 1_455
S9 Si4 2.170898 1_555
S10 Si2 2.139246 1_455
S11 Si5 2.124790 1_555
S12 Si1 2.170898 1_555
S13 Si3 2.170898 1_555
S14 Si4 2.139246 1_554
S15 Si5 2.139246 1_554
S16 Si2 2.124790 1_555
S17 Si2 2.170898 1_455
S18 Si0 2.170898 1_545
S19 Si3 2.139246 1_545
S20 Si4 2.124790 1_555
S21 Si4 2.131578 1_555
S22 Si1 2.131578 1_555
S23 Si1 2.124790 1_555
