# generated using pymatgen
data_Ti8Bi9
_symmetry_space_group_name_H-M   'P 1'
_cell_length_a   7.43062096
_cell_length_b   10.28859577
_cell_length_c   10.28859577
_cell_angle_alpha   90.00000000
_cell_angle_beta   90.00000000
_cell_angle_gamma   90.00000000
_symmetry_Int_Tables_number   1
_chemical_formula_structural   Ti8Bi9
_chemical_formula_sum   'Ti16 Bi18'
_cell_volume   786.56988953
_cell_formula_units_Z   2
loop_
 _symmetry_equiv_pos_site_id
 _symmetry_equiv_pos_as_xyz
  1  'x, y, z'
loop_
 _atom_site_type_symbol
 _atom_site_label
 _atom_site_symmetry_multiplicity
 _atom_site_fract_x
 _atom_site_fract_y
 _atom_site_fract_z
 _atom_site_occupancy
  Ti  Ti0  1  0.42534037  0.75000000  0.75000000  1
  Ti  Ti1  1  0.84955639  0.75000000  0.10745774  1
  Ti  Ti2  1  0.08141908  0.25000000  0.25000000  1
  Ti  Ti3  1  0.15044461  0.89254226  0.25000000  1
  Ti  Ti4  1  0.15044461  0.60745774  0.25000000  1
  Ti  Ti5  1  0.15044361  0.25000000  0.89254226  1
  Ti  Ti6  1  0.91858092  0.75000000  0.75000000  1
  Ti  Ti7  1  0.84955639  0.75000000  0.39254226  1
  Ti  Ti8  1  0.15044361  0.25000000  0.60745774  1
  Ti  Ti9  1  -0.00000000  0.50000000  0.50000000  1
  Ti  Ti10  1  0.84955539  0.10745774  0.75000000  1
  Ti  Ti11  1  0.57465963  0.25000000  0.25000000  1
  Ti  Ti12  1  -0.00000000  0.00000000  0.00000000  1
  Ti  Ti13  1  0.84955539  0.39254226  0.75000000  1
  Ti  Ti14  1  -0.00000000  0.50000000  0.00000000  1
  Ti  Ti15  1  -0.00000000  0.00000000  0.50000000  1
  Bi  Bi0  1  0.65416864  0.91451239  0.91451239  1
  Bi  Bi1  1  0.19052208  0.98652571  0.75000000  1
  Bi  Bi2  1  0.50000000  0.75000000  0.25000000  1
  Bi  Bi3  1  0.34583136  0.41451239  0.41451239  1
  Bi  Bi4  1  0.80947792  0.25000000  0.48652571  1
  Bi  Bi5  1  0.65416864  0.58548761  0.91451239  1
  Bi  Bi6  1  0.80947792  0.01347429  0.25000000  1
  Bi  Bi7  1  0.19052208  0.75000000  0.98652571  1
  Bi  Bi8  1  0.19052208  0.51347429  0.75000000  1
  Bi  Bi9  1  0.19052208  0.75000000  0.51347429  1
  Bi  Bi10  1  0.65416864  0.58548761  0.58548761  1
  Bi  Bi11  1  0.80947792  0.25000000  0.01347429  1
  Bi  Bi12  1  0.50000000  0.25000000  0.75000000  1
  Bi  Bi13  1  0.80947792  0.48652571  0.25000000  1
  Bi  Bi14  1  0.34583136  0.08548761  0.41451239  1
  Bi  Bi15  1  0.34583136  0.08548761  0.08548761  1
  Bi  Bi16  1  0.65416864  0.91451239  0.58548761  1
  Bi  Bi17  1  0.34583136  0.41451239  0.08548761  1
loop_
_geom_bond_atom_site_label_1
_geom_bond_atom_site_label_2
_geom_bond_distance
_geom_bond_site_symmetry_2
Bi0 Ti12 2.854957 1_666
Bi0 Ti0 2.936144 1_555
Bi0 Ti10 2.985552 1_565
Bi0 Ti1 2.985556 1_556
Bi0 Ti6 3.096778 1_555
Bi1 Ti10 2.822620 1_465
Bi1 Ti15 2.939280 1_565
Bi1 Ti12 2.939280 1_566
Bi1 Ti0 2.994410 1_555
Bi1 Ti8 3.096420 1_565
Bi1 Ti5 3.096420 1_565
Bi1 Ti6 3.163100 1_455
Bi2 Ti4 2.982843 1_555
Bi2 Ti3 2.982843 1_555
Bi2 Ti1 2.982850 1_555
Bi2 Ti7 2.982850 1_555
Bi3 Ti9 2.854957 1_555
Bi3 Ti11 2.936144 1_555
Bi3 Ti4 2.985552 1_555
Bi3 Ti8 2.985556 1_555
Bi3 Ti2 3.096778 1_555
Bi4 Ti8 2.822614 1_655
Bi4 Ti15 2.939280 1_655
Bi4 Ti9 2.939280 1_655
Bi4 Ti11 2.994410 1_555
Bi4 Ti13 3.096419 1_555
Bi4 Ti10 3.096419 1_555
Bi4 Ti2 3.163100 1_655
Bi5 Ti14 2.854957 1_656
Bi5 Ti0 2.936144 1_555
Bi5 Ti13 2.985552 1_555
Bi5 Ti1 2.985556 1_556
Bi5 Ti6 3.096778 1_555
Bi6 Ti3 2.822620 1_645
Bi6 Ti15 2.939280 1_655
Bi6 Ti12 2.939280 1_655
Bi6 Ti11 2.994410 1_555
Bi6 Ti7 3.096420 1_545
Bi6 Ti1 3.096420 1_545
Bi6 Ti2 3.163100 1_655
Bi7 Ti1 2.822614 1_456
Bi7 Ti14 2.939280 1_556
Bi7 Ti12 2.939280 1_566
Bi7 Ti0 2.994410 1_555
Bi7 Ti4 3.096419 1_556
Bi7 Ti3 3.096419 1_556
Bi7 Ti6 3.163100 1_455
Bi8 Ti13 2.822620 1_455
Bi8 Ti14 2.939280 1_556
Bi8 Ti9 2.939280 1_555
Bi8 Ti0 2.994410 1_555
Bi8 Ti8 3.096420 1_555
Bi8 Ti5 3.096420 1_555
Bi8 Ti6 3.163100 1_455
Bi9 Ti7 2.822614 1_455
Bi9 Ti9 2.939280 1_555
Bi9 Ti15 2.939280 1_565
Bi9 Ti0 2.994410 1_555
Bi9 Ti4 3.096419 1_555
Bi9 Ti3 3.096419 1_555
Bi9 Ti6 3.163100 1_455
Bi10 Ti9 2.854957 1_655
Bi10 Ti0 2.936144 1_555
Bi10 Ti13 2.985552 1_555
Bi10 Ti7 2.985556 1_555
Bi10 Ti6 3.096778 1_555
Bi11 Ti5 2.822614 1_654
Bi11 Ti14 2.939280 1_655
Bi11 Ti12 2.939280 1_655
Bi11 Ti11 2.994410 1_555
Bi11 Ti13 3.096419 1_554
Bi11 Ti10 3.096419 1_554
Bi11 Ti2 3.163100 1_655
Bi12 Ti10 2.982843 1_555
Bi12 Ti13 2.982843 1_555
Bi12 Ti8 2.982850 1_555
Bi12 Ti5 2.982850 1_555
Bi13 Ti4 2.822620 1_655
Bi13 Ti14 2.939280 1_655
Bi13 Ti9 2.939280 1_655
Bi13 Ti11 2.994410 1_555
Bi13 Ti1 3.096420 1_555
Bi13 Ti7 3.096420 1_555
Bi13 Ti2 3.163100 1_655
Bi14 Ti15 2.854957 1_555
Bi14 Ti11 2.936144 1_555
Bi14 Ti3 2.985552 1_545
Bi14 Ti8 2.985556 1_555
Bi14 Ti2 3.096778 1_555
Bi15 Ti12 2.854957 1_555
Bi15 Ti11 2.936144 1_555
Bi15 Ti3 2.985552 1_545
Bi15 Ti5 2.985556 1_554
Bi15 Ti2 3.096778 1_555
Bi16 Ti15 2.854957 1_665
Bi16 Ti0 2.936144 1_555
Bi16 Ti10 2.985552 1_565
Bi16 Ti7 2.985556 1_555
Bi16 Ti6 3.096778 1_555
Bi17 Ti14 2.854957 1_555
Bi17 Ti11 2.936144 1_555
Bi17 Ti4 2.985552 1_555
Bi17 Ti5 2.985556 1_554
Bi17 Ti2 3.096778 1_555
