# generated using pymatgen
data_RbCS(OF)3
_symmetry_space_group_name_H-M   'P 1'
_cell_length_a   5.86024000
_cell_length_b   5.28575800
_cell_length_c   10.58239184
_cell_angle_alpha   76.40932463
_cell_angle_beta   90.00000000
_cell_angle_gamma   90.00000000
_symmetry_Int_Tables_number   1
_chemical_formula_structural   RbCS(OF)3
_chemical_formula_sum   'Rb2 C2 S2 O6 F6'
_cell_volume   318.61957155
_cell_formula_units_Z   2
loop_
 _symmetry_equiv_pos_site_id
 _symmetry_equiv_pos_as_xyz
  1  'x, y, z'
loop_
 _atom_site_type_symbol
 _atom_site_label
 _atom_site_symmetry_multiplicity
 _atom_site_fract_x
 _atom_site_fract_y
 _atom_site_fract_z
 _atom_site_occupancy
  Rb  Rb0  1  0.65226300  0.99136100  0.85613200  1
  Rb  Rb1  1  0.15226300  0.00863900  0.14386800  1
  C  C0  1  0.06649000  0.62118700  0.64804400  1
  C  C1  1  0.56649000  0.37881300  0.35195600  1
  S  S0  1  0.66873800  0.43244600  0.18006100  1
  S  S1  1  0.16873800  0.56755400  0.81993900  1
  O  O0  1  0.00908200  0.37424100  0.89197700  1
  O  O1  1  0.40351400  0.47812800  0.81429800  1
  O  O2  1  0.90351400  0.52187200  0.18570200  1
  O  O3  1  0.50908200  0.62575900  0.10802300  1
  O  O4  1  0.14814700  0.82597700  0.84695600  1
  O  O5  1  0.64814700  0.17402300  0.15304400  1
  F  F0  1  0.20353900  0.78933200  0.56541400  1
  F  F1  1  0.55982400  0.60602400  0.39043500  1
  F  F2  1  0.70353900  0.21066800  0.43458600  1
  F  F3  1  0.05982400  0.39397600  0.60956500  1
  F  F4  1  0.85100300  0.72267300  0.63701500  1
  F  F5  1  0.35100300  0.27732700  0.36298500  1
loop_
_geom_bond_atom_site_label_1
_geom_bond_atom_site_label_2
_geom_bond_distance
_geom_bond_site_symmetry_2
C0 F0 1.354373 1_555
C0 F3 1.356293 1_555
C0 F4 1.366248 1_455
C1 F2 1.354373 1_555
C1 F1 1.356293 1_555
C1 F5 1.366248 1_555
O0 S1 1.461008 1_555
O0 Rb0 2.995489 1_445
O0 Rb1 3.020446 1_556
O1 S1 1.460548 1_555
O1 Rb0 2.899246 1_545
O1 Rb0 3.200750 1_555
O2 S0 1.460548 1_555
O2 Rb1 2.899246 1_665
O2 Rb1 3.200750 1_655
O3 S0 1.461008 1_555
O3 Rb1 2.995489 1_565
O3 Rb0 3.020446 1_554
O4 S1 1.464818 1_555
O4 Rb0 3.042753 1_455
O4 Rb0 3.088859 1_555
O4 Rb1 3.497273 1_566
O5 S0 1.464818 1_555
O5 Rb1 3.042753 1_555
O5 Rb1 3.088859 1_655
O5 Rb0 3.497273 1_544
F4 Rb0 3.209035 1_555
F5 Rb1 3.209035 1_555
