# generated using pymatgen
data_Mg(FeO2)2
_symmetry_space_group_name_H-M   'P 1'
_cell_length_a   6.02463939
_cell_length_b   6.02677192
_cell_length_c   42.26990425
_cell_angle_alpha   59.91874945
_cell_angle_beta   59.88880309
_cell_angle_gamma   59.87957950
_symmetry_Int_Tables_number   1
_chemical_formula_structural   Mg(FeO2)2
_chemical_formula_sum   'Mg14 Fe28 O56'
_cell_volume   1082.68766688
_cell_formula_units_Z   14
loop_
 _symmetry_equiv_pos_site_id
 _symmetry_equiv_pos_as_xyz
  1  'x, y, z'
loop_
 _atom_site_type_symbol
 _atom_site_label
 _atom_site_symmetry_multiplicity
 _atom_site_fract_x
 _atom_site_fract_y
 _atom_site_fract_z
 _atom_site_occupancy
  Mg  Mg0  1  0.13962800  0.12504300  0.01616600  1
  Mg  Mg1  1  0.13503800  0.11943400  0.16063700  1
  Mg  Mg2  1  0.00432900  0.49797600  0.07150900  1
  Mg  Mg3  1  0.00281300  0.49934500  0.21403100  1
  Mg  Mg4  1  0.50055600  0.00160700  0.35677100  1
  Mg  Mg5  1  0.99987900  0.50094400  0.35700900  1
  Mg  Mg6  1  0.49926200  0.99976400  0.49984000  1
  Mg  Mg7  1  0.99975800  0.49911100  0.49986500  1
  Mg  Mg8  1  0.50063300  0.99999700  0.64283900  1
  Mg  Mg9  1  0.99997900  0.50066600  0.64283200  1
  Mg  Mg10  1  0.49996900  0.99930600  0.78597500  1
  Mg  Mg11  1  0.99938800  0.50016000  0.78593000  1
  Mg  Mg12  1  0.49808800  0.99839600  0.92930100  1
  Mg  Mg13  1  0.99977000  0.49880900  0.92902600  1
  Fe  Fe0  1  0.49589500  0.49629500  0.07110000  1
  Fe  Fe1  1  0.49607500  0.00623300  0.07132100  1
  Fe  Fe2  1  0.49588900  0.50075200  0.14328900  1
  Fe  Fe3  1  0.12961100  0.12919400  0.30371800  1
  Fe  Fe4  1  0.49960600  0.50131600  0.21330900  1
  Fe  Fe5  1  0.49886400  0.50189900  0.28569000  1
  Fe  Fe6  1  0.13259000  0.13250300  0.44525300  1
  Fe  Fe7  1  0.49954700  0.00733900  0.21300700  1
  Fe  Fe8  1  0.86596500  0.88060500  0.12459300  1
  Fe  Fe9  1  0.50019500  0.50028600  0.35728000  1
  Fe  Fe10  1  0.50037900  0.50111500  0.42836400  1
  Fe  Fe11  1  0.13284500  0.13288300  0.58832500  1
  Fe  Fe12  1  0.86419400  0.87794200  0.26830900  1
  Fe  Fe13  1  0.49877100  0.49864700  0.50014500  1
  Fe  Fe14  1  0.50042000  0.50046400  0.57124600  1
  Fe  Fe15  1  0.13241400  0.13274400  0.73110900  1
  Fe  Fe16  1  0.86723900  0.86701900  0.41167500  1
  Fe  Fe17  1  0.49989700  0.49993400  0.64284600  1
  Fe  Fe18  1  0.86692700  0.86692700  0.55422600  1
  Fe  Fe19  1  0.49998600  0.49996200  0.71429500  1
  Fe  Fe20  1  0.13194500  0.13213300  0.87399800  1
  Fe  Fe21  1  0.49906700  0.49933300  0.78607000  1
  Fe  Fe22  1  0.86754200  0.86763000  0.69724800  1
  Fe  Fe23  1  0.49886100  0.49794200  0.85778500  1
  Fe  Fe24  1  0.49473800  0.49485200  0.92949500  1
  Fe  Fe25  1  0.86597800  0.86617600  0.84077800  1
  Fe  Fe26  1  0.49736400  0.49634800  0.00136300  1
  Fe  Fe27  1  0.86705800  0.86857300  0.98359300  1
  O  O0  1  0.26669300  0.25040500  0.03805200  1
  O  O1  1  0.26722800  0.25372600  0.10378800  1
  O  O2  1  0.26546400  0.71861200  0.03782500  1
  O  O3  1  0.72723900  0.25085400  0.03866900  1
  O  O4  1  0.26147500  0.74296000  0.10806200  1
  O  O5  1  0.26723500  0.25437600  0.18032200  1
  O  O6  1  0.73259100  0.74395700  0.04055300  1
  O  O7  1  0.73328800  0.27207300  0.10800600  1
  O  O8  1  0.26244800  0.25237600  0.24771600  1
  O  O9  1  0.26805400  0.71445800  0.18052400  1
  O  O10  1  0.72453300  0.25606400  0.18063300  1
  O  O11  1  0.73316100  0.74270700  0.10794700  1
  O  O12  1  0.26168300  0.26583300  0.32053200  1
  O  O13  1  0.26751300  0.74508100  0.24935900  1
  O  O14  1  0.73538200  0.27295100  0.24990700  1
  O  O15  1  0.26211500  0.26171300  0.38932500  1
  O  O16  1  0.26377700  0.73314700  0.32135300  1
  O  O17  1  0.73780700  0.74421100  0.18189700  1
  O  O18  1  0.73230800  0.26800200  0.32080900  1
  O  O19  1  0.73555400  0.74618000  0.24935100  1
  O  O20  1  0.26220200  0.26234100  0.46368100  1
  O  O21  1  0.26912000  0.74052500  0.39164500  1
  O  O22  1  0.26067600  0.26074700  0.53237700  1
  O  O23  1  0.74016200  0.26902100  0.39165900  1
  O  O24  1  0.26284900  0.73301000  0.46396200  1
  O  O25  1  0.74013400  0.74268500  0.32374400  1
  O  O26  1  0.73280100  0.26305500  0.46392900  1
  O  O27  1  0.74087900  0.74183300  0.39194000  1
  O  O28  1  0.26873900  0.73904000  0.53439600  1
  O  O29  1  0.26290400  0.26306500  0.60667500  1
  O  O30  1  0.73902500  0.26846600  0.53441900  1
  O  O31  1  0.74039500  0.74009900  0.46669900  1
  O  O32  1  0.26169800  0.26188500  0.67515300  1
  O  O33  1  0.26340900  0.73378600  0.60684400  1
  O  O34  1  0.73351600  0.26342600  0.60686200  1
  O  O35  1  0.73990900  0.73978700  0.53487900  1
  O  O36  1  0.26210600  0.26221400  0.74961800  1
  O  O37  1  0.26948800  0.73969300  0.67731300  1
  O  O38  1  0.73969500  0.26930200  0.67732000  1
  O  O39  1  0.74150300  0.74140300  0.60934500  1
  O  O40  1  0.26303900  0.26326700  0.81778500  1
  O  O41  1  0.26231900  0.73367100  0.74982300  1
  O  O42  1  0.73326400  0.26236400  0.74985200  1
  O  O43  1  0.74007400  0.73995100  0.67803500  1
  O  O44  1  0.26140000  0.26104500  0.89227800  1
  O  O45  1  0.26753000  0.73802500  0.82098900  1
  O  O46  1  0.73824500  0.26744500  0.82093900  1
  O  O47  1  0.26136400  0.73518900  0.89266600  1
  O  O48  1  0.74037100  0.74035500  0.75248000  1
  O  O49  1  0.26710700  0.26609200  0.95928600  1
  O  O50  1  0.73489700  0.26077100  0.89272200  1
  O  O51  1  0.73819500  0.73791800  0.82182400  1
  O  O52  1  0.26439600  0.73419800  0.96567300  1
  O  O53  1  0.73766000  0.26508800  0.96504600  1
  O  O54  1  0.73581400  0.73688200  0.89659300  1
  O  O55  1  0.73861200  0.73506400  0.96575700  1
loop_
_geom_bond_atom_site_label_1
_geom_bond_atom_site_label_2
_geom_bond_distance
_geom_bond_site_symmetry_2
Mg0 O49 1.961332 1_554
Mg0 O2 1.999357 1_545
Mg0 O0 2.001103 1_555
Mg0 O3 2.028188 1_455
Mg1 O1 1.959797 1_555
Mg1 O9 1.990477 1_545
Mg1 O5 1.995356 1_555
Mg1 O10 2.016264 1_455
Mg2 O2 2.055392 1_555
Mg2 O0 2.056718 1_555
Mg2 O1 2.086176 1_555
Mg2 O6 2.087837 1_455
Mg2 O7 2.120884 1_455
Mg2 O11 2.133295 1_455
Mg3 O9 2.051326 1_555
Mg3 O5 2.053911 1_555
Mg3 O17 2.091317 1_455
Mg3 O14 2.106621 1_455
Mg3 O19 2.108316 1_455
Mg3 O8 2.112591 1_555
Mg4 O27 2.075770 1_545
Mg4 O15 2.081689 1_555
Mg4 O25 2.090177 1_545
Mg4 O21 2.099386 1_545
Mg4 O12 2.102360 1_555
Mg4 O18 2.124035 1_555
Mg5 O27 2.070315 1_555
Mg5 O15 2.084614 1_655
Mg5 O12 2.092822 1_655
Mg5 O23 2.095358 1_555
Mg5 O25 2.101081 1_555
Mg5 O16 2.114739 1_655
Mg6 O35 2.073374 1_555
Mg6 O22 2.085078 1_565
Mg6 O20 2.092222 1_565
Mg6 O28 2.094138 1_555
Mg6 O31 2.096646 1_555
Mg6 O26 2.117765 1_565
Mg7 O35 2.072080 1_555
Mg7 O22 2.084560 1_655
Mg7 O20 2.091064 1_655
Mg7 O30 2.094560 1_555
Mg7 O31 2.096558 1_555
Mg7 O24 2.118245 1_655
Mg8 O43 2.073031 1_555
Mg8 O32 2.082563 1_565
Mg8 O37 2.094911 1_555
Mg8 O29 2.095209 1_565
Mg8 O39 2.102339 1_555
Mg8 O34 2.115704 1_565
Mg9 O43 2.071902 1_555
Mg9 O32 2.082503 1_655
Mg9 O29 2.093764 1_655
Mg9 O38 2.095607 1_555
Mg9 O39 2.102129 1_555
Mg9 O33 2.116555 1_655
Mg10 O40 2.077432 1_565
Mg10 O51 2.087519 1_555
Mg10 O36 2.101370 1_565
Mg10 O48 2.104004 1_555
Mg10 O45 2.104383 1_555
Mg10 O42 2.115845 1_565
Mg11 O40 2.077805 1_655
Mg11 O51 2.086214 1_555
Mg11 O36 2.099649 1_655
Mg11 O48 2.103490 1_555
Mg11 O46 2.104803 1_555
Mg11 O41 2.116044 1_655
Mg12 O49 2.042729 1_565
Mg12 O54 2.092575 1_555
Mg12 O55 2.115170 1_555
Mg12 O44 2.116242 1_565
Mg12 O52 2.122564 1_555
Mg12 O50 2.127550 1_565
Mg13 O49 2.049082 1_655
Mg13 O54 2.095854 1_555
Mg13 O55 2.104793 1_555
Mg13 O44 2.111515 1_655
Mg13 O53 2.113297 1_555
Mg13 O47 2.122164 1_655
Fe0 O2 1.975854 1_555
Fe0 O1 2.007661 1_555
Fe0 O3 2.014058 1_555
Fe0 O6 2.070104 1_555
Fe0 O7 2.119170 1_555
Fe0 O4 2.157034 1_555
Fe1 O0 1.971620 1_555
Fe1 O1 2.024528 1_555
Fe1 O3 2.027371 1_555
Fe1 O6 2.039916 1_545
Fe1 O11 2.106323 1_545
Fe1 O4 2.122558 1_545
Fe2 O9 2.027388 1_555
Fe2 O7 2.027622 1_555
Fe2 O5 2.027823 1_555
Fe2 O11 2.041357 1_555
Fe2 O4 2.050503 1_555
Fe2 O10 2.091257 1_555
Fe3 O12 1.904768 1_555
Fe3 O8 1.931066 1_555
Fe3 O16 1.947005 1_545
Fe3 O18 1.952493 1_455
Fe4 O9 1.968085 1_555
Fe4 O10 2.021659 1_555
Fe4 O17 2.052665 1_555
Fe4 O8 2.070421 1_555
Fe4 O14 2.100831 1_555
Fe4 O13 2.116629 1_555
Fe5 O12 2.015772 1_555
Fe5 O18 2.043551 1_555
Fe5 O14 2.044129 1_555
Fe5 O19 2.050024 1_555
Fe5 O16 2.050257 1_555
Fe5 O13 2.071303 1_555
Fe6 O20 1.914003 1_555
Fe6 O15 1.928108 1_555
Fe6 O24 1.963601 1_545
Fe6 O26 1.963776 1_455
Fe7 O5 1.967511 1_555
Fe7 O10 2.019586 1_555
Fe7 O17 2.053402 1_545
Fe7 O8 2.079875 1_555
Fe7 O19 2.093026 1_545
Fe7 O13 2.107402 1_545
Fe8 O11 1.909021 1_555
Fe8 O7 1.925651 1_565
Fe8 O4 1.944430 1_655
Fe8 O17 1.975743 1_555
Fe9 O15 2.031632 1_555
Fe9 O23 2.049320 1_555
Fe9 O21 2.049581 1_555
Fe9 O25 2.054437 1_555
Fe9 O18 2.080275 1_555
Fe9 O16 2.081379 1_555
Fe10 O20 2.031750 1_555
Fe10 O24 2.050758 1_555
Fe10 O27 2.051049 1_555
Fe10 O26 2.052517 1_555
Fe10 O21 2.083081 1_555
Fe10 O23 2.085505 1_555
Fe11 O29 1.915209 1_555
Fe11 O22 1.929011 1_555
Fe11 O34 1.961572 1_455
Fe11 O33 1.961711 1_545
Fe12 O25 1.911356 1_555
Fe12 O19 1.937042 1_555
Fe12 O14 1.941610 1_565
Fe12 O13 1.980991 1_655
Fe13 O22 2.028437 1_555
Fe13 O28 2.046971 1_555
Fe13 O30 2.047560 1_555
Fe13 O31 2.057686 1_555
Fe13 O26 2.086023 1_555
Fe13 O24 2.086907 1_555
Fe14 O29 2.023388 1_555
Fe14 O35 2.041020 1_555
Fe14 O33 2.056826 1_555
Fe14 O34 2.057002 1_555
Fe14 O28 2.089012 1_555
Fe14 O30 2.089024 1_555
Fe15 O36 1.915381 1_555
Fe15 O32 1.929095 1_555
Fe15 O42 1.960649 1_455
Fe15 O41 1.961543 1_545
Fe16 O31 1.896984 1_555
Fe16 O27 1.920727 1_555
Fe16 O21 1.974305 1_655
Fe16 O23 1.976170 1_565
Fe17 O32 2.029425 1_555
Fe17 O37 2.050741 1_555
Fe17 O38 2.051607 1_555
Fe17 O39 2.057631 1_555
Fe17 O34 2.082819 1_555
Fe17 O33 2.083806 1_555
Fe18 O39 1.900522 1_555
Fe18 O35 1.919917 1_555
Fe18 O30 1.973767 1_565
Fe18 O28 1.973803 1_655
Fe19 O36 2.026229 1_555
Fe19 O43 2.046050 1_555
Fe19 O42 2.055914 1_555
Fe19 O41 2.056259 1_555
Fe19 O38 2.087883 1_555
Fe19 O37 2.088031 1_555
Fe20 O44 1.903561 1_555
Fe20 O40 1.937866 1_555
Fe20 O50 1.950313 1_455
Fe20 O47 1.951038 1_545
Fe21 O40 2.012241 1_555
Fe21 O48 2.054323 1_555
Fe21 O45 2.059752 1_555
Fe21 O46 2.060788 1_555
Fe21 O42 2.091944 1_555
Fe21 O41 2.092434 1_555
Fe22 O48 1.904171 1_555
Fe22 O43 1.920087 1_555
Fe22 O38 1.974460 1_565
Fe22 O37 1.974486 1_655
Fe23 O44 2.020199 1_555
Fe23 O51 2.042400 1_555
Fe23 O50 2.048705 1_555
Fe23 O47 2.051568 1_555
Fe23 O46 2.083229 1_555
Fe23 O45 2.085704 1_555
Fe24 O49 1.947229 1_555
Fe24 O54 2.058462 1_555
Fe24 O47 2.095263 1_555
Fe24 O50 2.095918 1_555
Fe24 O53 2.098644 1_555
Fe24 O52 2.101925 1_555
Fe25 O51 1.915459 1_555
Fe25 O54 1.924166 1_555
Fe25 O46 1.972458 1_565
Fe25 O45 1.972495 1_655
Fe26 O0 2.033224 1_555
Fe26 O2 2.037772 1_555
Fe26 O55 2.044665 1_554
Fe26 O52 2.058664 1_554
Fe26 O53 2.069989 1_554
Fe26 O3 2.095139 1_555
Fe27 O55 1.906064 1_555
Fe27 O53 1.948965 1_565
Fe27 O52 1.951897 1_655
Fe27 O6 1.964231 1_556
