# generated using pymatgen
data_LiH2CO3
_symmetry_space_group_name_H-M   'P 1'
_cell_length_a   4.90250000
_cell_length_b   6.56456000
_cell_length_c   9.99385700
_cell_angle_alpha   90.00000000
_cell_angle_beta   90.00000000
_cell_angle_gamma   90.00000000
_symmetry_Int_Tables_number   1
_chemical_formula_structural   LiH2CO3
_chemical_formula_sum   'Li4 H8 C4 O12'
_cell_volume   321.62985533
_cell_formula_units_Z   4
loop_
 _symmetry_equiv_pos_site_id
 _symmetry_equiv_pos_as_xyz
  1  'x, y, z'
loop_
 _atom_site_type_symbol
 _atom_site_label
 _atom_site_symmetry_multiplicity
 _atom_site_fract_x
 _atom_site_fract_y
 _atom_site_fract_z
 _atom_site_occupancy
  Li  Li0  1  0.24139800  0.38161400  0.45067200  1
  Li  Li1  1  0.74139800  0.61838600  0.54932800  1
  Li  Li2  1  0.74139800  0.88161400  0.04932800  1
  Li  Li3  1  0.24139800  0.11838600  0.95067200  1
  H  H0  1  0.64170900  0.33181300  0.21498300  1
  H  H1  1  0.14170900  0.66818700  0.78501700  1
  H  H2  1  0.14170900  0.83181300  0.28501700  1
  H  H3  1  0.64170900  0.16818700  0.71498300  1
  H  H4  1  0.12585100  0.40141900  0.12917600  1
  H  H5  1  0.62585100  0.59858100  0.87082400  1
  H  H6  1  0.62585100  0.90141900  0.37082400  1
  H  H7  1  0.12585100  0.09858100  0.62917600  1
  C  C0  1  0.75528000  0.38578400  0.30405900  1
  C  C1  1  0.25528000  0.61421600  0.69594100  1
  C  C2  1  0.25528000  0.88578400  0.19594100  1
  C  C3  1  0.75528000  0.11421600  0.80405900  1
  O  O0  1  0.19217900  0.39262500  0.03321400  1
  O  O1  1  0.69217900  0.60737500  0.96678600  1
  O  O2  1  0.69217900  0.89262500  0.46678600  1
  O  O3  1  0.19217900  0.10737500  0.53321400  1
  O  O4  1  0.01245300  0.40422500  0.29150300  1
  O  O5  1  0.51245300  0.59577500  0.70849700  1
  O  O6  1  0.51245300  0.90422500  0.20849700  1
  O  O7  1  0.01245300  0.09577500  0.79150300  1
  O  O8  1  0.62213000  0.42555600  0.40981300  1
  O  O9  1  0.12213000  0.57444400  0.59018700  1
  O  O10  1  0.12213000  0.92555600  0.09018700  1
  O  O11  1  0.62213000  0.07444400  0.90981300  1
loop_
_geom_bond_atom_site_label_1
_geom_bond_atom_site_label_2
_geom_bond_distance
_geom_bond_site_symmetry_2
Li0 O8 1.932334 1_555
Li0 O4 1.952482 1_555
Li0 O9 1.971878 1_555
Li0 O3 1.994902 1_555
Li1 O9 1.932334 1_655
Li1 O5 1.952482 1_555
Li1 O8 1.971878 1_555
Li1 O2 1.994902 1_555
Li2 O10 1.932334 1_655
Li2 O6 1.952482 1_555
Li2 O11 1.971878 1_564
Li2 O1 1.994902 1_554
Li3 O11 1.932334 1_555
Li3 O7 1.952482 1_555
Li3 O10 1.971878 1_546
Li3 O0 1.994902 1_556
H4 O0 1.014303 1_555
H4 O4 1.714984 1_555
H5 O1 1.014303 1_555
H5 O5 1.714984 1_555
H6 O2 1.014303 1_555
H6 O6 1.714984 1_555
H7 O3 1.014303 1_555
H7 O7 1.714984 1_555
C0 H0 1.108156 1_555
C0 O8 1.269366 1_555
C0 O4 1.272790 1_655
C1 H1 1.108156 1_555
C1 O9 1.269366 1_555
C1 O5 1.272790 1_555
C2 H2 1.108156 1_555
C2 O10 1.269366 1_555
C2 O6 1.272790 1_555
C3 H3 1.108156 1_555
C3 O11 1.269366 1_555
C3 O7 1.272790 1_655
