# generated using pymatgen
data_Rb28(Mg3In17)3
_symmetry_space_group_name_H-M   'P 1'
_cell_length_a   10.30837801
_cell_length_b   10.28106018
_cell_length_c   35.83996154
_cell_angle_alpha   90.00000000
_cell_angle_beta   90.00000000
_cell_angle_gamma   119.41523750
_symmetry_Int_Tables_number   1
_chemical_formula_structural   Rb28(Mg3In17)3
_chemical_formula_sum   'Rb28 Mg9 In51'
_cell_volume   3308.68500724
_cell_formula_units_Z   1
loop_
 _symmetry_equiv_pos_site_id
 _symmetry_equiv_pos_as_xyz
  1  'x, y, z'
loop_
 _atom_site_type_symbol
 _atom_site_label
 _atom_site_symmetry_multiplicity
 _atom_site_fract_x
 _atom_site_fract_y
 _atom_site_fract_z
 _atom_site_occupancy
  Rb  Rb0  1  0.00035707  0.60480102  0.40871740  1
  Rb  Rb1  1  0.99976731  0.60492929  0.90894710  1
  Rb  Rb2  1  0.24908952  0.99751255  0.34246767  1
  Rb  Rb3  1  0.24769687  0.00019328  0.84255699  1
  Rb  Rb4  1  0.99995757  0.24694479  0.15795274  1
  Rb  Rb5  1  0.99679720  0.24513600  0.65820053  1
  Rb  Rb6  1  0.33265469  0.66607844  0.99994326  1
  Rb  Rb7  1  0.33265469  0.66607844  0.50005674  1
  Rb  Rb8  1  0.60511050  0.00069623  0.90952652  1
  Rb  Rb9  1  0.39553234  0.39575017  0.09070030  1
  Rb  Rb10  1  0.39553234  0.39575017  0.40929970  1
  Rb  Rb11  1  0.39489573  0.39611838  0.90964876  1
  Rb  Rb12  1  0.39489573  0.39611838  0.59035124  1
  Rb  Rb13  1  0.24908952  0.99751255  0.15753233  1
  Rb  Rb14  1  0.24769687  0.00019328  0.65744301  1
  Rb  Rb15  1  0.75015911  0.74769782  0.34260827  1
  Rb  Rb16  1  0.75015911  0.74769782  0.15739173  1
  Rb  Rb17  1  0.74970695  0.75280436  0.65774183  1
  Rb  Rb18  1  0.74970695  0.75280436  0.84225817  1
  Rb  Rb19  1  0.66650049  0.33300332  0.00006164  1
  Rb  Rb20  1  0.66650049  0.33300332  0.49993836  1
  Rb  Rb21  1  0.60521617  0.00076633  0.09090697  1
  Rb  Rb22  1  0.60521617  0.00076633  0.40909303  1
  Rb  Rb23  1  0.60511050  0.00069623  0.59047348  1
  Rb  Rb24  1  0.00035707  0.60480102  0.09128260  1
  Rb  Rb25  1  0.99976731  0.60492929  0.59105290  1
  Rb  Rb26  1  0.99995757  0.24694479  0.34204726  1
  Rb  Rb27  1  0.99679720  0.24513600  0.84179947  1
  Mg  Mg0  1  0.29875261  0.82037350  0.75000000  1
  Mg  Mg1  1  0.17984745  0.47812640  0.25000000  1
  Mg  Mg2  1  0.17899736  0.47161390  0.75000000  1
  Mg  Mg3  1  0.52874286  0.70975087  0.25000000  1
  Mg  Mg4  1  0.47197522  0.18178032  0.25000000  1
  Mg  Mg5  1  0.48163049  0.18167362  0.75000000  1
  Mg  Mg6  1  0.70852983  0.53076623  0.75000000  1
  Mg  Mg7  1  0.99909818  0.82626850  0.25000000  1
  Mg  Mg8  1  0.82149196  0.29794930  0.25000000  1
  In  In0  1  0.00002541  0.58716576  0.30147334  1
  In  In1  1  0.00477587  0.59305237  0.80075340  1
  In  In2  1  0.99917925  0.28021545  0.54472069  1
  In  In3  1  0.99917925  0.28021545  0.95527931  1
  In  In4  1  0.29779477  0.82313773  0.25000000  1
  In  In5  1  0.33529407  0.66778454  0.17095404  1
  In  In6  1  0.33192912  0.66287989  0.67007559  1
  In  In7  1  0.99947346  0.99951430  0.07156989  1
  In  In8  1  0.33529407  0.66778454  0.32904596  1
  In  In9  1  0.99947346  0.99951430  0.42843011  1
  In  In10  1  0.99980783  0.99962543  0.57168976  1
  In  In11  1  0.33192912  0.66287989  0.82992441  1
  In  In12  1  0.17032291  0.16973858  0.25000000  1
  In  In13  1  0.17474649  0.17046850  0.75000000  1
  In  In14  1  0.20346997  0.20412011  -0.00002637  1
  In  In15  1  0.20346997  0.20412011  0.50002637  1
  In  In16  1  0.51639970  0.69458178  0.75000000  1
  In  In17  1  0.40857003  0.41341524  0.30015243  1
  In  In18  1  0.41418673  0.40783980  0.80105841  1
  In  In19  1  0.40857003  0.41341524  0.19984757  1
  In  In20  1  0.41418673  0.40783980  0.69894159  1
  In  In21  1  0.27919644  0.99835717  0.04426202  1
  In  In22  1  0.27919644  0.99835717  0.45573798  1
  In  In23  1  0.27893790  0.99839488  0.54435603  1
  In  In24  1  0.27893790  0.99839488  0.95564397  1
  In  In25  1  0.72144704  0.72065470  0.04405228  1
  In  In26  1  0.72144704  0.72065470  0.45594772  1
  In  In27  1  0.72165278  0.72075525  0.95558852  1
  In  In28  1  0.72165278  0.72075525  0.54441148  1
  In  In29  1  0.70203356  0.52464629  0.25000000  1
  In  In30  1  0.66488412  0.33271832  0.17113554  1
  In  In31  1  0.66997466  0.33663742  0.67019011  1
  In  In32  1  0.99980783  0.99962543  0.92831024  1
  In  In33  1  0.66488412  0.33271832  0.32886446  1
  In  In34  1  0.66997466  0.33663742  0.82980989  1
  In  In35  1  0.00351325  0.83176710  0.75000000  1
  In  In36  1  0.59157761  0.00466080  0.30015795  1
  In  In37  1  0.59157761  0.00466080  0.19984205  1
  In  In38  1  0.58229613  0.99853131  0.69814223  1
  In  In39  1  0.58229613  0.99853131  0.80185777  1
  In  In40  1  0.00105813  0.79362944  0.50005036  1
  In  In41  1  0.00105813  0.79362944  -0.00005036  1
  In  In42  1  0.82339167  0.30418109  0.75000000  1
  In  In43  1  0.00002541  0.58716576  0.19852666  1
  In  In44  1  0.00477587  0.59305237  0.69924660  1
  In  In45  1  0.79586175  0.00134101  0.99993332  1
  In  In46  1  0.79586175  0.00134101  0.50006668  1
  In  In47  1  0.82936350  0.99810716  0.25000000  1
  In  In48  1  0.82141063  0.99730733  0.75000000  1
  In  In49  1  0.99893898  0.28015570  0.04409398  1
  In  In50  1  0.99893898  0.28015570  0.45590602  1
loop_
_geom_bond_atom_site_label_1
_geom_bond_atom_site_label_2
_geom_bond_distance
_geom_bond_site_symmetry_2
Rb0 Rb15 4.259813 1_455
Rb0 Rb2 4.283058 1_555
Rb0 Rb26 4.385284 1_455
Rb0 Rb7 4.552723 1_555
Rb0 Rb20 4.571090 1_455
Rb1 Rb3 4.301821 1_665
Rb1 Rb18 4.303271 1_555
Rb1 Rb27 4.400487 1_555
Rb1 Rb6 4.548364 1_655
Rb1 Rb19 4.565933 1_556
Rb2 Rb22 4.365685 1_565
Rb2 Rb26 4.431812 1_465
Rb3 Rb8 4.395074 1_555
Rb4 Rb9 4.318597 1_655
Rb6 Rb9 4.527046 1_556
Rb6 Rb8 4.553402 1_565
Rb10 Rb26 4.318597 1_455
Rb10 Rb2 4.325311 1_545
Rb10 Rb15 4.379103 1_555
Rb10 Rb7 4.527046 1_555
Rb10 Rb20 4.532219 1_555
Rb11 Rb3 4.311213 1_555
Rb11 Rb27 4.348145 1_455
Rb11 Rb18 4.414069 1_555
Rb11 Rb6 4.509632 1_555
Rb11 Rb19 4.532623 1_556
Rb12 Rb14 4.311213 1_555
Rb12 Rb5 4.348145 1_455
Rb12 Rb17 4.414069 1_555
Rb12 Rb7 4.509632 1_555
Rb12 Rb20 4.532623 1_555
Rb13 Rb24 4.283058 1_555
Rb13 Rb9 4.325311 1_565
Rb13 Rb21 4.365685 1_565
Rb13 Rb4 4.431812 1_465
Rb13 Rb16 4.480326 1_455
Rb14 Rb25 4.301821 1_445
Rb14 Rb23 4.395074 1_555
Rb14 Rb5 4.407883 1_455
Rb14 Rb17 4.471746 1_445
Rb15 Rb22 4.300947 1_565
Rb15 Rb26 4.471458 1_565
Rb15 Rb2 4.480326 1_655
Rb16 Rb24 4.259813 1_655
Rb16 Rb21 4.300947 1_565
Rb16 Rb9 4.379103 1_555
Rb16 Rb4 4.471458 1_565
Rb17 Rb23 4.273283 1_565
Rb17 Rb25 4.303271 1_555
Rb17 Rb5 4.409609 1_565
Rb18 Rb8 4.273283 1_565
Rb18 Rb27 4.409609 1_565
Rb18 Rb3 4.471746 1_665
Rb19 Rb8 4.525217 1_554
Rb19 Rb9 4.532219 1_555
Rb19 Rb21 4.532953 1_555
Rb19 Rb24 4.571090 1_655
Rb20 Rb23 4.525217 1_555
Rb20 Rb22 4.532953 1_555
Rb20 Rb25 4.565933 1_555
Rb21 Rb4 4.315260 1_555
Rb21 Rb6 4.567966 1_544
Rb22 Rb26 4.315260 1_555
Rb22 Rb7 4.567966 1_545
Rb23 Rb5 4.306176 1_555
Rb23 Rb7 4.553402 1_545
Rb24 Rb4 4.385284 1_455
Rb24 Rb6 4.552723 1_554
Rb25 Rb5 4.400487 1_555
Rb25 Rb7 4.548364 1_655
Rb27 Rb8 4.306176 1_555
Rb27 Rb3 4.407883 1_655
Mg0 Mg2 3.167444 1_555
Mg0 Mg5 3.236252 1_565
Mg0 Rb14 3.956595 1_565
Mg0 Rb3 3.956595 1_565
Mg1 Mg3 3.192675 1_555
Mg1 Mg8 3.218063 1_455
Mg1 Rb4 3.954962 1_455
Mg1 Rb26 3.954962 1_455
Mg2 Rb27 3.934232 1_455
Mg2 Rb5 3.934232 1_455
Mg3 Rb16 3.937429 1_555
Mg3 Rb15 3.937429 1_555
Mg4 Mg8 3.190744 1_555
Mg4 Rb13 3.946547 1_545
Mg4 Rb2 3.946547 1_545
Mg5 Mg6 3.179020 1_555
Mg5 Rb14 3.985091 1_555
Mg5 Rb3 3.985091 1_555
Mg6 Rb17 3.920795 1_555
Mg6 Rb18 3.920795 1_555
Mg7 Rb16 4.027133 1_555
Mg7 Rb15 4.027133 1_555
Mg7 Rb2 4.033218 1_655
Mg7 Rb13 4.033218 1_655
Mg8 Rb4 3.935764 1_555
Mg8 Rb26 3.935764 1_555
In0 Mg7 3.077233 1_455
In0 Mg1 3.183918 1_555
In0 Mg8 3.202570 1_455
In0 In8 3.285456 1_555
In0 In33 3.296229 1_455
In0 In29 3.363484 1_455
In0 In4 3.375821 1_555
In0 Rb26 3.787748 1_455
In0 Rb0 3.847819 1_555
In0 Rb15 3.963262 1_455
In0 Rb2 3.988634 1_555
In1 In35 3.060001 1_555
In1 In42 3.189129 1_455
In1 Mg2 3.208655 1_555
In1 In11 3.256301 1_555
In1 Mg0 3.316237 1_555
In1 In34 3.317882 1_455
In1 Mg6 3.335226 1_455
In1 Rb27 3.830986 1_455
In1 Rb1 3.880722 1_455
In1 Rb3 3.967441 1_565
In1 Rb18 4.008202 1_455
In2 In46 3.044958 1_555
In2 In50 3.183115 1_555
In2 Rb25 3.725922 1_555
In2 Rb12 3.994955 1_655
In2 Rb23 3.997756 1_555
In2 Rb20 4.057015 1_555
In2 Rb5 4.082081 1_555
In2 Rb7 4.089224 1_655
In3 In45 3.044958 1_555
In3 In32 3.045409 1_545
In3 In49 3.183115 1_556
In3 Rb1 3.725922 1_555
In3 Rb11 3.994955 1_655
In3 Rb8 3.997756 1_555
In3 Rb19 4.057015 1_556
In3 Rb27 4.082081 1_555
In3 Rb6 4.089224 1_655
In4 Mg7 3.095013 1_455
In4 Mg3 3.122938 1_555
In4 Mg1 3.134299 1_555
In4 Mg4 3.211918 1_565
In4 In5 3.366427 1_555
In4 In8 3.366427 1_555
In4 In43 3.375821 1_555
In4 Rb13 3.915743 1_555
In4 Rb2 3.915743 1_555
In5 Mg1 3.365495 1_555
In5 Mg3 3.368017 1_555
In5 Rb13 3.933426 1_555
In5 Rb16 3.968519 1_555
In5 Rb4 4.024348 1_455
In5 Rb9 4.264581 1_555
In5 Rb24 4.277557 1_555
In5 Rb21 4.282017 1_565
In6 Mg0 3.389396 1_555
In6 Mg2 3.392981 1_555
In6 Rb17 3.960566 1_555
In6 Rb14 3.992912 1_565
In6 Rb5 3.998421 1_455
In6 Rb12 4.225635 1_555
In6 Rb25 4.253988 1_455
In6 Rb23 4.304049 1_565
In7 Rb4 4.005455 1_565
In7 Rb13 4.020617 1_655
In7 Rb16 4.028998 1_555
In7 Rb24 4.123527 1_655
In7 Rb21 4.129068 1_565
In7 Rb9 4.170964 1_665
In8 Mg1 3.365495 1_555
In8 Mg3 3.368017 1_555
In8 Rb2 3.933426 1_555
In8 Rb15 3.968519 1_555
In8 Rb26 4.024348 1_455
In8 Rb10 4.264581 1_555
In8 Rb0 4.277557 1_555
In8 Rb22 4.282017 1_565
In9 Rb26 4.005455 1_565
In9 Rb2 4.020617 1_655
In9 Rb15 4.028998 1_555
In9 Rb0 4.123527 1_655
In9 Rb22 4.129068 1_565
In9 Rb10 4.170964 1_665
In10 In2 3.045409 1_565
In10 In23 3.045475 1_655
In10 In28 3.053263 1_555
In10 In46 3.323545 1_565
In10 In15 3.329998 1_665
In10 In40 3.332361 1_655
In10 Rb14 3.995104 1_665
In10 Rb5 4.007792 1_565
In10 Rb17 4.021387 1_555
In10 Rb25 4.116606 1_555
In10 Rb23 4.129353 1_565
In10 Rb12 4.164561 1_665
In11 In39 3.291327 1_555
In11 In18 3.293719 1_555
In11 In16 3.364339 1_555
In11 Mg0 3.389396 1_555
In11 Mg2 3.392981 1_555
In11 Rb18 3.960566 1_555
In11 Rb3 3.992912 1_565
In11 Rb27 3.998421 1_455
In11 Rb11 4.225635 1_555
In11 Rb1 4.253988 1_455
In11 Rb8 4.304049 1_565
In12 Mg4 3.050649 1_555
In12 In47 3.061870 1_445
In12 Mg7 3.076154 1_445
In12 In19 3.081418 1_555
In12 In17 3.081418 1_555
In12 Mg1 3.123504 1_555
In12 Rb4 3.995841 1_455
In12 Rb26 3.995841 1_455
In12 Rb13 4.023629 1_545
In12 Rb2 4.023629 1_545
In13 In35 3.033791 1_545
In13 Mg2 3.074810 1_555
In13 In20 3.078925 1_555
In13 In18 3.078925 1_555
In13 Mg5 3.108517 1_555
In13 In48 3.172775 1_445
In13 Rb14 3.990906 1_555
In13 Rb3 3.990906 1_555
In13 Rb27 4.020212 1_455
In13 Rb5 4.020212 1_455
In14 In49 3.029150 1_455
In14 In24 3.036313 1_544
In14 In21 3.037454 1_545
In14 In3 3.038276 1_454
In14 In7 3.329617 1_445
In14 In32 3.329998 1_444
In14 Rb11 3.800519 1_554
In14 Rb9 3.813534 1_555
In14 Rb6 4.256500 1_554
In14 Rb19 4.280855 1_555
In15 In50 3.029150 1_455
In15 In23 3.036313 1_545
In15 In22 3.037454 1_545
In15 In2 3.038276 1_455
In15 In9 3.329617 1_445
In15 Rb12 3.800519 1_555
In15 Rb10 3.813534 1_555
In15 Rb7 4.256500 1_555
In15 Rb20 4.280855 1_555
In16 Mg2 3.085488 1_555
In16 Mg0 3.091338 1_555
In16 In48 3.155982 1_555
In16 Mg6 3.167901 1_555
In16 In18 3.177813 1_555
In16 In20 3.177813 1_555
In16 In6 3.364339 1_555
In16 In38 3.405263 1_555
In16 In39 3.405263 1_555
In16 Rb18 3.957457 1_555
In16 Rb17 3.957457 1_555
In17 In29 3.208104 1_555
In17 Mg3 3.215629 1_555
In17 In8 3.228388 1_555
In17 Mg1 3.282274 1_555
In17 Mg4 3.295196 1_555
In17 In33 3.298725 1_555
In17 Rb15 3.826054 1_555
In17 Rb10 3.915293 1_555
In17 Rb26 3.980524 1_455
In17 Rb2 4.047378 1_545
In18 Mg6 3.222664 1_555
In18 In34 3.232056 1_555
In18 Mg5 3.290381 1_555
In18 Mg2 3.349297 1_555
In18 Rb18 3.830414 1_555
In18 Rb11 3.895794 1_555
In18 Rb3 3.956900 1_555
In18 Rb27 4.046356 1_455
In19 In29 3.208104 1_555
In19 Mg3 3.215629 1_555
In19 In5 3.228388 1_555
In19 Mg1 3.282274 1_555
In19 Mg4 3.295196 1_555
In19 In30 3.298725 1_555
In19 Rb16 3.826054 1_555
In19 Rb9 3.915293 1_555
In19 Rb4 3.980524 1_455
In19 Rb13 4.047378 1_545
In20 Mg6 3.222664 1_555
In20 In31 3.232056 1_555
In20 Mg5 3.290381 1_555
In20 In6 3.293719 1_555
In20 Mg2 3.349297 1_555
In20 Rb17 3.830414 1_555
In20 Rb12 3.895794 1_555
In20 Rb14 3.956900 1_555
In20 Rb5 4.046356 1_455
In21 In41 3.040596 1_555
In21 In7 3.050612 1_455
In21 In24 3.176069 1_554
In21 Rb21 3.742746 1_565
In21 Rb24 4.006182 1_555
In21 Rb9 4.010955 1_565
In21 Rb6 4.043028 1_554
In21 Rb13 4.071134 1_555
In21 Rb19 4.098033 1_565
In22 In40 3.040596 1_555
In22 In9 3.050612 1_455
In22 In23 3.176069 1_555
In22 Rb22 3.742746 1_565
In22 Rb0 4.006182 1_555
In22 Rb10 4.010955 1_565
In22 Rb7 4.043028 1_555
In22 Rb2 4.071134 1_555
In22 Rb20 4.098033 1_565
In23 In40 3.038953 1_555
In23 Rb23 3.736235 1_565
In23 Rb25 4.001462 1_455
In23 Rb12 4.008148 1_565
In23 Rb7 4.044577 1_555
In23 Rb14 4.066569 1_565
In23 Rb20 4.102407 1_565
In24 In41 3.038953 1_556
In24 In32 3.045475 1_455
In24 Rb8 3.736235 1_565
In24 Rb1 4.001462 1_455
In24 Rb11 4.008148 1_565
In24 Rb6 4.044577 1_555
In24 Rb3 4.066569 1_565
In24 Rb19 4.102407 1_566
In25 In45 3.040044 1_564
In25 In41 3.040561 1_655
In25 In7 3.055335 1_555
In25 In27 3.170538 1_554
In25 Rb9 3.770533 1_555
In25 Rb24 3.989254 1_655
In25 Rb21 3.992285 1_565
In25 Rb19 4.058709 1_555
In25 Rb16 4.072417 1_555
In25 Rb6 4.082604 1_554
In26 In46 3.040044 1_565
In26 In40 3.040561 1_655
In26 In9 3.055335 1_555
In26 In28 3.170538 1_555
In26 Rb10 3.770533 1_555
In26 Rb0 3.989254 1_655
In26 Rb22 3.992285 1_565
In26 Rb20 4.058709 1_555
In26 Rb15 4.072417 1_555
In26 Rb7 4.082604 1_555
In27 In41 3.043862 1_656
In27 In45 3.043863 1_565
In27 In32 3.053263 1_555
In27 Rb11 3.762093 1_555
In27 Rb1 3.973031 1_555
In27 Rb8 3.980997 1_565
In27 Rb19 4.065675 1_556
In27 Rb18 4.073875 1_555
In27 Rb6 4.087603 1_555
In28 In40 3.043862 1_655
In28 In46 3.043863 1_565
In28 Rb12 3.762093 1_555
In28 Rb25 3.973031 1_555
In28 Rb23 3.980997 1_565
In28 Rb20 4.065675 1_555
In28 Rb17 4.073875 1_555
In28 Rb7 4.087603 1_555
In29 Mg7 3.109002 1_555
In29 Mg8 3.125327 1_555
In29 Mg4 3.136633 1_555
In29 Mg3 3.186218 1_555
In29 In30 3.359629 1_555
In29 In33 3.359629 1_555
In29 In43 3.363484 1_655
In29 Rb16 3.924754 1_555
In29 Rb15 3.924754 1_555
In30 In37 3.240627 1_555
In30 In43 3.296229 1_655
In30 Mg8 3.360048 1_555
In30 Mg4 3.364589 1_555
In30 Rb16 3.941304 1_555
In30 Rb4 3.990410 1_555
In30 Rb13 3.997036 1_545
In30 Rb9 4.266998 1_555
In30 Rb21 4.269845 1_555
In30 Rb24 4.297960 1_655
In31 In38 3.289017 1_545
In31 In44 3.317882 1_655
In31 In42 3.363418 1_555
In31 Mg5 3.383960 1_555
In31 Mg6 3.397646 1_555
In31 Rb5 3.941193 1_555
In31 Rb17 3.965730 1_555
In31 Rb14 4.041278 1_555
In31 Rb25 4.242552 1_555
In31 Rb23 4.274375 1_555
In31 Rb12 4.278521 1_555
In32 In45 3.323545 1_565
In32 In41 3.332361 1_656
In32 Rb3 3.995104 1_665
In32 Rb27 4.007792 1_565
In32 Rb18 4.021387 1_555
In32 Rb1 4.116606 1_555
In32 Rb8 4.129353 1_565
In32 Rb11 4.164561 1_665
In33 In36 3.240627 1_555
In33 Mg8 3.360048 1_555
In33 Mg4 3.364589 1_555
In33 Rb15 3.941304 1_555
In33 Rb26 3.990410 1_555
In33 Rb2 3.997036 1_545
In33 Rb10 4.266998 1_555
In33 Rb22 4.269845 1_555
In33 Rb0 4.297960 1_655
In34 In39 3.289017 1_545
In34 In42 3.363418 1_555
In34 Mg5 3.383960 1_555
In34 Mg6 3.397646 1_555
In34 Rb27 3.941193 1_555
In34 Rb18 3.965730 1_555
In34 Rb3 4.041278 1_555
In34 Rb1 4.242552 1_555
In34 Rb8 4.274375 1_555
In34 Rb11 4.278521 1_555
In35 In44 3.060001 1_555
In35 In48 3.091693 1_455
In35 Mg6 3.095127 1_455
In35 Mg0 3.102648 1_555
In35 Rb14 4.007130 1_565
In35 Rb3 4.007130 1_565
In35 Rb17 4.043642 1_455
In35 Rb18 4.043642 1_455
In36 In47 3.067028 1_545
In36 Mg4 3.205134 1_555
In36 In4 3.214689 1_545
In36 Mg3 3.303785 1_545
In36 Mg8 3.304707 1_555
In36 In8 3.325525 1_545
In36 Rb2 3.809770 1_545
In36 Rb22 3.907672 1_555
In36 Rb26 3.985009 1_555
In36 Rb15 4.025980 1_545
In37 In47 3.067028 1_545
In37 Mg4 3.205134 1_555
In37 In4 3.214689 1_545
In37 Mg3 3.303785 1_545
In37 Mg8 3.304707 1_555
In37 In5 3.325525 1_545
In37 Rb13 3.809770 1_545
In37 Rb21 3.907672 1_555
In37 Rb4 3.985009 1_555
In37 Rb16 4.025980 1_545
In38 In48 3.092021 1_555
In38 Mg5 3.161595 1_565
In38 Mg0 3.177057 1_555
In38 In6 3.291327 1_555
In38 In42 3.440115 1_565
In38 Rb14 3.752690 1_565
In38 Rb23 3.865403 1_565
In38 Rb17 3.967311 1_555
In38 Rb5 4.011641 1_565
In39 In48 3.092021 1_555
In39 Mg5 3.161595 1_565
In39 Mg0 3.177057 1_555
In39 In42 3.440115 1_565
In39 Rb3 3.752690 1_565
In39 Rb8 3.865403 1_565
In39 Rb18 3.967311 1_555
In39 Rb27 4.011641 1_565
In40 In9 3.332194 1_455
In40 Rb25 3.791586 1_455
In40 Rb0 3.803957 1_555
In40 Rb7 4.219829 1_555
In40 Rb20 4.275301 1_455
In41 In7 3.332194 1_455
In41 Rb1 3.791586 1_454
In41 Rb24 3.803957 1_555
In41 Rb6 4.219829 1_554
In41 Rb19 4.275301 1_455
In42 Mg6 3.088372 1_555
In42 Mg5 3.104727 1_555
In42 In48 3.145008 1_545
In42 In44 3.189129 1_655
In42 Mg2 3.194122 1_655
In42 Rb27 3.931200 1_555
In42 Rb5 3.931200 1_555
In43 Mg7 3.077233 1_455
In43 Mg1 3.183918 1_555
In43 Mg8 3.202570 1_455
In43 In5 3.285456 1_555
In43 Rb4 3.787748 1_455
In43 Rb24 3.847819 1_555
In43 Rb16 3.963262 1_455
In43 Rb13 3.988634 1_555
In44 Mg2 3.208655 1_555
In44 In6 3.256301 1_555
In44 Mg0 3.316237 1_555
In44 Mg6 3.335226 1_455
In44 Rb5 3.830986 1_455
In44 Rb25 3.880722 1_455
In44 Rb14 3.967441 1_565
In44 Rb17 4.008202 1_455
In45 In49 3.034770 1_556
In45 In7 3.322091 1_546
In45 Rb8 3.788464 1_555
In45 Rb21 3.805474 1_556
In45 Rb19 4.227492 1_556
In45 Rb6 4.302786 1_545
In46 In50 3.034770 1_555
In46 In9 3.322091 1_545
In46 Rb23 3.788464 1_555
In46 Rb22 3.805474 1_555
In46 Rb20 4.227492 1_555
In46 Rb7 4.302786 1_545
In47 Mg7 3.036269 1_555
In47 Mg3 3.060715 1_555
In47 Mg8 3.123347 1_565
In47 Rb4 4.012669 1_565
In47 Rb26 4.012669 1_565
In47 Rb15 4.030644 1_555
In47 Rb16 4.030644 1_555
In48 Rb17 3.996664 1_555
In48 Rb18 3.996664 1_555
In48 Rb5 4.007555 1_565
In48 Rb27 4.007555 1_565
In49 In7 3.051271 1_545
In49 Rb24 3.735345 1_655
In49 Rb21 4.010844 1_555
In49 Rb9 4.017923 1_655
In49 Rb19 4.044532 1_555
In49 Rb6 4.083305 1_654
In49 Rb4 4.095397 1_555
In50 In9 3.051271 1_545
In50 Rb0 3.735345 1_655
In50 Rb22 4.010844 1_555
In50 Rb10 4.017923 1_655
In50 Rb20 4.044532 1_555
In50 Rb7 4.083305 1_655
In50 Rb26 4.095397 1_555
