# generated using pymatgen
data_V(MoS2)2
_symmetry_space_group_name_H-M   'P 1'
_cell_length_a   6.79900600
_cell_length_b   9.64509041
_cell_length_c   15.68887563
_cell_angle_alpha   86.58627013
_cell_angle_beta   79.46107833
_cell_angle_gamma   72.29966553
_symmetry_Int_Tables_number   1
_chemical_formula_structural   V(MoS2)2
_chemical_formula_sum   'V8 Mo16 S32'
_cell_volume   963.58237932
_cell_formula_units_Z   8
loop_
 _symmetry_equiv_pos_site_id
 _symmetry_equiv_pos_as_xyz
  1  'x, y, z'
loop_
 _atom_site_type_symbol
 _atom_site_label
 _atom_site_symmetry_multiplicity
 _atom_site_fract_x
 _atom_site_fract_y
 _atom_site_fract_z
 _atom_site_occupancy
  V  V0  1  0.75017100  0.95789600  0.41313200  1
  V  V1  1  0.46717300  0.03534100  0.08320500  1
  V  V2  1  0.17039600  0.82023600  0.30243200  1
  V  V3  1  0.22253100  0.50545600  0.91355700  1
  V  V4  1  0.86081400  0.04466900  0.09405700  1
  V  V5  1  0.83614900  0.08783400  0.63377000  1
  V  V6  1  0.67934200  0.77936800  0.82255700  1
  V  V7  1  0.37176600  0.02630800  0.60457800  1
  Mo  Mo0  1  0.50186000  0.68114600  0.05694300  1
  Mo  Mo1  1  0.75279300  0.54423400  0.37050900  1
  Mo  Mo2  1  0.17081200  0.37372400  0.19094600  1
  Mo  Mo3  1  0.95297400  0.63986700  0.55846000  1
  Mo  Mo4  1  0.05746700  0.76173800  0.15127400  1
  Mo  Mo5  1  0.42827900  0.16836300  0.30924800  1
  Mo  Mo6  1  0.36730700  0.94262100  0.92735000  1
  Mo  Mo7  1  0.28217900  0.96575600  0.42198400  1
  Mo  Mo8  1  0.69169500  0.39156600  0.68389500  1
  Mo  Mo9  1  0.71972700  0.45627400  0.17695000  1
  Mo  Mo10  1  0.49898300  0.70955800  0.53185000  1
  Mo  Mo11  1  0.02350900  0.15218100  0.30269000  1
  Mo  Mo12  1  0.94008000  0.17383200  0.79027000  1
  Mo  Mo13  1  0.75475700  0.94650400  0.93539300  1
  Mo  Mo14  1  0.20796300  0.47569700  0.66808800  1
  Mo  Mo15  1  0.53290300  0.17508000  0.78466900  1
  S  S0  1  0.22306700  0.91976700  0.07333400  1
  S  S1  1  0.35339200  0.98239200  0.23856400  1
  S  S2  1  0.99413100  0.22518800  0.14984100  1
  S  S3  1  0.79503500  0.47892100  0.02491200  1
  S  S4  1  0.88996800  0.59809000  0.22545200  1
  S  S5  1  0.70960500  0.87647900  0.56329600  1
  S  S6  1  0.75524900  0.82871000  0.07301800  1
  S  S7  1  0.43953600  0.14187900  0.46169400  1
  S  S8  1  0.11949000  0.35736300  0.34249500  1
  S  S9  1  0.95486500  0.70659000  0.40046400  1
  S  S10  1  0.83489500  0.96303600  0.75994100  1
  S  S11  1  0.85865500  0.96073600  0.25931300  1
  S  S12  1  0.49428900  0.24141400  0.64091300  1
  S  S13  1  0.53328000  0.22709800  0.15299100  1
  S  S14  1  0.30409100  0.50937800  0.51857100  1
  S  S15  1  0.23968500  0.53786100  0.06036700  1
  S  S16  1  0.40606400  0.62544000  0.68755600  1
  S  S17  1  0.38316500  0.63982500  0.20947600  1
  S  S18  1  0.16686400  0.89363200  0.56968700  1
  S  S19  1  0.97611300  0.10359400  0.94361600  1
  S  S20  1  0.91986300  0.10907800  0.45658800  1
  S  S21  1  0.62888500  0.36957100  0.83628500  1
  S  S22  1  0.65531700  0.33550000  0.31833100  1
  S  S23  1  0.42509300  0.68658000  0.90834200  1
  S  S24  1  0.43402400  0.71883100  0.38391700  1
  S  S25  1  0.33797700  0.99179400  0.76961000  1
  S  S26  1  0.04153600  0.23343300  0.64342800  1
  S  S27  1  0.77623900  0.48362500  0.52365800  1
  S  S28  1  0.84707700  0.59396600  0.70989700  1
  S  S29  1  0.43749500  0.16980300  0.95783200  1
  S  S30  1  0.16396600  0.34704400  0.81128900  1
  S  S31  1  0.96945900  0.70813600  0.88351500  1
loop_
_geom_bond_atom_site_label_1
_geom_bond_atom_site_label_2
_geom_bond_distance
_geom_bond_site_symmetry_2
Mo0 S3 2.327297 1_555
Mo0 S17 2.431548 1_555
Mo0 S23 2.474764 1_554
Mo0 S0 2.489077 1_555
Mo0 S15 2.558185 1_555
Mo0 S6 2.598077 1_555
Mo1 S24 2.287671 1_555
Mo1 S4 2.386676 1_555
Mo1 S27 2.460986 1_555
Mo1 S9 2.488506 1_555
Mo1 S22 2.523615 1_555
Mo1 S8 2.572682 1_655
Mo2 S2 2.313279 1_455
Mo2 S8 2.342031 1_555
Mo2 S4 2.422986 1_455
Mo2 S13 2.423254 1_555
Mo2 S15 2.576056 1_555
Mo3 S14 2.322695 1_655
Mo3 S27 2.334967 1_555
Mo3 S5 2.372835 1_555
Mo3 S28 2.408731 1_555
Mo3 S9 2.522314 1_555
Mo4 S0 2.324661 1_555
Mo4 S4 2.352040 1_455
Mo4 S17 2.479632 1_555
Mo4 S6 2.483556 1_455
Mo4 S15 2.515020 1_555
Mo4 S11 2.521077 1_455
Mo5 S8 2.321269 1_555
Mo5 S1 2.388552 1_545
Mo5 S7 2.402849 1_555
Mo5 S13 2.506141 1_555
Mo5 S22 2.573479 1_555
Mo5 S11 2.995223 1_545
Mo6 S0 2.346405 1_556
Mo6 S23 2.407648 1_555
Mo6 S29 2.470195 1_565
Mo6 S25 2.524360 1_555
Mo6 V6 2.585401 1_555
Mo6 S19 2.614899 1_465
Mo7 S24 2.354428 1_555
Mo7 S20 2.409027 1_465
Mo7 S7 2.427633 1_565
Mo7 S18 2.437936 1_555
Mo7 S1 2.832603 1_555
Mo8 S21 2.358947 1_555
Mo8 S26 2.396633 1_655
Mo8 S12 2.445987 1_555
Mo8 S16 2.484730 1_555
Mo8 S28 2.569047 1_555
Mo8 S27 2.637160 1_555
Mo9 S4 2.280041 1_555
Mo9 S3 2.357700 1_555
Mo9 S17 2.418244 1_555
Mo9 S2 2.433812 1_555
Mo9 S22 2.473030 1_555
Mo9 S13 2.934507 1_555
Mo10 S27 2.401148 1_555
Mo10 S18 2.408478 1_555
Mo10 S24 2.432257 1_555
Mo10 S16 2.556558 1_555
Mo10 S5 2.577020 1_555
Mo10 S14 2.689166 1_555
Mo11 S8 2.411192 1_555
Mo11 S1 2.421115 1_545
Mo11 S20 2.436260 1_455
Mo11 S2 2.484929 1_455
Mo11 S22 2.566841 1_455
Mo11 S11 2.610781 1_445
Mo12 S26 2.369768 1_655
Mo12 S21 2.395140 1_555
Mo12 S10 2.448548 1_545
Mo12 S19 2.495505 1_555
Mo12 S30 2.648115 1_655
Mo12 S25 2.713885 1_645
Mo13 S6 2.379299 1_556
Mo13 S31 2.413830 1_555
Mo13 S19 2.461350 1_565
Mo13 S29 2.530413 1_565
Mo13 Mo6 2.671869 1_555
Mo13 V6 2.677678 1_555
Mo13 S10 2.711322 1_555
Mo13 V1 2.737571 1_566
Mo13 V4 2.994205 1_566
Mo14 S16 2.319325 1_555
Mo14 S14 2.347931 1_555
Mo14 S28 2.355919 1_455
Mo14 S12 2.492767 1_555
Mo14 S30 2.514875 1_555
Mo14 S26 2.960676 1_555
Mo15 S12 2.346822 1_555
Mo15 S21 2.391482 1_555
Mo15 S10 2.408055 1_545
Mo15 S30 2.527230 1_555
Mo15 S25 2.554669 1_545
Mo15 S29 2.676371 1_555
S0 V1 2.293620 1_565
S0 V4 2.360646 1_465
S1 V2 2.353457 1_555
S1 V1 2.490474 1_565
S2 V4 2.459754 1_555
S3 V3 3.179187 1_654
S5 V7 2.309268 1_565
S5 V0 2.432426 1_555
S5 V5 2.793076 1_565
S6 V1 2.320241 1_565
S6 V4 2.457718 1_565
S7 V0 2.341673 1_545
S7 V7 2.473239 1_555
S9 V2 2.380308 1_655
S9 V0 2.399261 1_555
S10 V5 2.254683 1_565
S10 V6 2.402859 1_555
S11 V2 2.335640 1_655
S11 V0 2.392034 1_555
S11 V4 2.668504 1_565
S12 V5 2.332399 1_555
S12 V7 2.586285 1_555
S13 V1 2.397519 1_555
S13 V4 2.442928 1_555
S15 V3 2.371196 1_554
S17 V2 2.290685 1_555
S18 V7 2.307478 1_565
S18 V5 2.532086 1_465
S19 V4 2.437755 1_556
S20 V0 2.313286 1_545
S20 V5 2.741800 1_555
S21 V3 2.753664 1_555
S23 V6 2.355147 1_555
S23 V3 2.521914 1_555
S24 V2 2.329584 1_555
S25 V7 2.567810 1_565
S25 V6 2.808139 1_555
S26 V5 2.289163 1_455
S26 V7 2.514058 1_555
S28 V6 2.453847 1_555
S29 V1 2.296489 1_556
S29 V3 3.213375 1_555
S30 V3 2.441914 1_555
S31 V6 2.250599 1_555
S31 V3 2.268445 1_655
