# generated using pymatgen
data_Cr3Co2As2(CO)20
_symmetry_space_group_name_H-M   'P 1'
_cell_length_a   9.07354100
_cell_length_b   9.41371254
_cell_length_c   22.31989448
_cell_angle_alpha   78.78677937
_cell_angle_beta   81.12916358
_cell_angle_gamma   62.07500286
_symmetry_Int_Tables_number   1
_chemical_formula_structural   Cr3Co2As2(CO)20
_chemical_formula_sum   'Cr6 Co4 As4 C40 O40'
_cell_volume   1647.93628715
_cell_formula_units_Z   2
loop_
 _symmetry_equiv_pos_site_id
 _symmetry_equiv_pos_as_xyz
  1  'x, y, z'
loop_
 _atom_site_type_symbol
 _atom_site_label
 _atom_site_symmetry_multiplicity
 _atom_site_fract_x
 _atom_site_fract_y
 _atom_site_fract_z
 _atom_site_occupancy
  Cr  Cr0  1  0.30910000  0.78597200  0.24386600  1
  Cr  Cr1  1  0.69090000  0.21402800  0.75613400  1
  Cr  Cr2  1  0.19201700  0.58954000  0.08719100  1
  Cr  Cr3  1  0.80798300  0.41046000  0.91280900  1
  Cr  Cr4  1  0.91471400  0.85663800  0.41410300  1
  Cr  Cr5  1  0.08528600  0.14336200  0.58589700  1
  Co  Co0  1  0.21969400  0.52570200  0.28462400  1
  Co  Co1  1  0.78030600  0.47429800  0.71537600  1
  Co  Co2  1  0.96788900  0.94425800  0.21488200  1
  Co  Co3  1  0.03211100  0.05574200  0.78511800  1
  As  As0  1  0.17452100  0.68795200  0.18572900  1
  As  As1  1  0.82547900  0.31204800  0.81427100  1
  As  As2  1  0.06513100  0.79233300  0.31227000  1
  As  As3  1  0.93486900  0.20766700  0.68773000  1
  C  C0  1  0.35001100  0.92003300  0.17513800  1
  C  C1  1  0.64998900  0.07996700  0.82486200  1
  C  C2  1  0.24750200  0.97862600  0.27742600  1
  C  C3  1  0.75249800  0.02137400  0.72257400  1
  C  C4  1  0.45354500  0.70073400  0.30869700  1
  C  C5  1  0.54645500  0.29926600  0.69130300  1
  C  C6  1  0.50813300  0.63384400  0.20517100  1
  C  C7  1  0.49186700  0.36615600  0.79482900  1
  C  C8  1  0.03479300  0.50674900  0.28885000  1
  C  C9  1  0.96520700  0.49325100  0.71115000  1
  C  C10  1  0.37021900  0.35377400  0.25000700  1
  C  C11  1  0.62978100  0.64622600  0.74999300  1
  C  C12  1  0.29905300  0.44358100  0.35909400  1
  C  C13  1  0.70094700  0.55641900  0.64090600  1
  C  C14  1  0.86378400  0.12732500  0.24865800  1
  C  C15  1  0.13621600  0.87267500  0.75134200  1
  C  C16  1  0.97548800  0.04445900  0.13814000  1
  C  C17  1  0.02451200  0.95554100  0.86186000  1
  C  C18  1  0.81261600  0.88256300  0.21768600  1
  C  C19  1  0.18738400  0.11743700  0.78231400  1
  C  C20  1  0.19975000  0.51990500  0.01243200  1
  C  C21  1  0.80025000  0.48009500  0.98756800  1
  C  C22  1  0.27161100  0.74236100  0.04702700  1
  C  C23  1  0.72838900  0.25763900  0.95297300  1
  C  C24  1  0.96439400  0.74413600  0.07549000  1
  C  C25  1  0.03560600  0.25586400  0.92451000  1
  C  C26  1  0.11842900  0.43616800  0.13027200  1
  C  C27  1  0.88157100  0.56383200  0.86972800  1
  C  C28  1  0.41968000  0.43177000  0.09453900  1
  C  C29  1  0.58032000  0.56823000  0.90546100  1
  C  C30  1  0.80089100  0.89890800  0.49180200  1
  C  C31  1  0.19910900  0.10109200  0.50819800  1
  C  C32  1  0.12731100  0.76254700  0.44810000  1
  C  C33  1  0.87268900  0.23745300  0.55190000  1
  C  C34  1  0.70686100  0.95341500  0.37796300  1
  C  C35  1  0.29313900  0.04658500  0.62203700  1
  C  C36  1  0.90930200  0.65278500  0.42940800  1
  C  C37  1  0.09069800  0.34721500  0.57059200  1
  C  C38  1  0.91274900  0.06410800  0.40338400  1
  C  C39  1  0.08725100  0.93589200  0.59661600  1
  O  O0  1  0.37580500  0.00163600  0.13322800  1
  O  O1  1  0.62419500  0.99836400  0.86677200  1
  O  O2  1  0.21616900  0.09606400  0.29684700  1
  O  O3  1  0.78383100  0.90393600  0.70315300  1
  O  O4  1  0.54074300  0.65001000  0.34848800  1
  O  O5  1  0.45925700  0.34999000  0.65151200  1
  O  O6  1  0.63200900  0.54802500  0.18089300  1
  O  O7  1  0.36799100  0.45197500  0.81910700  1
  O  O8  1  0.91620900  0.48861500  0.29160200  1
  O  O9  1  0.08379100  0.51138500  0.70839800  1
  O  O10  1  0.46269600  0.23914600  0.22817800  1
  O  O11  1  0.53730400  0.76085400  0.77182200  1
  O  O12  1  0.35113100  0.38776200  0.40667800  1
  O  O13  1  0.64886900  0.61223800  0.59332200  1
  O  O14  1  0.78887000  0.24516900  0.27054800  1
  O  O15  1  0.21113000  0.75483100  0.72945200  1
  O  O16  1  0.97857700  0.10897000  0.08875000  1
  O  O17  1  0.02142300  0.89103000  0.91125000  1
  O  O18  1  0.70605200  0.84703100  0.21854800  1
  O  O19  1  0.29394800  0.15296900  0.78145200  1
  O  O20  1  0.20261100  0.47636700  0.96683400  1
  O  O21  1  0.79738900  0.52363300  0.03316600  1
  O  O22  1  0.32512200  0.83113800  0.02338200  1
  O  O23  1  0.67487800  0.16886200  0.97661800  1
  O  O24  1  0.82590200  0.83543900  0.06819400  1
  O  O25  1  0.17409800  0.16456100  0.93180600  1
  O  O26  1  0.07319200  0.34310000  0.15691800  1
  O  O27  1  0.92680800  0.65690000  0.84308200  1
  O  O28  1  0.55869600  0.33526200  0.09597900  1
  O  O29  1  0.44130400  0.66473800  0.90402100  1
  O  O30  1  0.72907800  0.92525300  0.53928600  1
  O  O31  1  0.27092200  0.07474700  0.46071400  1
  O  O32  1  0.25514700  0.70941000  0.46877000  1
  O  O33  1  0.74485300  0.29059000  0.53123000  1
  O  O34  1  0.58008100  0.01289400  0.35570800  1
  O  O35  1  0.41991900  0.98710600  0.64429200  1
  O  O36  1  0.90281100  0.53016800  0.43959300  1
  O  O37  1  0.09718900  0.46983200  0.56040700  1
  O  O38  1  0.90761100  0.19068000  0.40007100  1
  O  O39  1  0.09238900  0.80932000  0.59992900  1
loop_
_geom_bond_atom_site_label_1
_geom_bond_atom_site_label_2
_geom_bond_distance
_geom_bond_site_symmetry_2
As0 Co0 2.398878 1_555
As0 Co2 2.399469 1_455
As0 Cr0 2.456838 1_555
As0 Cr2 2.503526 1_555
As1 Co1 2.398878 1_555
As1 Co3 2.399469 1_655
As1 Cr1 2.456838 1_555
As1 Cr3 2.503526 1_555
As2 Co0 2.384545 1_555
As2 Co2 2.397784 1_455
As2 Cr0 2.470617 1_555
As2 Cr4 2.489940 1_455
As3 Co1 2.384545 1_555
As3 Co3 2.397784 1_655
As3 Cr1 2.470617 1_555
As3 Cr5 2.489940 1_655
C0 O0 1.158151 1_565
C0 Cr0 1.895750 1_555
C1 O1 1.158151 1_545
C1 Cr1 1.895750 1_555
C2 O2 1.159700 1_565
C2 Cr0 1.900629 1_555
C3 O3 1.159700 1_545
C3 Cr1 1.900629 1_555
C4 O4 1.157886 1_555
C4 Cr0 1.898366 1_555
C5 O5 1.157886 1_555
C5 Cr1 1.898366 1_555
C6 O6 1.158261 1_555
C6 Cr0 1.906784 1_555
C7 O7 1.158261 1_555
C7 Cr1 1.906784 1_555
C8 O8 1.156813 1_455
C8 Co0 1.755119 1_555
C9 O9 1.156813 1_655
C9 Co1 1.755119 1_555
C10 O10 1.155935 1_555
C10 Co0 1.781099 1_555
C11 O11 1.155935 1_555
C11 Co1 1.781099 1_555
C12 O12 1.154366 1_555
C12 Co0 1.796360 1_555
C13 O13 1.154366 1_555
C13 Co1 1.796360 1_555
C14 O14 1.154774 1_555
C14 Co2 1.786462 1_545
C15 O15 1.154774 1_555
C15 Co3 1.786462 1_565
C16 O16 1.153633 1_555
C16 Co2 1.795703 1_545
C17 O17 1.153633 1_555
C17 Co3 1.795703 1_565
C18 O18 1.158386 1_555
C18 Co2 1.746773 1_555
C19 O19 1.158386 1_555
C19 Co3 1.746773 1_555
C20 O20 1.161279 1_554
C20 Cr2 1.888153 1_555
C21 O21 1.161279 1_556
C21 Cr3 1.888153 1_555
C22 O22 1.158529 1_555
C22 Cr2 1.914861 1_555
C23 O23 1.158529 1_555
C23 Cr3 1.914861 1_555
C24 O24 1.158186 1_555
C24 Cr2 1.911829 1_655
C25 O25 1.158186 1_555
C25 Cr3 1.911829 1_455
C26 O26 1.161313 1_555
C26 Cr2 1.902623 1_555
C27 O27 1.161313 1_555
C27 Cr3 1.902623 1_555
C28 O28 1.159856 1_555
C28 Cr2 1.906844 1_555
C29 O29 1.159856 1_555
C29 Cr3 1.906844 1_555
C30 O30 1.160699 1_555
C30 Cr4 1.887752 1_555
C31 O31 1.160699 1_555
C31 Cr5 1.887752 1_555
C32 O32 1.157727 1_555
C32 Cr4 1.916015 1_455
C33 O33 1.157727 1_555
C33 Cr5 1.916015 1_655
C34 O34 1.161171 1_565
C34 Cr4 1.900419 1_555
C35 O35 1.161171 1_545
C35 Cr5 1.900419 1_555
C36 O36 1.159743 1_555
C36 Cr4 1.905217 1_555
C37 O37 1.159743 1_555
C37 Cr5 1.905217 1_555
C38 O38 1.158495 1_555
C38 Cr4 1.912847 1_545
C39 O39 1.158495 1_555
C39 Cr5 1.912847 1_565
