# generated using pymatgen
data_Bi2AuO5
_symmetry_space_group_name_H-M   'P 1'
_cell_length_a   8.65175316
_cell_length_b   8.65175316
_cell_length_c   5.76529422
_cell_angle_alpha   90.00000000
_cell_angle_beta   90.00000000
_cell_angle_gamma   90.00000000
_symmetry_Int_Tables_number   1
_chemical_formula_structural   Bi2AuO5
_chemical_formula_sum   'Bi8 Au4 O20'
_cell_volume   431.54860396
_cell_formula_units_Z   4
loop_
 _symmetry_equiv_pos_site_id
 _symmetry_equiv_pos_as_xyz
  1  'x, y, z'
loop_
 _atom_site_type_symbol
 _atom_site_label
 _atom_site_symmetry_multiplicity
 _atom_site_fract_x
 _atom_site_fract_y
 _atom_site_fract_z
 _atom_site_occupancy
  Bi  Bi0  1  0.35221921  0.64778079  0.25000000  1
  Bi  Bi1  1  0.85221921  0.14778079  0.75000000  1
  Bi  Bi2  1  0.64778079  0.64778079  0.75000000  1
  Bi  Bi3  1  0.64778079  0.35221921  0.25000000  1
  Bi  Bi4  1  0.85221921  0.85221921  0.25000000  1
  Bi  Bi5  1  0.14778079  0.85221921  0.75000000  1
  Bi  Bi6  1  0.35221921  0.35221921  0.75000000  1
  Bi  Bi7  1  0.14778079  0.14778079  0.25000000  1
  Au  Au0  1  0.50000000  -0.00000000  0.39925359  1
  Au  Au1  1  0.50000000  -0.00000000  0.89925359  1
  Au  Au2  1  0.00000000  0.50000000  0.10074641  1
  Au  Au3  1  0.00000000  0.50000000  0.60074641  1
  O  O0  1  0.08030929  0.28526208  0.61469178  1
  O  O1  1  0.91969071  0.28526208  0.11469178  1
  O  O2  1  0.91969071  0.71473792  0.61469178  1
  O  O3  1  0.71473792  0.91969071  0.88530822  1
  O  O4  1  0.21473792  0.58030929  0.61469178  1
  O  O5  1  0.41969071  0.78526208  0.88530822  1
  O  O6  1  0.41969071  0.21473792  0.38530822  1
  O  O7  1  0.78526208  0.58030929  0.11469178  1
  O  O8  1  0.28526208  0.91969071  0.38530822  1
  O  O9  1  0.58030929  0.21473792  0.88530822  1
  O  O10  1  0.50000000  0.50000000  -0.00000000  1
  O  O11  1  0.50000000  0.50000000  0.50000000  1
  O  O12  1  0.78526208  0.41969071  0.61469178  1
  O  O13  1  0.08030929  0.71473792  0.11469178  1
  O  O14  1  0.28526208  0.08030929  0.88530822  1
  O  O15  1  0.58030929  0.78526208  0.38530822  1
  O  O16  1  0.21473792  0.41969071  0.11469178  1
  O  O17  1  0.00000000  -0.00000000  -0.00000000  1
  O  O18  1  0.00000000  -0.00000000  0.50000000  1
  O  O19  1  0.71473792  0.08030929  0.38530822  1
loop_
_geom_bond_atom_site_label_1
_geom_bond_atom_site_label_2
_geom_bond_distance
_geom_bond_site_symmetry_2
Bi0 O10 2.312328 1_555
Bi0 O11 2.312328 1_555
Bi0 O16 2.432605 1_555
Bi0 O15 2.432605 1_555
Bi0 O4 2.485216 1_555
Bi0 O5 2.485216 1_554
Bi0 O13 2.545265 1_555
Bi0 O8 2.545265 1_555
Bi1 O17 2.312328 1_656
Bi1 O18 2.312328 1_655
Bi1 O0 2.432605 1_655
Bi1 O3 2.432605 1_545
Bi1 O19 2.485216 1_555
Bi1 O1 2.485216 1_556
Bi1 O12 2.545265 1_555
Bi1 O9 2.545265 1_555
Bi2 O10 2.312328 1_556
Bi2 O11 2.312328 1_555
Bi2 O5 2.432605 1_555
Bi2 O12 2.432605 1_555
Bi2 O15 2.485216 1_555
Bi2 O7 2.485216 1_556
Bi2 O2 2.545265 1_555
Bi2 O3 2.545265 1_555
Bi3 O10 2.312328 1_555
Bi3 O11 2.312328 1_555
Bi3 O6 2.432605 1_555
Bi3 O7 2.432605 1_555
Bi3 O12 2.485216 1_555
Bi3 O9 2.485216 1_554
Bi3 O1 2.545265 1_555
Bi3 O19 2.545265 1_555
Bi4 O17 2.312328 1_665
Bi4 O18 2.312328 1_665
Bi4 O19 2.432605 1_565
Bi4 O13 2.432605 1_655
Bi4 O3 2.485216 1_554
Bi4 O2 2.485216 1_555
Bi4 O7 2.545265 1_555
Bi4 O15 2.545265 1_555
Bi5 O18 2.312328 1_565
Bi5 O17 2.312328 1_566
Bi5 O14 2.432605 1_565
Bi5 O2 2.432605 1_455
Bi5 O8 2.485216 1_555
Bi5 O13 2.485216 1_556
Bi5 O4 2.545265 1_555
Bi5 O5 2.545265 1_555
Bi6 O10 2.312328 1_556
Bi6 O11 2.312328 1_555
Bi6 O9 2.432605 1_555
Bi6 O4 2.432605 1_555
Bi6 O6 2.485216 1_555
Bi6 O16 2.485216 1_556
Bi6 O14 2.545265 1_555
Bi6 O0 2.545265 1_555
Bi7 O18 2.312328 1_555
Bi7 O17 2.312328 1_555
Bi7 O1 2.432605 1_455
Bi7 O8 2.432605 1_545
Bi7 O0 2.485216 1_555
Bi7 O14 2.485216 1_554
Bi7 O16 2.545265 1_555
Bi7 O6 2.545265 1_555
Au0 O8 1.985164 1_545
Au0 O6 1.985164 1_555
Au0 O15 1.985164 1_545
Au0 O19 1.985164 1_555
Au1 O9 1.985164 1_555
Au1 O14 1.985164 1_555
Au1 O5 1.985164 1_545
Au1 O3 1.985164 1_545
Au2 O1 1.985164 1_455
Au2 O16 1.985164 1_555
Au2 O13 1.985164 1_555
Au2 O7 1.985164 1_455
Au3 O4 1.985164 1_555
Au3 O0 1.985164 1_555
Au3 O12 1.985164 1_455
Au3 O2 1.985164 1_455
