# generated using pymatgen
data_HSO3F
_symmetry_space_group_name_H-M   'P 1'
_cell_length_a   5.97551800
_cell_length_b   8.31710700
_cell_length_c   9.21656400
_cell_angle_alpha   90.00000000
_cell_angle_beta   90.00000000
_cell_angle_gamma   90.00000000
_symmetry_Int_Tables_number   1
_chemical_formula_structural   HSO3F
_chemical_formula_sum   'H4 S4 O12 F4'
_cell_volume   458.05422241
_cell_formula_units_Z   4
loop_
 _symmetry_equiv_pos_site_id
 _symmetry_equiv_pos_as_xyz
  1  'x, y, z'
loop_
 _atom_site_type_symbol
 _atom_site_label
 _atom_site_symmetry_multiplicity
 _atom_site_fract_x
 _atom_site_fract_y
 _atom_site_fract_z
 _atom_site_occupancy
  H  H0  1  0.18477600  0.64386900  0.72807500  1
  H  H1  1  0.31522400  0.35613100  0.22807500  1
  H  H2  1  0.68477600  0.85613100  0.27192500  1
  H  H3  1  0.81522400  0.14386900  0.77192500  1
  S  S0  1  0.79374200  0.53945000  0.04028200  1
  S  S1  1  0.70625800  0.46055000  0.54028200  1
  S  S2  1  0.29374200  0.96055000  0.95971800  1
  S  S3  1  0.20625800  0.03945000  0.45971800  1
  O  O0  1  0.77406700  0.14222400  0.87594000  1
  O  O1  1  0.72593300  0.85777600  0.37594000  1
  O  O2  1  0.27406700  0.35777600  0.12406000  1
  O  O3  1  0.22593300  0.64222400  0.62406000  1
  O  O4  1  0.84618600  0.53245800  0.88676200  1
  O  O5  1  0.65381400  0.46754200  0.38676200  1
  O  O6  1  0.34618600  0.96754200  0.11323800  1
  O  O7  1  0.15381400  0.03245800  0.61323800  1
  O  O8  1  0.79128700  0.69714600  0.10733200  1
  O  O9  1  0.70871300  0.30285400  0.60733200  1
  O  O10  1  0.29128700  0.80285400  0.89266800  1
  O  O11  1  0.20871300  0.19714600  0.39266800  1
  F  F0  1  0.31394900  0.52788800  0.09332000  1
  F  F1  1  0.18605100  0.47211200  0.59332000  1
  F  F2  1  0.81394900  0.97211200  0.90668000  1
  F  F3  1  0.68605100  0.02788800  0.40668000  1
loop_
_geom_bond_atom_site_label_1
_geom_bond_atom_site_label_2
_geom_bond_distance
_geom_bond_site_symmetry_2
H0 O3 0.989799 1_555
H1 O2 0.989799 1_555
H2 O1 0.989799 1_555
H3 O0 0.989799 1_555
O4 S0 1.450382 1_556
O5 S1 1.450382 1_555
O6 S2 1.450382 1_554
O7 S3 1.450382 1_555
O8 S0 1.449942 1_555
O9 S1 1.449942 1_555
O10 S2 1.449942 1_555
O11 S3 1.449942 1_555
F0 O2 1.462475 1_555
F1 O3 1.462475 1_555
F2 O0 1.462475 1_565
F3 O1 1.462475 1_545
