# generated using pymatgen
data_Ag8Ge3O10
_symmetry_space_group_name_H-M   'P 1'
_cell_length_a   10.93872800
_cell_length_b   12.35788400
_cell_length_c   18.86769396
_cell_angle_alpha   87.75568056
_cell_angle_beta   90.00000000
_cell_angle_gamma   90.00000000
_symmetry_Int_Tables_number   1
_chemical_formula_structural   Ag8Ge3O10
_chemical_formula_sum   'Ag64 Ge24 O80'
_cell_volume   2548.56958641
_cell_formula_units_Z   8
loop_
 _symmetry_equiv_pos_site_id
 _symmetry_equiv_pos_as_xyz
  1  'x, y, z'
loop_
 _atom_site_type_symbol
 _atom_site_label
 _atom_site_symmetry_multiplicity
 _atom_site_fract_x
 _atom_site_fract_y
 _atom_site_fract_z
 _atom_site_occupancy
  Ag  Ag0  1  0.36207700  0.77846700  0.05203000  1
  Ag  Ag1  1  0.38172500  0.65681300  0.61252000  1
  Ag  Ag2  1  0.36215700  0.52925100  0.96963300  1
  Ag  Ag3  1  0.39323600  0.43452700  0.52467700  1
  Ag  Ag4  1  0.88718900  0.66157200  0.81047300  1
  Ag  Ag5  1  0.10848500  0.29440900  0.56843900  1
  Ag  Ag6  1  0.86128200  0.19556600  0.62240000  1
  Ag  Ag7  1  0.63784300  0.52925100  0.46963300  1
  Ag  Ag8  1  0.38738600  0.06000800  0.78176000  1
  Ag  Ag9  1  0.60676400  0.43452700  0.02467700  1
  Ag  Ag10  1  0.34941600  0.35346900  0.69913200  1
  Ag  Ag11  1  0.61261400  0.06000800  0.28176000  1
  Ag  Ag12  1  0.11472300  0.15485100  0.32431100  1
  Ag  Ag13  1  0.11281100  0.66157200  0.31047300  1
  Ag  Ag14  1  0.85770000  0.70714600  0.62344900  1
  Ag  Ag15  1  0.37968700  0.23976200  0.24452100  1
  Ag  Ag16  1  0.60974100  0.24403900  0.56835800  1
  Ag  Ag17  1  0.60642300  0.56310500  0.27136500  1
  Ag  Ag18  1  0.14181400  0.56563200  0.47789300  1
  Ag  Ag19  1  0.63671200  0.87210500  0.17999100  1
  Ag  Ag20  1  0.13312500  0.00037700  0.84836300  1
  Ag  Ag21  1  0.61827500  0.65681300  0.11252000  1
  Ag  Ag22  1  0.64853800  0.15453300  0.11612400  1
  Ag  Ag23  1  0.63792300  0.77846700  0.55203000  1
  Ag  Ag24  1  0.86311400  0.85181000  0.91318300  1
  Ag  Ag25  1  0.37235600  0.94673200  0.51311900  1
  Ag  Ag26  1  0.11726000  0.48207900  0.85261100  1
  Ag  Ag27  1  0.65058400  0.35346900  0.19913200  1
  Ag  Ag28  1  0.36784900  0.72088400  0.24514600  1
  Ag  Ag29  1  0.35929300  0.01444700  0.96855100  1
  Ag  Ag30  1  0.89151500  0.29440900  0.06843900  1
  Ag  Ag31  1  0.12047700  0.06791300  0.48265500  1
  Ag  Ag32  1  0.12172200  0.77461100  0.57912300  1
  Ag  Ag33  1  0.62764400  0.94673200  0.01311900  1
  Ag  Ag34  1  0.36328800  0.87210500  0.67999100  1
  Ag  Ag35  1  0.87394300  0.22578100  0.26186300  1
  Ag  Ag36  1  0.62399300  0.49402500  0.82940800  1
  Ag  Ag37  1  0.64432400  0.95915100  0.85499600  1
  Ag  Ag38  1  0.63215100  0.72088400  0.74514600  1
  Ag  Ag39  1  0.84672000  0.36270500  0.89535800  1
  Ag  Ag40  1  0.88274000  0.48207900  0.35261100  1
  Ag  Ag41  1  0.39025900  0.24403900  0.06835800  1
  Ag  Ag42  1  0.86687500  0.00037700  0.34836300  1
  Ag  Ag43  1  0.35146200  0.15453300  0.61612400  1
  Ag  Ag44  1  0.13688600  0.85181000  0.41318300  1
  Ag  Ag45  1  0.11316700  0.47710500  0.02565400  1
  Ag  Ag46  1  0.85818600  0.56563200  0.97789300  1
  Ag  Ag47  1  0.12605700  0.22578100  0.76186300  1
  Ag  Ag48  1  0.39357700  0.56310500  0.77136500  1
  Ag  Ag49  1  0.88527700  0.15485100  0.82431100  1
  Ag  Ag50  1  0.35567600  0.95915100  0.35499600  1
  Ag  Ag51  1  0.64070700  0.01444700  0.46855100  1
  Ag  Ag52  1  0.15328000  0.36270500  0.39535800  1
  Ag  Ag53  1  0.87952300  0.06791300  0.98265500  1
  Ag  Ag54  1  0.37600700  0.49402500  0.32940800  1
  Ag  Ag55  1  0.13814800  0.76085400  0.73885800  1
  Ag  Ag56  1  0.87827800  0.77461100  0.07912300  1
  Ag  Ag57  1  0.62031300  0.23976200  0.74452100  1
  Ag  Ag58  1  0.14230000  0.70714600  0.12344900  1
  Ag  Ag59  1  0.13871800  0.19556600  0.12240000  1
  Ag  Ag60  1  0.13976300  0.94319000  0.03965100  1
  Ag  Ag61  1  0.86023700  0.94319000  0.53965100  1
  Ag  Ag62  1  0.88683300  0.47710500  0.52565400  1
  Ag  Ag63  1  0.86185200  0.76085400  0.23885800  1
  Ge  Ge0  1  0.38125200  0.00259100  0.14521300  1
  Ge  Ge1  1  0.61874800  0.00259100  0.64521300  1
  Ge  Ge2  1  0.88324000  0.01354500  0.16069000  1
  Ge  Ge3  1  0.62857500  0.49361400  0.65161600  1
  Ge  Ge4  1  0.12844400  0.92409200  0.23192000  1
  Ge  Ge5  1  0.62241000  0.79479800  0.35903200  1
  Ge  Ge6  1  0.87951900  0.41528600  0.72501900  1
  Ge  Ge7  1  0.86545700  0.51995900  0.15057700  1
  Ge  Ge8  1  0.37142500  0.49361400  0.15161600  1
  Ge  Ge9  1  0.12664600  0.22861900  0.94026900  1
  Ge  Ge10  1  0.13454300  0.51995900  0.65057700  1
  Ge  Ge11  1  0.11676000  0.01354500  0.66069000  1
  Ge  Ge12  1  0.62057300  0.70595500  0.93263100  1
  Ge  Ge13  1  0.87155600  0.92409200  0.73192000  1
  Ge  Ge14  1  0.12149500  0.71960800  0.94388800  1
  Ge  Ge15  1  0.62799600  0.19735600  0.93579900  1
  Ge  Ge16  1  0.37200400  0.19735600  0.43579900  1
  Ge  Ge17  1  0.87335400  0.22861900  0.44026900  1
  Ge  Ge18  1  0.61797600  0.31004000  0.37439400  1
  Ge  Ge19  1  0.12048100  0.41528600  0.22501900  1
  Ge  Ge20  1  0.37942700  0.70595500  0.43263100  1
  Ge  Ge21  1  0.37759000  0.79479800  0.85903200  1
  Ge  Ge22  1  0.38202400  0.31004000  0.87439400  1
  Ge  Ge23  1  0.87850500  0.71960800  0.44388800  1
  O  O0  1  0.16140400  0.27744200  0.22794100  1
  O  O1  1  0.41475200  0.75209400  0.77472500  1
  O  O2  1  0.08922300  0.97090000  0.31482100  1
  O  O3  1  0.86193600  0.47785100  0.80685500  1
  O  O4  1  0.15335900  0.15405100  0.65884400  1
  O  O5  1  0.33892800  0.56679700  0.43247500  1
  O  O6  1  0.94990400  0.00411600  0.66292900  1
  O  O7  1  0.54620300  0.71055900  0.42731600  1
  O  O8  1  0.38582000  0.24570600  0.79291100  1
  O  O9  1  0.08065300  0.09133100  0.94548500  1
  O  O10  1  0.16361500  0.95418300  0.58141300  1
  O  O11  1  0.81588000  0.94647300  0.23620100  1
  O  O12  1  0.78367700  0.77174600  0.37171700  1
  O  O13  1  0.71557800  0.06384000  0.57843300  1
  O  O14  1  0.33335300  0.76456100  0.51212700  1
  O  O15  1  0.46839800  0.31562400  0.41650800  1
  O  O16  1  0.29012900  0.93841400  0.21569900  1
  O  O17  1  0.58382300  0.63148900  0.64571900  1
  O  O18  1  0.08458100  0.29693800  0.01778400  1
  O  O19  1  0.21162400  0.65812900  0.01360300  1
  O  O20  1  0.07086300  0.29493700  0.86140100  1
  O  O21  1  0.02546100  0.62243200  0.90626700  1
  O  O22  1  0.70623300  0.23018300  0.43866200  1
  O  O23  1  0.21720900  0.60540700  0.70520600  1
  O  O24  1  0.52856600  0.89948400  0.60884200  1
  O  O25  1  0.95063400  0.59797900  0.08658300  1
  O  O26  1  0.21632300  0.77174600  0.87171700  1
  O  O27  1  0.91541900  0.29693800  0.51778400  1
  O  O28  1  0.45379700  0.71055900  0.92731600  1
  O  O29  1  0.41350000  0.93169200  0.87230000  1
  O  O30  1  0.53160200  0.31562400  0.91650800  1
  O  O31  1  0.96446400  0.82790100  0.47663300  1
  O  O32  1  0.13806400  0.47785100  0.30685500  1
  O  O33  1  0.55443200  0.12003100  0.00495800  1
  O  O34  1  0.03553600  0.82790100  0.97663300  1
  O  O35  1  0.40806400  0.42549000  0.07343600  1
  O  O36  1  0.75920500  0.42859100  0.11180400  1
  O  O37  1  0.78279100  0.60540700  0.20520600  1
  O  O38  1  0.78837600  0.65812900  0.51360300  1
  O  O39  1  0.59193600  0.42549000  0.57343600  1
  O  O40  1  0.33089600  0.44512800  0.86543800  1
  O  O41  1  0.91044700  0.78625400  0.72179300  1
  O  O42  1  0.47143400  0.89948400  0.10884200  1
  O  O43  1  0.96243900  0.42561300  0.19994700  1
  O  O44  1  0.08955300  0.78625400  0.22179300  1
  O  O45  1  0.47428200  0.10160500  0.18258300  1
  O  O46  1  0.91077700  0.97090000  0.81482100  1
  O  O47  1  0.83638500  0.95418300  0.08141300  1
  O  O48  1  0.23125200  0.24688400  0.46988700  1
  O  O49  1  0.41617700  0.63148900  0.14571900  1
  O  O50  1  0.79579200  0.49191600  0.65728600  1
  O  O51  1  0.91934700  0.09133100  0.44548500  1
  O  O52  1  0.97453900  0.62243200  0.40626700  1
  O  O53  1  0.04936600  0.59797900  0.58658300  1
  O  O54  1  0.24079500  0.42859100  0.61180400  1
  O  O55  1  0.56488500  0.42726000  0.72816600  1
  O  O56  1  0.34174600  0.13432700  0.35555600  1
  O  O57  1  0.31692500  0.77906000  0.35748400  1
  O  O58  1  0.29376700  0.23018300  0.93866200  1
  O  O59  1  0.28442200  0.06384000  0.07843300  1
  O  O60  1  0.76874800  0.24688400  0.96988700  1
  O  O61  1  0.68307500  0.77906000  0.85748400  1
  O  O62  1  0.84664100  0.15405100  0.15884400  1
  O  O63  1  0.44556800  0.12003100  0.50495800  1
  O  O64  1  0.65825400  0.13432700  0.85555600  1
  O  O65  1  0.43511500  0.42726000  0.22816600  1
  O  O66  1  0.20420800  0.49191600  0.15728600  1
  O  O67  1  0.52571800  0.10160500  0.68258300  1
  O  O68  1  0.03756100  0.42561300  0.69994700  1
  O  O69  1  0.92913700  0.29493700  0.36140100  1
  O  O70  1  0.18412000  0.94647300  0.73620100  1
  O  O71  1  0.05009600  0.00411600  0.16292900  1
  O  O72  1  0.66910400  0.44512800  0.36543800  1
  O  O73  1  0.83859600  0.27744200  0.72794100  1
  O  O74  1  0.66107200  0.56679700  0.93247500  1
  O  O75  1  0.58524800  0.75209400  0.27472500  1
  O  O76  1  0.61418000  0.24570600  0.29291100  1
  O  O77  1  0.66664700  0.76456100  0.01212700  1
  O  O78  1  0.70987100  0.93841400  0.71569900  1
  O  O79  1  0.58650000  0.93169200  0.37230000  1
loop_
_geom_bond_atom_site_label_1
_geom_bond_atom_site_label_2
_geom_bond_distance
_geom_bond_site_symmetry_2
Ag0 O42 2.223076 1_555
Ag0 O19 2.351635 1_555
Ag0 O49 2.553932 1_555
Ag0 O28 2.720743 1_554
Ag1 O17 2.315625 1_555
Ag1 O14 2.333101 1_555
Ag1 O23 2.571634 1_555
Ag2 O40 2.285295 1_555
Ag2 O35 2.352764 1_556
Ag2 O19 2.457586 1_556
Ag2 O28 2.553906 1_555
Ag3 O54 2.340702 1_555
Ag3 O39 2.361140 1_555
Ag3 O5 2.414204 1_555
Ag3 O15 2.689838 1_555
Ag4 O41 2.244203 1_555
Ag4 O3 2.290815 1_555
Ag4 O21 2.391639 1_655
Ag5 O27 2.317798 1_455
Ag5 O54 2.370663 1_555
Ag5 O48 2.385673 1_555
Ag5 O4 2.434612 1_555
Ag6 O73 2.282212 1_555
Ag6 O27 2.371185 1_555
Ag6 O13 2.446240 1_555
Ag6 O6 2.642039 1_555
Ag7 O72 2.285295 1_555
Ag7 O39 2.352764 1_555
Ag7 O38 2.457586 1_555
Ag7 O7 2.553906 1_555
Ag8 O29 2.302640 1_545
Ag8 O8 2.312712 1_555
Ag8 O67 2.445436 1_555
Ag8 O70 2.783117 1_545
Ag9 O36 2.340702 1_555
Ag9 O35 2.361140 1_555
Ag9 O74 2.414204 1_554
Ag9 O30 2.689838 1_554
Ag10 O54 2.206498 1_555
Ag10 O8 2.208678 1_555
Ag10 O55 2.593458 1_555
Ag11 O79 2.302640 1_545
Ag11 O76 2.312712 1_555
Ag11 O45 2.445436 1_555
Ag11 O11 2.783117 1_545
Ag12 O2 2.304211 1_545
Ag12 O0 2.376186 1_555
Ag12 O56 2.562644 1_555
Ag12 O69 2.775383 1_455
Ag13 O44 2.244203 1_555
Ag13 O32 2.290815 1_555
Ag13 O52 2.391639 1_455
Ag14 O41 2.207640 1_555
Ag14 O38 2.309919 1_555
Ag14 O53 2.602494 1_655
Ag14 O50 2.794218 1_555
Ag15 O45 2.346835 1_555
Ag15 O65 2.403266 1_555
Ag15 O0 2.450423 1_555
Ag15 O56 2.458671 1_555
Ag15 O76 2.724654 1_555
Ag16 O39 2.256563 1_555
Ag16 O13 2.510436 1_555
Ag16 O63 2.673582 1_555
Ag16 O22 2.676629 1_555
Ag17 O37 2.345702 1_555
Ag17 O75 2.350286 1_555
Ag17 O72 2.354455 1_555
Ag17 O65 2.664806 1_555
Ag18 O5 2.320059 1_555
Ag18 O53 2.334983 1_555
Ag18 O52 2.364913 1_455
Ag19 O42 2.269274 1_555
Ag19 O75 2.345990 1_555
Ag19 O11 2.426277 1_555
Ag20 O9 2.260991 1_555
Ag20 O70 2.311662 1_545
Ag20 O46 2.543006 1_445
Ag21 O49 2.315625 1_555
Ag21 O77 2.333101 1_555
Ag21 O37 2.571634 1_555
Ag22 O62 2.311970 1_555
Ag22 O45 2.359933 1_555
Ag22 O33 2.389724 1_555
Ag23 O24 2.223076 1_555
Ag23 O38 2.351635 1_555
Ag23 O17 2.553932 1_555
Ag23 O7 2.720743 1_555
Ag24 O34 2.247235 1_655
Ag24 O46 2.380766 1_555
Ag24 O61 2.421819 1_555
Ag25 O63 2.285985 1_565
Ag25 O14 2.292115 1_555
Ag25 O24 2.537718 1_555
Ag25 O10 2.625237 1_555
Ag26 O21 2.275770 1_555
Ag26 O20 2.367178 1_555
Ag26 O40 2.391561 1_555
Ag27 O36 2.206498 1_555
Ag27 O76 2.208678 1_555
Ag27 O65 2.593458 1_555
Ag28 O49 2.276277 1_555
Ag28 O57 2.332175 1_555
Ag28 O75 2.476345 1_555
Ag29 O29 2.200206 1_545
Ag29 O59 2.332528 1_556
Ag29 O33 2.607861 1_556
Ag30 O18 2.317798 1_655
Ag30 O36 2.370663 1_555
Ag30 O60 2.385673 1_554
Ag30 O62 2.434612 1_555
Ag31 O51 2.323825 1_455
Ag31 O10 2.337712 1_545
Ag31 O48 2.525122 1_555
Ag32 O10 2.268020 1_555
Ag32 O53 2.320948 1_555
Ag32 O14 2.642853 1_555
Ag32 O31 2.651874 1_455
Ag33 O33 2.285985 1_565
Ag33 O77 2.292115 1_555
Ag33 O42 2.537718 1_555
Ag33 O47 2.625237 1_555
Ag34 O24 2.269274 1_555
Ag34 O1 2.345990 1_555
Ag34 O70 2.426277 1_555
Ag35 O69 2.178918 1_555
Ag35 O62 2.188147 1_555
Ag36 O55 2.207059 1_555
Ag36 O74 2.211752 1_555
Ag36 O3 2.646170 1_555
Ag37 O64 2.170599 1_565
Ag37 O61 2.264232 1_555
Ag37 O29 2.566767 1_555
Ag37 O78 2.745909 1_555
Ag38 O17 2.276277 1_555
Ag38 O61 2.332175 1_555
Ag38 O1 2.476345 1_555
Ag39 O60 2.143788 1_555
Ag39 O3 2.157501 1_555
Ag39 O20 2.676822 1_655
Ag40 O52 2.275770 1_555
Ag40 O69 2.367178 1_555
Ag40 O72 2.391561 1_555
Ag41 O35 2.256563 1_555
Ag41 O59 2.510436 1_555
Ag41 O33 2.673582 1_555
Ag41 O58 2.676629 1_554
Ag42 O51 2.260991 1_555
Ag42 O11 2.311662 1_545
Ag42 O2 2.543006 1_645
Ag43 O4 2.311970 1_555
Ag43 O67 2.359933 1_555
Ag43 O63 2.389724 1_555
Ag44 O31 2.247235 1_455
Ag44 O2 2.380766 1_555
Ag44 O57 2.421819 1_555
Ag45 O18 2.258970 1_555
Ag45 O19 2.485211 1_555
Ag45 O25 2.616921 1_455
Ag45 O66 2.688698 1_555
Ag46 O74 2.320059 1_555
Ag46 O25 2.334983 1_556
Ag46 O21 2.364913 1_655
Ag47 O20 2.178918 1_555
Ag47 O4 2.188147 1_555
Ag48 O23 2.345702 1_555
Ag48 O1 2.350286 1_555
Ag48 O40 2.354455 1_555
Ag48 O55 2.664806 1_555
Ag49 O46 2.304211 1_545
Ag49 O73 2.376186 1_555
Ag49 O64 2.562644 1_555
Ag49 O20 2.775383 1_655
Ag50 O56 2.170599 1_565
Ag50 O57 2.264232 1_555
Ag50 O79 2.566767 1_555
Ag50 O16 2.745909 1_555
Ag51 O79 2.200206 1_545
Ag51 O13 2.332528 1_555
Ag51 O63 2.607861 1_555
Ag52 O48 2.143788 1_555
Ag52 O32 2.157501 1_555
Ag52 O69 2.676822 1_455
Ag53 O9 2.323825 1_655
Ag53 O47 2.337712 1_546
Ag53 O60 2.525122 1_555
Ag54 O65 2.207059 1_555
Ag54 O5 2.211752 1_555
Ag54 O32 2.646170 1_555
Ag55 O23 2.221896 1_555
Ag55 O70 2.346950 1_555
Ag55 O41 2.529459 1_455
Ag55 O26 2.656983 1_555
Ag56 O47 2.268020 1_555
Ag56 O25 2.320948 1_555
Ag56 O77 2.642853 1_555
Ag56 O34 2.651874 1_654
Ag57 O67 2.346835 1_555
Ag57 O55 2.403266 1_555
Ag57 O73 2.450423 1_555
Ag57 O64 2.458671 1_555
Ag57 O8 2.724654 1_555
Ag58 O44 2.207640 1_555
Ag58 O19 2.309919 1_555
Ag58 O25 2.602494 1_455
Ag58 O66 2.794218 1_555
Ag59 O0 2.282212 1_555
Ag59 O18 2.371185 1_555
Ag59 O59 2.446240 1_555
Ag59 O71 2.642039 1_555
Ag60 O34 2.208192 1_554
Ag60 O59 2.312538 1_565
Ag60 O9 2.582919 1_564
Ag60 O71 2.660121 1_565
Ag61 O31 2.208192 1_555
Ag61 O13 2.312538 1_565
Ag61 O51 2.582919 1_565
Ag61 O6 2.660121 1_565
Ag62 O27 2.258970 1_555
Ag62 O38 2.485211 1_555
Ag62 O53 2.616921 1_655
Ag62 O50 2.688698 1_555
Ag63 O37 2.221896 1_555
Ag63 O11 2.346950 1_555
Ag63 O44 2.529459 1_655
Ag63 O12 2.656983 1_555
Ge0 O45 1.759970 1_555
Ge0 O42 1.770900 1_545
Ge0 O59 1.790998 1_555
Ge0 O16 1.818954 1_545
Ge1 O67 1.759970 1_555
Ge1 O24 1.770900 1_545
Ge1 O13 1.790998 1_555
Ge1 O78 1.818954 1_545
Ge2 O47 1.767519 1_545
Ge2 O11 1.779685 1_545
Ge2 O62 1.780924 1_555
Ge2 O71 1.829291 1_655
Ge3 O17 1.772076 1_555
Ge3 O39 1.772705 1_555
Ge3 O55 1.775126 1_555
Ge3 O50 1.832339 1_555
Ge4 O2 1.742440 1_555
Ge4 O44 1.773275 1_555
Ge4 O16 1.802442 1_555
Ge4 O71 1.818262 1_565
Ge5 O75 1.743488 1_555
Ge5 O79 1.764102 1_555
Ge5 O12 1.801385 1_555
Ge5 O7 1.825773 1_555
Ge6 O73 1.760070 1_555
Ge6 O3 1.764199 1_555
Ge6 O68 1.795553 1_655
Ge6 O50 1.809420 1_555
Ge7 O37 1.755098 1_555
Ge7 O25 1.778879 1_555
Ge7 O36 1.796002 1_555
Ge7 O43 1.807599 1_555
Ge8 O49 1.772076 1_555
Ge8 O35 1.772705 1_555
Ge8 O65 1.775126 1_555
Ge8 O66 1.832339 1_555
Ge9 O9 1.768654 1_555
Ge9 O18 1.777705 1_556
Ge9 O20 1.778426 1_555
Ge9 O58 1.828432 1_555
Ge10 O23 1.755098 1_555
Ge10 O53 1.778879 1_555
Ge10 O54 1.796002 1_555
Ge10 O68 1.807599 1_555
Ge11 O10 1.767519 1_545
Ge11 O70 1.779685 1_545
Ge11 O4 1.780924 1_555
Ge11 O6 1.829291 1_455
Ge12 O77 1.764466 1_556
Ge12 O74 1.775957 1_555
Ge12 O61 1.787061 1_555
Ge12 O28 1.827835 1_555
Ge13 O46 1.742440 1_555
Ge13 O41 1.773275 1_555
Ge13 O78 1.802442 1_555
Ge13 O6 1.818262 1_565
Ge14 O21 1.765297 1_555
Ge14 O34 1.766795 1_555
Ge14 O19 1.789167 1_556
Ge14 O26 1.810149 1_555
Ge15 O64 1.760909 1_555
Ge15 O33 1.779237 1_556
Ge15 O60 1.785952 1_555
Ge15 O30 1.827221 1_555
Ge16 O56 1.760909 1_555
Ge16 O63 1.779237 1_555
Ge16 O48 1.785952 1_555
Ge16 O15 1.827221 1_555
Ge17 O51 1.768654 1_555
Ge17 O27 1.777705 1_555
Ge17 O69 1.778426 1_555
Ge17 O22 1.828432 1_555
Ge18 O76 1.758726 1_555
Ge18 O72 1.762428 1_555
Ge18 O22 1.811790 1_555
Ge18 O15 1.821418 1_555
Ge19 O0 1.760070 1_555
Ge19 O32 1.764199 1_555
Ge19 O43 1.795553 1_455
Ge19 O66 1.809420 1_555
Ge20 O14 1.764466 1_555
Ge20 O5 1.775957 1_555
Ge20 O57 1.787061 1_555
Ge20 O7 1.827835 1_555
Ge21 O1 1.743488 1_555
Ge21 O29 1.764102 1_555
Ge21 O26 1.801385 1_555
Ge21 O28 1.825773 1_555
Ge22 O8 1.758726 1_555
Ge22 O40 1.762428 1_555
Ge22 O58 1.811790 1_555
Ge22 O30 1.821418 1_555
Ge23 O52 1.765297 1_555
Ge23 O31 1.766795 1_555
Ge23 O38 1.789167 1_555
Ge23 O12 1.810149 1_555
