# generated using pymatgen
data_Eu2H4Pd
_symmetry_space_group_name_H-M   'P 1'
_cell_length_a   5.40193300
_cell_length_b   7.47629900
_cell_length_c   9.52579700
_cell_angle_alpha   90.00000000
_cell_angle_beta   90.00000000
_cell_angle_gamma   90.00000000
_symmetry_Int_Tables_number   1
_chemical_formula_structural   Eu2H4Pd
_chemical_formula_sum   'Eu8 H16 Pd4'
_cell_volume   384.71327939
_cell_formula_units_Z   4
loop_
 _symmetry_equiv_pos_site_id
 _symmetry_equiv_pos_as_xyz
  1  'x, y, z'
loop_
 _atom_site_type_symbol
 _atom_site_label
 _atom_site_symmetry_multiplicity
 _atom_site_fract_x
 _atom_site_fract_y
 _atom_site_fract_z
 _atom_site_occupancy
  Eu  Eu0  1  0.25000000  0.15097300  0.59196500  1
  Eu  Eu1  1  0.25000000  0.65097300  0.90803500  1
  Eu  Eu2  1  0.75000000  0.84902700  0.40803500  1
  Eu  Eu3  1  0.75000000  0.34902700  0.09196500  1
  Eu  Eu4  1  0.25000000  0.48875300  0.33072900  1
  Eu  Eu5  1  0.25000000  0.98875300  0.16927100  1
  Eu  Eu6  1  0.75000000  0.51124700  0.66927100  1
  Eu  Eu7  1  0.75000000  0.01124700  0.83072900  1
  H  H0  1  0.52173600  0.32729200  0.83945900  1
  H  H1  1  0.97826400  0.82729200  0.66054100  1
  H  H2  1  0.02173600  0.67270800  0.16054100  1
  H  H3  1  0.47826400  0.17270800  0.33945900  1
  H  H4  1  0.47826400  0.67270800  0.16054100  1
  H  H5  1  0.02173600  0.17270800  0.33945900  1
  H  H6  1  0.97826400  0.32729200  0.83945900  1
  H  H7  1  0.52173600  0.82729200  0.66054100  1
  H  H8  1  0.25000000  0.00159600  0.89798900  1
  H  H9  1  0.25000000  0.50159600  0.60201100  1
  H  H10  1  0.75000000  0.99840400  0.10201100  1
  H  H11  1  0.75000000  0.49840400  0.39798900  1
  H  H12  1  0.25000000  0.32256200  0.09518700  1
  H  H13  1  0.25000000  0.82256200  0.40481300  1
  H  H14  1  0.75000000  0.67743800  0.90481300  1
  H  H15  1  0.75000000  0.17743800  0.59518700  1
  Pd  Pd0  1  0.25000000  0.23960800  0.91570600  1
  Pd  Pd1  1  0.25000000  0.73960800  0.58429400  1
  Pd  Pd2  1  0.75000000  0.76039200  0.08429400  1
  Pd  Pd3  1  0.75000000  0.26039200  0.41570600  1
loop_
_geom_bond_atom_site_label_1
_geom_bond_atom_site_label_2
_geom_bond_distance
_geom_bond_site_symmetry_2
Eu0 H9 2.623109 1_555
Eu0 H5 2.707846 1_555
Eu0 H3 2.707846 1_555
Eu0 H15 2.708378 1_455
Eu0 H15 2.708378 1_555
Eu0 H7 2.904745 1_545
Eu0 H1 2.904745 1_445
Eu1 H8 2.623109 1_565
Eu1 H4 2.707846 1_556
Eu1 H2 2.707846 1_556
Eu1 H14 2.708378 1_555
Eu1 H14 2.708378 1_455
Eu1 H6 2.904745 1_455
Eu1 H0 2.904745 1_555
Eu2 H11 2.623109 1_555
Eu2 H1 2.707846 1_555
Eu2 H7 2.707846 1_555
Eu2 H13 2.708378 1_655
Eu2 H13 2.708378 1_555
Eu2 H5 2.904745 1_665
Eu2 H3 2.904745 1_565
Eu3 H10 2.623109 1_545
Eu3 H0 2.707846 1_554
Eu3 H6 2.707846 1_554
Eu3 H12 2.708378 1_555
Eu3 H12 2.708378 1_655
Eu3 H2 2.904745 1_655
Eu3 H4 2.904745 1_555
Eu4 H4 2.457666 1_555
Eu4 H2 2.457666 1_555
Eu4 H12 2.564779 1_555
Eu4 H9 2.585960 1_555
Eu4 H13 2.593516 1_555
Eu4 H5 2.666536 1_555
Eu4 H3 2.666536 1_555
Eu4 H11 2.776856 1_555
Eu4 H11 2.776856 1_455
Eu5 H5 2.457666 1_565
Eu5 H3 2.457666 1_565
Eu5 H13 2.564779 1_555
Eu5 H8 2.585960 1_564
Eu5 H12 2.593516 1_565
Eu5 H4 2.666536 1_555
Eu5 H2 2.666536 1_555
Eu5 H10 2.776856 1_455
Eu5 H10 2.776856 1_555
Eu6 H6 2.457666 1_555
Eu6 H0 2.457666 1_555
Eu6 H14 2.564779 1_555
Eu6 H11 2.585960 1_555
Eu6 H15 2.593516 1_555
Eu6 H7 2.666536 1_555
Eu6 H1 2.666536 1_555
Eu6 H9 2.776856 1_555
Eu6 H9 2.776856 1_655
Eu7 H7 2.457666 1_545
Eu7 H1 2.457666 1_545
Eu7 H15 2.564779 1_555
Eu7 H10 2.585960 1_546
Eu7 H14 2.593516 1_545
Eu7 H0 2.666536 1_555
Eu7 H6 2.666536 1_555
Eu7 H8 2.776856 1_655
Eu7 H8 2.776856 1_555
H0 Pd0 1.764089 1_555
H1 Pd1 1.764089 1_655
H2 Pd2 1.764089 1_455
H3 Pd3 1.764089 1_555
H4 Pd2 1.764089 1_555
H5 Pd3 1.764089 1_455
H6 Pd0 1.764089 1_655
H7 Pd1 1.764089 1_555
H8 Pd0 1.787434 1_555
H9 Pd1 1.787434 1_555
H10 Pd2 1.787434 1_555
H11 Pd3 1.787434 1_555
H12 Pd0 1.818710 1_554
H13 Pd1 1.818710 1_555
H14 Pd2 1.818710 1_556
H15 Pd3 1.818710 1_555
