# generated using pymatgen
data_Sr3InP3
_symmetry_space_group_name_H-M   'P 1'
_cell_length_a   4.33893351
_cell_length_b   12.88862246
_cell_length_c   13.92308198
_cell_angle_alpha   90.00000000
_cell_angle_beta   90.00000000
_cell_angle_gamma   90.00000000
_symmetry_Int_Tables_number   1
_chemical_formula_structural   Sr3InP3
_chemical_formula_sum   'Sr12 In4 P12'
_cell_volume   778.61878557
_cell_formula_units_Z   4
loop_
 _symmetry_equiv_pos_site_id
 _symmetry_equiv_pos_as_xyz
  1  'x, y, z'
loop_
 _atom_site_type_symbol
 _atom_site_label
 _atom_site_symmetry_multiplicity
 _atom_site_fract_x
 _atom_site_fract_y
 _atom_site_fract_z
 _atom_site_occupancy
  Sr  Sr0  1  0.75000000  0.14354525  0.99629305  1
  Sr  Sr1  1  0.25000000  0.27401300  0.20665468  1
  Sr  Sr2  1  0.25000000  0.35645475  0.49629305  1
  Sr  Sr3  1  0.75000000  0.64354525  0.50370695  1
  Sr  Sr4  1  0.75000000  0.42686681  0.89563905  1
  Sr  Sr5  1  0.25000000  0.85645475  0.00370695  1
  Sr  Sr6  1  0.75000000  0.22598700  0.70665468  1
  Sr  Sr7  1  0.75000000  0.92686681  0.60436095  1
  Sr  Sr8  1  0.25000000  0.07313319  0.39563905  1
  Sr  Sr9  1  0.25000000  0.57313319  0.10436095  1
  Sr  Sr10  1  0.25000000  0.77401300  0.29334532  1
  Sr  Sr11  1  0.75000000  0.72598700  0.79334532  1
  In  In0  1  0.75000000  0.94726054  0.20183856  1
  In  In1  1  0.75000000  0.44726054  0.29816144  1
  In  In2  1  0.25000000  0.55273946  0.70183856  1
  In  In3  1  0.25000000  0.05273946  0.79816144  1
  P  P0  1  0.75000000  0.75925592  0.12814795  1
  P  P1  1  0.25000000  0.09506187  0.61568797  1
  P  P2  1  0.25000000  0.59506187  0.88431203  1
  P  P3  1  0.75000000  0.90493813  0.38431203  1
  P  P4  1  0.25000000  0.74074408  0.62814795  1
  P  P5  1  0.25000000  0.04638770  0.14408320  1
  P  P6  1  0.75000000  0.95361230  0.85591680  1
  P  P7  1  0.75000000  0.45361230  0.64408320  1
  P  P8  1  0.25000000  0.54638770  0.35591680  1
  P  P9  1  0.75000000  0.25925592  0.37185205  1
  P  P10  1  0.75000000  0.40493813  0.11568797  1
  P  P11  1  0.25000000  0.24074408  0.87185205  1
loop_
_geom_bond_atom_site_label_1
_geom_bond_atom_site_label_2
_geom_bond_distance
_geom_bond_site_symmetry_2
In0 P3 2.598492 1_555
In0 P0 2.631386 1_555
In0 P5 2.643011 1_665
In0 P5 2.643011 1_565
In1 P10 2.598492 1_555
In1 P9 2.631386 1_555
In1 P8 2.643011 1_655
In1 P8 2.643011 1_555
In2 P2 2.598492 1_555
In2 P4 2.631386 1_555
In2 P7 2.643011 1_555
In2 P7 2.643011 1_455
In3 P1 2.598492 1_555
In3 P11 2.631386 1_555
In3 P6 2.643011 1_445
In3 P6 2.643011 1_545
P0 Sr5 3.045965 1_555
P0 Sr5 3.045965 1_655
P0 Sr10 3.167495 1_655
P0 Sr10 3.167495 1_555
P0 Sr9 3.251281 1_555
P0 Sr9 3.251281 1_655
P1 Sr6 3.026247 1_555
P1 Sr6 3.026247 1_455
P1 Sr7 3.070965 1_545
P1 Sr7 3.070965 1_445
P1 Sr8 3.076768 1_555
P2 Sr11 3.026247 1_555
P2 Sr11 3.026247 1_455
P2 Sr4 3.070965 1_555
P2 Sr4 3.070965 1_455
P2 Sr9 3.076768 1_556
P3 Sr10 3.026247 1_655
P3 Sr10 3.026247 1_555
P3 Sr8 3.070965 1_565
P3 Sr8 3.070965 1_665
P3 Sr7 3.076768 1_555
P4 Sr3 3.045965 1_455
P4 Sr3 3.045965 1_555
P4 Sr11 3.167495 1_555
P4 Sr11 3.167495 1_455
P4 Sr7 3.251281 1_455
P4 Sr7 3.251281 1_555
P5 Sr1 3.060394 1_555
P5 Sr5 3.132496 1_545
P5 Sr0 3.241722 1_454
P5 Sr0 3.241722 1_554
P5 Sr8 3.519355 1_555
P6 Sr11 3.060394 1_555
P6 Sr0 3.132496 1_565
P6 Sr5 3.241722 1_656
P6 Sr5 3.241722 1_556
P6 Sr7 3.519355 1_555
P7 Sr6 3.060394 1_555
P7 Sr3 3.132496 1_555
P7 Sr2 3.241722 1_555
P7 Sr2 3.241722 1_655
P7 Sr4 3.519355 1_555
P8 Sr10 3.060394 1_555
P8 Sr2 3.132496 1_555
P8 Sr3 3.241722 1_455
P8 Sr3 3.241722 1_555
P8 Sr9 3.519355 1_555
P9 Sr2 3.045965 1_655
P9 Sr2 3.045965 1_555
P9 Sr1 3.167495 1_655
P9 Sr1 3.167495 1_555
P9 Sr8 3.251281 1_555
P9 Sr8 3.251281 1_655
P10 Sr1 3.026247 1_655
P10 Sr1 3.026247 1_555
P10 Sr9 3.070965 1_555
P10 Sr9 3.070965 1_655
P10 Sr4 3.076768 1_554
P11 Sr0 3.045965 1_555
P11 Sr0 3.045965 1_455
P11 Sr6 3.167495 1_455
P11 Sr6 3.167495 1_555
P11 Sr4 3.251281 1_455
P11 Sr4 3.251281 1_555
