# generated using pymatgen
data_PrIn2Pd
_symmetry_space_group_name_H-M   'P 1'
_cell_length_a   11.23421084
_cell_length_b   11.23421084
_cell_length_c   11.23421084
_cell_angle_alpha   100.44588081
_cell_angle_beta   100.44588081
_cell_angle_gamma   129.59721930
_symmetry_Int_Tables_number   1
_chemical_formula_structural   PrIn2Pd
_chemical_formula_sum   'Pr10 In20 Pd10'
_cell_volume   988.52093668
_cell_formula_units_Z   10
loop_
 _symmetry_equiv_pos_site_id
 _symmetry_equiv_pos_as_xyz
  1  'x, y, z'
loop_
 _atom_site_type_symbol
 _atom_site_label
 _atom_site_symmetry_multiplicity
 _atom_site_fract_x
 _atom_site_fract_y
 _atom_site_fract_z
 _atom_site_occupancy
  Pr  Pr0  1  0.98725100  0.98725100  0.00000000  1
  Pr  Pr1  1  0.38226700  0.10168300  0.71941600  1
  Pr  Pr2  1  0.07272800  0.66592300  0.00000000  1
  Pr  Pr3  1  0.45780700  0.45780700  0.00000000  1
  Pr  Pr4  1  0.38226700  0.66285100  0.28058400  1
  Pr  Pr5  1  0.66592300  0.66592300  0.59319500  1
  Pr  Pr6  1  0.66285100  0.38226700  0.28058400  1
  Pr  Pr7  1  0.07272800  0.07272800  0.40680500  1
  Pr  Pr8  1  0.66592300  0.07272800  0.00000000  1
  Pr  Pr9  1  0.10168300  0.38226700  0.71941600  1
  In  In0  1  0.97932300  0.76637200  0.50599900  1
  In  In1  1  0.71355600  0.54607100  0.83251500  1
  In  In2  1  0.76637200  0.97932300  0.50599900  1
  In  In3  1  0.07985000  0.34677400  0.00000000  1
  In  In4  1  0.34677400  0.34677400  0.26692400  1
  In  In5  1  0.85976600  0.24303300  0.38326700  1
  In  In6  1  0.47650000  0.85976600  0.61673300  1
  In  In7  1  0.47332400  0.26037300  0.49400100  1
  In  In8  1  0.85976600  0.47650000  0.61673300  1
  In  In9  1  0.34677400  0.07985000  0.00000000  1
  In  In10  1  0.54607100  0.71355600  0.83251500  1
  In  In11  1  0.24303300  0.85976600  0.38326700  1
  In  In12  1  0.26037300  0.47332400  0.49400100  1
  In  In13  1  0.88104200  0.71355600  0.16748500  1
  In  In14  1  0.71355600  0.88104200  0.16748500  1
  In  In15  1  0.76637200  0.26037300  0.78704900  1
  In  In16  1  0.97932300  0.47332400  0.21295100  1
  In  In17  1  0.07985000  0.07985000  0.73307600  1
  In  In18  1  0.47332400  0.97932300  0.21295100  1
  In  In19  1  0.26037300  0.76637200  0.78704900  1
  Pd  Pd0  1  0.02350700  0.24158900  0.21808200  1
  Pd  Pd1  1  0.80542500  0.02350700  0.78191800  1
  Pd  Pd2  1  0.61236900  0.11236900  0.50000000  1
  Pd  Pd3  1  0.02350700  0.80542500  0.78191800  1
  Pd  Pd4  1  0.11236900  0.61236900  0.50000000  1
  Pd  Pd5  1  0.37100400  0.69115800  0.00000000  1
  Pd  Pd6  1  0.69115800  0.37100400  0.00000000  1
  Pd  Pd7  1  0.24158900  0.02350700  0.21808200  1
  Pd  Pd8  1  0.37100400  0.37100400  0.67984600  1
  Pd  Pd9  1  0.69115800  0.69115800  0.32015400  1
loop_
_geom_bond_atom_site_label_1
_geom_bond_atom_site_label_2
_geom_bond_distance
_geom_bond_site_symmetry_2
In0 Pd4 2.919339 1_655
In0 Pd3 2.952717 1_655
In0 Pd9 2.995914 1_555
In0 In17 3.288315 1_665
In0 Pr6 3.299867 1_555
In0 Pr5 3.348986 1_555
In0 Pr7 3.376233 1_665
In0 Pr1 3.388481 1_665
In1 Pd6 2.890388 1_556
In1 Pd8 2.890388 1_555
In1 Pd3 3.053228 1_655
In1 Pr5 3.322217 1_555
In1 Pr2 3.322217 1_656
In1 Pr3 3.432709 1_556
In1 Pr0 3.557126 1_556
In1 Pr1 3.562145 1_555
In2 Pd2 2.919339 1_565
In2 Pd1 2.952717 1_565
In2 Pd9 2.995914 1_555
In2 Pr4 3.299867 1_555
In2 Pr5 3.348986 1_555
In2 Pr7 3.376233 1_665
In2 Pr9 3.388481 1_665
In3 Pd0 2.908269 1_555
In3 Pd1 2.908269 1_454
In3 Pd5 3.087897 1_555
In3 Pr4 3.281246 1_555
In3 Pr9 3.281246 1_554
In3 Pr0 3.469758 1_445
In3 Pr3 3.582341 1_555
In3 Pr8 3.584978 1_455
In3 Pr2 3.636907 1_555
In4 Pd0 2.908269 1_555
In4 Pd7 2.908269 1_555
In4 Pd9 3.087897 1_555
In4 Pr4 3.281246 1_555
In4 Pr6 3.281246 1_555
In4 In7 3.288315 1_555
In4 Pr0 3.469758 1_445
In4 Pr3 3.582341 1_555
In4 Pr7 3.584978 1_555
In4 Pr5 3.636907 1_555
In5 Pd0 2.844763 1_655
In5 Pd2 2.901379 1_555
In5 Pd4 2.942151 1_655
In5 Pr6 3.579264 1_555
In5 Pr9 3.579264 1_655
In6 Pd1 2.844755 1_565
In6 Pd4 2.901388 1_555
In6 Pd2 2.942151 1_565
In6 Pr4 3.579261 1_555
In6 Pr1 3.579274 1_565
In7 Pd2 2.919339 1_555
In7 Pd7 2.952717 1_555
In7 Pd8 2.995914 1_555
In7 Pr1 3.299867 1_555
In7 Pr7 3.348986 1_555
In7 Pr5 3.376233 1_555
In7 Pr6 3.388481 1_555
In8 Pd3 2.844755 1_655
In8 Pd2 2.901388 1_555
In8 Pd4 2.942151 1_655
In8 Pr6 3.579261 1_555
In8 Pr9 3.579274 1_655
In9 Pd3 2.908269 1_544
In9 Pd7 2.908269 1_555
In9 Pd6 3.087897 1_555
In9 Pr6 3.281246 1_555
In9 Pr1 3.281246 1_554
In9 Pr0 3.469758 1_445
In9 Pr3 3.582341 1_555
In9 Pr2 3.584978 1_545
In9 Pr8 3.636907 1_555
In10 Pd5 2.890388 1_556
In10 Pd8 2.890388 1_555
In10 Pd1 3.053228 1_565
In10 Pr5 3.322217 1_555
In10 Pr8 3.322217 1_566
In10 Pr3 3.432709 1_556
In10 Pr0 3.557126 1_556
In10 Pr9 3.562145 1_555
In11 Pd7 2.844763 1_565
In11 Pd4 2.901379 1_555
In11 Pd2 2.942151 1_565
In11 Pr4 3.579264 1_555
In11 Pr1 3.579264 1_565
In12 Pd4 2.919339 1_555
In12 Pd0 2.952717 1_555
In12 Pd8 2.995914 1_555
In12 In4 3.288315 1_555
In12 Pr9 3.299867 1_555
In12 Pr7 3.348986 1_555
In12 Pr5 3.376233 1_555
In12 Pr4 3.388481 1_555
In13 Pd6 2.890385 1_555
In13 Pd9 2.890396 1_555
In13 Pd7 3.053221 1_665
In13 Pr2 3.322208 1_655
In13 Pr7 3.322220 1_665
In13 Pr3 3.432717 1_555
In13 Pr0 3.557127 1_555
In13 Pr6 3.562146 1_555
In14 Pd5 2.890385 1_555
In14 Pd9 2.890396 1_555
In14 Pd0 3.053221 1_665
In14 Pr8 3.322208 1_565
In14 Pr7 3.322220 1_665
In14 Pr3 3.432717 1_555
In14 Pr0 3.557127 1_555
In14 Pr4 3.562146 1_555
In15 Pd2 2.919339 1_555
In15 Pd1 2.952717 1_555
In15 Pd6 2.995914 1_556
In15 In3 3.288315 1_656
In15 Pr1 3.299867 1_555
In15 Pr8 3.348986 1_556
In15 Pr2 3.376233 1_656
In15 Pr9 3.388481 1_655
In16 Pd4 2.919339 1_655
In16 Pd0 2.952717 1_655
In16 Pd6 2.995914 1_555
In16 In3 3.288315 1_655
In16 Pr6 3.299867 1_555
In16 Pr8 3.348986 1_555
In16 Pr2 3.376233 1_655
In16 Pr4 3.388481 1_655
In17 Pd3 2.908269 1_545
In17 Pd1 2.908269 1_455
In17 Pd8 3.087897 1_555
In17 Pr9 3.281246 1_555
In17 Pr1 3.281246 1_555
In17 In2 3.288315 1_445
In17 Pr0 3.469758 1_446
In17 Pr3 3.582341 1_556
In17 Pr5 3.584978 1_445
In17 Pr7 3.636907 1_555
In18 Pd2 2.919339 1_565
In18 Pd7 2.952717 1_565
In18 Pd5 2.995914 1_555
In18 In9 3.288315 1_565
In18 Pr4 3.299867 1_555
In18 Pr2 3.348986 1_555
In18 Pr8 3.376233 1_565
In18 Pr6 3.388481 1_565
In19 Pd4 2.919339 1_555
In19 Pd3 2.952717 1_555
In19 Pd5 2.995914 1_556
In19 In9 3.288315 1_566
In19 Pr9 3.299867 1_555
In19 Pr2 3.348986 1_556
In19 Pr8 3.376233 1_566
In19 Pr1 3.388481 1_565
Pd0 Pr0 3.154134 1_445
Pd0 Pr7 3.281770 1_555
Pd0 Pr8 3.281770 1_455
Pd0 Pr4 3.547939 1_555
Pd1 Pr0 3.154134 1_546
Pd1 Pr5 3.281770 1_545
Pd1 Pr8 3.281770 1_556
Pd1 Pr9 3.547939 1_655
Pd3 Pr0 3.154134 1_456
Pd3 Pr5 3.281770 1_455
Pd3 Pr2 3.281770 1_556
Pd3 Pr1 3.547939 1_565
Pd5 Pr2 3.177717 1_555
Pd5 Pr4 3.212986 1_555
Pd5 Pr9 3.212986 1_554
Pd5 Pr3 3.328981 1_555
Pd5 Pr8 3.353742 1_565
Pd6 Pr8 3.177717 1_555
Pd6 Pr6 3.212986 1_555
Pd6 Pr1 3.212986 1_554
Pd6 Pr3 3.328981 1_555
Pd6 Pr2 3.353742 1_655
Pd7 Pr0 3.154134 1_445
Pd7 Pr7 3.281770 1_555
Pd7 Pr2 3.281770 1_545
Pd7 Pr6 3.547939 1_555
Pd8 Pr7 3.177717 1_555
Pd8 Pr1 3.212986 1_555
Pd8 Pr9 3.212986 1_555
Pd8 Pr3 3.328981 1_556
Pd8 Pr5 3.353742 1_555
Pd9 Pr5 3.177717 1_555
Pd9 Pr6 3.212986 1_555
Pd9 Pr4 3.212986 1_555
Pd9 Pr3 3.328981 1_555
Pd9 Pr7 3.353742 1_665
