# generated using pymatgen
data_SiO2
_symmetry_space_group_name_H-M   'P 1'
_cell_length_a   21.77822500
_cell_length_b   21.77822500
_cell_length_c   21.77822500
_cell_angle_alpha   160.93319772
_cell_angle_beta   160.93319772
_cell_angle_gamma   27.09196334
_symmetry_Int_Tables_number   1
_chemical_formula_structural   SiO2
_chemical_formula_sum   'Si18 O36'
_cell_volume   1101.82854662
_cell_formula_units_Z   18
loop_
 _symmetry_equiv_pos_site_id
 _symmetry_equiv_pos_as_xyz
  1  'x, y, z'
loop_
 _atom_site_type_symbol
 _atom_site_label
 _atom_site_symmetry_multiplicity
 _atom_site_fract_x
 _atom_site_fract_y
 _atom_site_fract_z
 _atom_site_occupancy
  Si  Si0  1  0.18907200  0.48212600  0.29305400  1
  Si  Si1  1  0.23212600  0.43907200  0.79305400  1
  Si  Si2  1  0.64601700  0.43907200  0.20694600  1
  Si  Si3  1  0.56092800  0.35398300  0.79305400  1
  Si  Si4  1  0.56092800  0.76787400  0.20694600  1
  Si  Si5  1  0.18907200  0.89601700  0.70694600  1
  Si  Si6  1  0.10398300  0.81092800  0.29305400  1
  Si  Si7  1  0.51787400  0.81092800  0.70694600  1
  Si  Si8  1  0.30611400  0.08706700  0.21904700  1
  Si  Si9  1  0.83706700  0.11802000  0.28095300  1
  Si  Si10  1  0.83706700  0.55611400  0.71904700  1
  Si  Si11  1  0.44388600  0.16293300  0.28095300  1
  Si  Si12  1  0.88198000  0.16293300  0.71904700  1
  Si  Si13  1  0.86802000  0.08706700  0.78095300  1
  Si  Si14  1  0.91293300  0.13198000  0.21904700  1
  Si  Si15  1  0.91293300  0.69388600  0.78095300  1
  Si  Si16  1  0.25000000  0.75000000  0.50000000  1
  Si  Si17  1  0.50000000  0.50000000  0.00000000  1
  O  O0  1  0.22753800  0.54317700  0.31563900  1
  O  O1  1  0.29317700  0.47753800  0.81563900  1
  O  O2  1  0.66189900  0.47753800  0.18436100  1
  O  O3  1  0.52246200  0.33810100  0.81563900  1
  O  O4  1  0.52246200  0.70682300  0.18436100  1
  O  O5  1  0.22753800  0.91189900  0.68436100  1
  O  O6  1  0.08810100  0.77246200  0.31563900  1
  O  O7  1  0.45682300  0.77246200  0.68436100  1
  O  O8  1  0.99200600  0.36209600  0.99783700  1
  O  O9  1  0.11209600  0.61425900  0.87009000  1
  O  O10  1  0.74416900  0.24200600  0.12991000  1
  O  O11  1  0.75799400  0.25583100  0.87009000  1
  O  O12  1  0.38574100  0.88790400  0.12991000  1
  O  O13  1  0.36425900  0.99416900  0.00216300  1
  O  O14  1  0.00583100  0.63574100  0.99783700  1
  O  O15  1  0.63790400  0.00799400  0.00216300  1
  O  O16  1  0.75799400  0.88790400  0.50216300  1
  O  O17  1  0.63790400  0.63574100  0.62991000  1
  O  O18  1  0.00583100  0.00799400  0.37009000  1
  O  O19  1  0.99200600  0.99416900  0.62991000  1
  O  O20  1  0.36425900  0.36209600  0.37009000  1
  O  O21  1  0.38574100  0.25583100  0.49783700  1
  O  O22  1  0.74416900  0.61425900  0.50216300  1
  O  O23  1  0.11209600  0.24200600  0.49783700  1
  O  O24  1  0.17332800  0.67332800  0.50000000  1
  O  O25  1  0.42332800  0.42332800  0.00000000  1
  O  O26  1  0.57667200  0.57667200  0.00000000  1
  O  O27  1  0.32667200  0.82667200  0.50000000  1
  O  O28  1  0.07873600  0.07873600  0.00000000  1
  O  O29  1  0.82873600  0.32873600  0.50000000  1
  O  O30  1  0.67126400  0.17126400  0.50000000  1
  O  O31  1  0.92126400  0.92126400  0.00000000  1
  O  O32  1  0.37500000  0.12500000  0.25000000  1
  O  O33  1  0.87500000  0.12500000  0.25000000  1
  O  O34  1  0.87500000  0.62500000  0.75000000  1
  O  O35  1  0.87500000  0.12500000  0.75000000  1
loop_
_geom_bond_atom_site_label_1
_geom_bond_atom_site_label_2
_geom_bond_distance
_geom_bond_site_symmetry_2
O0 Si16 1.635083 1_555
O0 Si0 1.636964 1_555
O1 Si17 1.635083 1_556
O1 Si1 1.636964 1_555
O2 Si17 1.635083 1_555
O2 Si2 1.636984 1_555
O3 Si17 1.635083 1_556
O3 Si3 1.636984 1_555
O4 Si17 1.635083 1_555
O4 Si4 1.636964 1_555
O5 Si16 1.635083 1_555
O5 Si5 1.636984 1_555
O6 Si16 1.635083 1_555
O6 Si6 1.636984 1_555
O7 Si16 1.635083 1_555
O7 Si7 1.636964 1_555
O8 Si0 1.623810 1_656
O8 Si12 1.625852 1_555
O9 Si1 1.623810 1_555
O9 Si15 1.625852 1_455
O10 Si2 1.623809 1_555
O10 Si14 1.625852 1_555
O11 Si3 1.623809 1_555
O11 Si13 1.625852 1_555
O12 Si4 1.623810 1_555
O12 Si8 1.625852 1_565
O13 Si5 1.623803 1_554
O13 Si11 1.625852 1_565
O14 Si6 1.623803 1_556
O14 Si10 1.625852 1_455
O15 Si7 1.623810 1_544
O15 Si9 1.625852 1_555
O16 Si4 1.623810 1_555
O16 Si13 1.625852 1_565
O17 Si7 1.623810 1_555
O17 Si10 1.625852 1_555
O18 Si6 1.623809 1_545
O18 Si9 1.625852 1_455
O19 Si5 1.623809 1_655
O19 Si12 1.625852 1_565
O20 Si0 1.623810 1_555
O20 Si11 1.625852 1_555
O21 Si3 1.623803 1_555
O21 Si8 1.625852 1_555
O22 Si2 1.623803 1_555
O22 Si15 1.625852 1_555
O23 Si1 1.623810 1_555
O23 Si14 1.625852 1_455
O24 Si5 1.634977 1_555
O24 Si0 1.634989 1_555
O25 Si2 1.634977 1_555
O25 Si1 1.634989 1_554
O26 Si3 1.634977 1_554
O26 Si4 1.634989 1_555
O27 Si6 1.634977 1_555
O27 Si7 1.634989 1_555
O28 Si13 1.619089 1_454
O28 Si8 1.619089 1_555
O29 Si10 1.619089 1_555
O29 Si9 1.619089 1_555
O30 Si11 1.619089 1_555
O30 Si12 1.619089 1_555
O31 Si14 1.619089 1_565
O31 Si15 1.619089 1_554
O32 Si11 1.621712 1_555
O32 Si8 1.621712 1_555
O33 Si9 1.621712 1_555
O33 Si14 1.621712 1_555
O34 Si10 1.621712 1_555
O34 Si15 1.621712 1_555
O35 Si12 1.621712 1_555
O35 Si13 1.621712 1_555
