# generated using pymatgen
data_Li20Nb19O60
_symmetry_space_group_name_H-M   'P 1'
_cell_length_a   5.60124251
_cell_length_b   11.22887014
_cell_length_c   56.18149928
_cell_angle_alpha   55.59865432
_cell_angle_beta   55.72011518
_cell_angle_gamma   55.62502004
_symmetry_Int_Tables_number   1
_chemical_formula_structural   Li20Nb19O60
_chemical_formula_sum   'Li40 Nb38 O120'
_cell_volume   2246.28926581
_cell_formula_units_Z   2
loop_
 _symmetry_equiv_pos_site_id
 _symmetry_equiv_pos_as_xyz
  1  'x, y, z'
loop_
 _atom_site_type_symbol
 _atom_site_label
 _atom_site_symmetry_multiplicity
 _atom_site_fract_x
 _atom_site_fract_y
 _atom_site_fract_z
 _atom_site_occupancy
  Li  Li0  1  0.30189900  0.13565500  0.02710100  1
  Li  Li1  1  0.27095200  0.64832700  0.02738100  1
  Li  Li2  1  0.27314300  0.13536200  0.13004700  1
  Li  Li3  1  0.78225200  0.39188500  0.07834700  1
  Li  Li4  1  0.30578200  0.13470000  0.22694300  1
  Li  Li5  1  0.28287400  0.64010200  0.12798100  1
  Li  Li6  1  0.76889000  0.39238300  0.17872700  1
  Li  Li7  1  0.78822500  0.88546000  0.07801000  1
  Li  Li8  1  0.28019500  0.14080000  0.32822500  1
  Li  Li9  1  0.27201700  0.64900500  0.22726700  1
  Li  Li10  1  0.78132900  0.39258300  0.27833000  1
  Li  Li11  1  0.79687700  0.90344700  0.17856400  1
  Li  Li12  1  0.28349700  0.63911400  0.32831900  1
  Li  Li13  1  0.28223200  0.14044400  0.42802900  1
  Li  Li14  1  0.78129800  0.39090400  0.37800000  1
  Li  Li15  1  0.78834900  0.88628100  0.27791100  1
  Li  Li16  1  0.28168700  0.14063500  0.52811800  1
  Li  Li17  1  0.28169500  0.64078000  0.42810700  1
  Li  Li18  1  0.78116600  0.39083000  0.47812800  1
  Li  Li19  1  0.78114800  0.89099800  0.37819900  1
  Li  Li20  1  0.28133800  0.14064700  0.62814900  1
  Li  Li21  1  0.28170300  0.64063500  0.52810600  1
  Li  Li22  1  0.78126300  0.39070600  0.57814200  1
  Li  Li23  1  0.78124400  0.89081300  0.47810600  1
  Li  Li24  1  0.28061500  0.14069000  0.72821700  1
  Li  Li25  1  0.28136600  0.64063300  0.62814800  1
  Li  Li26  1  0.78129800  0.39043900  0.67819900  1
  Li  Li27  1  0.78127400  0.89070800  0.57814000  1
  Li  Li28  1  0.28049600  0.64074500  0.72822400  1
  Li  Li29  1  0.27960000  0.14123400  0.82822600  1
  Li  Li30  1  0.78150500  0.38990300  0.77829500  1
  Li  Li31  1  0.78125900  0.89044300  0.67820800  1
  Li  Li32  1  0.27379100  0.13424700  0.93015300  1
  Li  Li33  1  0.27948400  0.64080100  0.82829100  1
  Li  Li34  1  0.78380200  0.38973600  0.87805500  1
  Li  Li35  1  0.78181200  0.88993100  0.77823900  1
  Li  Li36  1  0.28209800  0.64219600  0.92765700  1
  Li  Li37  1  0.76945000  0.39169700  0.97892500  1
  Li  Li38  1  0.78295900  0.88939700  0.87822100  1
  Li  Li39  1  0.79997800  0.90375000  0.97812700  1
  Nb  Nb0  1  0.00134300  0.50377000  0.99865000  1
  Nb  Nb1  1  0.00067100  0.99522600  0.10059300  1
  Nb  Nb2  1  0.50223900  0.25447600  0.04980300  1
  Nb  Nb3  1  0.99639000  0.49746000  0.10082500  1
  Nb  Nb4  1  0.50072700  0.24995300  0.15020800  1
  Nb  Nb5  1  0.48721600  0.74838400  0.05212600  1
  Nb  Nb6  1  0.00207100  0.50438200  0.19852700  1
  Nb  Nb7  1  0.99842600  0.99861500  0.30035500  1
  Nb  Nb8  1  0.50570700  0.25270900  0.24991000  1
  Nb  Nb9  1  0.49809700  0.75435000  0.14982800  1
  Nb  Nb10  1  0.99851400  0.00049300  0.40003700  1
  Nb  Nb11  1  0.00051100  0.49982400  0.30004000  1
  Nb  Nb12  1  0.49901100  0.25103100  0.35001900  1
  Nb  Nb13  1  0.49553500  0.75011500  0.25156900  1
  Nb  Nb14  1  0.99898400  0.50045500  0.40016100  1
  Nb  Nb15  1  0.99922600  0.00047200  0.50009700  1
  Nb  Nb16  1  0.50026400  0.25029500  0.45002700  1
  Nb  Nb17  1  0.50113300  0.74912100  0.35000400  1
  Nb  Nb18  1  0.99920900  0.00023700  0.60012900  1
  Nb  Nb19  1  0.99895700  0.50044900  0.50010600  1
  Nb  Nb20  1  0.49967900  0.25045900  0.55003700  1
  Nb  Nb21  1  0.49964100  0.75053100  0.45000900  1
  Nb  Nb22  1  0.99936200  0.99998400  0.70012900  1
  Nb  Nb23  1  0.99920700  0.50024800  0.60012900  1
  Nb  Nb24  1  0.49919600  0.25050900  0.65006300  1
  Nb  Nb25  1  0.49972900  0.75047900  0.55003700  1
  Nb  Nb26  1  0.99935300  0.99980400  0.80008800  1
  Nb  Nb27  1  0.99937000  0.50002200  0.70012100  1
  Nb  Nb28  1  0.49890000  0.25055300  0.75001500  1
  Nb  Nb29  1  0.49922100  0.75050600  0.65006300  1
  Nb  Nb30  1  0.00116500  0.99851300  0.90004500  1
  Nb  Nb31  1  0.99981400  0.49959500  0.80006700  1
  Nb  Nb32  1  0.49806200  0.25025700  0.85016300  1
  Nb  Nb33  1  0.49874400  0.75059100  0.75003200  1
  Nb  Nb34  1  0.99668500  0.49946100  0.90037200  1
  Nb  Nb35  1  0.49804200  0.75035500  0.84997600  1
  Nb  Nb36  1  0.50200000  0.25073700  0.94963600  1
  Nb  Nb37  1  0.49934000  0.75511700  0.94955700  1
  O  O0  1  0.12561800  0.17488000  0.07124600  1
  O  O1  1  0.35258200  0.36447300  0.01118000  1
  O  O2  1  0.66714000  0.05835200  0.04136900  1
  O  O3  1  0.20999900  0.43369400  0.06097900  1
  O  O4  1  0.60968800  0.11470500  0.08625600  1
  O  O5  1  0.10795700  0.67962400  0.07198300  1
  O  O6  1  0.11298700  0.20429800  0.16820900  1
  O  O7  1  0.86517500  0.30318000  0.02165300  1
  O  O8  1  0.41806300  0.84036700  0.01091100  1
  O  O9  1  0.36106600  0.35845900  0.11099200  1
  O  O10  1  0.70920700  0.55850400  0.03549000  1
  O  O11  1  0.72976600  0.05698800  0.13503400  1
  O  O12  1  0.22237000  0.43619900  0.16064500  1
  O  O13  1  0.21572300  0.93456900  0.06031500  1
  O  O14  1  0.55157400  0.10744300  0.18720000  1
  O  O15  1  0.60657200  0.60356500  0.08749500  1
  O  O16  1  0.11967900  0.17638900  0.27184900  1
  O  O17  1  0.11303200  0.68072100  0.17172000  1
  O  O18  1  0.87291300  0.30369800  0.12132600  1
  O  O19  1  0.86034300  0.78574100  0.02294200  1
  O  O20  1  0.34985900  0.36587200  0.21152800  1
  O  O21  1  0.36679000  0.85654900  0.11042600  1
  O  O22  1  0.66167700  0.05926900  0.24155200  1
  O  O23  1  0.72020200  0.55205600  0.13612700  1
  O  O24  1  0.22572900  0.93261700  0.15728200  1
  O  O25  1  0.20736700  0.43157200  0.26182700  1
  O  O26  1  0.60681300  0.11474200  0.28672800  1
  O  O27  1  0.60881400  0.60913000  0.18633500  1
  O  O28  1  0.10525200  0.67973700  0.27259200  1
  O  O29  1  0.10932800  0.17891600  0.37214200  1
  O  O30  1  0.86542300  0.30219100  0.22204300  1
  O  O31  1  0.86999100  0.80487000  0.12118300  1
  O  O32  1  0.35991600  0.35816200  0.31134000  1
  O  O33  1  0.41852200  0.83263200  0.21165700  1
  O  O34  1  0.70678400  0.55917400  0.23554000  1
  O  O35  1  0.72258500  0.05430500  0.33586800  1
  O  O36  1  0.22002200  0.42903300  0.36120000  1
  O  O37  1  0.21279400  0.93422200  0.26081100  1
  O  O38  1  0.60991500  0.10899700  0.38593200  1
  O  O39  1  0.60697000  0.60272700  0.28778700  1
  O  O40  1  0.10990700  0.17923900  0.47208200  1
  O  O41  1  0.10936300  0.67948400  0.37214500  1
  O  O42  1  0.86214900  0.78639500  0.22321800  1
  O  O43  1  0.86020300  0.30184900  0.32254800  1
  O  O44  1  0.35826400  0.36009800  0.41110800  1
  O  O45  1  0.35952000  0.85868500  0.31120100  1
  O  O46  1  0.72012500  0.05506000  0.43582900  1
  O  O47  1  0.71998000  0.55459400  0.33612300  1
  O  O48  1  0.22153400  0.92791600  0.36113300  1
  O  O49  1  0.22067000  0.42883300  0.46108800  1
  O  O50  1  0.61025700  0.60985200  0.38590900  1
  O  O51  1  0.61021800  0.10978800  0.48585200  1
  O  O52  1  0.11011900  0.17918900  0.57203400  1
  O  O53  1  0.10960400  0.67920400  0.47209500  1
  O  O54  1  0.85898900  0.30483600  0.42214000  1
  O  O55  1  0.86101000  0.80476600  0.32192900  1
  O  O56  1  0.35795500  0.85972500  0.41115300  1
  O  O57  1  0.35850400  0.35990500  0.51107500  1
  O  O58  1  0.72042500  0.55479400  0.43587600  1
  O  O59  1  0.72064700  0.05497000  0.53581600  1
  O  O60  1  0.22064400  0.42902900  0.56102800  1
  O  O61  1  0.22043800  0.92892700  0.46109700  1
  O  O62  1  0.61028000  0.10988800  0.58582200  1
  O  O63  1  0.61018900  0.60972900  0.48586100  1
  O  O64  1  0.11060500  0.17912300  0.67195800  1
  O  O65  1  0.11014100  0.67918600  0.57203400  1
  O  O66  1  0.85867200  0.80448600  0.42213600  1
  O  O67  1  0.85874500  0.30486600  0.52207900  1
  O  O68  1  0.35883900  0.35997000  0.61100100  1
  O  O69  1  0.35853300  0.85994400  0.51106900  1
  O  O70  1  0.72088800  0.05498600  0.63577900  1
  O  O71  1  0.72058200  0.55496600  0.53581700  1
  O  O72  1  0.22061400  0.42925600  0.66094400  1
  O  O73  1  0.22063700  0.92902400  0.56103200  1
  O  O74  1  0.61024500  0.11005200  0.68578600  1
  O  O75  1  0.61027100  0.60989700  0.58582100  1
  O  O76  1  0.11060600  0.67914700  0.67195700  1
  O  O77  1  0.11130800  0.17905000  0.77180300  1
  O  O78  1  0.85884300  0.80485300  0.52208700  1
  O  O79  1  0.85869700  0.30506900  0.62202500  1
  O  O80  1  0.35935300  0.35990800  0.71088800  1
  O  O81  1  0.35882100  0.85997100  0.61100400  1
  O  O82  1  0.72113800  0.05500700  0.73575400  1
  O  O83  1  0.72086000  0.55499900  0.63578300  1
  O  O84  1  0.22029300  0.42956000  0.76080200  1
  O  O85  1  0.22065600  0.92925100  0.66093700  1
  O  O86  1  0.61046000  0.11028300  0.78574300  1
  O  O87  1  0.61028700  0.61003400  0.68578800  1
  O  O88  1  0.11464900  0.17864200  0.87147900  1
  O  O89  1  0.11129200  0.67890700  0.77181600  1
  O  O90  1  0.85853300  0.30536500  0.72191200  1
  O  O91  1  0.85870500  0.80508200  0.62202300  1
  O  O92  1  0.35936400  0.85991400  0.71087800  1
  O  O93  1  0.36053200  0.35957500  0.81071100  1
  O  O94  1  0.72269800  0.05472700  0.83569300  1
  O  O95  1  0.72118400  0.55498100  0.73575100  1
  O  O96  1  0.22033700  0.92951400  0.76080200  1
  O  O97  1  0.22148000  0.43044600  0.86043700  1
  O  O98  1  0.61259000  0.11042400  0.88565100  1
  O  O99  1  0.61029400  0.61033500  0.78575600  1
  O  O100  1  0.11602000  0.20042500  0.96923200  1
  O  O101  1  0.11364200  0.67887500  0.87160400  1
  O  O102  1  0.85814500  0.30583600  0.82173000  1
  O  O103  1  0.85845200  0.80537800  0.72190900  1
  O  O104  1  0.36041200  0.85970100  0.81073600  1
  O  O105  1  0.36164100  0.35989800  0.91079500  1
  O  O106  1  0.72865500  0.05722600  0.93505000  1
  O  O107  1  0.72240400  0.55468800  0.83572500  1
  O  O108  1  0.22432200  0.43613300  0.96026200  1
  O  O109  1  0.22197000  0.93017200  0.86048300  1
  O  O110  1  0.55011100  0.10714600  0.98723700  1
  O  O111  1  0.61119800  0.61020500  0.88564200  1
  O  O112  1  0.11381800  0.67999600  0.97166700  1
  O  O113  1  0.87329500  0.30535400  0.92111500  1
  O  O114  1  0.85830000  0.80569000  0.82174200  1
  O  O115  1  0.36626500  0.85740000  0.91023000  1
  O  O116  1  0.72165100  0.55238800  0.93584900  1
  O  O117  1  0.22460500  0.93281300  0.95722200  1
  O  O118  1  0.60955200  0.60957400  0.98621900  1
  O  O119  1  0.86860700  0.80514000  0.92120600  1
loop_
_geom_bond_atom_site_label_1
_geom_bond_atom_site_label_2
_geom_bond_distance
_geom_bond_site_symmetry_2
Li0 O110 1.962480 1_554
Li0 O13 2.066035 1_545
Li0 O7 2.147746 1_455
Li0 O2 2.153402 1_555
Li0 O0 2.303191 1_555
Li0 O1 2.328737 1_555
Li1 O19 1.984099 1_455
Li1 O118 2.097324 1_554
Li1 O3 2.133246 1_555
Li1 O8 2.253469 1_555
Li1 O10 2.279358 1_555
Li1 O5 2.300389 1_555
Li2 O24 1.970646 1_545
Li2 O18 2.060191 1_455
Li2 O4 2.141706 1_555
Li2 O6 2.219297 1_555
Li2 O11 2.319804 1_555
Li2 O9 2.330898 1_555
Li3 O9 2.101967 1_555
Li3 O10 2.149465 1_555
Li3 O0 2.176662 1_655
Li3 O3 2.243195 1_655
Li3 O15 2.247609 1_555
Li3 O18 2.276062 1_555
Li4 O14 1.951456 1_555
Li4 O37 2.080126 1_545
Li4 O22 2.125042 1_555
Li4 O30 2.153684 1_455
Li4 O16 2.343441 1_555
Li4 O20 2.343443 1_555
Li5 O12 2.037796 1_555
Li5 O15 2.048954 1_555
Li5 O31 2.069343 1_455
Li5 O21 2.271549 1_555
Li5 O23 2.281268 1_555
Li5 O17 2.301004 1_555
Li6 O6 2.013733 1_655
Li6 O20 2.071291 1_555
Li6 O23 2.085983 1_555
Li6 O27 2.278094 1_555
Li6 O30 2.306340 1_555
Li6 O12 2.380259 1_655
Li7 O2 2.009134 1_565
Li7 O5 2.047236 1_655
Li7 O21 2.085402 1_555
Li7 O31 2.283629 1_555
Li7 O13 2.283894 1_655
Li7 O4 2.399956 1_565
Li8 O26 2.056598 1_555
Li8 O43 2.072611 1_455
Li8 O48 2.109274 1_545
Li8 O32 2.278971 1_555
Li8 O29 2.292927 1_555
Li8 O35 2.297287 1_555
Li9 O42 1.973491 1_455
Li9 O27 2.090542 1_555
Li9 O25 2.170661 1_555
Li9 O33 2.179612 1_555
Li9 O34 2.266121 1_555
Li9 O28 2.329256 1_555
Li10 O32 2.109377 1_555
Li10 O34 2.149438 1_555
Li10 O16 2.154955 1_655
Li10 O25 2.230392 1_655
Li10 O39 2.243664 1_555
Li10 O43 2.296230 1_555
Li11 O14 2.078746 1_565
Li11 O33 2.091443 1_555
Li11 O24 2.125461 1_655
Li11 O11 2.152667 1_565
Li11 O17 2.203878 1_655
Li11 O42 2.218008 1_555
Li12 O39 2.050092 1_555
Li12 O36 2.094466 1_555
Li12 O55 2.102560 1_455
Li12 O47 2.277585 1_555
Li12 O45 2.286915 1_555
Li12 O41 2.296946 1_555
Li13 O54 2.094980 1_455
Li13 O38 2.099752 1_555
Li13 O61 2.104829 1_545
Li13 O46 2.282054 1_555
Li13 O44 2.291099 1_555
Li13 O40 2.302024 1_555
Li14 O47 2.083886 1_555
Li14 O29 2.101370 1_655
Li14 O44 2.104219 1_555
Li14 O36 2.287283 1_655
Li14 O50 2.292344 1_555
Li14 O54 2.303396 1_555
Li15 O22 2.010464 1_565
Li15 O28 2.038609 1_655
Li15 O45 2.118616 1_555
Li15 O37 2.269981 1_655
Li15 O55 2.296627 1_555
Li15 O26 2.404854 1_565
Li16 O67 2.096009 1_455
Li16 O73 2.103017 1_545
Li16 O51 2.105275 1_555
Li16 O59 2.283573 1_555
Li16 O57 2.287446 1_555
Li16 O52 2.294471 1_555
Li17 O66 2.094306 1_455
Li17 O50 2.102799 1_555
Li17 O49 2.106272 1_555
Li17 O58 2.283525 1_555
Li17 O56 2.283725 1_555
Li17 O53 2.296623 1_555
Li18 O58 2.098641 1_555
Li18 O57 2.101717 1_555
Li18 O40 2.101939 1_655
Li18 O63 2.286363 1_555
Li18 O49 2.286641 1_655
Li18 O67 2.293347 1_555
Li19 O35 2.097100 1_565
Li19 O41 2.101017 1_655
Li19 O56 2.105121 1_555
Li19 O38 2.276385 1_565
Li19 O48 2.284115 1_655
Li19 O66 2.290628 1_555
Li20 O79 2.096552 1_455
Li20 O85 2.099585 1_545
Li20 O62 2.107804 1_555
Li20 O70 2.284582 1_555
Li20 O68 2.288416 1_555
Li20 O64 2.289667 1_555
Li21 O78 2.095316 1_455
Li21 O60 2.103059 1_555
Li21 O63 2.104583 1_555
Li21 O71 2.283539 1_555
Li21 O69 2.288000 1_555
Li21 O65 2.295100 1_555
Li22 O68 2.099354 1_555
Li22 O71 2.102007 1_555
Li22 O52 2.102500 1_655
Li22 O60 2.286779 1_655
Li22 O75 2.287738 1_555
Li22 O79 2.290363 1_555
Li23 O46 2.100772 1_565
Li23 O53 2.101170 1_655
Li23 O69 2.101862 1_555
Li23 O61 2.286205 1_655
Li23 O51 2.287500 1_565
Li23 O78 2.295017 1_555
Li24 O96 2.095433 1_545
Li24 O90 2.097802 1_455
Li24 O74 2.112206 1_555
Li24 O77 2.279435 1_555
Li24 O82 2.286759 1_555
Li24 O80 2.288212 1_555
Li25 O91 2.096696 1_455
Li25 O72 2.099616 1_555
Li25 O75 2.107694 1_555
Li25 O83 2.284531 1_555
Li25 O81 2.288497 1_555
Li25 O76 2.289862 1_555
Li26 O80 2.095271 1_555
Li26 O64 2.103537 1_655
Li26 O83 2.105805 1_555
Li26 O90 2.282574 1_555
Li26 O72 2.287228 1_655
Li26 O87 2.289168 1_555
Li27 O81 2.099518 1_555
Li27 O59 2.101878 1_565
Li27 O65 2.102515 1_655
Li27 O73 2.286738 1_655
Li27 O62 2.287712 1_565
Li27 O91 2.290390 1_555
Li28 O84 2.095321 1_555
Li28 O103 2.097749 1_455
Li28 O87 2.112794 1_555
Li28 O89 2.278678 1_555
Li28 O95 2.287055 1_555
Li28 O92 2.287823 1_555
Li29 O109 2.087331 1_545
Li29 O102 2.098437 1_455
Li29 O86 2.116425 1_555
Li29 O88 2.262987 1_555
Li29 O93 2.282797 1_555
Li29 O94 2.295518 1_555
Li30 O93 2.088362 1_555
Li30 O77 2.104565 1_655
Li30 O95 2.111688 1_555
Li30 O102 2.269289 1_555
Li30 O84 2.285859 1_655
Li30 O99 2.293718 1_555
Li31 O92 2.094902 1_555
Li31 O76 2.103581 1_655
Li31 O70 2.106194 1_565
Li31 O103 2.281835 1_555
Li31 O85 2.287340 1_655
Li31 O74 2.288966 1_565
Li32 O117 1.962030 1_545
Li32 O113 2.072527 1_455
Li32 O98 2.182109 1_555
Li32 O100 2.251635 1_555
Li32 O106 2.312467 1_555
Li32 O105 2.352942 1_555
Li33 O97 2.081292 1_555
Li33 O114 2.098736 1_455
Li33 O99 2.116841 1_555
Li33 O101 2.268888 1_555
Li33 O104 2.288055 1_555
Li33 O107 2.294839 1_555
Li34 O105 2.094220 1_555
Li34 O107 2.104581 1_555
Li34 O88 2.108868 1_655
Li34 O97 2.284620 1_655
Li34 O113 2.289331 1_555
Li34 O111 2.295768 1_555
Li35 O104 2.090428 1_555
Li35 O89 2.104482 1_655
Li35 O82 2.109876 1_565
Li35 O114 2.271847 1_555
Li35 O96 2.284905 1_655
Li35 O86 2.293982 1_565
Li36 O108 2.050003 1_555
Li36 O119 2.062587 1_455
Li36 O111 2.099460 1_555
Li36 O115 2.261272 1_555
Li36 O116 2.288838 1_555
Li36 O112 2.300194 1_555
Li37 O100 2.024989 1_655
Li37 O1 2.059862 1_556
Li37 O116 2.105778 1_555
Li37 O7 2.278140 1_556
Li37 O118 2.280488 1_555
Li37 O108 2.382214 1_655
Li38 O115 2.073484 1_555
Li38 O101 2.104795 1_655
Li38 O94 2.111356 1_565
Li38 O119 2.273337 1_555
Li38 O109 2.290150 1_655
Li38 O98 2.300466 1_565
Li39 O8 2.067538 1_556
Li39 O110 2.083607 1_565
Li39 O117 2.107022 1_655
Li39 O106 2.141363 1_565
Li39 O112 2.204286 1_655
Li39 O19 2.211901 1_556
Nb0 O112 1.884927 1_555
Nb0 O1 1.911461 1_556
Nb0 O10 1.955950 1_456
Nb0 O108 2.129202 1_555
Nb0 O118 2.135399 1_455
Nb0 O7 2.205796 1_456
Nb1 O11 1.883635 1_465
Nb1 O21 1.906202 1_555
Nb1 O0 1.952901 1_565
Nb1 O31 2.112276 1_455
Nb1 O4 2.166332 1_465
Nb1 O13 2.186351 1_555
Nb2 O7 1.894561 1_555
Nb2 O3 1.916704 1_555
Nb2 O4 1.926008 1_555
Nb2 O2 2.077675 1_555
Nb2 O0 2.179436 1_555
Nb2 O1 2.188168 1_555
Nb3 O23 1.883967 1_555
Nb3 O9 1.908285 1_655
Nb3 O5 1.938477 1_655
Nb3 O18 2.123429 1_555
Nb3 O15 2.155006 1_555
Nb3 O3 2.186833 1_655
Nb4 O14 1.831721 1_555
Nb4 O12 1.955052 1_555
Nb4 O18 1.961315 1_555
Nb4 O6 2.049300 1_555
Nb4 O9 2.186899 1_555
Nb4 O11 2.187199 1_555
Nb5 O19 1.893396 1_555
Nb5 O13 1.898340 1_555
Nb5 O15 1.912426 1_555
Nb5 O8 2.105844 1_555
Nb5 O5 2.136033 1_555
Nb5 O10 2.216888 1_555
Nb6 O17 1.881695 1_555
Nb6 O20 1.909249 1_555
Nb6 O34 1.964815 1_455
Nb6 O12 2.110552 1_555
Nb6 O27 2.137347 1_455
Nb6 O30 2.218039 1_455
Nb7 O35 1.898744 1_565
Nb7 O45 1.910176 1_655
Nb7 O16 1.924617 1_665
Nb7 O26 2.152156 1_565
Nb7 O55 2.158554 1_555
Nb7 O37 2.174874 1_655
Nb8 O30 1.883421 1_555
Nb8 O26 1.925425 1_555
Nb8 O25 1.934880 1_555
Nb8 O22 2.061403 1_555
Nb8 O20 2.190489 1_555
Nb8 O16 2.196728 1_555
Nb9 O24 1.813527 1_555
Nb9 O27 1.939585 1_555
Nb9 O31 1.943548 1_555
Nb9 O17 2.173610 1_555
Nb9 O21 2.183709 1_555
Nb9 O23 2.237412 1_555
Nb10 O29 1.901536 1_655
Nb10 O46 1.905690 1_555
Nb10 O56 1.910312 1_645
Nb10 O38 2.169687 1_555
Nb10 O66 2.182342 1_545
Nb10 O48 2.188465 1_645
Nb11 O28 1.898020 1_555
Nb11 O32 1.915335 1_555
Nb11 O47 1.919925 1_455
Nb11 O25 2.143190 1_555
Nb11 O39 2.145324 1_455
Nb11 O43 2.198964 1_455
Nb12 O43 1.895198 1_555
Nb12 O36 1.901990 1_555
Nb12 O38 1.912435 1_555
Nb12 O32 2.161298 1_555
Nb12 O29 2.183426 1_555
Nb12 O35 2.195271 1_555
Nb13 O42 1.856550 1_555
Nb13 O37 1.908157 1_555
Nb13 O39 1.930777 1_555
Nb13 O33 2.088814 1_555
Nb13 O28 2.187694 1_555
Nb13 O34 2.219156 1_555
Nb14 O58 1.901214 1_555
Nb14 O44 1.905106 1_655
Nb14 O41 1.905990 1_655
Nb14 O50 2.173285 1_555
Nb14 O54 2.180363 1_555
Nb14 O36 2.185610 1_655
Nb15 O59 1.902204 1_555
Nb15 O40 1.904489 1_655
Nb15 O69 1.905948 1_645
Nb15 O51 2.174635 1_555
Nb15 O78 2.181561 1_545
Nb15 O61 2.188206 1_645
Nb16 O49 1.903692 1_555
Nb16 O54 1.904256 1_555
Nb16 O51 1.905358 1_555
Nb16 O44 2.176947 1_555
Nb16 O40 2.180277 1_555
Nb16 O46 2.186252 1_555
Nb17 O50 1.906103 1_555
Nb17 O48 1.907679 1_555
Nb17 O55 1.915363 1_555
Nb17 O47 2.169445 1_555
Nb17 O45 2.170377 1_555
Nb17 O41 2.176649 1_555
Nb18 O70 1.900420 1_555
Nb18 O81 1.904671 1_645
Nb18 O52 1.906890 1_655
Nb18 O62 2.175594 1_555
Nb18 O91 2.178447 1_545
Nb18 O73 2.190525 1_645
Nb19 O71 1.901902 1_555
Nb19 O53 1.904288 1_655
Nb19 O57 1.906917 1_655
Nb19 O63 2.173523 1_555
Nb19 O67 2.180813 1_555
Nb19 O49 2.189020 1_655
Nb20 O60 1.902032 1_555
Nb20 O67 1.905243 1_555
Nb20 O62 1.905297 1_555
Nb20 O57 2.177109 1_555
Nb20 O52 2.178440 1_555
Nb20 O59 2.188299 1_555
Nb21 O66 1.902575 1_555
Nb21 O61 1.903059 1_555
Nb21 O63 1.908188 1_555
Nb21 O56 2.174144 1_555
Nb21 O53 2.180190 1_555
Nb21 O58 2.187962 1_555
Nb22 O82 1.900712 1_565
Nb22 O92 1.903076 1_655
Nb22 O64 1.909564 1_665
Nb22 O103 2.175680 1_555
Nb22 O74 2.176800 1_565
Nb22 O85 2.192136 1_655
Nb23 O83 1.900610 1_555
Nb23 O68 1.904688 1_655
Nb23 O65 1.906830 1_655
Nb23 O75 2.175668 1_555
Nb23 O79 2.178685 1_555
Nb23 O60 2.190756 1_655
Nb24 O72 1.900638 1_555
Nb24 O74 1.903686 1_555
Nb24 O79 1.908120 1_555
Nb24 O64 2.175586 1_555
Nb24 O68 2.179286 1_555
Nb24 O70 2.189975 1_555
Nb25 O73 1.901932 1_555
Nb25 O75 1.905110 1_555
Nb25 O78 1.905262 1_555
Nb25 O69 2.177437 1_555
Nb25 O65 2.178738 1_555
Nb25 O71 2.188638 1_555
Nb26 O94 1.898962 1_565
Nb26 O104 1.905132 1_655
Nb26 O77 1.912624 1_665
Nb26 O114 2.172735 1_555
Nb26 O86 2.174805 1_565
Nb26 O96 2.194163 1_655
Nb27 O95 1.900592 1_555
Nb27 O80 1.903470 1_655
Nb27 O76 1.909406 1_655
Nb27 O90 2.175810 1_555
Nb27 O87 2.176416 1_555
Nb27 O72 2.191669 1_655
Nb28 O84 1.900502 1_555
Nb28 O86 1.905102 1_555
Nb28 O90 1.910148 1_555
Nb28 O77 2.172658 1_555
Nb28 O80 2.180028 1_555
Nb28 O82 2.188786 1_555
Nb29 O85 1.900437 1_555
Nb29 O87 1.903824 1_555
Nb29 O91 1.908133 1_555
Nb29 O76 2.175531 1_555
Nb29 O81 2.179273 1_555
Nb29 O83 2.189738 1_555
Nb30 O106 1.891930 1_465
Nb30 O115 1.911752 1_555
Nb30 O88 1.924952 1_565
Nb30 O119 2.142126 1_455
Nb30 O98 2.171676 1_465
Nb30 O109 2.194927 1_555
Nb31 O107 1.902320 1_555
Nb31 O93 1.903511 1_655
Nb31 O89 1.911883 1_655
Nb31 O102 2.171195 1_555
Nb31 O99 2.176158 1_555
Nb31 O84 2.191949 1_655
Nb32 O97 1.897321 1_555
Nb32 O98 1.902096 1_555
Nb32 O102 1.916954 1_555
Nb32 O88 2.158187 1_555
Nb32 O93 2.189561 1_555
Nb32 O94 2.193109 1_555
Nb33 O96 1.899288 1_555
Nb33 O99 1.904896 1_555
Nb33 O103 1.910402 1_555
Nb33 O89 2.173257 1_555
Nb33 O92 2.180887 1_555
Nb33 O95 2.189883 1_555
Nb34 O116 1.882791 1_555
Nb34 O105 1.916140 1_655
Nb34 O101 1.928306 1_655
Nb34 O113 2.123676 1_555
Nb34 O111 2.170578 1_555
Nb34 O97 2.213663 1_655
Nb35 O109 1.899842 1_555
Nb35 O111 1.906435 1_555
Nb35 O114 1.915869 1_555
Nb35 O101 2.158452 1_555
Nb35 O104 2.179197 1_555
Nb35 O107 2.187254 1_555
Nb36 O110 1.853848 1_555
Nb36 O108 1.952288 1_555
Nb36 O113 1.960819 1_555
Nb36 O100 2.049518 1_555
Nb36 O105 2.168928 1_555
Nb36 O106 2.174827 1_555
Nb37 O117 1.814391 1_555
Nb37 O119 1.928842 1_555
Nb37 O118 1.945210 1_555
Nb37 O112 2.183766 1_555
Nb37 O115 2.185730 1_555
Nb37 O116 2.241782 1_555
