# generated using pymatgen
data_Ga4P4O17
_symmetry_space_group_name_H-M   'P 1'
_cell_length_a   17.28639906
_cell_length_b   17.28639906
_cell_length_c   17.28639906
_cell_angle_alpha   60.00000000
_cell_angle_beta   60.00000000
_cell_angle_gamma   60.00000000
_symmetry_Int_Tables_number   1
_chemical_formula_structural   Ga4P4O17
_chemical_formula_sum   'Ga24 P24 O102'
_cell_volume   3652.57049054
_cell_formula_units_Z   6
loop_
 _symmetry_equiv_pos_site_id
 _symmetry_equiv_pos_as_xyz
  1  'x, y, z'
loop_
 _atom_site_type_symbol
 _atom_site_label
 _atom_site_symmetry_multiplicity
 _atom_site_fract_x
 _atom_site_fract_y
 _atom_site_fract_z
 _atom_site_occupancy
  Ga  Ga0  1  0.89302800  0.10697200  0.27286500  1
  Ga  Ga1  1  0.39302800  0.77286500  0.60697200  1
  Ga  Ga2  1  0.27286500  0.72713500  0.89302800  1
  Ga  Ga3  1  0.39302800  0.22713500  0.77286500  1
  Ga  Ga4  1  0.10697200  0.27286500  0.89302800  1
  Ga  Ga5  1  0.27286500  0.10697200  0.72713500  1
  Ga  Ga6  1  0.72713500  0.27286500  0.10697200  1
  Ga  Ga7  1  0.72713500  0.89302800  0.27286500  1
  Ga  Ga8  1  0.22713500  0.60697200  0.77286500  1
  Ga  Ga9  1  0.60697200  0.22713500  0.39302800  1
  Ga  Ga10  1  0.60697200  0.77286500  0.22713500  1
  Ga  Ga11  1  0.77286500  0.60697200  0.39302800  1
  Ga  Ga12  1  0.72713500  0.10697200  0.89302800  1
  Ga  Ga13  1  0.89302800  0.72713500  0.10697200  1
  Ga  Ga14  1  0.77286500  0.22713500  0.60697200  1
  Ga  Ga15  1  0.22713500  0.39302800  0.60697200  1
  Ga  Ga16  1  0.77286500  0.39302800  0.22713500  1
  Ga  Ga17  1  0.39302800  0.60697200  0.22713500  1
  Ga  Ga18  1  0.22713500  0.77286500  0.39302800  1
  Ga  Ga19  1  0.60697200  0.39302800  0.77286500  1
  Ga  Ga20  1  0.89302800  0.27286500  0.72713500  1
  Ga  Ga21  1  0.10697200  0.72713500  0.27286500  1
  Ga  Ga22  1  0.10697200  0.89302800  0.72713500  1
  Ga  Ga23  1  0.27286500  0.89302800  0.10697200  1
  P  P0  1  0.41747100  0.22238800  0.58252900  1
  P  P1  1  0.91747100  0.72238800  0.27761200  1
  P  P2  1  0.91747100  0.27761200  0.08252900  1
  P  P3  1  0.27761200  0.08252900  0.91747100  1
  P  P4  1  0.72238800  0.08252900  0.27761200  1
  P  P5  1  0.22238800  0.58252900  0.41747100  1
  P  P6  1  0.72238800  0.27761200  0.91747100  1
  P  P7  1  0.08252900  0.91747100  0.27761200  1
  P  P8  1  0.58252900  0.22238800  0.77761200  1
  P  P9  1  0.08252900  0.27761200  0.72238800  1
  P  P10  1  0.91747100  0.08252900  0.72238800  1
  P  P11  1  0.22238800  0.77761200  0.58252900  1
  P  P12  1  0.77761200  0.22238800  0.41747100  1
  P  P13  1  0.27761200  0.91747100  0.72238800  1
  P  P14  1  0.77761200  0.41747100  0.58252900  1
  P  P15  1  0.72238800  0.91747100  0.08252900  1
  P  P16  1  0.22238800  0.41747100  0.77761200  1
  P  P17  1  0.08252900  0.72238800  0.91747100  1
  P  P18  1  0.58252900  0.77761200  0.41747100  1
  P  P19  1  0.41747100  0.58252900  0.77761200  1
  P  P20  1  0.77761200  0.58252900  0.22238800  1
  P  P21  1  0.27761200  0.72238800  0.08252900  1
  P  P22  1  0.41747100  0.77761200  0.22238800  1
  P  P23  1  0.58252900  0.41747100  0.22238800  1
  O  O0  1  0.84669300  0.82191000  0.28234600  1
  O  O1  1  0.54905100  0.32191000  0.78234600  1
  O  O2  1  0.37280200  0.14446100  0.62719800  1
  O  O3  1  0.29866900  0.70133100  0.99709500  1
  O  O4  1  0.87280200  0.35553900  0.12719800  1
  O  O5  1  0.78234600  0.32191000  0.34669300  1
  O  O6  1  0.45094900  0.67809000  0.21765400  1
  O  O7  1  0.50290500  0.20133100  0.49709500  1
  O  O8  1  0.32191000  0.34669300  0.78234600  1
  O  O9  1  0.29866900  0.00290500  0.70133100  1
  O  O10  1  0.49709500  0.79866900  0.50290500  1
  O  O11  1  0.99709500  0.29866900  0.70133100  1
  O  O12  1  0.12719800  0.35553900  0.64446100  1
  O  O13  1  0.65330700  0.45094900  0.21765400  1
  O  O14  1  0.17809000  0.95094900  0.71765400  1
  O  O15  1  0.00290500  0.99709500  0.70133100  1
  O  O16  1  0.04905100  0.82191000  0.84669300  1
  O  O17  1  0.79866900  0.50290500  0.49709500  1
  O  O18  1  0.04905100  0.28234600  0.82191000  1
  O  O19  1  0.65330700  0.67809000  0.45094900  1
  O  O20  1  0.35553900  0.12719800  0.87280200  1
  O  O21  1  0.82191000  0.04905100  0.28234600  1
  O  O22  1  0.32191000  0.78234600  0.54905100  1
  O  O23  1  0.17809000  0.71765400  0.15330700  1
  O  O24  1  0.95094900  0.15330700  0.71765400  1
  O  O25  1  0.37280200  0.85553900  0.14446100  1
  O  O26  1  0.29866900  0.99709500  0.00290500  1
  O  O27  1  0.71765400  0.95094900  0.15330700  1
  O  O28  1  0.54905100  0.78234600  0.34669300  1
  O  O29  1  0.95094900  0.71765400  0.17809000  1
  O  O30  1  0.49709500  0.20133100  0.79866900  1
  O  O31  1  0.12719800  0.87280200  0.35553900  1
  O  O32  1  0.82191000  0.84669300  0.04905100  1
  O  O33  1  0.99709500  0.70133100  0.00290500  1
  O  O34  1  0.62719800  0.85553900  0.37280200  1
  O  O35  1  0.15330700  0.95094900  0.17809000  1
  O  O36  1  0.50290500  0.49709500  0.79866900  1
  O  O37  1  0.45094900  0.21765400  0.65330700  1
  O  O38  1  0.70133100  0.99709500  0.29866900  1
  O  O39  1  0.95094900  0.17809000  0.15330700  1
  O  O40  1  0.15330700  0.71765400  0.95094900  1
  O  O41  1  0.85553900  0.37280200  0.62719800  1
  O  O42  1  0.32191000  0.54905100  0.34669300  1
  O  O43  1  0.15330700  0.17809000  0.71765400  1
  O  O44  1  0.75000000  0.75000000  0.25000000  1
  O  O45  1  0.14446100  0.85553900  0.62719800  1
  O  O46  1  0.79866900  0.20133100  0.50290500  1
  O  O47  1  0.17809000  0.15330700  0.95094900  1
  O  O48  1  0.35553900  0.87280200  0.64446100  1
  O  O49  1  0.49709500  0.50290500  0.20133100  1
  O  O50  1  0.20133100  0.79866900  0.49709500  1
  O  O51  1  0.25000000  0.25000000  0.75000000  1
  O  O52  1  0.00290500  0.70133100  0.29866900  1
  O  O53  1  0.62719800  0.37280200  0.14446100  1
  O  O54  1  0.54905100  0.34669300  0.32191000  1
  O  O55  1  0.28234600  0.04905100  0.84669300  1
  O  O56  1  0.25000000  0.75000000  0.75000000  1
  O  O57  1  0.70133100  0.00290500  0.99709500  1
  O  O58  1  0.78234600  0.54905100  0.32191000  1
  O  O59  1  0.82191000  0.28234600  0.84669300  1
  O  O60  1  0.21765400  0.45094900  0.67809000  1
  O  O61  1  0.67809000  0.65330700  0.21765400  1
  O  O62  1  0.64446100  0.87280200  0.12719800  1
  O  O63  1  0.28234600  0.82191000  0.04905100  1
  O  O64  1  0.28234600  0.84669300  0.82191000  1
  O  O65  1  0.14446100  0.62719800  0.37280200  1
  O  O66  1  0.65330700  0.21765400  0.67809000  1
  O  O67  1  0.64446100  0.35553900  0.87280200  1
  O  O68  1  0.34669300  0.78234600  0.32191000  1
  O  O69  1  0.14446100  0.37280200  0.85553900  1
  O  O70  1  0.35553900  0.64446100  0.12719800  1
  O  O71  1  0.64446100  0.12719800  0.35553900  1
  O  O72  1  0.20133100  0.50290500  0.79866900  1
  O  O73  1  0.25000000  0.75000000  0.25000000  1
  O  O74  1  0.62719800  0.14446100  0.85553900  1
  O  O75  1  0.37280200  0.62719800  0.85553900  1
  O  O76  1  0.75000000  0.25000000  0.25000000  1
  O  O77  1  0.34669300  0.32191000  0.54905100  1
  O  O78  1  0.50290500  0.79866900  0.20133100  1
  O  O79  1  0.79866900  0.49709500  0.20133100  1
  O  O80  1  0.71765400  0.17809000  0.95094900  1
  O  O81  1  0.67809000  0.45094900  0.65330700  1
  O  O82  1  0.21765400  0.65330700  0.45094900  1
  O  O83  1  0.87280200  0.64446100  0.35553900  1
  O  O84  1  0.67809000  0.21765400  0.45094900  1
  O  O85  1  0.84669300  0.04905100  0.82191000  1
  O  O86  1  0.34669300  0.54905100  0.78234600  1
  O  O87  1  0.20133100  0.49709500  0.50290500  1
  O  O88  1  0.00290500  0.29866900  0.99709500  1
  O  O89  1  0.85553900  0.14446100  0.37280200  1
  O  O90  1  0.78234600  0.34669300  0.54905100  1
  O  O91  1  0.75000000  0.25000000  0.75000000  1
  O  O92  1  0.12719800  0.64446100  0.87280200  1
  O  O93  1  0.99709500  0.00290500  0.29866900  1
  O  O94  1  0.45094900  0.65330700  0.67809000  1
  O  O95  1  0.04905100  0.84669300  0.28234600  1
  O  O96  1  0.70133100  0.29866900  0.00290500  1
  O  O97  1  0.87280200  0.12719800  0.64446100  1
  O  O98  1  0.71765400  0.15330700  0.17809000  1
  O  O99  1  0.21765400  0.67809000  0.65330700  1
  O  O100  1  0.84669300  0.28234600  0.04905100  1
  O  O101  1  0.85553900  0.62719800  0.14446100  1
loop_
_geom_bond_atom_site_label_1
_geom_bond_atom_site_label_2
_geom_bond_distance
_geom_bond_site_symmetry_2
Ga0 O89 1.845102 1_555
Ga0 O21 1.845545 1_555
Ga0 O39 1.845545 1_555
Ga0 O93 1.853420 1_555
Ga0 O76 2.503833 1_555
Ga1 O48 1.845102 1_555
Ga1 O22 1.845545 1_555
Ga1 O94 1.845545 1_555
Ga1 O10 1.853420 1_555
Ga1 O56 2.503833 1_555
Ga2 O75 1.845102 1_555
Ga2 O40 1.845545 1_555
Ga2 O64 1.845545 1_555
Ga2 O3 1.853420 1_555
Ga2 O56 2.503833 1_555
Ga3 O20 1.845102 1_555
Ga3 O37 1.845545 1_555
Ga3 O8 1.845545 1_555
Ga3 O30 1.853420 1_555
Ga3 O51 2.503833 1_555
Ga4 O69 1.845102 1_555
Ga4 O18 1.845545 1_555
Ga4 O47 1.845545 1_555
Ga4 O88 1.853420 1_555
Ga4 O51 2.503833 1_555
Ga5 O2 1.845102 1_555
Ga5 O43 1.845545 1_555
Ga5 O55 1.845545 1_555
Ga5 O9 1.853420 1_555
Ga5 O51 2.503833 1_555
Ga6 O53 1.845102 1_555
Ga6 O98 1.845545 1_555
Ga6 O100 1.845545 1_555
Ga6 O96 1.853420 1_555
Ga6 O76 2.503833 1_555
Ga7 O34 1.845102 1_555
Ga7 O27 1.845545 1_555
Ga7 O0 1.845545 1_555
Ga7 O38 1.853420 1_555
Ga7 O44 2.503833 1_555
Ga8 O92 1.845102 1_555
Ga8 O99 1.845545 1_555
Ga8 O86 1.845545 1_555
Ga8 O72 1.853420 1_555
Ga8 O56 2.503833 1_555
Ga9 O71 1.845102 1_555
Ga9 O54 1.845545 1_555
Ga9 O84 1.845545 1_555
Ga9 O7 1.853420 1_555
Ga9 O76 2.503833 1_555
Ga10 O62 1.845102 1_555
Ga10 O61 1.845545 1_555
Ga10 O28 1.845545 1_555
Ga10 O78 1.853420 1_555
Ga10 O44 2.503833 1_555
Ga11 O83 1.845102 1_555
Ga11 O58 1.845545 1_555
Ga11 O19 1.845545 1_555
Ga11 O17 1.853420 1_555
Ga11 O44 2.503833 1_555
Ga12 O74 1.845102 1_555
Ga12 O85 1.845545 1_555
Ga12 O80 1.845545 1_555
Ga12 O57 1.853420 1_555
Ga12 O91 2.503833 1_555
Ga13 O101 1.845102 1_555
Ga13 O32 1.845545 1_555
Ga13 O29 1.845545 1_555
Ga13 O33 1.853420 1_555
Ga13 O44 2.503833 1_555
Ga14 O97 1.845102 1_555
Ga14 O66 1.845545 1_555
Ga14 O90 1.845545 1_555
Ga14 O46 1.853420 1_555
Ga14 O91 2.503833 1_555
Ga15 O12 1.845102 1_555
Ga15 O77 1.845545 1_555
Ga15 O60 1.845545 1_555
Ga15 O87 1.853420 1_555
Ga15 O51 2.503833 1_555
Ga16 O4 1.845102 1_555
Ga16 O13 1.845545 1_555
Ga16 O5 1.845545 1_555
Ga16 O79 1.853420 1_555
Ga16 O76 2.503833 1_555
Ga17 O70 1.845102 1_555
Ga17 O42 1.845545 1_555
Ga17 O6 1.845545 1_555
Ga17 O49 1.853420 1_555
Ga17 O73 2.503833 1_555
Ga18 O31 1.845102 1_555
Ga18 O82 1.845545 1_555
Ga18 O68 1.845545 1_555
Ga18 O50 1.853420 1_555
Ga18 O73 2.503833 1_555
Ga19 O67 1.845102 1_555
Ga19 O1 1.845545 1_555
Ga19 O81 1.845545 1_555
Ga19 O36 1.853420 1_555
Ga19 O91 2.503833 1_555
Ga20 O41 1.845102 1_555
Ga20 O24 1.845545 1_555
Ga20 O59 1.845545 1_555
Ga20 O11 1.853420 1_555
Ga20 O91 2.503833 1_555
Ga21 O65 1.845102 1_555
Ga21 O23 1.845545 1_555
Ga21 O95 1.845545 1_555
Ga21 O52 1.853420 1_555
Ga21 O73 2.503833 1_555
Ga22 O45 1.845102 1_555
Ga22 O16 1.845545 1_555
Ga22 O14 1.845545 1_555
Ga22 O15 1.853420 1_555
Ga22 O56 2.503833 1_555
Ga23 O25 1.845102 1_555
Ga23 O63 1.845545 1_555
Ga23 O35 1.845545 1_555
Ga23 O26 1.853420 1_555
Ga23 O73 2.503833 1_555
O0 P1 1.548911 1_555
O1 P8 1.548911 1_555
O2 P0 1.552694 1_555
O3 P21 1.521043 1_556
O4 P2 1.552694 1_555
O5 P12 1.548911 1_555
O6 P22 1.548911 1_555
O7 P0 1.521043 1_555
O8 P16 1.548911 1_555
O9 P13 1.521043 1_545
O10 P18 1.521043 1_555
O11 P9 1.521043 1_655
O12 P9 1.552694 1_555
O13 P23 1.548911 1_555
O14 P13 1.548911 1_555
O15 P10 1.521043 1_465
O16 P17 1.548911 1_555
O17 P14 1.521043 1_555
O18 P9 1.548911 1_555
O19 P18 1.548911 1_555
O20 P3 1.552694 1_555
O21 P4 1.548911 1_555
O22 P11 1.548911 1_555
O23 P21 1.548911 1_555
O24 P10 1.548911 1_555
O25 P22 1.552694 1_555
O26 P3 1.521043 1_564
O27 P15 1.548911 1_555
O28 P18 1.548911 1_555
O29 P1 1.548911 1_555
O30 P8 1.521043 1_555
O31 P7 1.552694 1_555
O32 P15 1.548911 1_555
O33 P17 1.521043 1_654
O34 P18 1.552694 1_555
O35 P7 1.548911 1_555
O36 P19 1.521043 1_555
O37 P0 1.548911 1_555
O38 P4 1.521043 1_565
O39 P2 1.548911 1_555
O40 P17 1.548911 1_555
O41 P14 1.552694 1_555
O42 P5 1.548911 1_555
O43 P9 1.548911 1_555
O45 P11 1.552694 1_555
O46 P12 1.521043 1_555
O47 P3 1.548911 1_555
O48 P13 1.552694 1_555
O49 P23 1.521043 1_555
O50 P11 1.521043 1_555
O52 P1 1.521043 1_455
O53 P23 1.552694 1_555
O54 P23 1.548911 1_555
O55 P3 1.548911 1_555
O57 P15 1.521043 1_546
O58 P20 1.548911 1_555
O59 P6 1.548911 1_555
O60 P16 1.548911 1_555
O61 P20 1.548911 1_555
O62 P15 1.552694 1_555
O63 P21 1.548911 1_555
O64 P13 1.548911 1_555
O65 P5 1.552694 1_555
O66 P8 1.548911 1_555
O67 P6 1.552694 1_555
O68 P22 1.548911 1_555
O69 P16 1.552694 1_555
O70 P21 1.552694 1_555
O71 P4 1.552694 1_555
O72 P16 1.521043 1_555
O74 P8 1.552694 1_555
O75 P19 1.552694 1_555
O77 P0 1.548911 1_555
O78 P22 1.521043 1_555
O79 P20 1.521043 1_555
O80 P6 1.548911 1_555
O81 P14 1.548911 1_555
O82 P5 1.548911 1_555
O83 P1 1.552694 1_555
O84 P12 1.548911 1_555
O85 P10 1.548911 1_555
O86 P19 1.548911 1_555
O87 P5 1.521043 1_555
O88 P2 1.521043 1_456
O89 P12 1.552694 1_555
O90 P14 1.548911 1_555
O92 P17 1.552694 1_555
O93 P7 1.521043 1_645
O94 P19 1.548911 1_555
O95 P7 1.548911 1_555
O96 P6 1.521043 1_554
O97 P10 1.552694 1_555
O98 P4 1.548911 1_555
O99 P11 1.548911 1_555
O100 P2 1.548911 1_555
O101 P20 1.552694 1_555
