# generated using pymatgen
data_In3SbTe2
_symmetry_space_group_name_H-M   'P 1'
_cell_length_a   4.23556000
_cell_length_b   4.58515700
_cell_length_c   24.25158500
_cell_angle_alpha   90.00000000
_cell_angle_beta   90.00000000
_cell_angle_gamma   90.00000000
_symmetry_Int_Tables_number   1
_chemical_formula_structural   In3SbTe2
_chemical_formula_sum   'In6 Sb2 Te4'
_cell_volume   470.98294071
_cell_formula_units_Z   2
loop_
 _symmetry_equiv_pos_site_id
 _symmetry_equiv_pos_as_xyz
  1  'x, y, z'
loop_
 _atom_site_type_symbol
 _atom_site_label
 _atom_site_symmetry_multiplicity
 _atom_site_fract_x
 _atom_site_fract_y
 _atom_site_fract_z
 _atom_site_occupancy
  In  In0  1  0.50000000  0.00000000  0.69137000  1
  In  In1  1  0.00000000  0.50000000  0.80730800  1
  In  In2  1  0.50000000  0.00000000  0.19269200  1
  In  In3  1  0.00000000  0.50000000  0.30863000  1
  In  In4  1  0.50000000  0.00000000  0.43541200  1
  In  In5  1  0.00000000  0.50000000  0.56458800  1
  Sb  Sb0  1  0.50000000  0.00000000  0.31509700  1
  Sb  Sb1  1  0.00000000  0.50000000  0.68490300  1
  Te  Te0  1  0.00000000  0.50000000  0.18220900  1
  Te  Te1  1  0.00000000  0.50000000  0.44173400  1
  Te  Te2  1  0.50000000  0.00000000  0.55826600  1
  Te  Te3  1  0.50000000  0.00000000  0.81779100  1
loop_
_geom_bond_atom_site_label_1
_geom_bond_atom_site_label_2
_geom_bond_distance
_geom_bond_site_symmetry_2
In0 Te3 3.065910 1_555
In0 Sb1 3.124981 1_655
In0 Sb1 3.124981 1_645
In0 Sb1 3.124981 1_545
In0 Sb1 3.124981 1_555
In0 Te2 3.227983 1_555
In1 Sb1 2.968515 1_555
In1 Te3 3.131380 1_565
In1 Te3 3.131380 1_455
In1 Te3 3.131380 1_465
In1 Te3 3.131380 1_555
In2 Sb0 2.968515 1_555
In2 Te0 3.131380 1_545
In2 Te0 3.131380 1_645
In2 Te0 3.131380 1_555
In2 Te0 3.131380 1_655
In3 Te0 3.065910 1_555
In3 Sb0 3.124981 1_455
In3 Sb0 3.124981 1_465
In3 Sb0 3.124981 1_555
In3 Sb0 3.124981 1_565
In3 Te1 3.227983 1_555
In4 Sb0 2.917829 1_555
In4 Te2 2.979404 1_555
In4 Te1 3.124806 1_655
In4 Te1 3.124806 1_645
In4 Te1 3.124806 1_555
In4 Te1 3.124806 1_545
In5 Sb1 2.917829 1_555
In5 Te1 2.979404 1_555
In5 Te2 3.124806 1_465
In5 Te2 3.124806 1_555
In5 Te2 3.124806 1_455
In5 Te2 3.124806 1_565
