# generated using pymatgen
data_DyZr9Si9PO40
_symmetry_space_group_name_H-M   'P 1'
_cell_length_a   5.64106362
_cell_length_b   5.64106362
_cell_length_c   47.67077800
_cell_angle_alpha   90.00000000
_cell_angle_beta   90.00000000
_cell_angle_gamma   115.37492257
_symmetry_Int_Tables_number   1
_chemical_formula_structural   DyZr9Si9PO40
_chemical_formula_sum   'Dy2 Zr18 Si18 P2 O80'
_cell_volume   1370.60849771
_cell_formula_units_Z   2
loop_
 _symmetry_equiv_pos_site_id
 _symmetry_equiv_pos_as_xyz
  1  'x, y, z'
loop_
 _atom_site_type_symbol
 _atom_site_label
 _atom_site_symmetry_multiplicity
 _atom_site_fract_x
 _atom_site_fract_y
 _atom_site_fract_z
 _atom_site_occupancy
  Dy  Dy0  1  0.50000000  0.00000000  0.94976000  1
  Dy  Dy1  1  0.00000000  0.50000000  0.05024000  1
  Zr  Zr0  1  0.50000000  0.00000000  0.15018000  1
  Zr  Zr1  1  0.00000000  0.50000000  0.25000200  1
  Zr  Zr2  1  0.00000000  0.00000000  0.89916200  1
  Zr  Zr3  1  0.50000000  0.00000000  0.35000000  1
  Zr  Zr4  1  0.50000000  0.50000000  0.00000000  1
  Zr  Zr5  1  0.00000000  0.50000000  0.45000000  1
  Zr  Zr6  1  0.00000000  0.00000000  0.10083800  1
  Zr  Zr7  1  0.50000000  0.00000000  0.55000000  1
  Zr  Zr8  1  0.50000000  0.50000000  0.19999700  1
  Zr  Zr9  1  0.00000000  0.50000000  0.65000000  1
  Zr  Zr10  1  0.00000000  0.00000000  0.30000000  1
  Zr  Zr11  1  0.50000000  0.00000000  0.74999800  1
  Zr  Zr12  1  0.50000000  0.50000000  0.40000000  1
  Zr  Zr13  1  0.00000000  0.50000000  0.84982000  1
  Zr  Zr14  1  0.00000000  0.00000000  0.50000000  1
  Zr  Zr15  1  0.50000000  0.50000000  0.60000000  1
  Zr  Zr16  1  0.00000000  0.00000000  0.70000000  1
  Zr  Zr17  1  0.50000000  0.50000000  0.80000300  1
  Si  Si0  1  0.50000000  0.50000000  0.89913400  1
  Si  Si1  1  0.00000000  0.00000000  0.00000000  1
  Si  Si2  1  0.50000000  0.50000000  0.10086600  1
  Si  Si3  1  0.00000000  0.00000000  0.20004900  1
  Si  Si4  1  0.00000000  0.50000000  0.14997300  1
  Si  Si5  1  0.50000000  0.50000000  0.30000100  1
  Si  Si6  1  0.50000000  0.00000000  0.24999700  1
  Si  Si7  1  0.00000000  0.00000000  0.40000000  1
  Si  Si8  1  0.00000000  0.50000000  0.35000000  1
  Si  Si9  1  0.50000000  0.50000000  0.50000000  1
  Si  Si10  1  0.50000000  0.00000000  0.45000000  1
  Si  Si11  1  0.00000000  0.00000000  0.60000000  1
  Si  Si12  1  0.00000000  0.50000000  0.55000000  1
  Si  Si13  1  0.50000000  0.50000000  0.69999900  1
  Si  Si14  1  0.50000000  0.00000000  0.65000000  1
  Si  Si15  1  0.00000000  0.00000000  0.79995100  1
  Si  Si16  1  0.00000000  0.50000000  0.75000300  1
  Si  Si17  1  0.50000000  0.00000000  0.85002700  1
  P  P0  1  0.00000000  0.50000000  0.95008800  1
  P  P1  1  0.50000000  0.00000000  0.04991200  1
  O  O0  1  0.22657900  0.41401200  0.88098100  1
  O  O1  1  0.59922100  0.77202700  0.91696700  1
  O  O2  1  0.40077900  0.22797300  0.91696700  1
  O  O3  1  0.72559400  0.90318200  0.98222200  1
  O  O4  1  0.77342100  0.58598800  0.88098100  1
  O  O5  1  0.09681800  0.27440600  0.01777800  1
  O  O6  1  0.75132400  0.43136800  0.96804200  1
  O  O7  1  0.90318200  0.72559400  0.01777800  1
  O  O8  1  0.22797300  0.40077900  0.08303300  1
  O  O9  1  0.06770700  0.74833200  0.93191300  1
  O  O10  1  0.27440600  0.09681800  0.98222200  1
  O  O11  1  0.93229300  0.25166800  0.93191300  1
  O  O12  1  0.58598800  0.77342100  0.11901900  1
  O  O13  1  0.25166800  0.93229300  0.06808700  1
  O  O14  1  0.41401200  0.22657900  0.11901900  1
  O  O15  1  0.72894300  0.91147100  0.18176200  1
  O  O16  1  0.24867600  0.56863200  0.96804200  1
  O  O17  1  0.56863200  0.24867600  0.03195800  1
  O  O18  1  0.77202700  0.59922100  0.08303300  1
  O  O19  1  0.43136800  0.75132400  0.03195800  1
  O  O20  1  0.08851900  0.27152100  0.21831300  1
  O  O21  1  0.72916900  0.41209200  0.16828100  1
  O  O22  1  0.91148100  0.72847900  0.21831300  1
  O  O23  1  0.22859900  0.41150600  0.28171000  1
  O  O24  1  0.74833200  0.06770700  0.06808700  1
  O  O25  1  0.08840500  0.77152600  0.13170100  1
  O  O26  1  0.27105700  0.08852900  0.18176200  1
  O  O27  1  0.91159500  0.22847400  0.13170100  1
  O  O28  1  0.58849300  0.77141200  0.31829300  1
  O  O29  1  0.22861400  0.91151700  0.26828900  1
  O  O30  1  0.41150700  0.22858800  0.31829300  1
  O  O31  1  0.72859100  0.91150800  0.38170800  1
  O  O32  1  0.27083100  0.58790800  0.16828100  1
  O  O33  1  0.58846700  0.27141200  0.23170100  1
  O  O34  1  0.77140100  0.58849400  0.28171000  1
  O  O35  1  0.41153300  0.72858800  0.23170100  1
  O  O36  1  0.08849100  0.27140700  0.41829100  1
  O  O37  1  0.72859300  0.41150900  0.36829200  1
  O  O38  1  0.91150900  0.72859300  0.41829100  1
  O  O39  1  0.22859200  0.41150800  0.48170800  1
  O  O40  1  0.77138600  0.08848300  0.26828900  1
  O  O41  1  0.08849100  0.77140900  0.33170800  1
  O  O42  1  0.27140900  0.08849200  0.38170800  1
  O  O43  1  0.91150900  0.22859100  0.33170800  1
  O  O44  1  0.58849200  0.77140800  0.51829200  1
  O  O45  1  0.22859200  0.91151000  0.46829200  1
  O  O46  1  0.41150800  0.22859200  0.51829200  1
  O  O47  1  0.72859300  0.91150900  0.58170900  1
  O  O48  1  0.27140700  0.58849100  0.36829200  1
  O  O49  1  0.58849300  0.27140900  0.43170800  1
  O  O50  1  0.77140800  0.58849200  0.48170800  1
  O  O51  1  0.41150700  0.72859100  0.43170800  1
  O  O52  1  0.08849200  0.27140900  0.61829200  1
  O  O53  1  0.72859100  0.41150700  0.56829200  1
  O  O54  1  0.91150800  0.72859100  0.61829200  1
  O  O55  1  0.22858800  0.41150700  0.68170700  1
  O  O56  1  0.77140800  0.08849000  0.46829200  1
  O  O57  1  0.08849000  0.77140800  0.53170800  1
  O  O58  1  0.27140700  0.08849100  0.58170900  1
  O  O59  1  0.91151000  0.22859200  0.53170800  1
  O  O60  1  0.58849400  0.77140100  0.71829000  1
  O  O61  1  0.22859100  0.91150900  0.66829200  1
  O  O62  1  0.41150600  0.22859900  0.71829000  1
  O  O63  1  0.72847900  0.91148100  0.78168700  1
  O  O64  1  0.27140900  0.58849300  0.56829200  1
  O  O65  1  0.58849100  0.27140700  0.63170800  1
  O  O66  1  0.77141200  0.58849300  0.68170700  1
  O  O67  1  0.41150900  0.72859300  0.63170800  1
  O  O68  1  0.08852900  0.27105700  0.81823800  1
  O  O69  1  0.72858800  0.41153300  0.76829900  1
  O  O70  1  0.91147100  0.72894300  0.81823800  1
  O  O71  1  0.77140900  0.08849100  0.66829200  1
  O  O72  1  0.08848300  0.77138600  0.73171100  1
  O  O73  1  0.27152100  0.08851900  0.78168700  1
  O  O74  1  0.91151700  0.22861400  0.73171100  1
  O  O75  1  0.22847400  0.91159500  0.86829900  1
  O  O76  1  0.27141200  0.58846700  0.76829900  1
  O  O77  1  0.58790800  0.27083100  0.83171900  1
  O  O78  1  0.41209200  0.72916900  0.83171900  1
  O  O79  1  0.77152600  0.08840500  0.86829900  1
loop_
_geom_bond_atom_site_label_1
_geom_bond_atom_site_label_2
_geom_bond_distance
_geom_bond_site_symmetry_2
Dy0 O3 2.215444 1_545
Dy0 O10 2.215444 1_555
Dy0 O1 2.242282 1_545
Dy0 O2 2.242282 1_555
Dy0 O9 2.391406 1_545
Dy0 O11 2.391406 1_555
Dy0 O6 2.394578 1_555
Dy0 O16 2.394578 1_545
Dy1 O7 2.215444 1_455
Dy1 O5 2.215444 1_555
Dy1 O8 2.242282 1_555
Dy1 O18 2.242282 1_455
Dy1 O13 2.391406 1_555
Dy1 O24 2.391406 1_455
Dy1 O19 2.394578 1_555
Dy1 O17 2.394578 1_455
O0 Si0 1.649810 1_555
O0 Zr13 2.146378 1_555
O0 Zr2 2.297999 1_555
O1 Si0 1.629291 1_555
O1 Zr2 2.234647 1_665
O2 Si0 1.629291 1_555
O2 Zr2 2.234647 1_555
O3 Si1 1.639531 1_666
O3 Zr4 2.242727 1_556
O4 Si0 1.649810 1_555
O4 Zr13 2.146378 1_655
O4 Zr2 2.297999 1_665
O5 Si1 1.639531 1_555
O5 Zr4 2.242727 1_555
O6 P0 1.544273 1_655
O6 Zr4 2.225138 1_556
O7 Si1 1.639531 1_665
O7 Zr4 2.242727 1_555
O8 Si2 1.629291 1_555
O8 Zr6 2.234647 1_555
O9 P0 1.549316 1_555
O9 Zr2 2.250253 1_565
O10 Si1 1.639531 1_556
O10 Zr4 2.242727 1_556
O11 P0 1.549316 1_655
O11 Zr2 2.250253 1_655
O12 Si2 1.649810 1_555
O12 Zr0 2.146378 1_565
O12 Zr6 2.297999 1_665
O13 P1 1.549316 1_565
O13 Zr6 2.250253 1_565
O14 Si2 1.649810 1_555
O14 Zr0 2.146378 1_555
O14 Zr6 2.297999 1_555
O15 Si3 1.641000 1_665
O15 Zr0 2.176409 1_565
O15 Zr8 2.289533 1_555
O16 P0 1.544273 1_555
O16 Zr4 2.225138 1_556
O17 P1 1.544273 1_555
O17 Zr4 2.225138 1_555
O18 Si2 1.629291 1_555
O18 Zr6 2.234647 1_665
O19 P1 1.544273 1_565
O19 Zr4 2.225138 1_555
O20 Si3 1.642522 1_555
O20 Zr1 2.178106 1_555
O20 Zr8 2.290708 1_555
O21 Si4 1.640846 1_655
O21 Zr8 2.180023 1_555
O21 Zr0 2.289989 1_555
O22 Si3 1.642522 1_665
O22 Zr1 2.178106 1_655
O22 Zr8 2.290708 1_555
O23 Si5 1.642675 1_555
O23 Zr1 2.179133 1_555
O23 Zr10 2.290432 1_555
O24 P1 1.549316 1_555
O24 Zr6 2.250253 1_655
O25 Si4 1.642808 1_555
O25 Zr6 2.150650 1_565
O25 Zr0 2.294173 1_565
O26 Si3 1.641000 1_555
O26 Zr0 2.176409 1_555
O26 Zr8 2.289533 1_555
O27 Si4 1.642808 1_655
O27 Zr6 2.150650 1_655
O27 Zr0 2.294173 1_555
O28 Si5 1.642751 1_555
O28 Zr3 2.179055 1_565
O28 Zr10 2.290482 1_665
O29 Si6 1.642639 1_565
O29 Zr10 2.179261 1_565
O29 Zr1 2.290436 1_555
O30 Si5 1.642751 1_555
O30 Zr3 2.179055 1_555
O30 Zr10 2.290482 1_555
O31 Si7 1.642738 1_665
O31 Zr3 2.179097 1_565
O31 Zr12 2.290471 1_555
O32 Si4 1.640846 1_555
O32 Zr8 2.180023 1_555
O32 Zr0 2.289989 1_565
O33 Si6 1.642866 1_555
O33 Zr8 2.178885 1_555
O33 Zr1 2.290741 1_655
O34 Si5 1.642675 1_555
O34 Zr1 2.179133 1_655
O34 Zr10 2.290432 1_665
O35 Si6 1.642866 1_565
O35 Zr8 2.178885 1_555
O35 Zr1 2.290741 1_555
O36 Si7 1.642704 1_555
O36 Zr5 2.179135 1_555
O36 Zr12 2.290458 1_555
O37 Si8 1.642729 1_655
O37 Zr12 2.179102 1_555
O37 Zr3 2.290477 1_555
O38 Si7 1.642704 1_665
O38 Zr5 2.179135 1_655
O38 Zr12 2.290458 1_555
O39 Si9 1.642733 1_555
O39 Zr5 2.179101 1_555
O39 Zr14 2.290472 1_555
O40 Si6 1.642639 1_555
O40 Zr10 2.179261 1_655
O40 Zr1 2.290436 1_655
O41 Si8 1.642738 1_555
O41 Zr10 2.179094 1_565
O41 Zr3 2.290475 1_565
O42 Si7 1.642738 1_555
O42 Zr3 2.179097 1_555
O42 Zr12 2.290471 1_555
O43 Si8 1.642738 1_655
O43 Zr10 2.179094 1_655
O43 Zr3 2.290475 1_555
O44 Si9 1.642733 1_555
O44 Zr7 2.179101 1_565
O44 Zr14 2.290472 1_665
O45 Si10 1.642734 1_565
O45 Zr14 2.179095 1_565
O45 Zr5 2.290480 1_555
O46 Si9 1.642733 1_555
O46 Zr7 2.179101 1_555
O46 Zr14 2.290472 1_555
O47 Si11 1.642704 1_665
O47 Zr7 2.179135 1_565
O47 Zr15 2.290458 1_555
O48 Si8 1.642729 1_555
O48 Zr12 2.179102 1_555
O48 Zr3 2.290477 1_565
O49 Si10 1.642737 1_555
O49 Zr12 2.179100 1_555
O49 Zr5 2.290466 1_655
O50 Si9 1.642733 1_555
O50 Zr5 2.179101 1_655
O50 Zr14 2.290472 1_665
O51 Si10 1.642737 1_565
O51 Zr12 2.179100 1_555
O51 Zr5 2.290466 1_555
O52 Si11 1.642738 1_555
O52 Zr9 2.179097 1_555
O52 Zr15 2.290471 1_555
O53 Si12 1.642737 1_655
O53 Zr15 2.179100 1_555
O53 Zr7 2.290466 1_555
O54 Si11 1.642738 1_665
O54 Zr9 2.179097 1_655
O54 Zr15 2.290471 1_555
O55 Si13 1.642751 1_555
O55 Zr9 2.179055 1_555
O55 Zr16 2.290482 1_555
O56 Si10 1.642734 1_555
O56 Zr14 2.179095 1_655
O56 Zr5 2.290480 1_655
O57 Si12 1.642734 1_555
O57 Zr14 2.179095 1_565
O57 Zr7 2.290480 1_565
O58 Si11 1.642704 1_555
O58 Zr7 2.179135 1_555
O58 Zr15 2.290458 1_555
O59 Si12 1.642734 1_655
O59 Zr14 2.179095 1_655
O59 Zr7 2.290480 1_555
O60 Si13 1.642675 1_555
O60 Zr11 2.179133 1_565
O60 Zr16 2.290432 1_665
O61 Si14 1.642738 1_565
O61 Zr16 2.179094 1_565
O61 Zr9 2.290475 1_555
O62 Si13 1.642675 1_555
O62 Zr11 2.179133 1_555
O62 Zr16 2.290432 1_555
O63 Si15 1.642522 1_665
O63 Zr11 2.178106 1_565
O63 Zr17 2.290708 1_555
O64 Si12 1.642737 1_555
O64 Zr15 2.179100 1_555
O64 Zr7 2.290466 1_565
O65 Si14 1.642729 1_555
O65 Zr15 2.179102 1_555
O65 Zr9 2.290477 1_655
O66 Si13 1.642751 1_555
O66 Zr9 2.179055 1_655
O66 Zr16 2.290482 1_665
O67 Si14 1.642729 1_565
O67 Zr15 2.179102 1_555
O67 Zr9 2.290477 1_555
O68 Si15 1.641000 1_555
O68 Zr13 2.176409 1_555
O68 Zr17 2.289533 1_555
O69 Si16 1.642866 1_655
O69 Zr17 2.178885 1_555
O69 Zr11 2.290741 1_555
O70 Si15 1.641000 1_665
O70 Zr13 2.176409 1_655
O70 Zr17 2.289533 1_555
O71 Si14 1.642738 1_555
O71 Zr16 2.179094 1_655
O71 Zr9 2.290475 1_655
O72 Si16 1.642639 1_555
O72 Zr16 2.179261 1_565
O72 Zr11 2.290436 1_565
O73 Si15 1.642522 1_555
O73 Zr11 2.178106 1_555
O73 Zr17 2.290708 1_555
O74 Si16 1.642639 1_655
O74 Zr16 2.179261 1_655
O74 Zr11 2.290436 1_555
O75 Si17 1.642808 1_565
O75 Zr2 2.150650 1_565
O75 Zr13 2.294173 1_555
O76 Si16 1.642866 1_555
O76 Zr17 2.178885 1_555
O76 Zr11 2.290741 1_565
O77 Si17 1.640846 1_555
O77 Zr17 2.180023 1_555
O77 Zr13 2.289989 1_655
O78 Si17 1.640846 1_565
O78 Zr17 2.180023 1_555
O78 Zr13 2.289989 1_555
O79 Si17 1.642808 1_555
O79 Zr2 2.150650 1_655
O79 Zr13 2.294173 1_655
