# generated using pymatgen
data_Ba2In2O5
_symmetry_space_group_name_H-M   'P 1'
_cell_length_a   6.06562400
_cell_length_b   6.06592801
_cell_length_c   6.10508341
_cell_angle_alpha   119.77301373
_cell_angle_beta   119.77266882
_cell_angle_gamma   89.99622180
_symmetry_Int_Tables_number   1
_chemical_formula_structural   Ba2In2O5
_chemical_formula_sum   'Ba2 In2 O5'
_cell_volume   159.92579397
_cell_formula_units_Z   1
loop_
 _symmetry_equiv_pos_site_id
 _symmetry_equiv_pos_as_xyz
  1  'x, y, z'
loop_
 _atom_site_type_symbol
 _atom_site_label
 _atom_site_symmetry_multiplicity
 _atom_site_fract_x
 _atom_site_fract_y
 _atom_site_fract_z
 _atom_site_occupancy
  Ba  Ba0  1  0.24963700  0.75039600  0.50253400  1
  Ba  Ba1  1  0.74661200  0.25071100  0.49947500  1
  In  In0  1  0.02065200  0.02186300  0.04063200  1
  In  In1  1  0.48321300  0.48435600  0.96576200  1
  O  O0  1  0.75311500  0.25684600  0.00908100  1
  O  O1  1  0.25336200  0.25821000  0.50413700  1
  O  O2  1  0.75555300  0.74912500  0.99939200  1
  O  O3  1  0.26186100  0.76001800  0.01089900  1
  O  O4  1  0.25153500  0.25173700  0.00245700  1
loop_
_geom_bond_atom_site_label_1
_geom_bond_atom_site_label_2
_geom_bond_distance
_geom_bond_site_symmetry_2
Ba0 O1 2.990484 1_555
Ba0 O0 3.023656 1_455
Ba0 O3 3.038563 1_556
Ba0 O2 3.041580 1_454
Ba0 O4 3.051356 1_566
Ba0 O4 3.055177 1_555
Ba0 O2 3.065458 1_555
Ba0 O3 3.068019 1_555
Ba0 O1 3.075564 1_565
Ba0 O0 3.084555 1_566
Ba1 O3 2.979252 1_545
Ba1 O1 3.006231 1_555
Ba1 O2 3.021613 1_555
Ba1 O0 3.032208 1_555
Ba1 O4 3.032232 1_555
Ba1 O1 3.059853 1_655
Ba1 O0 3.073364 1_556
Ba1 O4 3.074171 1_656
Ba1 O2 3.085520 1_544
Ba1 O3 3.129097 1_656
In0 O1 2.014866 1_555
In0 O2 2.137921 1_444
In0 O4 2.146410 1_555
In0 O0 2.159673 1_455
In0 O3 2.161822 1_545
In1 O1 2.006677 1_555
In1 O3 2.141076 1_556
In1 O0 2.141698 1_556
In1 O4 2.154737 1_556
In1 O2 2.164825 1_555
