# generated using pymatgen
data_Sm4In21Pd10
_symmetry_space_group_name_H-M   'P 1'
_cell_length_a   11.89594458
_cell_length_b   11.89594458
_cell_length_c   17.43156113
_cell_angle_alpha   56.18362407
_cell_angle_beta   56.18362407
_cell_angle_gamma   21.95611506
_symmetry_Int_Tables_number   1
_chemical_formula_structural   Sm4In21Pd10
_chemical_formula_sum   'Sm4 In21 Pd10'
_cell_volume   759.79666921
_cell_formula_units_Z   1
loop_
 _symmetry_equiv_pos_site_id
 _symmetry_equiv_pos_as_xyz
  1  'x, y, z'
loop_
 _atom_site_type_symbol
 _atom_site_label
 _atom_site_symmetry_multiplicity
 _atom_site_fract_x
 _atom_site_fract_y
 _atom_site_fract_z
 _atom_site_occupancy
  Sm  Sm0  1  0.23498400  0.22128000  0.17506100  1
  Sm  Sm1  1  0.12325700  0.11909800  0.66579000  1
  Sm  Sm2  1  0.88090200  0.87674300  0.33421000  1
  Sm  Sm3  1  0.77872000  0.76501600  0.82493900  1
  In  In0  1  0.45697600  0.46024900  0.36741600  1
  In  In1  1  0.53975100  0.54302400  0.63258400  1
  In  In2  1  0.38997200  0.37897400  0.70399900  1
  In  In3  1  0.05729500  0.06897600  0.20238600  1
  In  In4  1  0.60336800  0.59602700  0.00471200  1
  In  In5  1  0.19711200  0.20360800  0.99578300  1
  In  In6  1  0.63602100  0.62508200  0.79951400  1
  In  In7  1  0.93102400  0.94270500  0.79761400  1
  In  In8  1  0.01271100  0.01353400  0.90433600  1
  In  In9  1  0.79639200  0.80288800  0.00421700  1
  In  In10  1  0.37491800  0.36397900  0.20048600  1
  In  In11  1  0.50308700  0.49691300  0.50000000  1
  In  In12  1  0.74980100  0.74590000  0.29404700  1
  In  In13  1  0.29918100  0.29828800  0.50211600  1
  In  In14  1  0.62102600  0.61002800  0.29600100  1
  In  In15  1  0.40397300  0.39663200  0.99528800  1
  In  In16  1  0.70171200  0.70081900  0.49788400  1
  In  In17  1  0.25410000  0.25019900  0.70595300  1
  In  In18  1  0.12417600  0.10364000  0.44945300  1
  In  In19  1  0.98646600  0.98728900  0.09566400  1
  In  In20  1  0.89636000  0.87582400  0.55054700  1
  Pd  Pd0  1  0.48424100  0.50097100  0.18982400  1
  Pd  Pd1  1  0.35457900  0.33945600  0.88502200  1
  Pd  Pd2  1  0.66054400  0.64542100  0.11497800  1
  Pd  Pd3  1  0.86713200  0.85807200  0.10616400  1
  Pd  Pd4  1  0.75453100  0.74774800  0.61375800  1
  Pd  Pd5  1  0.97544200  0.97560000  0.61109500  1
  Pd  Pd6  1  0.25225200  0.24546900  0.38624200  1
  Pd  Pd7  1  0.14192800  0.13286800  0.89383600  1
  Pd  Pd8  1  0.02440000  0.02455800  0.38890500  1
  Pd  Pd9  1  0.49902900  0.51575900  0.81017600  1
loop_
_geom_bond_atom_site_label_1
_geom_bond_atom_site_label_2
_geom_bond_distance
_geom_bond_site_symmetry_2
In0 Pd0 2.725420 1_555
In0 Pd8 2.874097 1_565
In0 Pd8 2.885200 1_655
In0 Sm2 3.176025 1_455
In0 Sm2 3.199952 1_545
In1 Pd9 2.725420 1_555
In1 Pd5 2.874097 1_455
In1 Pd5 2.885200 1_545
In1 Sm1 3.176025 1_565
In1 Sm1 3.199952 1_655
In2 Pd1 2.755493 1_555
In2 Pd5 2.873723 1_545
In2 Pd5 2.913295 1_455
In2 Sm3 3.190493 1_455
In2 Sm3 3.199187 1_545
In3 Pd2 2.821442 1_455
In3 Pd8 2.838762 1_555
In3 Pd0 2.872433 1_545
In3 Pd0 2.890418 1_455
In3 Pd2 2.917321 1_545
In3 In5 3.186761 1_554
In3 Sm2 3.549350 1_445
In3 Sm0 3.605589 1_555
In4 Pd0 2.742338 1_555
In4 Pd7 2.774089 1_564
In4 Pd7 2.780442 1_654
In4 Pd2 2.820636 1_555
In4 In5 3.182453 1_654
In4 In5 3.226771 1_564
In4 Sm3 3.421017 1_554
In5 Pd2 2.801280 1_456
In5 Pd1 2.822233 1_555
In5 Pd7 2.878358 1_555
In5 Pd2 2.879403 1_546
In5 In9 3.304101 1_546
In5 In9 3.304101 1_456
In5 Sm3 3.308421 1_455
In5 Sm3 3.370506 1_545
In5 Sm0 3.533758 1_556
In6 Pd9 2.776100 1_555
In6 Pd4 2.842058 1_555
In6 Pd7 2.853013 1_655
In6 Pd7 2.859765 1_565
In6 Sm1 3.335092 1_655
In6 Sm1 3.355892 1_565
In6 Sm3 3.570631 1_555
In7 Pd1 2.821442 1_565
In7 Pd5 2.838762 1_555
In7 Pd9 2.872433 1_655
In7 Pd9 2.890418 1_565
In7 Pd1 2.917321 1_655
In7 In9 3.186761 1_556
In7 Sm1 3.549350 1_665
In7 Sm3 3.605589 1_555
In8 Pd7 2.803027 1_555
In8 Pd9 2.816191 1_545
In8 Pd9 2.873580 1_455
In8 Pd3 3.273228 1_446
In8 Sm1 3.429533 1_555
In9 Pd1 2.801280 1_564
In9 Pd2 2.822233 1_555
In9 Pd3 2.878358 1_555
In9 Pd1 2.879403 1_654
In9 Sm0 3.308421 1_565
In9 Sm0 3.370506 1_655
In9 Sm3 3.533758 1_554
In10 Pd0 2.776100 1_555
In10 Pd6 2.842058 1_555
In10 Pd3 2.853013 1_545
In10 Pd3 2.859765 1_455
In10 Sm2 3.335092 1_545
In10 Sm2 3.355892 1_455
In10 Sm0 3.570631 1_555
In11 Pd8 2.808726 1_655
In11 Pd5 2.808726 1_545
In11 Pd8 2.831770 1_565
In11 Pd5 2.831770 1_455
In12 Pd6 2.780060 1_565
In12 Pd6 2.790680 1_655
In12 Pd3 2.820872 1_555
In12 Sm0 3.260206 1_565
In12 Sm0 3.290924 1_655
In12 Sm2 3.503734 1_555
In13 Pd4 2.764391 1_455
In13 Pd4 2.786174 1_545
In13 Pd6 2.846882 1_555
In13 Sm2 3.310064 1_455
In13 Sm2 3.320176 1_545
In13 Sm1 3.453016 1_555
In14 Pd2 2.755493 1_555
In14 Pd8 2.873723 1_655
In14 Pd8 2.913295 1_565
In14 Sm0 3.190493 1_565
In14 Sm0 3.199187 1_655
In15 Pd9 2.742338 1_555
In15 Pd3 2.774089 1_456
In15 Pd3 2.780442 1_546
In15 Pd1 2.820636 1_555
In15 In9 3.182453 1_546
In15 In9 3.226771 1_456
In15 Sm0 3.421017 1_556
In16 Pd6 2.764391 1_565
In16 Pd6 2.786174 1_655
In16 Pd4 2.846882 1_555
In16 Sm1 3.310064 1_565
In16 Sm1 3.320176 1_655
In16 Sm2 3.453016 1_555
In17 Pd4 2.780060 1_455
In17 Pd4 2.790680 1_545
In17 Pd7 2.820872 1_555
In17 Sm3 3.260206 1_455
In17 Sm3 3.290924 1_545
In17 Sm1 3.503734 1_555
In18 Pd6 2.685599 1_555
In18 Pd8 2.824642 1_555
In18 Pd5 2.839497 1_445
In18 Sm1 3.870053 1_555
In19 Pd3 2.803027 1_555
In19 Pd0 2.816191 1_655
In19 Pd0 2.873580 1_565
In19 Pd7 3.273228 1_664
In19 Sm2 3.429533 1_555
In20 Pd4 2.685599 1_555
In20 Pd5 2.824642 1_555
In20 Pd8 2.839497 1_665
In20 Sm2 3.870053 1_555
Pd0 Sm2 3.276176 1_455
Pd0 Sm2 3.340978 1_545
Pd1 Sm3 3.373347 1_545
Pd1 Sm3 3.377661 1_455
Pd2 Sm0 3.373347 1_655
Pd2 Sm0 3.377661 1_565
Pd3 Sm0 3.480564 1_565
Pd3 Sm0 3.494232 1_655
Pd4 Sm1 3.467007 1_655
Pd4 Sm1 3.474766 1_565
Pd6 Sm2 3.467007 1_545
Pd6 Sm2 3.474766 1_455
Pd7 Sm3 3.480564 1_455
Pd7 Sm3 3.494232 1_545
Pd9 Sm1 3.276176 1_565
Pd9 Sm1 3.340978 1_655
