# generated using pymatgen
data_KEuAsS3
_symmetry_space_group_name_H-M   'P 1'
_cell_length_a   8.36529100
_cell_length_b   8.80229400
_cell_length_c   8.98523060
_cell_angle_alpha   75.69326856
_cell_angle_beta   90.00000000
_cell_angle_gamma   90.00000000
_symmetry_Int_Tables_number   1
_chemical_formula_structural   KEuAsS3
_chemical_formula_sum   'K4 Eu4 As4 S12'
_cell_volume   641.09733187
_cell_formula_units_Z   4
loop_
 _symmetry_equiv_pos_site_id
 _symmetry_equiv_pos_as_xyz
  1  'x, y, z'
loop_
 _atom_site_type_symbol
 _atom_site_label
 _atom_site_symmetry_multiplicity
 _atom_site_fract_x
 _atom_site_fract_y
 _atom_site_fract_z
 _atom_site_occupancy
  K  K0  1  0.42095600  0.22305100  0.90770800  1
  K  K1  1  0.07904400  0.72305100  0.90770800  1
  K  K2  1  0.92095600  0.27694900  0.09229200  1
  K  K3  1  0.57904400  0.77694900  0.09229200  1
  Eu  Eu0  1  0.28413700  0.02737500  0.43492200  1
  Eu  Eu1  1  0.21586300  0.52737500  0.43492200  1
  Eu  Eu2  1  0.78413700  0.47262500  0.56507800  1
  Eu  Eu3  1  0.71586300  0.97262500  0.56507800  1
  As  As0  1  0.45254800  0.64764200  0.72999000  1
  As  As1  1  0.04745200  0.14764200  0.72999000  1
  As  As2  1  0.95254800  0.85235800  0.27001000  1
  As  As3  1  0.54745200  0.35235800  0.27001000  1
  S  S0  1  0.30707900  0.42049200  0.16173000  1
  S  S1  1  0.48185000  0.28395500  0.52919400  1
  S  S2  1  0.58598900  0.10454700  0.24660600  1
  S  S3  1  0.69292100  0.57950800  0.83827000  1
  S  S4  1  0.98185000  0.21604500  0.47080600  1
  S  S5  1  0.08598900  0.39545300  0.75339400  1
  S  S6  1  0.41401100  0.89545300  0.75339400  1
  S  S7  1  0.80707900  0.07950800  0.83827000  1
  S  S8  1  0.51815000  0.71604500  0.47080600  1
  S  S9  1  0.01815000  0.78395500  0.52919400  1
  S  S10  1  0.19292100  0.92049200  0.16173000  1
  S  S11  1  0.91401100  0.60454700  0.24660600  1
loop_
_geom_bond_atom_site_label_1
_geom_bond_atom_site_label_2
_geom_bond_distance
_geom_bond_site_symmetry_2
K0 S2 3.270573 1_556
K0 S5 3.322235 1_555
K0 S0 3.331353 1_556
K0 S1 3.348554 1_555
K0 S6 3.495306 1_545
K0 S7 3.578887 1_555
K0 S10 3.596791 1_546
K1 S11 3.270573 1_456
K1 S6 3.322235 1_555
K1 S10 3.331353 1_556
K1 S9 3.348554 1_555
K1 S5 3.495306 1_555
K1 S3 3.578887 1_455
K1 S0 3.596791 1_556
K2 S5 3.270573 1_654
K2 S2 3.322235 1_555
K2 S7 3.331353 1_554
K2 S4 3.348554 1_555
K2 S11 3.495306 1_555
K2 S0 3.578887 1_655
K2 S3 3.596791 1_554
K3 S6 3.270573 1_554
K3 S11 3.322235 1_555
K3 S3 3.331353 1_554
K3 S8 3.348554 1_555
K3 S2 3.495306 1_565
K3 S10 3.578887 1_555
K3 S7 3.596791 1_564
Eu0 S10 2.938412 1_545
Eu0 S6 3.012466 1_545
Eu0 S2 3.021999 1_555
Eu0 S9 3.059798 1_545
Eu0 S1 3.082086 1_555
Eu0 S4 3.085618 1_455
Eu0 S8 3.318028 1_545
Eu1 S0 2.938412 1_555
Eu1 S5 3.012466 1_555
Eu1 S11 3.021999 1_455
Eu1 S1 3.059798 1_555
Eu1 S9 3.082086 1_555
Eu1 S8 3.085618 1_555
Eu1 S4 3.318028 1_455
Eu2 S3 2.938412 1_555
Eu2 S11 3.012466 1_555
Eu2 S5 3.021999 1_655
Eu2 S8 3.059798 1_555
Eu2 S4 3.082086 1_555
Eu2 S1 3.085618 1_555
Eu2 S9 3.318028 1_655
Eu3 S7 2.938412 1_565
Eu3 S2 3.012466 1_565
Eu3 S6 3.021999 1_555
Eu3 S4 3.059798 1_565
Eu3 S8 3.082086 1_555
Eu3 S9 3.085618 1_655
Eu3 S1 3.318028 1_565
As0 S3 2.249701 1_555
As0 S6 2.265600 1_555
As0 S8 2.322526 1_555
As1 S7 2.249701 1_455
As1 S5 2.265600 1_555
As1 S4 2.322526 1_455
As2 S10 2.249701 1_655
As2 S11 2.265600 1_555
As2 S9 2.322526 1_655
As3 S0 2.249701 1_555
As3 S2 2.265600 1_555
As3 S1 2.322526 1_555
