# generated using pymatgen
data_Cs4TlSbCl12
_symmetry_space_group_name_H-M   'P 1'
_cell_length_a   12.88610829
_cell_length_b   12.88610829
_cell_length_c   12.88610829
_cell_angle_alpha   131.66199950
_cell_angle_beta   131.66199950
_cell_angle_gamma   70.76338865
_symmetry_Int_Tables_number   1
_chemical_formula_structural   Cs4TlSbCl12
_chemical_formula_sum   'Cs8 Tl2 Sb2 Cl24'
_cell_volume   1169.78972885
_cell_formula_units_Z   2
loop_
 _symmetry_equiv_pos_site_id
 _symmetry_equiv_pos_as_xyz
  1  'x, y, z'
loop_
 _atom_site_type_symbol
 _atom_site_label
 _atom_site_symmetry_multiplicity
 _atom_site_fract_x
 _atom_site_fract_y
 _atom_site_fract_z
 _atom_site_occupancy
  Cs  Cs0  1  0.87500000  0.90157480  0.52657480  1
  Cs  Cs1  1  0.65157480  0.12500000  0.02657480  1
  Cs  Cs2  1  0.37500000  0.90157480  0.02657480  1
  Cs  Cs3  1  0.87500000  0.34842520  0.97342520  1
  Cs  Cs4  1  0.65157480  0.62500000  0.52657480  1
  Cs  Cs5  1  0.09842520  0.12500000  0.47342520  1
  Cs  Cs6  1  0.37500000  0.34842520  0.47342520  1
  Cs  Cs7  1  0.09842520  0.62500000  0.97342520  1
  Tl  Tl0  1  -0.00000000  0.00000000  -0.00000000  1
  Tl  Tl1  1  0.75000000  0.25000000  0.50000000  1
  Sb  Sb0  1  0.25000000  0.75000000  0.50000000  1
  Sb  Sb1  1  0.50000000  0.50000000  -0.00000000  1
  Cl  Cl0  1  0.00206296  0.25409197  0.74796999  1
  Cl  Cl1  1  0.72797694  0.50099033  0.22698661  1
  Cl  Cl2  1  0.02202306  0.74900967  0.27301339  1
  Cl  Cl3  1  0.49900967  0.72599629  0.22698661  1
  Cl  Cl4  1  0.49900967  0.27202306  0.77301339  1
  Cl  Cl5  1  0.62571483  0.12571483  0.50000000  1
  Cl  Cl6  1  0.74793704  0.99590803  0.75203001  1
  Cl  Cl7  1  0.74590803  0.99793704  0.25203001  1
  Cl  Cl8  1  0.13612430  0.63612430  0.50000000  1
  Cl  Cl9  1  0.87571483  0.87571483  -0.00000000  1
  Cl  Cl10  1  0.25099033  0.97797694  0.72698661  1
  Cl  Cl11  1  0.87428517  0.37428517  0.50000000  1
  Cl  Cl12  1  0.50612198  0.25409197  0.25203001  1
  Cl  Cl13  1  0.25099033  0.52400371  0.27301339  1
  Cl  Cl14  1  0.27400371  0.50099033  0.77301339  1
  Cl  Cl15  1  0.00409197  0.25206296  0.24796999  1
  Cl  Cl16  1  0.24387802  0.99590803  0.24796999  1
  Cl  Cl17  1  0.61387570  0.61387570  -0.00000000  1
  Cl  Cl18  1  0.12428517  0.12428517  -0.00000000  1
  Cl  Cl19  1  0.36387570  0.86387570  0.50000000  1
  Cl  Cl20  1  0.00409197  0.75612198  0.75203001  1
  Cl  Cl21  1  0.47599629  0.74900967  0.72698661  1
  Cl  Cl22  1  0.38612430  0.38612430  -0.00000000  1
  Cl  Cl23  1  0.74590803  0.49387802  0.74796999  1
loop_
_geom_bond_atom_site_label_1
_geom_bond_atom_site_label_2
_geom_bond_distance
_geom_bond_site_symmetry_2
Cl0 Tl1 2.617974 1_455
Cl0 Cs0 3.593944 1_445
Cl0 Cs3 3.593951 1_455
Cl0 Cs5 3.671568 1_555
Cl0 Cs7 3.671576 1_555
Cl1 Sb1 2.395232 1_555
Cl1 Cs1 3.773756 1_555
Cl1 Cs4 3.773756 1_555
Cl1 Cs0 3.919933 1_555
Cl1 Cs3 3.919933 1_554
Cl2 Sb0 2.395232 1_555
Cl2 Cs5 3.773756 1_565
Cl2 Cs7 3.773756 1_554
Cl2 Cs3 3.919933 1_454
Cl2 Cs0 3.919933 1_455
Cl3 Sb1 2.395232 1_555
Cl3 Cs2 3.773756 1_555
Cl3 Cs0 3.773756 1_555
Cl3 Cs7 3.919933 1_554
Cl3 Cs4 3.919933 1_555
Cl4 Sb1 2.395232 1_556
Cl4 Cs3 3.773756 1_555
Cl4 Cs6 3.773756 1_555
Cl4 Cs1 3.919933 1_556
Cl4 Cs5 3.919933 1_555
Cl5 Tl1 2.611532 1_555
Cl5 Cs0 3.537971 1_545
Cl5 Cs3 3.537971 1_555
Cl5 Cs2 3.537971 1_545
Cl5 Cs6 3.537971 1_555
Cl6 Tl0 2.617974 1_666
Cl6 Cs3 3.593944 1_565
Cl6 Cs0 3.593951 1_555
Cl6 Cs1 3.671568 1_566
Cl6 Cs4 3.671576 1_555
Cl7 Tl1 2.617974 1_565
Cl7 Cs5 3.593944 1_665
Cl7 Cs1 3.593951 1_565
Cl7 Cs0 3.671568 1_555
Cl7 Cs2 3.671576 1_555
Cl8 Sb0 2.392804 1_555
Cl8 Cs2 3.940884 1_556
Cl8 Cs6 3.940884 1_555
Cl8 Cs0 3.940884 1_455
Cl8 Cs3 3.940884 1_454
Cl9 Tl0 2.611532 1_665
Cl9 Cs5 3.537971 1_665
Cl9 Cs4 3.537971 1_554
Cl9 Cs1 3.537971 1_565
Cl9 Cs7 3.537971 1_654
Cl10 Sb0 2.395232 1_555
Cl10 Cs2 3.773756 1_556
Cl10 Cs0 3.773756 1_455
Cl10 Cs5 3.919933 1_565
Cl10 Cs1 3.919933 1_566
Cl11 Tl1 2.611532 1_555
Cl11 Cs4 3.537971 1_555
Cl11 Cs7 3.537971 1_655
Cl11 Cs1 3.537971 1_555
Cl11 Cs5 3.537971 1_655
Cl12 Tl1 2.617968 1_555
Cl12 Cs6 3.593939 1_555
Cl12 Cs2 3.593939 1_545
Cl12 Cs4 3.671579 1_555
Cl12 Cs1 3.671579 1_555
Cl13 Sb0 2.395232 1_555
Cl13 Cs6 3.773756 1_555
Cl13 Cs3 3.773756 1_454
Cl13 Cs4 3.919933 1_555
Cl13 Cs7 3.919933 1_554
Cl14 Sb1 2.395232 1_556
Cl14 Cs7 3.773756 1_555
Cl14 Cs5 3.773756 1_555
Cl14 Cs2 3.919933 1_556
Cl14 Cs6 3.919933 1_555
Cl15 Tl0 2.617974 1_555
Cl15 Cs1 3.593944 1_455
Cl15 Cs5 3.593951 1_555
Cl15 Cs3 3.671568 1_454
Cl15 Cs6 3.671576 1_555
Cl16 Tl0 2.617968 1_565
Cl16 Cs6 3.593939 1_565
Cl16 Cs2 3.593939 1_555
Cl16 Cs5 3.671579 1_565
Cl16 Cs7 3.671579 1_554
Cl17 Sb1 2.392804 1_555
Cl17 Cs0 3.940884 1_555
Cl17 Cs6 3.940884 1_554
Cl17 Cs3 3.940884 1_554
Cl17 Cs2 3.940884 1_555
Cl18 Tl0 2.611532 1_555
Cl18 Cs3 3.537971 1_454
Cl18 Cs0 3.537971 1_444
Cl18 Cs2 3.537971 1_545
Cl18 Cs6 3.537971 1_555
Cl19 Sb0 2.392804 1_555
Cl19 Cs1 3.940884 1_566
Cl19 Cs4 3.940884 1_555
Cl19 Cs5 3.940884 1_565
Cl19 Cs7 3.940884 1_554
Cl20 Tl0 2.617968 1_566
Cl20 Cs4 3.593939 1_455
Cl20 Cs7 3.593939 1_555
Cl20 Cs2 3.671579 1_556
Cl20 Cs0 3.671579 1_455
Cl21 Sb0 2.395232 1_555
Cl21 Cs4 3.773756 1_555
Cl21 Cs1 3.773756 1_566
Cl21 Cs6 3.919933 1_555
Cl21 Cs2 3.919933 1_556
Cl22 Sb1 2.392804 1_555
Cl22 Cs5 3.940884 1_554
Cl22 Cs1 3.940884 1_555
Cl22 Cs4 3.940884 1_555
Cl22 Cs7 3.940884 1_554
Cl23 Tl1 2.617968 1_555
Cl23 Cs4 3.593939 1_555
Cl23 Cs7 3.593939 1_655
Cl23 Cs3 3.671579 1_555
Cl23 Cs6 3.671579 1_555
