# generated using pymatgen
data_LiMg6Sc(SiO3)8
_symmetry_space_group_name_H-M   'P 1'
_cell_length_a   14.03478500
_cell_length_b   7.82860300
_cell_length_c   7.94350261
_cell_angle_alpha   86.27301436
_cell_angle_beta   90.00000000
_cell_angle_gamma   90.00000000
_symmetry_Int_Tables_number   1
_chemical_formula_structural   LiMg6Sc(SiO3)8
_chemical_formula_sum   'Li2 Mg12 Sc2 Si16 O48'
_cell_volume   870.92873596
_cell_formula_units_Z   2
loop_
 _symmetry_equiv_pos_site_id
 _symmetry_equiv_pos_as_xyz
  1  'x, y, z'
loop_
 _atom_site_type_symbol
 _atom_site_label
 _atom_site_symmetry_multiplicity
 _atom_site_fract_x
 _atom_site_fract_y
 _atom_site_fract_z
 _atom_site_occupancy
  Li  Li0  1  0.58987000  0.42962500  0.09995100  1
  Li  Li1  1  0.41013000  0.92962500  0.09995100  1
  Mg  Mg0  1  0.25469500  0.29133000  0.52770900  1
  Mg  Mg1  1  0.82830900  0.05577900  0.75737000  1
  Mg  Mg2  1  0.74530500  0.79133000  0.52770900  1
  Mg  Mg3  1  0.17169100  0.55577900  0.75737000  1
  Mg  Mg4  1  0.63765600  0.19233900  0.72275500  1
  Mg  Mg5  1  0.02601600  0.18272500  0.69183800  1
  Mg  Mg6  1  0.36234400  0.69233900  0.72275500  1
  Mg  Mg7  1  0.97398400  0.68272500  0.69183800  1
  Mg  Mg8  1  0.14988900  0.09422400  0.29110500  1
  Mg  Mg9  1  0.94908000  0.33575200  0.07563200  1
  Mg  Mg10  1  0.05092000  0.83575200  0.07563200  1
  Mg  Mg11  1  0.85011100  0.59422400  0.29110500  1
  Sc  Sc0  1  0.25412900  0.68806800  0.37558900  1
  Sc  Sc1  1  0.74587100  0.18806800  0.37558900  1
  Si  Si0  1  0.16297600  0.46765400  0.09507300  1
  Si  Si1  1  0.76146600  0.64460900  0.93053200  1
  Si  Si2  1  0.23853400  0.14460900  0.93053200  1
  Si  Si3  1  0.83702400  0.96765400  0.09507300  1
  Si  Si4  1  0.47711500  0.44142900  0.56666300  1
  Si  Si5  1  0.06009200  0.45295100  0.41264800  1
  Si  Si6  1  0.52288500  0.94142900  0.56666300  1
  Si  Si7  1  0.93990800  0.95295100  0.41264800  1
  Si  Si8  1  0.17753600  0.90811300  0.68844100  1
  Si  Si9  1  0.40205200  0.58503400  0.13993000  1
  Si  Si10  1  0.59794800  0.08503400  0.13993000  1
  Si  Si11  1  0.82246400  0.40811300  0.68844100  1
  Si  Si12  1  0.40133500  0.13234800  0.37636100  1
  Si  Si13  1  0.59866500  0.63234800  0.37636100  1
  Si  Si14  1  0.44621100  0.26190600  0.93860800  1
  Si  Si15  1  0.55378900  0.76190600  0.93860800  1
  O  O0  1  0.43328700  0.39092200  0.08353800  1
  O  O1  1  0.93401100  0.40212300  0.75519000  1
  O  O2  1  0.06598900  0.90212300  0.75519000  1
  O  O3  1  0.56671300  0.89092200  0.08353800  1
  O  O4  1  0.90499300  0.79820500  0.14336400  1
  O  O5  1  0.44097600  0.68956300  0.94789400  1
  O  O6  1  0.55902400  0.18956300  0.94789400  1
  O  O7  1  0.09500700  0.29820500  0.14336400  1
  O  O8  1  0.52294400  0.58674100  0.23113300  1
  O  O9  1  0.09779300  0.60484600  0.97149500  1
  O  O10  1  0.47705600  0.08674100  0.23113300  1
  O  O11  1  0.90220700  0.10484600  0.97149500  1
  O  O12  1  0.71081500  0.65271200  0.32809400  1
  O  O13  1  0.07019600  0.56458800  0.58053900  1
  O  O14  1  0.92980400  0.06458800  0.58053900  1
  O  O15  1  0.28918500  0.15271200  0.32809400  1
  O  O16  1  0.37127300  0.75204300  0.24430100  1
  O  O17  1  0.78275800  0.60844300  0.72572600  1
  O  O18  1  0.21724200  0.10844300  0.72572600  1
  O  O19  1  0.62872700  0.25204300  0.24430100  1
  O  O20  1  0.80402300  0.38973400  0.48850100  1
  O  O21  1  0.26988500  0.52918700  0.58107900  1
  O  O22  1  0.73011500  0.02918700  0.58107900  1
  O  O23  1  0.19597700  0.88973400  0.48850100  1
  O  O24  1  0.03892000  0.94206000  0.31089700  1
  O  O25  1  0.54953400  0.14099200  0.55662900  1
  O  O26  1  0.45046600  0.64099200  0.55662900  1
  O  O27  1  0.96108000  0.44206000  0.31089700  1
  O  O28  1  0.59115100  0.83017900  0.44610900  1
  O  O29  1  0.35892200  0.11993300  0.94610200  1
  O  O30  1  0.64107800  0.61993300  0.94610200  1
  O  O31  1  0.40884900  0.33017900  0.44610900  1
  O  O32  1  0.44803600  0.36947300  0.75827200  1
  O  O33  1  0.89198000  0.76715600  0.48778400  1
  O  O34  1  0.55196400  0.86947300  0.75827200  1
  O  O35  1  0.10802000  0.26715600  0.48778400  1
  O  O36  1  0.24376400  0.77471500  0.79823600  1
  O  O37  1  0.86462900  0.06479700  0.28506800  1
  O  O38  1  0.75623600  0.27471500  0.79823600  1
  O  O39  1  0.13537100  0.56479700  0.28506800  1
  O  O40  1  0.40652600  0.96654700  0.52693300  1
  O  O41  1  0.59347400  0.46654700  0.52693300  1
  O  O42  1  0.18176100  0.00766100  0.05308300  1
  O  O43  1  0.81823900  0.50766100  0.05308300  1
  O  O44  1  0.21497800  0.35252200  0.91732300  1
  O  O45  1  0.72125500  0.03097100  0.14250600  1
  O  O46  1  0.78502200  0.85252200  0.91732300  1
  O  O47  1  0.27874500  0.53097100  0.14250600  1
loop_
_geom_bond_atom_site_label_1
_geom_bond_atom_site_label_2
_geom_bond_distance
_geom_bond_site_symmetry_2
Li0 O19 1.826929 1_555
Li0 O8 1.909883 1_555
Li0 O30 1.998245 1_554
Li0 O0 2.223381 1_555
Li0 O6 2.339535 1_554
Li1 O16 1.826929 1_555
Li1 O10 1.909883 1_565
Li1 O29 1.998245 1_564
Li1 O3 2.223381 1_555
Li1 O5 2.339535 1_554
Mg0 O21 1.948122 1_555
Mg0 O15 2.037131 1_555
Mg0 O35 2.093283 1_555
Mg0 O18 2.123110 1_555
Mg0 O31 2.273286 1_555
Mg1 O22 1.985325 1_555
Mg1 O14 1.998578 1_555
Mg1 O38 2.034348 1_555
Mg1 O11 2.049689 1_555
Mg1 O46 2.062186 1_545
Mg2 O22 1.948122 1_565
Mg2 O12 2.037131 1_555
Mg2 O33 2.093283 1_555
Mg2 O17 2.123110 1_555
Mg2 O28 2.273286 1_555
Mg3 O21 1.985325 1_555
Mg3 O13 1.998578 1_555
Mg3 O36 2.034348 1_555
Mg3 O9 2.049689 1_555
Mg3 O44 2.062186 1_555
Mg4 O25 1.871245 1_555
Mg4 O38 1.896144 1_555
Mg4 O6 2.100396 1_555
Mg4 O22 2.183725 1_555
Mg5 O14 1.888553 1_455
Mg5 O35 2.061437 1_555
Mg5 O1 2.232281 1_455
Mg5 O2 2.291256 1_545
Mg6 O26 1.871245 1_555
Mg6 O36 1.896144 1_555
Mg6 O5 2.100396 1_555
Mg6 O21 2.183725 1_555
Mg7 O13 1.888553 1_655
Mg7 O33 2.061437 1_555
Mg7 O2 2.232281 1_655
Mg7 O1 2.291256 1_555
Mg8 O24 1.960862 1_545
Mg8 O15 2.033583 1_555
Mg8 O7 2.068090 1_555
Mg8 O42 2.097797 1_555
Mg8 O35 2.212224 1_555
Mg8 O23 2.261309 1_545
Mg9 O27 2.101359 1_555
Mg9 O7 2.133036 1_655
Mg9 O11 2.139889 1_554
Mg9 O43 2.276847 1_555
Mg9 O1 2.573322 1_554
Mg10 O24 2.101359 1_555
Mg10 O4 2.133036 1_455
Mg10 O9 2.139889 1_554
Mg10 O42 2.276847 1_565
Mg10 O2 2.573322 1_554
Mg11 O27 1.960862 1_555
Mg11 O12 2.033583 1_555
Mg11 O4 2.068090 1_555
Mg11 O43 2.097797 1_555
Mg11 O33 2.212224 1_555
Mg11 O20 2.261309 1_555
O0 Si14 1.590465 1_554
O0 Si9 1.670506 1_555
O1 Si11 1.652577 1_555
O2 Si8 1.652577 1_555
O3 Si15 1.590465 1_554
O3 Si10 1.670506 1_565
O4 Si3 1.658526 1_555
O5 Si15 1.681551 1_555
O5 Si9 1.769958 1_556
O6 Si14 1.681551 1_555
O6 Si10 1.769958 1_556
O7 Si0 1.658526 1_555
O8 Si13 1.625193 1_555
O8 Si9 1.845281 1_555
O9 Si0 1.678390 1_556
O10 Si12 1.625193 1_555
O10 Si10 1.845281 1_555
O11 Si3 1.678390 1_546
O12 Si13 1.625408 1_555
O13 Si5 1.647437 1_555
O14 Si7 1.647437 1_545
O15 Si12 1.625408 1_555
O16 Si9 1.650546 1_555
O16 Sc0 1.993384 1_555
O17 Si1 1.695899 1_555
O17 Si11 1.708282 1_555
O18 Si2 1.695899 1_555
O18 Si8 1.708282 1_545
O19 Si10 1.650546 1_555
O19 Sc1 1.993384 1_555
O20 Si11 1.624762 1_555
O20 Sc1 2.036454 1_555
O21 Sc0 1.999117 1_555
O22 Sc1 1.999117 1_555
O23 Si8 1.624762 1_555
O23 Sc0 2.036454 1_555
O24 Si7 1.612617 1_455
O25 Si6 1.603381 1_545
O26 Si4 1.603381 1_555
O27 Si5 1.612617 1_655
O28 Si6 1.643758 1_555
O28 Si13 1.681736 1_555
O29 Si14 1.652601 1_555
O29 Si2 1.704208 1_555
O30 Si15 1.652601 1_555
O30 Si1 1.704208 1_555
O31 Si4 1.643758 1_555
O31 Si12 1.681736 1_555
O32 Si14 1.614006 1_555
O32 Si4 1.639831 1_555
O33 Si7 1.676737 1_555
O34 Si15 1.614006 1_555
O34 Si6 1.639831 1_555
O35 Si5 1.676737 1_555
O36 Si8 1.611463 1_555
O37 Si7 1.671706 1_545
O37 Si3 1.776353 1_545
O37 Sc1 2.077639 1_555
O38 Si11 1.611463 1_555
O39 Si5 1.671706 1_555
O39 Si0 1.776353 1_555
O39 Sc0 2.077639 1_555
O40 Si6 1.672462 1_555
O40 Si12 1.708460 1_565
O41 Si4 1.672462 1_555
O41 Si13 1.708460 1_555
O42 Si2 1.611303 1_554
O43 Si1 1.611303 1_554
O44 Si2 1.657531 1_555
O44 Si0 1.871929 1_556
O45 Si3 1.746969 1_545
O45 Si10 1.781391 1_555
O45 Sc1 2.314293 1_555
O46 Si1 1.657531 1_555
O46 Si3 1.871929 1_556
O47 Si0 1.746969 1_555
O47 Si9 1.781391 1_555
O47 Sc0 2.314293 1_555
