# generated using pymatgen
data_NaP3(PbO3)4
_symmetry_space_group_name_H-M   'P 1'
_cell_length_a   9.87025202
_cell_length_b   9.87025202
_cell_length_c   7.32504700
_cell_angle_alpha   90.00000000
_cell_angle_beta   90.00000000
_cell_angle_gamma   120.00000015
_symmetry_Int_Tables_number   1
_chemical_formula_structural   NaP3(PbO3)4
_chemical_formula_sum   'Na2 P6 Pb8 O24'
_cell_volume   618.01288588
_cell_formula_units_Z   2
loop_
 _symmetry_equiv_pos_site_id
 _symmetry_equiv_pos_as_xyz
  1  'x, y, z'
loop_
 _atom_site_type_symbol
 _atom_site_label
 _atom_site_symmetry_multiplicity
 _atom_site_fract_x
 _atom_site_fract_y
 _atom_site_fract_z
 _atom_site_occupancy
  Na  Na0  1  0.33333300  0.66666700  0.50643300  1
  Na  Na1  1  0.66666700  0.33333300  0.00643300  1
  P  P0  1  0.02073400  0.39574800  0.25136300  1
  P  P1  1  0.37501300  0.97926600  0.25136300  1
  P  P2  1  0.39574800  0.37501300  0.75136300  1
  P  P3  1  0.60425200  0.62498700  0.25136300  1
  P  P4  1  0.62498700  0.02073400  0.75136300  1
  P  P5  1  0.97926600  0.60425200  0.75136300  1
  Pb  Pb0  1  0.25852100  0.00136700  0.74963000  1
  Pb  Pb1  1  0.99863300  0.25715400  0.74963000  1
  Pb  Pb2  1  0.33333300  0.66666700  0.98858300  1
  Pb  Pb3  1  0.25715400  0.25852100  0.24963000  1
  Pb  Pb4  1  0.74284600  0.74147900  0.74963000  1
  Pb  Pb5  1  0.66666700  0.33333300  0.48858300  1
  Pb  Pb6  1  0.00136700  0.74284600  0.24963000  1
  Pb  Pb7  1  0.74147900  0.99863300  0.24963000  1
  O  O0  1  0.26630700  0.91774200  0.07930600  1
  O  O1  1  0.26295100  0.92377000  0.41912800  1
  O  O2  1  0.10422500  0.57948600  0.25626300  1
  O  O3  1  0.15915700  0.67747500  0.74597200  1
  O  O4  1  0.08225800  0.34856500  0.07930600  1
  O  O5  1  0.07623000  0.33918100  0.41912800  1
  O  O6  1  0.47526100  0.89577500  0.25626300  1
  O  O7  1  0.32252500  0.48168300  0.74597200  1
  O  O8  1  0.51831700  0.84084300  0.74597200  1
  O  O9  1  0.42051400  0.52473900  0.25626300  1
  O  O10  1  0.34856500  0.26630700  0.57930600  1
  O  O11  1  0.33918100  0.26295100  0.91912800  1
  O  O12  1  0.65143500  0.73369300  0.07930600  1
  O  O13  1  0.66081900  0.73704900  0.41912800  1
  O  O14  1  0.57948600  0.47526100  0.75626300  1
  O  O15  1  0.48168300  0.15915700  0.24597200  1
  O  O16  1  0.67747500  0.51831700  0.24597200  1
  O  O17  1  0.52473900  0.10422500  0.75626300  1
  O  O18  1  0.91774200  0.65143500  0.57930600  1
  O  O19  1  0.92377000  0.66081900  0.91912800  1
  O  O20  1  0.84084300  0.32252500  0.24597200  1
  O  O21  1  0.89577500  0.42051400  0.75626300  1
  O  O22  1  0.73369300  0.08225800  0.57930600  1
  O  O23  1  0.73704900  0.07623000  0.91912800  1
loop_
_geom_bond_atom_site_label_1
_geom_bond_atom_site_label_2
_geom_bond_distance
_geom_bond_site_symmetry_2
Na0 O8 2.495803 1_555
Na0 O7 2.495803 1_555
Na0 O3 2.495803 1_555
Na0 O2 2.695620 1_555
Na0 O6 2.695621 1_555
Na0 O9 2.695627 1_555
Na1 O15 2.495803 1_555
Na1 O16 2.495803 1_555
Na1 O20 2.495803 1_555
Na1 O21 2.695620 1_554
Na1 O17 2.695621 1_554
Na1 O14 2.695627 1_554
O0 P1 1.567436 1_555
O0 Pb0 2.565605 1_564
O0 Pb6 2.619295 1_555
O1 P1 1.558124 1_555
O1 Pb0 2.546168 1_565
O1 Pb6 2.604999 1_555
O2 P0 1.573157 1_555
O2 Pb6 2.295621 1_555
O2 Pb2 2.784403 1_554
O3 P5 1.547026 1_455
O3 Pb2 2.511674 1_555
O3 Pb0 2.836790 1_565
O4 P0 1.567441 1_555
O4 Pb1 2.565605 1_454
O4 Pb3 2.619295 1_555
O5 P0 1.558129 1_555
O5 Pb1 2.546168 1_455
O5 Pb3 2.604999 1_555
O6 P1 1.573166 1_555
O6 Pb7 2.295621 1_555
O6 Pb2 2.784404 1_554
O7 P2 1.547044 1_555
O7 Pb2 2.511674 1_555
O7 Pb1 2.836792 1_455
O8 P4 1.547028 1_565
O8 Pb2 2.511674 1_555
O8 Pb4 2.836799 1_555
O9 P3 1.573158 1_555
O9 Pb3 2.295621 1_555
O9 Pb2 2.784410 1_554
O10 P2 1.567436 1_555
O10 Pb3 2.565605 1_555
O10 Pb0 2.619295 1_555
O11 P2 1.558124 1_555
O11 Pb3 2.546168 1_556
O11 Pb0 2.604999 1_555
O12 P3 1.567436 1_555
O12 Pb4 2.565605 1_554
O12 Pb7 2.619295 1_555
O13 P3 1.558124 1_555
O13 Pb4 2.546168 1_555
O13 Pb7 2.604999 1_555
O14 P2 1.573158 1_555
O14 Pb4 2.295621 1_555
O14 Pb5 2.784410 1_555
O15 P1 1.547028 1_545
O15 Pb5 2.511674 1_555
O15 Pb3 2.836799 1_555
O16 P3 1.547044 1_555
O16 Pb5 2.511674 1_555
O16 Pb6 2.836792 1_655
O17 P4 1.573166 1_555
O17 Pb0 2.295621 1_555
O17 Pb5 2.784404 1_555
O18 P5 1.567441 1_555
O18 Pb6 2.565605 1_655
O18 Pb4 2.619295 1_555
O19 P5 1.558129 1_555
O19 Pb6 2.546168 1_656
O19 Pb4 2.604999 1_555
O20 P0 1.547026 1_655
O20 Pb5 2.511674 1_555
O20 Pb7 2.836790 1_545
O21 P5 1.573157 1_555
O21 Pb1 2.295621 1_555
O21 Pb5 2.784403 1_555
O22 P4 1.567436 1_555
O22 Pb7 2.565605 1_545
O22 Pb1 2.619295 1_555
O23 P4 1.558124 1_555
O23 Pb7 2.546168 1_546
O23 Pb1 2.604999 1_555
