# generated using pymatgen
data_Na2TiFe(PO4)3
_symmetry_space_group_name_H-M   'P 1'
_cell_length_a   8.65004418
_cell_length_b   8.65004418
_cell_length_c   8.73773066
_cell_angle_alpha   60.21551434
_cell_angle_beta   60.21551434
_cell_angle_gamma   60.11186803
_symmetry_Int_Tables_number   1
_chemical_formula_structural   Na2TiFe(PO4)3
_chemical_formula_sum   'Na4 Ti2 Fe2 P6 O24'
_cell_volume   464.18977430
_cell_formula_units_Z   2
loop_
 _symmetry_equiv_pos_site_id
 _symmetry_equiv_pos_as_xyz
  1  'x, y, z'
loop_
 _atom_site_type_symbol
 _atom_site_label
 _atom_site_symmetry_multiplicity
 _atom_site_fract_x
 _atom_site_fract_y
 _atom_site_fract_z
 _atom_site_occupancy
  Na  Na0  1  0.99481041  0.48443191  0.75027568  1
  Na  Na1  1  0.51556809  0.00518959  0.24972432  1
  Na  Na2  1  0.24995707  0.38376970  0.99051048  1
  Na  Na3  1  0.61623030  0.75004293  0.00948952  1
  Ti  Ti0  1  0.13950052  0.64344024  0.32248297  1
  Ti  Ti1  1  0.35655976  0.86049948  0.67751703  1
  Fe  Fe0  1  0.65337386  0.14710412  0.80567623  1
  Fe  Fe1  1  0.85289588  0.34662614  0.19432377  1
  P  P0  1  0.74932068  0.95145053  0.51307508  1
  P  P1  1  0.04854947  0.25067932  0.48692492  1
  P  P2  1  0.45772585  0.54227415  0.50000000  1
  P  P3  1  0.53922383  0.46077617  0.00000000  1
  P  P4  1  0.95802473  0.75538039  0.00078967  1
  P  P5  1  0.24461961  0.04197527  -0.00078967  1
  O  O0  1  0.29814368  0.00355700  0.82296968  1
  O  O1  1  0.50047564  0.63160724  0.82751999  1
  O  O2  1  0.91906686  0.77018844  0.49453504  1
  O  O3  1  0.12865752  0.79863872  0.83018142  1
  O  O4  1  0.79090207  0.12385670  0.34918011  1
  O  O5  1  0.58293151  0.93338033  0.51014359  1
  O  O6  1  0.06661967  0.41706849  0.48985641  1
  O  O7  1  0.22981156  0.08093314  0.50546496  1
  O  O8  1  0.43164260  0.72457751  0.51420906  1
  O  O9  1  0.36839276  0.49952436  0.17248001  1
  O  O10  1  0.71850555  0.44596938  0.00746251  1
  O  O11  1  -0.00355700  0.70185632  0.17703032  1
  O  O12  1  0.03526928  0.29650613  0.30037412  1
  O  O13  1  0.27542249  0.56835740  0.48579094  1
  O  O14  1  0.62503811  0.51763137  0.32261609  1
  O  O15  1  0.55403062  0.28149445  0.99253749  1
  O  O16  1  0.77360332  0.92077206  0.99846176  1
  O  O17  1  0.94104890  0.58836120  0.99750326  1
  O  O18  1  0.41163880  0.05895110  0.00249674  1
  O  O19  1  0.20136128  0.87134248  0.16981858  1
  O  O20  1  0.87614330  0.20909793  0.65081989  1
  O  O21  1  0.07922794  0.22639668  0.00153824  1
  O  O22  1  0.48236863  0.37496189  0.67738391  1
  O  O23  1  0.70349387  0.96473072  0.69962588  1
loop_
_geom_bond_atom_site_label_1
_geom_bond_atom_site_label_2
_geom_bond_distance
_geom_bond_site_symmetry_2
Na0 O21 2.331350 1_656
Na0 O6 2.335699 1_655
Na0 O10 2.363643 1_556
Na0 O2 2.426016 1_555
Na0 O17 2.491107 1_555
Na0 O13 2.505203 1_655
Na1 O16 2.331350 1_544
Na1 O5 2.335699 1_545
Na1 O15 2.363643 1_554
Na1 O7 2.426016 1_555
Na1 O18 2.491107 1_555
Na1 O8 2.505203 1_545
Na2 O15 2.326551 1_555
Na2 O17 2.346916 1_455
Na2 O12 2.391749 1_556
Na2 O21 2.403171 1_556
Na2 O18 2.407959 1_556
Na2 O22 2.474487 1_555
Na3 O10 2.326551 1_555
Na3 O18 2.346916 1_565
Na3 O23 2.391749 1_554
Na3 O16 2.403171 1_554
Na3 O17 2.407959 1_554
Na3 O14 2.474487 1_555
Fe0 O20 1.884207 1_555
Fe0 O22 1.968785 1_555
Fe0 O23 1.976560 1_545
Fe0 O16 2.046199 1_545
Fe0 O15 2.061998 1_555
Fe0 O18 2.150591 1_556
Fe1 O4 1.884207 1_555
Fe1 O14 1.968785 1_555
Fe1 O12 1.976560 1_655
Fe1 O21 2.046199 1_655
Fe1 O10 2.061998 1_555
Fe1 O17 2.150591 1_554
O0 P5 1.530677 1_556
O0 Ti1 1.924356 1_545
O1 P3 1.537197 1_556
O1 Ti1 1.942722 1_555
O2 P0 1.536942 1_555
O2 Ti0 1.950392 1_655
O3 P4 1.533337 1_456
O3 Ti1 1.918761 1_555
O4 P0 1.518335 1_545
O5 P0 1.536688 1_555
O5 Ti1 1.959538 1_555
O6 P1 1.536688 1_555
O6 Ti0 1.959538 1_555
O7 P1 1.536942 1_555
O7 Ti1 1.950392 1_545
O8 P2 1.537897 1_555
O8 Ti1 1.955848 1_555
O9 P3 1.537197 1_555
O9 Ti0 1.942722 1_555
O10 P3 1.523099 1_555
O11 P4 1.530677 1_455
O11 Ti0 1.924356 1_555
O12 P1 1.525136 1_555
O13 P2 1.537897 1_555
O13 Ti0 1.955848 1_555
O14 P2 1.527920 1_555
O15 P3 1.523099 1_556
O16 P4 1.523417 1_556
O17 P4 1.538326 1_556
O18 P5 1.538326 1_555
O19 P5 1.533337 1_565
O19 Ti0 1.918761 1_555
O20 P1 1.518335 1_655
O21 P5 1.523417 1_555
O22 P2 1.527920 1_555
O23 P0 1.525136 1_555
