# generated using pymatgen
data_Sr3U11O36
_symmetry_space_group_name_H-M   'P 1'
_cell_length_a   6.79020200
_cell_length_b   8.47887200
_cell_length_c   28.80258300
_cell_angle_alpha   90.00000000
_cell_angle_beta   90.00000000
_cell_angle_gamma   90.00000000
_symmetry_Int_Tables_number   1
_chemical_formula_structural   Sr3U11O36
_chemical_formula_sum   'Sr6 U22 O72'
_cell_volume   1658.25841574
_cell_formula_units_Z   2
loop_
 _symmetry_equiv_pos_site_id
 _symmetry_equiv_pos_as_xyz
  1  'x, y, z'
loop_
 _atom_site_type_symbol
 _atom_site_label
 _atom_site_symmetry_multiplicity
 _atom_site_fract_x
 _atom_site_fract_y
 _atom_site_fract_z
 _atom_site_occupancy
  Sr  Sr0  1  0.76384500  0.00000000  0.50000000  1
  Sr  Sr1  1  0.23615500  0.50000000  0.00000000  1
  Sr  Sr2  1  0.31748900  0.50000000  0.14515700  1
  Sr  Sr3  1  0.31748900  0.50000000  0.85484300  1
  Sr  Sr4  1  0.68251100  0.00000000  0.64515700  1
  Sr  Sr5  1  0.68251100  0.00000000  0.35484300  1
  U  U0  1  0.24896300  0.00000000  0.13432500  1
  U  U1  1  0.77796500  0.50000000  0.07256200  1
  U  U2  1  0.22385300  0.50000000  0.71318600  1
  U  U3  1  0.75103700  0.50000000  0.36567500  1
  U  U4  1  0.22203500  0.00000000  0.57256200  1
  U  U5  1  0.77318800  0.50000000  0.78124400  1
  U  U6  1  0.22203500  0.00000000  0.42743800  1
  U  U7  1  0.77614700  0.00000000  0.78681400  1
  U  U8  1  0.75103700  0.50000000  0.63432500  1
  U  U9  1  0.22385300  0.50000000  0.28681400  1
  U  U10  1  0.24896300  0.00000000  0.86567500  1
  U  U11  1  0.32157600  0.00000000  0.00000000  1
  U  U12  1  0.22681200  0.00000000  0.28124400  1
  U  U13  1  0.21976200  0.50000000  0.57154000  1
  U  U14  1  0.77796500  0.50000000  0.92743800  1
  U  U15  1  0.77614700  0.00000000  0.21318600  1
  U  U16  1  0.67842400  0.50000000  0.50000000  1
  U  U17  1  0.78023800  0.00000000  0.92846000  1
  U  U18  1  0.78023800  0.00000000  0.07154000  1
  U  U19  1  0.77318800  0.50000000  0.21875600  1
  U  U20  1  0.21976200  0.50000000  0.42846000  1
  U  U21  1  0.22681200  0.00000000  0.71875600  1
  O  O0  1  0.77855700  0.76434700  0.07177500  1
  O  O1  1  0.25024800  0.78194800  0.86471100  1
  O  O2  1  0.52734400  0.00000000  0.17444400  1
  O  O3  1  0.71099800  0.50000000  0.85081400  1
  O  O4  1  0.22088500  0.72765700  0.28279400  1
  O  O5  1  0.46692700  0.00000000  0.07430200  1
  O  O6  1  0.25024800  0.21805200  0.86471100  1
  O  O7  1  0.77911500  0.77234300  0.78279400  1
  O  O8  1  0.22144300  0.73565300  0.57177500  1
  O  O9  1  0.77855700  0.23565300  0.92822500  1
  O  O10  1  0.48365100  0.50000000  0.77238000  1
  O  O11  1  0.68814800  0.00000000  0.00000000  1
  O  O12  1  0.49978200  0.50000000  0.93483800  1
  O  O13  1  0.74975200  0.28194800  0.36471100  1
  O  O14  1  0.09378000  0.50000000  0.35913700  1
  O  O15  1  0.09378000  0.50000000  0.64086300  1
  O  O16  1  0.77911500  0.22765700  0.78279400  1
  O  O17  1  0.74975200  0.28194800  0.63528900  1
  O  O18  1  0.08367900  0.00000000  0.94324700  1
  O  O19  1  0.90622000  0.00000000  0.14086300  1
  O  O20  1  0.46692700  0.00000000  0.92569800  1
  O  O21  1  0.31185200  0.50000000  0.50000000  1
  O  O22  1  0.77855700  0.23565300  0.07177500  1
  O  O23  1  0.77855700  0.76434700  0.92822500  1
  O  O24  1  0.22144300  0.73565300  0.42822500  1
  O  O25  1  0.08367900  0.00000000  0.05675300  1
  O  O26  1  0.13920800  0.00000000  0.21371600  1
  O  O27  1  0.77911500  0.77234300  0.21720600  1
  O  O28  1  0.93787700  0.00000000  0.71106800  1
  O  O29  1  0.06212300  0.50000000  0.21106800  1
  O  O30  1  0.53307300  0.50000000  0.57430200  1
  O  O31  1  0.31820600  0.21778500  0.00000000  1
  O  O32  1  0.22088500  0.72765700  0.71720600  1
  O  O33  1  0.48365100  0.50000000  0.22762000  1
  O  O34  1  0.74975200  0.71805200  0.36471100  1
  O  O35  1  0.77911500  0.22765700  0.21720600  1
  O  O36  1  0.22144300  0.26434700  0.57177500  1
  O  O37  1  0.13920800  0.00000000  0.78628400  1
  O  O38  1  0.25024800  0.78194800  0.13528900  1
  O  O39  1  0.28900200  0.00000000  0.64918600  1
  O  O40  1  0.51634900  0.00000000  0.72762000  1
  O  O41  1  0.94600400  0.00000000  0.41842600  1
  O  O42  1  0.25024800  0.21805200  0.13528900  1
  O  O43  1  0.50021800  0.00000000  0.43483800  1
  O  O44  1  0.91632100  0.50000000  0.44324700  1
  O  O45  1  0.86079200  0.50000000  0.71371600  1
  O  O46  1  0.15635100  0.00000000  0.50000000  1
  O  O47  1  0.68179400  0.28221500  0.50000000  1
  O  O48  1  0.06212300  0.50000000  0.78893200  1
  O  O49  1  0.93787700  0.00000000  0.28893200  1
  O  O50  1  0.47265600  0.50000000  0.32555600  1
  O  O51  1  0.84364900  0.50000000  0.00000000  1
  O  O52  1  0.53307300  0.50000000  0.42569800  1
  O  O53  1  0.31820600  0.78221500  0.00000000  1
  O  O54  1  0.05399600  0.50000000  0.91842600  1
  O  O55  1  0.47265600  0.50000000  0.67444400  1
  O  O56  1  0.91632100  0.50000000  0.55675300  1
  O  O57  1  0.50021800  0.00000000  0.56516200  1
  O  O58  1  0.52734400  0.00000000  0.82555600  1
  O  O59  1  0.22088500  0.27234300  0.28279400  1
  O  O60  1  0.05399600  0.50000000  0.08157400  1
  O  O61  1  0.94600400  0.00000000  0.58157400  1
  O  O62  1  0.49978200  0.50000000  0.06516200  1
  O  O63  1  0.22088500  0.27234300  0.71720600  1
  O  O64  1  0.86079200  0.50000000  0.28628400  1
  O  O65  1  0.68179400  0.71778500  0.50000000  1
  O  O66  1  0.51634900  0.00000000  0.27238000  1
  O  O67  1  0.28900200  0.00000000  0.35081400  1
  O  O68  1  0.90622000  0.00000000  0.85913700  1
  O  O69  1  0.71099800  0.50000000  0.14918600  1
  O  O70  1  0.22144300  0.26434700  0.42822500  1
  O  O71  1  0.74975200  0.71805200  0.63528900  1
loop_
_geom_bond_atom_site_label_1
_geom_bond_atom_site_label_2
_geom_bond_distance
_geom_bond_site_symmetry_2
O0 U18 1.998116 1_565
O0 U1 2.241483 1_555
O1 U10 1.849064 1_565
O1 Sr3 2.450351 1_555
O2 U15 2.024676 1_555
O2 U0 2.215479 1_555
O3 U5 2.047809 1_555
O3 U14 2.253327 1_555
O3 Sr3 2.674524 1_555
O4 U9 1.933849 1_555
O4 U12 2.309944 1_565
O5 U18 2.128932 1_555
O5 U0 2.275800 1_555
O5 U11 2.356709 1_555
O6 U10 1.849064 1_555
O6 Sr3 2.450351 1_555
O7 U7 1.933849 1_565
O7 U5 2.309944 1_555
O8 U13 1.998116 1_555
O8 U4 2.241483 1_565
O9 U17 1.998116 1_555
O9 U14 2.241483 1_555
O10 U5 1.982522 1_555
O10 U2 2.453325 1_555
O10 Sr3 2.629511 1_555
O11 U18 2.153329 1_555
O11 U17 2.153329 1_554
O11 U11 2.489098 1_555
O12 U14 1.900906 1_555
O12 Sr1 2.593626 1_556
O12 Sr3 2.615505 1_555
O13 U3 1.849064 1_555
O13 Sr5 2.450351 1_555
O14 U20 2.172215 1_555
O14 U9 2.262596 1_555
O14 U3 2.334900 1_455
O15 U13 2.172215 1_555
O15 U2 2.262596 1_555
O15 U8 2.334900 1_455
O16 U7 1.933849 1_555
O16 U5 2.309944 1_555
O17 U8 1.849064 1_555
O17 Sr4 2.450351 1_555
O18 U17 2.103984 1_455
O18 U11 2.298139 1_556
O18 U10 2.500313 1_555
O19 U18 2.172215 1_555
O19 U15 2.262596 1_555
O19 U0 2.334900 1_655
O20 U17 2.128932 1_555
O20 U10 2.275800 1_555
O20 U11 2.356709 1_556
O21 U20 2.153329 1_555
O21 U13 2.153329 1_555
O21 U16 2.489098 1_555
O22 U18 1.998116 1_555
O22 U1 2.241483 1_555
O23 U17 1.998116 1_565
O23 U14 2.241483 1_555
O24 U20 1.998116 1_555
O24 U6 2.241483 1_565
O25 U18 2.103984 1_455
O25 U11 2.298139 1_555
O25 U0 2.500313 1_555
O26 U12 2.033911 1_555
O26 U0 2.405047 1_555
O26 U15 2.465305 1_455
O27 U15 1.933849 1_565
O27 U19 2.309944 1_555
O28 U21 1.974384 1_655
O28 U7 2.442484 1_555
O28 Sr4 2.571120 1_555
O29 U19 1.974384 1_455
O29 U9 2.442484 1_555
O29 Sr2 2.571120 1_555
O30 U13 2.128932 1_555
O30 U8 2.275800 1_555
O30 U16 2.356709 1_555
O31 U11 1.846713 1_555
O31 Sr1 2.456870 1_555
O32 U2 1.933849 1_555
O32 U21 2.309944 1_565
O33 U19 1.982522 1_555
O33 U9 2.453325 1_555
O33 Sr2 2.629511 1_555
O34 U3 1.849064 1_555
O34 Sr5 2.450351 1_565
O35 U15 1.933849 1_555
O35 U19 2.309944 1_555
O36 U13 1.998116 1_555
O36 U4 2.241483 1_555
O37 U21 2.033911 1_555
O37 U10 2.405047 1_555
O37 U7 2.465305 1_455
O38 U0 1.849064 1_565
O38 Sr2 2.450351 1_555
O39 U21 2.047809 1_555
O39 U4 2.253327 1_555
O39 Sr4 2.674524 1_555
O40 U21 1.982522 1_555
O40 U7 2.453325 1_555
O40 Sr4 2.629511 1_555
O41 U6 1.892194 1_655
O41 Sr5 2.560272 1_555
O41 Sr0 2.655233 1_555
O42 U0 1.849064 1_555
O42 Sr2 2.450351 1_555
O43 U6 1.900906 1_555
O43 Sr0 2.593626 1_555
O43 Sr5 2.615505 1_555
O44 U20 2.103984 1_655
O44 U16 2.298139 1_555
O44 U3 2.500313 1_555
O45 U5 2.033911 1_555
O45 U8 2.405047 1_555
O45 U2 2.465305 1_655
O46 U4 2.137033 1_555
O46 U6 2.137033 1_555
O46 Sr0 2.665195 1_455
O47 U16 1.846713 1_555
O47 Sr0 2.456870 1_555
O48 U5 1.974384 1_455
O48 U2 2.442484 1_555
O48 Sr3 2.571120 1_555
O49 U12 1.974384 1_655
O49 U15 2.442484 1_555
O49 Sr5 2.571120 1_555
O50 U9 2.024676 1_555
O50 U3 2.215479 1_555
O51 U1 2.137033 1_555
O51 U14 2.137033 1_554
O51 Sr1 2.665195 1_655
O52 U20 2.128932 1_555
O52 U3 2.275800 1_555
O52 U16 2.356709 1_555
O53 U11 1.846713 1_565
O53 Sr1 2.456870 1_555
O54 U14 1.892194 1_455
O54 Sr3 2.560272 1_555
O54 Sr1 2.655233 1_556
O55 U2 2.024676 1_555
O55 U8 2.215479 1_555
O56 U13 2.103984 1_655
O56 U16 2.298139 1_555
O56 U8 2.500313 1_555
O57 U4 1.900906 1_555
O57 Sr0 2.593626 1_555
O57 Sr4 2.615505 1_555
O58 U7 2.024676 1_555
O58 U10 2.215479 1_555
O59 U9 1.933849 1_555
O59 U12 2.309944 1_555
O60 U1 1.892194 1_455
O60 Sr2 2.560272 1_555
O60 Sr1 2.655233 1_555
O61 U4 1.892194 1_655
O61 Sr4 2.560272 1_555
O61 Sr0 2.655233 1_555
O62 U1 1.900906 1_555
O62 Sr1 2.593626 1_555
O62 Sr2 2.615505 1_555
O63 U2 1.933849 1_555
O63 U21 2.309944 1_555
O64 U19 2.033911 1_555
O64 U3 2.405047 1_555
O64 U9 2.465305 1_655
O65 U16 1.846713 1_555
O65 Sr0 2.456870 1_565
O66 U12 1.982522 1_555
O66 U15 2.453325 1_555
O66 Sr5 2.629511 1_555
O67 U12 2.047809 1_555
O67 U6 2.253327 1_555
O67 Sr5 2.674524 1_555
O68 U17 2.172215 1_555
O68 U7 2.262596 1_555
O68 U10 2.334900 1_655
O69 U19 2.047809 1_555
O69 U1 2.253327 1_555
O69 Sr2 2.674524 1_555
O70 U20 1.998116 1_555
O70 U6 2.241483 1_555
O71 U8 1.849064 1_555
O71 Sr4 2.450351 1_565
