# generated using pymatgen
data_H24RuC8(S2Cl)2
_symmetry_space_group_name_H-M   'P 1'
_cell_length_a   8.56896800
_cell_length_b   14.32864400
_cell_length_c   15.01950300
_cell_angle_alpha   90.00000000
_cell_angle_beta   90.00000000
_cell_angle_gamma   90.00000000
_symmetry_Int_Tables_number   1
_chemical_formula_structural   H24RuC8(S2Cl)2
_chemical_formula_sum   'H96 Ru4 C32 S16 Cl8'
_cell_volume   1844.11999013
_cell_formula_units_Z   4
loop_
 _symmetry_equiv_pos_site_id
 _symmetry_equiv_pos_as_xyz
  1  'x, y, z'
loop_
 _atom_site_type_symbol
 _atom_site_label
 _atom_site_symmetry_multiplicity
 _atom_site_fract_x
 _atom_site_fract_y
 _atom_site_fract_z
 _atom_site_occupancy
  H  H0  1  0.96327500  0.70876300  0.10020000  1
  H  H1  1  0.33386500  0.40784100  0.37401600  1
  H  H2  1  0.72082600  0.71044200  0.65264300  1
  H  H3  1  0.58271200  0.69601200  0.86047700  1
  H  H4  1  0.66576200  0.38661300  0.19363600  1
  H  H5  1  0.11587200  0.95078500  0.58159400  1
  H  H6  1  0.89939000  0.99776300  0.30949500  1
  H  H7  1  0.50817000  0.13673800  0.29670700  1
  H  H8  1  0.80350100  0.61604800  0.24726600  1
  H  H9  1  0.63316200  0.07393100  0.90628600  1
  H  H10  1  0.61587200  0.95078500  0.91840600  1
  H  H11  1  0.60061000  0.49776300  0.30949500  1
  H  H12  1  0.22082600  0.78955800  0.34735700  1
  H  H13  1  0.68038600  0.33099700  0.85657100  1
  H  H14  1  0.30350100  0.61604800  0.25273400  1
  H  H15  1  0.81961400  0.83099700  0.85657100  1
  H  H16  1  0.46327500  0.70876300  0.39980000  1
  H  H17  1  0.99183000  0.86326200  0.79670700  1
  H  H18  1  0.38412800  0.04921500  0.08159400  1
  H  H19  1  0.53672500  0.29123700  0.60020000  1
  H  H20  1  0.86683800  0.57393100  0.90628600  1
  H  H21  1  0.77917400  0.28955800  0.15264300  1
  H  H22  1  0.83386500  0.40784100  0.12598400  1
  H  H23  1  0.08271200  0.80398800  0.13952300  1
  H  H24  1  0.88412800  0.45078500  0.91840600  1
  H  H25  1  0.63316200  0.42606900  0.40628600  1
  H  H26  1  0.86683800  0.92606900  0.40628600  1
  H  H27  1  0.22082600  0.71044200  0.84735700  1
  H  H28  1  0.91728800  0.30398800  0.36047700  1
  H  H29  1  0.16613500  0.90784100  0.37401600  1
  H  H30  1  0.13316200  0.42606900  0.09371400  1
  H  H31  1  0.38948800  0.24101300  0.52893700  1
  H  H32  1  0.80350100  0.88395200  0.74726600  1
  H  H33  1  0.91728800  0.19601200  0.86047700  1
  H  H34  1  0.38412800  0.45078500  0.58159400  1
  H  H35  1  0.10061000  0.49776300  0.19050500  1
  H  H36  1  0.66613500  0.59215900  0.62598400  1
  H  H37  1  0.72082600  0.78955800  0.15264300  1
  H  H38  1  0.46327500  0.79123700  0.89980000  1
  H  H39  1  0.41728800  0.19601200  0.63952300  1
  H  H40  1  0.36683800  0.57393100  0.59371400  1
  H  H41  1  0.99183000  0.63673800  0.29670700  1
  H  H42  1  0.30350100  0.88395200  0.75273400  1
  H  H43  1  0.31961400  0.83099700  0.64342900  1
  H  H44  1  0.49183000  0.63673800  0.20329300  1
  H  H45  1  0.89939000  0.50223700  0.80949500  1
  H  H46  1  0.41728800  0.30398800  0.13952300  1
  H  H47  1  0.27917400  0.28955800  0.34735700  1
  H  H48  1  0.33423800  0.61338700  0.80636400  1
  H  H49  1  0.00817000  0.36326200  0.70329300  1
  H  H50  1  0.38948800  0.25898700  0.02893700  1
  H  H51  1  0.33386500  0.09215900  0.87401600  1
  H  H52  1  0.60061000  0.00223700  0.80949500  1
  H  H53  1  0.39939000  0.99776300  0.19050500  1
  H  H54  1  0.88412800  0.04921500  0.41840600  1
  H  H55  1  0.77917400  0.21044200  0.65264300  1
  H  H56  1  0.16613500  0.59215900  0.87401600  1
  H  H57  1  0.49183000  0.86326200  0.70329300  1
  H  H58  1  0.39939000  0.50223700  0.69050500  1
  H  H59  1  0.66576200  0.11338700  0.69363600  1
  H  H60  1  0.19649900  0.11604800  0.25273400  1
  H  H61  1  0.61051200  0.74101300  0.97106300  1
  H  H62  1  0.68038600  0.16900300  0.35657100  1
  H  H63  1  0.81961400  0.66900300  0.35657100  1
  H  H64  1  0.08271200  0.69601200  0.63952300  1
  H  H65  1  0.66613500  0.90784100  0.12598400  1
  H  H66  1  0.33423800  0.88661300  0.30636400  1
  H  H67  1  0.88948800  0.24101300  0.97106300  1
  H  H68  1  0.96327500  0.79123700  0.60020000  1
  H  H69  1  0.03672500  0.29123700  0.89980000  1
  H  H70  1  0.36683800  0.92606900  0.09371400  1
  H  H71  1  0.11051200  0.74101300  0.52893700  1
  H  H72  1  0.00817000  0.13673800  0.20329300  1
  H  H73  1  0.16576200  0.38661300  0.30636400  1
  H  H74  1  0.53672500  0.20876300  0.10020000  1
  H  H75  1  0.83423800  0.88661300  0.19363600  1
  H  H76  1  0.16576200  0.11338700  0.80636400  1
  H  H77  1  0.19649900  0.38395200  0.75273400  1
  H  H78  1  0.27917400  0.21044200  0.84735700  1
  H  H79  1  0.61587200  0.54921500  0.41840600  1
  H  H80  1  0.11051200  0.75898700  0.02893700  1
  H  H81  1  0.50817000  0.36326200  0.79670700  1
  H  H82  1  0.61051200  0.75898700  0.47106300  1
  H  H83  1  0.69649900  0.11604800  0.24726600  1
  H  H84  1  0.58271200  0.80398800  0.36047700  1
  H  H85  1  0.83423800  0.61338700  0.69363600  1
  H  H86  1  0.03672500  0.20876300  0.39980000  1
  H  H87  1  0.18038600  0.16900300  0.14342900  1
  H  H88  1  0.83386500  0.09215900  0.62598400  1
  H  H89  1  0.11587200  0.54921500  0.08159400  1
  H  H90  1  0.18038600  0.33099700  0.64342900  1
  H  H91  1  0.88948800  0.25898700  0.47106300  1
  H  H92  1  0.69649900  0.38395200  0.74726600  1
  H  H93  1  0.10061000  0.00223700  0.69050500  1
  H  H94  1  0.31961400  0.66900300  0.14342900  1
  H  H95  1  0.13316200  0.07393100  0.59371400  1
  Ru  Ru0  1  0.00000000  0.50000000  0.50000000  1
  Ru  Ru1  1  0.50000000  0.50000000  0.00000000  1
  Ru  Ru2  1  0.00000000  0.00000000  0.00000000  1
  Ru  Ru3  1  0.50000000  0.00000000  0.50000000  1
  C  C0  1  0.76341300  0.63980000  0.63820900  1
  C  C1  1  0.73658700  0.36020000  0.13820900  1
  C  C2  1  0.02452200  0.77289200  0.08162900  1
  C  C3  1  0.62985400  0.38156500  0.80992800  1
  C  C4  1  0.65797100  0.49340500  0.37484700  1
  C  C5  1  0.97547800  0.22710800  0.91837100  1
  C  C6  1  0.87014600  0.88156500  0.80992800  1
  C  C7  1  0.73658700  0.13980000  0.63820900  1
  C  C8  1  0.52452200  0.72710800  0.91837100  1
  C  C9  1  0.52452200  0.77289200  0.41837100  1
  C  C10  1  0.23658700  0.13980000  0.86179100  1
  C  C11  1  0.47547800  0.27289200  0.08162900  1
  C  C12  1  0.84202900  0.99340500  0.37484700  1
  C  C13  1  0.37014600  0.61843500  0.19007200  1
  C  C14  1  0.37014600  0.88156500  0.69007200  1
  C  C15  1  0.12985400  0.11843500  0.19007200  1
  C  C16  1  0.23658700  0.36020000  0.36179100  1
  C  C17  1  0.15797100  0.00659500  0.62515300  1
  C  C18  1  0.26341300  0.63980000  0.86179100  1
  C  C19  1  0.47547800  0.22710800  0.58162900  1
  C  C20  1  0.62985400  0.11843500  0.30992800  1
  C  C21  1  0.02452200  0.72710800  0.58162900  1
  C  C22  1  0.26341300  0.86020000  0.36179100  1
  C  C23  1  0.34202900  0.50659500  0.62515300  1
  C  C24  1  0.97547800  0.27289200  0.41837100  1
  C  C25  1  0.65797100  0.00659500  0.87484700  1
  C  C26  1  0.76341300  0.86020000  0.13820900  1
  C  C27  1  0.84202900  0.50659500  0.87484700  1
  C  C28  1  0.15797100  0.49340500  0.12515300  1
  C  C29  1  0.12985400  0.38156500  0.69007200  1
  C  C30  1  0.87014600  0.61843500  0.30992800  1
  C  C31  1  0.34202900  0.99340500  0.12515300  1
  S  S0  1  0.86748500  0.50326700  0.36042600  1
  S  S1  1  0.13251500  0.00326700  0.13957400  1
  S  S2  1  0.36748500  0.99673300  0.63957400  1
  S  S3  1  0.13251500  0.49673300  0.63957400  1
  S  S4  1  0.11752300  0.35476900  0.46141000  1
  S  S5  1  0.36748500  0.50326700  0.13957400  1
  S  S6  1  0.38247700  0.85476900  0.46141000  1
  S  S7  1  0.11752300  0.14523100  0.96141000  1
  S  S8  1  0.38247700  0.64523100  0.96141000  1
  S  S9  1  0.63251500  0.49673300  0.86042600  1
  S  S10  1  0.61752300  0.35476900  0.03859000  1
  S  S11  1  0.88247700  0.64523100  0.53859000  1
  S  S12  1  0.86748500  0.99673300  0.86042600  1
  S  S13  1  0.63251500  0.00326700  0.36042600  1
  S  S14  1  0.61752300  0.14523100  0.53859000  1
  S  S15  1  0.88247700  0.85476900  0.03859000  1
  Cl  Cl0  1  0.28800900  0.08550300  0.42706400  1
  Cl  Cl1  1  0.28800900  0.41449700  0.92706400  1
  Cl  Cl2  1  0.21199100  0.58550300  0.42706400  1
  Cl  Cl3  1  0.21199100  0.91449700  0.92706400  1
  Cl  Cl4  1  0.78800900  0.41449700  0.57293600  1
  Cl  Cl5  1  0.71199100  0.91449700  0.57293600  1
  Cl  Cl6  1  0.78800900  0.08550300  0.07293600  1
  Cl  Cl7  1  0.71199100  0.58550300  0.07293600  1
loop_
_geom_bond_atom_site_label_1
_geom_bond_atom_site_label_2
_geom_bond_distance
_geom_bond_site_symmetry_2
Ru0 S4 2.383380 1_555
Ru0 S11 2.383380 1_455
Ru0 S3 2.384575 1_555
Ru0 S0 2.384575 1_455
Ru1 S10 2.383380 1_555
Ru1 S8 2.383380 1_554
Ru1 S5 2.384575 1_555
Ru1 S9 2.384575 1_554
Ru2 S7 2.383380 1_554
Ru2 S15 2.383380 1_445
Ru2 S1 2.384575 1_555
Ru2 S12 2.384575 1_444
Ru3 S14 2.383380 1_555
Ru3 S6 2.383380 1_545
Ru3 S2 2.384575 1_545
Ru3 S13 2.384575 1_555
C0 H36 1.092951 1_555
C0 H85 1.097539 1_555
C0 H2 1.097601 1_555
C0 S11 1.812643 1_555
C1 H22 1.092951 1_555
C1 H4 1.097539 1_555
C1 H21 1.097601 1_555
C1 S10 1.812643 1_555
C2 H0 1.094342 1_455
C2 H23 1.096930 1_555
C2 H80 1.099529 1_555
C2 S15 1.809905 1_455
C3 H81 1.093365 1_555
C3 H13 1.096939 1_555
C3 H92 1.101394 1_555
C3 S9 1.816298 1_555
C4 H79 1.094372 1_555
C4 H25 1.095020 1_555
C4 H11 1.099520 1_555
C4 S0 1.813850 1_555
C5 H69 1.094342 1_655
C5 H33 1.096930 1_555
C5 H67 1.099529 1_555
C5 S7 1.809905 1_655
C6 H17 1.093365 1_555
C6 H15 1.096939 1_555
C6 H32 1.101394 1_555
C6 S12 1.816298 1_555
C7 H88 1.092951 1_555
C7 H59 1.097539 1_555
C7 H55 1.097601 1_555
C7 S14 1.812643 1_555
C8 H38 1.094342 1_555
C8 H3 1.096930 1_555
C8 H61 1.099529 1_555
C8 S8 1.809905 1_555
C9 H16 1.094342 1_555
C9 H84 1.096930 1_555
C9 H82 1.099529 1_555
C9 S6 1.809905 1_555
C10 H51 1.092951 1_555
C10 H76 1.097539 1_555
C10 H78 1.097601 1_555
C10 S7 1.812643 1_555
C11 H74 1.094342 1_555
C11 H46 1.096930 1_555
C11 H50 1.099529 1_555
C11 S10 1.809905 1_555
C12 H54 1.094372 1_565
C12 H26 1.095020 1_555
C12 H6 1.099520 1_555
C12 S13 1.813850 1_565
C13 H44 1.093365 1_555
C13 H94 1.096939 1_555
C13 H14 1.101394 1_555
C13 S5 1.816298 1_555
C14 H57 1.093365 1_555
C14 H43 1.096939 1_555
C14 H42 1.101394 1_555
C14 S2 1.816298 1_555
C15 H72 1.093365 1_555
C15 H87 1.096939 1_555
C15 H60 1.101394 1_555
C15 S1 1.816298 1_555
C16 H1 1.092951 1_555
C16 H73 1.097539 1_555
C16 H47 1.097601 1_555
C16 S4 1.812643 1_555
C17 H5 1.094372 1_545
C17 H95 1.095020 1_555
C17 H93 1.099520 1_555
C17 S2 1.813850 1_545
C18 H56 1.092951 1_555
C18 H48 1.097539 1_555
C18 H27 1.097601 1_555
C18 S8 1.812643 1_555
C19 H19 1.094342 1_555
C19 H39 1.096930 1_555
C19 H31 1.099529 1_555
C19 S14 1.809905 1_555
C20 H7 1.093365 1_555
C20 H62 1.096939 1_555
C20 H83 1.101394 1_555
C20 S13 1.816298 1_555
C21 H68 1.094342 1_455
C21 H64 1.096930 1_555
C21 H71 1.099529 1_555
C21 S11 1.809905 1_455
C22 H29 1.092951 1_555
C22 H66 1.097539 1_555
C22 H12 1.097601 1_555
C22 S6 1.812643 1_555
C23 H34 1.094372 1_555
C23 H40 1.095020 1_555
C23 H58 1.099520 1_555
C23 S3 1.813850 1_555
C24 H86 1.094342 1_655
C24 H28 1.096930 1_555
C24 H91 1.099529 1_555
C24 S4 1.809905 1_655
C25 H10 1.094372 1_545
C25 H9 1.095020 1_555
C25 H52 1.099520 1_555
C25 S12 1.813850 1_545
C26 H65 1.092951 1_555
C26 H75 1.097539 1_555
C26 H37 1.097601 1_555
C26 S15 1.812643 1_555
C27 H24 1.094372 1_555
C27 H20 1.095020 1_555
C27 H45 1.099520 1_555
C27 S9 1.813850 1_555
C28 H89 1.094372 1_555
C28 H30 1.095020 1_555
C28 H35 1.099520 1_555
C28 S5 1.813850 1_555
C29 H49 1.093365 1_555
C29 H90 1.096939 1_555
C29 H77 1.101394 1_555
C29 S3 1.816298 1_555
C30 H41 1.093365 1_555
C30 H63 1.096939 1_555
C30 H8 1.101394 1_555
C30 S0 1.816298 1_555
C31 H18 1.094372 1_565
C31 H70 1.095020 1_555
C31 H53 1.099520 1_555
C31 S1 1.813850 1_565
Cl0 Ru3 2.449662 1_555
Cl1 Ru1 2.449662 1_556
Cl2 Ru0 2.449662 1_555
Cl3 Ru2 2.449662 1_566
Cl4 Ru0 2.449662 1_655
Cl5 Ru3 2.449662 1_565
Cl6 Ru2 2.449662 1_655
Cl7 Ru1 2.449662 1_555
