# generated using pymatgen
data_SrTeO3
_symmetry_space_group_name_H-M   'P 1'
_cell_length_a   5.95548900
_cell_length_b   9.20074511
_cell_length_c   12.31902841
_cell_angle_alpha   110.46617778
_cell_angle_beta   90.04590536
_cell_angle_gamma   90.82730035
_symmetry_Int_Tables_number   1
_chemical_formula_structural   SrTeO3
_chemical_formula_sum   'Sr6 Te6 O18'
_cell_volume   632.33399847
_cell_formula_units_Z   6
loop_
 _symmetry_equiv_pos_site_id
 _symmetry_equiv_pos_as_xyz
  1  'x, y, z'
loop_
 _atom_site_type_symbol
 _atom_site_label
 _atom_site_symmetry_multiplicity
 _atom_site_fract_x
 _atom_site_fract_y
 _atom_site_fract_z
 _atom_site_occupancy
  Sr  Sr0  1  0.04616900  0.55113200  0.11025200  1
  Sr  Sr1  1  0.54476100  0.20956600  0.54726100  1
  Sr  Sr2  1  0.52674300  0.23348200  0.03152900  1
  Sr  Sr3  1  0.49800700  0.91890100  0.21225000  1
  Sr  Sr4  1  0.00277600  0.25914200  0.28601900  1
  Sr  Sr5  1  0.98717600  0.22708200  0.78816100  1
  Te  Te0  1  0.99739900  0.52473900  0.62258100  1
  Te  Te1  1  0.49637400  0.54453200  0.90722200  1
  Te  Te2  1  0.52211100  0.53535600  0.32645200  1
  Te  Te3  1  0.00543300  0.99290700  0.00770100  1
  Te  Te4  1  0.46645800  0.94493200  0.68298800  1
  Te  Te5  1  0.02027400  0.94910600  0.39333600  1
  O  O0  1  0.50885000  0.73560400  0.32236100  1
  O  O1  1  0.71811700  0.05127300  0.65093000  1
  O  O2  1  0.77938400  0.07696600  0.38178000  1
  O  O3  1  0.45134600  0.02915300  0.84477400  1
  O  O4  1  0.26806200  0.08218900  0.64401200  1
  O  O5  1  0.77038000  0.05076800  0.11872000  1
  O  O6  1  0.24877600  0.09320800  0.38309300  1
  O  O7  1  0.24706700  0.07487300  0.11255400  1
  O  O8  1  0.75218500  0.43939300  0.21864300  1
  O  O9  1  0.74575600  0.45923700  0.95767200  1
  O  O10  1  0.39869500  0.69457100  0.04561200  1
  O  O11  1  0.02192000  0.82203200  0.23597900  1
  O  O12  1  0.87503300  0.45212100  0.47009700  1
  O  O13  1  0.95698500  0.16934900  0.96712800  1
  O  O14  1  0.81770500  0.39437300  0.68168600  1
  O  O15  1  0.28627200  0.42935300  0.22077900  1
  O  O16  1  0.28675300  0.39366100  0.91873200  1
  O  O17  1  0.88723300  0.72089700  0.69409600  1
loop_
_geom_bond_atom_site_label_1
_geom_bond_atom_site_label_2
_geom_bond_distance
_geom_bond_site_symmetry_2
O0 Te2 1.863453 1_555
O0 Sr3 2.508206 1_555
O1 Te4 1.894291 1_545
O1 Sr5 2.459799 1_555
O1 Sr1 2.481941 1_555
O2 Te5 1.904692 1_645
O2 Sr1 2.431291 1_555
O2 Sr3 2.661723 1_545
O2 Sr4 2.700374 1_655
O3 Te4 1.871653 1_545
O3 Sr2 2.445044 1_556
O4 Te4 1.920322 1_545
O4 Sr5 2.478420 1_455
O4 Sr1 2.536488 1_555
O5 Te3 1.904966 1_645
O5 Sr3 2.520834 1_545
O5 Sr4 2.644692 1_655
O5 Sr2 2.723203 1_555
O6 Te5 1.921157 1_545
O6 Sr1 2.601757 1_555
O6 Sr3 2.630200 1_545
O6 Sr4 2.691811 1_555
O7 Te3 1.895396 1_545
O7 Sr2 2.617493 1_555
O7 Sr3 2.663215 1_545
O7 Sr4 2.664610 1_555
O8 Te2 1.907539 1_555
O8 Sr4 2.588181 1_655
O8 Sr0 2.610943 1_655
O8 Sr2 2.751888 1_555
O9 Te1 1.892401 1_555
O9 Sr0 2.507663 1_656
O9 Sr5 2.822162 1_555
O9 Sr2 2.844074 1_556
O10 Te1 1.878704 1_554
O10 Sr3 2.413255 1_555
O10 Sr0 2.727849 1_555
O11 Te5 1.881547 1_555
O11 Sr0 2.437893 1_555
O12 Te0 1.900564 1_555
O12 Sr4 2.469768 1_655
O13 Te3 1.883935 1_646
O13 Sr5 2.447862 1_555
O13 Sr2 2.694909 1_556
O14 Te0 1.920688 1_555
O14 Sr1 2.494513 1_555
O14 Sr5 2.561808 1_555
O15 Te2 1.920479 1_555
O15 Sr0 2.502809 1_555
O15 Sr4 2.599046 1_555
O15 Sr2 2.806384 1_555
O16 Te1 1.895619 1_555
O16 Sr5 2.512344 1_455
O16 Sr0 2.719090 1_556
O16 Sr2 2.763214 1_556
O17 Te0 1.840412 1_555
