# generated using pymatgen
data_Cu9S16
_symmetry_space_group_name_H-M   'P 1'
_cell_length_a   3.61751680
_cell_length_b   3.61751676
_cell_length_c   57.16522482
_cell_angle_alpha   59.58535890
_cell_angle_beta   59.58535925
_cell_angle_gamma   59.99999623
_symmetry_Int_Tables_number   1
_chemical_formula_structural   Cu9S16
_chemical_formula_sum   'Cu9 S16'
_cell_volume   525.63895002
_cell_formula_units_Z   1
loop_
 _symmetry_equiv_pos_site_id
 _symmetry_equiv_pos_as_xyz
  1  'x, y, z'
loop_
 _atom_site_type_symbol
 _atom_site_label
 _atom_site_symmetry_multiplicity
 _atom_site_fract_x
 _atom_site_fract_y
 _atom_site_fract_z
 _atom_site_occupancy
  Cu  Cu0  1  0.49942567  0.49942567  0.09385769  1
  Cu  Cu1  1  0.24761722  0.24761722  0.51607177  1
  Cu  Cu2  1  0.75675810  0.75675810  0.60810786  1
  Cu  Cu3  1  0.74865881  0.74865881  0.67212647  1
  Cu  Cu4  1  0.74839395  0.74839395  0.73467613  1
  Cu  Cu5  1  0.74839210  0.74839210  0.79717648  1
  Cu  Cu6  1  0.74864335  0.74864335  0.85962937  1
  Cu  Cu7  1  0.74878724  0.74878724  0.92210239  1
  Cu  Cu8  1  0.74331745  0.74331745  0.98562798  1
  S  S0  1  0.99594143  0.99594143  0.00076098  1
  S  S1  1  0.97034107  0.97034107  0.06806105  1
  S  S2  1  0.02603318  0.02603318  0.12011878  1
  S  S3  1  0.99324930  0.99324930  0.18876576  1
  S  S4  1  0.99908274  0.99908274  0.25017199  1
  S  S5  1  0.99845336  0.99845336  0.37528999  1
  S  S6  1  0.00909260  0.00909260  0.43579514  1
  S  S7  1  0.00178524  0.00178524  0.31216527  1
  S  S8  1  0.00429920  0.00429920  0.49919390  1
  S  S9  1  0.00218724  0.00218724  0.56208989  1
  S  S10  1  0.00202095  0.00202095  0.68712107  1
  S  S11  1  0.00155389  0.00155389  0.74970865  1
  S  S12  1  0.00370571  0.00370571  0.62430518  1
  S  S13  1  0.00198342  0.00198342  0.81212811  1
  S  S14  1  0.00105266  0.00105266  0.87480263  1
  S  S15  1  0.99922411  0.99922411  0.93764548  1
loop_
_geom_bond_atom_site_label_1
_geom_bond_atom_site_label_2
_geom_bond_distance
_geom_bond_site_symmetry_2
Cu0 S1 2.407003 1_545
Cu0 S1 2.407003 1_455
Cu0 S1 2.407003 1_555
Cu0 S2 2.417783 1_565
Cu0 S2 2.417783 1_655
Cu0 S2 2.417783 1_555
Cu1 S9 2.134345 1_555
Cu1 S8 2.230454 1_555
Cu1 S8 2.230454 1_565
Cu1 S8 2.230454 1_655
Cu2 S9 2.134338 1_665
Cu2 S12 2.219573 1_665
Cu2 S12 2.219573 1_655
Cu2 S12 2.219573 1_565
Cu3 S10 2.201319 1_655
Cu3 S10 2.201319 1_565
Cu3 S10 2.201319 1_665
Cu3 S12 2.217977 1_665
Cu4 S11 2.201875 1_655
Cu4 S11 2.201875 1_565
Cu4 S11 2.201875 1_665
Cu4 S10 2.205629 1_665
Cu5 S13 2.200690 1_655
Cu5 S13 2.200690 1_565
Cu5 S13 2.200690 1_665
Cu5 S11 2.201584 1_665
Cu6 S13 2.203134 1_665
Cu6 S14 2.203950 1_655
Cu6 S14 2.203950 1_565
Cu6 S14 2.203951 1_665
Cu7 S14 2.193788 1_665
Cu7 S15 2.209487 1_545
Cu7 S15 2.209487 1_455
Cu7 S15 2.209488 1_555
Cu8 S0 2.203355 1_556
Cu8 S0 2.203355 1_546
Cu8 S0 2.203355 1_456
Cu8 S15 2.225454 1_555
