# generated using pymatgen
data_La11(Ni2Ge3)2
_symmetry_space_group_name_H-M   'P 1'
_cell_length_a   4.38962196
_cell_length_b   9.52886129
_cell_length_c   14.13794805
_cell_angle_alpha   105.49517873
_cell_angle_beta   90.00723492
_cell_angle_gamma   103.31011340
_symmetry_Int_Tables_number   1
_chemical_formula_structural   La11(Ni2Ge3)2
_chemical_formula_sum   'La11 Ni4 Ge6'
_cell_volume   553.36251523
_cell_formula_units_Z   1
loop_
 _symmetry_equiv_pos_site_id
 _symmetry_equiv_pos_as_xyz
  1  'x, y, z'
loop_
 _atom_site_type_symbol
 _atom_site_label
 _atom_site_symmetry_multiplicity
 _atom_site_fract_x
 _atom_site_fract_y
 _atom_site_fract_z
 _atom_site_occupancy
  La  La0  1  0.90501732  0.81032937  0.21613692  1
  La  La1  1  0.85566176  0.71056680  0.64913273  1
  La  La2  1  0.21349214  0.42631806  0.10003944  1
  La  La3  1  0.54636658  0.09216742  0.12321677  1
  La  La4  1  0.33688902  0.67429001  0.40924540  1
  La  La5  1  0.45396588  0.90754238  0.87809067  1
  La  La6  1  -0.00000383  0.99978489  0.50050001  1
  La  La7  1  0.14458788  0.28933915  0.35201108  1
  La  La8  1  0.78655991  0.57308049  0.90108180  1
  La  La9  1  0.66342030  0.32572236  0.59157044  1
  La  La10  1  0.09483569  0.18917498  0.78491129  1
  Ni  Ni0  1  0.75278753  0.50828677  0.45099598  1
  Ni  Ni1  1  0.93808622  0.88004260  0.02558240  1
  Ni  Ni2  1  0.06232211  0.11883504  0.97569923  1
  Ni  Ni3  1  0.24808463  0.49259772  0.54999264  1
  Ge  Ge0  1  0.62940692  0.25736637  0.95126506  1
  Ge  Ge1  1  0.26062371  0.52119489  0.73422057  1
  Ge  Ge2  1  0.73946007  0.47832063  0.26681926  1
  Ge  Ge3  1  0.37079214  0.74213345  0.04994533  1
  Ge  Ge4  1  0.51410463  0.02791547  0.34909397  1
  Ge  Ge5  1  0.48613337  0.97204013  0.65197301  1
loop_
_geom_bond_atom_site_label_1
_geom_bond_atom_site_label_2
_geom_bond_distance
_geom_bond_site_symmetry_2
La0 Ni1 2.938056 1_555
La1 Ni0 2.912058 1_555
La1 Ni3 3.047056 1_555
La1 Ni3 3.055864 1_655
La2 Ni2 2.909934 1_554
La3 Ni1 3.009630 1_545
La3 Ni1 3.023871 1_445
La3 Ni2 3.075646 1_554
La3 Ni2 3.092442 1_654
La4 Ni0 2.830517 1_555
La4 Ni0 2.838382 1_455
La4 Ni3 2.939262 1_555
La5 Ni2 3.003894 1_565
La5 Ni2 3.021300 1_665
La5 Ni1 3.078988 1_556
La5 Ni1 3.092703 1_456
La7 Ni3 2.913802 1_555
La7 Ni0 3.051752 1_555
La7 Ni0 3.059707 1_455
La8 Ni1 2.906757 1_556
La9 Ni3 2.834081 1_555
La9 Ni3 2.842797 1_655
La9 Ni0 2.943368 1_555
La10 Ni2 2.944039 1_555
Ni0 Ni3 2.617170 1_555
Ni0 Ni3 2.639877 1_655
Ni1 Ni2 2.501695 1_664
Ge0 Ni2 2.605624 1_555
Ge0 Ni2 2.621382 1_655
Ge0 La5 3.122537 1_545
Ge0 La2 3.142989 1_656
Ge0 La2 3.145503 1_556
Ge0 La10 3.150184 1_655
Ge0 La10 3.152778 1_555
Ge0 La8 3.196046 1_555
Ge0 La3 3.209608 1_556
Ge1 Ni3 2.544618 1_555
Ge1 La8 3.160610 1_555
Ge1 La8 3.160988 1_455
Ge1 La9 3.186261 1_455
Ge1 La9 3.189546 1_555
Ge1 La1 3.240311 1_455
Ge1 La1 3.242882 1_555
Ge1 La10 3.347260 1_555
Ge1 La5 3.601464 1_555
Ge2 Ni0 2.541682 1_555
Ge2 La2 3.159661 1_555
Ge2 La2 3.160202 1_655
Ge2 La4 3.186509 1_655
Ge2 La4 3.189931 1_555
Ge2 La7 3.238659 1_655
Ge2 La7 3.241406 1_555
Ge2 La0 3.347104 1_555
Ge2 La3 3.598848 1_555
Ge3 Ni1 2.604223 1_555
Ge3 Ni1 2.616161 1_455
Ge3 La3 3.124446 1_565
Ge3 La8 3.144251 1_454
Ge3 La8 3.146174 1_554
Ge3 La0 3.149663 1_455
Ge3 La0 3.150129 1_555
Ge3 La2 3.196367 1_555
Ge3 La5 3.209724 1_554
Ge4 La6 3.125980 1_645
Ge4 La6 3.126667 1_545
Ge4 La0 3.214539 1_545
Ge4 La0 3.216294 1_445
Ge4 La7 3.261490 1_655
Ge4 La7 3.262474 1_555
Ge4 La3 3.405559 1_555
Ge4 La4 3.606554 1_545
Ge4 La9 3.765581 1_555
Ge5 La6 3.125843 1_555
Ge5 La6 3.126205 1_655
Ge5 La10 3.212955 1_565
Ge5 La10 3.213755 1_665
Ge5 La1 3.261931 1_455
Ge5 La1 3.263130 1_555
Ge5 La5 3.409896 1_555
Ge5 La9 3.608792 1_565
Ge5 La4 3.767845 1_555
