# generated using pymatgen
data_Yb(NdS2)2
_symmetry_space_group_name_H-M   'P 1'
_cell_length_a   7.33150748
_cell_length_b   7.33150748
_cell_length_c   7.33150748
_cell_angle_alpha   110.51391057
_cell_angle_beta   110.51391057
_cell_angle_gamma   107.40538269
_symmetry_Int_Tables_number   1
_chemical_formula_structural   Yb(NdS2)2
_chemical_formula_sum   'Yb2 Nd4 S8'
_cell_volume   303.06529508
_cell_formula_units_Z   2
loop_
 _symmetry_equiv_pos_site_id
 _symmetry_equiv_pos_as_xyz
  1  'x, y, z'
loop_
 _atom_site_type_symbol
 _atom_site_label
 _atom_site_symmetry_multiplicity
 _atom_site_fract_x
 _atom_site_fract_y
 _atom_site_fract_z
 _atom_site_occupancy
  Yb  Yb0  1  0.75000000  0.25000000  0.50000000  1
  Yb  Yb1  1  0.00000000  0.00000000  0.00000000  1
  Nd  Nd0  1  0.87500000  0.51464470  0.13964470  1
  Nd  Nd1  1  0.26464470  0.12500000  0.63964470  1
  Nd  Nd2  1  0.37500000  0.73535530  0.86035530  1
  Nd  Nd3  1  0.48535530  0.62500000  0.36035530  1
  S  S0  1  0.77321629  0.89048919  0.25967666  1
  S  S1  1  0.11918748  0.35951081  0.38272710  1
  S  S2  1  0.97678371  0.73646038  0.61727290  1
  S  S3  1  0.26353962  0.88081252  0.24032334  1
  S  S4  1  0.10951081  0.36918748  0.88272710  1
  S  S5  1  0.64048919  0.02321629  0.75967666  1
  S  S6  1  0.48646038  0.22678371  0.11727290  1
  S  S7  1  0.63081252  0.51353962  0.74032334  1
loop_
_geom_bond_atom_site_label_1
_geom_bond_atom_site_label_2
_geom_bond_distance
_geom_bond_site_symmetry_2
Nd0 S1 2.842076 1_655
Nd0 S7 2.842076 1_554
Nd0 S6 2.903212 1_555
Nd0 S3 2.903212 1_655
Nd0 S2 2.985798 1_555
Nd0 S0 2.985798 1_555
Nd0 S4 3.098399 1_654
Nd0 S5 3.098399 1_554
Nd1 S4 2.842076 1_555
Nd1 S3 2.842076 1_545
Nd1 S2 2.903212 1_445
Nd1 S7 2.903212 1_555
Nd1 S6 2.985798 1_556
Nd1 S5 2.985798 1_555
Nd1 S1 3.098399 1_555
Nd1 S0 3.098399 1_445
Nd2 S2 2.842076 1_455
Nd2 S0 2.842076 1_556
Nd2 S5 2.903212 1_565
Nd2 S4 2.903212 1_555
Nd2 S1 2.985798 1_555
Nd2 S7 2.985798 1_555
Nd2 S3 3.098399 1_556
Nd2 S6 3.098399 1_566
Nd3 S6 2.842076 1_555
Nd3 S5 2.842076 1_565
Nd3 S0 2.903212 1_555
Nd3 S1 2.903212 1_555
Nd3 S4 2.985798 1_554
Nd3 S3 2.985798 1_555
Nd3 S7 3.098399 1_555
Nd3 S2 3.098399 1_555
S0 Yb0 2.702651 1_565
S0 Yb1 3.086233 1_665
S1 Yb1 2.702651 1_555
S1 Yb0 3.086233 1_455
S2 Yb1 2.702651 1_666
S2 Yb0 3.086233 1_555
S3 Yb1 2.702651 1_565
S3 Yb0 3.086233 1_565
S4 Yb0 2.702651 1_455
S4 Yb1 3.086233 1_556
S5 Yb1 2.702651 1_656
S5 Yb0 3.086233 1_555
S6 Yb0 2.702651 1_555
S6 Yb1 3.086233 1_555
S7 Yb0 2.702651 1_555
S7 Yb1 3.086233 1_666
