# generated using pymatgen
data_Ca4Mg3H14
_symmetry_space_group_name_H-M   'P 1'
_cell_length_a   6.23951345
_cell_length_b   6.23951345
_cell_length_c   6.86027500
_cell_angle_alpha   90.00000000
_cell_angle_beta   90.00000000
_cell_angle_gamma   119.99999420
_symmetry_Int_Tables_number   1
_chemical_formula_structural   Ca4Mg3H14
_chemical_formula_sum   'Ca4 Mg3 H14'
_cell_volume   231.29893500
_cell_formula_units_Z   1
loop_
 _symmetry_equiv_pos_site_id
 _symmetry_equiv_pos_as_xyz
  1  'x, y, z'
loop_
 _atom_site_type_symbol
 _atom_site_label
 _atom_site_symmetry_multiplicity
 _atom_site_fract_x
 _atom_site_fract_y
 _atom_site_fract_z
 _atom_site_occupancy
  Ca  Ca0  1  0.00000000  0.00000000  0.73505300  1
  Ca  Ca1  1  0.00000000  0.00000000  0.26494700  1
  Ca  Ca2  1  0.66666700  0.33333300  0.50000000  1
  Ca  Ca3  1  0.33333300  0.66666700  0.50000000  1
  Mg  Mg0  1  0.44633200  0.44633200  0.00000000  1
  Mg  Mg1  1  0.55366800  0.00000000  0.00000000  1
  Mg  Mg2  1  0.00000000  0.55366800  0.00000000  1
  H  H0  1  0.38872200  0.38872200  0.72365800  1
  H  H1  1  0.61127800  0.00000000  0.72365800  1
  H  H2  1  0.00000000  0.61127800  0.72365800  1
  H  H3  1  0.38872200  0.38872200  0.27634200  1
  H  H4  1  0.61127800  0.00000000  0.27634200  1
  H  H5  1  0.00000000  0.61127800  0.27634200  1
  H  H6  1  0.73723700  0.73723700  0.50000000  1
  H  H7  1  0.26276300  0.00000000  0.50000000  1
  H  H8  1  0.00000000  0.26276300  0.50000000  1
  H  H9  1  0.77065900  0.77065900  0.00000000  1
  H  H10  1  0.22934100  0.00000000  0.00000000  1
  H  H11  1  0.00000000  0.22934100  0.00000000  1
  H  H12  1  0.66666700  0.33333300  0.00000000  1
  H  H13  1  0.33333300  0.66666700  0.00000000  1
loop_
_geom_bond_atom_site_label_1
_geom_bond_atom_site_label_2
_geom_bond_distance
_geom_bond_site_symmetry_2
Ca0 H8 2.299620 1_555
Ca0 H7 2.299620 1_555
Ca0 H6 2.299620 1_445
Ca0 H10 2.313309 1_556
Ca0 H11 2.313309 1_556
Ca0 H9 2.313309 1_446
Ca0 H2 2.426696 1_545
Ca0 H1 2.426696 1_455
Ca0 H0 2.426696 1_555
Ca1 H7 2.299620 1_555
Ca1 H8 2.299620 1_555
Ca1 H6 2.299620 1_445
Ca1 H11 2.313309 1_555
Ca1 H10 2.313309 1_555
Ca1 H9 2.313309 1_445
Ca1 H5 2.426696 1_545
Ca1 H4 2.426696 1_455
Ca1 H3 2.426696 1_555
Ca2 H8 2.331394 1_655
Ca2 H7 2.331398 1_555
Ca2 H6 2.331400 1_555
Ca2 H1 2.465889 1_555
Ca2 H4 2.465889 1_555
Ca2 H5 2.465891 1_655
Ca2 H2 2.465891 1_655
Ca2 H3 2.465894 1_555
Ca2 H0 2.465894 1_555
Ca3 H7 2.331394 1_565
Ca3 H8 2.331398 1_555
Ca3 H6 2.331400 1_555
Ca3 H5 2.465889 1_555
Ca3 H2 2.465889 1_555
Ca3 H1 2.465891 1_565
Ca3 H4 2.465891 1_565
Ca3 H3 2.465894 1_555
Ca3 H0 2.465894 1_555
H0 Mg0 1.929560 1_556
H1 Mg1 1.929560 1_556
H2 Mg2 1.929560 1_556
H3 Mg0 1.929560 1_555
H4 Mg1 1.929560 1_555
H5 Mg2 1.929560 1_555
H9 Mg0 2.023643 1_555
H9 Mg1 2.412097 1_565
H9 Mg2 2.412097 1_655
H10 Mg1 2.023643 1_555
H10 Mg0 2.412097 1_555
H10 Mg2 2.412097 1_545
H11 Mg2 2.023643 1_555
H11 Mg0 2.412097 1_555
H11 Mg1 2.412097 1_455
H12 Mg1 1.832053 1_555
H12 Mg2 1.832054 1_655
H12 Mg0 1.832059 1_555
H13 Mg2 1.832053 1_555
H13 Mg1 1.832054 1_565
H13 Mg0 1.832059 1_555
