# generated using pymatgen
data_RbMgCl3
_symmetry_space_group_name_H-M   'P 1'
_cell_length_a   7.09519963
_cell_length_b   7.09519975
_cell_length_c   17.60876029
_cell_angle_alpha   89.99999958
_cell_angle_beta   89.99999952
_cell_angle_gamma   119.99928184
_symmetry_Int_Tables_number   1
_chemical_formula_structural   RbMgCl3
_chemical_formula_sum   'Rb6 Mg6 Cl18'
_cell_volume   767.70046201
_cell_formula_units_Z   6
loop_
 _symmetry_equiv_pos_site_id
 _symmetry_equiv_pos_as_xyz
  1  'x, y, z'
loop_
 _atom_site_type_symbol
 _atom_site_label
 _atom_site_symmetry_multiplicity
 _atom_site_fract_x
 _atom_site_fract_y
 _atom_site_fract_z
 _atom_site_occupancy
  Rb  Rb0  1  0.66666695  0.33333287  0.58853052  1
  Rb  Rb1  1  0.66666718  0.33333329  0.91147178  1
  Rb  Rb2  1  0.33333305  0.66666698  0.41146935  1
  Rb  Rb3  1  -0.00000021  -0.00000036  0.24999809  1
  Rb  Rb4  1  0.00000006  0.00000012  0.75000197  1
  Rb  Rb5  1  0.33333306  0.66666699  0.08852847  1
  Mg  Mg0  1  0.33333324  0.66666675  0.66031883  1
  Mg  Mg1  1  0.66666682  0.33333315  0.33968113  1
  Mg  Mg2  1  0.00000000  -0.00000005  0.49999998  1
  Mg  Mg3  1  0.33333323  0.66666672  0.83968560  1
  Mg  Mg4  1  0.66666674  0.33333314  0.16031435  1
  Mg  Mg5  1  -0.00000002  -0.00000006  0.00000000  1
  Cl  Cl0  1  0.83399837  0.16600141  0.41824027  1
  Cl  Cl1  1  0.50771575  0.01543651  0.24999636  1
  Cl  Cl2  1  0.33200382  0.16600187  0.41824037  1
  Cl  Cl3  1  0.50771296  0.49228696  0.24999636  1
  Cl  Cl4  1  0.66799659  0.83399822  0.91824184  1
  Cl  Cl5  1  0.83399854  0.16600121  0.08175824  1
  Cl  Cl6  1  0.33200330  0.16600165  0.08175819  1
  Cl  Cl7  1  0.16600211  0.33200355  0.58175967  1
  Cl  Cl8  1  0.16600135  0.83399818  0.58175968  1
  Cl  Cl9  1  0.83399828  0.66799666  0.08175822  1
  Cl  Cl10  1  0.16600176  0.33200324  0.91824178  1
  Cl  Cl11  1  0.16600127  0.83399852  0.91824177  1
  Cl  Cl12  1  0.66799621  0.83399813  0.58175963  1
  Cl  Cl13  1  0.49228409  0.98456308  0.75000355  1
  Cl  Cl14  1  0.83399809  0.66799621  0.41824030  1
  Cl  Cl15  1  0.98456332  0.49228415  0.24999636  1
  Cl  Cl16  1  0.49228728  0.50771304  0.75000368  1
  Cl  Cl17  1  0.01543681  0.50771583  0.75000364  1
loop_
_geom_bond_atom_site_label_1
_geom_bond_atom_site_label_2
_geom_bond_distance
_geom_bond_site_symmetry_2
Cl0 Mg1 2.478360 1_555
Cl0 Mg2 2.496879 1_655
Cl0 Rb2 3.549650 1_545
Cl0 Rb2 3.549652 1_655
Cl0 Rb3 3.596989 1_655
Cl0 Rb0 3.635968 1_555
Cl1 Mg4 2.511870 1_555
Cl1 Mg1 2.511900 1_555
Cl1 Rb3 3.548851 1_555
Cl1 Rb3 3.548884 1_655
Cl1 Rb5 3.560453 1_545
Cl1 Rb2 3.560525 1_545
Cl2 Mg1 2.478378 1_555
Cl2 Mg2 2.496900 1_555
Cl2 Rb2 3.549609 1_545
Cl2 Rb2 3.549616 1_555
Cl2 Rb3 3.597006 1_555
Cl2 Rb0 3.635980 1_555
Cl3 Mg4 2.511906 1_555
Cl3 Mg1 2.511936 1_555
Cl3 Rb3 3.548903 1_665
Cl3 Rb3 3.548906 1_555
Cl3 Rb5 3.560404 1_555
Cl3 Rb2 3.560476 1_555
Cl4 Mg3 2.478350 1_555
Cl4 Mg5 2.496883 1_666
Cl4 Rb1 3.549610 1_565
Cl4 Rb1 3.549613 1_555
Cl4 Rb4 3.596969 1_665
Cl4 Rb5 3.635930 1_556
Cl5 Mg4 2.478332 1_555
Cl5 Mg5 2.496863 1_655
Cl5 Rb5 3.549649 1_545
Cl5 Rb5 3.549651 1_655
Cl5 Rb3 3.596954 1_655
Cl5 Rb1 3.635914 1_554
Cl6 Mg4 2.478350 1_555
Cl6 Mg5 2.496883 1_555
Cl6 Rb5 3.549608 1_545
Cl6 Rb5 3.549615 1_555
Cl6 Rb3 3.596970 1_555
Cl6 Rb1 3.635928 1_554
Cl7 Mg0 2.478378 1_555
Cl7 Mg2 2.496900 1_555
Cl7 Rb0 3.549611 1_455
Cl7 Rb0 3.549613 1_555
Cl7 Rb4 3.597004 1_555
Cl7 Rb2 3.635983 1_555
Cl8 Mg0 2.478360 1_555
Cl8 Mg2 2.496880 1_565
Cl8 Rb0 3.549650 1_455
Cl8 Rb0 3.549652 1_565
Cl8 Rb4 3.596991 1_565
Cl8 Rb2 3.635969 1_555
Cl9 Mg4 2.478350 1_555
Cl9 Mg5 2.496883 1_665
Cl9 Rb5 3.549609 1_655
Cl9 Rb5 3.549615 1_555
Cl9 Rb3 3.596968 1_665
Cl9 Rb1 3.635927 1_554
Cl10 Mg3 2.478350 1_555
Cl10 Mg5 2.496884 1_556
Cl10 Rb1 3.549609 1_455
Cl10 Rb1 3.549615 1_555
Cl10 Rb4 3.596967 1_555
Cl10 Rb5 3.635932 1_556
Cl11 Mg3 2.478333 1_555
Cl11 Mg5 2.496863 1_566
Cl11 Rb1 3.549648 1_455
Cl11 Rb1 3.549653 1_565
Cl11 Rb4 3.596953 1_565
Cl11 Rb5 3.635918 1_556
Cl12 Mg0 2.478377 1_555
Cl12 Mg2 2.496900 1_665
Cl12 Rb0 3.549608 1_565
Cl12 Rb0 3.549617 1_555
Cl12 Rb4 3.597006 1_665
Cl12 Rb2 3.635982 1_555
Cl13 Mg3 2.511869 1_555
Cl13 Mg0 2.511898 1_555
Cl13 Rb4 3.548851 1_665
Cl13 Rb4 3.548885 1_565
Cl13 Rb1 3.560461 1_565
Cl13 Rb0 3.560527 1_565
Cl14 Mg1 2.478377 1_555
Cl14 Mg2 2.496901 1_665
Cl14 Rb2 3.549609 1_655
Cl14 Rb2 3.549615 1_555
Cl14 Rb3 3.597003 1_665
Cl14 Rb0 3.635981 1_555
Cl15 Mg4 2.511869 1_555
Cl15 Mg1 2.511900 1_555
Cl15 Rb3 3.548849 1_665
Cl15 Rb3 3.548886 1_655
Cl15 Rb5 3.560454 1_655
Cl15 Rb2 3.560526 1_655
Cl16 Mg3 2.511905 1_555
Cl16 Mg0 2.511938 1_555
Cl16 Rb4 3.548904 1_665
Cl16 Rb4 3.548905 1_555
Cl16 Rb1 3.560406 1_555
Cl16 Rb0 3.560478 1_555
Cl17 Mg3 2.511868 1_555
Cl17 Mg0 2.511900 1_555
Cl17 Rb4 3.548850 1_555
Cl17 Rb4 3.548885 1_565
Cl17 Rb1 3.560457 1_455
Cl17 Rb0 3.560528 1_455
