# generated using pymatgen
data_Zr6Al2NiH10
_symmetry_space_group_name_H-M   'P 1'
_cell_length_a   8.08079993
_cell_length_b   8.08079993
_cell_length_c   7.22311300
_cell_angle_alpha   90.00000000
_cell_angle_beta   90.00000000
_cell_angle_gamma   119.99999941
_symmetry_Int_Tables_number   1
_chemical_formula_structural   Zr6Al2NiH10
_chemical_formula_sum   'Zr12 Al4 Ni2 H20'
_cell_volume   408.47337325
_cell_formula_units_Z   2
loop_
 _symmetry_equiv_pos_site_id
 _symmetry_equiv_pos_as_xyz
  1  'x, y, z'
loop_
 _atom_site_type_symbol
 _atom_site_label
 _atom_site_symmetry_multiplicity
 _atom_site_fract_x
 _atom_site_fract_y
 _atom_site_fract_z
 _atom_site_occupancy
  Zr  Zr0  1  0.57816000  0.62479000  0.75000000  1
  Zr  Zr1  1  0.37521000  0.95337000  0.75000000  1
  Zr  Zr2  1  0.04663000  0.42184000  0.75000000  1
  Zr  Zr3  1  0.62479000  0.57816000  0.25000000  1
  Zr  Zr4  1  0.95337000  0.37521000  0.25000000  1
  Zr  Zr5  1  0.42184000  0.04663000  0.25000000  1
  Zr  Zr6  1  0.26243100  0.26243100  0.00000000  1
  Zr  Zr7  1  0.73756900  0.00000000  0.00000000  1
  Zr  Zr8  1  0.00000000  0.73756900  0.00000000  1
  Zr  Zr9  1  0.26243100  0.26243100  0.50000000  1
  Zr  Zr10  1  0.73756900  0.00000000  0.50000000  1
  Zr  Zr11  1  0.00000000  0.73756900  0.50000000  1
  Al  Al0  1  0.66666700  0.33333300  0.94872600  1
  Al  Al1  1  0.66666700  0.33333300  0.55127400  1
  Al  Al2  1  0.33333300  0.66666700  0.44872600  1
  Al  Al3  1  0.33333300  0.66666700  0.05127400  1
  Ni  Ni0  1  0.00000000  0.00000000  0.75000000  1
  Ni  Ni1  1  0.00000000  0.00000000  0.25000000  1
  H  H0  1  0.87849900  0.11772300  0.75000000  1
  H  H1  1  0.88227700  0.76077600  0.75000000  1
  H  H2  1  0.23922400  0.12150100  0.75000000  1
  H  H3  1  0.11772300  0.87849900  0.25000000  1
  H  H4  1  0.76077600  0.88227700  0.25000000  1
  H  H5  1  0.12150100  0.23922400  0.25000000  1
  H  H6  1  0.59506800  0.88572800  0.75000000  1
  H  H7  1  0.11427200  0.70934100  0.75000000  1
  H  H8  1  0.29065900  0.40493200  0.75000000  1
  H  H9  1  0.88572800  0.59506800  0.25000000  1
  H  H10  1  0.70934100  0.11427200  0.25000000  1
  H  H11  1  0.40493200  0.29065900  0.25000000  1
  H  H12  1  0.72039200  0.72039200  0.00000000  1
  H  H13  1  0.27960800  0.00000000  0.00000000  1
  H  H14  1  0.00000000  0.27960800  0.00000000  1
  H  H15  1  0.72039200  0.72039200  0.50000000  1
  H  H16  1  0.27960800  0.00000000  0.50000000  1
  H  H17  1  0.00000000  0.27960800  0.50000000  1
  H  H18  1  0.00000000  0.00000000  0.00000000  1
  H  H19  1  0.00000000  0.00000000  0.50000000  1
loop_
_geom_bond_atom_site_label_1
_geom_bond_atom_site_label_2
_geom_bond_distance
_geom_bond_site_symmetry_2
Al0 Al1 2.870841 1_555
Al0 Zr7 3.043712 1_556
Al0 Zr8 3.043717 1_656
Al0 Zr6 3.043719 1_556
Al0 Zr4 3.071416 1_556
Al0 Zr5 3.071418 1_556
Al0 Zr3 3.071422 1_556
Al0 Zr2 3.131032 1_655
Al0 Zr1 3.131035 1_545
Al0 Zr0 3.131039 1_555
Al1 Zr10 3.043712 1_555
Al1 Zr11 3.043717 1_655
Al1 Zr9 3.043719 1_555
Al1 Zr4 3.071416 1_555
Al1 Zr5 3.071418 1_555
Al1 Zr3 3.071422 1_555
Al1 Zr2 3.131032 1_655
Al1 Zr1 3.131035 1_545
Al1 Zr0 3.131039 1_555
Al2 Al3 2.870841 1_555
Al2 Zr11 3.043712 1_555
Al2 Zr10 3.043717 1_565
Al2 Zr9 3.043719 1_555
Al2 Zr1 3.071416 1_555
Al2 Zr2 3.071418 1_555
Al2 Zr0 3.071422 1_555
Al2 Zr5 3.131032 1_565
Al2 Zr4 3.131035 1_455
Al2 Zr3 3.131039 1_555
Al3 Zr8 3.043712 1_555
Al3 Zr7 3.043717 1_565
Al3 Zr6 3.043719 1_555
Al3 Zr1 3.071416 1_554
Al3 Zr2 3.071418 1_554
Al3 Zr0 3.071422 1_554
Al3 Zr5 3.131032 1_565
Al3 Zr4 3.131035 1_455
Al3 Zr3 3.131039 1_555
H0 Ni0 1.674202 1_655
H0 Zr10 2.092693 1_555
H0 Zr7 2.092693 1_556
H0 Zr2 2.132224 1_655
H1 Ni0 1.674202 1_665
H1 Zr11 2.092693 1_655
H1 Zr8 2.092693 1_656
H1 Zr0 2.132224 1_555
H2 Ni0 1.674202 1_555
H2 Zr9 2.092693 1_555
H2 Zr6 2.092693 1_556
H2 Zr1 2.132224 1_545
H3 Ni1 1.674202 1_565
H3 Zr8 2.092693 1_555
H3 Zr11 2.092693 1_555
H3 Zr5 2.132224 1_565
H4 Ni1 1.674202 1_665
H4 Zr7 2.092693 1_565
H4 Zr10 2.092693 1_565
H4 Zr3 2.132224 1_555
H5 Ni1 1.674202 1_555
H5 Zr9 2.092693 1_555
H5 Zr6 2.092693 1_555
H5 Zr4 2.132224 1_455
H6 Zr0 2.043701 1_555
H6 Zr7 2.091936 1_566
H6 Zr10 2.091936 1_565
H6 Zr1 2.103875 1_555
H7 Zr1 2.043697 1_555
H7 Zr8 2.091933 1_556
H7 Zr11 2.091933 1_555
H7 Zr2 2.103883 1_555
H8 Zr2 2.043693 1_555
H8 Zr6 2.091937 1_556
H8 Zr9 2.091937 1_555
H8 Zr0 2.103880 1_555
H9 Zr3 2.043701 1_555
H9 Zr8 2.091936 1_655
H9 Zr11 2.091936 1_655
H9 Zr4 2.103875 1_555
H10 Zr4 2.043697 1_555
H10 Zr7 2.091933 1_555
H10 Zr10 2.091933 1_555
H10 Zr5 2.103883 1_555
H11 Zr5 2.043693 1_555
H11 Zr6 2.091937 1_555
H11 Zr9 2.091937 1_555
H11 Zr3 2.103880 1_555
H12 Zr3 2.071410 1_555
H12 Zr0 2.071410 1_554
H12 Zr8 2.193351 1_655
H12 Zr7 2.193351 1_565
H13 Zr1 2.071410 1_544
H13 Zr5 2.071410 1_555
H13 Zr6 2.193351 1_555
H13 Zr8 2.193351 1_545
H14 Zr4 2.071410 1_455
H14 Zr2 2.071410 1_554
H14 Zr6 2.193351 1_555
H14 Zr7 2.193351 1_455
H15 Zr3 2.071410 1_555
H15 Zr0 2.071410 1_555
H15 Zr11 2.193351 1_655
H15 Zr10 2.193351 1_565
H16 Zr1 2.071410 1_545
H16 Zr5 2.071410 1_555
H16 Zr9 2.193351 1_555
H16 Zr11 2.193351 1_545
H17 Zr4 2.071410 1_455
H17 Zr2 2.071410 1_555
H17 Zr9 2.193351 1_555
H17 Zr10 2.193351 1_455
H18 Ni1 1.805778 1_555
H18 Ni0 1.805778 1_554
H18 Zr7 2.120652 1_455
H18 Zr8 2.120652 1_545
H18 Zr6 2.120652 1_555
H19 Ni0 1.805778 1_555
H19 Ni1 1.805778 1_555
H19 Zr11 2.120652 1_545
H19 Zr10 2.120652 1_455
H19 Zr9 2.120652 1_555
