# generated using pymatgen
data_YbCoO3
_symmetry_space_group_name_H-M   'P 1'
_cell_length_a   5.18592500
_cell_length_b   5.38854700
_cell_length_c   7.39165000
_cell_angle_alpha   90.00000000
_cell_angle_beta   90.00000000
_cell_angle_gamma   90.00000000
_symmetry_Int_Tables_number   1
_chemical_formula_structural   YbCoO3
_chemical_formula_sum   'Yb4 Co4 O12'
_cell_volume   206.55670703
_cell_formula_units_Z   4
loop_
 _symmetry_equiv_pos_site_id
 _symmetry_equiv_pos_as_xyz
  1  'x, y, z'
loop_
 _atom_site_type_symbol
 _atom_site_label
 _atom_site_symmetry_multiplicity
 _atom_site_fract_x
 _atom_site_fract_y
 _atom_site_fract_z
 _atom_site_occupancy
  Yb  Yb0  1  0.98367900  0.06107400  0.25000000  1
  Yb  Yb1  1  0.51632100  0.56107500  0.25000000  1
  Yb  Yb2  1  0.48367900  0.43892600  0.75000000  1
  Yb  Yb3  1  0.01632100  0.93892500  0.75000000  1
  Co  Co0  1  0.50000000  0.00000000  0.50000000  1
  Co  Co1  1  0.00000000  0.50000000  0.00000000  1
  Co  Co2  1  0.00000000  0.50000000  0.50000000  1
  Co  Co3  1  0.50000000  0.00000000  0.00000000  1
  O  O0  1  0.29978800  0.70325100  0.53979700  1
  O  O1  1  0.42130200  0.98743500  0.25000000  1
  O  O2  1  0.20021200  0.20325100  0.96020300  1
  O  O3  1  0.07869800  0.48743500  0.25000000  1
  O  O4  1  0.79978800  0.79674900  0.03979700  1
  O  O5  1  0.92130200  0.51256500  0.75000000  1
  O  O6  1  0.70021200  0.29674900  0.46020300  1
  O  O7  1  0.57869800  0.01256500  0.75000000  1
  O  O8  1  0.20021200  0.20325100  0.53979700  1
  O  O9  1  0.79978800  0.79674900  0.46020300  1
  O  O10  1  0.29978800  0.70325100  0.96020300  1
  O  O11  1  0.70021200  0.29674900  0.03979700  1
loop_
_geom_bond_atom_site_label_1
_geom_bond_atom_site_label_2
_geom_bond_distance
_geom_bond_site_symmetry_2
Co0 O1 1.893655 1_545
Co0 O7 1.893655 1_555
Co0 O9 1.924339 1_545
Co0 O8 1.924339 1_555
Co0 O6 1.929123 1_555
Co0 O0 1.929123 1_545
Co1 O3 1.893655 1_555
Co1 O5 1.893655 1_454
Co1 O10 1.924339 1_554
Co1 O11 1.924339 1_455
Co1 O4 1.929123 1_455
Co1 O2 1.929123 1_554
Co2 O3 1.893655 1_555
Co2 O5 1.893655 1_455
Co2 O0 1.924339 1_555
Co2 O6 1.924339 1_455
Co2 O9 1.929123 1_455
Co2 O8 1.929123 1_555
Co3 O1 1.893655 1_545
Co3 O7 1.893655 1_554
Co3 O2 1.924339 1_554
Co3 O4 1.924339 1_545
Co3 O11 1.929123 1_555
Co3 O10 1.929123 1_544
O0 Yb2 2.313499 1_555
O0 Yb3 2.487547 1_555
O0 Yb1 2.537006 1_555
O1 Yb0 2.303909 1_465
O1 Yb1 2.349711 1_555
O2 Yb3 2.313502 1_545
O2 Yb2 2.487550 1_555
O2 Yb0 2.537008 1_456
O3 Yb1 2.303910 1_555
O3 Yb0 2.349716 1_455
O4 Yb0 2.313499 1_565
O4 Yb1 2.487547 1_555
O4 Yb3 2.537006 1_654
O5 Yb2 2.303909 1_555
O5 Yb3 2.349711 1_655
O6 Yb1 2.313502 1_555
O6 Yb0 2.487550 1_555
O6 Yb2 2.537008 1_555
O7 Yb3 2.303910 1_645
O7 Yb2 2.349716 1_555
O8 Yb3 2.313502 1_545
O8 Yb2 2.487550 1_555
O8 Yb0 2.537008 1_455
O9 Yb0 2.313499 1_565
O9 Yb1 2.487547 1_555
O9 Yb3 2.537006 1_655
O10 Yb2 2.313499 1_555
O10 Yb3 2.487547 1_555
O10 Yb1 2.537006 1_556
O11 Yb1 2.313502 1_555
O11 Yb0 2.487550 1_555
O11 Yb2 2.537008 1_554
