# generated using pymatgen
data_Nd(In2Au)2
_symmetry_space_group_name_H-M   'P 1'
_cell_length_a   4.71055800
_cell_length_b   7.53938900
_cell_length_c   18.93339000
_cell_angle_alpha   90.00000000
_cell_angle_beta   90.00000000
_cell_angle_gamma   90.00000000
_symmetry_Int_Tables_number   1
_chemical_formula_structural   Nd(In2Au)2
_chemical_formula_sum   'Nd4 In16 Au8'
_cell_volume   672.41421810
_cell_formula_units_Z   4
loop_
 _symmetry_equiv_pos_site_id
 _symmetry_equiv_pos_as_xyz
  1  'x, y, z'
loop_
 _atom_site_type_symbol
 _atom_site_label
 _atom_site_symmetry_multiplicity
 _atom_site_fract_x
 _atom_site_fract_y
 _atom_site_fract_z
 _atom_site_occupancy
  Nd  Nd0  1  0.75000000  0.97399600  0.64214700  1
  Nd  Nd1  1  0.25000000  0.47399600  0.85785300  1
  Nd  Nd2  1  0.75000000  0.52600400  0.14214700  1
  Nd  Nd3  1  0.25000000  0.02600400  0.35785300  1
  In  In0  1  0.25000000  0.23634400  0.18811100  1
  In  In1  1  0.25000000  0.48871700  0.43211000  1
  In  In2  1  0.25000000  0.01128300  0.93211000  1
  In  In3  1  0.25000000  0.82648500  0.18498200  1
  In  In4  1  0.25000000  0.67351500  0.68498200  1
  In  In5  1  0.25000000  0.26365600  0.68811100  1
  In  In6  1  0.25000000  0.14529000  0.53555700  1
  In  In7  1  0.75000000  0.98871700  0.06789000  1
  In  In8  1  0.75000000  0.17351500  0.81501800  1
  In  In9  1  0.25000000  0.35471000  0.03555700  1
  In  In10  1  0.75000000  0.85471000  0.46444300  1
  In  In11  1  0.75000000  0.64529000  0.96444300  1
  In  In12  1  0.75000000  0.76365600  0.81188900  1
  In  In13  1  0.75000000  0.51128300  0.56789000  1
  In  In14  1  0.75000000  0.32648500  0.31501800  1
  In  In15  1  0.75000000  0.73634400  0.31188900  1
  Au  Au0  1  0.25000000  0.96586000  0.78136500  1
  Au  Au1  1  0.75000000  0.03414000  0.21863500  1
  Au  Au2  1  0.25000000  0.53414000  0.28136500  1
  Au  Au3  1  0.25000000  0.75623800  0.53921100  1
  Au  Au4  1  0.25000000  0.74376200  0.03921100  1
  Au  Au5  1  0.75000000  0.24376200  0.46078900  1
  Au  Au6  1  0.75000000  0.25623800  0.96078900  1
  Au  Au7  1  0.75000000  0.46586000  0.71863500  1
loop_
_geom_bond_atom_site_label_1
_geom_bond_atom_site_label_2
_geom_bond_distance
_geom_bond_site_symmetry_2
In0 In9 3.023084 1_555
In0 In3 3.090654 1_545
In0 Nd2 3.327751 1_455
In0 Nd2 3.327751 1_555
In0 In14 3.432573 1_455
In0 In14 3.432573 1_555
In0 Nd3 3.583759 1_555
In1 In6 3.246573 1_555
In1 In14 3.458070 1_455
In1 In14 3.458070 1_555
In1 Nd3 3.761223 1_555
In2 In9 3.246573 1_556
In2 In8 3.458070 1_455
In2 In8 3.458070 1_555
In2 Nd1 3.761223 1_555
In3 Nd2 3.367092 1_455
In3 Nd2 3.367092 1_555
In3 In7 3.458070 1_455
In3 In7 3.458070 1_555
In3 Nd3 3.602155 1_565
In4 In5 3.090654 1_555
In4 Nd0 3.367092 1_555
In4 Nd0 3.367092 1_455
In4 Nd1 3.602155 1_555
In5 In6 3.023084 1_555
In5 Nd0 3.327751 1_445
In5 Nd0 3.327751 1_545
In5 In8 3.432573 1_455
In5 In8 3.432573 1_555
In5 Nd1 3.583759 1_555
In6 Nd0 3.359755 1_445
In6 Nd0 3.359755 1_545
In6 Nd3 3.482663 1_555
In7 Nd2 3.761223 1_555
In8 Nd1 3.367092 1_555
In8 Nd1 3.367092 1_655
In8 Nd0 3.602155 1_545
In9 Nd2 3.359755 1_555
In9 Nd2 3.359755 1_455
In9 Nd1 3.482663 1_554
In10 In15 3.023084 1_555
In10 In13 3.246573 1_555
In10 Nd3 3.359755 1_565
In10 Nd3 3.359755 1_665
In10 Nd0 3.482663 1_555
In11 In12 3.023084 1_555
In11 In7 3.246573 1_556
In11 Nd1 3.359755 1_555
In11 Nd1 3.359755 1_655
In11 Nd2 3.482663 1_556
In12 In8 3.090654 1_565
In12 Nd1 3.327751 1_555
In12 Nd1 3.327751 1_655
In12 In4 3.432573 1_555
In12 In4 3.432573 1_655
In12 Nd0 3.583759 1_555
In13 In4 3.458070 1_555
In13 In4 3.458070 1_655
In13 Nd0 3.761223 1_555
In14 In15 3.090654 1_555
In14 Nd3 3.367092 1_655
In14 Nd3 3.367092 1_555
In14 Nd2 3.602155 1_555
In15 Nd3 3.327751 1_565
In15 Nd3 3.327751 1_665
In15 In3 3.432573 1_555
In15 In3 3.432573 1_655
In15 Nd2 3.583759 1_555
Au0 In5 2.856277 1_565
Au0 In4 2.861498 1_555
Au0 In12 2.864510 1_455
Au0 In12 2.864510 1_555
Au0 In2 2.874586 1_565
Au0 In8 2.899034 1_465
Au0 In8 2.899034 1_565
Au0 Nd0 3.535379 1_455
Au0 Nd0 3.535379 1_555
Au1 In15 2.856277 1_545
Au1 In14 2.861498 1_555
Au1 In0 2.864510 1_555
Au1 In0 2.864510 1_655
Au1 In7 2.874586 1_545
Au1 In3 2.899034 1_545
Au1 In3 2.899034 1_645
Au1 Nd3 3.535379 1_555
Au1 Nd3 3.535379 1_655
Au2 In0 2.856277 1_555
Au2 In3 2.861498 1_555
Au2 In15 2.864510 1_455
Au2 In15 2.864510 1_555
Au2 In1 2.874586 1_555
Au2 In14 2.899034 1_555
Au2 In14 2.899034 1_455
Au2 Nd2 3.535379 1_455
Au2 Nd2 3.535379 1_555
Au3 In4 2.829530 1_555
Au3 In10 2.846486 1_455
Au3 In10 2.846486 1_555
Au3 In1 2.860066 1_555
Au3 In6 2.934030 1_565
Au3 In13 3.041856 1_555
Au3 In13 3.041856 1_455
Au3 Nd0 3.470020 1_455
Au3 Nd0 3.470020 1_555
Au4 In3 2.829530 1_555
Au4 In11 2.846486 1_554
Au4 In11 2.846486 1_454
Au4 In2 2.860066 1_564
Au4 In9 2.934030 1_555
Au4 In7 3.041856 1_455
Au4 In7 3.041856 1_555
Au4 Nd2 3.470020 1_455
Au4 Nd2 3.470020 1_555
Au5 In14 2.829530 1_555
Au5 In6 2.846486 1_555
Au5 In6 2.846486 1_655
Au5 In13 2.860066 1_555
Au5 In10 2.934030 1_545
Au5 In1 3.041856 1_555
Au5 In1 3.041856 1_655
Au5 Nd3 3.470020 1_655
Au5 Nd3 3.470020 1_555
Au6 In8 2.829530 1_555
Au6 In9 2.846486 1_556
Au6 In9 2.846486 1_656
Au6 In7 2.860066 1_546
Au6 In11 2.934030 1_555
Au6 In2 3.041856 1_655
Au6 In2 3.041856 1_555
Au6 Nd1 3.470020 1_655
Au6 Nd1 3.470020 1_555
Au7 In12 2.856277 1_555
Au7 In8 2.861498 1_555
Au7 In5 2.864510 1_655
Au7 In5 2.864510 1_555
Au7 In13 2.874586 1_555
Au7 In4 2.899034 1_655
Au7 In4 2.899034 1_555
Au7 Nd1 3.535379 1_555
Au7 Nd1 3.535379 1_655
