# generated using pymatgen
data_Gd(CrSi)2
_symmetry_space_group_name_H-M   'P 1'
_cell_length_a   3.85327719
_cell_length_b   3.87780913
_cell_length_c   6.02575056
_cell_angle_alpha   108.47550509
_cell_angle_beta   108.85785011
_cell_angle_gamma   90.01814781
_symmetry_Int_Tables_number   1
_chemical_formula_structural   Gd(CrSi)2
_chemical_formula_sum   'Gd1 Cr2 Si2'
_cell_volume   80.28265740
_cell_formula_units_Z   1
loop_
 _symmetry_equiv_pos_site_id
 _symmetry_equiv_pos_as_xyz
  1  'x, y, z'
loop_
 _atom_site_type_symbol
 _atom_site_label
 _atom_site_symmetry_multiplicity
 _atom_site_fract_x
 _atom_site_fract_y
 _atom_site_fract_z
 _atom_site_occupancy
  Gd  Gd0  1  0.99882300  0.00573000  0.99953200  1
  Cr  Cr0  1  0.25379400  0.76092400  0.50034100  1
  Cr  Cr1  1  0.74723400  0.25091200  0.49818000  1
  Si  Si0  1  0.61804700  0.61972200  0.23178400  1
  Si  Si1  1  0.38220800  0.39215000  0.76668100  1
loop_
_geom_bond_atom_site_label_1
_geom_bond_atom_site_label_2
_geom_bond_distance
_geom_bond_site_symmetry_2
Gd0 Si0 2.999662 1_556
Gd0 Si1 3.000121 1_545
Gd0 Si0 3.000947 1_546
Gd0 Si1 3.006429 1_645
Gd0 Si1 3.006516 1_555
Gd0 Si0 3.007748 1_656
Gd0 Si0 3.010602 1_646
Gd0 Si1 3.011239 1_655
Cr0 Si0 2.407184 1_455
Cr0 Si0 2.407437 1_555
Cr0 Si1 2.409821 1_555
Cr0 Si1 2.410017 1_565
Cr1 Si1 2.404711 1_655
Cr1 Si1 2.409557 1_555
Cr1 Si0 2.409969 1_545
Cr1 Si0 2.410172 1_555
Si0 Si1 2.498939 1_554
