# generated using pymatgen
data_Ba2Na(CuO2)3
_symmetry_space_group_name_H-M   'P 1'
_cell_length_a   9.30711551
_cell_length_b   8.45823439
_cell_length_c   7.15746373
_cell_angle_alpha   72.62922948
_cell_angle_beta   60.15153183
_cell_angle_gamma   47.21923869
_symmetry_Int_Tables_number   1
_chemical_formula_structural   Ba2Na(CuO2)3
_chemical_formula_sum   'Ba4 Na2 Cu6 O12'
_cell_volume   357.99736716
_cell_formula_units_Z   2
loop_
 _symmetry_equiv_pos_site_id
 _symmetry_equiv_pos_as_xyz
  1  'x, y, z'
loop_
 _atom_site_type_symbol
 _atom_site_label
 _atom_site_symmetry_multiplicity
 _atom_site_fract_x
 _atom_site_fract_y
 _atom_site_fract_z
 _atom_site_occupancy
  Ba  Ba0  1  0.25000000  0.25000000  0.25000000  1
  Ba  Ba1  1  0.75000000  0.75000000  0.75000000  1
  Ba  Ba2  1  0.76875400  0.23124600  0.76875400  1
  Ba  Ba3  1  0.23124600  0.76875400  0.23124600  1
  Na  Na0  1  0.33054900  0.33054900  0.66945100  1
  Na  Na1  1  0.66945100  0.66945100  0.33054900  1
  Cu  Cu0  1  0.30002200  0.99682700  0.69997800  1
  Cu  Cu1  1  0.00317300  0.69997800  0.99682700  1
  Cu  Cu2  1  0.99682700  0.30002200  0.00317300  1
  Cu  Cu3  1  0.69997800  0.00317300  0.30002200  1
  Cu  Cu4  1  0.69012900  0.30987100  0.30987100  1
  Cu  Cu5  1  0.30987100  0.69012900  0.69012900  1
  O  O0  1  0.68355200  0.50183400  0.09234500  1
  O  O1  1  0.72226900  0.09234500  0.50183400  1
  O  O2  1  0.09234500  0.72226900  0.68355200  1
  O  O3  1  0.50183400  0.68355200  0.72226900  1
  O  O4  1  0.31644800  0.49816600  0.90765500  1
  O  O5  1  0.27773100  0.90765500  0.49816600  1
  O  O6  1  0.30515700  0.07160200  0.92839800  1
  O  O7  1  0.49816600  0.31644800  0.27773100  1
  O  O8  1  0.07160200  0.30515700  0.69484300  1
  O  O9  1  0.92839800  0.69484300  0.30515700  1
  O  O10  1  0.69484300  0.92839800  0.07160200  1
  O  O11  1  0.90765500  0.27773100  0.31644800  1
loop_
_geom_bond_atom_site_label_1
_geom_bond_atom_site_label_2
_geom_bond_distance
_geom_bond_site_symmetry_2
Ba0 O8 2.772080 1_555
Ba0 O10 2.772080 1_545
Ba0 O9 2.772080 1_455
Ba0 O6 2.772080 1_554
Ba0 O5 2.824244 1_545
Ba0 O4 2.824244 1_554
Ba0 O7 2.824244 1_555
Ba0 O11 2.824244 1_455
Ba1 O10 2.772080 1_556
Ba1 O8 2.772080 1_655
Ba1 O9 2.772080 1_555
Ba1 O6 2.772080 1_565
Ba1 O2 2.824244 1_655
Ba1 O3 2.824244 1_555
Ba1 O0 2.824244 1_556
Ba1 O1 2.824244 1_565
Ba2 O3 2.840917 1_555
Ba2 O11 2.840917 1_555
Ba2 O4 2.840917 1_555
Ba2 O1 2.840917 1_555
Ba2 O8 3.054060 1_655
Ba2 O10 3.054060 1_546
Ba2 O0 3.178498 1_556
Ba2 O7 3.178498 1_556
Ba2 O5 3.178498 1_645
Ba2 O2 3.178498 1_645
Ba3 O5 2.840917 1_555
Ba3 O0 2.840917 1_555
Ba3 O7 2.840917 1_555
Ba3 O2 2.840917 1_555
Ba3 O6 3.054060 1_564
Ba3 O9 3.054060 1_455
Ba3 O11 3.178498 1_465
Ba3 O1 3.178498 1_465
Ba3 O4 3.178498 1_554
Ba3 O3 3.178498 1_554
Na0 O4 2.429374 1_555
Na0 O7 2.429374 1_555
Na0 O1 2.429374 1_555
Na0 O2 2.429374 1_555
Na0 O6 2.476147 1_555
Na0 O8 2.476147 1_555
Na1 O5 2.429374 1_555
Na1 O0 2.429374 1_555
Na1 O3 2.429374 1_555
Na1 O11 2.429374 1_555
Na1 O10 2.476147 1_555
Na1 O9 2.476147 1_555
Cu0 O6 1.952301 1_565
Cu0 O8 1.952301 1_565
Cu0 O3 1.964631 1_555
Cu0 O5 1.964631 1_555
Cu1 O9 1.952301 1_456
Cu1 O10 1.952301 1_456
Cu1 O2 1.964631 1_555
Cu1 O4 1.964631 1_555
Cu2 O6 1.952301 1_654
Cu2 O8 1.952301 1_654
Cu2 O0 1.964631 1_555
Cu2 O11 1.964631 1_555
Cu3 O9 1.952301 1_545
Cu3 O10 1.952301 1_545
Cu3 O7 1.964631 1_555
Cu3 O1 1.964631 1_555
Cu4 O0 1.874698 1_555
Cu4 O1 1.874698 1_555
Cu4 O11 1.874698 1_555
Cu4 O7 1.874698 1_555
Cu5 O2 1.874698 1_555
Cu5 O4 1.874698 1_555
Cu5 O5 1.874698 1_555
Cu5 O3 1.874698 1_555
