# generated using pymatgen
data_Rb2Bi3F11
_symmetry_space_group_name_H-M   'P 1'
_cell_length_a   4.29523500
_cell_length_b   4.32161452
_cell_length_c   18.12193071
_cell_angle_alpha   91.70863813
_cell_angle_beta   95.82494360
_cell_angle_gamma   114.93284094
_symmetry_Int_Tables_number   1
_chemical_formula_structural   Rb2Bi3F11
_chemical_formula_sum   'Rb2 Bi3 F11'
_cell_volume   302.47602341
_cell_formula_units_Z   1
loop_
 _symmetry_equiv_pos_site_id
 _symmetry_equiv_pos_as_xyz
  1  'x, y, z'
loop_
 _atom_site_type_symbol
 _atom_site_label
 _atom_site_symmetry_multiplicity
 _atom_site_fract_x
 _atom_site_fract_y
 _atom_site_fract_z
 _atom_site_occupancy
  Rb  Rb0  1  0.45472500  0.75354600  0.19539200  1
  Rb  Rb1  1  0.73711700  0.62315100  0.40104600  1
  Bi  Bi0  1  0.93198000  0.95448800  0.99743200  1
  Bi  Bi1  1  0.13018000  0.27496800  0.60788600  1
  Bi  Bi2  1  0.51924800  0.08620400  0.80114000  1
  F  F0  1  0.42737000  0.74911300  0.03875100  1
  F  F1  1  0.06529000  0.07518300  0.12129400  1
  F  F2  1  0.57901900  0.10471000  0.63337900  1
  F  F3  1  0.34433400  0.95611800  0.32407000  1
  F  F4  1  0.11165000  0.28981400  0.48901200  1
  F  F5  1  0.09732700  0.07061700  0.86164400  1
  F  F6  1  0.88597300  0.72862600  0.57222500  1
  F  F7  1  0.05729600  0.93226900  0.71810500  1
  F  F8  1  0.40134000  0.57504400  0.75144600  1
  F  F9  1  0.48849400  0.76561700  0.89552300  1
  F  F10  1  0.74545800  0.37813200  0.97805700  1
loop_
_geom_bond_atom_site_label_1
_geom_bond_atom_site_label_2
_geom_bond_distance
_geom_bond_site_symmetry_2
Bi0 F0 2.189357 1_556
Bi0 F1 2.248496 1_666
Bi0 F10 2.275406 1_555
Bi0 F10 2.309751 1_565
Bi0 F9 2.364440 1_555
Bi0 F5 2.634269 1_665
Bi0 F0 2.680394 1_656
Bi1 F4 2.151485 1_555
Bi1 F6 2.185394 1_445
Bi1 F2 2.265590 1_455
Bi1 F2 2.346687 1_555
Bi1 F7 2.488647 1_545
Bi1 F6 2.652049 1_455
Bi1 F8 2.777917 1_555
Bi2 F8 2.189265 1_545
Bi2 F5 2.189931 1_555
Bi2 F7 2.205728 1_545
Bi2 F9 2.212528 1_545
Bi2 F8 2.540351 1_555
Bi2 F5 2.639085 1_655
F0 Rb0 2.828285 1_555
F1 Rb0 2.854616 1_545
F1 Rb0 2.892321 1_445
F1 Rb0 2.893166 1_555
F3 Rb0 2.623281 1_555
F3 Rb1 2.878211 1_565
F3 Rb1 2.917683 1_455
F3 Rb1 2.924306 1_555
F4 Rb1 2.954250 1_445
F4 Rb1 2.962195 1_455
F4 Rb1 3.094695 1_555
F6 Rb1 3.083331 1_555
