# generated using pymatgen
data_LiH3(SeO3)2
_symmetry_space_group_name_H-M   'P 1'
_cell_length_a   8.01307600
_cell_length_b   5.56004800
_cell_length_c   7.20538197
_cell_angle_alpha   57.53663973
_cell_angle_beta   90.00000000
_cell_angle_gamma   90.00000000
_symmetry_Int_Tables_number   1
_chemical_formula_structural   LiH3(SeO3)2
_chemical_formula_sum   'Li2 H6 Se4 O12'
_cell_volume   270.85746395
_cell_formula_units_Z   2
loop_
 _symmetry_equiv_pos_site_id
 _symmetry_equiv_pos_as_xyz
  1  'x, y, z'
loop_
 _atom_site_type_symbol
 _atom_site_label
 _atom_site_symmetry_multiplicity
 _atom_site_fract_x
 _atom_site_fract_y
 _atom_site_fract_z
 _atom_site_occupancy
  Li  Li0  1  0.24718900  0.47487800  0.00305100  1
  Li  Li1  1  0.75281100  0.47487800  0.50305100  1
  H  H0  1  0.14494500  0.57448200  0.32527900  1
  H  H1  1  0.85505500  0.57448200  0.82527900  1
  H  H2  1  0.38299400  0.45725800  0.61637900  1
  H  H3  1  0.61700600  0.45725800  0.11637900  1
  H  H4  1  0.23026500  0.97458900  0.55248700  1
  H  H5  1  0.76973500  0.97458900  0.05248700  1
  Se  Se0  1  0.39309100  0.85451100  0.23394300  1
  Se  Se1  1  0.60690900  0.85451100  0.73394300  1
  Se  Se2  1  0.10330700  0.14701800  0.76696700  1
  Se  Se3  1  0.89669300  0.14701800  0.26696700  1
  O  O0  1  0.22534300  0.67333600  0.19144000  1
  O  O1  1  0.77465700  0.67333600  0.69144000  1
  O  O2  1  0.27700600  0.30387900  0.79865300  1
  O  O3  1  0.72299400  0.30387900  0.29865300  1
  O  O4  1  0.29134000  0.06113900  0.30194800  1
  O  O5  1  0.70866000  0.06113900  0.80194800  1
  O  O6  1  0.20376400  0.89579900  0.71224300  1
  O  O7  1  0.79623600  0.89579900  0.21224300  1
  O  O8  1  0.47449500  0.56922600  0.48650100  1
  O  O9  1  0.52550500  0.56922600  0.98650100  1
  O  O10  1  0.02399500  0.39964500  0.51692000  1
  O  O11  1  0.97600500  0.39964500  0.01692000  1
loop_
_geom_bond_atom_site_label_1
_geom_bond_atom_site_label_2
_geom_bond_distance
_geom_bond_site_symmetry_2
Li0 O2 2.152504 1_554
Li0 O0 2.167655 1_555
Li0 O6 2.173582 1_554
Li0 O4 2.176412 1_555
Li0 O11 2.205015 1_455
Li0 O9 2.279451 1_554
Li1 O3 2.152504 1_555
Li1 O1 2.167655 1_555
Li1 O7 2.173582 1_555
Li1 O5 2.176412 1_555
Li1 O10 2.205015 1_655
Li1 O8 2.279451 1_555
H0 O0 1.038323 1_555
H0 O10 1.532978 1_555
H1 O1 1.038323 1_555
H1 O11 1.532978 1_556
H2 O8 1.084200 1_555
H2 O2 1.403953 1_555
H3 O9 1.084200 1_554
H3 O3 1.403953 1_555
H4 O6 1.010296 1_555
H4 O4 1.672529 1_565
H5 O7 1.010296 1_555
H5 O5 1.672529 1_564
O0 Se0 1.801810 1_555
O1 Se1 1.801810 1_555
O2 Se2 1.721576 1_555
O3 Se3 1.721576 1_555
O4 Se0 1.681991 1_545
O5 Se1 1.681991 1_545
O6 Se2 1.829134 1_565
O7 Se3 1.829134 1_565
O8 Se0 1.776051 1_555
O9 Se1 1.776051 1_555
O10 Se2 1.704754 1_555
O11 Se3 1.704754 1_555
