# generated using pymatgen
data_Zn2GaP3H8(NO6)2
_symmetry_space_group_name_H-M   'P 1'
_cell_length_a   11.72595300
_cell_length_b   11.95559864
_cell_length_c   12.10696317
_cell_angle_alpha   109.49123496
_cell_angle_beta   107.76871010
_cell_angle_gamma   107.90659063
_symmetry_Int_Tables_number   1
_chemical_formula_structural   Zn2GaP3H8(NO6)2
_chemical_formula_sum   'Zn8 Ga4 P12 H32 N8 O48'
_cell_volume   1356.11460635
_cell_formula_units_Z   4
loop_
 _symmetry_equiv_pos_site_id
 _symmetry_equiv_pos_as_xyz
  1  'x, y, z'
loop_
 _atom_site_type_symbol
 _atom_site_label
 _atom_site_symmetry_multiplicity
 _atom_site_fract_x
 _atom_site_fract_y
 _atom_site_fract_z
 _atom_site_occupancy
  Zn  Zn0  1  0.29898800  0.02313400  0.41943900  1
  Zn  Zn1  1  0.63237600  0.72439600  0.18241500  1
  Zn  Zn2  1  0.74291400  0.43166200  0.48134500  1
  Zn  Zn3  1  0.03239200  0.44740600  0.25724400  1
  Zn  Zn4  1  0.78755800  0.04410100  0.08500400  1
  Zn  Zn5  1  0.79264000  0.25253200  0.72109700  1
  Zn  Zn6  1  0.40695400  0.49968300  0.71374000  1
  Zn  Zn7  1  0.23507400  0.68340200  0.77270400  1
  Ga  Ga0  1  0.02353800  0.05134700  0.81871500  1
  Ga  Ga1  1  0.54519700  0.75952000  0.34543700  1
  Ga  Ga2  1  0.14788100  0.90653000  0.18421700  1
  Ga  Ga3  1  0.32645500  0.21523400  0.93433900  1
  P  P0  1  0.92432000  0.23001600  0.97053400  1
  P  P1  1  0.37732600  0.25914800  0.70100300  1
  P  P2  1  0.54898100  0.30247400  0.57083000  1
  P  P3  1  0.97428900  0.53767400  0.76949800  1
  P  P4  1  0.73208300  0.27530500  0.22274600  1
  P  P5  1  0.63449900  0.47565600  0.24920800  1
  P  P6  1  0.53492400  0.78335500  0.94896300  1
  P  P7  1  0.29068000  0.55998200  0.51946100  1
  P  P8  1  0.90423000  0.89453700  0.18590300  1
  P  P9  1  0.77241400  0.98229600  0.58266300  1
  P  P10  1  0.28008800  0.73076900  0.39825900  1
  P  P11  1  0.08567200  0.82391100  0.87901700  1
  H  H0  1  0.59878000  0.07393700  0.79778700  1
  H  H1  1  0.43331500  0.04383600  0.73916600  1
  H  H2  1  0.96777800  0.16343000  0.40156200  1
  H  H3  1  0.94416400  0.19950700  0.53766000  1
  H  H4  1  0.56364400  0.10262500  0.26412000  1
  H  H5  1  0.68908300  0.46457400  0.91023400  1
  H  H6  1  0.16236700  0.39741700  0.98505200  1
  H  H7  1  0.32286700  0.24224800  0.32244900  1
  H  H8  1  0.10323500  0.26453100  0.55474800  1
  H  H9  1  0.19798300  0.19161800  0.17176900  1
  H  H10  1  0.35615700  0.31988000  0.23367900  1
  H  H11  1  0.18874700  0.52781100  0.94933100  1
  H  H12  1  0.24892200  0.33989100  0.29953900  1
  H  H13  1  0.99476200  0.32046600  0.49478300  1
  H  H14  1  0.79454300  0.71238600  0.77265900  1
  H  H15  1  0.72254200  0.46967300  0.05642300  1
  H  H16  1  0.84278000  0.48770600  0.00251700  1
  H  H17  1  0.63551800  0.65781800  0.66230800  1
  H  H18  1  0.90330100  0.68426200  0.45972000  1
  H  H19  1  0.69999200  0.78396000  0.81811300  1
  H  H20  1  0.79386600  0.61016600  0.05249800  1
  H  H21  1  0.75705800  0.81097200  0.71131300  1
  H  H22  1  0.31726100  0.49478400  0.01399400  1
  H  H23  1  0.25230400  0.55681600  0.11062900  1
  H  H24  1  0.47262200  0.92424600  0.67487900  1
  H  H25  1  0.48954700  0.97116400  0.82830800  1
  H  H26  1  0.04791000  0.72939900  0.44379100  1
  H  H27  1  0.05713200  0.77985700  0.59714200  1
  H  H28  1  0.52549400  0.93554500  0.17710100  1
  H  H29  1  0.00046800  0.84603000  0.50458200  1
  H  H30  1  0.49446900  0.99187300  0.31030800  1
  H  H31  1  0.39965200  0.97972700  0.16776300  1
  N  N0  1  0.23008100  0.49485900  0.01519600  1
  N  N1  1  0.27972700  0.27153000  0.25472300  1
  N  N2  1  0.00308800  0.23790700  0.49719100  1
  N  N3  1  0.72118400  0.73998400  0.74010300  1
  N  N4  1  0.76375900  0.50741900  0.00452700  1
  N  N5  1  0.49954600  0.00459500  0.76147500  1
  N  N6  1  0.00250700  0.75978000  0.50153300  1
  N  N7  1  0.49546200  0.00288600  0.23009400  1
  O  O0  1  0.79071700  0.19348700  0.85521000  1
  O  O1  1  0.88454300  0.02022800  0.23992300  1
  O  O2  1  0.84437200  0.12736100  0.60970900  1
  O  O3  1  0.01979900  0.91639700  0.87081300  1
  O  O4  1  0.42224600  0.81090500  0.87394900  1
  O  O5  1  0.01469400  0.90027300  0.31258300  1
  O  O6  1  0.32798100  0.11531300  0.60457200  1
  O  O7  1  0.23979100  0.03289100  0.78508700  1
  O  O8  1  0.03403100  0.78389900  0.23622400  1
  O  O9  1  0.90804100  0.13603800  0.03091500  1
  O  O10  1  0.61922200  0.21932200  0.59823000  1
  O  O11  1  0.43596100  0.29469200  0.84566100  1
  O  O12  1  0.41620200  0.21269500  0.44400600  1
  O  O13  1  0.03333100  0.21872200  0.91935800  1
  O  O14  1  0.68807200  0.25895400  0.32735700  1
  O  O15  1  0.51192300  0.35715200  0.69408500  1
  O  O16  1  0.28031900  0.31899800  0.66253800  1
  O  O17  1  0.88516400  0.36148400  0.28918300  1
  O  O18  1  0.91929100  0.48362700  0.62102600  1
  O  O19  1  0.65586100  0.34818000  0.16057300  1
  O  O20  1  0.96125600  0.67777000  0.83045700  1
  O  O21  1  0.89757100  0.44951800  0.81512900  1
  O  O22  1  0.42003500  0.54814000  0.57936600  1
  O  O23  1  0.72034300  0.75890600  0.45864000  1
  O  O24  1  0.49430900  0.63109300  0.89004600  1
  O  O25  1  0.49819200  0.42209600  0.24449200  1
  O  O26  1  0.75326500  0.53848900  0.38862200  1
  O  O27  1  0.12561100  0.57308600  0.83220300  1
  O  O28  1  0.19801000  0.44919900  0.37707700  1
  O  O29  1  0.66243200  0.86012900  0.93934300  1
  O  O30  1  0.21598600  0.55980500  0.60418500  1
  O  O31  1  0.65410400  0.55944900  0.17834700  1
  O  O32  1  0.63552100  0.43221400  0.57776900  1
  O  O33  1  0.34419700  0.70445000  0.52421000  1
  O  O34  1  0.67929200  0.13892400  0.10665500  1
  O  O35  1  0.12633800  0.06232600  0.72839800  1
  O  O36  1  0.77750500  0.76305300  0.12368200  1
  O  O37  1  0.83396200  0.96658400  0.70694700  1
  O  O38  1  0.34375200  0.68466000  0.30758900  1
  O  O39  1  0.12785900  0.64471900  0.33711900  1
  O  O40  1  0.14071700  0.79448100  0.77956700  1
  O  O41  1  0.61824000  0.92517500  0.52286400  1
  O  O42  1  0.56058200  0.82908900  0.09375700  1
  O  O43  1  0.32690300  0.87963800  0.46393700  1
  O  O44  1  0.98690300  0.37887600  0.07194200  1
  O  O45  1  0.80467300  0.89319400  0.47339600  1
  O  O46  1  0.18212500  0.86901600  0.02227100  1
  O  O47  1  0.97366700  0.90411400  0.09643500  1
loop_
_geom_bond_atom_site_label_1
_geom_bond_atom_site_label_2
_geom_bond_distance
_geom_bond_site_symmetry_2
Ga0 O35 1.862507 1_555
Ga0 O13 1.910062 1_555
Ga0 O3 1.911894 1_545
Ga0 O37 1.913961 1_445
Ga1 O41 2.065248 1_555
Ga1 O38 2.087182 1_555
Ga1 O23 2.096269 1_555
Ga2 O47 1.980297 1_455
Ga2 O46 2.052092 1_555
Ga2 O8 2.062449 1_555
Ga3 O7 1.984573 1_555
Ga3 O11 2.115620 1_555
H0 N5 1.042067 1_555
H1 N5 1.037679 1_555
H2 N2 1.047608 1_655
H3 N2 1.043979 1_655
H4 N7 1.056284 1_555
H4 O14 1.701339 1_555
H5 N4 1.027723 1_556
H6 N0 1.044708 1_556
H7 N1 1.047891 1_555
H8 N2 1.043359 1_555
H9 N1 1.024303 1_555
H10 N1 1.058930 1_555
H10 O25 1.671228 1_555
H11 N0 1.056963 1_556
H11 O27 1.723332 1_555
H12 N1 1.047897 1_555
H12 O28 1.717156 1_555
H13 N2 1.030222 1_655
H14 N3 1.028861 1_555
H15 N4 1.035585 1_555
H16 N4 1.029050 1_555
H17 N3 1.029300 1_555
H18 N6 1.055639 1_655
H19 N3 1.059436 1_555
H19 O29 1.710766 1_555
H20 N4 1.050238 1_555
H21 N3 1.042165 1_555
H22 N0 1.027074 1_555
H23 N0 1.038248 1_555
H24 N5 1.030067 1_565
H25 N5 1.035913 1_565
H26 N6 1.039575 1_555
H27 N6 1.036960 1_555
H28 N7 1.073022 1_565
H28 O42 1.589252 1_555
H29 N6 1.027397 1_555
H30 N7 1.025616 1_565
H31 N7 1.029628 1_565
O0 P0 1.559417 1_555
O0 Zn5 1.978050 1_555
O1 P8 1.545572 1_545
O1 Zn4 2.036567 1_555
O2 P9 1.542600 1_545
O2 Zn5 2.033934 1_555
O3 P11 1.542985 1_555
O4 P6 1.553661 1_555
O4 Zn7 1.922749 1_555
O5 O8 1.518367 1_555
O5 P8 1.642383 1_455
O6 P1 1.513617 1_555
O6 Zn0 2.002522 1_555
O9 P0 1.527951 1_554
O9 Zn4 1.929515 1_555
O10 P2 1.527597 1_555
O10 Zn5 1.941299 1_555
O11 P1 1.519646 1_555
O12 P2 1.532070 1_555
O12 Zn0 2.121071 1_555
O13 P0 1.603048 1_455
O14 P4 1.552655 1_555
O14 Zn2 2.008884 1_555
O15 P2 1.662058 1_555
O15 P1 1.697012 1_555
O15 Zn6 2.381883 1_555
O16 P1 1.556386 1_555
O16 Zn6 1.956459 1_555
O17 P4 1.535929 1_555
O17 Zn3 1.940920 1_655
O18 P3 1.525024 1_555
O18 Zn2 1.974150 1_555
O19 P4 1.621855 1_555
O19 P5 1.686552 1_555
O20 P11 1.658404 1_655
O20 P3 1.665764 1_555
O21 P3 1.527793 1_555
O21 Zn5 1.982512 1_555
O22 P7 1.541398 1_555
O22 Zn6 1.931953 1_555
O23 O45 1.520480 1_555
O24 P6 1.562830 1_555
O24 Zn6 1.873970 1_555
O25 P5 1.502827 1_555
O26 P5 1.558383 1_555
O26 Zn2 1.962335 1_555
O27 P3 1.550947 1_455
O27 Zn7 2.015750 1_555
O28 P7 1.534499 1_555
O28 Zn3 2.027502 1_555
O29 P6 1.557325 1_555
O29 Zn4 1.987036 1_566
O30 P7 1.538815 1_555
O30 Zn7 1.975418 1_555
O31 P5 1.531256 1_555
O31 Zn1 2.051364 1_555
O32 P2 1.528355 1_555
O32 Zn2 1.961099 1_555
O33 P7 1.620348 1_555
O33 P10 1.659937 1_555
O34 P4 1.528469 1_555
O34 Zn4 1.963522 1_555
O35 O7 1.502163 1_555
O36 P8 1.528659 1_555
O36 Zn1 2.022255 1_555
O37 P9 1.558670 1_555
O38 P10 1.554227 1_555
O39 P10 1.532558 1_555
O39 Zn3 1.986510 1_555
O40 P11 1.523614 1_555
O40 Zn7 1.969958 1_555
O41 P9 1.539744 1_555
O42 P6 1.549142 1_554
O42 Zn1 2.102505 1_555
O43 P10 1.513183 1_555
O43 Zn0 2.048184 1_565
O44 P0 1.549870 1_554
O44 Zn3 1.939875 1_655
O45 P9 1.625029 1_555
O46 P11 1.543237 1_554
O47 P8 1.553409 1_555
