# generated using pymatgen
data_SrNb4O6
_symmetry_space_group_name_H-M   'P 1'
_cell_length_a   4.21586900
_cell_length_b   4.21586900
_cell_length_c   16.41247400
_cell_angle_alpha   90.00000000
_cell_angle_beta   90.00000000
_cell_angle_gamma   90.00000000
_symmetry_Int_Tables_number   1
_chemical_formula_structural   SrNb4O6
_chemical_formula_sum   'Sr2 Nb8 O12'
_cell_volume   291.70795065
_cell_formula_units_Z   2
loop_
 _symmetry_equiv_pos_site_id
 _symmetry_equiv_pos_as_xyz
  1  'x, y, z'
loop_
 _atom_site_type_symbol
 _atom_site_label
 _atom_site_symmetry_multiplicity
 _atom_site_fract_x
 _atom_site_fract_y
 _atom_site_fract_z
 _atom_site_occupancy
  Sr  Sr0  1  0.50000000  0.50000000  0.87549800  1
  Sr  Sr1  1  0.50000000  0.50000000  0.12450200  1
  Nb  Nb0  1  0.00000000  0.50000000  0.36850200  1
  Nb  Nb1  1  0.50000000  0.00000000  0.63149800  1
  Nb  Nb2  1  0.00000000  0.00000000  0.00000000  1
  Nb  Nb3  1  0.00000000  0.00000000  0.24771200  1
  Nb  Nb4  1  0.00000000  0.00000000  0.75228800  1
  Nb  Nb5  1  0.50000000  0.00000000  0.36850200  1
  Nb  Nb6  1  0.00000000  0.50000000  0.63149800  1
  Nb  Nb7  1  0.00000000  0.00000000  0.50000000  1
  O  O0  1  0.00000000  0.50000000  0.76202000  1
  O  O1  1  0.00000000  0.00000000  0.11972300  1
  O  O2  1  0.50000000  0.00000000  0.76202000  1
  O  O3  1  0.00000000  0.00000000  0.88027700  1
  O  O4  1  0.50000000  0.50000000  0.62993400  1
  O  O5  1  0.00000000  0.50000000  0.23798000  1
  O  O6  1  0.50000000  0.50000000  0.37006600  1
  O  O7  1  0.00000000  0.50000000  0.50000000  1
  O  O8  1  0.50000000  0.00000000  0.23798000  1
  O  O9  1  0.50000000  0.00000000  0.00000000  1
  O  O10  1  0.50000000  0.00000000  0.50000000  1
  O  O11  1  0.00000000  0.50000000  0.00000000  1
loop_
_geom_bond_atom_site_label_1
_geom_bond_atom_site_label_2
_geom_bond_distance
_geom_bond_site_symmetry_2
Nb0 O6 2.108091 1_555
Nb0 O6 2.108091 1_455
Nb0 O5 2.142189 1_555
Nb0 O7 2.158208 1_555
Nb1 O4 2.108091 1_555
Nb1 O4 2.108091 1_545
Nb1 O2 2.142189 1_555
Nb1 O10 2.158208 1_555
Nb2 O1 1.964951 1_555
Nb2 O3 1.964951 1_554
Nb2 O9 2.107934 1_455
Nb2 O11 2.107934 1_545
Nb2 O9 2.107934 1_555
Nb2 O11 2.107934 1_555
Nb3 O1 2.100616 1_555
Nb3 O5 2.113977 1_545
Nb3 O5 2.113977 1_555
Nb3 O8 2.113977 1_555
Nb3 O8 2.113977 1_455
Nb4 O3 2.100616 1_555
Nb4 O0 2.113977 1_545
Nb4 O2 2.113977 1_455
Nb4 O2 2.113977 1_555
Nb4 O0 2.113977 1_555
Nb5 O6 2.108091 1_555
Nb5 O6 2.108091 1_545
Nb5 O8 2.142189 1_555
Nb5 O10 2.158208 1_555
Nb6 O4 2.108091 1_555
Nb6 O4 2.108091 1_455
Nb6 O0 2.142189 1_555
Nb6 O7 2.158208 1_555
Nb7 O7 2.107934 1_555
Nb7 O10 2.107934 1_455
Nb7 O10 2.107934 1_555
Nb7 O7 2.107934 1_545
O0 Sr0 2.812850 1_555
O0 Sr0 2.812850 1_455
O1 Sr1 2.982101 1_545
O1 Sr1 2.982101 1_455
O1 Sr1 2.982101 1_555
O1 Sr1 2.982101 1_445
O2 Sr0 2.812850 1_545
O2 Sr0 2.812850 1_555
O3 Sr0 2.982101 1_445
O3 Sr0 2.982101 1_545
O3 Sr0 2.982101 1_455
O3 Sr0 2.982101 1_555
O5 Sr1 2.812850 1_455
O5 Sr1 2.812850 1_555
O8 Sr1 2.812850 1_545
O8 Sr1 2.812850 1_555
O9 Sr1 2.935782 1_555
O9 Sr0 2.935782 1_544
O9 Sr1 2.935782 1_545
O9 Sr0 2.935782 1_554
O11 Sr1 2.935782 1_555
O11 Sr1 2.935782 1_455
O11 Sr0 2.935782 1_454
O11 Sr0 2.935782 1_554
