# generated using pymatgen
data_CaSmMnSnO6
_symmetry_space_group_name_H-M   'P 1'
_cell_length_a   5.85179700
_cell_length_b   5.51119800
_cell_length_c   9.50195179
_cell_angle_alpha   54.90593411
_cell_angle_beta   90.00000000
_cell_angle_gamma   90.00000000
_symmetry_Int_Tables_number   1
_chemical_formula_structural   CaSmMnSnO6
_chemical_formula_sum   'Ca2 Sm2 Mn2 Sn2 O12'
_cell_volume   250.73356878
_cell_formula_units_Z   2
loop_
 _symmetry_equiv_pos_site_id
 _symmetry_equiv_pos_as_xyz
  1  'x, y, z'
loop_
 _atom_site_type_symbol
 _atom_site_label
 _atom_site_symmetry_multiplicity
 _atom_site_fract_x
 _atom_site_fract_y
 _atom_site_fract_z
 _atom_site_occupancy
  Ca  Ca0  1  0.80901600  0.23454000  0.25191000  1
  Ca  Ca1  1  0.19098400  0.23454000  0.75191000  1
  Sm  Sm0  1  0.32143800  0.77002800  0.24841200  1
  Sm  Sm1  1  0.67856200  0.77002800  0.74841200  1
  Mn  Mn0  1  0.75404500  0.50271500  0.49975600  1
  Mn  Mn1  1  0.24595500  0.50271500  0.99975600  1
  Sn  Sn0  1  0.75931100  0.00092100  0.00092300  1
  Sn  Sn1  1  0.24068900  0.00092100  0.50092300  1
  O  O0  1  0.78708700  0.36820000  0.74169500  1
  O  O1  1  0.06433600  0.75623000  0.44111400  1
  O  O2  1  0.06457700  0.14823600  0.05065400  1
  O  O3  1  0.55296400  0.84105000  0.45138900  1
  O  O4  1  0.55914200  0.23772100  0.05539600  1
  O  O5  1  0.28435200  0.64035900  0.75875100  1
  O  O6  1  0.21291300  0.36820000  0.24169500  1
  O  O7  1  0.93566400  0.75623000  0.94111400  1
  O  O8  1  0.93542300  0.14823600  0.55065400  1
  O  O9  1  0.44703600  0.84105000  0.95138900  1
  O  O10  1  0.44085800  0.23772100  0.55539600  1
  O  O11  1  0.71564800  0.64035900  0.25875100  1
loop_
_geom_bond_atom_site_label_1
_geom_bond_atom_site_label_2
_geom_bond_distance
_geom_bond_site_symmetry_2
Ca0 O11 2.339244 1_555
Ca0 O4 2.363771 1_555
Ca0 O3 2.411276 1_545
Ca0 O6 2.460908 1_655
Ca0 O1 2.638932 1_645
Ca0 O2 2.676860 1_655
Ca0 O8 2.697936 1_555
Ca0 O7 2.788162 1_554
Ca1 O5 2.339244 1_555
Ca1 O10 2.363771 1_555
Ca1 O9 2.411276 1_545
Ca1 O0 2.460908 1_455
Ca1 O7 2.638932 1_445
Ca1 O8 2.676860 1_455
Ca1 O2 2.697936 1_556
Ca1 O1 2.788162 1_555
Mn0 O11 1.967905 1_555
Mn0 O0 1.977941 1_555
Mn0 O3 2.021706 1_555
Mn0 O8 2.022527 1_555
Mn0 O1 2.159718 1_655
Mn0 O10 2.209838 1_555
Mn1 O5 1.967905 1_555
Mn1 O6 1.977941 1_556
Mn1 O9 2.021706 1_555
Mn1 O2 2.022527 1_556
Mn1 O7 2.159718 1_455
Mn1 O4 2.209838 1_556
O0 Sn0 2.111375 1_556
O0 Sm1 2.339691 1_555
O1 Sn1 2.021813 1_565
O1 Sm0 2.337082 1_555
O2 Sn0 2.124769 1_455
O2 Sm0 2.373034 1_545
O3 Sn1 2.194072 1_565
O3 Sm0 2.564496 1_555
O3 Sm1 2.718187 1_555
O4 Sn0 2.029738 1_555
O4 Sm0 2.550813 1_545
O4 Sm1 2.786341 1_554
O5 Sn1 2.101942 1_565
O5 Sm1 2.400233 1_555
O6 Sn1 2.111375 1_555
O6 Sm0 2.339691 1_555
O7 Sn0 2.021813 1_566
O7 Sm1 2.337082 1_555
O8 Sn1 2.124769 1_655
O8 Sm1 2.373034 1_545
O9 Sn0 2.194072 1_566
O9 Sm1 2.564496 1_555
O9 Sm0 2.718187 1_556
O10 Sn1 2.029738 1_555
O10 Sm1 2.550813 1_545
O10 Sm0 2.786341 1_555
O11 Sn0 2.101942 1_565
O11 Sm0 2.400233 1_555
