# generated using pymatgen
data_Yb6Fe23
_symmetry_space_group_name_H-M   'P 1'
_cell_length_a   8.44239959
_cell_length_b   8.44239959
_cell_length_c   8.44239959
_cell_angle_alpha   60.00000000
_cell_angle_beta   60.00000000
_cell_angle_gamma   60.00000000
_symmetry_Int_Tables_number   1
_chemical_formula_structural   Yb6Fe23
_chemical_formula_sum   'Yb6 Fe23'
_cell_volume   425.48349150
_cell_formula_units_Z   1
loop_
 _symmetry_equiv_pos_site_id
 _symmetry_equiv_pos_as_xyz
  1  'x, y, z'
loop_
 _atom_site_type_symbol
 _atom_site_label
 _atom_site_symmetry_multiplicity
 _atom_site_fract_x
 _atom_site_fract_y
 _atom_site_fract_z
 _atom_site_occupancy
  Yb  Yb0  1  0.21143200  0.78856800  0.21143200  1
  Yb  Yb1  1  0.21143200  0.78856800  0.78856800  1
  Yb  Yb2  1  0.78856800  0.78856800  0.21143200  1
  Yb  Yb3  1  0.78856800  0.21143200  0.21143200  1
  Yb  Yb4  1  0.21143200  0.21143200  0.78856800  1
  Yb  Yb5  1  0.78856800  0.21143200  0.78856800  1
  Fe  Fe0  1  0.82417900  0.82417900  0.52746200  1
  Fe  Fe1  1  0.17582100  0.17582100  0.47253800  1
  Fe  Fe2  1  0.00000000  0.00000000  0.50000000  1
  Fe  Fe3  1  0.37990300  0.37990300  0.37990300  1
  Fe  Fe4  1  0.47253800  0.17582100  0.17582100  1
  Fe  Fe5  1  0.62009700  0.13970800  0.62009700  1
  Fe  Fe6  1  0.00000000  0.50000000  0.00000000  1
  Fe  Fe7  1  0.82417900  0.82417900  0.82417900  1
  Fe  Fe8  1  0.82417900  0.52746200  0.82417900  1
  Fe  Fe9  1  0.62009700  0.62009700  0.13970800  1
  Fe  Fe10  1  0.50000000  0.50000000  0.50000000  1
  Fe  Fe11  1  0.17582100  0.47253800  0.17582100  1
  Fe  Fe12  1  0.37990300  0.86029200  0.37990300  1
  Fe  Fe13  1  0.17582100  0.17582100  0.17582100  1
  Fe  Fe14  1  0.50000000  0.50000000  0.00000000  1
  Fe  Fe15  1  0.50000000  0.00000000  0.00000000  1
  Fe  Fe16  1  0.13970800  0.62009700  0.62009700  1
  Fe  Fe17  1  0.52746200  0.82417900  0.82417900  1
  Fe  Fe18  1  0.62009700  0.62009700  0.62009700  1
  Fe  Fe19  1  0.37990300  0.37990300  0.86029200  1
  Fe  Fe20  1  0.00000000  0.50000000  0.50000000  1
  Fe  Fe21  1  0.86029200  0.37990300  0.37990300  1
  Fe  Fe22  1  0.50000000  0.00000000  0.50000000  1
loop_
_geom_bond_atom_site_label_1
_geom_bond_atom_site_label_2
_geom_bond_distance
_geom_bond_site_symmetry_2
Fe0 Fe20 2.444449 1_655
Fe0 Fe22 2.444449 1_565
Fe0 Fe2 2.444457 1_665
Fe0 Fe8 2.505003 1_555
Fe0 Fe7 2.505003 1_555
Fe0 Fe17 2.505003 1_555
Fe0 Fe18 2.611956 1_555
Fe0 Fe5 2.611956 1_565
Fe0 Fe16 2.611956 1_655
Fe0 Yb2 2.998986 1_555
Fe0 Yb0 2.998991 1_655
Fe0 Yb3 2.998991 1_565
Fe1 Fe22 2.444449 1_555
Fe1 Fe20 2.444449 1_555
Fe1 Fe2 2.444457 1_555
Fe1 Fe11 2.505003 1_555
Fe1 Fe13 2.505003 1_555
Fe1 Fe4 2.505003 1_555
Fe1 Fe3 2.611956 1_555
Fe1 Fe12 2.611956 1_545
Fe1 Fe21 2.611956 1_455
Fe1 Yb4 2.998986 1_555
Fe1 Yb1 2.998991 1_545
Fe1 Yb5 2.998991 1_455
Fe2 Fe7 2.444452 1_445
Fe2 Fe21 2.620488 1_455
Fe2 Fe5 2.620488 1_455
Fe2 Yb0 3.020149 1_545
Fe2 Yb3 3.020149 1_455
Fe2 Yb5 3.020149 1_455
Fe2 Yb1 3.020149 1_545
Fe3 Fe4 2.611956 1_555
Fe3 Yb3 2.856204 1_555
Fe3 Yb0 2.856204 1_555
Fe3 Yb4 2.856204 1_555
Fe3 Fe9 2.867762 1_555
Fe3 Fe5 2.867762 1_555
Fe4 Yb3 2.998986 1_555
Fe4 Yb2 2.998991 1_545
Fe4 Yb5 2.998991 1_554
Fe5 Fe7 2.611956 1_545
Fe5 Yb3 2.856203 1_555
Fe5 Yb4 2.856203 1_555
Fe5 Yb5 2.856210 1_555
Fe6 Fe7 2.444452 1_454
Fe6 Fe8 2.444457 1_454
Fe6 Fe9 2.620488 1_455
Fe6 Yb3 3.020149 1_455
Fe6 Yb4 3.020149 1_554
Fe6 Yb1 3.020149 1_554
Fe6 Yb2 3.020149 1_455
Fe7 Fe8 2.505003 1_555
Fe7 Fe9 2.611956 1_556
Fe7 Yb1 2.998994 1_655
Fe7 Yb2 2.998994 1_556
Fe7 Yb5 2.998994 1_565
Fe8 Fe9 2.611956 1_556
Fe8 Yb5 2.998986 1_555
Fe8 Yb4 2.998991 1_655
Fe8 Yb3 2.998991 1_556
Fe9 Yb3 2.856203 1_555
Fe9 Yb0 2.856203 1_555
Fe9 Yb2 2.856210 1_555
Fe10 Fe3 2.483554 1_555
Fe10 Fe18 2.483554 1_555
Fe10 Fe19 2.483561 1_555
Fe10 Fe21 2.483561 1_555
Fe10 Fe5 2.483561 1_555
Fe10 Fe9 2.483561 1_555
Fe10 Fe12 2.483561 1_555
Fe10 Fe16 2.483561 1_555
Fe11 Fe20 2.444449 1_555
Fe11 Fe14 2.444449 1_555
Fe11 Fe6 2.444457 1_555
Fe11 Fe13 2.505003 1_555
Fe11 Fe4 2.505003 1_555
Fe11 Fe3 2.611956 1_555
Fe11 Fe19 2.611956 1_554
Fe11 Fe21 2.611956 1_455
Fe11 Yb0 2.998986 1_555
Fe11 Yb1 2.998991 1_554
Fe11 Yb2 2.998991 1_455
Fe12 Fe13 2.611956 1_565
Fe12 Fe4 2.611956 1_565
Fe12 Fe22 2.620481 1_565
Fe12 Fe15 2.620488 1_565
Fe12 Fe2 2.620488 1_565
Fe12 Yb2 2.856203 1_555
Fe12 Yb1 2.856203 1_555
Fe12 Yb0 2.856210 1_555
Fe12 Fe18 2.867762 1_555
Fe12 Fe16 2.867774 1_555
Fe12 Fe9 2.867774 1_555
Fe13 Fe2 2.444452 1_555
Fe13 Fe6 2.444452 1_555
Fe13 Fe15 2.444452 1_555
Fe13 Fe4 2.505003 1_555
Fe13 Fe21 2.611956 1_455
Fe13 Fe19 2.611956 1_554
Fe13 Yb4 2.998994 1_554
Fe13 Yb3 2.998994 1_455
Fe13 Yb0 2.998994 1_545
Fe14 Fe8 2.444449 1_554
Fe14 Fe4 2.444449 1_555
Fe14 Fe17 2.444449 1_554
Fe14 Fe9 2.620481 1_555
Fe14 Fe19 2.620481 1_554
Fe14 Fe18 2.620488 1_554
Fe14 Fe3 2.620488 1_555
Fe14 Yb1 3.020149 1_554
Fe14 Yb5 3.020149 1_554
Fe14 Yb3 3.020149 1_555
Fe14 Yb0 3.020149 1_555
Fe15 Fe7 2.444452 1_544
Fe15 Fe17 2.444457 1_544
Fe15 Fe4 2.444457 1_555
Fe15 Fe19 2.620488 1_554
Fe15 Fe9 2.620488 1_545
Fe15 Fe5 2.620488 1_554
Fe15 Yb0 3.020149 1_545
Fe15 Yb4 3.020149 1_554
Fe15 Yb2 3.020149 1_545
Fe15 Yb5 3.020149 1_554
Fe16 Fe8 2.611956 1_455
Fe16 Fe7 2.611956 1_455
Fe16 Fe20 2.620481 1_555
Fe16 Fe6 2.620488 1_556
Fe16 Fe2 2.620488 1_565
Fe16 Yb0 2.856203 1_555
Fe16 Yb4 2.856203 1_555
Fe16 Yb1 2.856210 1_555
Fe16 Fe3 2.867762 1_555
Fe16 Fe19 2.867774 1_555
Fe17 Fe22 2.444449 1_565
Fe17 Fe8 2.505003 1_555
Fe17 Fe7 2.505003 1_555
Fe17 Fe5 2.611956 1_565
Fe17 Fe18 2.611956 1_555
Fe17 Fe9 2.611956 1_556
Fe17 Yb1 2.998986 1_555
Fe17 Yb0 2.998991 1_556
Fe17 Yb4 2.998991 1_565
Fe18 Fe8 2.611956 1_555
Fe18 Fe22 2.620488 1_565
Fe18 Fe20 2.620488 1_655
Fe18 Yb5 2.856204 1_555
Fe18 Yb2 2.856204 1_555
Fe18 Yb1 2.856204 1_555
Fe18 Fe19 2.867762 1_555
Fe18 Fe21 2.867762 1_555
Fe19 Fe4 2.611956 1_556
Fe19 Fe6 2.620488 1_556
Fe19 Yb1 2.856203 1_555
Fe19 Yb5 2.856203 1_555
Fe19 Yb4 2.856210 1_555
Fe19 Fe5 2.867774 1_555
Fe20 Fe8 2.444449 1_455
Fe20 Fe21 2.620481 1_455
Fe20 Fe3 2.620488 1_555
Fe20 Yb5 3.020149 1_455
Fe20 Yb2 3.020149 1_455
Fe20 Yb0 3.020149 1_555
Fe20 Yb4 3.020149 1_555
Fe21 Fe6 2.620488 1_655
Fe21 Yb2 2.856203 1_555
Fe21 Yb5 2.856203 1_555
Fe21 Yb3 2.856210 1_555
Fe21 Fe5 2.867774 1_555
Fe21 Fe9 2.867774 1_555
Fe22 Fe4 2.444449 1_555
Fe22 Fe5 2.620481 1_555
Fe22 Fe3 2.620488 1_555
Fe22 Yb2 3.020149 1_545
Fe22 Yb1 3.020149 1_545
Fe22 Yb3 3.020149 1_555
Fe22 Yb4 3.020149 1_555
