# generated using pymatgen
data_Rb2SeO4
_symmetry_space_group_name_H-M   'P 1'
_cell_length_a   6.40803454
_cell_length_b   6.40803454
_cell_length_c   8.28008642
_cell_angle_alpha   89.86080081
_cell_angle_beta   89.86080081
_cell_angle_gamma   117.73805584
_symmetry_Int_Tables_number   1
_chemical_formula_structural   Rb2SeO4
_chemical_formula_sum   'Rb4 Se2 O8'
_cell_volume   300.92937759
_cell_formula_units_Z   2
loop_
 _symmetry_equiv_pos_site_id
 _symmetry_equiv_pos_as_xyz
  1  'x, y, z'
loop_
 _atom_site_type_symbol
 _atom_site_label
 _atom_site_symmetry_multiplicity
 _atom_site_fract_x
 _atom_site_fract_y
 _atom_site_fract_z
 _atom_site_occupancy
  Rb  Rb0  1  0.98563200  0.98685200  0.49442400  1
  Rb  Rb1  1  0.98685200  0.98563200  0.99442500  1
  Rb  Rb2  1  0.29041400  0.63856500  0.24846000  1
  Rb  Rb3  1  0.63856500  0.29041400  0.74846000  1
  Se  Se0  1  0.34575200  0.66898100  0.74414100  1
  Se  Se1  1  0.66898100  0.34575200  0.24414100  1
  O  O0  1  0.19050600  0.37294000  0.73067400  1
  O  O1  1  0.63498700  0.74024600  0.75283100  1
  O  O2  1  0.27297100  0.76836000  0.90978100  1
  O  O3  1  0.30282300  0.80096200  0.58222900  1
  O  O4  1  0.80096200  0.30282300  0.08222900  1
  O  O5  1  0.76836000  0.27297100  0.40978100  1
  O  O6  1  0.37294000  0.19050600  0.23067400  1
  O  O7  1  0.74024600  0.63498700  0.25283100  1
loop_
_geom_bond_atom_site_label_1
_geom_bond_atom_site_label_2
_geom_bond_distance
_geom_bond_site_symmetry_2
O0 Se0 1.686920 1_555
O0 Rb0 2.946806 1_445
O0 Rb1 3.094674 1_445
O0 Rb3 3.155958 1_555
O0 Rb3 3.326668 1_455
O1 Se0 1.691699 1_555
O1 Rb1 2.880114 1_555
O1 Rb3 2.893595 1_555
O1 Rb0 2.962932 1_555
O1 Rb3 3.514980 1_565
O2 Se0 1.667847 1_555
O2 Rb1 2.857612 1_455
O2 Rb2 2.940246 1_556
O2 Rb3 3.336413 1_565
O3 Se0 1.673658 1_555
O3 Rb0 2.887144 1_455
O3 Rb2 2.943631 1_555
O3 Rb3 3.180321 1_565
O4 Se1 1.673658 1_555
O4 Rb1 2.887142 1_544
O4 Rb3 2.943631 1_554
O4 Rb2 3.180321 1_655
O5 Se1 1.667847 1_555
O5 Rb0 2.857610 1_545
O5 Rb3 2.940246 1_555
O5 Rb2 3.336413 1_655
O6 Se1 1.686920 1_555
O6 Rb1 2.946800 1_444
O6 Rb0 3.094668 1_445
O6 Rb2 3.155958 1_555
O6 Rb2 3.326668 1_545
O7 Se1 1.691699 1_555
O7 Rb0 2.880108 1_555
O7 Rb2 2.893595 1_555
O7 Rb1 2.962926 1_554
O7 Rb2 3.514980 1_655
