# generated using pymatgen
data_Ca(H8O5)2
_symmetry_space_group_name_H-M   'P 1'
_cell_length_a   6.24735000
_cell_length_b   6.50160231
_cell_length_c   10.87061332
_cell_angle_alpha   88.20983425
_cell_angle_beta   89.21901041
_cell_angle_gamma   86.27204428
_symmetry_Int_Tables_number   1
_chemical_formula_structural   Ca(H8O5)2
_chemical_formula_sum   'Ca2 H32 O20'
_cell_volume   440.36111778
_cell_formula_units_Z   2
loop_
 _symmetry_equiv_pos_site_id
 _symmetry_equiv_pos_as_xyz
  1  'x, y, z'
loop_
 _atom_site_type_symbol
 _atom_site_label
 _atom_site_symmetry_multiplicity
 _atom_site_fract_x
 _atom_site_fract_y
 _atom_site_fract_z
 _atom_site_occupancy
  Ca  Ca0  1  0.98192400  0.97931800  0.76108100  1
  Ca  Ca1  1  0.02987000  0.99963500  0.23278200  1
  H  H0  1  0.28623700  0.23039400  0.65337800  1
  H  H1  1  0.42458200  0.02307000  0.62763500  1
  H  H2  1  0.61473400  0.75158100  0.66121900  1
  H  H3  1  0.68165200  0.86835300  0.53550200  1
  H  H4  1  0.02526700  0.53549200  0.63686800  1
  H  H5  1  0.14666500  0.69084700  0.54953700  1
  H  H6  1  0.72927700  0.36579300  0.65645500  1
  H  H7  1  0.86244000  0.29152100  0.53760900  1
  H  H8  1  0.38344900  0.71999300  0.13864700  1
  H  H9  1  0.31065300  0.87480700  0.02289300  1
  H  H10  1  0.64435200  0.28064000  0.15758200  1
  H  H11  1  0.70561400  0.12351900  0.04993500  1
  H  H12  1  0.29423900  0.38346400  0.14369300  1
  H  H13  1  0.04901100  0.45247100  0.12651700  1
  H  H14  1  0.73376000  0.62446100  0.15143500  1
  H  H15  1  0.89392800  0.69560500  0.04357300  1
  H  H16  1  0.61949300  0.71953800  0.35736000  1
  H  H17  1  0.57828200  0.96093200  0.35222500  1
  H  H18  1  0.37605300  0.28753500  0.34946600  1
  H  H19  1  0.28478400  0.13807300  0.45457000  1
  H  H20  1  0.71441300  0.37892400  0.35725200  1
  H  H21  1  0.97665700  0.35254100  0.34414700  1
  H  H22  1  0.03359400  0.64224000  0.37298400  1
  H  H23  1  0.29415400  0.63162300  0.35960900  1
  H  H24  1  0.54828400  0.03823900  0.88415300  1
  H  H25  1  0.63424300  0.27060200  0.87661000  1
  H  H26  1  0.26648200  0.15000500  0.85692500  1
  H  H27  1  0.40687900  0.77444900  0.86504000  1
  H  H28  1  0.02599100  0.57428700  0.86404800  1
  H  H29  1  0.76238900  0.60524900  0.86673300  1
  H  H30  1  0.15493400  0.30382200  0.94523200  1
  H  H31  1  0.36432600  0.55402300  0.71086200  1
  O  O0  1  0.27987400  0.09801100  0.61351500  1
  O  O1  1  0.66244700  0.88619100  0.62702800  1
  O  O2  1  0.12182000  0.65233800  0.63803500  1
  O  O3  1  0.87238200  0.30870800  0.62876900  1
  O  O4  1  0.30231700  0.85377400  0.11623700  1
  O  O5  1  0.72509800  0.14512500  0.13891400  1
  O  O6  1  0.15222600  0.32912500  0.12080200  1
  O  O7  1  0.88049800  0.67908700  0.13506500  1
  O  O8  1  0.68566900  0.85219800  0.37976400  1
  O  O9  1  0.30269600  0.15450800  0.36394000  1
  O  O10  1  0.85265900  0.29078400  0.38235500  1
  O  O11  1  0.15866600  0.72027600  0.38855500  1
  O  O12  1  0.68294100  0.11844100  0.88755200  1
  O  O13  1  0.32477000  0.90729700  0.87517400  1
  O  O14  1  0.90957800  0.67740400  0.88206700  1
  O  O15  1  0.16124800  0.27447300  0.85620900  1
  O  O16  1  0.52279000  0.52370300  0.71907700  1
  O  O17  1  0.51422100  0.50072100  0.18823300  1
  O  O18  1  0.50358500  0.50499900  0.32586100  1
  O  O19  1  0.56185600  0.51716400  0.85345800  1
loop_
_geom_bond_atom_site_label_1
_geom_bond_atom_site_label_2
_geom_bond_distance
_geom_bond_site_symmetry_2
Ca0 O14 2.392687 1_555
Ca0 H26 2.420052 1_665
Ca0 O12 2.446455 1_565
Ca0 O13 2.500173 1_655
Ca0 O15 2.538119 1_665
Ca0 O0 2.581009 1_665
Ca0 O1 2.601011 1_555
Ca0 O3 2.601378 1_565
Ca0 O2 2.641322 1_655
Ca1 O4 2.282068 1_555
Ca1 O5 2.306452 1_465
Ca1 O9 2.516136 1_565
Ca1 O11 2.543360 1_555
Ca1 O6 2.584537 1_565
Ca1 O7 2.600153 1_455
H0 O0 0.978973 1_555
H1 O0 1.009991 1_555
H2 O1 1.001757 1_555
H3 O1 1.009903 1_555
H4 O2 1.000767 1_555
H5 O2 0.999104 1_555
H6 O3 0.992022 1_555
H7 O3 1.003920 1_555
H8 O4 1.002790 1_555
H8 O17 1.674197 1_555
H9 O4 1.020714 1_555
H9 O13 1.615039 1_554
H10 O5 1.011192 1_555
H10 O17 1.640273 1_555
H11 O5 0.991996 1_555
H12 O6 1.012985 1_555
H12 O17 1.697579 1_555
H13 O6 0.998773 1_555
H14 O7 1.015937 1_555
H14 O17 1.672359 1_555
H15 O7 0.999987 1_555
H16 O8 1.018029 1_555
H16 O18 1.659860 1_555
H17 O8 0.984914 1_555
H18 O9 1.011875 1_555
H18 O18 1.678658 1_555
H19 O9 0.993246 1_555
H20 O10 1.039748 1_555
H20 O18 1.541919 1_555
H21 O10 0.977283 1_555
H22 O11 0.978327 1_555
H23 O11 1.043227 1_555
H23 O18 1.545943 1_555
H24 O12 1.019834 1_555
H25 O12 1.019754 1_555
H25 O19 1.649618 1_555
H26 O15 1.008818 1_555
H27 O13 0.983909 1_555
H28 O14 0.978612 1_455
H29 O14 1.076373 1_555
H29 O19 1.421865 1_555
H30 O15 0.991965 1_555
H31 O16 1.001413 1_555
O16 O19 1.483176 1_555
O17 O18 1.497717 1_555
