# generated using pymatgen
data_Lu2Se3
_symmetry_space_group_name_H-M   'P 1'
_cell_length_a   14.20877891
_cell_length_b   14.20877891
_cell_length_c   14.20877891
_cell_angle_alpha   144.86648741
_cell_angle_beta   144.86648741
_cell_angle_gamma   50.53353310
_symmetry_Int_Tables_number   1
_chemical_formula_structural   Lu2Se3
_chemical_formula_sum   'Lu16 Se24'
_cell_volume   945.24440863
_cell_formula_units_Z   8
loop_
 _symmetry_equiv_pos_site_id
 _symmetry_equiv_pos_as_xyz
  1  'x, y, z'
loop_
 _atom_site_type_symbol
 _atom_site_label
 _atom_site_symmetry_multiplicity
 _atom_site_fract_x
 _atom_site_fract_y
 _atom_site_fract_z
 _atom_site_occupancy
  Lu  Lu0  1  0.17299300  0.29974000  0.39284300  1
  Lu  Lu1  1  0.58154000  0.08154000  0.50000000  1
  Lu  Lu2  1  0.37500000  0.74119800  0.86619800  1
  Lu  Lu3  1  0.16846000  0.16846000  0.00000000  1
  Lu  Lu4  1  0.84310300  0.95026000  0.37325400  1
  Lu  Lu5  1  0.57700700  0.46984900  0.62674600  1
  Lu  Lu6  1  0.87500000  0.50880200  0.13380200  1
  Lu  Lu7  1  0.04974000  0.42299300  0.89284300  1
  Lu  Lu8  1  0.83154000  0.83154000  0.00000000  1
  Lu  Lu9  1  0.49119800  0.62500000  0.36619800  1
  Lu  Lu10  1  0.25880200  0.12500000  0.63380200  1
  Lu  Lu11  1  0.53015100  0.15689700  0.10715700  1
  Lu  Lu12  1  0.91846000  0.41846000  0.50000000  1
  Lu  Lu13  1  0.70026000  0.09310300  0.87325400  1
  Lu  Lu14  1  0.90689700  0.78015100  0.60715700  1
  Lu  Lu15  1  0.21984900  0.82700700  0.12674600  1
  Se  Se0  1  0.53724000  0.42049400  0.74823600  1
  Se  Se1  1  0.24587200  0.00055900  0.11702600  1
  Se  Se2  1  0.88353300  0.12884600  0.88297400  1
  Se  Se3  1  0.50412800  0.12115400  0.25468700  1
  Se  Se4  1  0.86646700  0.24944100  0.74531300  1
  Se  Se5  1  0.21276000  0.46099700  0.38325400  1
  Se  Se6  1  0.67225800  0.78900300  0.25176400  1
  Se  Se7  1  0.07774200  0.82950600  0.61674600  1
  Se  Se8  1  0.18887500  0.09138200  0.74382100  1
  Se  Se9  1  0.90861800  0.65243900  0.09749300  1
  Se  Se10  1  0.55494600  0.81112500  0.90250700  1
  Se  Se11  1  0.17049400  0.78724000  0.24823600  1
  Se  Se12  1  0.53900300  0.92225800  0.75176400  1
  Se  Se13  1  0.34756100  0.44505400  0.25617900  1
  Se  Se14  1  0.87884600  0.13353300  0.38297400  1
  Se  Se15  1  0.75055900  0.49587200  0.61702600  1
  Se  Se16  1  0.87115400  0.75412800  0.75468700  1
  Se  Se17  1  0.57950600  0.32774200  0.11674600  1
  Se  Se18  1  0.21099700  0.46276000  0.88325400  1
  Se  Se19  1  0.84138200  0.43887500  0.24382100  1
  Se  Se20  1  0.19505400  0.59756100  0.75617900  1
  Se  Se21  1  0.99944100  0.11646700  0.24531300  1
  Se  Se22  1  0.56112500  0.80494600  0.40250700  1
  Se  Se23  1  0.40243900  0.15861800  0.59749300  1
loop_
_geom_bond_atom_site_label_1
_geom_bond_atom_site_label_2
_geom_bond_distance
_geom_bond_site_symmetry_2
Lu0 Se5 2.805369 1_555
Lu0 Se20 2.822129 1_555
Lu0 Se21 2.834868 1_455
Lu0 Se1 2.880032 1_555
Lu0 Se23 2.970781 1_555
Lu0 Se19 3.046220 1_455
Lu0 Se0 3.098374 1_555
Lu0 Se2 3.237877 1_454
Lu1 Se1 2.822730 1_555
Lu1 Se2 2.822730 1_555
Lu1 Se0 2.832822 1_555
Lu1 Se6 2.832824 1_545
Lu1 Se22 3.055467 1_545
Lu1 Se23 3.055467 1_555
Lu1 Se3 3.134826 1_555
Lu1 Se4 3.134826 1_555
Lu2 Se20 2.832702 1_555
Lu2 Se10 2.832702 1_555
Lu2 Se7 2.833305 1_555
Lu2 Se6 2.833310 1_556
Lu2 Se0 3.059642 1_555
Lu2 Se5 3.059643 1_555
Lu2 Se3 3.204138 1_566
Lu2 Se1 3.204138 1_566
Lu3 Se4 2.822730 1_454
Lu3 Se3 2.822730 1_555
Lu3 Se7 2.832822 1_544
Lu3 Se5 2.832822 1_555
Lu3 Se13 3.055467 1_555
Lu3 Se8 3.055467 1_554
Lu3 Se1 3.134826 1_555
Lu3 Se2 3.134826 1_454
Lu4 Se6 2.805357 1_555
Lu4 Se9 2.822136 1_555
Lu4 Se14 2.834881 1_565
Lu4 Se4 2.880024 1_565
Lu4 Se8 2.970782 1_665
Lu4 Se10 3.046228 1_554
Lu4 Se7 3.098364 1_655
Lu4 Se3 3.237875 1_565
Lu5 Se0 2.805357 1_555
Lu5 Se10 2.822138 1_555
Lu5 Se15 2.834866 1_555
Lu5 Se3 2.880023 1_555
Lu5 Se13 2.970778 1_555
Lu5 Se9 3.046224 1_556
Lu5 Se5 3.098373 1_555
Lu5 Se4 3.237872 1_555
Lu6 Se19 2.832702 1_555
Lu6 Se9 2.832702 1_555
Lu6 Se5 2.833302 1_655
Lu6 Se0 2.833305 1_554
Lu6 Se6 3.059638 1_555
Lu6 Se7 3.059642 1_655
Lu6 Se4 3.204138 1_554
Lu6 Se2 3.204138 1_554
Lu7 Se18 2.805369 1_555
Lu7 Se13 2.822129 1_556
Lu7 Se4 2.834868 1_455
Lu7 Se15 2.880032 1_455
Lu7 Se9 2.970781 1_456
Lu7 Se8 3.046220 1_555
Lu7 Se11 3.098374 1_556
Lu7 Se14 3.237877 1_455
Lu8 Se14 2.822730 1_565
Lu8 Se15 2.822730 1_554
Lu8 Se11 2.832822 1_655
Lu8 Se12 2.832824 1_554
Lu8 Se10 3.055467 1_554
Lu8 Se9 3.055467 1_555
Lu8 Se16 3.134826 1_554
Lu8 Se21 3.134826 1_565
Lu9 Se13 2.832702 1_555
Lu9 Se22 2.832702 1_555
Lu9 Se17 2.833305 1_555
Lu9 Se12 2.833310 1_555
Lu9 Se11 3.059642 1_555
Lu9 Se18 3.059643 1_554
Lu9 Se16 3.204138 1_555
Lu9 Se15 3.204138 1_555
Lu10 Se23 2.832702 1_555
Lu10 Se8 2.832702 1_555
Lu10 Se18 2.833302 1_555
Lu10 Se11 2.833305 1_545
Lu10 Se12 3.059638 1_545
Lu10 Se17 3.059642 1_556
Lu10 Se14 3.204138 1_455
Lu10 Se21 3.204138 1_455
Lu11 Se17 2.805345 1_555
Lu11 Se8 2.822136 1_554
Lu11 Se3 2.834881 1_555
Lu11 Se14 2.880024 1_555
Lu11 Se10 2.970782 1_544
Lu11 Se13 3.046228 1_555
Lu11 Se12 3.098355 1_544
Lu11 Se15 3.237875 1_555
Lu12 Se21 2.822730 1_555
Lu12 Se16 2.822730 1_555
Lu12 Se17 2.832822 1_555
Lu12 Se18 2.832822 1_655
Lu12 Se19 3.055467 1_555
Lu12 Se20 3.055467 1_655
Lu12 Se14 3.134826 1_555
Lu12 Se15 3.134826 1_555
Lu13 Se12 2.805357 1_545
Lu13 Se23 2.822136 1_555
Lu13 Se2 2.834881 1_555
Lu13 Se21 2.880024 1_556
Lu13 Se19 2.970782 1_556
Lu13 Se22 3.046228 1_545
Lu13 Se17 3.098364 1_556
Lu13 Se16 3.237875 1_545
Lu14 Se7 2.805345 1_655
Lu14 Se19 2.822136 1_555
Lu14 Se16 2.834881 1_555
Lu14 Se2 2.880024 1_565
Lu14 Se22 2.970782 1_555
Lu14 Se20 3.046228 1_655
Lu14 Se6 3.098355 1_555
Lu14 Se1 3.237875 1_666
Lu15 Se11 2.805357 1_555
Lu15 Se22 2.822138 1_555
Lu15 Se1 2.834866 1_565
Lu15 Se16 2.880023 1_454
Lu15 Se20 2.970778 1_554
Lu15 Se23 3.046224 1_565
Lu15 Se18 3.098373 1_554
Lu15 Se21 3.237872 1_465
