# generated using pymatgen
data_KBiF4
_symmetry_space_group_name_H-M   'P 1'
_cell_length_a   4.46407383
_cell_length_b   4.46407383
_cell_length_c   14.44960480
_cell_angle_alpha   77.15626775
_cell_angle_beta   77.15626775
_cell_angle_gamma   52.70543873
_symmetry_Int_Tables_number   1
_chemical_formula_structural   KBiF4
_chemical_formula_sum   'K2 Bi2 F8'
_cell_volume   221.91346915
_cell_formula_units_Z   2
loop_
 _symmetry_equiv_pos_site_id
 _symmetry_equiv_pos_as_xyz
  1  'x, y, z'
loop_
 _atom_site_type_symbol
 _atom_site_label
 _atom_site_symmetry_multiplicity
 _atom_site_fract_x
 _atom_site_fract_y
 _atom_site_fract_z
 _atom_site_occupancy
  K  K0  1  0.03356700  0.03356700  0.99779800  1
  K  K1  1  0.76744800  0.76744800  0.74162400  1
  Bi  Bi0  1  0.56430800  0.56430800  0.49519600  1
  Bi  Bi1  1  0.27548300  0.27548300  0.23839800  1
  F  F0  1  0.06798900  0.06798900  0.82054800  1
  F  F1  1  0.09100100  0.09100100  0.40784100  1
  F  F2  1  0.06808200  0.06808200  0.59678900  1
  F  F3  1  0.79258400  0.79258400  0.54529000  1
  F  F4  1  0.90893900  0.90893900  0.17785000  1
  F  F5  1  0.78006500  0.78006500  0.36151800  1
  F  F6  1  0.55115800  0.55115800  0.25326900  1
  F  F7  1  0.31037500  0.31037500  0.07487800  1
loop_
_geom_bond_atom_site_label_1
_geom_bond_atom_site_label_2
_geom_bond_distance
_geom_bond_site_symmetry_2
Bi0 F3 2.124880 1_555
Bi0 F5 2.248628 1_555
Bi0 F1 2.330623 1_565
Bi0 F1 2.330623 1_655
Bi0 F2 2.470737 1_565
Bi0 F2 2.470737 1_655
Bi1 F6 2.268366 1_555
Bi1 F7 2.309438 1_555
Bi1 F4 2.317029 1_545
Bi1 F4 2.317029 1_455
Bi1 F1 2.525873 1_555
Bi1 F6 2.646198 1_455
Bi1 F6 2.646198 1_545
Bi1 F5 2.669334 1_545
Bi1 F5 2.669334 1_455
F0 K0 2.507111 1_555
F0 K1 2.621205 1_545
F0 K1 2.621205 1_455
F0 K1 2.905559 1_445
F2 K1 2.768990 1_445
F3 K1 2.793862 1_555
F4 K0 2.544770 1_664
F7 K0 2.714496 1_554
F7 K0 2.714562 1_564
F7 K0 2.714562 1_654
