# generated using pymatgen
data_Cu25Se26
_symmetry_space_group_name_H-M   'P 1'
_cell_length_a   14.42558681
_cell_length_b   14.42071233
_cell_length_c   17.34173474
_cell_angle_alpha   90.00000000
_cell_angle_beta   90.00000000
_cell_angle_gamma   120.06861507
_symmetry_Int_Tables_number   1
_chemical_formula_structural   Cu25Se26
_chemical_formula_sum   'Cu75 Se78'
_cell_volume   3122.07032422
_cell_formula_units_Z   3
loop_
 _symmetry_equiv_pos_site_id
 _symmetry_equiv_pos_as_xyz
  1  'x, y, z'
loop_
 _atom_site_type_symbol
 _atom_site_label
 _atom_site_symmetry_multiplicity
 _atom_site_fract_x
 _atom_site_fract_y
 _atom_site_fract_z
 _atom_site_occupancy
  Cu  Cu0  1  0.12846722  0.94889983  0.39044881  1
  Cu  Cu1  1  0.12846722  0.94889983  0.10955119  1
  Cu  Cu2  1  0.02541286  0.58974300  0.60655077  1
  Cu  Cu3  1  0.02541286  0.58974300  0.89344923  1
  Cu  Cu4  1  0.25588287  0.89617249  0.89063593  1
  Cu  Cu5  1  0.25588287  0.89617249  0.60936407  1
  Cu  Cu6  1  0.20654257  0.72200192  0.75000000  1
  Cu  Cu7  1  0.20412407  0.71817257  0.38730553  1
  Cu  Cu8  1  0.20412407  0.71817257  0.11269447  1
  Cu  Cu9  1  0.10380330  0.35998561  0.60649117  1
  Cu  Cu10  1  0.10380330  0.35998561  0.89350883  1
  Cu  Cu11  1  0.10028594  0.36004300  0.25000000  1
  Cu  Cu12  1  0.05051434  0.17890057  0.10665222  1
  Cu  Cu13  1  0.05354063  0.17834083  0.75000000  1
  Cu  Cu14  1  0.05051434  0.17890057  0.39334778  1
  Cu  Cu15  1  0.32938608  0.66859667  0.25000000  1
  Cu  Cu16  1  0.33329188  0.66698345  0.89352644  1
  Cu  Cu17  1  0.33329188  0.66698345  0.60647356  1
  Cu  Cu18  1  0.28139196  0.48638018  0.39311870  1
  Cu  Cu19  1  0.28221263  0.48729335  0.75000000  1
  Cu  Cu20  1  0.28139196  0.48638018  0.10688130  1
  Cu  Cu21  1  0.56373009  0.97444261  0.60639312  1
  Cu  Cu22  1  0.56373009  0.97444261  0.89360688  1
  Cu  Cu23  1  0.56198278  0.97533251  0.25000000  1
  Cu  Cu24  1  0.51284932  0.79476721  0.75000000  1
  Cu  Cu25  1  0.51323569  0.79581493  0.10684297  1
  Cu  Cu26  1  0.51323569  0.79581493  0.39315703  1
  Cu  Cu27  1  0.17758793  0.12444267  0.25000000  1
  Cu  Cu28  1  0.17939234  0.12817544  0.60946900  1
  Cu  Cu29  1  0.17939234  0.12817544  0.89053100  1
  Cu  Cu30  1  0.41051529  0.43590258  0.25000000  1
  Cu  Cu31  1  0.41054524  0.43577364  0.60656152  1
  Cu  Cu32  1  0.41054524  0.43577364  0.89343848  1
  Cu  Cu33  1  0.35952943  0.25574132  0.10674042  1
  Cu  Cu34  1  0.35521389  0.25378008  0.75000000  1
  Cu  Cu35  1  0.35952943  0.25574132  0.39325958  1
  Cu  Cu36  1  0.64047493  0.74369336  0.60657170  1
  Cu  Cu37  1  0.64047493  0.74369336  0.89342830  1
  Cu  Cu38  1  0.64174524  0.74370870  0.25000000  1
  Cu  Cu39  1  0.58937864  0.56436549  0.39327283  1
  Cu  Cu40  1  0.58954221  0.56408713  0.75000000  1
  Cu  Cu41  1  0.58937864  0.56436549  0.10672717  1
  Cu  Cu42  1  0.82075123  0.87163551  0.10657048  1
  Cu  Cu43  1  0.82075123  0.87163551  0.39342952  1
  Cu  Cu44  1  0.82315991  0.87046623  0.75000000  1
  Cu  Cu45  1  0.48570584  0.20063719  0.25000000  1
  Cu  Cu46  1  0.48591674  0.20401086  0.89328877  1
  Cu  Cu47  1  0.48591674  0.20401086  0.60671123  1
  Cu  Cu48  1  0.43564432  0.02513560  0.39057524  1
  Cu  Cu49  1  0.43564432  0.02513560  0.10942476  1
  Cu  Cu50  1  0.43264783  0.02338080  0.75000000  1
  Cu  Cu51  1  0.71831472  0.51373903  0.89347806  1
  Cu  Cu52  1  0.72133775  0.51472508  0.25000000  1
  Cu  Cu53  1  0.71831472  0.51373903  0.60652194  1
  Cu  Cu54  1  0.66706395  0.33359341  0.39315605  1
  Cu  Cu55  1  0.66706395  0.33359341  0.10684395  1
  Cu  Cu56  1  0.66683921  0.33385267  0.75000000  1
  Cu  Cu57  1  0.95065693  0.81962473  0.25000000  1
  Cu  Cu58  1  0.94950889  0.82063424  0.60939801  1
  Cu  Cu59  1  0.94950889  0.82063424  0.89060199  1
  Cu  Cu60  1  0.89852414  0.64438867  0.75000000  1
  Cu  Cu61  1  0.89710942  0.64068179  0.39057802  1
  Cu  Cu62  1  0.89710942  0.64068179  0.10942198  1
  Cu  Cu63  1  0.79561463  0.28202905  0.60658947  1
  Cu  Cu64  1  0.79561463  0.28202905  0.89341053  1
  Cu  Cu65  1  0.79883717  0.28476560  0.25000000  1
  Cu  Cu66  1  0.74380355  0.10375322  0.39338440  1
  Cu  Cu67  1  0.74380355  0.10375322  0.10661560  1
  Cu  Cu68  1  0.74328256  0.10235650  0.75000000  1
  Cu  Cu69  1  0.97471552  0.41019775  0.75000000  1
  Cu  Cu70  1  0.97495438  0.41081931  0.10948622  1
  Cu  Cu71  1  0.97495438  0.41081931  0.39051378  1
  Cu  Cu72  1  0.87199985  0.05093330  0.60673374  1
  Cu  Cu73  1  0.87199985  0.05093330  0.89326626  1
  Cu  Cu74  1  0.87166364  0.05126555  0.25000000  1
  Se  Se0  1  0.13162951  0.94656511  0.25000000  1
  Se  Se1  1  0.07623163  0.76914462  0.07078788  1
  Se  Se2  1  0.07623163  0.76914462  0.42921212  1
  Se  Se3  1  0.07684543  0.76925491  0.56893604  1
  Se  Se4  1  0.07684543  0.76925491  0.93106396  1
  Se  Se5  1  0.02587793  0.58973217  0.75000000  1
  Se  Se6  1  0.25140612  0.89973095  0.75000000  1
  Se  Se7  1  0.20304777  0.71896270  0.25000000  1
  Se  Se8  1  0.15409669  0.53978462  0.42888568  1
  Se  Se9  1  0.15409669  0.53978462  0.07111432  1
  Se  Se10  1  0.15370872  0.53877136  0.56855751  1
  Se  Se11  1  0.15370872  0.53877136  0.93144249  1
  Se  Se12  1  0.10244328  0.35814874  0.75000000  1
  Se  Se13  1  0.38412433  0.84638560  0.93128391  1
  Se  Se14  1  0.05186251  0.18026236  0.25000000  1
  Se  Se15  1  0.38412433  0.84638560  0.56871609  1
  Se  Se16  1  0.38330695  0.84537772  0.42909561  1
  Se  Se17  1  0.38330695  0.84537772  0.07090439  1
  Se  Se18  1  0.00064297  0.99978146  0.06929808  1
  Se  Se19  1  0.00031193  0.99971830  0.57028024  1
  Se  Se20  1  0.33266073  0.66680210  0.75000000  1
  Se  Se21  1  0.28291974  0.48801971  0.25000000  1
  Se  Se22  1  0.56325385  0.97446921  0.75000000  1
  Se  Se23  1  0.23089998  0.30700552  0.56994721  1
  Se  Se24  1  0.23089998  0.30700552  0.93005279  1
  Se  Se25  1  0.23095414  0.30702923  0.06976907  1
  Se  Se26  1  0.23095414  0.30702923  0.43023093  1
  Se  Se27  1  0.51313549  0.79457979  0.25000000  1
  Se  Se28  1  0.17720503  0.12089389  0.75000000  1
  Se  Se29  1  0.46118914  0.61517272  0.56974816  1
  Se  Se30  1  0.46118914  0.61517272  0.93025184  1
  Se  Se31  1  0.46131740  0.61558860  0.06990917  1
  Se  Se32  1  0.46131740  0.61558860  0.43009083  1
  Se  Se33  1  0.41000427  0.43508732  0.75000000  1
  Se  Se34  1  0.69226238  0.92359503  0.56971245  1
  Se  Se35  1  0.69226238  0.92359503  0.93028755  1
  Se  Se36  1  0.35870448  0.25609109  0.25000000  1
  Se  Se37  1  0.69330334  0.92398561  0.42991813  1
  Se  Se38  1  0.69330334  0.92398561  0.07008187  1
  Se  Se39  1  0.30614904  0.07539319  0.93006625  1
  Se  Se40  1  0.30614904  0.07539319  0.56993375  1
  Se  Se41  1  0.64163497  0.74387139  0.75000000  1
  Se  Se42  1  0.30751074  0.07603292  0.43032548  1
  Se  Se43  1  0.30751074  0.07603292  0.06967452  1
  Se  Se44  1  0.59072620  0.56389456  0.25000000  1
  Se  Se45  1  0.53886158  0.38436904  0.93004417  1
  Se  Se46  1  0.53886158  0.38436904  0.56995583  1
  Se  Se47  1  0.53876421  0.38462465  0.06964095  1
  Se  Se48  1  0.53876421  0.38462465  0.43035905  1
  Se  Se49  1  0.82172468  0.87170433  0.25000000  1
  Se  Se50  1  0.48734734  0.20553838  0.75000000  1
  Se  Se51  1  0.76982823  0.69364935  0.56988615  1
  Se  Se52  1  0.76982823  0.69364935  0.93011385  1
  Se  Se53  1  0.76935688  0.69178531  0.43030593  1
  Se  Se54  1  0.76935688  0.69178531  0.06969407  1
  Se  Se55  1  0.42814369  0.01932734  0.25000000  1
  Se  Se56  1  0.71878843  0.51357818  0.75000000  1
  Se  Se57  1  0.66558602  0.33219634  0.25000000  1
  Se  Se58  1  0.61534079  0.15446680  0.56977336  1
  Se  Se59  1  0.61534079  0.15446680  0.93022664  1
  Se  Se60  1  0.61436407  0.15367830  0.43019198  1
  Se  Se61  1  0.95607009  0.82550296  0.75000000  1
  Se  Se62  1  0.61436407  0.15367830  0.06980802  1
  Se  Se63  1  0.90138122  0.63988133  0.25000000  1
  Se  Se64  1  0.84656014  0.46167639  0.07040335  1
  Se  Se65  1  0.84656014  0.46167639  0.42959665  1
  Se  Se66  1  0.84596631  0.46144372  0.93079868  1
  Se  Se67  1  0.84596631  0.46144372  0.56920132  1
  Se  Se68  1  0.79482138  0.28223943  0.75000000  1
  Se  Se69  1  0.74320449  0.10298171  0.25000000  1
  Se  Se70  1  0.97718273  0.41803556  0.25000000  1
  Se  Se71  1  0.92361149  0.23192395  0.06998927  1
  Se  Se72  1  0.92361149  0.23192395  0.43001073  1
  Se  Se73  1  0.92402434  0.23072131  0.56967682  1
  Se  Se74  1  0.92402434  0.23072131  0.93032318  1
  Se  Se75  1  0.87148429  0.05100584  0.75000000  1
  Se  Se76  1  0.00064297  0.99978146  0.43070192  1
  Se  Se77  1  0.00031193  0.99971830  0.92971976  1
loop_
_geom_bond_atom_site_label_1
_geom_bond_atom_site_label_2
_geom_bond_distance
_geom_bond_site_symmetry_2
Cu0 Se42 2.401098 1_565
Cu0 Se76 2.404492 1_555
Cu0 Se2 2.404545 1_555
Cu0 Se0 2.436602 1_555
Cu1 Se43 2.401098 1_565
Cu1 Se18 2.404492 1_555
Cu1 Se1 2.404545 1_555
Cu1 Se0 2.436602 1_555
Cu2 Se67 2.396724 1_455
Cu2 Se3 2.398468 1_555
Cu2 Se10 2.400595 1_555
Cu2 Se5 2.487668 1_555
Cu3 Se66 2.396724 1_455
Cu3 Se4 2.398468 1_555
Cu3 Se11 2.400595 1_555
Cu3 Se5 2.487668 1_555
Cu4 Se13 2.401180 1_555
Cu4 Se4 2.403114 1_555
Cu4 Se39 2.407282 1_565
Cu4 Se6 2.440946 1_555
Cu5 Se15 2.401180 1_555
Cu5 Se3 2.403114 1_555
Cu5 Se40 2.407282 1_565
Cu5 Se6 2.440946 1_555
Cu6 Se6 2.307716 1_555
Cu6 Se20 2.322678 1_555
Cu6 Se5 2.334328 1_555
Cu7 Se7 2.381231 1_555
Cu7 Se8 2.407919 1_555
Cu7 Se16 2.412485 1_555
Cu7 Se2 2.414770 1_555
Cu8 Se7 2.381231 1_555
Cu8 Se9 2.407919 1_555
Cu8 Se17 2.412485 1_555
Cu8 Se1 2.414770 1_555
Cu9 Se10 2.395472 1_555
Cu9 Se23 2.398025 1_555
Cu9 Se73 2.400799 1_455
Cu9 Se12 2.488806 1_555
Cu10 Se11 2.395472 1_555
Cu10 Se24 2.398025 1_555
Cu10 Se74 2.400799 1_455
Cu10 Se12 2.488806 1_555
Cu11 Se70 2.311100 1_455
Cu11 Se14 2.322626 1_555
Cu11 Se21 2.339822 1_555
Cu12 Se71 2.396426 1_455
Cu12 Se18 2.397305 1_545
Cu12 Se25 2.403959 1_555
Cu12 Se14 2.485976 1_555
Cu13 Se28 2.312925 1_555
Cu13 Se12 2.321228 1_555
Cu13 Se75 2.331658 1_455
Cu14 Se72 2.396426 1_455
Cu14 Se76 2.397305 1_545
Cu14 Se26 2.403959 1_555
Cu14 Se14 2.485976 1_555
Cu15 Se7 2.274975 1_555
Cu15 Se21 2.341207 1_555
Cu15 Se27 2.345451 1_555
Cu16 Se30 2.397746 1_555
Cu16 Se13 2.399696 1_555
Cu16 Se11 2.400475 1_555
Cu16 Se20 2.489011 1_555
Cu17 Se29 2.397746 1_555
Cu17 Se15 2.399696 1_555
Cu17 Se10 2.400475 1_555
Cu17 Se20 2.489011 1_555
Cu18 Se26 2.397326 1_555
Cu18 Se8 2.401455 1_555
Cu18 Se32 2.402800 1_555
Cu18 Se21 2.482032 1_555
Cu19 Se20 2.311474 1_555
Cu19 Se12 2.313837 1_555
Cu19 Se33 2.314280 1_555
Cu20 Se25 2.397326 1_555
Cu20 Se9 2.401455 1_555
Cu20 Se31 2.402800 1_555
Cu20 Se21 2.482032 1_555
Cu21 Se34 2.396368 1_555
Cu21 Se15 2.399056 1_555
Cu21 Se58 2.400080 1_565
Cu21 Se22 2.490402 1_555
Cu22 Se35 2.396368 1_555
Cu22 Se13 2.399056 1_555
Cu22 Se59 2.400080 1_565
Cu22 Se22 2.490402 1_555
Cu23 Se55 2.314647 1_565
Cu23 Se69 2.323893 1_565
Cu23 Se27 2.334581 1_555
Cu24 Se20 2.314130 1_555
Cu24 Se22 2.314311 1_555
Cu24 Se41 2.314414 1_555
Cu25 Se17 2.398886 1_555
Cu25 Se38 2.399791 1_555
Cu25 Se31 2.403200 1_555
Cu25 Se27 2.482650 1_555
Cu26 Se16 2.398886 1_555
Cu26 Se37 2.399791 1_555
Cu26 Se32 2.403200 1_555
Cu26 Se27 2.482650 1_555
Cu27 Se0 2.305481 1_545
Cu27 Se14 2.323852 1_555
Cu27 Se36 2.336666 1_555
Cu28 Se23 2.398374 1_555
Cu28 Se19 2.402423 1_545
Cu28 Se40 2.405758 1_555
Cu28 Se28 2.438836 1_555
Cu29 Se24 2.398374 1_555
Cu29 Se77 2.402423 1_545
Cu29 Se39 2.405758 1_555
Cu29 Se28 2.438836 1_555
Cu30 Se21 2.310637 1_555
Cu30 Se36 2.310903 1_555
Cu30 Se44 2.314454 1_555
Cu31 Se29 2.395880 1_555
Cu31 Se23 2.396868 1_555
Cu31 Se46 2.398716 1_555
Cu31 Se33 2.487488 1_555
Cu32 Se30 2.395880 1_555
Cu32 Se24 2.396868 1_555
Cu32 Se45 2.398716 1_555
Cu32 Se33 2.487488 1_555
Cu33 Se47 2.395405 1_555
Cu33 Se43 2.396572 1_555
Cu33 Se25 2.402692 1_555
Cu33 Se36 2.484415 1_555
Cu34 Se28 2.309806 1_555
Cu34 Se33 2.321622 1_555
Cu34 Se50 2.333663 1_555
Cu35 Se48 2.395405 1_555
Cu35 Se42 2.396572 1_555
Cu35 Se26 2.402692 1_555
Cu35 Se36 2.484415 1_555
Cu36 Se29 2.393409 1_555
Cu36 Se34 2.398957 1_555
Cu36 Se51 2.399358 1_555
Cu36 Se41 2.487344 1_555
Cu37 Se30 2.393409 1_555
Cu37 Se35 2.398957 1_555
Cu37 Se52 2.399358 1_555
Cu37 Se41 2.487344 1_555
Cu38 Se27 2.311718 1_555
Cu38 Se49 2.312051 1_555
Cu38 Se44 2.313693 1_555
Cu39 Se32 2.394465 1_555
Cu39 Se53 2.397704 1_555
Cu39 Se48 2.401813 1_555
Cu39 Se44 2.484711 1_555
Cu40 Se41 2.309558 1_555
Cu40 Se33 2.310934 1_555
Cu40 Se56 2.316797 1_555
Cu41 Se31 2.394465 1_555
Cu41 Se54 2.397704 1_555
Cu41 Se47 2.401813 1_555
Cu41 Se44 2.484711 1_555
Cu42 Se38 2.396092 1_555
Cu42 Se54 2.399662 1_555
Cu42 Se18 2.400316 1_655
Cu42 Se49 2.487354 1_555
Cu43 Se37 2.396092 1_555
Cu43 Se53 2.399662 1_555
Cu43 Se76 2.400316 1_655
Cu43 Se49 2.487354 1_555
Cu44 Se61 2.311332 1_555
Cu44 Se41 2.323672 1_555
Cu44 Se75 2.333566 1_565
Cu45 Se55 2.313037 1_555
Cu45 Se57 2.323686 1_555
Cu45 Se36 2.337539 1_555
Cu46 Se59 2.396500 1_555
Cu46 Se39 2.398340 1_555
Cu46 Se45 2.400767 1_555
Cu46 Se50 2.484968 1_555
Cu47 Se58 2.396500 1_555
Cu47 Se40 2.398340 1_555
Cu47 Se46 2.400767 1_555
Cu47 Se50 2.484968 1_555
Cu48 Se60 2.401243 1_555
Cu48 Se16 2.403073 1_545
Cu48 Se42 2.406240 1_555
Cu48 Se55 2.439795 1_555
Cu49 Se62 2.401243 1_555
Cu49 Se17 2.403073 1_545
Cu49 Se43 2.406240 1_555
Cu49 Se55 2.439795 1_555
Cu50 Se6 2.311613 1_545
Cu50 Se22 2.319242 1_545
Cu50 Se50 2.333638 1_555
Cu51 Se45 2.396771 1_555
Cu51 Se52 2.398957 1_555
Cu51 Se66 2.402105 1_555
Cu51 Se56 2.488172 1_555
Cu52 Se63 2.303423 1_555
Cu52 Se44 2.321965 1_555
Cu52 Se57 2.335366 1_555
Cu53 Se46 2.396771 1_555
Cu53 Se51 2.398957 1_555
Cu53 Se67 2.402105 1_555
Cu53 Se56 2.488172 1_555
Cu54 Se65 2.392292 1_555
Cu54 Se60 2.396957 1_555
Cu54 Se48 2.397518 1_555
Cu54 Se57 2.482661 1_555
Cu55 Se64 2.392292 1_555
Cu55 Se62 2.396957 1_555
Cu55 Se47 2.397518 1_555
Cu55 Se57 2.482661 1_555
Cu56 Se50 2.308068 1_555
Cu56 Se56 2.309237 1_555
Cu56 Se68 2.310734 1_555
Cu57 Se0 2.318953 1_655
Cu57 Se63 2.318960 1_555
Cu57 Se49 2.328755 1_555
Cu58 Se19 2.402108 1_655
Cu58 Se3 2.404034 1_655
Cu58 Se51 2.405194 1_555
Cu58 Se61 2.439764 1_555
Cu59 Se77 2.402108 1_655
Cu59 Se4 2.404034 1_655
Cu59 Se52 2.405194 1_555
Cu59 Se61 2.439764 1_555
Cu60 Se61 2.310405 1_555
Cu60 Se56 2.319455 1_555
Cu60 Se5 2.333964 1_655
Cu61 Se2 2.400155 1_655
Cu61 Se65 2.401434 1_555
Cu61 Se53 2.403121 1_555
Cu61 Se63 2.438819 1_555
Cu62 Se1 2.400155 1_655
Cu62 Se64 2.401434 1_555
Cu62 Se54 2.403121 1_555
Cu62 Se63 2.438819 1_555
Cu63 Se67 2.399761 1_555
Cu63 Se58 2.400141 1_555
Cu63 Se73 2.400407 1_555
Cu63 Se68 2.487023 1_555
Cu64 Se66 2.399761 1_555
Cu64 Se59 2.400141 1_555
Cu64 Se74 2.400407 1_555
Cu64 Se68 2.487023 1_555
Cu65 Se70 2.314697 1_555
Cu65 Se69 2.325491 1_555
Cu65 Se57 2.341002 1_555
Cu66 Se72 2.396563 1_555
Cu66 Se60 2.399891 1_555
Cu66 Se37 2.400015 1_545
Cu66 Se69 2.486555 1_555
Cu67 Se71 2.396563 1_555
Cu67 Se62 2.399891 1_555
Cu67 Se38 2.400015 1_545
Cu67 Se69 2.486555 1_555
Cu68 Se75 2.311043 1_555
Cu68 Se22 2.312198 1_545
Cu68 Se68 2.312832 1_555
Cu69 Se5 2.309314 1_655
Cu69 Se68 2.311035 1_555
Cu69 Se12 2.311755 1_655
Cu70 Se71 2.399663 1_555
Cu70 Se9 2.400784 1_655
Cu70 Se64 2.406018 1_555
Cu70 Se70 2.438498 1_555
Cu71 Se72 2.399663 1_555
Cu71 Se8 2.400784 1_655
Cu71 Se65 2.406018 1_555
Cu71 Se70 2.438498 1_555
Cu72 Se34 2.394959 1_545
Cu72 Se19 2.396060 1_645
Cu72 Se73 2.397572 1_555
Cu72 Se75 2.484498 1_555
Cu73 Se35 2.394959 1_545
Cu73 Se77 2.396060 1_645
Cu73 Se74 2.397572 1_555
Cu73 Se75 2.484498 1_555
Cu74 Se49 2.314023 1_545
Cu74 Se14 2.317773 1_655
Cu74 Se69 2.318414 1_555
Se1 Se4 2.423069 1_554
Se2 Se3 2.423069 1_555
Se10 Se8 2.422185 1_555
Se11 Se9 2.422185 1_556
Se13 Se17 2.421298 1_556
Se15 Se16 2.421298 1_555
Se18 Se77 2.420534 1_554
Se19 Se76 2.420534 1_555
Se23 Se26 2.422923 1_555
Se24 Se25 2.422923 1_556
Se29 Se32 2.421906 1_555
Se30 Se31 2.421906 1_556
Se34 Se37 2.424312 1_555
Se35 Se38 2.424312 1_556
Se39 Se43 2.421109 1_556
Se40 Se42 2.421109 1_555
Se45 Se47 2.420855 1_556
Se46 Se48 2.420855 1_555
Se51 Se53 2.420684 1_555
Se52 Se54 2.420684 1_556
Se58 Se60 2.420618 1_555
Se59 Se62 2.420618 1_556
Se64 Se66 2.420999 1_554
Se65 Se67 2.420999 1_555
Se71 Se74 2.422143 1_554
Se72 Se73 2.422143 1_555
