# generated using pymatgen
data_Li2SnP2O7
_symmetry_space_group_name_H-M   'P 1'
_cell_length_a   5.37131800
_cell_length_b   7.02009459
_cell_length_c   8.94556695
_cell_angle_alpha   108.19812385
_cell_angle_beta   93.24648363
_cell_angle_gamma   110.70343035
_symmetry_Int_Tables_number   1
_chemical_formula_structural   Li2SnP2O7
_chemical_formula_sum   'Li4 Sn2 P4 O14'
_cell_volume   294.40392579
_cell_formula_units_Z   2
loop_
 _symmetry_equiv_pos_site_id
 _symmetry_equiv_pos_as_xyz
  1  'x, y, z'
loop_
 _atom_site_type_symbol
 _atom_site_label
 _atom_site_symmetry_multiplicity
 _atom_site_fract_x
 _atom_site_fract_y
 _atom_site_fract_z
 _atom_site_occupancy
  Li  Li0  1  0.89853800  0.67869700  0.99727800  1
  Li  Li1  1  0.35681500  0.61910900  0.77119100  1
  Li  Li2  1  0.64318500  0.38089100  0.22880900  1
  Li  Li3  1  0.10146200  0.32130300  0.00272200  1
  Sn  Sn0  1  0.13495600  0.12406700  0.35163600  1
  Sn  Sn1  1  0.86504400  0.87593300  0.64836400  1
  P  P0  1  0.47975700  0.84274000  0.14471300  1
  P  P1  1  0.76406400  0.38481600  0.64393500  1
  P  P2  1  0.23593600  0.61518400  0.35606500  1
  P  P3  1  0.52024300  0.15726000  0.85528700  1
  O  O0  1  0.02063800  0.35639900  0.69159200  1
  O  O1  1  0.70115800  0.36293700  0.99409900  1
  O  O2  1  0.36659000  0.02209500  0.16851300  1
  O  O3  1  0.67520900  0.34084400  0.46794600  1
  O  O4  1  0.97936200  0.64360100  0.30840800  1
  O  O5  1  0.76493000  0.60945600  0.75592300  1
  O  O6  1  0.48256400  0.79429100  0.31163700  1
  O  O7  1  0.29884200  0.63706300  0.00590100  1
  O  O8  1  0.23507000  0.39054400  0.24407700  1
  O  O9  1  0.51743600  0.20570900  0.68836300  1
  O  O10  1  0.78122800  0.92222500  0.13152300  1
  O  O11  1  0.32479100  0.65915600  0.53205400  1
  O  O12  1  0.63341000  0.97790500  0.83148700  1
  O  O13  1  0.21877200  0.07777500  0.86847700  1
loop_
_geom_bond_atom_site_label_1
_geom_bond_atom_site_label_2
_geom_bond_distance
_geom_bond_site_symmetry_2
Li0 O10 2.080124 1_556
Li0 O1 2.081819 1_555
Li0 O5 2.082108 1_555
Li0 O7 2.270287 1_656
Li1 O0 1.961725 1_555
Li1 O7 2.111336 1_556
Li1 O5 2.227505 1_555
Li1 O11 2.247894 1_555
Li1 O12 2.292857 1_555
Li2 O4 1.961725 1_555
Li2 O1 2.111336 1_554
Li2 O8 2.227505 1_555
Li2 O3 2.247894 1_555
Li2 O2 2.292857 1_555
Li3 O13 2.080124 1_554
Li3 O7 2.081819 1_555
Li3 O8 2.082108 1_555
Li3 O1 2.270287 1_454
O0 P1 1.517162 1_455
O1 P3 1.523942 1_555
O2 P0 1.545474 1_545
O2 Sn0 2.207275 1_555
O3 P1 1.519456 1_555
O3 Sn0 2.714018 1_555
O4 P2 1.517162 1_655
O5 P1 1.580519 1_555
O5 Sn1 2.277286 1_555
O6 P0 1.632158 1_555
O6 P2 1.639453 1_555
O7 P0 1.523942 1_555
O8 P2 1.580519 1_555
O8 Sn0 2.277286 1_555
O9 P3 1.632158 1_555
O9 P1 1.639453 1_555
O10 P0 1.539901 1_555
O10 Sn0 2.329131 1_665
O11 P2 1.519456 1_555
O11 Sn1 2.714018 1_555
O12 P3 1.545474 1_565
O12 Sn1 2.207275 1_555
O13 P3 1.539901 1_555
O13 Sn1 2.329131 1_445
