# generated using pymatgen
data_Sb2Cl5F4
_symmetry_space_group_name_H-M   'P 1'
_cell_length_a   11.20760650
_cell_length_b   11.20760650
_cell_length_c   18.52056605
_cell_angle_alpha   84.19209395
_cell_angle_beta   84.19209395
_cell_angle_gamma   68.02876819
_symmetry_Int_Tables_number   1
_chemical_formula_structural   Sb2Cl5F4
_chemical_formula_sum   'Sb16 Cl40 F32'
_cell_volume   2141.27855732
_cell_formula_units_Z   8
loop_
 _symmetry_equiv_pos_site_id
 _symmetry_equiv_pos_as_xyz
  1  'x, y, z'
loop_
 _atom_site_type_symbol
 _atom_site_label
 _atom_site_symmetry_multiplicity
 _atom_site_fract_x
 _atom_site_fract_y
 _atom_site_fract_z
 _atom_site_occupancy
  Sb  Sb0  1  0.78256941  0.25535771  0.06493748  1
  Sb  Sb1  1  0.67672258  0.10362584  0.76880477  1
  Sb  Sb2  1  0.48478400  0.42829192  0.65887083  1
  Sb  Sb3  1  0.21743059  0.74464229  0.93506252  1
  Sb  Sb4  1  0.29598888  0.36491878  0.98507634  1
  Sb  Sb5  1  0.74464229  0.21743059  0.43506252  1
  Sb  Sb6  1  0.70401112  0.63508122  0.01492366  1
  Sb  Sb7  1  0.25535771  0.78256941  0.56493748  1
  Sb  Sb8  1  0.42829192  0.48478400  0.15887083  1
  Sb  Sb9  1  0.63508122  0.70401112  0.51492366  1
  Sb  Sb10  1  0.36491878  0.29598888  0.48507634  1
  Sb  Sb11  1  0.10362584  0.67672258  0.26880477  1
  Sb  Sb12  1  0.89637416  0.32327742  0.73119523  1
  Sb  Sb13  1  0.57170808  0.51521600  0.84112917  1
  Sb  Sb14  1  0.32327742  0.89637416  0.23119523  1
  Sb  Sb15  1  0.51521600  0.57170808  0.34112917  1
  Cl  Cl0  1  0.84508639  0.58198355  0.48159880  1
  Cl  Cl1  1  0.26150705  0.92939376  0.90545347  1
  Cl  Cl2  1  0.95377128  0.50188393  0.71521363  1
  Cl  Cl3  1  0.41801645  0.15491361  0.01840120  1
  Cl  Cl4  1  0.33246922  0.18852499  0.39362231  1
  Cl  Cl5  1  0.25401229  0.88045658  0.66891883  1
  Cl  Cl6  1  0.17452933  0.08219360  0.27788093  1
  Cl  Cl7  1  0.87108367  0.59951761  0.92600068  1
  Cl  Cl8  1  0.50188393  0.95377128  0.21521363  1
  Cl  Cl9  1  0.18852499  0.33246922  0.89362231  1
  Cl  Cl10  1  0.15491361  0.41801645  0.51840120  1
  Cl  Cl11  1  0.94063347  0.26221830  0.61329802  1
  Cl  Cl12  1  0.92939376  0.26150705  0.40545347  1
  Cl  Cl13  1  0.82547067  0.91780640  0.72211907  1
  Cl  Cl14  1  0.11954342  0.74598771  0.83108117  1
  Cl  Cl15  1  0.66753078  0.81147501  0.60637769  1
  Cl  Cl16  1  0.73849295  0.07060624  0.09454653  1
  Cl  Cl17  1  0.26221830  0.94063347  0.11329802  1
  Cl  Cl18  1  0.88045658  0.25401229  0.16891883  1
  Cl  Cl19  1  0.91780640  0.82547067  0.22211907  1
  Cl  Cl20  1  0.12891633  0.40048239  0.07399932  1
  Cl  Cl21  1  0.74598771  0.11954342  0.33108117  1
  Cl  Cl22  1  0.03457533  0.82133917  0.01108847  1
  Cl  Cl23  1  0.07060624  0.73849295  0.59454653  1
  Cl  Cl24  1  0.69469922  0.61412147  0.29176354  1
  Cl  Cl25  1  0.05936653  0.73778170  0.38670198  1
  Cl  Cl26  1  0.08219360  0.17452933  0.77788093  1
  Cl  Cl27  1  0.17866083  0.96542467  0.48891153  1
  Cl  Cl28  1  0.40048239  0.12891633  0.57399932  1
  Cl  Cl29  1  0.04622872  0.49811607  0.28478637  1
  Cl  Cl30  1  0.73778170  0.05936653  0.88670198  1
  Cl  Cl31  1  0.58198355  0.84508639  0.98159880  1
  Cl  Cl32  1  0.38587853  0.30530078  0.20823646  1
  Cl  Cl33  1  0.81147501  0.66753078  0.10637769  1
  Cl  Cl34  1  0.59951761  0.87108367  0.42600068  1
  Cl  Cl35  1  0.49811607  0.04622872  0.78478637  1
  Cl  Cl36  1  0.82133917  0.03457533  0.51108847  1
  Cl  Cl37  1  0.96542467  0.17866083  0.98891153  1
  Cl  Cl38  1  0.30530078  0.38587853  0.70823646  1
  Cl  Cl39  1  0.61412147  0.69469922  0.79176354  1
  F  F0  1  0.35838006  0.61325340  0.62142907  1
  F  F1  1  0.32711477  0.69144604  0.01265925  1
  F  F2  1  0.82281110  0.36322133  0.82896908  1
  F  F3  1  0.17701533  0.82298467  0.25000000  1
  F  F4  1  0.82298467  0.17701533  0.75000000  1
  F  F5  1  0.46271068  0.53728932  0.75000000  1
  F  F6  1  0.63677867  0.17718890  0.67103092  1
  F  F7  1  0.28237560  0.57718847  0.28804861  1
  F  F8  1  0.57096507  0.61495304  0.44979971  1
  F  F9  1  0.69144604  0.32711477  0.51265925  1
  F  F10  1  0.36322133  0.82281110  0.32896908  1
  F  F11  1  0.61457124  0.57413098  0.58481160  1
  F  F12  1  0.17718890  0.63677867  0.17103092  1
  F  F13  1  0.71762440  0.42281153  0.71195139  1
  F  F14  1  0.42281153  0.71762440  0.21195139  1
  F  F15  1  0.64161994  0.38674660  0.37857093  1
  F  F16  1  0.30855396  0.67288523  0.48734075  1
  F  F17  1  0.42586902  0.38542876  0.91518840  1
  F  F18  1  0.57718847  0.28237560  0.78804861  1
  F  F19  1  0.61325340  0.35838006  0.12142907  1
  F  F20  1  0.57413098  0.61457124  0.08481160  1
  F  F21  1  0.42903493  0.38504696  0.55020029  1
  F  F22  1  0.38504696  0.42903493  0.05020029  1
  F  F23  1  0.53728932  0.46271068  0.25000000  1
  F  F24  1  0.78790099  0.43736554  0.04277659  1
  F  F25  1  0.38674660  0.64161994  0.87857093  1
  F  F26  1  0.43736554  0.78790099  0.54277659  1
  F  F27  1  0.67288523  0.30855396  0.98734075  1
  F  F28  1  0.61495304  0.57096507  0.94979971  1
  F  F29  1  0.21209901  0.56263446  0.95722341  1
  F  F30  1  0.56263446  0.21209901  0.45722341  1
  F  F31  1  0.38542876  0.42586902  0.41518840  1
loop_
_geom_bond_atom_site_label_1
_geom_bond_atom_site_label_2
_geom_bond_distance
_geom_bond_site_symmetry_2
Cl0 Sb9 2.293297 1_555
Cl1 Sb3 2.304991 1_555
Cl2 Sb12 2.305112 1_555
Cl3 Sb4 2.293297 1_554
Cl4 Sb10 2.305878 1_555
Cl5 Sb7 2.306910 1_555
Cl6 Sb14 2.310583 1_545
Cl7 Sb6 2.308162 1_556
Cl8 Sb14 2.305112 1_555
Cl9 Sb4 2.305878 1_555
Cl10 Sb10 2.293297 1_555
Cl11 Sb12 2.304633 1_555
Cl12 Sb5 2.304991 1_555
Cl13 Sb1 2.310583 1_565
Cl14 Sb3 2.306910 1_555
Cl15 Sb9 2.305878 1_555
Cl16 Sb0 2.304991 1_555
Cl17 Sb14 2.304633 1_555
Cl18 Sb0 2.306910 1_555
Cl19 Sb11 2.310583 1_655
Cl20 Sb4 2.308162 1_554
Cl21 Sb5 2.306910 1_555
Cl22 Sb3 2.294376 1_554
Cl23 Sb7 2.304991 1_555
Cl24 Sb15 2.315955 1_555
Cl25 Sb11 2.304633 1_555
Cl26 Sb12 2.310583 1_455
Cl27 Sb7 2.294376 1_555
Cl28 Sb10 2.308162 1_555
Cl29 Sb11 2.305112 1_555
Cl30 Sb1 2.304633 1_555
Cl31 Sb6 2.293297 1_556
Cl32 Sb8 2.315955 1_555
Cl33 Sb6 2.305878 1_555
Cl34 Sb9 2.308162 1_555
Cl35 Sb1 2.305112 1_555
Cl36 Sb5 2.294376 1_555
Cl37 Sb0 2.294376 1_556
Cl38 Sb2 2.315955 1_555
Cl39 Sb13 2.315955 1_555
F0 Sb7 2.057172 1_555
F0 Sb2 2.120250 1_555
F1 Sb3 1.888837 1_554
F2 Sb12 1.935194 1_555
F3 Sb14 2.078550 1_555
F3 Sb11 2.078550 1_555
F4 Sb12 2.078550 1_555
F4 Sb1 2.078550 1_555
F5 Sb2 2.123367 1_555
F5 Sb13 2.123367 1_555
F6 Sb1 1.935194 1_555
F7 Sb11 1.943362 1_555
F8 Sb9 1.980693 1_555
F8 Sb15 2.313990 1_555
F9 Sb5 1.888837 1_555
F10 Sb14 1.935194 1_555
F11 Sb9 1.912056 1_555
F12 Sb11 1.935194 1_555
F13 Sb12 1.943362 1_555
F14 Sb14 1.943362 1_555
F15 Sb5 2.057172 1_555
F15 Sb15 2.120250 1_555
F16 Sb7 1.888837 1_555
F17 Sb4 1.912056 1_555
F18 Sb1 1.943362 1_555
F19 Sb0 2.057172 1_555
F19 Sb8 2.120250 1_555
F20 Sb6 1.912056 1_555
F21 Sb10 1.980693 1_555
F21 Sb2 2.313990 1_555
F22 Sb4 1.980693 1_554
F22 Sb8 2.313990 1_555
F23 Sb8 2.123367 1_555
F23 Sb15 2.123367 1_555
F24 Sb0 2.061530 1_555
F24 Sb6 2.090028 1_555
F25 Sb3 2.057172 1_555
F25 Sb13 2.120250 1_555
F26 Sb7 2.061530 1_555
F26 Sb9 2.090028 1_555
F27 Sb0 1.888837 1_556
F28 Sb6 1.980693 1_556
F28 Sb13 2.313990 1_555
F29 Sb3 2.061530 1_555
F29 Sb4 2.090028 1_555
F30 Sb5 2.061530 1_555
F30 Sb10 2.090028 1_555
F31 Sb10 1.912056 1_555
