# generated using pymatgen
data_Ce3(Si3Pd10)2
_symmetry_space_group_name_H-M   'P 1'
_cell_length_a   5.38163400
_cell_length_b   9.07197100
_cell_length_c   11.71285277
_cell_angle_alpha   111.81777337
_cell_angle_beta   88.68973160
_cell_angle_gamma   100.28644622
_symmetry_Int_Tables_number   1
_chemical_formula_structural   Ce3(Si3Pd10)2
_chemical_formula_sum   'Ce3 Si6 Pd20'
_cell_volume   521.75890709
_cell_formula_units_Z   1
loop_
 _symmetry_equiv_pos_site_id
 _symmetry_equiv_pos_as_xyz
  1  'x, y, z'
loop_
 _atom_site_type_symbol
 _atom_site_label
 _atom_site_symmetry_multiplicity
 _atom_site_fract_x
 _atom_site_fract_y
 _atom_site_fract_z
 _atom_site_occupancy
  Ce  Ce0  1  0.66415900  0.61830400  0.24360300  1
  Ce  Ce1  1  0.00000000  0.00000000  0.00000000  1
  Ce  Ce2  1  0.33584100  0.38169600  0.75639700  1
  Si  Si0  1  0.09759400  0.39581800  0.20582500  1
  Si  Si1  1  0.62404600  0.98440600  0.70868200  1
  Si  Si2  1  0.20675100  0.97184200  0.62287000  1
  Si  Si3  1  0.79324900  0.02815800  0.37713000  1
  Si  Si4  1  0.37595400  0.01559400  0.29131800  1
  Si  Si5  1  0.90240600  0.60418200  0.79417500  1
  Pd  Pd0  1  0.64313800  0.62008100  0.96850700  1
  Pd  Pd1  1  0.61343100  0.47955000  0.60151600  1
  Pd  Pd2  1  0.17994400  0.83561900  0.76877000  1
  Pd  Pd3  1  0.85926100  0.38187900  0.03546700  1
  Pd  Pd4  1  0.38656900  0.52045000  0.39848400  1
  Pd  Pd5  1  0.82005600  0.16438100  0.23123000  1
  Pd  Pd6  1  0.82482100  0.76861100  0.57245000  1
  Pd  Pd7  1  0.17517900  0.23138900  0.42755000  1
  Pd  Pd8  1  0.11963800  0.88055000  0.40747100  1
  Pd  Pd9  1  0.95127700  0.85756100  0.17886800  1
  Pd  Pd10  1  0.35686200  0.37991900  0.03149300  1
  Pd  Pd11  1  0.36663300  0.21306500  0.19202900  1
  Pd  Pd12  1  0.11902000  0.51901200  0.60979900  1
  Pd  Pd13  1  0.53755300  0.09997900  0.92143100  1
  Pd  Pd14  1  0.14073900  0.61812100  0.96453300  1
  Pd  Pd15  1  0.04872300  0.14243900  0.82113200  1
  Pd  Pd16  1  0.46244700  0.90002100  0.07856900  1
  Pd  Pd17  1  0.88036200  0.11945000  0.59252900  1
  Pd  Pd18  1  0.63336700  0.78693500  0.80797100  1
  Pd  Pd19  1  0.88098000  0.48098800  0.39020100  1
loop_
_geom_bond_atom_site_label_1
_geom_bond_atom_site_label_2
_geom_bond_distance
_geom_bond_site_symmetry_2
Ce0 Pd4 2.628726 1_555
Ce0 Pd9 2.765070 1_555
Ce0 Pd19 2.839446 1_555
Ce0 Pd3 2.906292 1_555
Ce0 Pd10 2.915660 1_555
Ce0 Pd8 3.176592 1_655
Ce0 Si3 3.399742 1_565
Ce1 Pd2 2.809010 1_544
Ce1 Pd5 2.809010 1_455
Ce1 Pd15 2.827363 1_554
Ce1 Pd9 2.827363 1_445
Ce1 Pd11 2.880537 1_555
Ce1 Pd18 2.880537 1_444
Ce1 Pd16 3.065065 1_545
Ce1 Pd13 3.065065 1_454
Ce1 Pd16 3.098401 1_445
Ce1 Pd13 3.098401 1_554
Ce2 Pd1 2.628726 1_555
Ce2 Pd15 2.765070 1_555
Ce2 Pd12 2.839446 1_555
Ce2 Pd14 2.906292 1_555
Ce2 Pd0 2.915660 1_555
Ce2 Pd17 3.176592 1_455
Ce2 Si2 3.399742 1_545
Si1 Si2 2.448097 1_555
Si3 Si4 2.448097 1_555
Pd0 Si5 2.420690 1_555
Pd1 Si5 2.534777 1_555
Pd2 Si2 2.441974 1_555
Pd2 Si5 2.460037 1_455
Pd2 Si1 2.739786 1_555
Pd3 Si0 2.348235 1_655
Pd4 Si0 2.534777 1_555
Pd5 Si3 2.441974 1_555
Pd5 Si0 2.460037 1_655
Pd5 Si4 2.739786 1_555
Pd6 Si2 2.421878 1_655
Pd6 Si1 2.429154 1_555
Pd7 Si3 2.421878 1_455
Pd7 Si4 2.429154 1_555
Pd8 Si2 2.373434 1_555
Pd8 Si4 2.409173 1_565
Pd8 Si3 2.495416 1_465
Pd9 Si3 2.493885 1_565
Pd9 Si4 2.564639 1_665
Pd10 Si0 2.420690 1_555
Pd11 Si0 2.349177 1_555
Pd11 Si4 2.479445 1_555
Pd12 Si5 2.363458 1_455
Pd13 Si1 2.388457 1_545
Pd14 Si5 2.348235 1_455
Pd15 Si2 2.493885 1_545
Pd15 Si1 2.564639 1_445
Pd16 Si4 2.388457 1_565
Pd17 Si3 2.373434 1_555
Pd17 Si1 2.409173 1_545
Pd17 Si2 2.495416 1_645
Pd18 Si5 2.349177 1_555
Pd18 Si1 2.479445 1_555
Pd19 Si0 2.363458 1_655
