# generated using pymatgen
data_Re2Te4Cl22O
_symmetry_space_group_name_H-M   'P 1'
_cell_length_a   12.20627400
_cell_length_b   9.61275700
_cell_length_c   19.82207134
_cell_angle_alpha   65.22139918
_cell_angle_beta   90.00000000
_cell_angle_gamma   90.00000000
_symmetry_Int_Tables_number   1
_chemical_formula_structural   Re2Te4Cl22O
_chemical_formula_sum   'Re4 Te8 Cl44 O2'
_cell_volume   2111.71074025
_cell_formula_units_Z   2
loop_
 _symmetry_equiv_pos_site_id
 _symmetry_equiv_pos_as_xyz
  1  'x, y, z'
loop_
 _atom_site_type_symbol
 _atom_site_label
 _atom_site_symmetry_multiplicity
 _atom_site_fract_x
 _atom_site_fract_y
 _atom_site_fract_z
 _atom_site_occupancy
  Re  Re0  1  0.43333400  0.58387300  0.55881000  1
  Re  Re1  1  0.06666600  0.58387300  0.05881000  1
  Re  Re2  1  0.56666600  0.41612700  0.44119000  1
  Re  Re3  1  0.93333400  0.41612700  0.94119000  1
  Te  Te0  1  0.27809300  0.30707400  0.00706800  1
  Te  Te1  1  0.72190700  0.69292600  0.99293200  1
  Te  Te2  1  0.94094500  0.16181800  0.17510000  1
  Te  Te3  1  0.77809300  0.69292600  0.49293200  1
  Te  Te4  1  0.22190700  0.30707400  0.50706800  1
  Te  Te5  1  0.44094500  0.83818200  0.32490000  1
  Te  Te6  1  0.55905500  0.16181800  0.67510000  1
  Te  Te7  1  0.05905500  0.83818200  0.82490000  1
  Cl  Cl0  1  0.51408200  0.16555300  0.52984800  1
  Cl  Cl1  1  0.40424100  0.43218500  0.91252100  1
  Cl  Cl2  1  0.27514900  0.97771900  0.30965700  1
  Cl  Cl3  1  0.36038300  0.68657600  0.63556400  1
  Cl  Cl4  1  0.45275500  0.93996700  0.71669000  1
  Cl  Cl5  1  0.25984000  0.60890200  0.49835800  1
  Cl  Cl6  1  0.30203400  0.06513400  0.00339000  1
  Cl  Cl7  1  0.01408200  0.83444700  0.97015200  1
  Cl  Cl8  1  0.22485100  0.97771900  0.80965700  1
  Cl  Cl9  1  0.72485100  0.02228100  0.69034300  1
  Cl  Cl10  1  0.80203400  0.93486600  0.49661000  1
  Cl  Cl11  1  0.04724500  0.93996700  0.21669000  1
  Cl  Cl12  1  0.40953900  0.24880400  0.10309100  1
  Cl  Cl13  1  0.13961700  0.68657600  0.13556400  1
  Cl  Cl14  1  0.90424100  0.56781500  0.58747900  1
  Cl  Cl15  1  0.56801900  0.17169500  0.79292000  1
  Cl  Cl16  1  0.59046100  0.75119600  0.89690900  1
  Cl  Cl17  1  0.98591800  0.16555300  0.02984800  1
  Cl  Cl18  1  0.86597900  0.66514000  0.85244700  1
  Cl  Cl19  1  0.93198100  0.17169500  0.29292000  1
  Cl  Cl20  1  0.36597900  0.33486000  0.64755300  1
  Cl  Cl21  1  0.43198100  0.82830500  0.20708000  1
  Cl  Cl22  1  0.59575900  0.56781500  0.08747900  1
  Cl  Cl23  1  0.63961700  0.31342400  0.36443600  1
  Cl  Cl24  1  0.24016000  0.60890200  0.99835800  1
  Cl  Cl25  1  0.48591800  0.83444700  0.47015200  1
  Cl  Cl26  1  0.39257100  0.44741800  0.38044100  1
  Cl  Cl27  1  0.74016000  0.39109800  0.50164200  1
  Cl  Cl28  1  0.09046100  0.24880400  0.60309100  1
  Cl  Cl29  1  0.54724500  0.06003300  0.28331000  1
  Cl  Cl30  1  0.63402100  0.66514000  0.35244700  1
  Cl  Cl31  1  0.09575900  0.43218500  0.41252100  1
  Cl  Cl32  1  0.19796600  0.06513400  0.50339000  1
  Cl  Cl33  1  0.13402100  0.33486000  0.14755300  1
  Cl  Cl34  1  0.95275500  0.06003300  0.78331000  1
  Cl  Cl35  1  0.10742900  0.44741800  0.88044100  1
  Cl  Cl36  1  0.86038300  0.31342400  0.86443600  1
  Cl  Cl37  1  0.69796600  0.93486600  0.99661000  1
  Cl  Cl38  1  0.90953900  0.75119600  0.39690900  1
  Cl  Cl39  1  0.06801900  0.82830500  0.70708000  1
  Cl  Cl40  1  0.75984000  0.39109800  0.00164200  1
  Cl  Cl41  1  0.89257100  0.55258200  0.11955900  1
  Cl  Cl42  1  0.60742900  0.55258200  0.61955900  1
  Cl  Cl43  1  0.77514900  0.02228100  0.19034300  1
  O  O0  1  0.50000000  0.50000000  0.50000000  1
  O  O1  1  0.00000000  0.50000000  0.00000000  1
loop_
_geom_bond_atom_site_label_1
_geom_bond_atom_site_label_2
_geom_bond_distance
_geom_bond_site_symmetry_2
Cl0 Re2 2.398753 1_555
Cl0 Te6 2.916463 1_555
Cl1 Te0 2.332463 1_556
Cl2 Te5 2.376200 1_555
Cl3 Re0 2.311142 1_555
Cl4 Te6 2.331844 1_565
Cl5 Re0 2.395167 1_555
Cl5 Te4 2.870962 1_555
Cl6 Te0 2.375241 1_555
Cl7 Re1 2.398753 1_556
Cl7 Te7 2.916463 1_555
Cl8 Te7 2.376200 1_555
Cl9 Te6 2.376200 1_555
Cl10 Te3 2.375241 1_555
Cl11 Te2 2.331844 1_465
Cl12 Te0 2.370069 1_555
Cl13 Re1 2.311142 1_555
Cl14 Te3 2.332463 1_555
Cl15 Te6 2.379310 1_555
Cl16 Te1 2.370069 1_555
Cl17 Re3 2.398753 1_554
Cl17 Te2 2.916463 1_555
Cl18 Re3 2.443473 1_555
Cl18 Te7 2.803205 1_655
Cl19 Te2 2.379310 1_555
Cl20 Re0 2.443473 1_555
Cl20 Te6 2.803205 1_555
Cl21 Te5 2.379310 1_555
Cl22 Te1 2.332463 1_554
Cl23 Re2 2.311142 1_555
Cl24 Re1 2.395167 1_556
Cl24 Te0 2.870962 1_556
Cl25 Re0 2.398753 1_555
Cl25 Te5 2.916463 1_555
Cl26 Re2 2.398486 1_555
Cl26 Te4 3.101834 1_555
Cl27 Re2 2.395167 1_555
Cl27 Te3 2.870962 1_555
Cl28 Te4 2.370069 1_555
Cl29 Te5 2.331844 1_545
Cl30 Re2 2.443473 1_555
Cl30 Te5 2.803205 1_555
Cl31 Te4 2.332463 1_555
Cl32 Te4 2.375241 1_555
Cl33 Re1 2.443473 1_555
Cl33 Te2 2.803205 1_455
Cl34 Te7 2.331844 1_645
Cl35 Re3 2.398486 1_455
Cl35 Te0 3.101834 1_556
Cl36 Re3 2.311142 1_555
Cl37 Te1 2.375241 1_555
Cl38 Te3 2.370069 1_555
Cl39 Te7 2.379310 1_555
Cl40 Re3 2.395167 1_554
Cl40 Te1 2.870962 1_554
Cl41 Re1 2.398486 1_655
Cl41 Te1 3.101834 1_554
Cl42 Re0 2.398486 1_555
Cl42 Te3 3.101834 1_555
Cl43 Te2 2.376200 1_555
O0 Re0 1.859835 1_555
O0 Re2 1.859835 1_555
O1 Re1 1.859835 1_555
O1 Re3 1.859835 1_454
