# generated using pymatgen
data_Ba(HO2)2
_symmetry_space_group_name_H-M   'P 1'
_cell_length_a   9.56523200
_cell_length_b   4.19257500
_cell_length_c   8.54948652
_cell_angle_alpha   81.61549858
_cell_angle_beta   90.00000000
_cell_angle_gamma   90.00000000
_symmetry_Int_Tables_number   1
_chemical_formula_structural   Ba(HO2)2
_chemical_formula_sum   'Ba4 H8 O16'
_cell_volume   339.19510381
_cell_formula_units_Z   4
loop_
 _symmetry_equiv_pos_site_id
 _symmetry_equiv_pos_as_xyz
  1  'x, y, z'
loop_
 _atom_site_type_symbol
 _atom_site_label
 _atom_site_symmetry_multiplicity
 _atom_site_fract_x
 _atom_site_fract_y
 _atom_site_fract_z
 _atom_site_occupancy
  Ba  Ba0  1  0.29569500  0.37332700  0.63000400  1
  Ba  Ba1  1  0.79569500  0.62667300  0.86999600  1
  Ba  Ba2  1  0.70430500  0.62667300  0.36999600  1
  Ba  Ba3  1  0.20430500  0.37332700  0.13000400  1
  H  H0  1  0.60376000  0.04373000  0.65171000  1
  H  H1  1  0.10376000  0.95627000  0.84829000  1
  H  H2  1  0.39624000  0.95627000  0.34829000  1
  H  H3  1  0.89624000  0.04373000  0.15171000  1
  H  H4  1  0.92850800  0.20671300  0.62694700  1
  H  H5  1  0.42850800  0.79328700  0.87305300  1
  H  H6  1  0.07149200  0.79328700  0.37305300  1
  H  H7  1  0.57149200  0.20671300  0.12694700  1
  O  O0  1  0.49676700  0.84507200  0.64921800  1
  O  O1  1  0.99676700  0.15492800  0.85078200  1
  O  O2  1  0.50323300  0.15492800  0.35078200  1
  O  O3  1  0.00323300  0.84507200  0.14921800  1
  O  O4  1  0.69897000  0.20322800  0.65905900  1
  O  O5  1  0.19897000  0.79677200  0.84094100  1
  O  O6  1  0.30103000  0.79677200  0.34094100  1
  O  O7  1  0.80103000  0.20322800  0.15905900  1
  O  O8  1  0.80768200  0.04993200  0.56789000  1
  O  O9  1  0.30768200  0.95006800  0.93211000  1
  O  O10  1  0.19231800  0.95006800  0.43211000  1
  O  O11  1  0.69231800  0.04993200  0.06789000  1
  O  O12  1  0.00183300  0.33653300  0.68736600  1
  O  O13  1  0.50183300  0.66346700  0.81263400  1
  O  O14  1  0.99816700  0.66346700  0.31263400  1
  O  O15  1  0.49816700  0.33653300  0.18736600  1
loop_
_geom_bond_atom_site_label_1
_geom_bond_atom_site_label_2
_geom_bond_distance
_geom_bond_site_symmetry_2
Ba0 O0 2.780758 1_555
Ba0 O10 2.804436 1_545
Ba0 O6 2.825313 1_555
Ba0 O12 2.853623 1_555
Ba0 O5 2.862468 1_555
Ba0 O13 2.891261 1_555
Ba0 O10 2.914458 1_555
Ba0 O9 2.914896 1_545
Ba0 O0 2.919774 1_545
Ba0 O5 2.946193 1_545
Ba0 H1 2.993179 1_545
Ba0 O2 3.333984 1_555
Ba1 O1 2.780758 1_555
Ba1 O11 2.804436 1_566
Ba1 O7 2.825313 1_556
Ba1 O13 2.853623 1_555
Ba1 O4 2.862468 1_555
Ba1 O12 2.891261 1_655
Ba1 O11 2.914458 1_556
Ba1 O8 2.914896 1_565
Ba1 O1 2.919774 1_565
Ba1 O4 2.946193 1_565
Ba1 H0 2.993179 1_565
Ba1 O3 3.333984 1_656
Ba2 O2 2.780758 1_555
Ba2 O8 2.804436 1_565
Ba2 O4 2.825313 1_555
Ba2 O14 2.853623 1_555
Ba2 O7 2.862468 1_555
Ba2 O15 2.891261 1_555
Ba2 O8 2.914458 1_555
Ba2 O11 2.914896 1_565
Ba2 O2 2.919774 1_565
Ba2 O7 2.946193 1_565
Ba2 H3 2.993179 1_565
Ba2 O0 3.333984 1_555
Ba3 O3 2.780758 1_555
Ba3 O9 2.804436 1_544
Ba3 O5 2.825313 1_554
Ba3 O15 2.853623 1_555
Ba3 O6 2.862468 1_555
Ba3 O14 2.891261 1_455
Ba3 O9 2.914458 1_554
Ba3 O10 2.914896 1_545
Ba3 O3 2.919774 1_545
Ba3 O6 2.946193 1_545
Ba3 H2 2.993179 1_545
Ba3 O1 3.333984 1_454
H0 O4 1.136994 1_555
H0 O0 1.321630 1_545
H1 O5 1.136994 1_555
H1 O1 1.321630 1_465
H2 O6 1.136994 1_555
H2 O2 1.321630 1_565
H3 O7 1.136994 1_555
H3 O3 1.321630 1_645
H4 O12 1.066292 1_655
H4 O8 1.455847 1_555
H5 O13 1.066292 1_555
H5 O9 1.455847 1_555
H6 O14 1.066292 1_455
H6 O10 1.455847 1_555
H7 O15 1.066292 1_555
H7 O11 1.455847 1_555
