# generated using pymatgen
data_CsTbZnTe3
_symmetry_space_group_name_H-M   'P 1'
_cell_length_a   4.44044000
_cell_length_b   8.93509715
_cell_length_c   11.78424400
_cell_angle_alpha   90.00000000
_cell_angle_beta   90.00000000
_cell_angle_gamma   104.38776377
_symmetry_Int_Tables_number   1
_chemical_formula_structural   CsTbZnTe3
_chemical_formula_sum   'Cs2 Tb2 Zn2 Te6'
_cell_volume   452.88478390
_cell_formula_units_Z   2
loop_
 _symmetry_equiv_pos_site_id
 _symmetry_equiv_pos_as_xyz
  1  'x, y, z'
loop_
 _atom_site_type_symbol
 _atom_site_label
 _atom_site_symmetry_multiplicity
 _atom_site_fract_x
 _atom_site_fract_y
 _atom_site_fract_z
 _atom_site_occupancy
  Cs  Cs0  1  0.75457000  0.50914000  0.75000000  1
  Cs  Cs1  1  0.24543000  0.49086000  0.25000000  1
  Tb  Tb0  1  0.50000000  0.00000000  0.50000000  1
  Tb  Tb1  1  0.50000000  0.00000000  0.00000000  1
  Zn  Zn0  1  0.03867100  0.07734200  0.75000000  1
  Zn  Zn1  1  0.96132900  0.92265800  0.25000000  1
  Te  Te0  1  0.55776200  0.11552400  0.25000000  1
  Te  Te1  1  0.11978400  0.23956800  0.94372700  1
  Te  Te2  1  0.11978400  0.23956800  0.55627300  1
  Te  Te3  1  0.44223800  0.88447600  0.75000000  1
  Te  Te4  1  0.88021600  0.76043200  0.44372700  1
  Te  Te5  1  0.88021600  0.76043200  0.05627300  1
loop_
_geom_bond_atom_site_label_1
_geom_bond_atom_site_label_2
_geom_bond_distance
_geom_bond_site_symmetry_2
Cs0 Te3 3.934717 1_655
Cs0 Te3 3.934717 1_555
Cs0 Te1 3.947723 1_655
Cs0 Te2 3.947723 1_655
Cs0 Te2 3.947723 1_555
Cs0 Te1 3.947723 1_555
Cs0 Te5 4.213843 1_556
Cs0 Te4 4.213843 1_555
Cs1 Te0 3.934717 1_555
Cs1 Te0 3.934717 1_455
Cs1 Te5 3.947723 1_555
Cs1 Te4 3.947723 1_455
Cs1 Te4 3.947723 1_555
Cs1 Te5 3.947723 1_455
Cs1 Te2 4.213843 1_555
Cs1 Te1 4.213843 1_554
Tb0 Te2 3.109377 1_655
Tb0 Te2 3.109377 1_555
Tb0 Te4 3.109377 1_445
Tb0 Te4 3.109377 1_545
Tb0 Te0 3.111103 1_555
Tb0 Te3 3.111103 1_545
Tb1 Te1 3.109377 1_654
Tb1 Te1 3.109377 1_554
Tb1 Te5 3.109377 1_445
Tb1 Te5 3.109377 1_545
Tb1 Te0 3.111103 1_555
Tb1 Te3 3.111103 1_544
Te0 Zn1 2.777715 1_445
Te0 Zn1 2.777715 1_545
Te1 Zn0 2.680129 1_555
Te2 Zn0 2.680129 1_555
Te3 Zn0 2.777715 1_565
Te3 Zn0 2.777715 1_665
Te4 Zn1 2.680129 1_555
Te5 Zn1 2.680129 1_555
