# generated using pymatgen
data_Ca3La3(BO3)5
_symmetry_space_group_name_H-M   'P 1'
_cell_length_a   10.60468422
_cell_length_b   10.60468422
_cell_length_c   6.44457600
_cell_angle_alpha   90.00000000
_cell_angle_beta   90.00000000
_cell_angle_gamma   120.00000139
_symmetry_Int_Tables_number   1
_chemical_formula_structural   Ca3La3(BO3)5
_chemical_formula_sum   'Ca6 La6 B10 O30'
_cell_volume   627.65422591
_cell_formula_units_Z   2
loop_
 _symmetry_equiv_pos_site_id
 _symmetry_equiv_pos_as_xyz
  1  'x, y, z'
loop_
 _atom_site_type_symbol
 _atom_site_label
 _atom_site_symmetry_multiplicity
 _atom_site_fract_x
 _atom_site_fract_y
 _atom_site_fract_z
 _atom_site_occupancy
  Ca  Ca0  1  0.47301300  0.52698700  0.76418200  1
  Ca  Ca1  1  0.94602700  0.47301300  0.26418200  1
  Ca  Ca2  1  0.52698700  0.05397300  0.26418200  1
  Ca  Ca3  1  0.47301300  0.94602700  0.76418200  1
  Ca  Ca4  1  0.05397300  0.52698700  0.76418200  1
  Ca  Ca5  1  0.52698700  0.47301300  0.26418200  1
  La  La0  1  0.15561500  0.84438500  0.07951200  1
  La  La1  1  0.31123000  0.15561500  0.57951200  1
  La  La2  1  0.84438500  0.68877000  0.57951200  1
  La  La3  1  0.15561500  0.31123000  0.07951200  1
  La  La4  1  0.68877000  0.84438500  0.07951200  1
  La  La5  1  0.84438500  0.15561500  0.57951200  1
  B  B0  1  0.00000000  0.00000000  0.74616400  1
  B  B1  1  0.33333300  0.66666700  0.09817600  1
  B  B2  1  0.66666700  0.33333300  0.59817600  1
  B  B3  1  0.00000000  0.00000000  0.24616400  1
  B  B4  1  0.80206200  0.19793800  0.04781600  1
  B  B5  1  0.60412500  0.80206200  0.54781600  1
  B  B6  1  0.19793800  0.39587500  0.54781600  1
  B  B7  1  0.80206200  0.60412500  0.04781600  1
  B  B8  1  0.39587500  0.19793800  0.04781600  1
  B  B9  1  0.19793800  0.80206200  0.54781600  1
  O  O0  1  0.18085300  0.59042700  0.09750500  1
  O  O1  1  0.59042700  0.40957300  0.59750500  1
  O  O2  1  0.40957300  0.81914700  0.09750500  1
  O  O3  1  0.59042700  0.18085300  0.59750500  1
  O  O4  1  0.81914700  0.40957300  0.59750500  1
  O  O5  1  0.40957300  0.59042700  0.09750500  1
  O  O6  1  0.22593300  0.77406700  0.74503100  1
  O  O7  1  0.45186700  0.22593300  0.24503100  1
  O  O8  1  0.77406700  0.54813300  0.24503100  1
  O  O9  1  0.77406700  0.22593300  0.24503100  1
  O  O10  1  0.22593300  0.45186700  0.74503100  1
  O  O11  1  0.54813300  0.77406700  0.74503100  1
  O  O12  1  0.62819600  0.92842200  0.44634000  1
  O  O13  1  0.69977400  0.62819600  0.94634000  1
  O  O14  1  0.92842200  0.30022600  0.94634000  1
  O  O15  1  0.07157800  0.69977400  0.44634000  1
  O  O16  1  0.30022600  0.37180400  0.44634000  1
  O  O17  1  0.37180400  0.07157800  0.94634000  1
  O  O18  1  0.30022600  0.92842200  0.44634000  1
  O  O19  1  0.62819600  0.69977400  0.44634000  1
  O  O20  1  0.07157800  0.37180400  0.44634000  1
  O  O21  1  0.92842200  0.62819600  0.94634000  1
  O  O22  1  0.69977400  0.07157800  0.94634000  1
  O  O23  1  0.37180400  0.30022600  0.94634000  1
  O  O24  1  0.07529400  0.92470600  0.73952800  1
  O  O25  1  0.15058700  0.07529400  0.23952800  1
  O  O26  1  0.92470600  0.84941300  0.23952800  1
  O  O27  1  0.07529400  0.15058700  0.73952800  1
  O  O28  1  0.84941300  0.92470600  0.73952800  1
  O  O29  1  0.92470600  0.07529400  0.23952800  1
loop_
_geom_bond_atom_site_label_1
_geom_bond_atom_site_label_2
_geom_bond_distance
_geom_bond_site_symmetry_2
Ca0 O11 2.329807 1_555
Ca0 O10 2.329807 1_555
Ca0 O23 2.394121 1_555
Ca0 O13 2.394121 1_555
Ca0 O1 2.409343 1_555
Ca0 O5 2.443822 1_556
Ca0 O19 2.691850 1_555
Ca0 O16 2.691850 1_555
Ca1 O9 2.329807 1_555
Ca1 O8 2.329807 1_555
Ca1 O20 2.394113 1_655
Ca1 O15 2.394120 1_655
Ca1 O0 2.409327 1_655
Ca1 O4 2.443822 1_555
Ca1 O14 2.691847 1_554
Ca1 O21 2.691854 1_554
Ca2 O9 2.329807 1_555
Ca2 O7 2.329807 1_555
Ca2 O12 2.394113 1_545
Ca2 O18 2.394120 1_545
Ca2 O2 2.409327 1_545
Ca2 O3 2.443822 1_555
Ca2 O22 2.691847 1_554
Ca2 O17 2.691854 1_554
Ca3 O6 2.329807 1_555
Ca3 O11 2.329807 1_555
Ca3 O17 2.394113 1_565
Ca3 O22 2.394120 1_565
Ca3 O3 2.409327 1_565
Ca3 O2 2.443822 1_556
Ca3 O18 2.691847 1_555
Ca3 O12 2.691854 1_555
Ca4 O6 2.329807 1_555
Ca4 O10 2.329807 1_555
Ca4 O21 2.394113 1_455
Ca4 O14 2.394120 1_455
Ca4 O4 2.409327 1_455
Ca4 O0 2.443822 1_556
Ca4 O15 2.691847 1_555
Ca4 O20 2.691854 1_555
Ca5 O8 2.329807 1_555
Ca5 O7 2.329807 1_555
Ca5 O19 2.394121 1_555
Ca5 O16 2.394121 1_555
Ca5 O5 2.409343 1_555
Ca5 O1 2.443822 1_555
Ca5 O13 2.691850 1_554
Ca5 O23 2.691850 1_554
La0 O17 2.504758 1_564
La0 O21 2.504758 1_454
La0 O6 2.512920 1_554
La0 O24 2.641457 1_554
La0 O26 2.681990 1_455
La0 O25 2.681990 1_565
La0 O15 2.714416 1_555
La0 O18 2.714416 1_555
La0 O2 2.838820 1_555
La0 O0 2.838820 1_555
La1 O18 2.504758 1_545
La1 O16 2.504758 1_555
La1 O7 2.512925 1_555
La1 O25 2.641462 1_555
La1 O27 2.681980 1_555
La1 O24 2.681985 1_545
La1 O23 2.714416 1_555
La1 O17 2.714416 1_555
La1 O1 2.838826 1_555
La1 O3 2.838831 1_555
La2 O15 2.504758 1_655
La2 O19 2.504758 1_555
La2 O8 2.512925 1_555
La2 O26 2.641462 1_555
La2 O28 2.681980 1_555
La2 O24 2.681985 1_655
La2 O13 2.714416 1_555
La2 O21 2.714416 1_555
La2 O1 2.838826 1_555
La2 O4 2.838831 1_555
La3 O14 2.504758 1_454
La3 O23 2.504758 1_554
La3 O10 2.512925 1_554
La3 O27 2.641462 1_554
La3 O25 2.681980 1_555
La3 O29 2.681985 1_455
La3 O16 2.714416 1_555
La3 O20 2.714416 1_555
La3 O5 2.838826 1_555
La3 O0 2.838831 1_555
La4 O22 2.504758 1_564
La4 O13 2.504758 1_554
La4 O11 2.512925 1_554
La4 O28 2.641462 1_554
La4 O26 2.681980 1_555
La4 O29 2.681985 1_565
La4 O19 2.714416 1_555
La4 O12 2.714416 1_555
La4 O5 2.838826 1_555
La4 O2 2.838831 1_555
La5 O20 2.504758 1_655
La5 O12 2.504758 1_545
La5 O9 2.512920 1_555
La5 O29 2.641457 1_555
La5 O28 2.681990 1_545
La5 O27 2.681990 1_655
La5 O14 2.714416 1_555
La5 O22 2.714416 1_555
La5 O3 2.838820 1_555
La5 O4 2.838820 1_555
B0 O27 1.383641 1_555
B0 O28 1.383641 1_445
B0 O24 1.383650 1_545
B1 O2 1.400372 1_555
B1 O0 1.400372 1_555
B1 O5 1.400372 1_555
B2 O4 1.400372 1_555
B2 O3 1.400372 1_555
B2 O1 1.400372 1_555
B3 O25 1.383641 1_555
B3 O26 1.383641 1_445
B3 O29 1.383650 1_455
B4 O9 1.371046 1_555
B4 O14 1.395131 1_554
B4 O22 1.395131 1_554
B5 O11 1.371053 1_555
B5 O19 1.395125 1_555
B5 O12 1.395135 1_555
B6 O10 1.371053 1_555
B6 O16 1.395125 1_555
B6 O20 1.395135 1_555
B7 O8 1.371053 1_555
B7 O13 1.395125 1_554
B7 O21 1.395135 1_554
B8 O7 1.371053 1_555
B8 O23 1.395125 1_554
B8 O17 1.395135 1_554
B9 O6 1.371046 1_555
B9 O18 1.395131 1_555
B9 O15 1.395131 1_555
