# generated using pymatgen
data_Na3H7Ru
_symmetry_space_group_name_H-M   'P 1'
_cell_length_a   9.46619946
_cell_length_b   9.46619946
_cell_length_c   5.22350217
_cell_angle_alpha   90.00000000
_cell_angle_beta   90.00000000
_cell_angle_gamma   90.00000000
_symmetry_Int_Tables_number   1
_chemical_formula_structural   Na3H7Ru
_chemical_formula_sum   'Na12 H28 Ru4'
_cell_volume   468.07245188
_cell_formula_units_Z   4
loop_
 _symmetry_equiv_pos_site_id
 _symmetry_equiv_pos_as_xyz
  1  'x, y, z'
loop_
 _atom_site_type_symbol
 _atom_site_label
 _atom_site_symmetry_multiplicity
 _atom_site_fract_x
 _atom_site_fract_y
 _atom_site_fract_z
 _atom_site_occupancy
  Na  Na0  1  0.69939063  0.96510767  0.50000000  1
  Na  Na1  1  0.30060937  0.03489233  0.50000000  1
  Na  Na2  1  0.19939063  0.53489233  0.00000000  1
  Na  Na3  1  0.80060937  0.46510767  0.00000000  1
  Na  Na4  1  0.96510767  0.69939063  0.50000000  1
  Na  Na5  1  0.03489233  0.30060937  0.50000000  1
  Na  Na6  1  0.53489233  0.19939063  0.00000000  1
  Na  Na7  1  0.46510767  0.80060937  0.00000000  1
  Na  Na8  1  0.38537729  0.38537729  0.50000000  1
  Na  Na9  1  0.61462271  0.61462271  0.50000000  1
  Na  Na10  1  0.88537729  0.11462271  0.00000000  1
  Na  Na11  1  0.11462271  0.88537729  0.00000000  1
  H  H0  1  0.60511339  0.39488661  0.69894129  1
  H  H1  1  0.39488661  0.60511339  0.69894129  1
  H  H2  1  0.10511339  0.10511339  0.19894129  1
  H  H3  1  0.89488661  0.89488661  0.19894129  1
  H  H4  1  0.39488661  0.60511339  0.30105871  1
  H  H5  1  0.60511339  0.39488661  0.30105871  1
  H  H6  1  0.89488661  0.89488661  0.80105871  1
  H  H7  1  0.10511339  0.10511339  0.80105871  1
  H  H8  1  0.74319043  0.25680957  0.20579004  1
  H  H9  1  0.25680957  0.74319043  0.20579004  1
  H  H10  1  0.24319043  0.24319043  0.70579004  1
  H  H11  1  0.75680957  0.75680957  0.70579004  1
  H  H12  1  0.25680957  0.74319043  0.79420996  1
  H  H13  1  0.74319043  0.25680957  0.79420996  1
  H  H14  1  0.75680957  0.75680957  0.29420996  1
  H  H15  1  0.24319043  0.24319043  0.29420996  1
  H  H16  1  0.56858708  0.17443462  0.50000000  1
  H  H17  1  0.43141292  0.82556538  0.50000000  1
  H  H18  1  0.06858708  0.32556538  0.00000000  1
  H  H19  1  0.93141292  0.67443462  0.00000000  1
  H  H20  1  0.17443462  0.56858708  0.50000000  1
  H  H21  1  0.82556538  0.43141292  0.50000000  1
  H  H22  1  0.32556538  0.06858708  0.00000000  1
  H  H23  1  0.67443462  0.93141292  0.00000000  1
  H  H24  1  0.82559912  0.17440088  0.50000000  1
  H  H25  1  0.17440088  0.82559912  0.50000000  1
  H  H26  1  0.32559912  0.32559912  0.00000000  1
  H  H27  1  0.67440088  0.67440088  0.00000000  1
  Ru  Ru0  1  0.70233430  0.29766570  0.50000000  1
  Ru  Ru1  1  0.29766570  0.70233430  0.50000000  1
  Ru  Ru2  1  0.20233430  0.20233430  0.00000000  1
  Ru  Ru3  1  0.79766570  0.79766570  0.00000000  1
loop_
_geom_bond_atom_site_label_1
_geom_bond_atom_site_label_2
_geom_bond_distance
_geom_bond_site_symmetry_2
H0 Ru0 1.665480 1_555
H0 Na8 2.326940 1_555
H0 Na9 2.326940 1_555
H0 Na6 2.517858 1_556
H0 Na3 2.517858 1_556
H1 Ru1 1.665480 1_555
H1 Na8 2.326940 1_555
H1 Na9 2.326940 1_555
H1 Na2 2.517858 1_556
H1 Na7 2.517858 1_556
H2 Ru2 1.665480 1_555
H2 Na11 2.326940 1_545
H2 Na10 2.326940 1_455
H2 Na1 2.517858 1_555
H2 Na5 2.517858 1_555
H3 Ru3 1.665480 1_555
H3 Na10 2.326940 1_565
H3 Na11 2.326940 1_655
H3 Na0 2.517858 1_555
H3 Na4 2.517858 1_555
H4 Ru1 1.665480 1_555
H4 Na9 2.326940 1_555
H4 Na8 2.326940 1_555
H4 Na2 2.517858 1_555
H4 Na7 2.517858 1_555
H5 Ru0 1.665480 1_555
H5 Na9 2.326940 1_555
H5 Na8 2.326940 1_555
H5 Na6 2.517858 1_555
H5 Na3 2.517858 1_555
H6 Ru3 1.665480 1_556
H6 Na10 2.326940 1_566
H6 Na11 2.326940 1_656
H6 Na0 2.517858 1_555
H6 Na4 2.517858 1_555
H7 Ru2 1.665480 1_556
H7 Na11 2.326940 1_546
H7 Na10 2.326940 1_456
H7 Na5 2.517858 1_555
H7 Na1 2.517858 1_555
H8 Ru0 1.631235 1_555
H8 Na10 2.186040 1_555
H8 Na6 2.310606 1_555
H8 Na3 2.310606 1_555
H9 Ru1 1.631235 1_555
H9 Na11 2.186040 1_555
H9 Na7 2.310606 1_555
H9 Na2 2.310606 1_555
H10 Ru2 1.631235 1_556
H10 Na8 2.186040 1_555
H10 Na1 2.310606 1_555
H10 Na5 2.310606 1_555
H11 Ru3 1.631235 1_556
H11 Na9 2.186040 1_555
H11 Na4 2.310606 1_555
H11 Na0 2.310606 1_555
H12 Ru1 1.631235 1_555
H12 Na11 2.186040 1_556
H12 Na7 2.310606 1_556
H12 Na2 2.310606 1_556
H13 Ru0 1.631235 1_555
H13 Na10 2.186040 1_556
H13 Na3 2.310606 1_556
H13 Na6 2.310606 1_556
H14 Ru3 1.631235 1_555
H14 Na9 2.186040 1_555
H14 Na4 2.310606 1_555
H14 Na0 2.310606 1_555
H15 Ru2 1.631235 1_555
H15 Na8 2.186040 1_555
H15 Na1 2.310606 1_555
H15 Na5 2.310606 1_555
H16 Ru0 1.721553 1_555
H16 Na0 2.336586 1_545
H16 Na6 2.641740 1_555
H16 Na6 2.641740 1_556
H16 Na8 2.644827 1_555
H17 Ru1 1.721553 1_555
H17 Na1 2.336586 1_565
H17 Na7 2.641740 1_556
H17 Na7 2.641740 1_555
H17 Na9 2.644827 1_555
H18 Ru2 1.721553 1_555
H18 Na2 2.336586 1_555
H18 Na5 2.641740 1_555
H18 Na5 2.641740 1_554
H18 Na10 2.644827 1_455
H19 Ru3 1.721553 1_555
H19 Na3 2.336586 1_555
H19 Na4 2.641740 1_555
H19 Na4 2.641740 1_554
H19 Na11 2.644827 1_655
H20 Ru1 1.721553 1_555
H20 Na4 2.336586 1_455
H20 Na2 2.641740 1_556
H20 Na2 2.641740 1_555
H20 Na8 2.644827 1_555
H21 Ru0 1.721553 1_555
H21 Na5 2.336586 1_655
H21 Na3 2.641740 1_556
H21 Na3 2.641740 1_555
H21 Na9 2.644827 1_555
H22 Ru2 1.721553 1_555
H22 Na6 2.336586 1_555
H22 Na1 2.641740 1_555
H22 Na1 2.641740 1_554
H22 Na11 2.644827 1_545
H23 Ru3 1.721553 1_555
H23 Na7 2.336586 1_555
H23 Na0 2.641740 1_555
H23 Na0 2.641740 1_554
H23 Na10 2.644827 1_565
H24 Ru0 1.650174 1_555
H24 Na5 2.313556 1_655
H24 Na0 2.313556 1_545
H25 Ru1 1.650174 1_555
H25 Na1 2.313556 1_565
H25 Na4 2.313556 1_455
H26 Ru2 1.650174 1_555
H26 Na2 2.313556 1_555
H26 Na6 2.313556 1_555
H27 Ru3 1.650174 1_555
H27 Na7 2.313556 1_555
H27 Na3 2.313556 1_555
