# generated using pymatgen
data_Ca5NbN5
_symmetry_space_group_name_H-M   'P 1'
_cell_length_a   6.93954310
_cell_length_b   6.93954310
_cell_length_c   8.83043225
_cell_angle_alpha   80.96148206
_cell_angle_beta   80.96148206
_cell_angle_gamma   60.19423940
_symmetry_Int_Tables_number   1
_chemical_formula_structural   Ca5NbN5
_chemical_formula_sum   'Ca10 Nb2 N10'
_cell_volume   362.86140762
_cell_formula_units_Z   2
loop_
 _symmetry_equiv_pos_site_id
 _symmetry_equiv_pos_as_xyz
  1  'x, y, z'
loop_
 _atom_site_type_symbol
 _atom_site_label
 _atom_site_symmetry_multiplicity
 _atom_site_fract_x
 _atom_site_fract_y
 _atom_site_fract_z
 _atom_site_occupancy
  Ca  Ca0  1  0.87557780  0.35820648  0.83888059  1
  Ca  Ca1  1  0.87302290  0.87302290  0.82568310  1
  Ca  Ca2  1  0.73443096  0.73443096  0.53389151  1
  Ca  Ca3  1  0.74843538  0.25805422  0.50757533  1
  Ca  Ca4  1  0.61869622  0.14150964  0.14890450  1
  Ca  Ca5  1  0.35820648  0.87557780  0.83888059  1
  Ca  Ca6  1  0.25805422  0.74843538  0.50757533  1
  Ca  Ca7  1  0.24104631  0.24104631  0.49046094  1
  Ca  Ca8  1  0.14529472  0.14529472  0.16408482  1
  Ca  Ca9  1  0.14150964  0.61869622  0.14890450  1
  Nb  Nb0  1  0.63304587  0.63304587  0.22045922  1
  Nb  Nb1  1  0.36969942  0.36969942  0.77011035  1
  N  N0  1  0.91779912  0.46809461  0.32346153  1
  N  N1  1  0.99446710  0.99446710  0.03144381  1
  N  N2  1  0.68182968  0.68182968  0.99933674  1
  N  N3  1  0.53778792  0.53778792  0.69182634  1
  N  N4  1  0.46809461  0.91779912  0.32346153  1
  N  N5  1  0.53961121  0.08522041  0.67215724  1
  N  N6  1  0.46595983  0.46595983  0.29957801  1
  N  N7  1  0.31756332  0.31756332  0.99067996  1
  N  N8  1  0.05693288  0.05693288  0.64629082  1
  N  N9  1  0.08522041  0.53961121  0.67215724  1
loop_
_geom_bond_atom_site_label_1
_geom_bond_atom_site_label_2
_geom_bond_distance
_geom_bond_site_symmetry_2
Ca0 N2 2.501679 1_555
Ca0 N3 2.505590 1_555
Ca0 N9 2.536558 1_655
Ca0 N8 2.583807 1_655
Ca0 N1 2.639225 1_546
Ca1 N8 2.473024 1_665
Ca1 N5 2.516128 1_565
Ca1 N9 2.516128 1_655
Ca1 N2 2.518675 1_555
Ca1 N1 2.527878 1_556
Ca2 N3 2.514884 1_555
Ca2 N5 2.527423 1_565
Ca2 N9 2.527423 1_655
Ca2 N0 2.546806 1_555
Ca2 N4 2.546806 1_555
Ca3 N8 2.312561 1_655
Ca3 N3 2.444682 1_555
Ca3 N5 2.483784 1_555
Ca3 N0 2.550929 1_555
Ca3 N6 2.604750 1_555
Ca4 N7 2.377958 1_554
Ca4 N1 2.398859 1_545
Ca4 N6 2.467556 1_555
Ca4 N4 2.496643 1_545
Ca5 N2 2.501679 1_555
Ca5 N3 2.505590 1_555
Ca5 N5 2.536558 1_565
Ca5 N8 2.583807 1_565
Ca5 N1 2.639225 1_456
Ca6 N8 2.312561 1_565
Ca6 N3 2.444682 1_555
Ca6 N9 2.483784 1_555
Ca6 N4 2.550929 1_555
Ca6 N6 2.604750 1_555
Ca7 N8 2.382516 1_555
Ca7 N9 2.511663 1_555
Ca7 N5 2.511663 1_555
Ca7 N4 2.546529 1_545
Ca7 N0 2.546529 1_455
Ca7 N6 2.912372 1_555
Ca8 N1 2.328608 1_445
Ca8 N7 2.339531 1_554
Ca8 N4 2.503553 1_545
Ca8 N0 2.503553 1_455
Ca9 N7 2.377958 1_554
Ca9 N1 2.398859 1_455
Ca9 N6 2.467556 1_555
Ca9 N0 2.496643 1_455
N0 Nb0 2.007814 1_555
N2 Nb0 1.934021 1_556
N3 Nb1 2.011228 1_555
N4 Nb0 2.007814 1_555
N5 Nb1 1.984379 1_555
N6 Nb0 2.001121 1_555
N7 Nb1 1.934616 1_555
N9 Nb1 1.984379 1_555
