# generated using pymatgen
data_KEu2CuS6
_symmetry_space_group_name_H-M   'P 1'
_cell_length_a   21.99498357
_cell_length_b   21.71574215
_cell_length_c   6.80730655
_cell_angle_alpha   83.37029800
_cell_angle_beta   78.72564323
_cell_angle_gamma   17.90405877
_symmetry_Int_Tables_number   1
_chemical_formula_structural   KEu2CuS6
_chemical_formula_sum   'K4 Eu8 Cu4 S24'
_cell_volume   953.03078633
_cell_formula_units_Z   4
loop_
 _symmetry_equiv_pos_site_id
 _symmetry_equiv_pos_as_xyz
  1  'x, y, z'
loop_
 _atom_site_type_symbol
 _atom_site_label
 _atom_site_symmetry_multiplicity
 _atom_site_fract_x
 _atom_site_fract_y
 _atom_site_fract_z
 _atom_site_occupancy
  Eu  Eu0  1  0.84065600  0.84065600  0.65934400  1
  Eu  Eu1  1  0.40934400  0.40934400  0.59065600  1
  Eu  Eu2  1  0.09320700  0.09320700  0.90679300  1
  Eu  Eu3  1  0.34320700  0.34320700  0.15679300  1
  Eu  Eu4  1  0.59065600  0.59065600  0.40934400  1
  Eu  Eu5  1  0.65934400  0.65934400  0.84065600  1
  Eu  Eu6  1  0.90679300  0.90679300  0.09320700  1
  Eu  Eu7  1  0.15679300  0.15679300  0.34320700  1
  K  K0  1  0.00102600  0.49897400  0.00102600  1
  K  K1  1  0.49897400  0.00102600  0.49897400  1
  K  K2  1  0.75102600  0.24897400  0.75102600  1
  K  K3  1  0.24897400  0.75102600  0.24897400  1
  Cu  Cu0  1  0.33434600  0.33434600  0.66565400  1
  Cu  Cu1  1  0.58434600  0.58434600  0.91565400  1
  Cu  Cu2  1  0.91565400  0.91565400  0.58434600  1
  Cu  Cu3  1  0.66565400  0.66565400  0.33434600  1
  S  S0  1  0.40419800  0.87588000  0.59273300  1
  S  S1  1  0.44929300  0.14092600  0.85724400  1
  S  S2  1  0.87588000  0.40419800  0.12718900  1
  S  S3  1  0.69746400  0.39275600  0.10907400  1
  S  S4  1  0.85724400  0.55253600  0.44929300  1
  S  S5  1  0.28543200  0.61100800  0.89943500  1
  S  S6  1  0.89943500  0.20412400  0.28543200  1
  S  S7  1  0.80070700  0.10907400  0.39275600  1
  S  S8  1  0.55253600  0.85724400  0.14092600  1
  S  S9  1  0.65726700  0.12281100  0.84580200  1
  S  S10  1  0.63899200  0.96456800  0.04587600  1
  S  S11  1  0.35056500  0.04587600  0.96456800  1
  S  S12  1  0.12718900  0.59273300  0.87588000  1
  S  S13  1  0.20412400  0.89943500  0.61100800  1
  S  S14  1  0.61100800  0.28543200  0.20412400  1
  S  S15  1  0.84580200  0.37412000  0.65726700  1
  S  S16  1  0.59273300  0.12718900  0.40419800  1
  S  S17  1  0.14092600  0.44929300  0.55253600  1
  S  S18  1  0.37412000  0.84580200  0.12281100  1
  S  S19  1  0.96456800  0.63899200  0.35056500  1
  S  S20  1  0.39275600  0.69746400  0.80070700  1
  S  S21  1  0.10907400  0.80070700  0.69746400  1
  S  S22  1  0.04587600  0.35056500  0.63899200  1
  S  S23  1  0.12281100  0.65726700  0.37412000  1
loop_
_geom_bond_atom_site_label_1
_geom_bond_atom_site_label_2
_geom_bond_distance
_geom_bond_site_symmetry_2
Eu0 S16 2.846512 1_565
Eu0 S12 2.846512 1_655
Eu0 S9 2.860367 1_565
Eu0 S23 2.860367 1_655
Eu0 S19 2.862668 1_555
Eu0 S10 2.862672 1_556
Eu0 S1 3.017052 1_565
Eu0 S17 3.017053 1_655
Eu1 S9 2.846512 1_555
Eu1 S23 2.846512 1_555
Eu1 S12 2.860367 1_555
Eu1 S16 2.860367 1_555
Eu1 S5 2.862668 1_555
Eu1 S14 2.862672 1_555
Eu1 S7 3.017052 1_555
Eu1 S21 3.017053 1_555
Eu2 S18 2.784910 1_546
Eu2 S15 2.784910 1_455
Eu2 S6 2.865466 1_456
Eu2 S13 2.865471 1_545
Eu2 S0 2.967629 1_545
Eu2 S2 2.967629 1_456
Eu2 S20 3.098268 1_545
Eu2 S3 3.098269 1_456
Eu3 S12 2.784910 1_554
Eu3 S16 2.784910 1_555
Eu3 S10 2.865455 1_545
Eu3 S19 2.865456 1_455
Eu3 S23 2.967629 1_555
Eu3 S9 2.967629 1_554
Eu3 S17 3.098280 1_555
Eu3 S1 3.098285 1_554
Eu4 S15 2.846512 1_555
Eu4 S18 2.846512 1_555
Eu4 S2 2.860367 1_555
Eu4 S0 2.860367 1_555
Eu4 S13 2.862682 1_555
Eu4 S6 2.862683 1_555
Eu4 S3 3.017036 1_555
Eu4 S20 3.017041 1_555
Eu5 S0 2.846512 1_555
Eu5 S2 2.846512 1_556
Eu5 S18 2.860367 1_556
Eu5 S15 2.860367 1_555
Eu5 S22 2.862682 1_655
Eu5 S11 2.862683 1_565
Eu5 S8 3.017036 1_556
Eu5 S4 3.017041 1_555
Eu6 S23 2.784910 1_655
Eu6 S9 2.784910 1_564
Eu6 S14 2.865455 1_565
Eu6 S5 2.865456 1_654
Eu6 S12 2.967629 1_654
Eu6 S16 2.967629 1_565
Eu6 S21 3.098280 1_654
Eu6 S7 3.098285 1_565
Eu7 S2 2.784910 1_455
Eu7 S0 2.784910 1_545
Eu7 S11 2.865466 1_554
Eu7 S22 2.865471 1_555
Eu7 S15 2.967629 1_455
Eu7 S18 2.967629 1_545
Eu7 S4 3.098268 1_455
Eu7 S8 3.098269 1_545
K0 S1 3.272816 1_554
K0 S4 3.272826 1_455
K0 S17 3.274530 1_554
K0 S8 3.274540 1_455
K0 S11 3.440051 1_554
K0 S19 3.440067 1_455
K0 S22 3.502302 1_554
K0 S10 3.502318 1_455
K1 S17 3.272817 1_555
K1 S8 3.272832 1_545
K1 S1 3.274525 1_555
K1 S4 3.274540 1_545
K1 S22 3.440051 1_555
K1 S10 3.440062 1_545
K1 S11 3.502308 1_555
K1 S19 3.502318 1_545
K2 S21 3.272817 1_645
K2 S3 3.272832 1_556
K2 S7 3.274525 1_555
K2 S20 3.274540 1_555
K2 S13 3.440051 1_645
K2 S14 3.440062 1_556
K2 S6 3.502308 1_555
K2 S5 3.502318 1_555
K3 S7 3.272816 1_465
K3 S20 3.272826 1_554
K3 S21 3.274530 1_555
K3 S3 3.274540 1_555
K3 S6 3.440051 1_465
K3 S5 3.440067 1_554
K3 S13 3.502302 1_555
K3 S14 3.502318 1_555
Cu0 S16 2.222829 1_555
Cu0 S12 2.222829 1_555
Cu0 S1 2.355741 1_555
Cu0 S17 2.355745 1_555
Cu1 S18 2.222829 1_556
Cu1 S15 2.222829 1_555
Cu1 S20 2.355726 1_555
Cu1 S3 2.355730 1_556
Cu2 S9 2.222829 1_565
Cu2 S23 2.222829 1_655
Cu2 S7 2.355741 1_565
Cu2 S21 2.355745 1_655
Cu3 S2 2.222829 1_555
Cu3 S0 2.222829 1_555
Cu3 S4 2.355726 1_555
Cu3 S8 2.355730 1_555
S1 S10 2.067217 1_546
S3 S6 2.067200 1_555
S11 S8 2.067200 1_546
S13 S20 2.067211 1_555
S14 S7 2.067217 1_555
S17 S19 2.067206 1_455
S21 S5 2.067206 1_555
S22 S4 2.067211 1_455
