# generated using pymatgen
data_Tb3(MnGe)4
_symmetry_space_group_name_H-M   'P 1'
_cell_length_a   8.01295612
_cell_length_b   8.01295612
_cell_length_c   8.01295612
_cell_angle_alpha   149.97937062
_cell_angle_beta   127.87364417
_cell_angle_gamma   61.32978300
_symmetry_Int_Tables_number   1
_chemical_formula_structural   Tb3(MnGe)4
_chemical_formula_sum   'Tb3 Mn4 Ge4'
_cell_volume   201.43288777
_cell_formula_units_Z   1
loop_
 _symmetry_equiv_pos_site_id
 _symmetry_equiv_pos_as_xyz
  1  'x, y, z'
loop_
 _atom_site_type_symbol
 _atom_site_label
 _atom_site_symmetry_multiplicity
 _atom_site_fract_x
 _atom_site_fract_y
 _atom_site_fract_z
 _atom_site_occupancy
  Tb  Tb0  1  0.12439800  0.12439800  0.00000000  1
  Tb  Tb1  1  0.50000000  0.00000000  0.50000000  1
  Tb  Tb2  1  0.87560200  0.87560200  0.00000000  1
  Mn  Mn0  1  0.48736200  0.67642000  0.81094200  1
  Mn  Mn1  1  0.13452100  0.32358000  0.81094200  1
  Mn  Mn2  1  0.86547900  0.67642000  0.18905800  1
  Mn  Mn3  1  0.51263800  0.32358000  0.18905800  1
  Ge  Ge0  1  0.27979100  0.77979100  0.50000000  1
  Ge  Ge1  1  0.19758800  0.50000000  0.69758800  1
  Ge  Ge2  1  0.80241200  0.50000000  0.30241200  1
  Ge  Ge3  1  0.72020900  0.22020900  0.50000000  1
loop_
_geom_bond_atom_site_label_1
_geom_bond_atom_site_label_2
_geom_bond_distance
_geom_bond_site_symmetry_2
Mn0 Tb2 3.051391 1_556
Mn0 Tb0 3.100740 1_566
Mn0 Tb0 3.100740 1_555
Mn1 Tb0 3.051387 1_556
Mn1 Tb2 3.100737 1_456
Mn1 Tb2 3.100740 1_445
Mn2 Tb2 3.051387 1_555
Mn2 Tb0 3.100737 1_655
Mn2 Tb0 3.100740 1_666
Mn3 Tb0 3.051391 1_555
Mn3 Tb2 3.100740 1_556
Mn3 Tb2 3.100740 1_545
Ge0 Mn1 2.538364 1_554
Ge0 Mn3 2.538366 1_555
Ge0 Mn3 2.538366 1_566
Ge0 Mn1 2.538368 1_565
Ge0 Mn2 2.612268 1_455
Ge0 Mn0 2.612274 1_555
Ge0 Tb0 2.982512 1_566
Ge0 Tb0 2.982512 1_555
Ge0 Tb1 3.035565 1_565
Ge1 Mn0 2.559561 1_555
Ge1 Mn1 2.559567 1_555
Ge1 Ge2 2.782504 1_455
Ge1 Tb1 2.973372 1_566
Ge1 Tb1 2.973372 1_555
Ge1 Tb2 3.030354 1_456
Ge1 Tb2 3.030354 1_445
Ge1 Tb0 3.030354 1_566
Ge1 Tb0 3.030354 1_555
Ge2 Mn3 2.559561 1_555
Ge2 Mn2 2.559567 1_555
Ge2 Tb1 2.973372 1_554
Ge2 Tb1 2.973372 1_565
Ge2 Tb0 3.030354 1_655
Ge2 Tb0 3.030354 1_666
Ge2 Tb2 3.030354 1_545
Ge2 Tb2 3.030354 1_556
Ge3 Mn2 2.538364 1_556
Ge3 Mn0 2.538366 1_555
Ge3 Mn0 2.538366 1_544
Ge3 Mn2 2.538368 1_545
Ge3 Mn1 2.612268 1_655
Ge3 Mn3 2.612274 1_555
Ge3 Tb2 2.982512 1_545
Ge3 Tb2 2.982512 1_556
Ge3 Tb1 3.035565 1_555
