# generated using pymatgen
data_Zn2SiH2O5
_symmetry_space_group_name_H-M   'P 1'
_cell_length_a   7.37699687
_cell_length_b   7.37699687
_cell_length_c   7.37699687
_cell_angle_alpha   138.95339175
_cell_angle_beta   109.49138800
_cell_angle_gamma   84.96059701
_symmetry_Int_Tables_number   1
_chemical_formula_structural   Zn2SiH2O5
_chemical_formula_sum   'Zn4 Si2 H4 O10'
_cell_volume   239.65979249
_cell_formula_units_Z   2
loop_
 _symmetry_equiv_pos_site_id
 _symmetry_equiv_pos_as_xyz
  1  'x, y, z'
loop_
 _atom_site_type_symbol
 _atom_site_label
 _atom_site_symmetry_multiplicity
 _atom_site_fract_x
 _atom_site_fract_y
 _atom_site_fract_z
 _atom_site_occupancy
  Zn  Zn0  1  0.86621800  0.65931800  0.20002000  1
  Zn  Zn1  1  0.13378200  0.33380200  0.79310000  1
  Zn  Zn2  1  0.45929700  0.65931800  0.79310000  1
  Zn  Zn3  1  0.54070300  0.33380200  0.20002000  1
  Si  Si0  1  0.64598400  0.13765400  0.49167000  1
  Si  Si1  1  0.35401600  0.84568600  0.49167000  1
  H  H0  1  0.87603600  0.31888400  0.19492000  1
  H  H1  1  0.12396400  0.31888400  0.44284900  1
  H  H2  1  0.91073500  0.85286300  0.76359800  1
  H  H3  1  0.08926500  0.85286300  0.94212800  1
  O  O0  1  0.86435200  0.06792100  0.52351600  1
  O  O1  1  0.13564800  0.65916500  0.20356900  1
  O  O2  1  0.54440400  0.06792100  0.20356900  1
  O  O3  1  0.45559600  0.65916500  0.52351600  1
  O  O4  1  0.66646500  0.47181100  0.80534600  1
  O  O5  1  0.33353500  0.13888200  0.80534600  1
  O  O6  1  0.80368500  0.46599000  0.26967400  1
  O  O7  1  0.19631500  0.46599000  0.66230500  1
  O  O8  1  0.50000000  0.91075700  0.41075700  1
  O  O9  1  0.00000000  0.97301600  0.97301600  1
loop_
_geom_bond_atom_site_label_1
_geom_bond_atom_site_label_2
_geom_bond_distance
_geom_bond_site_symmetry_2
H0 O6 0.979099 1_555
H1 O7 0.979094 1_555
H2 O9 0.981912 1_655
H3 O9 0.981912 1_555
O0 Si0 1.642855 1_555
O0 Zn1 1.978914 1_655
O0 Zn0 1.986350 1_545
O1 Si1 1.642856 1_555
O1 Zn0 1.978915 1_455
O1 Zn1 1.986350 1_554
O2 Si0 1.642856 1_555
O2 Zn3 1.978915 1_555
O2 Zn2 1.986350 1_544
O3 Si1 1.642851 1_555
O3 Zn2 1.978924 1_555
O3 Zn3 1.986352 1_555
O4 Si0 1.637747 1_555
O4 Zn0 1.995517 1_556
O4 Zn2 1.995522 1_555
O5 Si1 1.637749 1_545
O5 Zn1 1.995511 1_555
O5 Zn3 1.995521 1_556
O6 Zn0 1.972293 1_555
O6 Zn3 1.972296 1_555
O7 Zn2 1.972293 1_555
O7 Zn1 1.972300 1_555
O8 Si1 1.642694 1_555
O8 Si0 1.642694 1_565
