# generated using pymatgen
data_K(GeSe2)2
_symmetry_space_group_name_H-M   'P 1'
_cell_length_a   12.56772200
_cell_length_b   7.85861200
_cell_length_c   17.78883009
_cell_angle_alpha   84.34995001
_cell_angle_beta   90.00000000
_cell_angle_gamma   90.00000000
_symmetry_Int_Tables_number   1
_chemical_formula_structural   K(GeSe2)2
_chemical_formula_sum   'K8 Ge16 Se32'
_cell_volume   1748.37568708
_cell_formula_units_Z   8
loop_
 _symmetry_equiv_pos_site_id
 _symmetry_equiv_pos_as_xyz
  1  'x, y, z'
loop_
 _atom_site_type_symbol
 _atom_site_label
 _atom_site_symmetry_multiplicity
 _atom_site_fract_x
 _atom_site_fract_y
 _atom_site_fract_z
 _atom_site_occupancy
  K  K0  1  0.94099100  0.76181300  0.33149300  1
  K  K1  1  0.88850700  0.74775500  0.95303300  1
  K  K2  1  0.05900900  0.23818700  0.66850700  1
  K  K3  1  0.61149300  0.74775500  0.45303300  1
  K  K4  1  0.38850700  0.25224500  0.54696700  1
  K  K5  1  0.55900900  0.76181300  0.83149300  1
  K  K6  1  0.44099100  0.23818700  0.16850700  1
  K  K7  1  0.11149300  0.25224500  0.04696700  1
  Ge  Ge0  1  0.68235100  0.27841400  0.98696900  1
  Ge  Ge1  1  0.73745900  0.52954300  0.64731000  1
  Ge  Ge2  1  0.29251000  0.74503000  0.67726000  1
  Ge  Ge3  1  0.74145100  0.02271300  0.65580600  1
  Ge  Ge4  1  0.25854900  0.97728700  0.34419400  1
  Ge  Ge5  1  0.23745900  0.47045700  0.85269000  1
  Ge  Ge6  1  0.76254100  0.52954300  0.14731000  1
  Ge  Ge7  1  0.75854900  0.02271300  0.15580600  1
  Ge  Ge8  1  0.26254100  0.47045700  0.35269000  1
  Ge  Ge9  1  0.81764900  0.27841400  0.48696900  1
  Ge  Ge10  1  0.70749000  0.25497000  0.32274000  1
  Ge  Ge11  1  0.79251000  0.25497000  0.82274000  1
  Ge  Ge12  1  0.24145100  0.97728700  0.84419400  1
  Ge  Ge13  1  0.18235100  0.72158600  0.51303100  1
  Ge  Ge14  1  0.20749000  0.74503000  0.17726000  1
  Ge  Ge15  1  0.31764900  0.72158600  0.01303100  1
  Se  Se0  1  0.11399300  0.24055100  0.85543700  1
  Se  Se1  1  0.66089100  0.97764400  0.28678600  1
  Se  Se2  1  0.87966800  0.29581800  0.15636700  1
  Se  Se3  1  0.61399300  0.75944900  0.64456300  1
  Se  Se4  1  0.89652300  0.03446200  0.55537200  1
  Se  Se5  1  0.39652300  0.96553800  0.94462800  1
  Se  Se6  1  0.36974200  0.74667400  0.55008500  1
  Se  Se7  1  0.39299800  0.70604300  0.13972700  1
  Se  Se8  1  0.83910900  0.97764400  0.78678600  1
  Se  Se9  1  0.89299800  0.29395700  0.36027300  1
  Se  Se10  1  0.13109800  0.49174800  0.25023200  1
  Se  Se11  1  0.86890200  0.50825200  0.74976800  1
  Se  Se12  1  0.86974200  0.25332600  0.94991500  1
  Se  Se13  1  0.10700200  0.70604300  0.63972700  1
  Se  Se14  1  0.63109800  0.50825200  0.24976800  1
  Se  Se15  1  0.38600700  0.24055100  0.35543700  1
  Se  Se16  1  0.13025800  0.74667400  0.05008500  1
  Se  Se17  1  0.36890200  0.49174800  0.75023200  1
  Se  Se18  1  0.16089100  0.02235600  0.21321400  1
  Se  Se19  1  0.84840500  0.56115800  0.53228300  1
  Se  Se20  1  0.34840500  0.43884200  0.96771700  1
  Se  Se21  1  0.60347700  0.03446200  0.05537200  1
  Se  Se22  1  0.65159500  0.56115800  0.03228300  1
  Se  Se23  1  0.88600700  0.75944900  0.14456300  1
  Se  Se24  1  0.37966800  0.70418200  0.34363300  1
  Se  Se25  1  0.15159500  0.43884200  0.46771700  1
  Se  Se26  1  0.12033200  0.70418200  0.84363300  1
  Se  Se27  1  0.63025800  0.25332600  0.44991500  1
  Se  Se28  1  0.10347700  0.96553800  0.44462800  1
  Se  Se29  1  0.62033200  0.29581800  0.65636700  1
  Se  Se30  1  0.60700200  0.29395700  0.86027300  1
  Se  Se31  1  0.33910900  0.02235600  0.71321400  1
loop_
_geom_bond_atom_site_label_1
_geom_bond_atom_site_label_2
_geom_bond_distance
_geom_bond_site_symmetry_2
K0 Se28 3.379057 1_655
K0 Se23 3.398149 1_555
K0 Se10 3.592535 1_655
K0 Se9 3.711251 1_555
K1 Se8 3.367952 1_555
K1 Se23 3.417511 1_556
K1 Se16 3.494110 1_656
K1 Se26 3.538971 1_655
K1 Se22 3.549065 1_556
K2 Se4 3.379057 1_455
K2 Se0 3.398149 1_555
K2 Se11 3.592535 1_455
K2 Se13 3.711251 1_555
K3 Se1 3.367952 1_555
K3 Se3 3.417511 1_555
K3 Se6 3.494110 1_555
K3 Se24 3.538971 1_555
K3 Se19 3.549065 1_555
K4 Se31 3.367952 1_555
K4 Se15 3.417511 1_555
K4 Se27 3.494110 1_555
K4 Se29 3.538971 1_555
K4 Se25 3.549065 1_555
K5 Se5 3.379057 1_555
K5 Se3 3.398149 1_555
K5 Se17 3.592535 1_555
K5 Se30 3.711251 1_555
K6 Se21 3.379057 1_555
K6 Se15 3.398149 1_555
K6 Se14 3.592535 1_555
K6 Se7 3.711251 1_555
K7 Se18 3.367952 1_555
K7 Se0 3.417511 1_554
K7 Se12 3.494110 1_454
K7 Se2 3.538971 1_455
K7 Se20 3.549065 1_554
Ge0 Se21 2.383121 1_556
Ge0 Se30 2.436586 1_555
Ge0 Se12 2.458725 1_555
Ge0 Se22 2.467595 1_556
Ge1 Se29 2.346955 1_555
Ge1 Se3 2.378456 1_555
Ge1 Se11 2.453314 1_555
Ge1 Se19 2.468344 1_555
Ge2 Se31 2.403389 1_565
Ge2 Se13 2.452635 1_555
Ge2 Se6 2.460592 1_555
Ge2 Se17 2.461683 1_555
Ge3 Se8 2.626428 1_545
Ge3 Se29 2.632046 1_555
Ge3 Se4 2.639359 1_555
Ge3 Se3 2.639645 1_545
Ge4 Se18 2.626428 1_565
Ge4 Se24 2.632046 1_555
Ge4 Se28 2.639359 1_555
Ge4 Se15 2.639645 1_565
Ge5 Se26 2.346955 1_555
Ge5 Se0 2.378456 1_555
Ge5 Se17 2.453314 1_555
Ge5 Se20 2.468344 1_555
Ge6 Se2 2.346955 1_555
Ge6 Se23 2.378456 1_555
Ge6 Se14 2.453314 1_555
Ge6 Se22 2.468344 1_555
Ge7 Se1 2.626428 1_545
Ge7 Se2 2.632046 1_555
Ge7 Se21 2.639359 1_555
Ge7 Se23 2.639645 1_545
Ge8 Se24 2.346955 1_555
Ge8 Se15 2.378456 1_555
Ge8 Se10 2.453314 1_555
Ge8 Se25 2.468344 1_555
Ge9 Se4 2.383121 1_555
Ge9 Se9 2.436586 1_555
Ge9 Se27 2.458725 1_555
Ge9 Se19 2.467595 1_555
Ge10 Se1 2.403389 1_545
Ge10 Se9 2.452635 1_555
Ge10 Se27 2.460592 1_555
Ge10 Se14 2.461683 1_555
Ge11 Se8 2.403389 1_545
Ge11 Se30 2.452635 1_555
Ge11 Se12 2.460592 1_555
Ge11 Se11 2.461683 1_555
Ge12 Se31 2.626428 1_565
Ge12 Se26 2.632046 1_555
Ge12 Se5 2.639359 1_555
Ge12 Se0 2.639645 1_565
Ge13 Se28 2.383121 1_555
Ge13 Se13 2.436586 1_555
Ge13 Se6 2.458725 1_555
Ge13 Se25 2.467595 1_555
Ge14 Se18 2.403389 1_565
Ge14 Se7 2.452635 1_555
Ge14 Se16 2.460592 1_555
Ge14 Se10 2.461683 1_555
Ge15 Se5 2.383121 1_554
Ge15 Se7 2.436586 1_555
Ge15 Se16 2.458725 1_555
Ge15 Se20 2.467595 1_554
