# generated using pymatgen
data_Sm3Sn13Rh4
_symmetry_space_group_name_H-M   'P 1'
_cell_length_a   9.72403853
_cell_length_b   9.72403962
_cell_length_c   9.72403863
_cell_angle_alpha   89.99999811
_cell_angle_beta   90.00000000
_cell_angle_gamma   89.99999128
_symmetry_Int_Tables_number   1
_chemical_formula_structural   Sm3Sn13Rh4
_chemical_formula_sum   'Sm6 Sn26 Rh8'
_cell_volume   919.47529774
_cell_formula_units_Z   2
loop_
 _symmetry_equiv_pos_site_id
 _symmetry_equiv_pos_as_xyz
  1  'x, y, z'
loop_
 _atom_site_type_symbol
 _atom_site_label
 _atom_site_symmetry_multiplicity
 _atom_site_fract_x
 _atom_site_fract_y
 _atom_site_fract_z
 _atom_site_occupancy
  Sm  Sm0  1  0.49999831  0.00000234  0.75000000  1
  Sm  Sm1  1  0.24999998  0.49999630  0.99999413  1
  Sm  Sm2  1  0.49999845  0.00000199  0.25000000  1
  Sm  Sm3  1  0.75000000  0.49999937  0.99999428  1
  Sm  Sm4  1  0.00000320  0.24999997  0.50000607  1
  Sm  Sm5  1  0.00000015  0.75000006  0.50000559  1
  Sn  Sn0  1  0.00000237  0.30816563  0.84676190  1
  Sn  Sn1  1  0.84676402  0.00000067  0.69183480  1
  Sn  Sn2  1  0.69183353  0.84676458  0.99999668  1
  Sn  Sn3  1  0.30816653  0.84676507  0.99999738  1
  Sn  Sn4  1  0.34676331  0.80816768  0.50000258  1
  Sn  Sn5  1  0.65323547  0.19183401  0.50000266  1
  Sn  Sn6  1  0.00000118  0.00000154  0.99999709  1
  Sn  Sn7  1  0.00000042  0.69183266  0.84676261  1
  Sn  Sn8  1  0.49999852  0.34676342  0.19183198  1
  Sn  Sn9  1  0.49999953  0.65323542  0.80816516  1
  Sn  Sn10  1  0.15323599  0.00000227  0.30816796  1
  Sn  Sn11  1  0.80816664  0.49999943  0.65323733  1
  Sn  Sn12  1  0.30816550  0.15323772  0.99999650  1
  Sn  Sn13  1  0.49999767  0.34676233  0.80816532  1
  Sn  Sn14  1  0.19183448  0.49999745  0.65323825  1
  Sn  Sn15  1  0.15323707  0.00000249  0.69183482  1
  Sn  Sn16  1  0.00000117  0.69183261  0.15323465  1
  Sn  Sn17  1  0.34676288  0.19183437  0.50000349  1
  Sn  Sn18  1  0.49999878  0.65323521  0.19183209  1
  Sn  Sn19  1  0.49999881  0.49999843  0.50000295  1
  Sn  Sn20  1  0.80816674  0.49999879  0.34676545  1
  Sn  Sn21  1  0.69183307  0.15323711  0.99999736  1
  Sn  Sn22  1  0.84676506  0.00000123  0.30816792  1
  Sn  Sn23  1  0.65323613  0.80816737  0.50000332  1
  Sn  Sn24  1  0.00000151  0.30816579  0.15323507  1
  Sn  Sn25  1  0.19183348  0.49999769  0.34676550  1
  Rh  Rh0  1  0.75000034  0.75000003  0.24999998  1
  Rh  Rh1  1  0.24999972  0.74999998  0.25000017  1
  Rh  Rh2  1  0.75000065  0.25000001  0.24999981  1
  Rh  Rh3  1  0.25000010  0.24999990  0.75000017  1
  Rh  Rh4  1  0.74999976  0.24999983  0.75000021  1
  Rh  Rh5  1  0.75000019  0.75000009  0.74999986  1
  Rh  Rh6  1  0.24999936  0.24999995  0.24999992  1
  Rh  Rh7  1  0.24999995  0.75000022  0.74999999  1
loop_
_geom_bond_atom_site_label_1
_geom_bond_atom_site_label_2
_geom_bond_distance
_geom_bond_site_symmetry_2
Sm0 Sn17 3.407285 1_555
Sm0 Sn12 3.407289 1_555
Sm0 Sn5 3.407297 1_555
Sm0 Sn3 3.407298 1_545
Sm0 Sn21 3.407303 1_555
Sm0 Sn4 3.407304 1_545
Sm0 Sn23 3.407312 1_545
Sm0 Sn2 3.407313 1_545
Sm0 Sn13 3.419016 1_555
Sm0 Sn15 3.419027 1_555
Sm0 Sn1 3.419070 1_555
Sm0 Sn9 3.419082 1_545
Sm1 Sn13 3.407270 1_555
Sm1 Sn0 3.407272 1_555
Sm1 Sn9 3.407306 1_555
Sm1 Sn7 3.407313 1_555
Sm1 Sn24 3.407315 1_556
Sm1 Sn8 3.407319 1_556
Sm1 Sn16 3.407346 1_556
Sm1 Sn18 3.407348 1_556
Sm1 Sn14 3.418976 1_555
Sm1 Sn12 3.419002 1_555
Sm1 Sn3 3.419102 1_555
Sm1 Sn25 3.419126 1_556
Sm2 Sn3 3.407334 1_544
Sm2 Sn5 3.407335 1_555
Sm2 Sn17 3.407336 1_555
Sm2 Sn4 3.407339 1_545
Sm2 Sn12 3.407340 1_554
Sm2 Sn21 3.407341 1_554
Sm2 Sn23 3.407356 1_545
Sm2 Sn2 3.407357 1_544
Sm2 Sn8 3.419034 1_555
Sm2 Sn10 3.419043 1_555
Sm2 Sn22 3.419083 1_555
Sm2 Sn18 3.419085 1_545
Sm3 Sn9 3.407300 1_555
Sm3 Sn7 3.407303 1_655
Sm3 Sn13 3.407316 1_555
Sm3 Sn0 3.407322 1_655
Sm3 Sn16 3.407345 1_656
Sm3 Sn18 3.407350 1_556
Sm3 Sn24 3.407351 1_656
Sm3 Sn8 3.407352 1_556
Sm3 Sn11 3.418988 1_555
Sm3 Sn21 3.419040 1_555
Sm3 Sn2 3.419067 1_555
Sm3 Sn20 3.419125 1_556
Sm4 Sn15 3.407268 1_555
Sm4 Sn14 3.407275 1_555
Sm4 Sn1 3.407303 1_455
Sm4 Sn25 3.407307 1_555
Sm4 Sn11 3.407312 1_455
Sm4 Sn10 3.407315 1_555
Sm4 Sn22 3.407345 1_455
Sm4 Sn20 3.407347 1_455
Sm4 Sn0 3.418976 1_555
Sm4 Sn17 3.419013 1_555
Sm4 Sn5 3.419091 1_455
Sm4 Sn24 3.419122 1_555
Sm5 Sn1 3.407302 1_465
Sm5 Sn11 3.407306 1_455
Sm5 Sn15 3.407318 1_565
Sm5 Sn14 3.407328 1_555
Sm5 Sn20 3.407346 1_455
Sm5 Sn22 3.407346 1_465
Sm5 Sn25 3.407353 1_555
Sm5 Sn10 3.407357 1_565
Sm5 Sn7 3.418990 1_555
Sm5 Sn4 3.419049 1_555
Sm5 Sn23 3.419057 1_455
Sm5 Sn16 3.419124 1_555
Sn0 Sn24 2.980157 1_556
Sn0 Sn14 3.240461 1_555
Sn0 Sn11 3.240497 1_455
Sn0 Sn6 3.346626 1_555
Sn1 Sn15 2.980156 1_655
Sn1 Sn23 3.240490 1_545
Sn1 Sn5 3.240497 1_555
Sn1 Sn6 3.346618 1_655
Sn2 Sn21 2.980151 1_565
Sn2 Sn9 3.240501 1_555
Sn2 Sn6 3.346664 1_665
Sn3 Sn9 3.240502 1_555
Sn3 Sn6 3.346642 1_565
Sn6 Sn7 3.346664 1_545
Sn10 Sn22 2.980135 1_455
Sn10 Sn17 3.240500 1_555
Sn10 Sn4 3.240511 1_545
Sn10 Sn6 3.346683 1_554
Sn11 Sn20 2.980144 1_555
Sn11 Sn7 3.240487 1_655
Sn11 Sn19 3.346655 1_555
Sn12 Sn3 2.980152 1_545
Sn12 Sn13 3.240463 1_555
Sn12 Sn8 3.240498 1_556
Sn12 Sn6 3.346632 1_555
Sn13 Sn9 2.980156 1_555
Sn13 Sn21 3.240489 1_555
Sn13 Sn19 3.346614 1_555
Sn14 Sn25 2.980153 1_555
Sn14 Sn7 3.240495 1_555
Sn14 Sn19 3.346628 1_555
Sn15 Sn17 3.240469 1_555
Sn15 Sn4 3.240493 1_545
Sn15 Sn6 3.346613 1_555
Sn16 Sn7 2.980146 1_554
Sn16 Sn25 3.240520 1_555
Sn16 Sn20 3.240525 1_455
Sn16 Sn6 3.346678 1_564
Sn17 Sn5 2.980151 1_555
Sn17 Sn19 3.346629 1_555
Sn18 Sn8 2.980144 1_555
Sn18 Sn3 3.240513 1_554
Sn18 Sn2 3.240528 1_554
Sn18 Sn19 3.346691 1_555
Sn19 Sn9 3.346617 1_555
Sn19 Sn5 3.346635 1_555
Sn19 Sn25 3.346646 1_555
Sn19 Sn20 3.346669 1_555
Sn19 Sn4 3.346672 1_555
Sn19 Sn23 3.346677 1_555
Sn19 Sn8 3.346685 1_555
Sn20 Sn24 3.240520 1_655
Sn21 Sn8 3.240505 1_556
Sn21 Sn6 3.346662 1_655
Sn22 Sn5 3.240514 1_555
Sn22 Sn23 3.240521 1_545
Sn22 Sn6 3.346688 1_654
Sn23 Sn4 2.980154 1_555
Sn24 Sn25 3.240499 1_555
Sn24 Sn6 3.346639 1_554
Rh0 Sn16 2.667426 1_655
Rh0 Sn20 2.667428 1_555
Rh0 Sn22 2.667429 1_565
Rh0 Sn18 2.667432 1_555
Rh0 Sn2 2.667444 1_554
Rh0 Sn23 2.667444 1_555
Rh0 Sm2 3.437993 1_565
Rh0 Sm5 3.438004 1_655
Rh0 Sm3 3.438011 1_554
Rh1 Sn16 2.667407 1_555
Rh1 Sn18 2.667410 1_555
Rh1 Sn10 2.667434 1_565
Rh1 Sn4 2.667435 1_555
Rh1 Sn25 2.667437 1_555
Rh1 Sn3 2.667441 1_554
Rh1 Sm2 3.437972 1_565
Rh1 Sm5 3.438001 1_555
Rh1 Sm1 3.438034 1_554
Rh2 Sn22 2.667406 1_555
Rh2 Sn20 2.667407 1_555
Rh2 Sn24 2.667421 1_655
Rh2 Sn8 2.667432 1_555
Rh2 Sn21 2.667433 1_554
Rh2 Sn5 2.667441 1_555
Rh2 Sm2 3.437969 1_555
Rh2 Sm3 3.438001 1_554
Rh2 Sm4 3.438027 1_655
Rh3 Sn12 2.667371 1_555
Rh3 Sn17 2.667377 1_555
Rh3 Sn14 2.667382 1_555
Rh3 Sn0 2.667383 1_555
Rh3 Sn13 2.667383 1_555
Rh3 Sn15 2.667384 1_555
Rh3 Sm1 3.437901 1_555
Rh3 Sm4 3.437905 1_555
Rh3 Sm0 3.437938 1_555
Rh4 Sn21 2.667383 1_555
Rh4 Sn5 2.667390 1_555
Rh4 Sn1 2.667404 1_555
Rh4 Sn11 2.667406 1_555
Rh4 Sn13 2.667423 1_555
Rh4 Sn0 2.667426 1_655
Rh4 Sm3 3.437923 1_555
Rh4 Sm4 3.437950 1_655
Rh4 Sm0 3.437960 1_555
Rh5 Sn23 2.667383 1_555
Rh5 Sn2 2.667386 1_555
Rh5 Sn7 2.667412 1_655
Rh5 Sn11 2.667413 1_555
Rh5 Sn1 2.667414 1_565
Rh5 Sn9 2.667418 1_555
Rh5 Sm5 3.437927 1_655
Rh5 Sm3 3.437934 1_555
Rh5 Sm0 3.437995 1_565
Rh6 Sn10 2.667393 1_555
Rh6 Sn24 2.667395 1_555
Rh6 Sn25 2.667397 1_555
Rh6 Sn8 2.667406 1_555
Rh6 Sn12 2.667436 1_554
Rh6 Sn17 2.667440 1_555
Rh6 Sm2 3.437946 1_555
Rh6 Sm1 3.437982 1_554
Rh6 Sm4 3.437983 1_555
Rh7 Sn4 2.667389 1_555
Rh7 Sn3 2.667392 1_555
Rh7 Sn7 2.667406 1_555
Rh7 Sn9 2.667408 1_555
Rh7 Sn15 2.667426 1_565
Rh7 Sn14 2.667427 1_555
Rh7 Sm5 3.437927 1_555
Rh7 Sm1 3.437954 1_555
Rh7 Sm0 3.437971 1_565
