# generated using pymatgen
data_Zr9ScO20
_symmetry_space_group_name_H-M   'P 1'
_cell_length_a   6.38604300
_cell_length_b   7.35989203
_cell_length_c   8.12595694
_cell_angle_alpha   77.10475125
_cell_angle_beta   75.36839551
_cell_angle_gamma   72.19285739
_symmetry_Int_Tables_number   1
_chemical_formula_structural   Zr9ScO20
_chemical_formula_sum   'Zr9 Sc1 O20'
_cell_volume   347.39292106
_cell_formula_units_Z   1
loop_
 _symmetry_equiv_pos_site_id
 _symmetry_equiv_pos_as_xyz
  1  'x, y, z'
loop_
 _atom_site_type_symbol
 _atom_site_label
 _atom_site_symmetry_multiplicity
 _atom_site_fract_x
 _atom_site_fract_y
 _atom_site_fract_z
 _atom_site_occupancy
  Zr  Zr0  1  0.99942700  0.00172200  0.99865300  1
  Zr  Zr1  1  0.39985400  0.59888800  0.20174100  1
  Zr  Zr2  1  0.00009700  0.49851900  0.99492600  1
  Zr  Zr3  1  0.80029000  0.20018100  0.40250100  1
  Zr  Zr4  1  0.39804100  0.10066900  0.20561000  1
  Zr  Zr5  1  0.20067500  0.80023900  0.59933000  1
  Zr  Zr6  1  0.80615200  0.69604500  0.40025900  1
  Zr  Zr7  1  0.60102900  0.39924300  0.79770500  1
  Zr  Zr8  1  0.59423500  0.90431500  0.79930600  1
  Sc  Sc0  1  0.20055200  0.29999800  0.59964700  1
  O  O0  1  0.37533600  0.91741300  0.04360600  1
  O  O1  1  0.77572300  0.51772300  0.23949700  1
  O  O2  1  0.32278400  0.38239700  0.05975000  1
  O  O3  1  0.02361100  0.18308100  0.15865800  1
  O  O4  1  0.17238200  0.11521200  0.44365800  1
  O  O5  1  0.42646100  0.78307700  0.35854200  1
  O  O6  1  0.72623300  0.98163300  0.25806100  1
  O  O7  1  0.57625900  0.71731100  0.64060300  1
  O  O8  1  0.07624200  0.71718000  0.14084400  1
  O  O9  1  0.82220900  0.38845100  0.55542900  1
  O  O10  1  0.12952600  0.58418200  0.45728300  1
  O  O11  1  0.47814500  0.31438400  0.33808700  1
  O  O12  1  0.97342300  0.31463100  0.84130600  1
  O  O13  1  0.22858500  0.97828400  0.76121700  1
  O  O14  1  0.52743000  0.18543200  0.65739100  1
  O  O15  1  0.87441600  0.91577400  0.54187600  1
  O  O16  1  0.62281200  0.58288300  0.95806600  1
  O  O17  1  0.92154200  0.78473100  0.85873000  1
  O  O18  1  0.27282900  0.51944200  0.74584900  1
  O  O19  1  0.67369100  0.11696400  0.94186500  1
loop_
_geom_bond_atom_site_label_1
_geom_bond_atom_site_label_2
_geom_bond_distance
_geom_bond_site_symmetry_2
O0 Zr8 2.122577 1_554
O0 Zr4 2.140485 1_565
O0 Zr1 2.388326 1_555
O0 Zr0 2.389976 1_464
O1 Zr6 2.125146 1_555
O1 Zr2 2.141399 1_654
O1 Zr1 2.371864 1_555
O1 Zr3 2.395838 1_555
O2 Zr4 2.125208 1_555
O2 Zr2 2.127117 1_554
O2 Zr1 2.387337 1_555
O2 Zr7 2.410868 1_554
O3 Zr0 2.120882 1_454
O3 Zr3 2.133022 1_455
O3 Zr2 2.385697 1_554
O3 Zr4 2.387779 1_555
O4 Zr4 2.102307 1_555
O4 Sc0 2.126726 1_555
O4 Zr3 2.355525 1_455
O4 Zr5 2.357362 1_545
O5 Zr5 2.120612 1_555
O5 Zr1 2.123966 1_555
O5 Zr4 2.366197 1_565
O5 Zr6 2.402684 1_555
O6 Zr4 2.122112 1_565
O6 Zr6 2.138082 1_555
O6 Zr0 2.381118 1_564
O6 Zr3 2.403508 1_565
O7 Zr8 2.129369 1_555
O7 Zr6 2.131076 1_555
O7 Zr5 2.378539 1_555
O7 Zr7 2.382528 1_555
O8 Zr1 2.120752 1_555
O8 Zr0 2.130575 1_464
O8 Zr6 2.371427 1_455
O8 Zr2 2.419492 1_554
O9 Zr3 2.111622 1_555
O9 Zr7 2.115080 1_555
O9 Zr6 2.318342 1_555
O9 Sc0 2.400558 1_655
O10 Zr6 2.104846 1_455
O10 Sc0 2.126861 1_555
O10 Zr1 2.346655 1_555
O10 Zr5 2.365053 1_555
O11 Zr1 2.113306 1_555
O11 Zr3 2.121957 1_555
O11 Zr4 2.328243 1_555
O11 Sc0 2.404585 1_555
O12 Zr2 2.102730 1_655
O12 Sc0 2.128724 1_655
O12 Zr0 2.350567 1_555
O12 Zr7 2.364362 1_555
O13 Zr0 2.112250 1_465
O13 Zr5 2.123700 1_555
O13 Zr8 2.314534 1_555
O13 Sc0 2.415394 1_565
O14 Zr8 2.106259 1_545
O14 Sc0 2.128457 1_555
O14 Zr7 2.349716 1_555
O14 Zr3 2.351605 1_555
O15 Zr3 2.120132 1_565
O15 Zr5 2.124299 1_655
O15 Zr6 2.375894 1_555
O15 Zr8 2.388944 1_555
O16 Zr7 2.129976 1_555
O16 Zr1 2.130517 1_556
O16 Zr2 2.376307 1_655
O16 Zr8 2.405587 1_555
O17 Zr2 2.123064 1_655
O17 Zr8 2.138167 1_555
O17 Zr0 2.381742 1_565
O17 Zr5 2.398427 1_655
O18 Zr5 2.120692 1_555
O18 Zr7 2.121018 1_555
O18 Zr2 2.323294 1_555
O18 Sc0 2.412956 1_555
O19 Zr0 2.119094 1_555
O19 Zr7 2.121909 1_555
O19 Zr8 2.375031 1_545
O19 Zr4 2.411375 1_556
