# generated using pymatgen
data_MnAgO4
_symmetry_space_group_name_H-M   'P 1'
_cell_length_a   9.42054900
_cell_length_b   6.10370800
_cell_length_c   8.35696319
_cell_angle_alpha   52.25614115
_cell_angle_beta   90.00000000
_cell_angle_gamma   90.00000000
_symmetry_Int_Tables_number   1
_chemical_formula_structural   MnAgO4
_chemical_formula_sum   'Mn4 Ag4 O16'
_cell_volume   379.97979228
_cell_formula_units_Z   4
loop_
 _symmetry_equiv_pos_site_id
 _symmetry_equiv_pos_as_xyz
  1  'x, y, z'
loop_
 _atom_site_type_symbol
 _atom_site_label
 _atom_site_symmetry_multiplicity
 _atom_site_fract_x
 _atom_site_fract_y
 _atom_site_fract_z
 _atom_site_occupancy
  Mn  Mn0  1  0.01789700  0.75994800  0.44476500  1
  Mn  Mn1  1  0.48210300  0.75994800  0.94476500  1
  Mn  Mn2  1  0.98210300  0.24005200  0.55523500  1
  Mn  Mn3  1  0.51789700  0.24005200  0.05523500  1
  Ag  Ag0  1  0.36306100  0.65920200  0.51387600  1
  Ag  Ag1  1  0.13693900  0.65920200  0.01387600  1
  Ag  Ag2  1  0.63693900  0.34079800  0.48612400  1
  Ag  Ag3  1  0.86306100  0.34079800  0.98612400  1
  O  O0  1  0.44859000  0.83918300  0.70137800  1
  O  O1  1  0.14759900  0.65118300  0.61163800  1
  O  O2  1  0.44570600  0.09307500  0.68261800  1
  O  O3  1  0.55429400  0.90692500  0.31738200  1
  O  O4  1  0.94570600  0.90692500  0.81738200  1
  O  O5  1  0.05429400  0.09307500  0.18261800  1
  O  O6  1  0.55141000  0.16081700  0.29862200  1
  O  O7  1  0.63943600  0.73787500  0.03009600  1
  O  O8  1  0.05141000  0.83918300  0.20137800  1
  O  O9  1  0.36056400  0.26212500  0.96990400  1
  O  O10  1  0.64759900  0.34881700  0.88836200  1
  O  O11  1  0.35240100  0.65118300  0.11163800  1
  O  O12  1  0.85240100  0.34881700  0.38836200  1
  O  O13  1  0.13943600  0.26212500  0.46990400  1
  O  O14  1  0.94859000  0.16081700  0.79862200  1
  O  O15  1  0.86056400  0.73787500  0.53009600  1
loop_
_geom_bond_atom_site_label_1
_geom_bond_atom_site_label_2
_geom_bond_distance
_geom_bond_site_symmetry_2
Mn0 O15 1.614268 1_455
Mn0 O1 1.656811 1_555
Mn0 O8 1.807300 1_555
Mn0 O5 1.896800 1_565
Mn1 O7 1.614268 1_556
Mn1 O11 1.656811 1_556
Mn1 O0 1.807300 1_555
Mn1 O2 1.896800 1_565
Mn2 O13 1.614268 1_655
Mn2 O12 1.656811 1_555
Mn2 O14 1.807300 1_555
Mn2 O4 1.896800 1_545
Mn3 O9 1.614268 1_554
Mn3 O10 1.656811 1_554
Mn3 O6 1.807300 1_555
Mn3 O3 1.896800 1_545
Ag0 O1 2.177357 1_555
Ag0 O3 2.277818 1_555
Ag0 O0 2.533526 1_555
Ag1 O11 2.177357 1_555
Ag1 O4 2.277818 1_454
Ag1 O8 2.533526 1_555
Ag2 O12 2.177357 1_555
Ag2 O2 2.277818 1_555
Ag2 O6 2.533526 1_555
Ag3 O10 2.177357 1_555
Ag3 O5 2.277818 1_656
Ag3 O14 2.533526 1_555
O0 O2 1.459244 1_565
O3 O6 1.459244 1_565
O5 O8 1.459244 1_545
O14 O4 1.459244 1_545
