# generated using pymatgen
data_Cs5SiAs3
_symmetry_space_group_name_H-M   'P 1'
_cell_length_a   6.07866724
_cell_length_b   14.59552048
_cell_length_c   16.04401295
_cell_angle_alpha   90.00000000
_cell_angle_beta   90.00000000
_cell_angle_gamma   90.00000000
_symmetry_Int_Tables_number   1
_chemical_formula_structural   Cs5SiAs3
_chemical_formula_sum   'Cs20 Si4 As12'
_cell_volume   1423.44588176
_cell_formula_units_Z   4
loop_
 _symmetry_equiv_pos_site_id
 _symmetry_equiv_pos_as_xyz
  1  'x, y, z'
loop_
 _atom_site_type_symbol
 _atom_site_label
 _atom_site_symmetry_multiplicity
 _atom_site_fract_x
 _atom_site_fract_y
 _atom_site_fract_z
 _atom_site_occupancy
  Cs  Cs0  1  0.75000000  0.64520697  0.95248085  1
  Cs  Cs1  1  0.25000000  0.77754593  0.70526448  1
  Cs  Cs2  1  0.75000000  0.93562789  0.04773550  1
  Cs  Cs3  1  0.75000000  0.94978883  0.34656178  1
  Cs  Cs4  1  0.25000000  0.35479303  0.04751915  1
  Cs  Cs5  1  0.25000000  0.85479303  0.45248085  1
  Cs  Cs6  1  0.75000000  0.14520697  0.54751915  1
  Cs  Cs7  1  0.75000000  0.43562789  0.45226450  1
  Cs  Cs8  1  0.25000000  0.05021117  0.65343822  1
  Cs  Cs9  1  0.25000000  0.27754593  0.79473552  1
  Cs  Cs10  1  0.75000000  0.37992791  0.68637492  1
  Cs  Cs11  1  0.25000000  0.56437211  0.54773550  1
  Cs  Cs12  1  0.75000000  0.22245407  0.29473552  1
  Cs  Cs13  1  0.75000000  0.72245407  0.20526448  1
  Cs  Cs14  1  0.75000000  0.44978883  0.15343822  1
  Cs  Cs15  1  0.25000000  0.06437211  0.95226450  1
  Cs  Cs16  1  0.25000000  0.62007209  0.31362508  1
  Cs  Cs17  1  0.75000000  0.87992791  0.81362508  1
  Cs  Cs18  1  0.25000000  0.55021117  0.84656178  1
  Cs  Cs19  1  0.25000000  0.12007209  0.18637492  1
  Si  Si0  1  0.75000000  0.73978873  0.56613286  1
  Si  Si1  1  0.75000000  0.23978873  0.93386714  1
  Si  Si2  1  0.25000000  0.26021127  0.43386714  1
  Si  Si3  1  0.25000000  0.76021127  0.06613286  1
  As  As0  1  0.75000000  0.39529986  0.91199057  1
  As  As1  1  0.25000000  0.86402599  0.17462116  1
  As  As2  1  0.75000000  0.63597401  0.67462116  1
  As  As3  1  0.75000000  0.69296915  0.42967003  1
  As  As4  1  0.75000000  0.89529986  0.58800943  1
  As  As5  1  0.25000000  0.60470014  0.08800943  1
  As  As6  1  0.25000000  0.80703085  0.92967003  1
  As  As7  1  0.25000000  0.30703085  0.57032997  1
  As  As8  1  0.75000000  0.13597401  0.82537884  1
  As  As9  1  0.25000000  0.10470014  0.41199057  1
  As  As10  1  0.25000000  0.36402599  0.32537884  1
  As  As11  1  0.75000000  0.19296915  0.07032997  1
loop_
_geom_bond_atom_site_label_1
_geom_bond_atom_site_label_2
_geom_bond_distance
_geom_bond_site_symmetry_2
As0 Si1 2.296743 1_555
As0 Cs10 3.626727 1_555
As0 Cs0 3.704922 1_555
As0 Cs4 3.783543 1_556
As0 Cs4 3.783543 1_656
As0 Cs18 3.930862 1_555
As0 Cs18 3.930862 1_655
As0 Cs14 3.954584 1_556
As0 Cs9 3.966167 1_555
As0 Cs9 3.966167 1_655
As1 Si3 2.307719 1_555
As1 Cs13 3.707954 1_555
As1 Cs13 3.707954 1_455
As1 Cs19 3.741881 1_565
As1 Cs2 3.804473 1_455
As1 Cs2 3.804473 1_555
As2 Si0 2.307719 1_555
As2 Cs1 3.707954 1_655
As2 Cs1 3.707954 1_555
As2 Cs10 3.741881 1_555
As2 Cs11 3.804473 1_655
As2 Cs11 3.804473 1_555
As3 Si0 2.293578 1_555
As3 Cs13 3.625994 1_555
As3 Cs16 3.719675 1_655
As3 Cs16 3.719675 1_555
As3 Cs7 3.773482 1_555
As3 Cs5 3.866533 1_655
As3 Cs5 3.866533 1_555
As3 Cs3 3.978512 1_555
As4 Si0 2.296743 1_555
As4 Cs17 3.626727 1_555
As4 Cs6 3.704922 1_565
As4 Cs5 3.783543 1_655
As4 Cs5 3.783543 1_555
As4 Cs8 3.930862 1_565
As4 Cs8 3.930862 1_665
As4 Cs3 3.954584 1_555
As4 Cs1 3.966167 1_655
As4 Cs1 3.966167 1_555
As5 Si3 2.296743 1_555
As5 Cs16 3.626727 1_555
As5 Cs4 3.704922 1_555
As5 Cs0 3.783543 1_454
As5 Cs0 3.783543 1_554
As5 Cs14 3.930862 1_455
As5 Cs14 3.930862 1_555
As5 Cs18 3.954584 1_554
As5 Cs13 3.966167 1_555
As5 Cs13 3.966167 1_455
As6 Si3 2.293578 1_556
As6 Cs1 3.625994 1_555
As6 Cs17 3.719675 1_555
As6 Cs17 3.719675 1_455
As6 Cs15 3.773482 1_565
As6 Cs0 3.866533 1_455
As6 Cs0 3.866533 1_555
As6 Cs18 3.978512 1_555
As7 Si2 2.293578 1_555
As7 Cs9 3.625994 1_555
As7 Cs10 3.719675 1_555
As7 Cs10 3.719675 1_455
As7 Cs11 3.773482 1_555
As7 Cs6 3.866533 1_455
As7 Cs6 3.866533 1_555
As7 Cs8 3.978512 1_555
As8 Si1 2.307719 1_555
As8 Cs9 3.707954 1_655
As8 Cs9 3.707954 1_555
As8 Cs17 3.741881 1_545
As8 Cs15 3.804473 1_655
As8 Cs15 3.804473 1_555
As9 Si2 2.296743 1_555
As9 Cs19 3.626727 1_555
As9 Cs5 3.704922 1_545
As9 Cs6 3.783543 1_555
As9 Cs6 3.783543 1_455
As9 Cs3 3.930862 1_545
As9 Cs3 3.930862 1_445
As9 Cs8 3.954584 1_555
As9 Cs12 3.966167 1_555
As9 Cs12 3.966167 1_455
As10 Si2 2.307719 1_555
As10 Cs12 3.707954 1_455
As10 Cs12 3.707954 1_555
As10 Cs16 3.741881 1_555
As10 Cs7 3.804473 1_455
As10 Cs7 3.804473 1_555
As11 Si1 2.293578 1_554
As11 Cs12 3.625994 1_555
As11 Cs19 3.719675 1_655
As11 Cs19 3.719675 1_555
As11 Cs2 3.773482 1_545
As11 Cs4 3.866533 1_555
As11 Cs4 3.866533 1_655
As11 Cs14 3.978512 1_555
