# generated using pymatgen
data_Ca2FeWO6
_symmetry_space_group_name_H-M   'P 1'
_cell_length_a   5.58386900
_cell_length_b   5.67383900
_cell_length_c   7.88476500
_cell_angle_alpha   90.00000000
_cell_angle_beta   90.00000000
_cell_angle_gamma   90.00000000
_symmetry_Int_Tables_number   1
_chemical_formula_structural   Ca2FeWO6
_chemical_formula_sum   'Ca4 Fe2 W2 O12'
_cell_volume   249.80491739
_cell_formula_units_Z   2
loop_
 _symmetry_equiv_pos_site_id
 _symmetry_equiv_pos_as_xyz
  1  'x, y, z'
loop_
 _atom_site_type_symbol
 _atom_site_label
 _atom_site_symmetry_multiplicity
 _atom_site_fract_x
 _atom_site_fract_y
 _atom_site_fract_z
 _atom_site_occupancy
  Ca  Ca0  1  0.00000000  0.49977700  0.26201500  1
  Ca  Ca1  1  0.50000000  0.99247500  0.25866800  1
  Ca  Ca2  1  0.00000000  0.49977700  0.73798500  1
  Ca  Ca3  1  0.50000000  0.99247500  0.74133200  1
  Fe  Fe0  1  0.50000000  0.52222000  0.00000000  1
  Fe  Fe1  1  0.00000000  0.01154800  0.50000000  1
  W  W0  1  0.00000000  0.02629500  0.00000000  1
  W  W1  1  0.50000000  0.51217600  0.50000000  1
  O  O0  1  0.75240100  0.76510800  0.50000000  1
  O  O1  1  0.50000000  0.52964700  0.74621700  1
  O  O2  1  0.25410800  0.78549000  0.00000000  1
  O  O3  1  0.50000000  0.52964700  0.25378300  1
  O  O4  1  0.74589200  0.78549000  0.00000000  1
  O  O5  1  0.76176400  0.28716800  0.00000000  1
  O  O6  1  0.00000000  0.02727900  0.25121300  1
  O  O7  1  0.24813200  0.26493700  0.50000000  1
  O  O8  1  0.75186800  0.26493700  0.50000000  1
  O  O9  1  0.24759900  0.76510800  0.50000000  1
  O  O10  1  0.00000000  0.02727900  0.74878700  1
  O  O11  1  0.23823600  0.28716800  0.00000000  1
loop_
_geom_bond_atom_site_label_1
_geom_bond_atom_site_label_2
_geom_bond_distance
_geom_bond_site_symmetry_2
Ca0 O6 2.682230 1_555
Ca0 O7 2.686300 1_555
Ca0 O8 2.686300 1_455
Ca0 O11 2.737312 1_555
Ca0 O5 2.737312 1_455
Ca0 O9 2.774694 1_555
Ca0 O0 2.774694 1_455
Ca0 O3 2.797827 1_455
Ca0 O3 2.797827 1_555
Ca0 O2 2.984841 1_555
Ca0 O4 2.984841 1_455
Ca0 O6 2.994173 1_565
Ca1 O3 2.626294 1_555
Ca1 O0 2.696548 1_555
Ca1 O9 2.696548 1_555
Ca1 O2 2.724726 1_555
Ca1 O4 2.724726 1_555
Ca1 O6 2.799527 1_565
Ca1 O6 2.799527 1_665
Ca1 O7 2.826412 1_565
Ca1 O8 2.826412 1_565
Ca1 O5 3.015272 1_565
Ca1 O11 3.015272 1_565
Ca1 O3 3.048071 1_565
Ca2 O10 2.682230 1_555
Ca2 O7 2.686300 1_555
Ca2 O8 2.686300 1_455
Ca2 O11 2.737312 1_556
Ca2 O5 2.737312 1_456
Ca2 O9 2.774694 1_555
Ca2 O0 2.774694 1_455
Ca2 O1 2.797827 1_455
Ca2 O1 2.797827 1_555
Ca2 O2 2.984841 1_556
Ca2 O4 2.984841 1_456
Ca2 O10 2.994173 1_565
Ca3 O1 2.626294 1_555
Ca3 O0 2.696548 1_555
Ca3 O9 2.696548 1_555
Ca3 O4 2.724726 1_556
Ca3 O2 2.724726 1_556
Ca3 O10 2.799527 1_665
Ca3 O10 2.799527 1_565
Ca3 O7 2.826412 1_565
Ca3 O8 2.826412 1_565
Ca3 O5 3.015272 1_566
Ca3 O11 3.015272 1_566
Ca3 O1 3.048071 1_565
Fe0 O5 1.978649 1_555
Fe0 O11 1.978649 1_555
Fe0 O3 2.001463 1_555
Fe0 O1 2.001463 1_554
Fe0 O2 2.028916 1_555
Fe0 O4 2.028916 1_555
Fe1 O10 1.963657 1_555
Fe1 O6 1.963657 1_555
Fe1 O9 1.966369 1_545
Fe1 O0 1.966369 1_445
Fe1 O7 1.996662 1_555
Fe1 O8 1.996662 1_455
O0 W1 2.011426 1_555
O1 W1 1.943892 1_555
O2 W0 1.969781 1_565
O3 W1 1.943892 1_555
O4 W0 1.969781 1_665
O5 W0 1.990098 1_655
O6 W0 1.980763 1_555
O7 W1 1.986400 1_555
O8 W1 1.986400 1_555
O9 W1 2.011426 1_555
O10 W0 1.980763 1_556
O11 W0 1.990098 1_555
