# generated using pymatgen
data_Al(HO)3
_symmetry_space_group_name_H-M   'P 1'
_cell_length_a   4.96565000
_cell_length_b   9.00607972
_cell_length_c   9.67454889
_cell_angle_alpha   91.27758853
_cell_angle_beta   90.40555205
_cell_angle_gamma   91.72613008
_symmetry_Int_Tables_number   1
_chemical_formula_structural   Al(HO)3
_chemical_formula_sum   'Al8 H24 O24'
_cell_volume   432.33904953
_cell_formula_units_Z   8
loop_
 _symmetry_equiv_pos_site_id
 _symmetry_equiv_pos_as_xyz
  1  'x, y, z'
loop_
 _atom_site_type_symbol
 _atom_site_label
 _atom_site_symmetry_multiplicity
 _atom_site_fract_x
 _atom_site_fract_y
 _atom_site_fract_z
 _atom_site_occupancy
  Al  Al0  1  0.99795600  0.66425200  0.50170700  1
  Al  Al1  1  0.49618500  0.16446700  0.99865000  1
  Al  Al2  1  0.00593500  0.33188600  0.50185800  1
  Al  Al3  1  0.50780300  0.83402500  0.00039400  1
  Al  Al4  1  0.50772400  0.83580100  0.49886300  1
  Al  Al5  1  0.99948300  0.34018600  0.99860500  1
  Al  Al6  1  0.49506300  0.16126900  0.49884800  1
  Al  Al7  1  0.99887100  0.66049700  0.00080200  1
  H  H0  1  0.54759000  0.60709800  0.61909500  1
  H  H1  1  0.93932200  0.10918100  0.11934800  1
  H  H2  1  0.30774300  0.30566700  0.29283300  1
  H  H3  1  0.06525200  0.89183300  0.88195700  1
  H  H4  1  0.18805900  0.19079000  0.70626600  1
  H  H5  1  0.31614300  0.69405500  0.20516500  1
  H  H6  1  0.81488600  0.80327600  0.29435800  1
  H  H7  1  0.68560300  0.30501900  0.79290500  1
  H  H8  1  0.84664600  0.01583300  0.60090800  1
  H  H9  1  0.89397000  0.50161000  0.20446200  1
  H  H10  1  0.15341000  0.98332600  0.39826200  1
  H  H11  1  0.34169600  0.50346400  0.89210100  1
  H  H12  1  0.12898600  0.50230200  0.70620300  1
  H  H13  1  0.37452600  0.00302400  0.20544300  1
  H  H14  1  0.67458900  0.46386300  0.38147400  1
  H  H15  1  0.62948000  0.99723700  0.79466800  1
  H  H16  1  0.20761100  0.80603800  0.70502200  1
  H  H17  1  0.44265100  0.41183300  0.10707300  1
  H  H18  1  0.79837700  0.19568300  0.29527600  1
  H  H19  1  0.70225600  0.69462200  0.79551300  1
  H  H20  1  0.55035400  0.39477000  0.61360500  1
  H  H21  1  0.97053400  0.89669800  0.11570400  1
  H  H22  1  0.38323900  0.57892900  0.38287600  1
  H  H23  1  0.02755100  0.10178000  0.88833000  1
  O  O0  1  0.68417200  0.68707500  0.61171900  1
  O  O1  1  0.81930900  0.19279200  0.11232000  1
  O  O2  1  0.32537700  0.31762300  0.39471700  1
  O  O3  1  0.18724600  0.80889800  0.88693600  1
  O  O4  1  0.17755800  0.18471700  0.60404400  1
  O  O5  1  0.32073700  0.69053100  0.10287900  1
  O  O6  1  0.82196500  0.81013100  0.39698200  1
  O  O7  1  0.67824600  0.31077800  0.89567000  1
  O  O8  1  0.64906700  0.00385000  0.60528300  1
  O  O9  1  0.86280000  0.50005300  0.10375900  1
  O  O10  1  0.35133400  0.99251400  0.39253800  1
  O  O11  1  0.14349400  0.49821200  0.88991000  1
  O  O12  1  0.15741500  0.50186200  0.60392000  1
  O  O13  1  0.35223900  0.00274900  0.10270900  1
  O  O14  1  0.86529300  0.49125700  0.39416600  1
  O  O15  1  0.65206400  0.99940900  0.89742500  1
  O  O16  1  0.19235400  0.81365200  0.60326700  1
  O  O17  1  0.32632300  0.32136100  0.10570100  1
  O  O18  1  0.81279900  0.18270400  0.39633700  1
  O  O19  1  0.68222900  0.68291600  0.89633900  1
  O  O20  1  0.68024400  0.31498300  0.61337100  1
  O  O21  1  0.82888600  0.81842100  0.11225100  1
  O  O22  1  0.30901400  0.67821200  0.38717800  1
  O  O23  1  0.16956400  0.18022200  0.89203100  1
loop_
_geom_bond_atom_site_label_1
_geom_bond_atom_site_label_2
_geom_bond_distance
_geom_bond_site_symmetry_2
Al0 O16 1.885999 1_655
Al0 O6 1.905855 1_555
Al0 O0 1.906788 1_555
Al0 O22 1.909988 1_655
Al0 O14 1.949355 1_555
Al0 O12 1.966443 1_655
Al1 O7 1.883008 1_555
Al1 O13 1.912720 1_556
Al1 O23 1.926480 1_555
Al1 O15 1.945012 1_545
Al1 O1 1.945962 1_556
Al1 O17 1.949241 1_556
Al2 O4 1.890739 1_555
Al2 O18 1.901159 1_455
Al2 O2 1.907008 1_555
Al2 O12 1.933101 1_555
Al2 O14 1.936520 1_455
Al2 O20 1.954434 1_455
Al3 O5 1.874532 1_555
Al3 O19 1.907334 1_554
Al3 O21 1.930998 1_555
Al3 O3 1.931913 1_554
Al3 O15 1.932877 1_554
Al3 O13 1.974842 1_565
Al4 O6 1.869006 1_555
Al4 O16 1.877494 1_555
Al4 O8 1.923402 1_565
Al4 O10 1.942321 1_555
Al4 O0 1.968820 1_555
Al4 O22 1.996888 1_555
Al5 O7 1.883260 1_555
Al5 O9 1.889941 1_556
Al5 O11 1.912784 1_655
Al5 O17 1.933108 1_656
Al5 O1 1.944319 1_556
Al5 O23 1.967542 1_655
Al6 O18 1.876836 1_555
Al6 O4 1.897175 1_555
Al6 O10 1.931737 1_545
Al6 O8 1.942765 1_555
Al6 O20 1.957059 1_555
Al6 O2 1.957152 1_555
Al7 O19 1.881517 1_554
Al7 O5 1.882179 1_655
Al7 O9 1.884547 1_555
Al7 O11 1.951167 1_654
Al7 O3 1.969694 1_654
Al7 O21 1.978568 1_555
H0 O0 0.978479 1_555
H1 O1 0.977514 1_555
H2 O2 0.992123 1_555
H3 O3 0.977562 1_555
H4 O4 0.990163 1_555
H5 O5 0.989819 1_555
H6 O6 0.993691 1_555
H7 O7 0.995388 1_555
H8 O8 0.985101 1_555
H9 O9 0.985116 1_555
H10 O10 0.985864 1_555
H11 O11 0.983969 1_555
H12 O12 1.000487 1_555
H13 O13 0.999209 1_555
H14 O14 0.977560 1_555
H15 O15 0.999335 1_555
H16 O16 0.990868 1_555
H17 O17 0.984276 1_555
H18 O18 0.989615 1_555
H19 O19 0.988851 1_555
H20 O20 0.979910 1_555
H21 O21 0.980601 1_555
H22 O22 0.977495 1_555
H23 O23 0.982930 1_555
