# generated using pymatgen
data_AgMo6Br13
_symmetry_space_group_name_H-M   'P 1'
_cell_length_a   9.57234800
_cell_length_b   9.70543616
_cell_length_c   14.76783678
_cell_angle_alpha   96.59708205
_cell_angle_beta   102.63210115
_cell_angle_gamma   113.22474920
_symmetry_Int_Tables_number   1
_chemical_formula_structural   AgMo6Br13
_chemical_formula_sum   'Ag2 Mo12 Br26'
_cell_volume   1198.94624651
_cell_formula_units_Z   2
loop_
 _symmetry_equiv_pos_site_id
 _symmetry_equiv_pos_as_xyz
  1  'x, y, z'
loop_
 _atom_site_type_symbol
 _atom_site_label
 _atom_site_symmetry_multiplicity
 _atom_site_fract_x
 _atom_site_fract_y
 _atom_site_fract_z
 _atom_site_occupancy
  Ag  Ag0  1  0.04544300  0.27587200  0.77220500  1
  Ag  Ag1  1  0.95455700  0.72412800  0.22779500  1
  Mo  Mo0  1  0.46168800  0.32095300  0.41539300  1
  Mo  Mo1  1  0.63132400  0.45667400  0.59526700  1
  Mo  Mo2  1  0.54901400  0.98549600  0.88389000  1
  Mo  Mo3  1  0.69151600  0.99777000  0.06239900  1
  Mo  Mo4  1  0.53831200  0.67904700  0.58460700  1
  Mo  Mo5  1  0.45098600  0.01450400  0.11611000  1
  Mo  Mo6  1  0.60143200  0.21551000  0.02433100  1
  Mo  Mo7  1  0.30848400  0.00223000  0.93760100  1
  Mo  Mo8  1  0.36867600  0.54332600  0.40473300  1
  Mo  Mo9  1  0.32384400  0.38836200  0.54035200  1
  Mo  Mo10  1  0.67615600  0.61163800  0.45964800  1
  Mo  Mo11  1  0.39856800  0.78449000  0.97566900  1
  Br  Br0  1  0.41614100  0.16806800  0.55028100  1
  Br  Br1  1  0.51004600  0.47781500  0.28348300  1
  Br  Br2  1  0.15904100  0.25413000  0.36404000  1
  Br  Br3  1  0.25782600  0.77448600  0.80028500  1
  Br  Br4  1  0.64433800  0.77799400  0.92558400  1
  Br  Br5  1  0.23418000  0.61129900  0.52847100  1
  Br  Br6  1  0.92679900  0.77198400  0.40486600  1
  Br  Br7  1  0.74436600  0.51907700  0.06316800  1
  Br  Br8  1  0.58385900  0.83193200  0.44971900  1
  Br  Br9  1  0.16227600  0.79882400  0.02977600  1
  Br  Br10  1  0.39528600  0.05485100  0.29075700  1
  Br  Br11  1  0.81866100  0.40756900  0.73278600  1
  Br  Br12  1  0.04602500  0.01661700  0.85086500  1
  Br  Br13  1  0.25563400  0.48092300  0.93683200  1
  Br  Br14  1  0.48995400  0.52218500  0.71651700  1
  Br  Br15  1  0.18133900  0.59243100  0.26721400  1
  Br  Br16  1  0.95397500  0.98338300  0.14913500  1
  Br  Br17  1  0.53841300  0.79804200  0.15205900  1
  Br  Br18  1  0.46158700  0.20195800  0.84794100  1
  Br  Br19  1  0.07320100  0.22801600  0.59513400  1
  Br  Br20  1  0.60471400  0.94514900  0.70924300  1
  Br  Br21  1  0.35566200  0.22200600  0.07441600  1
  Br  Br22  1  0.76582000  0.38870100  0.47152900  1
  Br  Br23  1  0.74217400  0.22551400  0.19971500  1
  Br  Br24  1  0.84095900  0.74587000  0.63596000  1
  Br  Br25  1  0.83772400  0.20117600  0.97022400  1
loop_
_geom_bond_atom_site_label_1
_geom_bond_atom_site_label_2
_geom_bond_distance
_geom_bond_site_symmetry_2
Ag0 Br19 2.691929 1_555
Ag0 Br13 2.740482 1_555
Ag0 Br12 2.891442 1_555
Ag0 Br11 2.914059 1_455
Ag1 Br6 2.691929 1_555
Ag1 Br7 2.740482 1_555
Ag1 Br16 2.891442 1_555
Ag1 Br15 2.914059 1_655
Br0 Mo9 2.622686 1_555
Br0 Mo0 2.628436 1_555
Br0 Mo1 2.636960 1_555
Br1 Mo10 2.601720 1_555
Br1 Mo0 2.616651 1_555
Br1 Mo8 2.630321 1_555
Br2 Mo9 2.601641 1_555
Br2 Mo0 2.613967 1_555
Br2 Mo8 2.628467 1_555
Br3 Mo11 2.616418 1_555
Br3 Mo2 2.626701 1_555
Br3 Mo7 2.632051 1_565
Br4 Mo3 2.585911 1_556
Br4 Mo2 2.599231 1_555
Br4 Mo11 2.636874 1_555
Br5 Mo8 2.617965 1_555
Br5 Mo4 2.627634 1_555
Br5 Mo9 2.633452 1_555
Br6 Mo10 2.650701 1_555
Br7 Mo6 2.640192 1_555
Br8 Mo10 2.622686 1_555
Br8 Mo4 2.628436 1_555
Br8 Mo8 2.636960 1_555
Br9 Mo11 2.605186 1_554
Br9 Mo5 2.632129 1_565
Br9 Mo7 2.642081 1_564
Br10 Mo0 2.750130 1_555
Br10 Mo5 2.761113 1_555
Br11 Mo1 2.621228 1_555
Br12 Mo7 2.623424 1_555
Br13 Mo11 2.640192 1_555
Br14 Mo9 2.601720 1_555
Br14 Mo4 2.616651 1_555
Br14 Mo1 2.630321 1_555
Br15 Mo8 2.621228 1_555
Br16 Mo3 2.623424 1_555
Br17 Mo5 2.616180 1_565
Br17 Mo11 2.617637 1_554
Br17 Mo3 2.618505 1_555
Br18 Mo2 2.616180 1_545
Br18 Mo6 2.617637 1_556
Br18 Mo7 2.618505 1_555
Br19 Mo9 2.650701 1_555
Br20 Mo4 2.750130 1_555
Br20 Mo2 2.761113 1_555
Br21 Mo7 2.585911 1_554
Br21 Mo5 2.599231 1_555
Br21 Mo6 2.636874 1_555
Br22 Mo1 2.617965 1_555
Br22 Mo0 2.627634 1_555
Br22 Mo10 2.633452 1_555
Br23 Mo6 2.616418 1_555
Br23 Mo5 2.626701 1_555
Br23 Mo3 2.632051 1_545
Br24 Mo10 2.601641 1_555
Br24 Mo4 2.613967 1_555
Br24 Mo1 2.628467 1_555
Br25 Mo6 2.605186 1_556
Br25 Mo2 2.632129 1_545
Br25 Mo3 2.642081 1_546
