# generated using pymatgen
data_LaSiBO5
_symmetry_space_group_name_H-M   'P 1'
_cell_length_a   6.88307045
_cell_length_b   6.88307045
_cell_length_c   6.84992200
_cell_angle_alpha   90.00000000
_cell_angle_beta   90.00000000
_cell_angle_gamma   120.00000436
_symmetry_Int_Tables_number   1
_chemical_formula_structural   LaSiBO5
_chemical_formula_sum   'La3 Si3 B3 O15'
_cell_volume   281.04810974
_cell_formula_units_Z   3
loop_
 _symmetry_equiv_pos_site_id
 _symmetry_equiv_pos_as_xyz
  1  'x, y, z'
loop_
 _atom_site_type_symbol
 _atom_site_label
 _atom_site_symmetry_multiplicity
 _atom_site_fract_x
 _atom_site_fract_y
 _atom_site_fract_z
 _atom_site_occupancy
  La  La0  1  0.39890200  0.39890200  0.00000000  1
  La  La1  1  0.00000000  0.60109800  0.66666700  1
  La  La2  1  0.60109800  0.00000000  0.33333300  1
  Si  Si0  1  0.41740100  0.41740100  0.50000000  1
  Si  Si1  1  0.00000000  0.58259900  0.16666700  1
  Si  Si2  1  0.58259900  0.00000000  0.83333300  1
  B  B0  1  0.89180400  0.89180400  0.00000000  1
  B  B1  1  0.00000000  0.10819600  0.66666700  1
  B  B2  1  0.10819600  0.00000000  0.33333300  1
  O  O0  1  0.39403000  0.86229800  0.66904300  1
  O  O1  1  0.13770200  0.53173200  0.00237700  1
  O  O2  1  0.46826800  0.60597000  0.33571000  1
  O  O3  1  0.03883700  0.00000000  0.83333300  1
  O  O4  1  0.00000000  0.03883700  0.16666700  1
  O  O5  1  0.96116300  0.96116300  0.50000000  1
  O  O6  1  0.84735200  0.65607700  0.02781200  1
  O  O7  1  0.34392300  0.19127500  0.36114500  1
  O  O8  1  0.80872500  0.15264800  0.69447900  1
  O  O9  1  0.19127500  0.34392300  0.63885500  1
  O  O10  1  0.15264800  0.80872500  0.30552100  1
  O  O11  1  0.65607700  0.84735200  0.97218800  1
  O  O12  1  0.86229800  0.39403000  0.33095700  1
  O  O13  1  0.60597000  0.46826800  0.66429000  1
  O  O14  1  0.53173200  0.13770200  0.99762300  1
loop_
_geom_bond_atom_site_label_1
_geom_bond_atom_site_label_2
_geom_bond_distance
_geom_bond_site_symmetry_2
La0 O14 2.390022 1_554
La0 O1 2.390022 1_555
La0 O13 2.620485 1_554
La0 O2 2.620485 1_555
La0 O6 2.689531 1_555
La0 O11 2.689531 1_554
La0 O7 2.786488 1_555
La0 O9 2.786488 1_554
La0 O4 2.859996 1_555
La0 O3 2.859996 1_554
La1 O0 2.390022 1_555
La1 O13 2.390022 1_455
La1 O12 2.620485 1_455
La1 O1 2.620485 1_556
La1 O8 2.689531 1_455
La1 O9 2.689531 1_555
La1 O6 2.786488 1_456
La1 O10 2.786494 1_555
La1 O3 2.859993 1_565
La1 O5 2.859996 1_455
La2 O12 2.390022 1_555
La2 O2 2.390022 1_545
La2 O0 2.620485 1_545
La2 O14 2.620485 1_554
La2 O10 2.689531 1_545
La2 O7 2.689531 1_555
La2 O11 2.786488 1_544
La2 O8 2.786494 1_555
La2 O4 2.859993 1_655
La2 O5 2.859996 1_545
B0 O4 1.458946 1_665
B0 O3 1.458946 1_664
B0 O6 1.505344 1_555
B0 O11 1.505344 1_554
B1 O3 1.458941 1_555
B1 O5 1.458946 1_445
B1 O9 1.505344 1_555
B1 O8 1.505344 1_455
B2 O4 1.458941 1_555
B2 O5 1.458946 1_445
B2 O7 1.505344 1_555
B2 O10 1.505344 1_545
O0 Si2 1.618409 1_565
O1 Si1 1.618409 1_555
O2 Si0 1.618409 1_555
O6 Si1 1.672064 1_655
O7 Si0 1.672064 1_555
O8 Si2 1.672060 1_555
O9 Si0 1.672064 1_555
O10 Si1 1.672060 1_555
O11 Si2 1.672064 1_565
O12 Si1 1.618409 1_655
O13 Si0 1.618409 1_555
O14 Si2 1.618409 1_555
