# generated using pymatgen
data_Dy14Ti10O41
_symmetry_space_group_name_H-M   'P 1'
_cell_length_a   7.28367158
_cell_length_b   7.28367158
_cell_length_c   17.67440767
_cell_angle_alpha   89.35757121
_cell_angle_beta   89.35757121
_cell_angle_gamma   60.22132282
_symmetry_Int_Tables_number   1
_chemical_formula_structural   Dy14Ti10O41
_chemical_formula_sum   'Dy14 Ti10 O41'
_cell_volume   813.77431040
_cell_formula_units_Z   1
loop_
 _symmetry_equiv_pos_site_id
 _symmetry_equiv_pos_as_xyz
  1  'x, y, z'
loop_
 _atom_site_type_symbol
 _atom_site_label
 _atom_site_symmetry_multiplicity
 _atom_site_fract_x
 _atom_site_fract_y
 _atom_site_fract_z
 _atom_site_occupancy
  Dy  Dy0  1  0.34428900  0.34428900  0.18650500  1
  Dy  Dy1  1  0.51589800  0.51589800  0.99863400  1
  Dy  Dy2  1  0.82824700  0.82824700  0.15947900  1
  Dy  Dy3  1  0.83449800  0.34487500  0.16731900  1
  Dy  Dy4  1  0.97917600  0.97917600  0.99094300  1
  Dy  Dy5  1  0.34487500  0.83449800  0.16731900  1
  Dy  Dy6  1  0.50085400  0.50085400  0.50486300  1
  Dy  Dy7  1  0.50097800  0.00211300  0.50062500  1
  Dy  Dy8  1  0.66818400  0.66818400  0.33535900  1
  Dy  Dy9  1  0.00211300  0.50097800  0.50062500  1
  Dy  Dy10  1  0.16570500  0.16570500  0.83496200  1
  Dy  Dy11  1  0.18497800  0.66989900  0.82440600  1
  Dy  Dy12  1  0.32650500  0.32650500  0.66538100  1
  Dy  Dy13  1  0.66989900  0.18497800  0.82440600  1
  Ti  Ti0  1  0.01866100  0.48924700  0.00303400  1
  Ti  Ti1  1  0.48924700  0.01866100  0.00303400  1
  Ti  Ti2  1  0.68120000  0.16106300  0.33592200  1
  Ti  Ti3  1  0.16106200  0.68120000  0.33592200  1
  Ti  Ti4  1  0.16453800  0.16453800  0.33386600  1
  Ti  Ti5  1  0.33589700  0.83589600  0.66536300  1
  Ti  Ti6  1  0.66403700  0.66403700  0.83578300  1
  Ti  Ti7  1  0.83589600  0.33589700  0.66536300  1
  Ti  Ti8  1  0.83456600  0.83456600  0.66704900  1
  Ti  Ti9  1  0.00234200  0.00234200  0.50132100  1
  O  O0  1  0.79701100  0.79701100  0.02884100  1
  O  O1  1  0.70084000  0.14498500  0.21723300  1
  O  O2  1  0.86143900  0.30760000  0.04076300  1
  O  O3  1  0.14498500  0.70084000  0.21723300  1
  O  O4  1  0.49614000  0.49614000  0.12389700  1
  O  O5  1  0.29231100  0.85673700  0.32211000  1
  O  O6  1  0.45892700  0.45892700  0.34074000  1
  O  O7  1  0.27037400  0.86511300  0.55594700  1
  O  O8  1  0.16515900  0.16515900  0.21953100  1
  O  O9  1  0.30760000  0.86143900  0.04076300  1
  O  O10  1  0.48356400  0.05818700  0.10980400  1
  O  O11  1  0.66750500  0.66750500  0.46059100  1
  O  O12  1  0.46066000  0.08379400  0.34737100  1
  O  O13  1  0.67531200  0.67531200  0.21059400  1
  O  O14  1  0.85673700  0.29231100  0.32211000  1
  O  O15  1  0.86511300  0.27037400  0.55594700  1
  O  O16  1  0.14243700  0.14243700  0.44569800  1
  O  O17  1  0.93631900  0.53169800  0.63696900  1
  O  O18  1  0.13707500  0.13707500  0.68484800  1
  O  O19  1  0.88503200  0.51562500  0.90340500  1
  O  O20  1  0.05818700  0.48356400  0.10980400  1
  O  O21  1  0.08379400  0.46066000  0.34737100  1
  O  O22  1  0.85683400  0.85683400  0.32990900  1
  O  O23  1  0.86598100  0.86598100  0.55743400  1
  O  O24  1  0.14707700  0.71418600  0.44700800  1
  O  O25  1  0.53169800  0.93631900  0.63696900  1
  O  O26  1  0.13508100  0.72364300  0.69154700  1
  O  O27  1  0.33240600  0.33240600  0.54110000  1
  O  O28  1  0.32763700  0.32763700  0.78978900  1
  O  O29  1  0.51562500  0.88503200  0.90340500  1
  O  O30  1  0.61600800  0.17524100  0.96312800  1
  O  O31  1  0.79639200  0.79639200  0.77652700  1
  O  O32  1  0.51397800  0.51397800  0.86970600  1
  O  O33  1  0.71418600  0.14707700  0.44700800  1
  O  O34  1  0.72364300  0.13508100  0.69154700  1
  O  O35  1  0.53021300  0.53021300  0.63820500  1
  O  O36  1  0.82286300  0.37800100  0.77389200  1
  O  O37  1  0.17524100  0.61600800  0.96312800  1
  O  O38  1  0.99717400  0.99717400  0.87036500  1
  O  O39  1  0.21979200  0.21979200  0.96139200  1
  O  O40  1  0.37800100  0.82286300  0.77389200  1
loop_
_geom_bond_atom_site_label_1
_geom_bond_atom_site_label_2
_geom_bond_distance
_geom_bond_site_symmetry_2
Dy0 O4 2.198025 1_555
Dy0 O20 2.267619 1_555
Dy0 O10 2.267619 1_555
Dy0 O8 2.324237 1_555
Dy0 O1 2.327214 1_555
Dy0 O3 2.327214 1_555
Dy1 O4 2.224696 1_556
Dy1 O32 2.279168 1_555
Dy1 O30 2.304248 1_555
Dy1 O37 2.304248 1_555
Dy1 O2 2.326887 1_556
Dy1 O9 2.326887 1_556
Dy2 O13 2.117840 1_555
Dy2 O3 2.265054 1_655
Dy2 O1 2.265054 1_565
Dy2 O0 2.347285 1_555
Dy2 O20 2.391368 1_655
Dy2 O10 2.391368 1_565
Dy3 O13 2.229691 1_555
Dy3 O2 2.250857 1_555
Dy3 O4 2.280994 1_555
Dy3 O1 2.281576 1_555
Dy3 O8 2.292776 1_655
Dy3 O20 2.506589 1_655
Dy3 O14 2.753631 1_555
Dy4 O38 2.140254 1_555
Dy4 O2 2.285979 1_566
Dy4 O9 2.285979 1_656
Dy4 O37 2.353577 1_655
Dy4 O30 2.353577 1_565
Dy4 O0 2.382949 1_556
Dy5 O13 2.229691 1_555
Dy5 O9 2.250857 1_555
Dy5 O4 2.280994 1_555
Dy5 O3 2.281576 1_555
Dy5 O8 2.292776 1_565
Dy5 O10 2.506589 1_565
Dy5 O5 2.753631 1_555
Dy6 O27 2.209269 1_555
Dy6 O11 2.231584 1_555
Dy6 O35 2.390336 1_555
Dy6 O33 2.479164 1_555
Dy6 O24 2.479164 1_555
Dy6 O15 2.503628 1_555
Dy6 O7 2.503628 1_555
Dy6 O6 2.955230 1_555
Dy7 O27 2.211734 1_555
Dy7 O11 2.234902 1_545
Dy7 O25 2.442650 1_545
Dy7 O33 2.449039 1_555
Dy7 O16 2.488039 1_555
Dy7 O7 2.525691 1_545
Dy7 O23 2.545264 1_545
Dy7 O12 2.754135 1_555
Dy8 O13 2.205813 1_555
Dy8 O11 2.213307 1_555
Dy8 O22 2.377994 1_555
Dy8 O5 2.389268 1_555
Dy8 O14 2.389268 1_555
Dy8 O12 2.637375 1_565
Dy8 O21 2.637375 1_655
Dy8 O6 2.637455 1_555
Dy9 O27 2.211734 1_555
Dy9 O11 2.234902 1_455
Dy9 O17 2.442650 1_455
Dy9 O24 2.449039 1_555
Dy9 O16 2.488039 1_555
Dy9 O15 2.525691 1_455
Dy9 O23 2.545264 1_455
Dy9 O21 2.754135 1_555
Dy10 O28 2.181576 1_555
Dy10 O38 2.206228 1_445
Dy10 O39 2.344646 1_555
Dy10 O40 2.445277 1_545
Dy10 O36 2.445277 1_455
Dy10 O29 2.641346 1_545
Dy10 O19 2.641346 1_455
Dy10 O18 2.682223 1_555
Dy11 O32 2.234412 1_555
Dy11 O38 2.234481 1_455
Dy11 O28 2.261780 1_555
Dy11 O40 2.349564 1_555
Dy11 O26 2.378359 1_555
Dy11 O37 2.484500 1_555
Dy11 O31 2.649861 1_455
Dy12 O27 2.196888 1_555
Dy12 O28 2.199069 1_555
Dy12 O18 2.407371 1_555
Dy12 O25 2.521680 1_545
Dy12 O17 2.521680 1_455
Dy12 O34 2.556284 1_555
Dy12 O26 2.556284 1_555
Dy12 O35 2.605469 1_555
Dy13 O32 2.234412 1_555
Dy13 O38 2.234481 1_545
Dy13 O28 2.261780 1_555
Dy13 O36 2.349564 1_555
Dy13 O34 2.378359 1_555
Dy13 O30 2.484500 1_555
Dy13 O31 2.649861 1_545
O0 Ti1 2.061819 1_565
O0 Ti0 2.061819 1_655
O1 Ti2 2.101643 1_555
O2 Ti0 2.230376 1_655
O3 Ti3 2.101643 1_555
O5 Ti3 1.951929 1_555
O5 Ti4 1.967011 1_565
O6 Ti2 1.961474 1_555
O6 Ti3 1.961479 1_555
O7 Ti9 1.955730 1_565
O7 Ti5 1.980774 1_555
O8 Ti4 2.020717 1_555
O9 Ti1 2.230376 1_565
O10 Ti1 1.909011 1_555
O12 Ti4 1.950204 1_555
O12 Ti2 1.956062 1_555
O14 Ti2 1.951923 1_555
O14 Ti4 1.967011 1_655
O15 Ti9 1.955730 1_655
O15 Ti7 1.980774 1_555
O16 Ti4 1.992512 1_555
O16 Ti9 2.009530 1_555
O17 Ti7 1.957718 1_555
O17 Ti8 2.022820 1_555
O18 Ti5 1.969330 1_545
O18 Ti7 1.969330 1_455
O19 Ti6 1.863808 1_555
O19 Ti0 1.982437 1_656
O20 Ti0 1.909011 1_555
O21 Ti4 1.950204 1_555
O21 Ti3 1.956057 1_555
O22 Ti3 1.935074 1_655
O22 Ti2 1.935080 1_565
O23 Ti8 1.972379 1_555
O23 Ti9 1.972866 1_665
O24 Ti3 1.976042 1_555
O24 Ti9 2.064621 1_565
O25 Ti5 1.957718 1_555
O25 Ti8 2.022820 1_555
O26 Ti8 1.971832 1_455
O26 Ti5 2.046050 1_555
O29 Ti6 1.863808 1_555
O29 Ti1 1.982437 1_566
O30 Ti1 1.914133 1_556
O31 Ti6 1.957913 1_555
O31 Ti8 1.987800 1_555
O32 Ti6 1.976338 1_555
O33 Ti2 1.976042 1_555
O33 Ti9 2.064621 1_655
O34 Ti8 1.971832 1_545
O34 Ti7 2.046050 1_555
O35 Ti7 2.017289 1_555
O35 Ti5 2.017289 1_555
O36 Ti7 1.939765 1_555
O36 Ti6 2.122289 1_555
O37 Ti0 1.914133 1_556
O39 Ti1 1.921459 1_556
O39 Ti0 1.921459 1_556
O40 Ti5 1.939765 1_555
O40 Ti6 2.122289 1_555
