# generated using pymatgen
data_Er14Ti10O41
_symmetry_space_group_name_H-M   'P 1'
_cell_length_a   7.27886577
_cell_length_b   7.27886577
_cell_length_c   17.45291790
_cell_angle_alpha   89.52850929
_cell_angle_beta   89.52850929
_cell_angle_gamma   60.12474588
_symmetry_Int_Tables_number   1
_chemical_formula_structural   Er14Ti10O41
_chemical_formula_sum   'Er14 Ti10 O41'
_cell_volume   801.77223744
_cell_formula_units_Z   1
loop_
 _symmetry_equiv_pos_site_id
 _symmetry_equiv_pos_as_xyz
  1  'x, y, z'
loop_
 _atom_site_type_symbol
 _atom_site_label
 _atom_site_symmetry_multiplicity
 _atom_site_fract_x
 _atom_site_fract_y
 _atom_site_fract_z
 _atom_site_occupancy
  Er  Er0  1  0.16145600  0.16145600  0.81782700  1
  Er  Er1  1  0.67076000  0.67076000  0.83260100  1
  Er  Er2  1  0.99079900  0.99079900  0.99947500  1
  Er  Er3  1  0.51743300  0.51743300  0.00789900  1
  Er  Er4  1  0.15342600  0.66910000  0.83171000  1
  Er  Er5  1  0.00870300  0.00870300  0.49715500  1
  Er  Er6  1  0.66910000  0.15342600  0.83171000  1
  Er  Er7  1  0.83431500  0.83431500  0.67081300  1
  Er  Er8  1  0.01005800  0.48288700  0.49660100  1
  Er  Er9  1  0.16626300  0.16626300  0.33062200  1
  Er  Er10  1  0.83367800  0.32585900  0.17033900  1
  Er  Er11  1  0.48288700  0.01005800  0.49660100  1
  Er  Er12  1  0.32585900  0.83367800  0.17033900  1
  Er  Er13  1  0.33482700  0.33482700  0.16854200  1
  Ti  Ti0  1  0.00655300  0.48520800  0.99846100  1
  Ti  Ti1  1  0.48520800  0.00655300  0.99846100  1
  Ti  Ti2  1  0.34999100  0.80215800  0.66023400  1
  Ti  Ti3  1  0.80215800  0.34999100  0.66023400  1
  Ti  Ti4  1  0.34787200  0.34787200  0.66189200  1
  Ti  Ti5  1  0.66619600  0.16517000  0.33582300  1
  Ti  Ti6  1  0.83495000  0.83495000  0.16761600  1
  Ti  Ti7  1  0.16517000  0.66619600  0.33582300  1
  Ti  Ti8  1  0.49935700  0.49935700  0.51332700  1
  Ti  Ti9  1  0.66678600  0.66678600  0.33610800  1
  O  O0  1  0.34556200  0.81505900  0.78101400  1
  O  O1  1  0.69576700  0.69576700  0.97233000  1
  O  O2  1  0.18692000  0.64297800  0.96167400  1
  O  O3  1  0.81505900  0.34556200  0.78101400  1
  O  O4  1  0.49903200  0.49903200  0.62522900  1
  O  O5  1  0.65271500  0.19521000  0.45244500  1
  O  O6  1  0.03150200  0.03150200  0.63519600  1
  O  O7  1  0.00697300  0.00697300  0.87578300  1
  O  O8  1  0.66134700  0.17768900  0.69127600  1
  O  O9  1  0.64297800  0.18692000  0.96167400  1
  O  O10  1  0.33466300  0.33466300  0.77933300  1
  O  O11  1  0.43712100  0.03156900  0.63578500  1
  O  O12  1  0.45124600  0.01482000  0.89003200  1
  O  O13  1  0.19521000  0.65271500  0.45244500  1
  O  O14  1  0.82794300  0.82794300  0.79178100  1
  O  O15  1  0.17768900  0.66134700  0.69127600  1
  O  O16  1  0.36377300  0.36377300  0.31488600  1
  O  O17  1  0.97544000  0.59011400  0.10600900  1
  O  O18  1  0.34738500  0.34738500  0.54538100  1
  O  O19  1  0.97100900  0.55524600  0.36103300  1
  O  O20  1  0.03156900  0.43712100  0.63578500  1
  O  O21  1  0.64905400  0.64905400  0.45091200  1
  O  O22  1  0.01482000  0.45124600  0.89003200  1
  O  O23  1  0.66074400  0.66074400  0.68845500  1
  O  O24  1  0.80380400  0.34774200  0.54526100  1
  O  O25  1  0.77219500  0.36437500  0.31047900  1
  O  O26  1  0.59011400  0.97544000  0.10600900  1
  O  O27  1  0.16728600  0.16728600  0.45513300  1
  O  O28  1  0.16980300  0.16980300  0.20681200  1
  O  O29  1  0.55524600  0.97100900  0.36103300  1
  O  O30  1  0.69847500  0.69847500  0.22579300  1
  O  O31  1  0.32256500  0.88379000  0.03707300  1
  O  O32  1  0.36437500  0.77219500  0.31047900  1
  O  O33  1  0.97349600  0.97349600  0.35978000  1
  O  O34  1  0.98105900  0.98105900  0.12694900  1
  O  O35  1  0.34774200  0.80380400  0.54526100  1
  O  O36  1  0.11572700  0.68338500  0.22760200  1
  O  O37  1  0.50053100  0.50053100  0.12935000  1
  O  O38  1  0.88379000  0.32256500  0.03707300  1
  O  O39  1  0.68338500  0.11572700  0.22760200  1
  O  O40  1  0.27774900  0.27774900  0.03565200  1
loop_
_geom_bond_atom_site_label_1
_geom_bond_atom_site_label_2
_geom_bond_distance
_geom_bond_site_symmetry_2
Er0 O7 2.184986 1_555
Er0 O12 2.226058 1_555
Er0 O22 2.226058 1_555
Er0 O10 2.277270 1_555
Er0 O0 2.283057 1_545
Er0 O3 2.283057 1_455
Er1 O14 2.098279 1_555
Er1 O3 2.249340 1_555
Er1 O0 2.249340 1_555
Er1 O12 2.420348 1_565
Er1 O22 2.420348 1_655
Er1 O1 2.461917 1_555
Er1 O23 2.520130 1_555
Er2 O7 2.166453 1_665
Er2 O34 2.227010 1_556
Er2 O31 2.238914 1_656
Er2 O38 2.238914 1_566
Er2 O2 2.300936 1_655
Er2 O9 2.300936 1_565
Er3 O37 2.128329 1_555
Er3 O9 2.259044 1_554
Er3 O2 2.259044 1_554
Er3 O1 2.325390 1_554
Er3 O31 2.371613 1_555
Er3 O38 2.371613 1_555
Er4 O14 2.172633 1_455
Er4 O7 2.276450 1_565
Er4 O2 2.279556 1_555
Er4 O0 2.304747 1_555
Er4 O10 2.306379 1_555
Er4 O15 2.454978 1_555
Er4 O22 2.473628 1_555
Er5 O27 2.121850 1_555
Er5 O24 2.316508 1_455
Er5 O35 2.316508 1_545
Er5 O13 2.382761 1_545
Er5 O5 2.382761 1_455
Er5 O6 2.428993 1_555
Er5 O33 2.442428 1_445
Er6 O14 2.172633 1_545
Er6 O7 2.276450 1_655
Er6 O9 2.279556 1_555
Er6 O3 2.304747 1_555
Er6 O10 2.306379 1_555
Er6 O8 2.454978 1_555
Er6 O12 2.473628 1_555
Er7 O14 2.112008 1_555
Er7 O8 2.198170 1_565
Er7 O15 2.198170 1_655
Er7 O23 2.205565 1_555
Er7 O6 2.555290 1_665
Er7 O20 2.583230 1_655
Er7 O11 2.583230 1_565
Er8 O27 2.122586 1_555
Er8 O18 2.309627 1_555
Er8 O24 2.319336 1_455
Er8 O13 2.359062 1_555
Er8 O19 2.407870 1_455
Er8 O21 2.419908 1_455
Er8 O20 2.444856 1_555
Er9 O28 2.160882 1_555
Er9 O27 2.173241 1_555
Er9 O33 2.476756 1_445
Er9 O16 2.501026 1_555
Er9 O25 2.513596 1_455
Er9 O32 2.513596 1_545
Er9 O19 2.514293 1_455
Er9 O29 2.514293 1_545
Er10 O28 2.219569 1_655
Er10 O37 2.225012 1_555
Er10 O34 2.314920 1_545
Er10 O38 2.349806 1_555
Er10 O25 2.475752 1_555
Er10 O39 2.481689 1_555
Er10 O30 2.574837 1_555
Er10 O17 2.819174 1_555
Er11 O27 2.122586 1_555
Er11 O18 2.309627 1_555
Er11 O35 2.319336 1_545
Er11 O5 2.359062 1_555
Er11 O29 2.407870 1_545
Er11 O21 2.419908 1_545
Er11 O11 2.444856 1_555
Er12 O28 2.219569 1_565
Er12 O37 2.225012 1_555
Er12 O34 2.314920 1_455
Er12 O31 2.349806 1_555
Er12 O32 2.475752 1_555
Er12 O36 2.481689 1_555
Er12 O30 2.574837 1_555
Er12 O26 2.819174 1_555
Er13 O28 2.177802 1_555
Er13 O37 2.190783 1_555
Er13 O40 2.434776 1_555
Er13 O39 2.455170 1_555
Er13 O36 2.455170 1_555
Er13 O17 2.580338 1_455
Er13 O26 2.580338 1_545
Er13 O16 2.583467 1_555
O0 Ti2 2.110093 1_555
O1 Ti0 2.055687 1_655
O1 Ti1 2.055687 1_565
O2 Ti0 2.220498 1_555
O3 Ti3 2.110093 1_555
O4 Ti8 1.952982 1_555
O4 Ti4 2.003373 1_555
O4 Ti2 2.011241 1_555
O4 Ti3 2.011241 1_555
O5 Ti5 2.045222 1_555
O5 Ti8 2.198520 1_555
O6 Ti3 2.121615 1_455
O6 Ti2 2.121615 1_545
O8 Ti3 2.043827 1_555
O8 Ti4 2.048612 1_555
O9 Ti1 2.220498 1_555
O10 Ti4 2.054856 1_555
O11 Ti2 2.100371 1_545
O11 Ti4 2.110146 1_555
O12 Ti1 1.907072 1_555
O13 Ti7 2.045222 1_555
O13 Ti8 2.198520 1_555
O15 Ti2 2.043827 1_555
O15 Ti4 2.048612 1_555
O16 Ti5 1.975690 1_555
O16 Ti7 1.975690 1_555
O17 Ti6 1.890955 1_555
O17 Ti0 2.000478 1_654
O18 Ti8 1.989701 1_555
O18 Ti4 2.033525 1_555
O19 Ti7 1.991001 1_655
O19 Ti9 1.992723 1_555
O20 Ti3 2.100371 1_455
O20 Ti4 2.110146 1_555
O21 Ti9 2.013970 1_555
O21 Ti8 2.169083 1_555
O22 Ti0 1.907072 1_555
O23 Ti3 2.027053 1_555
O23 Ti2 2.027053 1_555
O24 Ti8 2.003290 1_555
O24 Ti3 2.006704 1_555
O25 Ti9 1.990507 1_555
O25 Ti5 1.997937 1_555
O26 Ti6 1.890955 1_555
O26 Ti1 2.000478 1_564
O29 Ti5 1.991001 1_565
O29 Ti9 1.992723 1_555
O30 Ti9 1.962561 1_555
O30 Ti6 1.988582 1_555
O31 Ti1 1.919624 1_564
O32 Ti9 1.990507 1_555
O32 Ti7 1.997937 1_555
O33 Ti5 2.005351 1_565
O33 Ti7 2.005351 1_655
O34 Ti6 1.966669 1_555
O35 Ti8 2.003290 1_555
O35 Ti2 2.006704 1_555
O36 Ti7 1.917048 1_555
O36 Ti6 2.063988 1_455
O38 Ti0 1.919624 1_654
O39 Ti5 1.917048 1_555
O39 Ti6 2.063988 1_545
O40 Ti1 1.906208 1_554
O40 Ti0 1.906208 1_554
