# generated using pymatgen
data_Na2Li(H2N)3
_symmetry_space_group_name_H-M   'P 1'
_cell_length_a   6.36093600
_cell_length_b   6.36093600
_cell_length_c   11.29906700
_cell_angle_alpha   90.00000000
_cell_angle_beta   90.00000000
_cell_angle_gamma   90.00000000
_symmetry_Int_Tables_number   1
_chemical_formula_structural   Na2Li(H2N)3
_chemical_formula_sum   'Na8 Li4 H24 N12'
_cell_volume   457.17727621
_cell_formula_units_Z   4
loop_
 _symmetry_equiv_pos_site_id
 _symmetry_equiv_pos_as_xyz
  1  'x, y, z'
loop_
 _atom_site_type_symbol
 _atom_site_label
 _atom_site_symmetry_multiplicity
 _atom_site_fract_x
 _atom_site_fract_y
 _atom_site_fract_z
 _atom_site_occupancy
  Na  Na0  1  0.00000000  0.50000000  0.63801900  1
  Na  Na1  1  0.50000000  0.00000000  0.86198100  1
  Na  Na2  1  0.50000000  0.50000000  0.75000000  1
  Na  Na3  1  0.50000000  0.00000000  0.13801900  1
  Na  Na4  1  0.00000000  0.00000000  0.00000000  1
  Na  Na5  1  0.00000000  0.50000000  0.36198100  1
  Na  Na6  1  0.00000000  0.00000000  0.50000000  1
  Na  Na7  1  0.50000000  0.50000000  0.25000000  1
  Li  Li0  1  0.64634900  0.64466500  0.00000000  1
  Li  Li1  1  0.35365100  0.35533500  0.00000000  1
  Li  Li2  1  0.35533500  0.64634900  0.50000000  1
  Li  Li3  1  0.64466500  0.35365100  0.50000000  1
  H  H0  1  0.16751100  0.16535200  0.77891400  1
  H  H1  1  0.34668600  0.92238800  0.36494400  1
  H  H2  1  0.16535200  0.83248900  0.27891400  1
  H  H3  1  0.65331400  0.07761200  0.36494400  1
  H  H4  1  0.83248900  0.83464800  0.77891400  1
  H  H5  1  0.65331400  0.07761200  0.63505600  1
  H  H6  1  0.24753800  0.69688200  0.92820600  1
  H  H7  1  0.30311800  0.24753800  0.42820600  1
  H  H8  1  0.92238800  0.65331400  0.86494400  1
  H  H9  1  0.83464800  0.16751100  0.72108600  1
  H  H10  1  0.75246200  0.30311800  0.92820600  1
  H  H11  1  0.83248900  0.83464800  0.22108600  1
  H  H12  1  0.07761200  0.34668600  0.86494400  1
  H  H13  1  0.92238800  0.65331400  0.13505600  1
  H  H14  1  0.75246200  0.30311800  0.07179400  1
  H  H15  1  0.69688200  0.75246200  0.57179400  1
  H  H16  1  0.34668600  0.92238800  0.63505600  1
  H  H17  1  0.16751100  0.16535200  0.22108600  1
  H  H18  1  0.69688200  0.75246200  0.42820600  1
  H  H19  1  0.16535200  0.83248900  0.72108600  1
  H  H20  1  0.83464800  0.16751100  0.27891400  1
  H  H21  1  0.30311800  0.24753800  0.57179400  1
  H  H22  1  0.24753800  0.69688200  0.07179400  1
  H  H23  1  0.07761200  0.34668600  0.13505600  1
  N  N0  1  0.21435900  0.27031500  0.15723500  1
  N  N1  1  0.72968500  0.21435900  0.65723500  1
  N  N2  1  0.21435900  0.27031500  0.84276500  1
  N  N3  1  0.78564100  0.72968500  0.84276500  1
  N  N4  1  0.72968500  0.21435900  0.34276500  1
  N  N5  1  0.27031500  0.78564100  0.65723500  1
  N  N6  1  0.78564100  0.72968500  0.15723500  1
  N  N7  1  0.65792600  0.27410800  0.00000000  1
  N  N8  1  0.27410800  0.34207400  0.50000000  1
  N  N9  1  0.72589200  0.65792600  0.50000000  1
  N  N10  1  0.34207400  0.72589200  0.00000000  1
  N  N11  1  0.27031500  0.78564100  0.34276500  1
loop_
_geom_bond_atom_site_label_1
_geom_bond_atom_site_label_2
_geom_bond_distance
_geom_bond_site_symmetry_2
Li0 N10 2.003252 1_555
Li0 N3 2.057633 1_554
Li0 N6 2.057633 1_555
Li1 N7 2.003252 1_555
Li1 N2 2.057633 1_554
Li1 N0 2.057633 1_555
Li2 N8 2.003252 1_555
Li2 N5 2.057633 1_555
Li2 N11 2.057633 1_555
Li3 N9 2.003252 1_555
Li3 N1 2.057633 1_555
Li3 N4 2.057633 1_555
H0 N2 1.027169 1_555
H0 Na1 2.541688 1_555
H1 N11 1.027333 1_555
H1 Na6 2.726818 1_565
H2 N11 1.027169 1_555
H2 Na5 2.541688 1_555
H3 N4 1.027333 1_555
H3 Na6 2.726818 1_655
H4 N3 1.027169 1_555
H4 Na1 2.541688 1_565
H5 N1 1.027333 1_555
H5 Na6 2.726818 1_655
H6 N10 1.026505 1_556
H6 Na4 2.618198 1_566
H6 Na1 2.618482 1_565
H7 N8 1.026505 1_555
H7 Na6 2.618198 1_555
H7 Na5 2.618482 1_555
H8 N3 1.027333 1_555
H8 Na4 2.726818 1_666
H9 N1 1.027169 1_555
H9 Na0 2.541688 1_655
H10 N7 1.026505 1_556
H10 Na4 2.618198 1_656
H10 Na1 2.618482 1_555
H11 N6 1.027169 1_555
H11 Na3 2.541688 1_565
H12 N2 1.027333 1_555
H12 Na4 2.726818 1_556
H13 N6 1.027333 1_555
H13 Na4 2.726818 1_665
H14 N7 1.026505 1_555
H14 Na4 2.618198 1_655
H14 Na3 2.618482 1_555
H15 N9 1.026505 1_555
H15 Na6 2.618198 1_665
H15 Na0 2.618482 1_655
H16 N5 1.027333 1_555
H16 Na6 2.726818 1_565
H17 N0 1.027169 1_555
H17 Na3 2.541688 1_555
H18 N9 1.026505 1_555
H18 Na6 2.618198 1_665
H18 Na5 2.618482 1_655
H19 N5 1.027169 1_555
H19 Na0 2.541688 1_555
H20 N4 1.027169 1_555
H20 Na5 2.541688 1_655
H21 N8 1.026505 1_555
H21 Na6 2.618198 1_555
H21 Na0 2.618482 1_555
H22 N10 1.026505 1_555
H22 Na4 2.618198 1_565
H22 Na3 2.618482 1_565
H23 N0 1.027333 1_555
H23 Na4 2.726818 1_555
N0 Na3 2.510968 1_555
N0 Na7 2.556262 1_555
N0 Na4 2.823485 1_555
N1 Na0 2.510968 1_655
N1 Na2 2.556262 1_555
N1 Na6 2.823485 1_655
N2 Na1 2.510968 1_555
N2 Na2 2.556262 1_555
N2 Na4 2.823485 1_556
N3 Na1 2.510968 1_565
N3 Na2 2.556262 1_555
N3 Na4 2.823485 1_666
N4 Na5 2.510968 1_655
N4 Na7 2.556262 1_555
N4 Na6 2.823485 1_655
N5 Na0 2.510968 1_555
N5 Na2 2.556262 1_555
N5 Na6 2.823485 1_565
N6 Na3 2.510968 1_565
N6 Na7 2.556262 1_555
N6 Na4 2.823485 1_665
N7 Na1 2.545823 1_554
N7 Na3 2.545823 1_555
N7 Na4 2.788310 1_655
N8 Na5 2.545823 1_555
N8 Na0 2.545823 1_555
N8 Na6 2.788310 1_555
N9 Na5 2.545823 1_655
N9 Na0 2.545823 1_655
N9 Na6 2.788310 1_665
N10 Na1 2.545823 1_564
N10 Na3 2.545823 1_565
N10 Na4 2.788310 1_565
N11 Na5 2.510968 1_555
N11 Na7 2.556262 1_555
N11 Na6 2.823485 1_565
