# generated using pymatgen
data_Ba3Ce2C5O15F2
_symmetry_space_group_name_H-M   'P 1'
_cell_length_a   5.20742233
_cell_length_b   11.16861481
_cell_length_c   14.34470199
_cell_angle_alpha   97.40487094
_cell_angle_beta   90.00000000
_cell_angle_gamma   103.48127055
_symmetry_Int_Tables_number   1
_chemical_formula_structural   Ba3Ce2C5O15F2
_chemical_formula_sum   'Ba6 Ce4 C10 O30 F4'
_cell_volume   804.13915920
_cell_formula_units_Z   2
loop_
 _symmetry_equiv_pos_site_id
 _symmetry_equiv_pos_as_xyz
  1  'x, y, z'
loop_
 _atom_site_type_symbol
 _atom_site_label
 _atom_site_symmetry_multiplicity
 _atom_site_fract_x
 _atom_site_fract_y
 _atom_site_fract_z
 _atom_site_occupancy
  Ba  Ba0  1  0.51122441  0.02244883  0.46904989  1
  Ba  Ba1  1  0.69924497  0.39848995  0.08825424  1
  Ba  Ba2  1  0.17739949  0.35479897  0.55460128  1
  Ba  Ba3  1  0.00244131  0.00488262  0.98731179  1
  Ba  Ba4  1  0.30433736  0.60867473  0.89103043  1
  Ba  Ba5  1  0.82732887  0.65465774  0.39072907  1
  Ce  Ce0  1  0.60294952  0.20589905  0.79843473  1
  Ce  Ce1  1  0.11271961  0.22543922  0.25453480  1
  Ce  Ce2  1  0.40553371  0.81106743  0.15705479  1
  Ce  Ce3  1  0.89346712  0.78693424  0.69582818  1
  C  C0  1  0.84562031  0.69124062  0.06992633  1
  C  C1  1  0.54788457  0.09576915  0.16355921  1
  C  C2  1  0.34027681  0.68055361  0.54606774  1
  C  C3  1  0.15681549  0.31363097  0.90531357  1
  C  C4  1  0.95985710  0.91971420  0.29941801  1
  C  C5  1  0.65701690  0.31403380  0.40675371  1
  C  C6  1  0.04703862  0.09407724  0.66658795  1
  C  C7  1  0.25420395  0.50840789  0.25023307  1
  C  C8  1  0.45808914  0.91617828  0.80734693  1
  C  C9  1  0.75856004  0.51712008  0.73656736  1
  O  O0  1  0.30340284  0.03652122  0.14912403  1
  O  O1  1  0.59871635  0.63144549  0.06099788  1
  O  O2  1  0.60648194  0.21296387  0.19541119  1
  O  O3  1  0.70310473  0.97587156  0.82221265  1
  O  O4  1  0.29152935  0.15554429  0.67571742  1
  O  O5  1  0.00909035  0.44564173  0.24629426  1
  O  O6  1  0.98844713  0.97689426  0.64157929  1
  O  O7  1  0.09787709  0.19575417  0.87559961  1
  O  O8  1  0.28896421  0.57792842  0.49054634  1
  O  O9  1  0.71397687  0.85856695  0.28638540  1
  O  O10  1  0.03272914  0.63144549  0.06099788  1
  O  O11  1  0.00298035  0.58006801  0.73489909  1
  O  O12  1  0.96821215  0.37210922  0.91728221  1
  O  O13  1  0.73311838  0.03652122  0.14912403  1
  O  O14  1  0.14459008  0.85856695  0.28638540  1
  O  O15  1  0.40389707  0.37210922  0.91728221  1
  O  O16  1  0.84205028  0.25209885  0.38886710  1
  O  O17  1  0.27276684  0.97587156  0.82221265  1
  O  O18  1  0.71343010  0.42686020  0.44177106  1
  O  O19  1  0.01859668  0.03719336  0.32541530  1
  O  O20  1  0.39979088  0.79958176  0.77401780  1
  O  O21  1  0.31414420  0.62828841  0.26028459  1
  O  O22  1  0.57708766  0.58006801  0.73489909  1
  O  O23  1  0.70008855  0.40017711  0.73979496  1
  O  O24  1  0.15177985  0.73530232  0.57158864  1
  O  O25  1  0.41004856  0.25209885  0.38886710  1
  O  O26  1  0.43655138  0.44564173  0.24629426  1
  O  O27  1  0.86401494  0.15554429  0.67571742  1
  O  O28  1  0.58352247  0.73530232  0.57158864  1
  O  O29  1  0.90526240  0.81052481  0.09102377  1
  F  F0  1  0.62572757  0.25145514  0.55696712  1
  F  F1  1  0.12462051  0.24924101  0.08831968  1
  F  F2  1  0.42457968  0.84915936  0.99158835  1
  F  F3  1  0.94681010  0.89362020  0.46234051  1
loop_
_geom_bond_atom_site_label_1
_geom_bond_atom_site_label_2
_geom_bond_distance
_geom_bond_site_symmetry_2
Ba0 F0 2.635387 1_555
Ba0 F3 2.951376 1_445
Ba0 F3 2.951376 1_545
Ba1 O2 2.691447 1_555
Ba1 O26 2.704856 1_555
Ba1 O5 2.704856 1_655
Ba1 O15 2.840718 1_554
Ba1 O12 2.840719 1_554
Ba1 O1 2.844906 1_555
Ba1 O10 2.844906 1_655
Ba1 F1 3.067128 1_555
Ba1 F1 3.067128 1_655
Ba2 O8 2.703199 1_555
Ba2 F0 2.837314 1_555
Ba2 F0 2.837314 1_455
Ba2 O25 2.894905 1_555
Ba2 O16 2.894905 1_455
Ba2 O4 3.152356 1_555
Ba2 O27 3.152357 1_455
Ba2 O18 3.216707 1_555
Ba2 O18 3.216707 1_455
Ba3 O0 2.738465 1_556
Ba3 O13 2.738465 1_456
Ba3 O29 2.738904 1_446
Ba3 O3 2.776744 1_445
Ba3 O17 2.776744 1_545
Ba3 O7 2.783152 1_555
Ba3 F1 2.850185 1_556
Ba3 F2 3.109830 1_445
Ba3 F2 3.109830 1_545
Ba4 O11 2.676305 1_555
Ba4 O22 2.676305 1_555
Ba4 F2 2.811401 1_555
Ba4 O10 2.831523 1_556
Ba4 O1 2.831523 1_556
Ba4 O20 2.835304 1_555
Ba4 O12 2.878623 1_455
Ba4 O15 2.878623 1_555
Ba5 F3 2.661646 1_555
Ba5 O18 2.671577 1_555
Ba5 O24 3.014096 1_655
Ba5 O28 3.014096 1_555
Ba5 O14 3.046417 1_655
Ba5 O9 3.046417 1_555
Ba5 O8 3.136918 1_555
Ba5 O8 3.136918 1_655
Ba5 O21 3.196972 1_655
Ba5 O21 3.196972 1_555
Ba5 O26 3.228247 1_555
Ba5 O5 3.228247 1_655
Ce0 O4 2.316154 1_555
Ce0 O27 2.316154 1_555
Ce0 O23 2.372815 1_555
Ce0 O15 2.740127 1_555
Ce0 O12 2.740127 1_555
Ce0 O17 2.799854 1_545
Ce0 O3 2.799854 1_545
Ce0 O7 2.837080 1_555
Ce0 O7 2.837080 1_655
Ce1 O19 2.401010 1_555
Ce1 O25 2.415836 1_555
Ce1 O16 2.415836 1_455
Ce1 F1 2.432102 1_555
Ce1 O26 2.654686 1_555
Ce1 O5 2.654686 1_555
Ce1 O2 2.736147 1_455
Ce1 O2 2.736147 1_555
Ce1 O13 2.806917 1_455
Ce1 O0 2.806917 1_555
Ce2 O14 2.377418 1_555
Ce2 O9 2.377418 1_555
Ce2 F2 2.462775 1_554
Ce2 O21 2.629208 1_555
Ce2 O10 2.676496 1_555
Ce2 O1 2.676496 1_555
Ce2 O0 2.708207 1_565
Ce2 O13 2.708207 1_565
Ce2 O29 2.770387 1_455
Ce2 O29 2.770387 1_555
Ce3 O6 2.299488 1_555
Ce3 O28 2.326988 1_555
Ce3 O24 2.326988 1_655
Ce3 O22 2.631621 1_555
Ce3 O11 2.631621 1_655
Ce3 O20 2.831138 1_655
Ce3 O20 2.831138 1_555
Ce3 O3 2.951522 1_555
Ce3 O17 2.951522 1_655
C0 O29 1.290761 1_555
C0 O1 1.301196 1_555
C0 O10 1.301196 1_655
C1 O0 1.293626 1_555
C1 O13 1.293626 1_555
C1 O2 1.294112 1_555
C2 O8 1.281150 1_555
C2 O28 1.301372 1_555
C2 O24 1.301372 1_555
C3 O7 1.294629 1_555
C3 O15 1.300313 1_555
C3 O12 1.300313 1_455
C4 O19 1.280991 1_665
C4 O9 1.303901 1_555
C4 O14 1.303901 1_655
C5 O18 1.261251 1_555
C5 O16 1.318241 1_555
C5 O25 1.318241 1_555
C6 O6 1.275721 1_445
C6 O4 1.295644 1_555
C6 O27 1.295644 1_455
C7 O21 1.290834 1_555
C7 O26 1.302470 1_555
C7 O5 1.302470 1_555
C8 O20 1.292949 1_555
C8 O17 1.297927 1_555
C8 O3 1.297927 1_555
C9 O23 1.277064 1_555
C9 O11 1.304598 1_655
C9 O22 1.304598 1_555
