# generated using pymatgen
data_Co23B6
_symmetry_space_group_name_H-M   'P 1'
_cell_length_a   7.33465273
_cell_length_b   7.33461898
_cell_length_c   7.33454743
_cell_angle_alpha   59.99867579
_cell_angle_beta   59.99893751
_cell_angle_gamma   59.99870988
_symmetry_Int_Tables_number   1
_chemical_formula_structural   Co23B6
_chemical_formula_sum   'Co23 B6'
_cell_volume   278.99946453
_cell_formula_units_Z   1
loop_
 _symmetry_equiv_pos_site_id
 _symmetry_equiv_pos_as_xyz
  1  'x, y, z'
loop_
 _atom_site_type_symbol
 _atom_site_label
 _atom_site_symmetry_multiplicity
 _atom_site_fract_x
 _atom_site_fract_y
 _atom_site_fract_z
 _atom_site_occupancy
  Co  Co0  1  0.37972709  0.86085616  0.37973697  1
  Co  Co1  1  0.00002308  0.99998931  0.65862605  1
  Co  Co2  1  0.65866728  0.99995364  0.99999466  1
  Co  Co3  1  0.86088538  0.37969081  0.37972051  1
  Co  Co4  1  0.65859561  0.34136300  0.00001094  1
  Co  Co5  1  0.25000082  0.25002236  0.25002520  1
  Co  Co6  1  0.34132930  0.00004686  -0.00000123  1
  Co  Co7  1  0.34138977  0.65863846  -0.00000279  1
  Co  Co8  1  0.37969834  0.37973890  0.86087141  1
  Co  Co9  1  0.99995343  0.34141880  0.99996083  1
  Co  Co10  1  0.62033158  0.62025760  0.62028944  1
  Co  Co11  1  0.13912910  0.62030072  0.62026326  1
  Co  Co12  1  0.65862784  0.99996524  0.34140639  1
  Co  Co13  1  -0.00000235  0.34139595  0.65859934  1
  Co  Co14  1  0.37967318  0.37974589  0.37971116  1
  Co  Co15  1  0.00004557  0.65859308  0.00002078  1
  Co  Co16  1  -0.00001960  -0.00000191  0.34139025  1
  Co  Co17  1  0.62029078  0.62025871  0.13913929  1
  Co  Co18  1  0.00001673  0.65859330  0.34140638  1
  Co  Co19  1  0.34135134  0.00004166  0.65860385  1
  Co  Co20  1  0.62027558  0.13914493  0.62025783  1
  Co  Co21  1  -0.00001933  -0.00000539  0.00001821  1
  Co  Co22  1  0.75001860  0.74998410  0.74997425  1
  B  B0  1  0.72429354  0.72426303  0.27572229  1
  B  B1  1  0.72428209  0.27570189  0.72428347  1
  B  B2  1  0.27571178  0.27574245  0.72427045  1
  B  B3  1  0.27573054  0.72428116  0.72427672  1
  B  B4  1  0.72427642  0.27571275  0.27571078  1
  B  B5  1  0.27571652  0.72430455  0.27570633  1
loop_
_geom_bond_atom_site_label_1
_geom_bond_atom_site_label_2
_geom_bond_distance
_geom_bond_site_symmetry_2
Co0 Co5 2.330556 1_565
Co1 Co21 2.503821 1_566
Co2 Co21 2.503652 1_666
Co3 Co5 2.330269 1_655
Co5 Co8 2.330465 1_554
Co10 Co22 2.330207 1_555
Co11 Co22 2.330240 1_455
Co12 Co21 2.503776 1_665
Co13 Co21 2.504051 1_556
Co14 Co5 2.330109 1_555
Co15 Co21 2.503803 1_565
Co16 Co21 2.503821 1_555
Co17 Co22 2.330532 1_554
Co18 Co21 2.503938 1_565
Co19 Co21 2.503937 1_556
Co20 Co22 2.330524 1_545
Co21 Co6 2.503794 1_555
Co21 Co4 2.503825 1_455
Co21 Co7 2.503868 1_545
Co21 Co9 2.503906 1_454
B0 Co10 2.068074 1_555
B0 Co0 2.068094 1_555
B0 Co3 2.068113 1_555
B0 Co17 2.068263 1_555
B0 Co2 2.078698 1_554
B0 Co12 2.078812 1_555
B0 Co15 2.078836 1_655
B0 Co18 2.078959 1_655
B1 Co10 2.068029 1_555
B1 Co3 2.068050 1_555
B1 Co8 2.068194 1_555
B1 Co20 2.068249 1_555
B1 Co4 2.078819 1_556
B1 Co2 2.078833 1_545
B1 Co1 2.078839 1_645
B1 Co13 2.078917 1_655
B2 Co14 2.068026 1_555
B2 Co11 2.068028 1_555
B2 Co20 2.068081 1_555
B2 Co8 2.068235 1_555
B2 Co6 2.078699 1_556
B2 Co19 2.078796 1_555
B2 Co9 2.078815 1_455
B2 Co13 2.078881 1_555
B3 Co0 2.067901 1_555
B3 Co8 2.067939 1_555
B3 Co10 2.068300 1_555
B3 Co11 2.068305 1_555
B3 Co1 2.078714 1_555
B3 Co15 2.078778 1_556
B3 Co7 2.078879 1_556
B3 Co19 2.078935 1_565
B4 Co20 2.067941 1_555
B4 Co17 2.067951 1_555
B4 Co14 2.068304 1_555
B4 Co3 2.068317 1_555
B4 Co16 2.078766 1_655
B4 Co9 2.078790 1_554
B4 Co4 2.078806 1_555
B4 Co12 2.078904 1_545
B5 Co11 2.068008 1_555
B5 Co14 2.068041 1_555
B5 Co17 2.068129 1_555
B5 Co0 2.068269 1_555
B5 Co7 2.078746 1_555
B5 Co16 2.078787 1_565
B5 Co6 2.078793 1_565
B5 Co18 2.078837 1_555
