# generated using pymatgen
data_Li2PbO3
_symmetry_space_group_name_H-M   'P 1'
_cell_length_a   6.17052363
_cell_length_b   6.17052363
_cell_length_c   7.09926219
_cell_angle_alpha   87.42101382
_cell_angle_beta   87.42101382
_cell_angle_gamma   103.05433648
_symmetry_Int_Tables_number   1
_chemical_formula_structural   Li2PbO3
_chemical_formula_sum   'Li8 Pb4 O12'
_cell_volume   262.63163302
_cell_formula_units_Z   4
loop_
 _symmetry_equiv_pos_site_id
 _symmetry_equiv_pos_as_xyz
  1  'x, y, z'
loop_
 _atom_site_type_symbol
 _atom_site_label
 _atom_site_symmetry_multiplicity
 _atom_site_fract_x
 _atom_site_fract_y
 _atom_site_fract_z
 _atom_site_occupancy
  Li  Li0  1  0.83563000  0.72975800  0.99864200  1
  Li  Li1  1  0.27024200  0.16437000  0.50135800  1
  Li  Li2  1  0.00000000  0.50000000  0.50000000  1
  Li  Li3  1  0.07043500  0.92956500  0.25000000  1
  Li  Li4  1  0.50000000  0.00000000  0.00000000  1
  Li  Li5  1  0.72975800  0.83563000  0.49864200  1
  Li  Li6  1  0.16437000  0.27024200  0.00135800  1
  Li  Li7  1  0.92956500  0.07043500  0.75000000  1
  Pb  Pb0  1  0.60771300  0.39228700  0.75000000  1
  Pb  Pb1  1  0.24967000  0.75033000  0.75000000  1
  Pb  Pb2  1  0.75033000  0.24967000  0.25000000  1
  Pb  Pb3  1  0.39228700  0.60771300  0.25000000  1
  O  O0  1  0.28455700  0.09623900  0.79550400  1
  O  O1  1  0.90376100  0.71544300  0.70449600  1
  O  O2  1  0.53649400  0.69676800  0.89399200  1
  O  O3  1  0.30323200  0.46350600  0.60600800  1
  O  O4  1  0.85129200  0.27091900  0.93052900  1
  O  O5  1  0.72908100  0.14870800  0.56947100  1
  O  O6  1  0.27091900  0.85129200  0.43052900  1
  O  O7  1  0.14870800  0.72908100  0.06947100  1
  O  O8  1  0.69676800  0.53649400  0.39399200  1
  O  O9  1  0.46350600  0.30323200  0.10600800  1
  O  O10  1  0.09623900  0.28455700  0.29550400  1
  O  O11  1  0.71544300  0.90376100  0.20449600  1
loop_
_geom_bond_atom_site_label_1
_geom_bond_atom_site_label_2
_geom_bond_distance
_geom_bond_site_symmetry_2
Li0 O2 1.991920 1_555
Li0 O7 2.018861 1_656
Li0 O11 2.059591 1_556
Li0 O1 2.121220 1_555
Li1 O3 1.991920 1_555
Li1 O6 2.018861 1_545
Li1 O10 2.059591 1_555
Li1 O0 2.121220 1_555
Li2 O8 2.102360 1_455
Li2 O3 2.102360 1_555
Li2 O10 2.163405 1_555
Li2 O1 2.163405 1_455
Li2 O6 2.434991 1_555
Li2 O5 2.434991 1_455
Li3 O6 1.939877 1_555
Li3 O7 1.939877 1_555
Li3 O11 2.199703 1_455
Li3 O10 2.199703 1_565
Li4 O2 2.102360 1_544
Li4 O9 2.102360 1_555
Li4 O0 2.163405 1_554
Li4 O11 2.163405 1_545
Li4 O7 2.434991 1_545
Li4 O4 2.434991 1_554
Li5 O8 1.991920 1_555
Li5 O5 2.018861 1_565
Li5 O1 2.059591 1_555
Li5 O11 2.121220 1_555
Li6 O9 1.991920 1_555
Li6 O4 2.018861 1_454
Li6 O0 2.059591 1_554
Li6 O10 2.121220 1_555
Li7 O4 1.939877 1_555
Li7 O5 1.939877 1_555
Li7 O1 2.199703 1_545
Li7 O0 2.199703 1_655
O0 Pb1 2.137117 1_545
O0 Pb0 2.379287 1_555
O1 Pb1 2.137117 1_655
O1 Pb0 2.379287 1_555
O2 Pb1 2.164081 1_555
O2 Pb0 2.296391 1_555
O2 Pb3 2.633101 1_556
O3 Pb1 2.164081 1_555
O3 Pb0 2.296391 1_555
O3 Pb3 2.633101 1_555
O4 Pb0 2.248983 1_555
O4 Pb2 2.314811 1_556
O5 Pb0 2.248983 1_555
O5 Pb2 2.314811 1_555
O6 Pb3 2.248983 1_555
O6 Pb1 2.314811 1_555
O7 Pb3 2.248983 1_555
O7 Pb1 2.314811 1_554
O8 Pb2 2.164081 1_555
O8 Pb3 2.296391 1_555
O8 Pb0 2.633101 1_555
O9 Pb2 2.164081 1_555
O9 Pb3 2.296391 1_555
O9 Pb0 2.633101 1_554
O10 Pb2 2.137117 1_455
O10 Pb3 2.379287 1_555
O11 Pb2 2.137117 1_565
O11 Pb3 2.379287 1_555
