# generated using pymatgen
data_Dy2Ti2O7
_symmetry_space_group_name_H-M   'P 1'
_cell_length_a   7.19002300
_cell_length_b   7.30162088
_cell_length_c   17.64987798
_cell_angle_alpha   89.96057607
_cell_angle_beta   90.15424539
_cell_angle_gamma   118.43801165
_symmetry_Int_Tables_number   1
_chemical_formula_structural   Dy2Ti2O7
_chemical_formula_sum   'Dy12 Ti12 O42'
_cell_volume   814.78473672
_cell_formula_units_Z   6
loop_
 _symmetry_equiv_pos_site_id
 _symmetry_equiv_pos_as_xyz
  1  'x, y, z'
loop_
 _atom_site_type_symbol
 _atom_site_label
 _atom_site_symmetry_multiplicity
 _atom_site_fract_x
 _atom_site_fract_y
 _atom_site_fract_z
 _atom_site_occupancy
  Dy  Dy0  1  0.68254700  0.35848200  0.34826000  1
  Dy  Dy1  1  0.20541600  0.85357900  0.33579200  1
  Dy  Dy2  1  0.00000000  0.00000000  0.50000000  1
  Dy  Dy3  1  0.79458400  0.14642100  0.66420800  1
  Dy  Dy4  1  0.66594400  0.35259000  0.83501500  1
  Dy  Dy5  1  0.14282700  0.31693500  0.83575600  1
  Dy  Dy6  1  0.50000000  0.50000000  0.50000000  1
  Dy  Dy7  1  0.50000000  0.50000000  0.00000000  1
  Dy  Dy8  1  0.31745300  0.64151800  0.65174000  1
  Dy  Dy9  1  0.33405600  0.64741000  0.16498500  1
  Dy  Dy10  1  0.85717300  0.68306500  0.16424400  1
  Dy  Dy11  1  0.00000000  0.00000000  0.00000000  1
  Ti  Ti0  1  0.17467800  0.32293400  0.33035800  1
  Ti  Ti1  1  0.67928000  0.88233800  0.30543400  1
  Ti  Ti2  1  0.00000000  0.50000000  0.50000000  1
  Ti  Ti3  1  0.69390500  0.83378000  0.82951900  1
  Ti  Ti4  1  0.50000000  0.00000000  0.50000000  1
  Ti  Ti5  1  0.50000000  0.00000000  0.00000000  1
  Ti  Ti6  1  0.32072000  0.11766200  0.69456600  1
  Ti  Ti7  1  0.82532200  0.67706600  0.66964200  1
  Ti  Ti8  1  0.86544200  0.16547900  0.16378100  1
  Ti  Ti9  1  0.00000000  0.50000000  0.00000000  1
  Ti  Ti10  1  0.13455800  0.83452100  0.83621900  1
  Ti  Ti11  1  0.30609500  0.16622000  0.17048100  1
  O  O0  1  0.42017000  0.43817700  0.37943800  1
  O  O1  1  0.23024400  0.76447800  0.47701000  1
  O  O2  1  0.02736700  0.44067700  0.38212700  1
  O  O3  1  0.22528100  0.81840000  0.73819000  1
  O  O4  1  0.56697600  0.01235600  0.38445700  1
  O  O5  1  0.82748800  0.61235700  0.45824300  1
  O  O6  1  0.01173500  0.04836700  0.36857100  1
  O  O7  1  0.35495800  0.15571200  0.48326000  1
  O  O8  1  0.97675300  0.96717800  0.87095500  1
  O  O9  1  0.98826500  0.95163300  0.63142900  1
  O  O10  1  0.64504200  0.84428800  0.51674000  1
  O  O11  1  0.61590500  0.82309500  0.72636000  1
  O  O12  1  0.17251200  0.38764300  0.54175700  1
  O  O13  1  0.18012800  0.31650400  0.70724300  1
  O  O14  1  0.43302400  0.98764400  0.61554300  1
  O  O15  1  0.80155900  0.14999500  0.80245300  1
  O  O16  1  0.70638300  0.04778600  0.07485800  1
  O  O17  1  0.03875300  0.56516300  0.88448900  1
  O  O18  1  0.97263300  0.55932300  0.61787300  1
  O  O19  1  0.76975600  0.23552200  0.52299000  1
  O  O20  1  0.60661200  0.29828000  0.70635600  1
  O  O21  1  0.69168400  0.30792400  0.96372400  1
  O  O22  1  0.32108100  0.14019900  0.80272200  1
  O  O23  1  0.34891000  0.11340000  0.06018000  1
  O  O24  1  0.50492300  0.45534800  0.13290900  1
  O  O25  1  0.84043800  0.67593300  0.78227900  1
  O  O26  1  0.57983000  0.56182300  0.62056200  1
  O  O27  1  0.86642200  0.66986200  0.02856300  1
  O  O28  1  0.13357800  0.33013800  0.97143700  1
  O  O29  1  0.15956200  0.32406700  0.21772100  1
  O  O30  1  0.49507700  0.54465200  0.86709100  1
  O  O31  1  0.30831600  0.69207600  0.03627600  1
  O  O32  1  0.65109000  0.88660000  0.93982000  1
  O  O33  1  0.67891900  0.85980100  0.19727800  1
  O  O34  1  0.96124700  0.43483700  0.11551100  1
  O  O35  1  0.39338800  0.70172000  0.29364400  1
  O  O36  1  0.29361700  0.95221400  0.92514200  1
  O  O37  1  0.19844100  0.85000500  0.19754700  1
  O  O38  1  0.81987200  0.68349600  0.29275700  1
  O  O39  1  0.38409500  0.17690500  0.27364000  1
  O  O40  1  0.02324700  0.03282200  0.12904500  1
  O  O41  1  0.77471900  0.18160000  0.26181000  1
loop_
_geom_bond_atom_site_label_1
_geom_bond_atom_site_label_2
_geom_bond_distance
_geom_bond_site_symmetry_2
Dy0 O0 2.291691 1_555
Dy0 O41 2.293195 1_555
Dy0 O38 2.310119 1_555
Dy0 O39 2.318335 1_555
Dy0 O2 2.332297 1_655
Dy0 O4 2.342285 1_555
Dy0 O5 2.538627 1_555
Dy1 O35 2.245733 1_555
Dy1 O39 2.354278 1_565
Dy1 O37 2.440290 1_555
Dy1 O4 2.441064 1_565
Dy1 O6 2.487699 1_565
Dy1 O38 2.552405 1_455
Dy1 O1 2.602608 1_555
Dy1 O2 2.779093 1_555
Dy2 O7 2.265712 1_555
Dy2 O10 2.265712 1_445
Dy2 O9 2.341884 1_445
Dy2 O6 2.341884 1_555
Dy2 O12 2.597542 1_555
Dy2 O5 2.597542 1_445
Dy2 O1 2.928913 1_545
Dy2 O19 2.928913 1_455
Dy3 O20 2.245733 1_555
Dy3 O11 2.354278 1_545
Dy3 O15 2.440290 1_555
Dy3 O14 2.441064 1_545
Dy3 O9 2.487699 1_545
Dy3 O13 2.552405 1_655
Dy3 O19 2.602608 1_555
Dy3 O18 2.779093 1_555
Dy4 O15 2.201651 1_555
Dy4 O25 2.279595 1_555
Dy4 O22 2.282408 1_555
Dy4 O20 2.308841 1_555
Dy4 O21 2.314180 1_555
Dy4 O30 2.332842 1_555
Dy4 O17 2.526550 1_655
Dy5 O15 2.235326 1_455
Dy5 O13 2.284936 1_555
Dy5 O22 2.286511 1_555
Dy5 O8 2.330479 1_445
Dy5 O30 2.338366 1_555
Dy5 O28 2.399133 1_555
Dy5 O17 2.425312 1_555
Dy6 O26 2.192983 1_555
Dy6 O0 2.192983 1_555
Dy6 O12 2.220199 1_555
Dy6 O5 2.220199 1_555
Dy6 O10 2.235365 1_555
Dy6 O7 2.235365 1_555
Dy7 O27 2.369609 1_555
Dy7 O28 2.369609 1_554
Dy7 O24 2.370643 1_555
Dy7 O30 2.370643 1_554
Dy7 O31 2.474516 1_555
Dy7 O21 2.474516 1_554
Dy7 O32 2.712573 1_554
Dy7 O23 2.712573 1_555
Dy8 O26 2.291691 1_555
Dy8 O3 2.293195 1_555
Dy8 O13 2.310119 1_555
Dy8 O11 2.318335 1_555
Dy8 O18 2.332297 1_455
Dy8 O14 2.342285 1_555
Dy8 O12 2.538627 1_555
Dy9 O37 2.201651 1_555
Dy9 O29 2.279595 1_555
Dy9 O33 2.282408 1_555
Dy9 O35 2.308841 1_555
Dy9 O31 2.314180 1_555
Dy9 O24 2.332842 1_555
Dy9 O34 2.526550 1_455
Dy10 O37 2.235326 1_655
Dy10 O38 2.284936 1_555
Dy10 O33 2.286511 1_555
Dy10 O40 2.330479 1_665
Dy10 O24 2.338366 1_555
Dy10 O27 2.399133 1_555
Dy10 O34 2.425312 1_555
Dy11 O27 2.187061 1_445
Dy11 O28 2.187061 1_554
Dy11 O40 2.287687 1_555
Dy11 O8 2.287687 1_444
Dy11 O32 2.473002 1_444
Dy11 O23 2.473002 1_555
Dy11 O16 2.653564 1_455
Dy11 O36 2.653564 1_544
O0 Ti0 1.775443 1_555
O1 Ti2 1.895306 1_555
O1 Ti4 1.924541 1_565
O2 Ti0 1.889278 1_555
O2 Ti2 2.153882 1_555
O3 Ti10 1.874147 1_555
O3 Ti6 2.100194 1_565
O4 Ti1 2.058287 1_545
O4 Ti4 2.088665 1_555
O5 Ti2 1.928244 1_655
O6 Ti0 1.900535 1_555
O6 Ti1 2.377575 1_445
O7 Ti4 1.895951 1_555
O8 Ti10 1.911210 1_655
O8 Ti3 1.930239 1_555
O9 Ti7 1.900535 1_555
O9 Ti6 2.377575 1_665
O10 Ti4 1.895951 1_565
O11 Ti3 1.894397 1_555
O11 Ti7 2.438205 1_555
O12 Ti2 1.928244 1_555
O13 Ti6 2.139927 1_555
O14 Ti6 2.058287 1_565
O14 Ti4 2.088665 1_565
O15 Ti3 2.111074 1_545
O16 Ti8 1.888340 1_555
O16 Ti5 1.888470 1_555
O17 Ti10 1.943961 1_555
O17 Ti9 2.082306 1_556
O18 Ti7 1.889278 1_555
O18 Ti2 2.153882 1_655
O19 Ti2 1.895306 1_655
O19 Ti4 1.924541 1_555
O20 Ti6 1.850430 1_555
O20 Ti7 2.530392 1_555
O21 Ti9 2.079327 1_656
O21 Ti5 2.101425 1_556
O22 Ti6 1.916021 1_555
O22 Ti10 2.069129 1_545
O23 Ti5 1.964191 1_555
O23 Ti11 2.037369 1_555
O24 Ti11 2.017178 1_555
O25 Ti7 1.990932 1_555
O25 Ti3 2.072707 1_555
O25 Ti10 2.092307 1_655
O26 Ti7 1.775443 1_555
O27 Ti9 1.962858 1_655
O28 Ti9 1.962858 1_556
O29 Ti0 1.990932 1_555
O29 Ti11 2.072707 1_555
O29 Ti8 2.092307 1_455
O30 Ti3 2.017178 1_555
O31 Ti9 2.079327 1_555
O31 Ti5 2.101425 1_565
O32 Ti5 1.964191 1_566
O32 Ti3 2.037369 1_555
O33 Ti1 1.916021 1_555
O33 Ti8 2.069129 1_565
O34 Ti8 1.943961 1_555
O34 Ti9 2.082306 1_655
O35 Ti1 1.850430 1_555
O35 Ti0 2.530392 1_555
O36 Ti10 1.888340 1_555
O36 Ti5 1.888470 1_566
O37 Ti11 2.111074 1_565
O38 Ti1 2.139927 1_555
O39 Ti11 1.894397 1_555
O39 Ti0 2.438205 1_555
O40 Ti8 1.911210 1_455
O40 Ti11 1.930239 1_555
O41 Ti8 1.874147 1_555
O41 Ti1 2.100194 1_545
