# generated using pymatgen
data_ThMn4(CuO4)3
_symmetry_space_group_name_H-M   'P 1'
_cell_length_a   6.49381701
_cell_length_b   6.49381701
_cell_length_c   6.49381701
_cell_angle_alpha   109.47122063
_cell_angle_beta   109.47122063
_cell_angle_gamma   109.47122063
_symmetry_Int_Tables_number   1
_chemical_formula_structural   ThMn4(CuO4)3
_chemical_formula_sum   'Th1 Mn4 Cu3 O12'
_cell_volume   210.80370955
_cell_formula_units_Z   1
loop_
 _symmetry_equiv_pos_site_id
 _symmetry_equiv_pos_as_xyz
  1  'x, y, z'
loop_
 _atom_site_type_symbol
 _atom_site_label
 _atom_site_symmetry_multiplicity
 _atom_site_fract_x
 _atom_site_fract_y
 _atom_site_fract_z
 _atom_site_occupancy
  Th  Th0  1  0.00000000  0.00000000  0.00000000  1
  Mn  Mn0  1  0.50000000  0.50000000  0.50000000  1
  Mn  Mn1  1  0.50000000  0.00000000  0.00000000  1
  Mn  Mn2  1  0.00000000  0.00000000  0.50000000  1
  Mn  Mn3  1  0.00000000  0.50000000  0.00000000  1
  Cu  Cu0  1  0.00000000  0.50000000  0.50000000  1
  Cu  Cu1  1  0.50000000  0.50000000  0.00000000  1
  Cu  Cu2  1  0.50000000  0.00000000  0.50000000  1
  O  O0  1  0.52895800  0.69978600  0.82917200  1
  O  O1  1  0.12938600  0.30021400  0.82917200  1
  O  O2  1  0.69978600  0.82917200  0.52895800  1
  O  O3  1  0.30021400  0.17082800  0.47104200  1
  O  O4  1  0.87061400  0.69978600  0.17082800  1
  O  O5  1  0.47104200  0.30021400  0.17082800  1
  O  O6  1  0.69978600  0.17082800  0.87061400  1
  O  O7  1  0.82917200  0.12938600  0.30021400  1
  O  O8  1  0.82917200  0.52895800  0.69978600  1
  O  O9  1  0.17082800  0.87061400  0.69978600  1
  O  O10  1  0.17082800  0.47104200  0.30021400  1
  O  O11  1  0.30021400  0.82917200  0.12938600  1
loop_
_geom_bond_atom_site_label_1
_geom_bond_atom_site_label_2
_geom_bond_distance
_geom_bond_site_symmetry_2
Mn0 O0 2.002086 1_555
Mn0 O8 2.002086 1_555
Mn0 O2 2.002086 1_555
Mn0 O5 2.002086 1_555
Mn0 O3 2.002086 1_555
Mn0 O10 2.002086 1_555
Mn1 O7 2.002086 1_555
Mn1 O6 2.002086 1_554
Mn1 O0 2.002086 1_544
Mn1 O5 2.002086 1_555
Mn1 O11 2.002086 1_545
Mn1 O9 2.002086 1_544
Mn2 O1 2.002086 1_555
Mn2 O9 2.002086 1_545
Mn2 O2 2.002086 1_445
Mn2 O3 2.002086 1_555
Mn2 O7 2.002086 1_455
Mn2 O4 2.002086 1_445
Mn3 O11 2.002086 1_555
Mn3 O4 2.002086 1_455
Mn3 O8 2.002086 1_454
Mn3 O10 2.002086 1_555
Mn3 O1 2.002086 1_554
Mn3 O6 2.002086 1_454
Cu0 O10 1.971051 1_555
Cu0 O7 1.971051 1_455
Cu0 O9 1.971051 1_555
Cu0 O8 1.971051 1_455
Cu1 O5 1.971051 1_555
Cu1 O1 1.971051 1_554
Cu1 O4 1.971051 1_555
Cu1 O0 1.971051 1_554
Cu2 O3 1.971051 1_555
Cu2 O11 1.971051 1_545
Cu2 O6 1.971051 1_555
Cu2 O2 1.971051 1_545
O0 Th0 2.590055 1_666
O1 Th0 2.590055 1_556
O2 Th0 2.590055 1_666
O3 Th0 2.590055 1_555
O4 Th0 2.590055 1_665
O5 Th0 2.590055 1_555
O6 Th0 2.590055 1_656
O7 Th0 2.590055 1_655
O8 Th0 2.590055 1_666
O9 Th0 2.590055 1_566
O10 Th0 2.590055 1_555
O11 Th0 2.590055 1_565
