# generated using pymatgen
data_Sm15(Ga11Ni13)4
_symmetry_space_group_name_H-M   'P 1'
_cell_length_a   8.88192247
_cell_length_b   8.88192263
_cell_length_c   25.03356486
_cell_angle_alpha   90.00000000
_cell_angle_beta   90.00000000
_cell_angle_gamma   119.99999937
_symmetry_Int_Tables_number   1
_chemical_formula_structural   Sm15(Ga11Ni13)4
_chemical_formula_sum   'Sm15 Ga44 Ni52'
_cell_volume   1710.28031456
_cell_formula_units_Z   1
loop_
 _symmetry_equiv_pos_site_id
 _symmetry_equiv_pos_as_xyz
  1  'x, y, z'
loop_
 _atom_site_type_symbol
 _atom_site_label
 _atom_site_symmetry_multiplicity
 _atom_site_fract_x
 _atom_site_fract_y
 _atom_site_fract_z
 _atom_site_occupancy
  Sm  Sm0  1  0.66666700  0.33333300  0.10235329  1
  Sm  Sm1  1  0.33333300  0.66666700  0.58572571  1
  Sm  Sm2  1  0.66666700  0.33333300  0.58390303  1
  Sm  Sm3  1  0.33333300  0.66666700  0.00000000  1
  Sm  Sm4  1  0.33333300  0.66666700  0.73274637  1
  Sm  Sm5  1  0.00000000  0.00000000  0.09445198  1
  Sm  Sm6  1  0.33333300  0.66666700  0.41427429  1
  Sm  Sm7  1  0.66666700  0.33333300  0.72937368  1
  Sm  Sm8  1  0.66666700  0.33333300  0.27062632  1
  Sm  Sm9  1  0.66666700  0.33333300  0.89764671  1
  Sm  Sm10  1  0.66666700  0.33333300  0.41609697  1
  Sm  Sm11  1  0.00000000  0.00000000  0.66448158  1
  Sm  Sm12  1  0.00000000  0.00000000  0.90554802  1
  Sm  Sm13  1  0.00000000  0.00000000  0.33551842  1
  Sm  Sm14  1  0.33333300  0.66666700  0.26725363  1
  Ga  Ga0  1  0.85353644  0.14646356  0.50000000  1
  Ga  Ga1  1  0.54604742  0.45395258  0.00000000  1
  Ga  Ga2  1  0.48762559  0.51237441  0.50000000  1
  Ga  Ga3  1  0.13282087  0.86717913  0.00000000  1
  Ga  Ga4  1  0.48762559  0.97525117  0.50000000  1
  Ga  Ga5  1  0.82519134  0.65038267  0.82057870  1
  Ga  Ga6  1  0.63540835  0.66355053  0.91403298  1
  Ga  Ga7  1  0.15807638  0.84192362  0.81665071  1
  Ga  Ga8  1  0.33333300  0.66666700  0.87018494  1
  Ga  Ga9  1  0.02814218  0.66355053  0.91403298  1
  Ga  Ga10  1  0.15807638  0.31615275  0.81665071  1
  Ga  Ga11  1  0.15807638  0.84192362  0.18334929  1
  Ga  Ga12  1  0.00170014  0.50085007  0.80080894  1
  Ga  Ga13  1  0.34961733  0.17480866  0.17942130  1
  Ga  Ga14  1  0.33644947  0.97185782  0.91403298  1
  Ga  Ga15  1  0.90790516  0.45395258  0.00000000  1
  Ga  Ga16  1  0.02814218  0.36459165  0.08596702  1
  Ga  Ga17  1  0.82519134  0.17480866  0.17942130  1
  Ga  Ga18  1  0.82519134  0.65038267  0.17942130  1
  Ga  Ga19  1  0.15807638  0.31615275  0.18334929  1
  Ga  Ga20  1  0.33644947  0.36459165  0.91403298  1
  Ga  Ga21  1  0.02814218  0.36459165  0.91403298  1
  Ga  Ga22  1  0.68384725  0.84192362  0.81665071  1
  Ga  Ga23  1  0.49914993  0.99829986  0.80080894  1
  Ga  Ga24  1  0.49914993  0.99829986  0.19919106  1
  Ga  Ga25  1  0.54604742  0.09209484  0.00000000  1
  Ga  Ga26  1  0.33644947  0.97185782  0.08596702  1
  Ga  Ga27  1  0.63540835  0.97185782  0.91403298  1
  Ga  Ga28  1  0.33333300  0.66666700  0.12981506  1
  Ga  Ga29  1  0.73435826  0.86717913  0.00000000  1
  Ga  Ga30  1  0.02814218  0.66355053  0.08596702  1
  Ga  Ga31  1  0.49914993  0.50085007  0.19919106  1
  Ga  Ga32  1  0.13282087  0.26564174  0.00000000  1
  Ga  Ga33  1  0.68384725  0.84192362  0.18334929  1
  Ga  Ga34  1  0.00170014  0.50085007  0.19919106  1
  Ga  Ga35  1  0.34961733  0.17480866  0.82057870  1
  Ga  Ga36  1  0.29292712  0.14646356  0.50000000  1
  Ga  Ga37  1  0.82519134  0.17480866  0.82057870  1
  Ga  Ga38  1  0.63540835  0.97185782  0.08596702  1
  Ga  Ga39  1  0.02474883  0.51237441  0.50000000  1
  Ga  Ga40  1  0.85353644  0.70707288  0.50000000  1
  Ga  Ga41  1  0.33644947  0.36459165  0.08596702  1
  Ga  Ga42  1  0.63540835  0.66355053  0.08596702  1
  Ga  Ga43  1  0.49914993  0.50085007  0.80080894  1
  Ni  Ni0  1  0.99673837  0.70235378  0.73637275  1
  Ni  Ni1  1  0.50049021  0.49950979  0.66024613  1
  Ni  Ni2  1  0.18199706  0.81800294  0.65806303  1
  Ni  Ni3  1  0.00174764  0.31016103  0.58129685  1
  Ni  Ni4  1  0.81764861  0.18235139  0.34256943  1
  Ni  Ni5  1  0.00174764  0.69158661  0.41870315  1
  Ni  Ni6  1  0.70561541  0.70235378  0.26362725  1
  Ni  Ni7  1  0.29764622  0.29438459  0.73637275  1
  Ni  Ni8  1  0.68983897  0.69158661  0.41870315  1
  Ni  Ni9  1  0.00000000  0.00000000  0.55087356  1
  Ni  Ni10  1  0.18199706  0.36399413  0.65806303  1
  Ni  Ni11  1  0.99901957  0.49950979  0.33975387  1
  Ni  Ni12  1  0.81764861  0.18235139  0.65743057  1
  Ni  Ni13  1  0.66053697  0.83026848  0.50000000  1
  Ni  Ni14  1  0.68983897  0.99825236  0.41870315  1
  Ni  Ni15  1  0.16973152  0.33946303  0.50000000  1
  Ni  Ni16  1  0.99673837  0.70235378  0.26362725  1
  Ni  Ni17  1  0.30841339  0.99825236  0.41870315  1
  Ni  Ni18  1  0.29764622  0.00326163  0.73637275  1
  Ni  Ni19  1  0.63600587  0.81800294  0.34193697  1
  Ni  Ni20  1  0.00000000  0.00000000  0.78786565  1
  Ni  Ni21  1  0.00000000  0.00000000  0.21213435  1
  Ni  Ni22  1  0.70561541  0.00326163  0.26362725  1
  Ni  Ni23  1  0.81764861  0.63529721  0.34256943  1
  Ni  Ni24  1  0.70561541  0.00326163  0.73637275  1
  Ni  Ni25  1  0.30841339  0.99825236  0.58129685  1
  Ni  Ni26  1  0.99673837  0.29438459  0.73637275  1
  Ni  Ni27  1  0.29764622  0.00326163  0.26362725  1
  Ni  Ni28  1  0.32841873  0.16420937  0.00000000  1
  Ni  Ni29  1  0.00000000  0.00000000  0.44912644  1
  Ni  Ni30  1  0.30841339  0.31016103  0.58129685  1
  Ni  Ni31  1  0.18199706  0.81800294  0.34193697  1
  Ni  Ni32  1  0.83579063  0.16420937  0.00000000  1
  Ni  Ni33  1  0.30841339  0.31016103  0.41870315  1
  Ni  Ni34  1  0.99901957  0.49950979  0.66024613  1
  Ni  Ni35  1  0.68983897  0.69158661  0.58129685  1
  Ni  Ni36  1  0.68983897  0.99825236  0.58129685  1
  Ni  Ni37  1  0.00174764  0.69158661  0.58129685  1
  Ni  Ni38  1  0.50049021  0.00098043  0.33975387  1
  Ni  Ni39  1  0.70561541  0.70235378  0.73637275  1
  Ni  Ni40  1  0.83579063  0.67158127  0.00000000  1
  Ni  Ni41  1  0.29764622  0.29438459  0.26362725  1
  Ni  Ni42  1  0.00174764  0.31016103  0.41870315  1
  Ni  Ni43  1  0.50049021  0.00098043  0.66024613  1
  Ni  Ni44  1  0.18199706  0.36399413  0.34193697  1
  Ni  Ni45  1  0.36470279  0.18235139  0.34256943  1
  Ni  Ni46  1  0.36470279  0.18235139  0.65743057  1
  Ni  Ni47  1  0.63600587  0.81800294  0.65806303  1
  Ni  Ni48  1  0.99673837  0.29438459  0.26362725  1
  Ni  Ni49  1  0.50049021  0.49950979  0.33975387  1
  Ni  Ni50  1  0.81764861  0.63529721  0.65743057  1
  Ni  Ni51  1  0.16973152  0.83026848  0.50000000  1
loop_
_geom_bond_atom_site_label_1
_geom_bond_atom_site_label_2
_geom_bond_distance
_geom_bond_site_symmetry_2
Sm1 Sm4 3.680451 1_555
Sm14 Sm6 3.680451 1_555
Ga0 Ni15 2.451839 1_655
Ga0 Ni13 2.451839 1_545
Ga0 Ni36 2.464697 1_545
Ga0 Ni14 2.464697 1_545
Ga0 Ni42 2.464697 1_655
Ga0 Ni3 2.464697 1_655
Ga0 Ni29 2.588199 1_655
Ga0 Ni9 2.588199 1_655
Ga0 Ga4 2.816507 1_545
Ga0 Ga39 2.816507 1_655
Ga1 Ni40 2.320494 1_555
Ga1 Ni28 2.320494 1_555
Ga1 Ga20 2.692476 1_554
Ga1 Ga41 2.692476 1_555
Ga1 Ga42 2.692476 1_555
Ga1 Ga6 2.692476 1_554
Ga1 Sm9 3.163619 1_554
Ga1 Sm0 3.163619 1_555
Ga1 Sm3 3.272386 1_555
Ga2 Ni15 2.448375 1_555
Ga2 Ni13 2.448375 1_555
Ga2 Ni8 2.653756 1_555
Ga2 Ni35 2.653756 1_555
Ga2 Ni33 2.653756 1_555
Ga2 Ni30 2.653756 1_555
Ga2 Ga40 2.816507 1_555
Ga2 Ga36 2.816507 1_555
Ga2 Sm6 3.199924 1_555
Ga2 Sm1 3.199924 1_555
Ga2 Sm10 3.463836 1_555
Ga2 Sm2 3.463836 1_555
Ga3 Ni40 2.322704 1_455
Ga3 Ni28 2.322704 1_565
Ga3 Ga9 2.661828 1_554
Ga3 Ga30 2.661828 1_555
Ga3 Sm3 3.084667 1_555
Ga3 Sm12 3.125032 1_564
Ga3 Sm5 3.125032 1_565
Ga4 Ni13 2.448375 1_555
Ga4 Ni51 2.448375 1_555
Ga4 Ni14 2.653756 1_555
Ga4 Ni36 2.653756 1_555
Ga4 Ni25 2.653756 1_555
Ga4 Ni17 2.653756 1_555
Ga4 Sm6 3.199918 1_555
Ga4 Sm1 3.199918 1_555
Ga4 Sm10 3.463830 1_565
Ga4 Sm2 3.463830 1_565
Ga5 Ni0 2.504969 1_555
Ga5 Ni39 2.504969 1_555
Ga5 Ga7 2.572108 1_655
Ga5 Ni20 2.811171 1_665
Ga5 Ga9 2.919834 1_655
Ga5 Ga6 2.919834 1_555
Ga5 Sm9 3.109596 1_555
Ga5 Sm7 3.340715 1_555
Ga5 Sm12 3.428781 1_665
Ga6 Ni40 2.770762 1_556
Ga6 Ga8 2.911779 1_555
Ga6 Sm9 3.108367 1_555
Ga6 Sm12 3.128033 1_665
Ga6 Sm3 3.450354 1_556
Ga7 Ni0 2.419185 1_455
Ga7 Ni18 2.419185 1_565
Ga7 Ni20 2.536353 1_565
Ga7 Ga9 2.820722 1_555
Ga7 Ga8 3.010842 1_555
Ga7 Sm12 3.296409 1_565
Ga7 Sm4 3.417739 1_555
Ga8 Ga9 2.911771 1_555
Ga8 Sm3 3.249734 1_556
Ga8 Sm4 3.440577 1_555
Ga9 Ni40 2.770762 1_456
Ga9 Sm9 3.108362 1_455
Ga9 Sm12 3.128033 1_565
Ga9 Sm3 3.450347 1_556
Ga10 Ni7 2.419185 1_555
Ga10 Ni26 2.419185 1_455
Ga10 Ni20 2.536353 1_555
Ga10 Ga35 2.572108 1_555
Ga10 Ga37 2.572108 1_455
Ga10 Ga43 2.656311 1_555
Ga10 Ga12 2.656311 1_555
Ga10 Ga20 2.820722 1_555
Ga10 Ga21 2.820722 1_555
Ga10 Ga8 3.010849 1_555
Ga10 Sm12 3.296409 1_555
Ga10 Sm4 3.417745 1_555
Ga11 Ni16 2.419185 1_455
Ga11 Ni27 2.419185 1_565
Ga11 Ni21 2.536353 1_565
Ga11 Ga18 2.572108 1_455
Ga11 Ga13 2.572108 1_565
Ga11 Ga24 2.656311 1_555
Ga11 Ga34 2.656311 1_555
Ga11 Ga26 2.820722 1_555
Ga11 Ga30 2.820722 1_555
Ga11 Ga28 3.010842 1_555
Ga11 Sm5 3.296409 1_565
Ga11 Sm14 3.417739 1_555
Ga12 Ni0 2.426103 1_455
Ga12 Ni26 2.426103 1_455
Ga12 Ga5 2.559073 1_455
Ga12 Ga37 2.559073 1_455
Ga12 Ga7 2.656311 1_555
Ga12 Sm4 3.067612 1_555
Ga12 Ga8 3.085996 1_555
Ga12 Ga21 3.136542 1_555
Ga12 Ga9 3.136542 1_555
Ga12 Sm7 3.136751 1_455
Ga13 Ni27 2.504969 1_555
Ga13 Ni41 2.504969 1_555
Ga13 Ga24 2.559073 1_545
Ga13 Ga31 2.559073 1_555
Ga13 Ga19 2.572108 1_555
Ga13 Ni21 2.811171 1_555
Ga13 Ga26 2.919834 1_545
Ga13 Ga41 2.919834 1_555
Ga13 Sm0 3.109596 1_555
Ga13 Sm8 3.340715 1_555
Ga13 Sm5 3.428780 1_555
Ga14 Ga27 2.655330 1_555
Ga14 Ga3 2.661828 1_556
Ga14 Ga25 2.692476 1_566
Ga14 Ga9 2.738361 1_555
Ga14 Ni28 2.770762 1_566
Ga14 Ga7 2.820722 1_555
Ga14 Ga8 2.911771 1_555
Ga14 Ga35 2.919834 1_565
Ga14 Sm9 3.108362 1_565
Ga14 Sm12 3.128033 1_565
Ga14 Ga23 3.136542 1_555
Ga14 Sm3 3.450347 1_556
Ga15 Ni32 2.320494 1_555
Ga15 Ni40 2.320494 1_555
Ga15 Ga21 2.692476 1_654
Ga15 Ga16 2.692476 1_655
Ga15 Ga30 2.692476 1_655
Ga15 Ga9 2.692476 1_654
Ga15 Sm9 3.163614 1_554
Ga15 Sm0 3.163614 1_555
Ga15 Sm3 3.272378 1_655
Ga16 Ga30 2.655330 1_555
Ga16 Ga32 2.661827 1_555
Ga16 Ga41 2.738361 1_555
Ga16 Ni32 2.770762 1_455
Ga16 Ga19 2.820722 1_555
Ga16 Ga28 2.911775 1_555
Ga16 Ga17 2.919834 1_455
Ga16 Sm0 3.108358 1_455
Ga16 Sm5 3.128033 1_555
Ga16 Ga34 3.136542 1_555
Ga16 Sm3 3.450350 1_555
Ga17 Ni48 2.504969 1_555
Ga17 Ni22 2.504969 1_555
Ga17 Ga24 2.559073 1_545
Ga17 Ga34 2.559073 1_655
Ga17 Ga19 2.572108 1_655
Ga17 Ga33 2.572108 1_545
Ga17 Ni21 2.811171 1_655
Ga17 Ga38 2.919834 1_545
Ga17 Sm0 3.109590 1_555
Ga17 Sm8 3.340710 1_555
Ga17 Sm5 3.428780 1_655
Ga18 Ni16 2.504969 1_555
Ga18 Ni6 2.504969 1_555
Ga18 Ga34 2.559073 1_655
Ga18 Ga31 2.559073 1_555
Ga18 Ga33 2.572108 1_555
Ga18 Ni21 2.811171 1_665
Ga18 Ga30 2.919834 1_655
Ga18 Ga42 2.919834 1_555
Ga18 Sm0 3.109596 1_555
Ga18 Sm8 3.340715 1_555
Ga18 Sm5 3.428781 1_665
Ga19 Ni41 2.419185 1_555
Ga19 Ni48 2.419185 1_455
Ga19 Ni21 2.536353 1_555
Ga19 Ga31 2.656311 1_555
Ga19 Ga34 2.656311 1_555
Ga19 Ga41 2.820722 1_555
Ga19 Ga28 3.010849 1_555
Ga19 Sm5 3.296409 1_555
Ga19 Sm14 3.417745 1_555
Ga20 Ga6 2.655330 1_555
Ga20 Ga32 2.661827 1_556
Ga20 Ga21 2.738361 1_555
Ga20 Ni28 2.770762 1_556
Ga20 Ga8 2.911780 1_555
Ga20 Ga35 2.919834 1_555
Ga20 Sm9 3.108367 1_555
Ga20 Sm12 3.128033 1_555
Ga20 Ga43 3.136542 1_555
Ga20 Sm3 3.450354 1_556
Ga21 Ga9 2.655330 1_555
Ga21 Ga32 2.661827 1_556
Ga21 Ni32 2.770762 1_456
Ga21 Ga8 2.911775 1_555
Ga21 Ga37 2.919834 1_455
Ga21 Sm9 3.108358 1_455
Ga21 Sm12 3.128033 1_555
Ga21 Sm3 3.450350 1_556
Ga22 Ni39 2.419185 1_555
Ga22 Ni24 2.419185 1_565
Ga22 Ni20 2.536353 1_665
Ga22 Ga5 2.572108 1_555
Ga22 Ga37 2.572108 1_565
Ga22 Ga43 2.656311 1_555
Ga22 Ga23 2.656311 1_555
Ga22 Ga6 2.820722 1_555
Ga22 Ga27 2.820722 1_555
Ga22 Ga8 3.010848 1_555
Ga22 Sm12 3.296409 1_665
Ga22 Sm4 3.417745 1_555
Ga23 Ni18 2.426103 1_565
Ga23 Ni24 2.426103 1_565
Ga23 Ga35 2.559073 1_565
Ga23 Ga37 2.559073 1_565
Ga23 Ga7 2.656311 1_555
Ga23 Sm4 3.067612 1_555
Ga23 Ga8 3.085996 1_555
Ga23 Ga27 3.136542 1_555
Ga23 Sm7 3.136751 1_565
Ga24 Ni27 2.426103 1_565
Ga24 Ni22 2.426103 1_565
Ga24 Ga33 2.656311 1_555
Ga24 Sm14 3.067612 1_555
Ga24 Ga28 3.085996 1_555
Ga24 Ga38 3.136542 1_555
Ga24 Ga26 3.136542 1_555
Ga24 Sm8 3.136751 1_565
Ga25 Ni32 2.320494 1_555
Ga25 Ni28 2.320494 1_555
Ga25 Ga38 2.692476 1_545
Ga25 Ga27 2.692476 1_544
Ga25 Ga26 2.692476 1_545
Ga25 Sm9 3.163614 1_554
Ga25 Sm0 3.163614 1_555
Ga25 Sm3 3.272378 1_545
Ga26 Ga38 2.655330 1_555
Ga26 Ga3 2.661828 1_555
Ga26 Ga30 2.738361 1_555
Ga26 Ni28 2.770762 1_565
Ga26 Ga28 2.911771 1_555
Ga26 Sm0 3.108362 1_565
Ga26 Sm5 3.128033 1_565
Ga26 Sm3 3.450347 1_555
Ga27 Ga29 2.661827 1_556
Ga27 Ga6 2.738361 1_555
Ga27 Ni32 2.770762 1_566
Ga27 Ga8 2.911775 1_555
Ga27 Ga37 2.919834 1_565
Ga27 Sm9 3.108358 1_565
Ga27 Sm12 3.128033 1_665
Ga27 Sm3 3.450350 1_556
Ga28 Ga30 2.911771 1_555
Ga28 Ga38 2.911775 1_555
Ga28 Ga42 2.911779 1_555
Ga28 Ga41 2.911780 1_555
Ga28 Ga33 3.010848 1_555
Ga28 Ga34 3.085996 1_555
Ga28 Ga31 3.086002 1_555
Ga28 Sm3 3.249734 1_555
Ga28 Sm14 3.440577 1_555
Ga29 Ni40 2.322703 1_555
Ga29 Ni32 2.322704 1_565
Ga29 Ga38 2.661827 1_555
Ga29 Ga6 2.661828 1_554
Ga29 Ga42 2.661828 1_555
Ga29 Sm3 3.084674 1_555
Ga29 Sm12 3.125032 1_664
Ga29 Sm5 3.125032 1_665
Ga30 Ni40 2.770762 1_455
Ga30 Sm0 3.108362 1_455
Ga30 Sm5 3.128033 1_565
Ga30 Ga34 3.136542 1_555
Ga30 Sm3 3.450347 1_555
Ga31 Ni6 2.426103 1_555
Ga31 Ni41 2.426103 1_555
Ga31 Ga33 2.656311 1_555
Ga31 Sm14 3.067618 1_555
Ga31 Ga41 3.136542 1_555
Ga31 Ga42 3.136542 1_555
Ga31 Sm8 3.136757 1_555
Ga32 Ni28 2.322703 1_555
Ga32 Ni32 2.322704 1_455
Ga32 Ga41 2.661827 1_555
Ga32 Sm3 3.084675 1_555
Ga32 Sm12 3.125032 1_554
Ga32 Sm5 3.125032 1_555
Ga33 Ni6 2.419185 1_555
Ga33 Ni22 2.419185 1_565
Ga33 Ni21 2.536353 1_665
Ga33 Ga42 2.820722 1_555
Ga33 Ga38 2.820722 1_555
Ga33 Sm5 3.296409 1_665
Ga33 Sm14 3.417745 1_555
Ga34 Ni16 2.426103 1_455
Ga34 Ni48 2.426103 1_455
Ga34 Sm14 3.067612 1_555
Ga34 Sm8 3.136751 1_455
Ga35 Ni18 2.504969 1_555
Ga35 Ni7 2.504969 1_555
Ga35 Ga43 2.559073 1_555
Ga35 Ga7 2.572108 1_545
Ga35 Ni20 2.811171 1_555
Ga35 Sm9 3.109596 1_555
Ga35 Sm7 3.340715 1_555
Ga35 Sm12 3.428780 1_555
Ga36 Ni15 2.451839 1_555
Ga36 Ni51 2.451839 1_545
Ga36 Ni17 2.464697 1_545
Ga36 Ni25 2.464697 1_545
Ga36 Ni30 2.464697 1_555
Ga36 Ni33 2.464697 1_555
Ga36 Ni29 2.588199 1_555
Ga36 Ni9 2.588199 1_555
Ga36 Ga4 2.816507 1_545
Ga37 Ni26 2.504969 1_555
Ga37 Ni24 2.504969 1_555
Ga37 Ni20 2.811171 1_655
Ga37 Sm9 3.109590 1_555
Ga37 Sm7 3.340710 1_555
Ga37 Sm12 3.428780 1_655
Ga38 Ga42 2.738361 1_555
Ga38 Ni32 2.770762 1_565
Ga38 Sm0 3.108358 1_565
Ga38 Sm5 3.128033 1_665
Ga38 Sm3 3.450350 1_555
Ga39 Ni15 2.448375 1_555
Ga39 Ni51 2.448375 1_555
Ga39 Ni3 2.653756 1_555
Ga39 Ni42 2.653756 1_555
Ga39 Ni5 2.653756 1_555
Ga39 Ni37 2.653756 1_555
Ga39 Ga40 2.816507 1_455
Ga39 Sm6 3.199918 1_555
Ga39 Sm1 3.199918 1_555
Ga39 Sm2 3.463830 1_455
Ga39 Sm10 3.463830 1_455
Ga40 Ni13 2.451839 1_555
Ga40 Ni51 2.451839 1_655
Ga40 Ni37 2.464697 1_655
Ga40 Ni5 2.464697 1_655
Ga40 Ni8 2.464697 1_555
Ga40 Ni35 2.464697 1_555
Ga40 Ni9 2.588199 1_665
Ga40 Ni29 2.588199 1_665
Ga41 Ga42 2.655330 1_555
Ga41 Ni28 2.770762 1_555
Ga41 Sm0 3.108367 1_555
Ga41 Sm5 3.128033 1_555
Ga41 Sm3 3.450354 1_555
Ga42 Ni40 2.770762 1_555
Ga42 Sm0 3.108367 1_555
Ga42 Sm5 3.128033 1_665
Ga42 Sm3 3.450354 1_555
Ga43 Ni39 2.426103 1_555
Ga43 Ni7 2.426103 1_555
Ga43 Ga5 2.559073 1_555
Ga43 Sm4 3.067618 1_555
Ga43 Ga8 3.086002 1_555
Ga43 Ga6 3.136542 1_555
Ga43 Sm7 3.136757 1_555
Ni0 Ni50 2.417216 1_555
Ni0 Ni2 2.432180 1_655
Ni0 Ni39 2.585732 1_555
Ni0 Ni34 2.629564 1_555
Ni0 Ni18 2.672640 1_665
Ni0 Ni20 2.928293 1_665
Ni0 Sm7 3.123981 1_555
Ni0 Sm4 3.161340 1_655
Ni0 Sm11 3.186242 1_665
Ni1 Ni50 2.448972 1_555
Ni1 Ni46 2.448972 1_555
Ni1 Ni10 2.459498 1_555
Ni1 Ni47 2.459498 1_555
Ni1 Ni30 2.603039 1_555
Ni1 Ni35 2.603039 1_555
Ni1 Ni39 2.629564 1_555
Ni1 Ni7 2.629564 1_555
Ni1 Sm7 3.087089 1_555
Ni1 Sm4 3.147508 1_555
Ni1 Sm1 3.176938 1_555
Ni2 Ni37 2.391498 1_555
Ni2 Ni25 2.391498 1_555
Ni2 Ni43 2.459498 1_565
Ni2 Ni34 2.459498 1_455
Ni2 Ni50 2.802606 1_455
Ni2 Ni46 2.802606 1_565
Ni2 Sm11 2.804439 1_565
Ni2 Sm1 2.949486 1_555
Ni2 Sm4 2.985903 1_555
Ni3 Ni34 2.603039 1_455
Ni3 Ni30 2.723781 1_555
Ni3 Ni36 2.770349 1_445
Ni3 Ni9 2.850717 1_555
Ni3 Sm1 3.063800 1_555
Ni3 Sm2 3.084911 1_455
Ni4 Ni42 2.395543 1_655
Ni4 Ni48 2.417216 1_555
Ni4 Ni44 2.802606 1_655
Ni4 Sm13 2.810831 1_655
Ni4 Sm8 2.939128 1_555
Ni4 Sm10 2.963598 1_555
Ni5 Ni51 2.459143 1_555
Ni5 Ni8 2.770349 1_455
Ni5 Sm6 3.063795 1_555
Ni5 Sm10 3.084916 1_455
Ni6 Sm8 3.123984 1_555
Ni6 Sm14 3.161349 1_555
Ni6 Sm13 3.186242 1_665
Ni7 Sm7 3.123984 1_555
Ni7 Sm4 3.161349 1_555
Ni7 Sm11 3.186242 1_555
Ni8 Sm6 3.063804 1_555
Ni8 Sm10 3.084920 1_555
Ni9 Sm11 2.844014 1_555
Ni10 Ni3 2.391498 1_555
Ni10 Ni30 2.391498 1_555
Ni10 Ni26 2.432180 1_455
Ni10 Ni7 2.432180 1_555
Ni10 Ni34 2.459498 1_455
Ni10 Ni12 2.802606 1_455
Ni10 Ni46 2.802606 1_555
Ni10 Sm11 2.804439 1_555
Ni10 Sm1 2.949492 1_555
Ni10 Sm4 2.985909 1_555
Ni11 Ni23 2.448972 1_555
Ni11 Ni4 2.448972 1_555
Ni11 Ni44 2.459498 1_655
Ni11 Ni31 2.459498 1_655
Ni11 Ni5 2.603039 1_655
Ni11 Ni42 2.603039 1_655
Ni11 Ni16 2.629564 1_555
Ni11 Ni48 2.629564 1_555
Ni11 Sm8 3.087083 1_555
Ni11 Sm14 3.147502 1_655
Ni11 Sm6 3.176932 1_655
Ni12 Ni3 2.395543 1_655
Ni12 Ni36 2.395543 1_545
Ni12 Ni26 2.417216 1_555
Ni12 Ni24 2.417216 1_555
Ni12 Ni43 2.448972 1_555
Ni12 Ni34 2.448972 1_555
Ni12 Ni47 2.802606 1_545
Ni12 Sm11 2.810831 1_655
Ni12 Sm7 2.939128 1_555
Ni12 Sm2 2.963598 1_555
Ni13 Ni35 2.459143 1_555
Ni13 Ni8 2.459143 1_555
Ni13 Ni36 2.459143 1_555
Ni13 Ni14 2.459143 1_555
Ni13 Ni9 2.905163 1_665
Ni13 Ni29 2.905163 1_665
Ni13 Sm6 3.307552 1_555
Ni13 Sm1 3.307552 1_555
Ni14 Ni19 2.391498 1_555
Ni14 Ni4 2.395543 1_565
Ni14 Ni38 2.603039 1_565
Ni14 Ni8 2.723781 1_555
Ni14 Ni42 2.770349 1_665
Ni14 Ni29 2.850717 1_665
Ni14 Sm6 3.063800 1_555
Ni14 Sm10 3.084911 1_565
Ni15 Ni30 2.459143 1_555
Ni15 Ni33 2.459143 1_555
Ni15 Ni42 2.459143 1_555
Ni15 Ni3 2.459143 1_555
Ni15 Ni9 2.905163 1_555
Ni15 Ni29 2.905163 1_555
Ni15 Sm6 3.307552 1_555
Ni15 Sm1 3.307552 1_555
Ni16 Ni23 2.417216 1_555
Ni16 Ni31 2.432180 1_655
Ni16 Ni6 2.585732 1_555
Ni16 Ni27 2.672640 1_665
Ni16 Ni21 2.928293 1_665
Ni16 Sm8 3.123981 1_555
Ni16 Sm14 3.161340 1_655
Ni16 Sm13 3.186242 1_665
Ni17 Ni31 2.391498 1_555
Ni17 Ni45 2.395543 1_565
Ni17 Ni51 2.459143 1_555
Ni17 Ni38 2.603039 1_565
Ni17 Ni5 2.723781 1_555
Ni17 Ni33 2.770349 1_565
Ni17 Ni29 2.850717 1_565
Ni17 Sm6 3.063795 1_555
Ni17 Sm10 3.084916 1_565
Ni18 Ni46 2.417216 1_555
Ni18 Ni2 2.432180 1_545
Ni18 Ni7 2.585732 1_555
Ni18 Ni43 2.629564 1_555
Ni18 Ni20 2.928293 1_555
Ni18 Sm7 3.123981 1_555
Ni18 Sm4 3.161340 1_545
Ni18 Sm11 3.186242 1_555
Ni19 Ni8 2.391498 1_555
Ni19 Ni22 2.432180 1_565
Ni19 Ni6 2.432180 1_555
Ni19 Ni38 2.459498 1_565
Ni19 Ni49 2.459498 1_555
Ni19 Ni4 2.802606 1_565
Ni19 Ni23 2.802606 1_555
Ni19 Sm13 2.804439 1_665
Ni19 Sm6 2.949492 1_555
Ni19 Sm14 2.985909 1_555
Ni20 Ni24 2.928293 1_455
Ni20 Ni26 2.928293 1_455
Ni20 Ni7 2.928293 1_555
Ni20 Ni39 2.928293 1_445
Ni20 Sm12 2.946009 1_555
Ni20 Sm11 3.088743 1_555
Ni21 Ni22 2.928293 1_455
Ni21 Ni27 2.928293 1_555
Ni21 Ni48 2.928293 1_455
Ni21 Ni41 2.928293 1_555
Ni21 Ni6 2.928293 1_445
Ni21 Sm5 2.946009 1_555
Ni21 Sm13 3.088743 1_555
Ni22 Ni4 2.417216 1_555
Ni22 Ni48 2.585732 1_555
Ni22 Ni38 2.629564 1_555
Ni22 Ni6 2.672640 1_545
Ni22 Sm8 3.123975 1_555
Ni22 Sm14 3.161345 1_545
Ni22 Sm13 3.186242 1_655
Ni23 Ni5 2.395543 1_655
Ni23 Ni8 2.395543 1_555
Ni23 Ni6 2.417216 1_555
Ni23 Ni49 2.448972 1_555
Ni23 Ni31 2.802606 1_655
Ni23 Sm13 2.810831 1_665
Ni23 Sm8 2.939134 1_555
Ni23 Sm10 2.963604 1_555
Ni24 Ni47 2.432180 1_545
Ni24 Ni26 2.585732 1_555
Ni24 Ni43 2.629564 1_555
Ni24 Ni39 2.672640 1_545
Ni24 Sm7 3.123975 1_555
Ni24 Sm4 3.161345 1_545
Ni24 Sm11 3.186242 1_655
Ni25 Ni46 2.395543 1_565
Ni25 Ni51 2.459143 1_555
Ni25 Ni43 2.603039 1_565
Ni25 Ni37 2.723781 1_555
Ni25 Ni30 2.770349 1_565
Ni25 Ni9 2.850717 1_565
Ni25 Sm1 3.063795 1_555
Ni25 Sm2 3.084916 1_565
Ni26 Ni34 2.629564 1_555
Ni26 Ni7 2.672640 1_655
Ni26 Sm7 3.123975 1_555
Ni26 Sm4 3.161345 1_655
Ni26 Sm11 3.186242 1_655
Ni27 Ni45 2.417216 1_555
Ni27 Ni31 2.432180 1_545
Ni27 Ni41 2.585732 1_555
Ni27 Ni38 2.629564 1_555
Ni27 Sm8 3.123981 1_555
Ni27 Sm14 3.161340 1_545
Ni27 Sm13 3.186242 1_555
Ni28 Sm12 3.460107 1_554
Ni28 Sm5 3.460107 1_555
Ni29 Ni9 2.547093 1_555
Ni29 Sm13 2.844014 1_555
Ni29 Ni5 2.850717 1_545
Ni29 Ni42 2.850717 1_555
Ni29 Ni8 2.850717 1_445
Ni29 Ni33 2.850717 1_555
Ni29 Ni51 2.905163 1_545
Ni30 Ni46 2.395543 1_555
Ni30 Ni9 2.850717 1_555
Ni30 Sm1 3.063804 1_555
Ni30 Sm2 3.084919 1_555
Ni31 Ni5 2.391498 1_555
Ni31 Ni38 2.459498 1_565
Ni31 Ni45 2.802606 1_565
Ni31 Sm13 2.804439 1_565
Ni31 Sm6 2.949486 1_555
Ni31 Sm14 2.985903 1_555
Ni32 Sm12 3.460107 1_654
Ni32 Sm5 3.460107 1_655
Ni33 Ni44 2.391498 1_555
Ni33 Ni45 2.395543 1_555
Ni33 Ni49 2.603039 1_555
Ni33 Ni42 2.723781 1_555
Ni33 Sm6 3.063804 1_555
Ni33 Sm10 3.084919 1_555
Ni34 Ni50 2.448972 1_555
Ni34 Ni37 2.603039 1_655
Ni34 Sm7 3.087083 1_555
Ni34 Sm4 3.147502 1_655
Ni34 Sm1 3.176932 1_655
Ni35 Ni47 2.391498 1_555
Ni35 Ni50 2.395543 1_555
Ni35 Ni36 2.723781 1_555
Ni35 Ni37 2.770349 1_655
Ni35 Ni9 2.850717 1_665
Ni35 Sm1 3.063804 1_555
Ni35 Sm2 3.084920 1_555
Ni36 Ni47 2.391498 1_555
Ni36 Ni43 2.603039 1_565
Ni36 Ni9 2.850717 1_665
Ni36 Sm1 3.063800 1_555
Ni36 Sm2 3.084911 1_565
Ni37 Ni50 2.395543 1_455
Ni37 Ni51 2.459143 1_555
Ni37 Ni9 2.850717 1_565
Ni37 Sm1 3.063795 1_555
Ni37 Sm2 3.084916 1_455
Ni38 Ni45 2.448972 1_555
Ni38 Ni4 2.448972 1_555
Ni38 Sm8 3.087083 1_555
Ni38 Sm14 3.147502 1_545
Ni38 Sm6 3.176932 1_545
Ni39 Ni50 2.417216 1_555
Ni39 Ni47 2.432180 1_555
Ni39 Sm7 3.123984 1_555
Ni39 Sm4 3.161349 1_555
Ni39 Sm11 3.186242 1_665
Ni40 Sm12 3.460107 1_664
Ni40 Sm5 3.460107 1_665
Ni41 Ni45 2.417216 1_555
Ni41 Ni44 2.432180 1_555
Ni41 Ni49 2.629564 1_555
Ni41 Ni48 2.672640 1_455
Ni41 Sm8 3.123984 1_555
Ni41 Sm14 3.161349 1_555
Ni41 Sm13 3.186242 1_555
Ni42 Ni44 2.391498 1_555
Ni42 Sm6 3.063800 1_555
Ni42 Sm10 3.084911 1_455
Ni43 Ni46 2.448972 1_555
Ni43 Ni47 2.459498 1_545
Ni43 Sm7 3.087083 1_555
Ni43 Sm4 3.147502 1_545
Ni43 Sm1 3.176932 1_545
Ni44 Ni48 2.432180 1_455
Ni44 Ni49 2.459498 1_555
Ni44 Ni45 2.802606 1_555
Ni44 Sm13 2.804439 1_555
Ni44 Sm6 2.949492 1_555
Ni44 Sm14 2.985909 1_555
Ni45 Ni49 2.448972 1_555
Ni45 Sm13 2.810831 1_555
Ni45 Sm8 2.939134 1_555
Ni45 Sm10 2.963604 1_555
Ni46 Ni7 2.417216 1_555
Ni46 Sm11 2.810831 1_555
Ni46 Sm7 2.939134 1_555
Ni46 Sm2 2.963604 1_555
Ni47 Ni50 2.802606 1_555
Ni47 Sm11 2.804439 1_665
Ni47 Sm1 2.949492 1_555
Ni47 Sm4 2.985909 1_555
Ni48 Sm8 3.123975 1_555
Ni48 Sm14 3.161345 1_655
Ni48 Sm13 3.186242 1_655
Ni49 Ni8 2.603039 1_555
Ni49 Ni6 2.629564 1_555
Ni49 Sm8 3.087089 1_555
Ni49 Sm14 3.147508 1_555
Ni49 Sm6 3.176938 1_555
Ni50 Sm11 2.810831 1_665
Ni50 Sm7 2.939134 1_555
Ni50 Sm2 2.963604 1_555
Ni51 Ni9 2.905163 1_565
Ni51 Sm6 3.307546 1_555
Ni51 Sm1 3.307546 1_555
