# generated using pymatgen
data_Rb2VAgSe4
_symmetry_space_group_name_H-M   'P 1'
_cell_length_a   14.16300263
_cell_length_b   12.63641405
_cell_length_c   7.69558378
_cell_angle_alpha   84.59784614
_cell_angle_beta   62.65417209
_cell_angle_gamma   32.74798177
_symmetry_Int_Tables_number   1
_chemical_formula_structural   Rb2VAgSe4
_chemical_formula_sum   'Rb4 V2 Ag2 Se8'
_cell_volume   525.34032611
_cell_formula_units_Z   2
loop_
 _symmetry_equiv_pos_site_id
 _symmetry_equiv_pos_as_xyz
  1  'x, y, z'
loop_
 _atom_site_type_symbol
 _atom_site_label
 _atom_site_symmetry_multiplicity
 _atom_site_fract_x
 _atom_site_fract_y
 _atom_site_fract_z
 _atom_site_occupancy
  Rb  Rb0  1  0.17585900  0.18329000  0.82708600  1
  Rb  Rb1  1  0.82331000  0.81583800  0.17214500  1
  Rb  Rb2  1  0.43925600  0.42262700  0.06577700  1
  Rb  Rb3  1  0.07617700  0.06213800  0.42194300  1
  V  V0  1  0.25665300  0.24583800  0.24167900  1
  V  V1  1  0.99929600  0.00277800  0.00561500  1
  Ag  Ag0  1  0.75330200  0.75018800  0.74401700  1
  Ag  Ag1  1  0.50759600  0.49320200  0.49095300  1
  Se  Se0  1  0.84084700  0.04500000  0.35979400  1
  Se  Se1  1  0.74153500  0.36894000  0.05865000  1
  Se  Se2  1  0.89374100  0.49764400  0.41018900  1
  Se  Se3  1  0.20519100  0.40934500  0.49388300  1
  Se  Se4  1  0.35691000  0.75469400  0.83245900  1
  Se  Se5  1  0.04932800  0.83581100  0.74897100  1
  Se  Se6  1  0.49314100  0.89222300  0.19786700  1
  Se  Se7  1  0.41072600  0.20420000  0.88912800  1
loop_
_geom_bond_atom_site_label_1
_geom_bond_atom_site_label_2
_geom_bond_distance
_geom_bond_site_symmetry_2
Rb0 Se2 3.473601 1_456
Rb0 Se4 3.550176 1_545
Rb0 Se6 3.567763 1_545
Rb0 Se1 3.600021 1_456
Rb0 Se7 3.784731 1_555
Rb0 Se3 3.813883 1_555
Rb0 Se6 3.955769 1_456
Rb0 Se2 3.977574 1_545
Rb1 Se7 3.472075 1_654
Rb1 Se3 3.486857 1_565
Rb1 Se5 3.541598 1_654
Rb1 Se0 3.585994 1_565
Rb1 Se2 3.750086 1_555
Rb1 Se6 3.798780 1_555
Rb1 Se3 3.906655 1_654
Rb1 Se7 3.989124 1_565
Rb2 Se5 3.444256 1_644
Rb2 Se0 3.523293 1_465
Rb2 Se3 3.559445 1_555
Rb2 Se7 3.566066 1_554
Rb2 Se1 3.701011 1_555
Rb2 Se4 3.803272 1_554
Rb2 Se5 3.923305 1_555
Rb2 Se0 3.933885 1_554
Rb3 Se4 3.499324 1_544
Rb3 Se6 3.531412 1_545
Rb3 Se1 3.582588 1_456
Rb3 Se2 3.629349 1_455
Rb3 Se0 3.752673 1_455
Rb3 Se5 3.775251 1_545
Rb3 Se1 3.860528 1_545
Rb3 Se4 4.002479 1_455
Ag0 Se2 2.629071 1_555
Ag0 Se3 2.663004 1_655
Ag0 Se7 2.666020 1_565
Ag0 Se6 2.688765 1_556
Ag1 Se1 2.572284 1_555
Ag1 Se4 2.645761 1_555
Ag1 Se0 2.665855 1_555
Ag1 Se5 2.706287 1_555
Se0 V1 2.321646 1_555
Se1 V1 2.340088 1_555
Se2 V0 2.316826 1_655
Se3 V0 2.342948 1_555
Se4 V1 2.265798 1_466
Se5 V1 2.416272 1_466
Se6 V0 2.317266 1_565
Se7 V0 2.301684 1_556
