# generated using pymatgen
data_Sr10Cu5Bi10O29
_symmetry_space_group_name_H-M   'P 1'
_cell_length_a   5.40342605
_cell_length_b   13.88356932
_cell_length_c   25.14482205
_cell_angle_alpha   81.97796112
_cell_angle_beta   83.82001811
_cell_angle_gamma   78.79080506
_symmetry_Int_Tables_number   1
_chemical_formula_structural   Sr10Cu5Bi10O29
_chemical_formula_sum   'Sr20 Cu10 Bi20 O58'
_cell_volume   1825.93793241
_cell_formula_units_Z   2
loop_
 _symmetry_equiv_pos_site_id
 _symmetry_equiv_pos_as_xyz
  1  'x, y, z'
loop_
 _atom_site_type_symbol
 _atom_site_label
 _atom_site_symmetry_multiplicity
 _atom_site_fract_x
 _atom_site_fract_y
 _atom_site_fract_z
 _atom_site_occupancy
  Sr  Sr0  1  0.16434800  0.16112500  0.48893400  1
  Sr  Sr1  1  0.15294700  0.57970100  0.07214200  1
  Sr  Sr2  1  0.79214700  0.25145600  0.12804200  1
  Sr  Sr3  1  0.80448900  0.42099200  0.92803000  1
  Sr  Sr4  1  0.64381000  0.49372600  0.17230000  1
  Sr  Sr5  1  0.17285000  0.94142000  0.67825100  1
  Sr  Sr6  1  0.65770400  0.66299800  0.97158100  1
  Sr  Sr7  1  0.67109500  0.84099500  0.77380600  1
  Sr  Sr8  1  0.81489700  0.83902200  0.51136300  1
  Sr  Sr9  1  0.66638300  0.04897900  0.58344700  1
  Sr  Sr10  1  0.31039800  0.50634600  0.82798100  1
  Sr  Sr11  1  0.17093600  0.74881400  0.87198400  1
  Sr  Sr12  1  0.15415200  0.38615400  0.28235500  1
  Sr  Sr13  1  0.29812900  0.95141900  0.41675400  1
  Sr  Sr14  1  0.82352100  0.61344100  0.71754200  1
  Sr  Sr15  1  0.28667700  0.15872700  0.22600500  1
  Sr  Sr16  1  0.29236000  0.33742000  0.02856800  1
  Sr  Sr17  1  0.65494400  0.27444900  0.39057000  1
  Sr  Sr18  1  0.32019700  0.72603000  0.60945600  1
  Sr  Sr19  1  0.79250000  0.05924000  0.32184000  1
  Cu  Cu0  1  0.75119700  0.82464400  0.64438200  1
  Cu  Cu1  1  0.72976100  0.05915000  0.45216300  1
  Cu  Cu2  1  0.21928000  0.17568000  0.35568300  1
  Cu  Cu3  1  0.74426100  0.62566000  0.84523200  1
  Cu  Cu4  1  0.72262300  0.45841700  0.05137900  1
  Cu  Cu5  1  0.23214400  0.54242000  0.94874400  1
  Cu  Cu6  1  0.24105000  0.94138800  0.54796700  1
  Cu  Cu7  1  0.21517200  0.37470600  0.15470300  1
  Cu  Cu8  1  0.25050700  0.72070400  0.74429400  1
  Cu  Cu9  1  0.71484100  0.27891000  0.25584900  1
  Bi  Bi0  1  0.03629900  0.02528100  0.82092300  1
  Bi  Bi1  1  0.93661800  0.53848200  0.57027700  1
  Bi  Bi2  1  0.60518800  0.58960700  0.31770600  1
  Bi  Bi3  1  0.95400600  0.67497500  0.22308600  1
  Bi  Bi4  1  0.51803300  0.40561300  0.68493400  1
  Bi  Bi5  1  0.46961600  0.65502900  0.46663000  1
  Bi  Bi6  1  0.54933100  0.76955500  0.10885800  1
  Bi  Bi7  1  0.01992300  0.85222000  0.01218800  1
  Bi  Bi8  1  0.59225900  0.34573900  0.53334100  1
  Bi  Bi9  1  0.88377100  0.97489700  0.17922200  1
  Bi  Bi10  1  0.42659700  0.23102000  0.89136700  1
  Bi  Bi11  1  0.89310900  0.77471800  0.36697100  1
  Bi  Bi12  1  0.85806000  0.32321200  0.77924000  1
  Bi  Bi13  1  0.57561300  0.11998300  0.72910500  1
  Bi  Bi14  1  0.57318600  0.93489900  0.91470300  1
  Bi  Bi15  1  0.04838500  0.46155000  0.42958800  1
  Bi  Bi16  1  0.42388800  0.06507400  0.08545900  1
  Bi  Bi17  1  0.42551300  0.88009200  0.27164600  1
  Bi  Bi18  1  0.88430700  0.14823600  0.98794200  1
  Bi  Bi19  1  0.03580900  0.22654400  0.63306600  1
  O  O0  1  0.59305700  0.69291200  0.18990600  1
  O  O1  1  0.15647600  0.89222500  0.78752800  1
  O  O2  1  0.10822100  0.53976100  0.19424900  1
  O  O3  1  0.84235600  0.45994000  0.80707300  1
  O  O4  1  0.18143800  0.33658000  0.39104200  1
  O  O5  1  0.96396700  0.33118900  0.20777400  1
  O  O6  1  0.97686300  0.50312600  0.00080800  1
  O  O7  1  0.30937300  0.36788200  0.91969000  1
  O  O8  1  0.47678400  0.11624400  0.40313800  1
  O  O9  1  0.99464700  0.77481400  0.69692000  1
  O  O10  1  0.90922400  0.66359600  0.60856000  1
  O  O11  1  0.62126100  0.99023700  0.69295200  1
  O  O12  1  0.47576600  0.30685400  0.80985300  1
  O  O13  1  0.49897300  0.76595000  0.69223100  1
  O  O14  1  0.62032400  0.80127100  0.88214500  1
  O  O15  1  0.50321700  0.66824600  0.79226300  1
  O  O16  1  0.99572400  0.88415700  0.59715700  1
  O  O17  1  0.97666000  0.11369900  0.73123300  1
  O  O18  1  0.48330200  0.99994400  0.49938900  1
  O  O19  1  0.30465000  0.01117000  0.30687500  1
  O  O20  1  0.32413200  0.78717800  0.49840700  1
  O  O21  1  0.97449900  0.93512900  0.90842200  1
  O  O22  1  0.98157600  0.00053400  0.50072600  1
  O  O23  1  0.30487200  0.19897600  0.11787700  1
  O  O24  1  0.63582300  0.21618400  0.64171600  1
  O  O25  1  0.50259800  0.88076700  0.59444600  1
  O  O26  1  0.96689400  0.41711000  0.10336700  1
  O  O27  1  0.95486900  0.23404700  0.30800700  1
  O  O28  1  0.96423000  0.54299100  0.35308600  1
  O  O29  1  0.46899100  0.33352500  0.20604500  1
  O  O30  1  0.85566400  0.45709200  0.64663200  1
  O  O31  1  0.55044300  0.57869700  0.54851100  1
  O  O32  1  0.98548000  0.58543100  0.89812400  1
  O  O33  1  0.46795600  0.41533800  0.10221100  1
  O  O34  1  0.81988900  0.06563700  0.09102800  1
  O  O35  1  0.47971400  0.97815300  0.18197700  1
  O  O36  1  0.84868700  0.28218500  0.01826000  1
  O  O37  1  0.14698100  0.71830600  0.98171300  1
  O  O38  1  0.59508000  0.63279900  0.08043400  1
  O  O39  1  0.62817200  0.85522200  0.00021800  1
  O  O40  1  0.48001200  0.49750500  0.99928800  1
  O  O41  1  0.97627100  0.11981100  0.40596300  1
  O  O42  1  0.84497000  0.90639700  0.40101200  1
  O  O43  1  0.00850800  0.66623000  0.79383400  1
  O  O44  1  0.48649400  0.58356800  0.89694000  1
  O  O45  1  0.83726700  0.10833500  0.21244000  1
  O  O46  1  0.95033300  0.77522500  0.09568900  1
  O  O47  1  0.48417400  0.14539200  0.99980700  1
  O  O48  1  0.46545800  0.22529600  0.30292500  1
  O  O49  1  0.82030100  0.22540900  0.90406600  1
  O  O50  1  0.49032800  0.78893400  0.35878300  1
  O  O51  1  0.63805600  0.02244100  0.81764200  1
  O  O52  1  0.98667800  0.31248000  0.54958400  1
  O  O53  1  0.14672300  0.09420400  0.59931600  1
  O  O54  1  0.60894800  0.21310700  0.50232300  1
  O  O55  1  0.82199700  0.88704900  0.26864800  1
  O  O56  1  0.67895300  0.42187600  0.45136700  1
  O  O57  1  0.84688300  0.68792600  0.45009900  1
loop_
_geom_bond_atom_site_label_1
_geom_bond_atom_site_label_2
_geom_bond_distance
_geom_bond_site_symmetry_2
Cu0 O16 1.910849 1_555
Cu0 O25 1.916066 1_555
Cu0 O9 1.928603 1_555
Cu0 O13 1.942711 1_555
Cu0 O10 2.488783 1_555
Cu0 O11 2.691000 1_555
Cu1 O22 1.911713 1_555
Cu1 O41 1.913882 1_555
Cu1 O18 1.916234 1_545
Cu1 O8 1.919708 1_555
Cu1 O42 2.571976 1_545
Cu1 O54 2.572629 1_555
Cu2 O8 1.917558 1_555
Cu2 O41 1.920699 1_455
Cu2 O48 1.930040 1_555
Cu2 O27 1.944879 1_455
Cu2 O4 2.481950 1_555
Cu2 O19 2.680750 1_555
Cu3 O32 1.913763 1_555
Cu3 O15 1.916832 1_555
Cu3 O44 1.920010 1_555
Cu3 O43 1.933509 1_655
Cu3 O3 2.554943 1_555
Cu3 O14 2.667835 1_555
Cu4 O33 1.900766 1_555
Cu4 O40 1.903518 1_554
Cu4 O6 1.903840 1_555
Cu4 O26 1.909930 1_555
Cu4 O38 2.570359 1_555
Cu4 O36 2.634880 1_555
Cu5 O32 1.896524 1_455
Cu5 O40 1.902234 1_555
Cu5 O6 1.902266 1_456
Cu5 O44 1.903710 1_555
Cu5 O7 2.571989 1_555
Cu5 O37 2.628307 1_555
Cu6 O18 1.912776 1_555
Cu6 O22 1.920882 1_465
Cu6 O25 1.920977 1_555
Cu6 O16 1.923695 1_455
Cu6 O20 2.566877 1_555
Cu6 O53 2.575009 1_565
Cu7 O33 1.905161 1_555
Cu7 O26 1.914755 1_455
Cu7 O5 1.921476 1_455
Cu7 O29 1.935164 1_555
Cu7 O2 2.563469 1_555
Cu7 O23 2.668140 1_555
Cu8 O15 1.890145 1_555
Cu8 O9 1.896240 1_455
Cu8 O43 1.898526 1_555
Cu8 O13 1.905472 1_555
Cu8 O1 2.691448 1_555
Cu9 O48 1.889888 1_555
Cu9 O5 1.893355 1_555
Cu9 O29 1.899868 1_555
Cu9 O27 1.901130 1_555
Cu9 O45 2.682213 1_555
Bi0 O1 2.094864 1_545
Bi0 O51 2.170496 1_455
Bi0 O21 2.398843 1_445
Bi0 O17 2.434509 1_455
Bi1 O10 2.074095 1_555
Bi1 O30 2.135457 1_555
Bi1 O31 2.161735 1_555
Bi2 O28 2.167223 1_555
Bi3 O2 2.094249 1_655
Bi3 O0 2.159979 1_555
Bi4 O30 2.168684 1_555
Bi5 O20 2.082242 1_555
Bi5 O57 2.159527 1_555
Bi5 O31 2.226545 1_555
Bi6 O38 2.082085 1_555
Bi6 O46 2.171488 1_555
Bi6 O0 2.177602 1_555
Bi6 O39 2.845706 1_555
Bi7 O37 2.074440 1_554
Bi7 O39 2.161604 1_455
Bi7 O46 2.247739 1_455
Bi7 O21 2.717131 1_454
Bi8 O54 2.080473 1_555
Bi8 O52 2.162007 1_555
Bi8 O56 2.227540 1_555
Bi9 O45 2.097291 1_565
Bi9 O35 2.168766 1_555
Bi9 O34 2.416624 1_565
Bi9 O55 2.426186 1_555
Bi10 O7 2.081240 1_555
Bi10 O49 2.169915 1_555
Bi10 O12 2.183886 1_555
Bi10 O47 2.842378 1_555
Bi11 O42 2.084822 1_555
Bi11 O50 2.176277 1_555
Bi11 O57 2.277079 1_555
Bi11 O55 2.754558 1_555
Bi12 O3 2.096623 1_555
Bi12 O12 2.168515 1_555
Bi13 O11 2.089994 1_545
Bi13 O17 2.157926 1_555
Bi13 O24 2.431886 1_555
Bi13 O51 2.458978 1_555
Bi14 O14 2.091000 1_555
Bi14 O21 2.157779 1_555
Bi14 O39 2.298141 1_556
Bi14 O51 2.590371 1_565
Bi15 O4 2.073882 1_555
Bi15 O28 2.137044 1_455
Bi15 O56 2.167033 1_455
Bi16 O23 2.092687 1_555
Bi16 O34 2.160919 1_555
Bi16 O47 2.303882 1_554
Bi16 O35 2.576030 1_545
Bi17 O19 2.094349 1_565
Bi17 O55 2.156018 1_555
Bi17 O50 2.396664 1_555
Bi17 O35 2.485777 1_555
Bi18 O36 2.074030 1_556
Bi18 O47 2.157827 1_555
Bi18 O49 2.257863 1_555
Bi18 O34 2.699331 1_556
Bi19 O53 2.086339 1_555
Bi19 O24 2.179474 1_455
Bi19 O52 2.279949 1_455
Bi19 O17 2.755917 1_455
O0 Sr4 2.817695 1_555
O1 Sr11 2.697280 1_555
O1 Sr7 2.729514 1_555
O1 Sr5 2.733459 1_555
O1 Sr7 2.914134 1_455
O2 Sr4 2.833798 1_455
O2 Sr12 2.848088 1_555
O2 Sr4 2.850239 1_555
O2 Sr1 3.034821 1_555
O3 Sr10 2.828926 1_555
O3 Sr10 2.846361 1_655
O3 Sr14 2.871608 1_555
O3 Sr3 3.005767 1_555
O4 Sr17 2.535487 1_555
O4 Sr12 2.736161 1_555
O4 Sr17 3.130768 1_455
O4 Sr0 3.219657 1_555
O5 Sr12 2.504894 1_655
O5 Sr4 2.670818 1_555
O5 Sr15 2.688191 1_655
O5 Sr2 2.743451 1_555
O6 Sr1 2.558468 1_655
O6 Sr6 2.601955 1_554
O6 Sr3 2.622792 1_554
O6 Sr16 2.639957 1_655
O7 Sr3 2.677336 1_455
O7 Sr16 2.705583 1_556
O7 Sr10 2.788785 1_555
O7 Sr3 2.945491 1_555
O8 Sr17 2.532556 1_555
O8 Sr13 2.618152 1_545
O8 Sr19 2.625121 1_555
O8 Sr0 2.659790 1_555
O9 Sr14 2.553697 1_555
O9 Sr7 2.604208 1_555
O9 Sr5 2.638838 1_655
O9 Sr18 2.740343 1_655
O10 Sr18 2.539250 1_655
O10 Sr14 2.743776 1_555
O10 Sr18 3.130378 1_555
O10 Sr8 3.207643 1_555
O11 Sr7 2.687801 1_555
O11 Sr5 2.714392 1_555
O11 Sr9 2.759028 1_565
O11 Sr5 2.920028 1_655
O12 Sr10 2.824842 1_555
O13 Sr14 2.526704 1_555
O13 Sr18 2.556446 1_555
O13 Sr5 2.718273 1_555
O13 Sr7 2.746246 1_555
O14 Sr7 2.697978 1_555
O14 Sr11 2.713866 1_555
O14 Sr6 2.743275 1_555
O14 Sr11 2.914327 1_655
O15 Sr14 2.508260 1_555
O15 Sr10 2.662723 1_555
O15 Sr7 2.689789 1_555
O15 Sr11 2.750142 1_555
O16 Sr18 2.533774 1_655
O16 Sr9 2.617404 1_565
O16 Sr5 2.621916 1_655
O16 Sr8 2.659018 1_555
O17 Sr5 2.866891 1_645
O18 Sr0 2.545765 1_565
O18 Sr8 2.581591 1_555
O18 Sr13 2.621610 1_555
O18 Sr9 2.650122 1_565
O19 Sr15 2.672770 1_555
O19 Sr19 2.715355 1_455
O19 Sr13 2.770136 1_545
O19 Sr19 2.916067 1_555
O20 Sr8 2.701487 1_455
O20 Sr18 2.801919 1_555
O20 Sr13 2.839994 1_555
O20 Sr8 2.941063 1_555
O21 Sr11 2.835819 1_655
O22 Sr8 2.544953 1_545
O22 Sr0 2.577359 1_655
O22 Sr9 2.619508 1_555
O22 Sr13 2.649483 1_645
O23 Sr15 2.693302 1_555
O23 Sr2 2.717800 1_455
O23 Sr16 2.742160 1_555
O23 Sr2 2.910561 1_555
O24 Sr9 2.882892 1_555
O25 Sr18 2.499166 1_555
O25 Sr8 2.597414 1_555
O25 Sr9 2.623795 1_565
O25 Sr5 2.725418 1_555
O26 Sr4 2.514884 1_555
O26 Sr2 2.624082 1_555
O26 Sr1 2.634464 1_655
O26 Sr16 2.639410 1_655
O27 Sr12 2.527763 1_655
O27 Sr17 2.549152 1_555
O27 Sr19 2.703202 1_555
O27 Sr15 2.763420 1_655
O28 Sr12 2.962558 1_655
O29 Sr12 2.512973 1_555
O29 Sr4 2.583931 1_555
O29 Sr2 2.703170 1_555
O29 Sr15 2.755880 1_555
O30 Sr14 2.964487 1_555
O31 Sr18 2.748701 1_555
O32 Sr10 2.554027 1_655
O32 Sr6 2.611038 1_555
O32 Sr11 2.628190 1_655
O32 Sr3 2.639040 1_555
O33 Sr4 2.547787 1_555
O33 Sr16 2.614553 1_555
O33 Sr2 2.636331 1_555
O33 Sr1 2.638485 1_555
O34 Sr2 2.834430 1_555
O35 Sr15 2.847468 1_565
O36 Sr16 2.703068 1_655
O36 Sr2 2.726870 1_555
O36 Sr3 2.763295 1_554
O36 Sr16 2.946728 1_555
O37 Sr6 2.711014 1_555
O37 Sr11 2.725275 1_555
O37 Sr1 2.764916 1_556
O37 Sr6 2.938188 1_455
O38 Sr1 2.670068 1_555
O38 Sr6 2.705069 1_554
O38 Sr4 2.796741 1_555
O38 Sr1 2.952477 1_655
O39 Sr6 2.830596 1_554
O40 Sr3 2.558056 1_555
O40 Sr16 2.601657 1_556
O40 Sr1 2.623689 1_556
O40 Sr6 2.636903 1_555
O41 Sr17 2.497447 1_555
O41 Sr0 2.594516 1_655
O41 Sr13 2.628251 1_645
O41 Sr19 2.727801 1_555
O42 Sr19 2.693509 1_565
O42 Sr13 2.723210 1_655
O42 Sr8 2.799687 1_555
O42 Sr13 2.894390 1_555
O43 Sr14 2.511256 1_455
O43 Sr10 2.585989 1_555
O43 Sr11 2.708838 1_555
O43 Sr7 2.757104 1_455
O44 Sr10 2.516379 1_555
O44 Sr11 2.621486 1_555
O44 Sr6 2.634882 1_555
O44 Sr3 2.635735 1_555
O45 Sr2 2.693966 1_555
O45 Sr15 2.721795 1_655
O45 Sr19 2.736376 1_555
O45 Sr15 2.914750 1_555
O46 Sr1 2.841067 1_655
O47 Sr16 2.829741 1_556
O48 Sr12 2.547352 1_555
O48 Sr15 2.603191 1_555
O48 Sr19 2.637253 1_555
O48 Sr17 2.747372 1_555
O49 Sr3 2.845898 1_555
O50 Sr13 2.823709 1_555
O51 Sr7 2.854919 1_545
O52 Sr0 2.730924 1_655
O53 Sr5 2.688427 1_545
O53 Sr9 2.753408 1_555
O53 Sr0 2.798864 1_555
O53 Sr9 2.866440 1_455
O54 Sr0 2.705836 1_555
O54 Sr17 2.819079 1_555
O54 Sr9 2.830850 1_555
O54 Sr0 2.940884 1_655
O55 Sr19 2.868417 1_565
O56 Sr17 2.750011 1_555
O57 Sr8 2.739918 1_555
