# generated using pymatgen
data_Cr(InS2)2
_symmetry_space_group_name_H-M   'P 1'
_cell_length_a   7.60074186
_cell_length_b   7.60074186
_cell_length_c   7.60074186
_cell_angle_alpha   120.90178366
_cell_angle_beta   118.62519294
_cell_angle_gamma   90.42136701
_symmetry_Int_Tables_number   1
_chemical_formula_structural   Cr(InS2)2
_chemical_formula_sum   'Cr2 In4 S8'
_cell_volume   311.44230082
_cell_formula_units_Z   2
loop_
 _symmetry_equiv_pos_site_id
 _symmetry_equiv_pos_as_xyz
  1  'x, y, z'
loop_
 _atom_site_type_symbol
 _atom_site_label
 _atom_site_symmetry_multiplicity
 _atom_site_fract_x
 _atom_site_fract_y
 _atom_site_fract_z
 _atom_site_occupancy
  Cr  Cr0  1  0.00000000  0.00000000  0.50000000  1
  Cr  Cr1  1  0.00000000  0.50000000  0.00000000  1
  In  In0  1  0.61600500  0.86600500  0.75000000  1
  In  In1  1  0.38399500  0.13399500  0.25000000  1
  In  In2  1  0.50000000  0.50000000  0.00000000  1
  In  In3  1  0.00000000  0.50000000  0.50000000  1
  S  S0  1  0.22839600  0.24036500  0.51196800  1
  S  S1  1  0.22839600  0.71642800  0.98803200  1
  S  S2  1  0.21301400  0.25443800  0.95857700  1
  S  S3  1  0.79586100  0.25443800  0.54142300  1
  S  S4  1  0.20413900  0.74556200  0.45857700  1
  S  S5  1  0.78698600  0.74556200  0.04142300  1
  S  S6  1  0.77160400  0.28357200  0.01196800  1
  S  S7  1  0.77160400  0.75963500  0.48803200  1
loop_
_geom_bond_atom_site_label_1
_geom_bond_atom_site_label_2
_geom_bond_distance
_geom_bond_site_symmetry_2
Cr0 S0 2.447652 1_555
Cr0 S7 2.447652 1_445
Cr0 S3 2.476581 1_455
Cr0 S4 2.476581 1_545
Cr0 S2 2.476581 1_555
Cr0 S5 2.476581 1_445
Cr1 S1 2.447646 1_554
Cr1 S6 2.447646 1_455
Cr1 S5 2.476576 1_455
Cr1 S2 2.476576 1_554
Cr1 S4 2.476581 1_555
Cr1 S3 2.476581 1_454
In0 S7 2.575641 1_555
In0 S6 2.575642 1_566
In0 S4 2.602971 1_555
In0 S5 2.602972 1_556
In1 S0 2.575641 1_555
In1 S1 2.575642 1_544
In1 S3 2.602971 1_555
In1 S2 2.602972 1_554
In2 S0 2.645709 1_554
In2 S7 2.645709 1_555
In2 S6 2.645709 1_555
In2 S1 2.645709 1_554
In2 S5 2.649408 1_555
In2 S2 2.649408 1_554
In3 S0 2.645703 1_555
In3 S7 2.645703 1_455
In3 S1 2.645709 1_555
In3 S6 2.645709 1_455
In3 S3 2.649402 1_455
In3 S4 2.649402 1_555
