# generated using pymatgen
data_Rb2Cd2(SO4)3
_symmetry_space_group_name_H-M   'P 1'
_cell_length_a   10.64768200
_cell_length_b   10.56880300
_cell_length_c   11.00651213
_cell_angle_alpha   88.88391100
_cell_angle_beta   90.00000000
_cell_angle_gamma   90.00000000
_symmetry_Int_Tables_number   1
_chemical_formula_structural   Rb2Cd2(SO4)3
_chemical_formula_sum   'Rb8 Cd8 S12 O48'
_cell_volume   1238.36363522
_cell_formula_units_Z   4
loop_
 _symmetry_equiv_pos_site_id
 _symmetry_equiv_pos_as_xyz
  1  'x, y, z'
loop_
 _atom_site_type_symbol
 _atom_site_label
 _atom_site_symmetry_multiplicity
 _atom_site_fract_x
 _atom_site_fract_y
 _atom_site_fract_z
 _atom_site_occupancy
  Rb  Rb0  1  0.59217900  0.93934700  0.32374900  1
  Rb  Rb1  1  0.85579800  0.28845300  0.47230000  1
  Rb  Rb2  1  0.09217900  0.06065300  0.67625100  1
  Rb  Rb3  1  0.71573900  0.56091800  0.83402200  1
  Rb  Rb4  1  0.44528900  0.19422700  0.97409100  1
  Rb  Rb5  1  0.94528900  0.80577300  0.02590900  1
  Rb  Rb6  1  0.35579800  0.71154700  0.52770000  1
  Rb  Rb7  1  0.21573900  0.43908200  0.16597800  1
  Cd  Cd0  1  0.80015200  0.18091300  0.08875100  1
  Cd  Cd1  1  0.00433400  0.67824800  0.43294000  1
  Cd  Cd2  1  0.06317200  0.41223000  0.81700500  1
  Cd  Cd3  1  0.56317200  0.58777000  0.18299500  1
  Cd  Cd4  1  0.24712400  0.09518700  0.30332000  1
  Cd  Cd5  1  0.74712400  0.90481300  0.69668000  1
  Cd  Cd6  1  0.30015200  0.81908700  0.91124900  1
  Cd  Cd7  1  0.50433400  0.32175200  0.56706000  1
  S  S0  1  0.87355200  0.47727900  0.16541900  1
  S  S1  1  0.68477500  0.62274600  0.48616800  1
  S  S2  1  0.61430900  0.87586600  0.99005300  1
  S  S3  1  0.76672000  0.24413700  0.78630800  1
  S  S4  1  0.26672000  0.75586300  0.21369200  1
  S  S5  1  0.93375500  0.96260200  0.34555800  1
  S  S6  1  0.43375500  0.03739800  0.65444200  1
  S  S7  1  0.53916000  0.28175100  0.26989800  1
  S  S8  1  0.11430900  0.12413400  0.00994700  1
  S  S9  1  0.37355200  0.52272100  0.83458100  1
  S  S10  1  0.03916000  0.71824900  0.73010200  1
  S  S11  1  0.18477500  0.37725400  0.51383200  1
  O  O0  1  0.66811100  0.73379700  0.56429100  1
  O  O1  1  0.63358500  0.77240000  0.08195400  1
  O  O2  1  0.89195000  0.29663600  0.74844600  1
  O  O3  1  0.26914800  0.89442100  0.21948100  1
  O  O4  1  0.35990600  0.94396300  0.72320300  1
  O  O5  1  0.15624300  0.17172300  0.13125700  1
  O  O6  1  0.07881700  0.76246800  0.59935800  1
  O  O7  1  0.61095900  0.18972700  0.18843000  1
  O  O8  1  0.75380000  0.51985500  0.10666500  1
  O  O9  1  0.85335200  0.91839600  0.46281200  1
  O  O10  1  0.23481400  0.71690300  0.08662200  1
  O  O11  1  0.36383300  0.65638400  0.78398200  1
  O  O12  1  0.60766200  0.51631600  0.53579000  1
  O  O13  1  0.13358500  0.22760000  0.91804600  1
  O  O14  1  0.76914800  0.10557900  0.78051900  1
  O  O15  1  0.17165800  0.69622000  0.29701400  1
  O  O16  1  0.97838700  0.08677100  0.01660900  1
  O  O17  1  0.96187100  0.43394500  0.04547500  1
  O  O18  1  0.16811100  0.26620300  0.43570900  1
  O  O19  1  0.96524300  0.53194800  0.94656800  1
  O  O20  1  0.47838700  0.91322900  0.98339100  1
  O  O21  1  0.86383300  0.34361600  0.21601800  1
  O  O22  1  0.55396300  0.98999900  0.61162000  1
  O  O23  1  0.93790200  0.83696400  0.28789600  1
  O  O24  1  0.25380000  0.48014500  0.89333500  1
  O  O25  1  0.73481400  0.28309700  0.91337800  1
  O  O26  1  0.84570400  0.01793100  0.55549900  1
  O  O27  1  0.67165800  0.30378000  0.70298600  1
  O  O28  1  0.34570400  0.98206900  0.44450100  1
  O  O29  1  0.90069500  0.75441200  0.74656300  1
  O  O30  1  0.32013900  0.41969600  0.51799900  1
  O  O31  1  0.65624300  0.82827700  0.86874300  1
  O  O32  1  0.35335200  0.08160400  0.53718800  1
  O  O33  1  0.85990600  0.05603700  0.27679700  1
  O  O34  1  0.39195000  0.70336400  0.25155400  1
  O  O35  1  0.57881700  0.23753200  0.40064200  1
  O  O36  1  0.40069500  0.24558800  0.25343700  1
  O  O37  1  0.10766200  0.48368400  0.46421000  1
  O  O38  1  0.18975200  0.01354300  0.97419000  1
  O  O39  1  0.05396300  0.01000100  0.38838000  1
  O  O40  1  0.14264800  0.34187600  0.63988900  1
  O  O41  1  0.82013900  0.58030400  0.48200100  1
  O  O42  1  0.43790200  0.16303600  0.71210400  1
  O  O43  1  0.68975200  0.98645700  0.02581000  1
  O  O44  1  0.11095900  0.81027300  0.81157000  1
  O  O45  1  0.64264800  0.65812400  0.36011100  1
  O  O46  1  0.46524300  0.46805200  0.05343200  1
  O  O47  1  0.46187100  0.56605500  0.95452500  1
loop_
_geom_bond_atom_site_label_1
_geom_bond_atom_site_label_2
_geom_bond_distance
_geom_bond_site_symmetry_2
Cd0 O16 2.291905 1_555
Cd0 O7 2.296607 1_555
Cd0 O25 2.301076 1_554
Cd0 O21 2.339376 1_555
Cd0 O43 2.478085 1_545
Cd0 O33 2.514760 1_555
Cd1 O6 2.199959 1_555
Cd1 O41 2.277686 1_455
Cd1 O15 2.331819 1_555
Cd1 O37 2.351540 1_555
Cd1 O23 2.399667 1_455
Cd2 O19 2.189076 1_455
Cd2 O40 2.264009 1_555
Cd2 O24 2.316114 1_555
Cd2 O2 2.328435 1_455
Cd2 O13 2.349892 1_555
Cd3 O46 2.189076 1_555
Cd3 O45 2.264009 1_555
Cd3 O8 2.316114 1_555
Cd3 O34 2.328435 1_555
Cd3 O1 2.349892 1_555
Cd4 O28 2.207556 1_545
Cd4 O5 2.262200 1_555
Cd4 O36 2.338362 1_555
Cd4 O3 2.342020 1_545
Cd4 O39 2.425760 1_555
Cd4 O18 2.490075 1_555
Cd5 O26 2.207556 1_565
Cd5 O31 2.262200 1_555
Cd5 O29 2.338362 1_555
Cd5 O14 2.342020 1_565
Cd5 O22 2.425760 1_555
Cd5 O0 2.490075 1_555
Cd6 O20 2.291905 1_555
Cd6 O44 2.296607 1_555
Cd6 O10 2.301076 1_556
Cd6 O11 2.339376 1_555
Cd6 O38 2.478085 1_565
Cd6 O4 2.514760 1_555
Cd7 O35 2.199959 1_555
Cd7 O30 2.277686 1_555
Cd7 O27 2.331819 1_555
Cd7 O12 2.351540 1_555
Cd7 O42 2.399667 1_555
O0 S1 1.479079 1_555
O0 Rb6 3.358502 1_555
O0 Rb0 3.486892 1_555
O1 S2 1.489280 1_554
O1 Rb0 3.251636 1_555
O1 Rb5 3.392891 1_555
O2 S3 1.500165 1_555
O2 Rb1 3.066574 1_555
O2 Rb2 3.387367 1_655
O3 S4 1.467245 1_555
O4 S6 1.461885 1_565
O4 Rb2 3.144762 1_565
O4 Rb6 3.297240 1_555
O5 S8 1.503745 1_555
O5 Rb7 2.928106 1_555
O6 S10 1.562476 1_555
O6 Rb6 3.102585 1_555
O6 Rb2 3.282088 1_565
O7 S7 1.538952 1_555
O7 Rb4 2.945346 1_554
O7 Rb0 3.017813 1_545
O8 S0 1.495047 1_555
O8 Rb3 3.050728 1_554
O9 S5 1.610356 1_555
O9 Rb0 3.179920 1_555
O10 S4 1.504483 1_555
O10 Rb7 3.053802 1_555
O10 Rb5 3.287515 1_455
O11 S9 1.511893 1_555
O11 Rb6 2.870523 1_555
O12 S1 1.487880 1_555
O12 Rb6 3.383799 1_555
O13 S8 1.489280 1_556
O13 Rb2 3.251636 1_555
O13 Rb4 3.392891 1_555
O14 S3 1.467245 1_555
O15 S4 1.496797 1_555
O15 Rb7 3.136661 1_555
O15 Rb6 3.214535 1_555
O16 S8 1.501574 1_655
O16 Rb5 2.990421 1_545
O17 O19 1.488384 1_554
O17 S0 1.691296 1_555
O17 Rb7 3.011918 1_655
O18 S11 1.479079 1_555
O18 Rb1 3.358502 1_455
O18 Rb2 3.486892 1_555
O19 Rb3 2.944686 1_555
O19 Rb5 3.046546 1_556
O20 S2 1.501574 1_555
O20 Rb4 2.990421 1_565
O21 S0 1.511893 1_555
O21 Rb1 2.870523 1_555
O22 S6 1.456204 1_565
O22 Rb0 3.249207 1_555
O23 S5 1.483488 1_555
O23 Rb5 2.909781 1_555
O24 S9 1.495047 1_555
O24 Rb7 3.050728 1_556
O25 S3 1.504483 1_555
O25 Rb3 3.053802 1_555
O25 Rb4 3.287515 1_555
O26 O9 1.481823 1_545
O26 Rb2 2.980110 1_655
O26 Rb1 2.987062 1_555
O27 S3 1.496797 1_555
O27 Rb3 3.136661 1_555
O27 Rb1 3.214535 1_555
O28 O32 1.481823 1_565
O28 Rb0 2.980110 1_555
O28 Rb6 2.987062 1_555
O29 S10 1.534683 1_655
O29 Rb3 2.985016 1_555
O29 Rb5 3.168352 1_556
O30 S11 1.510462 1_555
O30 Rb6 3.111692 1_555
O31 S2 1.503745 1_555
O31 Rb3 2.928106 1_555
O32 S6 1.610356 1_555
O32 Rb2 3.179920 1_555
O33 S5 1.461885 1_545
O33 Rb0 3.144762 1_545
O33 Rb1 3.297240 1_555
O34 S4 1.500165 1_555
O34 Rb6 3.066574 1_555
O34 Rb0 3.387367 1_555
O35 S7 1.562476 1_555
O35 Rb1 3.102585 1_555
O35 Rb0 3.282088 1_545
O36 S7 1.534683 1_555
O36 Rb7 2.985016 1_555
O36 Rb4 3.168352 1_554
O37 S11 1.487880 1_555
O37 Rb1 3.383799 1_455
O38 S8 1.477909 1_556
O38 Rb4 3.324111 1_555
O38 Rb2 3.466593 1_555
O39 S5 1.456204 1_445
O39 Rb2 3.249207 1_555
O40 S11 1.498602 1_555
O40 Rb2 3.039165 1_555
O41 S1 1.510462 1_555
O41 Rb1 3.111692 1_555
O42 S6 1.483488 1_555
O42 Rb4 2.909781 1_555
O43 S2 1.477909 1_554
O43 Rb5 3.324111 1_555
O43 Rb0 3.466593 1_555
O44 S10 1.538952 1_555
O44 Rb5 2.945346 1_456
O44 Rb2 3.017813 1_565
O45 S1 1.498602 1_555
O45 Rb0 3.039165 1_555
O46 O47 1.488384 1_554
O46 Rb7 2.944686 1_555
O46 Rb4 3.046546 1_554
O47 S9 1.691296 1_555
O47 Rb3 3.011918 1_555
