# generated using pymatgen
data_AgC3N3O2
_symmetry_space_group_name_H-M   'P 1'
_cell_length_a   7.90055500
_cell_length_b   15.42150518
_cell_length_c   19.07903918
_cell_angle_alpha   104.55358339
_cell_angle_beta   101.83444807
_cell_angle_gamma   104.79065803
_symmetry_Int_Tables_number   1
_chemical_formula_structural   AgC3N3O2
_chemical_formula_sum   'Ag16 C48 N48 O32'
_cell_volume   2083.44903472
_cell_formula_units_Z   16
loop_
 _symmetry_equiv_pos_site_id
 _symmetry_equiv_pos_as_xyz
  1  'x, y, z'
loop_
 _atom_site_type_symbol
 _atom_site_label
 _atom_site_symmetry_multiplicity
 _atom_site_fract_x
 _atom_site_fract_y
 _atom_site_fract_z
 _atom_site_occupancy
  Ag  Ag0  1  0.93454600  0.56556400  0.78709300  1
  Ag  Ag1  1  0.07935800  0.93196900  0.71115800  1
  Ag  Ag2  1  0.76706900  0.85960400  0.07756100  1
  Ag  Ag3  1  0.42084100  0.58083800  0.94874900  1
  Ag  Ag4  1  0.22850800  0.13922400  0.92222700  1
  Ag  Ag5  1  0.60380400  0.07924900  0.44679600  1
  Ag  Ag6  1  0.76961500  0.54794700  0.32344000  1
  Ag  Ag7  1  0.22641600  0.45391900  0.67770100  1
  Ag  Ag8  1  0.66717700  0.35508100  0.57642500  1
  Ag  Ag9  1  0.60286900  0.04603300  0.82086200  1
  Ag  Ag10  1  0.57975300  0.42378500  0.05253100  1
  Ag  Ag11  1  0.06159900  0.43226200  0.21015800  1
  Ag  Ag12  1  0.91792100  0.06530900  0.28796900  1
  Ag  Ag13  1  0.32948000  0.64106800  0.42138200  1
  Ag  Ag14  1  0.40427500  0.95278700  0.17721600  1
  Ag  Ag15  1  0.39318100  0.92085700  0.55079100  1
  C  C0  1  0.48077300  0.67587100  0.21610800  1
  C  C1  1  0.82077200  0.91520300  0.38771400  1
  C  C2  1  0.25845300  0.88890200  0.33365700  1
  C  C3  1  0.51678100  0.32316500  0.78368000  1
  C  C4  1  0.84641400  0.60785800  0.54045400  1
  C  C5  1  0.14073500  0.41799400  0.39426200  1
  C  C6  1  0.36239300  0.87871100  0.99339800  1
  C  C7  1  0.80025900  0.10829600  0.03952300  1
  C  C8  1  0.55173500  0.24448200  0.34008800  1
  C  C9  1  0.74035500  0.11229700  0.66846400  1
  C  C10  1  0.33548000  0.15496300  0.53120300  1
  C  C11  1  0.44796500  0.75482700  0.66036500  1
  C  C12  1  0.56866200  0.84098600  0.84609200  1
  C  C13  1  0.63739400  0.12100500  0.00595200  1
  C  C14  1  0.33506600  0.29963400  0.16512200  1
  C  C15  1  0.46806400  0.25477300  0.16098200  1
  C  C16  1  0.01767100  0.58410300  0.11232900  1
  C  C17  1  0.17571800  0.08449600  0.61205000  1
  C  C18  1  0.86119700  0.58130600  0.60602800  1
  C  C19  1  0.17198300  0.91653300  0.89410200  1
  C  C20  1  0.15404200  0.39262600  0.46030200  1
  C  C21  1  0.01016400  0.37729000  0.49293100  1
  C  C22  1  0.00174400  0.25913700  0.70469600  1
  C  C23  1  0.36922900  0.19883400  0.33576500  1
  C  C24  1  0.61912400  0.33971800  0.34520600  1
  C  C25  1  0.15305600  0.34546400  0.97076400  1
  C  C26  1  0.18114900  0.12708400  0.55528700  1
  C  C27  1  0.82517400  0.08371100  0.10588400  1
  C  C28  1  0.66499200  0.69922700  0.83512000  1
  C  C29  1  0.84634100  0.65296600  0.03024800  1
  C  C30  1  0.46437700  0.38836800  0.83295300  1
  C  C31  1  0.98965700  0.62127600  0.50711500  1
  C  C32  1  0.19868100  0.89162200  0.96045100  1
  C  C33  1  0.53690400  0.61250600  0.16696300  1
  C  C34  1  0.98317100  0.41569200  0.88930300  1
  C  C35  1  0.43428400  0.15923700  0.15551500  1
  C  C36  1  0.63010000  0.80077500  0.66499900  1
  C  C37  1  0.00039200  0.37138500  0.94503500  1
  C  C38  1  0.53770500  0.24003300  0.79502900  1
  C  C39  1  0.38291800  0.65902900  0.65427700  1
  C  C40  1  0.90899700  0.17651400  0.71714200  1
  C  C41  1  0.53474100  0.74586300  0.84148000  1
  C  C42  1  0.99920600  0.62715900  0.05567500  1
  C  C43  1  0.09042000  0.82561600  0.28447100  1
  C  C44  1  0.66127900  0.84622900  0.46917900  1
  C  C45  1  0.45988900  0.75895300  0.20440300  1
  C  C46  1  0.81358900  0.87088000  0.44339000  1
  C  C47  1  0.99618100  0.74203800  0.29519100  1
  N  N0  1  0.03588700  0.54797800  0.15936300  1
  N  N1  1  0.42094000  0.44381100  0.87317900  1
  N  N2  1  0.87882900  0.55631800  0.65954700  1
  N  N3  1  0.58412500  0.56068100  0.12541600  1
  N  N4  1  0.21678300  0.16048500  0.33030400  1
  N  N5  1  0.31758800  0.38209700  0.49572100  1
  N  N6  1  0.22700000  0.33874800  0.16993200  1
  N  N7  1  0.32513300  0.57953200  0.65011400  1
  N  N8  1  0.88996400  0.36502700  0.52027800  1
  N  N9  1  0.12839700  0.44256300  0.34049600  1
  N  N10  1  0.91832900  0.67288300  0.30518700  1
  N  N11  1  0.35378900  0.69225300  0.83095900  1
  N  N12  1  0.46505700  0.17697400  0.51010700  1
  N  N13  1  0.60107500  0.05715200  0.62843900  1
  N  N14  1  0.39925400  0.94304300  0.37334900  1
  N  N15  1  0.78377900  0.83789300  0.67098900  1
  N  N16  1  0.56078700  0.17168400  0.80533900  1
  N  N17  1  0.40665300  0.08001700  0.15255700  1
  N  N18  1  0.49998000  0.13085500  0.97813900  1
  N  N19  1  0.87054700  0.36664400  0.98525100  1
  N  N20  1  0.68353600  0.61881500  0.50557200  1
  N  N21  1  0.00575800  0.85036200  0.22425000  1
  N  N22  1  0.05922100  0.88179700  0.99530100  1
  N  N23  1  0.97784900  0.86491900  0.48314300  1
  N  N24  1  0.07754900  0.32713900  0.69267000  1
  N  N25  1  0.16678400  0.04813800  0.65874900  1
  N  N26  1  0.01847900  0.13409400  0.51529600  1
  N  N27  1  0.43082600  0.65106100  0.27608100  1
  N  N28  1  0.96625700  0.45511700  0.84455300  1
  N  N29  1  0.50055400  0.86952500  0.02187300  1
  N  N30  1  0.67866200  0.41850800  0.34771100  1
  N  N31  1  0.83130400  0.95384300  0.34230300  1
  N  N32  1  0.71539000  0.67245600  0.00804000  1
  N  N33  1  0.66839300  0.19040800  0.33028200  1
  N  N34  1  0.99556300  0.15169300  0.77680900  1
  N  N35  1  0.83729500  0.06023900  0.16013200  1
  N  N36  1  0.57093700  0.34864700  0.72448100  1
  N  N37  1  0.32946600  0.80781900  0.66979700  1
  N  N38  1  0.53386100  0.82737600  0.49204300  1
  N  N39  1  0.58717900  0.91924400  0.84764400  1
  N  N40  1  0.93988300  0.11911700  0.00481600  1
  N  N41  1  0.15959600  0.94018800  0.83989700  1
  N  N42  1  0.28361300  0.32563200  0.99311400  1
  N  N43  1  0.10814100  0.63152600  0.47829200  1
  N  N44  1  0.64771500  0.30905400  0.17060900  1
  N  N45  1  0.13183800  0.63417900  0.01686800  1
  N  N46  1  0.44191800  0.82789200  0.19389200  1
  N  N47  1  0.77387400  0.66154500  0.82732500  1
  O  O0  1  0.44806700  0.39323400  0.46692400  1
  O  O1  1  0.23100500  0.72985500  0.82622000  1
  O  O2  1  0.67026900  0.64099900  0.44538300  1
  O  O3  1  0.44066800  0.57452400  0.28561500  1
  O  O4  1  0.17100000  0.76933400  0.67148800  1
  O  O5  1  0.08126100  0.92737500  0.21521800  1
  O  O6  1  0.12026100  0.89770900  0.46350800  1
  O  O7  1  0.55299900  0.60681200  0.53417300  1
  O  O8  1  0.26023500  0.60078000  0.03653900  1
  O  O9  1  0.85274500  0.79368800  0.17972300  1
  O  O10  1  0.91452800  0.13948200  0.94383200  1
  O  O11  1  0.77040500  0.27119600  0.17210600  1
  O  O12  1  0.91953900  0.07452800  0.78585500  1
  O  O13  1  0.38837700  0.89536500  0.67599900  1
  O  O14  1  0.60852300  0.10313200  0.32511300  1
  O  O15  1  0.56721400  0.42693700  0.71712600  1
  O  O16  1  0.31943000  0.60484700  0.82562900  1
  O  O17  1  0.33208800  0.36287300  0.55716400  1
  O  O18  1  0.15102100  0.20631200  0.82021100  1
  O  O19  1  0.68134800  0.39673800  0.17748000  1
  O  O20  1  0.87477900  0.10288900  0.53452000  1
  O  O21  1  0.37559700  0.70650100  0.32014100  1
  O  O22  1  0.08820200  0.10887000  0.03420700  1
  O  O23  1  0.12191500  0.66984100  0.96504100  1
  O  O24  1  0.88384500  0.33327700  0.03830500  1
  O  O25  1  0.62442600  0.29251000  0.67996200  1
  O  O26  1  0.08419900  0.86376600  0.05724400  1
  O  O27  1  0.91185000  0.89211100  0.96511700  1
  O  O28  1  0.01555400  0.16840100  0.46273400  1
  O  O29  1  0.98477100  0.83099300  0.53586100  1
  O  O30  1  0.74050400  0.39867400  0.96529600  1
  O  O31  1  0.82553700  0.22738700  0.32654500  1
loop_
_geom_bond_atom_site_label_1
_geom_bond_atom_site_label_2
_geom_bond_distance
_geom_bond_site_symmetry_2
Ag0 N47 2.275843 1_555
Ag0 N28 2.282397 1_555
Ag0 N2 2.343076 1_555
Ag1 N15 2.263363 1_455
Ag1 N25 2.288702 1_565
Ag1 N41 2.369553 1_555
Ag2 N29 2.216854 1_555
Ag2 O9 2.469134 1_555
Ag2 O26 2.600130 1_655
Ag2 O27 2.723300 1_554
Ag2 N32 2.740063 1_555
Ag3 N1 2.239273 1_555
Ag3 N32 2.264853 1_556
Ag3 O8 2.306984 1_556
Ag3 O16 2.472545 1_555
Ag4 N18 2.242046 1_555
Ag4 O18 2.465805 1_555
Ag4 O10 2.597499 1_455
Ag4 O22 2.687278 1_556
Ag4 N42 2.729117 1_555
Ag5 N14 2.201381 1_545
Ag5 O20 2.311398 1_555
Ag5 N12 2.324566 1_555
Ag5 O14 2.446440 1_555
Ag6 N10 2.136149 1_555
Ag6 N30 2.141039 1_555
Ag6 O3 2.714056 1_555
Ag6 O2 2.781066 1_555
Ag7 N24 2.128789 1_555
Ag7 N7 2.132421 1_555
Ag8 N8 2.233220 1_555
Ag8 O25 2.452053 1_555
Ag8 N12 2.623050 1_555
Ag8 O17 2.635096 1_555
Ag8 O0 2.713286 1_555
Ag9 N39 2.122243 1_545
Ag9 N16 2.128380 1_555
Ag9 O12 2.677705 1_555
Ag9 O10 2.786321 1_555
Ag10 N3 2.204424 1_555
Ag10 N42 2.300409 1_554
Ag10 O30 2.308075 1_554
Ag10 O19 2.527265 1_555
Ag11 N0 2.266813 1_555
Ag11 N6 2.278963 1_555
Ag11 N9 2.389126 1_555
Ag11 O11 2.735046 1_455
Ag11 O19 2.816700 1_455
Ag12 N31 2.254710 1_545
Ag12 N4 2.287865 1_655
Ag12 N35 2.366877 1_555
Ag13 N43 2.232992 1_555
Ag13 O21 2.441824 1_555
Ag13 O2 2.637202 1_555
Ag13 N38 2.733408 1_555
Ag13 O7 2.741782 1_555
Ag14 N46 2.112119 1_555
Ag14 N17 2.126070 1_565
Ag15 N13 2.232642 1_565
Ag15 N38 2.255414 1_555
Ag15 O6 2.320625 1_555
Ag15 O13 2.522722 1_555
C0 N27 1.392657 1_555
C0 C45 1.398327 1_555
C0 C33 1.400732 1_555
C1 N31 1.173188 1_555
C1 C46 1.403074 1_555
C2 N14 1.170697 1_555
C2 C43 1.400978 1_555
C3 N36 1.395924 1_555
C3 C38 1.396719 1_555
C3 C30 1.401209 1_555
C4 N20 1.394149 1_555
C5 N9 1.174099 1_555
C6 N29 1.175198 1_556
C7 N40 1.394391 1_555
C8 N33 1.401640 1_555
C9 N13 1.169777 1_555
C10 N12 1.177068 1_555
C10 C26 1.394315 1_555
C11 C39 1.400639 1_555
C11 N37 1.400907 1_555
C11 C36 1.405799 1_555
C12 N39 1.169999 1_555
C12 C41 1.398645 1_555
C13 N18 1.171197 1_554
C13 C7 1.399330 1_555
C14 N6 1.169818 1_555
C14 C15 1.402387 1_555
C15 N44 1.399346 1_555
C15 C35 1.401191 1_555
C16 N0 1.172837 1_555
C16 C42 1.405700 1_455
C17 N25 1.170404 1_555
C17 C26 1.402918 1_555
C18 N2 1.173604 1_555
C18 C4 1.403024 1_555
C19 N41 1.174094 1_555
C19 C32 1.403841 1_555
C20 N5 1.398812 1_555
C20 C21 1.400923 1_555
C20 C5 1.402157 1_555
C21 N8 1.170874 1_455
C22 N24 1.169487 1_555
C22 C40 1.401268 1_455
C23 N4 1.168372 1_555
C23 C8 1.408978 1_555
C24 N30 1.170339 1_555
C24 C8 1.399066 1_555
C25 N42 1.177076 1_555
C25 C37 1.399088 1_555
C26 N26 1.398471 1_555
C27 N35 1.173349 1_555
C27 C7 1.400943 1_555
C28 N47 1.167936 1_555
C28 C41 1.405758 1_555
C29 N32 1.176097 1_555
C29 C42 1.398014 1_555
C30 N1 1.168714 1_555
C31 N43 1.175983 1_655
C31 C4 1.403565 1_555
C32 N22 1.394606 1_555
C32 C6 1.403071 1_555
C33 N3 1.166797 1_555
C34 N28 1.171338 1_555
C34 C37 1.403311 1_655
C35 N17 1.169401 1_555
C36 N15 1.170572 1_555
C37 N19 1.399707 1_455
C38 N16 1.170721 1_555
C39 N7 1.169676 1_555
C40 N34 1.394097 1_555
C40 C9 1.405348 1_555
C41 N11 1.401086 1_555
C42 N45 1.399473 1_655
C43 N21 1.395925 1_555
C43 C47 1.400860 1_455
C44 N38 1.175855 1_555
C44 C46 1.392090 1_555
C45 N46 1.167557 1_555
C46 N23 1.400025 1_555
C47 N10 1.169389 1_555
N5 O0 1.258316 1_555
N5 O17 1.269708 1_555
N11 O1 1.250215 1_555
N11 O16 1.278248 1_555
N19 O24 1.243446 1_556
N19 O30 1.279725 1_555
N20 O7 1.256887 1_555
N20 O2 1.270082 1_555
N21 O5 1.256722 1_555
N21 O9 1.270093 1_455
N22 O27 1.256237 1_455
N22 O26 1.269038 1_556
N23 O29 1.242934 1_555
N23 O6 1.280454 1_655
N26 O28 1.244789 1_555
N26 O20 1.278900 1_455
N27 O3 1.257473 1_555
N27 O21 1.267964 1_555
N33 O31 1.251770 1_555
N33 O14 1.278315 1_555
N34 O12 1.259940 1_555
N34 O18 1.267977 1_655
N36 O15 1.256915 1_555
N36 O25 1.270419 1_555
N37 O4 1.252006 1_555
N37 O13 1.276583 1_555
N40 O22 1.257814 1_655
N40 O10 1.269920 1_554
N44 O11 1.251885 1_555
N44 O19 1.276502 1_555
N45 O23 1.244937 1_554
N45 O8 1.281767 1_555
