# generated using pymatgen
data_Yb6U3O17
_symmetry_space_group_name_H-M   'P 1'
_cell_length_a   6.59206599
_cell_length_b   6.59206599
_cell_length_c   11.11634623
_cell_angle_alpha   73.75036691
_cell_angle_beta   73.75036691
_cell_angle_gamma   47.95043987
_symmetry_Int_Tables_number   1
_chemical_formula_structural   Yb6U3O17
_chemical_formula_sum   'Yb6 U3 O17'
_cell_volume   341.47224784
_cell_formula_units_Z   1
loop_
 _symmetry_equiv_pos_site_id
 _symmetry_equiv_pos_as_xyz
  1  'x, y, z'
loop_
 _atom_site_type_symbol
 _atom_site_label
 _atom_site_symmetry_multiplicity
 _atom_site_fract_x
 _atom_site_fract_y
 _atom_site_fract_z
 _atom_site_occupancy
  Yb  Yb0  1  0.00907100  0.64972000  0.89003800  1
  Yb  Yb1  1  0.93951900  0.70150900  0.55453500  1
  Yb  Yb2  1  0.68433600  0.32330000  0.32337000  1
  Yb  Yb3  1  0.35028000  0.99092900  0.10996200  1
  Yb  Yb4  1  0.67670000  0.31566400  0.67663000  1
  Yb  Yb5  1  0.29849100  0.06048100  0.44546500  1
  U  U0  1  0.00846400  0.66724400  0.22191600  1
  U  U1  1  0.67957500  0.32042500  0.00000000  1
  U  U2  1  0.33275600  0.99153600  0.77808400  1
  O  O0  1  0.73365600  0.92722100  0.37212500  1
  O  O1  1  0.44909500  0.56585800  0.14946600  1
  O  O2  1  0.77051500  0.89938700  0.06716600  1
  O  O3  1  0.27810900  0.40318700  0.06387700  1
  O  O4  1  0.10061300  0.22948500  0.93283400  1
  O  O5  1  0.43414200  0.55090500  0.85053400  1
  O  O6  1  0.70553500  0.92839300  0.73191300  1
  O  O7  1  0.25467400  0.39961900  0.70417400  1
  O  O8  1  0.07277900  0.26634400  0.62787500  1
  O  O9  1  0.91654100  0.08345900  0.50000000  1
  O  O10  1  0.23011100  0.47510800  0.37348500  1
  O  O11  1  0.07160700  0.29446500  0.26808700  1
  O  O12  1  0.60038100  0.74532600  0.29582600  1
  O  O13  1  0.93316400  0.06847200  0.15566700  1
  O  O14  1  0.59681300  0.72189100  0.93612300  1
  O  O15  1  0.93152800  0.06683600  0.84433300  1
  O  O16  1  0.52489200  0.76988900  0.62651500  1
loop_
_geom_bond_atom_site_label_1
_geom_bond_atom_site_label_2
_geom_bond_distance
_geom_bond_site_symmetry_2
O0 U0 2.181009 1_655
O0 Yb1 2.305193 1_555
O0 Yb5 2.319862 1_565
O0 Yb2 2.320819 1_565
O1 U1 2.117901 1_555
O1 Yb2 2.307583 1_555
O1 Yb3 2.344206 1_555
O1 U0 2.433919 1_555
O2 U0 2.140780 1_655
O2 Yb3 2.334178 1_555
O2 U1 2.341413 1_565
O2 Yb0 2.381696 1_654
O3 U1 2.244276 1_555
O3 U0 2.257221 1_555
O3 Yb3 2.345127 1_545
O3 Yb0 2.412556 1_554
O4 U2 2.140780 1_545
O4 Yb0 2.334178 1_555
O4 U1 2.341413 1_456
O4 Yb3 2.381696 1_546
O5 U1 2.117901 1_556
O5 Yb4 2.307583 1_555
O5 Yb0 2.344206 1_555
O5 U2 2.433919 1_555
O6 U2 2.125781 1_555
O6 Yb1 2.315628 1_555
O6 Yb4 2.338482 1_565
O6 Yb0 2.388626 1_655
O7 U2 2.306858 1_545
O7 Yb1 2.363616 1_455
O7 Yb4 2.386493 1_555
O7 Yb0 2.463124 1_555
O8 U2 2.181009 1_545
O8 Yb5 2.305193 1_555
O8 Yb1 2.319862 1_455
O8 Yb4 2.320819 1_455
O9 Yb2 2.323974 1_555
O9 Yb4 2.323974 1_555
O9 Yb1 2.327283 1_545
O9 Yb5 2.327283 1_655
O10 U0 2.069393 1_555
O10 Yb1 2.375133 1_455
O10 Yb5 2.375203 1_555
O10 Yb2 2.375308 1_555
O11 U0 2.125781 1_555
O11 Yb5 2.315628 1_555
O11 Yb2 2.338482 1_455
O11 Yb3 2.388626 1_545
O12 U0 2.306858 1_655
O12 Yb5 2.363616 1_565
O12 Yb2 2.386493 1_555
O12 Yb3 2.463124 1_555
O13 U1 2.199714 1_555
O13 U0 2.267192 1_645
O13 Yb2 2.310427 1_555
O13 Yb3 2.358127 1_645
O14 U1 2.244276 1_556
O14 U2 2.257221 1_555
O14 Yb0 2.345127 1_655
O14 Yb3 2.412556 1_556
O15 U1 2.199714 1_556
O15 U2 2.267192 1_645
O15 Yb4 2.310427 1_555
O15 Yb0 2.358127 1_645
O16 U2 2.069393 1_555
O16 Yb5 2.375133 1_565
O16 Yb1 2.375203 1_555
O16 Yb4 2.375308 1_555
