# generated using pymatgen
data_U2InNi2
_symmetry_space_group_name_H-M   'P 1'
_cell_length_a   7.18806100
_cell_length_b   7.18806100
_cell_length_c   3.72916900
_cell_angle_alpha   90.00000000
_cell_angle_beta   90.00000000
_cell_angle_gamma   90.00000000
_symmetry_Int_Tables_number   1
_chemical_formula_structural   U2InNi2
_chemical_formula_sum   'U4 In2 Ni4'
_cell_volume   192.67952781
_cell_formula_units_Z   2
loop_
 _symmetry_equiv_pos_site_id
 _symmetry_equiv_pos_as_xyz
  1  'x, y, z'
loop_
 _atom_site_type_symbol
 _atom_site_label
 _atom_site_symmetry_multiplicity
 _atom_site_fract_x
 _atom_site_fract_y
 _atom_site_fract_z
 _atom_site_occupancy
  U  U0  1  0.16332000  0.33668000  0.50000000  1
  U  U1  1  0.83668000  0.66332000  0.50000000  1
  U  U2  1  0.66332000  0.16332000  0.50000000  1
  U  U3  1  0.33668000  0.83668000  0.50000000  1
  In  In0  1  0.00000000  0.00000000  0.00000000  1
  In  In1  1  0.50000000  0.50000000  0.00000000  1
  Ni  Ni0  1  0.36825000  0.13175000  0.00000000  1
  Ni  Ni1  1  0.63175000  0.86825000  0.00000000  1
  Ni  Ni2  1  0.13175000  0.63175000  0.00000000  1
  Ni  Ni3  1  0.86825000  0.36825000  0.00000000  1
loop_
_geom_bond_atom_site_label_1
_geom_bond_atom_site_label_2
_geom_bond_distance
_geom_bond_site_symmetry_2
In0 Ni1 2.811314 1_445
In0 Ni2 2.811314 1_545
In0 Ni3 2.811314 1_455
In0 Ni0 2.811314 1_555
In0 U0 3.272860 1_555
In0 U3 3.272860 1_545
In0 U2 3.272860 1_455
In0 U2 3.272860 1_454
In0 U0 3.272860 1_554
In0 U1 3.272860 1_444
In0 U3 3.272860 1_544
In0 U1 3.272860 1_445
In1 Ni2 2.811314 1_555
In1 Ni3 2.811314 1_555
In1 Ni0 2.811314 1_555
In1 Ni1 2.811314 1_555
In1 U0 3.272860 1_555
In1 U1 3.272860 1_555
In1 U0 3.272860 1_554
In1 U3 3.272860 1_555
In1 U3 3.272860 1_554
In1 U2 3.272860 1_555
In1 U2 3.272860 1_554
In1 U1 3.272860 1_554
Ni0 Ni1 2.678597 1_545
Ni0 U0 2.795787 1_555
Ni0 U0 2.795787 1_554
Ni0 U2 2.833149 1_554
Ni0 U2 2.833149 1_555
Ni0 U3 2.833149 1_544
Ni0 U3 2.833149 1_545
Ni1 U1 2.795787 1_555
Ni1 U1 2.795787 1_554
Ni1 U3 2.833149 1_555
Ni1 U2 2.833149 1_564
Ni1 U2 2.833149 1_565
Ni1 U3 2.833149 1_554
Ni2 Ni3 2.678597 1_455
Ni2 U3 2.795787 1_554
Ni2 U3 2.795787 1_555
Ni2 U1 2.833149 1_454
Ni2 U1 2.833149 1_455
Ni2 U0 2.833149 1_554
Ni2 U0 2.833149 1_555
Ni3 U2 2.795787 1_555
Ni3 U2 2.795787 1_554
Ni3 U1 2.833149 1_555
Ni3 U1 2.833149 1_554
Ni3 U0 2.833149 1_655
Ni3 U0 2.833149 1_654
