# generated using pymatgen
data_CaGaBiB2O7
_symmetry_space_group_name_H-M   'P 1'
_cell_length_a   7.72148800
_cell_length_b   7.72148800
_cell_length_c   10.84854700
_cell_angle_alpha   90.00000000
_cell_angle_beta   90.00000000
_cell_angle_gamma   90.00000000
_symmetry_Int_Tables_number   1
_chemical_formula_structural   CaGaBiB2O7
_chemical_formula_sum   'Ca4 Ga4 Bi4 B8 O28'
_cell_volume   646.80530987
_cell_formula_units_Z   4
loop_
 _symmetry_equiv_pos_site_id
 _symmetry_equiv_pos_as_xyz
  1  'x, y, z'
loop_
 _atom_site_type_symbol
 _atom_site_label
 _atom_site_symmetry_multiplicity
 _atom_site_fract_x
 _atom_site_fract_y
 _atom_site_fract_z
 _atom_site_occupancy
  Ca  Ca0  1  0.67482700  0.17482700  0.78942400  1
  Ca  Ca1  1  0.32517300  0.82517300  0.78942400  1
  Ca  Ca2  1  0.17482700  0.32517300  0.21057600  1
  Ca  Ca3  1  0.82517300  0.67482700  0.21057600  1
  Ga  Ga0  1  0.50000000  0.50000000  0.00000000  1
  Ga  Ga1  1  0.00000000  0.00000000  0.00000000  1
  Ga  Ga2  1  0.50000000  0.50000000  0.50000000  1
  Ga  Ga3  1  0.00000000  0.00000000  0.50000000  1
  Bi  Bi0  1  0.64751700  0.14751700  0.20733400  1
  Bi  Bi1  1  0.35248300  0.85248300  0.20733400  1
  Bi  Bi2  1  0.14751700  0.35248300  0.79266600  1
  Bi  Bi3  1  0.85248300  0.64751700  0.79266600  1
  B  B0  1  0.63192200  0.86807800  0.96781200  1
  B  B1  1  0.36807800  0.13192200  0.96781200  1
  B  B2  1  0.13192200  0.63192200  0.03218800  1
  B  B3  1  0.86807800  0.36807800  0.03218800  1
  B  B4  1  0.29079500  0.20920500  0.62441800  1
  B  B5  1  0.70920500  0.79079500  0.62441800  1
  B  B6  1  0.79079500  0.29079500  0.37558200  1
  B  B7  1  0.20920500  0.70920500  0.37558200  1
  O  O0  1  0.15282900  0.65282900  0.90190200  1
  O  O1  1  0.84717100  0.34717100  0.90190200  1
  O  O2  1  0.80104700  0.93421600  0.90681500  1
  O  O3  1  0.19895300  0.06578400  0.90681500  1
  O  O4  1  0.43421600  0.30104700  0.90681500  1
  O  O5  1  0.56578400  0.69895300  0.90681500  1
  O  O6  1  0.50000000  0.00000000  0.92093700  1
  O  O7  1  0.00000000  0.50000000  0.07906300  1
  O  O8  1  0.93421600  0.19895300  0.09318500  1
  O  O9  1  0.69895300  0.43421600  0.09318500  1
  O  O10  1  0.30104700  0.56578400  0.09318500  1
  O  O11  1  0.06578400  0.80104700  0.09318500  1
  O  O12  1  0.65282900  0.84717100  0.09809800  1
  O  O13  1  0.34717100  0.15282900  0.09809800  1
  O  O14  1  0.87762900  0.37762900  0.44669200  1
  O  O15  1  0.12237100  0.62237100  0.44669200  1
  O  O16  1  0.90765100  0.95388200  0.34212500  1
  O  O17  1  0.09234900  0.04611800  0.34212500  1
  O  O18  1  0.45388200  0.40765100  0.34212500  1
  O  O19  1  0.54611800  0.59234900  0.34212500  1
  O  O20  1  0.50000000  0.00000000  0.33566000  1
  O  O21  1  0.00000000  0.50000000  0.66434000  1
  O  O22  1  0.95388200  0.09234900  0.65787500  1
  O  O23  1  0.59234900  0.45388200  0.65787500  1
  O  O24  1  0.40765100  0.54611800  0.65787500  1
  O  O25  1  0.04611800  0.90765100  0.65787500  1
  O  O26  1  0.37762900  0.12237100  0.55330800  1
  O  O27  1  0.62237100  0.87762900  0.55330800  1
loop_
_geom_bond_atom_site_label_1
_geom_bond_atom_site_label_2
_geom_bond_distance
_geom_bond_site_symmetry_2
Ca0 O1 2.242933 1_555
Ca0 O6 2.383304 1_555
Ca0 O2 2.454265 1_545
Ca0 O4 2.454265 1_555
Ca0 O22 2.661777 1_555
Ca0 O23 2.661777 1_555
Ca1 O0 2.242933 1_555
Ca1 O6 2.383304 1_565
Ca1 O5 2.454265 1_555
Ca1 O3 2.454265 1_565
Ca1 O24 2.661777 1_555
Ca1 O25 2.661777 1_555
Ca2 O13 2.242933 1_555
Ca2 O7 2.383304 1_555
Ca2 O8 2.454265 1_455
Ca2 O10 2.454265 1_555
Ca2 O17 2.661777 1_555
Ca2 O18 2.661777 1_555
Ca3 O12 2.242933 1_555
Ca3 O7 2.383304 1_655
Ca3 O9 2.454265 1_555
Ca3 O11 2.454265 1_655
Ca3 O19 2.661777 1_555
Ca3 O16 2.661777 1_555
Ga0 O9 1.907859 1_555
Ga0 O10 1.907859 1_555
Ga0 O5 1.907859 1_554
Ga0 O4 1.907859 1_554
Ga1 O11 1.907859 1_545
Ga1 O8 1.907859 1_455
Ga1 O3 1.907859 1_554
Ga1 O2 1.907859 1_444
Ga2 O24 1.889092 1_555
Ga2 O23 1.889092 1_555
Ga2 O19 1.889092 1_555
Ga2 O18 1.889092 1_555
Ga3 O25 1.889092 1_545
Ga3 O22 1.889092 1_455
Ga3 O17 1.889092 1_555
Ga3 O16 1.889092 1_445
Bi0 O20 2.129074 1_555
Bi0 O8 2.567471 1_555
Bi0 O9 2.567471 1_555
Bi0 O12 2.604676 1_545
Bi0 O13 2.604676 1_555
Bi1 O20 2.129074 1_565
Bi1 O11 2.567471 1_555
Bi1 O10 2.567471 1_555
Bi1 O12 2.604676 1_555
Bi1 O13 2.604676 1_565
Bi2 O21 2.129074 1_555
Bi2 O3 2.567471 1_555
Bi2 O4 2.567471 1_555
Bi2 O1 2.604676 1_455
Bi2 O0 2.604676 1_555
Bi3 O21 2.129074 1_655
Bi3 O2 2.567471 1_555
Bi3 O5 2.567471 1_555
Bi3 O1 2.604676 1_555
Bi3 O0 2.604676 1_655
B0 O12 1.431733 1_556
B0 O6 1.527688 1_565
B0 O5 1.550500 1_555
B0 O2 1.550500 1_555
B1 O13 1.431733 1_556
B1 O6 1.527688 1_555
B1 O3 1.550500 1_555
B1 O4 1.550500 1_555
B2 O0 1.431733 1_554
B2 O7 1.527688 1_555
B2 O11 1.550500 1_555
B2 O10 1.550500 1_555
B3 O1 1.431733 1_554
B3 O7 1.527688 1_655
B3 O8 1.550500 1_555
B3 O9 1.550500 1_555
B4 O26 1.222386 1_555
B5 O27 1.222386 1_555
B6 O14 1.222386 1_555
B7 O15 1.222386 1_555
O16 O17 1.594087 1_665
O18 O19 1.594087 1_555
O22 O25 1.594087 1_645
O23 O24 1.594087 1_555
