# generated using pymatgen
data_Rb5Re3S7
_symmetry_space_group_name_H-M   'P 1'
_cell_length_a   10.63950312
_cell_length_b   10.64071751
_cell_length_c   10.61161084
_cell_angle_alpha   60.75195485
_cell_angle_beta   60.99574352
_cell_angle_gamma   60.98599183
_symmetry_Int_Tables_number   1
_chemical_formula_structural   Rb5Re3S7
_chemical_formula_sum   'Rb10 Re6 S14'
_cell_volume   866.92735540
_cell_formula_units_Z   2
loop_
 _symmetry_equiv_pos_site_id
 _symmetry_equiv_pos_as_xyz
  1  'x, y, z'
loop_
 _atom_site_type_symbol
 _atom_site_label
 _atom_site_symmetry_multiplicity
 _atom_site_fract_x
 _atom_site_fract_y
 _atom_site_fract_z
 _atom_site_occupancy
  Rb  Rb0  1  0.01263001  0.99023819  0.99366143  1
  Rb  Rb1  1  0.42303806  0.57155609  0.00334104  1
  Rb  Rb2  1  0.40367713  -0.00172386  0.00560730  1
  Rb  Rb3  1  0.57934293  0.12728367  0.12666028  1
  Rb  Rb4  1  0.01105278  0.56877353  0.01625475  1
  Rb  Rb5  1  0.42502555  0.00496449  0.57165894  1
  Rb  Rb6  1  0.02456371  0.45707814  0.49261614  1
  Rb  Rb7  1  0.00232431  0.01445384  0.56829759  1
  Rb  Rb8  1  0.86029634  0.86261844  0.43234410  1
  Rb  Rb9  1  0.85837567  0.42361489  0.89103411  1
  Re  Re0  1  0.61818941  0.37443325  0.38111229  1
  Re  Re1  1  0.62177259  0.62268748  0.37928543  1
  Re  Re2  1  0.62227368  0.38011587  0.62536344  1
  Re  Re3  1  0.37425876  0.61955138  0.37903026  1
  Re  Re4  1  0.37431055  0.37653903  0.62550334  1
  Re  Re5  1  0.37744671  0.62381398  0.62401468  1
  S  S0  1  0.76889271  0.20770691  0.22827873  1
  S  S1  1  0.78583389  0.77866642  0.22687936  1
  S  S2  1  0.61037718  0.61071279  0.16177331  1
  S  S3  1  0.83524296  0.38628303  0.38743008  1
  S  S4  1  0.60986099  0.15986579  0.62047356  1
  S  S5  1  0.79016486  0.23369434  0.77856017  1
  S  S6  1  0.38512895  0.38160893  0.38766140  1
  S  S7  1  0.61400730  0.61785953  0.61527159  1
  S  S8  1  0.20819853  0.76930961  0.22575166  1
  S  S9  1  0.38689117  0.83895309  0.38578708  1
  S  S10  1  0.15812981  0.61227434  0.61571603  1
  S  S11  1  0.38787834  0.38682291  0.84275569  1
  S  S12  1  0.20766580  0.22356318  0.77789537  1
  S  S13  1  0.21964834  0.78597970  0.78127886  1
loop_
_geom_bond_atom_site_label_1
_geom_bond_atom_site_label_2
_geom_bond_distance
_geom_bond_site_symmetry_2
Rb0 S13 3.159664 1_555
Rb0 S8 3.238597 1_556
Rb0 S12 3.247719 1_565
Rb0 S5 3.322116 1_465
Rb0 S1 3.324106 1_456
Rb0 S0 3.438847 1_466
Rb1 S8 3.190378 1_555
Rb1 S13 3.216061 1_554
Rb1 S11 3.393003 1_554
Rb1 S2 3.422378 1_555
Rb1 S6 3.467113 1_555
Rb1 S7 3.493384 1_554
Rb2 S12 3.211167 1_554
Rb2 S8 3.218820 1_545
Rb2 S9 3.477547 1_545
Rb2 S4 3.545330 1_554
Rb2 S2 3.556396 1_545
Rb2 S11 3.568453 1_554
Rb3 S1 3.197412 1_545
Rb3 S5 3.209340 1_554
Rb3 S0 3.262983 1_555
Rb3 S11 3.635495 1_554
Rb3 S9 3.681940 1_545
Rb4 S1 3.196608 1_455
Rb4 S13 3.234582 1_554
Rb4 S3 3.418819 1_455
Rb4 S11 3.465173 1_554
Rb4 S10 3.613689 1_554
Rb4 S2 3.633316 1_455
Rb5 S13 3.211382 1_545
Rb5 S12 3.224351 1_555
Rb5 S6 3.400219 1_555
Rb5 S4 3.437867 1_555
Rb5 S9 3.471518 1_545
Rb5 S7 3.497042 1_545
Rb6 S6 3.216249 1_555
Rb6 S3 3.216299 1_455
Rb6 S5 3.527126 1_455
Rb6 S10 3.554940 1_555
Rb6 S12 3.578633 1_555
Rb7 S5 3.257304 1_455
Rb7 S13 3.257345 1_545
Rb7 S3 3.400495 1_455
Rb7 S9 3.523793 1_545
Rb7 S4 3.530470 1_455
Rb7 S10 3.624660 1_545
Rb8 S0 3.150638 1_565
Rb8 S8 3.191508 1_655
Rb8 S1 3.231760 1_555
Rb8 S10 3.694557 1_655
Rb8 S4 3.731727 1_565
Rb9 S0 3.126530 1_556
Rb9 S12 3.206276 1_655
Rb9 S5 3.264172 1_555
Rb9 S2 3.510249 1_556
Rb9 S10 3.765688 1_655
Re0 S3 2.407139 1_555
Re0 S6 2.411166 1_555
Re0 S0 2.424668 1_555
Re0 S4 2.446091 1_555
Re0 S2 2.451943 1_555
Re1 S1 2.422166 1_555
Re1 S3 2.435050 1_555
Re1 S2 2.435625 1_555
Re1 S9 2.440264 1_555
Re1 S7 2.440946 1_555
Re2 S5 2.429469 1_555
Re2 S4 2.436884 1_555
Re2 S7 2.438745 1_555
Re2 S3 2.438813 1_555
Re2 S11 2.440355 1_555
Re3 S8 2.414424 1_555
Re3 S6 2.435527 1_555
Re3 S9 2.439430 1_555
Re3 S10 2.446192 1_555
Re3 S2 2.449730 1_555
Re4 S12 2.419761 1_555
Re4 S11 2.435619 1_555
Re4 S10 2.444080 1_555
Re4 S6 2.444875 1_555
Re4 S4 2.446372 1_555
Re5 S13 2.422374 1_555
Re5 S10 2.440383 1_555
Re5 S9 2.441942 1_555
Re5 S7 2.443757 1_555
Re5 S11 2.453144 1_555
