# generated using pymatgen
data_Tm10In20Co9
_symmetry_space_group_name_H-M   'P 1'
_cell_length_a   13.08826400
_cell_length_b   13.08826400
_cell_length_c   9.10127000
_cell_angle_alpha   90.00000000
_cell_angle_beta   90.00000000
_cell_angle_gamma   90.00000000
_symmetry_Int_Tables_number   1
_chemical_formula_structural   Tm10In20Co9
_chemical_formula_sum   'Tm20 In40 Co18'
_cell_volume   1559.07171063
_cell_formula_units_Z   2
loop_
 _symmetry_equiv_pos_site_id
 _symmetry_equiv_pos_as_xyz
  1  'x, y, z'
loop_
 _atom_site_type_symbol
 _atom_site_label
 _atom_site_symmetry_multiplicity
 _atom_site_fract_x
 _atom_site_fract_y
 _atom_site_fract_z
 _atom_site_occupancy
  Tm  Tm0  1  0.70392800  0.20392800  0.72977700  1
  Tm  Tm1  1  0.20392800  0.29607200  0.27022300  1
  Tm  Tm2  1  0.50000000  0.72485100  0.23131000  1
  Tm  Tm3  1  0.00000000  0.50000000  0.36283200  1
  Tm  Tm4  1  0.00000000  0.50000000  0.83923200  1
  Tm  Tm5  1  0.70392800  0.79607200  0.72977700  1
  Tm  Tm6  1  0.50000000  0.00000000  0.63716800  1
  Tm  Tm7  1  0.50000000  0.00000000  0.16076800  1
  Tm  Tm8  1  0.77514900  0.00000000  0.23131000  1
  Tm  Tm9  1  0.27514900  0.50000000  0.76869000  1
  Tm  Tm10  1  0.72485100  0.50000000  0.76869000  1
  Tm  Tm11  1  0.29607200  0.79607200  0.72977700  1
  Tm  Tm12  1  0.79607200  0.29607200  0.27022300  1
  Tm  Tm13  1  0.29607200  0.20392800  0.72977700  1
  Tm  Tm14  1  0.00000000  0.22485100  0.76869000  1
  Tm  Tm15  1  0.50000000  0.27514900  0.23131000  1
  Tm  Tm16  1  0.00000000  0.77514900  0.76869000  1
  Tm  Tm17  1  0.79607200  0.70392800  0.27022300  1
  Tm  Tm18  1  0.20392800  0.70392800  0.27022300  1
  Tm  Tm19  1  0.22485100  0.00000000  0.23131000  1
  In  In0  1  0.62888100  0.62888100  0.50000000  1
  In  In1  1  0.13081800  0.36918200  0.58984700  1
  In  In2  1  0.61421800  0.50000000  0.23591500  1
  In  In3  1  0.84785800  0.84785800  0.00000000  1
  In  In4  1  0.84785800  0.15214200  0.00000000  1
  In  In5  1  0.37111900  0.37111900  0.50000000  1
  In  In6  1  0.34785800  0.34785800  0.00000000  1
  In  In7  1  0.87111900  0.12888100  0.50000000  1
  In  In8  1  0.88578200  0.00000000  0.76408500  1
  In  In9  1  0.50000000  0.16830000  0.90428800  1
  In  In10  1  0.00000000  0.33170000  0.09571200  1
  In  In11  1  0.63081800  0.13081800  0.41015300  1
  In  In12  1  0.00000000  0.66830000  0.09571200  1
  In  In13  1  0.13081800  0.63081800  0.58984700  1
  In  In14  1  0.65214200  0.65214200  0.00000000  1
  In  In15  1  0.36918200  0.86918200  0.41015300  1
  In  In16  1  0.00000000  0.88578200  0.23591500  1
  In  In17  1  0.86918200  0.36918200  0.58984700  1
  In  In18  1  0.33170000  0.00000000  0.90428800  1
  In  In19  1  0.16830000  0.50000000  0.09571200  1
  In  In20  1  0.12888100  0.87111900  0.50000000  1
  In  In21  1  0.34785800  0.65214200  0.00000000  1
  In  In22  1  0.15214200  0.84785800  0.00000000  1
  In  In23  1  0.86918200  0.63081800  0.58984700  1
  In  In24  1  0.00000000  0.11421800  0.23591500  1
  In  In25  1  0.63081800  0.86918200  0.41015300  1
  In  In26  1  0.50000000  0.38578200  0.76408500  1
  In  In27  1  0.83170000  0.50000000  0.09571200  1
  In  In28  1  0.87111900  0.87111900  0.50000000  1
  In  In29  1  0.66830000  0.00000000  0.90428800  1
  In  In30  1  0.12888100  0.12888100  0.50000000  1
  In  In31  1  0.36918200  0.13081800  0.41015300  1
  In  In32  1  0.11421800  0.00000000  0.76408500  1
  In  In33  1  0.62888100  0.37111900  0.50000000  1
  In  In34  1  0.15214200  0.15214200  0.00000000  1
  In  In35  1  0.50000000  0.61421800  0.76408500  1
  In  In36  1  0.65214200  0.34785800  0.00000000  1
  In  In37  1  0.38578200  0.50000000  0.23591500  1
  In  In38  1  0.37111900  0.62888100  0.50000000  1
  In  In39  1  0.50000000  0.83170000  0.90428800  1
  Co  Co0  1  0.15789400  0.34210600  0.89646400  1
  Co  Co1  1  0.77525700  0.50000000  0.40616600  1
  Co  Co2  1  0.50000000  0.77525700  0.59383400  1
  Co  Co3  1  0.00000000  0.72474300  0.40616600  1
  Co  Co4  1  0.72474300  0.00000000  0.59383400  1
  Co  Co5  1  0.34210600  0.15789400  0.10353600  1
  Co  Co6  1  0.34210600  0.84210600  0.10353600  1
  Co  Co7  1  0.00000000  0.27525700  0.40616600  1
  Co  Co8  1  0.84210600  0.65789400  0.89646400  1
  Co  Co9  1  0.65789400  0.84210600  0.10353600  1
  Co  Co10  1  0.50000000  0.50000000  0.00000000  1
  Co  Co11  1  0.22474300  0.50000000  0.40616600  1
  Co  Co12  1  0.65789400  0.15789400  0.10353600  1
  Co  Co13  1  0.84210600  0.34210600  0.89646400  1
  Co  Co14  1  0.27525700  0.00000000  0.59383400  1
  Co  Co15  1  0.00000000  0.00000000  0.00000000  1
  Co  Co16  1  0.15789400  0.65789400  0.89646400  1
  Co  Co17  1  0.50000000  0.22474300  0.59383400  1
loop_
_geom_bond_atom_site_label_1
_geom_bond_atom_site_label_2
_geom_bond_distance
_geom_bond_site_symmetry_2
In0 In35 2.942631 1_555
In0 In2 2.942631 1_555
In0 Tm17 3.182225 1_555
In0 Tm5 3.182225 1_555
In0 Tm2 3.225401 1_555
In0 Tm10 3.225401 1_555
In0 In25 3.249786 1_555
In0 In23 3.249786 1_555
In0 In33 3.373657 1_555
In0 In38 3.373657 1_555
In1 Tm14 3.024805 1_555
In1 Tm9 3.024805 1_555
In1 Tm3 3.183080 1_555
In1 Tm1 3.208339 1_555
In1 In5 3.249786 1_555
In1 In30 3.249786 1_555
In1 Tm13 3.313318 1_555
In1 Tm4 3.318848 1_555
In1 In13 3.424361 1_555
In1 In17 3.424361 1_455
In2 In33 2.942631 1_555
In2 In36 2.970134 1_555
In2 In37 2.989831 1_555
In2 In27 3.119389 1_555
In2 Tm2 3.301097 1_555
In2 Tm15 3.301097 1_555
In3 In8 2.970134 1_564
In3 Tm16 3.050035 1_654
In3 Tm8 3.050035 1_565
In3 Tm5 3.171213 1_554
In3 Tm17 3.171213 1_555
In4 In8 2.970134 1_554
In4 Tm14 3.050035 1_654
In4 Tm8 3.050035 1_555
In4 Tm0 3.171213 1_554
In4 Tm12 3.171213 1_555
In5 Tm1 3.182225 1_555
In5 Tm13 3.182225 1_555
In5 Tm15 3.225401 1_555
In5 Tm9 3.225401 1_555
In6 Tm9 3.050035 1_554
In6 Tm15 3.050035 1_555
In6 Tm1 3.171213 1_555
In6 Tm13 3.171213 1_554
In6 In9 3.201089 1_554
In7 In8 2.942631 1_555
In7 Tm0 3.182225 1_555
In7 Tm12 3.182225 1_555
In7 Tm8 3.225401 1_555
In7 Tm14 3.225401 1_655
In8 Tm16 3.301097 1_645
In8 Tm14 3.301097 1_655
In9 Tm13 3.140693 1_555
In9 Tm0 3.140693 1_555
In9 Tm7 3.209526 1_556
In9 Tm6 3.280629 1_555
In9 Tm15 3.288490 1_556
In10 In27 3.115166 1_455
In10 In19 3.115166 1_555
In10 In24 3.119389 1_555
In10 Tm1 3.140693 1_555
In10 Tm12 3.140693 1_455
In10 In34 3.201089 1_555
In10 In4 3.201089 1_455
In10 Tm4 3.209526 1_554
In10 Tm3 3.280629 1_555
In10 Tm14 3.288490 1_554
In11 Tm8 3.024805 1_555
In11 Tm15 3.024805 1_555
In11 Tm6 3.183080 1_555
In11 Tm0 3.208339 1_555
In11 In33 3.249786 1_555
In11 In7 3.249786 1_555
In11 Tm12 3.313318 1_555
In11 Tm7 3.318848 1_555
In11 In31 3.424361 1_555
In11 In25 3.424361 1_545
In12 In27 3.115166 1_455
In12 In19 3.115166 1_555
In12 In16 3.119389 1_555
In12 Tm18 3.140693 1_555
In12 Tm17 3.140693 1_455
In12 In3 3.201089 1_455
In12 In22 3.201089 1_555
In12 Tm4 3.209526 1_554
In12 Tm3 3.280629 1_555
In12 Tm16 3.288490 1_554
In13 Tm16 3.024805 1_555
In13 Tm9 3.024805 1_555
In13 Tm3 3.183080 1_555
In13 Tm18 3.208339 1_555
In13 In38 3.249786 1_555
In13 In20 3.249786 1_555
In13 Tm11 3.313318 1_555
In13 Tm4 3.318848 1_555
In13 In23 3.424361 1_455
In14 In2 2.970134 1_555
In14 In35 2.970134 1_554
In14 Tm10 3.050035 1_554
In14 Tm2 3.050035 1_555
In14 Tm5 3.171213 1_554
In14 Tm17 3.171213 1_555
In14 In27 3.201089 1_555
In14 In39 3.201089 1_554
In15 Tm19 3.024805 1_565
In15 Tm2 3.024805 1_555
In15 Tm6 3.183080 1_565
In15 Tm11 3.208339 1_555
In15 In38 3.249786 1_555
In15 In20 3.249786 1_555
In15 Tm18 3.313318 1_555
In15 Tm7 3.318848 1_565
In15 In25 3.424361 1_555
In15 In31 3.424361 1_565
In16 In28 2.942631 1_455
In16 In20 2.942631 1_555
In16 In3 2.970134 1_455
In16 In22 2.970134 1_555
In16 In24 2.989831 1_565
In16 Tm8 3.301097 1_465
In16 Tm19 3.301097 1_565
In17 Tm14 3.024805 1_655
In17 Tm10 3.024805 1_555
In17 Tm3 3.183080 1_655
In17 Tm12 3.208339 1_555
In17 In33 3.249786 1_555
In17 In7 3.249786 1_555
In17 Tm0 3.313318 1_555
In17 Tm4 3.318848 1_655
In17 In23 3.424361 1_555
In18 In39 3.115166 1_545
In18 In9 3.115166 1_555
In18 In32 3.119389 1_555
In18 Tm13 3.140693 1_555
In18 Tm11 3.140693 1_545
In18 In34 3.201089 1_556
In18 In22 3.201089 1_546
In18 Tm7 3.209526 1_556
In18 Tm6 3.280629 1_555
In18 Tm19 3.288490 1_556
In19 In37 3.119389 1_555
In19 Tm18 3.140693 1_555
In19 Tm1 3.140693 1_555
In19 In21 3.201089 1_555
In19 In6 3.201089 1_555
In19 Tm4 3.209526 1_554
In19 Tm3 3.280629 1_555
In19 Tm9 3.288490 1_554
In20 In32 2.942631 1_565
In20 Tm18 3.182225 1_555
In20 Tm11 3.182225 1_555
In20 Tm19 3.225401 1_565
In20 Tm16 3.225401 1_555
In20 In28 3.373657 1_455
In20 In30 3.373657 1_565
In21 In37 2.970134 1_555
In21 In35 2.970134 1_554
In21 Tm2 3.050035 1_555
In21 Tm9 3.050035 1_554
In21 Tm18 3.171213 1_555
In21 Tm11 3.171213 1_554
In21 In39 3.201089 1_554
In22 In32 2.970134 1_564
In22 Tm16 3.050035 1_554
In22 Tm19 3.050035 1_565
In22 Tm18 3.171213 1_555
In22 Tm11 3.171213 1_554
In23 Tm16 3.024805 1_655
In23 Tm10 3.024805 1_555
In23 Tm3 3.183080 1_655
In23 Tm17 3.208339 1_555
In23 In28 3.249786 1_555
In23 Tm5 3.313318 1_555
In23 Tm4 3.318848 1_655
In24 In7 2.942631 1_455
In24 In30 2.942631 1_555
In24 In34 2.970134 1_555
In24 In4 2.970134 1_455
In24 Tm19 3.301097 1_555
In24 Tm8 3.301097 1_455
In25 Tm8 3.024805 1_565
In25 Tm2 3.024805 1_555
In25 Tm6 3.183080 1_565
In25 Tm5 3.208339 1_555
In25 In28 3.249786 1_555
In25 Tm17 3.313318 1_555
In25 Tm7 3.318848 1_565
In26 In33 2.942631 1_555
In26 In5 2.942631 1_555
In26 In6 2.970134 1_556
In26 In36 2.970134 1_556
In26 In35 2.989831 1_555
In26 In9 3.119389 1_555
In26 Tm10 3.301097 1_555
In26 Tm9 3.301097 1_555
In27 Tm17 3.140693 1_555
In27 Tm12 3.140693 1_555
In27 In36 3.201089 1_555
In27 Tm4 3.209526 1_654
In27 Tm3 3.280629 1_655
In27 Tm10 3.288490 1_554
In28 In8 2.942631 1_565
In28 Tm17 3.182225 1_555
In28 Tm5 3.182225 1_555
In28 Tm8 3.225401 1_565
In28 Tm16 3.225401 1_655
In28 In7 3.373657 1_565
In29 In39 3.115166 1_545
In29 In9 3.115166 1_555
In29 In8 3.119389 1_555
In29 Tm0 3.140693 1_555
In29 Tm5 3.140693 1_545
In29 In3 3.201089 1_546
In29 In4 3.201089 1_556
In29 Tm7 3.209526 1_556
In29 Tm6 3.280629 1_555
In29 Tm8 3.288490 1_556
In30 In32 2.942631 1_555
In30 Tm1 3.182225 1_555
In30 Tm13 3.182225 1_555
In30 Tm19 3.225401 1_555
In30 Tm14 3.225401 1_555
In30 In31 3.249786 1_555
In30 In7 3.373657 1_455
In31 Tm15 3.024805 1_555
In31 Tm19 3.024805 1_555
In31 Tm6 3.183080 1_555
In31 Tm13 3.208339 1_555
In31 In5 3.249786 1_555
In31 Tm1 3.313318 1_555
In31 Tm7 3.318848 1_555
In32 In34 2.970134 1_556
In32 In8 2.989831 1_455
In32 Tm14 3.301097 1_555
In32 Tm16 3.301097 1_545
In33 Tm0 3.182225 1_555
In33 Tm12 3.182225 1_555
In33 Tm10 3.225401 1_555
In33 Tm15 3.225401 1_555
In33 In5 3.373657 1_555
In34 Tm14 3.050035 1_554
In34 Tm19 3.050035 1_555
In34 Tm1 3.171213 1_555
In34 Tm13 3.171213 1_554
In35 In38 2.942631 1_555
In35 In39 3.119389 1_555
In35 Tm10 3.301097 1_555
In35 Tm9 3.301097 1_555
In36 Tm10 3.050035 1_554
In36 Tm15 3.050035 1_555
In36 Tm0 3.171213 1_554
In36 Tm12 3.171213 1_555
In36 In9 3.201089 1_554
In37 In38 2.942631 1_555
In37 In5 2.942631 1_555
In37 In6 2.970134 1_555
In37 Tm2 3.301097 1_555
In37 Tm15 3.301097 1_555
In38 Tm11 3.182225 1_555
In38 Tm18 3.182225 1_555
In38 Tm2 3.225401 1_555
In38 Tm9 3.225401 1_555
In38 In5 3.373657 1_555
In39 Tm5 3.140693 1_555
In39 Tm11 3.140693 1_555
In39 Tm7 3.209526 1_566
In39 Tm6 3.280629 1_565
In39 Tm2 3.288490 1_556
Co0 In34 2.659943 1_556
Co0 In6 2.659943 1_556
Co0 In10 2.752756 1_556
Co0 In19 2.752756 1_556
Co0 Tm14 2.824572 1_555
Co0 Tm9 2.824572 1_555
Co0 In1 2.835249 1_555
Co0 Tm4 2.968610 1_555
Co0 Tm13 2.973701 1_555
Co1 In2 2.615997 1_555
Co1 In17 2.690253 1_555
Co1 In23 2.690253 1_555
Co1 In33 2.691661 1_555
Co1 In0 2.691661 1_555
Co1 In27 2.920502 1_555
Co1 Tm17 2.954474 1_555
Co1 Tm12 2.954474 1_555
Co1 Tm3 2.967818 1_655
Co1 Tm10 3.364739 1_555
Co2 In35 2.615997 1_555
Co2 In15 2.690253 1_555
Co2 In25 2.690253 1_555
Co2 In38 2.691661 1_555
Co2 In0 2.691661 1_555
Co2 In39 2.920502 1_555
Co2 Tm11 2.954474 1_555
Co2 Tm5 2.954474 1_555
Co2 Tm6 2.967818 1_565
Co2 Tm2 3.364739 1_555
Co3 In16 2.615997 1_555
Co3 In23 2.690253 1_455
Co3 In13 2.690253 1_555
Co3 In20 2.691661 1_555
Co3 In28 2.691661 1_455
Co3 In12 2.920502 1_555
Co3 Tm18 2.954474 1_555
Co3 Tm17 2.954474 1_455
Co3 Tm3 2.967818 1_555
Co3 Tm16 3.364739 1_555
Co4 In8 2.615997 1_555
Co4 In11 2.690253 1_555
Co4 In25 2.690253 1_545
Co4 In28 2.691661 1_545
Co4 In7 2.691661 1_555
Co4 In29 2.920502 1_555
Co4 Tm5 2.954474 1_545
Co4 Tm0 2.954474 1_555
Co4 Tm6 2.967818 1_555
Co4 Tm8 3.364739 1_555
Co5 In34 2.659943 1_555
Co5 In6 2.659943 1_555
Co5 In18 2.752756 1_554
Co5 In9 2.752756 1_554
Co5 Tm19 2.824572 1_555
Co5 Tm15 2.824572 1_555
Co5 In31 2.835249 1_555
Co5 Tm7 2.968610 1_555
Co5 Tm1 2.973701 1_555
Co6 In21 2.659943 1_555
Co6 In22 2.659943 1_555
Co6 In18 2.752756 1_564
Co6 In39 2.752756 1_554
Co6 Tm19 2.824572 1_565
Co6 Tm2 2.824572 1_555
Co6 In15 2.835249 1_555
Co6 Tm7 2.968610 1_565
Co6 Tm18 2.973701 1_555
Co7 In24 2.615997 1_555
Co7 In1 2.690253 1_555
Co7 In17 2.690253 1_455
Co7 In30 2.691661 1_555
Co7 In7 2.691661 1_455
Co7 In10 2.920502 1_555
Co7 Tm1 2.954474 1_555
Co7 Tm12 2.954474 1_455
Co7 Tm3 2.967818 1_555
Co7 Tm14 3.364739 1_555
Co8 In14 2.659943 1_556
Co8 In3 2.659943 1_556
Co8 In27 2.752756 1_556
Co8 In12 2.752756 1_656
Co8 Tm10 2.824572 1_555
Co8 Tm16 2.824572 1_655
Co8 In23 2.835249 1_555
Co8 Tm4 2.968610 1_655
Co8 Tm5 2.973701 1_555
Co9 In14 2.659943 1_555
Co9 In3 2.659943 1_555
Co9 In39 2.752756 1_554
Co9 In29 2.752756 1_564
Co9 Tm2 2.824572 1_555
Co9 Tm8 2.824572 1_565
Co9 In25 2.835249 1_555
Co9 Tm7 2.968610 1_565
Co9 Tm17 2.973701 1_555
Co10 In2 2.616280 1_555
Co10 In35 2.616280 1_554
Co10 In37 2.616280 1_555
Co10 In26 2.616280 1_554
Co10 In6 2.816088 1_555
Co10 In36 2.816088 1_555
Co10 In14 2.816088 1_555
Co10 In21 2.816088 1_555
Co11 In37 2.615997 1_555
Co11 In1 2.690253 1_555
Co11 In13 2.690253 1_555
Co11 In5 2.691661 1_555
Co11 In38 2.691661 1_555
Co11 In19 2.920502 1_555
Co11 Tm1 2.954474 1_555
Co11 Tm18 2.954474 1_555
Co11 Tm3 2.967818 1_555
Co11 Tm9 3.364739 1_555
Co12 In36 2.659943 1_555
Co12 In4 2.659943 1_555
Co12 In9 2.752756 1_554
Co12 In29 2.752756 1_554
Co12 Tm15 2.824572 1_555
Co12 Tm8 2.824572 1_555
Co12 In11 2.835249 1_555
Co12 Tm7 2.968610 1_555
Co12 Tm12 2.973701 1_555
Co13 In4 2.659943 1_556
Co13 In36 2.659943 1_556
Co13 In27 2.752756 1_556
Co13 In10 2.752756 1_656
Co13 Tm14 2.824572 1_655
Co13 Tm10 2.824572 1_555
Co13 In17 2.835249 1_555
Co13 Tm4 2.968610 1_655
Co13 Tm0 2.973701 1_555
Co14 In32 2.615997 1_555
Co14 In31 2.690253 1_555
Co14 In15 2.690253 1_545
Co14 In30 2.691661 1_555
Co14 In20 2.691661 1_545
Co14 In18 2.920502 1_555
Co14 Tm11 2.954474 1_545
Co14 Tm13 2.954474 1_555
Co14 Tm6 2.967818 1_555
Co14 Tm19 3.364739 1_555
Co15 In24 2.616280 1_555
Co15 In16 2.616280 1_545
Co15 In8 2.616280 1_454
Co15 In32 2.616280 1_554
Co15 In22 2.816088 1_545
Co15 In4 2.816088 1_455
Co15 In34 2.816088 1_555
Co15 In3 2.816088 1_445
Co16 In21 2.659943 1_556
Co16 In22 2.659943 1_556
Co16 In19 2.752756 1_556
Co16 In12 2.752756 1_556
Co16 Tm9 2.824572 1_555
Co16 Tm16 2.824572 1_555
Co16 In13 2.835249 1_555
Co16 Tm4 2.968610 1_555
Co16 Tm11 2.973701 1_555
Co17 In26 2.615997 1_555
Co17 In11 2.690253 1_555
Co17 In31 2.690253 1_555
Co17 In5 2.691661 1_555
Co17 In33 2.691661 1_555
Co17 In9 2.920502 1_555
Co17 Tm0 2.954474 1_555
Co17 Tm13 2.954474 1_555
Co17 Tm6 2.967818 1_555
Co17 Tm15 3.364739 1_555
