# generated using pymatgen
data_TeAs(SeF3)2
_symmetry_space_group_name_H-M   'P 1'
_cell_length_a   8.80369500
_cell_length_b   15.33174800
_cell_length_c   24.19908500
_cell_angle_alpha   90.00000000
_cell_angle_beta   90.00000000
_cell_angle_gamma   90.00000000
_symmetry_Int_Tables_number   1
_chemical_formula_structural   TeAs(SeF3)2
_chemical_formula_sum   'Te16 As16 Se32 F96'
_cell_volume   3266.29650058
_cell_formula_units_Z   16
loop_
 _symmetry_equiv_pos_site_id
 _symmetry_equiv_pos_as_xyz
  1  'x, y, z'
loop_
 _atom_site_type_symbol
 _atom_site_label
 _atom_site_symmetry_multiplicity
 _atom_site_fract_x
 _atom_site_fract_y
 _atom_site_fract_z
 _atom_site_occupancy
  Te  Te0  1  0.07580900  0.74633300  0.75165400  1
  Te  Te1  1  0.17932000  0.59988200  0.68818700  1
  Te  Te2  1  0.81921900  0.52264400  0.06299800  1
  Te  Te3  1  0.18078100  0.02264400  0.93700200  1
  Te  Te4  1  0.94403500  0.38534900  0.99589600  1
  Te  Te5  1  0.92419100  0.24633300  0.24834600  1
  Te  Te6  1  0.32068000  0.59988200  0.18818700  1
  Te  Te7  1  0.31921900  0.02264400  0.43700200  1
  Te  Te8  1  0.82068000  0.09988200  0.31181300  1
  Te  Te9  1  0.42419100  0.74633300  0.25165400  1
  Te  Te10  1  0.44403500  0.88534900  0.50410400  1
  Te  Te11  1  0.68078100  0.52264400  0.56299800  1
  Te  Te12  1  0.05596500  0.88534900  0.00410400  1
  Te  Te13  1  0.55596500  0.38534900  0.49589600  1
  Te  Te14  1  0.57580900  0.24633300  0.74834600  1
  Te  Te15  1  0.67932000  0.09988200  0.81181300  1
  As  As0  1  0.74503900  0.50161700  0.73191100  1
  As  As1  1  0.23084700  0.33898200  0.62733700  1
  As  As2  1  0.75496100  0.50161700  0.23191100  1
  As  As3  1  0.26915300  0.33898200  0.12733700  1
  As  As4  1  0.20867900  0.29468500  0.38642400  1
  As  As5  1  0.25250900  0.62894100  0.52157100  1
  As  As6  1  0.24749100  0.62894100  0.02157100  1
  As  As7  1  0.70867900  0.79468500  0.11357600  1
  As  As8  1  0.79132100  0.79468500  0.61357600  1
  As  As9  1  0.25496100  0.00161700  0.26808900  1
  As  As10  1  0.29132100  0.29468500  0.88642400  1
  As  As11  1  0.24503900  0.00161700  0.76808900  1
  As  As12  1  0.74749100  0.12894100  0.47842900  1
  As  As13  1  0.75250900  0.12894100  0.97842900  1
  As  As14  1  0.73084700  0.83898200  0.87266300  1
  As  As15  1  0.76915300  0.83898200  0.37266300  1
  Se  Se0  1  0.64497700  0.10911300  0.17369200  1
  Se  Se1  1  0.81766100  0.38049100  0.54068000  1
  Se  Se2  1  0.62767600  0.50316900  0.92795100  1
  Se  Se3  1  0.27609500  0.11673300  0.01898800  1
  Se  Se4  1  0.35502300  0.60911300  0.82630800  1
  Se  Se5  1  0.65837600  0.23316700  0.28903700  1
  Se  Se6  1  0.74582500  0.00089200  0.72823600  1
  Se  Se7  1  0.13016000  0.68116700  0.84921000  1
  Se  Se8  1  0.72390500  0.61673300  0.98101200  1
  Se  Se9  1  0.34162400  0.73316700  0.71096300  1
  Se  Se10  1  0.13546600  0.94971000  0.09909100  1
  Se  Se11  1  0.12767600  0.00316900  0.57204900  1
  Se  Se12  1  0.36984000  0.68116700  0.34921000  1
  Se  Se13  1  0.87232400  0.50316900  0.42795100  1
  Se  Se14  1  0.24582500  0.50089200  0.77176400  1
  Se  Se15  1  0.18233900  0.88049100  0.45932000  1
  Se  Se16  1  0.68233900  0.38049100  0.04068000  1
  Se  Se17  1  0.63546600  0.44971000  0.40090900  1
  Se  Se18  1  0.86984000  0.18116700  0.15079000  1
  Se  Se19  1  0.77609500  0.61673300  0.48101200  1
  Se  Se20  1  0.14497700  0.60911300  0.32630800  1
  Se  Se21  1  0.15837600  0.73316700  0.21096300  1
  Se  Se22  1  0.36453400  0.94971000  0.59909100  1
  Se  Se23  1  0.37232400  0.00316900  0.07204900  1
  Se  Se24  1  0.85502300  0.10911300  0.67369200  1
  Se  Se25  1  0.31766100  0.88049100  0.95932000  1
  Se  Se26  1  0.63016000  0.18116700  0.65079000  1
  Se  Se27  1  0.25417500  0.50089200  0.27176400  1
  Se  Se28  1  0.86453400  0.44971000  0.90090900  1
  Se  Se29  1  0.75417500  0.00089200  0.22823600  1
  Se  Se30  1  0.22390500  0.11673300  0.51898800  1
  Se  Se31  1  0.84162400  0.23316700  0.78903700  1
  F  F0  1  0.90546500  0.75373800  0.37334800  1
  F  F1  1  0.88197400  0.80499900  0.54893600  1
  F  F2  1  0.16357600  0.37739600  0.56309000  1
  F  F3  1  0.87448800  0.47962400  0.28911500  1
  F  F4  1  0.30180900  0.28669300  0.32189800  1
  F  F5  1  0.77717800  0.22806800  0.44202100  1
  F  F6  1  0.14316700  0.23163800  0.91797700  1
  F  F7  1  0.13533500  0.27107600  0.09229600  1
  F  F8  1  0.58930800  0.17783100  0.51256800  1
  F  F9  1  0.86782200  0.92368800  0.87084700  1
  F  F10  1  0.10700000  0.19731200  0.37240500  1
  F  F11  1  0.06204900  0.35742700  0.35482400  1
  F  F12  1  0.89300000  0.69731200  0.62759500  1
  F  F13  1  0.31489600  0.39196100  0.40065600  1
  F  F14  1  0.66357600  0.87739600  0.93691000  1
  F  F15  1  0.72282200  0.22806800  0.94202100  1
  F  F16  1  0.18510400  0.39196100  0.90065600  1
  F  F17  1  0.08930800  0.67783100  0.98743200  1
  F  F18  1  0.85683300  0.73163800  0.08202300  1
  F  F19  1  0.33321700  0.08813200  0.73175100  1
  F  F20  1  0.39173400  0.07327800  0.29655000  1
  F  F21  1  0.33642400  0.37739600  0.06309000  1
  F  F22  1  0.36782200  0.42368800  0.62915300  1
  F  F23  1  0.63533500  0.77107600  0.40770400  1
  F  F24  1  0.21187900  0.53051300  0.98564400  1
  F  F25  1  0.36555900  0.02252400  0.82615500  1
  F  F26  1  0.10138700  0.40814300  0.66278600  1
  F  F27  1  0.22282200  0.72806800  0.55797900  1
  F  F28  1  0.93795100  0.85742700  0.64517600  1
  F  F29  1  0.83642400  0.87739600  0.43691000  1
  F  F30  1  0.80097100  0.79924400  0.80775100  1
  F  F31  1  0.60826600  0.57327800  0.70345000  1
  F  F32  1  0.33904900  0.91331100  0.30561300  1
  F  F33  1  0.19819100  0.28669300  0.82189800  1
  F  F34  1  0.28812100  0.53051300  0.48564400  1
  F  F35  1  0.12293700  0.59440900  0.07616400  1
  F  F36  1  0.86466500  0.77107600  0.90770400  1
  F  F37  1  0.83904900  0.41331100  0.19438700  1
  F  F38  1  0.39300000  0.19731200  0.87240500  1
  F  F39  1  0.09453500  0.25373800  0.62665200  1
  F  F40  1  0.66095100  0.41331100  0.69438700  1
  F  F41  1  0.40546500  0.25373800  0.12665200  1
  F  F42  1  0.10826600  0.07327800  0.79655000  1
  F  F43  1  0.69902900  0.79924400  0.30775100  1
  F  F44  1  0.56204900  0.85742700  0.14517600  1
  F  F45  1  0.87706300  0.09440900  0.92383600  1
  F  F46  1  0.71187900  0.03051300  0.51435600  1
  F  F47  1  0.19902900  0.29924400  0.19224900  1
  F  F48  1  0.61802600  0.80499900  0.04893600  1
  F  F49  1  0.78812100  0.03051300  0.01435600  1
  F  F50  1  0.89861300  0.90814300  0.33721400  1
  F  F51  1  0.86555900  0.52252400  0.67384500  1
  F  F52  1  0.62293700  0.09440900  0.42383600  1
  F  F53  1  0.11853000  0.92756700  0.24094200  1
  F  F54  1  0.35683300  0.23163800  0.41797700  1
  F  F55  1  0.38197400  0.30499900  0.95106400  1
  F  F56  1  0.39861300  0.40814300  0.16278600  1
  F  F57  1  0.90163800  0.08051700  0.44309800  1
  F  F58  1  0.80180900  0.78669300  0.17810200  1
  F  F59  1  0.62551200  0.47962400  0.78911500  1
  F  F60  1  0.88147000  0.42756700  0.75905800  1
  F  F61  1  0.16095100  0.91331100  0.80561300  1
  F  F62  1  0.60700000  0.69731200  0.12759500  1
  F  F63  1  0.37706300  0.59440900  0.57616400  1
  F  F64  1  0.63444100  0.52252400  0.17384500  1
  F  F65  1  0.91069200  0.17783100  0.01256800  1
  F  F66  1  0.89173400  0.57327800  0.20345000  1
  F  F67  1  0.09836200  0.58051700  0.55690200  1
  F  F68  1  0.59453500  0.75373800  0.87334800  1
  F  F69  1  0.36810100  0.66493400  0.96734400  1
  F  F70  1  0.69819100  0.78669300  0.67810200  1
  F  F71  1  0.60138700  0.90814300  0.83721400  1
  F  F72  1  0.12551200  0.97962400  0.71088500  1
  F  F73  1  0.63189900  0.16493400  0.03265600  1
  F  F74  1  0.36466500  0.27107600  0.59229600  1
  F  F75  1  0.37448800  0.97962400  0.21088500  1
  F  F76  1  0.81489600  0.89196100  0.09934400  1
  F  F77  1  0.13217800  0.42368800  0.12915300  1
  F  F78  1  0.43795100  0.35742700  0.85482400  1
  F  F79  1  0.68510400  0.89196100  0.59934400  1
  F  F80  1  0.27717800  0.72806800  0.05797900  1
  F  F81  1  0.13444100  0.02252400  0.32615500  1
  F  F82  1  0.40163800  0.58051700  0.05690200  1
  F  F83  1  0.30097100  0.29924400  0.69224900  1
  F  F84  1  0.59836200  0.08051700  0.94309800  1
  F  F85  1  0.83321700  0.58813200  0.76824900  1
  F  F86  1  0.63217800  0.92368800  0.37084700  1
  F  F87  1  0.16678300  0.08813200  0.23175100  1
  F  F88  1  0.64316700  0.73163800  0.58202300  1
  F  F89  1  0.66678300  0.58813200  0.26824900  1
  F  F90  1  0.61853000  0.42756700  0.25905800  1
  F  F91  1  0.11802600  0.30499900  0.45106400  1
  F  F92  1  0.13189900  0.66493400  0.46734400  1
  F  F93  1  0.41069200  0.67783100  0.48743200  1
  F  F94  1  0.38147000  0.92756700  0.74094200  1
  F  F95  1  0.86810100  0.16493400  0.53265600  1
loop_
_geom_bond_atom_site_label_1
_geom_bond_atom_site_label_2
_geom_bond_distance
_geom_bond_site_symmetry_2
As0 F31 1.769560 1_555
As0 F85 1.770674 1_555
As0 F59 1.771224 1_555
As0 F60 1.778521 1_555
As0 F51 1.789677 1_555
As0 F40 1.790412 1_555
As1 F2 1.764867 1_555
As1 F22 1.772764 1_555
As1 F39 1.774397 1_555
As1 F26 1.777418 1_555
As1 F74 1.786299 1_555
As1 F83 1.794368 1_555
As2 F66 1.769560 1_555
As2 F89 1.770674 1_555
As2 F3 1.771224 1_555
As2 F90 1.778521 1_555
As2 F64 1.789677 1_555
As2 F37 1.790412 1_555
As3 F21 1.764867 1_555
As3 F77 1.772764 1_555
As3 F41 1.774397 1_555
As3 F56 1.777418 1_555
As3 F7 1.786299 1_555
As3 F47 1.794368 1_555
As4 F91 1.763165 1_555
As4 F4 1.767886 1_555
As4 F10 1.773451 1_555
As4 F11 1.782267 1_555
As4 F13 1.793693 1_555
As4 F54 1.794039 1_555
As5 F67 1.767428 1_555
As5 F34 1.769591 1_555
As5 F92 1.775938 1_555
As5 F27 1.776035 1_555
As5 F93 1.784284 1_555
As5 F63 1.796663 1_555
As6 F82 1.767428 1_555
As6 F24 1.769591 1_554
As6 F69 1.775938 1_554
As6 F80 1.776035 1_555
As6 F17 1.784284 1_554
As6 F35 1.796663 1_555
As7 F48 1.763165 1_555
As7 F58 1.767886 1_555
As7 F62 1.773451 1_555
As7 F44 1.782267 1_555
As7 F76 1.793693 1_555
As7 F18 1.794039 1_555
As8 F1 1.763165 1_555
As8 F70 1.767886 1_555
As8 F12 1.773451 1_555
As8 F28 1.782267 1_555
As8 F79 1.793693 1_555
As8 F88 1.794039 1_555
As9 F20 1.769560 1_555
As9 F87 1.770674 1_555
As9 F75 1.771224 1_545
As9 F53 1.778521 1_545
As9 F81 1.789677 1_555
As9 F32 1.790412 1_545
As10 F55 1.763165 1_555
As10 F33 1.767886 1_555
As10 F38 1.773451 1_555
As10 F78 1.782267 1_555
As10 F16 1.793693 1_555
As10 F6 1.794039 1_555
As11 F42 1.769560 1_555
As11 F19 1.770674 1_555
As11 F72 1.771224 1_545
As11 F94 1.778521 1_545
As11 F25 1.789677 1_555
As11 F61 1.790412 1_545
As12 F57 1.767428 1_555
As12 F46 1.769591 1_555
As12 F95 1.775938 1_555
As12 F5 1.776035 1_555
As12 F8 1.784284 1_555
As12 F52 1.796663 1_555
As13 F84 1.767428 1_555
As13 F49 1.769591 1_556
As13 F73 1.775938 1_556
As13 F15 1.776035 1_555
As13 F65 1.784284 1_556
As13 F45 1.796663 1_555
As14 F14 1.764867 1_555
As14 F9 1.772764 1_555
As14 F68 1.774397 1_555
As14 F71 1.777418 1_555
As14 F36 1.786299 1_555
As14 F30 1.794368 1_555
As15 F29 1.764867 1_555
As15 F86 1.772764 1_555
As15 F0 1.774397 1_555
As15 F50 1.777418 1_555
As15 F23 1.786299 1_555
As15 F43 1.794368 1_555
Se0 Se29 2.327952 1_555
Se0 Se18 2.333764 1_555
Se1 Te13 2.547143 1_555
Se1 Te11 2.548303 1_555
Se2 Se8 2.323354 1_555
Se2 Se28 2.334132 1_555
Se3 Te3 2.592540 1_554
Se4 Se7 2.333764 1_555
Se5 Te5 2.546895 1_555
Se5 Te8 2.553687 1_555
Se6 Te15 2.595503 1_555
Se7 Te0 2.607755 1_555
Se8 Te2 2.592540 1_556
Se9 Te0 2.546895 1_555
Se9 Te1 2.553687 1_555
Se10 Se23 2.334132 1_565
Se10 Te12 2.597523 1_555
Se11 Se30 2.323354 1_555
Se11 Se22 2.334132 1_545
Se12 Se20 2.333764 1_555
Se12 Te9 2.607755 1_555
Se13 Se19 2.323354 1_555
Se13 Se17 2.334132 1_555
Se14 Se4 2.327952 1_555
Se14 Te1 2.595503 1_555
Se15 Te10 2.547143 1_555
Se15 Te7 2.548303 1_565
Se16 Te4 2.547143 1_554
Se16 Te2 2.548303 1_555
Se17 Te13 2.597523 1_555
Se18 Te5 2.607755 1_555
Se19 Te11 2.592540 1_555
Se20 Se27 2.327952 1_555
Se21 Te9 2.546895 1_555
Se21 Te6 2.553687 1_555
Se22 Te10 2.597523 1_555
Se23 Se3 2.323354 1_555
Se24 Se6 2.327952 1_555
Se24 Se26 2.333764 1_555
Se25 Te12 2.547143 1_556
Se25 Te3 2.548303 1_565
Se26 Te14 2.607755 1_555
Se27 Te6 2.595503 1_555
Se28 Te4 2.597523 1_555
Se29 Te8 2.595503 1_555
Se30 Te7 2.592540 1_555
Se31 Te14 2.546895 1_555
Se31 Te15 2.553687 1_555
