# generated using pymatgen
data_Yb2FeS4
_symmetry_space_group_name_H-M   'P 1'
_cell_length_a   7.67269300
_cell_length_b   7.74487237
_cell_length_c   19.12523232
_cell_angle_alpha   89.02619964
_cell_angle_beta   89.52271220
_cell_angle_gamma   60.96438927
_symmetry_Int_Tables_number   1
_chemical_formula_structural   Yb2FeS4
_chemical_formula_sum   'Yb12 Fe6 S24'
_cell_volume   993.51768540
_cell_formula_units_Z   6
loop_
 _symmetry_equiv_pos_site_id
 _symmetry_equiv_pos_as_xyz
  1  'x, y, z'
loop_
 _atom_site_type_symbol
 _atom_site_label
 _atom_site_symmetry_multiplicity
 _atom_site_fract_x
 _atom_site_fract_y
 _atom_site_fract_z
 _atom_site_occupancy
  Yb  Yb0  1  0.00502200  0.50320100  0.99678700  1
  Yb  Yb1  1  0.66315100  0.66784500  0.83577700  1
  Yb  Yb2  1  0.33335600  0.82841400  0.66601900  1
  Yb  Yb3  1  0.50241800  0.49496100  0.50220600  1
  Yb  Yb4  1  0.17130100  0.15718400  0.83063000  1
  Yb  Yb5  1  0.00116500  0.99827200  0.49679700  1
  Yb  Yb6  1  0.66309000  0.17550400  0.81684500  1
  Yb  Yb7  1  0.66628900  0.16737900  0.33343100  1
  Yb  Yb8  1  0.83424100  0.83064900  0.16828200  1
  Yb  Yb9  1  0.50139300  0.99698800  0.49744400  1
  Yb  Yb10  1  0.33056100  0.33427500  0.16831100  1
  Yb  Yb11  1  0.83500700  0.33496500  0.16793600  1
  Fe  Fe0  1  0.66464800  0.16271800  0.96968600  1
  Fe  Fe1  1  0.00889500  0.47808200  0.62410800  1
  Fe  Fe2  1  0.33357000  0.83066700  0.29203600  1
  Fe  Fe3  1  0.81092500  0.89143400  0.67070900  1
  Fe  Fe4  1  0.00034000  0.50138400  0.37495100  1
  Fe  Fe5  1  0.33328100  0.83539900  0.04200600  1
  S  S0  1  0.36318300  0.31403900  0.91814800  1
  S  S1  1  0.81581200  0.86770300  0.92085800  1
  S  S2  1  0.99107500  0.51930400  0.73807000  1
  S  S3  1  0.83301600  0.31969000  0.91677200  1
  S  S4  1  0.68756600  0.66580700  0.58956400  1
  S  S5  1  0.51628200  0.98541200  0.74297500  1
  S  S6  1  0.32938300  0.83444800  0.92944500  1
  S  S7  1  0.48561400  0.51959000  0.75193800  1
  S  S8  1  0.33685300  0.82654600  0.41048400  1
  S  S9  1  0.16224900  0.17530200  0.58396600  1
  S  S10  1  0.14458600  0.66794000  0.58710000  1
  S  S11  1  0.99492600  0.97381700  0.74196800  1
  S  S12  1  0.01762400  0.99146300  0.25235800  1
  S  S13  1  0.83716700  0.34327500  0.41572500  1
  S  S14  1  0.68088200  0.13924000  0.58904700  1
  S  S15  1  0.49096600  0.51879100  0.25226000  1
  S  S16  1  0.84249700  0.81437900  0.41371300  1
  S  S17  1  0.66649100  0.16812400  0.08403000  1
  S  S18  1  0.49188700  0.99172300  0.25234500  1
  S  S19  1  0.31837400  0.34322300  0.41582100  1
  S  S20  1  0.17533900  0.67532100  0.08188300  1
  S  S21  1  0.00029000  0.49913900  0.25653300  1
  S  S22  1  0.17651500  0.14751100  0.07969700  1
  S  S23  1  0.64943600  0.67555900  0.07967700  1
loop_
_geom_bond_atom_site_label_1
_geom_bond_atom_site_label_2
_geom_bond_distance
_geom_bond_site_symmetry_2
Fe0 S17 2.188262 1_556
Fe0 S1 2.218085 1_545
Fe0 S0 2.250015 1_555
Fe0 S3 2.373158 1_555
Fe1 S9 2.200144 1_555
Fe1 S2 2.201675 1_455
Fe1 S4 2.267984 1_455
Fe1 S10 2.277152 1_555
Fe2 S18 2.242973 1_555
Fe2 S12 2.251960 1_555
Fe2 S15 2.255453 1_555
Fe2 S8 2.265206 1_555
Fe3 S14 2.276716 1_565
Fe3 S11 2.278944 1_555
Fe3 S5 2.436319 1_555
Fe3 S10 2.798469 1_655
Fe3 S2 2.813040 1_555
Fe3 S4 2.842542 1_555
Fe4 S16 2.255863 1_455
Fe4 S13 2.261524 1_455
Fe4 S21 2.265139 1_555
Fe4 S19 2.272364 1_555
Fe5 S6 2.153400 1_554
Fe5 S20 2.235652 1_555
Fe5 S23 2.240469 1_555
Fe5 S22 2.243212 1_565
S0 Yb6 2.792793 1_555
S0 Yb0 2.838681 1_555
S0 Yb4 2.879450 1_555
S1 Yb0 2.846631 1_655
S1 Yb6 2.859939 1_565
S1 Yb1 2.879754 1_555
S2 Yb1 2.886339 1_555
S2 Yb4 3.003158 1_655
S3 Yb1 2.801637 1_555
S3 Yb4 2.804169 1_655
S3 Yb0 2.834065 1_655
S3 Yb6 2.850728 1_555
S4 Yb2 2.790024 1_555
S4 Yb9 2.838169 1_555
S4 Yb3 2.915399 1_555
S5 Yb6 2.671932 1_565
S5 Yb2 2.714120 1_555
S5 Yb1 2.768349 1_555
S5 Yb4 2.858350 1_565
S6 Yb4 2.867957 1_565
S6 Yb1 2.868254 1_555
S7 Yb6 2.624906 1_555
S7 Yb2 2.640402 1_555
S7 Yb1 2.713339 1_555
S8 Yb5 2.793979 1_555
S8 Yb9 2.798153 1_555
S8 Yb3 2.829007 1_555
S9 Yb2 2.805583 1_545
S9 Yb9 2.816769 1_545
S9 Yb5 2.818455 1_545
S10 Yb2 2.787140 1_555
S10 Yb5 2.808494 1_555
S10 Yb3 2.897950 1_555
S11 Yb6 2.669818 1_565
S11 Yb2 2.697216 1_655
S11 Yb4 2.951128 1_665
S12 Yb11 2.814434 1_465
S12 Yb8 2.814863 1_455
S12 Yb7 2.822089 1_465
S13 Yb5 2.784786 1_645
S13 Yb3 2.789061 1_555
S13 Yb7 2.809444 1_555
S14 Yb5 2.780752 1_645
S14 Yb9 2.785362 1_545
S14 Yb3 2.905847 1_555
S15 Yb10 2.820081 1_555
S15 Yb11 2.820451 1_555
S15 Yb7 2.822084 1_555
S16 Yb5 2.797797 1_655
S16 Yb9 2.797929 1_555
S16 Yb7 2.822005 1_565
S17 Yb11 2.764675 1_555
S17 Yb10 2.771143 1_555
S17 Yb8 2.776747 1_545
S18 Yb10 2.802529 1_565
S18 Yb8 2.803194 1_555
S18 Yb7 2.814200 1_565
S19 Yb3 2.796504 1_555
S19 Yb9 2.799731 1_545
S19 Yb7 2.817352 1_555
S20 Yb0 2.816659 1_554
S20 Yb10 2.821030 1_555
S20 Yb8 2.822479 1_455
S21 Yb10 2.785654 1_555
S21 Yb11 2.787539 1_455
S21 Yb8 2.788770 1_455
S22 Yb10 2.852672 1_555
S22 Yb11 2.852806 1_455
S22 Yb0 2.863949 1_554
S23 Yb11 2.842129 1_555
S23 Yb8 2.843852 1_555
S23 Yb0 2.864138 1_654
