# generated using pymatgen
data_K3NaSn3Se8
_symmetry_space_group_name_H-M   'P 1'
_cell_length_a   8.32824500
_cell_length_b   8.32824500
_cell_length_c   13.93411000
_cell_angle_alpha   90.00000000
_cell_angle_beta   90.00000000
_cell_angle_gamma   90.00000000
_symmetry_Int_Tables_number   1
_chemical_formula_structural   K3NaSn3Se8
_chemical_formula_sum   'K6 Na2 Sn6 Se16'
_cell_volume   966.46519861
_cell_formula_units_Z   2
loop_
 _symmetry_equiv_pos_site_id
 _symmetry_equiv_pos_as_xyz
  1  'x, y, z'
loop_
 _atom_site_type_symbol
 _atom_site_label
 _atom_site_symmetry_multiplicity
 _atom_site_fract_x
 _atom_site_fract_y
 _atom_site_fract_z
 _atom_site_occupancy
  K  K0  1  0.00000000  0.00000000  0.72285300  1
  K  K1  1  0.50000000  0.50000000  0.72285300  1
  K  K2  1  0.50000000  0.50000000  0.27714700  1
  K  K3  1  0.00000000  0.00000000  0.27714700  1
  K  K4  1  0.50000000  0.50000000  0.00000000  1
  K  K5  1  0.00000000  0.00000000  0.00000000  1
  Na  Na0  1  0.00000000  0.50000000  0.00000000  1
  Na  Na1  1  0.50000000  0.00000000  0.00000000  1
  Sn  Sn0  1  0.50000000  0.00000000  0.75414500  1
  Sn  Sn1  1  0.50000000  0.00000000  0.24585500  1
  Sn  Sn2  1  0.00000000  0.50000000  0.75414500  1
  Sn  Sn3  1  0.00000000  0.50000000  0.24585500  1
  Sn  Sn4  1  0.50000000  0.00000000  0.50000000  1
  Sn  Sn5  1  0.00000000  0.50000000  0.50000000  1
  Se  Se0  1  0.33569900  0.83569900  0.62320400  1
  Se  Se1  1  0.18088100  0.68088100  0.85271300  1
  Se  Se2  1  0.83569900  0.33569900  0.37679600  1
  Se  Se3  1  0.33569900  0.16430100  0.37679600  1
  Se  Se4  1  0.68088100  0.81911900  0.85271300  1
  Se  Se5  1  0.68088100  0.18088100  0.14728700  1
  Se  Se6  1  0.81911900  0.68088100  0.14728700  1
  Se  Se7  1  0.31911900  0.81911900  0.14728700  1
  Se  Se8  1  0.83569900  0.66430100  0.62320400  1
  Se  Se9  1  0.81911900  0.31911900  0.85271300  1
  Se  Se10  1  0.66430100  0.83569900  0.37679600  1
  Se  Se11  1  0.66430100  0.16430100  0.62320400  1
  Se  Se12  1  0.16430100  0.66430100  0.37679600  1
  Se  Se13  1  0.18088100  0.31911900  0.14728700  1
  Se  Se14  1  0.16430100  0.33569900  0.62320400  1
  Se  Se15  1  0.31911900  0.18088100  0.85271300  1
loop_
_geom_bond_atom_site_label_1
_geom_bond_atom_site_label_2
_geom_bond_distance
_geom_bond_site_symmetry_2
K0 Se14 3.408335 1_555
K0 Se0 3.408335 1_545
K0 Se11 3.408335 1_455
K0 Se8 3.408335 1_445
K0 Se15 3.550621 1_555
K0 Se1 3.550621 1_545
K0 Se9 3.550621 1_455
K0 Se4 3.550621 1_445
K1 Se8 3.408335 1_555
K1 Se11 3.408335 1_555
K1 Se14 3.408335 1_555
K1 Se0 3.408335 1_555
K1 Se4 3.550621 1_555
K1 Se9 3.550621 1_555
K1 Se1 3.550621 1_555
K1 Se15 3.550621 1_555
K2 Se12 3.408335 1_555
K2 Se10 3.408335 1_555
K2 Se3 3.408335 1_555
K2 Se2 3.408335 1_555
K2 Se6 3.550621 1_555
K2 Se7 3.550621 1_555
K2 Se13 3.550621 1_555
K2 Se5 3.550621 1_555
K3 Se3 3.408335 1_555
K3 Se2 3.408335 1_455
K3 Se10 3.408335 1_445
K3 Se12 3.408335 1_545
K3 Se13 3.550621 1_555
K3 Se5 3.550621 1_455
K3 Se7 3.550621 1_545
K3 Se6 3.550621 1_445
K4 Se6 3.680308 1_555
K4 Se7 3.680308 1_555
K4 Se13 3.680308 1_555
K4 Se5 3.680308 1_555
K4 Se4 3.680308 1_554
K4 Se9 3.680308 1_554
K4 Se1 3.680308 1_554
K4 Se15 3.680308 1_554
K5 Se13 3.680308 1_555
K5 Se5 3.680308 1_455
K5 Se6 3.680308 1_445
K5 Se7 3.680308 1_545
K5 Se15 3.680308 1_554
K5 Se1 3.680308 1_544
K5 Se9 3.680308 1_454
K5 Se4 3.680308 1_444
Na0 Se13 2.958141 1_555
Na0 Se6 2.958141 1_455
Na0 Se1 2.958141 1_554
Na0 Se9 2.958141 1_454
Na1 Se5 2.958141 1_555
Na1 Se7 2.958141 1_545
Na1 Se15 2.958141 1_554
Na1 Se4 2.958141 1_544
Se0 Sn4 2.586869 1_565
Se0 Sn0 2.659638 1_565
Se1 Sn2 2.534757 1_555
Se2 Sn5 2.586869 1_655
Se2 Sn3 2.659638 1_655
Se3 Sn4 2.586869 1_555
Se3 Sn1 2.659638 1_555
Se4 Sn0 2.534757 1_565
Se5 Sn1 2.534757 1_555
Se6 Sn3 2.534757 1_655
Se7 Sn1 2.534757 1_565
Se8 Sn5 2.586869 1_655
Se8 Sn2 2.659638 1_655
Se9 Sn2 2.534757 1_655
Se10 Sn4 2.586869 1_565
Se10 Sn1 2.659638 1_565
Se11 Sn4 2.586869 1_555
Se11 Sn0 2.659638 1_555
Se12 Sn5 2.586869 1_555
Se12 Sn3 2.659638 1_555
Se13 Sn3 2.534757 1_555
Se14 Sn5 2.586869 1_555
Se14 Sn2 2.659638 1_555
Se15 Sn0 2.534757 1_555
