# generated using pymatgen
data_Fe2Te2Ru2(CO)11
_symmetry_space_group_name_H-M   'P 1'
_cell_length_a   6.89685300
_cell_length_b   16.17558000
_cell_length_c   17.87718500
_cell_angle_alpha   90.00000000
_cell_angle_beta   90.00000000
_cell_angle_gamma   90.00000000
_symmetry_Int_Tables_number   1
_chemical_formula_structural   Fe2Te2Ru2(CO)11
_chemical_formula_sum   'Fe8 Te8 Ru8 C44 O44'
_cell_volume   1994.38943932
_cell_formula_units_Z   4
loop_
 _symmetry_equiv_pos_site_id
 _symmetry_equiv_pos_as_xyz
  1  'x, y, z'
loop_
 _atom_site_type_symbol
 _atom_site_label
 _atom_site_symmetry_multiplicity
 _atom_site_fract_x
 _atom_site_fract_y
 _atom_site_fract_z
 _atom_site_occupancy
  Fe  Fe0  1  0.66810200  0.66641800  0.69247600  1
  Fe  Fe1  1  0.33189800  0.16641800  0.80752400  1
  Fe  Fe2  1  0.83189800  0.66641800  0.19247600  1
  Fe  Fe3  1  0.33189800  0.33358200  0.30752400  1
  Fe  Fe4  1  0.16810200  0.33358200  0.80752400  1
  Fe  Fe5  1  0.66810200  0.83358200  0.19247600  1
  Fe  Fe6  1  0.83189800  0.83358200  0.69247600  1
  Fe  Fe7  1  0.16810200  0.16641800  0.30752400  1
  Te  Te0  1  0.49007600  0.29291300  0.74037900  1
  Te  Te1  1  0.00992400  0.29291300  0.24037900  1
  Te  Te2  1  0.50992400  0.79291300  0.75962100  1
  Te  Te3  1  0.49007600  0.20708700  0.24037900  1
  Te  Te4  1  0.50992400  0.70708700  0.25962100  1
  Te  Te5  1  0.99007600  0.79291300  0.25962100  1
  Te  Te6  1  0.99007600  0.70708700  0.75962100  1
  Te  Te7  1  0.00992400  0.20708700  0.74037900  1
  Ru  Ru0  1  0.67008200  0.83126300  0.34792600  1
  Ru  Ru1  1  0.82991800  0.83126300  0.84792600  1
  Ru  Ru2  1  0.82991800  0.66873700  0.34792600  1
  Ru  Ru3  1  0.17008200  0.16873700  0.15207400  1
  Ru  Ru4  1  0.67008200  0.66873700  0.84792600  1
  Ru  Ru5  1  0.32991800  0.33126300  0.15207400  1
  Ru  Ru6  1  0.17008200  0.33126300  0.65207400  1
  Ru  Ru7  1  0.32991800  0.16873700  0.65207400  1
  C  C0  1  0.56587700  0.35885200  0.10584200  1
  C  C1  1  0.08626600  0.07621000  0.25798400  1
  C  C2  1  0.93412300  0.14114800  0.10584200  1
  C  C3  1  0.70923600  0.57895300  0.39655500  1
  C  C4  1  0.41373400  0.42379000  0.25798400  1
  C  C5  1  0.18494200  0.38528400  0.37478500  1
  C  C6  1  0.25000000  0.25000000  0.56737800  1
  C  C7  1  0.75000000  0.75000000  0.93262200  1
  C  C8  1  0.02513500  0.66950000  0.12674900  1
  C  C9  1  0.06587700  0.85885200  0.89415800  1
  C  C10  1  0.02513500  0.83050000  0.62674900  1
  C  C11  1  0.29076400  0.42104700  0.60344500  1
  C  C12  1  0.31505800  0.38528400  0.87478500  1
  C  C13  1  0.43412300  0.64114800  0.89415800  1
  C  C14  1  0.20923600  0.42104700  0.10344500  1
  C  C15  1  0.79076400  0.57895300  0.89655500  1
  C  C16  1  0.18494200  0.11471600  0.87478500  1
  C  C17  1  0.58626600  0.92379000  0.24201600  1
  C  C18  1  0.47486500  0.66950000  0.62674900  1
  C  C19  1  0.56587700  0.14114800  0.60584200  1
  C  C20  1  0.58626600  0.57621000  0.74201600  1
  C  C21  1  0.93412300  0.35885200  0.60584200  1
  C  C22  1  0.20923600  0.07895300  0.60344500  1
  C  C23  1  0.79076400  0.92104700  0.39655500  1
  C  C24  1  0.31505800  0.11471600  0.37478500  1
  C  C25  1  0.29076400  0.07895300  0.10344500  1
  C  C26  1  0.68494200  0.61471600  0.12521500  1
  C  C27  1  0.52513500  0.16950000  0.87325100  1
  C  C28  1  0.25000000  0.25000000  0.06737800  1
  C  C29  1  0.70923600  0.92104700  0.89655500  1
  C  C30  1  0.68494200  0.88528400  0.62521500  1
  C  C31  1  0.81505800  0.61471600  0.62521500  1
  C  C32  1  0.75000000  0.75000000  0.43262200  1
  C  C33  1  0.43412300  0.85885200  0.39415800  1
  C  C34  1  0.97486500  0.16950000  0.37325100  1
  C  C35  1  0.91373400  0.57621000  0.24201600  1
  C  C36  1  0.91373400  0.92379000  0.74201600  1
  C  C37  1  0.52513500  0.33050000  0.37325100  1
  C  C38  1  0.97486500  0.33050000  0.87325100  1
  C  C39  1  0.06587700  0.64114800  0.39415800  1
  C  C40  1  0.81505800  0.88528400  0.12521500  1
  C  C41  1  0.41373400  0.07621000  0.75798400  1
  C  C42  1  0.47486500  0.83050000  0.12674900  1
  C  C43  1  0.08626600  0.42379000  0.75798400  1
  O  O0  1  0.63493000  0.52398600  0.42713400  1
  O  O1  1  0.86507000  0.52398600  0.92713400  1
  O  O2  1  0.02539300  0.49099200  0.74941300  1
  O  O3  1  0.52539300  0.99099200  0.25058700  1
  O  O4  1  0.25000000  0.25000000  0.00104200  1
  O  O5  1  0.47460700  0.49099200  0.24941300  1
  O  O6  1  0.52539300  0.50900800  0.75058700  1
  O  O7  1  0.02539300  0.00900800  0.24941300  1
  O  O8  1  0.21173900  0.87578300  0.92315200  1
  O  O9  1  0.40540400  0.41991100  0.91957300  1
  O  O10  1  0.13493000  0.02398600  0.57286600  1
  O  O11  1  0.65069100  0.16929800  0.91628000  1
  O  O12  1  0.59459600  0.58008900  0.08042700  1
  O  O13  1  0.28826100  0.87578300  0.42315200  1
  O  O14  1  0.63493000  0.97601400  0.92713400  1
  O  O15  1  0.78826100  0.37578300  0.57684800  1
  O  O16  1  0.75000000  0.75000000  0.99895800  1
  O  O17  1  0.84930900  0.33070200  0.91628000  1
  O  O18  1  0.71173900  0.37578300  0.07684800  1
  O  O19  1  0.21173900  0.62421700  0.42315200  1
  O  O20  1  0.40540400  0.08008900  0.41957300  1
  O  O21  1  0.34930900  0.66929800  0.58372000  1
  O  O22  1  0.97460700  0.99099200  0.75058700  1
  O  O23  1  0.15069100  0.66929800  0.08372000  1
  O  O24  1  0.47460700  0.00900800  0.74941300  1
  O  O25  1  0.90540400  0.91991100  0.08042700  1
  O  O26  1  0.78826100  0.12421700  0.07684800  1
  O  O27  1  0.90540400  0.58008900  0.58042700  1
  O  O28  1  0.97460700  0.50900800  0.25058700  1
  O  O29  1  0.15069100  0.83070200  0.58372000  1
  O  O30  1  0.25000000  0.25000000  0.50104200  1
  O  O31  1  0.36507000  0.02398600  0.07286600  1
  O  O32  1  0.65069100  0.33070200  0.41628000  1
  O  O33  1  0.09459600  0.41991100  0.41957300  1
  O  O34  1  0.84930900  0.16929800  0.41628000  1
  O  O35  1  0.13493000  0.47601400  0.07286600  1
  O  O36  1  0.09459600  0.08008900  0.91957300  1
  O  O37  1  0.71173900  0.12421700  0.57684800  1
  O  O38  1  0.34930900  0.83070200  0.08372000  1
  O  O39  1  0.59459600  0.91991100  0.58042700  1
  O  O40  1  0.86507000  0.97601400  0.42713400  1
  O  O41  1  0.75000000  0.75000000  0.49895900  1
  O  O42  1  0.28826100  0.62421700  0.92315200  1
  O  O43  1  0.36507000  0.47601400  0.57286600  1
loop_
_geom_bond_atom_site_label_1
_geom_bond_atom_site_label_2
_geom_bond_distance
_geom_bond_site_symmetry_2
Fe0 Te6 2.608588 1_555
Fe0 Te2 2.611063 1_555
Fe1 Te7 2.608588 1_555
Fe1 Te0 2.611063 1_555
Fe2 Te4 2.608588 1_555
Fe2 Te5 2.611063 1_555
Fe3 Te1 2.608588 1_555
Fe3 Te3 2.611063 1_555
Fe4 Te0 2.608588 1_555
Fe4 Te7 2.611063 1_555
Fe5 Te5 2.608588 1_555
Fe5 Te4 2.611063 1_555
Fe6 Te2 2.608588 1_555
Fe6 Te6 2.611063 1_555
Fe7 Te3 2.608588 1_555
Fe7 Te1 2.611063 1_555
Ru0 Te4 2.783304 1_555
Ru0 Te5 2.783445 1_555
Ru1 Te6 2.783304 1_555
Ru1 Te2 2.783445 1_555
Ru2 Te5 2.783304 1_555
Ru2 Te4 2.783445 1_555
Ru3 Te1 2.783304 1_555
Ru3 Te3 2.783445 1_555
Ru4 Te2 2.783304 1_555
Ru4 Te6 2.783445 1_555
Ru5 Te3 2.783304 1_555
Ru5 Te1 2.783445 1_555
Ru6 Te7 2.783304 1_555
Ru6 Te0 2.783445 1_555
Ru7 Te0 2.783304 1_555
Ru7 Te7 2.783445 1_555
C0 O18 1.164339 1_555
C0 Ru5 1.878990 1_555
C1 O7 1.175319 1_555
C1 Fe7 1.797798 1_555
C2 O26 1.164339 1_555
C2 Ru3 1.878990 1_655
C3 O0 1.162763 1_555
C3 Ru2 1.886196 1_555
C4 O5 1.175319 1_555
C4 Fe3 1.797798 1_555
C5 O33 1.158912 1_555
C5 Fe3 1.781157 1_555
C6 O30 1.185901 1_555
C6 Ru7 2.079478 1_555
C6 Ru6 2.079478 1_555
C7 O16 1.185901 1_555
C7 Ru1 2.079478 1_555
C7 Ru4 2.079478 1_555
C8 O23 1.158271 1_555
C8 Fe2 1.777443 1_455
C9 O8 1.164339 1_555
C9 Ru1 1.878990 1_455
C10 O29 1.158271 1_555
C10 Fe6 1.777443 1_455
C11 O43 1.162763 1_555
C11 Ru6 1.886196 1_555
C12 O9 1.158912 1_555
C12 Fe4 1.781157 1_555
C13 O42 1.164339 1_555
C13 Ru4 1.878990 1_555
C14 O35 1.162763 1_555
C14 Ru5 1.886196 1_555
C15 O1 1.162763 1_555
C15 Ru4 1.886196 1_555
C16 O36 1.158912 1_555
C16 Fe1 1.781157 1_555
C17 O3 1.175319 1_555
C17 Fe5 1.797798 1_555
C18 O21 1.158271 1_555
C18 Fe0 1.777443 1_555
C19 O37 1.164339 1_555
C19 Ru7 1.878990 1_555
C20 O6 1.175319 1_555
C20 Fe0 1.797798 1_555
C21 O15 1.164339 1_555
C21 Ru6 1.878990 1_655
C22 O10 1.162763 1_555
C22 Ru7 1.886196 1_555
C23 O40 1.162763 1_555
C23 Ru0 1.886196 1_555
C24 O20 1.158912 1_555
C24 Fe7 1.781157 1_555
C25 O31 1.162763 1_555
C25 Ru3 1.886196 1_555
C26 O12 1.158912 1_555
C26 Fe2 1.781157 1_555
C27 O11 1.158271 1_555
C27 Fe1 1.777443 1_555
C28 O4 1.185901 1_555
C28 Ru5 2.079478 1_555
C28 Ru3 2.079478 1_555
C29 O14 1.162763 1_555
C29 Ru1 1.886196 1_555
C30 O39 1.158912 1_555
C30 Fe6 1.781157 1_555
C31 O27 1.158912 1_555
C31 Fe0 1.781157 1_555
C32 O41 1.185919 1_555
C32 Ru0 2.079478 1_555
C32 Ru2 2.079478 1_555
C33 O13 1.164339 1_555
C33 Ru0 1.878990 1_555
C34 O34 1.158271 1_555
C34 Fe7 1.777443 1_655
C35 O28 1.175319 1_555
C35 Fe2 1.797798 1_555
C36 O22 1.175319 1_555
C36 Fe6 1.797798 1_555
C37 O32 1.158271 1_555
C37 Fe3 1.777443 1_555
C38 O17 1.158271 1_555
C38 Fe4 1.777443 1_655
C39 O19 1.164339 1_555
C39 Ru2 1.878990 1_455
C40 O25 1.158912 1_555
C40 Fe5 1.781157 1_555
C41 O24 1.175319 1_555
C41 Fe1 1.797798 1_555
C42 O38 1.158271 1_555
C42 Fe5 1.777443 1_555
C43 O2 1.175319 1_555
C43 Fe4 1.797798 1_555
