# generated using pymatgen
data_Ca(H8O5)2
_symmetry_space_group_name_H-M   'P 1'
_cell_length_a   6.13582100
_cell_length_b   6.14204400
_cell_length_c   11.34684395
_cell_angle_alpha   88.81494655
_cell_angle_beta   90.00000000
_cell_angle_gamma   90.00000000
_symmetry_Int_Tables_number   1
_chemical_formula_structural   Ca(H8O5)2
_chemical_formula_sum   'Ca2 H32 O20'
_cell_volume   427.53117340
_cell_formula_units_Z   2
loop_
 _symmetry_equiv_pos_site_id
 _symmetry_equiv_pos_as_xyz
  1  'x, y, z'
loop_
 _atom_site_type_symbol
 _atom_site_label
 _atom_site_symmetry_multiplicity
 _atom_site_fract_x
 _atom_site_fract_y
 _atom_site_fract_z
 _atom_site_occupancy
  Ca  Ca0  1  0.99312300  0.00721100  0.49987400  1
  Ca  Ca1  1  0.00687700  0.00721100  0.99987400  1
  H  H0  1  0.72258800  0.62722000  0.60842100  1
  H  H1  1  0.96721000  0.56267400  0.61512900  1
  H  H2  1  0.08099000  0.29479700  0.70762400  1
  H  H3  1  0.26442100  0.37804300  0.61079800  1
  H  H4  1  0.30532200  0.92107700  0.70615600  1
  H  H5  1  0.38024100  0.73160700  0.60972100  1
  H  H6  1  0.55823300  0.03113900  0.61311300  1
  H  H7  1  0.62854000  0.27383200  0.61030500  1
  H  H8  1  0.27741200  0.62722000  0.10842100  1
  H  H9  1  0.03279000  0.56267400  0.11512900  1
  H  H10  1  0.73557900  0.37804300  0.11079800  1
  H  H11  1  0.91901000  0.29479700  0.20762400  1
  H  H12  1  0.69467800  0.92107700  0.20615600  1
  H  H13  1  0.61975900  0.73160700  0.10972100  1
  H  H14  1  0.37146000  0.27383200  0.11030500  1
  H  H15  1  0.44176700  0.03113900  0.11311300  1
  H  H16  1  0.27368600  0.37112300  0.39016600  1
  H  H17  1  0.03125800  0.44071300  0.38735900  1
  H  H18  1  0.73019600  0.62093900  0.39025100  1
  H  H19  1  0.92346800  0.69506300  0.29323700  1
  H  H20  1  0.62610600  0.27577500  0.39225500  1
  H  H21  1  0.55832600  0.03294400  0.38321100  1
  H  H22  1  0.29386400  0.92162100  0.29332400  1
  H  H23  1  0.37781700  0.73360400  0.38942700  1
  H  H24  1  0.96874200  0.44071300  0.88735900  1
  H  H25  1  0.72631400  0.37112300  0.89016600  1
  H  H26  1  0.26980400  0.62093900  0.89025100  1
  H  H27  1  0.07653200  0.69506300  0.79323700  1
  H  H28  1  0.44167400  0.03294400  0.88321100  1
  H  H29  1  0.37389400  0.27577500  0.89225500  1
  H  H30  1  0.62218300  0.73360400  0.88942700  1
  H  H31  1  0.70613600  0.92162100  0.79332400  1
  O  O0  1  0.49331400  0.51145000  0.56647500  1
  O  O1  1  0.50668600  0.51145000  0.06647500  1
  O  O2  1  0.50214000  0.51246600  0.43362300  1
  O  O3  1  0.49786000  0.51246600  0.93362300  1
  O  O4  1  0.87102300  0.69098800  0.62765200  1
  O  O5  1  0.11046400  0.32048700  0.62314300  1
  O  O6  1  0.31337700  0.88390900  0.62254000  1
  O  O7  1  0.68813800  0.12375700  0.62639500  1
  O  O8  1  0.12897700  0.69098800  0.12765200  1
  O  O9  1  0.88953600  0.32048700  0.12314300  1
  O  O10  1  0.68662300  0.88390900  0.12254000  1
  O  O11  1  0.31186200  0.12375700  0.12639500  1
  O  O12  1  0.12414500  0.31124400  0.37429100  1
  O  O13  1  0.88340700  0.68613900  0.37710500  1
  O  O14  1  0.68796500  0.12955900  0.37084200  1
  O  O15  1  0.31987800  0.88937500  0.37756400  1
  O  O16  1  0.87585500  0.31124400  0.87429100  1
  O  O17  1  0.11659300  0.68613900  0.87710500  1
  O  O18  1  0.31203500  0.12955900  0.87084200  1
  O  O19  1  0.68012200  0.88937500  0.87756400  1
loop_
_geom_bond_atom_site_label_1
_geom_bond_atom_site_label_2
_geom_bond_distance
_geom_bond_site_symmetry_2
Ca0 O12 2.460467 1_655
Ca0 O7 2.473418 1_555
Ca0 O14 2.483679 1_555
Ca0 O5 2.507683 1_655
Ca0 O4 2.513821 1_545
Ca0 O6 2.515663 1_645
Ca0 O13 2.529095 1_545
Ca0 O15 2.551688 1_645
Ca1 O16 2.460467 1_455
Ca1 O11 2.473418 1_556
Ca1 O18 2.483679 1_555
Ca1 O9 2.507683 1_456
Ca1 O8 2.513821 1_546
Ca1 O10 2.515663 1_446
Ca1 O17 2.529095 1_545
Ca1 O19 2.551688 1_445
H0 O4 1.016886 1_555
H0 O0 1.650814 1_555
H1 O4 0.997126 1_555
H2 O5 0.985011 1_555
H3 O5 1.017306 1_555
H3 O0 1.696986 1_555
H4 O6 0.981680 1_555
H5 O6 1.034486 1_555
H5 O0 1.605638 1_555
H6 O7 0.992568 1_555
H7 O7 1.004863 1_555
H7 O0 1.742349 1_555
H8 O8 1.016886 1_555
H8 O1 1.650814 1_555
H9 O8 0.997126 1_555
H10 O9 1.017306 1_555
H10 O1 1.696986 1_555
H11 O9 0.985011 1_555
H12 O10 0.981680 1_555
H13 O10 1.034486 1_555
H13 O1 1.605638 1_555
H14 O11 1.004863 1_555
H14 O1 1.742349 1_555
H15 O11 0.992568 1_555
H16 O12 1.006161 1_555
H16 O2 1.726101 1_555
H17 O12 0.991990 1_555
H18 O13 1.031451 1_555
H18 O2 1.621909 1_555
H19 O13 0.983301 1_555
H20 O14 1.009279 1_555
H20 O2 1.714806 1_555
H21 O14 1.000560 1_555
H22 O15 0.985159 1_555
H23 O15 1.026913 1_555
H23 O2 1.627890 1_555
H24 O16 0.991990 1_555
H25 O16 1.006161 1_555
H25 O3 1.726101 1_555
H26 O17 1.031451 1_555
H26 O3 1.621909 1_555
H27 O17 0.983301 1_555
H28 O18 1.000560 1_555
H29 O18 1.009279 1_555
H29 O3 1.714806 1_555
H30 O19 1.026913 1_555
H30 O3 1.627890 1_555
H31 O19 0.985159 1_555
O0 O2 1.508307 1_555
O1 O3 1.508307 1_554
