# generated using pymatgen
data_Na3In(PO4)2
_symmetry_space_group_name_H-M   'P 1'
_cell_length_a   5.44753408
_cell_length_b   6.96739636
_cell_length_c   8.60217778
_cell_angle_alpha   90.16810933
_cell_angle_beta   90.00000000
_cell_angle_gamma   90.00000000
_symmetry_Int_Tables_number   1
_chemical_formula_structural   Na3In(PO4)2
_chemical_formula_sum   'Na6 In2 P4 O16'
_cell_volume   326.49536340
_cell_formula_units_Z   2
loop_
 _symmetry_equiv_pos_site_id
 _symmetry_equiv_pos_as_xyz
  1  'x, y, z'
loop_
 _atom_site_type_symbol
 _atom_site_label
 _atom_site_symmetry_multiplicity
 _atom_site_fract_x
 _atom_site_fract_y
 _atom_site_fract_z
 _atom_site_occupancy
  Na  Na0  1  0.75000000  0.71572401  0.43847117  1
  Na  Na1  1  0.25000000  0.49990848  0.25060722  1
  Na  Na2  1  0.75000000  0.50009152  0.74939278  1
  Na  Na3  1  0.25000000  0.28427599  0.56152883  1
  Na  Na4  1  0.25000000  0.71435679  0.93816299  1
  Na  Na5  1  0.75000000  0.28564321  0.06183701  1
  In  In0  1  0.75000000  0.00010478  0.75030300  1
  In  In1  1  0.25000000  0.99989522  0.24969700  1
  P  P0  1  0.25000000  0.22363365  0.90338372  1
  P  P1  1  0.25000000  0.77625976  0.59672746  1
  P  P2  1  0.75000000  0.22374024  0.40327254  1
  P  P3  1  0.75000000  0.77636635  0.09661628  1
  O  O0  1  0.75000000  0.59788958  -0.00180023  1
  O  O1  1  0.25000000  0.40211042  0.00180023  1
  O  O2  1  0.97970650  0.77715588  0.20471822  1
  O  O3  1  0.47970650  0.22284412  0.79528178  1
  O  O4  1  0.02029350  0.22284412  0.79528178  1
  O  O5  1  0.52029350  0.77715588  0.20471822  1
  O  O6  1  0.75000000  0.95756568  0.99606741  1
  O  O7  1  0.25000000  0.04243432  0.00393259  1
  O  O8  1  0.97975895  0.22250997  0.29521508  1
  O  O9  1  0.47975895  0.77749003  0.70478492  1
  O  O10  1  0.02024105  0.77749003  0.70478492  1
  O  O11  1  0.52024105  0.22250997  0.29521508  1
  O  O12  1  0.25000000  0.95694781  0.49559682  1
  O  O13  1  0.75000000  0.04305219  0.50440318  1
  O  O14  1  0.25000000  0.59724811  0.49898346  1
  O  O15  1  0.75000000  0.40275189  0.50101654  1
loop_
_geom_bond_atom_site_label_1
_geom_bond_atom_site_label_2
_geom_bond_distance
_geom_bond_site_symmetry_2
Na0 O15 2.247527 1_555
Na0 O13 2.348474 1_565
Na0 O2 2.407767 1_555
Na0 O5 2.407767 1_555
Na0 O9 2.755858 1_555
Na0 O10 2.755858 1_655
Na0 O14 2.893749 1_655
Na0 O14 2.893749 1_555
Na1 O14 2.239736 1_555
Na1 O1 2.244226 1_555
Na1 O8 2.460553 1_455
Na1 O11 2.460553 1_555
Na1 O5 2.461665 1_555
Na1 O2 2.461665 1_455
Na2 O15 2.239736 1_555
Na2 O0 2.244226 1_556
Na2 O9 2.460553 1_555
Na2 O10 2.460553 1_655
Na2 O4 2.461665 1_655
Na2 O3 2.461665 1_555
Na3 O14 2.247527 1_555
Na3 O12 2.348474 1_545
Na3 O3 2.407767 1_555
Na3 O4 2.407767 1_555
Na3 O8 2.755858 1_455
Na3 O11 2.755858 1_555
Na3 O15 2.893749 1_555
Na3 O15 2.893749 1_455
Na4 O1 2.244916 1_556
Na4 O7 2.353209 1_566
Na4 O9 2.407388 1_555
Na4 O10 2.407388 1_555
Na4 O5 2.758852 1_556
Na4 O2 2.758852 1_456
Na4 O0 2.889044 1_556
Na4 O0 2.889044 1_456
Na5 O0 2.244916 1_555
Na5 O6 2.353209 1_544
Na5 O8 2.407388 1_555
Na5 O11 2.407388 1_555
Na5 O4 2.758852 1_654
Na5 O3 2.758852 1_554
Na5 O1 2.889044 1_655
Na5 O1 2.889044 1_555
In0 O6 2.135645 1_545
In0 O13 2.137203 1_555
In0 O4 2.173171 1_655
In0 O3 2.173171 1_555
In0 O10 2.173180 1_645
In0 O9 2.173180 1_545
In1 O7 2.135645 1_565
In1 O12 2.137203 1_555
In1 O5 2.173171 1_555
In1 O2 2.173171 1_455
In1 O11 2.173180 1_565
In1 O8 2.173180 1_465
O0 P3 1.502293 1_555
O1 P0 1.502293 1_554
O2 P3 1.559030 1_555
O3 P0 1.559030 1_555
O4 P0 1.559030 1_555
O5 P3 1.559030 1_555
O6 P3 1.532450 1_556
O7 P0 1.532450 1_554
O8 P2 1.559039 1_555
O9 P1 1.559039 1_555
O10 P1 1.559039 1_555
O11 P2 1.559039 1_555
O12 P1 1.532358 1_555
O13 P2 1.532358 1_555
O14 P1 1.502142 1_555
O15 P2 1.502142 1_555
