# generated using pymatgen
data_Cu23(Sb4S13)2
_symmetry_space_group_name_H-M   'P 1'
_cell_length_a   8.99351052
_cell_length_b   8.99272405
_cell_length_c   53.79423857
_cell_angle_alpha   109.52004517
_cell_angle_beta   109.64602777
_cell_angle_gamma   109.36870132
_symmetry_Int_Tables_number   1
_chemical_formula_structural   Cu23(Sb4S13)2
_chemical_formula_sum   'Cu69 Sb24 S78'
_cell_volume   3344.11835151
_cell_formula_units_Z   3
loop_
 _symmetry_equiv_pos_site_id
 _symmetry_equiv_pos_as_xyz
  1  'x, y, z'
loop_
 _atom_site_type_symbol
 _atom_site_label
 _atom_site_symmetry_multiplicity
 _atom_site_fract_x
 _atom_site_fract_y
 _atom_site_fract_z
 _atom_site_occupancy
  Cu  Cu0  1  0.99991131  0.78104676  0.96350594  1
  Cu  Cu1  1  0.21903860  0.00005099  0.86985385  1
  Cu  Cu2  1  0.25002600  0.74998112  0.91665508  1
  Cu  Cu3  1  0.24998580  0.50001504  0.95832637  1
  Cu  Cu4  1  0.21906556  0.21909283  0.83335611  1
  Cu  Cu5  1  0.21896597  -0.00001593  0.70315852  1
  Cu  Cu6  1  0.50000568  0.75010833  0.87501658  1
  Cu  Cu7  1  0.25005651  0.74996482  0.74999213  1
  Cu  Cu8  1  0.50007957  0.25004361  0.95833361  1
  Cu  Cu9  1  0.25012481  0.50014870  0.79167255  1
  Cu  Cu10  1  0.21903609  0.21899507  0.66667741  1
  Cu  Cu11  1  0.99909764  0.77872339  0.46347174  1
  Cu  Cu12  1  0.21868587  0.99983100  0.53644079  1
  Cu  Cu13  1  0.74997522  0.24993998  0.91665294  1
  Cu  Cu14  1  0.49996130  0.74997726  0.70832889  1
  Cu  Cu15  1  0.25007682  0.75009999  0.58331959  1
  Cu  Cu16  1  0.75009454  0.50002523  0.87501460  1
  Cu  Cu17  1  0.25009378  0.50010679  0.62500239  1
  Cu  Cu18  1  0.50006507  0.25005001  0.79166596  1
  Cu  Cu19  1  0.78109707  0.78110995  0.83333816  1
  Cu  Cu20  1  0.78109618  0.00000219  0.79684448  1
  Cu  Cu21  1  0.78101873  0.00000664  0.96352580  1
  Cu  Cu22  1  0.21885567  0.99988153  0.36981848  1
  Cu  Cu23  1  0.00001798  0.78114009  0.79684756  1
  Cu  Cu24  1  0.99915055  0.77881256  0.29681967  1
  Cu  Cu25  1  0.21889894  0.21805623  0.49964416  1
  Cu  Cu26  1  0.75000077  0.25001317  0.74999869  1
  Cu  Cu27  1  0.50013466  0.75003322  0.54136863  1
  Cu  Cu28  1  0.24969254  0.74812623  0.41663423  1
  Cu  Cu29  1  0.49998235  0.25000253  0.62499668  1
  Cu  Cu30  1  0.75002998  0.50008152  0.70833594  1
  Cu  Cu31  1  0.00006576  0.21903897  0.86985267  1
  Cu  Cu32  1  0.78103541  0.78107281  0.66666017  1
  Cu  Cu33  1  0.99998224  0.78103686  0.63017457  1
  Cu  Cu34  1  0.21900886  0.21814206  0.33298872  1
  Cu  Cu35  1  0.21878974  0.99981034  0.20313497  1
  Cu  Cu36  1  0.99901342  0.77889721  0.13012674  1
  Cu  Cu37  1  0.75004766  0.24989838  0.58330181  1
  Cu  Cu38  1  0.50029732  0.75002136  0.37473171  1
  Cu  Cu39  1  0.74976316  0.49977317  0.54161810  1
  Cu  Cu40  1  0.24968168  0.74808850  0.24995700  1
  Cu  Cu41  1  0.49843893  0.24994495  0.45837421  1
  Cu  Cu42  1  0.78103643  0.00003891  0.63015905  1
  Cu  Cu43  1  -0.00002786  0.21893404  0.70316227  1
  Cu  Cu44  1  0.77972158  0.78178213  0.50013335  1
  Cu  Cu45  1  0.21889478  0.21804652  0.16629126  1
  Cu  Cu46  1  0.21915137  0.00025325  0.03654959  1
  Cu  Cu47  1  0.50016570  0.74996130  0.20804246  1
  Cu  Cu48  1  0.75157876  0.25177465  0.41691376  1
  Cu  Cu49  1  0.49842050  0.25008385  0.29170382  1
  Cu  Cu50  1  0.24968538  0.74804745  0.08333889  1
  Cu  Cu51  1  0.74996177  0.49991201  0.37500240  1
  Cu  Cu52  1  0.78095246  0.99984837  0.46348671  1
  Cu  Cu53  1  0.77977031  0.78180437  0.33347347  1
  Cu  Cu54  1  0.78105379  0.99998018  0.29684565  1
  Cu  Cu55  1  0.00005781  0.21894905  0.53646378  1
  Cu  Cu56  1  0.21913664  0.21905040  0.00000320  1
  Cu  Cu57  1  0.50006642  0.74994579  0.04170168  1
  Cu  Cu58  1  0.75155999  0.25184705  0.25025946  1
  Cu  Cu59  1  0.74995250  0.49989174  0.20831875  1
  Cu  Cu60  1  0.49828456  0.25000477  0.12504853  1
  Cu  Cu61  1  0.00208713  0.22116435  0.37006121  1
  Cu  Cu62  1  0.78104498  0.99979092  0.13015781  1
  Cu  Cu63  1  0.77970109  0.78185105  0.16680466  1
  Cu  Cu64  1  0.75178262  0.25219761  0.08368555  1
  Cu  Cu65  1  0.75035331  0.50022282  0.04173530  1
  Cu  Cu66  1  0.00203141  0.22108286  0.20337529  1
  Cu  Cu67  1  0.78119100  0.78122778  0.00002290  1
  Cu  Cu68  1  0.00210772  0.22106613  0.03675557  1
  Sb  Sb0  1  0.99985611  0.99987071  0.74330038  1
  Sb  Sb1  1  0.99984229  0.99985963  0.90991255  1
  Sb  Sb2  1  0.45962893  0.99989924  0.83332441  1
  Sb  Sb3  1  0.54040131  0.54037241  0.92341546  1
  Sb  Sb4  1  0.99987289  0.45983323  0.66667301  1
  Sb  Sb5  1  0.45988609  0.99989671  0.66666983  1
  Sb  Sb6  1  0.99967702  0.99985914  0.57656200  1
  Sb  Sb7  1  0.54016162  0.54014364  0.75670642  1
  Sb  Sb8  1  0.99982142  0.46020431  0.49914767  1
  Sb  Sb9  1  0.45999548  0.99453655  0.49998735  1
  Sb  Sb10  1  0.00504402  0.00510502  0.24411412  1
  Sb  Sb11  1  0.99996279  0.45970935  0.83333220  1
  Sb  Sb12  1  0.00504600  0.00505507  0.41080310  1
  Sb  Sb13  1  0.00000315  0.45979808  0.33250178  1
  Sb  Sb14  1  0.54018799  0.54019981  0.59002436  1
  Sb  Sb15  1  0.45970063  0.99471227  0.33331453  1
  Sb  Sb16  1  0.00511567  0.00514734  0.07748798  1
  Sb  Sb17  1  0.00000572  0.45973794  0.16583246  1
  Sb  Sb18  1  0.53486998  0.53997951  0.42337027  1
  Sb  Sb19  1  0.45965083  0.99467013  0.16666952  1
  Sb  Sb20  1  0.00007018  0.45920700  0.00002745  1
  Sb  Sb21  1  0.53505643  0.54016791  0.25674259  1
  Sb  Sb22  1  0.53519410  0.54034838  0.09008893  1
  Sb  Sb23  1  0.45936067  0.00008515  0.00000908  1
  S  S0  1  0.00017093  0.74965916  0.92014380  1
  S  S1  1  0.00015881  0.52088175  0.95826256  1
  S  S2  1  0.25058416  0.25047078  0.96190050  1
  S  S3  1  0.00013878  0.52116674  0.79166392  1
  S  S4  1  0.00017999  0.75002805  0.75353533  1
  S  S5  1  0.25043721  0.77123600  0.87505640  1
  S  S6  1  0.22871939  0.47933938  0.91320901  1
  S  S7  1  0.47926936  0.22879211  0.91320707  1
  S  S8  1  0.25023771  0.25029501  0.79523473  1
  S  S9  1  0.47903841  0.47905729  0.87142084  1
  S  S10  1  0.00005441  0.52113173  0.62500411  1
  S  S11  1  0.25029290  0.77131719  0.70839528  1
  S  S12  1  0.22884054  0.47923138  0.74653152  1
  S  S13  1  0.52103561  0.00005141  0.79164935  1
  S  S14  1  0.52089184  0.74960349  0.83334115  1
  S  S15  1  0.52079592  0.00007934  0.95825549  1
  S  S16  1  0.99991304  0.00017595  0.50007136  1
  S  S17  1  0.47894506  0.47893784  0.70480320  1
  S  S18  1  0.47910092  0.22882974  0.74651591  1
  S  S19  1  0.25016161  0.25020247  0.62859132  1
  S  S20  1  0.25040608  0.77149081  0.54181426  1
  S  S21  1  0.22881159  0.47904950  0.57983331  1
  S  S22  1  0.74959104  0.00007295  0.92013211  1
  S  S23  1  0.74961892  0.52090538  0.83333132  1
  S  S24  1  0.52107793  0.74983756  0.66668314  1
  S  S25  1  0.77132687  0.25052758  0.87508206  1
  S  S26  1  0.99989656  0.99985445  0.83333309  1
  S  S27  1  0.47908769  0.22892547  0.57983119  1
  S  S28  1  0.47883661  0.47906032  0.53816844  1
  S  S29  1  0.24852123  0.24802416  0.46157886  1
  S  S30  1  0.99921383  0.74820906  0.25333722  1
  S  S31  1  0.99954164  0.52090725  0.29191223  1
  S  S32  1  0.25064244  0.77184689  0.37511701  1
  S  S33  1  0.74999493  0.00008602  0.75353477  1
  S  S34  1  0.23073950  0.47911198  0.41310043  1
  S  S35  1  0.74990977  0.52114042  0.66667703  1
  S  S36  1  0.52131044  0.00029277  0.45824274  1
  S  S37  1  0.77137937  0.25024158  0.70837011  1
  S  S38  1  0.52120755  0.00007654  0.62501141  1
  S  S39  1  0.52141968  0.75211905  0.50003859  1
  S  S40  1  0.99991311  -0.00006471  0.66667615  1
  S  S41  1  0.24866289  0.24814158  0.29491967  1
  S  S42  1  0.47911678  0.22835574  0.41310947  1
  S  S43  1  0.00015286  0.75015097  0.58688471  1
  S  S44  1  0.47995217  0.47913220  0.37134809  1
  S  S45  1  0.99927356  0.74744711  0.08660493  1
  S  S46  1  0.99931710  0.52058694  0.12514684  1
  S  S47  1  0.25075613  0.77186504  0.20848209  1
  S  S48  1  0.75008228  0.00026458  0.58696049  1
  S  S49  1  0.23060134  0.47926747  0.24646735  1
  S  S50  1  0.74913267  0.52087805  0.50009434  1
  S  S51  1  0.77204468  0.25179723  0.54177476  1
  S  S52  1  0.52144913  0.75203915  0.33341107  1
  S  S53  1  0.47979989  0.47897840  0.20462163  1
  S  S54  1  0.99919601  0.74842663  0.42001790  1
  S  S55  1  0.24919952  0.24836284  0.12825461  1
  S  S56  1  0.99933624  0.52075219  0.45857076  1
  S  S57  1  0.47916189  0.22823151  0.24648430  1
  S  S58  1  0.25046922  0.77146186  0.04168746  1
  S  S59  1  0.74922439  0.99984773  0.42014611  1
  S  S60  1  0.23060658  0.47942502  0.07977661  1
  S  S61  1  0.74911413  0.52099496  0.33346475  1
  S  S62  1  0.52117643  0.00031846  0.29157928  1
  S  S63  1  0.77181145  0.25181355  0.37513976  1
  S  S64  1  0.52126480  0.75171392  0.16672079  1
  S  S65  1  0.99997334  -0.00000376  0.33334640  1
  S  S66  1  0.99981659  0.99955003  0.99990464  1
  S  S67  1  0.47984976  0.47892663  0.03793256  1
  S  S68  1  0.47925900  0.22799163  0.07982058  1
  S  S69  1  0.74913020  0.99975899  0.25348368  1
  S  S70  1  0.74873399  0.52083575  0.16678602  1
  S  S71  1  0.52089375  0.00029256  0.12482046  1
  S  S72  1  0.52064444  0.74943529  0.00001898  1
  S  S73  1  0.77190814  0.25197433  0.20847291  1
  S  S74  1  0.99980950  0.99978463  0.16667677  1
  S  S75  1  0.74861358  0.99961067  0.08667592  1
  S  S76  1  0.74959558  0.52079315  0.00000664  1
  S  S77  1  0.77087745  0.25026176  0.04173630  1
loop_
_geom_bond_atom_site_label_1
_geom_bond_atom_site_label_2
_geom_bond_distance
_geom_bond_site_symmetry_2
Cu0 S0 2.254985 1_655
Cu0 S1 2.261886 1_655
Cu0 S66 2.264069 1_555
Cu1 S7 2.253529 1_555
Cu1 S5 2.260350 1_545
Cu1 S26 2.266221 1_445
Cu2 S5 2.309782 1_555
Cu2 S15 2.309925 1_565
Cu2 S6 2.315117 1_555
Cu2 S0 2.316072 1_555
Cu3 S6 2.307478 1_555
Cu3 S72 2.309140 1_556
Cu3 S1 2.314806 1_555
Cu3 S2 2.317014 1_555
Cu4 S9 2.254103 1_555
Cu4 S8 2.254258 1_555
Cu4 S26 2.278451 1_445
Cu5 S18 2.253490 1_555
Cu5 S11 2.259490 1_545
Cu5 S40 2.265339 1_455
Cu6 S22 2.307783 1_565
Cu6 S14 2.310485 1_555
Cu6 S5 2.315099 1_555
Cu6 S9 2.317291 1_555
Cu7 S11 2.309569 1_555
Cu7 S13 2.311542 1_565
Cu7 S12 2.315944 1_555
Cu7 S4 2.318477 1_555
Cu8 S7 2.307658 1_555
Cu8 S76 2.309776 1_556
Cu8 S15 2.315082 1_555
Cu8 S2 2.316544 1_555
Cu9 S12 2.308052 1_555
Cu9 S14 2.309251 1_555
Cu9 S3 2.317667 1_555
Cu9 S8 2.318240 1_555
Cu10 S19 2.252227 1_555
Cu10 S17 2.254507 1_555
Cu10 S40 2.277962 1_455
Cu11 S56 2.246383 1_555
Cu11 S54 2.261502 1_555
Cu11 S16 2.280947 1_565
Cu12 S27 2.255595 1_565
Cu12 S20 2.260785 1_555
Cu12 S16 2.262445 1_465
Cu13 S25 2.309502 1_555
Cu13 S1 2.311273 1_655
Cu13 S22 2.315234 1_555
Cu13 S7 2.315958 1_555
Cu14 S24 2.310711 1_555
Cu14 S33 2.311308 1_565
Cu14 S11 2.317194 1_555
Cu14 S17 2.318173 1_555
Cu15 S20 2.305051 1_555
Cu15 S38 2.312340 1_565
Cu15 S21 2.318245 1_555
Cu15 S43 2.319351 1_555
Cu16 S0 2.308500 1_655
Cu16 S23 2.310569 1_555
Cu16 S25 2.315093 1_555
Cu16 S9 2.317195 1_555
Cu17 S21 2.309188 1_555
Cu17 S24 2.310972 1_555
Cu17 S10 2.318336 1_555
Cu17 S19 2.319160 1_555
Cu18 S18 2.308587 1_555
Cu18 S23 2.310144 1_555
Cu18 S13 2.317291 1_555
Cu18 S8 2.319079 1_555
Cu19 S23 2.261740 1_555
Cu19 S14 2.262104 1_555
Cu19 S26 2.274838 1_555
Cu20 S33 2.251530 1_555
Cu20 S13 2.260445 1_555
Cu20 S26 2.265241 1_545
Cu21 S22 2.255300 1_555
Cu21 S15 2.261072 1_555
Cu21 S66 2.263447 1_545
Cu22 S42 2.251828 1_565
Cu22 S32 2.256723 1_555
Cu22 S65 2.264984 1_465
Cu23 S4 2.252523 1_555
Cu23 S3 2.260447 1_555
Cu23 S26 2.267994 1_455
Cu24 S31 2.246240 1_555
Cu24 S30 2.262290 1_555
Cu24 S65 2.277262 1_565
Cu25 S29 2.241568 1_555
Cu25 S28 2.262996 1_555
Cu25 S16 2.284573 1_455
Cu26 S37 2.311734 1_555
Cu26 S3 2.312793 1_655
Cu26 S18 2.317007 1_555
Cu26 S33 2.318014 1_555
Cu27 S39 2.300393 1_555
Cu27 S48 2.319788 1_565
Cu27 S28 2.322098 1_555
Cu27 S20 2.324352 1_555
Cu28 S34 2.305418 1_555
Cu28 S32 2.315942 1_555
Cu28 S36 2.318779 1_565
Cu28 S54 2.321182 1_455
Cu29 S27 2.309984 1_555
Cu29 S35 2.312410 1_555
Cu29 S38 2.318064 1_555
Cu29 S19 2.319469 1_555
Cu30 S35 2.310867 1_555
Cu30 S4 2.311043 1_655
Cu30 S17 2.317967 1_555
Cu30 S37 2.318054 1_555
Cu31 S6 2.254231 1_555
Cu31 S25 2.261312 1_455
Cu31 S26 2.269981 1_445
Cu32 S35 2.260496 1_555
Cu32 S24 2.260843 1_555
Cu32 S40 2.275202 1_565
Cu33 S43 2.251809 1_655
Cu33 S10 2.259827 1_655
Cu33 S40 2.269176 1_565
Cu34 S41 2.241988 1_555
Cu34 S44 2.264473 1_555
Cu34 S65 2.284015 1_455
Cu35 S57 2.253305 1_565
Cu35 S47 2.257561 1_555
Cu35 S74 2.264335 1_455
Cu36 S46 2.248675 1_555
Cu36 S45 2.263392 1_555
Cu36 S74 2.276561 1_555
Cu37 S51 2.313056 1_555
Cu37 S10 2.313314 1_655
Cu37 S48 2.318177 1_555
Cu37 S27 2.318299 1_555
Cu38 S52 2.299218 1_555
Cu38 S59 2.312151 1_555
Cu38 S44 2.320883 1_555
Cu38 S32 2.324023 1_555
Cu39 S50 2.302422 1_555
Cu39 S51 2.306699 1_555
Cu39 S43 2.314287 1_655
Cu39 S28 2.319026 1_555
Cu40 S49 2.304037 1_555
Cu40 S47 2.314215 1_555
Cu40 S62 2.318716 1_565
Cu40 S30 2.320370 1_455
Cu41 S29 2.306225 1_555
Cu41 S50 2.314334 1_555
Cu41 S42 2.318233 1_555
Cu41 S36 2.319331 1_555
Cu42 S48 2.246382 1_555
Cu42 S38 2.258909 1_555
Cu42 S40 2.266289 1_555
Cu43 S12 2.254911 1_555
Cu43 S37 2.258929 1_455
Cu43 S40 2.268552 1_455
Cu44 S39 2.246732 1_555
Cu44 S50 2.269078 1_555
Cu44 S16 2.282068 1_565
Cu45 S55 2.243621 1_555
Cu45 S53 2.263800 1_555
Cu45 S74 2.285752 1_445
Cu46 S68 2.249419 1_555
Cu46 S58 2.258518 1_545
Cu46 S66 2.268435 1_444
Cu47 S64 2.298358 1_555
Cu47 S69 2.312759 1_555
Cu47 S53 2.321072 1_555
Cu47 S47 2.323000 1_555
Cu48 S56 2.298394 1_555
Cu48 S63 2.314835 1_555
Cu48 S42 2.319990 1_555
Cu48 S59 2.323172 1_545
Cu49 S41 2.304977 1_555
Cu49 S61 2.314892 1_555
Cu49 S57 2.315293 1_555
Cu49 S62 2.320027 1_555
Cu50 S60 2.301114 1_555
Cu50 S45 2.315469 1_455
Cu50 S71 2.315572 1_565
Cu50 S58 2.321555 1_555
Cu51 S54 2.300804 1_555
Cu51 S61 2.302509 1_555
Cu51 S63 2.305912 1_555
Cu51 S44 2.307347 1_555
Cu52 S59 2.251631 1_555
Cu52 S36 2.257491 1_565
Cu52 S16 2.266575 1_565
Cu53 S52 2.247369 1_555
Cu53 S61 2.268727 1_555
Cu53 S65 2.283123 1_565
Cu54 S69 2.251614 1_555
Cu54 S62 2.258956 1_565
Cu54 S65 2.265384 1_565
Cu55 S21 2.254000 1_555
Cu55 S51 2.261269 1_455
Cu55 S16 2.264034 1_455
Cu56 S67 2.254853 1_555
Cu56 S2 2.254984 1_554
Cu56 S66 2.278246 1_444
Cu57 S75 2.301183 1_555
Cu57 S72 2.309730 1_555
Cu57 S58 2.315901 1_555
Cu57 S67 2.316283 1_555
Cu58 S31 2.299218 1_555
Cu58 S73 2.316166 1_555
Cu58 S57 2.319374 1_555
Cu58 S69 2.324244 1_545
Cu59 S30 2.300415 1_555
Cu59 S70 2.300751 1_555
Cu59 S73 2.304945 1_555
Cu59 S53 2.307593 1_555
Cu60 S55 2.299518 1_555
Cu60 S70 2.313577 1_555
Cu60 S68 2.315969 1_555
Cu60 S71 2.317394 1_555
Cu61 S34 2.239537 1_555
Cu61 S63 2.268992 1_455
Cu61 S65 2.276287 1_455
Cu62 S75 2.257155 1_555
Cu62 S71 2.261125 1_565
Cu62 S74 2.265258 1_555
Cu63 S64 2.247204 1_555
Cu63 S70 2.269742 1_555
Cu63 S74 2.281322 1_555
Cu64 S46 2.292544 1_555
Cu64 S77 2.314838 1_555
Cu64 S68 2.317534 1_555
Cu64 S75 2.321740 1_545
Cu65 S45 2.293390 1_555
Cu65 S67 2.308047 1_555
Cu65 S76 2.311118 1_555
Cu65 S77 2.315620 1_555
Cu66 S49 2.241270 1_555
Cu66 S73 2.268864 1_455
Cu66 S74 2.275909 1_445
Cu67 S76 2.263368 1_555
Cu67 S72 2.264448 1_555
Cu67 S66 2.275277 1_554
Cu68 S60 2.240285 1_555
Cu68 S77 2.270494 1_455
Cu68 S66 2.281389 1_444
S0 Sb1 2.489223 1_455
S1 Sb20 2.487760 1_556
S2 Sb1 2.482339 1_445
S3 Sb11 2.481834 1_455
S4 Sb0 2.486170 1_455
S5 Sb11 2.484511 1_455
S6 Sb3 2.490665 1_555
S7 Sb3 2.490324 1_555
S8 Sb0 2.479719 1_445
S9 Sb3 2.482228 1_555
S10 Sb4 2.481130 1_455
S11 Sb4 2.484174 1_455
S12 Sb7 2.488129 1_555
S13 Sb2 2.482958 1_545
S14 Sb2 2.488664 1_555
S15 Sb23 2.486900 1_556
S17 Sb7 2.477947 1_555
S18 Sb7 2.488346 1_555
S19 Sb6 2.482412 1_445
S20 Sb8 2.495352 1_455
S21 Sb14 2.487930 1_555
S22 Sb1 2.490329 1_545
S23 Sb11 2.488725 1_555
S24 Sb5 2.486208 1_555
S25 Sb2 2.485091 1_545
S27 Sb14 2.487885 1_555
S28 Sb14 2.475316 1_555
S29 Sb12 2.417867 1_555
S30 Sb10 2.507795 1_665
S31 Sb13 2.422168 1_655
S32 Sb13 2.498336 1_555
S33 Sb0 2.487320 1_545
S34 Sb18 2.423826 1_555
S35 Sb4 2.485958 1_555
S36 Sb9 2.498196 1_545
S37 Sb5 2.482856 1_545
S38 Sb5 2.481737 1_545
S39 Sb9 2.420603 1_555
S41 Sb10 2.419135 1_555
S42 Sb18 2.501483 1_555
S43 Sb6 2.487768 1_455
S44 Sb18 2.498586 1_555
S45 Sb16 2.511942 1_665
S46 Sb17 2.425518 1_655
S47 Sb17 2.499363 1_555
S48 Sb6 2.490007 1_545
S49 Sb21 2.426545 1_555
S50 Sb8 2.501594 1_555
S51 Sb9 2.501490 1_545
S52 Sb15 2.424934 1_555
S53 Sb21 2.502351 1_555
S54 Sb12 2.505169 1_665
S55 Sb16 2.419354 1_555
S56 Sb8 2.418790 1_555
S57 Sb21 2.503957 1_555
S58 Sb20 2.487041 1_555
S59 Sb12 2.503995 1_665
S60 Sb22 2.427210 1_555
S61 Sb13 2.505982 1_655
S62 Sb15 2.498115 1_545
S63 Sb15 2.501846 1_545
S64 Sb19 2.426234 1_555
S67 Sb22 2.503560 1_555
S68 Sb22 2.507453 1_555
S69 Sb10 2.505273 1_665
S70 Sb17 2.508773 1_655
S71 Sb19 2.503070 1_545
S72 Sb23 2.491792 1_565
S73 Sb19 2.502732 1_545
S75 Sb16 2.505052 1_665
S76 Sb20 2.491459 1_655
S77 Sb23 2.482939 1_555
