# generated using pymatgen
data_SbSe5F6
_symmetry_space_group_name_H-M   'P 1'
_cell_length_a   14.45490368
_cell_length_b   16.68064341
_cell_length_c   20.34785957
_cell_angle_alpha   90.00000000
_cell_angle_beta   109.84544428
_cell_angle_gamma   90.00000000
_symmetry_Int_Tables_number   1
_chemical_formula_structural   SbSe5F6
_chemical_formula_sum   'Sb16 Se80 F96'
_cell_volume   4614.84539299
_cell_formula_units_Z   16
loop_
 _symmetry_equiv_pos_site_id
 _symmetry_equiv_pos_as_xyz
  1  'x, y, z'
loop_
 _atom_site_type_symbol
 _atom_site_label
 _atom_site_symmetry_multiplicity
 _atom_site_fract_x
 _atom_site_fract_y
 _atom_site_fract_z
 _atom_site_occupancy
  Sb  Sb0  1  0.48429147  0.31387006  0.03328685  1
  Sb  Sb1  1  0.60849622  0.06899613  0.37138506  1
  Sb  Sb2  1  0.51570853  0.68612994  0.96671315  1
  Sb  Sb3  1  0.10849622  0.43100387  0.37138506  1
  Sb  Sb4  1  0.89150378  0.56899613  0.62861494  1
  Sb  Sb5  1  0.39150378  0.93100387  0.62861494  1
  Sb  Sb6  1  0.66364897  0.40642233  0.36647673  1
  Sb  Sb7  1  0.98429147  0.18612994  0.03328685  1
  Sb  Sb8  1  0.53413878  0.59402880  0.14839810  1
  Sb  Sb9  1  0.03413878  0.90597120  0.14839810  1
  Sb  Sb10  1  0.96586122  0.09402880  0.85160190  1
  Sb  Sb11  1  0.33635103  0.59357767  0.63352327  1
  Sb  Sb12  1  0.01570853  0.81387006  0.96671315  1
  Sb  Sb13  1  0.46586122  0.40597120  0.85160190  1
  Sb  Sb14  1  0.83635103  0.90642233  0.63352327  1
  Sb  Sb15  1  0.16364897  0.09357767  0.36647673  1
  Se  Se0  1  0.46407647  0.23388435  0.15612832  1
  Se  Se1  1  0.73802377  0.81512418  0.26782042  1
  Se  Se2  1  0.72481277  0.38551250  0.09544397  1
  Se  Se3  1  0.85998027  0.61795441  0.39872928  1
  Se  Se4  1  0.37229652  0.83381688  0.29274899  1
  Se  Se5  1  0.85937247  0.73490702  0.45967171  1
  Se  Se6  1  0.46305382  0.25650023  0.48205025  1
  Se  Se7  1  0.10266381  0.67356225  0.97554868  1
  Se  Se8  1  0.82854470  0.74234610  0.93549572  1
  Se  Se9  1  0.53592353  0.76611565  0.84387168  1
  Se  Se10  1  0.86790184  0.90226741  0.29171130  1
  Se  Se11  1  0.26469283  0.29662937  0.23676110  1
  Se  Se12  1  0.87229652  0.66618312  0.29274899  1
  Se  Se13  1  0.76664187  0.72102951  0.04768360  1
  Se  Se14  1  0.96407647  0.26611565  0.15612832  1
  Se  Se15  1  0.13209816  0.09773259  0.70828870  1
  Se  Se16  1  0.96305382  0.24349977  0.48205025  1
  Se  Se17  1  0.22481277  0.11448750  0.09544397  1
  Se  Se18  1  0.85444367  0.35001527  0.19378195  1
  Se  Se19  1  0.18800343  0.42963586  0.07574343  1
  Se  Se20  1  0.94253661  0.11237739  0.53759758  1
  Se  Se21  1  0.23530717  0.79662937  0.76323890  1
  Se  Se22  1  0.55746339  0.61237739  0.46240242  1
  Se  Se23  1  0.26664187  0.77897049  0.04768360  1
  Se  Se24  1  0.14555633  0.64998473  0.80621805  1
  Se  Se25  1  0.85572247  0.12028757  0.19997851  1
  Se  Se26  1  0.64001973  0.11795441  0.60127072  1
  Se  Se27  1  0.59888366  0.43459522  0.58579738  1
  Se  Se28  1  0.46157750  0.22481746  0.65880645  1
  Se  Se29  1  0.14062753  0.26509298  0.54032829  1
  Se  Se30  1  0.23802377  0.68487582  0.26782042  1
  Se  Se31  1  0.60266381  0.82643775  0.97554868  1
  Se  Se32  1  0.30444505  0.40274185  0.99215288  1
  Se  Se33  1  0.90111634  0.93459522  0.41420262  1
  Se  Se34  1  0.03694618  0.75650023  0.51794975  1
  Se  Se35  1  0.14427753  0.87971243  0.80002149  1
  Se  Se36  1  0.05746339  0.88762261  0.46240242  1
  Se  Se37  1  0.35444367  0.14998473  0.19378195  1
  Se  Se38  1  0.89733619  0.32643775  0.02445132  1
  Se  Se39  1  0.09888366  0.06540478  0.58579738  1
  Se  Se40  1  0.23335813  0.27897049  0.95231640  1
  Se  Se41  1  0.39733619  0.17356225  0.02445132  1
  Se  Se42  1  0.68800343  0.07036414  0.07574343  1
  Se  Se43  1  0.76469283  0.20337063  0.23676110  1
  Se  Se44  1  0.39979771  0.16510567  0.55103149  1
  Se  Se45  1  0.67145530  0.24234610  0.06450428  1
  Se  Se46  1  0.44253661  0.38762261  0.53759758  1
  Se  Se47  1  0.12770348  0.33381688  0.70725101  1
  Se  Se48  1  0.73335813  0.22102951  0.95231640  1
  Se  Se49  1  0.89979871  0.33489433  0.55103149  1
  Se  Se50  1  0.40111634  0.56540478  0.41420262  1
  Se  Se51  1  0.76197623  0.31512418  0.73217958  1
  Se  Se52  1  0.36790184  0.59773259  0.29171130  1
  Se  Se53  1  0.14001973  0.38204559  0.60127072  1
  Se  Se54  1  0.35998027  0.88204559  0.39872928  1
  Se  Se55  1  0.73530717  0.70337063  0.76323890  1
  Se  Se56  1  0.26197623  0.18487582  0.73217958  1
  Se  Se57  1  0.03592353  0.73388435  0.84387168  1
  Se  Se58  1  0.62770348  0.16618312  0.70725101  1
  Se  Se59  1  0.03842250  0.72481746  0.34119355  1
  Se  Se60  1  0.19555495  0.90274185  0.00784712  1
  Se  Se61  1  0.64427753  0.62028757  0.80002149  1
  Se  Se62  1  0.81199657  0.57036414  0.92425557  1
  Se  Se63  1  0.69555495  0.59725815  0.00784712  1
  Se  Se64  1  0.77518723  0.88551250  0.90455603  1
  Se  Se65  1  0.64062753  0.23490702  0.54032829  1
  Se  Se66  1  0.17145530  0.25765390  0.06450428  1
  Se  Se67  1  0.60020129  0.83489433  0.44896851  1
  Se  Se68  1  0.80444505  0.09725815  0.99215288  1
  Se  Se69  1  0.53694618  0.74349977  0.51794975  1
  Se  Se70  1  0.53842250  0.77518254  0.34119355  1
  Se  Se71  1  0.64555633  0.85001527  0.80621805  1
  Se  Se72  1  0.96157750  0.27518254  0.65880645  1
  Se  Se73  1  0.63209816  0.40226741  0.70828870  1
  Se  Se74  1  0.32854470  0.75765390  0.93549572  1
  Se  Se75  1  0.35937247  0.76509298  0.45967171  1
  Se  Se76  1  0.27518723  0.61448750  0.90455603  1
  Se  Se77  1  0.10020229  0.66510567  0.44896851  1
  Se  Se78  1  0.31199657  0.92963586  0.92425557  1
  Se  Se79  1  0.35572247  0.37971243  0.19997851  1
  F  F0  1  0.90786559  0.84802308  0.58390844  1
  F  F1  1  0.09276548  0.13753728  0.86210785  1
  F  F2  1  0.22570945  0.66400750  0.59385960  1
  F  F3  1  0.26335230  0.53567774  0.68128410  1
  F  F4  1  0.93884380  0.18973485  0.89970989  1
  F  F5  1  0.35339434  0.13923168  0.93144295  1
  F  F6  1  0.99983946  0.99535107  0.81809154  1
  F  F7  1  0.88586335  0.83647833  0.71276645  1
  F  F8  1  0.65650648  0.72326329  0.67531133  1
  F  F9  1  0.49983946  0.50464893  0.81809154  1
  F  F10  1  0.44761124  0.52332183  0.66909312  1
  F  F11  1  0.96893661  0.66510936  0.64381687  1
  F  F12  1  0.50016054  0.49535107  0.18190846  1
  F  F13  1  0.18371352  0.52970015  0.38556971  1
  F  F14  1  0.63829922  0.09011444  0.28810271  1
  F  F15  1  0.72616465  0.12579781  0.42474219  1
  F  F16  1  0.58024942  0.04917480  0.45609330  1
  F  F17  1  0.39805681  0.93675363  0.87699031  1
  F  F18  1  0.50721066  0.99004464  0.68053305  1
  F  F19  1  0.86170078  0.59011444  0.71189729  1
  F  F20  1  0.13483384  0.61923730  0.22407598  1
  F  F21  1  0.36170078  0.90988556  0.71189729  1
  F  F22  1  0.21516266  0.02420534  0.44608881  1
  F  F23  1  0.38776917  0.81837808  0.09936750  1
  F  F24  1  0.40786559  0.65197692  0.58390844  1
  F  F25  1  0.60194319  0.06324637  0.12300969  1
  F  F26  1  0.83792839  0.05474637  0.84291871  1
  F  F27  1  0.10194319  0.43675363  0.12300969  1
  F  F28  1  0.08756779  0.85477477  0.23705647  1
  F  F29  1  0.05238876  0.02332183  0.33090688  1
  F  F30  1  0.08024942  0.45082520  0.45609330  1
  F  F31  1  0.40723452  0.63753728  0.13789215  1
  F  F32  1  0.06115620  0.81026515  0.10029011  1
  F  F33  1  0.09737555  0.46728410  0.99701159  1
  F  F34  1  0.64660566  0.86076832  0.06855705  1
  F  F35  1  0.43884380  0.31026515  0.89970989  1
  F  F36  1  0.88776917  0.68162192  0.09936750  1
  F  F37  1  0.73664770  0.46432326  0.31871590  1
  F  F38  1  0.81628648  0.47029985  0.61443029  1
  F  F39  1  0.59737555  0.03271590  0.99701159  1
  F  F40  1  0.84349352  0.22326329  0.32468867  1
  F  F41  1  0.86516616  0.38076270  0.77592402  1
  F  F42  1  0.71516266  0.47579466  0.44608881  1
  F  F43  1  0.85339434  0.36076832  0.93144295  1
  F  F44  1  0.90723452  0.86246272  0.13789215  1
  F  F45  1  0.51962391  0.44881506  0.94609267  1
  F  F46  1  0.41243221  0.35477477  0.76294353  1
  F  F47  1  0.09213441  0.15197692  0.41609156  1
  F  F48  1  0.63483384  0.88076270  0.22407598  1
  F  F49  1  0.98037609  0.94881506  0.05390733  1
  F  F50  1  0.77383535  0.62579781  0.57525781  1
  F  F51  1  0.55238876  0.47667817  0.33090688  1
  F  F52  1  0.99278934  0.49004464  0.31946695  1
  F  F53  1  0.56115620  0.68973485  0.10029011  1
  F  F54  1  0.72570945  0.83599250  0.59385960  1
  F  F55  1  0.34349352  0.27673671  0.32468867  1
  F  F56  1  0.36516616  0.11923730  0.77592402  1
  F  F57  1  0.41975058  0.95082520  0.54390670  1
  F  F58  1  0.53106339  0.16510936  0.35618313  1
  F  F59  1  0.59276548  0.36246272  0.86210785  1
  F  F60  1  0.77429055  0.33599250  0.40614040  1
  F  F61  1  0.28483734  0.52420534  0.55391119  1
  F  F62  1  0.13829922  0.40988556  0.28810271  1
  F  F63  1  0.03106339  0.33489064  0.35618313  1
  F  F64  1  0.61413665  0.33647833  0.28723355  1
  F  F65  1  0.22616465  0.37420219  0.42474219  1
  F  F66  1  0.66207161  0.55474637  0.15708129  1
  F  F67  1  0.33792839  0.44525363  0.84291871  1
  F  F68  1  0.23664770  0.03567674  0.31871590  1
  F  F69  1  0.01962391  0.05118494  0.94609267  1
  F  F70  1  0.91243221  0.14522523  0.76294353  1
  F  F71  1  0.31628648  0.02970015  0.61443029  1
  F  F72  1  0.15650648  0.77673671  0.67531133  1
  F  F73  1  0.58756779  0.64522523  0.23705647  1
  F  F74  1  0.94761124  0.97667817  0.66909312  1
  F  F75  1  0.46893661  0.83489064  0.64381687  1
  F  F76  1  0.27383535  0.87420219  0.57525781  1
  F  F77  1  0.11413665  0.16352167  0.28723355  1
  F  F78  1  0.38586335  0.66352167  0.71276645  1
  F  F79  1  0.89805681  0.56324637  0.87699031  1
  F  F80  1  0.76335230  0.96432226  0.68128410  1
  F  F81  1  0.27429055  0.16400750  0.40614040  1
  F  F82  1  0.90262445  0.53271590  0.00298841  1
  F  F83  1  0.68371352  0.97029985  0.38556971  1
  F  F84  1  0.14660566  0.63923168  0.06855705  1
  F  F85  1  0.00721066  0.50995536  0.68053305  1
  F  F86  1  0.91975058  0.54917480  0.54390670  1
  F  F87  1  0.16207161  0.94525363  0.15708129  1
  F  F88  1  0.48037609  0.55118494  0.05390733  1
  F  F89  1  0.11223083  0.31837808  0.90063250  1
  F  F90  1  0.61223083  0.18162192  0.90063250  1
  F  F91  1  0.59213441  0.34802308  0.41609156  1
  F  F92  1  0.40262445  0.96728410  0.00298841  1
  F  F93  1  0.00016054  0.00464893  0.18190846  1
  F  F94  1  0.78483734  0.97579466  0.55391119  1
  F  F95  1  0.49278934  0.00995536  0.31946695  1
loop_
_geom_bond_atom_site_label_1
_geom_bond_atom_site_label_2
_geom_bond_distance
_geom_bond_site_symmetry_2
Sb0 Se41 2.633696 1_555
Sb0 Se45 2.824793 1_555
Sb0 Se32 2.859906 1_554
Sb0 Se0 2.934148 1_555
Sb2 Se31 2.633696 1_555
Sb2 Se74 2.824793 1_555
Sb2 Se63 2.859906 1_556
Sb2 Se9 2.934148 1_555
Sb7 Se38 2.633696 1_555
Sb7 Se66 2.824793 1_655
Sb7 Se68 2.859906 1_554
Sb7 Se14 2.934148 1_555
Sb12 Se7 2.633696 1_555
Sb12 Se8 2.824793 1_455
Sb12 Se60 2.859906 1_556
Sb12 Se57 2.934148 1_555
Se0 Se37 2.425155 1_555
Se0 Se41 2.714227 1_555
Se1 Se10 2.292197 1_555
Se2 Se45 2.522813 1_555
Se3 Se5 2.313220 1_555
Se4 Se54 2.364304 1_555
Se4 Se70 2.467289 1_555
Se6 Se65 2.461261 1_555
Se10 Se33 2.433320 1_555
Se11 Se79 2.209274 1_555
Se11 Se37 3.033442 1_555
Se12 Se3 2.364304 1_555
Se12 Se59 2.467289 1_655
Se13 Se63 2.325921 1_555
Se13 Se8 2.743188 1_554
Se14 Se18 2.425155 1_555
Se14 Se38 2.714227 1_555
Se15 Se56 2.292197 1_555
Se15 Se39 2.433320 1_555
Se16 Se49 2.449842 1_555
Se16 Se29 2.461261 1_655
Se16 Se20 2.525258 1_555
Se17 Se37 2.306485 1_555
Se17 Se66 2.522813 1_555
Se18 Se2 2.306485 1_555
Se18 Se43 3.033442 1_555
Se19 Se32 2.805541 1_554
Se19 Se66 2.881357 1_555
Se20 Se39 2.275610 1_655
Se21 Se35 2.209274 1_555
Se21 Se24 3.033442 1_555
Se22 Se50 2.275610 1_555
Se22 Se69 2.525258 1_555
Se23 Se60 2.325921 1_555
Se23 Se74 2.743188 1_554
Se24 Se76 2.306485 1_555
Se24 Se57 2.425155 1_555
Se25 Se43 2.209274 1_555
Se26 Se65 2.313220 1_555
Se26 Se58 2.364304 1_555
Se27 Se46 2.275610 1_555
Se27 Se73 2.433320 1_555
Se28 Se44 2.295449 1_555
Se28 Se58 2.467289 1_555
Se29 Se53 2.313220 1_555
Se30 Se52 2.292197 1_555
Se31 Se9 2.714227 1_555
Se32 Se40 2.325921 1_555
Se33 Se36 2.275610 1_655
Se34 Se77 2.449850 1_555
Se34 Se5 2.461261 1_455
Se34 Se36 2.525258 1_555
Se40 Se66 2.743188 1_556
Se42 Se68 2.805541 1_554
Se42 Se45 2.881357 1_555
Se44 Se6 2.449850 1_555
Se45 Se48 2.743188 1_554
Se46 Se6 2.525258 1_555
Se47 Se53 2.364304 1_555
Se47 Se72 2.467289 1_455
Se48 Se68 2.325921 1_555
Se49 Se72 2.295448 1_555
Se50 Se52 2.433320 1_555
Se51 Se73 2.292197 1_555
Se54 Se75 2.313220 1_555
Se55 Se61 2.209274 1_555
Se55 Se71 3.033442 1_555
Se57 Se7 2.714227 1_555
Se59 Se77 2.295449 1_555
Se60 Se78 2.805558 1_554
Se62 Se63 2.805558 1_556
Se62 Se8 2.881358 1_555
Se64 Se71 2.306485 1_555
Se64 Se8 2.522813 1_555
Se67 Se70 2.295448 1_555
Se67 Se69 2.449842 1_555
Se69 Se75 2.461261 1_555
Se71 Se9 2.425155 1_555
Se74 Se76 2.522813 1_555
Se74 Se78 2.881358 1_555
F0 Sb14 1.935287 1_555
F1 Sb10 1.916022 1_455
F2 Sb11 1.926907 1_555
F3 Sb11 1.920136 1_555
F4 Sb10 1.979629 1_555
F4 Sb7 2.571069 1_556
F5 Se41 1.869985 1_556
F6 Sb10 1.908638 1_565
F7 Sb14 1.920892 1_555
F8 Se55 1.795795 1_555
F9 Sb13 1.908638 1_555
F10 Sb11 1.921818 1_555
F11 Sb4 1.919310 1_555
F12 Sb8 1.908638 1_555
F13 Sb3 1.939776 1_555
F14 Sb1 1.917572 1_555
F15 Sb1 1.927609 1_555
F16 Sb1 1.929967 1_555
F17 Se78 1.816285 1_555
F18 Sb5 1.919278 1_555
F19 Sb4 1.917572 1_555
F20 Se30 1.820576 1_555
F21 Sb5 1.917572 1_555
F22 Sb15 1.923203 1_555
F23 Se23 1.831249 1_555
F24 Sb11 1.935287 1_555
F25 Se42 1.816301 1_555
F26 Sb10 1.912717 1_555
F27 Se19 1.816301 1_555
F28 Sb9 1.906366 1_555
F29 Sb15 1.921818 1_555
F30 Sb3 1.929967 1_555
F31 Sb8 1.916022 1_555
F32 Sb9 1.979629 1_555
F32 Sb12 2.571069 1_554
F33 Se19 1.803350 1_556
F34 Se31 1.869985 1_554
F35 Sb13 1.979629 1_555
F35 Sb0 2.571069 1_556
F36 Se13 1.831249 1_555
F37 Sb6 1.920145 1_555
F38 Sb4 1.939776 1_555
F39 Se42 1.803350 1_556
F40 Se43 1.795795 1_555
F41 Se51 1.820576 1_555
F42 Sb6 1.923203 1_555
F43 Se38 1.869985 1_556
F44 Sb9 1.916022 1_655
F45 Sb13 1.948562 1_555
F46 Sb13 1.906366 1_555
F47 Sb15 1.935287 1_555
F48 Se1 1.820576 1_555
F49 Sb9 1.948562 1_655
F50 Sb4 1.927609 1_555
F51 Sb6 1.921818 1_555
F52 Sb3 1.919278 1_655
F53 Sb8 1.979629 1_555
F53 Sb2 2.571069 1_554
F54 Sb14 1.926907 1_555
F55 Se11 1.795795 1_555
F56 Se56 1.820576 1_555
F57 Sb5 1.929967 1_555
F58 Sb1 1.919310 1_555
F59 Sb13 1.916022 1_555
F60 Sb6 1.926907 1_555
F61 Sb11 1.923203 1_555
F62 Sb3 1.917572 1_555
F63 Sb3 1.919310 1_555
F64 Sb6 1.920892 1_555
F65 Sb3 1.927609 1_555
F66 Sb8 1.912717 1_555
F67 Sb13 1.912717 1_555
F68 Sb15 1.920145 1_555
F69 Sb10 1.948562 1_455
F70 Sb10 1.906366 1_555
F71 Sb5 1.939776 1_545
F72 Se21 1.795795 1_555
F73 Sb8 1.906366 1_555
F74 Sb14 1.921818 1_555
F75 Sb5 1.919310 1_555
F76 Sb5 1.927609 1_555
F77 Sb15 1.920892 1_555
F78 Sb11 1.920892 1_555
F79 Se62 1.816285 1_555
F80 Sb14 1.920136 1_555
F81 Sb15 1.926907 1_555
F82 Se62 1.803363 1_554
F83 Sb1 1.939776 1_565
F84 Se7 1.869985 1_554
F85 Sb4 1.919278 1_455
F86 Sb4 1.929967 1_555
F87 Sb9 1.912717 1_555
F88 Sb8 1.948562 1_555
F89 Se40 1.831249 1_555
F90 Se48 1.831249 1_555
F91 Sb6 1.935287 1_555
F92 Se78 1.803363 1_554
F93 Sb9 1.908638 1_545
F94 Sb14 1.923203 1_555
F95 Sb1 1.919278 1_555
