# generated using pymatgen
data_As5Pb3S10
_symmetry_space_group_name_H-M   'P 1'
_cell_length_a   8.45186000
_cell_length_b   8.41436900
_cell_length_c   27.08260770
_cell_angle_alpha   84.48406990
_cell_angle_beta   90.00000000
_cell_angle_gamma   90.00000000
_symmetry_Int_Tables_number   1
_chemical_formula_structural   As5Pb3S10
_chemical_formula_sum   'As20 Pb12 S40'
_cell_volume   1917.11718865
_cell_formula_units_Z   4
loop_
 _symmetry_equiv_pos_site_id
 _symmetry_equiv_pos_as_xyz
  1  'x, y, z'
loop_
 _atom_site_type_symbol
 _atom_site_label
 _atom_site_symmetry_multiplicity
 _atom_site_fract_x
 _atom_site_fract_y
 _atom_site_fract_z
 _atom_site_occupancy
  As  As0  1  0.15292700  0.18547900  0.59298500  1
  As  As1  1  0.98934400  0.01828700  0.32127000  1
  As  As2  1  0.65360900  0.55381000  0.81910100  1
  As  As3  1  0.17309400  0.88793700  0.18005500  1
  As  As4  1  0.34802800  0.01509000  0.90856000  1
  As  As5  1  0.50732900  0.25078700  0.19198300  1
  As  As6  1  0.48934400  0.98171300  0.67873000  1
  As  As7  1  0.00732900  0.74921300  0.80801700  1
  As  As8  1  0.34623400  0.56489100  0.91168600  1
  As  As9  1  0.65292700  0.81452100  0.40701500  1
  As  As10  1  0.15198100  0.73469000  0.58698800  1
  As  As11  1  0.86229500  0.19993600  0.68058200  1
  As  As12  1  0.67309400  0.11206300  0.81994500  1
  As  As13  1  0.24091000  0.18272400  0.30424300  1
  As  As14  1  0.65198100  0.26531000  0.41301200  1
  As  As15  1  0.84802800  0.98491000  0.09144000  1
  As  As16  1  0.84623400  0.43510900  0.08831400  1
  As  As17  1  0.36229500  0.80006400  0.31941800  1
  As  As18  1  0.74091000  0.81727600  0.69575700  1
  As  As19  1  0.15360900  0.44619000  0.18089900  1
  Pb  Pb0  1  0.05490900  0.24593900  0.83184700  1
  Pb  Pb1  1  0.41526900  0.47736000  0.66520400  1
  Pb  Pb2  1  0.26814700  0.00660600  0.45729200  1
  Pb  Pb3  1  0.55490900  0.75406100  0.16815300  1
  Pb  Pb4  1  0.79601900  0.48145300  0.55075600  1
  Pb  Pb5  1  0.91526900  0.52264000  0.33479600  1
  Pb  Pb6  1  0.23665400  0.24210100  0.04291700  1
  Pb  Pb7  1  0.72133800  0.25462400  0.95467400  1
  Pb  Pb8  1  0.73665400  0.75789900  0.95708300  1
  Pb  Pb9  1  0.29601900  0.51854700  0.44924400  1
  Pb  Pb10  1  0.76814700  0.99339400  0.54270800  1
  Pb  Pb11  1  0.22133800  0.74537600  0.04532600  1
  S  S0  1  0.14173000  0.28835600  0.37079200  1
  S  S1  1  0.19406200  0.77947300  0.93440400  1
  S  S2  1  0.02226500  0.26576500  0.13554600  1
  S  S3  1  0.47575200  0.58253700  0.35771200  1
  S  S4  1  0.90146400  0.84883800  0.26163900  1
  S  S5  1  0.80048000  0.03411900  0.43565800  1
  S  S6  1  0.54082600  0.31204100  0.85606800  1
  S  S7  1  0.52226500  0.73423500  0.86445400  1
  S  S8  1  0.40146400  0.15116200  0.73836100  1
  S  S9  1  0.04082600  0.68795900  0.14393200  1
  S  S10  1  0.01057600  0.23901300  0.52211100  1
  S  S11  1  0.34788600  0.97279200  0.11841400  1
  S  S12  1  0.48495700  0.25007600  0.48045100  1
  S  S13  1  0.17529200  0.07548300  0.75334600  1
  S  S14  1  0.30048000  0.96588100  0.56434200  1
  S  S15  1  0.67529200  0.92451700  0.24665400  1
  S  S16  1  0.62226600  0.20287900  0.63470600  1
  S  S17  1  0.69358200  0.78928400  0.06855800  1
  S  S18  1  0.97575200  0.41746300  0.64228800  1
  S  S19  1  0.99288400  0.49586600  0.01825400  1
  S  S20  1  0.69406200  0.22052700  0.06559600  1
  S  S21  1  0.63084000  0.42465200  0.23914500  1
  S  S22  1  0.84788600  0.02720800  0.88158600  1
  S  S23  1  0.47781900  0.99780500  0.36162700  1
  S  S24  1  0.50786000  0.99599800  0.97710500  1
  S  S25  1  0.35894100  0.66071100  0.74806100  1
  S  S26  1  0.98495700  0.74992400  0.51954900  1
  S  S27  1  0.85894100  0.33928900  0.25193900  1
  S  S28  1  0.97781900  0.00219500  0.63837300  1
  S  S29  1  0.81191100  0.45698700  0.43625400  1
  S  S30  1  0.13084000  0.57534800  0.76085500  1
  S  S31  1  0.00786000  0.00400200  0.02289500  1
  S  S32  1  0.64173000  0.71164400  0.62920800  1
  S  S33  1  0.51057600  0.76098700  0.47788900  1
  S  S34  1  0.49288400  0.50413400  0.98174600  1
  S  S35  1  0.12226600  0.79712100  0.36529400  1
  S  S36  1  0.39052300  0.44056000  0.13586600  1
  S  S37  1  0.19358200  0.21071600  0.93144200  1
  S  S38  1  0.89052300  0.55944000  0.86413400  1
  S  S39  1  0.31191100  0.54301300  0.56374600  1
loop_
_geom_bond_atom_site_label_1
_geom_bond_atom_site_label_2
_geom_bond_distance
_geom_bond_site_symmetry_2
As0 S10 2.273436 1_555
As0 S28 2.390681 1_455
As0 S14 2.418026 1_545
As0 S18 2.887326 1_455
As1 S4 2.373894 1_545
As1 S35 2.391719 1_645
As1 As13 2.554439 1_655
As2 S7 2.324713 1_555
As2 S38 2.347395 1_555
As2 S6 2.378641 1_555
As3 S11 2.291290 1_555
As3 S9 2.314026 1_555
As4 S37 2.234645 1_555
As4 S24 2.288992 1_545
As4 S1 2.418074 1_545
As5 S21 2.284871 1_555
As5 S36 2.316826 1_555
As6 S8 2.373894 1_565
As6 S16 2.391719 1_565
As7 S30 2.284871 1_555
As7 S38 2.316826 1_455
As8 S34 2.282829 1_555
As8 S1 2.346562 1_555
As8 S7 2.351548 1_555
As9 S33 2.273436 1_555
As9 S23 2.390681 1_555
As9 S5 2.418026 1_565
As9 S3 2.887326 1_555
As10 S39 2.240479 1_555
As10 S26 2.302182 1_455
As10 S14 2.346559 1_555
As11 S18 2.231674 1_555
As11 S28 2.322540 1_555
As11 S16 2.377803 1_555
As12 S22 2.291290 1_555
As12 S6 2.314026 1_555
As13 S0 2.247000 1_555
As13 S23 2.894949 1_545
As14 S29 2.240479 1_555
As14 S12 2.302182 1_555
As14 S5 2.346559 1_555
As15 S17 2.234645 1_555
As15 S31 2.288992 1_665
As15 S20 2.418074 1_565
As16 S19 2.282829 1_555
As16 S20 2.346562 1_555
As16 S2 2.351548 1_655
As17 S3 2.231674 1_555
As17 S23 2.322540 1_555
As17 S35 2.377803 1_555
As18 S32 2.247000 1_555
As18 As6 2.554439 1_555
As18 S28 2.894949 1_565
As19 S2 2.324713 1_555
As19 S36 2.347395 1_555
As19 S9 2.378641 1_555
Pb0 S22 2.790499 1_455
Pb0 S13 2.863306 1_555
Pb0 S37 2.929715 1_555
Pb0 S38 3.177573 1_455
Pb1 S32 2.851420 1_555
Pb1 S25 2.882332 1_555
Pb1 S39 2.885584 1_555
Pb1 S16 3.073096 1_555
Pb1 S8 3.229132 1_555
Pb2 S12 2.862730 1_555
Pb2 S14 2.899385 1_545
Pb2 S33 2.925611 1_545
Pb2 S23 3.145682 1_545
Pb3 S11 2.790499 1_555
Pb3 S15 2.863306 1_555
Pb3 S17 2.929715 1_555
Pb3 S36 3.177573 1_555
Pb4 S26 2.828503 1_555
Pb4 S10 2.890681 1_655
Pb4 S18 2.913071 1_555
Pb4 S29 3.130404 1_555
Pb5 S0 2.851420 1_655
Pb5 S27 2.882332 1_555
Pb5 S29 2.885584 1_555
Pb5 S35 3.073096 1_655
Pb5 S4 3.229132 1_555
Pb6 S31 2.873332 1_555
Pb6 S19 2.996034 1_455
Pb6 S11 3.051025 1_545
Pb6 S37 3.077353 1_554
Pb6 S2 3.116443 1_555
Pb7 S24 2.847118 1_545
Pb7 S34 2.994907 1_555
Pb7 S20 2.999021 1_556
Pb7 S6 3.073212 1_555
Pb7 S22 3.074401 1_555
Pb8 S24 2.873332 1_555
Pb8 S34 2.996034 1_555
Pb8 S22 3.051025 1_565
Pb8 S17 3.077353 1_556
Pb8 S7 3.116443 1_555
Pb9 S12 2.828503 1_555
Pb9 S33 2.890681 1_555
Pb9 S3 2.913071 1_555
Pb9 S39 3.130404 1_555
Pb10 S26 2.862730 1_555
Pb10 S5 2.899385 1_565
Pb10 S10 2.925611 1_665
Pb10 S28 3.145682 1_565
Pb11 S31 2.847118 1_565
Pb11 S19 2.994907 1_455
Pb11 S1 2.999021 1_554
Pb11 S9 3.073212 1_555
Pb11 S11 3.074401 1_555
S13 S8 2.043193 1_555
S15 S4 2.043193 1_555
S21 S27 2.074812 1_555
S25 S30 2.074812 1_555
