# generated using pymatgen
data_ReH8(NCl3)2
_symmetry_space_group_name_H-M   'P 1'
_cell_length_a   7.08284680
_cell_length_b   7.08284680
_cell_length_c   7.08284680
_cell_angle_alpha   60.00000000
_cell_angle_beta   60.00000000
_cell_angle_gamma   60.00000000
_symmetry_Int_Tables_number   1
_chemical_formula_structural   ReH8(NCl3)2
_chemical_formula_sum   'Re1 H8 N2 Cl6'
_cell_volume   251.25143232
_cell_formula_units_Z   1
loop_
 _symmetry_equiv_pos_site_id
 _symmetry_equiv_pos_as_xyz
  1  'x, y, z'
loop_
 _atom_site_type_symbol
 _atom_site_label
 _atom_site_symmetry_multiplicity
 _atom_site_fract_x
 _atom_site_fract_y
 _atom_site_fract_z
 _atom_site_occupancy
  Re  Re0  1  0.00000000  0.00000000  0.00000000  1
  H  H0  1  0.69030300  0.69030300  0.92909100  1
  H  H1  1  0.69030300  0.92909100  0.69030300  1
  H  H2  1  0.92909100  0.69030300  0.69030300  1
  H  H3  1  0.69030300  0.69030300  0.69030300  1
  H  H4  1  0.30969700  0.30969700  0.07090900  1
  H  H5  1  0.30969700  0.07090900  0.30969700  1
  H  H6  1  0.07090900  0.30969700  0.30969700  1
  H  H7  1  0.30969700  0.30969700  0.30969700  1
  N  N0  1  0.75000000  0.75000000  0.75000000  1
  N  N1  1  0.25000000  0.25000000  0.25000000  1
  Cl  Cl0  1  0.76225700  0.76225700  0.23774300  1
  Cl  Cl1  1  0.23774300  0.76225700  0.23774300  1
  Cl  Cl2  1  0.76225700  0.23774300  0.23774300  1
  Cl  Cl3  1  0.23774300  0.23774300  0.76225700  1
  Cl  Cl4  1  0.76225700  0.23774300  0.76225700  1
  Cl  Cl5  1  0.23774300  0.76225700  0.76225700  1
loop_
_geom_bond_atom_site_label_1
_geom_bond_atom_site_label_2
_geom_bond_distance
_geom_bond_site_symmetry_2
H0 N0 1.035705 1_555
H1 N0 1.035705 1_555
H2 N0 1.035705 1_555
H3 N0 1.035705 1_555
H4 N1 1.035705 1_555
H5 N1 1.035705 1_555
H6 N1 1.035705 1_555
H7 N1 1.035705 1_555
Cl0 Re0 2.381390 1_665
Cl1 Re0 2.381390 1_565
Cl2 Re0 2.381390 1_655
Cl3 Re0 2.381390 1_556
Cl4 Re0 2.381390 1_656
Cl5 Re0 2.381390 1_566
