# generated using pymatgen
data_Rb3Nb2AsSe11
_symmetry_space_group_name_H-M   'P 1'
_cell_length_a   10.38301781
_cell_length_b   10.38301781
_cell_length_c   10.24509946
_cell_angle_alpha   83.62001290
_cell_angle_beta   83.62001290
_cell_angle_gamma   83.64248860
_symmetry_Int_Tables_number   1
_chemical_formula_structural   Rb3Nb2AsSe11
_chemical_formula_sum   'Rb6 Nb4 As2 Se22'
_cell_volume   1085.42994469
_cell_formula_units_Z   2
loop_
 _symmetry_equiv_pos_site_id
 _symmetry_equiv_pos_as_xyz
  1  'x, y, z'
loop_
 _atom_site_type_symbol
 _atom_site_label
 _atom_site_symmetry_multiplicity
 _atom_site_fract_x
 _atom_site_fract_y
 _atom_site_fract_z
 _atom_site_occupancy
  Rb  Rb0  1  0.51195400  0.35639400  0.93112100  1
  Rb  Rb1  1  0.98885100  0.14795300  0.01473500  1
  Rb  Rb2  1  0.75227700  0.88742200  0.68545800  1
  Rb  Rb3  1  0.35639400  0.51195400  0.43112100  1
  Rb  Rb4  1  0.88742200  0.75227700  0.18545800  1
  Rb  Rb5  1  0.14795300  0.98885100  0.51473500  1
  Nb  Nb0  1  0.79427100  0.24791500  0.41365300  1
  Nb  Nb1  1  0.24791500  0.79427100  0.91365300  1
  Nb  Nb2  1  0.49792900  0.90954500  0.09924900  1
  Nb  Nb3  1  0.90954500  0.49792900  0.59924900  1
  As  As0  1  0.12753300  0.44880600  0.86005100  1
  As  As1  1  0.44880600  0.12753300  0.36005100  1
  Se  Se0  1  0.57521000  0.66409700  0.15950900  1
  Se  Se1  1  0.39939300  0.89629100  0.71384000  1
  Se  Se2  1  0.35186800  0.02124000  0.89900200  1
  Se  Se3  1  0.27982700  0.59991100  0.75847200  1
  Se  Se4  1  0.82358600  0.23353800  0.66772100  1
  Se  Se5  1  0.90268600  0.53365200  0.85216300  1
  Se  Se6  1  0.66409700  0.57521000  0.65950900  1
  Se  Se7  1  0.53365200  0.90268600  0.35216300  1
  Se  Se8  1  0.23353800  0.82358600  0.16772100  1
  Se  Se9  1  0.03471000  0.87057400  0.85541300  1
  Se  Se10  1  0.22008600  0.60944300  0.10480200  1
  Se  Se11  1  0.68090100  0.02180500  0.01448200  1
  Se  Se12  1  0.10989000  0.32200700  0.67319500  1
  Se  Se13  1  0.72675100  0.52404400  0.43827400  1
  Se  Se14  1  0.87057400  0.03471000  0.35541300  1
  Se  Se15  1  0.52404400  0.72675100  0.93827400  1
  Se  Se16  1  0.89629100  0.39939300  0.21384000  1
  Se  Se17  1  0.60944300  0.22008600  0.60480200  1
  Se  Se18  1  0.32200700  0.10989000  0.17319500  1
  Se  Se19  1  0.02124000  0.35186800  0.39900200  1
  Se  Se20  1  0.59991100  0.27982700  0.25847200  1
  Se  Se21  1  0.02180500  0.68090100  0.51448200  1
loop_
_geom_bond_atom_site_label_1
_geom_bond_atom_site_label_2
_geom_bond_distance
_geom_bond_site_symmetry_2
Rb0 Se20 3.555420 1_556
Rb0 Se6 3.716654 1_555
Rb0 Se3 3.732903 1_555
Rb0 Se17 3.766516 1_555
Rb0 Se11 3.768216 1_556
Rb0 Se15 3.870399 1_555
Rb0 Se18 3.900176 1_556
Rb1 Se9 3.428402 1_644
Rb1 Se16 3.477441 1_555
Rb1 Se11 3.587388 1_555
Rb1 Se14 3.678023 1_555
Rb1 Se12 3.899934 1_654
Rb1 Se18 3.944651 1_655
Rb1 Se2 3.949559 1_654
Rb1 Se4 4.085282 1_554
Rb2 Se6 3.510061 1_555
Rb2 Se9 3.551829 1_655
Rb2 Se1 3.634884 1_555
Rb2 Se17 3.649155 1_565
Rb2 Se14 3.691155 1_565
Rb2 Se15 3.695754 1_555
Rb2 Se4 3.729657 1_565
Rb2 Se21 3.730205 1_655
Rb2 Se11 3.757665 1_566
Rb3 Se3 3.555420 1_555
Rb3 Se0 3.716654 1_555
Rb3 Se20 3.732903 1_555
Rb3 Se10 3.766516 1_555
Rb3 Se21 3.768216 1_555
Rb3 Se13 3.870399 1_555
Rb3 Se12 3.900176 1_555
Rb4 Se0 3.510061 1_555
Rb4 Se14 3.551829 1_565
Rb4 Se16 3.634884 1_555
Rb4 Se10 3.649155 1_655
Rb4 Se9 3.691155 1_654
Rb4 Se13 3.695754 1_555
Rb4 Se8 3.729657 1_655
Rb4 Se11 3.730205 1_565
Rb4 Se21 3.757665 1_655
Rb5 Se14 3.428402 1_465
Rb5 Se1 3.477441 1_555
Rb5 Se21 3.587388 1_555
Rb5 Se9 3.678023 1_555
Rb5 Se18 3.899934 1_565
Rb5 Se12 3.944651 1_565
Rb5 Se19 3.949559 1_565
Rb5 Se8 4.085282 1_555
Nb0 Se14 2.384176 1_555
Nb0 Se17 2.600623 1_555
Nb0 Se16 2.637780 1_555
Nb0 Se4 2.640066 1_555
Nb0 Se20 2.675402 1_555
Nb0 Se19 2.681397 1_655
Nb0 Se13 2.907128 1_555
Nb1 Se9 2.384176 1_555
Nb1 Se10 2.600623 1_556
Nb1 Se1 2.637780 1_555
Nb1 Se8 2.640066 1_556
Nb1 Se3 2.675402 1_555
Nb1 Se2 2.681397 1_565
Nb1 Se15 2.907128 1_555
Nb2 Se11 2.370829 1_565
Nb2 Se0 2.612922 1_555
Nb2 Se15 2.622578 1_554
Nb2 Se7 2.650157 1_555
Nb2 Se18 2.727413 1_565
Nb2 Se2 2.761694 1_564
Nb2 Se8 2.966506 1_555
Nb3 Se21 2.370829 1_655
Nb3 Se6 2.612922 1_555
Nb3 Se13 2.622578 1_555
Nb3 Se5 2.650157 1_555
Nb3 Se12 2.727413 1_655
Nb3 Se19 2.761694 1_655
Nb3 Se4 2.966506 1_555
As0 Se5 2.409057 1_455
As0 Se3 2.421943 1_555
As0 Se12 2.474496 1_555
As0 Rb1 3.705612 1_456
As1 Se7 2.409057 1_545
As1 Se20 2.421943 1_555
As1 Se18 2.474496 1_555
As1 Rb5 3.705612 1_545
Se0 Se15 2.388759 1_554
Se1 Se2 2.392148 1_565
Se10 Se8 2.405428 1_555
Se13 Se6 2.388759 1_555
Se16 Se19 2.392148 1_655
Se17 Se4 2.405428 1_555
