# generated using pymatgen
data_CeBi
_symmetry_space_group_name_H-M   'P 1'
_cell_length_a   3.52500000
_cell_length_b   4.23005400
_cell_length_c   4.23005400
_cell_angle_alpha   90.00000000
_cell_angle_beta   90.00000000
_cell_angle_gamma   90.00000000
_symmetry_Int_Tables_number   1
_chemical_formula_structural   CeBi
_chemical_formula_sum   'Ce1 Bi1'
_cell_volume   63.07408287
_cell_formula_units_Z   1
loop_
 _symmetry_equiv_pos_site_id
 _symmetry_equiv_pos_as_xyz
  1  'x, y, z'
loop_
 _atom_site_type_symbol
 _atom_site_label
 _atom_site_symmetry_multiplicity
 _atom_site_fract_x
 _atom_site_fract_y
 _atom_site_fract_z
 _atom_site_occupancy
  Ce  Ce0  1  0.50000000  0.00000000  0.00000000  1
  Bi  Bi0  1  0.00000000  0.50000000  0.50000000  1
loop_
_geom_bond_atom_site_label_1
_geom_bond_atom_site_label_2
_geom_bond_distance
_geom_bond_site_symmetry_2
Bi0 Ce0 3.471755 1_565
Bi0 Ce0 3.471755 1_455
Bi0 Ce0 3.471755 1_556
Bi0 Ce0 3.471755 1_555
Bi0 Ce0 3.471755 1_456
Bi0 Ce0 3.471755 1_566
Bi0 Ce0 3.471755 1_465
Bi0 Ce0 3.471755 1_466
