# generated using pymatgen
data_Lu2Si5Ru3
_symmetry_space_group_name_H-M   'P 1'
_cell_length_a   10.62483879
_cell_length_b   10.62483879
_cell_length_c   5.51605313
_cell_angle_alpha   90.00000000
_cell_angle_beta   90.00000000
_cell_angle_gamma   90.00000000
_symmetry_Int_Tables_number   1
_chemical_formula_structural   Lu2Si5Ru3
_chemical_formula_sum   'Lu8 Si20 Ru12'
_cell_volume   622.69178911
_cell_formula_units_Z   4
loop_
 _symmetry_equiv_pos_site_id
 _symmetry_equiv_pos_as_xyz
  1  'x, y, z'
loop_
 _atom_site_type_symbol
 _atom_site_label
 _atom_site_symmetry_multiplicity
 _atom_site_fract_x
 _atom_site_fract_y
 _atom_site_fract_z
 _atom_site_occupancy
  Lu  Lu0  1  0.92810643  0.23700724  0.00000000  1
  Lu  Lu1  1  0.73700724  0.42810643  0.50000000  1
  Lu  Lu2  1  0.76299276  0.92810643  0.00000000  1
  Lu  Lu3  1  0.42810643  0.26299276  0.50000000  1
  Lu  Lu4  1  0.23700724  0.07189357  0.00000000  1
  Lu  Lu5  1  0.57189357  0.73700724  0.50000000  1
  Lu  Lu6  1  0.26299276  0.57189357  0.50000000  1
  Lu  Lu7  1  0.07189357  0.76299276  0.00000000  1
  Si  Si0  1  0.67402387  0.17402387  0.75000000  1
  Si  Si1  1  0.17402387  0.32597613  0.25000000  1
  Si  Si2  1  0.32597613  0.82597613  0.25000000  1
  Si  Si3  1  0.81942244  0.47485824  0.00000000  1
  Si  Si4  1  0.31942244  0.02514176  0.50000000  1
  Si  Si5  1  0.50000000  0.50000000  0.74400625  1
  Si  Si6  1  0.52514176  0.81942244  0.00000000  1
  Si  Si7  1  0.50000000  0.50000000  0.25599375  1
  Si  Si8  1  0.68057756  0.97485824  0.50000000  1
  Si  Si9  1  0.17402387  0.32597613  0.75000000  1
  Si  Si10  1  0.97485824  0.31942244  0.50000000  1
  Si  Si11  1  0.18057756  0.52514176  0.00000000  1
  Si  Si12  1  0.47485824  0.18057756  0.00000000  1
  Si  Si13  1  -0.00000000  -0.00000000  0.24400625  1
  Si  Si14  1  0.82597613  0.67402387  0.25000000  1
  Si  Si15  1  0.02514176  0.68057756  0.50000000  1
  Si  Si16  1  0.82597613  0.67402387  0.75000000  1
  Si  Si17  1  -0.00000000  -0.00000000  0.75599375  1
  Si  Si18  1  0.32597613  0.82597613  0.75000000  1
  Si  Si19  1  0.67402387  0.17402387  0.25000000  1
  Ru  Ru0  1  0.62534532  0.35639741  0.00000000  1
  Ru  Ru1  1  0.12534532  0.14360259  0.50000000  1
  Ru  Ru2  1  0.85639741  0.12534532  0.50000000  1
  Ru  Ru3  1  0.37465468  0.64360259  0.00000000  1
  Ru  Ru4  1  0.50000000  -0.00000000  0.75000000  1
  Ru  Ru5  1  0.64360259  0.62534532  0.00000000  1
  Ru  Ru6  1  0.50000000  -0.00000000  0.25000000  1
  Ru  Ru7  1  0.35639741  0.37465468  0.00000000  1
  Ru  Ru8  1  0.87465468  0.85639741  0.50000000  1
  Ru  Ru9  1  -0.00000000  0.50000000  0.75000000  1
  Ru  Ru10  1  0.14360259  0.87465468  0.50000000  1
  Ru  Ru11  1  -0.00000000  0.50000000  0.25000000  1
loop_
_geom_bond_atom_site_label_1
_geom_bond_atom_site_label_2
_geom_bond_distance
_geom_bond_site_symmetry_2
Lu0 Si3 2.778457 1_555
Lu0 Si10 2.936020 1_555
Lu0 Si10 2.936020 1_554
Lu0 Si17 2.955708 1_654
Lu0 Si13 2.955708 1_655
Lu0 Ru2 3.097534 1_554
Lu0 Ru2 3.097534 1_555
Lu0 Si9 3.101956 1_654
Lu0 Si1 3.101956 1_655
Lu0 Si19 3.104393 1_555
Lu0 Si0 3.104393 1_554
Lu0 Ru9 3.208274 1_654
Lu0 Ru11 3.208274 1_655
Lu1 Si10 2.778457 1_555
Lu1 Si3 2.936020 1_555
Lu1 Si3 2.936020 1_556
Lu1 Si7 2.955708 1_555
Lu1 Si5 2.955708 1_555
Lu1 Ru0 3.097534 1_556
Lu1 Ru0 3.097534 1_555
Lu1 Si14 3.101956 1_555
Lu1 Si16 3.101956 1_555
Lu1 Si19 3.104393 1_555
Lu1 Si0 3.104393 1_555
Lu1 Ru9 3.208274 1_655
Lu1 Ru11 3.208274 1_655
Lu2 Si6 2.778457 1_555
Lu2 Si8 2.936020 1_554
Lu2 Si8 2.936020 1_555
Lu2 Si17 2.955708 1_664
Lu2 Si13 2.955708 1_665
Lu2 Ru8 3.097534 1_555
Lu2 Ru8 3.097534 1_554
Lu2 Si0 3.101956 1_564
Lu2 Si19 3.101956 1_565
Lu2 Si14 3.104393 1_555
Lu2 Si16 3.104393 1_554
Lu2 Ru4 3.208274 1_564
Lu2 Ru6 3.208274 1_565
Lu3 Si4 2.778457 1_555
Lu3 Si12 2.936020 1_556
Lu3 Si12 2.936020 1_555
Lu3 Si7 2.955708 1_555
Lu3 Si5 2.955708 1_555
Lu3 Ru7 3.097534 1_555
Lu3 Ru7 3.097534 1_556
Lu3 Si19 3.101956 1_555
Lu3 Si0 3.101956 1_555
Lu3 Si9 3.104393 1_555
Lu3 Si1 3.104393 1_555
Lu3 Ru4 3.208274 1_555
Lu3 Ru6 3.208274 1_555
Lu4 Si12 2.778457 1_555
Lu4 Si4 2.936020 1_555
Lu4 Si4 2.936020 1_554
Lu4 Si13 2.955708 1_555
Lu4 Si17 2.955708 1_554
Lu4 Ru1 3.097534 1_555
Lu4 Ru1 3.097534 1_554
Lu4 Si18 3.101956 1_544
Lu4 Si2 3.101956 1_545
Lu4 Si9 3.104393 1_554
Lu4 Si1 3.104393 1_555
Lu4 Ru4 3.208274 1_554
Lu4 Ru6 3.208274 1_555
Lu5 Si8 2.778457 1_555
Lu5 Si6 2.936020 1_556
Lu5 Si6 2.936020 1_555
Lu5 Si5 2.955708 1_555
Lu5 Si7 2.955708 1_555
Lu5 Ru5 3.097534 1_555
Lu5 Ru5 3.097534 1_556
Lu5 Si18 3.101956 1_555
Lu5 Si2 3.101956 1_555
Lu5 Si16 3.104393 1_555
Lu5 Si14 3.104393 1_555
Lu5 Ru4 3.208274 1_565
Lu5 Ru6 3.208274 1_565
Lu6 Si15 2.778457 1_555
Lu6 Si11 2.936020 1_556
Lu6 Si11 2.936020 1_555
Lu6 Si7 2.955708 1_555
Lu6 Si5 2.955708 1_555
Lu6 Ru3 3.097534 1_555
Lu6 Ru3 3.097534 1_556
Lu6 Si1 3.101956 1_555
Lu6 Si9 3.101956 1_555
Lu6 Si2 3.104393 1_555
Lu6 Si18 3.104393 1_555
Lu6 Ru11 3.208274 1_555
Lu6 Ru9 3.208274 1_555
Lu7 Si11 2.778457 1_555
Lu7 Si15 2.936020 1_554
Lu7 Si15 2.936020 1_555
Lu7 Si17 2.955708 1_564
Lu7 Si13 2.955708 1_565
Lu7 Ru10 3.097534 1_555
Lu7 Ru10 3.097534 1_554
Lu7 Si16 3.101956 1_454
Lu7 Si14 3.101956 1_455
Lu7 Si18 3.104393 1_554
Lu7 Si2 3.104393 1_555
Lu7 Ru11 3.208274 1_555
Lu7 Ru9 3.208274 1_554
Si0 Si12 2.526740 1_556
Si0 Si8 2.526740 1_545
Si0 Si19 2.758027 1_556
Si0 Si19 2.758027 1_555
Si1 Si11 2.526740 1_555
Si1 Si10 2.526740 1_455
Si1 Si9 2.758027 1_554
Si1 Si9 2.758027 1_555
Si2 Si4 2.526740 1_565
Si2 Si6 2.526740 1_555
Si5 Si7 2.691903 1_555
Si10 Si9 2.526740 1_655
Si11 Si9 2.526740 1_554
Si12 Si19 2.526740 1_555
Si13 Si17 2.691903 1_554
Si14 Si15 2.526740 1_655
Si14 Si3 2.526740 1_555
Si14 Si16 2.758027 1_554
Si14 Si16 2.758027 1_555
Si15 Si16 2.526740 1_455
Si16 Si3 2.526740 1_556
Si18 Si4 2.526740 1_565
Si18 Si6 2.526740 1_556
Si18 Si2 2.758027 1_555
Si18 Si2 2.758027 1_556
Si19 Si8 2.526740 1_545
Ru0 Si3 2.415811 1_555
Ru0 Si19 2.433889 1_555
Ru0 Si0 2.433889 1_554
Ru0 Si12 2.458887 1_555
Ru0 Si7 2.468907 1_555
Ru0 Si5 2.468907 1_554
Ru1 Si4 2.415811 1_555
Ru1 Si9 2.433889 1_555
Ru1 Si1 2.433889 1_555
Ru1 Si10 2.458887 1_455
Ru1 Si13 2.468907 1_555
Ru1 Si17 2.468907 1_555
Ru2 Si10 2.415811 1_555
Ru2 Si19 2.433889 1_555
Ru2 Si0 2.433889 1_555
Ru2 Si8 2.458887 1_545
Ru2 Si13 2.468907 1_655
Ru2 Si17 2.468907 1_655
Ru3 Si11 2.415811 1_555
Ru3 Si2 2.433889 1_555
Ru3 Si18 2.433889 1_554
Ru3 Si6 2.458887 1_555
Ru3 Si7 2.468907 1_555
Ru3 Si5 2.468907 1_554
Ru4 Si4 2.377833 1_555
Ru4 Si12 2.377833 1_556
Ru4 Si6 2.377833 1_546
Ru4 Si8 2.377833 1_545
Ru4 Si0 2.614846 1_555
Ru4 Si18 2.614846 1_545
Ru5 Si6 2.415811 1_555
Ru5 Si14 2.433889 1_555
Ru5 Si16 2.433889 1_554
Ru5 Si3 2.458887 1_555
Ru5 Si7 2.468907 1_555
Ru5 Si5 2.468907 1_554
Ru6 Si4 2.377833 1_555
Ru6 Si12 2.377833 1_555
Ru6 Si8 2.377833 1_545
Ru6 Si6 2.377833 1_545
Ru6 Si19 2.614846 1_555
Ru6 Si2 2.614846 1_545
Ru7 Si12 2.415811 1_555
Ru7 Si9 2.433889 1_554
Ru7 Si1 2.433889 1_555
Ru7 Si11 2.458887 1_555
Ru7 Si7 2.468907 1_555
Ru7 Si5 2.468907 1_554
Ru8 Si8 2.415811 1_555
Ru8 Si16 2.433889 1_555
Ru8 Si14 2.433889 1_555
Ru8 Si15 2.458887 1_655
Ru8 Si13 2.468907 1_665
Ru8 Si17 2.468907 1_665
Ru9 Si10 2.377833 1_455
Ru9 Si11 2.377833 1_556
Ru9 Si3 2.377833 1_456
Ru9 Si15 2.377833 1_555
Ru9 Si9 2.614846 1_555
Ru9 Si16 2.614846 1_455
Ru10 Si15 2.415811 1_555
Ru10 Si18 2.433889 1_555
Ru10 Si2 2.433889 1_555
Ru10 Si4 2.458887 1_565
Ru10 Si17 2.468907 1_565
Ru10 Si13 2.468907 1_565
Ru11 Si10 2.377833 1_455
Ru11 Si11 2.377833 1_555
Ru11 Si15 2.377833 1_555
Ru11 Si3 2.377833 1_455
Ru11 Si14 2.614846 1_455
Ru11 Si1 2.614846 1_555
