# generated using pymatgen
data_CeSiP3
_symmetry_space_group_name_H-M   'P 1'
_cell_length_a   5.67187500
_cell_length_b   5.85785100
_cell_length_c   24.57401000
_cell_angle_alpha   90.00000000
_cell_angle_beta   90.00000000
_cell_angle_gamma   90.00000000
_symmetry_Int_Tables_number   1
_chemical_formula_structural   CeSiP3
_chemical_formula_sum   'Ce8 Si8 P24'
_cell_volume   816.47144884
_cell_formula_units_Z   8
loop_
 _symmetry_equiv_pos_site_id
 _symmetry_equiv_pos_as_xyz
  1  'x, y, z'
loop_
 _atom_site_type_symbol
 _atom_site_label
 _atom_site_symmetry_multiplicity
 _atom_site_fract_x
 _atom_site_fract_y
 _atom_site_fract_z
 _atom_site_occupancy
  Ce  Ce0  1  0.75271900  0.52506100  0.09538900  1
  Ce  Ce1  1  0.75271900  0.02506100  0.40461100  1
  Ce  Ce2  1  0.25271900  0.97493900  0.59538900  1
  Ce  Ce3  1  0.25429000  0.02196800  0.08654400  1
  Ce  Ce4  1  0.75429000  0.47803200  0.58654400  1
  Ce  Ce5  1  0.25271900  0.47493900  0.90461100  1
  Ce  Ce6  1  0.25429000  0.52196800  0.41345600  1
  Ce  Ce7  1  0.75429000  0.97803200  0.91345600  1
  Si  Si0  1  0.33958100  0.55699300  0.70520500  1
  Si  Si1  1  0.83958100  0.94300700  0.20520500  1
  Si  Si2  1  0.83511700  0.38363500  0.79177900  1
  Si  Si3  1  0.83511700  0.88363500  0.70822100  1
  Si  Si4  1  0.33958100  0.05699300  0.79479500  1
  Si  Si5  1  0.33511700  0.61636500  0.20822100  1
  Si  Si6  1  0.33511700  0.11636500  0.29177900  1
  Si  Si7  1  0.83958100  0.44300700  0.29479500  1
  P  P0  1  0.74925000  0.52977400  0.37882800  1
  P  P1  1  0.72640300  0.58279000  0.21463700  1
  P  P2  1  0.24925000  0.97022600  0.87882800  1
  P  P3  1  0.22956400  0.98063200  0.20985300  1
  P  P4  1  0.72956400  0.51936800  0.70985300  1
  P  P5  1  0.55582900  0.80801800  0.49908500  1
  P  P6  1  0.24925000  0.47022600  0.62117200  1
  P  P7  1  0.74925000  0.02977400  0.12117200  1
  P  P8  1  0.96924200  0.31227100  0.00267200  1
  P  P9  1  0.46924200  0.18772900  0.50267200  1
  P  P10  1  0.74880300  0.98563300  0.62524500  1
  P  P11  1  0.22956400  0.48063200  0.29014700  1
  P  P12  1  0.05582900  0.69198200  0.99908500  1
  P  P13  1  0.72640300  0.08279000  0.28536300  1
  P  P14  1  0.24880300  0.51436700  0.12524500  1
  P  P15  1  0.74880300  0.48563300  0.87475500  1
  P  P16  1  0.22640300  0.41721000  0.78536300  1
  P  P17  1  0.22640300  0.91721000  0.71463700  1
  P  P18  1  0.05582900  0.19198200  0.50091500  1
  P  P19  1  0.24880300  0.01436700  0.37475500  1
  P  P20  1  0.55582900  0.30801800  0.00091500  1
  P  P21  1  0.96924200  0.81227100  0.49732800  1
  P  P22  1  0.72956400  0.01936800  0.79014700  1
  P  P23  1  0.46924200  0.68772900  0.99732800  1
loop_
_geom_bond_atom_site_label_1
_geom_bond_atom_site_label_2
_geom_bond_distance
_geom_bond_site_symmetry_2
Ce0 P8 2.872836 1_555
Ce0 P20 2.872877 1_555
Ce0 P14 2.908482 1_655
Ce0 P14 2.951479 1_555
Ce0 P1 2.953623 1_555
Ce0 P7 2.969759 1_555
Ce0 P7 3.023726 1_565
Ce0 P23 3.049601 1_554
Ce0 P12 3.084222 1_654
Ce1 P21 2.872836 1_545
Ce1 P5 2.872877 1_545
Ce1 P19 2.908482 1_655
Ce1 P19 2.951479 1_555
Ce1 P13 2.953623 1_555
Ce1 P0 2.969759 1_545
Ce1 P0 3.023726 1_555
Ce1 P9 3.049601 1_555
Ce1 P18 3.084222 1_655
Ce2 P9 2.872836 1_565
Ce2 P18 2.872877 1_565
Ce2 P10 2.908482 1_555
Ce2 P10 2.951479 1_455
Ce2 P17 2.953623 1_555
Ce2 P6 2.969759 1_565
Ce2 P6 3.023726 1_555
Ce2 P21 3.049601 1_455
Ce2 P5 3.084222 1_555
Ce3 P7 2.933841 1_555
Ce3 P7 2.988595 1_455
Ce3 P14 3.037303 1_555
Ce3 P3 3.043089 1_545
Ce3 P12 3.102054 1_544
Ce3 P14 3.121995 1_545
Ce3 P8 3.123106 1_455
Ce3 P23 3.182209 1_544
Ce3 P20 3.187588 1_555
Ce4 P6 2.933841 1_655
Ce4 P6 2.988595 1_555
Ce4 P10 3.037303 1_545
Ce4 P4 3.043089 1_555
Ce4 P5 3.102054 1_555
Ce4 P10 3.121995 1_555
Ce4 P9 3.123106 1_555
Ce4 P21 3.182209 1_555
Ce4 P18 3.187588 1_655
Ce5 P23 2.872836 1_555
Ce5 P12 2.872877 1_555
Ce5 P15 2.908482 1_555
Ce5 P15 2.951479 1_455
Ce5 P16 2.953623 1_555
Ce5 P2 2.969759 1_555
Ce5 P2 3.023726 1_545
Ce5 P8 3.049601 1_456
Ce5 P20 3.084222 1_556
Ce6 P0 2.933841 1_555
Ce6 P0 2.988595 1_455
Ce6 P19 3.037303 1_565
Ce6 P11 3.043089 1_555
Ce6 P18 3.102054 1_555
Ce6 P19 3.121995 1_555
Ce6 P21 3.123106 1_455
Ce6 P9 3.182209 1_555
Ce6 P5 3.187588 1_555
Ce7 P2 2.933841 1_655
Ce7 P2 2.988595 1_555
Ce7 P15 3.037303 1_555
Ce7 P22 3.043089 1_565
Ce7 P20 3.102054 1_566
Ce7 P15 3.121995 1_565
Ce7 P23 3.123106 1_555
Ce7 P8 3.182209 1_566
Ce7 P12 3.187588 1_655
P0 Si7 2.187504 1_555
P1 Si1 2.217726 1_555
P1 Si7 2.227708 1_555
P1 Si5 2.233595 1_555
P2 Si4 2.187504 1_565
P3 Si5 2.216580 1_555
P3 Si1 2.225821 1_455
P3 Si6 2.245838 1_565
P4 Si3 2.216580 1_555
P4 Si0 2.225821 1_555
P4 Si2 2.245838 1_555
P5 P9 2.279567 1_565
P6 Si0 2.187504 1_555
P7 Si1 2.187504 1_545
P10 Si3 2.180459 1_555
P11 Si6 2.216580 1_555
P11 Si7 2.225821 1_455
P11 Si5 2.245838 1_555
P12 P8 2.279567 1_456
P12 P23 2.345357 1_555
P13 Si7 2.217726 1_555
P13 Si1 2.227708 1_545
P13 Si6 2.233595 1_555
P14 Si5 2.180459 1_555
P15 Si2 2.180459 1_555
P16 Si4 2.217726 1_555
P16 Si0 2.227708 1_555
P16 Si2 2.233595 1_455
P17 Si0 2.217726 1_555
P17 Si4 2.227708 1_565
P17 Si3 2.233595 1_455
P18 P21 2.279567 1_445
P18 P9 2.345357 1_555
P19 Si6 2.180459 1_555
P20 P23 2.279567 1_554
P20 P8 2.345357 1_555
P21 P5 2.345357 1_555
P22 Si2 2.216580 1_555
P22 Si4 2.225821 1_555
P22 Si3 2.245838 1_545
