# generated using pymatgen
data_Sr10Mn5Zn9(AsO)10
_symmetry_space_group_name_H-M   'P 1'
_cell_length_a   26.34184330
_cell_length_b   12.43048988
_cell_length_c   11.90052127
_cell_angle_alpha   43.64111692
_cell_angle_beta   32.97099744
_cell_angle_gamma   25.82524808
_symmetry_Int_Tables_number   1
_chemical_formula_structural   Sr10Mn5Zn9(AsO)10
_chemical_formula_sum   'Sr10 Mn5 Zn9 As10 O10'
_cell_volume   915.63601511
_cell_formula_units_Z   1
loop_
 _symmetry_equiv_pos_site_id
 _symmetry_equiv_pos_as_xyz
  1  'x, y, z'
loop_
 _atom_site_type_symbol
 _atom_site_label
 _atom_site_symmetry_multiplicity
 _atom_site_fract_x
 _atom_site_fract_y
 _atom_site_fract_z
 _atom_site_occupancy
  Sr  Sr0  1  0.47086000  0.41494800  0.11710100  1
  Sr  Sr1  1  0.64288300  0.33119500  0.14450700  1
  Sr  Sr2  1  0.82352200  0.46478600  0.76600800  1
  Sr  Sr3  1  0.70784200  0.62700600  0.17257600  1
  Sr  Sr4  1  0.00396500  0.48758000  0.82608400  1
  Sr  Sr5  1  0.18402400  0.11969700  0.16737200  1
  Sr  Sr6  1  0.12235500  0.72004800  0.89205200  1
  Sr  Sr7  1  0.42785100  0.08830900  0.08694400  1
  Sr  Sr8  1  0.35187400  0.60825500  0.90328600  1
  Sr  Sr9  1  0.46069100  0.81753500  0.70723200  1
  Mn  Mn0  1  0.01649900  0.01781600  0.12151000  1
  Mn  Mn1  1  0.06888300  0.12678400  0.15777600  1
  Mn  Mn2  1  0.56385000  0.74366100  0.83598600  1
  Mn  Mn3  1  0.67995700  0.98790900  0.83580300  1
  Mn  Mn4  1  0.97712500  0.66908000  0.00422100  1
  Zn  Zn0  1  0.07622300  0.38411300  0.45528600  1
  Zn  Zn1  1  0.32416100  0.29020400  0.39625500  1
  Zn  Zn2  1  0.98871100  0.93687500  0.66582600  1
  Zn  Zn3  1  0.48605800  0.12730900  0.58354400  1
  Zn  Zn4  1  0.36256400  0.77612300  0.51413200  1
  Zn  Zn5  1  0.71291600  0.08231000  0.48123800  1
  Zn  Zn6  1  0.83684200  0.19820900  0.51306700  1
  Zn  Zn7  1  0.75595800  0.75833000  0.43340200  1
  Zn  Zn8  1  0.00483800  0.72124000  0.41867600  1
  As  As0  1  0.83789500  0.36542100  0.55181800  1
  As  As1  1  0.02502000  0.17905700  0.81922600  1
  As  As2  1  0.27655800  0.38420500  0.63442800  1
  As  As3  1  0.21288600  0.95554700  0.48264000  1
  As  As4  1  0.47537500  0.35632100  0.62301100  1
  As  As5  1  0.37036300  0.95028800  0.52292000  1
  As  As6  1  0.71814400  0.23584900  0.54078300  1
  As  As7  1  0.71793400  0.92824800  0.18882000  1
  As  As8  1  0.92949900  0.65946400  0.32785400  1
  As  As9  1  0.08735800  0.75355700  0.42856500  1
  O  O0  1  0.93266600  0.29645500  0.15009600  1
  O  O1  1  0.27668700  0.84173200  0.04345100  1
  O  O2  1  0.13521500  0.69745100  0.09835200  1
  O  O3  1  0.57716300  0.69665700  0.00420700  1
  O  O4  1  0.45652300  0.26992700  0.07904100  1
  O  O5  1  0.75256200  0.84689700  0.94515500  1
  O  O6  1  0.46198900  0.71023400  0.97875700  1
  O  O7  1  0.92146600  0.96221800  0.92240600  1
  O  O8  1  0.67738800  0.79129500  0.92489600  1
  O  O9  1  0.05685500  0.36985400  0.03369300  1
loop_
_geom_bond_atom_site_label_1
_geom_bond_atom_site_label_2
_geom_bond_distance
_geom_bond_site_symmetry_2
Sr2 Zn0 3.322460 1_655
Sr6 Zn3 3.550856 1_555
Sr7 Zn0 3.524014 1_555
Sr9 Zn3 3.495549 1_565
Mn0 O2 1.853930 1_545
Mn0 O0 1.914214 1_455
Mn1 O1 1.983418 1_545
Mn1 O0 1.994755 1_455
Mn1 O9 2.003547 1_555
Mn2 O3 1.894250 1_556
Mn2 O6 1.896047 1_555
Mn2 Zn3 2.822697 1_565
Mn3 O5 1.806439 1_555
Mn3 O8 1.878502 1_555
Mn3 O4 2.065405 1_566
Mn4 O9 1.911366 1_655
Mn4 O7 2.004428 1_554
Zn0 Zn8 2.415189 1_555
Zn3 Zn7 2.572644 1_545
As0 Zn6 2.458921 1_555
As0 Zn2 2.546628 1_545
As0 Mn2 2.569716 1_555
As0 Zn7 2.581218 1_555
As0 Mn1 2.752564 1_655
As0 Sr2 3.203416 1_555
As1 Mn0 2.455176 1_556
As1 As3 2.519686 1_545
As1 Zn0 2.735646 1_555
As1 Zn4 3.050865 1_545
As1 Sr2 3.104062 1_455
As1 Sr3 3.111402 1_456
As1 Sr6 3.180422 1_545
As1 Sr4 3.401477 1_555
As2 Zn3 2.546626 1_555
As2 Zn1 2.676507 1_555
As2 Mn4 2.854932 1_456
As2 Sr6 3.229318 1_555
As2 Sr9 3.256548 1_545
As2 Sr0 3.389640 1_555
As3 Zn4 2.469625 1_555
As3 Zn0 2.525212 1_565
As3 Sr5 3.119457 1_565
As3 Sr6 3.228611 1_555
As3 Sr2 3.552398 1_465
As4 Zn5 2.415928 1_555
As4 Zn4 2.549178 1_555
As4 Zn3 2.945318 1_555
As4 Sr1 3.150817 1_555
As4 Sr8 3.175898 1_555
As4 Sr7 3.526685 1_556
As4 Sr6 3.531670 1_555
As5 Zn4 2.429944 1_555
As5 Zn1 2.491755 1_565
As5 Sr9 3.105688 1_555
As5 Sr3 3.210593 1_555
As5 Sr7 3.281196 1_565
As5 Sr8 3.313204 1_555
As5 Sr4 3.343468 1_565
As6 Zn6 2.442005 1_555
As6 Zn5 2.599635 1_555
As6 Mn3 2.613669 1_545
As6 Zn8 2.852385 1_645
As6 Mn0 3.072105 1_655
As6 Sr3 3.420351 1_555
As6 Sr8 3.433489 1_555
As6 Sr9 3.479934 1_555
As7 Zn7 2.474159 1_555
As7 Zn3 2.639870 1_565
As7 Mn4 2.701727 1_555
As7 Sr1 3.061767 1_565
As7 Sr0 3.263533 1_565
As7 Sr4 3.280205 1_654
As8 Zn5 2.436459 1_565
As8 Zn7 2.543920 1_555
As8 Zn0 2.731244 1_655
As8 Mn4 2.813877 1_555
As8 Sr5 3.113629 1_655
As8 Sr6 3.209289 1_654
As8 Sr2 3.211340 1_555
As9 Zn2 2.501787 1_455
As9 Zn6 2.521074 1_465
As9 Zn1 2.594978 1_555
As9 Zn8 2.640075 1_555
O0 Zn6 2.478152 1_555
O0 Sr4 2.581183 1_654
O0 Sr3 2.674533 1_555
O1 Sr9 2.483960 1_554
O1 Sr5 2.494691 1_565
O1 Sr8 2.498696 1_554
O1 Sr0 2.648905 1_555
O2 Zn8 2.061626 1_555
O2 Sr6 2.539115 1_554
O3 Sr2 2.396500 1_554
O3 Sr7 2.471648 1_565
O3 Sr1 2.477084 1_555
O4 Zn1 2.044841 1_555
O4 Sr8 2.394318 1_554
O4 Sr0 2.508354 1_555
O4 Sr7 2.884297 1_555
O5 Sr3 2.433908 1_556
O5 Sr4 2.445247 1_655
O6 Sr9 2.467134 1_555
O6 Sr5 2.534654 1_566
O6 Sr0 2.567683 1_556
O7 Zn2 1.967943 1_555
O7 Sr1 2.506573 1_566
O7 Sr6 2.623760 1_655
O8 Sr2 2.373693 1_555
O8 Sr3 2.409960 1_556
O8 Sr7 2.429751 1_566
O9 Sr5 2.539898 1_555
O9 Sr4 2.656866 1_554
