# generated using pymatgen
data_MnH9C4NO6
_symmetry_space_group_name_H-M   'P 1'
_cell_length_a   8.33647350
_cell_length_b   11.87215802
_cell_length_c   8.35975897
_cell_angle_alpha   90.00000000
_cell_angle_beta   90.00000000
_cell_angle_gamma   90.00000000
_symmetry_Int_Tables_number   1
_chemical_formula_structural   MnH9C4NO6
_chemical_formula_sum   'Mn4 H36 C16 N4 O24'
_cell_volume   827.38148637
_cell_formula_units_Z   4
loop_
 _symmetry_equiv_pos_site_id
 _symmetry_equiv_pos_as_xyz
  1  'x, y, z'
loop_
 _atom_site_type_symbol
 _atom_site_label
 _atom_site_symmetry_multiplicity
 _atom_site_fract_x
 _atom_site_fract_y
 _atom_site_fract_z
 _atom_site_occupancy
  Mn  Mn0  1  0.00000000  0.50000000  0.00000000  1
  Mn  Mn1  1  0.50000000  0.50000000  0.50000000  1
  Mn  Mn2  1  0.00000000  0.00000000  0.00000000  1
  Mn  Mn3  1  0.50000000  0.00000000  0.50000000  1
  H  H0  1  0.28375565  0.46759413  0.22182689  1
  H  H1  1  0.21624435  0.53240587  0.72182689  1
  H  H2  1  0.71624435  0.96759413  0.77817311  1
  H  H3  1  0.78375565  0.03240587  0.27817311  1
  H  H4  1  0.71624435  0.53240587  0.77817311  1
  H  H5  1  0.78375565  0.46759413  0.27817311  1
  H  H6  1  0.28375565  0.03240587  0.22182689  1
  H  H7  1  0.21624435  0.96759413  0.72182689  1
  H  H8  1  0.00923722  0.25000000  0.93259064  1
  H  H9  1  0.49076278  0.75000000  0.43259064  1
  H  H10  1  0.99076278  0.75000000  0.06740936  1
  H  H11  1  0.50923722  0.25000000  0.56740936  1
  H  H12  1  0.08960720  0.75000000  0.65398724  1
  H  H13  1  0.41039280  0.25000000  0.15398724  1
  H  H14  1  0.91039280  0.25000000  0.34601276  1
  H  H15  1  0.58960720  0.75000000  0.84601276  1
  H  H16  1  0.14896056  0.67874797  0.48988290  1
  H  H17  1  0.35103944  0.32125203  0.98988290  1
  H  H18  1  0.85103944  0.17874797  0.51011710  1
  H  H19  1  0.64896056  0.82125203  0.01011710  1
  H  H20  1  0.85103944  0.32125203  0.51011710  1
  H  H21  1  0.64896056  0.67874797  0.01011710  1
  H  H22  1  0.14896056  0.82125203  0.48988290  1
  H  H23  1  0.35103944  0.17874797  0.98988290  1
  H  H24  1  0.91835288  0.75000000  0.34533769  1
  H  H25  1  0.58164712  0.25000000  0.84533769  1
  H  H26  1  0.08164712  0.25000000  0.65466231  1
  H  H27  1  0.41835288  0.75000000  0.15466231  1
  H  H28  1  0.85948598  0.67488575  0.52009699  1
  H  H29  1  0.64051402  0.32511425  0.02009699  1
  H  H30  1  0.14051402  0.17488575  0.47990301  1
  H  H31  1  0.35948598  0.82511425  0.97990301  1
  H  H32  1  0.14051402  0.32511425  0.47990301  1
  H  H33  1  0.35948598  0.67488575  0.97990301  1
  H  H34  1  0.85948598  0.82511425  0.52009699  1
  H  H35  1  0.64051402  0.17488575  0.02009699  1
  C  C0  1  0.21532695  0.53378519  0.28391202  1
  C  C1  1  0.28467305  0.46621481  0.78391202  1
  C  C2  1  0.78467305  0.03378519  0.71608798  1
  C  C3  1  0.71532695  0.96621481  0.21608798  1
  C  C4  1  0.78467305  0.46621481  0.71608798  1
  C  C5  1  0.71532695  0.53378519  0.21608798  1
  C  C6  1  0.21532695  0.96621481  0.28391202  1
  C  C7  1  0.28467305  0.03378519  0.78391202  1
  C  C8  1  0.98433589  0.25000000  0.06203580  1
  C  C9  1  0.51566411  0.75000000  0.56203580  1
  C  C10  1  0.01566411  0.75000000  0.93796420  1
  C  C11  1  0.48433589  0.25000000  0.43796420  1
  C  C12  1  0.91923028  0.75000000  0.47518018  1
  C  C13  1  0.58076972  0.25000000  0.97518018  1
  C  C14  1  0.08076972  0.25000000  0.52481982  1
  C  C15  1  0.41923028  0.75000000  0.02481982  1
  N  N0  1  0.08815751  0.75000000  0.53096820  1
  N  N1  1  0.41184249  0.25000000  0.03096820  1
  N  N2  1  0.91184249  0.25000000  0.46903180  1
  N  N3  1  0.58815751  0.75000000  0.96903180  1
  O  O0  1  0.09535793  0.57581593  0.21545747  1
  O  O1  1  0.40464207  0.42418407  0.71545747  1
  O  O2  1  0.90464207  0.07581593  0.78454253  1
  O  O3  1  0.59535793  0.92418407  0.28454253  1
  O  O4  1  0.90464207  0.42418407  0.78454253  1
  O  O5  1  0.59535793  0.57581593  0.28454253  1
  O  O6  1  0.09535793  0.92418407  0.21545747  1
  O  O7  1  0.40464207  0.07581593  0.71545747  1
  O  O8  1  0.26454363  0.56251511  0.42200528  1
  O  O9  1  0.23545637  0.43748489  0.92200528  1
  O  O10  1  0.73545637  0.06251511  0.57799472  1
  O  O11  1  0.76454363  0.93748489  0.07799472  1
  O  O12  1  0.73545637  0.43748489  0.57799472  1
  O  O13  1  0.76454363  0.56251511  0.07799472  1
  O  O14  1  0.26454363  0.93748489  0.42200528  1
  O  O15  1  0.23545637  0.06251511  0.92200528  1
  O  O16  1  0.97015615  0.34377233  0.13215793  1
  O  O17  1  0.52984385  0.65622767  0.63215793  1
  O  O18  1  0.02984385  0.84377233  0.86784207  1
  O  O19  1  0.47015615  0.15622767  0.36784207  1
  O  O20  1  0.02984385  0.65622767  0.86784207  1
  O  O21  1  0.47015615  0.34377233  0.36784207  1
  O  O22  1  0.97015615  0.15622767  0.13215793  1
  O  O23  1  0.52984385  0.84377233  0.63215793  1
loop_
_geom_bond_atom_site_label_1
_geom_bond_atom_site_label_2
_geom_bond_distance
_geom_bond_site_symmetry_2
Mn0 O0 2.164797 1_555
Mn0 O4 2.164797 1_454
Mn0 O20 2.173162 1_554
Mn0 O16 2.173162 1_455
Mn0 O9 2.197465 1_554
Mn0 O13 2.197465 1_455
Mn1 O5 2.164797 1_555
Mn1 O1 2.164797 1_555
Mn1 O17 2.173162 1_555
Mn1 O21 2.173162 1_555
Mn1 O12 2.197465 1_555
Mn1 O8 2.197465 1_555
Mn2 O6 2.164797 1_545
Mn2 O2 2.164797 1_454
Mn2 O18 2.173162 1_544
Mn2 O22 2.173162 1_455
Mn2 O15 2.197465 1_554
Mn2 O11 2.197465 1_445
Mn3 O7 2.164797 1_555
Mn3 O3 2.164797 1_545
Mn3 O23 2.173162 1_545
Mn3 O19 2.173162 1_555
Mn3 O10 2.197465 1_555
Mn3 O14 2.197465 1_545
H12 N0 1.028481 1_555
H13 N1 1.028481 1_555
H14 N2 1.028481 1_555
H15 N3 1.028481 1_555
H16 N0 1.044256 1_555
H17 N1 1.044256 1_556
H18 N2 1.044256 1_555
H19 N3 1.044256 1_554
H20 N2 1.044256 1_555
H21 N3 1.044256 1_554
H22 N0 1.044256 1_555
H23 N1 1.044256 1_556
C0 H0 1.101057 1_555
C0 O0 1.255675 1_555
C0 O8 1.271763 1_555
C1 H1 1.101057 1_555
C1 O1 1.255675 1_555
C1 O9 1.271763 1_555
C2 H2 1.101057 1_545
C2 O2 1.255675 1_555
C2 O10 1.271763 1_555
C3 H3 1.101057 1_565
C3 O3 1.255675 1_555
C3 O11 1.271763 1_555
C4 H4 1.101057 1_555
C4 O4 1.255675 1_555
C4 O12 1.271763 1_555
C5 H5 1.101057 1_555
C5 O5 1.255675 1_555
C5 O13 1.271763 1_555
C6 H6 1.101057 1_565
C6 O6 1.255675 1_555
C6 O14 1.271763 1_555
C7 H7 1.101057 1_545
C7 O7 1.255675 1_555
C7 O15 1.271763 1_555
C8 H8 1.101862 1_654
C8 O16 1.263725 1_555
C8 O22 1.263725 1_555
C9 H9 1.101862 1_555
C9 O23 1.263725 1_555
C9 O17 1.263725 1_555
C10 H10 1.101862 1_456
C10 O18 1.263725 1_555
C10 O20 1.263725 1_555
C11 H11 1.101862 1_555
C11 O21 1.263725 1_555
C11 O19 1.263725 1_555
C12 H24 1.085477 1_555
C12 H34 1.088258 1_555
C12 H28 1.088258 1_555
C12 N0 1.483474 1_655
C13 H25 1.085477 1_555
C13 H29 1.088258 1_556
C13 H35 1.088258 1_556
C13 N1 1.483474 1_556
C14 H26 1.085477 1_555
C14 H32 1.088258 1_555
C14 H30 1.088258 1_555
C14 N2 1.483474 1_455
C15 H27 1.085477 1_555
C15 H31 1.088258 1_554
C15 H33 1.088258 1_554
C15 N3 1.483474 1_554
