# generated using pymatgen
data_K2Zr(SiO3)3
_symmetry_space_group_name_H-M   'P 1'
_cell_length_a   7.03006535
_cell_length_b   7.03006535
_cell_length_c   10.36447900
_cell_angle_alpha   90.00000000
_cell_angle_beta   90.00000000
_cell_angle_gamma   119.99999392
_symmetry_Int_Tables_number   1
_chemical_formula_structural   K2Zr(SiO3)3
_chemical_formula_sum   'K4 Zr2 Si6 O18'
_cell_volume   443.60543558
_cell_formula_units_Z   2
loop_
 _symmetry_equiv_pos_site_id
 _symmetry_equiv_pos_as_xyz
  1  'x, y, z'
loop_
 _atom_site_type_symbol
 _atom_site_label
 _atom_site_symmetry_multiplicity
 _atom_site_fract_x
 _atom_site_fract_y
 _atom_site_fract_z
 _atom_site_occupancy
  K  K0  1  0.33333300  0.66666700  0.05707500  1
  K  K1  1  0.66666700  0.33333300  0.55707500  1
  K  K2  1  0.33333300  0.66666700  0.44292500  1
  K  K3  1  0.66666700  0.33333300  0.94292500  1
  Zr  Zr0  1  0.00000000  0.00000000  0.00000000  1
  Zr  Zr1  1  0.00000000  0.00000000  0.50000000  1
  Si  Si0  1  0.61326500  0.74057200  0.75000000  1
  Si  Si1  1  0.87269300  0.61326500  0.25000000  1
  Si  Si2  1  0.74057200  0.12730700  0.25000000  1
  Si  Si3  1  0.25942800  0.87269300  0.75000000  1
  Si  Si4  1  0.12730700  0.38673500  0.75000000  1
  Si  Si5  1  0.38673500  0.25942800  0.25000000  1
  O  O0  1  0.25632400  0.23562100  0.38312000  1
  O  O1  1  0.02070300  0.25632400  0.88312000  1
  O  O2  1  0.23562100  0.97929700  0.88312000  1
  O  O3  1  0.76437900  0.02070300  0.38312000  1
  O  O4  1  0.97929700  0.74367600  0.38312000  1
  O  O5  1  0.74367600  0.76437900  0.88312000  1
  O  O6  1  0.74367600  0.76437900  0.61688000  1
  O  O7  1  0.97929700  0.74367600  0.11688000  1
  O  O8  1  0.76437900  0.02070300  0.11688000  1
  O  O9  1  0.23562100  0.97929700  0.61688000  1
  O  O10  1  0.02070300  0.25632400  0.61688000  1
  O  O11  1  0.25632400  0.23562100  0.11688000  1
  O  O12  1  0.48638300  0.08926500  0.25000000  1
  O  O13  1  0.39711800  0.48638300  0.75000000  1
  O  O14  1  0.08926500  0.60288200  0.75000000  1
  O  O15  1  0.91073500  0.39711800  0.25000000  1
  O  O16  1  0.60288200  0.51361700  0.25000000  1
  O  O17  1  0.51361700  0.91073500  0.75000000  1
loop_
_geom_bond_atom_site_label_1
_geom_bond_atom_site_label_2
_geom_bond_distance
_geom_bond_site_symmetry_2
K0 O7 2.866939 1_455
K0 O8 2.866944 1_565
K0 O11 2.866946 1_555
K0 O2 3.172158 1_554
K0 O1 3.172163 1_554
K0 O5 3.172164 1_554
K0 O12 3.284144 1_565
K0 O15 3.284145 1_455
K0 O16 3.284149 1_555
K1 O10 2.866939 1_655
K1 O9 2.866944 1_545
K1 O6 2.866946 1_555
K1 O3 3.172158 1_555
K1 O4 3.172163 1_555
K1 O0 3.172164 1_555
K1 O17 3.284144 1_545
K1 O14 3.284145 1_655
K1 O13 3.284149 1_555
K2 O4 2.866939 1_455
K2 O3 2.866944 1_565
K2 O0 2.866946 1_555
K2 O9 3.172158 1_555
K2 O10 3.172163 1_555
K2 O6 3.172164 1_555
K2 O12 3.284144 1_565
K2 O15 3.284145 1_455
K2 O16 3.284149 1_555
K3 O1 2.866939 1_655
K3 O2 2.866944 1_545
K3 O5 2.866946 1_555
K3 O8 3.172158 1_556
K3 O7 3.172163 1_556
K3 O11 3.172164 1_556
K3 O17 3.284144 1_545
K3 O14 3.284145 1_655
K3 O13 3.284149 1_555
O0 Si5 1.618245 1_555
O0 Zr1 2.115070 1_555
O1 Si4 1.618245 1_555
O1 Zr0 2.115070 1_556
O2 Si3 1.618245 1_555
O2 Zr0 2.115070 1_566
O3 Si2 1.618245 1_555
O3 Zr1 2.115070 1_655
O4 Si1 1.618245 1_555
O4 Zr1 2.115070 1_665
O5 Si0 1.618245 1_555
O5 Zr0 2.115070 1_666
O6 Si0 1.618245 1_555
O6 Zr1 2.115070 1_665
O7 Si1 1.618245 1_555
O7 Zr0 2.115070 1_665
O8 Si2 1.618245 1_555
O8 Zr0 2.115070 1_655
O9 Si3 1.618245 1_555
O9 Zr1 2.115070 1_565
O10 Si4 1.618245 1_555
O10 Zr1 2.115070 1_555
O11 Si5 1.618245 1_555
O11 Zr0 2.115070 1_555
O12 Si5 1.661262 1_555
O12 Si2 1.669391 1_555
O13 Si4 1.661262 1_555
O13 Si0 1.669391 1_555
O14 Si3 1.661262 1_555
O14 Si4 1.669391 1_555
O15 Si2 1.661262 1_555
O15 Si1 1.669391 1_555
O16 Si1 1.661262 1_555
O16 Si5 1.669391 1_555
O17 Si0 1.661262 1_555
O17 Si3 1.669391 1_555
