# generated using pymatgen
data_MoH12N3O5F3
_symmetry_space_group_name_H-M   'P 1'
_cell_length_a   6.83872900
_cell_length_b   8.82396100
_cell_length_c   15.64120800
_cell_angle_alpha   90.00000000
_cell_angle_beta   90.00000000
_cell_angle_gamma   90.00000000
_symmetry_Int_Tables_number   1
_chemical_formula_structural   MoH12N3O5F3
_chemical_formula_sum   'Mo4 H48 N12 O20 F12'
_cell_volume   943.86366007
_cell_formula_units_Z   4
loop_
 _symmetry_equiv_pos_site_id
 _symmetry_equiv_pos_as_xyz
  1  'x, y, z'
loop_
 _atom_site_type_symbol
 _atom_site_label
 _atom_site_symmetry_multiplicity
 _atom_site_fract_x
 _atom_site_fract_y
 _atom_site_fract_z
 _atom_site_occupancy
  Mo  Mo0  1  0.81248700  0.75741900  0.16336600  1
  Mo  Mo1  1  0.68751300  0.24258100  0.66336600  1
  Mo  Mo2  1  0.31248700  0.74258100  0.83663400  1
  Mo  Mo3  1  0.18751300  0.25741900  0.33663400  1
  H  H0  1  0.83042500  0.88864000  0.47783100  1
  H  H1  1  0.66957500  0.11136000  0.97783100  1
  H  H2  1  0.33042500  0.61136000  0.52216900  1
  H  H3  1  0.16957500  0.38864000  0.02216900  1
  H  H4  1  0.60059000  0.85788800  0.44636100  1
  H  H5  1  0.89941000  0.14211200  0.94636100  1
  H  H6  1  0.10059000  0.64211200  0.55363900  1
  H  H7  1  0.39941000  0.35788800  0.05363900  1
  H  H8  1  0.76744900  0.92693200  0.37478700  1
  H  H9  1  0.73255100  0.07306800  0.87478700  1
  H  H10  1  0.26744900  0.57306800  0.62521300  1
  H  H11  1  0.23255100  0.42693200  0.12521300  1
  H  H12  1  0.68381100  0.04016000  0.45303400  1
  H  H13  1  0.81618900  0.95984000  0.95303400  1
  H  H14  1  0.18381100  0.45984000  0.54696600  1
  H  H15  1  0.31618900  0.54016000  0.04696600  1
  H  H16  1  0.35907900  0.71591600  0.36655800  1
  H  H17  1  0.14092100  0.28408400  0.86655800  1
  H  H18  1  0.85907900  0.78408400  0.63344200  1
  H  H19  1  0.64092100  0.21591600  0.13344200  1
  H  H20  1  0.17058800  0.74025900  0.29545500  1
  H  H21  1  0.32941200  0.25974100  0.79545500  1
  H  H22  1  0.67058800  0.75974100  0.70454500  1
  H  H23  1  0.82941200  0.24025900  0.20454500  1
  H  H24  1  0.34205100  0.60186900  0.28180300  1
  H  H25  1  0.15794900  0.39813100  0.78180300  1
  H  H26  1  0.84205100  0.89813100  0.71819700  1
  H  H27  1  0.65794900  0.10186900  0.21819700  1
  H  H28  1  0.40310900  0.78672500  0.26628200  1
  H  H29  1  0.09689100  0.21327500  0.76628200  1
  H  H30  1  0.90310900  0.71327500  0.73371800  1
  H  H31  1  0.59689100  0.28672500  0.23371800  1
  H  H32  1  0.39052100  0.92511600  0.11743000  1
  H  H33  1  0.10947900  0.07488400  0.61743000  1
  H  H34  1  0.89052100  0.57488400  0.88257000  1
  H  H35  1  0.60947900  0.42511600  0.38257000  1
  H  H36  1  0.36210200  0.07212900  0.05103000  1
  H  H37  1  0.13789800  0.92787100  0.55103000  1
  H  H38  1  0.86210200  0.42787100  0.94897000  1
  H  H39  1  0.63789800  0.57212900  0.44897000  1
  H  H40  1  0.16610800  0.00431000  0.10691300  1
  H  H41  1  0.33389200  0.99569000  0.60691300  1
  H  H42  1  0.66610800  0.49569000  0.89308700  1
  H  H43  1  0.83389200  0.50431000  0.39308700  1
  H  H44  1  0.25337500  0.90045100  0.02596100  1
  H  H45  1  0.24662500  0.09954900  0.52596100  1
  H  H46  1  0.75337500  0.59954900  0.97403900  1
  H  H47  1  0.74662500  0.40045100  0.47403900  1
  N  N0  1  0.71982400  0.93154300  0.43728100  1
  N  N1  1  0.78017600  0.06845700  0.93728100  1
  N  N2  1  0.21982400  0.56845700  0.56271900  1
  N  N3  1  0.28017600  0.43154300  0.06271900  1
  N  N4  1  0.31685500  0.71179400  0.30189100  1
  N  N5  1  0.18314500  0.28820600  0.80189100  1
  N  N6  1  0.81685500  0.78820600  0.69810900  1
  N  N7  1  0.68314500  0.21179400  0.19810900  1
  N  N8  1  0.29196000  0.97453000  0.07477300  1
  N  N9  1  0.20804000  0.02547000  0.57477300  1
  N  N10  1  0.79196000  0.52547000  0.92522700  1
  N  N11  1  0.70804000  0.47453000  0.42522700  1
  O  O0  1  0.91661800  0.83560800  0.27600600  1
  O  O1  1  0.58338200  0.16439200  0.77600600  1
  O  O2  1  0.41661800  0.66439200  0.72399400  1
  O  O3  1  0.08338200  0.33560800  0.22399400  1
  O  O4  1  0.81294800  0.68906300  0.28278300  1
  O  O5  1  0.68705200  0.31093700  0.78278300  1
  O  O6  1  0.31294800  0.81093700  0.71721700  1
  O  O7  1  0.18705200  0.18906300  0.21721700  1
  O  O8  1  0.61675300  0.60146700  0.13920000  1
  O  O9  1  0.88324700  0.39853300  0.63920000  1
  O  O10  1  0.11675300  0.89853300  0.86080000  1
  O  O11  1  0.38324700  0.10146700  0.36080000  1
  O  O12  1  0.62812100  0.70923400  0.06698100  1
  O  O13  1  0.87187900  0.29076600  0.56698100  1
  O  O14  1  0.12812100  0.79076600  0.93301900  1
  O  O15  1  0.37187900  0.20923400  0.43301900  1
  O  O16  1  0.02280300  0.67320400  0.12561400  1
  O  O17  1  0.47719700  0.32679600  0.62561400  1
  O  O18  1  0.52280300  0.82679600  0.87438600  1
  O  O19  1  0.97719700  0.17320400  0.37438600  1
  F  F0  1  0.87330400  0.95671700  0.10937600  1
  F  F1  1  0.62669600  0.04328300  0.60937600  1
  F  F2  1  0.37330400  0.54328300  0.89062400  1
  F  F3  1  0.12669600  0.45671700  0.39062400  1
  F  F4  1  0.55622400  0.89548800  0.20481300  1
  F  F5  1  0.94377600  0.10451200  0.70481300  1
  F  F6  1  0.05622400  0.60451200  0.79518700  1
  F  F7  1  0.44377600  0.39548800  0.29518700  1
  F  F8  1  0.46998900  0.70761200  0.46194200  1
  F  F9  1  0.03001100  0.29238800  0.96194200  1
  F  F10  1  0.96998900  0.79238800  0.53805800  1
  F  F11  1  0.53001100  0.20761200  0.03805800  1
loop_
_geom_bond_atom_site_label_1
_geom_bond_atom_site_label_2
_geom_bond_distance
_geom_bond_site_symmetry_2
Mo0 O16 1.723246 1_655
Mo0 O8 1.956614 1_555
Mo0 O4 1.962804 1_555
Mo0 O12 2.010786 1_555
Mo0 O0 2.021673 1_555
Mo1 O17 1.723246 1_555
Mo1 O9 1.956614 1_555
Mo1 O5 1.962804 1_555
Mo1 O13 2.010786 1_555
Mo1 O1 2.021673 1_555
Mo2 O18 1.723246 1_555
Mo2 O10 1.956614 1_555
Mo2 O6 1.962804 1_555
Mo2 O14 2.010786 1_555
Mo2 O2 2.021673 1_555
Mo3 O19 1.723246 1_455
Mo3 O11 1.956614 1_555
Mo3 O7 1.962804 1_555
Mo3 O15 2.010786 1_555
Mo3 O3 2.021673 1_555
H0 N0 1.057208 1_555
H1 N1 1.057208 1_555
H2 N2 1.057208 1_555
H3 N3 1.057208 1_555
H4 N0 1.052364 1_555
H5 N1 1.052364 1_555
H6 N2 1.052364 1_555
H7 N3 1.052364 1_555
H8 N0 1.031117 1_555
H9 N1 1.031117 1_555
H10 N2 1.031117 1_555
H11 N3 1.031117 1_555
H12 N0 1.019784 1_545
H13 N1 1.019784 1_565
H14 N2 1.019784 1_555
H15 N3 1.019784 1_555
H16 N4 1.052509 1_555
H17 N5 1.052509 1_555
H18 N6 1.052509 1_555
H19 N7 1.052509 1_555
H20 N4 1.036235 1_555
H21 N5 1.036235 1_555
H22 N6 1.036235 1_555
H23 N7 1.036235 1_555
H24 N4 1.034051 1_555
H25 N5 1.034051 1_555
H26 N6 1.034051 1_555
H27 N7 1.034051 1_555
H28 N4 1.046579 1_555
H29 N5 1.046579 1_555
H30 N6 1.046579 1_555
H31 N7 1.046579 1_555
H32 N8 1.043841 1_555
H33 N9 1.043841 1_555
H34 N10 1.043841 1_555
H35 N11 1.043841 1_555
H36 N8 1.053419 1_545
H37 N9 1.053419 1_565
H38 N10 1.053419 1_555
H39 N11 1.053419 1_555
H40 N8 1.030785 1_545
H41 N9 1.030785 1_565
H42 N10 1.030785 1_555
H43 N11 1.030785 1_555
H44 N8 1.039141 1_555
H45 N9 1.039141 1_555
H46 N10 1.039141 1_555
H47 N11 1.039141 1_555
O0 O4 1.478514 1_555
O1 O5 1.478514 1_555
O2 O6 1.478514 1_555
O3 O7 1.478514 1_555
O10 O14 1.478612 1_555
O11 O15 1.478612 1_555
O12 O8 1.478612 1_555
O13 O9 1.478612 1_555
F0 Mo0 1.994687 1_555
F1 Mo1 1.994687 1_555
F2 Mo2 1.994687 1_555
F3 Mo3 1.994687 1_555
F4 Mo0 2.230664 1_555
F5 Mo1 2.230664 1_555
F6 Mo2 2.230664 1_555
F7 Mo3 2.230664 1_555
F8 H2 1.587361 1_555
F8 H4 1.617237 1_555
F8 H39 1.670011 1_555
F8 H16 1.675260 1_555
F9 H3 1.587361 1_556
F9 H5 1.617237 1_455
F9 H38 1.670011 1_455
F9 H17 1.675260 1_555
F10 H0 1.587361 1_555
F10 H6 1.617237 1_655
F10 H37 1.670011 1_655
F10 H18 1.675260 1_555
F11 H1 1.587361 1_554
F11 H7 1.617237 1_555
F11 H36 1.670011 1_555
F11 H19 1.675260 1_555
