# generated using pymatgen
data_CdPOs2
_symmetry_space_group_name_H-M   'P 1'
_cell_length_a   4.46304304
_cell_length_b   4.46304304
_cell_length_c   4.46304304
_cell_angle_alpha   60.00000000
_cell_angle_beta   60.00000000
_cell_angle_gamma   60.00000000
_symmetry_Int_Tables_number   1
_chemical_formula_structural   CdPOs2
_chemical_formula_sum   'Cd1 P1 Os2'
_cell_volume   62.86055744
_cell_formula_units_Z   1
loop_
 _symmetry_equiv_pos_site_id
 _symmetry_equiv_pos_as_xyz
  1  'x, y, z'
loop_
 _atom_site_type_symbol
 _atom_site_label
 _atom_site_symmetry_multiplicity
 _atom_site_fract_x
 _atom_site_fract_y
 _atom_site_fract_z
 _atom_site_occupancy
  Cd  Cd0  1  0.50000000  0.50000000  0.50000000  1
  P  P0  1  0.75000000  0.75000000  0.75000000  1
  Os  Os0  1  0.00000000  0.00000000  0.00000000  1
  Os  Os1  1  0.25000000  0.25000000  0.25000000  1
loop_
_geom_bond_atom_site_label_1
_geom_bond_atom_site_label_2
_geom_bond_distance
_geom_bond_site_symmetry_2
Cd0 P0 2.733045 1_455
Cd0 Os1 2.733045 1_555
Cd0 P0 2.733045 1_555
Cd0 Os1 2.733045 1_556
Cd0 Os1 2.733045 1_565
Cd0 P0 2.733045 1_545
Cd0 P0 2.733045 1_554
Cd0 Os1 2.733045 1_655
Cd0 Os0 3.155848 1_655
Cd0 Os0 3.155848 1_556
Cd0 Os0 3.155848 1_565
Cd0 Os0 3.155848 1_566
Cd0 Os0 3.155848 1_665
Cd0 Os0 3.155848 1_656
Os0 P0 2.733045 1_445
Os0 P0 2.733045 1_444
Os0 Os1 2.733045 1_555
Os0 P0 2.733045 1_454
Os0 P0 2.733045 1_544
Os0 Os1 2.733045 1_545
Os0 Os1 2.733045 1_455
Os0 Os1 2.733045 1_554
