# generated using pymatgen
data_Sr5La5Mn9CuO30
_symmetry_space_group_name_H-M   'P 1'
_cell_length_a   5.47796000
_cell_length_b   5.53506854
_cell_length_c   22.69429879
_cell_angle_alpha   83.93886659
_cell_angle_beta   83.12999567
_cell_angle_gamma   60.34926069
_symmetry_Int_Tables_number   1
_chemical_formula_structural   Sr5La5Mn9CuO30
_chemical_formula_sum   'Sr5 La5 Mn9 Cu1 O30'
_cell_volume   592.85470176
_cell_formula_units_Z   1
loop_
 _symmetry_equiv_pos_site_id
 _symmetry_equiv_pos_as_xyz
  1  'x, y, z'
loop_
 _atom_site_type_symbol
 _atom_site_label
 _atom_site_symmetry_multiplicity
 _atom_site_fract_x
 _atom_site_fract_y
 _atom_site_fract_z
 _atom_site_occupancy
  Sr  Sr0  1  0.54882800  0.54982000  0.34873600  1
  Sr  Sr1  1  0.14921800  0.15033400  0.54977100  1
  Sr  Sr2  1  0.34655300  0.34988900  0.95262400  1
  Sr  Sr3  1  0.65211800  0.64981400  0.05040100  1
  Sr  Sr4  1  0.25225400  0.25024400  0.25029700  1
  La  La0  1  0.95533600  0.94997100  0.15060900  1
  La  La1  1  0.75215200  0.75070100  0.74866100  1
  La  La2  1  0.84550300  0.85099700  0.44792300  1
  La  La3  1  0.45400600  0.44961800  0.64869600  1
  La  La4  1  0.04556400  0.04908200  0.85232100  1
  Mn  Mn0  1  0.99993500  0.99905500  0.00086900  1
  Mn  Mn1  1  0.60024300  0.59957500  0.20050700  1
  Mn  Mn2  1  0.19991200  0.20105600  0.39932800  1
  Mn  Mn3  1  0.80355500  0.80088200  0.59905900  1
  Mn  Mn4  1  0.39665700  0.39899500  0.80058500  1
  Mn  Mn5  1  0.30045800  0.29998600  0.09993100  1
  Mn  Mn6  1  0.89999200  0.90019900  0.29982300  1
  Mn  Mn7  1  0.49830400  0.50131800  0.49913800  1
  Mn  Mn8  1  0.70130500  0.69820300  0.90150100  1
  Cu  Cu0  1  0.10064200  0.10045600  0.69942700  1
  O  O0  1  0.14797600  0.65323300  0.05202200  1
  O  O1  1  0.75369700  0.24606800  0.24770800  1
  O  O2  1  0.34805500  0.84918700  0.45050800  1
  O  O3  1  0.93568100  0.46709900  0.64995700  1
  O  O4  1  0.55174700  0.04276400  0.84807400  1
  O  O5  1  0.93262300  0.41996500  0.14434400  1
  O  O6  1  0.53477500  0.03000900  0.34546600  1
  O  O7  1  0.11972000  0.63566900  0.53893400  1
  O  O8  1  0.70900800  0.22369700  0.74234300  1
  O  O9  1  0.32727600  0.83523400  0.94082400  1
  O  O10  1  0.19040700  0.13033500  0.04513500  1
  O  O11  1  0.40944200  0.31698400  0.44377000  1
  O  O12  1  0.79568700  0.73669300  0.24168900  1
  O  O13  1  0.01762000  0.90325500  0.64157500  1
  O  O14  1  0.61500200  0.52144400  0.84073100  1
  O  O15  1  0.45547800  0.94927300  0.15014200  1
  O  O16  1  0.04570900  0.55562200  0.35278000  1
  O  O17  1  0.64577100  0.15419400  0.54962400  1
  O  O18  1  0.25865900  0.73798900  0.75227600  1
  O  O19  1  0.85237900  0.34476400  0.94690100  1
  O  O20  1  0.39681300  0.48022700  0.15590100  1
  O  O21  1  0.00457200  0.06326200  0.35888800  1
  O  O22  1  0.59694400  0.66483100  0.55849400  1
  O  O23  1  0.18073400  0.28236600  0.76243100  1
  O  O24  1  0.80582100  0.87288300  0.95486000  1
  O  O25  1  0.67427200  0.16330200  0.05861000  1
  O  O26  1  0.26492700  0.77041000  0.25465800  1
  O  O27  1  0.86727900  0.38248700  0.45676100  1
  O  O28  1  0.48774400  0.98183800  0.65703300  1
  O  O29  1  0.07164700  0.58472200  0.85735100  1
loop_
_geom_bond_atom_site_label_1
_geom_bond_atom_site_label_2
_geom_bond_distance
_geom_bond_site_symmetry_2
La0 O20 2.530900 1_655
La0 O5 2.531621 1_565
La0 O12 2.550421 1_555
La0 O25 2.563898 1_565
La0 O1 2.674167 1_565
La0 O0 2.704324 1_655
La0 O15 2.736602 1_655
La0 O15 2.741404 1_555
La0 O26 2.869583 1_655
La0 O10 2.900753 1_665
La0 O20 3.015176 1_565
La0 O5 3.015838 1_555
La1 O8 2.499461 1_565
La1 O23 2.512422 1_655
La1 O28 2.526659 1_555
La1 O14 2.558976 1_555
La1 O3 2.671122 1_555
La1 O4 2.707456 1_565
La1 O18 2.730133 1_555
La1 O18 2.751418 1_655
La1 O13 2.944480 1_655
La1 O29 2.992461 1_655
La1 O8 3.060044 1_555
La1 O23 3.066263 1_565
La2 O11 2.504804 1_565
La2 O21 2.512539 1_665
La2 O27 2.523715 1_555
La2 O7 2.528627 1_655
La2 O16 2.634921 1_655
La2 O2 2.723566 1_555
La2 O2 2.755640 1_655
La2 O17 2.781658 1_565
La2 O6 2.842041 1_565
La2 O27 3.030905 1_565
La2 O22 3.039287 1_555
La2 O11 3.040329 1_655
La3 O13 2.472484 1_555
La3 O28 2.491050 1_545
La3 O22 2.499410 1_555
La3 O8 2.540157 1_555
La3 O3 2.691399 1_555
La3 O17 2.710041 1_555
La3 O18 2.778324 1_555
La3 O3 2.789531 1_455
La3 O7 3.049992 1_555
La3 O28 3.068042 1_555
La3 O13 3.074031 1_645
La3 O23 3.114866 1_555
La4 O29 2.493649 1_545
La4 O9 2.499763 1_545
La4 O14 2.523847 1_455
La4 O23 2.530909 1_555
La4 O19 2.624951 1_455
La4 O4 2.735839 1_455
La4 O4 2.745914 1_555
La4 O18 2.772252 1_545
La4 O24 2.854464 1_445
La4 O14 3.046496 1_545
La4 O29 3.052543 1_555
La4 O8 3.064457 1_455
Mn0 O10 1.944469 1_665
Mn0 O25 1.952896 1_565
Mn0 O24 1.965460 1_554
Mn0 O0 1.972143 1_655
Mn0 O9 1.990511 1_654
Mn0 O19 2.006625 1_564
Mn1 O26 1.940419 1_555
Mn1 O12 1.946507 1_555
Mn1 O1 1.956547 1_555
Mn1 O20 1.960221 1_555
Mn1 O5 1.962015 1_555
Mn1 O15 1.978075 1_555
Mn2 O6 1.935213 1_555
Mn2 O21 1.938890 1_555
Mn2 O16 1.953578 1_555
Mn2 O11 1.971990 1_555
Mn2 O27 1.981237 1_455
Mn2 O2 1.996200 1_545
Mn3 O13 1.915912 1_655
Mn3 O3 1.922938 1_555
Mn3 O28 1.935572 1_555
Mn3 O7 1.956732 1_655
Mn3 O17 1.981503 1_565
Mn3 O22 1.983565 1_555
Mn4 O18 1.911688 1_555
Mn4 O23 1.919398 1_555
Mn4 O8 1.924403 1_555
Mn4 O29 1.950971 1_555
Mn4 O4 1.970779 1_555
Mn4 O14 1.978195 1_555
Mn5 O10 1.943633 1_555
Mn5 O25 1.950019 1_555
Mn5 O20 1.958655 1_555
Mn5 O5 1.961782 1_455
Mn5 O0 1.963477 1_555
Mn5 O15 1.980218 1_545
Mn6 O26 1.951265 1_655
Mn6 O12 1.957099 1_555
Mn6 O6 1.957271 1_565
Mn6 O21 1.972409 1_665
Mn6 O1 1.984095 1_565
Mn6 O16 1.989546 1_655
Mn7 O11 1.940449 1_555
Mn7 O27 1.948348 1_555
Mn7 O2 1.950233 1_555
Mn7 O7 1.958938 1_555
Mn7 O22 1.959868 1_555
Mn7 O17 1.969202 1_555
Mn8 O24 1.920895 1_555
Mn8 O9 1.933294 1_555
Mn8 O19 1.936504 1_555
Mn8 O29 1.974831 1_655
Mn8 O14 1.995320 1_555
Mn8 O4 1.995488 1_565
Cu0 O13 2.014605 1_545
Cu0 O28 2.030061 1_545
Cu0 O23 2.035172 1_555
Cu0 O3 2.035325 1_455
Cu0 O8 2.051563 1_455
Cu0 O18 2.057877 1_545
O0 Sr3 2.730358 1_455
O0 Sr2 2.737994 1_554
O0 Sr3 2.748211 1_555
O1 Sr4 2.729142 1_555
O1 Sr4 2.750253 1_655
O1 Sr0 2.770296 1_555
O2 Sr1 2.729305 1_565
O2 Sr0 2.772567 1_555
O3 Sr1 2.790744 1_655
O4 Sr2 2.847124 1_555
O5 Sr3 2.608007 1_555
O5 Sr4 2.938153 1_655
O6 Sr0 2.614005 1_545
O6 Sr4 2.631143 1_555
O6 Sr0 2.924937 1_555
O7 Sr1 2.596850 1_555
O7 Sr1 2.968945 1_565
O9 Sr2 2.621806 1_555
O9 Sr2 2.943326 1_565
O9 Sr3 3.019366 1_556
O10 Sr2 2.583857 1_554
O10 Sr3 2.614324 1_545
O10 Sr3 2.928520 1_455
O11 Sr0 2.624518 1_555
O11 Sr1 2.946508 1_555
O12 Sr4 2.624123 1_655
O12 Sr4 2.930158 1_565
O12 Sr0 2.977868 1_555
O13 Sr1 2.597136 1_565
O14 Sr2 3.080824 1_555
O15 Sr3 2.733828 1_555
O15 Sr4 2.745935 1_565
O16 Sr0 2.730914 1_555
O16 Sr0 2.750461 1_455
O16 Sr4 2.802660 1_555
O17 Sr1 2.730332 1_555
O17 Sr1 2.747755 1_655
O19 Sr2 2.739844 1_655
O19 Sr2 2.744529 1_555
O19 Sr3 2.821334 1_556
O20 Sr4 2.617717 1_555
O20 Sr3 2.931331 1_555
O21 Sr0 2.625441 1_455
O21 Sr0 2.934123 1_545
O21 Sr4 3.006011 1_555
O22 Sr1 2.599750 1_565
O22 Sr1 2.958562 1_655
O24 Sr2 2.594814 1_565
O24 Sr3 2.638401 1_556
O24 Sr2 2.944077 1_655
O25 Sr3 2.622430 1_555
O25 Sr3 2.930186 1_545
O25 Sr2 2.957839 1_554
O26 Sr4 2.613848 1_565
O26 Sr0 2.613976 1_555
O26 Sr4 2.926385 1_555
O27 Sr1 2.595282 1_655
O27 Sr0 2.975916 1_555
O28 Sr1 3.020516 1_565
O29 Sr2 2.623161 1_555
