# generated using pymatgen
data_Nd5Fe5As5O4F
_symmetry_space_group_name_H-M   'P 1'
_cell_length_a   9.07623500
_cell_length_b   9.09192927
_cell_length_c   9.97782917
_cell_angle_alpha   111.34492806
_cell_angle_beta   100.50686254
_cell_angle_gamma   90.12962872
_symmetry_Int_Tables_number   1
_chemical_formula_structural   Nd5Fe5As5O4F
_chemical_formula_sum   'Nd10 Fe10 As10 O8 F2'
_cell_volume   751.91757067
_cell_formula_units_Z   2
loop_
 _symmetry_equiv_pos_site_id
 _symmetry_equiv_pos_as_xyz
  1  'x, y, z'
loop_
 _atom_site_type_symbol
 _atom_site_label
 _atom_site_symmetry_multiplicity
 _atom_site_fract_x
 _atom_site_fract_y
 _atom_site_fract_z
 _atom_site_occupancy
  Nd  Nd0  1  0.48740000  0.19804600  0.13882900  1
  Nd  Nd1  1  0.27757000  0.80163000  0.13077000  1
  Nd  Nd2  1  0.51260000  0.80195400  0.86117100  1
  Nd  Nd3  1  0.06860500  0.41191700  0.13715400  1
  Nd  Nd4  1  0.32960700  0.40339600  0.86019900  1
  Nd  Nd5  1  0.88503600  0.01525400  0.13781800  1
  Nd  Nd6  1  0.11496400  0.98474600  0.86218200  1
  Nd  Nd7  1  0.67039300  0.59660400  0.13980100  1
  Nd  Nd8  1  0.93139500  0.58808300  0.86284600  1
  Nd  Nd9  1  0.72243000  0.19837000  0.86923000  1
  Fe  Fe0  1  0.44811200  0.14996000  0.49786700  1
  Fe  Fe1  1  0.55188800  0.85004000  0.50213300  1
  Fe  Fe2  1  0.24848400  0.74757300  0.49765100  1
  Fe  Fe3  1  0.35173700  0.44921500  0.50129500  1
  Fe  Fe4  1  0.05436300  0.34973800  0.50098400  1
  Fe  Fe5  1  0.14893900  0.05148200  0.49655300  1
  Fe  Fe6  1  0.85106100  0.94851800  0.50344700  1
  Fe  Fe7  1  0.94563700  0.65026200  0.49901600  1
  Fe  Fe8  1  0.64826300  0.55078500  0.49870500  1
  Fe  Fe9  1  0.75151600  0.25242700  0.50234900  1
  As  As0  1  0.58876900  0.42510800  0.68375000  1
  As  As1  1  0.38301900  0.02269700  0.68029900  1
  As  As2  1  0.41123100  0.57489200  0.31625000  1
  As  As3  1  0.18492900  0.62439500  0.68228000  1
  As  As4  1  0.21390300  0.17937900  0.31324200  1
  As  As5  1  0.98820900  0.22243300  0.68312900  1
  As  As6  1  0.01179100  0.77756700  0.31687100  1
  As  As7  1  0.78609700  0.82062100  0.68675800  1
  As  As8  1  0.81507100  0.37560500  0.31772000  1
  As  As9  1  0.61698100  0.97730300  0.31970100  1
  O  O0  1  0.54454500  0.34680600  0.00207600  1
  O  O1  1  0.34650200  0.95442200  0.99929100  1
  O  O2  1  0.45545500  0.65319400  0.99792400  1
  O  O3  1  0.15403500  0.54400000  0.99823400  1
  O  O4  1  0.95442300  0.15399600  0.99972900  1
  O  O5  1  0.04557700  0.84600400  0.00027100  1
  O  O6  1  0.84596500  0.45600000  0.00176600  1
  O  O7  1  0.65349800  0.04557800  0.00070900  1
  F  F0  1  0.25005800  0.24872700  0.99816000  1
  F  F1  1  0.74994200  0.75127300  0.00184000  1
loop_
_geom_bond_atom_site_label_1
_geom_bond_atom_site_label_2
_geom_bond_distance
_geom_bond_site_symmetry_2
Nd0 O7 2.338812 1_555
Nd0 O0 2.357659 1_555
Nd0 O1 2.360713 1_544
Nd1 O1 2.379982 1_554
Nd1 O2 2.381837 1_554
Nd1 O5 2.382899 1_555
Nd1 O3 2.384326 1_554
Nd2 O1 2.338812 1_555
Nd2 O2 2.357659 1_555
Nd2 O7 2.360713 1_566
Nd3 O6 2.339042 1_455
Nd3 O3 2.358855 1_554
Nd3 O4 2.362885 1_454
Nd4 O2 2.344148 1_555
Nd4 O3 2.366101 1_555
Nd4 O0 2.366858 1_556
Nd5 O4 2.337591 1_554
Nd5 O5 2.361509 1_645
Nd5 O7 2.364853 1_555
Nd6 O5 2.337591 1_556
Nd6 O4 2.361509 1_465
Nd6 O1 2.364853 1_555
Nd7 O0 2.344148 1_555
Nd7 O6 2.366101 1_555
Nd7 O2 2.366858 1_554
Nd8 O3 2.339042 1_655
Nd8 O6 2.358855 1_556
Nd8 O5 2.362885 1_656
Nd9 O7 2.379982 1_556
Nd9 O0 2.381837 1_556
Nd9 O4 2.382899 1_555
Nd9 O6 2.384326 1_556
As0 Fe9 2.615302 1_555
As0 Fe3 2.618173 1_555
As0 Fe8 2.627325 1_555
As0 Fe0 2.659376 1_555
As0 Nd4 3.229979 1_555
As0 Nd8 3.329322 1_555
As0 Nd9 3.334108 1_555
As0 Nd2 3.375308 1_555
As1 Fe5 2.621983 1_555
As1 Fe0 2.631271 1_555
As1 Fe2 2.631611 1_545
As1 Fe1 2.635670 1_545
As1 Nd2 3.246760 1_545
As1 Nd4 3.352562 1_555
As1 Nd9 3.355985 1_555
As1 Nd6 3.375503 1_545
As2 Fe2 2.615302 1_555
As2 Fe8 2.618173 1_555
As2 Fe3 2.627325 1_555
As2 Fe1 2.659376 1_555
As2 Nd7 3.229979 1_555
As2 Nd3 3.329322 1_555
As2 Nd1 3.334108 1_555
As2 Nd0 3.375308 1_555
As3 Fe4 2.613206 1_555
As3 Fe2 2.620530 1_555
As3 Fe7 2.642534 1_455
As3 Fe3 2.646552 1_555
As3 Nd6 3.240894 1_555
As3 Nd2 3.252929 1_555
As3 Nd8 3.254499 1_455
As3 Nd4 3.266733 1_555
As4 Fe3 2.623653 1_555
As4 Fe4 2.625297 1_555
As4 Fe0 2.630006 1_555
As4 Fe5 2.642678 1_555
As4 Nd5 3.220706 1_455
As4 Nd0 3.317807 1_555
As4 Nd3 3.341812 1_555
As4 Nd1 3.359320 1_545
As5 Fe6 2.624442 1_545
As5 Fe9 2.625000 1_555
As5 Fe5 2.627538 1_655
As5 Fe4 2.632363 1_655
As5 Nd8 3.246352 1_555
As5 Nd9 3.352897 1_555
As5 Nd6 3.355234 1_645
As5 Nd4 3.360672 1_655
As6 Fe5 2.624442 1_565
As6 Fe2 2.625000 1_555
As6 Fe6 2.627538 1_455
As6 Fe7 2.632363 1_455
As6 Nd3 3.246352 1_555
As6 Nd1 3.352897 1_555
As6 Nd5 3.355234 1_465
As6 Nd7 3.360672 1_455
As7 Fe8 2.623653 1_555
As7 Fe7 2.625297 1_555
As7 Fe1 2.630006 1_555
As7 Fe6 2.642678 1_555
As7 Nd6 3.220706 1_655
As7 Nd2 3.317807 1_555
As7 Nd8 3.341812 1_555
As7 Nd9 3.359320 1_565
As8 Fe7 2.613206 1_555
As8 Fe9 2.620530 1_555
As8 Fe4 2.642534 1_655
As8 Fe8 2.646552 1_555
As8 Nd5 3.240894 1_555
As8 Nd0 3.252929 1_555
As8 Nd3 3.254499 1_655
As8 Nd7 3.266733 1_555
As9 Fe6 2.621983 1_555
As9 Fe1 2.631271 1_555
As9 Fe9 2.631611 1_565
As9 Fe0 2.635670 1_565
As9 Nd0 3.246760 1_565
As9 Nd7 3.352562 1_555
As9 Nd1 3.355985 1_555
As9 Nd5 3.375503 1_565
F0 Nd6 2.472681 1_545
F0 Nd4 2.482083 1_555
F0 Nd3 2.486608 1_556
F0 Nd0 2.489054 1_556
F1 Nd5 2.472681 1_565
F1 Nd7 2.482083 1_555
F1 Nd8 2.486608 1_554
F1 Nd2 2.489054 1_554
