# generated using pymatgen
data_FeOF
_symmetry_space_group_name_H-M   'P 1'
_cell_length_a   4.78896300
_cell_length_b   4.78896300
_cell_length_c   6.02034800
_cell_angle_alpha   90.00000000
_cell_angle_beta   90.00000000
_cell_angle_gamma   89.99897108
_symmetry_Int_Tables_number   1
_chemical_formula_structural   FeOF
_chemical_formula_sum   'Fe4 O4 F4'
_cell_volume   138.07166410
_cell_formula_units_Z   4
loop_
 _symmetry_equiv_pos_site_id
 _symmetry_equiv_pos_as_xyz
  1  'x, y, z'
loop_
 _atom_site_type_symbol
 _atom_site_label
 _atom_site_symmetry_multiplicity
 _atom_site_fract_x
 _atom_site_fract_y
 _atom_site_fract_z
 _atom_site_occupancy
  Fe  Fe0  1  0.45855700  0.54144300  0.25000000  1
  Fe  Fe1  1  0.54144300  0.45855700  0.75000000  1
  Fe  Fe2  1  0.04145600  0.04145600  0.00000000  1
  Fe  Fe3  1  0.95854400  0.95854400  0.50000000  1
  O  O0  1  0.17985000  0.82015000  0.25000000  1
  O  O1  1  0.67984800  0.67984800  0.50000000  1
  O  O2  1  0.82015000  0.17985000  0.75000000  1
  O  O3  1  0.32015200  0.32015200  0.00000000  1
  F  F0  1  0.79575700  0.20424300  0.25000000  1
  F  F1  1  0.29576400  0.29576400  0.50000000  1
  F  F2  1  0.20424300  0.79575700  0.75000000  1
  F  F3  1  0.70423600  0.70423600  0.00000000  1
loop_
_geom_bond_atom_site_label_1
_geom_bond_atom_site_label_2
_geom_bond_distance
_geom_bond_site_symmetry_2
Fe0 O0 1.887559 1_555
Fe0 O1 1.956455 1_555
Fe0 O3 1.956455 1_555
Fe1 O2 1.887559 1_555
Fe1 O3 1.956455 1_556
Fe1 O1 1.956455 1_555
Fe2 O3 1.887518 1_555
Fe2 O2 1.956463 1_454
Fe2 O0 1.956463 1_545
Fe3 O1 1.887518 1_555
Fe3 O2 1.956463 1_565
Fe3 O0 1.956463 1_655
F0 Fe3 2.063369 1_545
F0 Fe2 2.063369 1_655
F0 Fe0 2.283706 1_555
F1 Fe1 2.063341 1_555
F1 Fe0 2.063341 1_555
F1 Fe3 2.283882 1_445
F2 Fe2 2.063369 1_566
F2 Fe3 2.063369 1_455
F2 Fe1 2.283706 1_555
F3 Fe1 2.063341 1_554
F3 Fe0 2.063341 1_555
F3 Fe2 2.283882 1_665
