# generated using pymatgen
data_H4SO5
_symmetry_space_group_name_H-M   'P 1'
_cell_length_a   6.99884200
_cell_length_b   7.51292900
_cell_length_c   8.43967833
_cell_angle_alpha   75.91776702
_cell_angle_beta   90.00000000
_cell_angle_gamma   90.00000000
_symmetry_Int_Tables_number   1
_chemical_formula_structural   H4SO5
_chemical_formula_sum   'H16 S4 O20'
_cell_volume   430.43700577
_cell_formula_units_Z   4
loop_
 _symmetry_equiv_pos_site_id
 _symmetry_equiv_pos_as_xyz
  1  'x, y, z'
loop_
 _atom_site_type_symbol
 _atom_site_label
 _atom_site_symmetry_multiplicity
 _atom_site_fract_x
 _atom_site_fract_y
 _atom_site_fract_z
 _atom_site_occupancy
  H  H0  1  0.84904300  0.54749400  0.58710600  1
  H  H1  1  0.34904300  0.45250600  0.91289400  1
  H  H2  1  0.15095700  0.45250600  0.41289400  1
  H  H3  1  0.65095700  0.54749400  0.08710600  1
  H  H4  1  0.69225000  0.14089600  0.95579800  1
  H  H5  1  0.87025300  0.26063500  0.81345300  1
  H  H6  1  0.61075200  0.19679400  0.77624300  1
  H  H7  1  0.37025300  0.73936500  0.68654700  1
  H  H8  1  0.19225000  0.85910400  0.54420200  1
  H  H9  1  0.11075200  0.80320600  0.72375700  1
  H  H10  1  0.38924800  0.80320600  0.22375700  1
  H  H11  1  0.12974700  0.73936500  0.18654700  1
  H  H12  1  0.30775000  0.85910400  0.04420200  1
  H  H13  1  0.80775000  0.14089600  0.45579800  1
  H  H14  1  0.88924800  0.19679400  0.27624300  1
  H  H15  1  0.62974700  0.26063500  0.31345300  1
  S  S0  1  0.64162200  0.76151100  0.55043700  1
  S  S1  1  0.14162200  0.23848900  0.94956300  1
  S  S2  1  0.35837800  0.23848900  0.44956300  1
  S  S3  1  0.85837800  0.76151100  0.05043700  1
  O  O0  1  0.98974900  0.81852700  0.91639200  1
  O  O1  1  0.48974900  0.18147300  0.58360800  1
  O  O2  1  0.01025100  0.18147300  0.08360800  1
  O  O3  1  0.51025100  0.81852700  0.41639200  1
  O  O4  1  0.53214600  0.71773400  0.71195000  1
  O  O5  1  0.03214600  0.28226600  0.78805000  1
  O  O6  1  0.46785400  0.28226600  0.28805000  1
  O  O7  1  0.96785400  0.71773400  0.21195000  1
  O  O8  1  0.72284200  0.56735100  0.53495500  1
  O  O9  1  0.22284200  0.43264900  0.96504500  1
  O  O10  1  0.27715800  0.43264900  0.46504500  1
  O  O11  1  0.77715800  0.56735100  0.03495500  1
  O  O12  1  0.80480500  0.87747400  0.55949300  1
  O  O13  1  0.30480500  0.12252600  0.94050700  1
  O  O14  1  0.19519500  0.12252600  0.44050700  1
  O  O15  1  0.69519500  0.87747400  0.05949300  1
  O  O16  1  0.69441500  0.23897200  0.85415700  1
  O  O17  1  0.19441500  0.76102800  0.64584300  1
  O  O18  1  0.30558500  0.76102800  0.14584300  1
  O  O19  1  0.80558500  0.23897200  0.35415700  1
loop_
_geom_bond_atom_site_label_1
_geom_bond_atom_site_label_2
_geom_bond_distance
_geom_bond_site_symmetry_2
H0 O8 0.981924 1_555
H1 O9 0.981924 1_555
H2 O10 0.981924 1_555
H3 O11 0.981924 1_555
H4 O16 0.985609 1_555
H5 O5 1.157261 1_655
H5 O16 1.277428 1_555
H6 O16 0.988469 1_555
H7 O4 1.157261 1_555
H7 O17 1.277428 1_555
H8 O17 0.985609 1_555
H9 O17 0.988469 1_555
H10 O18 0.988469 1_555
H11 O7 1.157261 1_455
H11 O18 1.277428 1_555
H12 O18 0.985609 1_555
H13 O19 0.985609 1_555
H14 O19 0.988469 1_555
H15 O6 1.157261 1_555
H15 O19 1.277428 1_555
O0 S3 1.439750 1_556
O1 S2 1.439750 1_555
O2 S1 1.439750 1_554
O3 S0 1.439750 1_555
O4 S0 1.528125 1_555
O5 S1 1.528125 1_555
O6 S2 1.528125 1_555
O7 S3 1.528125 1_555
O8 S0 1.600247 1_555
O9 S1 1.600247 1_555
O10 S2 1.600247 1_555
O11 S3 1.600247 1_555
O12 S0 1.449706 1_555
O13 S1 1.449706 1_555
O14 S2 1.449706 1_555
O15 S3 1.449706 1_555
