# generated using pymatgen
data_Ti2Se
_symmetry_space_group_name_H-M   'P 1'
_cell_length_a   3.46145443
_cell_length_b   9.50450465
_cell_length_c   17.79833192
_cell_angle_alpha   90.00000000
_cell_angle_beta   90.00000000
_cell_angle_gamma   90.00000000
_symmetry_Int_Tables_number   1
_chemical_formula_structural   Ti2Se
_chemical_formula_sum   'Ti24 Se12'
_cell_volume   585.55461427
_cell_formula_units_Z   12
loop_
 _symmetry_equiv_pos_site_id
 _symmetry_equiv_pos_as_xyz
  1  'x, y, z'
loop_
 _atom_site_type_symbol
 _atom_site_label
 _atom_site_symmetry_multiplicity
 _atom_site_fract_x
 _atom_site_fract_y
 _atom_site_fract_z
 _atom_site_occupancy
  Ti  Ti0  1  0.75000000  0.88967872  0.98683154  1
  Ti  Ti1  1  0.75000000  0.38820047  0.03120304  1
  Ti  Ti2  1  0.75000000  0.41987154  0.64535233  1
  Ti  Ti3  1  0.25000000  0.53875594  0.15953599  1
  Ti  Ti4  1  0.75000000  0.61032128  0.48683154  1
  Ti  Ti5  1  0.25000000  0.96124406  0.65953599  1
  Ti  Ti6  1  0.75000000  0.08012846  0.14535233  1
  Ti  Ti7  1  0.25000000  0.88820047  0.46879696  1
  Ti  Ti8  1  0.25000000  0.58012846  0.35464767  1
  Ti  Ti9  1  0.25000000  0.25183438  0.27251679  1
  Ti  Ti10  1  0.75000000  0.75183438  0.22748321  1
  Ti  Ti11  1  0.75000000  0.15191802  0.89330001  1
  Ti  Ti12  1  0.25000000  0.65191802  0.60669999  1
  Ti  Ti13  1  0.75000000  0.74816562  0.72748321  1
  Ti  Ti14  1  0.25000000  0.61179953  0.96879696  1
  Ti  Ti15  1  0.25000000  0.24816562  0.77251679  1
  Ti  Ti16  1  0.25000000  0.84808198  0.10669999  1
  Ti  Ti17  1  0.25000000  0.91987154  0.85464767  1
  Ti  Ti18  1  0.75000000  0.34808198  0.39330001  1
  Ti  Ti19  1  0.25000000  0.11032128  0.01316846  1
  Ti  Ti20  1  0.75000000  0.46124506  0.84046401  1
  Ti  Ti21  1  0.25000000  0.38967872  0.51316846  1
  Ti  Ti22  1  0.75000000  0.11179953  0.53120304  1
  Ti  Ti23  1  0.75000000  0.03875494  0.34046401  1
  Se  Se0  1  0.25000000  0.27965501  0.12785049  1
  Se  Se1  1  0.75000000  0.03328931  0.76169525  1
  Se  Se2  1  0.75000000  0.46671069  0.26169525  1
  Se  Se3  1  0.25000000  0.53328931  0.73830475  1
  Se  Se4  1  0.75000000  0.72034499  0.87214951  1
  Se  Se5  1  0.25000000  0.96671069  0.23830475  1
  Se  Se6  1  0.25000000  0.22034499  0.62785049  1
  Se  Se7  1  0.75000000  0.77965501  0.37214951  1
  Se  Se8  1  0.75000000  0.65926405  0.07501377  1
  Se  Se9  1  0.25000000  0.34073595  0.92498623  1
  Se  Se10  1  0.25000000  0.15926405  0.42498623  1
  Se  Se11  1  0.75000000  0.84073595  0.57501377  1
loop_
_geom_bond_atom_site_label_1
_geom_bond_atom_site_label_2
_geom_bond_distance
_geom_bond_site_symmetry_2
Se0 Ti3 2.526374 1_555
Se0 Ti6 2.586269 1_555
Se0 Ti6 2.586269 1_455
Se0 Ti9 2.588361 1_555
Se0 Ti19 2.599339 1_555
Se0 Ti1 2.649287 1_455
Se0 Ti1 2.649287 1_555
Se1 Ti11 2.599587 1_555
Se1 Ti5 2.601997 1_645
Se1 Ti5 2.601997 1_545
Se1 Ti17 2.625736 1_645
Se1 Ti17 2.625736 1_545
Se1 Ti15 2.683929 1_655
Se1 Ti15 2.683929 1_555
Se1 Ti13 2.777528 1_545
Se2 Ti18 2.599587 1_555
Se2 Ti3 2.601997 1_555
Se2 Ti3 2.601997 1_655
Se2 Ti8 2.625736 1_655
Se2 Ti8 2.625736 1_555
Se2 Ti9 2.683929 1_655
Se2 Ti9 2.683929 1_555
Se2 Ti10 2.777528 1_555
Se3 Ti12 2.599587 1_555
Se3 Ti20 2.601995 1_455
Se3 Ti20 2.601995 1_555
Se3 Ti2 2.625736 1_555
Se3 Ti2 2.625736 1_455
Se3 Ti13 2.683929 1_455
Se3 Ti13 2.683929 1_555
Se3 Ti15 2.777528 1_555
Se4 Ti20 2.526365 1_555
Se4 Ti17 2.586269 1_655
Se4 Ti17 2.586269 1_555
Se4 Ti13 2.588361 1_555
Se4 Ti0 2.599339 1_555
Se4 Ti14 2.649287 1_655
Se4 Ti14 2.649287 1_555
Se5 Ti16 2.599587 1_555
Se5 Ti23 2.601995 1_565
Se5 Ti23 2.601995 1_465
Se5 Ti6 2.625736 1_465
Se5 Ti6 2.625736 1_565
Se5 Ti10 2.683929 1_455
Se5 Ti10 2.683929 1_555
Se5 Ti9 2.777528 1_565
Se6 Ti5 2.526374 1_545
Se6 Ti2 2.586269 1_455
Se6 Ti2 2.586269 1_555
Se6 Ti15 2.588361 1_555
Se6 Ti21 2.599339 1_555
Se6 Ti22 2.649287 1_455
Se6 Ti22 2.649287 1_555
Se7 Ti23 2.526365 1_565
Se7 Ti8 2.586269 1_655
Se7 Ti8 2.586269 1_555
Se7 Ti10 2.588361 1_555
Se7 Ti4 2.599339 1_555
Se7 Ti7 2.649287 1_555
Se7 Ti7 2.649287 1_655
Se8 Ti16 2.556195 1_555
Se8 Ti16 2.556195 1_655
Se8 Ti3 2.563274 1_555
Se8 Ti3 2.563274 1_655
Se8 Ti14 2.602471 1_654
Se8 Ti14 2.602471 1_554
Se8 Ti1 2.691742 1_555
Se8 Ti0 2.694313 1_554
Se8 Ti10 2.852768 1_555
Se9 Ti11 2.556195 1_455
Se9 Ti11 2.556195 1_555
Se9 Ti20 2.563278 1_555
Se9 Ti20 2.563278 1_455
Se9 Ti1 2.602471 1_456
Se9 Ti1 2.602471 1_556
Se9 Ti14 2.691742 1_555
Se9 Ti19 2.694313 1_556
Se9 Ti15 2.852768 1_555
Se10 Ti18 2.556195 1_555
Se10 Ti18 2.556195 1_455
Se10 Ti23 2.563278 1_455
Se10 Ti23 2.563278 1_555
Se10 Ti22 2.602471 1_555
Se10 Ti22 2.602471 1_455
Se10 Ti7 2.691742 1_545
Se10 Ti21 2.694313 1_555
Se10 Ti9 2.852768 1_555
Se11 Ti12 2.556195 1_555
Se11 Ti12 2.556195 1_655
Se11 Ti5 2.563274 1_655
Se11 Ti5 2.563274 1_555
Se11 Ti7 2.602471 1_655
Se11 Ti7 2.602471 1_555
Se11 Ti22 2.691742 1_565
Se11 Ti4 2.694313 1_555
Se11 Ti13 2.852768 1_555
