# generated using pymatgen
data_KLiSO4
_symmetry_space_group_name_H-M   'P 1'
_cell_length_a   5.22727584
_cell_length_b   5.22727584
_cell_length_c   8.80271399
_cell_angle_alpha   89.83648213
_cell_angle_beta   89.83648213
_cell_angle_gamma   120.36435106
_symmetry_Int_Tables_number   1
_chemical_formula_structural   KLiSO4
_chemical_formula_sum   'K2 Li2 S2 O8'
_cell_volume   207.53181385
_cell_formula_units_Z   2
loop_
 _symmetry_equiv_pos_site_id
 _symmetry_equiv_pos_as_xyz
  1  'x, y, z'
loop_
 _atom_site_type_symbol
 _atom_site_label
 _atom_site_symmetry_multiplicity
 _atom_site_fract_x
 _atom_site_fract_y
 _atom_site_fract_z
 _atom_site_occupancy
  K  K0  1  0.03873000  0.03590300  0.50606700  1
  K  K1  1  0.03590300  0.03873000  0.00606700  1
  Li  Li0  1  0.36531700  0.70478600  0.69194300  1
  Li  Li1  1  0.70478600  0.36531700  0.19194300  1
  S  S0  1  0.69956100  0.36908600  0.80218800  1
  S  S1  1  0.36908600  0.69956100  0.30218800  1
  O  O0  1  0.97792900  0.64436600  0.75640200  1
  O  O1  1  0.64436600  0.97792900  0.25640200  1
  O  O2  1  0.43665300  0.38411900  0.74918500  1
  O  O3  1  0.38411900  0.43665300  0.24918500  1
  O  O4  1  0.34242000  0.68771000  0.47107400  1
  O  O5  1  0.68771000  0.34242000  0.97107400  1
  O  O6  1  0.10447400  0.69494500  0.23614100  1
  O  O7  1  0.69494500  0.10447400  0.73614100  1
loop_
_geom_bond_atom_site_label_1
_geom_bond_atom_site_label_2
_geom_bond_distance
_geom_bond_site_symmetry_2
K0 O7 2.845036 1_455
K0 O2 2.905118 1_555
K0 O0 2.908346 1_445
K0 O1 2.927372 1_445
K0 O4 2.957491 1_555
K0 O4 2.974769 1_545
K0 O3 2.981143 1_555
K0 O6 3.095019 1_545
K0 O4 3.157180 1_445
K1 O6 2.845036 1_545
K1 O3 2.905118 1_555
K1 O1 2.908346 1_445
K1 O0 2.927372 1_444
K1 O5 2.957491 1_554
K1 O5 2.974769 1_454
K1 O2 2.981143 1_554
K1 O7 3.095019 1_454
K1 O5 3.157180 1_444
Li0 O4 1.947795 1_555
Li0 O2 1.957247 1_555
Li0 O7 1.963243 1_565
Li0 O0 1.966749 1_455
Li1 O5 1.947795 1_554
Li1 O3 1.957247 1_555
Li1 O6 1.963243 1_655
Li1 O1 1.966749 1_545
O0 S0 1.492271 1_555
O1 S1 1.492271 1_555
O2 S0 1.491702 1_555
O3 S1 1.491702 1_555
O4 S1 1.490964 1_555
O5 S0 1.490964 1_555
O6 S1 1.490896 1_555
O7 S0 1.490896 1_555
