# generated using pymatgen
data_K6Yb3(PS4)5
_symmetry_space_group_name_H-M   'P 1'
_cell_length_a   15.35018378
_cell_length_b   15.35018378
_cell_length_c   27.60874624
_cell_angle_alpha   59.38312485
_cell_angle_beta   59.38312485
_cell_angle_gamma   50.01529650
_symmetry_Int_Tables_number   1
_chemical_formula_structural   K6Yb3(PS4)5
_chemical_formula_sum   'K24 Yb12 P20 S80'
_cell_volume   4122.96712352
_cell_formula_units_Z   4
loop_
 _symmetry_equiv_pos_site_id
 _symmetry_equiv_pos_as_xyz
  1  'x, y, z'
loop_
 _atom_site_type_symbol
 _atom_site_label
 _atom_site_symmetry_multiplicity
 _atom_site_fract_x
 _atom_site_fract_y
 _atom_site_fract_z
 _atom_site_occupancy
  Yb  Yb0  1  0.85401000  0.37371300  0.12239900  1
  Yb  Yb1  1  0.17878400  0.69673900  0.43803900  1
  Yb  Yb2  1  0.37371300  0.85401000  0.62239900  1
  Yb  Yb3  1  0.97793100  0.54219600  0.25701700  1
  Yb  Yb4  1  0.14599000  0.62628700  0.87760100  1
  Yb  Yb5  1  0.54219600  0.97793100  0.75701700  1
  Yb  Yb6  1  0.82121600  0.30326100  0.56196100  1
  Yb  Yb7  1  0.45780400  0.02206900  0.24298300  1
  Yb  Yb8  1  0.62628700  0.14599000  0.37760100  1
  Yb  Yb9  1  0.69673900  0.17878400  0.93803900  1
  Yb  Yb10  1  0.30326100  0.82121600  0.06196100  1
  Yb  Yb11  1  0.02206900  0.45780400  0.74298300  1
  K  K0  1  0.66951000  0.81155000  0.97809300  1
  K  K1  1  0.94862100  0.87432200  0.26982000  1
  K  K2  1  0.78324300  0.08523600  0.13851200  1
  K  K3  1  0.54973000  0.63296800  0.23139500  1
  K  K4  1  0.64624900  0.56698900  0.92617800  1
  K  K5  1  0.18845000  0.33049000  0.52190700  1
  K  K6  1  0.24339300  0.07595900  0.42231600  1
  K  K7  1  0.75660700  0.92404100  0.57768400  1
  K  K8  1  0.63296800  0.54973000  0.73139500  1
  K  K9  1  0.21675700  0.91476400  0.86148800  1
  K  K10  1  0.87432200  0.94862100  0.76982000  1
  K  K11  1  0.07595900  0.24339300  0.92231600  1
  K  K12  1  0.36703200  0.45027000  0.26860500  1
  K  K13  1  0.43301100  0.35375100  0.57382200  1
  K  K14  1  0.91476400  0.21675700  0.36148800  1
  K  K15  1  0.45027000  0.36703200  0.76860500  1
  K  K16  1  0.05137900  0.12567800  0.73018000  1
  K  K17  1  0.12567800  0.05137900  0.23018000  1
  K  K18  1  0.92404100  0.75660700  0.07768400  1
  K  K19  1  0.35375100  0.43301100  0.07382200  1
  K  K20  1  0.08523600  0.78324300  0.63851200  1
  K  K21  1  0.56698900  0.64624900  0.42617800  1
  K  K22  1  0.33049000  0.18845000  0.02190700  1
  K  K23  1  0.81155000  0.66951000  0.47809300  1
  P  P0  1  0.10204900  0.52365100  0.81012500  1
  P  P1  1  0.43916900  0.41532800  0.40642600  1
  P  P2  1  0.07696500  0.10266900  0.09115500  1
  P  P3  1  0.10266900  0.07696500  0.59115500  1
  P  P4  1  0.68769100  0.13081900  0.66348300  1
  P  P5  1  0.41532800  0.43916900  0.90642600  1
  P  P6  1  0.92412100  0.42594400  0.40620300  1
  P  P7  1  0.57405600  0.07587900  0.09379700  1
  P  P8  1  0.89733100  0.92303500  0.40884500  1
  P  P9  1  0.86918100  0.31230900  0.83651700  1
  P  P10  1  0.89795100  0.47634900  0.18987500  1
  P  P11  1  0.42594400  0.92412100  0.90620300  1
  P  P12  1  0.13081900  0.68769100  0.16348300  1
  P  P13  1  0.31230900  0.86918100  0.33651700  1
  P  P14  1  0.52365100  0.10204900  0.31012500  1
  P  P15  1  0.47634900  0.89795100  0.68987500  1
  P  P16  1  0.56083100  0.58467200  0.59357400  1
  P  P17  1  0.92303500  0.89733100  0.90884500  1
  P  P18  1  0.07587900  0.57405600  0.59379700  1
  P  P19  1  0.58467200  0.56083100  0.09357400  1
  S  S0  1  0.39054300  0.98057400  0.96996600  1
  S  S1  1  0.74237700  0.52390400  0.02999600  1
  S  S2  1  0.79012100  0.55007000  0.25809400  1
  S  S3  1  0.33316000  0.06040000  0.84629800  1
  S  S4  1  0.49100100  0.79487500  0.29888500  1
  S  S5  1  0.01942600  0.60945700  0.53003400  1
  S  S6  1  0.93960000  0.66684000  0.65370200  1
  S  S7  1  0.82177700  0.57647100  0.12285300  1
  S  S8  1  0.38362300  0.56486500  0.82892200  1
  S  S9  1  0.43513500  0.61637700  0.67107800  1
  S  S10  1  0.66684000  0.93960000  0.15370200  1
  S  S11  1  0.92890900  0.96854200  0.95133700  1
  S  S12  1  0.72460800  0.17522200  0.57502100  1
  S  S13  1  0.06195600  0.87211100  0.83410200  1
  S  S14  1  0.05093100  0.23100400  0.80553600  1
  S  S15  1  0.06040000  0.33316000  0.34629800  1
  S  S16  1  0.80438600  0.25765700  0.81584200  1
  S  S17  1  0.47598300  0.56454100  0.07012700  1
  S  S18  1  0.96854200  0.92890900  0.45133700  1
  S  S19  1  0.50899900  0.20512500  0.70111500  1
  S  S20  1  0.05634600  0.46269400  0.16178900  1
  S  S21  1  0.19605000  0.62661100  0.55376500  1
  S  S22  1  0.93651600  0.73630600  0.96023100  1
  S  S23  1  0.52401700  0.43545900  0.92987300  1
  S  S24  1  0.93804400  0.12788900  0.16589800  1
  S  S25  1  0.74234300  0.19561400  0.68415800  1
  S  S26  1  0.82477800  0.27539200  0.92497900  1
  S  S27  1  0.79487500  0.49100100  0.79888500  1
  S  S28  1  0.06348400  0.26369400  0.03976900  1
  S  S29  1  0.91453200  0.31476600  0.21990300  1
  S  S30  1  0.53730600  0.94365400  0.33821100  1
  S  S31  1  0.42352900  0.17822300  0.37714700  1
  S  S32  1  0.60378200  0.84478100  0.86457500  1
  S  S33  1  0.47609600  0.25762300  0.47000400  1
  S  S34  1  0.23465900  0.99126500  0.11183400  1
  S  S35  1  0.84478100  0.60378200  0.36457500  1
  S  S36  1  0.57647100  0.82177700  0.62285300  1
  S  S37  1  0.46269400  0.05634600  0.66178900  1
  S  S38  1  0.20987900  0.44993000  0.74190600  1
  S  S39  1  0.43545900  0.52401700  0.42987300  1
  S  S40  1  0.68523400  0.08546800  0.28009700  1
  S  S41  1  0.17822300  0.42352900  0.87714700  1
  S  S42  1  0.94906900  0.76899600  0.19446400  1
  S  S43  1  0.07109100  0.03145800  0.04866300  1
  S  S44  1  0.31476600  0.91453200  0.71990300  1
  S  S45  1  0.23100400  0.05093100  0.30553600  1
  S  S46  1  0.25765700  0.80438600  0.31584200  1
  S  S47  1  0.87211100  0.06195600  0.33410200  1
  S  S48  1  0.03145800  0.07109100  0.54866300  1
  S  S49  1  0.56454100  0.47598300  0.57012700  1
  S  S50  1  0.60945700  0.01942600  0.03003400  1
  S  S51  1  0.27586100  0.49878900  0.39729100  1
  S  S52  1  0.25762300  0.47609600  0.97000400  1
  S  S53  1  0.56486500  0.38362300  0.32892200  1
  S  S54  1  0.55007000  0.79012100  0.75809400  1
  S  S55  1  0.20512500  0.50899900  0.20111500  1
  S  S56  1  0.99126500  0.23465900  0.61183400  1
  S  S57  1  0.49878900  0.27586100  0.89729100  1
  S  S58  1  0.62661100  0.19605000  0.05376500  1
  S  S59  1  0.19561400  0.74234300  0.18415800  1
  S  S60  1  0.37338900  0.80395000  0.94623500  1
  S  S61  1  0.39621800  0.15521900  0.13542500  1
  S  S62  1  0.76534100  0.00873500  0.88816600  1
  S  S63  1  0.61637700  0.43513500  0.17107800  1
  S  S64  1  0.72413900  0.50121100  0.60270900  1
  S  S65  1  0.76899600  0.94906900  0.69446400  1
  S  S66  1  0.17522200  0.72460800  0.07502100  1
  S  S67  1  0.00873500  0.76534100  0.38816600  1
  S  S68  1  0.73630600  0.93651600  0.46023100  1
  S  S69  1  0.12788900  0.93804400  0.66589800  1
  S  S70  1  0.50121100  0.72413900  0.10270900  1
  S  S71  1  0.15521900  0.39621800  0.63542500  1
  S  S72  1  0.94365400  0.53730600  0.83821100  1
  S  S73  1  0.26369400  0.06348400  0.53976900  1
  S  S74  1  0.08546800  0.68523400  0.78009700  1
  S  S75  1  0.80395000  0.37338900  0.44623500  1
  S  S76  1  0.52390400  0.74237700  0.52999600  1
  S  S77  1  0.98057400  0.39054300  0.46996600  1
  S  S78  1  0.44993000  0.20987900  0.24190600  1
  S  S79  1  0.27539200  0.82477800  0.42497900  1
loop_
_geom_bond_atom_site_label_1
_geom_bond_atom_site_label_2
_geom_bond_distance
_geom_bond_site_symmetry_2
K0 S22 3.288347 1_555
K0 S70 3.318225 1_556
K0 S0 3.350562 1_555
K0 S1 3.411910 1_556
K0 S62 3.440531 1_565
K0 S32 3.468675 1_555
K0 S50 3.552804 1_566
K1 S67 3.137748 1_655
K1 S40 3.139904 1_565
K1 S59 3.154022 1_655
K1 S42 3.215550 1_555
K1 S47 3.400148 1_565
K1 S24 3.419873 1_565
K2 S58 3.250973 1_555
K2 S24 3.313687 1_555
K2 S40 3.400093 1_555
K2 S10 3.432423 1_545
K2 S43 3.548521 1_655
K2 S42 3.594039 1_545
K3 S4 3.253911 1_555
K3 S53 3.309178 1_555
K3 S70 3.380411 1_555
K3 S2 3.399943 1_555
K3 S7 3.523799 1_555
K3 S63 3.530555 1_555
K3 S46 3.591738 1_555
K4 S60 3.345147 1_555
K4 S27 3.391916 1_555
K4 S32 3.416190 1_555
K4 S26 3.440996 1_555
K4 S1 3.457357 1_556
K4 S17 3.467119 1_556
K4 S23 3.474334 1_555
K4 S72 3.756016 1_555
K5 S73 3.288347 1_555
K5 S51 3.318225 1_555
K5 S5 3.350562 1_555
K5 S33 3.411910 1_555
K5 S56 3.440531 1_455
K5 S71 3.468675 1_555
K5 S77 3.552804 1_455
K6 S73 3.311975 1_555
K6 S15 3.345858 1_555
K6 S48 3.353357 1_555
K6 S31 3.425970 1_555
K6 S30 3.496882 1_545
K6 S79 3.525195 1_545
K6 S45 3.543874 1_555
K7 S68 3.311975 1_555
K7 S6 3.345858 1_555
K7 S18 3.353357 1_555
K7 S36 3.425970 1_555
K7 S37 3.496882 1_565
K7 S12 3.525195 1_565
K7 S65 3.543874 1_555
K8 S27 3.253911 1_555
K8 S8 3.309178 1_555
K8 S64 3.380411 1_555
K8 S54 3.399943 1_555
K8 S36 3.523799 1_555
K8 S9 3.530555 1_555
K8 S16 3.591738 1_555
K9 S60 3.250973 1_555
K9 S13 3.313687 1_555
K9 S44 3.400093 1_555
K9 S3 3.432423 1_565
K9 S11 3.548521 1_455
K9 S14 3.594039 1_565
K10 S62 3.137748 1_565
K10 S74 3.139904 1_655
K10 S25 3.154022 1_565
K10 S65 3.215550 1_555
K10 S13 3.400148 1_655
K10 S69 3.419873 1_655
K11 S28 3.311975 1_556
K11 S3 3.345858 1_555
K11 S43 3.353357 1_556
K11 S41 3.425970 1_555
K11 S72 3.496882 1_455
K11 S26 3.525195 1_455
K11 S14 3.543874 1_555
K12 S55 3.253911 1_555
K12 S63 3.309178 1_555
K12 S51 3.380411 1_555
K12 S78 3.399943 1_555
K12 S31 3.523799 1_555
K12 S53 3.530555 1_555
K12 S59 3.591738 1_555
K13 S21 3.345147 1_555
K13 S19 3.391916 1_555
K13 S71 3.416190 1_555
K13 S12 3.440996 1_555
K13 S33 3.457357 1_555
K13 S39 3.467119 1_555
K13 S49 3.474334 1_555
K13 S37 3.756016 1_555
K14 S75 3.250973 1_555
K14 S47 3.313687 1_555
K14 S29 3.400093 1_555
K14 S15 3.432423 1_655
K14 S18 3.548521 1_545
K14 S45 3.594039 1_655
K15 S19 3.253911 1_555
K15 S9 3.309178 1_555
K15 S57 3.380411 1_555
K15 S38 3.399943 1_555
K15 S41 3.523799 1_555
K15 S8 3.530555 1_555
K15 S25 3.591738 1_555
K16 S56 3.137748 1_455
K16 S44 3.139904 1_545
K16 S16 3.154022 1_455
K16 S14 3.215550 1_555
K16 S69 3.400148 1_545
K16 S13 3.419873 1_545
K17 S34 3.137748 1_545
K17 S29 3.139904 1_455
K17 S46 3.154022 1_545
K17 S45 3.215550 1_555
K17 S24 3.400148 1_455
K17 S47 3.419873 1_455
K18 S22 3.311975 1_554
K18 S10 3.345858 1_555
K18 S11 3.353357 1_554
K18 S7 3.425970 1_555
K18 S20 3.496882 1_655
K18 S66 3.525195 1_655
K18 S42 3.543874 1_555
K19 S58 3.345147 1_555
K19 S55 3.391916 1_555
K19 S61 3.416190 1_555
K19 S66 3.440996 1_555
K19 S52 3.457357 1_554
K19 S23 3.467119 1_554
K19 S17 3.474334 1_555
K19 S20 3.756016 1_555
K20 S21 3.250973 1_555
K20 S69 3.313687 1_555
K20 S74 3.400093 1_555
K20 S6 3.432423 1_455
K20 S48 3.548521 1_565
K20 S65 3.594039 1_455
K21 S75 3.345147 1_555
K21 S4 3.391916 1_555
K21 S35 3.416190 1_555
K21 S79 3.440996 1_555
K21 S76 3.457357 1_555
K21 S49 3.467119 1_555
K21 S39 3.474334 1_555
K21 S30 3.756016 1_555
K22 S28 3.288347 1_555
K22 S57 3.318225 1_554
K22 S50 3.350562 1_555
K22 S52 3.411910 1_554
K22 S34 3.440531 1_545
K22 S61 3.468675 1_555
K22 S0 3.552804 1_544
K23 S68 3.288347 1_555
K23 S64 3.318225 1_555
K23 S77 3.350562 1_555
K23 S76 3.411910 1_555
K23 S67 3.440531 1_655
K23 S35 3.468675 1_555
K23 S5 3.552804 1_655
P0 S72 2.036435 1_455
P0 S41 2.037359 1_555
P0 S38 2.038619 1_555
P0 S74 2.052611 1_555
P1 S39 2.036242 1_555
P1 S51 2.043643 1_555
P1 S33 2.045583 1_555
P1 S53 2.046196 1_555
P2 S43 2.029756 1_555
P2 S34 2.050142 1_545
P2 S24 2.055733 1_455
P2 S28 2.057899 1_555
P3 S48 2.029756 1_555
P3 S56 2.050142 1_455
P3 S69 2.055733 1_545
P3 S73 2.057899 1_555
P4 S12 2.035110 1_555
P4 S25 2.038938 1_555
P4 S19 2.046385 1_555
P4 S65 2.062663 1_545
P5 S23 2.036242 1_555
P5 S57 2.043643 1_555
P5 S52 2.045583 1_555
P5 S8 2.046196 1_555
P6 S77 2.029672 1_555
P6 S15 2.046013 1_655
P6 S75 2.050050 1_555
P6 S35 2.052676 1_555
P7 S50 2.029672 1_555
P7 S10 2.046013 1_545
P7 S58 2.050050 1_555
P7 S61 2.052676 1_555
P8 S18 2.029756 1_555
P8 S67 2.050142 1_655
P8 S47 2.055733 1_565
P8 S68 2.057899 1_555
P9 S26 2.035110 1_555
P9 S16 2.038938 1_555
P9 S27 2.046385 1_555
P9 S14 2.062663 1_655
P10 S20 2.036435 1_655
P10 S7 2.037359 1_555
P10 S2 2.038619 1_555
P10 S29 2.052611 1_555
P11 S0 2.029672 1_555
P11 S3 2.046013 1_565
P11 S60 2.050050 1_555
P11 S32 2.052676 1_555
P12 S66 2.035110 1_555
P12 S59 2.038938 1_555
P12 S55 2.046385 1_555
P12 S42 2.062663 1_455
P13 S79 2.035110 1_555
P13 S46 2.038938 1_555
P13 S4 2.046385 1_555
P13 S45 2.062663 1_565
P14 S30 2.036435 1_545
P14 S31 2.037359 1_555
P14 S78 2.038619 1_555
P14 S40 2.052611 1_555
P15 S37 2.036435 1_565
P15 S36 2.037359 1_555
P15 S54 2.038619 1_555
P15 S44 2.052611 1_555
P16 S49 2.036242 1_555
P16 S64 2.043643 1_555
P16 S76 2.045583 1_555
P16 S9 2.046196 1_555
P17 S11 2.029756 1_555
P17 S62 2.050142 1_565
P17 S13 2.055733 1_655
P17 S22 2.057899 1_555
P18 S5 2.029672 1_555
P18 S6 2.046013 1_455
P18 S21 2.050050 1_555
P18 S71 2.052676 1_555
P19 S17 2.036242 1_555
P19 S70 2.043643 1_555
P19 S1 2.045583 1_555
P19 S63 2.046196 1_555
S0 Yb10 2.940594 1_556
S1 Yb0 2.853874 1_555
S2 Yb3 2.791995 1_555
S3 Yb5 2.806451 1_545
S4 Yb7 2.799778 1_565
S5 Yb1 2.940594 1_555
S6 Yb11 2.806451 1_655
S7 Yb0 2.825980 1_555
S8 Yb4 2.806813 1_555
S9 Yb2 2.806813 1_555
S10 Yb7 2.806451 1_565
S11 Yb9 2.931825 1_565
S12 Yb6 2.944710 1_555
S13 Yb4 2.837522 1_555
S14 Yb11 2.823479 1_555
S15 Yb3 2.806451 1_455
S16 Yb9 2.882770 1_555
S17 Yb10 2.980423 1_555
S18 Yb1 2.931825 1_655
S19 Yb5 2.799778 1_545
S20 Yb3 2.829720 1_455
S21 Yb1 2.903435 1_555
S22 Yb4 2.805228 1_655
S23 Yb9 2.980423 1_555
S24 Yb0 2.837522 1_555
S25 Yb6 2.882770 1_555
S26 Yb9 2.944710 1_555
S27 Yb11 2.799778 1_655
S28 Yb0 2.805228 1_455
S29 Yb0 2.813263 1_555
S30 Yb7 2.829720 1_565
S31 Yb8 2.825980 1_555
S32 Yb5 2.843128 1_555
S33 Yb8 2.853874 1_555
S34 Yb10 2.910305 1_555
S35 Yb3 2.843128 1_555
S36 Yb2 2.825980 1_555
S37 Yb5 2.829720 1_545
S38 Yb11 2.791995 1_555
S39 Yb1 2.980423 1_555
S40 Yb8 2.813263 1_555
S41 Yb4 2.825980 1_555
S42 Yb3 2.823479 1_555
S43 Yb10 2.931825 1_545
S44 Yb2 2.813263 1_555
S45 Yb7 2.823479 1_555
S46 Yb1 2.882770 1_555
S47 Yb8 2.837522 1_555
S48 Yb6 2.931825 1_455
S49 Yb6 2.980423 1_555
S50 Yb9 2.940594 1_554
S51 Yb1 2.945216 1_555
S52 Yb4 2.853874 1_555
S53 Yb8 2.806813 1_555
S54 Yb5 2.791995 1_555
S55 Yb3 2.799778 1_455
S56 Yb6 2.910305 1_555
S57 Yb9 2.945216 1_555
S58 Yb9 2.903435 1_554
S59 Yb10 2.882770 1_555
S60 Yb10 2.903435 1_556
S61 Yb7 2.843128 1_555
S62 Yb9 2.910305 1_555
S63 Yb0 2.806813 1_555
S64 Yb6 2.945216 1_555
S65 Yb5 2.823479 1_555
S66 Yb10 2.944710 1_555
S67 Yb1 2.910305 1_555
S68 Yb8 2.805228 1_565
S69 Yb2 2.837522 1_555
S70 Yb10 2.945216 1_555
S71 Yb11 2.843128 1_555
S72 Yb11 2.829720 1_655
S73 Yb2 2.805228 1_545
S74 Yb4 2.813263 1_555
S75 Yb6 2.903435 1_555
S76 Yb2 2.853874 1_555
S77 Yb6 2.940594 1_555
S78 Yb7 2.791995 1_555
S79 Yb1 2.944710 1_555
