# generated using pymatgen
data_CdI2
_symmetry_space_group_name_H-M   'P 1'
_cell_length_a   4.34475148
_cell_length_b   4.34475148
_cell_length_c   80.96424000
_cell_angle_alpha   90.00000000
_cell_angle_beta   90.00000000
_cell_angle_gamma   119.99999202
_symmetry_Int_Tables_number   1
_chemical_formula_structural   CdI2
_chemical_formula_sum   'Cd11 I22'
_cell_volume   1323.59095003
_cell_formula_units_Z   11
loop_
 _symmetry_equiv_pos_site_id
 _symmetry_equiv_pos_as_xyz
  1  'x, y, z'
loop_
 _atom_site_type_symbol
 _atom_site_label
 _atom_site_symmetry_multiplicity
 _atom_site_fract_x
 _atom_site_fract_y
 _atom_site_fract_z
 _atom_site_occupancy
  Cd  Cd0  1  0.00000000  0.00000000  0.20454100  1
  Cd  Cd1  1  0.66666700  0.33333300  0.84089500  1
  Cd  Cd2  1  0.00000000  0.00000000  0.02273300  1
  Cd  Cd3  1  0.66666700  0.33333300  0.11365900  1
  Cd  Cd4  1  0.00000000  0.00000000  0.38639100  1
  Cd  Cd5  1  0.66666700  0.33333300  0.29546000  1
  Cd  Cd6  1  0.00000000  0.00000000  0.74998800  1
  Cd  Cd7  1  0.66666700  0.33333300  0.47728100  1
  Cd  Cd8  1  0.66666700  0.33333300  0.93180700  1
  Cd  Cd9  1  0.00000000  0.00000000  0.56817300  1
  Cd  Cd10  1  0.66666700  0.33333300  0.65906600  1
  I  I0  1  0.33333300  0.66666700  0.09227400  1
  I  I1  1  0.66666700  0.33333300  0.58953100  1
  I  I2  1  0.00000000  0.00000000  0.86227500  1
  I  I3  1  0.00000000  0.00000000  0.68044100  1
  I  I4  1  0.33333300  0.66666700  0.45589700  1
  I  I5  1  0.66666700  0.33333300  0.40776300  1
  I  I6  1  0.33333300  0.66666700  0.18316900  1
  I  I7  1  0.33333300  0.66666700  0.63770300  1
  I  I8  1  0.00000000  0.00000000  0.95317000  1
  I  I9  1  0.33333300  0.66666700  0.72860600  1
  I  I10  1  0.33333300  0.66666700  0.54681000  1
  I  I11  1  0.66666700  0.33333300  0.77135800  1
  I  I12  1  0.33333300  0.66666700  0.81953300  1
  I  I13  1  0.66666700  0.33333300  0.04410700  1
  I  I14  1  0.66666700  0.33333300  0.22591100  1
  I  I15  1  0.33333300  0.66666700  0.91041800  1
  I  I16  1  0.33333300  0.66666700  0.27410100  1
  I  I17  1  0.33333300  0.66666700  0.00139400  1
  I  I18  1  0.33333300  0.66666700  0.36502300  1
  I  I19  1  0.00000000  0.00000000  0.49864700  1
  I  I20  1  0.00000000  0.00000000  0.31684400  1
  I  I21  1  0.00000000  0.00000000  0.13502800  1
loop_
_geom_bond_atom_site_label_1
_geom_bond_atom_site_label_2
_geom_bond_distance
_geom_bond_site_symmetry_2
Cd0 I14 3.047275 1_455
Cd0 I14 3.047279 1_555
Cd0 I14 3.047279 1_445
Cd0 I6 3.047367 1_545
Cd0 I6 3.047371 1_445
Cd0 I6 3.047371 1_555
Cd1 I12 3.046908 1_545
Cd1 I12 3.046908 1_655
Cd1 I12 3.046914 1_555
Cd1 I2 3.047735 1_655
Cd1 I2 3.047739 1_555
Cd1 I2 3.047739 1_665
Cd2 I17 3.045851 1_545
Cd2 I17 3.045854 1_555
Cd2 I17 3.045854 1_445
Cd2 I13 3.047459 1_455
Cd2 I13 3.047463 1_445
Cd2 I13 3.047463 1_555
Cd3 I21 3.047229 1_655
Cd3 I21 3.047233 1_555
Cd3 I21 3.047233 1_665
Cd3 I0 3.047965 1_655
Cd3 I0 3.047965 1_545
Cd3 I0 3.047971 1_555
Cd4 I18 3.047183 1_545
Cd4 I18 3.047187 1_445
Cd4 I18 3.047187 1_555
Cd4 I5 3.047367 1_455
Cd4 I5 3.047371 1_555
Cd4 I5 3.047371 1_445
Cd5 I16 3.046770 1_545
Cd5 I16 3.046770 1_655
Cd5 I16 3.046776 1_555
Cd5 I20 3.047919 1_655
Cd5 I20 3.047923 1_555
Cd5 I20 3.047923 1_665
Cd6 I11 3.047275 1_455
Cd6 I11 3.047279 1_555
Cd6 I11 3.047279 1_445
Cd6 I9 3.047827 1_545
Cd6 I9 3.047831 1_555
Cd6 I9 3.047831 1_445
Cd7 I19 3.047092 1_655
Cd7 I19 3.047095 1_665
Cd7 I19 3.047095 1_555
Cd7 I4 3.047919 1_655
Cd7 I4 3.047919 1_545
Cd7 I4 3.047925 1_555
Cd8 I8 3.046954 1_655
Cd8 I8 3.046957 1_665
Cd8 I8 3.046957 1_555
Cd8 I15 3.048149 1_655
Cd8 I15 3.048149 1_545
Cd8 I15 3.048155 1_555
Cd9 I1 3.046724 1_455
Cd9 I1 3.046727 1_555
Cd9 I1 3.046727 1_445
Cd9 I10 3.046954 1_545
Cd9 I10 3.046957 1_555
Cd9 I10 3.046957 1_445
Cd10 I7 3.046954 1_655
Cd10 I7 3.046954 1_545
Cd10 I7 3.046960 1_555
Cd10 I3 3.047505 1_655
Cd10 I3 3.047509 1_555
Cd10 I3 3.047509 1_665
