# generated using pymatgen
data_Hf8PbO24
_symmetry_space_group_name_H-M   'P 1'
_cell_length_a   9.25109913
_cell_length_b   9.25109913
_cell_length_c   9.24047742
_cell_angle_alpha   66.59826687
_cell_angle_beta   66.59826687
_cell_angle_gamma   53.10421605
_symmetry_Int_Tables_number   1
_chemical_formula_structural   Hf8PbO24
_chemical_formula_sum   'Hf8 Pb1 O24'
_cell_volume   566.68726166
_cell_formula_units_Z   1
loop_
 _symmetry_equiv_pos_site_id
 _symmetry_equiv_pos_as_xyz
  1  'x, y, z'
loop_
 _atom_site_type_symbol
 _atom_site_label
 _atom_site_symmetry_multiplicity
 _atom_site_fract_x
 _atom_site_fract_y
 _atom_site_fract_z
 _atom_site_occupancy
  Hf  Hf0  1  0.81839500  0.30918000  0.75415800  1
  Hf  Hf1  1  0.69082000  0.18160500  0.24584200  1
  Hf  Hf2  1  0.30918000  0.81839500  0.75415800  1
  Hf  Hf3  1  0.05486100  0.56351900  0.75395400  1
  Hf  Hf4  1  0.18160500  0.69082000  0.24584200  1
  Hf  Hf5  1  0.94513900  0.43648100  0.24604600  1
  Hf  Hf6  1  0.56351900  0.05486100  0.75395400  1
  Hf  Hf7  1  0.43648100  0.94513900  0.24604600  1
  Pb  Pb0  1  0.50000000  0.50000000  0.50000000  1
  O  O0  1  0.74819100  0.25180900  0.00000000  1
  O  O1  1  0.67808300  0.20316800  0.73725700  1
  O  O2  1  0.79683200  0.32191700  0.26274300  1
  O  O3  1  0.55915000  0.55915000  0.73707300  1
  O  O4  1  0.32186200  0.32186200  0.73819100  1
  O  O5  1  0.44085000  0.44085000  0.26292700  1
  O  O6  1  0.18601100  0.18601100  0.25224000  1
  O  O7  1  0.25180900  0.74819100  0.00000000  1
  O  O8  1  0.20316800  0.67808300  0.73725700  1
  O  O9  1  0.00000000  0.50000000  0.00000000  1
  O  O10  1  0.14378100  0.61935400  0.49991200  1
  O  O11  1  0.32191700  0.79683200  0.26274300  1
  O  O12  1  0.93817300  0.43807900  0.74748400  1
  O  O13  1  0.85621900  0.38064600  0.50008800  1
  O  O14  1  0.06182700  0.56192100  0.25251600  1
  O  O15  1  0.81398900  0.81398900  0.74776000  1
  O  O16  1  0.93812200  0.93812200  0.25124600  1
  O  O17  1  0.67813800  0.67813800  0.26180900  1
  O  O18  1  0.06187800  0.06187800  0.74875400  1
  O  O19  1  0.50000000  0.00000000  0.00000000  1
  O  O20  1  0.43807900  0.93817300  0.74748400  1
  O  O21  1  0.56192100  0.06182700  0.25251600  1
  O  O22  1  0.38064600  0.85621900  0.50008800  1
  O  O23  1  0.61935400  0.14378100  0.49991200  1
loop_
_geom_bond_atom_site_label_1
_geom_bond_atom_site_label_2
_geom_bond_distance
_geom_bond_site_symmetry_2
Hf0 O18 2.030772 1_655
Hf0 O12 2.031614 1_555
Hf0 O0 2.036731 1_556
Hf0 O13 2.112727 1_555
Hf0 O3 2.115630 1_555
Hf0 O1 2.117161 1_555
Hf1 O16 2.030772 1_545
Hf1 O21 2.031614 1_555
Hf1 O0 2.036731 1_555
Hf1 O23 2.112727 1_555
Hf1 O5 2.115630 1_555
Hf1 O2 2.117161 1_555
Hf2 O18 2.030772 1_565
Hf2 O20 2.031614 1_555
Hf2 O7 2.036731 1_556
Hf2 O22 2.112727 1_555
Hf2 O3 2.115630 1_555
Hf2 O8 2.117161 1_555
Hf3 O12 2.031273 1_455
Hf3 O15 2.033235 1_455
Hf3 O9 2.037718 1_556
Hf3 O4 2.112509 1_555
Hf3 O10 2.113570 1_555
Hf3 O8 2.115986 1_555
Hf4 O16 2.030772 1_455
Hf4 O14 2.031614 1_555
Hf4 O7 2.036731 1_555
Hf4 O10 2.112727 1_555
Hf4 O5 2.115630 1_555
Hf4 O11 2.117161 1_555
Hf5 O14 2.031273 1_655
Hf5 O6 2.033235 1_655
Hf5 O9 2.037718 1_655
Hf5 O17 2.112509 1_555
Hf5 O13 2.113570 1_555
Hf5 O2 2.115986 1_555
Hf6 O20 2.031273 1_545
Hf6 O15 2.033235 1_545
Hf6 O19 2.037718 1_556
Hf6 O4 2.112509 1_555
Hf6 O23 2.113570 1_555
Hf6 O1 2.115986 1_555
Hf7 O21 2.031273 1_565
Hf7 O6 2.033235 1_565
Hf7 O19 2.037718 1_565
Hf7 O17 2.112509 1_555
Hf7 O22 2.113570 1_555
Hf7 O11 2.115986 1_555
O1 Pb0 2.777781 1_555
O2 Pb0 2.777781 1_555
O3 Pb0 2.768006 1_555
O4 Pb0 2.788268 1_555
O5 Pb0 2.768006 1_555
O8 Pb0 2.777781 1_555
O10 Pb0 2.776929 1_555
O11 Pb0 2.777781 1_555
O13 Pb0 2.776929 1_555
O17 Pb0 2.788268 1_555
O22 Pb0 2.776929 1_555
O23 Pb0 2.776929 1_555
