# generated using pymatgen
data_Ba(Hf2As3)6
_symmetry_space_group_name_H-M   'P 1'
_cell_length_a   10.09083000
_cell_length_b   10.26706507
_cell_length_c   16.93033952
_cell_angle_alpha   88.59381590
_cell_angle_beta   102.94260905
_cell_angle_gamma   118.71238216
_symmetry_Int_Tables_number   1
_chemical_formula_structural   Ba(Hf2As3)6
_chemical_formula_sum   'Ba2 Hf24 As36'
_cell_volume   1492.18739287
_cell_formula_units_Z   2
loop_
 _symmetry_equiv_pos_site_id
 _symmetry_equiv_pos_as_xyz
  1  'x, y, z'
loop_
 _atom_site_type_symbol
 _atom_site_label
 _atom_site_symmetry_multiplicity
 _atom_site_fract_x
 _atom_site_fract_y
 _atom_site_fract_z
 _atom_site_occupancy
  Ba  Ba0  1  0.42893300  0.06278800  0.52199200  1
  Ba  Ba1  1  0.95195900  0.08106800  0.01726800  1
  Hf  Hf0  1  0.04717700  0.05133000  0.28470300  1
  Hf  Hf1  1  0.81283500  0.25885800  0.81457100  1
  Hf  Hf2  1  0.28242500  0.53897300  0.45142600  1
  Hf  Hf3  1  0.73189600  0.53715000  0.92447700  1
  Hf  Hf4  1  0.49610200  0.04435300  0.89823000  1
  Hf  Hf5  1  0.93581700  0.25343200  0.49085500  1
  Hf  Hf6  1  0.21432200  0.80467300  0.31091500  1
  Hf  Hf7  1  0.56971900  0.74260400  0.86003700  1
  Hf  Hf8  1  0.86414700  0.49525300  0.31976800  1
  Hf  Hf9  1  0.34973900  0.37519200  0.96017300  1
  Hf  Hf10  1  0.59327000  0.08671500  0.31618200  1
  Hf  Hf11  1  0.15126400  0.02296700  0.85088500  1
  Hf  Hf12  1  0.86555200  0.71179400  0.16368100  1
  Hf  Hf13  1  0.30850500  0.74159200  0.69303300  1
  Hf  Hf14  1  0.52425900  0.66856100  0.10065000  1
  Hf  Hf15  1  0.91464100  0.54991400  0.54285900  1
  Hf  Hf16  1  0.45727500  0.28297600  0.15677300  1
  Hf  Hf17  1  0.09548700  0.27053000  0.68511400  1
  Hf  Hf18  1  0.56446100  0.02774500  0.09997500  1
  Hf  Hf19  1  0.96124000  0.72915200  0.71796500  1
  Hf  Hf20  1  0.30434900  0.54594700  0.23354000  1
  Hf  Hf21  1  0.61431200  0.49108100  0.62327600  1
  Hf  Hf22  1  0.22263400  0.89525700  0.12978200  1
  Hf  Hf23  1  0.72860600  0.86855100  0.69832400  1
  As  As0  1  0.79972300  0.93650500  0.16589800  1
  As  As1  1  0.12289400  0.83777200  0.59978700  1
  As  As2  1  0.01945400  0.31244100  0.33225500  1
  As  As3  1  0.36125500  0.28557300  0.66715200  1
  As  As4  1  0.96509000  0.74871500  0.02295300  1
  As  As5  1  0.52440600  0.69492800  0.57222600  1
  As  As6  1  0.04745800  0.58071000  0.19507000  1
  As  As7  1  0.58779100  0.58031100  0.75420100  1
  As  As8  1  0.76198600  0.29075000  0.95934700  1
  As  As9  1  0.22159300  0.24719600  0.52108600  1
  As  As10  1  0.12094200  0.69058400  0.44243000  1
  As  As11  1  0.57997200  0.98010800  0.76482900  1
  As  As12  1  0.28089900  0.52228700  0.79220400  1
  As  As13  1  0.62922400  0.48084300  0.06020700  1
  As  As14  1  0.15672700  0.49948800  0.58444100  1
  As  As15  1  0.70481600  0.32702800  0.42719900  1
  As  As16  1  0.34613000  0.10431800  0.00974000  1
  As  As17  1  0.78588300  0.08131400  0.59160800  1
  As  As18  1  0.94227400  0.78623000  0.33647400  1
  As  As19  1  0.57071300  0.86985500  0.98556200  1
  As  As20  1  0.61379600  0.55182900  0.24577400  1
  As  As21  1  0.15326700  0.48911000  0.90807000  1
  As  As22  1  0.32295900  0.08701300  0.26749400  1
  As  As23  1  0.05156000  0.21441900  0.84270300  1
  As  As24  1  0.84558300  0.04897500  0.36830400  1
  As  As25  1  0.22916000  0.81769100  0.82251900  1
  As  As26  1  0.25524900  0.39047700  0.09523900  1
  As  As27  1  0.80994700  0.32791400  0.64607600  1
  As  As28  1  0.46270300  0.82997700  0.20908900  1
  As  As29  1  0.28977700  0.72818700  0.05530700  1
  As  As30  1  0.72077300  0.26035000  0.20469800  1
  As  As31  1  0.03587300  0.99479000  0.68472500  1
  As  As32  1  0.29140400  0.34943400  0.34463800  1
  As  As33  1  0.79843600  0.49484900  0.78316600  1
  As  As34  1  0.47186800  0.78107700  0.37454400  1
  As  As35  1  0.86708900  0.83538900  0.85953300  1
loop_
_geom_bond_atom_site_label_1
_geom_bond_atom_site_label_2
_geom_bond_distance
_geom_bond_site_symmetry_2
As0 Hf0 2.590133 1_665
As0 Hf12 2.693216 1_555
As0 Hf14 2.818012 1_555
As0 Hf18 2.942377 1_565
As0 Ba1 3.201940 1_565
As1 Hf15 2.710134 1_455
As1 Hf13 2.711355 1_555
As1 Hf19 2.740865 1_455
As1 Ba0 3.380321 1_565
As2 As32 2.542361 1_555
As2 As24 2.570313 1_455
As2 Hf2 2.902371 1_555
As2 Hf8 2.946529 1_455
As2 Hf5 2.955229 1_455
As2 Hf0 2.973334 1_555
As3 As9 2.491982 1_555
As3 Hf21 2.668395 1_555
As3 Hf17 2.696949 1_555
As3 Ba0 3.777143 1_555
As4 Hf3 2.558188 1_554
As4 Hf22 2.561239 1_655
As4 Hf12 2.736977 1_555
As4 Ba1 3.476081 1_565
As5 Hf23 2.582293 1_555
As5 Hf2 2.622219 1_555
As5 Hf21 2.708261 1_555
As6 Hf6 2.644086 1_555
As6 Hf12 2.713790 1_455
As6 Hf20 2.718929 1_555
As6 Hf8 2.957623 1_455
As6 Hf22 3.160852 1_555
As7 Hf21 2.534800 1_555
As7 Hf7 2.570074 1_555
As7 Hf23 2.845402 1_555
As7 Hf3 3.049626 1_555
As8 Hf4 2.651844 1_555
As8 Hf1 2.672568 1_555
As8 Hf3 2.724899 1_555
As8 Ba1 3.505802 1_556
As9 Hf5 2.845439 1_455
As9 Hf2 3.020915 1_555
As9 Hf17 3.361137 1_555
As9 Ba0 3.428217 1_555
As9 Hf21 3.546077 1_555
As10 Hf6 2.639888 1_555
As10 Hf2 2.723190 1_555
As10 Hf8 2.801793 1_455
As10 Hf15 2.808346 1_455
As10 Ba0 3.611485 1_565
As11 Hf13 2.680940 1_555
As11 Hf1 2.681748 1_565
As11 Hf23 2.701755 1_555
As11 Hf4 2.778125 1_565
As11 Hf7 2.862596 1_555
As12 Hf7 2.687654 1_555
As12 Hf13 2.718039 1_555
As12 Hf17 2.744594 1_555
As12 Hf9 3.280655 1_555
As13 Hf9 2.647625 1_554
As13 Hf3 2.667205 1_554
As13 Hf12 2.697745 1_555
As13 Hf16 2.744342 1_555
As13 Hf14 2.767000 1_555
As14 Hf5 2.658030 1_455
As14 Hf15 2.675461 1_455
As14 Hf13 2.685062 1_555
As14 Hf2 2.754142 1_555
As14 Hf17 2.773496 1_555
As15 Hf15 2.694700 1_555
As15 Hf8 2.713653 1_555
As15 Hf10 2.738399 1_555
As15 Hf5 2.773626 1_555
As15 Ba0 3.495252 1_555
As16 Hf16 2.795717 1_555
As16 Hf18 2.811295 1_555
As16 Hf11 2.821468 1_554
As16 Hf9 2.870854 1_554
As16 Hf4 2.909552 1_554
As16 Hf22 2.939553 1_545
As17 As27 2.596771 1_555
As17 Hf5 2.600149 1_555
As17 Hf23 2.726014 1_545
As17 Hf17 2.853865 1_655
As17 Ba0 3.442414 1_555
As18 Hf0 2.612892 1_665
As18 Hf8 2.702809 1_555
As18 Hf6 2.790667 1_655
As18 Hf12 2.875475 1_555
As19 Hf7 2.517450 1_555
As19 Hf4 2.574898 1_565
As19 Hf18 2.586721 1_566
As19 Hf14 2.751039 1_556
As19 Ba1 3.302593 1_566
As20 Hf16 2.708066 1_555
As20 Hf14 2.862000 1_555
As20 Hf8 2.871461 1_555
As20 Hf12 2.922944 1_555
As20 Hf20 3.053972 1_555
As21 As23 2.663703 1_555
As21 Hf9 2.733242 1_555
As21 Hf1 3.136905 1_455
As22 Hf10 2.668397 1_555
As22 Hf0 2.709582 1_555
As22 Hf6 2.710780 1_545
As22 Hf22 2.754964 1_545
As22 Hf16 2.780611 1_555
As23 Hf11 2.592213 1_555
As23 Hf1 2.601808 1_455
As23 Hf17 2.802810 1_555
As23 Hf9 2.905486 1_555
As23 Ba1 3.380701 1_456
As24 Hf5 2.659233 1_555
As24 Hf10 2.708484 1_555
As24 Hf0 2.717154 1_655
As25 Hf19 2.615864 1_455
As25 Hf4 2.625119 1_565
As25 Hf11 2.664751 1_565
As25 Hf13 2.743867 1_555
As26 Hf20 2.679520 1_555
As26 Hf9 2.702014 1_554
As26 Hf16 2.759271 1_555
As26 Hf14 2.825507 1_555
As26 Ba1 3.202383 1_455
As27 Hf15 2.771797 1_555
As27 Hf1 2.919700 1_555
As27 As33 2.974104 1_555
As27 Hf21 3.107587 1_555
As27 Hf17 3.137666 1_655
As27 Hf5 3.410449 1_555
As27 Ba0 3.634821 1_555
As28 Hf20 2.643576 1_555
As28 Hf18 2.693003 1_565
As28 Hf10 2.792687 1_565
As28 Hf14 2.855202 1_555
As28 Hf22 2.859958 1_555
As29 Hf22 2.568400 1_555
As29 Hf14 2.667890 1_555
As29 Hf18 2.949271 1_565
As30 Hf18 2.582742 1_555
As30 Hf10 2.667364 1_555
As30 Hf8 2.705658 1_555
As30 Hf16 2.720285 1_555
As31 Hf19 2.542278 1_455
As31 Hf17 2.596061 1_565
As31 Hf11 2.757221 1_565
As31 Hf23 2.791123 1_455
As32 Hf20 2.701163 1_555
As32 Hf2 2.734838 1_555
As32 Hf0 2.873266 1_555
As33 Hf1 2.532755 1_555
As33 Hf19 2.566942 1_555
As33 As7 2.613898 1_555
As33 Hf3 2.722869 1_555
As33 Hf21 2.909373 1_555
As34 Hf6 2.703932 1_555
As34 Hf2 2.813809 1_555
As34 Hf20 2.989735 1_555
As34 Hf10 3.003426 1_565
As35 Hf11 2.611771 1_665
As35 Hf7 2.678866 1_555
As35 Hf23 2.867219 1_555
As35 Hf3 2.989842 1_555
As35 Hf19 3.159268 1_555
As35 Ba1 3.384982 1_566
