# generated using pymatgen
data_TeAs(SeF3)2
_symmetry_space_group_name_H-M   'P 1'
_cell_length_a   9.13120800
_cell_length_b   13.64447200
_cell_length_c   16.16164100
_cell_angle_alpha   90.00000000
_cell_angle_beta   90.00000000
_cell_angle_gamma   90.00000000
_symmetry_Int_Tables_number   1
_chemical_formula_structural   TeAs(SeF3)2
_chemical_formula_sum   'Te8 As8 Se16 F48'
_cell_volume   2013.58712505
_cell_formula_units_Z   8
loop_
 _symmetry_equiv_pos_site_id
 _symmetry_equiv_pos_as_xyz
  1  'x, y, z'
loop_
 _atom_site_type_symbol
 _atom_site_label
 _atom_site_symmetry_multiplicity
 _atom_site_fract_x
 _atom_site_fract_y
 _atom_site_fract_z
 _atom_site_occupancy
  Te  Te0  1  0.50455700  0.78188300  0.11004600  1
  Te  Te1  1  0.99544300  0.21811700  0.61004600  1
  Te  Te2  1  0.00455700  0.71811700  0.88995400  1
  Te  Te3  1  0.18511100  0.82233000  0.77408500  1
  Te  Te4  1  0.49544300  0.28188300  0.38995400  1
  Te  Te5  1  0.81488900  0.32233000  0.72591500  1
  Te  Te6  1  0.31488900  0.17767000  0.27408500  1
  Te  Te7  1  0.68511100  0.67767000  0.22591500  1
  As  As0  1  0.72254700  0.72819100  0.70895100  1
  As  As1  1  0.27745300  0.22819100  0.79104900  1
  As  As2  1  0.73511700  0.53867700  0.99514800  1
  As  As3  1  0.26488300  0.03867700  0.50485200  1
  As  As4  1  0.23511700  0.96132300  0.00485200  1
  As  As5  1  0.77745300  0.27180900  0.20895100  1
  As  As6  1  0.22254700  0.77180900  0.29104900  1
  As  As7  1  0.76488300  0.46132300  0.49514800  1
  Se  Se0  1  0.86483800  0.91640800  0.18273400  1
  Se  Se1  1  0.71720900  0.86033000  0.29699300  1
  Se  Se2  1  0.13869400  0.54673000  0.87477100  1
  Se  Se3  1  0.13516200  0.41640800  0.31726600  1
  Se  Se4  1  0.21720900  0.63967000  0.70300700  1
  Se  Se5  1  0.78279100  0.13967000  0.79699300  1
  Se  Se6  1  0.86130600  0.04673000  0.62522900  1
  Se  Se7  1  0.36130600  0.45327000  0.37477100  1
  Se  Se8  1  0.17819900  0.24430500  0.10382800  1
  Se  Se9  1  0.63516200  0.08359200  0.68273400  1
  Se  Se10  1  0.63869400  0.95327000  0.12522900  1
  Se  Se11  1  0.28279100  0.36033000  0.20300700  1
  Se  Se12  1  0.32180100  0.75569500  0.60382800  1
  Se  Se13  1  0.67819900  0.25569500  0.89617200  1
  Se  Se14  1  0.36483800  0.58359200  0.81726600  1
  Se  Se15  1  0.82180100  0.74430500  0.39617200  1
  F  F0  1  0.82331100  0.83825400  0.70170000  1
  F  F1  1  0.40945700  0.23227800  0.49333800  1
  F  F2  1  0.43465800  0.28806000  0.83511200  1
  F  F3  1  0.16545900  0.73727900  0.19042700  1
  F  F4  1  0.56534200  0.78806000  0.66488800  1
  F  F5  1  0.14340900  0.93514900  0.85675200  1
  F  F6  1  0.12017700  0.88151500  0.28176600  1
  F  F7  1  0.85659100  0.43514900  0.64324800  1
  F  F8  1  0.26937800  0.97152200  0.11447500  1
  F  F9  1  0.87982300  0.38151500  0.21823400  1
  F  F10  1  0.33454100  0.26272100  0.69042700  1
  F  F11  1  0.38070900  0.83279400  0.24379600  1
  F  F12  1  0.37982300  0.11848500  0.78176600  1
  F  F13  1  0.40874300  0.95167100  0.50851500  1
  F  F14  1  0.35659100  0.06485100  0.35675200  1
  F  F15  1  0.90874300  0.54832900  0.49148500  1
  F  F16  1  0.67668900  0.16174600  0.20170000  1
  F  F17  1  0.23062200  0.02847800  0.61447500  1
  F  F18  1  0.14358400  0.75052800  0.55649200  1
  F  F19  1  0.64340900  0.56485100  0.14324800  1
  F  F20  1  0.59054300  0.73227800  0.00666200  1
  F  F21  1  0.90945700  0.26772200  0.50666200  1
  F  F22  1  0.59125700  0.45167100  0.99148500  1
  F  F23  1  0.37831600  0.04290200  0.97916400  1
  F  F24  1  0.21338500  0.19233400  0.88808800  1
  F  F25  1  0.09054300  0.76772200  0.99333800  1
  F  F26  1  0.62017700  0.61848500  0.71823400  1
  F  F27  1  0.88070900  0.66720600  0.75620400  1
  F  F28  1  0.28661500  0.80766600  0.38808800  1
  F  F29  1  0.61929100  0.33279400  0.25620400  1
  F  F30  1  0.71338500  0.30766600  0.11191200  1
  F  F31  1  0.12168400  0.95709800  0.47916400  1
  F  F32  1  0.64358400  0.74947200  0.44350800  1
  F  F33  1  0.06534200  0.71194000  0.33511200  1
  F  F34  1  0.66545900  0.76272100  0.80957300  1
  F  F35  1  0.11929100  0.16720600  0.74379600  1
  F  F36  1  0.17668900  0.33825400  0.79830000  1
  F  F37  1  0.32331100  0.66174600  0.29830000  1
  F  F38  1  0.09125700  0.04832900  0.00851500  1
  F  F39  1  0.93465800  0.21194000  0.16488800  1
  F  F40  1  0.35641600  0.24947200  0.05649200  1
  F  F41  1  0.73062200  0.47152200  0.38552500  1
  F  F42  1  0.83454100  0.23727900  0.30957300  1
  F  F43  1  0.78661500  0.69233400  0.61191200  1
  F  F44  1  0.85641600  0.25052800  0.94350800  1
  F  F45  1  0.87831600  0.45709800  0.02083600  1
  F  F46  1  0.76937800  0.52847800  0.88552500  1
  F  F47  1  0.62168400  0.54290200  0.52083600  1
loop_
_geom_bond_atom_site_label_1
_geom_bond_atom_site_label_2
_geom_bond_distance
_geom_bond_site_symmetry_2
As0 F43 1.743905 1_555
As0 F0 1.765098 1_555
As0 F26 1.771141 1_555
As0 F34 1.771523 1_555
As0 F4 1.798611 1_555
As0 F27 1.833402 1_555
As1 F24 1.743905 1_555
As1 F36 1.765098 1_555
As1 F12 1.771141 1_555
As1 F10 1.771523 1_555
As1 F2 1.798611 1_555
As1 F35 1.833402 1_555
As2 F45 1.766669 1_556
As2 F22 1.771558 1_555
As2 F46 1.804471 1_555
As3 F31 1.766669 1_545
As3 F13 1.771558 1_545
As3 F17 1.804471 1_555
As4 F23 1.766669 1_564
As4 F38 1.771558 1_565
As4 F8 1.804471 1_555
As5 F30 1.743905 1_555
As5 F16 1.765098 1_555
As5 F9 1.771141 1_555
As5 F42 1.771523 1_555
As5 F39 1.798611 1_555
As5 F29 1.833402 1_555
As6 F28 1.743905 1_555
As6 F37 1.765098 1_555
As6 F6 1.771141 1_555
As6 F3 1.771523 1_555
As6 F33 1.798611 1_555
As6 F11 1.833402 1_555
As7 F47 1.766669 1_555
As7 F15 1.771558 1_555
As7 F41 1.804471 1_555
Se0 Se10 2.319656 1_555
Se0 Se1 2.410939 1_555
Se1 Se15 2.446958 1_555
Se1 Te7 2.759902 1_555
Se2 Te2 2.651215 1_555
Se3 Se7 2.319656 1_555
Se4 Te3 2.759902 1_555
Se5 Se9 2.410939 1_555
Se5 Te5 2.759902 1_555
Se6 Se9 2.319656 1_555
Se6 Te1 2.651215 1_555
Se7 Te4 2.651215 1_555
Se10 Te0 2.651215 1_555
Se11 Se3 2.410939 1_555
Se11 Se8 2.446958 1_555
Se11 Te6 2.759902 1_555
Se12 Se4 2.446958 1_555
Se13 Se5 2.446958 1_555
Se14 Se2 2.319656 1_555
Se14 Se4 2.410939 1_555
F1 Te4 1.966299 1_555
F5 Te3 2.073549 1_555
F7 Te5 2.073549 1_555
F11 Te0 2.536540 1_555
F14 Te6 2.073549 1_555
F18 Se12 1.799573 1_555
F19 Te7 2.073549 1_555
F20 Te0 1.966299 1_555
F21 Te1 1.966299 1_555
F25 Te2 1.966299 1_555
F27 Te2 2.536540 1_655
F29 Te4 2.536540 1_555
F32 Se15 1.799573 1_555
F35 Te1 2.536540 1_455
F40 Se8 1.799573 1_555
F44 Se13 1.799573 1_555
