# generated using pymatgen
data_Ho4Zr3O12
_symmetry_space_group_name_H-M   'P 1'
_cell_length_a   6.33988447
_cell_length_b   6.40703490
_cell_length_c   12.71369039
_cell_angle_alpha   99.28707234
_cell_angle_beta   99.26475412
_cell_angle_gamma   99.37861809
_symmetry_Int_Tables_number   1
_chemical_formula_structural   Ho4Zr3O12
_chemical_formula_sum   'Ho8 Zr6 O24'
_cell_volume   493.45614197
_cell_formula_units_Z   2
loop_
 _symmetry_equiv_pos_site_id
 _symmetry_equiv_pos_as_xyz
  1  'x, y, z'
loop_
 _atom_site_type_symbol
 _atom_site_label
 _atom_site_symmetry_multiplicity
 _atom_site_fract_x
 _atom_site_fract_y
 _atom_site_fract_z
 _atom_site_occupancy
  Ho  Ho0  1  0.38800442  0.86517104  0.09806569  1
  Ho  Ho1  1  0.31007518  0.60967963  0.81829644  1
  Ho  Ho2  1  0.29770144  0.61054749  0.31891030  1
  Ho  Ho3  1  0.85830254  0.69304364  0.44745194  1
  Ho  Ho4  1  0.68992482  0.39032037  0.18170356  1
  Ho  Ho5  1  0.14169746  0.30695636  0.55254806  1
  Ho  Ho6  1  0.61199558  0.13482896  0.90193431  1
  Ho  Ho7  1  0.70229856  0.38945251  0.68108970  1
  Zr  Zr0  1  0.99188634  0.99384812  0.24741657  1
  Zr  Zr1  1  0.39167569  0.85680770  0.59462515  1
  Zr  Zr2  1  0.00811366  0.00615188  0.75258343  1
  Zr  Zr3  1  0.85368332  0.67547492  0.94682523  1
  Zr  Zr4  1  0.14631668  0.32452508  0.05317477  1
  Zr  Zr5  1  0.60832431  0.14319230  0.40537485  1
  O  O0  1  0.32073298  0.94262475  0.78413938  1
  O  O1  1  0.03269275  0.89292856  0.08896853  1
  O  O2  1  0.31630051  0.96205843  0.29531147  1
  O  O3  1  0.07505596  0.92251296  0.59374626  1
  O  O4  1  0.58862926  0.81925006  0.96219620  1
  O  O5  1  0.92483066  0.69446066  0.79193256  1
  O  O6  1  0.17303673  0.57596125  0.96587324  1
  O  O7  1  0.56626570  0.83138036  0.46209394  1
  O  O8  1  0.40842773  0.56696127  0.15792098  1
  O  O9  1  0.92614673  0.68219898  0.27876512  1
  O  O10  1  0.18532129  0.59362141  0.47046939  1
  O  O11  1  0.59157227  0.43303873  0.84207902  1
  O  O12  1  0.42903458  0.58408320  0.65797612  1
  O  O13  1  0.82696327  0.42403875  0.03412676  1
  O  O14  1  0.07516934  0.30553934  0.20806744  1
  O  O15  1  0.57096542  0.41591680  0.34202388  1
  O  O16  1  0.41137074  0.18074994  0.03780380  1
  O  O17  1  0.81467871  0.40637859  0.52953061  1
  O  O18  1  0.07385327  0.31780102  0.72123488  1
  O  O19  1  0.43373430  0.16861964  0.53790606  1
  O  O20  1  0.96730725  0.10707144  0.91103147  1
  O  O21  1  0.67926702  0.05737525  0.21586062  1
  O  O22  1  0.92494404  0.07748704  0.40625374  1
  O  O23  1  0.68369949  0.03794157  0.70468853  1
loop_
_geom_bond_atom_site_label_1
_geom_bond_atom_site_label_2
_geom_bond_distance
_geom_bond_site_symmetry_2
Ho0 O8 2.182794 1_555
Ho0 O21 2.223132 1_565
Ho0 O16 2.266281 1_565
Ho0 O1 2.274354 1_555
Ho0 O4 2.313808 1_554
Ho0 O6 2.355801 1_554
Ho0 O2 2.614817 1_555
Ho1 O6 2.217280 1_555
Ho1 O0 2.237213 1_555
Ho1 O18 2.238336 1_555
Ho1 O11 2.269857 1_555
Ho1 O12 2.275437 1_555
Ho1 O4 2.379644 1_555
Ho1 O5 2.569107 1_455
Ho2 O10 2.171761 1_555
Ho2 O8 2.258781 1_555
Ho2 O15 2.302445 1_555
Ho2 O2 2.306296 1_555
Ho2 O14 2.316816 1_555
Ho2 O7 2.366495 1_555
Ho2 O9 2.461932 1_455
Ho3 O7 2.200174 1_555
Ho3 O9 2.246765 1_555
Ho3 O17 2.254946 1_555
Ho3 O10 2.255007 1_655
Ho3 O3 2.268318 1_655
Ho3 O15 2.378910 1_555
Ho3 O22 2.582328 1_565
Ho4 O13 2.217280 1_555
Ho4 O21 2.237213 1_555
Ho4 O9 2.238336 1_555
Ho4 O8 2.269857 1_555
Ho4 O15 2.275437 1_555
Ho4 O16 2.379644 1_555
Ho4 O14 2.569107 1_655
Ho5 O19 2.200174 1_555
Ho5 O18 2.246765 1_555
Ho5 O10 2.254946 1_555
Ho5 O17 2.255007 1_455
Ho5 O22 2.268318 1_455
Ho5 O12 2.378910 1_555
Ho5 O3 2.582328 1_545
Ho6 O11 2.182794 1_555
Ho6 O0 2.223132 1_545
Ho6 O4 2.266281 1_545
Ho6 O20 2.274354 1_555
Ho6 O16 2.313808 1_556
Ho6 O13 2.355801 1_556
Ho6 O23 2.614817 1_555
Ho7 O17 2.171761 1_555
Ho7 O11 2.258781 1_555
Ho7 O12 2.302445 1_555
Ho7 O23 2.306296 1_555
Ho7 O5 2.316816 1_555
Ho7 O19 2.366495 1_555
Ho7 O18 2.461932 1_655
O0 Zr2 2.077117 1_565
O0 Zr1 2.512347 1_555
O1 Zr0 2.084461 1_455
O1 Zr3 2.122868 1_454
O2 Zr0 2.101376 1_455
O2 Zr5 2.161940 1_565
O3 Zr1 2.115759 1_555
O3 Zr2 2.132158 1_565
O4 Zr3 2.064623 1_555
O5 Zr3 2.107530 1_555
O5 Zr2 2.140325 1_665
O6 Zr4 2.098699 1_556
O6 Zr3 2.208418 1_455
O7 Zr1 2.159056 1_555
O7 Zr5 2.221607 1_565
O8 Zr4 2.173971 1_555
O9 Zr0 2.087742 1_555
O10 Zr1 2.191699 1_555
O11 Zr3 2.173971 1_555
O12 Zr1 2.070208 1_555
O13 Zr3 2.098699 1_554
O13 Zr4 2.208418 1_655
O14 Zr4 2.107530 1_555
O14 Zr0 2.140325 1_445
O15 Zr5 2.070208 1_555
O16 Zr4 2.064623 1_555
O17 Zr5 2.191699 1_555
O18 Zr2 2.087742 1_555
O19 Zr5 2.159056 1_555
O19 Zr1 2.221607 1_545
O20 Zr2 2.084461 1_655
O20 Zr4 2.122868 1_656
O21 Zr0 2.077117 1_545
O21 Zr5 2.512347 1_555
O22 Zr5 2.115759 1_555
O22 Zr0 2.132158 1_545
O23 Zr2 2.101376 1_655
O23 Zr1 2.161940 1_545
