# generated using pymatgen
data_Rb3As7
_symmetry_space_group_name_H-M   'P 1'
_cell_length_a   13.53775500
_cell_length_b   16.28425000
_cell_length_c   26.59433600
_cell_angle_alpha   90.00000000
_cell_angle_beta   90.00000000
_cell_angle_gamma   90.00000000
_symmetry_Int_Tables_number   1
_chemical_formula_structural   Rb3As7
_chemical_formula_sum   'Rb48 As112'
_cell_volume   5862.77952926
_cell_formula_units_Z   16
loop_
 _symmetry_equiv_pos_site_id
 _symmetry_equiv_pos_as_xyz
  1  'x, y, z'
loop_
 _atom_site_type_symbol
 _atom_site_label
 _atom_site_symmetry_multiplicity
 _atom_site_fract_x
 _atom_site_fract_y
 _atom_site_fract_z
 _atom_site_occupancy
  Rb  Rb0  1  0.87204200  0.75285700  0.08289700  1
  Rb  Rb1  1  0.62323200  0.39397100  0.62946200  1
  Rb  Rb2  1  0.77039300  0.16429200  0.71854900  1
  Rb  Rb3  1  0.38325800  0.58745700  0.57562800  1
  Rb  Rb4  1  0.62323200  0.89397100  0.87053800  1
  Rb  Rb5  1  0.12323200  0.10602900  0.62946200  1
  Rb  Rb6  1  0.87676800  0.39397100  0.12946200  1
  Rb  Rb7  1  0.62795800  0.25285700  0.91710300  1
  Rb  Rb8  1  0.04989300  0.64469900  0.44132000  1
  Rb  Rb9  1  0.37204200  0.74714300  0.08289700  1
  Rb  Rb10  1  0.95010700  0.85530100  0.94132000  1
  Rb  Rb11  1  0.12323200  0.60602900  0.87053800  1
  Rb  Rb12  1  0.61674200  0.41254300  0.42437200  1
  Rb  Rb13  1  0.96507300  0.45664200  0.32415800  1
  Rb  Rb14  1  0.22960700  0.83570800  0.28145100  1
  Rb  Rb15  1  0.96507300  0.95664200  0.17584200  1
  Rb  Rb16  1  0.22960700  0.33570800  0.21854900  1
  Rb  Rb17  1  0.37676800  0.10602900  0.12946200  1
  Rb  Rb18  1  0.37676800  0.60602900  0.37053800  1
  Rb  Rb19  1  0.38325800  0.08745700  0.92437200  1
  Rb  Rb20  1  0.37204200  0.24714300  0.41710300  1
  Rb  Rb21  1  0.54989300  0.85530100  0.44132000  1
  Rb  Rb22  1  0.88325800  0.41254300  0.92437200  1
  Rb  Rb23  1  0.77039300  0.66429200  0.78145100  1
  Rb  Rb24  1  0.88325800  0.91254300  0.57562800  1
  Rb  Rb25  1  0.61674200  0.91254300  0.07562800  1
  Rb  Rb26  1  0.27039300  0.83570800  0.78145100  1
  Rb  Rb27  1  0.45010700  0.14469900  0.55868000  1
  Rb  Rb28  1  0.03492700  0.04335800  0.82415800  1
  Rb  Rb29  1  0.62795800  0.75285700  0.58289700  1
  Rb  Rb30  1  0.87204200  0.25285700  0.41710300  1
  Rb  Rb31  1  0.72960700  0.16429200  0.21854900  1
  Rb  Rb32  1  0.53492700  0.45664200  0.82415800  1
  Rb  Rb33  1  0.53492700  0.95664200  0.67584200  1
  Rb  Rb34  1  0.27039300  0.33570800  0.71854900  1
  Rb  Rb35  1  0.12795800  0.24714300  0.91710300  1
  Rb  Rb36  1  0.95010700  0.35530100  0.55868000  1
  Rb  Rb37  1  0.03492700  0.54335800  0.67584200  1
  Rb  Rb38  1  0.45010700  0.64469900  0.94132000  1
  Rb  Rb39  1  0.12795800  0.74714300  0.58289700  1
  Rb  Rb40  1  0.46507300  0.04335800  0.32415800  1
  Rb  Rb41  1  0.04989300  0.14469900  0.05868000  1
  Rb  Rb42  1  0.87676800  0.89397100  0.37053800  1
  Rb  Rb43  1  0.54989300  0.35530100  0.05868000  1
  Rb  Rb44  1  0.11674200  0.08745700  0.42437200  1
  Rb  Rb45  1  0.72960700  0.66429200  0.28145100  1
  Rb  Rb46  1  0.11674200  0.58745700  0.07562800  1
  Rb  Rb47  1  0.46507300  0.54335800  0.17584200  1
  As  As0  1  0.78552000  0.22535800  0.04265600  1
  As  As1  1  0.05080400  0.88258800  0.70008700  1
  As  As2  1  0.12785800  0.36440000  0.04493100  1
  As  As3  1  0.28286500  0.90750100  0.40609100  1
  As  As4  1  0.62785800  0.13560000  0.04493100  1
  As  As5  1  0.87214200  0.13560000  0.54493100  1
  As  As6  1  0.63058600  0.36973900  0.18559600  1
  As  As7  1  0.78286500  0.09249900  0.09390900  1
  As  As8  1  0.21448000  0.27464200  0.54265600  1
  As  As9  1  0.70489200  0.93501100  0.24031200  1
  As  As10  1  0.36319700  0.50640900  0.04238300  1
  As  As11  1  0.21713500  0.40750100  0.59390900  1
  As  As12  1  0.86553000  0.69214100  0.53478100  1
  As  As13  1  0.13787600  0.44538600  0.97013400  1
  As  As14  1  0.22818800  0.68435100  0.18624900  1
  As  As15  1  0.29510800  0.06498900  0.75968800  1
  As  As16  1  0.93473700  0.25962800  0.81278100  1
  As  As17  1  0.99961800  0.29360000  0.72434300  1
  As  As18  1  0.56526300  0.75962800  0.18721900  1
  As  As19  1  0.81682300  0.54725200  0.54144700  1
  As  As20  1  0.72818800  0.31564900  0.31375100  1
  As  As21  1  0.63447000  0.19214100  0.46521900  1
  As  As22  1  0.49961800  0.20640000  0.72434300  1
  As  As23  1  0.13058600  0.13026100  0.18559600  1
  As  As24  1  0.44919600  0.38258800  0.29991300  1
  As  As25  1  0.71448000  0.22535800  0.54265600  1
  As  As26  1  0.18317700  0.95274800  0.04144700  1
  As  As27  1  0.20489200  0.56498900  0.24031200  1
  As  As28  1  0.99961800  0.79360000  0.77565700  1
  As  As29  1  0.79510800  0.93501100  0.74031200  1
  As  As30  1  0.12785800  0.86440000  0.45506900  1
  As  As31  1  0.78286500  0.59249900  0.40609100  1
  As  As32  1  0.71448000  0.72535800  0.95734400  1
  As  As33  1  0.63680300  0.49359100  0.95761700  1
  As  As34  1  0.94919600  0.11741200  0.29991300  1
  As  As35  1  0.86319700  0.49359100  0.45761700  1
  As  As36  1  0.49961800  0.70640000  0.77565700  1
  As  As37  1  0.93473700  0.75962800  0.68721900  1
  As  As38  1  0.43473700  0.24037200  0.81278100  1
  As  As39  1  0.86941400  0.36973900  0.68559600  1
  As  As40  1  0.27181200  0.18435100  0.81375100  1
  As  As41  1  0.86212400  0.55461400  0.02986600  1
  As  As42  1  0.06526300  0.74037200  0.18721900  1
  As  As43  1  0.00038200  0.20640000  0.22434300  1
  As  As44  1  0.86319700  0.99359100  0.04238300  1
  As  As45  1  0.68317700  0.54725200  0.04144700  1
  As  As46  1  0.50038200  0.29360000  0.22434300  1
  As  As47  1  0.21713500  0.90750100  0.90609100  1
  As  As48  1  0.22818800  0.18435100  0.31375100  1
  As  As49  1  0.78552000  0.72535800  0.45734400  1
  As  As50  1  0.56526300  0.25962800  0.31278100  1
  As  As51  1  0.63447000  0.69214100  0.03478100  1
  As  As52  1  0.36941400  0.13026100  0.68559600  1
  As  As53  1  0.05754800  0.00245100  0.29802400  1
  As  As54  1  0.36319700  0.00640900  0.45761700  1
  As  As55  1  0.05080400  0.38258800  0.79991300  1
  As  As56  1  0.68317700  0.04725200  0.45855300  1
  As  As57  1  0.05754800  0.50245100  0.20197600  1
  As  As58  1  0.77181200  0.81564900  0.68624900  1
  As  As59  1  0.44245200  0.50245100  0.70197600  1
  As  As60  1  0.18317700  0.45274800  0.45855300  1
  As  As61  1  0.21448000  0.77464200  0.95734400  1
  As  As62  1  0.37214200  0.36440000  0.54493100  1
  As  As63  1  0.00038200  0.70640000  0.27565700  1
  As  As64  1  0.36212400  0.44538600  0.47013400  1
  As  As65  1  0.55080400  0.11741200  0.79991300  1
  As  As66  1  0.71713500  0.09249900  0.59390900  1
  As  As67  1  0.27181200  0.68435100  0.68624900  1
  As  As68  1  0.63787600  0.05461400  0.97013400  1
  As  As69  1  0.63058600  0.86973900  0.31440400  1
  As  As70  1  0.94245200  0.99754900  0.70197600  1
  As  As71  1  0.28552000  0.77464200  0.45734400  1
  As  As72  1  0.36553000  0.30785900  0.96521900  1
  As  As73  1  0.13680300  0.00640900  0.95761700  1
  As  As74  1  0.06526300  0.24037200  0.31278100  1
  As  As75  1  0.36553000  0.80785900  0.53478100  1
  As  As76  1  0.29510800  0.56498900  0.74031200  1
  As  As77  1  0.70489200  0.43501100  0.25968800  1
  As  As78  1  0.86212400  0.05461400  0.47013400  1
  As  As79  1  0.20489200  0.06498900  0.25968800  1
  As  As80  1  0.13447000  0.30785900  0.46521900  1
  As  As81  1  0.63787600  0.55461400  0.52986600  1
  As  As82  1  0.13680300  0.50640900  0.54238300  1
  As  As83  1  0.50038200  0.79360000  0.27565700  1
  As  As84  1  0.55754800  0.99754900  0.20197600  1
  As  As85  1  0.86553000  0.19214100  0.96521900  1
  As  As86  1  0.86941400  0.86973900  0.81440400  1
  As  As87  1  0.71713500  0.59249900  0.90609100  1
  As  As88  1  0.44245200  0.00245100  0.79802400  1
  As  As89  1  0.63680300  0.99359100  0.54238300  1
  As  As90  1  0.94919600  0.61741200  0.20008700  1
  As  As91  1  0.62785800  0.63560000  0.45506900  1
  As  As92  1  0.55080400  0.61741200  0.70008700  1
  As  As93  1  0.77181200  0.31564900  0.81375100  1
  As  As94  1  0.31682300  0.45274800  0.95855300  1
  As  As95  1  0.13787600  0.94538600  0.52986600  1
  As  As96  1  0.44919600  0.88258800  0.20008700  1
  As  As97  1  0.79510800  0.43501100  0.75968800  1
  As  As98  1  0.94245200  0.49754900  0.79802400  1
  As  As99  1  0.13447000  0.80785900  0.03478100  1
  As  As100  1  0.13058600  0.63026100  0.31440400  1
  As  As101  1  0.31682300  0.95274800  0.54144700  1
  As  As102  1  0.37214200  0.86440000  0.95506900  1
  As  As103  1  0.72818800  0.81564900  0.18624900  1
  As  As104  1  0.43473700  0.74037200  0.68721900  1
  As  As105  1  0.28286500  0.40750100  0.09390900  1
  As  As106  1  0.81682300  0.04725200  0.95855300  1
  As  As107  1  0.55754800  0.49754900  0.29802400  1
  As  As108  1  0.87214200  0.63560000  0.95506900  1
  As  As109  1  0.36212400  0.94538600  0.02986600  1
  As  As110  1  0.28552000  0.27464200  0.04265600  1
  As  As111  1  0.36941400  0.63026100  0.81440400  1
loop_
_geom_bond_atom_site_label_1
_geom_bond_atom_site_label_2
_geom_bond_distance
_geom_bond_site_symmetry_2
As0 As85 2.388908 1_554
As0 As7 2.557331 1_555
As0 As4 2.587600 1_555
As0 Rb6 3.793997 1_555
As0 Rb41 3.836166 1_655
As0 Rb43 3.851541 1_555
As0 Rb7 3.987390 1_554
As1 As70 2.378810 1_455
As1 As37 2.568132 1_455
As1 As28 2.572761 1_455
As1 Rb26 3.755277 1_555
As1 Rb39 3.958391 1_555
As1 Rb24 4.042045 1_455
As2 Rb46 3.725966 1_555
As2 Rb41 3.747987 1_555
As2 Rb35 3.899048 1_554
As2 Rb6 4.103671 1_455
As3 As54 2.377936 1_565
As3 As71 2.557331 1_555
As3 As30 2.567625 1_555
As3 Rb14 3.588032 1_555
As3 Rb44 3.725800 1_565
As3 Rb21 3.829917 1_555
As3 Rb40 3.965701 1_565
As4 As68 2.390490 1_554
As4 As7 2.567625 1_555
As4 Rb25 3.725966 1_545
As4 Rb43 3.747987 1_555
As4 Rb7 3.899048 1_554
As4 Rb17 4.103671 1_555
As5 As78 2.390490 1_555
As5 As66 2.567625 1_555
As5 Rb24 3.725966 1_545
As5 Rb36 3.747987 1_555
As5 Rb30 3.899048 1_555
As5 Rb5 4.103671 1_655
As6 As77 2.454437 1_555
As6 Rb43 3.555406 1_555
As6 Rb47 3.616806 1_555
As6 Rb6 3.673082 1_555
As6 Rb31 3.709140 1_555
As7 Rb31 3.588032 1_555
As7 Rb25 3.725800 1_545
As7 Rb41 3.829917 1_655
As7 Rb15 3.965701 1_545
As8 As80 2.388908 1_555
As8 Rb5 3.793997 1_555
As8 Rb36 3.836166 1_455
As8 Rb27 3.851541 1_555
As8 Rb20 3.987390 1_555
As9 Rb31 3.793048 1_565
As9 Rb15 3.933202 1_555
As10 As105 2.377936 1_555
As10 As94 2.475469 1_554
As10 Rb43 3.553979 1_555
As10 Rb46 3.695328 1_555
As10 Rb38 3.698558 1_554
As10 Rb47 3.855041 1_555
As10 Rb9 4.067306 1_555
As11 As82 2.377936 1_555
As11 As8 2.557331 1_555
As11 As62 2.567625 1_555
As11 Rb34 3.588032 1_555
As11 Rb3 3.725800 1_555
As11 Rb36 3.829917 1_455
As11 Rb37 3.965701 1_555
As12 As49 2.388908 1_555
As12 As19 2.456221 1_555
As12 Rb29 3.599841 1_555
As12 Rb8 3.606112 1_655
As12 Rb24 3.757546 1_555
As12 Rb39 3.880877 1_655
As13 As2 2.390490 1_556
As13 As94 2.444981 1_555
As13 Rb35 3.525417 1_555
As13 Rb46 3.647643 1_556
As13 Rb22 3.694409 1_455
As13 Rb11 3.728010 1_555
As14 As42 2.386991 1_555
As14 As27 2.438174 1_555
As14 Rb9 3.520345 1_555
As14 Rb14 3.533479 1_555
As14 Rb46 3.663412 1_555
As14 Rb47 3.953759 1_555
As15 As40 2.438174 1_555
As15 As52 2.454437 1_555
As15 As88 2.460769 1_555
As15 Rb26 3.793048 1_545
As15 Rb28 3.933202 1_555
As16 As93 2.386991 1_555
As16 As55 2.568132 1_655
As16 As17 2.570835 1_555
As16 Rb2 3.693285 1_555
As16 Rb28 3.786062 1_655
As16 Rb35 3.818479 1_655
As16 Rb22 3.936177 1_555
As17 As39 2.388745 1_555
As17 As55 2.572761 1_655
As17 Rb34 3.732449 1_655
As17 Rb2 3.753325 1_555
As18 As96 2.568132 1_555
As18 As83 2.570835 1_555
As18 Rb45 3.693285 1_555
As18 Rb47 3.786062 1_555
As18 Rb9 3.818479 1_555
As18 Rb25 3.936177 1_555
As19 As81 2.444981 1_555
As19 As35 2.475469 1_555
As19 Rb36 3.638168 1_555
As20 As50 2.386991 1_555
As20 As77 2.438174 1_555
As20 Rb30 3.520345 1_555
As20 Rb31 3.533479 1_555
As20 Rb12 3.663412 1_555
As20 Rb13 3.953759 1_555
As21 As25 2.388908 1_555
As21 As56 2.456221 1_555
As21 Rb30 3.599841 1_555
As21 Rb27 3.606112 1_555
As21 Rb12 3.757546 1_555
As21 Rb20 3.880877 1_555
As22 As52 2.388745 1_555
As22 As38 2.570835 1_555
As22 As65 2.572761 1_555
As22 Rb2 3.732449 1_555
As22 Rb34 3.753325 1_555
As23 As43 2.388745 1_555
As23 As79 2.454437 1_555
As23 Rb41 3.555406 1_555
As23 Rb15 3.616806 1_445
As23 Rb17 3.673082 1_555
As23 Rb16 3.709140 1_555
As24 As50 2.568132 1_555
As24 As46 2.572761 1_555
As24 Rb16 3.755277 1_555
As24 Rb20 3.958391 1_555
As24 Rb12 4.042045 1_555
As25 As66 2.557331 1_555
As25 As5 2.587600 1_555
As25 Rb1 3.793997 1_555
As25 Rb27 3.836166 1_555
As25 Rb36 3.851541 1_555
As25 Rb30 3.987390 1_555
As26 As99 2.456221 1_555
As26 As73 2.475469 1_564
As26 Rb41 3.638168 1_565
As27 As57 2.460769 1_555
As27 Rb16 3.793048 1_555
As27 Rb47 3.933202 1_555
As28 As86 2.388745 1_555
As28 As37 2.570835 1_555
As28 Rb26 3.732449 1_655
As28 Rb23 3.753325 1_555
As29 As58 2.438174 1_555
As29 As86 2.454437 1_555
As29 As70 2.460769 1_555
As29 Rb2 3.793048 1_565
As29 Rb33 3.933202 1_555
As30 As95 2.390490 1_555
As30 As71 2.587600 1_555
As30 Rb44 3.725966 1_565
As30 Rb8 3.747987 1_555
As30 Rb39 3.899048 1_555
As30 Rb42 4.103671 1_455
As31 As35 2.377936 1_555
As31 As49 2.557331 1_555
As31 As91 2.567625 1_555
As31 Rb45 3.588032 1_555
As31 Rb12 3.725800 1_555
As31 Rb8 3.829917 1_655
As31 Rb13 3.965701 1_555
As32 As51 2.388908 1_556
As32 As87 2.557331 1_555
As32 Rb4 3.793997 1_555
As32 Rb38 3.836166 1_555
As32 Rb10 3.851541 1_555
As32 Rb0 3.987390 1_556
As33 As87 2.377936 1_555
As33 As45 2.475469 1_556
As33 Rb38 3.553979 1_555
As33 Rb22 3.695328 1_555
As33 Rb43 3.698558 1_556
As33 Rb32 3.855041 1_555
As33 Rb7 4.067306 1_555
As34 As53 2.378810 1_655
As34 As74 2.568132 1_655
As34 As43 2.572761 1_655
As34 Rb31 3.755277 1_555
As34 Rb30 3.958391 1_555
As34 Rb44 4.042045 1_655
As35 Rb8 3.553979 1_655
As35 Rb12 3.695328 1_555
As35 Rb36 3.698558 1_555
As35 Rb13 3.855041 1_555
As35 Rb30 4.067306 1_555
As36 As92 2.572761 1_555
As36 Rb23 3.732449 1_555
As36 Rb26 3.753325 1_555
As37 As58 2.386991 1_555
As37 Rb23 3.693285 1_555
As37 Rb37 3.786062 1_655
As37 Rb39 3.818479 1_655
As37 Rb24 3.936177 1_555
As38 As40 2.386991 1_555
As38 As65 2.568132 1_555
As38 Rb34 3.693285 1_555
As38 Rb32 3.786062 1_555
As38 Rb7 3.818479 1_555
As38 Rb19 3.936177 1_555
As39 As97 2.454437 1_555
As39 Rb36 3.555406 1_555
As39 Rb37 3.616806 1_655
As39 Rb1 3.673082 1_555
As39 Rb2 3.709140 1_555
As40 Rb35 3.520345 1_555
As40 Rb34 3.533479 1_555
As40 Rb19 3.663412 1_555
As40 Rb28 3.953759 1_555
As41 As45 2.444981 1_555
As41 Rb0 3.525417 1_555
As41 Rb22 3.647643 1_554
As41 Rb46 3.694409 1_655
As41 Rb6 3.728010 1_555
As42 As90 2.568132 1_455
As42 As63 2.570835 1_555
As42 Rb14 3.693285 1_555
As42 Rb15 3.786062 1_455
As42 Rb0 3.818479 1_455
As42 Rb46 3.936177 1_555
As43 As74 2.570835 1_555
As43 Rb31 3.732449 1_455
As43 Rb16 3.753325 1_555
As44 As7 2.377936 1_565
As44 Rb41 3.553979 1_665
As44 Rb25 3.695328 1_555
As44 Rb10 3.698558 1_554
As44 Rb15 3.855041 1_555
As44 Rb0 4.067306 1_555
As45 As51 2.456221 1_555
As45 Rb43 3.638168 1_555
As46 As6 2.388745 1_555
As46 As50 2.570835 1_555
As46 Rb16 3.732449 1_555
As46 Rb31 3.753325 1_555
As47 As73 2.377936 1_565
As47 As61 2.557331 1_555
As47 Rb26 3.588032 1_555
As47 Rb19 3.725800 1_565
As47 Rb10 3.829917 1_455
As47 Rb28 3.965701 1_565
As48 As74 2.386991 1_555
As48 As79 2.438174 1_555
As48 Rb20 3.520345 1_555
As48 Rb16 3.533479 1_555
As48 Rb44 3.663412 1_555
As48 Rb40 3.953759 1_555
As49 As91 2.587600 1_555
As49 Rb42 3.793997 1_555
As49 Rb8 3.836166 1_655
As49 Rb21 3.851541 1_555
As49 Rb29 3.987390 1_555
As50 Rb31 3.693285 1_555
As50 Rb40 3.786062 1_555
As50 Rb20 3.818479 1_555
As50 Rb12 3.936177 1_555
As51 Rb0 3.599841 1_555
As51 Rb38 3.606112 1_554
As51 Rb25 3.757546 1_555
As51 Rb9 3.880877 1_555
As52 Rb27 3.555406 1_555
As52 Rb33 3.616806 1_545
As52 Rb5 3.673082 1_555
As52 Rb34 3.709140 1_555
As53 As79 2.460769 1_555
As53 Rb15 3.561179 1_445
As53 Rb42 3.581772 1_445
As53 Rb14 3.604530 1_545
As53 Rb44 3.721410 1_555
As54 Rb21 3.553979 1_545
As54 Rb44 3.695328 1_555
As54 Rb27 3.698558 1_555
As54 Rb40 3.855041 1_555
As54 Rb20 4.067306 1_555
As55 As98 2.378810 1_455
As55 Rb34 3.755277 1_555
As55 Rb35 3.958391 1_555
As55 Rb22 4.042045 1_455
As56 As78 2.444981 1_555
As56 As89 2.475469 1_545
As56 Rb21 3.638168 1_545
As57 As90 2.378810 1_455
As57 Rb13 3.561179 1_455
As57 Rb6 3.581772 1_455
As57 Rb16 3.604530 1_555
As57 Rb46 3.721410 1_555
As58 Rb29 3.520345 1_555
As58 Rb23 3.533479 1_555
As58 Rb24 3.663412 1_555
As58 Rb33 3.953759 1_555
As59 As92 2.378810 1_555
As59 As76 2.460769 1_555
As59 Rb32 3.561179 1_555
As59 Rb1 3.581772 1_555
As59 Rb34 3.604530 1_555
As59 Rb3 3.721410 1_555
As60 As64 2.444981 1_555
As60 As80 2.456221 1_555
As60 As82 2.475469 1_555
As60 Rb8 3.638168 1_555
As61 As99 2.388908 1_556
As61 Rb11 3.793997 1_555
As61 Rb10 3.836166 1_455
As61 Rb38 3.851541 1_555
As61 Rb9 3.987390 1_556
As62 As64 2.390490 1_555
As62 As8 2.587600 1_555
As62 Rb3 3.725966 1_555
As62 Rb27 3.747987 1_555
As62 Rb20 3.899048 1_555
As62 Rb1 4.103671 1_555
As63 As90 2.572761 1_455
As63 Rb45 3.732449 1_455
As63 Rb14 3.753325 1_555
As64 Rb20 3.525417 1_555
As64 Rb3 3.647643 1_555
As64 Rb12 3.694409 1_555
As64 Rb18 3.728010 1_555
As65 As88 2.378810 1_555
As65 Rb2 3.755277 1_555
As65 Rb7 3.958391 1_555
As65 Rb19 4.042045 1_555
As66 As89 2.377936 1_545
As66 Rb2 3.588032 1_555
As66 Rb24 3.725800 1_545
As66 Rb27 3.829917 1_555
As66 Rb33 3.965701 1_545
As67 As76 2.438174 1_555
As67 Rb39 3.520345 1_555
As67 Rb26 3.533479 1_555
As67 Rb3 3.663412 1_555
As67 Rb37 3.953759 1_555
As68 Rb7 3.525417 1_555
As68 Rb25 3.647643 1_546
As68 Rb19 3.694409 1_555
As68 Rb4 3.728010 1_545
As69 As83 2.388745 1_555
As69 As9 2.454437 1_555
As69 Rb21 3.555406 1_555
As69 Rb40 3.616806 1_565
As69 Rb42 3.673082 1_555
As69 Rb45 3.709140 1_555
As70 Rb28 3.561179 1_665
As70 Rb5 3.581772 1_665
As70 Rb2 3.604530 1_565
As70 Rb24 3.721410 1_555
As71 As75 2.388908 1_555
As71 Rb18 3.793997 1_555
As71 Rb21 3.836166 1_555
As71 Rb8 3.851541 1_555
As71 Rb39 3.987390 1_555
As72 As94 2.456221 1_555
As72 Rb35 3.599841 1_555
As72 Rb43 3.606112 1_556
As72 Rb19 3.757546 1_555
As72 Rb7 3.880877 1_555
As73 Rb10 3.553979 1_445
As73 Rb19 3.695328 1_555
As73 Rb41 3.698558 1_556
As73 Rb28 3.855041 1_555
As73 Rb35 4.067306 1_555
As74 Rb16 3.693285 1_555
As74 Rb13 3.786062 1_455
As74 Rb30 3.818479 1_455
As74 Rb44 3.936177 1_555
As75 Rb39 3.599841 1_555
As75 Rb21 3.606112 1_555
As75 Rb3 3.757546 1_555
As75 Rb29 3.880877 1_555
As76 Rb34 3.793048 1_555
As76 Rb37 3.933202 1_555
As77 Rb45 3.793048 1_555
As77 Rb13 3.933202 1_555
As78 Rb30 3.525417 1_555
As78 Rb24 3.647643 1_545
As78 Rb44 3.694409 1_655
As78 Rb42 3.728010 1_545
As79 Rb14 3.793048 1_545
As79 Rb40 3.933202 1_555
As80 Rb20 3.599841 1_555
As80 Rb36 3.606112 1_455
As80 Rb44 3.757546 1_555
As80 Rb30 3.880877 1_455
As81 As91 2.390490 1_555
As81 Rb29 3.525417 1_555
As81 Rb12 3.647643 1_555
As81 Rb3 3.694409 1_555
As81 Rb1 3.728010 1_555
As82 Rb36 3.553979 1_455
As82 Rb3 3.695328 1_555
As82 Rb8 3.698558 1_555
As82 Rb37 3.855041 1_555
As82 Rb39 4.067306 1_555
As83 As96 2.572761 1_555
As83 Rb14 3.732449 1_555
As83 Rb45 3.753325 1_555
As84 As96 2.378810 1_555
As84 As9 2.460769 1_555
As84 Rb40 3.561179 1_565
As84 Rb17 3.581772 1_565
As84 Rb31 3.604530 1_565
As84 Rb25 3.721410 1_555
As85 Rb7 3.599841 1_555
As85 Rb41 3.606112 1_656
As85 Rb22 3.757546 1_555
As85 Rb35 3.880877 1_655
As86 Rb10 3.555406 1_555
As86 Rb28 3.616806 1_665
As86 Rb4 3.673082 1_555
As86 Rb23 3.709140 1_555
As87 Rb23 3.588032 1_555
As87 Rb22 3.725800 1_555
As87 Rb38 3.829917 1_555
As87 Rb32 3.965701 1_555
As88 Rb33 3.561179 1_545
As88 Rb4 3.581772 1_545
As88 Rb26 3.604530 1_545
As88 Rb19 3.721410 1_555
As89 Rb27 3.553979 1_565
As89 Rb24 3.695328 1_555
As89 Rb21 3.698558 1_555
As89 Rb33 3.855041 1_555
As89 Rb29 4.067306 1_555
As90 Rb45 3.755277 1_555
As90 Rb0 3.958391 1_555
As90 Rb46 4.042045 1_655
As91 Rb12 3.725966 1_555
As91 Rb21 3.747987 1_555
As91 Rb29 3.899048 1_555
As91 Rb18 4.103671 1_555
As92 Rb23 3.755277 1_555
As92 Rb29 3.958391 1_555
As92 Rb3 4.042045 1_555
As93 As97 2.438174 1_555
As93 Rb7 3.520345 1_555
As93 Rb2 3.533479 1_555
As93 Rb22 3.663412 1_555
As93 Rb32 3.953759 1_555
As94 Rb38 3.638168 1_555
As95 Rb39 3.525417 1_555
As95 Rb44 3.647643 1_565
As95 Rb24 3.694409 1_455
As95 Rb5 3.728010 1_565
As96 Rb14 3.755277 1_555
As96 Rb9 3.958391 1_555
As96 Rb25 4.042045 1_555
As97 As98 2.460769 1_555
As97 Rb23 3.793048 1_555
As97 Rb32 3.933202 1_555
As98 Rb37 3.561179 1_655
As98 Rb11 3.581772 1_655
As98 Rb23 3.604530 1_555
As98 Rb22 3.721410 1_555
As99 Rb9 3.599841 1_555
As99 Rb10 3.606112 1_454
As99 Rb46 3.757546 1_555
As99 Rb0 3.880877 1_455
As100 As63 2.388745 1_555
As100 As27 2.454437 1_555
As100 Rb8 3.555406 1_555
As100 Rb13 3.616806 1_455
As100 Rb18 3.673082 1_555
As100 Rb14 3.709140 1_555
As101 As95 2.444981 1_555
As101 As75 2.456221 1_555
As101 As54 2.475469 1_565
As101 Rb27 3.638168 1_565
As102 As109 2.390490 1_556
As102 As47 2.567625 1_555
As102 As61 2.587600 1_555
As102 Rb19 3.725966 1_565
As102 Rb38 3.747987 1_555
As102 Rb9 3.899048 1_556
As102 Rb4 4.103671 1_555
As103 As18 2.386991 1_555
As103 As9 2.438174 1_555
As103 Rb0 3.520345 1_555
As103 Rb45 3.533479 1_555
As103 Rb25 3.663412 1_555
As103 Rb15 3.953759 1_555
As104 As67 2.386991 1_555
As104 As92 2.568132 1_555
As104 As36 2.570835 1_555
As104 Rb26 3.693285 1_555
As104 Rb33 3.786062 1_555
As104 Rb29 3.818479 1_555
As104 Rb3 3.936177 1_555
As105 As110 2.557331 1_555
As105 As2 2.567625 1_555
As105 Rb16 3.588032 1_555
As105 Rb46 3.725800 1_555
As105 Rb43 3.829917 1_555
As105 Rb47 3.965701 1_555
As106 As68 2.444981 1_555
As106 As85 2.456221 1_555
As106 As44 2.475469 1_546
As106 Rb10 3.638168 1_545
As107 As24 2.378810 1_555
As107 As77 2.460769 1_555
As107 Rb47 3.561179 1_555
As107 Rb18 3.581772 1_555
As107 Rb45 3.604530 1_555
As107 Rb12 3.721410 1_555
As108 As41 2.390490 1_556
As108 As87 2.567625 1_555
As108 As32 2.587600 1_555
As108 Rb22 3.725966 1_555
As108 Rb10 3.747987 1_555
As108 Rb0 3.899048 1_556
As108 Rb11 4.103671 1_655
As109 As26 2.444981 1_555
As109 Rb9 3.525417 1_555
As109 Rb19 3.647643 1_564
As109 Rb25 3.694409 1_555
As109 Rb17 3.728010 1_565
As110 As72 2.388908 1_554
As110 As2 2.587600 1_555
As110 Rb17 3.793997 1_555
As110 Rb43 3.836166 1_555
As110 Rb41 3.851541 1_555
As110 Rb35 3.987390 1_554
As111 As36 2.388745 1_555
As111 As76 2.454437 1_555
As111 Rb38 3.555406 1_555
As111 Rb32 3.616806 1_555
As111 Rb11 3.673082 1_555
As111 Rb26 3.709140 1_555
