# generated using pymatgen
data_Rb2PO3F
_symmetry_space_group_name_H-M   'P 1'
_cell_length_a   6.13063901
_cell_length_b   7.88448761
_cell_length_c   10.48250001
_cell_angle_alpha   90.00000000
_cell_angle_beta   90.00000000
_cell_angle_gamma   90.00000000
_symmetry_Int_Tables_number   1
_chemical_formula_structural   Rb2PO3F
_chemical_formula_sum   'Rb8 P4 O12 F4'
_cell_volume   506.69205072
_cell_formula_units_Z   4
loop_
 _symmetry_equiv_pos_site_id
 _symmetry_equiv_pos_as_xyz
  1  'x, y, z'
loop_
 _atom_site_type_symbol
 _atom_site_label
 _atom_site_symmetry_multiplicity
 _atom_site_fract_x
 _atom_site_fract_y
 _atom_site_fract_z
 _atom_site_occupancy
  Rb  Rb0  1  0.25000000  0.17154816  0.92204424  1
  Rb  Rb1  1  0.75000000  0.82845184  0.07795576  1
  Rb  Rb2  1  0.25000000  0.67154816  0.57795576  1
  Rb  Rb3  1  0.75000000  0.32845184  0.42204424  1
  Rb  Rb4  1  0.25000000  0.00655974  0.28402667  1
  Rb  Rb5  1  0.75000000  0.99344026  0.71597333  1
  Rb  Rb6  1  0.25000000  0.50655974  0.21597333  1
  Rb  Rb7  1  0.75000000  0.49344026  0.78402667  1
  P  P0  1  0.25000000  0.24137292  0.58593461  1
  P  P1  1  0.75000000  0.75862708  0.41406539  1
  P  P2  1  0.25000000  0.74137292  0.91406539  1
  P  P3  1  0.75000000  0.25862708  0.08593461  1
  O  O0  1  0.75000000  0.68895588  0.54811246  1
  O  O1  1  0.25000000  0.31104412  0.45188754  1
  O  O2  1  0.25000000  0.81104412  0.04811246  1
  O  O3  1  0.75000000  0.18895588  0.95188754  1
  O  O4  1  0.54274577  0.72900198  0.34046834  1
  O  O5  1  0.04274577  0.27099802  0.65953166  1
  O  O6  1  0.95725423  0.22900198  0.15953166  1
  O  O7  1  0.45725423  0.77099802  0.84046834  1
  O  O8  1  0.45725423  0.27099802  0.65953166  1
  O  O9  1  0.95725423  0.72900198  0.34046834  1
  O  O10  1  0.04274577  0.77099802  0.84046834  1
  O  O11  1  0.54274577  0.22900198  0.15953166  1
  F  F0  1  0.75000000  0.46618682  0.06393793  1
  F  F1  1  0.25000000  0.53381318  0.93606207  1
  F  F2  1  0.25000000  0.03381318  0.56393793  1
  F  F3  1  0.75000000  0.96618682  0.43606207  1
loop_
_geom_bond_atom_site_label_1
_geom_bond_atom_site_label_2
_geom_bond_distance
_geom_bond_site_symmetry_2
O0 P1 1.508707 1_555
O0 Rb7 2.914092 1_555
O0 Rb5 2.976504 1_555
O0 Rb2 3.084297 1_655
O0 Rb2 3.084297 1_555
O0 Rb3 3.134576 1_555
O1 P0 1.508707 1_555
O1 Rb6 2.914092 1_555
O1 Rb4 2.976504 1_555
O1 Rb3 3.084297 1_555
O1 Rb3 3.084297 1_455
O1 Rb2 3.134576 1_555
O2 P2 1.508707 1_554
O2 Rb4 2.914092 1_565
O2 Rb6 2.976504 1_555
O2 Rb1 3.084297 1_455
O2 Rb1 3.084297 1_555
O2 Rb0 3.134576 1_564
O3 P3 1.508707 1_556
O3 Rb5 2.914092 1_545
O3 Rb7 2.976504 1_555
O3 Rb0 3.084297 1_555
O3 Rb0 3.084297 1_655
O3 Rb1 3.134576 1_546
O4 P1 1.504715 1_555
O4 Rb6 2.828437 1_555
O4 Rb4 2.891395 1_565
O4 Rb2 3.102199 1_555
O4 Rb1 3.130750 1_555
O5 P0 1.504715 1_555
O5 Rb7 2.828437 1_455
O5 Rb5 2.891395 1_445
O5 Rb3 3.102199 1_455
O5 Rb0 3.130750 1_555
O6 P3 1.504715 1_555
O6 Rb4 2.828437 1_655
O6 Rb6 2.891395 1_655
O6 Rb0 3.102199 1_654
O6 Rb3 3.130750 1_555
O7 P2 1.504715 1_555
O7 Rb5 2.828437 1_555
O7 Rb7 2.891395 1_555
O7 Rb1 3.102199 1_556
O7 Rb2 3.130750 1_555
O8 P0 1.504715 1_555
O8 Rb7 2.828437 1_555
O8 Rb5 2.891395 1_545
O8 Rb3 3.102199 1_555
O8 Rb0 3.130750 1_555
O9 P1 1.504715 1_555
O9 Rb6 2.828437 1_655
O9 Rb4 2.891395 1_665
O9 Rb2 3.102199 1_655
O9 Rb1 3.130750 1_555
O10 P2 1.504715 1_555
O10 Rb5 2.828437 1_455
O10 Rb7 2.891395 1_455
O10 Rb1 3.102199 1_456
O10 Rb2 3.130750 1_555
O11 P3 1.504715 1_555
O11 Rb4 2.828437 1_555
O11 Rb6 2.891395 1_555
O11 Rb0 3.102199 1_554
O11 Rb3 3.130750 1_555
F0 P3 1.652667 1_555
F0 Rb1 2.860051 1_555
F0 Rb7 2.942027 1_554
F1 P2 1.652667 1_555
F1 Rb0 2.860051 1_555
F1 Rb6 2.942027 1_556
F2 P0 1.652667 1_555
F2 Rb2 2.860051 1_545
F2 Rb4 2.942027 1_555
F3 P1 1.652667 1_555
F3 Rb3 2.860051 1_565
F3 Rb5 2.942027 1_555
