# generated using pymatgen
data_TeHO3
_symmetry_space_group_name_H-M   'P 1'
_cell_length_a   8.34849800
_cell_length_b   4.95951600
_cell_length_c   11.71524491
_cell_angle_alpha   88.80759974
_cell_angle_beta   90.00000000
_cell_angle_gamma   90.00000000
_symmetry_Int_Tables_number   1
_chemical_formula_structural   TeHO3
_chemical_formula_sum   'Te8 H8 O24'
_cell_volume   484.95892857
_cell_formula_units_Z   8
loop_
 _symmetry_equiv_pos_site_id
 _symmetry_equiv_pos_as_xyz
  1  'x, y, z'
loop_
 _atom_site_type_symbol
 _atom_site_label
 _atom_site_symmetry_multiplicity
 _atom_site_fract_x
 _atom_site_fract_y
 _atom_site_fract_z
 _atom_site_occupancy
  Te  Te0  1  0.78719400  0.98776700  0.60897800  1
  Te  Te1  1  0.71530900  0.48623300  0.38040100  1
  Te  Te2  1  0.28469100  0.48623300  0.88040100  1
  Te  Te3  1  0.21280600  0.98776700  0.10897800  1
  Te  Te4  1  0.89758200  0.81520700  0.92924700  1
  Te  Te5  1  0.58998100  0.38208600  0.07437100  1
  Te  Te6  1  0.41001900  0.38208600  0.57437100  1
  Te  Te7  1  0.10241800  0.81520700  0.42924700  1
  H  H0  1  0.01661100  0.22940000  0.70350600  1
  H  H1  1  0.58643600  0.92280300  0.31674500  1
  H  H2  1  0.41356400  0.92280300  0.81674500  1
  H  H3  1  0.98338900  0.22940000  0.20350600  1
  H  H4  1  0.72288800  0.98401500  0.14283100  1
  H  H5  1  0.27711200  0.98401500  0.64283100  1
  H  H6  1  0.74981100  0.54805200  0.71865900  1
  H  H7  1  0.25018900  0.54805200  0.21865900  1
  O  O0  1  0.98954800  0.80442200  0.57812200  1
  O  O1  1  0.51785300  0.29824900  0.42650900  1
  O  O2  1  0.48214700  0.29824900  0.92650900  1
  O  O3  1  0.01045200  0.80442200  0.07812200  1
  O  O4  1  0.84168500  0.22238300  0.47607700  1
  O  O5  1  0.66671100  0.72448900  0.51482400  1
  O  O6  1  0.33328900  0.72448900  0.01482400  1
  O  O7  1  0.15831500  0.22238300  0.97607700  1
  O  O8  1  0.90009200  0.21344500  0.71780900  1
  O  O9  1  0.59901800  0.74325400  0.28425400  1
  O  O10  1  0.40098200  0.74325400  0.78425400  1
  O  O11  1  0.09990800  0.21344500  0.21780900  1
  O  O12  1  0.91985600  0.66620900  0.34717200  1
  O  O13  1  0.60320800  0.19182200  0.65421700  1
  O  O14  1  0.39679200  0.19182200  0.15421700  1
  O  O15  1  0.08014400  0.66620900  0.84717200  1
  O  O16  1  0.79739700  0.48468700  0.97099400  1
  O  O17  1  0.68560500  0.01920700  0.06320200  1
  O  O18  1  0.31439500  0.01920700  0.56320200  1
  O  O19  1  0.20260300  0.48468700  0.47099400  1
  O  O20  1  0.75228100  0.73980600  0.74067900  1
  O  O21  1  0.73633600  0.27612900  0.24849300  1
  O  O22  1  0.26366400  0.27612900  0.74849300  1
  O  O23  1  0.24771900  0.73980600  0.24067900  1
loop_
_geom_bond_atom_site_label_1
_geom_bond_atom_site_label_2
_geom_bond_distance
_geom_bond_site_symmetry_2
H0 O8 0.989973 1_455
H1 O9 0.981313 1_555
H2 O10 0.981313 1_555
H3 O11 0.989973 1_655
H4 O17 0.995399 1_565
H5 O18 0.995399 1_565
H6 O20 0.990757 1_555
H7 O23 0.990757 1_555
O0 Te0 1.955785 1_555
O0 Te7 1.982122 1_655
O1 Te1 1.964038 1_555
O1 Te6 2.003488 1_555
O2 Te2 1.964038 1_555
O2 Te5 2.003488 1_556
O3 Te3 1.955785 1_555
O3 Te4 1.982122 1_454
O4 Te0 1.977276 1_545
O4 Te1 2.005188 1_555
O5 Te0 1.998326 1_555
O5 Te1 2.029361 1_555
O6 Te3 1.998326 1_555
O6 Te2 2.029361 1_554
O7 Te3 1.977276 1_546
O7 Te2 2.005188 1_555
O8 Te0 1.956032 1_545
O9 Te1 1.943298 1_555
O10 Te2 1.943298 1_555
O11 Te3 1.956032 1_545
O12 Te7 1.955276 1_655
O12 Te1 1.962118 1_555
O13 Te0 1.920077 1_545
O13 Te6 2.080847 1_555
O14 Te3 1.920077 1_545
O14 Te5 2.080847 1_555
O15 Te4 1.955276 1_455
O15 Te2 1.962118 1_555
O16 Te4 1.895369 1_555
O16 Te5 2.167601 1_556
O17 Te5 1.975643 1_555
O17 Te4 2.585392 1_544
O18 Te6 1.975643 1_555
O18 Te7 2.585392 1_545
O19 Te7 1.895369 1_555
O19 Te6 2.167601 1_555
O20 Te0 1.974558 1_555
O20 Te4 2.554587 1_555
O21 Te1 1.889891 1_555
O21 Te5 2.426016 1_555
O22 Te2 1.889891 1_555
O22 Te6 2.426016 1_555
O23 Te3 1.974558 1_555
O23 Te7 2.554587 1_555
