# generated using pymatgen
data_UGeS
_symmetry_space_group_name_H-M   'P 1'
_cell_length_a   4.14923000
_cell_length_b   4.14923000
_cell_length_c   7.23924000
_cell_angle_alpha   90.00000000
_cell_angle_beta   90.00000000
_cell_angle_gamma   90.00000000
_symmetry_Int_Tables_number   1
_chemical_formula_structural   UGeS
_chemical_formula_sum   'U2 Ge2 S2'
_cell_volume   124.63154921
_cell_formula_units_Z   2
loop_
 _symmetry_equiv_pos_site_id
 _symmetry_equiv_pos_as_xyz
  1  'x, y, z'
loop_
 _atom_site_type_symbol
 _atom_site_label
 _atom_site_symmetry_multiplicity
 _atom_site_fract_x
 _atom_site_fract_y
 _atom_site_fract_z
 _atom_site_occupancy
  U  U0  1  0.50000000  0.00000000  0.76048100  1
  U  U1  1  0.00000000  0.50000000  0.23951900  1
  Ge  Ge0  1  0.00000000  0.50000000  0.63314000  1
  Ge  Ge1  1  0.50000000  0.00000000  0.36686000  1
  S  S0  1  0.50000000  0.50000000  0.00000000  1
  S  S1  1  0.00000000  0.00000000  0.00000000  1
loop_
_geom_bond_atom_site_label_1
_geom_bond_atom_site_label_2
_geom_bond_distance
_geom_bond_site_symmetry_2
Ge0 U1 2.849517 1_555
Ge0 U0 3.075364 1_465
Ge0 U0 3.075364 1_565
Ge0 U0 3.075364 1_555
Ge0 U0 3.075364 1_455
Ge1 U0 2.849517 1_555
Ge1 U1 3.075364 1_545
Ge1 U1 3.075364 1_555
Ge1 U1 3.075364 1_655
Ge1 U1 3.075364 1_645
S0 U0 2.703805 1_554
S0 U0 2.703805 1_564
S0 U1 2.703805 1_655
S0 U1 2.703805 1_555
S1 U0 2.703805 1_554
S1 U1 2.703805 1_545
S1 U0 2.703805 1_454
S1 U1 2.703805 1_555
