# generated using pymatgen
data_Nd10US16
_symmetry_space_group_name_H-M   'P 1'
_cell_length_a   8.57217300
_cell_length_b   8.57217300
_cell_length_c   8.53738100
_cell_angle_alpha   90.00000000
_cell_angle_beta   90.00000000
_cell_angle_gamma   90.00000000
_symmetry_Int_Tables_number   1
_chemical_formula_structural   Nd10US16
_chemical_formula_sum   'Nd10 U1 S16'
_cell_volume   627.34511075
_cell_formula_units_Z   1
loop_
 _symmetry_equiv_pos_site_id
 _symmetry_equiv_pos_as_xyz
  1  'x, y, z'
loop_
 _atom_site_type_symbol
 _atom_site_label
 _atom_site_symmetry_multiplicity
 _atom_site_fract_x
 _atom_site_fract_y
 _atom_site_fract_z
 _atom_site_occupancy
  Nd  Nd0  1  0.74334000  0.62371900  0.64220800  1
  Nd  Nd1  1  0.62371900  0.25666000  0.35779200  1
  Nd  Nd2  1  0.50000000  0.00000000  0.74680300  1
  Nd  Nd3  1  0.25666000  0.37628100  0.64220800  1
  Nd  Nd4  1  0.37628100  0.74334000  0.35779200  1
  Nd  Nd5  1  0.25593800  0.13338000  0.12067800  1
  Nd  Nd6  1  0.13338000  0.74406200  0.87932200  1
  Nd  Nd7  1  0.00000000  0.50000000  0.25319700  1
  Nd  Nd8  1  0.74406200  0.86662000  0.12067800  1
  Nd  Nd9  1  0.86662000  0.25593800  0.87932200  1
  U  U0  1  0.00000000  0.00000000  0.50000000  1
  S  S0  1  0.68368100  0.57840400  0.31786700  1
  S  S1  1  0.57849700  0.16838900  0.04183200  1
  S  S2  1  0.68114800  0.93362300  0.44624100  1
  S  S3  1  0.31885200  0.06637700  0.44624100  1
  S  S4  1  0.31631900  0.42159600  0.31786700  1
  S  S5  1  0.57840400  0.31631900  0.68213300  1
  S  S6  1  0.42150300  0.83161100  0.04183200  1
  S  S7  1  0.17311800  0.07335600  0.79735300  1
  S  S8  1  0.42159600  0.68368100  0.68213300  1
  S  S9  1  0.06637700  0.68114800  0.55375900  1
  S  S10  1  0.16838900  0.42150300  0.95816800  1
  S  S11  1  0.83161100  0.57849700  0.95816800  1
  S  S12  1  0.82688200  0.92664400  0.79735300  1
  S  S13  1  0.07335600  0.82688200  0.20264700  1
  S  S14  1  0.93362300  0.31885200  0.55375900  1
  S  S15  1  0.92664400  0.17311800  0.20264700  1
loop_
_geom_bond_atom_site_label_1
_geom_bond_atom_site_label_2
_geom_bond_distance
_geom_bond_site_symmetry_2
Nd0 S8 2.826163 1_555
Nd0 S11 2.828282 1_555
Nd0 S0 2.842519 1_555
Nd0 S9 2.912153 1_655
Nd0 S12 3.001703 1_555
Nd0 S5 3.009794 1_555
Nd0 S14 3.171836 1_555
Nd0 S2 3.184424 1_555
Nd1 S0 2.826163 1_555
Nd1 S1 2.828282 1_555
Nd1 S5 2.842519 1_555
Nd1 S2 2.912153 1_545
Nd1 S15 3.001703 1_555
Nd1 S4 3.009794 1_555
Nd1 S3 3.171836 1_555
Nd1 S14 3.184424 1_555
Nd2 S5 2.847629 1_555
Nd2 S8 2.847629 1_545
Nd2 S7 2.904026 1_555
Nd2 S12 2.904026 1_545
Nd2 S1 2.980031 1_556
Nd2 S6 2.980031 1_546
Nd2 S2 3.052779 1_545
Nd2 S3 3.052779 1_555
Nd3 S5 2.826163 1_555
Nd3 S10 2.828282 1_555
Nd3 S4 2.842519 1_555
Nd3 S14 2.912153 1_455
Nd3 S7 3.001703 1_555
Nd3 S8 3.009794 1_555
Nd3 S9 3.171836 1_555
Nd3 S3 3.184424 1_555
Nd4 S4 2.826163 1_555
Nd4 S6 2.828282 1_555
Nd4 S8 2.842519 1_555
Nd4 S3 2.912153 1_565
Nd4 S13 3.001703 1_555
Nd4 S0 3.009794 1_555
Nd4 S2 3.171836 1_555
Nd4 S9 3.184424 1_555
Nd5 S1 2.861569 1_555
Nd5 S3 2.888965 1_555
Nd5 S7 2.896256 1_554
Nd5 S15 2.928098 1_455
Nd5 S10 2.930571 1_554
Nd5 S6 3.026385 1_545
Nd5 S4 3.034148 1_555
Nd5 S13 3.137248 1_545
Nd6 S10 2.861569 1_555
Nd6 S9 2.888965 1_555
Nd6 S13 2.896256 1_556
Nd6 S7 2.928098 1_565
Nd6 S6 2.930571 1_556
Nd6 S11 3.026385 1_455
Nd6 S8 3.034148 1_555
Nd6 S12 3.137248 1_455
Nd7 S4 2.847629 1_555
Nd7 S0 2.847629 1_455
Nd7 S13 2.904026 1_555
Nd7 S15 2.904026 1_455
Nd7 S10 2.980031 1_554
Nd7 S11 2.980031 1_454
Nd7 S9 3.052779 1_555
Nd7 S14 3.052779 1_455
Nd8 S6 2.861569 1_555
Nd8 S2 2.888965 1_555
Nd8 S12 2.896256 1_554
Nd8 S13 2.928098 1_655
Nd8 S11 2.930571 1_554
Nd8 S1 3.026385 1_565
Nd8 S0 3.034148 1_555
Nd8 S15 3.137248 1_565
Nd9 S11 2.861569 1_555
Nd9 S14 2.888965 1_555
Nd9 S15 2.896256 1_556
Nd9 S12 2.928098 1_545
Nd9 S1 2.930571 1_556
Nd9 S10 3.026385 1_655
Nd9 S5 3.034148 1_555
Nd9 S7 3.137248 1_655
S2 U0 2.829325 1_665
S3 U0 2.829325 1_555
S7 U0 3.007031 1_555
S9 U0 2.829325 1_565
S12 U0 3.007031 1_665
S13 U0 3.007031 1_565
S14 U0 2.829325 1_655
S15 U0 3.007031 1_655
