# generated using pymatgen
data_Yb43Se45
_symmetry_space_group_name_H-M   'P 1'
_cell_length_a   8.39524200
_cell_length_b   14.50228600
_cell_length_c   20.41396120
_cell_angle_alpha   89.88488049
_cell_angle_beta   90.00000000
_cell_angle_gamma   90.00000000
_symmetry_Int_Tables_number   1
_chemical_formula_structural   Yb43Se45
_chemical_formula_sum   'Yb43 Se45'
_cell_volume   2485.39885346
_cell_formula_units_Z   1
loop_
 _symmetry_equiv_pos_site_id
 _symmetry_equiv_pos_as_xyz
  1  'x, y, z'
loop_
 _atom_site_type_symbol
 _atom_site_label
 _atom_site_symmetry_multiplicity
 _atom_site_fract_x
 _atom_site_fract_y
 _atom_site_fract_z
 _atom_site_occupancy
  Yb  Yb0  1  0.76480400  0.25501800  0.99463400  1
  Yb  Yb1  1  0.50000000  0.34177500  0.17078900  1
  Yb  Yb2  1  0.26249100  0.57927500  0.17071600  1
  Yb  Yb3  1  0.23519600  0.25501800  0.99463400  1
  Yb  Yb4  1  0.26502100  0.75482900  0.99491300  1
  Yb  Yb5  1  0.26271100  0.42056200  0.32958600  1
  Yb  Yb6  1  0.00000000  0.49024200  0.99443100  1
  Yb  Yb7  1  0.00000000  0.84232200  0.17119000  1
  Yb  Yb8  1  0.00000000  0.33330400  0.16666700  1
  Yb  Yb9  1  0.76401400  0.07857700  0.17119400  1
  Yb  Yb10  1  0.73750900  0.57927500  0.17071600  1
  Yb  Yb11  1  0.73497900  0.75482900  0.99491300  1
  Yb  Yb12  1  0.75306600  0.74906300  0.49795600  1
  Yb  Yb13  1  0.73728900  0.42056200  0.32958600  1
  Yb  Yb14  1  0.74712900  0.91566100  0.33462600  1
  Yb  Yb15  1  0.50000000  0.99005200  0.99501400  1
  Yb  Yb16  1  0.50000000  0.66972600  0.33470200  1
  Yb  Yb17  1  0.50000000  0.83346100  0.16640000  1
  Yb  Yb18  1  0.50000000  0.83320000  0.66658500  1
  Yb  Yb19  1  0.50000000  0.00143800  0.49734800  1
  Yb  Yb20  1  0.26612200  0.24467600  0.50531600  1
  Yb  Yb21  1  0.23598600  0.07857700  0.17119400  1
  Yb  Yb22  1  0.24693400  0.74906300  0.49795600  1
  Yb  Yb23  1  0.25287100  0.91566100  0.33462600  1
  Yb  Yb24  1  0.24454800  0.91886300  0.83423800  1
  Yb  Yb25  1  0.24571300  0.08583000  0.66754700  1
  Yb  Yb26  1  0.00000000  0.15714400  0.32931500  1
  Yb  Yb27  1  0.00000000  0.51149100  0.50594700  1
  Yb  Yb28  1  0.00000000  0.83383900  0.66691500  1
  Yb  Yb29  1  0.00000000  0.00038400  0.49965900  1
  Yb  Yb30  1  0.00000000  0.16544500  0.83205400  1
  Yb  Yb31  1  0.74747500  0.41732700  0.83225500  1
  Yb  Yb32  1  0.75428700  0.08583000  0.66754700  1
  Yb  Yb33  1  0.73387800  0.24467600  0.50531600  1
  Yb  Yb34  1  0.75246000  0.58007000  0.66689200  1
  Yb  Yb35  1  0.75545200  0.91886300  0.83423800  1
  Yb  Yb36  1  0.50000000  0.33402500  0.66756600  1
  Yb  Yb37  1  0.50000000  0.49967100  0.49984800  1
  Yb  Yb38  1  0.50000000  0.66237300  0.83455400  1
  Yb  Yb39  1  0.50000000  0.16670000  0.83366600  1
  Yb  Yb40  1  0.25252500  0.41732700  0.83225500  1
  Yb  Yb41  1  0.24754000  0.58007000  0.66689200  1
  Yb  Yb42  1  0.00000000  0.66632400  0.83373800  1
  Se  Se0  1  0.24853200  0.41590700  0.08478400  1
  Se  Se1  1  0.00000000  0.49851600  0.24937600  1
  Se  Se2  1  0.00000000  0.16794800  0.08436800  1
  Se  Se3  1  0.74835400  0.91608800  0.08414500  1
  Se  Se4  1  0.75151000  0.25113600  0.24894200  1
  Se  Se5  1  0.75146800  0.41590700  0.08478400  1
  Se  Se6  1  0.75170400  0.74898100  0.24567900  1
  Se  Se7  1  0.75046600  0.57742000  0.41667200  1
  Se  Se8  1  0.50000000  0.00203300  0.24545900  1
  Se  Se9  1  0.50000000  0.66715700  0.58334000  1
  Se  Se10  1  0.50000000  0.66747500  0.08446500  1
  Se  Se11  1  0.50000000  0.83322700  0.41587400  1
  Se  Se12  1  0.50000000  0.50244100  0.25119500  1
  Se  Se13  1  0.24829600  0.74898100  0.24567900  1
  Se  Se14  1  0.25164600  0.91608800  0.08414500  1
  Se  Se15  1  0.24849000  0.25113600  0.24894200  1
  Se  Se16  1  0.24318700  0.08688300  0.41679800  1
  Se  Se17  1  0.24953400  0.57742000  0.41667200  1
  Se  Se18  1  0.25136000  0.91687300  0.58321300  1
  Se  Se19  1  0.00000000  0.16764300  0.57946800  1
  Se  Se20  1  0.00000000  0.83662800  0.41697700  1
  Se  Se21  1  0.00000000  0.99986700  0.75041900  1
  Se  Se22  1  0.00000000  0.66965600  0.58475500  1
  Se  Se23  1  0.00000000  0.99750800  0.25243200  1
  Se  Se24  1  0.74864000  0.91687300  0.58321300  1
  Se  Se25  1  0.75681300  0.08688300  0.41679800  1
  Se  Se26  1  0.75079900  0.41599900  0.57912700  1
  Se  Se27  1  0.74328400  0.08553800  0.91922100  1
  Se  Se28  1  0.74658200  0.24903200  0.75162000  1
  Se  Se29  1  0.50000000  0.33480500  0.41618200  1
  Se  Se30  1  0.50000000  0.32893500  0.91961700  1
  Se  Se31  1  0.50000000  0.50015400  0.75012700  1
  Se  Se32  1  0.50000000  0.99911700  0.75008100  1
  Se  Se33  1  0.50000000  0.16363700  0.58591700  1
  Se  Se34  1  0.25671600  0.08553800  0.91922100  1
  Se  Se35  1  0.25341800  0.24903200  0.75162000  1
  Se  Se36  1  0.24920100  0.41599900  0.57912700  1
  Se  Se37  1  0.24322700  0.58572700  0.91945600  1
  Se  Se38  1  0.25128800  0.75042700  0.75047700  1
  Se  Se39  1  0.00000000  0.82869900  0.91916000  1
  Se  Se40  1  0.00000000  0.50206400  0.75196700  1
  Se  Se41  1  0.00000000  0.33332600  0.91298300  1
  Se  Se42  1  0.75677300  0.58572700  0.91945600  1
  Se  Se43  1  0.74871200  0.75042700  0.75047700  1
  Se  Se44  1  0.50000000  0.83338700  0.91277400  1
loop_
_geom_bond_atom_site_label_1
_geom_bond_atom_site_label_2
_geom_bond_distance
_geom_bond_site_symmetry_2
Se0 Yb8 2.928228 1_555
Se0 Yb1 2.947474 1_555
Se0 Yb2 2.953108 1_555
Se0 Yb3 2.976685 1_554
Se0 Yb6 2.984899 1_554
Se1 Yb8 2.933871 1_555
Se1 Yb2 2.966275 1_555
Se1 Yb10 2.966275 1_455
Se1 Yb5 2.969181 1_555
Se1 Yb13 2.969181 1_455
Se2 Yb8 2.930759 1_555
Se2 Yb9 2.955879 1_455
Se2 Yb21 2.955879 1_555
Se2 Yb0 2.973129 1_454
Se2 Yb3 2.973129 1_554
Se3 Yb17 2.931643 1_555
Se3 Yb9 2.957162 1_565
Se3 Yb7 2.959303 1_655
Se3 Yb15 2.966574 1_554
Se3 Yb11 2.969350 1_554
Se4 Yb8 2.929982 1_655
Se4 Yb1 2.953495 1_555
Se4 Yb13 2.962745 1_555
Se4 Yb9 2.967914 1_555
Se4 Yb26 2.982114 1_655
Se5 Yb8 2.928228 1_655
Se5 Yb1 2.947474 1_555
Se5 Yb10 2.953108 1_555
Se5 Yb0 2.976685 1_554
Se5 Yb6 2.984899 1_654
Se6 Yb10 2.903147 1_555
Se6 Yb7 2.912310 1_655
Se6 Yb17 2.928738 1_555
Se6 Yb16 3.013397 1_555
Se6 Yb14 3.026409 1_555
Se7 Yb13 2.892001 1_555
Se7 Yb37 2.927137 1_555
Se7 Yb27 2.935492 1_655
Se7 Yb12 2.994435 1_555
Se7 Yb16 3.000743 1_555
Se8 Yb9 2.904576 1_555
Se8 Yb21 2.904576 1_555
Se8 Yb17 2.932066 1_545
Se8 Yb23 3.029447 1_545
Se8 Yb14 3.029447 1_545
Se9 Yb18 2.950042 1_555
Se9 Yb37 2.970071 1_555
Se9 Yb12 2.992400 1_555
Se9 Yb22 2.992400 1_555
Se9 Yb41 2.997949 1_555
Se9 Yb34 2.997949 1_555
Se10 Yb17 2.933995 1_555
Se10 Yb10 2.950088 1_555
Se10 Yb2 2.950088 1_555
Se10 Yb4 2.971383 1_554
Se10 Yb11 2.971383 1_554
Se11 Yb16 2.895492 1_555
Se11 Yb23 2.911452 1_555
Se11 Yb14 2.911452 1_555
Se11 Yb19 2.955241 1_565
Se11 Yb12 2.966983 1_555
Se11 Yb22 2.966983 1_555
Se12 Yb10 2.812323 1_555
Se12 Yb2 2.812323 1_555
Se12 Yb13 2.816325 1_555
Se12 Yb5 2.816325 1_555
Se12 Yb1 2.852822 1_555
Se12 Yb16 2.967861 1_555
Se13 Yb2 2.903147 1_555
Se13 Yb7 2.912310 1_555
Se13 Yb17 2.928738 1_555
Se13 Yb16 3.013397 1_555
Se13 Yb23 3.026409 1_555
Se14 Yb17 2.931643 1_555
Se14 Yb21 2.957162 1_565
Se14 Yb7 2.959303 1_555
Se14 Yb15 2.966574 1_554
Se14 Yb4 2.969350 1_554
Se15 Yb8 2.929982 1_555
Se15 Yb1 2.953495 1_555
Se15 Yb5 2.962745 1_555
Se15 Yb21 2.967914 1_555
Se15 Yb26 2.982114 1_555
Se16 Yb26 2.896286 1_555
Se16 Yb20 2.924985 1_555
Se16 Yb29 2.931639 1_555
Se16 Yb19 2.979855 1_555
Se16 Yb23 3.000507 1_545
Se17 Yb5 2.892001 1_555
Se17 Yb37 2.927137 1_555
Se17 Yb27 2.935492 1_555
Se17 Yb22 2.994435 1_555
Se17 Yb16 3.000743 1_555
Se18 Yb18 2.952628 1_555
Se18 Yb28 2.968917 1_555
Se18 Yb29 2.969988 1_565
Se18 Yb19 2.987484 1_565
Se18 Yb22 2.995005 1_555
Se18 Yb25 2.997809 1_565
Se19 Yb33 2.919606 1_455
Se19 Yb20 2.919606 1_555
Se19 Yb29 2.924714 1_555
Se19 Yb25 2.981163 1_555
Se19 Yb32 2.981163 1_455
Se20 Yb29 2.916308 1_565
Se20 Yb12 2.938462 1_455
Se20 Yb22 2.938462 1_555
Se20 Yb14 2.939189 1_455
Se20 Yb23 2.939189 1_555
Se21 Yb24 2.917996 1_555
Se21 Yb35 2.917996 1_455
Se21 Yb30 2.925633 1_565
Se21 Yb25 2.943283 1_565
Se21 Yb32 2.943283 1_465
Se21 Yb28 2.952922 1_555
Se22 Yb27 2.804340 1_555
Se22 Yb28 2.915199 1_555
Se22 Yb12 2.958925 1_455
Se22 Yb22 2.958925 1_555
Se22 Yb41 2.968059 1_555
Se22 Yb34 2.968059 1_455
Se23 Yb7 2.798304 1_555
Se23 Yb26 2.799556 1_565
Se23 Yb9 2.837191 1_465
Se23 Yb21 2.837191 1_565
Se23 Yb14 2.953475 1_455
Se23 Yb23 2.953475 1_555
Se24 Yb18 2.952628 1_555
Se24 Yb28 2.968917 1_655
Se24 Yb29 2.969988 1_665
Se24 Yb19 2.987484 1_565
Se24 Yb12 2.995005 1_555
Se24 Yb32 2.997809 1_565
Se25 Yb26 2.896286 1_655
Se25 Yb33 2.924985 1_555
Se25 Yb29 2.931639 1_655
Se25 Yb19 2.979855 1_555
Se25 Yb14 3.000507 1_545
Se26 Yb33 2.911822 1_555
Se26 Yb37 2.918382 1_555
Se26 Yb27 2.918581 1_655
Se26 Yb34 2.981415 1_555
Se26 Yb36 3.016171 1_555
Se27 Yb0 2.908411 1_555
Se27 Yb15 2.911085 1_545
Se27 Yb39 2.932402 1_555
Se27 Yb35 2.979876 1_545
Se27 Yb30 3.024205 1_655
Se28 Yb39 2.916885 1_555
Se28 Yb32 2.927084 1_555
Se28 Yb31 2.946627 1_555
Se28 Yb30 2.946829 1_655
Se28 Yb36 2.956415 1_555
Se29 Yb13 2.937915 1_555
Se29 Yb5 2.937915 1_555
Se29 Yb37 2.941102 1_555
Se29 Yb20 2.977405 1_555
Se29 Yb33 2.977405 1_555
Se30 Yb3 2.903416 1_555
Se30 Yb0 2.903416 1_555
Se30 Yb39 2.937818 1_555
Se30 Yb40 3.021763 1_555
Se30 Yb31 3.021763 1_555
Se31 Yb38 2.919107 1_555
Se31 Yb31 2.926100 1_555
Se31 Yb40 2.926100 1_555
Se31 Yb36 2.943020 1_555
Se31 Yb34 2.952040 1_555
Se31 Yb41 2.952040 1_555
Se32 Yb18 2.951513 1_555
Se32 Yb39 2.972316 1_565
Se32 Yb24 2.982822 1_555
Se32 Yb35 2.982822 1_555
Se32 Yb25 2.994823 1_565
Se32 Yb32 2.994823 1_565
Se33 Yb20 2.817077 1_555
Se33 Yb33 2.817077 1_555
Se33 Yb32 2.932562 1_555
Se33 Yb25 2.932562 1_555
Se33 Yb19 2.969718 1_555
Se33 Yb36 2.983391 1_555
Se34 Yb3 2.908411 1_555
Se34 Yb15 2.911085 1_545
Se34 Yb39 2.932402 1_555
Se34 Yb24 2.979876 1_545
Se34 Yb30 3.024205 1_555
Se35 Yb39 2.916885 1_555
Se35 Yb25 2.927084 1_555
Se35 Yb40 2.946627 1_555
Se35 Yb30 2.946829 1_555
Se35 Yb36 2.956415 1_555
Se36 Yb20 2.911822 1_555
Se36 Yb37 2.918382 1_555
Se36 Yb27 2.918581 1_555
Se36 Yb41 2.981415 1_555
Se36 Yb36 3.016171 1_555
Se37 Yb6 2.901916 1_555
Se37 Yb4 2.904395 1_555
Se37 Yb42 2.930782 1_555
Se37 Yb38 2.979704 1_555
Se37 Yb40 3.025996 1_555
Se38 Yb18 2.953865 1_555
Se38 Yb28 2.969069 1_555
Se38 Yb42 2.969638 1_555
Se38 Yb24 2.985053 1_555
Se38 Yb38 2.987884 1_555
Se38 Yb41 3.005510 1_555
Se39 Yb11 2.912499 1_455
Se39 Yb4 2.912499 1_555
Se39 Yb42 2.932996 1_555
Se39 Yb35 2.986802 1_455
Se39 Yb24 2.986802 1_555
Se40 Yb42 2.911539 1_555
Se40 Yb41 2.933734 1_555
Se40 Yb34 2.933734 1_455
Se40 Yb40 2.946659 1_555
Se40 Yb31 2.946659 1_455
Se41 Yb6 2.821035 1_555
Se41 Yb0 2.821193 1_455
Se41 Yb3 2.821193 1_555
Se41 Yb30 2.945012 1_555
Se41 Yb31 2.947241 1_455
Se41 Yb40 2.947241 1_555
Se42 Yb6 2.901916 1_655
Se42 Yb11 2.904395 1_555
Se42 Yb42 2.930782 1_655
Se42 Yb38 2.979704 1_555
Se42 Yb31 3.025996 1_555
Se43 Yb18 2.953865 1_555
Se43 Yb28 2.969069 1_655
Se43 Yb42 2.969638 1_655
Se43 Yb35 2.985053 1_555
Se43 Yb38 2.987884 1_555
Se43 Yb34 3.005510 1_555
Se44 Yb11 2.827265 1_555
Se44 Yb4 2.827265 1_555
Se44 Yb15 2.827690 1_555
Se44 Yb24 2.949270 1_555
Se44 Yb35 2.949270 1_555
Se44 Yb38 2.952370 1_555
