# generated using pymatgen
data_Na3MgP2HO8
_symmetry_space_group_name_H-M   'P 1'
_cell_length_a   5.14213382
_cell_length_b   5.18836521
_cell_length_c   6.77388017
_cell_angle_alpha   90.40965411
_cell_angle_beta   91.57710593
_cell_angle_gamma   117.28014913
_symmetry_Int_Tables_number   1
_chemical_formula_structural   Na3MgP2HO8
_chemical_formula_sum   'Na3 Mg1 P2 H1 O8'
_cell_volume   160.52095938
_cell_formula_units_Z   1
loop_
 _symmetry_equiv_pos_site_id
 _symmetry_equiv_pos_as_xyz
  1  'x, y, z'
loop_
 _atom_site_type_symbol
 _atom_site_label
 _atom_site_symmetry_multiplicity
 _atom_site_fract_x
 _atom_site_fract_y
 _atom_site_fract_z
 _atom_site_occupancy
  Na  Na0  1  0.66459716  0.30104097  0.79043609  1
  Na  Na1  1  0.33540284  0.69895903  0.20956391  1
  Na  Na2  1  0.00000000  -0.00000000  0.50000000  1
  Mg  Mg0  1  0.00000000  -0.00000000  -0.00000000  1
  P  P0  1  0.66013064  0.35351913  0.24532364  1
  P  P1  1  0.33986936  0.64648087  0.75467636  1
  H  H0  1  0.00000000  0.50000000  0.50000000  1
  O  O0  1  0.78597828  0.21594490  0.10239201  1
  O  O1  1  0.21402172  0.78405510  0.89760799  1
  O  O2  1  0.78650239  0.68040530  0.21116994  1
  O  O3  1  0.21349761  0.31959470  0.78883006  1
  O  O4  1  0.75617862  0.31484782  0.46017272  1
  O  O5  1  0.24382138  0.68515218  0.53982728  1
  O  O6  1  0.67412894  0.79506749  0.77143563  1
  O  O7  1  0.32587106  0.20493251  0.22856437  1
loop_
_geom_bond_atom_site_label_1
_geom_bond_atom_site_label_2
_geom_bond_distance
_geom_bond_site_symmetry_2
Na0 O0 2.289818 1_556
Na0 O4 2.293723 1_555
Na0 O3 2.365018 1_555
Na0 O6 2.545351 1_555
Na0 O6 2.650279 1_545
Na0 O1 2.741069 1_545
Na0 O3 2.780043 1_655
Na0 O1 2.856574 1_655
Na1 O1 2.289818 1_554
Na1 O5 2.293723 1_555
Na1 O2 2.365018 1_555
Na1 O7 2.545351 1_555
Na1 O7 2.650279 1_565
Na1 O0 2.741069 1_565
Na1 O2 2.780043 1_455
Na1 O0 2.856574 1_455
Na2 O7 2.425579 1_555
Na2 O6 2.425579 1_445
Na2 O2 2.439123 1_445
Na2 O3 2.439123 1_555
Na2 O4 2.485618 1_455
Na2 O5 2.485618 1_545
Mg0 O1 2.027001 1_544
Mg0 O0 2.027001 1_455
Mg0 O3 2.110111 1_554
Mg0 O2 2.110111 1_445
Mg0 O6 2.129779 1_444
Mg0 O7 2.129779 1_555
H0 O4 1.200475 1_455
H0 O5 1.200475 1_555
H0 Na0 2.548433 1_455
H0 Na1 2.548433 1_555
O0 P0 1.521087 1_555
O1 P1 1.521087 1_555
O2 P0 1.534873 1_555
O3 P1 1.534873 1_555
O4 P0 1.567709 1_555
O5 P1 1.567709 1_555
O6 P1 1.528021 1_555
O7 P0 1.528021 1_555
