# generated using pymatgen
data_Pr3RuCl3
_symmetry_space_group_name_H-M   'P 1'
_cell_length_a   4.08539158
_cell_length_b   12.50369992
_cell_length_c   14.29827916
_cell_angle_alpha   89.99965856
_cell_angle_beta   90.00000000
_cell_angle_gamma   90.00000000
_symmetry_Int_Tables_number   1
_chemical_formula_structural   Pr3RuCl3
_chemical_formula_sum   'Pr12 Ru4 Cl12'
_cell_volume   730.39199350
_cell_formula_units_Z   4
loop_
 _symmetry_equiv_pos_site_id
 _symmetry_equiv_pos_as_xyz
  1  'x, y, z'
loop_
 _atom_site_type_symbol
 _atom_site_label
 _atom_site_symmetry_multiplicity
 _atom_site_fract_x
 _atom_site_fract_y
 _atom_site_fract_z
 _atom_site_occupancy
  Pr  Pr0  1  0.25000000  0.83593567  0.08923740  1
  Pr  Pr1  1  0.25000000  0.41720293  0.85917991  1
  Pr  Pr2  1  0.25000000  0.08287219  0.35930552  1
  Pr  Pr3  1  0.75000000  0.91713610  0.64078881  1
  Pr  Pr4  1  0.75000000  0.16409487  0.91073242  1
  Pr  Pr5  1  0.75000000  0.82398213  0.39952138  1
  Pr  Pr6  1  0.75000000  0.58282408  0.14072099  1
  Pr  Pr7  1  0.25000000  0.66399552  0.58928433  1
  Pr  Pr8  1  0.25000000  0.17602317  0.60054431  1
  Pr  Pr9  1  0.75000000  0.33596488  0.41073028  1
  Pr  Pr10  1  0.75000000  0.67599838  0.89943334  1
  Pr  Pr11  1  0.25000000  0.32402750  0.10055130  1
  Ru  Ru0  1  0.25000000  0.90020585  0.51227696  1
  Ru  Ru1  1  0.75000000  0.40023490  0.98773180  1
  Ru  Ru2  1  0.25000000  0.59977797  0.01227432  1
  Ru  Ru3  1  0.75000000  0.09975791  0.48773579  1
  Cl  Cl0  1  0.75000000  0.90132567  0.95510174  1
  Cl  Cl1  1  0.25000000  0.09870932  0.04487174  1
  Cl  Cl2  1  0.25000000  0.40133584  0.54488572  1
  Cl  Cl3  1  0.75000000  0.93808554  0.21402342  1
  Cl  Cl4  1  0.75000000  0.59863361  0.45513904  1
  Cl  Cl5  1  0.75000000  0.21578607  0.23601968  1
  Cl  Cl6  1  0.25000000  0.06187983  0.78596703  1
  Cl  Cl7  1  0.25000000  0.71576363  0.26400005  1
  Cl  Cl8  1  0.75000000  0.28424995  0.73594349  1
  Cl  Cl9  1  0.75000000  0.56176397  0.71402323  1
  Cl  Cl10  1  0.25000000  0.43822842  0.28596300  1
  Cl  Cl11  1  0.25000000  0.78420309  0.76401201  1
loop_
_geom_bond_atom_site_label_1
_geom_bond_atom_site_label_2
_geom_bond_distance
_geom_bond_site_symmetry_2
Pr0 Ru2 3.151238 1_555
Pr1 Ru1 2.756106 1_455
Pr1 Ru1 2.756106 1_555
Pr1 Ru2 3.162782 1_556
Pr2 Ru3 2.754869 1_555
Pr2 Ru3 2.754869 1_455
Pr2 Ru0 3.162371 1_545
Pr3 Ru0 2.755689 1_655
Pr3 Ru0 2.755689 1_555
Pr3 Ru3 3.162775 1_565
Pr4 Ru1 3.151212 1_555
Pr5 Ru0 2.771319 1_555
Pr5 Ru0 2.771319 1_655
Pr6 Ru2 2.755089 1_655
Pr6 Ru2 2.755089 1_555
Pr6 Ru1 3.161868 1_554
Pr7 Ru0 3.152063 1_555
Pr8 Ru3 2.771938 1_455
Pr8 Ru3 2.771938 1_555
Pr9 Ru3 3.152015 1_555
Pr10 Ru2 2.772008 1_556
Pr10 Ru2 2.772008 1_656
Pr11 Ru1 2.771774 1_554
Pr11 Ru1 2.771774 1_454
Cl0 Pr0 2.918811 1_656
Cl0 Pr0 2.918811 1_556
Cl0 Pr10 2.927707 1_555
Cl0 Pr4 3.346271 1_565
Cl1 Pr4 2.918830 1_554
Cl1 Pr4 2.918830 1_454
Cl1 Pr11 2.927640 1_555
Cl1 Pr0 3.346315 1_545
Cl2 Pr9 2.918937 1_455
Cl2 Pr9 2.918937 1_555
Cl2 Pr8 2.927483 1_555
Cl2 Pr7 3.345013 1_555
Cl3 Pr0 2.997910 1_555
Cl3 Pr0 2.997910 1_655
Cl3 Pr5 3.011673 1_555
Cl3 Pr2 3.430043 1_565
Cl3 Pr2 3.430043 1_665
Cl4 Pr7 2.918810 1_655
Cl4 Pr7 2.918810 1_555
Cl4 Pr5 2.927756 1_555
Cl4 Pr9 3.345152 1_555
Cl5 Pr9 2.915201 1_555
Cl5 Pr11 3.123483 1_655
Cl5 Pr11 3.123483 1_555
Cl5 Pr2 3.168897 1_655
Cl5 Pr2 3.168897 1_555
Cl6 Pr4 2.998082 1_555
Cl6 Pr4 2.998082 1_455
Cl6 Pr8 3.010962 1_555
Cl6 Pr3 3.428860 1_545
Cl6 Pr3 3.428860 1_445
Cl7 Pr0 2.915780 1_555
Cl7 Pr5 3.123839 1_455
Cl7 Pr5 3.123839 1_555
Cl7 Pr6 3.169023 1_555
Cl7 Pr6 3.169023 1_455
Cl8 Pr4 2.915993 1_555
Cl8 Pr8 3.122801 1_655
Cl8 Pr8 3.122801 1_555
Cl8 Pr1 3.168772 1_655
Cl8 Pr1 3.168772 1_555
Cl9 Pr7 2.997935 1_555
Cl9 Pr7 2.997935 1_655
Cl9 Pr10 3.011358 1_555
Cl9 Pr1 3.427456 1_555
Cl9 Pr1 3.427456 1_655
Cl10 Pr9 2.998347 1_555
Cl10 Pr9 2.998347 1_455
Cl10 Pr11 3.011180 1_555
Cl10 Pr6 3.428423 1_455
Cl10 Pr6 3.428423 1_555
Cl11 Pr7 2.915596 1_555
Cl11 Pr10 3.122867 1_555
Cl11 Pr10 3.122867 1_455
Cl11 Pr3 3.168525 1_455
Cl11 Pr3 3.168525 1_555
