# generated using pymatgen
data_RbCuPdF5
_symmetry_space_group_name_H-M   'P 1'
_cell_length_a   6.32015200
_cell_length_b   7.37562800
_cell_length_c   10.95104300
_cell_angle_alpha   90.00000000
_cell_angle_beta   90.00000000
_cell_angle_gamma   90.00000000
_symmetry_Int_Tables_number   1
_chemical_formula_structural   RbCuPdF5
_chemical_formula_sum   'Rb4 Cu4 Pd4 F20'
_cell_volume   510.48385565
_cell_formula_units_Z   4
loop_
 _symmetry_equiv_pos_site_id
 _symmetry_equiv_pos_as_xyz
  1  'x, y, z'
loop_
 _atom_site_type_symbol
 _atom_site_label
 _atom_site_symmetry_multiplicity
 _atom_site_fract_x
 _atom_site_fract_y
 _atom_site_fract_z
 _atom_site_occupancy
  Rb  Rb0  1  0.97521000  0.25000000  0.85555000  1
  Rb  Rb1  1  0.52479000  0.75000000  0.35555000  1
  Rb  Rb2  1  0.02479000  0.75000000  0.14445000  1
  Rb  Rb3  1  0.47521000  0.25000000  0.64445000  1
  Cu  Cu0  1  0.50000000  0.00000000  0.00000000  1
  Cu  Cu1  1  0.00000000  0.00000000  0.50000000  1
  Cu  Cu2  1  0.50000000  0.50000000  0.00000000  1
  Cu  Cu3  1  0.00000000  0.50000000  0.50000000  1
  Pd  Pd0  1  0.19610800  0.75000000  0.79372900  1
  Pd  Pd1  1  0.69610800  0.75000000  0.70627100  1
  Pd  Pd2  1  0.30389200  0.25000000  0.29372900  1
  Pd  Pd3  1  0.80389200  0.25000000  0.20627100  1
  F  F0  1  0.16859300  0.55350100  0.67069800  1
  F  F1  1  0.71727600  0.93836900  0.57385100  1
  F  F2  1  0.83140700  0.44649900  0.32930200  1
  F  F3  1  0.21727600  0.56163100  0.92614900  1
  F  F4  1  0.78272400  0.06163100  0.07385100  1
  F  F5  1  0.03313100  0.75000000  0.43772500  1
  F  F6  1  0.28272400  0.43836900  0.42614900  1
  F  F7  1  0.66859300  0.55350100  0.82930200  1
  F  F8  1  0.96686900  0.25000000  0.56227500  1
  F  F9  1  0.16859300  0.94649900  0.67069800  1
  F  F10  1  0.78272400  0.43836900  0.07385100  1
  F  F11  1  0.83140700  0.05350100  0.32930200  1
  F  F12  1  0.66859300  0.94649900  0.82930200  1
  F  F13  1  0.33140700  0.44649900  0.17069800  1
  F  F14  1  0.53313100  0.75000000  0.06227500  1
  F  F15  1  0.28272400  0.06163100  0.42614900  1
  F  F16  1  0.33140700  0.05350100  0.17069800  1
  F  F17  1  0.21727600  0.93836900  0.92614900  1
  F  F18  1  0.46686900  0.25000000  0.93772500  1
  F  F19  1  0.71727600  0.56163100  0.57385100  1
loop_
_geom_bond_atom_site_label_1
_geom_bond_atom_site_label_2
_geom_bond_distance
_geom_bond_site_symmetry_2
Cu0 F14 1.977101 1_545
Cu0 F18 1.977101 1_554
Cu0 F4 2.013347 1_555
Cu0 F17 2.013347 1_544
Cu0 F16 2.187564 1_555
Cu0 F12 2.187564 1_544
Cu1 F5 1.977101 1_545
Cu1 F8 1.977101 1_455
Cu1 F15 2.013347 1_555
Cu1 F1 2.013347 1_445
Cu1 F9 2.187564 1_545
Cu1 F11 2.187564 1_455
Cu2 F14 1.977101 1_555
Cu2 F18 1.977101 1_554
Cu2 F3 2.013347 1_554
Cu2 F10 2.013347 1_555
Cu2 F13 2.187564 1_555
Cu2 F7 2.187564 1_554
Cu3 F5 1.977101 1_555
Cu3 F8 1.977101 1_455
Cu3 F6 2.013347 1_555
Cu3 F19 2.013347 1_455
Cu3 F0 2.187564 1_555
Cu3 F2 2.187564 1_455
F0 Pd0 1.986451 1_555
F0 Rb3 2.974706 1_555
F0 Rb0 3.256164 1_455
F1 Pd1 2.012725 1_555
F1 Rb3 2.867280 1_565
F1 Rb1 3.020814 1_555
F2 Pd3 1.986451 1_555
F2 Rb1 2.974706 1_555
F2 Rb2 3.256164 1_655
F3 Pd0 2.012725 1_555
F3 Rb0 2.867280 1_455
F3 Rb2 3.020814 1_556
F4 Pd3 2.012725 1_555
F4 Rb2 2.867280 1_645
F4 Rb0 3.020814 1_554
F5 Rb2 3.212100 1_555
F5 Rb1 3.235044 1_555
F5 Rb1 3.336444 1_455
F6 Pd2 2.012725 1_555
F6 Rb1 2.867280 1_555
F6 Rb3 3.020814 1_555
F7 Pd1 1.986451 1_555
F7 Rb0 2.974706 1_555
F7 Rb3 3.256164 1_555
F8 Rb0 3.212100 1_555
F8 Rb3 3.235044 1_555
F8 Rb3 3.336444 1_655
F9 Pd0 1.986451 1_555
F9 Rb3 2.974706 1_565
F9 Rb0 3.256164 1_465
F10 Pd3 2.012725 1_555
F10 Rb2 2.867280 1_655
F10 Rb0 3.020814 1_554
F11 Pd3 1.986451 1_555
F11 Rb1 2.974706 1_545
F11 Rb2 3.256164 1_645
F12 Pd1 1.986451 1_555
F12 Rb0 2.974706 1_565
F12 Rb3 3.256164 1_565
F13 Pd2 1.986451 1_555
F13 Rb2 2.974706 1_555
F13 Rb1 3.256164 1_555
F14 Rb1 3.212100 1_555
F14 Rb2 3.235044 1_655
F14 Rb2 3.336444 1_555
F15 Pd2 2.012725 1_555
F15 Rb1 2.867280 1_545
F15 Rb3 3.020814 1_555
F16 Pd2 1.986451 1_555
F16 Rb2 2.974706 1_545
F16 Rb1 3.256164 1_545
F17 Pd0 2.012725 1_555
F17 Rb0 2.867280 1_465
F17 Rb2 3.020814 1_556
F18 Rb3 3.212100 1_555
F18 Rb0 3.235044 1_455
F18 Rb0 3.336444 1_555
F19 Pd1 2.012725 1_555
F19 Rb3 2.867280 1_555
F19 Rb1 3.020814 1_555
