# generated using pymatgen
data_ScTl2W
_symmetry_space_group_name_H-M   'P 1'
_cell_length_a   4.90648385
_cell_length_b   4.90648385
_cell_length_c   4.90648385
_cell_angle_alpha   60.00000000
_cell_angle_beta   60.00000000
_cell_angle_gamma   60.00000000
_symmetry_Int_Tables_number   1
_chemical_formula_structural   ScTl2W
_chemical_formula_sum   'Sc1 Tl2 W1'
_cell_volume   83.52108402
_cell_formula_units_Z   1
loop_
 _symmetry_equiv_pos_site_id
 _symmetry_equiv_pos_as_xyz
  1  'x, y, z'
loop_
 _atom_site_type_symbol
 _atom_site_label
 _atom_site_symmetry_multiplicity
 _atom_site_fract_x
 _atom_site_fract_y
 _atom_site_fract_z
 _atom_site_occupancy
  Sc  Sc0  1  0.00000000  0.00000000  0.00000000  1
  Tl  Tl0  1  0.75000000  0.75000000  0.75000000  1
  Tl  Tl1  1  0.25000000  0.25000000  0.25000000  1
  W  W0  1  0.50000000  0.50000000  0.50000000  1
loop_
_geom_bond_atom_site_label_1
_geom_bond_atom_site_label_2
_geom_bond_distance
_geom_bond_site_symmetry_2
Sc0 Tl1 3.004595 1_554
Sc0 Tl1 3.004595 1_455
Sc0 Tl1 3.004595 1_555
Sc0 Tl1 3.004595 1_545
Sc0 Tl0 3.004595 1_445
Sc0 Tl0 3.004595 1_544
Sc0 Tl0 3.004595 1_444
Sc0 Tl0 3.004595 1_454
Sc0 W0 3.469408 1_455
Sc0 W0 3.469408 1_554
Sc0 W0 3.469408 1_445
Sc0 W0 3.469408 1_454
Sc0 W0 3.469408 1_545
Sc0 W0 3.469408 1_544
Tl0 W0 3.004595 1_556
Tl0 W0 3.004595 1_555
Tl0 W0 3.004595 1_655
Tl0 W0 3.004595 1_565
Tl1 W0 3.004595 1_554
Tl1 W0 3.004595 1_545
Tl1 W0 3.004595 1_555
Tl1 W0 3.004595 1_455
