# generated using pymatgen
data_K2P3
_symmetry_space_group_name_H-M   'P 1'
_cell_length_a   12.06045282
_cell_length_b   10.35578808
_cell_length_c   8.57298214
_cell_angle_alpha   78.53816849
_cell_angle_beta   57.30232702
_cell_angle_gamma   44.15950449
_symmetry_Int_Tables_number   1
_chemical_formula_structural   K2P3
_chemical_formula_sum   'K8 P12'
_cell_volume   594.27234501
_cell_formula_units_Z   4
loop_
 _symmetry_equiv_pos_site_id
 _symmetry_equiv_pos_as_xyz
  1  'x, y, z'
loop_
 _atom_site_type_symbol
 _atom_site_label
 _atom_site_symmetry_multiplicity
 _atom_site_fract_x
 _atom_site_fract_y
 _atom_site_fract_z
 _atom_site_occupancy
  K  K0  1  0.87385900  0.88131400  0.62344800  1
  K  K1  1  0.62032900  0.63127400  0.87481300  1
  K  K2  1  0.13041300  0.13931100  0.86561100  1
  K  K3  1  0.85740300  0.86506000  0.13929500  1
  K  K4  1  0.38061400  0.38848900  0.11676800  1
  K  K5  1  0.62939900  0.62379400  0.37657700  1
  K  K6  1  0.37575700  0.37361000  0.61900200  1
  K  K7  1  0.10756600  0.11976300  0.39201300  1
  P  P0  1  0.30089400  0.70411500  0.85070600  1
  P  P1  1  0.39879400  0.10634500  0.39187400  1
  P  P2  1  0.14433300  0.85065800  0.14663900  1
  P  P3  1  0.54033100  0.95532200  0.10719600  1
  P  P4  1  0.84925200  0.15199800  0.85782300  1
  P  P5  1  0.14427900  0.84837800  0.70502400  1
  P  P6  1  0.10576600  0.39845400  0.53846200  1
  P  P7  1  0.10955900  0.39384400  0.09833200  1
  P  P8  1  0.83979800  0.15207900  0.30159100  1
  P  P9  1  0.94495600  0.54677500  0.40576200  1
  P  P10  1  0.70508900  0.29457900  0.15242700  1
  P  P11  1  0.40614700  0.09705900  0.95510000  1
loop_
_geom_bond_atom_site_label_1
_geom_bond_atom_site_label_2
_geom_bond_distance
_geom_bond_site_symmetry_2
K0 P11 3.465367 1_565
K0 P5 3.466334 1_655
K0 P2 3.474804 1_655
K0 P8 3.484497 1_565
K0 P4 3.519029 1_565
K0 P6 3.540774 1_655
K0 P3 3.575375 1_556
K0 P9 3.577510 1_555
K1 P9 3.425975 1_555
K1 P11 3.454583 1_565
K1 P0 3.475966 1_555
K1 P3 3.477909 1_556
K1 P4 3.531207 1_555
K1 P2 3.533445 1_556
K1 P6 3.560131 1_655
K1 P10 3.617058 1_556
K2 P10 3.324758 1_456
K2 P4 3.334968 1_455
K2 P0 3.347334 1_545
K2 P7 3.404167 1_556
K2 P2 3.409237 1_546
K2 P8 3.413202 1_456
K2 P5 3.417209 1_545
K2 P1 3.442475 1_555
K2 P6 3.452694 1_555
K2 P11 3.517682 1_555
K3 P1 3.302365 1_565
K3 P8 3.351791 1_565
K3 P5 3.367840 1_654
K3 P7 3.379182 1_655
K3 P10 3.379922 1_565
K3 P3 3.388027 1_555
K3 P2 3.390051 1_655
K3 P4 3.413150 1_564
K3 P9 3.437682 1_555
K3 P0 3.472506 1_654
K4 P6 3.283027 1_555
K4 P11 3.315394 1_554
K4 P7 3.318034 1_555
K4 P1 3.323905 1_555
K4 P2 3.350035 1_555
K4 P3 3.378926 1_545
K4 P4 3.408088 1_554
K4 P9 3.409443 1_455
K4 P0 3.421689 1_554
K4 P10 3.473776 1_555
K5 P9 3.431728 1_555
K5 P0 3.482358 1_555
K5 P10 3.520268 1_555
K5 P8 3.523562 1_555
K5 P7 3.527440 1_655
K5 P3 3.537219 1_555
K5 P1 3.556600 1_565
K5 P5 3.584504 1_555
K6 P8 3.405089 1_555
K6 P10 3.452147 1_555
K6 P1 3.461653 1_555
K6 P5 3.468906 1_555
K6 P6 3.507471 1_555
K6 P7 3.515772 1_556
K6 P0 3.578525 1_555
K6 P11 3.604701 1_555
K7 P9 3.305878 1_455
K7 P6 3.350652 1_555
K7 P3 3.351763 1_545
K7 P4 3.370529 1_455
K7 P7 3.404117 1_555
K7 P11 3.408071 1_554
K7 P1 3.413376 1_555
K7 P5 3.434573 1_545
K7 P2 3.454986 1_545
K7 P8 3.491831 1_455
P0 P2 2.132594 1_556
P0 P5 2.262266 1_555
P1 P3 2.121683 1_545
P1 P6 2.143158 1_555
P2 P8 2.219235 1_465
P4 P5 2.193539 1_645
P6 P9 2.197727 1_455
P7 P9 2.211447 1_455
P10 P8 2.123008 1_555
P10 P4 2.153197 1_554
P11 P3 2.141167 1_546
P11 P7 2.174701 1_556
