# generated using pymatgen
data_Mn3O4
_symmetry_space_group_name_H-M   'P 1'
_cell_length_a   3.16011600
_cell_length_b   10.58193400
_cell_length_c   12.13025614
_cell_angle_alpha   89.97518337
_cell_angle_beta   90.00000000
_cell_angle_gamma   90.00000000
_symmetry_Int_Tables_number   1
_chemical_formula_structural   Mn3O4
_chemical_formula_sum   'Mn12 O16'
_cell_volume   405.63741263
_cell_formula_units_Z   4
loop_
 _symmetry_equiv_pos_site_id
 _symmetry_equiv_pos_as_xyz
  1  'x, y, z'
loop_
 _atom_site_type_symbol
 _atom_site_label
 _atom_site_symmetry_multiplicity
 _atom_site_fract_x
 _atom_site_fract_y
 _atom_site_fract_z
 _atom_site_occupancy
  Mn  Mn0  1  0.00000000  0.12438900  0.04641700  1
  Mn  Mn1  1  0.00000000  0.97729100  0.74984100  1
  Mn  Mn2  1  0.00000000  0.37574900  0.96198800  1
  Mn  Mn3  1  0.50000000  0.62529100  0.03475600  1
  Mn  Mn4  1  0.00000000  0.11991600  0.45198900  1
  Mn  Mn5  1  0.50000000  0.88021200  0.54867800  1
  Mn  Mn6  1  0.50000000  0.88146600  0.95530300  1
  Mn  Mn7  1  0.50000000  0.62585000  0.46313800  1
  Mn  Mn8  1  0.50000000  0.03277600  0.25137000  1
  Mn  Mn9  1  0.00000000  0.37387300  0.52999600  1
  Mn  Mn10  1  0.50000000  0.43805000  0.75123300  1
  Mn  Mn11  1  0.00000000  0.54602100  0.24820900  1
  O  O0  1  0.50000000  0.00929400  0.09674800  1
  O  O1  1  0.50000000  0.47570600  0.59725500  1
  O  O2  1  0.00000000  0.75309400  0.99379100  1
  O  O3  1  0.00000000  0.75148900  0.50839700  1
  O  O4  1  0.50000000  0.48524500  0.90212900  1
  O  O5  1  0.50000000  0.63900900  0.24862800  1
  O  O6  1  0.00000000  0.12890200  0.25448900  1
  O  O7  1  0.00000000  0.99737200  0.90541800  1
  O  O8  1  0.00000000  0.51568800  0.40340900  1
  O  O9  1  0.00000000  0.51485100  0.09394200  1
  O  O10  1  0.50000000  0.00263000  0.40462200  1
  O  O11  1  0.00000000  0.34495200  0.76036400  1
  O  O12  1  0.00000000  0.99956500  0.59515200  1
  O  O13  1  0.50000000  0.88145400  0.74751400  1
  O  O14  1  0.50000000  0.24876200  0.48743200  1
  O  O15  1  0.50000000  0.25110100  0.00779200  1
loop_
_geom_bond_atom_site_label_1
_geom_bond_atom_site_label_2
_geom_bond_distance
_geom_bond_site_symmetry_2
Mn0 O0 2.086152 1_455
Mn0 O0 2.086152 1_555
Mn0 O15 2.124491 1_455
Mn0 O15 2.124491 1_555
Mn0 O7 2.175745 1_544
Mn0 O6 2.524439 1_555
Mn1 O13 1.877734 1_455
Mn1 O13 1.877734 1_555
Mn1 O12 1.891062 1_555
Mn1 O7 1.899206 1_555
Mn2 O4 2.089407 1_555
Mn2 O4 2.089407 1_455
Mn2 O15 2.131774 1_556
Mn2 O15 2.131774 1_456
Mn2 O9 2.175032 1_556
Mn2 O11 2.467507 1_555
Mn3 O9 2.092148 1_655
Mn3 O9 2.092148 1_555
Mn3 O2 2.138205 1_654
Mn3 O2 2.138205 1_554
Mn3 O4 2.187807 1_554
Mn3 O5 2.598443 1_555
Mn4 O10 2.089904 1_555
Mn4 O10 2.089904 1_455
Mn4 O14 2.130939 1_455
Mn4 O14 2.130939 1_555
Mn4 O12 2.153090 1_545
Mn4 O6 2.397571 1_555
Mn5 O12 2.100033 1_555
Mn5 O12 2.100033 1_655
Mn5 O3 2.142739 1_555
Mn5 O3 2.142739 1_655
Mn5 O10 2.174783 1_565
Mn5 O13 2.411973 1_555
Mn6 O7 2.089601 1_655
Mn6 O7 2.089601 1_555
Mn6 O2 2.135256 1_555
Mn6 O2 2.135256 1_655
Mn6 O0 2.185307 1_566
Mn6 O13 2.520534 1_555
Mn7 O8 2.093126 1_655
Mn7 O8 2.093126 1_555
Mn7 O3 2.136867 1_555
Mn7 O3 2.136867 1_655
Mn7 O1 2.273501 1_555
Mn7 O5 2.605724 1_555
Mn8 O6 1.879559 1_555
Mn8 O6 1.879559 1_655
Mn8 O10 1.886022 1_555
Mn8 O0 1.892100 1_555
Mn9 O1 2.079468 1_455
Mn9 O1 2.079468 1_555
Mn9 O14 2.125208 1_555
Mn9 O14 2.125208 1_455
Mn9 O8 2.146601 1_555
Mn10 O11 1.865286 1_555
Mn10 O11 1.865286 1_655
Mn10 O4 1.897524 1_555
Mn10 O1 1.909656 1_555
Mn11 O5 1.861412 1_555
Mn11 O5 1.861412 1_455
Mn11 O9 1.900286 1_555
Mn11 O8 1.909646 1_555
