# generated using pymatgen
data_LiFeP2O7
_symmetry_space_group_name_H-M   'P 1'
_cell_length_a   8.22021640
_cell_length_b   8.22021640
_cell_length_c   8.81214565
_cell_angle_alpha   68.55926886
_cell_angle_beta   68.55926886
_cell_angle_gamma   35.37406334
_symmetry_Int_Tables_number   1
_chemical_formula_structural   LiFeP2O7
_chemical_formula_sum   'Li2 Fe2 P4 O14'
_cell_volume   318.33382918
_cell_formula_units_Z   2
loop_
 _symmetry_equiv_pos_site_id
 _symmetry_equiv_pos_as_xyz
  1  'x, y, z'
loop_
 _atom_site_type_symbol
 _atom_site_label
 _atom_site_symmetry_multiplicity
 _atom_site_fract_x
 _atom_site_fract_y
 _atom_site_fract_z
 _atom_site_occupancy
  Li  Li0  1  0.14134100  0.46586000  0.54898300  1
  Li  Li1  1  0.46586000  0.14134100  0.04898300  1
  Fe  Fe0  1  0.51036200  0.50008400  0.50281200  1
  Fe  Fe1  1  0.50008400  0.51036200  0.00281200  1
  P  P0  1  0.76968000  0.03741300  0.31267800  1
  P  P1  1  0.97040100  0.23406300  0.18849400  1
  P  P2  1  0.23406300  0.97040100  0.68849400  1
  P  P3  1  0.03741300  0.76968000  0.81267800  1
  O  O0  1  0.37743300  0.81526800  0.84405500  1
  O  O1  1  0.03642800  0.96848100  0.25202200  1
  O  O2  1  0.25398200  0.56402700  0.93578800  1
  O  O3  1  0.42491700  0.76394900  0.56099700  1
  O  O4  1  0.76394900  0.42491700  0.06099700  1
  O  O5  1  0.96848100  0.03642800  0.75202200  1
  O  O6  1  0.89462600  0.76258800  0.38177200  1
  O  O7  1  0.81526800  0.37743300  0.34405500  1
  O  O8  1  0.76258800  0.89462600  0.88177200  1
  O  O9  1  0.11142600  0.24557400  0.62585800  1
  O  O10  1  0.56402700  0.25398200  0.43578800  1
  O  O11  1  0.61907400  0.18954700  0.15669500  1
  O  O12  1  0.24557400  0.11142600  0.12585800  1
  O  O13  1  0.18954700  0.61907400  0.65669500  1
loop_
_geom_bond_atom_site_label_1
_geom_bond_atom_site_label_2
_geom_bond_distance
_geom_bond_site_symmetry_2
Li0 O9 1.872418 1_555
Li0 O6 1.929704 1_455
Li0 O13 2.146390 1_555
Li0 O10 2.229028 1_555
Li1 O12 1.872418 1_555
Li1 O8 1.929704 1_544
Li1 O11 2.146390 1_555
Li1 O2 2.229028 1_554
Fe0 O3 1.877826 1_555
Fe0 O7 1.898007 1_555
Fe0 O10 1.965631 1_555
Fe0 O13 1.974574 1_555
Fe1 O4 1.877826 1_555
Fe1 O0 1.898007 1_554
Fe1 O2 1.965631 1_554
Fe1 O11 1.974574 1_555
O0 P2 1.531832 1_555
O1 P0 1.659275 1_465
O1 P1 1.664450 1_465
O2 P3 1.538611 1_555
O3 P2 1.538539 1_555
O4 P1 1.538539 1_555
O5 P3 1.659275 1_645
O5 P2 1.664450 1_645
O6 P0 1.482202 1_565
O7 P1 1.531832 1_555
O8 P3 1.482202 1_655
O9 P2 1.487560 1_545
O10 P0 1.538611 1_555
O11 P0 1.564783 1_555
O12 P1 1.487560 1_455
O13 P3 1.564783 1_555
