# generated using pymatgen
data_Fe4Si2Sn7O16
_symmetry_space_group_name_H-M   'P 1'
_cell_length_a   6.94184204
_cell_length_b   11.68912041
_cell_length_c   11.69075805
_cell_angle_alpha   72.87812364
_cell_angle_beta   107.28340688
_cell_angle_gamma   72.72745211
_symmetry_Int_Tables_number   1
_chemical_formula_structural   Fe4Si2Sn7O16
_chemical_formula_sum   'Fe8 Si4 Sn14 O32'
_cell_volume   785.11071346
_cell_formula_units_Z   2
loop_
 _symmetry_equiv_pos_site_id
 _symmetry_equiv_pos_as_xyz
  1  'x, y, z'
loop_
 _atom_site_type_symbol
 _atom_site_label
 _atom_site_symmetry_multiplicity
 _atom_site_fract_x
 _atom_site_fract_y
 _atom_site_fract_z
 _atom_site_occupancy
  Fe  Fe0  1  0.50015700  0.24995900  0.25035600  1
  Fe  Fe1  1  0.49998300  0.00014200  0.50001500  1
  Fe  Fe2  1  0.00001100  0.00011400  0.50009800  1
  Fe  Fe3  1  0.99999700  0.00012400  0.99999400  1
  Fe  Fe4  1  0.00002800  0.49992100  0.49999600  1
  Fe  Fe5  1  0.50021400  0.74998200  0.75018200  1
  Fe  Fe6  1  0.49949800  0.50027000  0.99986800  1
  Fe  Fe7  1  0.99982800  0.50030000  0.99975000  1
  Si  Si0  1  0.66657100  0.45223300  0.78559400  1
  Si  Si1  1  0.66670600  0.95217900  0.28572200  1
  Si  Si2  1  0.33321600  0.54784200  0.21421300  1
  Si  Si3  1  0.33355900  0.04759500  0.71443000  1
  Sn  Sn0  1  0.99981300  0.25007900  0.24982700  1
  Sn  Sn1  1  0.00002800  0.75000300  0.74995100  1
  Sn  Sn2  1  0.83430600  0.58288100  0.25146600  1
  Sn  Sn3  1  0.83438000  0.08296100  0.75150000  1
  Sn  Sn4  1  0.33116100  0.83453900  0.99996600  1
  Sn  Sn5  1  0.33125200  0.33440800  0.49985200  1
  Sn  Sn6  1  0.83426300  0.83452800  0.00009100  1
  Sn  Sn7  1  0.83429100  0.33433200  0.50000000  1
  Sn  Sn8  1  0.16569500  0.16570100  0.99998000  1
  Sn  Sn9  1  0.16578200  0.66550500  0.49999300  1
  Sn  Sn10  1  0.66873800  0.16557600  0.00016200  1
  Sn  Sn11  1  0.66885400  0.66549600  0.50009100  1
  Sn  Sn12  1  0.16568500  0.41707000  0.74853500  1
  Sn  Sn13  1  0.16569300  0.91710200  0.24857900  1
  O  O0  1  0.66658500  0.76750100  0.10074200  1
  O  O1  1  0.66663100  0.26751700  0.60077900  1
  O  O2  1  0.33338900  0.23244900  0.89920000  1
  O  O3  1  0.33342400  0.73248200  0.39926500  1
  O  O4  1  0.33292400  0.45924500  0.12513600  1
  O  O5  1  0.33402500  0.95841800  0.62592500  1
  O  O6  1  0.66639800  0.54114700  0.87434300  1
  O  O7  1  0.66696900  0.04074000  0.37477700  1
  O  O8  1  0.53722800  0.55557800  0.63010100  1
  O  O9  1  0.53704200  0.05630800  0.13047300  1
  O  O10  1  0.92571600  0.36167600  0.82455100  1
  O  O11  1  0.92572000  0.86156300  0.32444500  1
  O  O12  1  0.46304900  0.44332600  0.36935100  1
  O  O13  1  0.46272400  0.94467400  0.87001700  1
  O  O14  1  0.53718300  0.36150800  0.82447100  1
  O  O15  1  0.53713500  0.86147500  0.32435400  1
  O  O16  1  0.46277500  0.63859600  0.17581500  1
  O  O17  1  0.46286700  0.13825600  0.67517500  1
  O  O18  1  0.07445000  0.63853100  0.17578800  1
  O  O19  1  0.07414300  0.13808000  0.67503700  1
  O  O20  1  0.69119300  0.27077500  0.11674600  1
  O  O21  1  0.69140600  0.77077900  0.61662700  1
  O  O22  1  0.84529100  0.46086500  0.15164100  1
  O  O23  1  0.84591500  0.96046400  0.65210800  1
  O  O24  1  0.15435900  0.53943800  0.84810800  1
  O  O25  1  0.15442800  0.03933800  0.34823100  1
  O  O26  1  0.15412800  0.27093100  0.11650600  1
  O  O27  1  0.15417200  0.77080100  0.61653100  1
  O  O28  1  0.30891600  0.72915000  0.88345300  1
  O  O29  1  0.30846300  0.22929700  0.38314900  1
  O  O30  1  0.84576900  0.72912500  0.88355700  1
  O  O31  1  0.84587700  0.22912800  0.38338600  1
loop_
_geom_bond_atom_site_label_1
_geom_bond_atom_site_label_2
_geom_bond_distance
_geom_bond_site_symmetry_2
Fe0 O7 2.158814 1_555
Fe0 O4 2.161127 1_555
Fe0 O29 2.331702 1_555
Fe0 O31 2.334500 1_555
Fe0 O20 2.335889 1_555
Fe0 O26 2.338736 1_555
Fe1 O7 2.153746 1_555
Fe1 O5 2.156484 1_545
Fe1 O25 2.335004 1_555
Fe1 O23 2.336515 1_545
Fe1 O29 2.336723 1_555
Fe1 O21 2.338415 1_545
Fe2 O7 2.154699 1_455
Fe2 O5 2.158180 1_545
Fe2 O31 2.335308 1_455
Fe2 O25 2.335564 1_555
Fe2 O23 2.335856 1_445
Fe2 O27 2.337871 1_545
Fe3 Sn4 2.527787 1_645
Fe3 Sn8 2.528040 1_655
Fe3 Sn10 2.528279 1_556
Fe3 Sn6 2.528324 1_546
Fe3 Sn3 2.529213 1_555
Fe3 Sn13 2.529976 1_646
Fe4 Sn11 2.528165 1_455
Fe4 Sn5 2.528327 1_555
Fe4 Sn7 2.528362 1_455
Fe4 Sn9 2.528391 1_555
Fe4 Sn2 2.529462 1_455
Fe4 Sn12 2.529672 1_555
Fe5 O5 2.151376 1_555
Fe5 O6 2.154786 1_555
Fe5 O28 2.334159 1_555
Fe5 O30 2.334799 1_555
Fe5 O21 2.336217 1_555
Fe5 O27 2.338745 1_555
Fe6 O4 2.152617 1_556
Fe6 O6 2.156454 1_555
Fe6 O24 2.332856 1_555
Fe6 O28 2.333370 1_555
Fe6 O22 2.335370 1_556
Fe6 O20 2.340001 1_556
Fe7 O4 2.153735 1_656
Fe7 O6 2.156397 1_555
Fe7 O30 2.332819 1_555
Fe7 O24 2.333837 1_655
Fe7 O22 2.336688 1_556
Fe7 O26 2.338780 1_656
O0 Sn6 2.041053 1_555
O0 Sn4 2.041238 1_554
O0 Sn2 2.041449 1_555
O1 Sn7 2.040945 1_555
O1 Sn3 2.040961 1_555
O1 Sn5 2.041408 1_555
O2 Sn8 2.040856 1_555
O2 Sn12 2.041192 1_555
O2 Sn10 2.041308 1_556
O3 Sn9 2.041185 1_555
O3 Sn13 2.041279 1_555
O3 Sn11 2.041423 1_555
O4 Si2 1.670925 1_555
O5 Si3 1.671002 1_565
O6 Si0 1.670819 1_555
O7 Si1 1.670380 1_545
O8 Si0 1.631882 1_555
O8 Sn9 2.272584 1_555
O8 Sn11 2.273407 1_555
O9 Si1 1.632104 1_545
O9 Sn10 2.272280 1_555
O9 Sn8 2.272623 1_554
O10 Si0 1.631753 1_555
O10 Sn12 2.272743 1_655
O10 Sn8 2.272975 1_655
O11 Si1 1.631823 1_555
O11 Sn13 2.272507 1_655
O11 Sn9 2.274119 1_655
O12 Si2 1.632318 1_555
O12 Sn5 2.272231 1_555
O12 Sn7 2.272245 1_555
O13 Si3 1.631462 1_565
O13 Sn6 2.273096 1_556
O13 Sn4 2.273866 1_555
O14 Si0 1.631679 1_555
O14 Sn12 2.272900 1_555
O14 Sn10 2.274128 1_556
O15 Si1 1.631833 1_555
O15 Sn13 2.272470 1_555
O15 Sn11 2.274543 1_555
O16 Si2 1.631513 1_555
O16 Sn2 2.272923 1_555
O16 Sn4 2.275041 1_554
O17 Si3 1.631788 1_555
O17 Sn3 2.273385 1_555
O17 Sn5 2.273569 1_555
O18 Si2 1.631449 1_555
O18 Sn2 2.272970 1_455
O18 Sn6 2.274566 1_455
O19 Si3 1.631895 1_555
O19 Sn7 2.272759 1_455
O19 Sn3 2.272916 1_455
O20 Sn10 2.090096 1_555
O20 Sn0 2.135178 1_555
O21 Sn11 2.090472 1_555
O21 Sn1 2.135945 1_655
O22 Sn2 2.090539 1_555
O22 Sn0 2.138374 1_555
O23 Sn3 2.091347 1_565
O23 Sn1 2.134969 1_655
O24 Sn12 2.091712 1_555
O24 Sn1 2.136174 1_555
O25 Sn13 2.091132 1_545
O25 Sn0 2.138054 1_455
O26 Sn8 2.090037 1_554
O26 Sn0 2.135348 1_455
O27 Sn9 2.090765 1_555
O27 Sn1 2.135404 1_555
O28 Sn4 2.091132 1_555
O28 Sn1 2.137804 1_555
O29 Sn5 2.090518 1_555
O29 Sn0 2.136054 1_455
O30 Sn6 2.091646 1_556
O30 Sn1 2.137888 1_655
O31 Sn7 2.090671 1_555
O31 Sn0 2.135778 1_555
