# generated using pymatgen
data_Ca11YAl15Cr4SiO48
_symmetry_space_group_name_H-M   'P 1'
_cell_length_a   10.53558286
_cell_length_b   10.53558286
_cell_length_c   12.17602369
_cell_angle_alpha   54.82475532
_cell_angle_beta   54.82475532
_cell_angle_gamma   70.53660435
_symmetry_Int_Tables_number   1
_chemical_formula_structural   Ca11YAl15Cr4SiO48
_chemical_formula_sum   'Ca11 Y1 Al15 Cr4 Si1 O48'
_cell_volume   902.99325917
_cell_formula_units_Z   1
loop_
 _symmetry_equiv_pos_site_id
 _symmetry_equiv_pos_as_xyz
  1  'x, y, z'
loop_
 _atom_site_type_symbol
 _atom_site_label
 _atom_site_symmetry_multiplicity
 _atom_site_fract_x
 _atom_site_fract_y
 _atom_site_fract_z
 _atom_site_occupancy
  Ca  Ca0  1  0.74790000  0.74877900  0.37839500  1
  Ca  Ca1  1  0.87310800  0.37245600  0.12641800  1
  Ca  Ca2  1  0.62754400  0.12689200  0.87358200  1
  Ca  Ca3  1  0.74967800  0.74789000  0.87785100  1
  Ca  Ca4  1  0.37720500  0.62279500  0.50000000  1
  Ca  Ca5  1  0.62475800  0.37524200  0.00000000  1
  Ca  Ca6  1  0.37272500  0.87308100  0.62798100  1
  Ca  Ca7  1  0.25122100  0.25210000  0.62160500  1
  Ca  Ca8  1  0.12691900  0.62727500  0.37201900  1
  Ca  Ca9  1  0.25211000  0.25032200  0.12214900  1
  Ca  Ca10  1  0.12259000  0.87741000  0.00000000  1
  Y  Y0  1  0.87749900  0.12250100  0.50000000  1
  Al  Al0  1  0.00127200  0.00203100  0.24943200  1
  Al  Al1  1  0.87245400  0.37211800  0.62682200  1
  Al  Al2  1  0.75055300  0.75124600  0.12126900  1
  Al  Al3  1  0.62239600  0.37760400  0.50000000  1
  Al  Al4  1  0.75201200  0.75112200  0.62057400  1
  Al  Al5  1  0.62788200  0.12754600  0.37317800  1
  Al  Al6  1  0.49987700  0.49987200  0.25012400  1
  Al  Al7  1  0.37174500  0.87364700  0.12731100  1
  Al  Al8  1  0.37794000  0.62206000  0.00000000  1
  Al  Al9  1  0.24875400  0.24944700  0.87873100  1
  Al  Al10  1  0.24887800  0.24798800  0.37942600  1
  Al  Al11  1  0.50012800  0.50012300  0.74987600  1
  Al  Al12  1  0.12310300  0.87689700  0.50000000  1
  Al  Al13  1  0.12635300  0.62825500  0.87268900  1
  Al  Al14  1  0.99796900  0.99872800  0.75056800  1
  Cr  Cr0  1  0.49789700  0.99696300  0.25456900  1
  Cr  Cr1  1  0.00303700  0.50210300  0.74543100  1
  Cr  Cr2  1  0.49811200  0.99875200  0.75178700  1
  Cr  Cr3  1  0.00124800  0.50188800  0.24821300  1
  Si  Si0  1  0.87616500  0.12383500  0.00000000  1
  O  O0  1  0.90185900  0.80543200  0.42771000  1
  O  O1  1  0.98292400  0.92066600  0.64866300  1
  O  O2  1  0.88626800  0.18172400  0.66171400  1
  O  O3  1  0.92420500  0.51117600  0.42713800  1
  O  O4  1  0.91152900  0.99715700  0.14341500  1
  O  O5  1  0.89803400  0.69101200  0.17409500  1
  O  O6  1  0.82210500  0.38080700  0.35478900  1
  O  O7  1  0.58435400  0.51602300  0.55284700  1
  O  O8  1  0.61919300  0.17789500  0.64521100  1
  O  O9  1  0.69690800  0.90120900  0.66948900  1
  O  O10  1  0.69151400  0.11387000  0.05386100  1
  O  O11  1  0.98794800  0.57355000  0.86427900  1
  O  O12  1  0.81827600  0.11373200  0.33828600  1
  O  O13  1  0.80291500  0.90197000  0.93018700  1
  O  O14  1  0.60125900  0.81030500  0.26189900  1
  O  O15  1  0.68149200  0.38772100  0.76452300  1
  O  O16  1  0.69605600  0.59678600  0.13858200  1
  O  O17  1  0.88613000  0.30848600  0.94613900  1
  O  O18  1  0.48397700  0.41564600  0.44715300  1
  O  O19  1  0.59723300  0.69659600  0.63824000  1
  O  O20  1  0.48882400  0.07579500  0.57286200  1
  O  O21  1  0.61227900  0.31850800  0.23547700  1
  O  O22  1  0.42645000  0.01205200  0.13572100  1
  O  O23  1  0.81130100  0.59940000  0.76138100  1
  O  O24  1  0.18969500  0.39874100  0.73810100  1
  O  O25  1  0.57681100  0.98792000  0.36402300  1
  O  O26  1  0.38777600  0.68213100  0.26444400  1
  O  O27  1  0.51073800  0.92432200  0.92722900  1
  O  O28  1  0.40321400  0.30394400  0.86141800  1
  O  O29  1  0.51602700  0.58393100  0.05323900  1
  O  O30  1  0.11484100  0.67830800  0.55824400  1
  O  O31  1  0.30340400  0.40276700  0.36176000  1
  O  O32  1  0.31786900  0.61222400  0.73555600  1
  O  O33  1  0.40060000  0.18869900  0.23861900  1
  O  O34  1  0.19456800  0.09814100  0.57229000  1
  O  O35  1  0.18036100  0.88924200  0.16492600  1
  O  O36  1  0.01208000  0.42318900  0.63597700  1
  O  O37  1  0.32169200  0.88515900  0.44175600  1
  O  O38  1  0.30898800  0.10196600  0.82590500  1
  O  O39  1  0.38673000  0.82096200  0.85161300  1
  O  O40  1  0.41606900  0.48397300  0.94676100  1
  O  O41  1  0.17903800  0.61327000  0.14838700  1
  O  O42  1  0.09879100  0.30309200  0.33051100  1
  O  O43  1  0.07933400  0.01707600  0.35133700  1
  O  O44  1  0.07567800  0.48926200  0.07277100  1
  O  O45  1  0.11075800  0.81963900  0.83507400  1
  O  O46  1  0.00284300  0.08847100  0.85658500  1
  O  O47  1  0.09803000  0.19708500  0.06981300  1
loop_
_geom_bond_atom_site_label_1
_geom_bond_atom_site_label_2
_geom_bond_distance
_geom_bond_site_symmetry_2
Ca0 O0 2.351200 1_555
Ca0 O14 2.370066 1_555
Ca0 O19 2.371325 1_555
Ca0 O5 2.372696 1_555
Ca0 O7 2.468140 1_555
Ca0 O25 2.540970 1_555
Ca0 O3 2.555117 1_555
Ca0 O4 2.588983 1_555
Ca1 O21 2.367440 1_555
Ca1 O11 2.368075 1_554
Ca1 O12 2.376818 1_555
Ca1 O44 2.390350 1_655
Ca1 O47 2.484328 1_655
Ca1 O16 2.496872 1_555
Ca1 O6 2.560731 1_555
Ca1 O17 2.566581 1_554
Ca2 O15 2.367440 1_555
Ca2 O22 2.368075 1_556
Ca2 O2 2.376818 1_555
Ca2 O27 2.390350 1_545
Ca2 O13 2.484328 1_545
Ca2 O28 2.496872 1_555
Ca2 O8 2.560731 1_555
Ca2 O10 2.566581 1_556
Ca3 O13 2.359293 1_555
Ca3 O16 2.375292 1_556
Ca3 O9 2.379033 1_555
Ca3 O23 2.387167 1_555
Ca3 O29 2.476054 1_556
Ca3 O1 2.523284 1_555
Ca3 O11 2.549852 1_555
Ca3 O27 2.565013 1_555
Ca4 O7 2.364414 1_555
Ca4 O18 2.364414 1_555
Ca4 O37 2.372244 1_555
Ca4 O30 2.372244 1_555
Ca4 O26 2.498393 1_555
Ca4 O32 2.498393 1_555
Ca4 O14 2.550274 1_555
Ca4 O24 2.550274 1_555
Ca5 O10 2.380696 1_555
Ca5 O17 2.380696 1_554
Ca5 O40 2.382158 1_554
Ca5 O29 2.382158 1_555
Ca5 O15 2.497749 1_554
Ca5 O21 2.497749 1_555
Ca5 O33 2.547522 1_555
Ca5 O23 2.547522 1_554
Ca6 O32 2.375182 1_555
Ca6 O20 2.377279 1_565
Ca6 O45 2.382056 1_555
Ca6 O25 2.389135 1_555
Ca6 O19 2.491899 1_555
Ca6 O34 2.500641 1_565
Ca6 O39 2.534554 1_555
Ca6 O37 2.544278 1_555
Ca7 O34 2.351200 1_555
Ca7 O24 2.370066 1_555
Ca7 O31 2.371325 1_555
Ca7 O38 2.372696 1_555
Ca7 O18 2.468140 1_555
Ca7 O36 2.540970 1_555
Ca7 O20 2.555117 1_555
Ca7 O46 2.588983 1_555
Ca8 O26 2.375182 1_555
Ca8 O3 2.377279 1_455
Ca8 O35 2.382056 1_555
Ca8 O36 2.389135 1_555
Ca8 O31 2.491899 1_555
Ca8 O0 2.500641 1_455
Ca8 O41 2.534554 1_555
Ca8 O30 2.544278 1_555
Ca9 O47 2.359293 1_555
Ca9 O28 2.375292 1_554
Ca9 O42 2.379033 1_555
Ca9 O33 2.387167 1_555
Ca9 O40 2.476054 1_554
Ca9 O43 2.523284 1_555
Ca9 O22 2.549852 1_555
Ca9 O44 2.565013 1_555
Ca10 O41 2.388407 1_555
Ca10 O39 2.388407 1_554
Ca10 O4 2.404263 1_455
Ca10 O46 2.404263 1_564
Ca10 O35 2.483113 1_555
Ca10 O45 2.483113 1_554
Ca10 O38 2.543413 1_564
Ca10 O5 2.543413 1_455
Al0 O47 1.922104 1_555
Al0 O35 1.925769 1_545
Al0 O43 1.931401 1_555
Al0 O0 1.935237 1_445
Al0 O12 1.955551 1_455
Al0 O4 2.019375 1_445
Al1 O15 1.759701 1_555
Al1 O2 1.766401 1_555
Al1 O36 1.803166 1_655
Al1 O3 1.804455 1_555
Al2 O13 1.757086 1_554
Al2 O16 1.763589 1_555
Al2 O5 1.804112 1_555
Al2 O14 1.807050 1_555
Al3 O7 1.759521 1_555
Al3 O18 1.759521 1_555
Al3 O8 1.801855 1_555
Al3 O6 1.801855 1_555
Al4 O19 1.764422 1_555
Al4 O0 1.765437 1_555
Al4 O9 1.807502 1_555
Al4 O23 1.815398 1_555
Al5 O21 1.759701 1_555
Al5 O12 1.766401 1_555
Al5 O25 1.803166 1_545
Al5 O20 1.804455 1_555
Al6 O21 1.930441 1_555
Al6 O16 1.932206 1_555
Al6 O29 1.935085 1_555
Al6 O31 1.935528 1_555
Al6 O26 1.936397 1_555
Al6 O18 1.937556 1_555
Al7 O26 1.761786 1_555
Al7 O35 1.761908 1_555
Al7 O22 1.808050 1_565
Al7 O27 1.810141 1_554
Al8 O29 1.759315 1_555
Al8 O40 1.759315 1_554
Al8 O39 1.799607 1_554
Al8 O41 1.799607 1_555
Al9 O47 1.757086 1_556
Al9 O28 1.763589 1_555
Al9 O38 1.804112 1_555
Al9 O24 1.807050 1_555
Al10 O31 1.764422 1_555
Al10 O34 1.765437 1_555
Al10 O42 1.807502 1_555
Al10 O33 1.815398 1_555
Al11 O15 1.930441 1_555
Al11 O28 1.932206 1_555
Al11 O40 1.935085 1_555
Al11 O19 1.935528 1_555
Al11 O32 1.936397 1_555
Al11 O7 1.937556 1_555
Al12 O43 1.760147 1_565
Al12 O1 1.760147 1_455
Al12 O30 1.796863 1_555
Al12 O37 1.796863 1_555
Al13 O32 1.761786 1_555
Al13 O45 1.761908 1_555
Al13 O11 1.808050 1_455
Al13 O44 1.810141 1_556
Al14 O13 1.922104 1_555
Al14 O45 1.925769 1_655
Al14 O1 1.931401 1_555
Al14 O34 1.935237 1_665
Al14 O2 1.955551 1_565
Al14 O46 2.019375 1_665
Cr0 O37 1.875530 1_555
Cr0 O14 1.882494 1_555
Cr0 O25 1.885201 1_555
Cr0 O33 1.888527 1_565
Cr0 O22 1.896365 1_565
Cr0 O10 2.028078 1_565
Cr1 O30 1.875530 1_555
Cr1 O24 1.882494 1_555
Cr1 O36 1.885201 1_555
Cr1 O23 1.888527 1_455
Cr1 O11 1.896365 1_455
Cr1 O17 2.028078 1_455
Cr2 O27 1.877173 1_555
Cr2 O39 1.887138 1_555
Cr2 O20 1.889436 1_565
Cr2 O38 1.892634 1_565
Cr2 O8 1.936181 1_565
Cr2 O9 1.944454 1_555
Cr3 O44 1.877173 1_555
Cr3 O41 1.887138 1_555
Cr3 O3 1.889436 1_455
Cr3 O5 1.892634 1_455
Cr3 O6 1.936181 1_455
Cr3 O42 1.944454 1_555
O1 Y0 2.310774 1_565
O2 Y0 2.436896 1_555
O4 Si0 1.643898 1_565
O6 Y0 2.336541 1_555
O8 Y0 2.336541 1_555
O9 Y0 2.490620 1_565
O10 Si0 1.677065 1_555
O12 Y0 2.436896 1_555
O17 Si0 1.677065 1_556
O42 Y0 2.490620 1_455
O43 Y0 2.310774 1_455
O46 Si0 1.643898 1_456
