# generated using pymatgen
data_SrAl2(SiO4)2
_symmetry_space_group_name_H-M   'P 1'
_cell_length_a   9.38512716
_cell_length_b   9.38512716
_cell_length_c   9.64965912
_cell_angle_alpha   81.05555954
_cell_angle_beta   81.05555954
_cell_angle_gamma   74.48105678
_symmetry_Int_Tables_number   1
_chemical_formula_structural   SrAl2(SiO4)2
_chemical_formula_sum   'Sr4 Al8 Si8 O32'
_cell_volume   803.19067467
_cell_formula_units_Z   4
loop_
 _symmetry_equiv_pos_site_id
 _symmetry_equiv_pos_as_xyz
  1  'x, y, z'
loop_
 _atom_site_type_symbol
 _atom_site_label
 _atom_site_symmetry_multiplicity
 _atom_site_fract_x
 _atom_site_fract_y
 _atom_site_fract_z
 _atom_site_occupancy
  Sr  Sr0  1  0.94883900  0.63401200  0.77779300  1
  Sr  Sr1  1  0.05116100  0.36598800  0.22220700  1
  Sr  Sr2  1  0.36598800  0.05116100  0.72220700  1
  Sr  Sr3  1  0.63401200  0.94883900  0.27779300  1
  Al  Al0  1  0.85861900  0.96981200  0.88613600  1
  Al  Al1  1  0.26583000  0.53099500  0.96431600  1
  Al  Al2  1  0.03018800  0.14138100  0.61386400  1
  Al  Al3  1  0.53099500  0.26583000  0.46431600  1
  Al  Al4  1  0.96981200  0.85861900  0.38613600  1
  Al  Al5  1  0.73417000  0.46900500  0.03568400  1
  Al  Al6  1  0.14138100  0.03018800  0.11386400  1
  Al  Al7  1  0.46900500  0.73417000  0.53568400  1
  Si  Si0  1  0.75946900  0.00330200  0.61320300  1
  Si  Si1  1  0.24053100  0.99669800  0.38679700  1
  Si  Si2  1  0.51968700  0.72030000  0.86739700  1
  Si  Si3  1  0.48031300  0.27970000  0.13260300  1
  Si  Si4  1  0.99669800  0.24053100  0.88679700  1
  Si  Si5  1  0.00330200  0.75946900  0.11320300  1
  Si  Si6  1  0.27970000  0.48031300  0.63260300  1
  Si  Si7  1  0.72030000  0.51968700  0.36739700  1
  O  O0  1  0.31298200  0.37467700  0.09558400  1
  O  O1  1  0.87674600  0.13999500  0.91297900  1
  O  O2  1  0.63697400  0.39344700  0.44168800  1
  O  O3  1  0.62532300  0.68701800  0.40441600  1
  O  O4  1  0.23247000  0.48540500  0.80299200  1
  O  O5  1  0.60415600  0.07941700  0.54163900  1
  O  O6  1  0.60655300  0.36302600  0.05831200  1
  O  O7  1  0.12749400  0.97003400  0.71511400  1
  O  O8  1  0.13999500  0.87674600  0.41297900  1
  O  O9  1  0.84342800  0.84796500  0.54174100  1
  O  O10  1  0.36302600  0.60655300  0.55831200  1
  O  O11  1  0.95966700  0.71986400  0.28429900  1
  O  O12  1  0.37467700  0.31298200  0.59558400  1
  O  O13  1  0.15203500  0.15657200  0.95825900  1
  O  O14  1  0.92058300  0.39584400  0.95836100  1
  O  O15  1  0.71986400  0.95966700  0.78429900  1
  O  O16  1  0.76753000  0.51459500  0.19700800  1
  O  O17  1  0.39344700  0.63697400  0.94168800  1
  O  O18  1  0.07941700  0.60415600  0.04163900  1
  O  O19  1  0.68701800  0.62532300  0.90441600  1
  O  O20  1  0.15657200  0.15203500  0.45825900  1
  O  O21  1  0.86000500  0.12325400  0.58702100  1
  O  O22  1  0.28013600  0.04033300  0.21570100  1
  O  O23  1  0.04033300  0.28013600  0.71570100  1
  O  O24  1  0.51459500  0.76753000  0.69700800  1
  O  O25  1  0.12325400  0.86000500  0.08702100  1
  O  O26  1  0.39584400  0.92058300  0.45836100  1
  O  O27  1  0.97003400  0.12749400  0.21511400  1
  O  O28  1  0.87250600  0.02996600  0.28488600  1
  O  O29  1  0.48540500  0.23247000  0.30299200  1
  O  O30  1  0.84796500  0.84342800  0.04174100  1
  O  O31  1  0.02996600  0.87250600  0.78488600  1
loop_
_geom_bond_atom_site_label_1
_geom_bond_atom_site_label_2
_geom_bond_distance
_geom_bond_site_symmetry_2
Al0 O1 1.713126 1_565
Al0 O30 1.770445 1_556
Al0 O15 1.778744 1_555
Al0 O31 1.837833 1_655
Al1 O17 1.720482 1_555
Al1 O4 1.770546 1_555
Al1 O18 1.788729 1_556
Al1 O0 1.789320 1_556
Al2 O21 1.713126 1_455
Al2 O20 1.770445 1_555
Al2 O23 1.778744 1_555
Al2 O7 1.837833 1_545
Al3 O2 1.720482 1_555
Al3 O29 1.770546 1_555
Al3 O5 1.788729 1_555
Al3 O12 1.789320 1_555
Al4 O8 1.713126 1_655
Al4 O9 1.770445 1_555
Al4 O11 1.778744 1_555
Al4 O28 1.837833 1_565
Al5 O6 1.720482 1_555
Al5 O16 1.770546 1_555
Al5 O14 1.788729 1_554
Al5 O19 1.789320 1_554
Al6 O25 1.713126 1_545
Al6 O13 1.770445 1_554
Al6 O22 1.778744 1_555
Al6 O27 1.837833 1_455
Al7 O10 1.720482 1_555
Al7 O24 1.770546 1_555
Al7 O26 1.788729 1_555
Al7 O3 1.789320 1_555
O0 Si3 1.647646 1_555
O0 Sr1 2.584607 1_555
O1 Si4 1.620890 1_555
O2 Si7 1.608275 1_555
O3 Si7 1.647646 1_555
O3 Sr3 2.584607 1_555
O4 Si6 1.639700 1_555
O4 Sr0 2.683144 1_455
O5 Si0 1.647509 1_555
O5 Sr2 2.658020 1_555
O5 Sr3 2.937211 1_545
O6 Si3 1.608275 1_555
O7 Sr2 2.563232 1_565
O8 Si1 1.620890 1_555
O9 Si0 1.658524 1_565
O9 Sr0 2.900797 1_555
O10 Si6 1.608275 1_555
O11 Si5 1.646849 1_655
O12 Si6 1.647646 1_555
O12 Sr2 2.584607 1_555
O13 Si4 1.658524 1_455
O13 Sr2 2.900797 1_555
O14 Si4 1.647509 1_555
O14 Sr0 2.658020 1_555
O14 Sr1 2.937211 1_656
O15 Si0 1.646849 1_565
O16 Si7 1.639700 1_555
O16 Sr1 2.683144 1_655
O17 Si2 1.608275 1_555
O18 Si5 1.647509 1_555
O18 Sr1 2.658020 1_555
O18 Sr0 2.937211 1_454
O19 Si2 1.647646 1_555
O19 Sr0 2.584607 1_555
O20 Si1 1.658524 1_545
O20 Sr1 2.900797 1_555
O21 Si0 1.620890 1_555
O22 Si1 1.646849 1_545
O23 Si4 1.646849 1_455
O24 Si2 1.639700 1_555
O24 Sr2 2.683144 1_565
O25 Si5 1.620890 1_555
O26 Si1 1.647509 1_555
O26 Sr3 2.658020 1_555
O26 Sr2 2.937211 1_565
O27 O28 1.481201 1_555
O27 Sr1 2.563232 1_655
O28 Sr3 2.563232 1_545
O29 Si3 1.639700 1_555
O29 Sr3 2.683144 1_545
O30 Si5 1.658524 1_655
O30 Sr3 2.900797 1_555
O31 O7 1.481201 1_555
O31 Sr0 2.563232 1_455
