# generated using pymatgen
data_K6Na3GaSb4
_symmetry_space_group_name_H-M   'P 1'
_cell_length_a   10.29223614
_cell_length_b   10.29223614
_cell_length_c   10.60133500
_cell_angle_alpha   90.00000000
_cell_angle_beta   90.00000000
_cell_angle_gamma   120.00000090
_symmetry_Int_Tables_number   1
_chemical_formula_structural   K6Na3GaSb4
_chemical_formula_sum   'K12 Na6 Ga2 Sb8'
_cell_volume   972.54715985
_cell_formula_units_Z   2
loop_
 _symmetry_equiv_pos_site_id
 _symmetry_equiv_pos_as_xyz
  1  'x, y, z'
loop_
 _atom_site_type_symbol
 _atom_site_label
 _atom_site_symmetry_multiplicity
 _atom_site_fract_x
 _atom_site_fract_y
 _atom_site_fract_z
 _atom_site_occupancy
  K  K0  1  0.41405200  0.20702600  0.45946500  1
  K  K1  1  0.79297400  0.58594800  0.04053500  1
  K  K2  1  0.20702600  0.41405200  0.54053500  1
  K  K3  1  0.58594800  0.79297400  0.95946500  1
  K  K4  1  0.20702600  0.41405200  0.95946500  1
  K  K5  1  0.20702600  0.79297400  0.95946500  1
  K  K6  1  0.79297400  0.58594800  0.45946500  1
  K  K7  1  0.20702600  0.79297400  0.54053500  1
  K  K8  1  0.79297400  0.20702600  0.04053500  1
  K  K9  1  0.58594800  0.79297400  0.54053500  1
  K  K10  1  0.41405200  0.20702600  0.04053500  1
  K  K11  1  0.79297400  0.20702600  0.45946500  1
  Na  Na0  1  0.23044300  0.11522200  0.75000000  1
  Na  Na1  1  0.88477800  0.76955700  0.75000000  1
  Na  Na2  1  0.11522200  0.88477800  0.25000000  1
  Na  Na3  1  0.76955700  0.88477800  0.25000000  1
  Na  Na4  1  0.88477800  0.11522200  0.75000000  1
  Na  Na5  1  0.11522200  0.23044300  0.25000000  1
  Ga  Ga0  1  0.33333300  0.66666700  0.25000000  1
  Ga  Ga1  1  0.66666700  0.33333300  0.75000000  1
  Sb  Sb0  1  0.48154800  0.96309700  0.25000000  1
  Sb  Sb1  1  0.51845200  0.48154800  0.75000000  1
  Sb  Sb2  1  0.96309700  0.48154800  0.75000000  1
  Sb  Sb3  1  0.03690300  0.51845200  0.25000000  1
  Sb  Sb4  1  0.48154800  0.51845200  0.25000000  1
  Sb  Sb5  1  0.51845200  0.03690300  0.75000000  1
  Sb  Sb6  1  0.00000000  0.00000000  0.00000000  1
  Sb  Sb7  1  0.00000000  0.00000000  0.50000000  1
loop_
_geom_bond_atom_site_label_1
_geom_bond_atom_site_label_2
_geom_bond_distance
_geom_bond_site_symmetry_2
K0 Na0 3.487853 1_555
K0 Sb0 3.668887 1_545
K0 Sb4 3.668895 1_555
K0 Sb7 3.715519 1_555
K0 Sb1 3.948228 1_555
K0 Sb5 3.948234 1_555
K1 Na1 3.487853 1_554
K1 Sb3 3.668887 1_655
K1 Sb4 3.668895 1_555
K1 Sb6 3.715519 1_665
K1 Sb1 3.948228 1_554
K1 Sb2 3.948234 1_554
K2 Na5 3.487853 1_555
K2 Sb2 3.668887 1_455
K2 Sb1 3.668895 1_555
K2 Sb7 3.715519 1_555
K2 Sb4 3.948228 1_555
K2 Sb3 3.948234 1_555
K3 Na3 3.487853 1_556
K3 Sb5 3.668887 1_565
K3 Sb1 3.668895 1_555
K3 Sb6 3.715519 1_666
K3 Sb4 3.948228 1_556
K3 Sb0 3.948234 1_556
K4 Na5 3.487853 1_556
K4 Sb2 3.668887 1_455
K4 Sb1 3.668895 1_555
K4 Sb6 3.715519 1_556
K4 Sb4 3.948228 1_556
K4 Sb3 3.948234 1_556
K5 Na2 3.487849 1_556
K5 Sb2 3.668893 1_455
K5 Sb5 3.668893 1_565
K5 Sb6 3.715519 1_566
K5 Sb3 3.948229 1_556
K5 Sb0 3.948229 1_556
K6 Na1 3.487853 1_555
K6 Sb3 3.668887 1_655
K6 Sb4 3.668895 1_555
K6 Sb7 3.715519 1_665
K6 Sb1 3.948228 1_555
K6 Sb2 3.948234 1_555
K7 Na2 3.487849 1_555
K7 Sb2 3.668893 1_455
K7 Sb5 3.668893 1_565
K7 Sb7 3.715519 1_565
K7 Sb3 3.948229 1_555
K7 Sb0 3.948229 1_555
K8 Na4 3.487849 1_554
K8 Sb3 3.668893 1_655
K8 Sb0 3.668893 1_545
K8 Sb6 3.715519 1_655
K8 Sb5 3.948229 1_554
K8 Sb2 3.948229 1_554
K9 Na3 3.487853 1_555
K9 Sb5 3.668887 1_565
K9 Sb1 3.668895 1_555
K9 Sb7 3.715519 1_665
K9 Sb4 3.948228 1_555
K9 Sb0 3.948234 1_555
K10 Na0 3.487853 1_554
K10 Sb0 3.668887 1_545
K10 Sb4 3.668895 1_555
K10 Sb6 3.715519 1_555
K10 Sb1 3.948228 1_554
K10 Sb5 3.948234 1_554
K11 Na4 3.487849 1_555
K11 Sb3 3.668893 1_655
K11 Sb0 3.668893 1_545
K11 Sb7 3.715519 1_655
K11 Sb5 3.948229 1_555
K11 Sb2 3.948229 1_555
Na0 Sb6 3.353096 1_556
Na0 Sb7 3.353096 1_555
Na0 Sb1 3.438881 1_555
Na0 Sb5 3.438895 1_555
Na1 Sb6 3.353096 1_666
Na1 Sb7 3.353096 1_665
Na1 Sb1 3.438881 1_555
Na1 Sb2 3.438895 1_555
Na2 Sb6 3.353101 1_565
Na2 Sb7 3.353101 1_565
Na2 Sb3 3.438875 1_555
Na2 Sb0 3.438875 1_555
Na3 Sb6 3.353096 1_665
Na3 Sb7 3.353096 1_665
Na3 Sb4 3.438881 1_555
Na3 Sb0 3.438895 1_555
Na4 Sb6 3.353101 1_656
Na4 Sb7 3.353101 1_655
Na4 Sb5 3.438875 1_555
Na4 Sb2 3.438875 1_555
Na5 Sb7 3.353096 1_555
Na5 Sb6 3.353096 1_555
Na5 Sb4 3.438881 1_555
Na5 Sb3 3.438895 1_555
Ga0 Sb0 2.642181 1_555
Ga0 Sb3 2.642181 1_555
Ga0 Sb4 2.642181 1_555
Ga0 K7 3.815314 1_555
Ga0 K5 3.815314 1_554
Ga0 K9 3.815319 1_555
Ga0 K3 3.815319 1_554
Ga0 K4 3.815319 1_554
Ga0 K2 3.815319 1_555
Ga1 Sb5 2.642181 1_555
Ga1 Sb2 2.642181 1_555
Ga1 Sb1 2.642181 1_555
Ga1 K11 3.815314 1_555
Ga1 K8 3.815314 1_556
Ga1 K1 3.815319 1_556
Ga1 K6 3.815319 1_555
Ga1 K10 3.815319 1_556
Ga1 K0 3.815319 1_555
