# generated using pymatgen
data_KNaO
_symmetry_space_group_name_H-M   'P 1'
_cell_length_a   3.96242381
_cell_length_b   3.96242381
_cell_length_c   6.17166478
_cell_angle_alpha   90.00000000
_cell_angle_beta   90.00000000
_cell_angle_gamma   90.00000000
_symmetry_Int_Tables_number   1
_chemical_formula_structural   KNaO
_chemical_formula_sum   'K2 Na2 O2'
_cell_volume   96.90008950
_cell_formula_units_Z   2
loop_
 _symmetry_equiv_pos_site_id
 _symmetry_equiv_pos_as_xyz
  1  'x, y, z'
loop_
 _atom_site_type_symbol
 _atom_site_label
 _atom_site_symmetry_multiplicity
 _atom_site_fract_x
 _atom_site_fract_y
 _atom_site_fract_z
 _atom_site_occupancy
  K  K0  1  0.25000000  0.25000000  0.36490412  1
  K  K1  1  0.75000000  0.75000000  0.63509588  1
  Na  Na0  1  0.25000000  0.75000000  -0.00000000  1
  Na  Na1  1  0.75000000  0.25000000  -0.00000000  1
  O  O0  1  0.75000000  0.75000000  0.20545507  1
  O  O1  1  0.25000000  0.25000000  0.79454493  1
loop_
_geom_bond_atom_site_label_1
_geom_bond_atom_site_label_2
_geom_bond_distance
_geom_bond_site_symmetry_2
K0 O1 2.651599 1_555
K0 O0 2.969644 1_545
K0 O0 2.969644 1_455
K0 O0 2.969644 1_555
K0 O0 2.969644 1_445
K1 O0 2.651599 1_555
K1 O1 2.969644 1_665
K1 O1 2.969644 1_555
K1 O1 2.969644 1_655
K1 O1 2.969644 1_565
Na0 O1 2.352238 1_554
Na0 O1 2.352238 1_564
Na0 O0 2.352238 1_455
Na0 O0 2.352238 1_555
Na1 O1 2.352238 1_554
Na1 O1 2.352238 1_654
Na1 O0 2.352238 1_555
Na1 O0 2.352238 1_545
