# generated using pymatgen
data_Ag8GeTe6
_symmetry_space_group_name_H-M   'P 1'
_cell_length_a   8.36228300
_cell_length_b   8.38436646
_cell_length_c   14.57767653
_cell_angle_alpha   73.29452892
_cell_angle_beta   73.71172149
_cell_angle_gamma   60.39533630
_symmetry_Int_Tables_number   1
_chemical_formula_structural   Ag8GeTe6
_chemical_formula_sum   'Ag16 Ge2 Te12'
_cell_volume   839.29574650
_cell_formula_units_Z   2
loop_
 _symmetry_equiv_pos_site_id
 _symmetry_equiv_pos_as_xyz
  1  'x, y, z'
loop_
 _atom_site_type_symbol
 _atom_site_label
 _atom_site_symmetry_multiplicity
 _atom_site_fract_x
 _atom_site_fract_y
 _atom_site_fract_z
 _atom_site_occupancy
  Ag  Ag0  1  0.47956800  0.56417400  0.90791700  1
  Ag  Ag1  1  0.52890600  0.82705600  0.49734800  1
  Ag  Ag2  1  0.19063800  0.56748800  0.66317200  1
  Ag  Ag3  1  0.33592600  0.96858800  0.89806000  1
  Ag  Ag4  1  0.70685800  0.06552800  0.54017800  1
  Ag  Ag5  1  0.09977900  0.73657000  0.85246600  1
  Ag  Ag6  1  0.09872700  0.04848600  0.31501500  1
  Ag  Ag7  1  0.53473800  0.23854700  0.70102700  1
  Ag  Ag8  1  0.74957600  0.07117500  0.86387600  1
  Ag  Ag9  1  0.54158000  0.20885900  0.03848900  1
  Ag  Ag10  1  0.71916200  0.03995300  0.20790300  1
  Ag  Ag11  1  0.83102800  0.52965200  0.39503500  1
  Ag  Ag12  1  0.14557300  0.55251900  0.04550800  1
  Ag  Ag13  1  0.54069100  0.24842600  0.36927200  1
  Ag  Ag14  1  0.06407200  0.71639000  0.20633000  1
  Ag  Ag15  1  0.20145400  0.55199200  0.41872600  1
  Ge  Ge0  1  0.12090300  0.16322000  0.63223500  1
  Ge  Ge1  1  0.63014900  0.64192000  0.12707900  1
  Te  Te0  1  0.99567300  0.96392100  0.00368600  1
  Te  Te1  1  0.34038400  0.33926100  0.88059100  1
  Te  Te2  1  0.50356300  0.48555600  0.50531700  1
  Te  Te3  1  0.91144800  0.46130600  0.69920500  1
  Te  Te4  1  0.70160100  0.69477200  0.93757400  1
  Te  Te5  1  0.87068700  0.87022100  0.38303700  1
  Te  Te6  1  0.44608000  0.93421800  0.68694200  1
  Te  Te7  1  0.94940400  0.95054300  0.67915700  1
  Te  Te8  1  0.43933400  0.95444400  0.18987100  1
  Te  Te9  1  0.20129700  0.18888000  0.44043600  1
  Te  Te10  1  0.93082100  0.43027100  0.20756800  1
  Te  Te11  1  0.44438100  0.44406500  0.18297900  1
loop_
_geom_bond_atom_site_label_1
_geom_bond_atom_site_label_2
_geom_bond_distance
_geom_bond_site_symmetry_2
Ag0 Te4 2.750341 1_555
Ag0 Te1 2.816003 1_555
Ag0 Ag9 2.921351 1_556
Ag0 Ag3 2.958594 1_555
Ag0 Ag12 2.974530 1_556
Ag0 Ag5 3.010285 1_555
Ag1 Ag11 2.936874 1_555
Ag1 Te2 2.941287 1_555
Ag1 Te6 2.943603 1_555
Ag1 Te9 3.002202 1_565
Ag1 Te5 3.013319 1_555
Ag1 Ag4 3.283373 1_565
Ag2 Te3 2.759709 1_455
Ag2 Te7 2.864239 1_455
Ag2 Ag7 2.892318 1_555
Ag2 Te2 2.893040 1_555
Ag2 Ag5 3.195365 1_555
Ag2 Te1 3.412810 1_555
Ag3 Te0 2.843581 1_456
Ag3 Te4 2.871349 1_555
Ag3 Te6 3.010085 1_555
Ag3 Te1 3.062543 1_565
Ag4 Ag7 2.770126 1_555
Ag4 Te5 2.825868 1_545
Ag4 Te7 2.897926 1_545
Ag4 Te6 2.990943 1_545
Ag4 Te2 3.015125 1_555
Ag5 Te7 2.851330 1_455
Ag5 Ag8 2.889979 1_465
Ag5 Te1 2.892834 1_555
Ag5 Te0 2.991771 1_456
Ag5 Te4 3.366677 1_455
Ag6 Te8 2.784907 1_545
Ag6 Te5 2.785125 1_445
Ag6 Te9 2.928932 1_555
Ag6 Te10 2.929483 1_455
Ag7 Te1 2.781157 1_555
Ag7 Ag8 2.969633 1_555
Ag7 Te2 2.997256 1_555
Ag7 Te6 3.059110 1_545
Ag7 Te7 3.083184 1_545
Ag8 Ag9 2.838875 1_556
Ag8 Te7 2.904851 1_545
Ag8 Te0 2.944188 1_546
Ag8 Te1 3.011358 1_555
Ag8 Te4 3.214779 1_545
Ag9 Te8 2.861550 1_545
Ag9 Te1 2.869201 1_554
Ag9 Te11 2.971573 1_555
Ag9 Te0 3.272232 1_545
Ag10 Ag14 2.819009 1_645
Ag10 Te5 2.844826 1_545
Ag10 Te8 2.858257 1_545
Ag10 Ag9 2.877265 1_555
Ag10 Ag13 2.938265 1_555
Ag10 Te11 2.993374 1_555
Ag10 Te0 3.223180 1_545
Ag11 Te10 2.863901 1_555
Ag11 Te2 2.899823 1_555
Ag11 Te5 2.984993 1_555
Ag11 Te9 3.083850 1_655
Ag11 Ag15 3.310598 1_655
Ag11 Ag14 3.368654 1_655
Ag12 Ag14 2.806935 1_555
Ag12 Te10 2.811305 1_455
Ag12 Ag5 2.823331 1_554
Ag12 Te0 2.964564 1_455
Ag12 Te1 3.004514 1_554
Ag12 Ag9 3.135429 1_555
Ag12 Te11 3.256197 1_555
Ag13 Ag15 2.796276 1_555
Ag13 Te11 2.841658 1_555
Ag13 Ag4 2.851260 1_555
Ag13 Te9 2.971697 1_555
Ag13 Te5 3.001605 1_545
Ag13 Te2 3.048607 1_555
Ag14 Te11 2.847518 1_555
Ag14 Te5 2.902914 1_455
Ag14 Te10 3.098661 1_455
Ag14 Te0 3.100204 1_455
Ag15 Te5 2.785281 1_455
Ag15 Te2 2.877530 1_555
Ag15 Te9 2.969631 1_555
Ge0 Te3 2.526994 1_455
Ge0 Te6 2.625713 1_545
Ge0 Te7 2.641860 1_445
Ge0 Te9 2.656776 1_555
Ge1 Te8 2.584303 1_555
Ge1 Te4 2.610926 1_554
Ge1 Te11 2.624506 1_555
Ge1 Te10 2.626208 1_555
