# generated using pymatgen
data_NaCaAlSi2O7
_symmetry_space_group_name_H-M   'P 1'
_cell_length_a   7.64243800
_cell_length_b   7.64243800
_cell_length_c   9.71566900
_cell_angle_alpha   90.00000000
_cell_angle_beta   90.00000000
_cell_angle_gamma   90.00000000
_symmetry_Int_Tables_number   1
_chemical_formula_structural   NaCaAlSi2O7
_chemical_formula_sum   'Na4 Ca4 Al4 Si8 O28'
_cell_volume   567.46170533
_cell_formula_units_Z   4
loop_
 _symmetry_equiv_pos_site_id
 _symmetry_equiv_pos_as_xyz
  1  'x, y, z'
loop_
 _atom_site_type_symbol
 _atom_site_label
 _atom_site_symmetry_multiplicity
 _atom_site_fract_x
 _atom_site_fract_y
 _atom_site_fract_z
 _atom_site_occupancy
  Na  Na0  1  0.35985600  0.14014400  0.48087100  1
  Na  Na1  1  0.64014400  0.85985600  0.48087100  1
  Na  Na2  1  0.14014400  0.64014400  0.51912900  1
  Na  Na3  1  0.85985600  0.35985600  0.51912900  1
  Ca  Ca0  1  0.86190500  0.36190500  0.02784400  1
  Ca  Ca1  1  0.13809500  0.63809500  0.02784400  1
  Ca  Ca2  1  0.36190500  0.13809500  0.97215600  1
  Ca  Ca3  1  0.63809500  0.86190500  0.97215600  1
  Al  Al0  1  0.00000000  0.00000000  0.00000000  1
  Al  Al1  1  0.50000000  0.50000000  0.00000000  1
  Al  Al2  1  0.00000000  0.00000000  0.50000000  1
  Al  Al3  1  0.50000000  0.50000000  0.50000000  1
  Si  Si0  1  0.64893300  0.14893300  0.68548700  1
  Si  Si1  1  0.35106700  0.85106700  0.68548700  1
  Si  Si2  1  0.14911300  0.35088700  0.80151300  1
  Si  Si3  1  0.85088700  0.64911300  0.80151300  1
  Si  Si4  1  0.64911300  0.14911300  0.19848700  1
  Si  Si5  1  0.35088700  0.85088700  0.19848700  1
  Si  Si6  1  0.14893300  0.35106700  0.31451300  1
  Si  Si7  1  0.85106700  0.64893300  0.31451300  1
  O  O0  1  0.50000000  0.00000000  0.14726000  1
  O  O1  1  0.17768000  0.92143300  0.10399200  1
  O  O2  1  0.42143300  0.67768000  0.10399200  1
  O  O3  1  0.82232000  0.07856700  0.10399200  1
  O  O4  1  0.57856700  0.32232000  0.10399200  1
  O  O5  1  0.14829500  0.35170500  0.14673200  1
  O  O6  1  0.85170500  0.64829500  0.14673200  1
  O  O7  1  0.66280200  0.16280200  0.35723400  1
  O  O8  1  0.33719800  0.83719800  0.35723400  1
  O  O9  1  0.91699000  0.83242200  0.38688200  1
  O  O10  1  0.66757800  0.58301000  0.38688200  1
  O  O11  1  0.33242200  0.41699000  0.38688200  1
  O  O12  1  0.08301000  0.16757800  0.38688200  1
  O  O13  1  0.00000000  0.50000000  0.35798900  1
  O  O14  1  0.50000000  0.00000000  0.64201100  1
  O  O15  1  0.16757800  0.91699000  0.61311800  1
  O  O16  1  0.41699000  0.66757800  0.61311800  1
  O  O17  1  0.83242200  0.08301000  0.61311800  1
  O  O18  1  0.58301000  0.33242200  0.61311800  1
  O  O19  1  0.16280200  0.33719800  0.64276600  1
  O  O20  1  0.83719800  0.66280200  0.64276600  1
  O  O21  1  0.64829500  0.14829500  0.85326800  1
  O  O22  1  0.35170500  0.85170500  0.85326800  1
  O  O23  1  0.92143300  0.82232000  0.89600800  1
  O  O24  1  0.67768000  0.57856700  0.89600800  1
  O  O25  1  0.32232000  0.42143300  0.89600800  1
  O  O26  1  0.07856700  0.17768000  0.89600800  1
  O  O27  1  0.00000000  0.50000000  0.85274000  1
loop_
_geom_bond_atom_site_label_1
_geom_bond_atom_site_label_2
_geom_bond_distance
_geom_bond_site_symmetry_2
Na0 O14 2.178373 1_555
Na0 O11 2.313947 1_555
Na0 O12 2.313947 1_555
Na0 O18 2.592058 1_555
Na0 O15 2.592058 1_545
Na0 O8 2.614052 1_545
Na0 O7 2.614052 1_555
Na0 O19 2.647637 1_555
Na1 O14 2.178373 1_565
Na1 O10 2.313947 1_555
Na1 O9 2.313947 1_555
Na1 O16 2.592058 1_555
Na1 O17 2.592058 1_565
Na1 O8 2.614052 1_555
Na1 O7 2.614052 1_565
Na1 O20 2.647637 1_555
Na2 O13 2.178373 1_555
Na2 O15 2.313947 1_555
Na2 O16 2.313947 1_555
Na2 O9 2.592058 1_455
Na2 O11 2.592058 1_555
Na2 O19 2.614052 1_555
Na2 O20 2.614052 1_455
Na2 O8 2.647637 1_555
Na3 O13 2.178373 1_655
Na3 O18 2.313947 1_555
Na3 O17 2.313947 1_555
Na3 O10 2.592058 1_555
Na3 O12 2.592058 1_655
Na3 O20 2.614052 1_555
Na3 O19 2.614052 1_655
Na3 O7 2.647637 1_555
Ca0 O27 2.263167 1_654
Ca0 O3 2.308202 1_555
Ca0 O4 2.308202 1_555
Ca0 O6 2.476038 1_555
Ca0 O5 2.476038 1_655
Ca0 O26 2.522828 1_654
Ca0 O24 2.522828 1_554
Ca0 O21 2.864778 1_554
Ca1 O27 2.263167 1_554
Ca1 O2 2.308202 1_555
Ca1 O1 2.308202 1_555
Ca1 O6 2.476038 1_455
Ca1 O5 2.476038 1_555
Ca1 O25 2.522828 1_554
Ca1 O23 2.522828 1_454
Ca1 O22 2.864778 1_554
Ca2 O0 2.263167 1_556
Ca2 O25 2.308202 1_555
Ca2 O26 2.308202 1_555
Ca2 O22 2.476038 1_545
Ca2 O21 2.476038 1_555
Ca2 O1 2.522828 1_546
Ca2 O4 2.522828 1_556
Ca2 O5 2.864778 1_556
Ca3 O0 2.263167 1_566
Ca3 O24 2.308202 1_555
Ca3 O23 2.308202 1_555
Ca3 O22 2.476038 1_555
Ca3 O21 2.476038 1_565
Ca3 O2 2.522828 1_556
Ca3 O3 2.522828 1_566
Ca3 O6 2.864778 1_556
Al0 O23 1.795900 1_444
Al0 O3 1.795900 1_455
Al0 O26 1.795900 1_554
Al0 O1 1.795900 1_545
Al1 O2 1.795900 1_555
Al1 O25 1.795900 1_554
Al1 O24 1.795900 1_554
Al1 O4 1.795900 1_555
Al2 O12 1.802915 1_555
Al2 O9 1.802915 1_445
Al2 O17 1.802915 1_455
Al2 O15 1.802915 1_545
Al3 O10 1.802915 1_555
Al3 O11 1.802915 1_555
Al3 O16 1.802915 1_555
Al3 O18 1.802915 1_555
O0 Si5 1.686721 1_545
O0 Si4 1.686721 1_555
O1 Si5 1.698763 1_555
O2 Si5 1.698763 1_555
O3 Si4 1.698763 1_555
O4 Si4 1.698763 1_555
O5 Si6 1.630119 1_555
O6 Si7 1.630119 1_555
O7 Si4 1.549413 1_555
O8 Si5 1.549413 1_555
O9 Si7 1.647619 1_555
O10 Si7 1.647619 1_555
O11 Si6 1.647619 1_555
O12 Si6 1.647619 1_555
O13 Si6 1.664172 1_555
O13 Si7 1.664172 1_455
O14 Si1 1.664172 1_545
O14 Si0 1.664172 1_555
O15 Si1 1.647619 1_555
O16 Si1 1.647619 1_555
O17 Si0 1.647619 1_555
O18 Si0 1.647619 1_555
O19 Si2 1.549413 1_555
O20 Si3 1.549413 1_555
O21 Si0 1.630119 1_555
O22 Si1 1.630119 1_555
O23 Si3 1.698763 1_555
O24 Si3 1.698763 1_555
O25 Si2 1.698763 1_555
O26 Si2 1.698763 1_555
O27 Si2 1.686721 1_555
O27 Si3 1.686721 1_455
