# generated using pymatgen
data_Ba3SrRu2O9
_symmetry_space_group_name_H-M   'P 1'
_cell_length_a   5.98600830
_cell_length_b   5.98600830
_cell_length_c   15.18743166
_cell_angle_alpha   89.13423651
_cell_angle_beta   89.13423651
_cell_angle_gamma   119.70144003
_symmetry_Int_Tables_number   1
_chemical_formula_structural   Ba3SrRu2O9
_chemical_formula_sum   'Ba6 Sr2 Ru4 O18'
_cell_volume   472.48900084
_cell_formula_units_Z   2
loop_
 _symmetry_equiv_pos_site_id
 _symmetry_equiv_pos_as_xyz
  1  'x, y, z'
loop_
 _atom_site_type_symbol
 _atom_site_label
 _atom_site_symmetry_multiplicity
 _atom_site_fract_x
 _atom_site_fract_y
 _atom_site_fract_z
 _atom_site_occupancy
  Ba  Ba0  1  0.34612538  0.67580110  0.89602801  1
  Ba  Ba1  1  0.32419890  0.65387462  0.60397199  1
  Ba  Ba2  1  0.65387462  0.32419890  0.10397199  1
  Ba  Ba3  1  0.67580110  0.34612538  0.39602801  1
  Ba  Ba4  1  0.99485511  0.00514489  0.75000000  1
  Ba  Ba5  1  0.00514489  0.99485511  0.25000000  1
  Sr  Sr0  1  0.00000000  -0.00000000  0.50000000  1
  Sr  Sr1  1  0.00000000  -0.00000000  0.00000000  1
  Ru  Ru0  1  0.68795330  0.35305177  0.84038533  1
  Ru  Ru1  1  0.64694823  0.31204670  0.65961467  1
  Ru  Ru2  1  0.35305177  0.68795330  0.34038533  1
  Ru  Ru3  1  0.31204670  0.64694823  0.15961467  1
  O  O0  1  0.86596986  0.67892250  0.89167315  1
  O  O1  1  0.32107750  0.13403014  0.60832685  1
  O  O2  1  0.13403014  0.32107750  0.10832685  1
  O  O3  1  0.67892250  0.86596986  0.39167315  1
  O  O4  1  0.87218407  0.22107183  0.89995434  1
  O  O5  1  0.77892817  0.12781593  0.60004566  1
  O  O6  1  0.12781593  0.77892817  0.10004566  1
  O  O7  1  0.22107183  0.87218407  0.39995434  1
  O  O8  1  0.41197054  0.22175482  0.92300305  1
  O  O9  1  0.77824518  0.58802946  0.57699695  1
  O  O10  1  0.58802946  0.77824518  0.07699695  1
  O  O11  1  0.22175482  0.41197054  0.42300305  1
  O  O12  1  0.48326648  0.51673352  0.25000000  1
  O  O13  1  0.51673352  0.48326648  0.75000000  1
  O  O14  1  0.48203394  0.95979498  0.23743108  1
  O  O15  1  0.04020502  0.51796606  0.26256892  1
  O  O16  1  0.51796606  0.04020502  0.76256892  1
  O  O17  1  0.95979498  0.48203394  0.73743108  1
loop_
_geom_bond_atom_site_label_1
_geom_bond_atom_site_label_2
_geom_bond_distance
_geom_bond_site_symmetry_2
Ba0 O16 2.739429 1_565
Ba0 O4 2.792662 1_455
Ba0 O0 2.885266 1_455
Ba0 O13 2.909473 1_555
Ba0 O8 2.956878 1_555
Ba0 O10 3.052559 1_556
Ba0 O0 3.102275 1_555
Ba0 O8 3.126089 1_565
Ba0 O17 3.176439 1_455
Ba0 O4 3.224831 1_565
Ba1 O17 2.739429 1_455
Ba1 O5 2.792662 1_565
Ba1 O1 2.885266 1_565
Ba1 O13 2.909473 1_555
Ba1 O9 2.956878 1_555
Ba1 O11 3.052559 1_555
Ba1 O1 3.102275 1_555
Ba1 O9 3.126089 1_455
Ba1 O16 3.176439 1_565
Ba1 O5 3.224831 1_455
Ba2 O14 2.739429 1_545
Ba2 O6 2.792662 1_655
Ba2 O2 2.885266 1_655
Ba2 O12 2.909473 1_555
Ba2 O10 2.956878 1_555
Ba2 O8 3.052559 1_554
Ba2 O2 3.102275 1_555
Ba2 O10 3.126089 1_545
Ba2 O15 3.176439 1_655
Ba2 O6 3.224831 1_545
Ba3 O15 2.739429 1_655
Ba3 O7 2.792662 1_545
Ba3 O3 2.885266 1_545
Ba3 O12 2.909473 1_555
Ba3 O11 2.956878 1_555
Ba3 O9 3.052559 1_555
Ba3 O3 3.102275 1_555
Ba3 O11 3.126089 1_655
Ba3 O14 3.176439 1_545
Ba3 O7 3.224831 1_655
Ba4 O1 2.714413 1_655
Ba4 O0 2.714413 1_545
Ba4 O5 2.894043 1_555
Ba4 O4 2.894043 1_555
Ba4 O17 2.967830 1_555
Ba4 O16 2.967830 1_555
Ba4 O13 3.015020 1_655
Ba4 O13 3.015020 1_545
Ba4 O17 3.042015 1_545
Ba4 O16 3.042015 1_655
Ba5 O2 2.714413 1_565
Ba5 O3 2.714413 1_455
Ba5 O6 2.894043 1_555
Ba5 O7 2.894043 1_555
Ba5 O14 2.967830 1_555
Ba5 O15 2.967830 1_555
Ba5 O12 3.015020 1_565
Ba5 O12 3.015020 1_455
Ba5 O15 3.042015 1_565
Ba5 O14 3.042015 1_455
O0 Ru0 1.886396 1_555
O0 Sr1 2.377341 1_666
O1 Ru1 1.886396 1_555
O1 Sr0 2.377341 1_555
O2 Ru3 1.886396 1_555
O2 Sr1 2.377341 1_555
O3 Ru2 1.886396 1_555
O3 Sr0 2.377341 1_665
O4 Ru0 1.879028 1_555
O4 Sr1 2.371289 1_656
O5 Ru1 1.879028 1_555
O5 Sr0 2.371289 1_655
O6 Ru3 1.879028 1_555
O6 Sr1 2.371289 1_565
O7 Ru2 1.879028 1_555
O7 Sr0 2.371289 1_565
O8 Ru0 1.882077 1_555
O8 Sr1 2.415159 1_556
O9 Ru1 1.882077 1_555
O9 Sr0 2.415159 1_665
O10 Ru3 1.882077 1_555
O10 Sr1 2.415159 1_665
O11 Ru2 1.882077 1_555
O11 Sr0 2.415159 1_555
O12 Ru2 2.084287 1_555
O12 Ru3 2.084287 1_555
O13 Ru0 2.084287 1_555
O13 Ru1 2.084287 1_555
O14 Ru3 2.038144 1_555
O14 Ru2 2.080994 1_555
O15 Ru2 2.038144 1_555
O15 Ru3 2.080994 1_555
O16 Ru0 2.038144 1_555
O16 Ru1 2.080994 1_555
O17 Ru1 2.038144 1_555
O17 Ru0 2.080994 1_555
