# generated using pymatgen
data_Mg11(Fe15O28)2
_symmetry_space_group_name_H-M   'P 1'
_cell_length_a   6.01951500
_cell_length_b   6.02406819
_cell_length_c   34.58633018
_cell_angle_alpha   85.08342474
_cell_angle_beta   85.01700373
_cell_angle_gamma   60.03193310
_symmetry_Int_Tables_number   1
_chemical_formula_structural   Mg11(Fe15O28)2
_chemical_formula_sum   'Mg11 Fe30 O56'
_cell_volume   1081.08273348
_cell_formula_units_Z   1
loop_
 _symmetry_equiv_pos_site_id
 _symmetry_equiv_pos_as_xyz
  1  'x, y, z'
loop_
 _atom_site_type_symbol
 _atom_site_label
 _atom_site_symmetry_multiplicity
 _atom_site_fract_x
 _atom_site_fract_y
 _atom_site_fract_z
 _atom_site_occupancy
  Mg  Mg0  1  0.57166300  0.57079400  0.78620600  1
  Mg  Mg1  1  0.07129000  0.57074600  0.78622900  1
  Mg  Mg2  1  0.00015600  0.00034800  0.49998600  1
  Mg  Mg3  1  0.49950900  0.00034500  0.49998700  1
  Mg  Mg4  1  0.78573600  0.28593600  0.64292200  1
  Mg  Mg5  1  0.28542700  0.28590400  0.64292000  1
  Mg  Mg6  1  0.71434500  0.71448100  0.35696600  1
  Mg  Mg7  1  0.42855700  0.42853500  0.21425800  1
  Mg  Mg8  1  0.21421600  0.71446600  0.35695200  1
  Mg  Mg9  1  0.14058900  0.14514000  0.07012700  1
  Mg  Mg10  1  0.92838600  0.42841100  0.21419600  1
  Fe  Fe0  1  0.50168200  0.00052800  0.99733700  1
  Fe  Fe1  1  0.54953500  0.06232400  0.83859900  1
  Fe  Fe2  1  0.36139500  0.34798400  0.93035200  1
  Fe  Fe3  1  0.36167400  0.85873000  0.93044400  1
  Fe  Fe4  1  0.21458600  0.71384100  0.85739200  1
  Fe  Fe5  1  0.26198700  0.77863300  0.69743300  1
  Fe  Fe6  1  0.85050300  0.85865600  0.93037100  1
  Fe  Fe7  1  0.07067400  0.07280500  0.78584100  1
  Fe  Fe8  1  0.97622400  0.49313100  0.55451300  1
  Fe  Fe9  1  0.87603800  0.37220900  0.87596300  1
  Fe  Fe10  1  0.92768500  0.43005300  0.71463000  1
  Fe  Fe11  1  0.78594700  0.78524400  0.64286600  1
  Fe  Fe12  1  0.69053700  0.20756700  0.41145600  1
  Fe  Fe13  1  0.64327200  0.14208400  0.57137400  1
  Fe  Fe14  1  0.59473200  0.07914700  0.73123000  1
  Fe  Fe15  1  0.50002500  0.49975800  0.50017700  1
  Fe  Fe16  1  0.30937000  0.79275900  0.58859300  1
  Fe  Fe17  1  0.35714000  0.85719400  0.42849400  1
  Fe  Fe18  1  0.40518000  0.92145700  0.26865500  1
  Fe  Fe19  1  0.21406000  0.21503100  0.35688800  1
  Fe  Fe20  1  0.11486000  0.63125900  0.12639700  1
  Fe  Fe21  1  0.07134700  0.57148700  0.28556200  1
  Fe  Fe22  1  0.02374600  0.50691100  0.44550500  1
  Fe  Fe23  1  0.92904800  0.92770500  0.21430600  1
  Fe  Fe24  1  0.73798700  0.22146500  0.30254100  1
  Fe  Fe25  1  0.78559000  0.28615600  0.14280600  1
  Fe  Fe26  1  0.64518400  0.63778500  0.06988000  1
  Fe  Fe27  1  0.45242200  0.93689700  0.15939700  1
  Fe  Fe28  1  0.64511300  0.14836900  0.06971400  1
  Fe  Fe29  1  0.16984100  0.65650400  0.01732900  1
  O  O0  1  0.66445400  0.71226300  0.96099200  1
  O  O1  1  0.53512700  0.03563300  0.89402600  1
  O  O2  1  0.66421200  0.16144200  0.96083800  1
  O  O3  1  0.21554900  0.16138600  0.96108500  1
  O  O4  1  0.51502400  0.54669400  0.89322400  1
  O  O5  1  0.38151100  0.41545300  0.82168800  1
  O  O6  1  0.04559600  0.54640300  0.89321100  1
  O  O7  1  0.18144400  0.67833200  0.96062600  1
  O  O8  1  0.24502000  0.75700100  0.75291900  1
  O  O9  1  0.37871200  0.88993800  0.82097000  1
  O  O10  1  0.91055300  0.88985200  0.82099500  1
  O  O11  1  0.04693000  0.01347000  0.89361400  1
  O  O12  1  0.23264500  0.25440600  0.75078700  1
  O  O13  1  0.09523600  0.13101400  0.67864300  1
  O  O14  1  0.76209100  0.25433000  0.75076900  1
  O  O15  1  0.89717400  0.38562900  0.81984100  1
  O  O16  1  0.95984000  0.47032800  0.61008100  1
  O  O17  1  0.09426800  0.60427300  0.67821400  1
  O  O18  1  0.62334900  0.60418000  0.67820400  1
  O  O19  1  0.76075900  0.72777200  0.75063300  1
  O  O20  1  0.94814100  0.96736200  0.60783100  1
  O  O21  1  0.81026000  0.84393300  0.53565800  1
  O  O22  1  0.47671200  0.96723500  0.60781700  1
  O  O23  1  0.61147200  0.10114000  0.67585400  1
  O  O24  1  0.67357600  0.18572900  0.46717400  1
  O  O25  1  0.80869100  0.31717900  0.53554700  1
  O  O26  1  0.47583500  0.44075900  0.60745800  1
  O  O27  1  0.33868300  0.31710100  0.53553400  1
  O  O28  1  0.66115300  0.68231100  0.46486500  1
  O  O29  1  0.52458000  0.55819700  0.39271700  1
  O  O30  1  0.19165100  0.68224600  0.46484900  1
  O  O31  1  0.32617700  0.81438600  0.53318900  1
  O  O32  1  0.38793900  0.90000200  0.32421900  1
  O  O33  1  0.52274600  0.03202900  0.39233700  1
  O  O34  1  0.05298300  0.03195100  0.39231900  1
  O  O35  1  0.18956200  0.15637000  0.46440000  1
  O  O36  1  0.37545800  0.39696900  0.32185900  1
  O  O37  1  0.23892200  0.27210900  0.24992200  1
  O  O38  1  0.90561900  0.39693800  0.32186800  1
  O  O39  1  0.04052900  0.52895600  0.38993100  1
  O  O40  1  0.23751600  0.74561300  0.24958100  1
  O  O41  1  0.10162300  0.61322300  0.18187300  1
  O  O42  1  0.90379400  0.87080800  0.32143900  1
  O  O43  1  0.76756900  0.74550000  0.24957100  1
  O  O44  1  0.09023400  0.10965300  0.17887600  1
  O  O45  1  0.94995000  0.98345400  0.10718200  1
  O  O46  1  0.62014000  0.11006800  0.17921300  1
  O  O47  1  0.80678200  0.32553200  0.04379700  1
  O  O48  1  0.75525700  0.24305600  0.24707700  1
  O  O49  1  0.95135700  0.45827900  0.10759000  1
  O  O50  1  0.61687300  0.58595700  0.17838600  1
  O  O51  1  0.47677000  0.45690900  0.10734100  1
  O  O52  1  0.80761700  0.82792000  0.03672300  1
  O  O53  1  0.33410100  0.82775900  0.03611300  1
  O  O54  1  0.46968400  0.96296500  0.10359400  1
  O  O55  1  0.33400800  0.30254300  0.03600000  1
loop_
_geom_bond_atom_site_label_1
_geom_bond_atom_site_label_2
_geom_bond_distance
_geom_bond_site_symmetry_2
Mg0 O5 2.078720 1_555
Mg0 O19 2.082372 1_555
Mg0 O9 2.100873 1_555
Mg0 O8 2.101955 1_555
Mg0 O14 2.103281 1_555
Mg0 O15 2.104014 1_555
Mg1 O5 2.079004 1_555
Mg1 O19 2.082847 1_455
Mg1 O10 2.100772 1_455
Mg1 O8 2.102660 1_555
Mg1 O12 2.102843 1_555
Mg1 O15 2.104115 1_455
Mg2 O35 2.080055 1_555
Mg2 O21 2.085287 1_445
Mg2 O24 2.092048 1_455
Mg2 O31 2.097549 1_545
Mg2 O30 2.103980 1_545
Mg2 O25 2.107689 1_455
Mg3 O35 2.080388 1_555
Mg3 O21 2.085608 1_545
Mg3 O24 2.092415 1_555
Mg3 O31 2.097919 1_545
Mg3 O28 2.103353 1_545
Mg3 O27 2.107052 1_555
Mg4 O26 2.077858 1_555
Mg4 O13 2.081692 1_655
Mg4 O16 2.088613 1_555
Mg4 O23 2.092529 1_555
Mg4 O20 2.104875 1_545
Mg4 O18 2.107498 1_555
Mg5 O26 2.077513 1_555
Mg5 O13 2.081275 1_555
Mg5 O16 2.088185 1_455
Mg5 O23 2.092109 1_555
Mg5 O22 2.105560 1_545
Mg5 O17 2.108305 1_555
Mg6 O42 2.080453 1_555
Mg6 O29 2.085568 1_555
Mg6 O32 2.090009 1_555
Mg6 O39 2.093415 1_655
Mg6 O38 2.100791 1_555
Mg6 O33 2.106652 1_565
Mg7 O37 2.084057 1_555
Mg7 O41 2.085010 1_555
Mg7 O50 2.086035 1_555
Mg7 O48 2.092719 1_555
Mg7 O40 2.103555 1_555
Mg7 O46 2.103580 1_555
Mg8 O42 2.080753 1_455
Mg8 O29 2.086019 1_555
Mg8 O32 2.090346 1_555
Mg8 O39 2.093937 1_555
Mg8 O36 2.100480 1_555
Mg8 O34 2.106279 1_565
Mg9 O47 2.003626 1_455
Mg9 O53 2.078177 1_545
Mg9 O55 2.078505 1_555
Mg9 O54 2.115938 1_545
Mg9 O49 2.133229 1_455
Mg9 O45 2.134303 1_445
Mg10 O41 2.078626 1_655
Mg10 O37 2.085905 1_655
Mg10 O48 2.089292 1_555
Mg10 O50 2.091639 1_555
Mg10 O43 2.104823 1_555
Mg10 O44 2.110699 1_655
Fe0 O3 1.994282 1_555
Fe0 O2 2.003384 1_555
Fe0 O0 2.004018 1_545
Fe0 O55 2.113040 1_556
Fe0 O53 2.115182 1_546
Fe0 O52 2.146677 1_546
Fe1 O5 1.905351 1_555
Fe1 O1 1.908020 1_555
Fe1 O9 1.947243 1_545
Fe1 O10 1.948249 1_545
Fe2 O2 1.944631 1_555
Fe2 O3 1.945027 1_555
Fe2 O7 2.058284 1_555
Fe2 O1 2.103275 1_555
Fe2 O4 2.138510 1_555
Fe2 O6 2.140910 1_555
Fe3 O0 1.945451 1_555
Fe3 O3 1.946284 1_565
Fe3 O7 2.057751 1_555
Fe3 O1 2.113144 1_565
Fe3 O4 2.125436 1_555
Fe3 O11 2.128945 1_565
Fe4 O5 2.031281 1_555
Fe4 O4 2.043671 1_555
Fe4 O6 2.044223 1_555
Fe4 O11 2.047942 1_565
Fe4 O9 2.071239 1_555
Fe4 O10 2.071500 1_455
Fe5 O8 1.909601 1_555
Fe5 O13 1.919421 1_565
Fe5 O17 1.964694 1_555
Fe5 O18 1.965464 1_555
Fe6 O0 1.942710 1_555
Fe6 O2 1.943092 1_565
Fe6 O7 2.061274 1_655
Fe6 O1 2.117449 1_565
Fe6 O6 2.124744 1_655
Fe6 O11 2.126332 1_665
Fe7 O8 2.046030 1_545
Fe7 O15 2.055501 1_455
Fe7 O9 2.061359 1_545
Fe7 O10 2.061540 1_445
Fe7 O12 2.061592 1_555
Fe7 O14 2.062122 1_455
Fe8 O21 1.912319 1_555
Fe8 O16 1.912491 1_555
Fe8 O25 1.967936 1_555
Fe8 O27 1.968460 1_655
Fe9 O15 1.931551 1_555
Fe9 O11 1.939882 1_655
Fe9 O6 1.944692 1_655
Fe9 O4 1.945230 1_555
Fe10 O19 2.035152 1_555
Fe10 O13 2.040265 1_655
Fe10 O12 2.069965 1_655
Fe10 O14 2.070598 1_555
Fe10 O18 2.073211 1_555
Fe10 O17 2.073334 1_655
Fe11 O16 2.039369 1_555
Fe11 O23 2.047781 1_565
Fe11 O22 2.064410 1_555
Fe11 O20 2.064418 1_555
Fe11 O18 2.066813 1_555
Fe11 O17 2.066886 1_655
Fe12 O29 1.910308 1_555
Fe12 O24 1.917591 1_555
Fe12 O33 1.969393 1_555
Fe12 O34 1.969919 1_655
Fe13 O21 2.030562 1_545
Fe13 O26 2.040916 1_555
Fe13 O27 2.061400 1_555
Fe13 O25 2.061650 1_555
Fe13 O20 2.076138 1_545
Fe13 O22 2.076364 1_545
Fe14 O23 1.905837 1_555
Fe14 O19 1.920736 1_545
Fe14 O14 1.971775 1_555
Fe14 O12 1.972347 1_555
Fe15 O24 2.039988 1_555
Fe15 O31 2.042770 1_555
Fe15 O28 2.066710 1_555
Fe15 O30 2.066951 1_555
Fe15 O27 2.068825 1_555
Fe15 O25 2.069077 1_555
Fe16 O31 1.906780 1_555
Fe16 O26 1.918302 1_555
Fe16 O22 1.963503 1_555
Fe16 O20 1.964915 1_455
Fe17 O29 2.035429 1_555
Fe17 O35 2.039034 1_565
Fe17 O34 2.066972 1_565
Fe17 O33 2.067230 1_565
Fe17 O28 2.070727 1_555
Fe17 O30 2.070788 1_555
Fe18 O37 1.910357 1_565
Fe18 O32 1.912275 1_555
Fe18 O43 1.969145 1_555
Fe18 O40 1.969626 1_555
Fe19 O32 2.037491 1_545
Fe19 O39 2.040360 1_555
Fe19 O36 2.060245 1_555
Fe19 O38 2.060489 1_455
Fe19 O34 2.070852 1_555
Fe19 O33 2.070948 1_555
Fe20 O41 1.909441 1_555
Fe20 O45 1.922835 1_455
Fe20 O49 1.931223 1_455
Fe20 O51 1.966419 1_555
Fe21 O37 2.033982 1_555
Fe21 O42 2.038993 1_455
Fe21 O43 2.061285 1_455
Fe21 O40 2.063412 1_555
Fe21 O38 2.069211 1_455
Fe21 O36 2.069459 1_555
Fe22 O35 1.911442 1_555
Fe22 O39 1.912650 1_555
Fe22 O30 1.972275 1_555
Fe22 O28 1.972837 1_455
Fe23 O41 2.030308 1_655
Fe23 O48 2.040974 1_565
Fe23 O46 2.064072 1_565
Fe23 O43 2.065836 1_555
Fe23 O40 2.066119 1_655
Fe23 O44 2.066407 1_665
Fe24 O48 1.908843 1_555
Fe24 O42 1.912042 1_545
Fe24 O38 1.971375 1_555
Fe24 O36 1.972114 1_555
Fe25 O50 2.034430 1_555
Fe25 O49 2.039690 1_555
Fe25 O45 2.047694 1_545
Fe25 O44 2.066841 1_655
Fe25 O51 2.070710 1_555
Fe25 O46 2.076358 1_555
Fe26 O47 1.899673 1_555
Fe26 O53 2.046955 1_555
Fe26 O52 2.069286 1_555
Fe26 O54 2.103117 1_555
Fe26 O49 2.109952 1_555
Fe26 O51 2.127684 1_555
Fe27 O50 1.914374 1_555
Fe27 O54 1.920924 1_555
Fe27 O46 1.967779 1_565
Fe27 O44 1.971921 1_565
Fe28 O47 1.900430 1_555
Fe28 O55 2.045816 1_555
Fe28 O52 2.069413 1_545
Fe28 O45 2.098712 1_545
Fe28 O54 2.115335 1_545
Fe28 O51 2.116357 1_555
Fe29 O53 1.926029 1_555
Fe29 O55 1.926118 1_555
Fe29 O7 1.951781 1_554
Fe29 O52 1.971223 1_455
