# generated using pymatgen
data_Ba4LaGe3SbSe13
_symmetry_space_group_name_H-M   'P 1'
_cell_length_a   12.69268800
_cell_length_b   13.20747900
_cell_length_c   16.61177713
_cell_angle_alpha   76.38609394
_cell_angle_beta   90.00000000
_cell_angle_gamma   90.00000000
_symmetry_Int_Tables_number   1
_chemical_formula_structural   Ba4LaGe3SbSe13
_chemical_formula_sum   'Ba16 La4 Ge12 Sb4 Se52'
_cell_volume   2706.53068246
_cell_formula_units_Z   4
loop_
 _symmetry_equiv_pos_site_id
 _symmetry_equiv_pos_as_xyz
  1  'x, y, z'
loop_
 _atom_site_type_symbol
 _atom_site_label
 _atom_site_symmetry_multiplicity
 _atom_site_fract_x
 _atom_site_fract_y
 _atom_site_fract_z
 _atom_site_occupancy
  Ba  Ba0  1  0.31584400  0.84443900  0.36416500  1
  Ba  Ba1  1  0.67684600  0.54520600  0.05228200  1
  Ba  Ba2  1  0.82315400  0.04520600  0.05228200  1
  Ba  Ba3  1  0.33050500  0.77104600  0.74327000  1
  Ba  Ba4  1  0.17684600  0.95479400  0.94771800  1
  Ba  Ba5  1  0.81584400  0.65556100  0.63583500  1
  Ba  Ba6  1  0.16949500  0.27104600  0.74327000  1
  Ba  Ba7  1  0.82704200  0.35286500  0.84795600  1
  Ba  Ba8  1  0.67295800  0.85286500  0.84795600  1
  Ba  Ba9  1  0.32704200  0.14713500  0.15204400  1
  Ba  Ba10  1  0.32315400  0.45479400  0.94771800  1
  Ba  Ba11  1  0.18415600  0.34443900  0.36416500  1
  Ba  Ba12  1  0.68415600  0.15556100  0.63583500  1
  Ba  Ba13  1  0.66949500  0.22895400  0.25673000  1
  Ba  Ba14  1  0.83050500  0.72895400  0.25673000  1
  Ba  Ba15  1  0.17295800  0.64713500  0.15204400  1
  La  La0  1  0.52200500  0.54715300  0.35662800  1
  La  La1  1  0.97799500  0.04715300  0.35662800  1
  La  La2  1  0.47799500  0.45284700  0.64337200  1
  La  La3  1  0.02200500  0.95284700  0.64337200  1
  Ge  Ge0  1  0.38287900  0.07648800  0.67005500  1
  Ge  Ge1  1  0.23274100  0.06140100  0.48498800  1
  Ge  Ge2  1  0.59028600  0.57811200  0.81894100  1
  Ge  Ge3  1  0.88287900  0.42351200  0.32994500  1
  Ge  Ge4  1  0.73274100  0.43859900  0.51501200  1
  Ge  Ge5  1  0.09028600  0.92188800  0.18105900  1
  Ge  Ge6  1  0.40971400  0.42188800  0.18105900  1
  Ge  Ge7  1  0.90971400  0.07811200  0.81894100  1
  Ge  Ge8  1  0.26725900  0.56140100  0.48498800  1
  Ge  Ge9  1  0.76725900  0.93859900  0.51501200  1
  Ge  Ge10  1  0.61712100  0.92351200  0.32994500  1
  Ge  Ge11  1  0.11712100  0.57648800  0.67005500  1
  Sb  Sb0  1  0.98208600  0.36447700  0.08077200  1
  Sb  Sb1  1  0.51791400  0.86447700  0.08077200  1
  Sb  Sb2  1  0.48208600  0.13552300  0.91922900  1
  Sb  Sb3  1  0.01791400  0.63552300  0.91922900  1
  Se  Se0  1  0.51381100  0.95031800  0.68045700  1
  Se  Se1  1  0.49100400  0.65855300  0.90938200  1
  Se  Se2  1  0.94372900  0.16395400  0.68005600  1
  Se  Se3  1  0.05485100  0.43953200  0.91636100  1
  Se  Se4  1  0.61977600  0.84551600  0.47885300  1
  Se  Se5  1  0.05627100  0.83604600  0.31994400  1
  Se  Se6  1  0.21784400  0.01559400  0.73810600  1
  Se  Se7  1  0.78453800  0.90739600  0.66327700  1
  Se  Se8  1  0.04325100  0.10078300  0.16235700  1
  Se  Se9  1  0.55485100  0.06046800  0.08363900  1
  Se  Se10  1  0.88022400  0.34551600  0.47885300  1
  Se  Se11  1  0.44372900  0.33604600  0.31994400  1
  Se  Se12  1  0.79021200  0.30762400  0.05351900  1
  Se  Se13  1  0.71546200  0.40739600  0.66327700  1
  Se  Se14  1  0.94194700  0.28430100  0.26925400  1
  Se  Se15  1  0.29021200  0.19237600  0.94648100  1
  Se  Se16  1  0.44194700  0.21569900  0.73074600  1
  Se  Se17  1  0.28215600  0.51559400  0.73810600  1
  Se  Se18  1  0.50899600  0.34144700  0.09061800  1
  Se  Se19  1  0.98618900  0.45031800  0.68045700  1
  Se  Se20  1  0.70978800  0.80762400  0.05351900  1
  Se  Se21  1  0.01381100  0.54968200  0.31954300  1
  Se  Se22  1  0.38022400  0.15448400  0.52114700  1
  Se  Se23  1  0.22720100  0.39736000  0.14919600  1
  Se  Se24  1  0.71784400  0.48440600  0.26189400  1
  Se  Se25  1  0.20978800  0.69237600  0.94648100  1
  Se  Se26  1  0.21546200  0.09260400  0.33672300  1
  Se  Se27  1  0.43121900  0.64255100  0.50323700  1
  Se  Se28  1  0.99100400  0.84144700  0.09061800  1
  Se  Se29  1  0.06878100  0.14255100  0.50323700  1
  Se  Se30  1  0.27279900  0.89736000  0.14919600  1
  Se  Se31  1  0.55627100  0.66395400  0.68005600  1
  Se  Se32  1  0.54325100  0.39921700  0.83764300  1
  Se  Se33  1  0.44514900  0.93953200  0.91636100  1
  Se  Se34  1  0.22169500  0.88381300  0.54842900  1
  Se  Se35  1  0.78215600  0.98440600  0.26189400  1
  Se  Se36  1  0.27830500  0.38381300  0.54842900  1
  Se  Se37  1  0.95674900  0.89921700  0.83764300  1
  Se  Se38  1  0.56878100  0.35744900  0.49676300  1
  Se  Se39  1  0.28453800  0.59260400  0.33672300  1
  Se  Se40  1  0.00899600  0.15855300  0.90938200  1
  Se  Se41  1  0.72169500  0.61618700  0.45157100  1
  Se  Se42  1  0.93121900  0.85744900  0.49676300  1
  Se  Se43  1  0.94514900  0.56046800  0.08363900  1
  Se  Se44  1  0.05805300  0.71569900  0.73074600  1
  Se  Se45  1  0.48618900  0.04968200  0.31954300  1
  Se  Se46  1  0.45674900  0.60078300  0.16235700  1
  Se  Se47  1  0.77830500  0.11618700  0.45157100  1
  Se  Se48  1  0.77279900  0.60264000  0.85080400  1
  Se  Se49  1  0.55805300  0.78430100  0.26925400  1
  Se  Se50  1  0.72720100  0.10264000  0.85080400  1
  Se  Se51  1  0.11977600  0.65448400  0.52114700  1
loop_
_geom_bond_atom_site_label_1
_geom_bond_atom_site_label_2
_geom_bond_distance
_geom_bond_site_symmetry_2
Ba0 Se5 3.383069 1_555
Ba0 Se45 3.409766 1_565
Ba0 Se27 3.419307 1_555
Ba0 Se34 3.437622 1_555
Ba0 Se26 3.445387 1_565
Ba0 Se39 3.484603 1_555
Ba0 Se30 3.516278 1_555
Ba0 Se49 3.627313 1_555
Ba1 Se18 3.373413 1_555
Ba1 Se24 3.424011 1_555
Ba1 Se1 3.430352 1_554
Ba1 Se12 3.447712 1_555
Ba1 Se43 3.458140 1_555
Ba1 Se48 3.473517 1_554
Ba1 Se20 3.495869 1_555
Ba1 Se46 3.509779 1_555
Ba2 Se28 3.373413 1_545
Ba2 Se35 3.424011 1_545
Ba2 Se40 3.430352 1_654
Ba2 Se20 3.447712 1_545
Ba2 Se9 3.458140 1_555
Ba2 Se50 3.473517 1_554
Ba2 Se12 3.495869 1_555
Ba2 Se8 3.509779 1_655
Ba3 Se0 3.308346 1_555
Ba3 Se17 3.450109 1_555
Ba3 Se31 3.466123 1_555
Ba3 Se1 3.470138 1_555
Ba3 Se34 3.511731 1_555
Ba3 Se6 3.514791 1_565
Ba3 Se44 3.550777 1_555
Ba3 Se25 3.629251 1_555
Ba4 Se40 3.373413 1_565
Ba4 Se6 3.424011 1_565
Ba4 Se28 3.430352 1_456
Ba4 Se15 3.447712 1_565
Ba4 Se33 3.458140 1_555
Ba4 Se30 3.473517 1_556
Ba4 Se25 3.495869 1_555
Ba4 Se37 3.509779 1_455
Ba5 Se31 3.383069 1_555
Ba5 Se19 3.409766 1_555
Ba5 Se42 3.419307 1_555
Ba5 Se41 3.437622 1_555
Ba5 Se13 3.445387 1_555
Ba5 Se7 3.484603 1_555
Ba5 Se48 3.516278 1_555
Ba5 Se44 3.627313 1_655
Ba6 Se19 3.308346 1_455
Ba6 Se6 3.450109 1_555
Ba6 Se2 3.466123 1_455
Ba6 Se40 3.470138 1_555
Ba6 Se36 3.511731 1_555
Ba6 Se17 3.514791 1_555
Ba6 Se16 3.550777 1_555
Ba6 Se15 3.629251 1_555
Ba7 Se13 3.300911 1_555
Ba7 Se12 3.357926 1_556
Ba7 Se48 3.381192 1_555
Ba7 Se3 3.402147 1_655
Ba7 Se40 3.424678 1_655
Ba7 Se19 3.434122 1_555
Ba7 Se50 3.529382 1_555
Ba7 Se32 3.650982 1_555
Ba8 Se7 3.300911 1_555
Ba8 Se20 3.357926 1_556
Ba8 Se50 3.381192 1_565
Ba8 Se33 3.402147 1_555
Ba8 Se1 3.424678 1_555
Ba8 Se0 3.434122 1_555
Ba8 Se48 3.529382 1_555
Ba8 Se37 3.650982 1_555
Ba9 Se26 3.300911 1_555
Ba9 Se15 3.357926 1_554
Ba9 Se30 3.381192 1_545
Ba9 Se9 3.402147 1_555
Ba9 Se18 3.424678 1_555
Ba9 Se45 3.434122 1_555
Ba9 Se23 3.529382 1_555
Ba9 Se8 3.650982 1_555
Ba10 Se1 3.373413 1_555
Ba10 Se17 3.424011 1_555
Ba10 Se18 3.430352 1_556
Ba10 Se25 3.447712 1_555
Ba10 Se3 3.458140 1_555
Ba10 Se23 3.473517 1_556
Ba10 Se15 3.495869 1_555
Ba10 Se32 3.509779 1_555
Ba11 Se11 3.383069 1_555
Ba11 Se21 3.409766 1_555
Ba11 Se29 3.419307 1_555
Ba11 Se36 3.437622 1_555
Ba11 Se39 3.445387 1_555
Ba11 Se26 3.484603 1_555
Ba11 Se23 3.516278 1_555
Ba11 Se14 3.627313 1_455
Ba12 Se2 3.383069 1_555
Ba12 Se0 3.409766 1_545
Ba12 Se38 3.419307 1_555
Ba12 Se47 3.437622 1_555
Ba12 Se7 3.445387 1_545
Ba12 Se13 3.484603 1_555
Ba12 Se50 3.516278 1_555
Ba12 Se16 3.627313 1_555
Ba13 Se45 3.308346 1_555
Ba13 Se24 3.450109 1_555
Ba13 Se11 3.466123 1_555
Ba13 Se18 3.470138 1_555
Ba13 Se47 3.511731 1_555
Ba13 Se35 3.514791 1_545
Ba13 Se14 3.550777 1_555
Ba13 Se12 3.629251 1_555
Ba14 Se21 3.308346 1_655
Ba14 Se35 3.450109 1_555
Ba14 Se5 3.466123 1_655
Ba14 Se28 3.470138 1_555
Ba14 Se41 3.511731 1_555
Ba14 Se24 3.514791 1_555
Ba14 Se49 3.550777 1_555
Ba14 Se20 3.629251 1_555
Ba15 Se39 3.300911 1_555
Ba15 Se25 3.357926 1_554
Ba15 Se23 3.381192 1_555
Ba15 Se43 3.402147 1_455
Ba15 Se28 3.424678 1_455
Ba15 Se21 3.434122 1_555
Ba15 Se30 3.529382 1_555
Ba15 Se46 3.650982 1_555
La0 Se38 3.050156 1_555
La0 Se39 3.075876 1_555
La0 Se11 3.151559 1_555
La0 Se24 3.155328 1_555
La0 Se49 3.160086 1_555
La0 Se27 3.207998 1_555
La0 Se41 3.227995 1_555
La0 Se46 3.244441 1_555
La1 Se42 3.050156 1_545
La1 Se26 3.075876 1_655
La1 Se5 3.151559 1_645
La1 Se35 3.155328 1_545
La1 Se14 3.160086 1_555
La1 Se29 3.207998 1_655
La1 Se47 3.227995 1_555
La1 Se8 3.244441 1_655
La2 Se27 3.050156 1_555
La2 Se13 3.075876 1_555
La2 Se31 3.151559 1_555
La2 Se17 3.155328 1_555
La2 Se16 3.160086 1_555
La2 Se38 3.207998 1_555
La2 Se36 3.227995 1_555
La2 Se32 3.244441 1_555
La3 Se29 3.050156 1_565
La3 Se7 3.075876 1_455
La3 Se2 3.151559 1_465
La3 Se6 3.155328 1_565
La3 Se44 3.160086 1_555
La3 Se42 3.207998 1_455
La3 Se34 3.227995 1_555
La3 Se37 3.244441 1_455
Ge0 Se0 2.330879 1_545
Ge0 Se16 2.414894 1_555
Ge0 Se6 2.425834 1_555
Ge0 Se22 2.445725 1_555
Ge1 Se34 2.338372 1_545
Ge1 Se22 2.392499 1_555
Ge1 Se29 2.392599 1_555
Ge1 Se26 2.409608 1_555
Ge2 Se31 2.358659 1_555
Ge2 Se32 2.385366 1_555
Ge2 Se1 2.392761 1_555
Ge2 Se48 2.415030 1_555
Ge3 Se21 2.330879 1_655
Ge3 Se14 2.414894 1_555
Ge3 Se24 2.425834 1_555
Ge3 Se10 2.445725 1_555
Ge4 Se41 2.338372 1_555
Ge4 Se10 2.392499 1_555
Ge4 Se38 2.392599 1_555
Ge4 Se13 2.409608 1_555
Ge5 Se5 2.358659 1_555
Ge5 Se8 2.385366 1_565
Ge5 Se28 2.392761 1_455
Ge5 Se30 2.415030 1_555
Ge6 Se11 2.358659 1_555
Ge6 Se46 2.385366 1_555
Ge6 Se18 2.392761 1_555
Ge6 Se23 2.415030 1_555
Ge7 Se2 2.358659 1_555
Ge7 Se37 2.385366 1_545
Ge7 Se40 2.392761 1_655
Ge7 Se50 2.415030 1_555
Ge8 Se36 2.338372 1_555
Ge8 Se51 2.392499 1_555
Ge8 Se27 2.392599 1_555
Ge8 Se39 2.409608 1_555
Ge9 Se47 2.338372 1_565
Ge9 Se4 2.392499 1_555
Ge9 Se42 2.392599 1_555
Ge9 Se7 2.409608 1_555
Ge10 Se45 2.330879 1_565
Ge10 Se49 2.414894 1_555
Ge10 Se35 2.425834 1_555
Ge10 Se4 2.445725 1_555
Ge11 Se19 2.330879 1_455
Ge11 Se44 2.414894 1_555
Ge11 Se17 2.425834 1_555
Ge11 Se51 2.445725 1_555
Sb0 Se12 2.619155 1_555
Sb0 Se43 2.642098 1_555
Sb0 Se3 2.832027 1_654
Sb0 Se14 3.102157 1_555
Sb1 Se20 2.619155 1_555
Sb1 Se9 2.642098 1_565
Sb1 Se33 2.832027 1_554
Sb1 Se49 3.102157 1_555
Sb2 Se15 2.619151 1_555
Sb2 Se33 2.642102 1_545
Sb2 Se9 2.832013 1_556
Sb2 Se16 3.102172 1_555
Sb3 Se25 2.619151 1_555
Sb3 Se3 2.642102 1_555
Sb3 Se43 2.832013 1_456
Sb3 Se44 3.102172 1_555
