# generated using pymatgen
data_Ga(HO)3
_symmetry_space_group_name_H-M   'P 1'
_cell_length_a   6.45947894
_cell_length_b   6.45947894
_cell_length_c   6.45947845
_cell_angle_alpha   109.70107646
_cell_angle_beta   109.70107651
_cell_angle_gamma   109.70106539
_symmetry_Int_Tables_number   1
_chemical_formula_structural   Ga(HO)3
_chemical_formula_sum   'Ga4 H12 O12'
_cell_volume   205.69269239
_cell_formula_units_Z   4
loop_
 _symmetry_equiv_pos_site_id
 _symmetry_equiv_pos_as_xyz
  1  'x, y, z'
loop_
 _atom_site_type_symbol
 _atom_site_label
 _atom_site_symmetry_multiplicity
 _atom_site_fract_x
 _atom_site_fract_y
 _atom_site_fract_z
 _atom_site_occupancy
  Ga  Ga0  1  0.50000000  -0.00000000  -0.00000000  1
  Ga  Ga1  1  0.50000000  0.50000000  0.50000000  1
  Ga  Ga2  1  -0.00000000  -0.00000000  0.50000000  1
  Ga  Ga3  1  -0.00000000  0.50000000  -0.00000000  1
  H  H0  1  0.81611866  0.45052926  0.26809262  1
  H  H1  1  0.04272391  0.30057086  0.34395148  1
  H  H2  1  0.95727609  0.69942914  0.65604852  1
  H  H3  1  0.18388134  0.54947074  0.73190738  1
  H  H4  1  0.73190738  0.18388134  0.54947074  1
  H  H5  1  0.65604852  0.95727609  0.69942914  1
  H  H6  1  0.34395148  0.04272391  0.30057086  1
  H  H7  1  0.26809262  0.81611866  0.45052926  1
  H  H8  1  0.30057086  0.34395148  0.04272391  1
  H  H9  1  0.45052926  0.26809262  0.81611866  1
  H  H10  1  0.54947074  0.73190738  0.18388134  1
  H  H11  1  0.69942914  0.65604852  0.95727609  1
  O  O0  1  0.81916297  0.31551564  0.14013313  1
  O  O1  1  0.17572844  0.30758162  0.48511242  1
  O  O2  1  0.82427156  0.69241838  0.51488758  1
  O  O3  1  0.18083703  0.68448436  0.85986687  1
  O  O4  1  0.85986687  0.18083703  0.68448436  1
  O  O5  1  0.51488758  0.82427156  0.69241838  1
  O  O6  1  0.48511242  0.17572844  0.30758162  1
  O  O7  1  0.14013313  0.81916297  0.31551564  1
  O  O8  1  0.30758162  0.48511242  0.17572844  1
  O  O9  1  0.31551564  0.14013313  0.81916297  1
  O  O10  1  0.68448436  0.85986687  0.18083703  1
  O  O11  1  0.69241838  0.51488758  0.82427156  1
loop_
_geom_bond_atom_site_label_1
_geom_bond_atom_site_label_2
_geom_bond_distance
_geom_bond_site_symmetry_2
Ga0 O3 1.971908 1_544
Ga0 O0 1.971908 1_555
Ga0 O5 1.981675 1_544
Ga0 O6 1.981675 1_555
Ga0 O9 2.026224 1_554
Ga0 O10 2.026224 1_545
Ga1 O11 1.992446 1_555
Ga1 O8 1.992446 1_555
Ga1 O5 1.992446 1_555
Ga1 O6 1.992446 1_555
Ga1 O2 1.992447 1_555
Ga1 O1 1.992447 1_555
Ga2 O10 1.971908 1_445
Ga2 O9 1.971908 1_555
Ga2 O2 1.981675 1_445
Ga2 O1 1.981675 1_555
Ga2 O7 2.026224 1_545
Ga2 O4 2.026224 1_455
Ga3 O4 1.971908 1_454
Ga3 O7 1.971908 1_555
Ga3 O11 1.981675 1_454
Ga3 O8 1.981675 1_555
Ga3 O0 2.026225 1_455
Ga3 O3 2.026225 1_554
H0 O0 0.990287 1_555
H1 O1 0.994659 1_555
H2 O2 0.994659 1_555
H3 O3 0.990287 1_555
H4 O4 0.990287 1_555
H5 O5 0.994659 1_555
H6 O6 0.994659 1_555
H7 O7 0.990287 1_555
H8 O8 0.994659 1_555
H9 O9 0.990288 1_555
H10 O10 0.990288 1_555
H11 O11 0.994659 1_555
