# generated using pymatgen
data_Na10Zr6Si7(PO18)2
_symmetry_space_group_name_H-M   'P 1'
_cell_length_a   9.24408500
_cell_length_b   9.33635699
_cell_length_c   22.75738748
_cell_angle_alpha   90.88742818
_cell_angle_beta   89.95188465
_cell_angle_gamma   119.61100677
_symmetry_Int_Tables_number   1
_chemical_formula_structural   Na10Zr6Si7(PO18)2
_chemical_formula_sum   'Na20 Zr12 Si14 P4 O72'
_cell_volume   1707.33207364
_cell_formula_units_Z   2
loop_
 _symmetry_equiv_pos_site_id
 _symmetry_equiv_pos_as_xyz
  1  'x, y, z'
loop_
 _atom_site_type_symbol
 _atom_site_label
 _atom_site_symmetry_multiplicity
 _atom_site_fract_x
 _atom_site_fract_y
 _atom_site_fract_z
 _atom_site_occupancy
  Na  Na0  1  0.55257100  0.75396400  0.05211400  1
  Na  Na1  1  0.47850500  0.79000300  0.22659400  1
  Na  Na2  1  0.11280300  0.84139400  0.13497100  1
  Na  Na3  1  0.53018700  0.43318400  0.21463800  1
  Na  Na4  1  0.04971400  0.50083100  0.29816400  1
  Na  Na5  1  0.11707100  0.46396200  0.09172100  1
  Na  Na6  1  0.26908300  0.15400800  0.36947300  1
  Na  Na7  1  0.98334800  0.03132500  0.02483200  1
  Na  Na8  1  0.80183100  0.25084000  0.44772900  1
  Na  Na9  1  0.02113100  0.01493400  0.50169400  1
  Na  Na10  1  0.21243200  0.78426400  0.53316900  1
  Na  Na11  1  0.74408600  0.86251500  0.62760200  1
  Na  Na12  1  0.68917500  0.61859000  0.41432600  1
  Na  Na13  1  0.89824400  0.45158100  0.70402400  1
  Na  Na14  1  0.44633100  0.52249800  0.80121200  1
  Na  Na15  1  0.71212200  0.37040700  0.85739400  1
  Na  Na16  1  0.87014400  0.10550700  0.87793800  1
  Na  Na17  1  0.41160100  0.18852000  0.97128200  1
  Na  Na18  1  0.39256000  0.08707300  0.74537500  1
  Na  Na19  1  0.32313700  0.68702400  0.68351300  1
  Zr  Zr0  1  0.80189900  0.61058300  0.04418500  1
  Zr  Zr1  1  0.52670500  0.05494700  0.11587500  1
  Zr  Zr2  1  0.47340900  0.95061200  0.38013200  1
  Zr  Zr3  1  0.19460500  0.39006300  0.45318700  1
  Zr  Zr4  1  0.13468200  0.27034300  0.21592300  1
  Zr  Zr5  1  0.14132100  0.28079600  0.71012400  1
  Zr  Zr6  1  0.86293500  0.73138700  0.28460700  1
  Zr  Zr7  1  0.86579900  0.72025200  0.78639400  1
  Zr  Zr8  1  0.80435500  0.60578000  0.55004700  1
  Zr  Zr9  1  0.52892100  0.06726500  0.61616300  1
  Zr  Zr10  1  0.46286600  0.93443600  0.88202900  1
  Zr  Zr11  1  0.19595700  0.39761200  0.95082200  1
  Si  Si0  1  0.80129000  0.89926500  0.15515400  1
  Si  Si1  1  0.28685000  0.99891800  0.24802100  1
  Si  Si2  1  0.23271800  0.77366500  0.01143500  1
  Si  Si3  1  0.42643400  0.56552600  0.32173200  1
  Si  Si4  1  0.37236400  0.33460200  0.08314700  1
  Si  Si5  1  0.46511200  0.23410300  0.48817300  1
  Si  Si6  1  0.95692700  0.32794700  0.58279800  1
  Si  Si7  1  0.90621600  0.10048500  0.34748100  1
  Si  Si8  1  0.09648700  0.88989900  0.65515200  1
  Si  Si9  1  0.04650500  0.67311900  0.41801000  1
  Si  Si10  1  0.13231500  0.56503800  0.81966400  1
  Si  Si11  1  0.62515400  0.66814000  0.91672800  1
  Si  Si12  1  0.57137900  0.44350400  0.68119600  1
  Si  Si13  1  0.76026500  0.22515600  0.98611700  1
  P  P0  1  0.85871000  0.43622900  0.17728300  1
  P  P1  1  0.53193100  0.77175400  0.51355400  1
  P  P2  1  0.70955800  0.00244700  0.75049200  1
  P  P3  1  0.20276700  0.10786200  0.84527500  1
  O  O0  1  0.70129600  0.27292600  0.16133600  1
  O  O1  1  0.66737800  0.09808400  0.03918400  1
  O  O2  1  0.83936500  0.82070600  0.09562500  1
  O  O3  1  0.39593100  0.17287000  0.08916300  1
  O  O4  1  0.63567300  0.91557500  0.14274200  1
  O  O5  1  0.75687800  0.78203100  0.21263800  1
  O  O6  1  0.38330300  0.02096200  0.31050100  1
  O  O7  1  0.38139100  0.96774000  0.19250600  1
  O  O8  1  0.34275900  0.83914000  0.07226500  1
  O  O9  1  0.43838300  0.74478400  0.33324400  1
  O  O10  1  0.61149500  0.58383000  0.31319800  1
  O  O11  1  0.55459900  0.49780400  0.07178900  1
  O  O12  1  0.09842700  0.83877700  0.24762900  1
  O  O13  1  0.37803100  0.60002700  0.50179600  1
  O  O14  1  0.05380400  0.76029100  0.02398600  1
  O  O15  1  0.22059900  0.59237500  0.99940300  1
  O  O16  1  0.31845700  0.49543200  0.26020600  1
  O  O17  1  0.34268400  0.44821300  0.37882100  1
  O  O18  1  0.28793300  0.37512900  0.13965200  1
  O  O19  1  0.51293500  0.16168000  0.43036000  1
  O  O20  1  0.24848200  0.29484900  0.02499000  1
  O  O21  1  0.05789600  0.50551000  0.43150900  1
  O  O22  1  0.29253000  0.23674700  0.47708800  1
  O  O23  1  0.43811300  0.11659500  0.54543900  1
  O  O24  1  0.90779600  0.55314800  0.12341700  1
  O  O25  1  0.01159400  0.41456400  0.18978000  1
  O  O26  1  0.27795200  0.16914600  0.23977500  1
  O  O27  1  0.07611500  0.37751600  0.64184600  1
  O  O28  1  0.82042400  0.50899500  0.23254200  1
  O  O29  1  0.03159500  0.28238600  0.52572200  1
  O  O30  1  0.99816400  0.22258100  0.29232700  1
  O  O31  1  0.01778500  0.17854300  0.40822500  1
  O  O32  1  0.11864000  0.06994100  0.67548700  1
  O  O33  1  0.28218800  0.90510600  0.65009500  1
  O  O34  1  0.96882700  0.07677700  0.16597900  1
  O  O35  1  0.23392900  0.83132200  0.41904800  1
  O  O36  1  0.77534800  0.16760300  0.59794900  1
  O  O37  1  0.05322800  0.93696100  0.82894500  1
  O  O38  1  0.72385200  0.08109800  0.35914000  1
  O  O39  1  0.90147700  0.92457700  0.33596600  1
  O  O40  1  0.99557200  0.83419700  0.59204100  1
  O  O41  1  0.99439600  0.75894200  0.70747700  1
  O  O42  1  0.94589800  0.70626900  0.47277600  1
  O  O43  1  0.16825100  0.49117300  0.75869400  1
  O  O44  1  0.94043700  0.63856500  0.35663600  1
  O  O45  1  0.73434000  0.85437400  0.76576400  1
  O  O46  1  0.95874200  0.56994900  0.81126800  1
  O  O47  1  0.10846700  0.44543500  0.87463600  1
  O  O48  1  0.56318400  0.88449600  0.46150400  1
  O  O49  1  0.69241200  0.76126900  0.52534000  1
  O  O50  1  0.93291300  0.48921700  0.57175200  1
  O  O51  1  0.73684200  0.71702600  0.97661600  1
  O  O52  1  0.49253700  0.83929500  0.57173400  1
  O  O53  1  0.71081700  0.62824400  0.86031700  1
  O  O54  1  0.66971100  0.56764000  0.62793800  1
  O  O55  1  0.67310400  0.50910000  0.74436900  1
  O  O56  1  0.77389000  0.40410200  0.00118400  1
  O  O57  1  0.94176000  0.23593600  0.97470300  1
  O  O58  1  0.62383600  0.41957000  0.50076600  1
  O  O59  1  0.88062100  0.15538500  0.73796700  1
  O  O60  1  0.44165600  0.50297000  0.92404800  1
  O  O61  1  0.39022500  0.42988900  0.69258300  1
  O  O62  1  0.55794100  0.26178500  0.66918600  1
  O  O63  1  0.65165100  0.16080200  0.92340400  1
  O  O64  1  0.63006500  0.04870100  0.80252700  1
  O  O65  1  0.59179300  0.95170600  0.69581400  1
  O  O66  1  0.23360400  0.22732300  0.79400700  1
  O  O67  1  0.36638400  0.10006000  0.85203500  1
  O  O68  1  0.60033400  0.82676000  0.90082900  1
  O  O69  1  0.16136100  0.16741400  0.90337900  1
  O  O70  1  0.32317600  0.89236400  0.95507000  1
  O  O71  1  0.29384400  0.74910200  0.82922300  1
loop_
_geom_bond_atom_site_label_1
_geom_bond_atom_site_label_2
_geom_bond_distance
_geom_bond_site_symmetry_2
Na0 O4 2.425145 1_555
Na0 O11 2.449098 1_555
Na0 O8 2.473023 1_555
Na0 O51 2.555351 1_554
Na0 O2 2.598100 1_555
Na0 O1 2.862582 1_565
Na0 O15 2.916734 1_554
Na1 O4 2.346943 1_555
Na1 O7 2.382137 1_555
Na1 O9 2.466167 1_555
Na1 O16 2.525864 1_555
Na1 O5 2.629728 1_555
Na2 O24 2.417003 1_455
Na2 O7 2.516693 1_555
Na2 O12 2.567001 1_555
Na2 O8 2.567833 1_555
Na2 O2 2.596966 1_455
Na2 O14 2.604819 1_555
Na3 O28 2.445735 1_555
Na3 O26 2.490417 1_555
Na3 O16 2.519124 1_555
Na3 O10 2.536624 1_555
Na3 O18 2.645585 1_555
Na3 O5 2.874181 1_555
Na3 O0 2.913990 1_555
Na4 O44 2.381844 1_455
Na4 O30 2.399907 1_455
Na4 O25 2.552671 1_555
Na4 O28 2.626235 1_455
Na4 O16 2.653148 1_555
Na5 O18 2.387013 1_555
Na5 O15 2.389123 1_554
Na5 O25 2.393143 1_555
Na5 O24 2.554814 1_455
Na5 O20 2.844794 1_555
Na6 O6 2.387674 1_555
Na6 O17 2.487650 1_555
Na6 O22 2.533439 1_555
Na6 O31 2.596689 1_555
Na6 O19 2.617074 1_555
Na7 O2 2.396234 1_545
Na7 O57 2.427459 1_554
Na7 O20 2.470025 1_655
Na7 O51 2.881644 1_544
Na7 O14 2.907747 1_645
Na8 O19 2.403305 1_555
Na8 O21 2.420040 1_655
Na8 O38 2.422840 1_555
Na8 O31 2.561020 1_655
Na8 O29 2.668375 1_655
Na9 O22 2.407430 1_555
Na9 O29 2.502521 1_555
Na9 O40 2.615966 1_445
Na9 O31 2.646941 1_555
Na9 O42 2.680116 1_445
Na9 O49 2.838507 1_445
Na10 O52 2.532576 1_555
Na10 O42 2.586791 1_455
Na10 O35 2.631658 1_555
Na10 O40 2.632628 1_455
Na10 O23 2.763109 1_565
Na10 O33 2.821381 1_555
Na10 O50 2.841280 1_455
Na10 O13 2.893810 1_555
Na11 O49 2.454619 1_555
Na11 O54 2.486407 1_555
Na11 O65 2.489950 1_555
Na11 O52 2.562995 1_555
Na11 O40 2.593633 1_555
Na11 O36 2.810356 1_565
Na12 O10 2.380502 1_555
Na12 O42 2.474504 1_555
Na12 O58 2.586359 1_555
Na12 O44 2.593780 1_555
Na12 O49 2.830993 1_555
Na12 O17 2.893426 1_555
Na13 O27 2.504671 1_655
Na13 O41 2.550205 1_555
Na13 O55 2.559068 1_555
Na13 O46 2.607402 1_555
Na13 O43 2.644544 1_655
Na13 O59 2.809159 1_555
Na13 O62 2.848957 1_555
Na14 O66 2.473808 1_555
Na14 O55 2.516569 1_555
Na14 O53 2.518061 1_555
Na14 O61 2.573074 1_555
Na14 O43 2.623397 1_555
Na14 O60 2.803090 1_555
Na15 O63 2.325378 1_555
Na15 O46 2.372636 1_555
Na15 O53 2.413131 1_555
Na15 O67 2.935908 1_555
Na16 O57 2.427589 1_555
Na16 O69 2.524075 1_655
Na16 O63 2.535139 1_555
Na16 O68 2.624952 1_545
Na16 O64 2.639480 1_555
Na16 O47 2.833568 1_655
Na17 O70 2.486964 1_545
Na17 O20 2.488318 1_556
Na17 O63 2.594801 1_555
Na17 O3 2.688790 1_556
Na17 O69 2.706281 1_555
Na17 O67 2.795101 1_555
Na17 O56 3.005045 1_556
Na17 O60 3.023718 1_555
Na18 O62 2.371293 1_555
Na18 O67 2.446210 1_555
Na18 O33 2.608747 1_545
Na18 O66 2.636737 1_555
Na18 O64 2.727049 1_555
Na18 O65 2.917862 1_545
Na18 O32 2.926695 1_555
Na19 O33 2.382736 1_555
Na19 O43 2.413788 1_555
Na19 O65 2.503528 1_555
Na19 O61 2.770822 1_555
Na19 O27 2.803866 1_555
Na19 O52 2.974816 1_555
O0 P0 1.537863 1_555
O0 Zr1 2.123346 1_555
O1 Si13 1.624564 1_554
O1 Zr1 2.097536 1_555
O2 Si0 1.649439 1_555
O2 Zr0 2.144073 1_555
O3 Si4 1.636400 1_555
O3 Zr1 2.092920 1_555
O4 Si0 1.636860 1_555
O4 Zr1 2.098255 1_565
O5 Si0 1.636245 1_555
O5 Zr6 2.086148 1_555
O6 Si1 1.634262 1_545
O6 Zr2 2.052151 1_545
O7 Si1 1.637921 1_555
O7 Zr1 2.113728 1_565
O8 Si2 1.639043 1_555
O8 Zr1 2.119237 1_565
O9 Si3 1.638783 1_555
O9 Zr2 2.063609 1_555
O10 Si3 1.644703 1_555
O10 Zr6 2.141175 1_555
O11 Si4 1.643547 1_555
O11 Zr0 2.090154 1_555
O12 Si1 1.641780 1_555
O12 Zr6 2.078099 1_455
O13 P1 1.549006 1_555
O13 Zr3 2.143084 1_555
O14 Si2 1.621351 1_555
O14 Zr0 2.095025 1_455
O15 Si2 1.658521 1_556
O15 Zr11 2.027191 1_555
O16 Si3 1.647270 1_555
O16 Zr4 2.174211 1_555
O17 Si3 1.640530 1_555
O17 Zr3 2.079137 1_555
O18 Si4 1.637364 1_555
O18 Zr4 2.157696 1_555
O19 Si5 1.628034 1_555
O19 Zr2 2.131376 1_545
O20 Si4 1.663773 1_555
O20 Zr11 2.125339 1_554
O21 Si9 1.652883 1_555
O21 Zr3 2.089454 1_555
O22 Si5 1.627641 1_555
O22 Zr3 2.114158 1_555
O23 Si5 1.654527 1_555
O23 Zr9 1.978517 1_555
O24 P0 1.565637 1_555
O24 Zr0 2.246934 1_555
O25 P0 1.550513 1_455
O25 Zr4 2.236445 1_555
O26 Si1 1.645095 1_545
O26 Zr4 2.048171 1_555
O27 Si6 1.647173 1_455
O27 Zr5 2.043546 1_555
O28 P0 1.542281 1_555
O28 Zr6 2.233321 1_555
O29 Si6 1.617418 1_455
O29 Zr3 2.134563 1_555
O30 Si7 1.637792 1_555
O30 Zr4 2.068559 1_655
O31 Si7 1.653537 1_455
O31 Zr3 2.090203 1_555
O32 Si8 1.648494 1_545
O32 Zr5 2.021156 1_555
O33 Si8 1.655162 1_555
O33 Zr9 2.170575 1_565
O34 Si0 1.630167 1_545
O34 Zr4 2.027226 1_655
O35 Si9 1.629127 1_555
O35 Zr2 2.125155 1_555
O36 Si6 1.645984 1_555
O36 Zr9 2.034753 1_555
O37 P3 1.548461 1_565
O37 Zr7 2.123949 1_455
O38 Si7 1.626112 1_555
O38 Zr2 2.073916 1_545
O39 Si7 1.638127 1_565
O39 Zr6 2.011633 1_555
O40 Si8 1.644133 1_655
O40 Zr8 2.190944 1_555
O41 Si8 1.645124 1_655
O41 Zr7 2.088352 1_555
O42 Si9 1.668719 1_655
O42 Zr8 2.125706 1_555
O43 Si10 1.645335 1_555
O43 Zr5 2.142810 1_555
O44 Si9 1.640736 1_655
O44 Zr6 2.147276 1_555
O45 P2 1.553211 1_565
O45 Zr7 2.188185 1_555
O46 Si10 1.639083 1_655
O46 Zr7 2.060265 1_555
O47 Si10 1.630984 1_555
O47 Zr11 2.059778 1_555
O48 P1 1.527106 1_555
O48 Zr2 2.245706 1_555
O49 P1 1.557976 1_555
O49 Zr8 2.237232 1_555
O50 Si6 1.649741 1_555
O50 Zr8 2.033796 1_555
O51 Si11 1.627629 1_555
O51 Zr0 2.086456 1_556
O52 P1 1.575929 1_555
O52 Zr9 2.211793 1_565
O53 Si11 1.639767 1_555
O53 Zr7 2.108338 1_555
O54 Si12 1.624513 1_555
O54 Zr8 2.096648 1_555
O55 Si12 1.652895 1_555
O55 Zr7 2.109087 1_555
O56 Si13 1.642883 1_554
O56 Zr0 2.046888 1_555
O57 Si13 1.650961 1_555
O57 Zr11 2.147924 1_655
O58 Si5 1.645586 1_555
O58 Zr8 2.034873 1_555
O59 P2 1.549576 1_555
O59 Zr5 2.193661 1_655
O60 Si11 1.644877 1_555
O60 Zr11 2.075064 1_555
O61 Si12 1.636319 1_555
O61 Zr5 2.059531 1_555
O62 Si12 1.657101 1_555
O62 Zr9 2.068202 1_555
O63 Si13 1.669023 1_555
O63 Zr10 2.166805 1_545
O64 P2 1.557260 1_555
O64 Zr10 2.286054 1_545
O65 P2 1.559571 1_565
O65 Zr9 2.338700 1_565
O66 P3 1.553071 1_555
O66 Zr5 2.252604 1_555
O67 P3 1.557630 1_555
O67 Zr10 2.247025 1_545
O68 Si11 1.652039 1_555
O68 Zr10 2.021190 1_555
O69 P3 1.546218 1_555
O69 Zr11 2.266397 1_555
O70 Si2 1.642926 1_556
O70 Zr10 2.024875 1_555
O71 Si10 1.638080 1_555
O71 Zr10 2.036299 1_555
