# generated using pymatgen
data_La3Co4Sn13
_symmetry_space_group_name_H-M   'P 1'
_cell_length_a   9.64229217
_cell_length_b   9.64226495
_cell_length_c   9.64230826
_cell_angle_alpha   90.00108076
_cell_angle_beta   89.99964716
_cell_angle_gamma   89.99963486
_symmetry_Int_Tables_number   1
_chemical_formula_structural   La3Co4Sn13
_chemical_formula_sum   'La6 Co8 Sn26'
_cell_volume   896.47949238
_cell_formula_units_Z   2
loop_
 _symmetry_equiv_pos_site_id
 _symmetry_equiv_pos_as_xyz
  1  'x, y, z'
loop_
 _atom_site_type_symbol
 _atom_site_label
 _atom_site_symmetry_multiplicity
 _atom_site_fract_x
 _atom_site_fract_y
 _atom_site_fract_z
 _atom_site_occupancy
  La  La0  1  0.49999392  -0.00000849  0.74999989  1
  La  La1  1  0.25000242  0.50001208  0.00000348  1
  La  La2  1  0.50000253  0.00000739  0.24999745  1
  La  La3  1  0.74999743  0.49998791  0.00001180  1
  La  La4  1  0.99998946  0.25000286  0.49998423  1
  La  La5  1  0.00001376  0.74999948  0.50000058  1
  Co  Co0  1  0.74999775  0.74999887  0.24999847  1
  Co  Co1  1  0.25000158  0.74999893  0.24999905  1
  Co  Co2  1  0.74999923  0.25000094  0.24999984  1
  Co  Co3  1  0.25000052  0.25000116  0.75000052  1
  Co  Co4  1  0.75000043  0.25000224  0.75000065  1
  Co  Co5  1  0.74999897  0.74999838  0.75000124  1
  Co  Co6  1  0.25000115  0.24999994  0.25000041  1
  Co  Co7  1  0.25000092  0.74999828  0.75000118  1
  Sn  Sn0  1  0.34207406  0.80113485  0.50000527  1
  Sn  Sn1  1  0.19886371  0.49999970  0.34207791  1
  Sn  Sn2  1  0.84208144  0.00000506  0.69886103  1
  Sn  Sn3  1  0.50000598  0.34208137  0.80114046  1
  Sn  Sn4  1  0.00000744  0.99997621  0.99998040  1
  Sn  Sn5  1  0.00000273  0.69886023  0.15792023  1
  Sn  Sn6  1  0.15792502  0.00000238  0.30113716  1
  Sn  Sn7  1  0.65792394  0.19886467  0.49999325  1
  Sn  Sn8  1  0.15792284  -0.00001326  0.69886121  1
  Sn  Sn9  1  0.50000283  0.34207492  0.19886427  1
  Sn  Sn10  1  0.84207714  0.00000667  0.30113636  1
  Sn  Sn11  1  0.30113832  0.84207445  -0.00000533  1
  Sn  Sn12  1  0.69885846  0.84207898  0.00000546  1
  Sn  Sn13  1  0.80113641  0.49999362  0.34207536  1
  Sn  Sn14  1  -0.00000344  0.30113859  0.15792488  1
  Sn  Sn15  1  0.30114041  0.15791782  0.00000940  1
  Sn  Sn16  1  0.65791705  0.80113717  0.49999507  1
  Sn  Sn17  1  0.49998763  0.65792387  0.80113958  1
  Sn  Sn18  1  0.19886368  0.50001405  0.65792177  1
  Sn  Sn19  1  0.80113752  0.49999399  0.65792184  1
  Sn  Sn20  1  0.49999260  0.50002360  0.50001994  1
  Sn  Sn21  1  0.34207813  0.19886177  0.49998949  1
  Sn  Sn22  1  0.00001308  0.69886130  0.84207820  1
  Sn  Sn23  1  -0.00000713  0.30114074  0.84208018  1
  Sn  Sn24  1  0.49999843  0.65792266  0.19886173  1
  Sn  Sn25  1  0.69886164  0.15792462  0.00000610  1
loop_
_geom_bond_atom_site_label_1
_geom_bond_atom_site_label_2
_geom_bond_distance
_geom_bond_site_symmetry_2
La0 Sn17 3.334972 1_545
La0 Sn8 3.335007 1_555
La0 Sn2 3.335158 1_555
La0 Sn3 3.335167 1_555
La0 Sn0 3.435945 1_545
La0 Sn11 3.435960 1_546
La0 Sn16 3.435991 1_545
La0 Sn15 3.436037 1_556
La0 Sn12 3.436067 1_546
La0 Sn21 3.436147 1_555
La0 Sn25 3.436147 1_556
La0 Sn7 3.436196 1_555
La1 Sn11 3.334911 1_555
La1 Sn1 3.335038 1_555
La1 Sn18 3.335114 1_554
La1 Sn15 3.335211 1_555
La1 Sn5 3.435900 1_555
La1 Sn17 3.435914 1_554
La1 Sn22 3.435918 1_554
La1 Sn24 3.435936 1_555
La1 Sn3 3.436068 1_554
La1 Sn9 3.436111 1_555
La1 Sn14 3.436148 1_555
La1 Sn23 3.436150 1_554
La2 Sn9 3.334962 1_555
La2 Sn10 3.335041 1_555
La2 Sn6 3.335064 1_555
La2 Sn24 3.335111 1_545
La2 Sn21 3.435910 1_555
La2 Sn15 3.435927 1_555
La2 Sn12 3.435940 1_545
La2 Sn25 3.435956 1_555
La2 Sn7 3.435963 1_555
La2 Sn16 3.436055 1_545
La2 Sn11 3.436104 1_545
La2 Sn0 3.436194 1_545
La3 Sn25 3.334919 1_555
La3 Sn13 3.334941 1_555
La3 Sn12 3.335182 1_555
La3 Sn19 3.335188 1_554
La3 Sn9 3.435921 1_555
La3 Sn23 3.435930 1_654
La3 Sn14 3.435932 1_655
La3 Sn3 3.435958 1_554
La3 Sn24 3.435984 1_555
La3 Sn5 3.436063 1_655
La3 Sn17 3.436231 1_554
La3 Sn22 3.436265 1_654
La4 Sn14 3.334902 1_655
La4 Sn7 3.334953 1_555
La4 Sn21 3.335172 1_655
La4 Sn23 3.335236 1_655
La4 Sn10 3.435873 1_555
La4 Sn13 3.435879 1_555
La4 Sn19 3.435948 1_555
La4 Sn6 3.435973 1_655
La4 Sn1 3.436030 1_655
La4 Sn2 3.436062 1_555
La4 Sn18 3.436230 1_655
La4 Sn8 3.436292 1_655
La5 Sn0 3.334899 1_555
La5 Sn22 3.335080 1_555
La5 Sn5 3.335089 1_555
La5 Sn16 3.335243 1_455
La5 Sn8 3.435867 1_565
La5 Sn18 3.435879 1_555
La5 Sn1 3.435932 1_555
La5 Sn6 3.436038 1_565
La5 Sn2 3.436066 1_465
La5 Sn13 3.436159 1_455
La5 Sn19 3.436163 1_455
La5 Sn10 3.436176 1_465
Co0 Sn12 2.615739 1_555
Co0 Sn16 2.615740 1_555
Co0 Sn24 2.615762 1_555
Co0 Sn5 2.615807 1_655
Co0 Sn13 2.615824 1_555
Co0 Sn10 2.615837 1_565
Co0 La3 3.409015 1_555
Co0 La2 3.409075 1_565
Co0 La5 3.409202 1_655
Co1 Sn24 2.615725 1_555
Co1 Sn5 2.615771 1_555
Co1 Sn6 2.615777 1_565
Co1 Sn1 2.615779 1_555
Co1 Sn0 2.615806 1_555
Co1 Sn11 2.615817 1_555
Co1 La1 3.408911 1_555
Co1 La5 3.408985 1_555
Co1 La2 3.409135 1_565
Co2 Sn13 2.615680 1_555
Co2 Sn25 2.615701 1_555
Co2 Sn7 2.615709 1_555
Co2 Sn10 2.615716 1_555
Co2 Sn9 2.615722 1_555
Co2 Sn14 2.615739 1_655
Co2 La4 3.408905 1_555
Co2 La3 3.408925 1_555
Co2 La2 3.409005 1_555
Co3 Sn3 2.615835 1_555
Co3 Sn23 2.615837 1_555
Co3 Sn21 2.615860 1_555
Co3 Sn15 2.615892 1_556
Co3 Sn8 2.615893 1_555
Co3 Sn18 2.615895 1_555
Co3 La0 3.409070 1_555
Co3 La1 3.409126 1_556
Co3 La4 3.409265 1_455
Co4 Sn19 2.615711 1_555
Co4 Sn23 2.615716 1_655
Co4 Sn3 2.615718 1_555
Co4 Sn2 2.615739 1_555
Co4 Sn7 2.615833 1_555
Co4 Sn25 2.615837 1_556
Co4 La3 3.409009 1_556
Co4 La4 3.409095 1_555
Co4 La0 3.409189 1_555
Co5 Sn19 2.615791 1_555
Co5 Sn12 2.615806 1_556
Co5 Sn2 2.615857 1_565
Co5 Sn16 2.615857 1_555
Co5 Sn17 2.615867 1_555
Co5 Sn22 2.615898 1_655
Co5 La0 3.409037 1_565
Co5 La5 3.409163 1_655
Co5 La3 3.409239 1_556
Co6 Sn21 2.615688 1_555
Co6 Sn15 2.615691 1_555
Co6 Sn1 2.615742 1_555
Co6 Sn6 2.615749 1_555
Co6 Sn9 2.615778 1_555
Co6 Sn14 2.615811 1_555
Co6 La2 3.409008 1_555
Co6 La4 3.409027 1_455
Co6 La1 3.409157 1_555
Co7 Sn18 2.615618 1_555
Co7 Sn17 2.615643 1_555
Co7 Sn22 2.615660 1_555
Co7 Sn8 2.615672 1_565
Co7 Sn11 2.615698 1_556
Co7 Sn0 2.615725 1_555
Co7 La0 3.408977 1_565
Co7 La5 3.408995 1_555
Co7 La1 3.409017 1_556
Sn0 Sn16 3.045450 1_555
Sn0 Sn8 3.241229 1_565
Sn0 Sn6 3.241432 1_565
Sn0 Sn20 3.278452 1_555
Sn1 Sn18 3.045464 1_555
Sn1 Sn14 3.241384 1_555
Sn1 Sn5 3.241395 1_555
Sn1 Sn20 3.278733 1_555
Sn2 Sn8 3.045435 1_655
Sn2 Sn7 3.241430 1_555
Sn2 Sn4 3.278583 1_645
Sn4 Sn8 3.278518 1_565
Sn4 Sn5 3.278623 1_556
Sn4 Sn6 3.278865 1_566
Sn10 Sn6 3.045498 1_655
Sn10 Sn7 3.241280 1_555
Sn10 Sn16 3.241449 1_545
Sn10 Sn4 3.278898 1_644
Sn11 Sn15 3.045445 1_565
Sn11 Sn17 3.241208 1_554
Sn11 Sn24 3.241398 1_555
Sn11 Sn4 3.278550 1_554
Sn12 Sn25 3.045467 1_565
Sn12 Sn24 3.241359 1_555
Sn12 Sn17 3.241444 1_554
Sn12 Sn4 3.278701 1_654
Sn13 Sn19 3.045489 1_555
Sn13 Sn14 3.241268 1_655
Sn13 Sn5 3.241448 1_655
Sn13 Sn20 3.278856 1_555
Sn14 Sn23 3.045472 1_554
Sn14 Sn4 3.278989 1_544
Sn15 Sn9 3.241343 1_555
Sn15 Sn3 3.241501 1_554
Sn15 Sn4 3.278763 1_544
Sn16 Sn2 3.241474 1_565
Sn16 Sn20 3.278516 1_555
Sn17 Sn3 3.045437 1_555
Sn17 Sn20 3.278435 1_555
Sn18 Sn22 3.241201 1_555
Sn18 Sn23 3.241529 1_555
Sn18 Sn20 3.278537 1_555
Sn19 Sn23 3.241325 1_655
Sn19 Sn22 3.241485 1_655
Sn19 Sn20 3.278690 1_555
Sn20 Sn3 3.278681 1_555
Sn20 Sn24 3.278809 1_555
Sn20 Sn21 3.278883 1_555
Sn20 Sn7 3.278917 1_555
Sn20 Sn9 3.278959 1_555
Sn21 Sn7 3.045478 1_555
Sn21 Sn6 3.241288 1_555
Sn21 Sn8 3.241529 1_555
Sn22 Sn5 3.045446 1_556
Sn22 Sn4 3.278395 1_555
Sn23 Sn4 3.278860 1_545
Sn24 Sn9 3.045488 1_555
Sn25 Sn9 3.241278 1_555
Sn25 Sn3 3.241391 1_554
Sn25 Sn4 3.278886 1_644
