# generated using pymatgen
data_NaSr7Cu8(SF)8
_symmetry_space_group_name_H-M   'P 1'
_cell_length_a   7.91249100
_cell_length_b   7.91249100
_cell_length_c   8.74746200
_cell_angle_alpha   90.00000000
_cell_angle_beta   90.00000000
_cell_angle_gamma   90.00000000
_symmetry_Int_Tables_number   1
_chemical_formula_structural   NaSr7Cu8(SF)8
_chemical_formula_sum   'Na1 Sr7 Cu8 S8 F8'
_cell_volume   547.65684810
_cell_formula_units_Z   1
loop_
 _symmetry_equiv_pos_site_id
 _symmetry_equiv_pos_as_xyz
  1  'x, y, z'
loop_
 _atom_site_type_symbol
 _atom_site_label
 _atom_site_symmetry_multiplicity
 _atom_site_fract_x
 _atom_site_fract_y
 _atom_site_fract_z
 _atom_site_occupancy
  Na  Na0  1  0.00000000  0.00000000  0.97039900  1
  Sr  Sr0  1  0.24771700  0.75228300  0.66870900  1
  Sr  Sr1  1  0.50000000  0.00000000  0.00058900  1
  Sr  Sr2  1  0.50000000  0.50000000  0.00358100  1
  Sr  Sr3  1  0.75228300  0.75228300  0.66870900  1
  Sr  Sr4  1  0.75228300  0.24771700  0.66870900  1
  Sr  Sr5  1  0.00000000  0.50000000  0.00058900  1
  Sr  Sr6  1  0.24771700  0.24771700  0.66870900  1
  Cu  Cu0  1  0.74833100  0.50000000  0.33347500  1
  Cu  Cu1  1  0.50000000  0.25166900  0.33347500  1
  Cu  Cu2  1  0.00000000  0.75172500  0.32966800  1
  Cu  Cu3  1  0.50000000  0.74833100  0.33347500  1
  Cu  Cu4  1  0.24827500  0.00000000  0.32966800  1
  Cu  Cu5  1  0.75172500  0.00000000  0.32966800  1
  Cu  Cu6  1  0.25166900  0.50000000  0.33347500  1
  Cu  Cu7  1  0.00000000  0.24827500  0.32966800  1
  S  S0  1  0.74840200  0.74840200  0.17728900  1
  S  S1  1  0.00000000  0.00000000  0.48964400  1
  S  S2  1  0.25159800  0.25159800  0.17728900  1
  S  S3  1  0.00000000  0.50000000  0.49108000  1
  S  S4  1  0.50000000  0.50000000  0.49605400  1
  S  S5  1  0.50000000  0.00000000  0.49108000  1
  S  S6  1  0.74840200  0.25159800  0.17728900  1
  S  S7  1  0.25159800  0.74840200  0.17728900  1
  F  F0  1  0.50000000  0.74879600  0.83364500  1
  F  F1  1  0.74747900  0.00000000  0.83199500  1
  F  F2  1  0.25252100  0.00000000  0.83199500  1
  F  F3  1  0.00000000  0.74747900  0.83199500  1
  F  F4  1  0.50000000  0.25120400  0.83364500  1
  F  F5  1  0.25120400  0.50000000  0.83364500  1
  F  F6  1  0.00000000  0.25252100  0.83199500  1
  F  F7  1  0.74879600  0.50000000  0.83364500  1
loop_
_geom_bond_atom_site_label_1
_geom_bond_atom_site_label_2
_geom_bond_distance
_geom_bond_site_symmetry_2
Na0 S7 3.346871 1_546
Na0 S6 3.346871 1_456
Na0 S0 3.346871 1_446
Na0 S2 3.346871 1_556
Cu0 S6 2.393678 1_555
Cu0 S0 2.393678 1_555
Cu0 S3 2.421993 1_655
Cu0 S4 2.425576 1_555
Cu1 S6 2.393678 1_555
Cu1 S2 2.393678 1_555
Cu1 S5 2.421993 1_555
Cu1 S4 2.425576 1_555
Cu2 S7 2.395944 1_555
Cu2 S0 2.395944 1_455
Cu2 S1 2.411935 1_565
Cu2 S3 2.441464 1_555
Cu3 S7 2.393678 1_555
Cu3 S0 2.393678 1_555
Cu3 S5 2.421993 1_565
Cu3 S4 2.425576 1_555
Cu4 S2 2.395944 1_555
Cu4 S7 2.395944 1_545
Cu4 S1 2.411935 1_555
Cu4 S5 2.441464 1_555
Cu5 S0 2.395944 1_545
Cu5 S6 2.395944 1_555
Cu5 S1 2.411935 1_655
Cu5 S5 2.441464 1_555
Cu6 S7 2.393678 1_555
Cu6 S2 2.393678 1_555
Cu6 S3 2.421993 1_555
Cu6 S4 2.425576 1_555
Cu7 S6 2.395944 1_455
Cu7 S2 2.395944 1_555
Cu7 S1 2.411935 1_555
Cu7 S3 2.441464 1_555
S0 Sr2 3.167823 1_555
S0 Sr1 3.196150 1_565
S0 Sr5 3.196150 1_655
S1 Sr6 3.183890 1_555
S1 Sr0 3.183890 1_545
S1 Sr4 3.183890 1_455
S1 Sr3 3.183890 1_445
S2 Sr2 3.167823 1_555
S2 Sr1 3.196150 1_555
S2 Sr5 3.196150 1_555
S3 Sr0 3.200140 1_555
S3 Sr6 3.200140 1_555
S3 Sr3 3.200140 1_455
S3 Sr4 3.200140 1_455
S4 Sr3 3.201642 1_555
S4 Sr4 3.201642 1_555
S4 Sr0 3.201642 1_555
S4 Sr6 3.201642 1_555
S5 Sr4 3.200140 1_555
S5 Sr3 3.200140 1_545
S5 Sr6 3.200140 1_555
S5 Sr0 3.200140 1_545
S6 Sr2 3.167823 1_555
S6 Sr1 3.196150 1_555
S6 Sr5 3.196150 1_655
S7 Sr2 3.167823 1_555
S7 Sr1 3.196150 1_565
S7 Sr5 3.196150 1_555
F0 Sr3 2.463151 1_555
F0 Sr0 2.463151 1_555
F0 Sr1 2.466441 1_566
F0 Sr2 2.466795 1_556
F1 Na0 2.336245 1_655
F1 Sr4 2.425577 1_555
F1 Sr3 2.425577 1_545
F1 Sr1 2.451407 1_556
F2 Na0 2.336245 1_555
F2 Sr6 2.425577 1_555
F2 Sr0 2.425577 1_545
F2 Sr1 2.451407 1_556
F3 Na0 2.336245 1_565
F3 Sr0 2.425577 1_555
F3 Sr3 2.425577 1_455
F3 Sr5 2.451407 1_556
F4 Sr4 2.463151 1_555
F4 Sr6 2.463151 1_555
F4 Sr1 2.466441 1_556
F4 Sr2 2.466795 1_556
F5 Sr0 2.463151 1_555
F5 Sr6 2.463151 1_555
F5 Sr5 2.466441 1_556
F5 Sr2 2.466795 1_556
F6 Na0 2.336245 1_555
F6 Sr6 2.425577 1_555
F6 Sr4 2.425577 1_455
F6 Sr5 2.451407 1_556
F7 Sr3 2.463151 1_555
F7 Sr4 2.463151 1_555
F7 Sr5 2.466441 1_656
F7 Sr2 2.466795 1_556
