# generated using pymatgen
data_YZr5O12
_symmetry_space_group_name_H-M   'P 1'
_cell_length_a   6.41527744
_cell_length_b   6.41527744
_cell_length_c   7.39965767
_cell_angle_alpha   72.64315603
_cell_angle_beta   72.64315603
_cell_angle_gamma   47.52430213
_symmetry_Int_Tables_number   1
_chemical_formula_structural   YZr5O12
_chemical_formula_sum   'Y1 Zr5 O12'
_cell_volume   212.34940763
_cell_formula_units_Z   1
loop_
 _symmetry_equiv_pos_site_id
 _symmetry_equiv_pos_as_xyz
  1  'x, y, z'
loop_
 _atom_site_type_symbol
 _atom_site_label
 _atom_site_symmetry_multiplicity
 _atom_site_fract_x
 _atom_site_fract_y
 _atom_site_fract_z
 _atom_site_occupancy
  Y  Y0  1  0.00016200  0.99983800  0.50000000  1
  Zr  Zr0  1  0.99429500  0.00570500  0.00000000  1
  Zr  Zr1  1  0.67022500  0.66438300  0.66627000  1
  Zr  Zr2  1  0.33348100  0.33345800  0.83433400  1
  Zr  Zr3  1  0.33561700  0.32977500  0.33373000  1
  Zr  Zr4  1  0.66654200  0.66651900  0.16566600  1
  O  O0  1  0.43041900  0.92833100  0.92837800  1
  O  O1  1  0.90939100  0.40449400  0.90615200  1
  O  O2  1  0.09830100  0.57398100  0.59799100  1
  O  O3  1  0.26224700  0.76109400  0.76672700  1
  O  O4  1  0.56694500  0.07333300  0.57649400  1
  O  O5  1  0.72735500  0.25374300  0.75100000  1
  O  O6  1  0.74625700  0.27264500  0.24900000  1
  O  O7  1  0.92666700  0.43305500  0.42350600  1
  O  O8  1  0.42601900  0.90169900  0.40200900  1
  O  O9  1  0.23890600  0.73775300  0.23327300  1
  O  O10  1  0.59550600  0.09060900  0.09384800  1
  O  O11  1  0.07166900  0.56958100  0.07162200  1
loop_
_geom_bond_atom_site_label_1
_geom_bond_atom_site_label_2
_geom_bond_distance
_geom_bond_site_symmetry_2
O0 Zr4 2.142397 1_556
O0 Zr2 2.149895 1_565
O0 Zr1 2.378386 1_555
O0 Zr0 2.398309 1_466
O1 Zr0 2.146564 1_556
O1 Zr1 2.165412 1_555
O1 Zr2 2.345085 1_655
O1 Zr4 2.354674 1_556
O2 Zr2 2.129750 1_555
O2 Y0 2.270105 1_555
O2 Zr1 2.308537 1_455
O2 Zr3 2.329440 1_555
O3 Zr0 2.144681 1_466
O3 Zr1 2.170021 1_555
O3 Zr2 2.368486 1_555
O3 Y0 2.401381 1_555
O4 Zr1 2.153680 1_545
O4 Zr3 2.160049 1_555
O4 Zr2 2.342511 1_555
O4 Y0 2.391151 1_645
O5 Zr2 2.130695 1_555
O5 Y0 2.276256 1_645
O5 Zr0 2.304906 1_556
O5 Zr1 2.305426 1_555
O6 Zr4 2.130695 1_555
O6 Y0 2.276256 1_645
O6 Zr0 2.304906 1_555
O6 Zr3 2.305426 1_555
O7 Zr3 2.153680 1_655
O7 Zr1 2.160049 1_555
O7 Zr4 2.342511 1_555
O7 Y0 2.391151 1_645
O8 Zr4 2.129750 1_555
O8 Y0 2.270105 1_555
O8 Zr3 2.308537 1_565
O8 Zr1 2.329440 1_555
O9 Zr0 2.144681 1_465
O9 Zr3 2.170021 1_555
O9 Zr4 2.368486 1_555
O9 Y0 2.401381 1_555
O10 Zr0 2.146564 1_555
O10 Zr3 2.165412 1_555
O10 Zr4 2.345085 1_545
O10 Zr2 2.354674 1_554
O11 Zr2 2.142397 1_554
O11 Zr4 2.149895 1_455
O11 Zr3 2.378386 1_555
O11 Zr0 2.398309 1_465
