# generated using pymatgen
data_La12Cu10O31
_symmetry_space_group_name_H-M   'P 1'
_cell_length_a   6.70774755
_cell_length_b   6.70774755
_cell_length_c   20.68413937
_cell_angle_alpha   89.94231543
_cell_angle_beta   89.94231543
_cell_angle_gamma   120.34579255
_symmetry_Int_Tables_number   1
_chemical_formula_structural   La12Cu10O31
_chemical_formula_sum   'La12 Cu10 O31'
_cell_volume   803.15020617
_cell_formula_units_Z   1
loop_
 _symmetry_equiv_pos_site_id
 _symmetry_equiv_pos_as_xyz
  1  'x, y, z'
loop_
 _atom_site_type_symbol
 _atom_site_label
 _atom_site_symmetry_multiplicity
 _atom_site_fract_x
 _atom_site_fract_y
 _atom_site_fract_z
 _atom_site_occupancy
  La  La0  1  0.99970600  0.99969800  0.12896500  1
  La  La1  1  0.98611200  0.00000600  0.38633600  1
  La  La2  1  0.99999400  0.01388800  0.61366400  1
  La  La3  1  0.00030200  0.00029400  0.87103500  1
  La  La4  1  0.66592500  0.33306900  0.12970900  1
  La  La5  1  0.66512100  0.32899800  0.61745000  1
  La  La6  1  0.67100200  0.33487900  0.38255000  1
  La  La7  1  0.66693100  0.33407500  0.87029100  1
  La  La8  1  0.33311400  0.66717200  0.87098900  1
  La  La9  1  0.33315400  0.64983100  0.38251200  1
  La  La10  1  0.35016900  0.66684600  0.61748800  1
  La  La11  1  0.33282800  0.66688600  0.12901100  1
  Cu  Cu0  1  0.15934200  0.32997500  0.25562600  1
  Cu  Cu1  1  0.17054300  0.33467300  0.74409200  1
  Cu  Cu2  1  0.16638400  0.33298400  0.00001300  1
  Cu  Cu3  1  0.66532700  0.82945700  0.25590800  1
  Cu  Cu4  1  0.66701600  0.83361600  0.99998700  1
  Cu  Cu5  1  0.67002500  0.84065800  0.74437400  1
  Cu  Cu6  1  0.16118200  0.83881800  0.50000000  1
  Cu  Cu7  1  0.16638000  0.83362000  0.00000000  1
  Cu  Cu8  1  0.17066000  0.83990600  0.25642400  1
  Cu  Cu9  1  0.16009400  0.82934000  0.74357600  1
  O  O0  1  0.00749000  0.99251000  0.50000000  1
  O  O1  1  0.00094500  0.99905500  0.00000000  1
  O  O2  1  0.66714400  0.00024100  0.32767000  1
  O  O3  1  0.64840500  0.00612500  0.57420700  1
  O  O4  1  0.66893200  0.00198200  0.07613100  1
  O  O5  1  0.99503700  0.33241500  0.18004300  1
  O  O6  1  0.99763500  0.99879200  0.25421500  1
  O  O7  1  0.00120800  0.00236500  0.74578500  1
  O  O8  1  0.32544500  0.32364200  0.32717600  1
  O  O9  1  0.33861300  0.33731300  0.81966700  1
  O  O10  1  0.35715800  0.34280600  0.57786600  1
  O  O11  1  0.33447900  0.33452200  0.07615900  1
  O  O12  1  0.00465800  0.67609000  0.32836700  1
  O  O13  1  0.99387500  0.35159500  0.42579300  1
  O  O14  1  0.99801800  0.33106800  0.92386900  1
  O  O15  1  0.99975900  0.33285600  0.67233000  1
  O  O16  1  0.66268700  0.66138700  0.18033300  1
  O  O17  1  0.67635800  0.67455500  0.67282400  1
  O  O18  1  0.65719400  0.64284200  0.42213400  1
  O  O19  1  0.66547800  0.66552100  0.92384100  1
  O  O20  1  0.33220100  0.66779900  0.00000000  1
  O  O21  1  0.33065800  0.66596000  0.25603800  1
  O  O22  1  0.33404000  0.66934200  0.74396200  1
  O  O23  1  0.66758500  0.00496300  0.81995700  1
  O  O24  1  0.01336100  0.66045400  0.56822900  1
  O  O25  1  0.99579100  0.66232100  0.81976400  1
  O  O26  1  0.99964800  0.66724800  0.07665100  1
  O  O27  1  0.33767900  0.00420900  0.18023600  1
  O  O28  1  0.32391000  0.99534200  0.67163300  1
  O  O29  1  0.33954600  0.98663900  0.43177100  1
  O  O30  1  0.33275200  0.00035200  0.92334900  1
loop_
_geom_bond_atom_site_label_1
_geom_bond_atom_site_label_2
_geom_bond_distance
_geom_bond_site_symmetry_2
La0 O26 2.479459 1_555
La0 O4 2.481238 1_565
La0 O5 2.484620 1_565
La0 O11 2.484726 1_665
La0 O16 2.489145 1_555
La0 O27 2.490104 1_665
La0 O6 2.590696 1_555
La0 O1 2.667549 1_655
La1 O0 2.357587 1_645
La1 O18 2.409963 1_545
La1 O2 2.461465 1_555
La1 O13 2.471957 1_555
La1 O8 2.527289 1_655
La1 O12 2.540090 1_645
La1 O29 2.594373 1_645
La1 O6 2.733961 1_545
La2 O0 2.357587 1_645
La2 O10 2.409963 1_655
La2 O15 2.461465 1_555
La2 O3 2.471957 1_555
La2 O17 2.527289 1_545
La2 O28 2.540090 1_645
La2 O24 2.594373 1_645
La2 O7 2.733961 1_655
La3 O30 2.479459 1_555
La3 O14 2.481238 1_455
La3 O23 2.484620 1_455
La3 O19 2.484726 1_445
La3 O9 2.489145 1_555
La3 O25 2.490104 1_445
La3 O7 2.590696 1_555
La3 O1 2.667549 1_546
La4 O27 2.426780 1_555
La4 O5 2.443736 1_555
La4 O16 2.449461 1_555
La4 O26 2.481940 1_555
La4 O11 2.489307 1_555
La4 O4 2.492165 1_555
La5 O10 2.267774 1_555
La5 O3 2.293863 1_555
La5 O24 2.485784 1_655
La5 O15 2.504846 1_555
La5 O28 2.513435 1_545
La5 O17 2.553277 1_555
La6 O18 2.267774 1_555
La6 O13 2.293863 1_555
La6 O29 2.485784 1_545
La6 O2 2.504846 1_555
La6 O12 2.513435 1_655
La6 O8 2.553277 1_555
La7 O25 2.426780 1_555
La7 O23 2.443736 1_555
La7 O9 2.449461 1_555
La7 O30 2.481940 1_555
La7 O19 2.489307 1_555
La7 O14 2.492165 1_555
La8 O9 2.472047 1_555
La8 O23 2.476999 1_565
La8 O25 2.484735 1_455
La8 O30 2.485561 1_565
La8 O19 2.489040 1_555
La8 O14 2.490207 1_455
La8 O22 2.627454 1_555
La8 O20 2.668495 1_556
La9 O13 2.318346 1_455
La9 O18 2.346225 1_555
La9 O8 2.447629 1_555
La9 O29 2.459856 1_555
La9 O2 2.549364 1_565
La9 O12 2.556816 1_555
La9 O21 2.618553 1_555
La10 O3 2.318346 1_565
La10 O10 2.346225 1_555
La10 O17 2.447629 1_555
La10 O24 2.459856 1_555
La10 O15 2.549364 1_455
La10 O28 2.556816 1_555
La10 O22 2.618553 1_555
La11 O16 2.472047 1_555
La11 O5 2.476999 1_455
La11 O27 2.484735 1_565
La11 O26 2.485561 1_455
La11 O11 2.489040 1_555
La11 O4 2.490207 1_565
La11 O21 2.627454 1_555
La11 O20 2.668495 1_555
Cu0 O8 1.866672 1_555
Cu0 O6 1.917772 1_445
Cu0 O5 1.918514 1_455
Cu0 O21 1.944990 1_555
Cu1 O15 1.872190 1_455
Cu1 O9 1.923101 1_555
Cu1 O7 1.923924 1_555
Cu1 O22 1.937669 1_555
Cu2 O1 1.933150 1_545
Cu2 O11 1.934936 1_555
Cu2 O14 1.935228 1_454
Cu2 O20 1.938283 1_555
Cu3 O2 1.872190 1_565
Cu3 O16 1.923101 1_555
Cu3 O6 1.923924 1_555
Cu3 O21 1.937669 1_555
Cu4 O1 1.933150 1_656
Cu4 O19 1.934936 1_555
Cu4 O4 1.935228 1_566
Cu4 O20 1.938283 1_556
Cu5 O17 1.866672 1_555
Cu5 O7 1.917772 1_665
Cu5 O23 1.918514 1_565
Cu5 O22 1.944990 1_555
Cu6 O0 1.788721 1_555
Cu6 O24 1.789227 1_555
Cu6 O29 1.789227 1_555
Cu7 O1 1.925390 1_555
Cu7 O20 1.929883 1_555
Cu7 O30 1.934332 1_564
Cu7 O26 1.934332 1_455
Cu8 O12 1.848987 1_555
Cu8 O27 1.923152 1_565
Cu8 O6 1.932566 1_455
Cu8 O21 1.943852 1_555
Cu9 O28 1.848987 1_555
Cu9 O25 1.923152 1_455
Cu9 O7 1.932566 1_565
Cu9 O22 1.943852 1_555
