# generated using pymatgen
data_Mg10Si3(H2O9)2
_symmetry_space_group_name_H-M   'P 1'
_cell_length_a   5.16371200
_cell_length_b   8.82841900
_cell_length_c   14.13420500
_cell_angle_alpha   90.00000000
_cell_angle_beta   90.00000000
_cell_angle_gamma   90.00000000
_symmetry_Int_Tables_number   1
_chemical_formula_structural   Mg10Si3(H2O9)2
_chemical_formula_sum   'Mg20 Si6 H8 O36'
_cell_volume   644.34184262
_cell_formula_units_Z   2
loop_
 _symmetry_equiv_pos_site_id
 _symmetry_equiv_pos_as_xyz
  1  'x, y, z'
loop_
 _atom_site_type_symbol
 _atom_site_label
 _atom_site_symmetry_multiplicity
 _atom_site_fract_x
 _atom_site_fract_y
 _atom_site_fract_z
 _atom_site_occupancy
  Mg  Mg0  1  0.16342400  0.00000000  0.67339500  1
  Mg  Mg1  1  0.83657600  0.00000000  0.32660500  1
  Mg  Mg2  1  0.66342400  0.50000000  0.82660500  1
  Mg  Mg3  1  0.33657600  0.50000000  0.17339500  1
  Mg  Mg4  1  0.65483600  0.82393200  0.67841200  1
  Mg  Mg5  1  0.34516400  0.82393200  0.32158800  1
  Mg  Mg6  1  0.15483600  0.32393200  0.82158800  1
  Mg  Mg7  1  0.84516400  0.32393200  0.17841200  1
  Mg  Mg8  1  0.15483600  0.67606800  0.82158800  1
  Mg  Mg9  1  0.84516400  0.67606800  0.17841200  1
  Mg  Mg10  1  0.65483600  0.17606800  0.67841200  1
  Mg  Mg11  1  0.34516400  0.17606800  0.32158800  1
  Mg  Mg12  1  0.00000000  0.18073500  0.50000000  1
  Mg  Mg13  1  0.50000000  0.68073500  0.00000000  1
  Mg  Mg14  1  0.00000000  0.81926500  0.50000000  1
  Mg  Mg15  1  0.50000000  0.31926500  0.00000000  1
  Mg  Mg16  1  0.50000000  0.34387600  0.50000000  1
  Mg  Mg17  1  0.00000000  0.84387600  0.00000000  1
  Mg  Mg18  1  0.50000000  0.65612400  0.50000000  1
  Mg  Mg19  1  0.00000000  0.15612400  0.00000000  1
  Si  Si0  1  0.50000000  0.00000000  0.50000000  1
  Si  Si1  1  0.00000000  0.50000000  0.00000000  1
  Si  Si2  1  0.48216000  0.00000000  0.87597600  1
  Si  Si3  1  0.51784000  0.00000000  0.12402400  1
  Si  Si4  1  0.98216000  0.50000000  0.62402400  1
  Si  Si5  1  0.01784000  0.50000000  0.37597600  1
  H  H0  1  0.91903600  0.90003400  0.81025300  1
  H  H1  1  0.08096400  0.90003400  0.18974700  1
  H  H2  1  0.41903600  0.40003400  0.68974700  1
  H  H3  1  0.58096400  0.40003400  0.31025300  1
  H  H4  1  0.41903600  0.59996600  0.68974700  1
  H  H5  1  0.58096400  0.59996600  0.31025300  1
  H  H6  1  0.91903600  0.09996600  0.81025300  1
  H  H7  1  0.08096400  0.09996600  0.18974700  1
  O  O0  1  0.79089300  0.00000000  0.91191900  1
  O  O1  1  0.20910700  0.00000000  0.08808100  1
  O  O2  1  0.29089300  0.50000000  0.58808100  1
  O  O3  1  0.70910700  0.50000000  0.41191900  1
  O  O4  1  0.80361200  0.00000000  0.57914800  1
  O  O5  1  0.19638800  0.00000000  0.42085200  1
  O  O6  1  0.30361200  0.50000000  0.92085200  1
  O  O7  1  0.69638800  0.50000000  0.07914800  1
  O  O8  1  0.47707300  0.66084100  0.75017400  1
  O  O9  1  0.52292700  0.66084100  0.24982600  1
  O  O10  1  0.97707300  0.16084100  0.74982600  1
  O  O11  1  0.02292700  0.16084100  0.25017400  1
  O  O12  1  0.97707300  0.83915900  0.74982600  1
  O  O13  1  0.02292700  0.83915900  0.25017400  1
  O  O14  1  0.47707300  0.33915900  0.75017400  1
  O  O15  1  0.52292700  0.33915900  0.24982600  1
  O  O16  1  0.35505500  0.85551300  0.57344600  1
  O  O17  1  0.64494500  0.85551300  0.42655400  1
  O  O18  1  0.85505500  0.35551300  0.92655400  1
  O  O19  1  0.14494500  0.35551300  0.07344600  1
  O  O20  1  0.85505500  0.64448700  0.92655400  1
  O  O21  1  0.14494500  0.64448700  0.07344600  1
  O  O22  1  0.35505500  0.14448700  0.57344600  1
  O  O23  1  0.64494500  0.14448700  0.42655400  1
  O  O24  1  0.32948500  0.84654300  0.91466500  1
  O  O25  1  0.67051500  0.84654300  0.08533500  1
  O  O26  1  0.82948500  0.34654300  0.58533500  1
  O  O27  1  0.17051500  0.34654300  0.41466500  1
  O  O28  1  0.82948500  0.65345700  0.58533500  1
  O  O29  1  0.17051500  0.65345700  0.41466500  1
  O  O30  1  0.32948500  0.15345700  0.91466500  1
  O  O31  1  0.67051500  0.15345700  0.08533500  1
  O  O32  1  0.48676500  0.00000000  0.75824100  1
  O  O33  1  0.51323500  0.00000000  0.24175900  1
  O  O34  1  0.98676500  0.50000000  0.74175900  1
  O  O35  1  0.01323500  0.50000000  0.25824100  1
loop_
_geom_bond_atom_site_label_1
_geom_bond_atom_site_label_2
_geom_bond_distance
_geom_bond_site_symmetry_2
Mg0 O10 2.027141 1_455
Mg0 O12 2.027141 1_445
Mg0 O32 2.055688 1_555
Mg0 O22 2.145232 1_555
Mg0 O16 2.145232 1_545
Mg0 O4 2.286163 1_455
Mg1 O11 2.027141 1_655
Mg1 O13 2.027141 1_645
Mg1 O33 2.055688 1_555
Mg1 O17 2.145232 1_545
Mg1 O23 2.145232 1_555
Mg1 O5 2.286163 1_655
Mg2 O8 2.027141 1_555
Mg2 O14 2.027141 1_555
Mg2 O34 2.055688 1_555
Mg2 O18 2.145232 1_555
Mg2 O20 2.145232 1_555
Mg2 O6 2.286163 1_555
Mg3 O15 2.027141 1_555
Mg3 O9 2.027141 1_555
Mg3 O35 2.055688 1_555
Mg3 O19 2.145232 1_555
Mg3 O21 2.145232 1_555
Mg3 O7 2.286163 1_555
Mg4 O12 1.950798 1_555
Mg4 O8 1.986077 1_555
Mg4 O32 2.107717 1_565
Mg4 O16 2.162195 1_555
Mg4 O28 2.192973 1_555
Mg4 O4 2.230429 1_565
Mg5 O13 1.950798 1_555
Mg5 O9 1.986077 1_555
Mg5 O33 2.107717 1_565
Mg5 O17 2.162195 1_555
Mg5 O29 2.192973 1_555
Mg5 O5 2.230429 1_565
Mg6 O14 1.950798 1_555
Mg6 O10 1.986077 1_455
Mg6 O34 2.107717 1_455
Mg6 O18 2.162195 1_455
Mg6 O30 2.192973 1_555
Mg6 O6 2.230429 1_555
Mg7 O15 1.950798 1_555
Mg7 O11 1.986077 1_655
Mg7 O35 2.107717 1_655
Mg7 O19 2.162195 1_655
Mg7 O31 2.192973 1_555
Mg7 O7 2.230429 1_555
Mg8 O8 1.950798 1_555
Mg8 O12 1.986077 1_455
Mg8 O34 2.107717 1_455
Mg8 O20 2.162195 1_455
Mg8 O24 2.192973 1_555
Mg8 O6 2.230429 1_555
Mg9 O9 1.950798 1_555
Mg9 O13 1.986077 1_655
Mg9 O35 2.107717 1_655
Mg9 O21 2.162195 1_655
Mg9 O25 2.192973 1_555
Mg9 O7 2.230429 1_555
Mg10 O10 1.950798 1_555
Mg10 O14 1.986077 1_555
Mg10 O32 2.107717 1_555
Mg10 O22 2.162195 1_555
Mg10 O26 2.192973 1_555
Mg10 O4 2.230429 1_555
Mg11 O11 1.950798 1_555
Mg11 O15 1.986077 1_555
Mg11 O33 2.107717 1_555
Mg11 O23 2.162195 1_555
Mg11 O27 2.192973 1_555
Mg11 O5 2.230429 1_555
Mg12 O27 2.091129 1_555
Mg12 O26 2.091129 1_455
Mg12 O22 2.131062 1_555
Mg12 O23 2.131062 1_455
Mg12 O5 2.196773 1_555
Mg12 O4 2.196773 1_455
Mg13 O25 2.091129 1_555
Mg13 O24 2.091129 1_554
Mg13 O21 2.131062 1_555
Mg13 O20 2.131062 1_554
Mg13 O7 2.196773 1_555
Mg13 O6 2.196773 1_554
Mg14 O29 2.091129 1_555
Mg14 O28 2.091129 1_455
Mg14 O17 2.131062 1_455
Mg14 O16 2.131062 1_555
Mg14 O5 2.196773 1_565
Mg14 O4 2.196773 1_465
Mg15 O31 2.091129 1_555
Mg15 O30 2.091129 1_554
Mg15 O19 2.131062 1_555
Mg15 O18 2.131062 1_554
Mg15 O6 2.196773 1_554
Mg15 O7 2.196773 1_555
Mg16 O27 2.085660 1_555
Mg16 O26 2.085660 1_555
Mg16 O2 2.148395 1_555
Mg16 O3 2.148395 1_555
Mg16 O23 2.176340 1_555
Mg16 O22 2.176340 1_555
Mg17 O25 2.085660 1_455
Mg17 O24 2.085660 1_554
Mg17 O0 2.148395 1_464
Mg17 O1 2.148395 1_565
Mg17 O20 2.176340 1_454
Mg17 O21 2.176340 1_555
Mg18 O29 2.085660 1_555
Mg18 O28 2.085660 1_555
Mg18 O2 2.148395 1_555
Mg18 O3 2.148395 1_555
Mg18 O16 2.176340 1_555
Mg18 O17 2.176340 1_555
Mg19 O31 2.085660 1_455
Mg19 O30 2.085660 1_554
Mg19 O1 2.148395 1_555
Mg19 O0 2.148395 1_454
Mg19 O19 2.176340 1_555
Mg19 O18 2.176340 1_454
H0 O12 1.052667 1_555
H1 O13 1.052667 1_555
H2 O14 1.052667 1_555
H3 O15 1.052667 1_555
H4 O8 1.052667 1_555
H5 O9 1.052667 1_555
H6 O10 1.052667 1_555
H7 O11 1.052667 1_555
O0 Si2 1.673198 1_555
O1 Si3 1.673198 1_555
O2 Si4 1.673198 1_455
O3 Si5 1.673198 1_655
O4 Si0 1.925971 1_555
O5 Si0 1.925971 1_555
O6 Si1 1.925971 1_556
O7 Si1 1.925971 1_655
O16 Si0 1.806923 1_565
O17 Si0 1.806923 1_565
O18 Si1 1.806923 1_656
O19 Si1 1.806923 1_555
O20 Si1 1.806923 1_656
O21 Si1 1.806923 1_555
O22 Si0 1.806923 1_555
O23 Si0 1.806923 1_555
O24 Si2 1.660119 1_565
O25 Si3 1.660119 1_565
O26 Si4 1.660119 1_555
O27 Si5 1.660119 1_555
O28 Si4 1.660119 1_555
O29 Si5 1.660119 1_555
O30 Si2 1.660119 1_555
O31 Si3 1.660119 1_555
O32 Si2 1.664261 1_555
O33 Si3 1.664261 1_555
O34 Si4 1.664261 1_555
O35 Si5 1.664261 1_555
