# generated using pymatgen
data_AlAgB
_symmetry_space_group_name_H-M   'P 1'
_cell_length_a   4.02516575
_cell_length_b   4.02516575
_cell_length_c   4.02516575
_cell_angle_alpha   60.00000000
_cell_angle_beta   60.00000000
_cell_angle_gamma   60.00000000
_symmetry_Int_Tables_number   1
_chemical_formula_structural   AlAgB
_chemical_formula_sum   'Al1 Ag1 B1'
_cell_volume   46.11437314
_cell_formula_units_Z   1
loop_
 _symmetry_equiv_pos_site_id
 _symmetry_equiv_pos_as_xyz
  1  'x, y, z'
loop_
 _atom_site_type_symbol
 _atom_site_label
 _atom_site_symmetry_multiplicity
 _atom_site_fract_x
 _atom_site_fract_y
 _atom_site_fract_z
 _atom_site_occupancy
  Al  Al0  1  0.75000000  0.75000000  0.75000000  1
  Ag  Ag0  1  0.50000000  0.50000000  0.50000000  1
  B  B0  1  0.00000000  0.00000000  0.00000000  1
loop_
_geom_bond_atom_site_label_1
_geom_bond_atom_site_label_2
_geom_bond_distance
_geom_bond_site_symmetry_2
Al0 B0 2.464901 1_566
Al0 B0 2.464901 1_656
Al0 B0 2.464901 1_666
Al0 B0 2.464901 1_665
Ag0 Al0 2.464901 1_455
Ag0 Al0 2.464901 1_545
Ag0 Al0 2.464901 1_555
Ag0 Al0 2.464901 1_554
