# generated using pymatgen
data_Sr20Ta8O39
_symmetry_space_group_name_H-M   'P 1'
_cell_length_a   5.94595700
_cell_length_b   5.99903950
_cell_length_c   33.54445625
_cell_angle_alpha   93.47727901
_cell_angle_beta   90.04179099
_cell_angle_gamma   119.58824996
_symmetry_Int_Tables_number   1
_chemical_formula_structural   Sr20Ta8O39
_chemical_formula_sum   'Sr20 Ta8 O39'
_cell_volume   1037.93501303
_cell_formula_units_Z   1
loop_
 _symmetry_equiv_pos_site_id
 _symmetry_equiv_pos_as_xyz
  1  'x, y, z'
loop_
 _atom_site_type_symbol
 _atom_site_label
 _atom_site_symmetry_multiplicity
 _atom_site_fract_x
 _atom_site_fract_y
 _atom_site_fract_z
 _atom_site_occupancy
  Sr  Sr0  1  0.29792800  0.62621800  0.96656600  1
  Sr  Sr1  1  0.63013800  0.29027900  0.83171400  1
  Sr  Sr2  1  0.93826900  0.90458900  0.78080500  1
  Sr  Sr3  1  0.81124500  0.72786900  0.67081600  1
  Sr  Sr4  1  0.95868300  0.95376700  0.89014800  1
  Sr  Sr5  1  0.16722900  0.39727400  0.65267900  1
  Sr  Sr6  1  0.12934700  0.37302800  0.54741200  1
  Sr  Sr7  1  0.24132600  0.56432200  0.76218400  1
  Sr  Sr8  1  0.48610900  0.03353200  0.49155900  1
  Sr  Sr9  1  0.39441700  0.87920400  0.38248300  1
  Sr  Sr10  1  0.47580700  0.05651900  0.59685700  1
  Sr  Sr11  1  0.74874600  0.54699100  0.36466000  1
  Sr  Sr12  1  0.71930000  0.52363600  0.25964200  1
  Sr  Sr13  1  0.80017200  0.70116700  0.47372700  1
  Sr  Sr14  1  0.97110400  0.00884100  0.09374800  1
  Sr  Sr15  1  0.07149300  0.17301200  0.20297100  1
  Sr  Sr16  1  0.05855500  0.20678000  0.30780800  1
  Sr  Sr17  1  0.32719400  0.67047400  0.07583100  1
  Sr  Sr18  1  0.38355300  0.84075400  0.18516200  1
  Sr  Sr19  1  0.62799600  0.28567000  0.02441600  1
  Ta  Ta0  1  0.96986300  0.97712700  0.99563100  1
  Ta  Ta1  1  0.63167400  0.28782400  0.92813000  1
  Ta  Ta2  1  0.27875800  0.59902100  0.86061100  1
  Ta  Ta3  1  0.60983100  0.14846900  0.71664100  1
  Ta  Ta4  1  0.80480900  0.71288600  0.57215400  1
  Ta  Ta5  1  0.17722100  0.28944300  0.42793000  1
  Ta  Ta6  1  0.39270600  0.86235700  0.28384000  1
  Ta  Ta7  1  0.75827600  0.42488900  0.13976300  1
  O  O0  1  0.46253700  0.45363400  0.89542700  1
  O  O1  1  0.29380100  0.11794400  0.95992300  1
  O  O2  1  0.79522700  0.61803700  0.96611500  1
  O  O3  1  0.47264600  0.95742600  0.89012500  1
  O  O4  1  0.55591800  0.68810100  0.82106600  1
  O  O5  1  0.93957600  0.14570200  0.71587700  1
  O  O6  1  0.79269000  0.11083900  0.95828800  1
  O  O7  1  0.97307200  0.46594900  0.89903700  1
  O  O8  1  0.82568000  0.52118000  0.73417500  1
  O  O9  1  0.07050500  0.25429800  0.82973400  1
  O  O10  1  0.90158700  0.49662900  0.60517000  1
  O  O11  1  0.08229700  0.71591700  0.82813300  1
  O  O12  1  0.41788600  0.06825300  0.76425100  1
  O  O13  1  0.44526800  0.77270700  0.69977400  1
  O  O14  1  0.03441800  0.01919600  0.60893700  1
  O  O15  1  0.10564800  0.78871800  0.53540900  1
  O  O16  1  0.50530500  0.64001200  0.60735600  1
  O  O17  1  0.49501700  0.23495800  0.67016000  1
  O  O18  1  0.39527200  0.66481200  0.44441700  1
  O  O19  1  0.56985300  0.40512100  0.53496000  1
  O  O20  1  0.61675400  0.79580500  0.32197400  1
  O  O21  1  0.51113600  0.29098900  0.42775000  1
  O  O22  1  0.71008600  0.93029700  0.54107200  1
  O  O23  1  0.97417100  0.21329000  0.47414700  1
  O  O24  1  0.48216000  0.19023500  0.31695000  1
  O  O25  1  0.02406100  0.91353500  0.41235100  1
  O  O26  1  0.70097300  0.04939600  0.24861600  1
  O  O27  1  0.05899600  0.36494400  0.38090400  1
  O  O28  1  0.08572800  0.67183700  0.31708900  1
  O  O29  1  0.97497000  0.80089200  0.15533800  1
  O  O30  1  0.29705000  0.53277000  0.25125800  1
  O  O31  1  0.15878800  0.88130000  0.03420400  1
  O  O32  1  0.08968300  0.42418500  0.14029800  1
  O  O33  1  0.16690600  0.92327900  0.24673900  1
  O  O34  1  0.56100300  0.34596100  0.18673100  1
  O  O35  1  0.11912700  0.32308500  0.02626100  1
  O  O36  1  0.60077000  0.05123300  0.12290800  1
  O  O37  1  0.66393200  0.86683900  0.02954000  1
  O  O38  1  0.64132500  0.50190000  0.09236400  1
loop_
_geom_bond_atom_site_label_1
_geom_bond_atom_site_label_2
_geom_bond_distance
_geom_bond_site_symmetry_2
O0 Ta1 2.079153 1_555
O0 Ta2 2.093233 1_555
O0 Sr1 2.689723 1_555
O0 Sr0 2.903243 1_555
O0 Sr4 3.010086 1_555
O0 Sr4 3.010330 1_445
O1 Ta1 2.079686 1_555
O1 Ta0 2.092270 1_445
O1 Sr19 2.719641 1_556
O1 Sr4 2.862559 1_445
O1 Sr0 2.983838 1_545
O1 Sr0 3.031714 1_555
O2 Ta0 2.056668 1_555
O2 Ta1 2.069556 1_555
O2 Sr19 2.703134 1_556
O2 Sr0 2.965125 1_655
O2 Sr0 2.981491 1_555
O2 Sr4 3.191842 1_555
O3 Ta2 2.055335 1_555
O3 Ta1 2.070960 1_565
O3 Sr1 2.708128 1_565
O3 Sr4 2.900856 1_555
O3 Sr4 3.045224 1_455
O3 Sr0 3.191492 1_555
O4 Ta2 1.995133 1_555
O4 Sr2 2.445539 1_555
O4 Sr7 2.529161 1_555
O4 Sr1 2.676041 1_555
O4 Sr4 3.069190 1_555
O5 Ta3 1.969071 1_555
O5 Sr3 2.607672 1_545
O5 Sr5 2.641778 1_655
O5 Sr7 2.647992 1_655
O5 Sr2 2.684570 1_545
O6 Ta1 2.049391 1_555
O6 Ta0 2.068044 1_545
O6 Sr19 2.777538 1_556
O6 Sr4 2.783342 1_545
O6 Sr0 2.972672 1_545
O6 Sr0 3.063228 1_655
O7 Ta1 2.049928 1_555
O7 Ta2 2.073103 1_655
O7 Sr0 2.771659 1_655
O7 Sr1 2.819734 1_555
O7 Sr4 3.002223 1_555
O7 Sr4 3.027594 1_545
O8 Ta3 1.999488 1_555
O8 Sr2 2.495330 1_555
O8 Sr7 2.528454 1_655
O8 Sr3 2.546840 1_555
O9 Ta2 2.022927 1_555
O9 Sr2 2.380085 1_445
O9 Sr4 2.657224 1_445
O9 Sr1 2.731975 1_455
O9 Sr7 2.876489 1_555
O9 Sr1 3.226803 1_555
O10 Ta4 2.037488 1_555
O10 Sr5 2.535956 1_655
O10 Sr10 2.601305 1_555
O10 Sr6 2.637944 1_655
O10 Sr3 2.725626 1_555
O11 Ta2 1.985709 1_555
O11 Sr2 2.389169 1_455
O11 Sr1 2.649698 1_455
O11 Sr7 2.687623 1_555
O11 Sr4 2.753454 1_455
O12 Ta3 1.907413 1_555
O12 Sr1 2.541304 1_555
O12 Sr2 2.590060 1_445
O12 Sr7 2.662032 1_545
O13 Ta3 2.006315 1_565
O13 Sr5 2.487764 1_555
O13 Sr7 2.498037 1_555
O13 Sr3 2.510118 1_555
O14 Ta4 2.002008 1_445
O14 Sr5 2.397234 1_555
O14 Sr10 2.556265 1_555
O14 Sr3 2.697711 1_445
O14 Sr6 2.904058 1_555
O15 Ta4 2.047825 1_455
O15 Sr8 2.534577 1_565
O15 Sr13 2.603211 1_455
O15 Sr6 2.620963 1_555
O15 Sr10 2.788143 1_565
O16 Ta4 2.013388 1_555
O16 Sr5 2.419726 1_555
O16 Sr10 2.633903 1_565
O16 Sr3 2.651390 1_555
O16 Sr6 2.769973 1_555
O17 Ta3 1.900703 1_555
O17 Sr10 2.600908 1_555
O17 Sr3 2.604066 1_555
O17 Sr5 2.651874 1_555
O18 Ta5 2.005591 1_555
O18 Sr8 2.465729 1_565
O18 Sr13 2.502476 1_555
O18 Sr9 2.510170 1_555
O19 Ta4 2.021883 1_555
O19 Sr8 2.417814 1_555
O19 Sr6 2.566178 1_555
O19 Sr13 2.700631 1_555
O19 Sr10 2.893223 1_555
O20 Ta6 2.038410 1_555
O20 Sr11 2.511708 1_555
O20 Sr9 2.579101 1_555
O20 Sr16 2.636888 1_665
O20 Sr12 2.824952 1_555
O21 Ta5 1.980897 1_555
O21 Sr9 2.596193 1_545
O21 Sr13 2.597444 1_555
O21 Sr11 2.662588 1_555
O21 Sr8 2.676491 1_555
O22 Ta4 1.998724 1_555
O22 Sr8 2.419029 1_565
O22 Sr6 2.589628 1_665
O22 Sr10 2.624709 1_565
O22 Sr13 2.762577 1_555
O23 Ta5 1.901003 1_655
O23 Sr6 2.578263 1_655
O23 Sr8 2.629465 1_555
O23 Sr13 2.713877 1_545
O24 Ta6 2.021472 1_545
O24 Sr11 2.425897 1_555
O24 Sr16 2.587928 1_555
O24 Sr12 2.714658 1_555
O24 Sr9 2.850267 1_545
O25 Ta5 2.004035 1_565
O25 Sr11 2.467588 1_455
O25 Sr13 2.506265 1_455
O25 Sr9 2.514286 1_555
O26 Ta6 2.036607 1_545
O26 Sr15 2.505438 1_655
O26 Sr18 2.645283 1_545
O26 Sr16 2.671801 1_655
O26 Sr12 2.794414 1_555
O27 Ta5 1.893981 1_555
O27 Sr16 2.574440 1_555
O27 Sr11 2.636833 1_455
O27 Sr9 2.720658 1_555
O28 Ta6 1.994825 1_555
O28 Sr11 2.406192 1_455
O28 Sr12 2.669089 1_455
O28 Sr9 2.671443 1_555
O28 Sr16 2.712189 1_555
O29 Ta7 2.001765 1_555
O29 Sr14 2.483150 1_565
O29 Sr15 2.483268 1_665
O29 Sr18 2.520682 1_655
O30 Ta6 2.013400 1_555
O30 Sr15 2.407188 1_555
O30 Sr12 2.553881 1_555
O30 Sr16 2.673779 1_555
O30 Sr18 2.855540 1_555
O31 Ta0 1.998100 1_454
O31 Sr17 2.452533 1_555
O31 Sr14 2.545848 1_465
O31 Sr19 2.681513 1_565
O31 Sr0 3.000953 1_554
O32 Ta7 1.972691 1_455
O32 Sr18 2.605934 1_555
O32 Sr15 2.631653 1_555
O32 Sr14 2.633502 1_455
O32 Sr17 2.680549 1_555
O33 Ta6 2.005567 1_555
O33 Sr15 2.413878 1_565
O33 Sr18 2.584699 1_555
O33 Sr12 2.616278 1_455
O33 Sr16 2.857506 1_565
O34 Ta7 1.904479 1_555
O34 Sr12 2.587168 1_555
O34 Sr15 2.633166 1_555
O34 Sr18 2.669117 1_545
O35 Ta0 2.017852 1_444
O35 Sr17 2.380983 1_555
O35 Sr0 2.642462 1_554
O35 Sr19 2.816523 1_455
O35 Sr14 2.887114 1_455
O35 Sr19 3.142992 1_555
O36 Ta7 1.998448 1_555
O36 Sr17 2.499354 1_545
O36 Sr18 2.517278 1_545
O36 Sr14 2.529070 1_555
O37 Ta0 1.986531 1_554
O37 Sr17 2.388522 1_555
O37 Sr14 2.633572 1_565
O37 Sr19 2.640225 1_565
O37 Sr0 2.793431 1_554
O38 Ta7 1.905194 1_555
O38 Sr19 2.534484 1_555
O38 Sr17 2.598234 1_555
O38 Sr14 2.681343 1_565
