# generated using pymatgen
data_Na3Zr2Si2PO12
_symmetry_space_group_name_H-M   'P 1'
_cell_length_a   9.16023190
_cell_length_b   9.17160636
_cell_length_c   18.59183150
_cell_angle_alpha   61.46555904
_cell_angle_beta   61.37718037
_cell_angle_gamma   60.02358252
_symmetry_Int_Tables_number   1
_chemical_formula_structural   Na3Zr2Si2PO12
_chemical_formula_sum   'Na12 Zr8 Si8 P4 O48'
_cell_volume   1127.82755017
_cell_formula_units_Z   4
loop_
 _symmetry_equiv_pos_site_id
 _symmetry_equiv_pos_as_xyz
  1  'x, y, z'
loop_
 _atom_site_type_symbol
 _atom_site_label
 _atom_site_symmetry_multiplicity
 _atom_site_fract_x
 _atom_site_fract_y
 _atom_site_fract_z
 _atom_site_occupancy
  Na  Na0  1  0.27303700  0.07829100  0.18721800  1
  Na  Na1  1  0.05712300  0.30635000  0.45813700  1
  Na  Na2  1  0.62936300  0.97223300  0.27228800  1
  Na  Na3  1  0.59839200  0.40257200  0.12478200  1
  Na  Na4  1  0.31350700  0.05388900  0.71395400  1
  Na  Na5  1  0.38177000  0.60608000  0.38001500  1
  Na  Na6  1  0.05564300  0.30508200  0.95750900  1
  Na  Na7  1  0.95046000  0.68468000  0.03739400  1
  Na  Na8  1  0.59771100  0.39344300  0.62945500  1
  Na  Na9  1  0.38321300  0.60285000  0.88053500  1
  Na  Na10  1  0.94582600  0.68878600  0.53764900  1
  Na  Na11  1  0.68954700  0.94948800  0.79147400  1
  Zr  Zr0  1  0.14912200  0.65059000  0.28122200  1
  Zr  Zr1  1  0.64410100  0.14588100  0.02844100  1
  Zr  Zr2  1  0.15445400  0.64946500  0.77921000  1
  Zr  Zr3  1  0.34918300  0.85160200  0.47032800  1
  Zr  Zr4  1  0.64471400  0.14397600  0.52866700  1
  Zr  Zr5  1  0.84956800  0.35008900  0.22177500  1
  Zr  Zr6  1  0.34778200  0.84933300  0.97097600  1
  Zr  Zr7  1  0.85645700  0.34808900  0.71937300  1
  Si  Si0  1  0.24711600  0.47072700  0.11984700  1
  Si  Si1  1  0.04503100  0.95694700  0.37568200  1
  Si  Si2  1  0.47110400  0.24815800  0.36653100  1
  Si  Si3  1  0.52762100  0.75154700  0.13014900  1
  Si  Si4  1  0.24863900  0.47283900  0.61797400  1
  Si  Si5  1  0.04238900  0.95532400  0.87560700  1
  Si  Si6  1  0.47093100  0.24713100  0.86818400  1
  Si  Si7  1  0.52859300  0.75062100  0.63119000  1
  P  P0  1  0.95444700  0.04276000  0.12691400  1
  P  P1  1  0.75146100  0.52974000  0.38085900  1
  P  P2  1  0.95593700  0.04442000  0.62508500  1
  P  P3  1  0.75245100  0.52859900  0.87966600  1
  O  O0  1  0.10903200  0.00185700  0.04496400  1
  O  O1  1  0.99936900  0.12128500  0.29030400  1
  O  O2  1  0.07099400  0.42799800  0.14554900  1
  O  O3  1  0.26161500  0.63168600  0.02684400  1
  O  O4  1  0.10865400  0.00549200  0.54301700  1
  O  O5  1  0.42425700  0.28982100  0.11204600  1
  O  O6  1  0.23698300  0.52961000  0.19280100  1
  O  O7  1  0.06336200  0.76855500  0.37579400  1
  O  O8  1  0.00620300  0.11906700  0.78858100  1
  O  O9  1  0.28558900  0.42100100  0.36123800  1
  O  O10  1  0.43208200  0.06951900  0.39473000  1
  O  O11  1  0.06716100  0.43766600  0.64534700  1
  O  O12  1  0.47847900  0.74857500  0.05709300  1
  O  O13  1  0.77460100  0.07549400  0.12263000  1
  O  O14  1  0.36062100  0.74220700  0.22083800  1
  O  O15  1  0.62897700  0.26920400  0.27288800  1
  O  O16  1  0.23691300  0.93185500  0.37442800  1
  O  O17  1  0.52635500  0.24641500  0.43913300  1
  O  O18  1  0.26464200  0.63298500  0.52527200  1
  O  O19  1  0.55719700  0.93598000  0.10320500  1
  O  O20  1  0.71158000  0.58211200  0.13949400  1
  O  O21  1  0.42255100  0.28984800  0.61133000  1
  O  O22  1  0.24258200  0.52960100  0.69101400  1
  O  O23  1  0.94561100  0.21921700  0.12463700  1
  O  O24  1  0.05913500  0.76779400  0.87573500  1
  O  O25  1  0.75319600  0.48166200  0.31081800  1
  O  O26  1  0.58967900  0.70467000  0.38687600  1
  O  O27  1  0.28543300  0.41799500  0.86045700  1
  O  O28  1  0.43426800  0.06546900  0.89847700  1
  O  O29  1  0.73409900  0.37862600  0.46833800  1
  O  O30  1  0.47489300  0.75486300  0.55797400  1
  O  O31  1  0.77498300  0.07170100  0.62464000  1
  O  O32  1  0.36512000  0.73797700  0.72370100  1
  O  O33  1  0.63483500  0.25983000  0.77680100  1
  O  O34  1  0.23429900  0.92924000  0.87549000  1
  O  O35  1  0.51885700  0.25374600  0.94103800  1
  O  O36  1  0.92382900  0.55905200  0.35541600  1
  O  O37  1  0.56290100  0.93128100  0.60546100  1
  O  O38  1  0.71043600  0.57717500  0.64004700  1
  O  O39  1  0.98092000  0.89143100  0.21033000  1
  O  O40  1  0.94223600  0.22269700  0.62322700  1
  O  O41  1  0.75276500  0.47820200  0.81118000  1
  O  O42  1  0.58868800  0.70204700  0.88761100  1
  O  O43  1  0.88535600  0.99568600  0.46387500  1
  O  O44  1  0.73999000  0.37706400  0.96732300  1
  O  O45  1  0.92260900  0.56439200  0.85215000  1
  O  O46  1  0.98980100  0.89261900  0.70800400  1
  O  O47  1  0.88187400  0.99525000  0.96311400  1
loop_
_geom_bond_atom_site_label_1
_geom_bond_atom_site_label_2
_geom_bond_distance
_geom_bond_site_symmetry_2
Na0 O1 2.289999 1_455
Na0 O19 2.361388 1_545
Na0 O5 2.424087 1_555
Na0 O14 2.589256 1_545
Na0 O2 2.716743 1_555
Na0 O16 2.983682 1_545
Na1 O9 2.346933 1_555
Na1 O4 2.362015 1_555
Na1 O36 2.384791 1_455
Na1 O40 2.565006 1_455
Na1 O29 2.617881 1_455
Na2 O13 2.367221 1_565
Na2 O10 2.373152 1_565
Na2 O26 2.418175 1_555
Na2 O39 2.668967 1_555
Na2 O15 2.727279 1_565
Na3 O5 2.431871 1_555
Na3 O20 2.503889 1_555
Na3 O15 2.517067 1_555
Na3 O13 2.611537 1_555
Na3 O12 2.624212 1_555
Na3 O44 2.649571 1_554
Na3 O6 2.731084 1_555
Na3 O23 2.755989 1_555
Na4 O8 2.361221 1_555
Na4 O21 2.389750 1_555
Na4 O37 2.395230 1_545
Na4 O34 2.512753 1_545
Na4 O32 2.619730 1_545
Na5 O18 2.470078 1_555
Na5 O9 2.476854 1_555
Na5 O7 2.549148 1_555
Na5 O26 2.554372 1_555
Na5 O16 2.563713 1_555
Na5 O14 2.670573 1_555
Na5 O17 2.721886 1_555
Na5 O25 2.803994 1_555
Na6 O27 2.348012 1_555
Na6 O0 2.387433 1_556
Na6 O45 2.432767 1_455
Na6 O44 2.555724 1_455
Na6 O23 2.597254 1_456
Na7 O20 2.376515 1_555
Na7 O47 2.387520 1_554
Na7 O2 2.410745 1_655
Na7 O24 2.511620 1_654
Na7 O3 2.563152 1_655
Na8 O21 2.436812 1_555
Na8 O38 2.489031 1_555
Na8 O33 2.527990 1_555
Na8 O31 2.584062 1_555
Na8 O29 2.680646 1_555
Na8 O22 2.681543 1_555
Na8 O40 2.703723 1_555
Na8 O30 2.741705 1_555
Na9 O3 2.489963 1_556
Na9 O27 2.501697 1_555
Na9 O42 2.539781 1_555
Na9 O34 2.569926 1_555
Na9 O24 2.597381 1_555
Na9 O32 2.621223 1_555
Na9 O35 2.642657 1_555
Na9 O41 2.790721 1_555
Na10 O43 2.364834 1_555
Na10 O11 2.391118 1_655
Na10 O38 2.394253 1_555
Na10 O7 2.515829 1_655
Na10 O18 2.611297 1_655
Na11 O46 2.344237 1_555
Na11 O28 2.374112 1_565
Na11 O42 2.415861 1_555
Na11 O33 2.528020 1_565
Na11 O31 2.592111 1_565
O0 P0 1.554167 1_455
O0 Zr6 2.128616 1_544
O1 Si1 1.639132 1_645
O1 Zr5 2.037915 1_555
O2 Si0 1.642863 1_555
O2 Zr5 2.088034 1_455
O3 Si0 1.650445 1_555
O3 Zr6 2.120073 1_554
O4 P2 1.545591 1_455
O4 Zr3 2.129540 1_545
O5 Si0 1.649551 1_555
O5 Zr1 2.125824 1_555
O6 Si0 1.633723 1_555
O6 Zr0 2.040591 1_555
O7 Si1 1.649442 1_555
O7 Zr0 2.126954 1_555
O8 Si5 1.636473 1_545
O8 Zr7 2.044251 1_455
O9 Si2 1.652185 1_555
O9 Zr0 2.090049 1_555
O10 Si2 1.634643 1_555
O10 Zr3 2.087346 1_545
O11 Si4 1.641666 1_555
O11 Zr7 2.062452 1_455
O12 Si3 1.637568 1_555
O12 Zr6 2.041594 1_554
O13 P0 1.555356 1_555
O13 Zr1 2.250927 1_555
O14 Si3 1.646857 1_555
O14 Zr0 2.088432 1_555
O15 Si2 1.644797 1_555
O15 Zr5 2.126309 1_555
O16 Si1 1.644569 1_555
O16 Zr3 2.127183 1_555
O17 Si2 1.644443 1_555
O17 Zr4 2.011502 1_555
O18 Si4 1.644355 1_555
O18 Zr3 2.121425 1_555
O19 Si3 1.644399 1_555
O19 Zr1 2.046145 1_565
O20 Si3 1.640257 1_555
O20 Zr5 2.126243 1_555
O21 Si4 1.645494 1_555
O21 Zr4 2.130840 1_555
O22 Si4 1.640875 1_555
O22 Zr2 2.028810 1_555
O23 P0 1.560279 1_555
O23 Zr5 2.229297 1_555
O24 Si5 1.647592 1_555
O24 Zr2 2.138506 1_555
O25 P1 1.553107 1_555
O25 Zr5 2.102374 1_555
O26 P1 1.555466 1_555
O26 Zr3 2.198321 1_555
O27 Si6 1.649727 1_555
O27 Zr2 2.086991 1_555
O28 Si6 1.639338 1_555
O28 Zr6 2.089870 1_545
O29 P1 1.552500 1_555
O29 Zr4 2.266034 1_555
O30 Si7 1.633464 1_555
O30 Zr3 2.040601 1_555
O31 P2 1.551438 1_555
O31 Zr4 2.273027 1_555
O32 Si7 1.652097 1_555
O32 Zr2 2.074849 1_555
O33 Si6 1.641969 1_555
O33 Zr7 2.157855 1_555
O34 Si5 1.650505 1_555
O34 Zr6 2.129101 1_555
O35 Si6 1.644960 1_555
O35 Zr1 2.012860 1_556
O36 P1 1.541479 1_555
O36 Zr0 2.182701 1_655
O37 Si7 1.640774 1_555
O37 Zr4 2.044606 1_565
O38 Si7 1.642240 1_555
O38 Zr7 2.121314 1_555
O39 P0 1.535537 1_565
O39 Zr0 2.180271 1_655
O40 P2 1.560635 1_555
O40 Zr7 2.202405 1_555
O41 P3 1.546718 1_555
O41 Zr7 2.121238 1_555
O42 P3 1.558945 1_555
O42 Zr6 2.200288 1_555
O43 Si1 1.641232 1_655
O43 Zr4 2.045778 1_565
O44 P3 1.554654 1_555
O44 Zr1 2.271893 1_556
O45 P3 1.544635 1_555
O45 Zr2 2.200873 1_655
O46 P2 1.545069 1_565
O46 Zr2 2.175332 1_655
O47 Si5 1.637726 1_655
O47 Zr1 2.046793 1_566
