# generated using pymatgen
data_Na3Li3Al2F12
_symmetry_space_group_name_H-M   'P 1'
_cell_length_a   10.38128904
_cell_length_b   10.38128904
_cell_length_c   10.38128904
_cell_angle_alpha   109.47122063
_cell_angle_beta   109.47122063
_cell_angle_gamma   109.47122063
_symmetry_Int_Tables_number   1
_chemical_formula_structural   Na3Li3Al2F12
_chemical_formula_sum   'Na12 Li12 Al8 F48'
_cell_volume   861.25539996
_cell_formula_units_Z   4
loop_
 _symmetry_equiv_pos_site_id
 _symmetry_equiv_pos_as_xyz
  1  'x, y, z'
loop_
 _atom_site_type_symbol
 _atom_site_label
 _atom_site_symmetry_multiplicity
 _atom_site_fract_x
 _atom_site_fract_y
 _atom_site_fract_z
 _atom_site_occupancy
  Na  Na0  1  0.87500000  0.75000000  0.62500000  1
  Na  Na1  1  0.62500000  0.25000000  0.87500000  1
  Na  Na2  1  0.25000000  0.87500000  0.62500000  1
  Na  Na3  1  0.87500000  0.62500000  0.25000000  1
  Na  Na4  1  0.62500000  0.87500000  0.75000000  1
  Na  Na5  1  0.75000000  0.62500000  0.87500000  1
  Na  Na6  1  0.12500000  0.25000000  0.37500000  1
  Na  Na7  1  0.37500000  0.75000000  0.12500000  1
  Na  Na8  1  0.75000000  0.12500000  0.37500000  1
  Na  Na9  1  0.12500000  0.37500000  0.75000000  1
  Na  Na10  1  0.25000000  0.37500000  0.12500000  1
  Na  Na11  1  0.37500000  0.12500000  0.25000000  1
  Li  Li0  1  0.62500000  0.37500000  0.25000000  1
  Li  Li1  1  0.25000000  0.12500000  0.87500000  1
  Li  Li2  1  0.75000000  0.87500000  0.12500000  1
  Li  Li3  1  0.12500000  0.75000000  0.87500000  1
  Li  Li4  1  0.37500000  0.25000000  0.62500000  1
  Li  Li5  1  0.87500000  0.12500000  0.75000000  1
  Li  Li6  1  0.87500000  0.25000000  0.12500000  1
  Li  Li7  1  0.62500000  0.75000000  0.37500000  1
  Li  Li8  1  0.75000000  0.37500000  0.62500000  1
  Li  Li9  1  0.37500000  0.62500000  0.75000000  1
  Li  Li10  1  0.12500000  0.87500000  0.25000000  1
  Li  Li11  1  0.25000000  0.62500000  0.37500000  1
  Al  Al0  1  0.50000000  0.50000000  0.50000000  1
  Al  Al1  1  0.50000000  -0.00000000  0.50000000  1
  Al  Al2  1  0.00000000  0.50000000  0.50000000  1
  Al  Al3  1  0.50000000  0.50000000  0.00000000  1
  Al  Al4  1  0.00000000  -0.00000000  0.50000000  1
  Al  Al5  1  0.00000000  0.50000000  0.00000000  1
  Al  Al6  1  0.50000000  -0.00000000  0.00000000  1
  Al  Al7  1  0.00000000  -0.00000000  0.00000000  1
  F  F0  1  0.48396472  0.38936747  0.31336877  1
  F  F1  1  0.90540275  0.38936747  0.57599869  1
  F  F2  1  0.01603528  0.18663123  0.11063253  1
  F  F3  1  0.59459725  0.17059594  0.48396472  1
  F  F4  1  0.57599869  0.90540275  0.38936747  1
  F  F5  1  0.01603528  0.32940406  0.90540275  1
  F  F6  1  0.92400131  0.11063253  0.59459725  1
  F  F7  1  0.38936747  0.31336877  0.48396472  1
  F  F8  1  0.18663123  0.11063253  0.01603528  1
  F  F9  1  0.31336877  0.32940406  0.92400131  1
  F  F10  1  0.92400131  0.31336877  0.32940406  1
  F  F11  1  0.38936747  0.57599869  0.90540275  1
  F  F12  1  0.18663123  0.57599869  0.17059594  1
  F  F13  1  0.17059594  0.48396472  0.59459725  1
  F  F14  1  0.17059594  0.18663123  0.57599869  1
  F  F15  1  0.11063253  0.01603528  0.18663123  1
  F  F16  1  0.57599869  0.17059594  0.18663123  1
  F  F17  1  0.48396472  0.59459725  0.17059594  1
  F  F18  1  0.59459725  0.92400131  0.11063253  1
  F  F19  1  0.32940406  0.90540275  0.01603528  1
  F  F20  1  0.67059594  0.07599869  0.68663123  1
  F  F21  1  0.09459725  0.98396472  0.67059594  1
  F  F22  1  0.68663123  0.51603528  0.61063253  1
  F  F23  1  0.61063253  0.68663123  0.51603528  1
  F  F24  1  0.88936747  0.40540275  0.07599869  1
  F  F25  1  0.07599869  0.88936747  0.40540275  1
  F  F26  1  0.98396472  0.67059594  0.09459725  1
  F  F27  1  0.42400131  0.09459725  0.61063253  1
  F  F28  1  0.40540275  0.82940406  0.51603528  1
  F  F29  1  0.98396472  0.81336877  0.88936747  1
  F  F30  1  0.09459725  0.61063253  0.42400131  1
  F  F31  1  0.51603528  0.40540275  0.82940406  1
  F  F32  1  0.81336877  0.88936747  0.98396472  1
  F  F33  1  0.68663123  0.67059594  0.07599869  1
  F  F34  1  0.07599869  0.68663123  0.67059594  1
  F  F35  1  0.61063253  0.42400131  0.09459725  1
  F  F36  1  0.81336877  0.42400131  0.82940406  1
  F  F37  1  0.82940406  0.51603528  0.40540275  1
  F  F38  1  0.82940406  0.81336877  0.42400131  1
  F  F39  1  0.88936747  0.98396472  0.81336877  1
  F  F40  1  0.42400131  0.82940406  0.81336877  1
  F  F41  1  0.40540275  0.07599869  0.88936747  1
  F  F42  1  0.67059594  0.09459725  0.98396472  1
  F  F43  1  0.51603528  0.61063253  0.68663123  1
  F  F44  1  0.32940406  0.92400131  0.31336877  1
  F  F45  1  0.90540275  0.01603528  0.32940406  1
  F  F46  1  0.31336877  0.48396472  0.38936747  1
  F  F47  1  0.11063253  0.59459725  0.92400131  1
loop_
_geom_bond_atom_site_label_1
_geom_bond_atom_site_label_2
_geom_bond_distance
_geom_bond_site_symmetry_2
Al0 F0 1.809596 1_555
Al0 F7 1.809596 1_555
Al0 F46 1.809596 1_555
Al0 F22 1.809596 1_555
Al0 F43 1.809596 1_555
Al0 F23 1.809596 1_555
Al1 F3 1.809596 1_555
Al1 F27 1.809596 1_555
Al1 F28 1.809596 1_545
Al1 F4 1.809596 1_545
Al1 F44 1.809596 1_545
Al1 F20 1.809596 1_555
Al2 F13 1.809596 1_555
Al2 F30 1.809596 1_555
Al2 F37 1.809596 1_455
Al2 F1 1.809596 1_455
Al2 F10 1.809596 1_455
Al2 F34 1.809596 1_555
Al3 F35 1.809596 1_555
Al3 F17 1.809596 1_555
Al3 F31 1.809596 1_554
Al3 F11 1.809596 1_554
Al3 F9 1.809596 1_554
Al3 F33 1.809596 1_555
Al4 F25 1.809596 1_545
Al4 F21 1.809596 1_545
Al4 F45 1.809596 1_455
Al4 F6 1.809596 1_455
Al4 F14 1.809596 1_555
Al4 F38 1.809596 1_445
Al5 F24 1.809596 1_455
Al5 F5 1.809596 1_554
Al5 F26 1.809596 1_455
Al5 F47 1.809596 1_554
Al5 F12 1.809596 1_555
Al5 F36 1.809596 1_454
Al6 F42 1.809596 1_554
Al6 F41 1.809596 1_554
Al6 F19 1.809596 1_545
Al6 F18 1.809596 1_545
Al6 F16 1.809596 1_555
Al6 F40 1.809596 1_544
Al7 F15 1.809596 1_555
Al7 F32 1.809596 1_444
Al7 F39 1.809596 1_444
Al7 F29 1.809596 1_444
Al7 F8 1.809596 1_555
Al7 F2 1.809596 1_555
F0 Li0 1.822354 1_555
F0 Na11 2.339889 1_555
F0 Na10 2.478550 1_555
F1 Li8 1.822354 1_555
F1 Na8 2.339889 1_555
F1 Na9 2.478550 1_655
F2 Li6 1.822354 1_455
F2 Na6 2.339889 1_555
F2 Na10 2.478550 1_555
F3 Li8 1.822354 1_555
F3 Na8 2.339889 1_555
F3 Na11 2.478550 1_555
F4 Li7 1.822354 1_555
F4 Na7 2.339889 1_555
F4 Na8 2.478550 1_565
F5 Li5 1.822354 1_455
F5 Na9 2.339889 1_555
F5 Na10 2.478550 1_556
F6 Li5 1.822354 1_555
F6 Na9 2.339889 1_655
F6 Na8 2.478550 1_555
F7 Li4 1.822354 1_555
F7 Na6 2.339889 1_555
F7 Na11 2.478550 1_555
F8 Li1 1.822354 1_554
F8 Na10 2.339889 1_555
F8 Na11 2.478550 1_555
F9 Li1 1.822354 1_555
F9 Na10 2.339889 1_556
F9 Na9 2.478550 1_555
F10 Li6 1.822354 1_555
F10 Na6 2.339889 1_655
F10 Na8 2.478550 1_555
F11 Li9 1.822354 1_555
F11 Na9 2.339889 1_555
F11 Na7 2.478550 1_556
F12 Li11 1.822354 1_555
F12 Na10 2.339889 1_555
F12 Na7 2.478550 1_555
F13 Li9 1.822354 1_555
F13 Na9 2.339889 1_555
F13 Na6 2.478550 1_555
F14 Li4 1.822354 1_555
F14 Na6 2.339889 1_555
F14 Na9 2.478550 1_555
F15 Li10 1.822354 1_545
F15 Na11 2.339889 1_555
F15 Na6 2.478550 1_555
F16 Li0 1.822354 1_555
F16 Na11 2.339889 1_555
F16 Na8 2.478550 1_555
F17 Li7 1.822354 1_555
F17 Na7 2.339889 1_555
F17 Na10 2.478550 1_555
F18 Li2 1.822354 1_555
F18 Na8 2.339889 1_565
F18 Na7 2.478550 1_555
F19 Li3 1.822354 1_554
F19 Na7 2.339889 1_555
F19 Na11 2.478550 1_565
F20 Li5 1.822354 1_555
F20 Na4 2.339889 1_545
F20 Na1 2.478550 1_555
F21 Li1 1.822354 1_565
F21 Na2 2.339889 1_555
F21 Na0 2.478550 1_455
F22 Li8 1.822354 1_555
F22 Na5 2.339889 1_555
F22 Na0 2.478550 1_555
F23 Li7 1.822354 1_555
F23 Na0 2.339889 1_555
F23 Na4 2.478550 1_555
F24 Li6 1.822354 1_555
F24 Na1 2.339889 1_554
F24 Na3 2.478550 1_555
F25 Li10 1.822354 1_555
F25 Na3 2.339889 1_455
F25 Na2 2.478550 1_555
F26 Li10 1.822354 1_655
F26 Na3 2.339889 1_555
F26 Na5 2.478550 1_554
F27 Li4 1.822354 1_555
F27 Na1 2.339889 1_555
F27 Na2 2.478550 1_545
F28 Li11 1.822354 1_555
F28 Na2 2.339889 1_555
F28 Na4 2.478550 1_555
F29 Li3 1.822354 1_655
F29 Na0 2.339889 1_555
F29 Na5 2.478550 1_555
F30 Li11 1.822354 1_555
F30 Na2 2.339889 1_555
F30 Na3 2.478550 1_455
F31 Li4 1.822354 1_555
F31 Na1 2.339889 1_555
F31 Na5 2.478550 1_555
F32 Li2 1.822354 1_556
F32 Na5 2.339889 1_555
F32 Na4 2.478550 1_555
F33 Li2 1.822354 1_555
F33 Na5 2.339889 1_554
F33 Na3 2.478550 1_555
F34 Li3 1.822354 1_555
F34 Na0 2.339889 1_455
F34 Na2 2.478550 1_555
F35 Li0 1.822354 1_555
F35 Na3 2.339889 1_555
F35 Na1 2.478550 1_554
F36 Li8 1.822354 1_555
F36 Na5 2.339889 1_555
F36 Na1 2.478550 1_555
F37 Li0 1.822354 1_555
F37 Na3 2.339889 1_555
F37 Na0 2.478550 1_555
F38 Li7 1.822354 1_555
F38 Na0 2.339889 1_555
F38 Na3 2.478550 1_555
F39 Li5 1.822354 1_565
F39 Na4 2.339889 1_555
F39 Na0 2.478550 1_555
F40 Li9 1.822354 1_555
F40 Na4 2.339889 1_555
F40 Na2 2.478550 1_555
F41 Li1 1.822354 1_555
F41 Na2 2.339889 1_545
F41 Na1 2.478550 1_555
F42 Li6 1.822354 1_556
F42 Na1 2.339889 1_555
F42 Na4 2.478550 1_545
F43 Li9 1.822354 1_555
F43 Na4 2.339889 1_555
F43 Na5 2.478550 1_555
F44 Li10 1.822354 1_555
F44 Na11 2.339889 1_565
F44 Na7 2.478550 1_555
F45 Li2 1.822354 1_545
F45 Na8 2.339889 1_555
F45 Na6 2.478550 1_655
F46 Li11 1.822354 1_555
F46 Na10 2.339889 1_555
F46 Na6 2.478550 1_555
F47 Li3 1.822354 1_555
F47 Na7 2.339889 1_556
F47 Na9 2.478550 1_555
