# generated using pymatgen
data_Pr3PtI3
_symmetry_space_group_name_H-M   'P 1'
_cell_length_a   10.94031136
_cell_length_b   10.93966380
_cell_length_c   10.94040693
_cell_angle_alpha   109.27752457
_cell_angle_beta   109.85643763
_cell_angle_gamma   109.27538121
_symmetry_Int_Tables_number   1
_chemical_formula_structural   Pr3PtI3
_chemical_formula_sum   'Pr12 Pt4 I12'
_cell_volume   1007.99236591
_cell_formula_units_Z   4
loop_
 _symmetry_equiv_pos_site_id
 _symmetry_equiv_pos_as_xyz
  1  'x, y, z'
loop_
 _atom_site_type_symbol
 _atom_site_label
 _atom_site_symmetry_multiplicity
 _atom_site_fract_x
 _atom_site_fract_y
 _atom_site_fract_z
 _atom_site_occupancy
  Pr  Pr0  1  0.04112724  0.26924668  0.02154988  1
  Pr  Pr1  1  0.74771965  0.01956851  0.47841061  1
  Pr  Pr2  1  0.26921111  0.75002401  0.23073513  1
  Pr  Pr3  1  0.48075004  0.75001413  0.01922151  1
  Pr  Pr4  1  0.75231611  0.23080325  0.27193896  1
  Pr  Pr5  1  0.02158603  0.48043255  0.75236082  1
  Pr  Pr6  1  0.22810577  0.26921035  0.74770987  1
  Pr  Pr7  1  0.47841921  0.23075173  0.45885408  1
  Pr  Pr8  1  0.45889876  0.48042829  0.22809388  1
  Pr  Pr9  1  0.27185464  0.01958114  0.04108376  1
  Pr  Pr10  1  0.01923779  0.03847377  0.26926120  1
  Pr  Pr11  1  0.23079951  0.46155985  0.48080843  1
  Pt  Pt0  1  0.49987477  -0.00023732  0.24985875  1
  Pt  Pt1  1  0.25014131  0.50026608  0.00013322  1
  Pt  Pt2  1  0.24986214  0.25000547  0.25012717  1
  Pt  Pt3  1  0.00014934  0.25002493  0.49990177  1
  I  I0  1  0.75904429  0.74083366  0.25069821  1
  I  I1  1  0.99020423  0.50842647  0.24932984  1
  I  I2  1  0.24915188  0.75909165  0.74089710  1
  I  I3  1  0.75869747  0.51729811  0.50870964  1
  I  I4  1  0.50861111  0.24987483  0.99125871  1
  I  I5  1  0.74095451  0.99171193  0.98184257  1
  I  I6  1  0.99133468  0.98271257  0.74140827  1
  I  I7  1  0.51824616  0.50838922  0.75914936  1
  I  I8  1  0.25072783  0.99154384  0.50984987  1
  I  I9  1  0.74144168  0.24990348  0.75847763  1
  I  I10  1  0.50980805  0.75919463  0.51819305  1
  I  I11  1  0.98172469  0.74086719  0.99013669  1
loop_
_geom_bond_atom_site_label_1
_geom_bond_atom_site_label_2
_geom_bond_distance
_geom_bond_site_symmetry_2
Pr0 Pt2 2.880686 1_555
Pr0 Pt1 2.934356 1_555
Pr1 Pt0 2.880972 1_555
Pr1 Pt3 2.934080 1_655
Pr2 Pt0 2.930564 1_565
Pr2 Pt1 2.930586 1_555
Pr3 Pt0 2.930409 1_565
Pr3 Pt1 2.930515 1_555
Pr4 Pt3 2.880865 1_655
Pr4 Pt0 2.934133 1_555
Pr5 Pt1 2.880343 1_556
Pr5 Pt3 2.934255 1_555
Pr6 Pt3 2.880867 1_555
Pr6 Pt1 2.934291 1_556
Pr7 Pt2 2.880584 1_555
Pr7 Pt0 2.934240 1_555
Pr8 Pt1 2.880678 1_555
Pr8 Pt2 2.934624 1_555
Pr9 Pt0 2.881048 1_555
Pr9 Pt2 2.934324 1_555
Pr10 Pt3 2.930500 1_555
Pr10 Pt2 2.930652 1_555
Pr11 Pt3 2.930569 1_555
Pr11 Pt2 2.930620 1_555
I0 Pr3 3.290148 1_555
I0 Pr1 3.311039 1_565
I0 Pr8 3.430211 1_555
I0 Pr10 3.434776 1_665
I1 Pr11 3.290080 1_655
I1 Pr0 3.311638 1_655
I1 Pr4 3.431234 1_555
I1 Pr2 3.434330 1_655
I2 Pr3 3.290333 1_556
I2 Pr5 3.310716 1_555
I2 Pr9 3.430323 1_566
I2 Pr11 3.434591 1_555
I3 Pr4 3.303010 1_555
I3 Pr7 3.303809 1_555
I3 Pr5 3.436224 1_655
I3 Pr8 3.437162 1_555
I4 Pr9 3.303169 1_556
I4 Pr8 3.304347 1_556
I4 Pr6 3.436269 1_555
I4 Pr4 3.436593 1_556
I5 Pr10 3.290074 1_666
I5 Pr4 3.311446 1_566
I5 Pr0 3.430538 1_666
I5 Pr3 3.434764 1_556
I6 Pr0 3.303147 1_666
I6 Pr6 3.303595 1_665
I6 Pr9 3.435790 1_666
I6 Pr1 3.436681 1_565
I7 Pr11 3.290256 1_555
I7 Pr6 3.311815 1_555
I7 Pr7 3.431253 1_555
I7 Pr3 3.434210 1_556
I8 Pr10 3.290575 1_565
I8 Pr7 3.311912 1_565
I8 Pr6 3.431404 1_565
I8 Pr2 3.433860 1_555
I9 Pr1 3.301778 1_555
I9 Pr5 3.302371 1_655
I9 Pr0 3.436180 1_656
I9 Pr7 3.436586 1_555
I10 Pr2 3.289806 1_555
I10 Pr8 3.312141 1_555
I10 Pr1 3.430875 1_565
I10 Pr11 3.434698 1_555
I11 Pr2 3.290099 1_656
I11 Pr9 3.311903 1_666
I11 Pr5 3.430994 1_655
I11 Pr10 3.434419 1_666
