# generated using pymatgen
data_Ge3Pb11O17
_symmetry_space_group_name_H-M   'P 1'
_cell_length_a   7.48772656
_cell_length_b   20.26390763
_cell_length_c   22.61864394
_cell_angle_alpha   92.38406799
_cell_angle_beta   95.14934497
_cell_angle_gamma   97.44520207
_symmetry_Int_Tables_number   1
_chemical_formula_structural   Ge3Pb11O17
_chemical_formula_sum   'Ge18 Pb66 O102'
_cell_volume   3384.34602793
_cell_formula_units_Z   6
loop_
 _symmetry_equiv_pos_site_id
 _symmetry_equiv_pos_as_xyz
  1  'x, y, z'
loop_
 _atom_site_type_symbol
 _atom_site_label
 _atom_site_symmetry_multiplicity
 _atom_site_fract_x
 _atom_site_fract_y
 _atom_site_fract_z
 _atom_site_occupancy
  Ge  Ge0  1  0.11265844  0.22216921  0.57669817  1
  Ge  Ge1  1  0.11471631  0.02870888  0.85446773  1
  Ge  Ge2  1  0.16525899  0.44564772  0.42359513  1
  Ge  Ge3  1  0.88528369  0.97129112  0.14553227  1
  Ge  Ge4  1  0.51790229  0.11018211  0.41720457  1
  Ge  Ge5  1  0.08003503  0.50654000  0.84534271  1
  Ge  Ge6  1  0.78221224  0.35990713  0.85040253  1
  Ge  Ge7  1  0.83474101  0.55435228  0.57640487  1
  Ge  Ge8  1  0.40821196  0.17577222  0.85369191  1
  Ge  Ge9  1  0.91996497  0.49346000  0.15465729  1
  Ge  Ge10  1  0.21778776  0.64009287  0.14959747  1
  Ge  Ge11  1  0.76137752  0.84087407  0.85541536  1
  Ge  Ge12  1  0.54943963  0.30502022  0.14993700  1
  Ge  Ge13  1  0.59178804  0.82422778  0.14630809  1
  Ge  Ge14  1  0.48209771  0.88981789  0.58279543  1
  Ge  Ge15  1  0.45056037  0.69497978  0.85006300  1
  Ge  Ge16  1  0.88734156  0.77783079  0.42330183  1
  Ge  Ge17  1  0.23862248  0.15912593  0.14458464  1
  Pb  Pb0  1  0.08853473  0.41623499  0.99509665  1
  Pb  Pb1  1  0.30745843  0.46055466  0.72203179  1
  Pb  Pb2  1  0.91895321  0.88460843  0.29429716  1
  Pb  Pb3  1  0.11177089  0.71018936  0.29874134  1
  Pb  Pb4  1  0.25222106  0.74907316  0.00804948  1
  Pb  Pb5  1  0.66001355  0.62224847  0.72013308  1
  Pb  Pb6  1  0.94756161  0.61124960  0.42075197  1
  Pb  Pb7  1  0.31976678  0.27440685  0.41343662  1
  Pb  Pb8  1  0.68023322  0.72559315  0.58656338  1
  Pb  Pb9  1  0.40831750  0.88317462  0.28115916  1
  Pb  Pb10  1  0.58848022  0.51928662  0.86293971  1
  Pb  Pb11  1  0.29378140  0.95365853  0.72684846  1
  Pb  Pb12  1  0.28762228  0.35156604  0.86385914  1
  Pb  Pb13  1  0.62989127  0.01542513  0.86341583  1
  Pb  Pb14  1  0.71237772  0.64843396  0.13614086  1
  Pb  Pb15  1  0.98656147  0.78779766  0.72153855  1
  Pb  Pb16  1  0.01343853  0.21220234  0.27846145  1
  Pb  Pb17  1  0.83243462  0.37061960  0.30124664  1
  Pb  Pb18  1  0.92094186  0.19638409  0.86206045  1
  Pb  Pb19  1  0.51265155  0.37768472  0.57210019  1
  Pb  Pb20  1  0.43498720  0.28615775  0.71812386  1
  Pb  Pb21  1  0.69254157  0.53944534  0.27796821  1
  Pb  Pb22  1  0.33998645  0.37775153  0.27986692  1
  Pb  Pb23  1  0.58536406  0.41784616  0.00763722  1
  Pb  Pb24  1  0.70621860  0.04634147  0.27315154  1
  Pb  Pb25  1  0.37010873  0.98457487  0.13658417  1
  Pb  Pb26  1  0.41151978  0.48071338  0.13706029  1
  Pb  Pb27  1  0.91365043  0.08690157  0.00663499  1
  Pb  Pb28  1  0.56501280  0.71384225  0.28187614  1
  Pb  Pb29  1  0.16633882  0.72547770  0.55766659  1
  Pb  Pb30  1  0.08104679  0.11539157  0.70570284  1
  Pb  Pb31  1  0.22158521  0.95481418  0.44180474  1
  Pb  Pb32  1  0.64353707  0.45617296  0.42453038  1
  Pb  Pb33  1  0.16756538  0.62938040  0.69875336  1
  Pb  Pb34  1  0.78914259  0.45469372  0.70385946  1
  Pb  Pb35  1  0.74784308  0.14982209  0.13465216  1
  Pb  Pb36  1  0.05243839  0.38875040  0.57924803  1
  Pb  Pb37  1  0.98700695  0.87734415  0.57850286  1
  Pb  Pb38  1  0.71703292  0.95335265  0.41468529  1
  Pb  Pb39  1  0.41463594  0.58215384  0.99236278  1
  Pb  Pb40  1  0.21085741  0.54530628  0.29614054  1
  Pb  Pb41  1  0.35646293  0.54382704  0.57546962  1
  Pb  Pb42  1  0.25215692  0.85017791  0.86534784  1
  Pb  Pb43  1  0.75488726  0.74849545  0.99748388  1
  Pb  Pb44  1  0.05104966  0.32354610  0.13693493  1
  Pb  Pb45  1  0.59168250  0.11682538  0.71884084  1
  Pb  Pb46  1  0.48734845  0.62231528  0.42789981  1
  Pb  Pb47  1  0.08634957  0.91309843  0.99336501  1
  Pb  Pb48  1  0.88822911  0.28981064  0.70125866  1
  Pb  Pb49  1  0.41073034  0.08147746  0.99775501  1
  Pb  Pb50  1  0.52262474  0.21339938  0.28832810  1
  Pb  Pb51  1  0.19914535  0.04808486  0.28601664  1
  Pb  Pb52  1  0.47737526  0.78660062  0.71167190  1
  Pb  Pb53  1  0.83366118  0.27452230  0.44233341  1
  Pb  Pb54  1  0.94895034  0.67645390  0.86306507  1
  Pb  Pb55  1  0.80085465  0.95191514  0.71398336  1
  Pb  Pb56  1  0.28296708  0.04664735  0.58531471  1
  Pb  Pb57  1  0.58926966  0.91852254  0.00224499  1
  Pb  Pb58  1  0.07905814  0.80361591  0.13793955  1
  Pb  Pb59  1  0.01299305  0.12265585  0.42149714  1
  Pb  Pb60  1  0.58456596  0.20263081  0.57472527  1
  Pb  Pb61  1  0.24511274  0.25150455  0.00251612  1
  Pb  Pb62  1  0.77841479  0.04518582  0.55819526  1
  Pb  Pb63  1  0.74777894  0.25092684  0.99195052  1
  Pb  Pb64  1  0.91146527  0.58376501  0.00490335  1
  Pb  Pb65  1  0.41543404  0.79736919  0.42527473  1
  O  O0  1  0.29916296  0.68815227  0.21601491  1
  O  O1  1  0.23904225  0.30224949  0.60101195  1
  O  O2  1  0.36235514  0.47724159  0.03878620  1
  O  O3  1  0.96868929  0.59131241  0.31570628  1
  O  O4  1  0.92029880  0.43110538  0.82393107  1
  O  O5  1  0.39208102  0.78365901  0.32119036  1
  O  O6  1  0.62394661  0.17936004  0.89323590  1
  O  O7  1  0.27766619  0.23405705  0.88346938  1
  O  O8  1  0.31339762  0.05837916  0.68976701  1
  O  O9  1  0.59077960  0.77341751  0.86917945  1
  O  O10  1  0.97690661  0.10523030  0.31065924  1
  O  O11  1  0.26756854  0.48384457  0.89021471  1
  O  O12  1  0.87992509  0.79182597  0.49975578  1
  O  O13  1  0.31540861  0.85451239  0.96314410  1
  O  O14  1  0.42362633  0.90340285  0.39560589  1
  O  O15  1  0.64182968  0.06034019  0.37294977  1
  O  O16  1  0.92690963  0.43332315  0.40212900  1
  O  O17  1  0.38575105  0.56563753  0.68210505  1
  O  O18  1  0.19795109  0.96274042  0.89164094  1
  O  O19  1  0.96911751  0.19333333  0.96097624  1
  O  O20  1  0.55239447  0.63374809  0.88864697  1
  O  O21  1  0.03131071  0.40868759  0.68429372  1
  O  O22  1  0.63764486  0.52275841  0.96121380  1
  O  O23  1  0.35817032  0.93965981  0.62705023  1
  O  O24  1  0.70622377  0.73076721  0.69139382  1
  O  O25  1  0.03088249  0.80666667  0.03902376  1
  O  O26  1  0.60474111  0.39031001  0.88588926  1
  O  O27  1  0.04388860  0.43742850  0.11764927  1
  O  O28  1  0.39738888  0.05626955  0.46420514  1
  O  O29  1  0.30807363  0.35799062  0.96210964  1
  O  O30  1  0.80204891  0.03725958  0.10835906  1
  O  O31  1  0.04002079  0.17836836  0.10346762  1
  O  O32  1  0.98123502  0.77348371  0.61641524  1
  O  O33  1  0.57637367  0.09659715  0.60439411  1
  O  O34  1  0.74116659  0.47550707  0.60114912  1
  O  O35  1  0.10836019  0.76946641  0.40028896  1
  O  O36  1  0.01876498  0.22651629  0.38358476  1
  O  O37  1  0.37605339  0.82063996  0.10676410  1
  O  O38  1  0.59480121  0.82198375  0.22472815  1
  O  O39  1  0.93034859  0.06180533  0.88348240  1
  O  O40  1  0.07309037  0.56667685  0.59787100  1
  O  O41  1  0.43354633  0.68312906  0.77103225  1
  O  O42  1  0.33454822  0.70712904  0.64156258  1
  O  O43  1  0.63955799  0.84913900  0.62776926  1
  O  O44  1  0.95611140  0.56257150  0.88235073  1
  O  O45  1  0.69013463  0.90779808  0.13079472  1
  O  O46  1  0.13917632  0.53262841  0.77514286  1
  O  O47  1  0.65446890  0.35175666  0.66327403  1
  O  O48  1  0.60261112  0.94373045  0.53579486  1
  O  O49  1  0.40922040  0.22658249  0.13082055  1
  O  O50  1  0.66721403  0.90879350  0.88665163  1
  O  O51  1  0.34553110  0.64824334  0.33672597  1
  O  O52  1  0.61424895  0.43436247  0.31789495  1
  O  O53  1  0.07970120  0.56889462  0.17606893  1
  O  O54  1  0.74737326  0.61775751  0.61912914  1
  O  O55  1  0.92415279  0.31503156  0.89578904  1
  O  O56  1  0.02309339  0.89476970  0.68934076  1
  O  O57  1  0.91779354  0.02673470  0.64651137  1
  O  O58  1  0.40519879  0.17801625  0.77527185  1
  O  O59  1  0.31178247  0.83154497  0.54084678  1
  O  O60  1  0.22812076  0.44202037  0.50016939  1
  O  O61  1  0.36044201  0.15086100  0.37223074  1
  O  O62  1  0.30986537  0.09220192  0.86920528  1
  O  O63  1  0.89163981  0.23053359  0.59971104  1
  O  O64  1  0.06316503  0.01185652  0.77612618  1
  O  O65  1  0.75057170  0.28511551  0.12178540  1
  O  O66  1  0.25262674  0.38224249  0.38087086  1
  O  O67  1  0.70083704  0.31184773  0.78398509  1
  O  O68  1  0.12007491  0.20817403  0.50024422  1
  O  O69  1  0.37062626  0.97487090  0.03890901  1
  O  O70  1  0.76095775  0.69775051  0.39898805  1
  O  O71  1  0.03851666  0.31423544  0.03900555  1
  O  O72  1  0.77187924  0.55797963  0.49983061  1
  O  O73  1  0.33285057  0.44237262  0.61735329  1
  O  O74  1  0.39525889  0.60968999  0.11411074  1
  O  O75  1  0.95997921  0.82163164  0.89653238  1
  O  O76  1  0.68459139  0.14548761  0.03685590  1
  O  O77  1  0.07584721  0.68496844  0.10421096  1
  O  O78  1  0.33278597  0.09120650  0.11334837  1
  O  O79  1  0.72233381  0.76594295  0.11653062  1
  O  O80  1  0.21152846  0.15364291  0.22093749  1
  O  O81  1  0.68660238  0.94162084  0.31023299  1
  O  O82  1  0.93683497  0.98814348  0.22387382  1
  O  O83  1  0.96148334  0.68576456  0.96099445  1
  O  O84  1  0.78847154  0.84635709  0.77906251  1
  O  O85  1  0.20578730  0.15937577  0.61841934  1
  O  O86  1  0.60791898  0.21634099  0.67880964  1
  O  O87  1  0.73243146  0.51615543  0.10978529  1
  O  O88  1  0.68821753  0.16845503  0.45915322  1
  O  O89  1  0.06965141  0.93819467  0.11651760  1
  O  O90  1  0.08220646  0.97326530  0.35348863  1
  O  O91  1  0.29377623  0.26923279  0.30860618  1
  O  O92  1  0.66545178  0.29287096  0.35843742  1
  O  O93  1  0.79421270  0.84062423  0.38158066  1
  O  O94  1  0.66714943  0.55762738  0.38264671  1
  O  O95  1  0.56645367  0.31687094  0.22896775  1
  O  O96  1  0.62937374  0.02512910  0.96109099  1
  O  O97  1  0.86082368  0.46737159  0.22485714  1
  O  O98  1  0.44760553  0.36625191  0.11135303  1
  O  O99  1  0.25883341  0.52449293  0.39885088  1
  O  O100  1  0.24942830  0.71488449  0.87821460  1
  O  O101  1  0.69192637  0.64200938  0.03789036  1
loop_
_geom_bond_atom_site_label_1
_geom_bond_atom_site_label_2
_geom_bond_distance
_geom_bond_site_symmetry_2
Ge0 O68 1.747700 1_555
Ge0 O85 1.790982 1_555
Ge0 O63 1.805114 1_455
Ge0 O1 1.807103 1_555
Ge1 O18 1.760034 1_545
Ge1 O39 1.775443 1_455
Ge1 O64 1.788364 1_555
Ge1 O62 1.814204 1_555
Ge2 O60 1.760686 1_555
Ge2 O16 1.789443 1_455
Ge2 O99 1.792073 1_555
Ge2 O66 1.800177 1_555
Ge3 O30 1.760034 1_565
Ge3 O89 1.775443 1_655
Ge3 O82 1.788364 1_555
Ge3 O45 1.814204 1_555
Ge4 O28 1.775186 1_555
Ge4 O15 1.791262 1_555
Ge4 O61 1.791846 1_555
Ge4 O88 1.794516 1_555
Ge5 O46 1.769788 1_555
Ge5 O11 1.778696 1_555
Ge5 O44 1.784450 1_455
Ge5 O4 1.833670 1_455
Ge6 O67 1.771074 1_555
Ge6 O55 1.772751 1_555
Ge6 O26 1.775434 1_555
Ge6 O4 1.818105 1_555
Ge7 O72 1.760686 1_555
Ge7 O40 1.789443 1_655
Ge7 O34 1.792073 1_555
Ge7 O54 1.800177 1_555
Ge8 O6 1.766208 1_555
Ge8 O58 1.774423 1_555
Ge8 O7 1.776306 1_555
Ge8 O62 1.818199 1_555
Ge9 O97 1.769788 1_555
Ge9 O87 1.778696 1_555
Ge9 O27 1.784450 1_655
Ge9 O53 1.833670 1_655
Ge10 O0 1.771074 1_555
Ge10 O77 1.772751 1_555
Ge10 O74 1.775434 1_555
Ge10 O53 1.818105 1_555
Ge11 O84 1.763246 1_555
Ge11 O50 1.774976 1_555
Ge11 O75 1.777792 1_555
Ge11 O9 1.803173 1_555
Ge12 O98 1.760241 1_555
Ge12 O65 1.773256 1_555
Ge12 O95 1.784595 1_555
Ge12 O49 1.801254 1_555
Ge13 O37 1.766208 1_555
Ge13 O38 1.774423 1_555
Ge13 O79 1.776306 1_555
Ge13 O45 1.818199 1_555
Ge14 O48 1.775186 1_555
Ge14 O23 1.791262 1_555
Ge14 O43 1.791846 1_555
Ge14 O59 1.794516 1_555
Ge15 O20 1.760241 1_555
Ge15 O100 1.773256 1_555
Ge15 O41 1.784595 1_555
Ge15 O9 1.801254 1_555
Ge16 O12 1.747700 1_555
Ge16 O93 1.790982 1_555
Ge16 O35 1.805114 1_655
Ge16 O70 1.807103 1_555
Ge17 O80 1.763246 1_555
Ge17 O78 1.774976 1_555
Ge17 O31 1.777792 1_555
Ge17 O49 1.803173 1_555
O0 Pb28 2.363756 1_555
O0 Pb3 2.496720 1_555
O1 Pb36 2.418700 1_555
O1 Pb19 2.544323 1_555
O2 Pb26 2.216939 1_555
O2 Pb23 2.322673 1_555
O2 Pb0 2.363538 1_554
O2 Pb39 2.412308 1_554
O3 Pb40 2.213775 1_655
O3 Pb21 2.270257 1_555
O3 Pb6 2.416145 1_555
O3 Pb3 2.565106 1_655
O5 Pb9 2.238153 1_555
O5 Pb28 2.246272 1_555
O5 Pb65 2.347199 1_555
O5 Pb3 2.411559 1_555
O6 Pb18 2.380025 1_555
O6 Pb63 2.637943 1_555
O7 Pb12 2.433141 1_555
O7 Pb18 2.675898 1_455
O7 Pb61 2.737858 1_556
O8 Pb30 2.256163 1_555
O8 Pb45 2.286198 1_555
O8 Pb11 2.305981 1_545
O8 Pb56 2.352184 1_555
O10 Pb51 2.243413 1_655
O10 Pb24 2.287383 1_555
O10 Pb16 2.305956 1_655
O10 Pb59 2.502556 1_655
O11 Pb10 2.554612 1_555
O11 Pb12 2.747785 1_555
O12 Pb37 2.438279 1_555
O13 Pb42 2.215863 1_555
O13 Pb47 2.342850 1_555
O13 Pb57 2.357815 1_556
O13 Pb4 2.413593 1_556
O14 Pb31 2.251124 1_555
O14 Pb65 2.272446 1_555
O14 Pb38 2.292272 1_555
O14 Pb9 2.593925 1_555
O15 Pb24 2.363440 1_555
O15 Pb38 2.509902 1_545
O16 Pb32 2.324071 1_555
O16 Pb17 2.560801 1_555
O17 Pb33 2.257455 1_555
O17 Pb5 2.294213 1_555
O17 Pb1 2.371719 1_555
O17 Pb41 2.419126 1_555
O18 Pb42 2.427258 1_555
O18 Pb47 2.706292 1_555
O19 Pb18 2.238762 1_555
O19 Pb63 2.289381 1_555
O19 Pb61 2.339029 1_656
O19 Pb27 2.433241 1_556
O20 Pb10 2.422666 1_555
O21 Pb34 2.213775 1_455
O21 Pb1 2.270257 1_555
O21 Pb36 2.416145 1_555
O21 Pb48 2.565106 1_455
O22 Pb10 2.216939 1_555
O22 Pb39 2.322673 1_555
O22 Pb64 2.363538 1_556
O22 Pb23 2.412308 1_556
O23 Pb11 2.363440 1_555
O23 Pb56 2.509902 1_565
O24 Pb52 2.242109 1_555
O24 Pb15 2.292487 1_555
O24 Pb5 2.310855 1_555
O24 Pb8 2.358450 1_555
O25 Pb58 2.238762 1_555
O25 Pb4 2.289381 1_555
O25 Pb43 2.339029 1_454
O25 Pb47 2.433241 1_554
O26 Pb12 2.403096 1_555
O26 Pb10 2.701670 1_555
O27 Pb44 2.372819 1_555
O27 Pb26 2.768551 1_555
O28 Pb31 2.304009 1_545
O29 Pb12 2.211032 1_555
O29 Pb0 2.302530 1_555
O29 Pb61 2.385691 1_556
O29 Pb23 2.387916 1_556
O30 Pb35 2.427258 1_555
O30 Pb27 2.706292 1_555
O31 Pb35 2.366717 1_455
O31 Pb27 2.821973 1_455
O32 Pb29 2.281569 1_655
O32 Pb37 2.302144 1_555
O32 Pb8 2.362809 1_555
O32 Pb15 2.379497 1_555
O33 Pb62 2.251124 1_555
O33 Pb60 2.272446 1_555
O33 Pb56 2.292272 1_555
O33 Pb45 2.593925 1_555
O34 Pb34 2.382229 1_555
O34 Pb19 2.469744 1_555
O35 Pb65 2.308472 1_555
O35 Pb3 2.551088 1_555
O36 Pb53 2.281569 1_455
O36 Pb59 2.302144 1_555
O36 Pb7 2.362809 1_555
O36 Pb16 2.379497 1_555
O37 Pb58 2.380025 1_555
O37 Pb4 2.637943 1_555
O38 Pb9 2.398628 1_555
O38 Pb28 2.585234 1_555
O39 Pb13 2.320325 1_555
O39 Pb18 2.798276 1_555
O39 Pb27 2.827482 1_556
O40 Pb41 2.324071 1_555
O40 Pb33 2.560801 1_555
O41 Pb52 2.538051 1_555
O41 Pb5 2.548978 1_555
O41 Pb33 2.555523 1_555
O42 Pb29 2.253126 1_555
O42 Pb52 2.299696 1_555
O42 Pb33 2.380798 1_555
O43 Pb52 2.626242 1_555
O43 Pb8 2.698792 1_555
O44 Pb54 2.372819 1_555
O44 Pb10 2.768551 1_555
O46 Pb1 2.401369 1_555
O46 Pb33 2.667240 1_555
O47 Pb34 2.310842 1_555
O47 Pb19 2.344800 1_555
O47 Pb48 2.401396 1_555
O47 Pb20 2.438040 1_555
O48 Pb62 2.304009 1_565
O50 Pb13 2.290822 1_565
O50 Pb57 2.734279 1_556
O51 Pb40 2.310842 1_555
O51 Pb46 2.344800 1_555
O51 Pb3 2.401396 1_555
O51 Pb28 2.438040 1_555
O52 Pb17 2.257455 1_555
O52 Pb22 2.294213 1_555
O52 Pb21 2.371719 1_555
O52 Pb32 2.419126 1_555
O54 Pb5 2.433478 1_555
O54 Pb8 2.433600 1_555
O55 Pb18 2.488411 1_555
O56 Pb55 2.243413 1_455
O56 Pb11 2.287383 1_555
O56 Pb15 2.305956 1_455
O56 Pb37 2.502556 1_455
O57 Pb62 2.237938 1_555
O57 Pb30 2.334791 1_655
O57 Pb55 2.341526 1_545
O58 Pb45 2.398628 1_555
O58 Pb20 2.585234 1_555
O59 Pb29 2.342262 1_555
O60 Pb36 2.511958 1_555
O60 Pb41 2.642049 1_555
O61 Pb50 2.626242 1_555
O61 Pb7 2.698792 1_555
O63 Pb60 2.308472 1_555
O63 Pb48 2.551088 1_555
O64 Pb55 2.460263 1_445
O64 Pb11 2.525631 1_545
O64 Pb30 2.683360 1_555
O65 Pb44 2.274038 1_655
O65 Pb35 2.766635 1_555
O66 Pb22 2.433478 1_555
O66 Pb7 2.433600 1_555
O67 Pb20 2.363756 1_555
O67 Pb48 2.496720 1_555
O68 Pb59 2.438279 1_555
O69 Pb25 2.210247 1_555
O69 Pb57 2.306758 1_555
O69 Pb49 2.381754 1_564
O69 Pb47 2.442859 1_554
O70 Pb6 2.418700 1_555
O70 Pb46 2.544323 1_555
O71 Pb44 2.207734 1_555
O71 Pb61 2.311187 1_555
O71 Pb0 2.331455 1_554
O71 Pb63 2.502891 1_454
O72 Pb6 2.511958 1_555
O72 Pb32 2.642049 1_555
O73 Pb19 2.274108 1_555
O73 Pb41 2.291988 1_555
O73 Pb36 2.310424 1_555
O73 Pb1 2.409194 1_555
O74 Pb14 2.403096 1_555
O74 Pb26 2.701670 1_555
O75 Pb42 2.366717 1_655
O75 Pb47 2.821973 1_655
O76 Pb35 2.215863 1_555
O76 Pb27 2.342850 1_555
O76 Pb49 2.357815 1_554
O76 Pb63 2.413593 1_554
O77 Pb58 2.488411 1_555
O78 Pb25 2.290822 1_545
O78 Pb49 2.734279 1_554
O79 Pb14 2.433141 1_555
O79 Pb58 2.675898 1_655
O79 Pb43 2.737858 1_554
O80 Pb16 2.444409 1_555
O80 Pb51 2.643074 1_555
O80 Pb50 2.773793 1_555
O81 Pb2 2.256163 1_555
O81 Pb9 2.286198 1_555
O81 Pb24 2.305981 1_565
O81 Pb38 2.352184 1_555
O82 Pb51 2.460263 1_665
O82 Pb24 2.525631 1_565
O82 Pb2 2.683360 1_555
O83 Pb54 2.207734 1_555
O83 Pb43 2.311187 1_555
O83 Pb64 2.331455 1_556
O83 Pb4 2.502891 1_656
O84 Pb15 2.444409 1_555
O84 Pb55 2.643074 1_555
O84 Pb52 2.773793 1_555
O85 Pb30 2.413722 1_555
O85 Pb56 2.527893 1_555
O86 Pb45 2.238153 1_555
O86 Pb20 2.246272 1_555
O86 Pb60 2.347199 1_555
O86 Pb48 2.411559 1_555
O87 Pb26 2.554612 1_555
O87 Pb14 2.747785 1_555
O88 Pb53 2.342262 1_555
O89 Pb25 2.320325 1_555
O89 Pb58 2.798276 1_555
O89 Pb47 2.827482 1_554
O90 Pb31 2.237938 1_555
O90 Pb2 2.334791 1_455
O90 Pb51 2.341526 1_565
O91 Pb50 2.242109 1_555
O91 Pb16 2.292487 1_555
O91 Pb22 2.310855 1_555
O91 Pb7 2.358450 1_555
O92 Pb53 2.253126 1_555
O92 Pb50 2.299696 1_555
O92 Pb17 2.380798 1_555
O93 Pb2 2.413722 1_555
O93 Pb38 2.527893 1_555
O94 Pb46 2.274108 1_555
O94 Pb32 2.291988 1_555
O94 Pb6 2.310424 1_555
O94 Pb21 2.409194 1_555
O95 Pb50 2.538051 1_555
O95 Pb22 2.548978 1_555
O95 Pb17 2.555523 1_555
O96 Pb13 2.210247 1_555
O96 Pb49 2.306758 1_555
O96 Pb57 2.381754 1_546
O96 Pb27 2.442859 1_556
O97 Pb21 2.401369 1_555
O97 Pb17 2.667240 1_555
O98 Pb26 2.422666 1_555
O99 Pb40 2.382229 1_555
O99 Pb46 2.469744 1_555
O100 Pb54 2.274038 1_455
O100 Pb42 2.766635 1_555
O101 Pb14 2.211032 1_555
O101 Pb64 2.302530 1_555
O101 Pb43 2.385691 1_554
O101 Pb39 2.387916 1_554
