# generated using pymatgen
data_Rb2Cr4Cu(HO4)4
_symmetry_space_group_name_H-M   'P 1'
_cell_length_a   7.60516200
_cell_length_b   7.74932548
_cell_length_c   7.79430050
_cell_angle_alpha   92.04722633
_cell_angle_beta   117.04421841
_cell_angle_gamma   98.76413408
_symmetry_Int_Tables_number   1
_chemical_formula_structural   Rb2Cr4Cu(HO4)4
_chemical_formula_sum   'Rb2 Cr4 Cu1 H4 O16'
_cell_volume   401.46420550
_cell_formula_units_Z   1
loop_
 _symmetry_equiv_pos_site_id
 _symmetry_equiv_pos_as_xyz
  1  'x, y, z'
loop_
 _atom_site_type_symbol
 _atom_site_label
 _atom_site_symmetry_multiplicity
 _atom_site_fract_x
 _atom_site_fract_y
 _atom_site_fract_z
 _atom_site_occupancy
  Rb  Rb0  1  0.75478200  0.84392100  0.26788200  1
  Rb  Rb1  1  0.24521800  0.15607900  0.73211800  1
  Cr  Cr0  1  0.75427100  0.33106800  0.52202100  1
  Cr  Cr1  1  0.69912000  0.85049400  0.75577500  1
  Cr  Cr2  1  0.24572900  0.66893200  0.47797900  1
  Cr  Cr3  1  0.30088000  0.14950600  0.24422500  1
  Cu  Cu0  1  0.00000000  0.50000000  0.00000000  1
  H  H0  1  0.67092200  0.37216400  0.96282100  1
  H  H1  1  0.76981500  0.20465800  0.98726900  1
  H  H2  1  0.32907800  0.62783600  0.03717900  1
  H  H3  1  0.23018500  0.79534200  0.01273100  1
  O  O0  1  0.51272600  0.21383600  0.47933700  1
  O  O1  1  0.74249400  0.67634500  0.87187800  1
  O  O2  1  0.79572700  0.33159700  0.04109100  1
  O  O3  1  0.72523300  0.51746900  0.43470700  1
  O  O4  1  0.88869500  0.93350600  0.72246600  1
  O  O5  1  0.25750600  0.32365500  0.12812200  1
  O  O6  1  0.34777000  0.00312500  0.11801300  1
  O  O7  1  0.08416500  0.64232700  0.24080700  1
  O  O8  1  0.27476700  0.48253100  0.56529300  1
  O  O9  1  0.11130500  0.06649400  0.27753400  1
  O  O10  1  0.65223000  0.99687500  0.88198700  1
  O  O11  1  0.20427300  0.66840300  0.95890900  1
  O  O12  1  0.83974300  0.21409800  0.41109400  1
  O  O13  1  0.16025700  0.78590200  0.58890600  1
  O  O14  1  0.48727400  0.78616400  0.52066300  1
  O  O15  1  0.91583500  0.35767300  0.75919300  1
loop_
_geom_bond_atom_site_label_1
_geom_bond_atom_site_label_2
_geom_bond_distance
_geom_bond_site_symmetry_2
Cr0 O12 1.620595 1_555
Cr0 O3 1.621488 1_555
Cr0 O15 1.673202 1_555
Cr0 O0 1.795724 1_555
Cr1 O4 1.621586 1_555
Cr1 O1 1.643302 1_555
Cr1 O10 1.656566 1_555
Cr1 O14 1.790970 1_555
Cr2 O13 1.620595 1_555
Cr2 O8 1.621488 1_555
Cr2 O7 1.673202 1_555
Cr2 O14 1.795724 1_555
Cr3 O9 1.621586 1_555
Cr3 O5 1.643302 1_555
Cr3 O6 1.656566 1_555
Cr3 O0 1.790970 1_555
Cu0 O7 1.921845 1_555
Cu0 O15 1.921845 1_454
Cu0 O11 2.020789 1_554
Cu0 O2 2.020789 1_455
Cu0 O1 2.415488 1_454
Cu0 O5 2.415488 1_555
H0 O2 0.974669 1_556
H0 Rb1 3.059080 1_555
H1 O2 1.009324 1_556
H2 O11 0.974669 1_554
H2 Rb0 3.059080 1_555
H3 O11 1.009324 1_554
O0 Rb1 3.413461 1_555
O1 Rb0 3.261347 1_556
O3 Rb0 2.910075 1_555
O4 Rb1 2.951685 1_665
O4 Rb0 3.224994 1_555
O5 Rb1 3.261347 1_554
O6 Rb1 3.076225 1_554
O6 Rb0 3.232134 1_545
O7 Rb0 3.226428 1_455
O8 Rb1 2.910075 1_555
O9 Rb0 2.951685 1_445
O9 Rb1 3.224994 1_555
O10 Rb0 3.076225 1_556
O10 Rb1 3.232134 1_565
O12 Rb0 2.905683 1_545
O12 Rb1 3.075473 1_655
O13 Rb1 2.905683 1_565
O13 Rb0 3.075473 1_455
O14 Rb0 3.413461 1_555
O15 Rb1 3.226428 1_655
