# generated using pymatgen
data_Na3Ca7Ti7Nb3O30
_symmetry_space_group_name_H-M   'P 1'
_cell_length_a   3.93422200
_cell_length_b   7.86796500
_cell_length_c   19.63077850
_cell_angle_alpha   89.97761088
_cell_angle_beta   90.00000000
_cell_angle_gamma   90.00000000
_symmetry_Int_Tables_number   1
_chemical_formula_structural   Na3Ca7Ti7Nb3O30
_chemical_formula_sum   'Na3 Ca7 Ti7 Nb3 O30'
_cell_volume   607.65737270
_cell_formula_units_Z   1
loop_
 _symmetry_equiv_pos_site_id
 _symmetry_equiv_pos_as_xyz
  1  'x, y, z'
loop_
 _atom_site_type_symbol
 _atom_site_label
 _atom_site_symmetry_multiplicity
 _atom_site_fract_x
 _atom_site_fract_y
 _atom_site_fract_z
 _atom_site_occupancy
  Na  Na0  1  0.00000000  0.99698500  0.00739900  1
  Na  Na1  1  0.00000000  0.99098100  0.79608400  1
  Na  Na2  1  0.00000000  0.50858700  0.79695300  1
  Ca  Ca0  1  0.00000000  0.99653300  0.19802700  1
  Ca  Ca1  1  0.00000000  0.50656200  0.01422900  1
  Ca  Ca2  1  0.00000000  0.99789700  0.39794400  1
  Ca  Ca3  1  0.00000000  0.50212600  0.39797900  1
  Ca  Ca4  1  0.00000000  0.98445000  0.59610300  1
  Ca  Ca5  1  0.00000000  0.50328400  0.19769800  1
  Ca  Ca6  1  0.00000000  0.51555600  0.59608700  1
  Ti  Ti0  1  0.50000000  0.75330600  0.10094800  1
  Ti  Ti1  1  0.50000000  0.74970200  0.29938300  1
  Ti  Ti2  1  0.50000000  0.24827800  0.10390200  1
  Ti  Ti3  1  0.50000000  0.75002800  0.49809900  1
  Ti  Ti4  1  0.50000000  0.25031800  0.30046000  1
  Ti  Ti5  1  0.50000000  0.74983600  0.69726300  1
  Ti  Ti6  1  0.50000000  0.25000100  0.49780800  1
  Nb  Nb0  1  0.50000000  0.74944200  0.89804200  1
  Nb  Nb1  1  0.50000000  0.25025400  0.69891100  1
  Nb  Nb2  1  0.50000000  0.25003500  0.90329000  1
  O  O0  1  0.00000000  0.74114600  0.10410200  1
  O  O1  1  0.00000000  0.25851300  0.10373000  1
  O  O2  1  0.00000000  0.75030700  0.30134900  1
  O  O3  1  0.00000000  0.24968100  0.30086300  1
  O  O4  1  0.00000000  0.75000400  0.50061800  1
  O  O5  1  0.00000000  0.24999000  0.49879400  1
  O  O6  1  0.00000000  0.74207300  0.90348800  1
  O  O7  1  0.00000000  0.24983400  0.69365000  1
  O  O8  1  0.00000000  0.25710900  0.90212400  1
  O  O9  1  0.50000000  0.99962700  0.10648600  1
  O  O10  1  0.50000000  0.73706400  0.00296200  1
  O  O11  1  0.50000000  0.99977000  0.30083900  1
  O  O12  1  0.50000000  0.74764500  0.20146500  1
  O  O13  1  0.50000000  0.49987900  0.10222500  1
  O  O14  1  0.50000000  0.26087800  0.00315200  1
  O  O15  1  0.50000000  0.99922400  0.49975400  1
  O  O16  1  0.50000000  0.75009600  0.40012000  1
  O  O17  1  0.50000000  0.50020100  0.30151600  1
  O  O18  1  0.50000000  0.25230800  0.20140300  1
  O  O19  1  0.50000000  0.99769200  0.69332500  1
  O  O20  1  0.50000000  0.75002600  0.59770000  1
  O  O21  1  0.50000000  0.50077800  0.49972600  1
  O  O22  1  0.50000000  0.24988100  0.39964600  1
  O  O23  1  0.50000000  0.99921700  0.90181500  1
  O  O24  1  0.50000000  0.74869000  0.79838700  1
  O  O25  1  0.50000000  0.50233700  0.69293100  1
  O  O26  1  0.50000000  0.25001500  0.59701800  1
  O  O27  1  0.50000000  0.50027000  0.90288300  1
  O  O28  1  0.50000000  0.25140400  0.79915200  1
  O  O29  1  0.00000000  0.75017500  0.69216600  1
loop_
_geom_bond_atom_site_label_1
_geom_bond_atom_site_label_2
_geom_bond_distance
_geom_bond_site_symmetry_2
Na0 O0 2.766345 1_555
Na0 O9 2.766517 1_555
Na0 O9 2.766517 1_455
Na0 O1 2.795214 1_565
Na0 O10 2.838922 1_555
Na0 O10 2.838922 1_455
Na0 O23 2.857599 1_554
Na0 O23 2.857599 1_454
Na0 O6 2.861256 1_554
Na0 O14 2.861357 1_565
Na0 O14 2.861357 1_465
Na0 O8 2.907992 1_564
Na1 O24 2.739639 1_555
Na1 O24 2.739639 1_455
Na1 O29 2.784654 1_555
Na1 O19 2.818064 1_455
Na1 O19 2.818064 1_555
Na1 O28 2.841064 1_465
Na1 O28 2.841064 1_565
Na1 O23 2.860397 1_555
Na1 O23 2.860397 1_455
Na1 O7 2.861517 1_565
Na1 O6 2.877074 1_555
Na1 O8 2.953138 1_565
Na2 O24 2.727479 1_555
Na2 O24 2.727479 1_455
Na2 O6 2.784169 1_555
Na2 O29 2.800261 1_555
Na2 O28 2.822393 1_455
Na2 O28 2.822393 1_555
Na2 O25 2.835828 1_455
Na2 O25 2.835828 1_555
Na2 O8 2.859068 1_555
Na2 O27 2.863210 1_455
Na2 O27 2.863210 1_555
Na2 O7 2.874092 1_555
Ca0 O9 2.664464 1_455
Ca0 O9 2.664464 1_555
Ca0 O0 2.727666 1_555
Ca0 O1 2.769914 1_565
Ca0 O12 2.776453 1_455
Ca0 O12 2.776453 1_555
Ca0 O2 2.804285 1_555
Ca0 O18 2.814941 1_565
Ca0 O18 2.814941 1_465
Ca0 O11 2.818451 1_555
Ca0 O11 2.818451 1_455
Ca0 O3 2.836477 1_565
Ca1 O0 2.553786 1_555
Ca1 O13 2.618441 1_455
Ca1 O13 2.618441 1_555
Ca1 O1 2.625487 1_555
Ca1 O10 2.684625 1_555
Ca1 O10 2.684625 1_455
Ca1 O14 2.766542 1_455
Ca1 O14 2.766542 1_555
Ca1 O6 2.855943 1_554
Ca1 O27 2.941058 1_554
Ca1 O27 2.941058 1_454
Ca1 O8 2.949345 1_554
Ca2 O2 2.719083 1_555
Ca2 O11 2.739251 1_555
Ca2 O11 2.739251 1_455
Ca2 O3 2.748363 1_565
Ca2 O16 2.769941 1_455
Ca2 O16 2.769941 1_555
Ca2 O22 2.793099 1_565
Ca2 O22 2.793099 1_465
Ca2 O5 2.802971 1_565
Ca2 O4 2.804205 1_555
Ca2 O15 2.804299 1_455
Ca2 O15 2.804299 1_555
Ca3 O2 2.721833 1_555
Ca3 O17 2.730506 1_455
Ca3 O17 2.730506 1_555
Ca3 O3 2.753664 1_555
Ca3 O16 2.770890 1_455
Ca3 O16 2.770890 1_555
Ca3 O22 2.794530 1_555
Ca3 O22 2.794530 1_455
Ca3 O5 2.801630 1_555
Ca3 O21 2.803412 1_455
Ca3 O21 2.803412 1_555
Ca3 O4 2.804724 1_555
Ca4 O4 2.630369 1_555
Ca4 O29 2.636499 1_555
Ca4 O20 2.696743 1_455
Ca4 O20 2.696743 1_555
Ca4 O15 2.731352 1_455
Ca4 O15 2.731352 1_555
Ca4 O19 2.742822 1_555
Ca4 O19 2.742822 1_455
Ca4 O5 2.830362 1_565
Ca4 O7 2.833714 1_565
Ca4 O26 2.869792 1_565
Ca4 O26 2.869792 1_465
Ca5 O0 2.622153 1_555
Ca5 O1 2.667295 1_555
Ca5 O13 2.717157 1_555
Ca5 O13 2.717157 1_455
Ca5 O12 2.751652 1_555
Ca5 O12 2.751652 1_455
Ca5 O18 2.788194 1_455
Ca5 O18 2.788194 1_555
Ca5 O2 2.814384 1_555
Ca5 O17 2.832602 1_455
Ca5 O17 2.832602 1_555
Ca5 O3 2.842480 1_555
Ca6 O4 2.629129 1_555
Ca6 O29 2.639647 1_555
Ca6 O20 2.697011 1_455
Ca6 O20 2.697011 1_555
Ca6 O21 2.731579 1_555
Ca6 O21 2.731579 1_455
Ca6 O25 2.737601 1_455
Ca6 O25 2.737601 1_555
Ca6 O5 2.831402 1_555
Ca6 O7 2.834783 1_555
Ca6 O26 2.869646 1_555
Ca6 O26 2.869646 1_455
Nb0 O24 1.956316 1_555
Nb0 O27 1.962741 1_555
Nb0 O23 1.966645 1_555
Nb0 O6 1.970866 1_555
Nb0 O6 1.970866 1_655
Nb0 O10 2.061924 1_556
Nb1 O28 1.967833 1_555
Nb1 O7 1.969823 1_655
Nb1 O7 1.969823 1_555
Nb1 O25 1.986805 1_555
Nb1 O19 1.990215 1_545
Nb1 O26 2.000241 1_555
Nb2 O14 1.962258 1_556
Nb2 O8 1.968031 1_655
Nb2 O8 1.968031 1_555
Nb2 O27 1.968853 1_555
Nb2 O23 1.973651 1_545
Nb2 O28 2.044334 1_555
O0 Ti0 1.970408 1_555
O0 Ti0 1.970408 1_455
O1 Ti2 1.968761 1_555
O1 Ti2 1.968761 1_455
O2 Ti1 1.967495 1_455
O2 Ti1 1.967495 1_555
O3 Ti4 1.967133 1_455
O3 Ti4 1.967133 1_555
O4 Ti3 1.967732 1_455
O4 Ti3 1.967732 1_555
O5 Ti6 1.967206 1_555
O5 Ti6 1.967206 1_455
O9 Ti0 1.941134 1_555
O9 Ti2 1.957015 1_565
O10 Ti0 1.927832 1_555
O11 Ti1 1.967745 1_555
O11 Ti4 1.971314 1_565
O12 Ti1 1.922281 1_555
O12 Ti0 1.973712 1_555
O13 Ti2 1.979849 1_555
O13 Ti0 1.994103 1_555
O14 Ti2 1.980245 1_555
O15 Ti3 1.960947 1_555
O15 Ti6 1.973460 1_565
O16 Ti3 1.923404 1_555
O16 Ti1 1.977549 1_555
O17 Ti1 1.963495 1_555
O17 Ti4 1.966188 1_555
O18 Ti2 1.914296 1_555
O18 Ti4 1.944623 1_555
O19 Ti5 1.951624 1_555
O20 Ti5 1.954499 1_555
O20 Ti3 1.955245 1_555
O21 Ti3 1.961338 1_555
O21 Ti6 1.973479 1_555
O22 Ti6 1.926997 1_555
O22 Ti4 1.947100 1_555
O24 Ti5 1.985160 1_555
O25 Ti5 1.949203 1_555
O26 Ti6 1.947570 1_555
O29 Ti5 1.969656 1_555
O29 Ti5 1.969656 1_455
