# generated using pymatgen
data_VH4(CO3)2
_symmetry_space_group_name_H-M   'P 1'
_cell_length_a   7.52714900
_cell_length_b   8.49113400
_cell_length_c   8.62610700
_cell_angle_alpha   90.00000000
_cell_angle_beta   90.00000000
_cell_angle_gamma   90.00000000
_symmetry_Int_Tables_number   1
_chemical_formula_structural   VH4(CO3)2
_chemical_formula_sum   'V4 H16 C8 O24'
_cell_volume   551.32926846
_cell_formula_units_Z   4
loop_
 _symmetry_equiv_pos_site_id
 _symmetry_equiv_pos_as_xyz
  1  'x, y, z'
loop_
 _atom_site_type_symbol
 _atom_site_label
 _atom_site_symmetry_multiplicity
 _atom_site_fract_x
 _atom_site_fract_y
 _atom_site_fract_z
 _atom_site_occupancy
  V  V0  1  0.22814700  0.50000000  0.25000000  1
  V  V1  1  0.77185300  0.50000000  0.75000000  1
  V  V2  1  0.77185300  0.00000000  0.25000000  1
  V  V3  1  0.22814700  0.00000000  0.75000000  1
  H  H0  1  0.82432200  0.16989100  0.57278600  1
  H  H1  1  0.59890100  0.07244700  0.80863600  1
  H  H2  1  0.40109900  0.42755300  0.80863600  1
  H  H3  1  0.59890100  0.92755300  0.69136400  1
  H  H4  1  0.17567800  0.83010900  0.42721400  1
  H  H5  1  0.59890100  0.42755300  0.30863600  1
  H  H6  1  0.82432200  0.33010900  0.07278600  1
  H  H7  1  0.40109900  0.57244700  0.69136400  1
  H  H8  1  0.17567800  0.66989100  0.92721400  1
  H  H9  1  0.82432200  0.83010900  0.92721400  1
  H  H10  1  0.40109900  0.92755300  0.19136400  1
  H  H11  1  0.17567800  0.16989100  0.07278600  1
  H  H12  1  0.82432200  0.66989100  0.42721400  1
  H  H13  1  0.17567800  0.33010900  0.57278600  1
  H  H14  1  0.40109900  0.07244700  0.30863600  1
  H  H15  1  0.59890100  0.57244700  0.19136400  1
  C  C0  1  0.23574500  0.24427100  0.49244700  1
  C  C1  1  0.76425500  0.75572900  0.50755300  1
  C  C2  1  0.23574500  0.25572900  0.99244700  1
  C  C3  1  0.76425500  0.74427100  0.00755300  1
  C  C4  1  0.23574500  0.74427100  0.50755300  1
  C  C5  1  0.76425500  0.24427100  0.99244700  1
  C  C6  1  0.23574500  0.75572900  0.00755300  1
  C  C7  1  0.76425500  0.25572900  0.49244700  1
  O  O0  1  0.47726200  0.50000000  0.75000000  1
  O  O1  1  0.47726200  0.00000000  0.25000000  1
  O  O2  1  0.01119800  0.50000000  0.25000000  1
  O  O3  1  0.26774300  0.39514100  0.03740500  1
  O  O4  1  0.72540900  0.21388200  0.35440300  1
  O  O5  1  0.72540900  0.78611800  0.14559700  1
  O  O6  1  0.72540900  0.28611800  0.85440300  1
  O  O7  1  0.73225700  0.10485900  0.03740500  1
  O  O8  1  0.27459100  0.78611800  0.64559700  1
  O  O9  1  0.27459100  0.71388200  0.14559700  1
  O  O10  1  0.26774300  0.10485900  0.53740500  1
  O  O11  1  0.73225700  0.39514100  0.53740500  1
  O  O12  1  0.27459100  0.28611800  0.35440300  1
  O  O13  1  0.01119800  0.00000000  0.75000000  1
  O  O14  1  0.72540900  0.71388200  0.64559700  1
  O  O15  1  0.26774300  0.60485900  0.46259500  1
  O  O16  1  0.73225700  0.89514100  0.46259500  1
  O  O17  1  0.98880200  0.00000000  0.25000000  1
  O  O18  1  0.52273800  0.50000000  0.25000000  1
  O  O19  1  0.98880200  0.50000000  0.75000000  1
  O  O20  1  0.26774300  0.89514100  0.96259500  1
  O  O21  1  0.27459100  0.21388200  0.85440300  1
  O  O22  1  0.73225700  0.60485900  0.96259500  1
  O  O23  1  0.52273800  0.00000000  0.75000000  1
loop_
_geom_bond_atom_site_label_1
_geom_bond_atom_site_label_2
_geom_bond_distance
_geom_bond_site_symmetry_2
H1 O23 0.981282 1_555
H2 O0 0.981282 1_555
H3 O23 0.981282 1_565
H5 O18 0.981282 1_555
H7 O0 0.981282 1_555
H10 O1 0.981282 1_565
H14 O1 0.981282 1_555
H15 O18 0.981282 1_555
C0 H13 1.102693 1_555
C0 O10 1.268744 1_555
C0 O12 1.276604 1_555
C1 H12 1.102693 1_555
C1 O16 1.268744 1_555
C1 O14 1.276604 1_555
C2 H11 1.102693 1_556
C2 O3 1.268744 1_556
C2 O21 1.276604 1_555
C3 H9 1.102693 1_554
C3 O22 1.268744 1_554
C3 O5 1.276604 1_555
C4 H4 1.102693 1_555
C4 O15 1.268744 1_555
C4 O8 1.276604 1_555
C5 H6 1.102693 1_556
C5 O7 1.268744 1_556
C5 O6 1.276604 1_555
C6 H8 1.102693 1_554
C6 O20 1.268744 1_554
C6 O9 1.276604 1_555
C7 H0 1.102693 1_555
C7 O11 1.268744 1_555
C7 O4 1.276604 1_555
O0 V1 2.217430 1_555
O1 V2 2.217430 1_555
O2 V0 1.633007 1_555
O3 V0 2.060258 1_555
O4 V2 2.057061 1_555
O5 V2 2.057061 1_565
O6 V1 2.057061 1_555
O7 V2 2.060258 1_555
O8 V3 2.057061 1_565
O9 V0 2.057061 1_555
O10 V3 2.060258 1_555
O11 V1 2.060258 1_555
O12 V0 2.057061 1_555
O13 V3 1.633007 1_555
O14 V1 2.057061 1_555
O15 V0 2.060258 1_555
O16 V2 2.060258 1_565
O17 V2 1.633007 1_555
O18 V0 2.217430 1_555
O19 V1 1.633007 1_555
O20 V3 2.060258 1_565
O21 V3 2.057061 1_555
O22 V1 2.060258 1_555
O23 V3 2.217430 1_555
