# generated using pymatgen
data_NaCa2SiO4F
_symmetry_space_group_name_H-M   'P 1'
_cell_length_a   7.64172200
_cell_length_b   7.84188534
_cell_length_c   8.09777665
_cell_angle_alpha   87.87382145
_cell_angle_beta   87.30332575
_cell_angle_gamma   86.81574660
_symmetry_Int_Tables_number   1
_chemical_formula_structural   NaCa2SiO4F
_chemical_formula_sum   'Na4 Ca8 Si4 O16 F4'
_cell_volume   483.68818995
_cell_formula_units_Z   4
loop_
 _symmetry_equiv_pos_site_id
 _symmetry_equiv_pos_as_xyz
  1  'x, y, z'
loop_
 _atom_site_type_symbol
 _atom_site_label
 _atom_site_symmetry_multiplicity
 _atom_site_fract_x
 _atom_site_fract_y
 _atom_site_fract_z
 _atom_site_occupancy
  Na  Na0  1  0.56378800  0.47953400  0.21587300  1
  Na  Na1  1  0.46333100  0.00591500  0.99604000  1
  Na  Na2  1  0.92482700  0.51860200  0.48543100  1
  Na  Na3  1  0.99141600  0.98807900  0.94265800  1
  Ca  Ca0  1  0.89601600  0.59263600  0.94193300  1
  Ca  Ca1  1  0.27841100  0.46619500  0.52284700  1
  Ca  Ca2  1  0.03169500  0.98290200  0.51289300  1
  Ca  Ca3  1  0.69442300  0.26622900  0.70404300  1
  Ca  Ca4  1  0.21816600  0.76754700  0.22812700  1
  Ca  Ca5  1  0.50340700  0.04125200  0.40021700  1
  Ca  Ca6  1  0.37218600  0.57050600  0.87951600  1
  Ca  Ca7  1  0.87744200  0.22054500  0.23073000  1
  Si  Si0  1  0.68391600  0.77264500  0.67660800  1
  Si  Si1  1  0.17725900  0.27164700  0.82550100  1
  Si  Si2  1  0.75641000  0.76896400  0.27017200  1
  Si  Si3  1  0.26160500  0.26631700  0.19770900  1
  O  O0  1  0.38942900  0.26999600  0.77390000  1
  O  O1  1  0.14831400  0.21779100  0.02548100  1
  O  O2  1  0.05943600  0.15433600  0.72262500  1
  O  O3  1  0.11421000  0.47508300  0.78539600  1
  O  O4  1  0.76767900  0.13700400  0.47498600  1
  O  O5  1  0.66017400  0.58270900  0.75738200  1
  O  O6  1  0.74989900  0.77246100  0.48273500  1
  O  O7  1  0.79359200  0.87517800  0.79996600  1
  O  O8  1  0.11838300  0.33410200  0.35066800  1
  O  O9  1  0.23258600  0.04881300  0.28584900  1
  O  O10  1  0.29217900  0.48793700  0.12827200  1
  O  O11  1  0.15835900  0.71656500  0.48873200  1
  O  O12  1  0.48174800  0.21970600  0.18415500  1
  O  O13  1  0.89341500  0.90869000  0.19983400  1
  O  O14  1  0.83116900  0.57795700  0.21836000  1
  O  O15  1  0.55272400  0.80601100  0.21998500  1
  F  F0  1  0.23153600  0.81509400  0.94472700  1
  F  F1  1  0.55990500  0.42499600  0.48371100  1
  F  F2  1  0.48399700  0.87220900  0.67273300  1
  F  F3  1  0.78696800  0.32384800  0.97020400  1
loop_
_geom_bond_atom_site_label_1
_geom_bond_atom_site_label_2
_geom_bond_distance
_geom_bond_site_symmetry_2
Na0 O12 2.192368 1_555
Na0 O10 2.221573 1_555
Na0 O14 2.225132 1_555
Na0 O15 2.558294 1_555
Na1 O12 2.320972 1_556
Na1 O15 2.449363 1_546
Na1 O0 2.744559 1_555
Na1 O1 2.853673 1_556
Na1 O9 2.886722 1_556
Na1 O7 3.065572 1_545
Na2 O8 2.280236 1_655
Na2 O14 2.332386 1_555
Na2 O6 2.335441 1_555
Na2 O11 2.431206 1_655
Na2 O3 2.885408 1_655
Na3 O7 2.189351 1_555
Na3 O2 2.227217 1_665
Na3 O13 2.257054 1_556
Na3 O1 2.353200 1_666
Ca0 O3 2.225716 1_655
Ca0 O14 2.269865 1_556
Ca0 F3 2.308905 1_555
Ca0 O5 2.401077 1_555
Ca0 O7 2.558593 1_555
Ca1 O11 2.134544 1_555
Ca1 F1 2.167552 1_555
Ca1 O8 2.218281 1_555
Ca1 O3 2.418620 1_555
Ca1 O0 2.646713 1_555
Ca2 O2 2.229720 1_565
Ca2 O11 2.263905 1_555
Ca2 O4 2.320544 1_465
Ca2 O9 2.399202 1_565
Ca2 O13 2.883017 1_455
Ca3 O4 2.181631 1_555
Ca3 F3 2.366613 1_555
Ca3 O0 2.371175 1_555
Ca3 F1 2.378176 1_555
Ca3 O5 2.532021 1_555
Ca3 O2 2.886297 1_655
Ca4 O11 2.165435 1_555
Ca4 O9 2.281203 1_565
Ca4 F0 2.309708 1_554
Ca4 O10 2.394218 1_555
Ca4 O15 2.588409 1_555
Ca4 O13 2.676885 1_455
Ca5 O12 2.206077 1_555
Ca5 O9 2.303663 1_555
Ca5 O4 2.307814 1_555
Ca5 O15 2.397067 1_545
Ca5 F2 2.534382 1_545
Ca6 O10 2.163805 1_556
Ca6 F0 2.214866 1_555
Ca6 O3 2.318354 1_555
Ca6 O5 2.375302 1_555
Ca6 O0 2.531140 1_555
Ca7 O4 2.203117 1_555
Ca7 F3 2.352280 1_554
Ca7 O8 2.353913 1_655
Ca7 O13 2.463225 1_545
Ca7 O1 2.592583 1_655
Ca7 O14 2.804116 1_555
O0 Si1 1.654644 1_555
O1 Si1 1.666028 1_554
O1 Si3 1.740399 1_555
O2 Si1 1.603252 1_555
O3 Si1 1.665396 1_555
O5 Si0 1.620431 1_555
O6 Si0 1.626209 1_555
O6 Si2 1.720858 1_555
O7 Si0 1.600009 1_555
O8 Si3 1.694481 1_555
O9 Si3 1.845157 1_555
O10 Si3 1.830670 1_555
O12 Si3 1.700876 1_555
O13 Si2 1.626699 1_555
O14 Si2 1.635538 1_555
O15 Si2 1.634876 1_555
F0 Na3 2.220833 1_455
F0 Na1 2.441161 1_565
F1 Na0 2.194177 1_555
F2 Si0 1.677710 1_555
F2 Na1 2.850434 1_565
F3 Na0 2.826028 1_556
