# generated using pymatgen
data_K29NaHg48
_symmetry_space_group_name_H-M   'P 1'
_cell_length_a   17.40562700
_cell_length_b   17.40562700
_cell_length_c   17.40562700
_cell_angle_alpha   90.00000000
_cell_angle_beta   90.00000000
_cell_angle_gamma   90.00000000
_symmetry_Int_Tables_number   1
_chemical_formula_structural   K29NaHg48
_chemical_formula_sum   'K58 Na2 Hg96'
_cell_volume   5273.13654455
_cell_formula_units_Z   2
loop_
 _symmetry_equiv_pos_site_id
 _symmetry_equiv_pos_as_xyz
  1  'x, y, z'
loop_
 _atom_site_type_symbol
 _atom_site_label
 _atom_site_symmetry_multiplicity
 _atom_site_fract_x
 _atom_site_fract_y
 _atom_site_fract_z
 _atom_site_occupancy
  K  K0  1  0.50000000  0.00000000  0.50000000  1
  K  K1  1  0.29549200  0.86758400  0.00000000  1
  K  K2  1  0.86758400  0.00000000  0.70450800  1
  K  K3  1  0.68742700  0.31257300  0.68742700  1
  K  K4  1  0.20450800  0.50000000  0.36758400  1
  K  K5  1  0.18742700  0.81257300  0.18742700  1
  K  K6  1  0.18742700  0.81257300  0.81257300  1
  K  K7  1  0.31257300  0.31257300  0.68742700  1
  K  K8  1  0.79549200  0.50000000  0.63241600  1
  K  K9  1  0.00000000  0.70450800  0.13241600  1
  K  K10  1  0.50000000  0.50000000  0.00000000  1
  K  K11  1  0.70450800  0.13241600  0.00000000  1
  K  K12  1  0.00000000  0.29549200  0.86758400  1
  K  K13  1  0.31257300  0.68742700  0.68742700  1
  K  K14  1  0.00000000  0.75000000  0.50000000  1
  K  K15  1  0.86758400  0.00000000  0.29549200  1
  K  K16  1  0.63241600  0.20450800  0.50000000  1
  K  K17  1  0.25000000  0.00000000  0.50000000  1
  K  K18  1  0.00000000  0.50000000  0.75000000  1
  K  K19  1  0.81257300  0.18742700  0.81257300  1
  K  K20  1  0.00000000  0.50000000  0.50000000  1
  K  K21  1  0.81257300  0.18742700  0.18742700  1
  K  K22  1  0.50000000  0.75000000  0.00000000  1
  K  K23  1  0.18742700  0.18742700  0.81257300  1
  K  K24  1  0.13241600  0.00000000  0.29549200  1
  K  K25  1  0.68742700  0.68742700  0.31257300  1
  K  K26  1  0.50000000  0.00000000  0.25000000  1
  K  K27  1  0.50000000  0.63241600  0.79549200  1
  K  K28  1  0.25000000  0.50000000  0.00000000  1
  K  K29  1  0.50000000  0.00000000  0.75000000  1
  K  K30  1  0.31257300  0.68742700  0.31257300  1
  K  K31  1  0.63241600  0.79549200  0.50000000  1
  K  K32  1  0.50000000  0.36758400  0.79549200  1
  K  K33  1  0.29549200  0.13241600  0.00000000  1
  K  K34  1  0.50000000  0.36758400  0.20450800  1
  K  K35  1  0.50000000  0.25000000  0.00000000  1
  K  K36  1  0.13241600  0.00000000  0.70450800  1
  K  K37  1  0.70450800  0.86758400  0.00000000  1
  K  K38  1  0.00000000  0.25000000  0.50000000  1
  K  K39  1  0.00000000  0.29549200  0.13241600  1
  K  K40  1  0.18742700  0.18742700  0.18742700  1
  K  K41  1  0.50000000  0.00000000  0.00000000  1
  K  K42  1  0.00000000  0.50000000  0.25000000  1
  K  K43  1  0.00000000  0.70450800  0.86758400  1
  K  K44  1  0.50000000  0.63241600  0.20450800  1
  K  K45  1  0.68742700  0.68742700  0.68742700  1
  K  K46  1  0.81257300  0.81257300  0.81257300  1
  K  K47  1  0.68742700  0.31257300  0.31257300  1
  K  K48  1  0.79549200  0.50000000  0.36758400  1
  K  K49  1  0.75000000  0.00000000  0.50000000  1
  K  K50  1  0.81257300  0.81257300  0.18742700  1
  K  K51  1  0.00000000  0.00000000  0.50000000  1
  K  K52  1  0.31257300  0.31257300  0.31257300  1
  K  K53  1  0.00000000  0.50000000  0.00000000  1
  K  K54  1  0.20450800  0.50000000  0.63241600  1
  K  K55  1  0.75000000  0.50000000  0.00000000  1
  K  K56  1  0.36758400  0.79549200  0.50000000  1
  K  K57  1  0.36758400  0.20450800  0.50000000  1
  Na  Na0  1  0.00000000  0.00000000  0.00000000  1
  Na  Na1  1  0.50000000  0.50000000  0.50000000  1
  Hg  Hg0  1  0.00000000  0.09162800  0.84196800  1
  Hg  Hg1  1  0.40366800  0.17277400  0.82854900  1
  Hg  Hg2  1  0.90366800  0.67145100  0.67277400  1
  Hg  Hg3  1  0.90366800  0.32854900  0.32722600  1
  Hg  Hg4  1  0.67277400  0.09633200  0.67145100  1
  Hg  Hg5  1  0.50000000  0.34196800  0.40837200  1
  Hg  Hg6  1  0.50000000  0.34196800  0.59162800  1
  Hg  Hg7  1  0.82722600  0.82854900  0.59633200  1
  Hg  Hg8  1  0.32722600  0.90366800  0.67145100  1
  Hg  Hg9  1  0.32854900  0.67277400  0.90366800  1
  Hg  Hg10  1  0.34196800  0.40837200  0.50000000  1
  Hg  Hg11  1  0.59633200  0.82722600  0.82854900  1
  Hg  Hg12  1  0.65803200  0.59162800  0.50000000  1
  Hg  Hg13  1  0.82854900  0.59633200  0.17277400  1
  Hg  Hg14  1  0.00000000  0.90837200  0.84196800  1
  Hg  Hg15  1  0.50000000  0.81504700  0.66433300  1
  Hg  Hg16  1  0.81504700  0.66433300  0.50000000  1
  Hg  Hg17  1  0.59633200  0.82722600  0.17145100  1
  Hg  Hg18  1  0.09633200  0.67145100  0.32722600  1
  Hg  Hg19  1  0.59633200  0.17277400  0.17145100  1
  Hg  Hg20  1  0.00000000  0.09162800  0.15803200  1
  Hg  Hg21  1  0.67145100  0.32722600  0.90366800  1
  Hg  Hg22  1  0.59633200  0.17277400  0.82854900  1
  Hg  Hg23  1  0.09633200  0.67145100  0.67277400  1
  Hg  Hg24  1  0.00000000  0.16433300  0.68495300  1
  Hg  Hg25  1  0.82854900  0.59633200  0.82722600  1
  Hg  Hg26  1  0.32722600  0.09633200  0.67145100  1
  Hg  Hg27  1  0.40837200  0.50000000  0.65803200  1
  Hg  Hg28  1  0.90366800  0.32854900  0.67277400  1
  Hg  Hg29  1  0.17145100  0.59633200  0.17277400  1
  Hg  Hg30  1  0.40366800  0.82722600  0.82854900  1
  Hg  Hg31  1  0.59162800  0.50000000  0.34196800  1
  Hg  Hg32  1  0.09633200  0.32854900  0.67277400  1
  Hg  Hg33  1  0.68495300  0.00000000  0.16433300  1
  Hg  Hg34  1  0.17277400  0.82854900  0.59633200  1
  Hg  Hg35  1  0.17145100  0.59633200  0.82722600  1
  Hg  Hg36  1  0.31504700  0.00000000  0.16433300  1
  Hg  Hg37  1  0.18495300  0.33566700  0.50000000  1
  Hg  Hg38  1  0.40366800  0.82722600  0.17145100  1
  Hg  Hg39  1  0.67145100  0.67277400  0.90366800  1
  Hg  Hg40  1  0.66433300  0.50000000  0.81504700  1
  Hg  Hg41  1  0.32854900  0.32722600  0.90366800  1
  Hg  Hg42  1  0.18495300  0.66433300  0.50000000  1
  Hg  Hg43  1  0.65803200  0.40837200  0.50000000  1
  Hg  Hg44  1  0.67145100  0.32722600  0.09633200  1
  Hg  Hg45  1  0.90366800  0.67145100  0.32722600  1
  Hg  Hg46  1  0.67145100  0.67277400  0.09633200  1
  Hg  Hg47  1  0.67277400  0.90366800  0.67145100  1
  Hg  Hg48  1  0.00000000  0.90837200  0.15803200  1
  Hg  Hg49  1  0.09162800  0.84196800  0.00000000  1
  Hg  Hg50  1  0.15803200  0.00000000  0.09162800  1
  Hg  Hg51  1  0.66433300  0.50000000  0.18495300  1
  Hg  Hg52  1  0.83566700  0.68495300  0.00000000  1
  Hg  Hg53  1  0.82854900  0.40366800  0.82722600  1
  Hg  Hg54  1  0.09162800  0.15803200  0.00000000  1
  Hg  Hg55  1  0.40837200  0.50000000  0.34196800  1
  Hg  Hg56  1  0.84196800  0.00000000  0.09162800  1
  Hg  Hg57  1  0.33566700  0.50000000  0.81504700  1
  Hg  Hg58  1  0.50000000  0.81504700  0.33566700  1
  Hg  Hg59  1  0.81504700  0.33566700  0.50000000  1
  Hg  Hg60  1  0.67277400  0.90366800  0.32854900  1
  Hg  Hg61  1  0.82722600  0.82854900  0.40366800  1
  Hg  Hg62  1  0.90837200  0.15803200  0.00000000  1
  Hg  Hg63  1  0.32854900  0.32722600  0.09633200  1
  Hg  Hg64  1  0.82722600  0.17145100  0.59633200  1
  Hg  Hg65  1  0.68495300  0.00000000  0.83566700  1
  Hg  Hg66  1  0.09633200  0.32854900  0.32722600  1
  Hg  Hg67  1  0.82722600  0.17145100  0.40366800  1
  Hg  Hg68  1  0.50000000  0.18495300  0.66433300  1
  Hg  Hg69  1  0.50000000  0.65803200  0.59162800  1
  Hg  Hg70  1  0.32722600  0.90366800  0.32854900  1
  Hg  Hg71  1  0.32854900  0.67277400  0.09633200  1
  Hg  Hg72  1  0.83566700  0.31504700  0.00000000  1
  Hg  Hg73  1  0.59162800  0.50000000  0.65803200  1
  Hg  Hg74  1  0.16433300  0.68495300  0.00000000  1
  Hg  Hg75  1  0.17145100  0.40366800  0.82722600  1
  Hg  Hg76  1  0.82854900  0.40366800  0.17277400  1
  Hg  Hg77  1  0.34196800  0.59162800  0.50000000  1
  Hg  Hg78  1  0.17277400  0.17145100  0.59633200  1
  Hg  Hg79  1  0.50000000  0.65803200  0.40837200  1
  Hg  Hg80  1  0.17277400  0.82854900  0.40366800  1
  Hg  Hg81  1  0.50000000  0.18495300  0.33566700  1
  Hg  Hg82  1  0.40366800  0.17277400  0.17145100  1
  Hg  Hg83  1  0.00000000  0.83566700  0.31504700  1
  Hg  Hg84  1  0.00000000  0.16433300  0.31504700  1
  Hg  Hg85  1  0.33566700  0.50000000  0.18495300  1
  Hg  Hg86  1  0.16433300  0.31504700  0.00000000  1
  Hg  Hg87  1  0.32722600  0.09633200  0.32854900  1
  Hg  Hg88  1  0.17277400  0.17145100  0.40366800  1
  Hg  Hg89  1  0.67277400  0.09633200  0.32854900  1
  Hg  Hg90  1  0.31504700  0.00000000  0.83566700  1
  Hg  Hg91  1  0.90837200  0.84196800  0.00000000  1
  Hg  Hg92  1  0.00000000  0.83566700  0.68495300  1
  Hg  Hg93  1  0.17145100  0.40366800  0.17277400  1
  Hg  Hg94  1  0.84196800  0.00000000  0.90837200  1
  Hg  Hg95  1  0.15803200  0.00000000  0.90837200  1
loop_
_geom_bond_atom_site_label_1
_geom_bond_atom_site_label_2
_geom_bond_distance
_geom_bond_site_symmetry_2
K1 K5 3.885517 1_555
K1 K6 3.885517 1_554
K2 K46 3.885517 1_545
K3 K32 3.885517 1_555
K3 K8 3.885517 1_555
K4 K52 3.885517 1_555
K5 K9 3.885517 1_555
K11 K19 3.885517 1_554
K11 K21 3.885517 1_555
K12 K23 3.885517 1_555
K12 K19 3.885517 1_455
K13 K6 3.772830 1_555
K13 K27 3.885517 1_555
K13 K56 3.885517 1_555
K13 K54 3.885517 1_555
K15 K21 3.885517 1_555
K15 K50 3.885517 1_545
K16 K47 3.885517 1_555
K16 K3 3.885517 1_555
K19 K3 3.772830 1_555
K19 K2 3.885517 1_555
K21 K47 3.772830 1_555
K21 K39 3.885517 1_655
K23 K7 3.772830 1_555
K23 K36 3.885517 1_555
K23 K33 3.885517 1_556
K24 K5 3.885517 1_545
K24 K40 3.885517 1_555
K25 K50 3.772830 1_555
K25 K48 3.885517 1_555
K25 K31 3.885517 1_555
K25 K44 3.885517 1_555
K27 K45 3.885517 1_555
K30 K5 3.772830 1_555
K30 K56 3.885517 1_555
K30 K44 3.885517 1_555
K30 K4 3.885517 1_555
K31 K45 3.885517 1_555
K32 K7 3.885517 1_555
K33 K40 3.885517 1_555
K34 K47 3.885517 1_555
K34 K52 3.885517 1_555
K36 K6 3.885517 1_545
K37 K46 3.885517 1_554
K37 K50 3.885517 1_555
K39 K40 3.885517 1_555
K40 K52 3.772830 1_555
K43 K46 3.885517 1_455
K43 K6 3.885517 1_555
K45 K46 3.772830 1_555
K45 K8 3.885517 1_555
K47 K48 3.885517 1_555
K50 K9 3.885517 1_655
K52 K57 3.885517 1_555
K54 K7 3.885517 1_555
K57 K7 3.885517 1_555
Hg0 Hg24 3.011713 1_555
Hg0 Na0 3.179556 1_556
Hg0 Hg14 3.189686 1_545
Hg0 K12 3.576283 1_555
Hg0 K2 3.685102 1_455
Hg0 K36 3.685102 1_555
Hg0 K23 3.699275 1_555
Hg0 K19 3.699275 1_455
Hg1 Hg41 3.262854 1_555
Hg1 Hg26 3.319255 1_555
Hg1 Hg68 3.320557 1_555
Hg1 Hg22 3.353438 1_555
Hg1 Hg90 3.382035 1_555
Hg1 K33 3.597801 1_556
Hg1 K35 3.677457 1_556
Hg1 K29 3.704605 1_555
Hg1 K23 3.782676 1_555
Hg1 K7 3.803736 1_555
Hg1 K32 3.826213 1_555
Hg2 Hg25 3.262854 1_555
Hg2 Hg7 3.319255 1_555
Hg2 Hg92 3.320557 1_655
Hg2 Hg23 3.353438 1_655
Hg2 K8 3.597801 1_555
Hg2 K18 3.677457 1_655
Hg2 K14 3.704605 1_655
Hg2 K45 3.782676 1_555
Hg2 K46 3.803736 1_555
Hg2 K43 3.826213 1_655
Hg3 Hg76 3.262854 1_555
Hg3 Hg67 3.319255 1_555
Hg3 Hg84 3.320557 1_655
Hg3 Hg66 3.353438 1_655
Hg3 Hg59 3.382035 1_555
Hg3 K48 3.597801 1_555
Hg3 K42 3.677457 1_655
Hg3 K38 3.704605 1_655
Hg3 K47 3.782676 1_555
Hg3 K21 3.803736 1_555
Hg3 K39 3.826213 1_655
Hg4 Hg64 3.262854 1_555
Hg4 Hg65 3.320557 1_555
Hg4 Hg47 3.353438 1_545
Hg4 Hg68 3.382035 1_555
Hg4 K16 3.597801 1_555
Hg4 K49 3.677457 1_555
Hg4 K29 3.704605 1_555
Hg4 K3 3.782676 1_555
Hg4 K19 3.803736 1_555
Hg4 K2 3.826213 1_555
Hg5 Hg81 3.011713 1_555
Hg5 Na1 3.179556 1_555
Hg5 Hg6 3.189686 1_555
Hg5 K34 3.576283 1_555
Hg5 K57 3.685102 1_555
Hg5 K16 3.685102 1_555
Hg5 K52 3.699275 1_555
Hg5 K47 3.699275 1_555
Hg6 Hg68 3.011713 1_555
Hg6 Na1 3.179556 1_555
Hg6 K32 3.576283 1_555
Hg6 K16 3.685102 1_555
Hg6 K57 3.685102 1_555
Hg6 K3 3.699275 1_555
Hg6 K7 3.699275 1_555
Hg7 Hg92 3.382035 1_655
Hg7 K2 3.597801 1_565
Hg7 K49 3.677457 1_565
Hg7 K14 3.704605 1_655
Hg7 K46 3.782676 1_555
Hg7 K45 3.803736 1_555
Hg7 K31 3.826213 1_555
Hg8 Hg90 3.320557 1_565
Hg8 K56 3.597801 1_555
Hg8 K17 3.677457 1_565
Hg8 K29 3.704605 1_565
Hg8 K13 3.782676 1_555
Hg8 K6 3.803736 1_555
Hg8 K36 3.826213 1_565
Hg9 K27 3.597801 1_555
Hg9 K22 3.677457 1_556
Hg9 K28 3.704605 1_556
Hg9 K13 3.782676 1_555
Hg9 K6 3.803736 1_555
Hg9 K1 3.826213 1_556
Hg10 Hg37 3.011713 1_555
Hg10 Na1 3.179556 1_555
Hg10 Hg77 3.189686 1_555
Hg10 K57 3.576283 1_555
Hg10 K54 3.685102 1_555
Hg10 K4 3.685102 1_555
Hg10 K52 3.699275 1_555
Hg10 K7 3.699275 1_555
Hg11 Hg39 3.262854 1_555
Hg11 Hg47 3.319255 1_555
Hg11 Hg15 3.320557 1_555
Hg11 Hg30 3.353438 1_555
Hg11 Hg65 3.382035 1_565
Hg11 K37 3.597801 1_556
Hg11 K22 3.677457 1_556
Hg11 K29 3.704605 1_565
Hg11 K46 3.782676 1_555
Hg11 K45 3.803736 1_555
Hg11 K27 3.826213 1_555
Hg12 Hg16 3.011713 1_555
Hg12 Na1 3.179556 1_555
Hg12 Hg43 3.189686 1_555
Hg12 K31 3.576283 1_555
Hg12 K8 3.685102 1_555
Hg12 K48 3.685102 1_555
Hg12 K25 3.699275 1_555
Hg12 K45 3.699275 1_555
Hg13 Hg45 3.262854 1_555
Hg13 Hg46 3.319255 1_555
Hg13 Hg51 3.320557 1_555
Hg13 Hg76 3.353438 1_555
Hg13 Hg52 3.382035 1_555
Hg13 K9 3.597801 1_655
Hg13 K42 3.677457 1_655
Hg13 K55 3.704605 1_555
Hg13 K50 3.782676 1_555
Hg13 K25 3.803736 1_555
Hg13 K48 3.826213 1_555
Hg14 Hg92 3.011713 1_555
Hg14 Na0 3.179556 1_566
Hg14 K43 3.576283 1_555
Hg14 K2 3.685102 1_465
Hg14 K36 3.685102 1_565
Hg14 K6 3.699275 1_555
Hg14 K46 3.699275 1_455
Hg15 Hg69 3.011713 1_555
Hg15 Hg30 3.320557 1_555
Hg15 Hg8 3.382035 1_555
Hg15 Hg47 3.382035 1_555
Hg15 K29 3.547779 1_565
Hg15 K31 3.689079 1_555
Hg15 K56 3.689079 1_555
Hg15 K27 3.913626 1_555
Hg15 K13 3.967150 1_555
Hg15 K45 3.967150 1_555
Hg16 Hg7 3.320557 1_555
Hg16 Hg61 3.320557 1_555
Hg16 Hg45 3.382035 1_555
Hg16 Hg2 3.382035 1_555
Hg16 K14 3.547779 1_655
Hg16 K8 3.689079 1_555
Hg16 K48 3.689079 1_555
Hg16 K31 3.913626 1_555
Hg16 K25 3.967150 1_555
Hg16 K45 3.967150 1_555
Hg17 Hg46 3.262854 1_555
Hg17 Hg60 3.319255 1_555
Hg17 Hg58 3.320557 1_555
Hg17 Hg38 3.353438 1_555
Hg17 Hg33 3.382035 1_565
Hg17 K37 3.597801 1_555
Hg17 K22 3.677457 1_555
Hg17 K26 3.704605 1_565
Hg17 K50 3.782676 1_555
Hg17 K25 3.803736 1_555
Hg17 K44 3.826213 1_555
Hg18 Hg29 3.262854 1_555
Hg18 Hg80 3.319255 1_555
Hg18 Hg83 3.320557 1_555
Hg18 Hg45 3.353438 1_455
Hg18 Hg42 3.382035 1_555
Hg18 K4 3.597801 1_555
Hg18 K42 3.677457 1_555
Hg18 K14 3.704605 1_555
Hg18 K30 3.782676 1_555
Hg18 K5 3.803736 1_555
Hg18 K9 3.826213 1_555
Hg19 Hg44 3.262854 1_555
Hg19 Hg89 3.319255 1_555
Hg19 Hg81 3.320557 1_555
Hg19 Hg82 3.353438 1_555
Hg19 Hg33 3.382035 1_555
Hg19 K11 3.597801 1_555
Hg19 K35 3.677457 1_555
Hg19 K26 3.704605 1_555
Hg19 K21 3.782676 1_555
Hg19 K47 3.803736 1_555
Hg19 K34 3.826213 1_555
Hg20 Hg84 3.011713 1_555
Hg20 Na0 3.179556 1_555
Hg20 Hg48 3.189686 1_545
Hg20 K39 3.576283 1_555
Hg20 K15 3.685102 1_455
Hg20 K24 3.685102 1_555
Hg20 K21 3.699275 1_455
Hg20 K40 3.699275 1_555
Hg21 Hg22 3.262854 1_555
Hg21 Hg53 3.319255 1_555
Hg21 Hg72 3.320557 1_556
Hg21 Hg44 3.353438 1_556
Hg21 Hg40 3.382035 1_555
Hg21 K32 3.597801 1_555
Hg21 K35 3.677457 1_556
Hg21 K55 3.704605 1_556
Hg21 K3 3.782676 1_555
Hg21 K19 3.803736 1_555
Hg21 K11 3.826213 1_556
Hg22 Hg4 3.319255 1_555
Hg22 Hg68 3.320557 1_555
Hg22 Hg65 3.382035 1_555
Hg22 K11 3.597801 1_556
Hg22 K35 3.677457 1_556
Hg22 K29 3.704605 1_555
Hg22 K19 3.782676 1_555
Hg22 K3 3.803736 1_555
Hg22 K32 3.826213 1_555
Hg23 Hg35 3.262854 1_555
Hg23 Hg34 3.319255 1_555
Hg23 Hg92 3.320557 1_555
Hg23 Hg42 3.382035 1_555
Hg23 K54 3.597801 1_555
Hg23 K18 3.677457 1_555
Hg23 K14 3.704605 1_555
Hg23 K13 3.782676 1_555
Hg23 K6 3.803736 1_555
Hg23 K43 3.826213 1_555
Hg24 Hg28 3.320557 1_455
Hg24 Hg32 3.320557 1_555
Hg24 Hg64 3.382035 1_455
Hg24 Hg78 3.382035 1_555
Hg24 K38 3.547779 1_555
Hg24 K36 3.689079 1_555
Hg24 K2 3.689079 1_455
Hg24 K12 3.913626 1_555
Hg24 K19 3.967150 1_455
Hg24 K23 3.967150 1_555
Hg25 Hg39 3.319255 1_555
Hg25 Hg40 3.320557 1_555
Hg25 Hg53 3.353438 1_555
Hg25 Hg52 3.382035 1_556
Hg25 K43 3.597801 1_655
Hg25 K18 3.677457 1_655
Hg25 K55 3.704605 1_556
Hg25 K46 3.782676 1_555
Hg25 K45 3.803736 1_555
Hg25 K8 3.826213 1_555
Hg26 Hg78 3.262854 1_555
Hg26 Hg90 3.320557 1_555
Hg26 Hg8 3.353438 1_545
Hg26 Hg68 3.382035 1_555
Hg26 K57 3.597801 1_555
Hg26 K17 3.677457 1_555
Hg26 K29 3.704605 1_555
Hg26 K7 3.782676 1_555
Hg26 K23 3.803736 1_555
Hg26 K36 3.826213 1_555
Hg27 Hg57 3.011713 1_555
Hg27 Na1 3.179556 1_555
Hg27 Hg73 3.189686 1_555
Hg27 K54 3.576283 1_555
Hg27 K32 3.685102 1_555
Hg27 K27 3.685102 1_555
Hg27 K13 3.699275 1_555
Hg27 K7 3.699275 1_555
Hg28 Hg53 3.262854 1_555
Hg28 Hg64 3.319255 1_555
Hg28 Hg32 3.353438 1_655
Hg28 Hg59 3.382035 1_555
Hg28 K8 3.597801 1_555
Hg28 K18 3.677457 1_655
Hg28 K38 3.704605 1_655
Hg28 K3 3.782676 1_555
Hg28 K19 3.803736 1_555
Hg28 K12 3.826213 1_655
Hg29 Hg71 3.319255 1_555
Hg29 Hg85 3.320557 1_555
Hg29 Hg93 3.353438 1_555
Hg29 Hg74 3.382035 1_555
Hg29 K9 3.597801 1_555
Hg29 K42 3.677457 1_555
Hg29 K28 3.704605 1_555
Hg29 K5 3.782676 1_555
Hg29 K30 3.803736 1_555
Hg29 K4 3.826213 1_555
Hg30 Hg9 3.262854 1_555
Hg30 Hg8 3.319255 1_555
Hg30 Hg90 3.382035 1_565
Hg30 K1 3.597801 1_556
Hg30 K22 3.677457 1_556
Hg30 K29 3.704605 1_565
Hg30 K6 3.782676 1_555
Hg30 K13 3.803736 1_555
Hg30 K27 3.826213 1_555
Hg31 Hg51 3.011713 1_555
Hg31 Na1 3.179556 1_555
Hg31 Hg55 3.189686 1_555
Hg31 K48 3.576283 1_555
Hg31 K44 3.685102 1_555
Hg31 K34 3.685102 1_555
Hg31 K47 3.699275 1_555
Hg31 K25 3.699275 1_555
Hg32 Hg75 3.262854 1_555
Hg32 Hg78 3.319255 1_555
Hg32 Hg37 3.382035 1_555
Hg32 K54 3.597801 1_555
Hg32 K18 3.677457 1_555
Hg32 K38 3.704605 1_555
Hg32 K7 3.782676 1_555
Hg32 K23 3.803736 1_555
Hg32 K12 3.826213 1_555
Hg33 Hg56 3.011713 1_555
Hg33 Hg60 3.320557 1_545
Hg33 Hg89 3.320557 1_555
Hg33 K26 3.547779 1_555
Hg33 K37 3.689079 1_545
Hg33 K11 3.689079 1_555
Hg33 K15 3.913626 1_555
Hg33 K21 3.967150 1_555
Hg33 K50 3.967150 1_545
Hg34 Hg8 3.262854 1_555
Hg34 Hg42 3.320557 1_555
Hg34 Hg80 3.353438 1_555
Hg34 Hg92 3.382035 1_555
Hg34 K36 3.597801 1_565
Hg34 K17 3.677457 1_565
Hg34 K14 3.704605 1_555
Hg34 K6 3.782676 1_555
Hg34 K13 3.803736 1_555
Hg34 K56 3.826213 1_555
Hg35 Hg9 3.319255 1_555
Hg35 Hg57 3.320557 1_555
Hg35 Hg75 3.353438 1_555
Hg35 Hg74 3.382035 1_556
Hg35 K43 3.597801 1_555
Hg35 K18 3.677457 1_555
Hg35 K28 3.704605 1_556
Hg35 K6 3.782676 1_555
Hg35 K13 3.803736 1_555
Hg35 K54 3.826213 1_555
Hg36 Hg50 3.011713 1_555
Hg36 Hg87 3.320557 1_555
Hg36 Hg70 3.320557 1_545
Hg36 Hg38 3.382035 1_545
Hg36 Hg82 3.382035 1_555
Hg36 K26 3.547779 1_555
Hg36 K1 3.689079 1_545
Hg36 K33 3.689079 1_555
Hg36 K24 3.913626 1_555
Hg36 K5 3.967150 1_545
Hg36 K40 3.967150 1_555
Hg37 Hg78 3.320557 1_555
Hg37 Hg88 3.320557 1_555
Hg37 Hg66 3.382035 1_555
Hg37 K38 3.547779 1_555
Hg37 K54 3.689079 1_555
Hg37 K4 3.689079 1_555
Hg37 K57 3.913626 1_555
Hg37 K52 3.967150 1_555
Hg37 K7 3.967150 1_555
Hg38 Hg71 3.262854 1_555
Hg38 Hg70 3.319255 1_555
Hg38 Hg58 3.320557 1_555
Hg38 K1 3.597801 1_555
Hg38 K22 3.677457 1_555
Hg38 K26 3.704605 1_565
Hg38 K5 3.782676 1_555
Hg38 K30 3.803736 1_555
Hg38 K44 3.826213 1_555
Hg39 Hg52 3.320557 1_556
Hg39 Hg46 3.353438 1_556
Hg39 Hg40 3.382035 1_555
Hg39 K27 3.597801 1_555
Hg39 K22 3.677457 1_556
Hg39 K55 3.704605 1_556
Hg39 K45 3.782676 1_555
Hg39 K46 3.803736 1_555
Hg39 K37 3.826213 1_556
Hg40 Hg73 3.011713 1_555
Hg40 Hg53 3.320557 1_555
Hg40 K55 3.547779 1_556
Hg40 K27 3.689079 1_555
Hg40 K32 3.689079 1_555
Hg40 K8 3.913626 1_555
Hg40 K3 3.967150 1_555
Hg40 K45 3.967150 1_555
Hg41 Hg75 3.319255 1_555
Hg41 Hg86 3.320557 1_556
Hg41 Hg63 3.353438 1_556
Hg41 Hg57 3.382035 1_555
Hg41 K32 3.597801 1_555
Hg41 K35 3.677457 1_556
Hg41 K28 3.704605 1_556
Hg41 K7 3.782676 1_555
Hg41 K23 3.803736 1_555
Hg41 K33 3.826213 1_556
Hg42 Hg77 3.011713 1_555
Hg42 Hg80 3.320557 1_555
Hg42 K14 3.547779 1_555
Hg42 K54 3.689079 1_555
Hg42 K4 3.689079 1_555
Hg42 K56 3.913626 1_555
Hg42 K30 3.967150 1_555
Hg42 K13 3.967150 1_555
Hg43 Hg59 3.011713 1_555
Hg43 Na1 3.179556 1_555
Hg43 K16 3.576283 1_555
Hg43 K48 3.685102 1_555
Hg43 K8 3.685102 1_555
Hg43 K3 3.699275 1_555
Hg43 K47 3.699275 1_555
Hg44 Hg76 3.319255 1_555
Hg44 Hg72 3.320557 1_555
Hg44 Hg51 3.382035 1_555
Hg44 K34 3.597801 1_555
Hg44 K35 3.677457 1_555
Hg44 K55 3.704605 1_555
Hg44 K47 3.782676 1_555
Hg44 K21 3.803736 1_555
Hg44 K11 3.826213 1_555
Hg45 Hg61 3.319255 1_555
Hg45 Hg83 3.320557 1_655
Hg45 K48 3.597801 1_555
Hg45 K42 3.677457 1_655
Hg45 K14 3.704605 1_655
Hg45 K25 3.782676 1_555
Hg45 K50 3.803736 1_555
Hg45 K9 3.826213 1_655
Hg46 Hg52 3.320557 1_555
Hg46 Hg51 3.382035 1_555
Hg46 K44 3.597801 1_555
Hg46 K22 3.677457 1_555
Hg46 K55 3.704605 1_555
Hg46 K25 3.782676 1_555
Hg46 K50 3.803736 1_555
Hg46 K37 3.826213 1_555
Hg47 Hg7 3.262854 1_555
Hg47 Hg65 3.320557 1_565
Hg47 K31 3.597801 1_555
Hg47 K49 3.677457 1_565
Hg47 K29 3.704605 1_565
Hg47 K45 3.782676 1_555
Hg47 K46 3.803736 1_555
Hg47 K2 3.826213 1_565
Hg48 Hg83 3.011713 1_555
Hg48 Na0 3.179556 1_565
Hg48 K9 3.576283 1_555
Hg48 K15 3.685102 1_465
Hg48 K24 3.685102 1_565
Hg48 K50 3.699275 1_455
Hg48 K5 3.699275 1_555
Hg49 Hg74 3.011713 1_555
Hg49 Na0 3.179556 1_565
Hg49 Hg91 3.189686 1_455
Hg49 K1 3.576283 1_555
Hg49 K9 3.685102 1_555
Hg49 K43 3.685102 1_554
Hg49 K6 3.699275 1_554
Hg49 K5 3.699275 1_555
Hg50 Na0 3.179556 1_555
Hg50 Hg95 3.189686 1_554
Hg50 K24 3.576283 1_555
Hg50 K1 3.685102 1_545
Hg50 K33 3.685102 1_555
Hg50 K40 3.699275 1_555
Hg50 K5 3.699275 1_545
Hg51 Hg76 3.320557 1_555
Hg51 K55 3.547779 1_555
Hg51 K34 3.689079 1_555
Hg51 K44 3.689079 1_555
Hg51 K48 3.913626 1_555
Hg51 K47 3.967150 1_555
Hg51 K25 3.967150 1_555
Hg52 Hg91 3.011713 1_555
Hg52 K55 3.547779 1_555
Hg52 K43 3.689079 1_654
Hg52 K9 3.689079 1_655
Hg52 K37 3.913626 1_555
Hg52 K50 3.967150 1_555
Hg52 K46 3.967150 1_554
Hg53 Hg72 3.382035 1_556
Hg53 K12 3.597801 1_655
Hg53 K18 3.677457 1_655
Hg53 K55 3.704605 1_556
Hg53 K19 3.782676 1_555
Hg53 K3 3.803736 1_555
Hg53 K8 3.826213 1_555
Hg54 Hg86 3.011713 1_555
Hg54 Na0 3.179556 1_555
Hg54 Hg62 3.189686 1_455
Hg54 K33 3.576283 1_555
Hg54 K39 3.685102 1_555
Hg54 K12 3.685102 1_554
Hg54 K23 3.699275 1_554
Hg54 K40 3.699275 1_555
Hg55 Hg85 3.011713 1_555
Hg55 Na1 3.179556 1_555
Hg55 K4 3.576283 1_555
Hg55 K34 3.685102 1_555
Hg55 K44 3.685102 1_555
Hg55 K52 3.699275 1_555
Hg55 K30 3.699275 1_555
Hg56 Na0 3.179556 1_655
Hg56 Hg94 3.189686 1_554
Hg56 K15 3.576283 1_555
Hg56 K11 3.685102 1_555
Hg56 K37 3.685102 1_545
Hg56 K21 3.699275 1_555
Hg56 K50 3.699275 1_545
Hg57 Hg75 3.320557 1_555
Hg57 Hg9 3.382035 1_555
Hg57 K28 3.547779 1_556
Hg57 K27 3.689079 1_555
Hg57 K32 3.689079 1_555
Hg57 K54 3.913626 1_555
Hg57 K13 3.967150 1_555
Hg57 K7 3.967150 1_555
Hg58 Hg79 3.011713 1_555
Hg58 Hg60 3.382035 1_555
Hg58 Hg70 3.382035 1_555
Hg58 K26 3.547779 1_565
Hg58 K56 3.689079 1_555
Hg58 K31 3.689079 1_555
Hg58 K44 3.913626 1_555
Hg58 K25 3.967150 1_555
Hg58 K30 3.967150 1_555
Hg59 Hg67 3.320557 1_555
Hg59 Hg64 3.320557 1_555
Hg59 K38 3.547779 1_655
Hg59 K48 3.689079 1_555
Hg59 K8 3.689079 1_555
Hg59 K16 3.913626 1_555
Hg59 K47 3.967150 1_555
Hg59 K3 3.967150 1_555
Hg60 Hg61 3.262854 1_555
Hg60 Hg89 3.353438 1_565
Hg60 K31 3.597801 1_555
Hg60 K49 3.677457 1_565
Hg60 K26 3.704605 1_565
Hg60 K25 3.782676 1_555
Hg60 K50 3.803736 1_555
Hg60 K15 3.826213 1_565
Hg61 Hg7 3.353438 1_555
Hg61 Hg83 3.382035 1_655
Hg61 K15 3.597801 1_565
Hg61 K49 3.677457 1_565
Hg61 K14 3.704605 1_655
Hg61 K50 3.782676 1_555
Hg61 K25 3.803736 1_555
Hg61 K31 3.826213 1_555
Hg62 Hg72 3.011713 1_555
Hg62 Na0 3.179556 1_655
Hg62 K11 3.576283 1_555
Hg62 K12 3.685102 1_654
Hg62 K39 3.685102 1_655
Hg62 K21 3.699275 1_555
Hg62 K19 3.699275 1_554
Hg63 Hg82 3.262854 1_555
Hg63 Hg93 3.319255 1_555
Hg63 Hg86 3.320557 1_555
Hg63 Hg85 3.382035 1_555
Hg63 K34 3.597801 1_555
Hg63 K35 3.677457 1_555
Hg63 K28 3.704605 1_555
Hg63 K52 3.782676 1_555
Hg63 K40 3.803736 1_555
Hg63 K33 3.826213 1_555
Hg64 Hg67 3.353438 1_555
Hg64 K2 3.597801 1_555
Hg64 K49 3.677457 1_555
Hg64 K38 3.704605 1_655
Hg64 K19 3.782676 1_555
Hg64 K3 3.803736 1_555
Hg64 K16 3.826213 1_555
Hg65 Hg94 3.011713 1_555
Hg65 K29 3.547779 1_555
Hg65 K37 3.689079 1_546
Hg65 K11 3.689079 1_556
Hg65 K2 3.913626 1_555
Hg65 K19 3.967150 1_555
Hg65 K46 3.967150 1_545
Hg66 Hg93 3.262854 1_555
Hg66 Hg88 3.319255 1_555
Hg66 Hg84 3.320557 1_555
Hg66 K4 3.597801 1_555
Hg66 K42 3.677457 1_555
Hg66 K38 3.704605 1_555
Hg66 K52 3.782676 1_555
Hg66 K40 3.803736 1_555
Hg66 K39 3.826213 1_555
Hg67 Hg89 3.262854 1_555
Hg67 Hg84 3.382035 1_655
Hg67 K15 3.597801 1_555
Hg67 K49 3.677457 1_555
Hg67 K38 3.704605 1_655
Hg67 K21 3.782676 1_555
Hg67 K47 3.803736 1_555
Hg67 K16 3.826213 1_555
Hg68 K29 3.547779 1_555
Hg68 K57 3.689079 1_555
Hg68 K16 3.689079 1_555
Hg68 K32 3.913626 1_555
Hg68 K7 3.967150 1_555
Hg68 K3 3.967150 1_555
Hg69 Na1 3.179556 1_555
Hg69 Hg79 3.189686 1_555
Hg69 K27 3.576283 1_555
Hg69 K56 3.685102 1_555
Hg69 K31 3.685102 1_555
Hg69 K13 3.699275 1_555
Hg69 K45 3.699275 1_555
Hg70 Hg80 3.262854 1_555
Hg70 Hg87 3.353438 1_565
Hg70 K56 3.597801 1_555
Hg70 K17 3.677457 1_565
Hg70 K26 3.704605 1_565
Hg70 K30 3.782676 1_555
Hg70 K5 3.803736 1_555
Hg70 K24 3.826213 1_565
Hg71 Hg74 3.320557 1_555
Hg71 Hg9 3.353438 1_554
Hg71 Hg85 3.382035 1_555
Hg71 K44 3.597801 1_555
Hg71 K22 3.677457 1_555
Hg71 K28 3.704605 1_555
Hg71 K30 3.782676 1_555
Hg71 K5 3.803736 1_555
Hg71 K1 3.826213 1_555
Hg72 Hg76 3.382035 1_555
Hg72 K55 3.547779 1_555
Hg72 K12 3.689079 1_654
Hg72 K39 3.689079 1_655
Hg72 K11 3.913626 1_555
Hg72 K19 3.967150 1_554
Hg72 K21 3.967150 1_555
Hg73 Na1 3.179556 1_555
Hg73 K8 3.576283 1_555
Hg73 K27 3.685102 1_555
Hg73 K32 3.685102 1_555
Hg73 K3 3.699275 1_555
Hg73 K45 3.699275 1_555
Hg74 Hg9 3.320557 1_554
Hg74 K28 3.547779 1_555
Hg74 K9 3.689079 1_555
Hg74 K43 3.689079 1_554
Hg74 K1 3.913626 1_555
Hg74 K6 3.967150 1_554
Hg74 K5 3.967150 1_555
Hg75 Hg86 3.382035 1_556
Hg75 K12 3.597801 1_555
Hg75 K18 3.677457 1_555
Hg75 K28 3.704605 1_556
Hg75 K23 3.782676 1_555
Hg75 K7 3.803736 1_555
Hg75 K54 3.826213 1_555
Hg76 K39 3.597801 1_655
Hg76 K42 3.677457 1_655
Hg76 K55 3.704605 1_555
Hg76 K21 3.782676 1_555
Hg76 K47 3.803736 1_555
Hg76 K48 3.826213 1_555
Hg77 Na1 3.179556 1_555
Hg77 K56 3.576283 1_555
Hg77 K54 3.685102 1_555
Hg77 K4 3.685102 1_555
Hg77 K13 3.699275 1_555
Hg77 K30 3.699275 1_555
Hg78 Hg88 3.353438 1_555
Hg78 K36 3.597801 1_555
Hg78 K17 3.677457 1_555
Hg78 K38 3.704605 1_555
Hg78 K23 3.782676 1_555
Hg78 K7 3.803736 1_555
Hg78 K57 3.826213 1_555
Hg79 Na1 3.179556 1_555
Hg79 K44 3.576283 1_555
Hg79 K31 3.685102 1_555
Hg79 K56 3.685102 1_555
Hg79 K25 3.699275 1_555
Hg79 K30 3.699275 1_555
Hg80 Hg83 3.382035 1_555
Hg80 K24 3.597801 1_565
Hg80 K17 3.677457 1_565
Hg80 K14 3.704605 1_555
Hg80 K5 3.782676 1_555
Hg80 K30 3.803736 1_555
Hg80 K56 3.826213 1_555
Hg81 Hg82 3.320557 1_555
Hg81 Hg89 3.382035 1_555
Hg81 Hg87 3.382035 1_555
Hg81 K26 3.547779 1_555
Hg81 K16 3.689079 1_555
Hg81 K57 3.689079 1_555
Hg81 K34 3.913626 1_555
Hg81 K52 3.967150 1_555
Hg81 K47 3.967150 1_555
Hg82 Hg87 3.319255 1_555
Hg82 K33 3.597801 1_555
Hg82 K35 3.677457 1_555
Hg82 K26 3.704605 1_555
Hg82 K40 3.782676 1_555
Hg82 K52 3.803736 1_555
Hg82 K34 3.826213 1_555
Hg83 K14 3.547779 1_555
Hg83 K15 3.689079 1_465
Hg83 K24 3.689079 1_565
Hg83 K9 3.913626 1_555
Hg83 K50 3.967150 1_455
Hg83 K5 3.967150 1_555
Hg84 Hg88 3.382035 1_555
Hg84 K38 3.547779 1_555
Hg84 K15 3.689079 1_455
Hg84 K24 3.689079 1_555
Hg84 K39 3.913626 1_555
Hg84 K21 3.967150 1_455
Hg84 K40 3.967150 1_555
Hg85 Hg93 3.320557 1_555
Hg85 K28 3.547779 1_555
Hg85 K34 3.689079 1_555
Hg85 K44 3.689079 1_555
Hg85 K4 3.913626 1_555
Hg85 K30 3.967150 1_555
Hg85 K52 3.967150 1_555
Hg86 Hg93 3.382035 1_555
Hg86 K28 3.547779 1_555
Hg86 K12 3.689079 1_554
Hg86 K39 3.689079 1_555
Hg86 K33 3.913626 1_555
Hg86 K23 3.967150 1_554
Hg86 K40 3.967150 1_555
Hg87 Hg88 3.262854 1_555
Hg87 K57 3.597801 1_555
Hg87 K17 3.677457 1_555
Hg87 K26 3.704605 1_555
Hg87 K52 3.782676 1_555
Hg87 K40 3.803736 1_555
Hg87 K24 3.826213 1_555
Hg88 K24 3.597801 1_555
Hg88 K17 3.677457 1_555
Hg88 K38 3.704605 1_555
Hg88 K40 3.782676 1_555
Hg88 K52 3.803736 1_555
Hg88 K57 3.826213 1_555
Hg89 K16 3.597801 1_555
Hg89 K49 3.677457 1_555
Hg89 K26 3.704605 1_555
Hg89 K47 3.782676 1_555
Hg89 K21 3.803736 1_555
Hg89 K15 3.826213 1_555
Hg90 Hg95 3.011713 1_555
Hg90 K29 3.547779 1_555
Hg90 K33 3.689079 1_556
Hg90 K1 3.689079 1_546
Hg90 K36 3.913626 1_555
Hg90 K23 3.967150 1_555
Hg90 K6 3.967150 1_545
Hg91 Na0 3.179556 1_665
Hg91 K37 3.576283 1_555
Hg91 K43 3.685102 1_654
Hg91 K9 3.685102 1_655
Hg91 K50 3.699275 1_555
Hg91 K46 3.699275 1_554
Hg92 K14 3.547779 1_555
Hg92 K2 3.689079 1_465
Hg92 K36 3.689079 1_565
Hg92 K43 3.913626 1_555
Hg92 K46 3.967150 1_455
Hg92 K6 3.967150 1_555
Hg93 K39 3.597801 1_555
Hg93 K42 3.677457 1_555
Hg93 K28 3.704605 1_555
Hg93 K40 3.782676 1_555
Hg93 K52 3.803736 1_555
Hg93 K4 3.826213 1_555
Hg94 Na0 3.179556 1_656
Hg94 K2 3.576283 1_555
Hg94 K37 3.685102 1_546
Hg94 K11 3.685102 1_556
Hg94 K19 3.699275 1_555
Hg94 K46 3.699275 1_545
Hg95 Na0 3.179556 1_556
Hg95 K36 3.576283 1_555
Hg95 K1 3.685102 1_546
Hg95 K33 3.685102 1_556
Hg95 K6 3.699275 1_545
Hg95 K23 3.699275 1_555
