# generated using pymatgen
data_NaNd3Ti3MnO12
_symmetry_space_group_name_H-M   'P 1'
_cell_length_a   5.53492000
_cell_length_b   5.52810200
_cell_length_c   15.73701900
_cell_angle_alpha   89.90865887
_cell_angle_beta   90.00000000
_cell_angle_gamma   90.00000000
_symmetry_Int_Tables_number   1
_chemical_formula_structural   NaNd3Ti3MnO12
_chemical_formula_sum   'Na2 Nd6 Ti6 Mn2 O24'
_cell_volume   481.51443714
_cell_formula_units_Z   2
loop_
 _symmetry_equiv_pos_site_id
 _symmetry_equiv_pos_as_xyz
  1  'x, y, z'
loop_
 _atom_site_type_symbol
 _atom_site_label
 _atom_site_symmetry_multiplicity
 _atom_site_fract_x
 _atom_site_fract_y
 _atom_site_fract_z
 _atom_site_occupancy
  Na  Na0  1  0.49121400  0.74986800  0.62248400  1
  Na  Na1  1  0.99121400  0.25013200  0.37751600  1
  Nd  Nd0  1  0.02049200  0.23543700  0.12476600  1
  Nd  Nd1  1  0.01285800  0.24221900  0.61828800  1
  Nd  Nd2  1  0.48352200  0.73560100  0.12511600  1
  Nd  Nd3  1  0.52049200  0.76456300  0.87523400  1
  Nd  Nd4  1  0.51285800  0.75778100  0.38171200  1
  Nd  Nd5  1  0.98352200  0.26439900  0.87488400  1
  Ti  Ti0  1  0.00029400  0.74878400  0.50058500  1
  Ti  Ti1  1  0.50029400  0.25121600  0.49941500  1
  Ti  Ti2  1  0.49168700  0.25263600  0.74559300  1
  Ti  Ti3  1  0.50538000  0.24843100  0.25520200  1
  Ti  Ti4  1  0.00538000  0.75156900  0.74479800  1
  Ti  Ti5  1  0.99168700  0.74736400  0.25440700  1
  Mn  Mn0  1  0.00124300  0.74989600  0.99976100  1
  Mn  Mn1  1  0.50124300  0.25010400  0.00023900  1
  O  O0  1  0.90532800  0.76154100  0.13559800  1
  O  O1  1  0.92614400  0.75351300  0.62335000  1
  O  O2  1  0.74531600  0.99906400  0.27616100  1
  O  O3  1  0.73878600  0.51239200  0.97098200  1
  O  O4  1  0.74558400  0.50633700  0.47957100  1
  O  O5  1  0.76266100  0.01170800  0.97107700  1
  O  O6  1  0.75759400  0.00781900  0.77424400  1
  O  O7  1  0.73244300  0.51744400  0.27622600  1
  O  O8  1  0.75152700  0.99991400  0.48011500  1
  O  O9  1  0.74166600  0.50502100  0.77461000  1
  O  O10  1  0.58654200  0.25017400  0.62408200  1
  O  O11  1  0.59971800  0.26276600  0.13644100  1
  O  O12  1  0.40532800  0.23845900  0.86440200  1
  O  O13  1  0.42614400  0.24648700  0.37665000  1
  O  O14  1  0.24531600  0.00093600  0.72383900  1
  O  O15  1  0.25759400  0.99218100  0.22575600  1
  O  O16  1  0.23244300  0.48255600  0.72377400  1
  O  O17  1  0.23878600  0.48760800  0.02901800  1
  O  O18  1  0.24166600  0.49497900  0.22539000  1
  O  O19  1  0.26266100  0.98829200  0.02892300  1
  O  O20  1  0.24558400  0.49366300  0.52042900  1
  O  O21  1  0.25152700  0.00008600  0.51988500  1
  O  O22  1  0.09971800  0.73723400  0.86355900  1
  O  O23  1  0.08654200  0.74982600  0.37591800  1
loop_
_geom_bond_atom_site_label_1
_geom_bond_atom_site_label_2
_geom_bond_distance
_geom_bond_site_symmetry_2
Na0 O1 2.407426 1_555
Na0 O21 2.504624 1_565
Na0 O14 2.515930 1_565
Na0 O20 2.537905 1_555
Na0 O16 2.601621 1_555
Na0 O10 2.812372 1_555
Na0 O10 2.815774 1_565
Na1 O13 2.407426 1_655
Na1 O8 2.504624 1_545
Na1 O2 2.515930 1_545
Na1 O4 2.537905 1_555
Na1 O7 2.601621 1_555
Na1 O23 2.812372 1_655
Na1 O23 2.815774 1_645
Nd0 O11 2.341085 1_455
Nd0 O17 2.380518 1_555
Nd0 O19 2.438184 1_545
Nd0 O15 2.459589 1_545
Nd0 O18 2.464139 1_555
Nd0 O0 2.701298 1_445
Nd1 O10 2.361798 1_455
Nd1 O21 2.437506 1_555
Nd1 O20 2.440528 1_555
Nd1 O16 2.450532 1_555
Nd1 O14 2.487289 1_555
Nd2 O0 2.344888 1_555
Nd2 O19 2.393853 1_555
Nd2 O17 2.451127 1_555
Nd2 O18 2.458621 1_555
Nd2 O15 2.468014 1_555
Nd2 O11 2.697456 1_555
Nd3 O22 2.341085 1_555
Nd3 O3 2.380518 1_555
Nd3 O5 2.438184 1_565
Nd3 O6 2.459589 1_565
Nd3 O9 2.464139 1_555
Nd3 O12 2.701298 1_565
Nd4 O23 2.361798 1_555
Nd4 O8 2.437506 1_555
Nd4 O4 2.440528 1_555
Nd4 O7 2.450532 1_555
Nd4 O2 2.487289 1_555
Nd5 O12 2.344888 1_655
Nd5 O5 2.393853 1_555
Nd5 O3 2.451127 1_555
Nd5 O9 2.458621 1_555
Nd5 O6 2.468014 1_555
Nd5 O22 2.697456 1_655
Mn0 O5 2.010032 1_465
Mn0 O17 2.010193 1_556
Mn0 O3 2.010252 1_455
Mn0 O19 2.010706 1_556
Mn0 O0 2.203645 1_456
Mn0 O22 2.212844 1_555
Mn1 O19 2.010032 1_545
Mn1 O3 2.010193 1_554
Mn1 O17 2.010252 1_555
Mn1 O5 2.010706 1_554
Mn1 O12 2.203645 1_554
Mn1 O11 2.212844 1_555
O0 Ti5 1.931302 1_555
O1 Ti4 1.960915 1_655
O1 Ti0 1.975281 1_655
O2 Ti3 1.941991 1_565
O2 Ti5 1.978459 1_555
O4 Ti0 1.973483 1_655
O4 Ti1 1.982020 1_555
O6 Ti4 2.025946 1_645
O6 Ti2 2.049167 1_555
O7 Ti5 1.947030 1_555
O7 Ti3 1.975368 1_555
O8 Ti0 1.981291 1_655
O8 Ti1 1.989265 1_565
O9 Ti2 2.017808 1_555
O9 Ti4 2.050906 1_655
O10 Ti2 1.983053 1_555
O10 Ti1 2.019130 1_555
O11 Ti3 1.942010 1_555
O12 Ti2 1.931302 1_555
O13 Ti3 1.960915 1_555
O13 Ti1 1.975281 1_555
O14 Ti4 1.941991 1_545
O14 Ti2 1.978459 1_555
O15 Ti3 2.025946 1_565
O15 Ti5 2.049167 1_455
O16 Ti2 1.947030 1_555
O16 Ti4 1.975368 1_555
O18 Ti5 2.017808 1_455
O18 Ti3 2.050906 1_555
O20 Ti1 1.973483 1_555
O20 Ti0 1.982020 1_555
O21 Ti1 1.981291 1_555
O21 Ti0 1.989265 1_545
O22 Ti4 1.942010 1_555
O23 Ti5 1.983053 1_455
O23 Ti0 2.019130 1_555
