# generated using pymatgen
data_FeBiO3
_symmetry_space_group_name_H-M   'P 1'
_cell_length_a   5.43632513
_cell_length_b   5.67645136
_cell_length_c   7.79673188
_cell_angle_alpha   89.99980781
_cell_angle_beta   89.99999455
_cell_angle_gamma   89.99996887
_symmetry_Int_Tables_number   1
_chemical_formula_structural   FeBiO3
_chemical_formula_sum   'Fe4 Bi4 O12'
_cell_volume   240.59962335
_cell_formula_units_Z   4
loop_
 _symmetry_equiv_pos_site_id
 _symmetry_equiv_pos_as_xyz
  1  'x, y, z'
loop_
 _atom_site_type_symbol
 _atom_site_label
 _atom_site_symmetry_multiplicity
 _atom_site_fract_x
 _atom_site_fract_y
 _atom_site_fract_z
 _atom_site_occupancy
  Fe  Fe0  1  0.49999921  0.99999713  0.00000113  1
  Fe  Fe1  1  -0.00000038  0.50000259  0.50000046  1
  Fe  Fe2  1  0.49999907  -0.00000245  0.50000018  1
  Fe  Fe3  1  0.99999901  0.50000127  0.99999958  1
  Bi  Bi0  1  0.48961770  0.44719707  0.74999811  1
  Bi  Bi1  1  0.98962167  0.05280298  0.25000159  1
  Bi  Bi2  1  0.51037928  0.55279999  0.25000221  1
  Bi  Bi3  1  0.01038003  0.94719856  0.74999831  1
  O  O0  1  0.39935457  0.97068122  0.24999868  1
  O  O1  1  0.60064467  0.02931995  0.75000175  1
  O  O2  1  0.89935452  0.52931872  0.75000062  1
  O  O3  1  0.10064454  0.47067962  0.24999928  1
  O  O4  1  0.30733603  0.69729870  0.54840156  1
  O  O5  1  0.19266667  0.19730147  0.95159838  1
  O  O6  1  0.69266464  0.30269839  0.04840101  1
  O  O7  1  0.80733760  0.80270064  0.45159979  1
  O  O8  1  0.30733398  0.69730205  0.95159846  1
  O  O9  1  0.69266673  0.30270005  0.45159861  1
  O  O10  1  0.19266534  0.19730093  0.54840168  1
  O  O11  1  0.80733314  0.80269911  0.04840163  1
loop_
_geom_bond_atom_site_label_1
_geom_bond_atom_site_label_2
_geom_bond_distance
_geom_bond_site_symmetry_2
Fe0 O0 2.031327 1_555
Fe0 O1 2.031345 1_564
Fe0 O11 2.046499 1_555
Fe0 O5 2.046515 1_564
Fe0 O8 2.047384 1_554
Fe0 O6 2.047410 1_565
Fe1 O2 2.031348 1_455
Fe1 O3 2.031359 1_555
Fe1 O4 2.046507 1_555
Fe1 O9 2.046512 1_455
Fe1 O7 2.047383 1_455
Fe1 O10 2.047411 1_555
Fe2 O0 2.031358 1_545
Fe2 O1 2.031363 1_555
Fe2 O7 2.046517 1_545
Fe2 O10 2.046517 1_555
Fe2 O4 2.047391 1_545
Fe2 O9 2.047422 1_555
Fe3 O2 2.031338 1_555
Fe3 O3 2.031347 1_656
Fe3 O8 2.046514 1_655
Fe3 O6 2.046518 1_556
Fe3 O11 2.047397 1_556
Fe3 O5 2.047410 1_655
Bi0 O2 2.275719 1_555
Bi0 O4 2.338377 1_555
Bi0 O8 2.338419 1_555
Bi0 O1 2.447646 1_555
Bi0 O10 2.662484 1_555
Bi0 O5 2.662490 1_555
Bi0 O9 2.702600 1_555
Bi0 O6 2.702616 1_556
Bi1 O0 2.275697 1_645
Bi1 O7 2.338394 1_545
Bi1 O11 2.338425 1_545
Bi1 O3 2.447638 1_655
Bi1 O9 2.662497 1_555
Bi1 O6 2.662510 1_555
Bi1 O10 2.702594 1_655
Bi1 O5 2.702614 1_654
Bi2 O3 2.275706 1_555
Bi2 O9 2.338384 1_555
Bi2 O6 2.338416 1_555
Bi2 O0 2.447665 1_555
Bi2 O11 2.662511 1_555
Bi2 O7 2.662522 1_555
Bi2 O4 2.702589 1_555
Bi2 O8 2.702624 1_554
Bi3 O1 2.275710 1_465
Bi3 O10 2.338389 1_565
Bi3 O5 2.338418 1_565
Bi3 O2 2.447660 1_455
Bi3 O8 2.662501 1_555
Bi3 O4 2.662507 1_555
Bi3 O7 2.702581 1_455
Bi3 O11 2.702620 1_456
