# generated using pymatgen
data_K5YNi2(NO2)12
_symmetry_space_group_name_H-M   'P 1'
_cell_length_a   10.61392800
_cell_length_b   10.61392800
_cell_length_c   10.61392800
_cell_angle_alpha   90.00000000
_cell_angle_beta   90.00000000
_cell_angle_gamma   90.00000000
_symmetry_Int_Tables_number   1
_chemical_formula_structural   K5YNi2(NO2)12
_chemical_formula_sum   'K10 Y2 Ni4 N24 O48'
_cell_volume   1195.71702180
_cell_formula_units_Z   2
loop_
 _symmetry_equiv_pos_site_id
 _symmetry_equiv_pos_as_xyz
  1  'x, y, z'
loop_
 _atom_site_type_symbol
 _atom_site_label
 _atom_site_symmetry_multiplicity
 _atom_site_fract_x
 _atom_site_fract_y
 _atom_site_fract_z
 _atom_site_occupancy
  K  K0  1  0.25000000  0.25000000  0.75000000  1
  K  K1  1  0.25000000  0.75000000  0.25000000  1
  K  K2  1  0.00000000  0.50000000  0.50000000  1
  K  K3  1  0.50000000  0.00000000  0.00000000  1
  K  K4  1  0.50000000  0.00000000  0.50000000  1
  K  K5  1  0.75000000  0.75000000  0.75000000  1
  K  K6  1  0.50000000  0.50000000  0.00000000  1
  K  K7  1  0.00000000  0.50000000  0.00000000  1
  K  K8  1  0.75000000  0.25000000  0.25000000  1
  K  K9  1  0.00000000  0.00000000  0.50000000  1
  Y  Y0  1  0.00000000  0.00000000  0.00000000  1
  Y  Y1  1  0.50000000  0.50000000  0.50000000  1
  Ni  Ni0  1  0.75000000  0.75000000  0.25000000  1
  Ni  Ni1  1  0.25000000  0.75000000  0.75000000  1
  Ni  Ni2  1  0.75000000  0.25000000  0.75000000  1
  Ni  Ni3  1  0.25000000  0.25000000  0.25000000  1
  N  N0  1  0.25627800  0.25682800  0.44478200  1
  N  N1  1  0.55521800  0.74372200  0.25682800  1
  N  N2  1  0.44478200  0.74372200  0.74317200  1
  N  N3  1  0.25682800  0.55521800  0.74372200  1
  N  N4  1  0.74372200  0.74317200  0.44478200  1
  N  N5  1  0.75682800  0.05521800  0.75627800  1
  N  N6  1  0.05521800  0.75627800  0.75682800  1
  N  N7  1  0.55521800  0.25627800  0.74317200  1
  N  N8  1  0.25682800  0.44478200  0.25627800  1
  N  N9  1  0.75627800  0.24317200  0.94478200  1
  N  N10  1  0.74317200  0.55521800  0.25627800  1
  N  N11  1  0.24372200  0.24317200  0.05521800  1
  N  N12  1  0.25627800  0.74317200  0.55521800  1
  N  N13  1  0.75682800  0.94478200  0.24372200  1
  N  N14  1  0.44478200  0.25627800  0.25682800  1
  N  N15  1  0.24317200  0.94478200  0.75627800  1
  N  N16  1  0.24317200  0.05521800  0.24372200  1
  N  N17  1  0.94478200  0.75627800  0.24317200  1
  N  N18  1  0.74317200  0.44478200  0.74372200  1
  N  N19  1  0.74372200  0.25682800  0.55521800  1
  N  N20  1  0.24372200  0.75682800  0.94478200  1
  N  N21  1  0.75627800  0.75682800  0.05521800  1
  N  N22  1  0.94478200  0.24372200  0.75682800  1
  N  N23  1  0.05521800  0.24372200  0.24317200  1
  O  O0  1  0.25543900  0.00690300  0.65654900  1
  O  O1  1  0.75543900  0.50690300  0.84345100  1
  O  O2  1  0.15654900  0.75543900  0.49309700  1
  O  O3  1  0.99309700  0.34345100  0.25543900  1
  O  O4  1  0.65654900  0.25543900  0.00690300  1
  O  O5  1  0.00548200  0.85713000  0.21820200  1
  O  O6  1  0.14287000  0.21820200  0.99451800  1
  O  O7  1  0.71820200  0.49451800  0.35713000  1
  O  O8  1  0.34345100  0.74456100  0.00690300  1
  O  O9  1  0.78179800  0.00548200  0.14287000  1
  O  O10  1  0.84345100  0.75543900  0.50690300  1
  O  O11  1  0.14287000  0.78179800  0.00548200  1
  O  O12  1  0.49309700  0.15654900  0.75543900  1
  O  O13  1  0.64287000  0.71820200  0.50548200  1
  O  O14  1  0.78179800  0.99451800  0.85713000  1
  O  O15  1  0.65654900  0.74456100  0.99309700  1
  O  O16  1  0.64287000  0.28179800  0.49451800  1
  O  O17  1  0.00690300  0.65654900  0.25543900  1
  O  O18  1  0.84345100  0.24456100  0.49309700  1
  O  O19  1  0.85713000  0.78179800  0.99451800  1
  O  O20  1  0.28179800  0.49451800  0.64287000  1
  O  O21  1  0.00690300  0.34345100  0.74456100  1
  O  O22  1  0.00548200  0.14287000  0.78179800  1
  O  O23  1  0.49309700  0.84345100  0.24456100  1
  O  O24  1  0.75543900  0.49309700  0.15654900  1
  O  O25  1  0.99451800  0.14287000  0.21820200  1
  O  O26  1  0.15654900  0.24456100  0.50690300  1
  O  O27  1  0.74456100  0.00690300  0.34345100  1
  O  O28  1  0.34345100  0.25543900  0.99309700  1
  O  O29  1  0.28179800  0.50548200  0.35713000  1
  O  O30  1  0.49451800  0.35713000  0.71820200  1
  O  O31  1  0.35713000  0.71820200  0.49451800  1
  O  O32  1  0.99309700  0.65654900  0.74456100  1
  O  O33  1  0.50548200  0.64287000  0.71820200  1
  O  O34  1  0.50690300  0.84345100  0.75543900  1
  O  O35  1  0.25543900  0.99309700  0.34345100  1
  O  O36  1  0.49451800  0.64287000  0.28179800  1
  O  O37  1  0.50690300  0.15654900  0.24456100  1
  O  O38  1  0.74456100  0.99309700  0.65654900  1
  O  O39  1  0.24456100  0.49309700  0.84345100  1
  O  O40  1  0.85713000  0.21820200  0.00548200  1
  O  O41  1  0.99451800  0.85713000  0.78179800  1
  O  O42  1  0.21820200  0.99451800  0.14287000  1
  O  O43  1  0.35713000  0.28179800  0.50548200  1
  O  O44  1  0.24456100  0.50690300  0.15654900  1
  O  O45  1  0.71820200  0.50548200  0.64287000  1
  O  O46  1  0.50548200  0.35713000  0.28179800  1
  O  O47  1  0.21820200  0.00548200  0.85713000  1
loop_
_geom_bond_atom_site_label_1
_geom_bond_atom_site_label_2
_geom_bond_distance
_geom_bond_site_symmetry_2
K0 O0 2.764899 1_555
K0 O39 2.764899 1_555
K0 O21 2.764899 1_555
K0 O28 2.764899 1_555
K0 O12 2.764899 1_555
K0 O26 2.764899 1_555
K0 O47 2.853489 1_555
K0 O20 2.853489 1_555
K0 O6 2.853489 1_555
K0 O30 2.853489 1_555
K0 O43 2.853489 1_555
K0 O22 2.853489 1_555
K1 O23 2.764899 1_555
K1 O17 2.764899 1_555
K1 O2 2.764899 1_555
K1 O44 2.764899 1_555
K1 O35 2.764899 1_555
K1 O8 2.764899 1_555
K1 O36 2.853489 1_555
K1 O5 2.853489 1_555
K1 O29 2.853489 1_555
K1 O42 2.853489 1_555
K1 O11 2.853489 1_555
K1 O31 2.853489 1_555
K2 O3 3.082891 1_455
K2 O21 3.082891 1_555
K2 O17 3.082891 1_555
K2 O32 3.082891 1_455
K2 O26 3.180715 1_555
K2 O2 3.180715 1_555
K2 O18 3.180715 1_455
K2 O10 3.180715 1_455
K2 O45 3.353934 1_455
K2 O7 3.353934 1_455
K2 O29 3.353934 1_555
K2 O20 3.353934 1_555
K3 O12 3.082891 1_554
K3 O37 3.082891 1_555
K3 O23 3.082891 1_545
K3 O34 3.082891 1_544
K3 O8 3.180715 1_545
K3 O4 3.180715 1_555
K3 O28 3.180715 1_554
K3 O15 3.180715 1_544
K3 O42 3.353934 1_545
K3 O9 3.353934 1_555
K3 O14 3.353934 1_544
K3 O47 3.353934 1_554
K4 O27 3.082891 1_555
K4 O35 3.082891 1_545
K4 O0 3.082891 1_555
K4 O38 3.082891 1_545
K4 O12 3.180715 1_555
K4 O37 3.180715 1_555
K4 O34 3.180715 1_545
K4 O23 3.180715 1_545
K4 O13 3.353934 1_545
K4 O43 3.353934 1_555
K4 O16 3.353934 1_555
K4 O31 3.353934 1_545
K5 O38 2.764899 1_555
K5 O1 2.764899 1_555
K5 O32 2.764899 1_555
K5 O10 2.764899 1_555
K5 O15 2.764899 1_555
K5 O34 2.764899 1_555
K5 O33 2.853489 1_555
K5 O14 2.853489 1_555
K5 O41 2.853489 1_555
K5 O19 2.853489 1_555
K5 O13 2.853489 1_555
K5 O45 2.853489 1_555
K6 O8 3.082891 1_555
K6 O4 3.082891 1_555
K6 O28 3.082891 1_554
K6 O15 3.082891 1_554
K6 O44 3.180715 1_555
K6 O24 3.180715 1_555
K6 O39 3.180715 1_554
K6 O1 3.180715 1_554
K6 O36 3.353934 1_555
K6 O30 3.353934 1_554
K6 O33 3.353934 1_554
K6 O46 3.353934 1_555
K7 O24 3.082891 1_455
K7 O44 3.082891 1_555
K7 O1 3.082891 1_454
K7 O39 3.082891 1_554
K7 O21 3.180715 1_554
K7 O32 3.180715 1_454
K7 O3 3.180715 1_455
K7 O17 3.180715 1_555
K7 O11 3.353934 1_555
K7 O40 3.353934 1_455
K7 O19 3.353934 1_454
K7 O6 3.353934 1_554
K8 O18 2.764899 1_555
K8 O4 2.764899 1_555
K8 O24 2.764899 1_555
K8 O37 2.764899 1_555
K8 O27 2.764899 1_555
K8 O3 2.764899 1_555
K8 O16 2.853489 1_555
K8 O40 2.853489 1_555
K8 O7 2.853489 1_555
K8 O46 2.853489 1_555
K8 O25 2.853489 1_555
K8 O9 2.853489 1_555
K9 O2 3.082891 1_545
K9 O26 3.082891 1_555
K9 O18 3.082891 1_455
K9 O10 3.082891 1_445
K9 O27 3.180715 1_455
K9 O38 3.180715 1_445
K9 O35 3.180715 1_545
K9 O0 3.180715 1_555
K9 O25 3.353934 1_455
K9 O22 3.353934 1_555
K9 O5 3.353934 1_545
K9 O41 3.353934 1_445
N0 O26 1.253854 1_555
N0 O43 1.277165 1_555
N0 Ni3 2.069745 1_555
N1 O23 1.253854 1_555
N1 O36 1.277165 1_555
N1 Ni0 2.069745 1_555
N2 O34 1.253854 1_555
N2 O33 1.277165 1_555
N2 Ni1 2.069745 1_555
N3 O39 1.253854 1_555
N3 O20 1.277165 1_555
N3 Ni1 2.069745 1_555
N4 O10 1.253854 1_555
N4 O13 1.277165 1_555
N4 Ni0 2.069745 1_555
N5 O38 1.253854 1_545
N5 O14 1.277165 1_545
N5 Ni2 2.069745 1_555
N6 O32 1.253854 1_455
N6 O41 1.277165 1_455
N6 Ni1 2.069745 1_555
N7 O12 1.253854 1_555
N7 O30 1.277165 1_555
N7 Ni2 2.069745 1_555
N8 O44 1.253854 1_555
N8 O29 1.277165 1_555
N8 Ni3 2.069745 1_555
N9 O4 1.253854 1_556
N9 O40 1.277165 1_556
N9 Ni2 2.069745 1_555
N10 O24 1.253854 1_555
N10 O7 1.277165 1_555
N10 Ni0 2.069745 1_555
N11 O28 1.253854 1_554
N11 O6 1.277165 1_554
N11 Ni3 2.069745 1_555
N12 O2 1.253854 1_555
N12 O31 1.277165 1_555
N12 Ni1 2.069745 1_555
N13 O27 1.253854 1_565
N13 O9 1.277165 1_565
N13 Ni0 2.069745 1_555
N14 O37 1.253854 1_555
N14 O46 1.277165 1_555
N14 Ni3 2.069745 1_555
N15 O0 1.253854 1_565
N15 O47 1.277165 1_565
N15 Ni1 2.069745 1_555
N16 O35 1.253854 1_545
N16 O42 1.277165 1_545
N16 Ni3 2.069745 1_555
N17 O17 1.253854 1_655
N17 O5 1.277165 1_655
N17 Ni0 2.069745 1_555
N18 O1 1.253854 1_555
N18 O45 1.277165 1_555
N18 Ni2 2.069745 1_555
N19 O18 1.253854 1_555
N19 O16 1.277165 1_555
N19 Ni2 2.069745 1_555
N20 O8 1.253854 1_556
N20 O11 1.277165 1_556
N20 Ni1 2.069745 1_555
N21 O15 1.253854 1_554
N21 O19 1.277165 1_554
N21 Ni0 2.069745 1_555
N22 O21 1.253854 1_655
N22 O22 1.277165 1_655
N22 Ni2 2.069745 1_555
N23 O3 1.253854 1_455
N23 O25 1.277165 1_455
N23 Ni3 2.069745 1_555
O5 Y0 2.768873 1_565
O6 Y0 2.768873 1_556
O7 Y1 2.768873 1_555
O9 Y0 2.768873 1_655
O11 Y0 2.768873 1_565
O13 Y1 2.768873 1_555
O14 Y0 2.768873 1_666
O16 Y1 2.768873 1_555
O19 Y0 2.768873 1_666
O20 Y1 2.768873 1_555
O22 Y0 2.768873 1_556
O25 Y0 2.768873 1_655
O29 Y1 2.768873 1_555
O30 Y1 2.768873 1_555
O31 Y1 2.768873 1_555
O33 Y1 2.768873 1_555
O36 Y1 2.768873 1_555
O40 Y0 2.768873 1_655
O41 Y0 2.768873 1_666
O42 Y0 2.768873 1_565
O43 Y1 2.768873 1_555
O45 Y1 2.768873 1_555
O46 Y1 2.768873 1_555
O47 Y0 2.768873 1_556
