# generated using pymatgen
data_Dy5Mg24
_symmetry_space_group_name_H-M   'P 1'
_cell_length_a   9.71000670
_cell_length_b   9.71000729
_cell_length_c   9.71000610
_cell_angle_alpha   109.47132135
_cell_angle_beta   109.47131145
_cell_angle_gamma   109.47131639
_symmetry_Int_Tables_number   1
_chemical_formula_structural   Dy5Mg24
_chemical_formula_sum   'Dy5 Mg24'
_cell_volume   704.75011825
_cell_formula_units_Z   1
loop_
 _symmetry_equiv_pos_site_id
 _symmetry_equiv_pos_as_xyz
  1  'x, y, z'
loop_
 _atom_site_type_symbol
 _atom_site_label
 _atom_site_symmetry_multiplicity
 _atom_site_fract_x
 _atom_site_fract_y
 _atom_site_fract_z
 _atom_site_occupancy
  Dy  Dy0  1  0.37169715  0.00000000  0.00000000  1
  Dy  Dy1  1  -0.00000000  -0.00000000  0.00000000  1
  Dy  Dy2  1  0.00000000  0.37169715  0.00000000  1
  Dy  Dy3  1  0.00000000  0.00000000  0.37169615  1
  Dy  Dy4  1  0.62830285  0.62830285  0.62830285  1
  Mg  Mg0  1  0.67793214  0.28609375  0.67793214  1
  Mg  Mg1  1  0.37265445  0.18120196  0.37265445  1
  Mg  Mg2  1  0.62734555  0.80854851  1.00000000  1
  Mg  Mg3  1  1.00000000  0.60816161  0.32206786  1
  Mg  Mg4  1  0.71390625  0.39183839  0.39183839  1
  Mg  Mg5  1  0.60816161  0.32206786  1.00000000  1
  Mg  Mg6  1  0.39183839  0.39183839  0.71390625  1
  Mg  Mg7  1  0.80854751  0.62734555  1.00000000  1
  Mg  Mg8  1  0.39183839  0.71390625  0.39183839  1
  Mg  Mg9  1  0.80854851  1.00000000  0.62734555  1
  Mg  Mg10  1  0.67793214  0.67793214  0.28609375  1
  Mg  Mg11  1  0.28609375  0.67793214  0.67793214  1
  Mg  Mg12  1  0.19145149  0.19145149  0.81879804  1
  Mg  Mg13  1  0.19145249  0.81879804  0.19145149  1
  Mg  Mg14  1  0.32206786  1.00000000  0.60816161  1
  Mg  Mg15  1  1.00000000  0.62734555  0.80854751  1
  Mg  Mg16  1  0.81879804  0.19145149  0.19145149  1
  Mg  Mg17  1  0.18120196  0.37265445  0.37265445  1
  Mg  Mg18  1  0.60816161  1.00000000  0.32206786  1
  Mg  Mg19  1  1.00000000  0.80854851  0.62734555  1
  Mg  Mg20  1  0.32206786  0.60816161  1.00000000  1
  Mg  Mg21  1  1.00000000  0.32206786  0.60816161  1
  Mg  Mg22  1  0.62734555  1.00000000  0.80854851  1
  Mg  Mg23  1  0.37265445  0.37265445  0.18120196  1
loop_
_geom_bond_atom_site_label_1
_geom_bond_atom_site_label_2
_geom_bond_distance
_geom_bond_site_symmetry_2
Dy0 Mg11 3.203874 1_544
Dy0 Mg18 3.203878 1_545
Dy0 Mg5 3.203878 1_554
Dy0 Mg15 3.451288 1_444
Dy0 Mg19 3.451290 1_444
Dy0 Mg13 3.451293 1_545
Dy0 Mg1 3.451297 1_555
Dy0 Mg23 3.451297 1_555
Dy0 Mg12 3.451298 1_554
Dy0 Mg16 3.562915 1_555
Dy0 Mg22 3.562917 1_544
Dy0 Mg2 3.562917 1_544
Dy0 Dy1 3.609182 1_555
Dy0 Mg4 3.672317 1_555
Dy0 Mg14 3.672333 1_544
Dy0 Mg20 3.672333 1_544
Dy1 Mg17 3.473425 1_555
Dy1 Mg1 3.473425 1_555
Dy1 Mg23 3.473426 1_555
Dy1 Mg16 3.473428 1_455
Dy1 Mg12 3.473428 1_554
Dy1 Mg19 3.473432 1_444
Dy1 Mg9 3.473432 1_444
Dy1 Mg2 3.473432 1_444
Dy1 Mg22 3.473432 1_444
Dy1 Mg13 3.473434 1_545
Dy1 Mg15 3.473434 1_444
Dy1 Mg7 3.473434 1_444
Dy1 Dy4 3.609165 1_444
Dy1 Dy3 3.609172 1_555
Dy1 Dy2 3.609182 1_555
Dy2 Mg0 3.203874 1_454
Dy2 Mg3 3.203878 1_455
Dy2 Mg20 3.203878 1_554
Dy2 Mg9 3.451289 1_444
Dy2 Mg22 3.451290 1_444
Dy2 Mg17 3.451297 1_555
Dy2 Mg23 3.451297 1_555
Dy2 Mg12 3.451298 1_554
Dy2 Mg16 3.451298 1_455
Dy2 Mg13 3.562914 1_555
Dy2 Mg7 3.562924 1_454
Dy2 Mg15 3.562924 1_454
Dy2 Mg8 3.672317 1_555
Dy2 Mg21 3.672333 1_454
Dy2 Mg5 3.672333 1_454
Dy3 Mg10 3.203878 1_445
Dy3 Mg21 3.203882 1_455
Dy3 Mg14 3.203882 1_545
Dy3 Mg7 3.451283 1_444
Dy3 Mg2 3.451285 1_444
Dy3 Mg1 3.451292 1_555
Dy3 Mg17 3.451292 1_555
Dy3 Mg16 3.451293 1_455
Dy3 Mg13 3.451302 1_545
Dy3 Mg12 3.562923 1_555
Dy3 Mg9 3.562925 1_445
Dy3 Mg19 3.562925 1_445
Dy3 Mg6 3.672319 1_555
Dy3 Mg18 3.672335 1_445
Dy3 Mg3 3.672335 1_445
Dy4 Mg4 3.203881 1_555
Dy4 Mg6 3.203881 1_555
Dy4 Mg8 3.203881 1_555
Dy4 Mg7 3.451297 1_555
Dy4 Mg15 3.451297 1_555
Dy4 Mg2 3.451299 1_555
Dy4 Mg19 3.451299 1_555
Dy4 Mg22 3.451299 1_555
Dy4 Mg9 3.451299 1_555
Dy4 Mg23 3.562910 1_555
Dy4 Mg1 3.562910 1_555
Dy4 Mg17 3.562910 1_555
Dy4 Mg10 3.672335 1_555
Dy4 Mg11 3.672335 1_555
Dy4 Mg0 3.672335 1_555
Mg0 Mg1 2.954241 1_555
Mg0 Mg7 3.164473 1_555
Mg0 Mg15 3.164473 1_555
Mg0 Mg18 3.301730 1_545
Mg0 Mg14 3.301730 1_545
Mg0 Mg5 3.347060 1_555
Mg0 Mg21 3.347060 1_555
Mg0 Mg4 3.347061 1_555
Mg0 Mg6 3.347062 1_555
Mg0 Mg9 3.379561 1_545
Mg0 Mg22 3.379562 1_545
Mg1 Mg13 2.873198 1_545
Mg1 Mg17 3.035744 1_555
Mg1 Mg23 3.035744 1_555
Mg1 Mg6 3.164478 1_555
Mg1 Mg4 3.164479 1_555
Mg1 Mg14 3.379555 1_545
Mg1 Mg18 3.379555 1_545
Mg2 Mg7 2.873216 1_555
Mg2 Mg20 2.954249 1_555
Mg2 Mg22 3.035728 1_555
Mg2 Mg6 3.379548 1_555
Mg3 Mg7 3.164480 1_554
Mg3 Mg4 3.301735 1_555
Mg3 Mg5 3.347045 1_554
Mg3 Mg8 3.347057 1_655
Mg4 Mg5 3.347056 1_554
Mg5 Mg7 2.954246 1_555
Mg5 Mg6 3.301735 1_555
Mg6 Mg7 3.379541 1_555
Mg8 Mg9 3.379548 1_555
Mg10 Mg23 2.954241 1_555
Mg10 Mg9 3.164470 1_555
Mg10 Mg19 3.164470 1_555
Mg10 Mg5 3.301730 1_554
Mg10 Mg20 3.301730 1_554
Mg10 Mg3 3.347061 1_555
Mg10 Mg18 3.347061 1_555
Mg10 Mg8 3.347061 1_555
Mg10 Mg4 3.347062 1_555
Mg10 Mg7 3.379554 1_554
Mg10 Mg2 3.379561 1_554
Mg11 Mg17 2.954240 1_555
Mg11 Mg2 3.164471 1_555
Mg11 Mg22 3.164471 1_555
Mg11 Mg3 3.301730 1_455
Mg11 Mg21 3.301730 1_455
Mg11 Mg20 3.347060 1_555
Mg11 Mg14 3.347061 1_555
Mg11 Mg8 3.347061 1_555
Mg11 Mg6 3.347062 1_555
Mg11 Mg15 3.379554 1_455
Mg11 Mg19 3.379561 1_455
Mg12 Mg23 2.873197 1_556
Mg12 Mg6 2.954259 1_555
Mg12 Mg19 3.035718 1_445
Mg12 Mg9 3.035718 1_445
Mg12 Mg14 3.164486 1_545
Mg12 Mg21 3.164486 1_455
Mg12 Mg5 3.379553 1_555
Mg12 Mg20 3.379553 1_555
Mg13 Mg8 2.954254 1_555
Mg13 Mg15 3.035725 1_454
Mg13 Mg7 3.035734 1_454
Mg13 Mg20 3.164478 1_554
Mg13 Mg3 3.164491 1_455
Mg13 Mg18 3.379545 1_555
Mg13 Mg14 3.379555 1_555
Mg14 Mg22 2.954249 1_555
Mg14 Mg19 3.164477 1_455
Mg14 Mg8 3.301735 1_555
Mg14 Mg5 3.347045 1_565
Mg14 Mg3 3.347045 1_455
Mg14 Mg6 3.347057 1_565
Mg15 Mg19 2.873216 1_555
Mg15 Mg21 2.954245 1_555
Mg15 Mg7 3.035744 1_555
Mg15 Mg20 3.164480 1_655
Mg15 Mg4 3.379541 1_555
Mg16 Mg17 2.873198 1_655
Mg16 Mg4 2.954259 1_555
Mg16 Mg22 3.035717 1_544
Mg16 Mg2 3.035718 1_544
Mg16 Mg18 3.164486 1_545
Mg16 Mg5 3.164486 1_554
Mg16 Mg21 3.379553 1_555
Mg16 Mg3 3.379553 1_555
Mg17 Mg23 3.035744 1_555
Mg17 Mg6 3.164478 1_555
Mg17 Mg8 3.164479 1_555
Mg17 Mg21 3.379555 1_455
Mg17 Mg3 3.379555 1_455
Mg18 Mg9 2.954249 1_555
Mg18 Mg2 3.164477 1_554
Mg18 Mg8 3.301735 1_555
Mg18 Mg20 3.347045 1_554
Mg18 Mg21 3.347045 1_565
Mg18 Mg4 3.347057 1_565
Mg19 Mg3 2.954248 1_555
Mg19 Mg9 3.035728 1_555
Mg19 Mg4 3.379548 1_555
Mg20 Mg6 3.301735 1_555
Mg20 Mg21 3.347045 1_455
Mg20 Mg8 3.347056 1_556
Mg20 Mg23 3.379555 1_556
Mg21 Mg9 3.164477 1_545
Mg21 Mg4 3.301736 1_555
Mg21 Mg6 3.347057 1_655
Mg22 Mg9 2.873224 1_555
Mg22 Mg5 3.164477 1_565
Mg22 Mg8 3.379547 1_555
Mg23 Mg8 3.164478 1_555
Mg23 Mg4 3.164479 1_555
Mg23 Mg5 3.379555 1_554
