# generated using pymatgen
data_Sm4Ag2Se7
_symmetry_space_group_name_H-M   'P 1'
_cell_length_a   12.42502800
_cell_length_b   7.40960600
_cell_length_c   7.78967375
_cell_angle_alpha   71.15975985
_cell_angle_beta   90.00000000
_cell_angle_gamma   90.00000000
_symmetry_Int_Tables_number   1
_chemical_formula_structural   Sm4Ag2Se7
_chemical_formula_sum   'Sm8 Ag4 Se14'
_cell_volume   678.72978012
_cell_formula_units_Z   2
loop_
 _symmetry_equiv_pos_site_id
 _symmetry_equiv_pos_as_xyz
  1  'x, y, z'
loop_
 _atom_site_type_symbol
 _atom_site_label
 _atom_site_symmetry_multiplicity
 _atom_site_fract_x
 _atom_site_fract_y
 _atom_site_fract_z
 _atom_site_occupancy
  Sm  Sm0  1  0.21558200  0.17373900  0.20799700  1
  Sm  Sm1  1  0.94479800  0.54189700  0.05148600  1
  Sm  Sm2  1  0.05520200  0.54189700  0.55148600  1
  Sm  Sm3  1  0.78441800  0.17373900  0.70799700  1
  Sm  Sm4  1  0.85707600  0.97842800  0.25804500  1
  Sm  Sm5  1  0.14292400  0.97842800  0.75804500  1
  Sm  Sm6  1  0.36797600  0.47916200  0.75406300  1
  Sm  Sm7  1  0.63202400  0.47916200  0.25406300  1
  Ag  Ag0  1  0.68071700  0.70334500  0.71047700  1
  Ag  Ag1  1  0.44881800  0.11601000  0.53922400  1
  Ag  Ag2  1  0.55118200  0.11601000  0.03922400  1
  Ag  Ag3  1  0.31928300  0.70334500  0.21047700  1
  Se  Se0  1  0.98816100  0.22655400  0.87423700  1
  Se  Se1  1  0.01183900  0.22655400  0.37423700  1
  Se  Se2  1  0.16770100  0.55485300  0.90890400  1
  Se  Se3  1  0.83229900  0.55485300  0.40890400  1
  Se  Se4  1  0.69978000  0.85404300  0.00703800  1
  Se  Se5  1  0.06902000  0.81938900  0.18184900  1
  Se  Se6  1  0.65981700  0.04895900  0.44598400  1
  Se  Se7  1  0.34018300  0.04895900  0.94598400  1
  Se  Se8  1  0.93098000  0.81938900  0.68184900  1
  Se  Se9  1  0.24810600  0.33987000  0.51035100  1
  Se  Se10  1  0.57599800  0.41375200  0.63434500  1
  Se  Se11  1  0.75189400  0.33987000  0.01035100  1
  Se  Se12  1  0.42400200  0.41375200  0.13434500  1
  Se  Se13  1  0.30022000  0.85404300  0.50703800  1
loop_
_geom_bond_atom_site_label_1
_geom_bond_atom_site_label_2
_geom_bond_distance
_geom_bond_site_symmetry_2
Ag0 Se6 2.731789 1_565
Ag0 Se10 2.733289 1_555
Ag0 Se4 2.881935 1_556
Ag0 Se11 3.070639 1_556
Ag0 Se8 3.214710 1_555
Ag1 Se13 2.748434 1_545
Ag1 Se6 2.807233 1_555
Ag1 Se9 2.963152 1_555
Ag1 Se10 2.994825 1_555
Ag1 Se12 3.227267 1_555
Ag1 Se7 3.330410 1_555
Ag2 Se4 2.748434 1_545
Ag2 Se7 2.807233 1_554
Ag2 Se11 2.963152 1_555
Ag2 Se12 2.994825 1_555
Ag2 Se10 3.227267 1_554
Ag2 Se6 3.330410 1_555
Ag3 Se7 2.731789 1_564
Ag3 Se12 2.733289 1_555
Ag3 Se13 2.881935 1_555
Ag3 Se9 3.070639 1_555
Ag3 Se5 3.214710 1_555
Se0 Sm3 2.926758 1_555
Se0 Sm2 2.946214 1_655
Se0 Sm5 2.995289 1_645
Se0 Sm1 3.120870 1_556
Se0 Sm4 3.379551 1_546
Se0 Sm0 3.773600 1_656
Se1 Sm0 2.926758 1_555
Se1 Sm1 2.946214 1_455
Se1 Sm4 2.995289 1_445
Se1 Sm2 3.120870 1_555
Se1 Sm5 3.379551 1_545
Se1 Sm3 3.773600 1_455
Se2 Sm6 2.898019 1_555
Se2 Sm1 2.973968 1_456
Se2 Sm5 2.990651 1_555
Se2 Sm0 3.083381 1_556
Se2 Sm2 3.144407 1_555
Se3 Sm7 2.898019 1_555
Se3 Sm2 2.973968 1_655
Se3 Sm4 2.990651 1_555
Se3 Sm3 3.083381 1_555
Se3 Sm1 3.144407 1_555
Se4 Sm3 2.929100 1_564
Se4 Sm7 2.945345 1_555
Se4 Sm4 3.107421 1_555
Se5 Sm2 2.953651 1_555
Se5 Sm1 2.998263 1_455
Se5 Sm4 3.021183 1_455
Se5 Sm0 3.255274 1_565
Se5 Sm5 3.258500 1_554
Se6 Sm3 2.938724 1_555
Se6 Sm4 2.986244 1_545
Se6 Sm7 3.072041 1_555
Se7 Sm0 2.938724 1_556
Se7 Sm5 2.986244 1_545
Se7 Sm6 3.072041 1_555
Se8 Sm1 2.953651 1_556
Se8 Sm2 2.998263 1_655
Se8 Sm5 3.021183 1_655
Se8 Sm3 3.255274 1_565
Se8 Sm4 3.258500 1_555
Se9 Sm6 2.855355 1_555
Se9 Sm2 2.897953 1_555
Se9 Sm0 3.016326 1_555
Se9 Sm5 3.043980 1_545
Se10 Sm6 2.842016 1_555
Se10 Sm7 2.926992 1_555
Se10 Sm3 3.088535 1_555
Se11 Sm7 2.855355 1_555
Se11 Sm1 2.897953 1_555
Se11 Sm3 3.016326 1_554
Se11 Sm4 3.043980 1_545
Se12 Sm7 2.842016 1_555
Se12 Sm6 2.926992 1_554
Se12 Sm0 3.088535 1_555
Se13 Sm0 2.929100 1_565
Se13 Sm6 2.945345 1_555
Se13 Sm5 3.107421 1_555
