# generated using pymatgen
data_Na2In5Au6
_symmetry_space_group_name_H-M   'P 1'
_cell_length_a   9.47890100
_cell_length_b   9.47890100
_cell_length_c   9.47890100
_cell_angle_alpha   90.00000000
_cell_angle_beta   90.00000000
_cell_angle_gamma   90.00000000
_symmetry_Int_Tables_number   1
_chemical_formula_structural   Na2In5Au6
_chemical_formula_sum   'Na6 In15 Au18'
_cell_volume   851.67512364
_cell_formula_units_Z   3
loop_
 _symmetry_equiv_pos_site_id
 _symmetry_equiv_pos_as_xyz
  1  'x, y, z'
loop_
 _atom_site_type_symbol
 _atom_site_label
 _atom_site_symmetry_multiplicity
 _atom_site_fract_x
 _atom_site_fract_y
 _atom_site_fract_z
 _atom_site_occupancy
  Na  Na0  1  0.50000000  0.82809400  0.00000000  1
  Na  Na1  1  0.50000000  0.17190600  0.00000000  1
  Na  Na2  1  0.82809400  0.00000000  0.50000000  1
  Na  Na3  1  0.00000000  0.50000000  0.82809400  1
  Na  Na4  1  0.00000000  0.50000000  0.17190600  1
  Na  Na5  1  0.17190600  0.00000000  0.50000000  1
  In  In0  1  0.28338600  0.28338600  0.71661400  1
  In  In1  1  0.71661400  0.71661400  0.28338600  1
  In  In2  1  0.71661400  0.28338600  0.71661400  1
  In  In3  1  0.50000000  0.00000000  0.33766900  1
  In  In4  1  0.50000000  0.00000000  0.66233100  1
  In  In5  1  0.33766900  0.50000000  0.00000000  1
  In  In6  1  0.66233100  0.50000000  0.00000000  1
  In  In7  1  0.00000000  0.33766900  0.50000000  1
  In  In8  1  0.71661400  0.71661400  0.71661400  1
  In  In9  1  0.28338600  0.71661400  0.28338600  1
  In  In10  1  0.00000000  0.66233100  0.50000000  1
  In  In11  1  0.28338600  0.71661400  0.71661400  1
  In  In12  1  0.71661400  0.28338600  0.28338600  1
  In  In13  1  0.28338600  0.28338600  0.28338600  1
  In  In14  1  0.00000000  0.00000000  0.00000000  1
  Au  Au0  1  0.82686700  0.74062500  0.00000000  1
  Au  Au1  1  0.25937500  0.00000000  0.17313300  1
  Au  Au2  1  0.00000000  0.17313300  0.74062500  1
  Au  Au3  1  0.17313300  0.25937500  0.00000000  1
  Au  Au4  1  0.82686700  0.25937500  0.00000000  1
  Au  Au5  1  0.73502900  0.50000000  0.50000000  1
  Au  Au6  1  0.00000000  0.82686700  0.74062500  1
  Au  Au7  1  0.17313300  0.74062500  0.00000000  1
  Au  Au8  1  0.74062500  0.00000000  0.17313300  1
  Au  Au9  1  0.00000000  0.17313300  0.25937500  1
  Au  Au10  1  0.50000000  0.50000000  0.26497100  1
  Au  Au11  1  0.50000000  0.50000000  0.73502900  1
  Au  Au12  1  0.50000000  0.73502900  0.50000000  1
  Au  Au13  1  0.25937500  0.00000000  0.82686700  1
  Au  Au14  1  0.26497100  0.50000000  0.50000000  1
  Au  Au15  1  0.74062500  0.00000000  0.82686700  1
  Au  Au16  1  0.00000000  0.82686700  0.25937500  1
  Au  Au17  1  0.50000000  0.26497100  0.50000000  1
loop_
_geom_bond_atom_site_label_1
_geom_bond_atom_site_label_2
_geom_bond_distance
_geom_bond_site_symmetry_2
Na0 Na1 3.258960 1_565
Na2 Na5 3.258960 1_655
Na3 Na4 3.258960 1_556
In0 Na5 3.542333 1_555
In0 Na3 3.542333 1_555
In0 Na1 3.542333 1_556
In1 Na0 3.542333 1_555
In1 Na4 3.542333 1_655
In1 Na2 3.542333 1_565
In2 Na2 3.542333 1_555
In2 Na1 3.542333 1_556
In2 Na3 3.542333 1_655
In3 Na5 3.469809 1_555
In3 Na2 3.469809 1_555
In3 Na0 3.591641 1_545
In3 Na1 3.591641 1_555
In4 Na5 3.469809 1_555
In4 Na2 3.469809 1_555
In4 Na1 3.591641 1_556
In4 Na0 3.591641 1_546
In5 Na1 3.469809 1_555
In5 Na0 3.469809 1_555
In5 Na3 3.591641 1_554
In5 Na4 3.591641 1_555
In6 Na1 3.469809 1_555
In6 Na0 3.469809 1_555
In6 Na3 3.591641 1_654
In6 Na4 3.591641 1_655
In7 Na4 3.469809 1_555
In7 Na3 3.469809 1_555
In7 Na5 3.591641 1_555
In7 Na2 3.591641 1_455
In8 Na0 3.542333 1_556
In8 Na3 3.542333 1_655
In8 Na2 3.542333 1_565
In9 Na4 3.542333 1_555
In9 Na0 3.542333 1_555
In9 Na5 3.542333 1_565
In10 Na4 3.469809 1_555
In10 Na3 3.469809 1_555
In10 Na2 3.591641 1_465
In10 Na5 3.591641 1_565
In11 Na3 3.542333 1_555
In11 Na5 3.542333 1_565
In11 Na0 3.542333 1_556
In12 Na1 3.542333 1_555
In12 Na2 3.542333 1_555
In12 Na4 3.542333 1_655
In13 Na5 3.542333 1_555
In13 Na4 3.542333 1_555
In13 Na1 3.542333 1_555
Au0 In6 2.763103 1_555
Au0 In1 2.891296 1_555
Au0 In8 2.891296 1_554
Au0 In14 2.955995 1_665
Au0 Na0 3.207356 1_555
Au0 Na4 3.248195 1_655
Au0 Na3 3.248195 1_654
Au1 In3 2.763103 1_555
Au1 In13 2.891296 1_555
Au1 In9 2.891296 1_545
Au1 In14 2.955995 1_555
Au1 Na5 3.207356 1_555
Au1 Na0 3.248195 1_545
Au1 Na1 3.248195 1_555
Au2 In7 2.763103 1_555
Au2 In0 2.891296 1_555
Au2 In2 2.891296 1_455
Au2 In14 2.955995 1_556
Au2 Na3 3.207356 1_555
Au2 Na2 3.248195 1_455
Au2 Na5 3.248195 1_555
Au3 In5 2.763103 1_555
Au3 In13 2.891296 1_555
Au3 In0 2.891296 1_554
Au3 In14 2.955995 1_555
Au3 Na1 3.207356 1_555
Au3 Na3 3.248195 1_554
Au3 Na4 3.248195 1_555
Au4 In6 2.763103 1_555
Au4 In12 2.891296 1_555
Au4 In2 2.891296 1_554
Au4 In14 2.955995 1_655
Au4 Na1 3.207356 1_555
Au4 Na4 3.248195 1_655
Au4 Na3 3.248195 1_654
Au5 In8 2.908994 1_555
Au5 In1 2.908994 1_555
Au5 In2 2.908994 1_555
Au5 In12 2.908994 1_555
Au5 In7 2.945499 1_655
Au5 In10 2.945499 1_655
Au6 In10 2.763103 1_555
Au6 In11 2.891296 1_555
Au6 In8 2.891296 1_455
Au6 In14 2.955995 1_566
Au6 Na3 3.207356 1_555
Au6 Na2 3.248195 1_465
Au6 Na5 3.248195 1_565
Au7 In5 2.763103 1_555
Au7 In9 2.891296 1_555
Au7 In11 2.891296 1_554
Au7 In14 2.955995 1_565
Au7 Na0 3.207356 1_555
Au7 Na4 3.248195 1_555
Au7 Na3 3.248195 1_554
Au8 In3 2.763103 1_555
Au8 In12 2.891296 1_555
Au8 In1 2.891296 1_545
Au8 In14 2.955995 1_655
Au8 Na2 3.207356 1_555
Au8 Na0 3.248195 1_545
Au8 Na1 3.248195 1_555
Au9 In7 2.763103 1_555
Au9 In13 2.891296 1_555
Au9 In12 2.891296 1_455
Au9 In14 2.955995 1_555
Au9 Na4 3.207356 1_555
Au9 Na2 3.248195 1_455
Au9 Na5 3.248195 1_555
Au10 In1 2.908994 1_555
Au10 In9 2.908994 1_555
Au10 In12 2.908994 1_555
Au10 In13 2.908994 1_555
Au10 In5 2.945499 1_555
Au10 In6 2.945499 1_555
Au11 In8 2.908994 1_555
Au11 In2 2.908994 1_555
Au11 In11 2.908994 1_555
Au11 In0 2.908994 1_555
Au11 In5 2.945499 1_556
Au11 In6 2.945499 1_556
Au12 In8 2.908994 1_555
Au12 In1 2.908994 1_555
Au12 In11 2.908994 1_555
Au12 In9 2.908994 1_555
Au12 In4 2.945499 1_565
Au12 In3 2.945499 1_565
Au13 In4 2.763103 1_555
Au13 In0 2.891296 1_555
Au13 In11 2.891296 1_545
Au13 In14 2.955995 1_556
Au13 Na5 3.207356 1_555
Au13 Na1 3.248195 1_556
Au13 Na0 3.248195 1_546
Au14 In11 2.908994 1_555
Au14 In9 2.908994 1_555
Au14 In0 2.908994 1_555
Au14 In13 2.908994 1_555
Au14 In7 2.945499 1_555
Au14 In10 2.945499 1_555
Au15 In4 2.763103 1_555
Au15 In2 2.891296 1_555
Au15 In8 2.891296 1_545
Au15 In14 2.955995 1_656
Au15 Na2 3.207356 1_555
Au15 Na0 3.248195 1_546
Au15 Na1 3.248195 1_556
Au16 In10 2.763103 1_555
Au16 In9 2.891296 1_555
Au16 In1 2.891296 1_455
Au16 In14 2.955995 1_565
Au16 Na4 3.207356 1_555
Au16 Na5 3.248195 1_565
Au16 Na2 3.248195 1_465
Au17 In2 2.908994 1_555
Au17 In0 2.908994 1_555
Au17 In12 2.908994 1_555
Au17 In13 2.908994 1_555
Au17 In3 2.945499 1_555
Au17 In4 2.945499 1_555
