# generated using pymatgen
data_K3Nd(Si2O5)3
_symmetry_space_group_name_H-M   'P 1'
_cell_length_a   7.38990200
_cell_length_b   14.81145300
_cell_length_c   16.03808200
_cell_angle_alpha   90.00000000
_cell_angle_beta   90.00000000
_cell_angle_gamma   90.00000000
_symmetry_Int_Tables_number   1
_chemical_formula_structural   K3Nd(Si2O5)3
_chemical_formula_sum   'K12 Nd4 Si24 O60'
_cell_volume   1755.45125076
_cell_formula_units_Z   4
loop_
 _symmetry_equiv_pos_site_id
 _symmetry_equiv_pos_as_xyz
  1  'x, y, z'
loop_
 _atom_site_type_symbol
 _atom_site_label
 _atom_site_symmetry_multiplicity
 _atom_site_fract_x
 _atom_site_fract_y
 _atom_site_fract_z
 _atom_site_occupancy
  K  K0  1  0.50000000  0.53596100  0.38285200  1
  K  K1  1  0.50000000  0.59375300  0.93807300  1
  K  K2  1  0.50000000  0.40624700  0.06192700  1
  K  K3  1  0.50000000  0.09375300  0.56192700  1
  K  K4  1  0.00000000  0.62184200  0.71052400  1
  K  K5  1  0.00000000  0.37815800  0.28947600  1
  K  K6  1  0.00000000  0.12184200  0.78947600  1
  K  K7  1  0.00000000  0.87815800  0.21052400  1
  K  K8  1  0.50000000  0.90624700  0.43807300  1
  K  K9  1  0.50000000  0.03596100  0.11714800  1
  K  K10  1  0.50000000  0.46403900  0.61714800  1
  K  K11  1  0.50000000  0.96403900  0.88285200  1
  Nd  Nd0  1  0.00000000  0.50000000  0.00000000  1
  Nd  Nd1  1  0.00000000  0.00000000  0.50000000  1
  Nd  Nd2  1  0.00000000  0.50000000  0.50000000  1
  Nd  Nd3  1  0.00000000  0.00000000  0.00000000  1
  Si  Si0  1  0.71402400  0.19919800  0.96122500  1
  Si  Si1  1  0.71402400  0.80080200  0.03877500  1
  Si  Si2  1  0.28597600  0.69919800  0.53877500  1
  Si  Si3  1  0.28597600  0.30080200  0.46122500  1
  Si  Si4  1  0.28597600  0.80080200  0.03877500  1
  Si  Si5  1  0.28597600  0.19919800  0.96122500  1
  Si  Si6  1  0.71402400  0.30080200  0.46122500  1
  Si  Si7  1  0.71402400  0.69919800  0.53877500  1
  Si  Si8  1  0.00000000  0.77975500  0.40916800  1
  Si  Si9  1  0.00000000  0.22024500  0.59083200  1
  Si  Si10  1  0.00000000  0.27975500  0.09083200  1
  Si  Si11  1  0.00000000  0.72024500  0.90916800  1
  Si  Si12  1  0.71070300  0.36533300  0.85370700  1
  Si  Si13  1  0.71070300  0.63466700  0.14629300  1
  Si  Si14  1  0.28929700  0.86533300  0.64629300  1
  Si  Si15  1  0.00000000  0.87672800  0.78877600  1
  Si  Si16  1  0.28929700  0.13466700  0.35370700  1
  Si  Si17  1  0.00000000  0.12327200  0.21122400  1
  Si  Si18  1  0.28929700  0.36533300  0.85370700  1
  Si  Si19  1  0.71070300  0.13466700  0.35370700  1
  Si  Si20  1  0.28929700  0.63466700  0.14629300  1
  Si  Si21  1  0.00000000  0.62327200  0.28877600  1
  Si  Si22  1  0.00000000  0.37672800  0.71122400  1
  Si  Si23  1  0.71070300  0.86533300  0.64629300  1
  O  O0  1  0.75980500  0.25779500  0.87561900  1
  O  O1  1  0.50000000  0.78326600  0.01354000  1
  O  O2  1  0.50000000  0.21673400  0.98646000  1
  O  O3  1  0.50000000  0.28326600  0.48646000  1
  O  O4  1  0.50000000  0.71673400  0.51354000  1
  O  O5  1  0.76037500  0.09449200  0.94730700  1
  O  O6  1  0.76037500  0.90550800  0.05269300  1
  O  O7  1  0.23962500  0.59449200  0.55269300  1
  O  O8  1  0.23962500  0.40550800  0.44730700  1
  O  O9  1  0.23962500  0.90550800  0.05269300  1
  O  O10  1  0.23962500  0.09449200  0.94730700  1
  O  O11  1  0.76037500  0.40550800  0.44730700  1
  O  O12  1  0.76037500  0.59449200  0.55269300  1
  O  O13  1  0.75980500  0.74220500  0.12438100  1
  O  O14  1  0.24019500  0.75779500  0.62438100  1
  O  O15  1  0.24019500  0.24220500  0.37561900  1
  O  O16  1  0.24019500  0.74220500  0.12438100  1
  O  O17  1  0.50000000  0.63017300  0.17860200  1
  O  O18  1  0.75980500  0.24220500  0.37561900  1
  O  O19  1  0.75980500  0.75779500  0.62438100  1
  O  O20  1  0.74834400  0.43071300  0.93120900  1
  O  O21  1  0.74834400  0.56928700  0.06879100  1
  O  O22  1  0.25165600  0.93071300  0.56879100  1
  O  O23  1  0.25165600  0.06928700  0.43120900  1
  O  O24  1  0.25165600  0.56928700  0.06879100  1
  O  O25  1  0.24019500  0.25779500  0.87561900  1
  O  O26  1  0.74834400  0.06928700  0.43120900  1
  O  O27  1  0.74834400  0.93071300  0.56879100  1
  O  O28  1  0.81864100  0.75636000  0.95846100  1
  O  O29  1  0.81864100  0.24364000  0.04153900  1
  O  O30  1  0.18135900  0.25636000  0.54153900  1
  O  O31  1  0.18135900  0.74364000  0.45846100  1
  O  O32  1  0.18135900  0.24364000  0.04153900  1
  O  O33  1  0.18135900  0.75636000  0.95846100  1
  O  O34  1  0.81864100  0.74364000  0.45846100  1
  O  O35  1  0.81864100  0.25636000  0.54153900  1
  O  O36  1  0.00000000  0.61361000  0.89538200  1
  O  O37  1  0.00000000  0.38639000  0.10461800  1
  O  O38  1  0.00000000  0.11361000  0.60461800  1
  O  O39  1  0.00000000  0.88639000  0.39538200  1
  O  O40  1  0.00000000  0.76918700  0.81625400  1
  O  O41  1  0.00000000  0.23081300  0.18374600  1
  O  O42  1  0.00000000  0.26918700  0.68374600  1
  O  O43  1  0.00000000  0.73081300  0.31625400  1
  O  O44  1  0.00000000  0.94527100  0.86529700  1
  O  O45  1  0.00000000  0.05472900  0.13470300  1
  O  O46  1  0.00000000  0.44527100  0.63470300  1
  O  O47  1  0.00000000  0.55472900  0.36529700  1
  O  O48  1  0.81982500  0.89383200  0.73131000  1
  O  O49  1  0.81982500  0.10616800  0.26869000  1
  O  O50  1  0.18017500  0.39383200  0.76869000  1
  O  O51  1  0.18017500  0.60616800  0.23131000  1
  O  O52  1  0.18017500  0.10616800  0.26869000  1
  O  O53  1  0.18017500  0.89383200  0.73131000  1
  O  O54  1  0.81982500  0.60616800  0.23131000  1
  O  O55  1  0.81982500  0.39383200  0.76869000  1
  O  O56  1  0.50000000  0.86982700  0.67860200  1
  O  O57  1  0.50000000  0.13017300  0.32139800  1
  O  O58  1  0.50000000  0.36982700  0.82139800  1
  O  O59  1  0.25165600  0.43071300  0.93120900  1
loop_
_geom_bond_atom_site_label_1
_geom_bond_atom_site_label_2
_geom_bond_distance
_geom_bond_site_symmetry_2
K0 O8 2.916219 1_555
K0 O11 2.916219 1_555
K1 O24 2.809730 1_556
K1 O21 2.809730 1_556
K1 O59 3.035088 1_555
K1 O20 3.035088 1_555
K1 O1 3.056792 1_556
K2 O59 2.809730 1_554
K2 O20 2.809730 1_554
K2 O24 3.035088 1_555
K2 O21 3.035088 1_555
K2 O2 3.056792 1_554
K3 O26 2.809730 1_555
K3 O23 2.809730 1_555
K3 O27 3.035088 1_545
K3 O22 3.035088 1_545
K3 O3 3.056792 1_555
K4 O40 2.763741 1_555
K4 O46 2.884158 1_555
K4 O36 2.967274 1_555
K4 O14 3.018982 1_555
K4 O19 3.018982 1_455
K4 O7 3.115664 1_555
K4 O12 3.115664 1_455
K5 O41 2.763741 1_555
K5 O47 2.884158 1_555
K5 O37 2.967274 1_555
K5 O15 3.018982 1_555
K5 O18 3.018982 1_455
K5 O11 3.115664 1_455
K5 O8 3.115664 1_555
K6 O42 2.763741 1_555
K6 O44 2.884158 1_545
K6 O38 2.967274 1_555
K6 O25 3.018982 1_555
K6 O0 3.018982 1_455
K6 O10 3.115664 1_555
K6 O5 3.115664 1_455
K7 O43 2.763741 1_555
K7 O45 2.884158 1_565
K7 O39 2.967274 1_555
K7 O16 3.018982 1_555
K7 O13 3.018982 1_455
K7 O6 3.115664 1_455
K7 O9 3.115664 1_555
K8 O27 2.809730 1_555
K8 O22 2.809730 1_555
K8 O23 3.035088 1_565
K8 O26 3.035088 1_565
K8 O4 3.056792 1_555
K9 O9 2.916219 1_545
K9 O6 2.916219 1_545
K10 O7 2.916219 1_555
K10 O12 2.916219 1_555
K11 O10 2.916219 1_565
K11 O5 2.916219 1_565
Nd0 O37 2.376306 1_555
Nd0 O36 2.376306 1_554
Nd0 O21 2.393517 1_455
Nd0 O24 2.393517 1_555
Nd0 O59 2.393517 1_554
Nd0 O20 2.393517 1_454
Nd1 O39 2.376306 1_545
Nd1 O38 2.376306 1_555
Nd1 O26 2.393517 1_455
Nd1 O23 2.393517 1_555
Nd1 O27 2.393517 1_445
Nd1 O22 2.393517 1_545
Nd2 O47 2.307451 1_555
Nd2 O46 2.307451 1_555
Nd2 O11 2.410128 1_455
Nd2 O12 2.410128 1_455
Nd2 O7 2.410128 1_555
Nd2 O8 2.410128 1_555
Nd3 O45 2.307451 1_555
Nd3 O44 2.307451 1_544
Nd3 O10 2.410128 1_554
Nd3 O6 2.410128 1_445
Nd3 O5 2.410128 1_454
Nd3 O9 2.410128 1_545
O0 Si0 1.659135 1_555
O0 Si12 1.670976 1_555
O1 Si4 1.653110 1_555
O1 Si1 1.653110 1_555
O2 Si5 1.653110 1_555
O2 Si0 1.653110 1_555
O3 Si6 1.653110 1_555
O3 Si3 1.653110 1_555
O4 Si2 1.653110 1_555
O4 Si7 1.653110 1_555
O5 Si0 1.603834 1_555
O6 Si1 1.603834 1_555
O7 Si2 1.603834 1_555
O8 Si3 1.603834 1_555
O9 Si4 1.603834 1_555
O10 Si5 1.603834 1_555
O11 Si6 1.603834 1_555
O12 Si7 1.603834 1_555
O13 Si1 1.659135 1_555
O13 Si13 1.670976 1_555
O14 Si2 1.659135 1_555
O14 Si14 1.670976 1_555
O15 Si3 1.659135 1_555
O15 Si16 1.670976 1_555
O16 Si4 1.659135 1_555
O16 Si20 1.670976 1_555
O17 Si13 1.642381 1_555
O17 Si20 1.642381 1_555
O18 Si6 1.659135 1_555
O18 Si19 1.670976 1_555
O19 Si7 1.659135 1_555
O19 Si23 1.670976 1_555
O20 Si12 1.600040 1_555
O21 Si13 1.600040 1_555
O22 Si14 1.600040 1_555
O23 Si16 1.600040 1_555
O24 Si20 1.600040 1_555
O25 Si5 1.659135 1_555
O25 Si18 1.670976 1_555
O26 Si19 1.600040 1_555
O27 Si23 1.600040 1_555
O28 Si1 1.640167 1_556
O28 Si11 1.645397 1_655
O29 Si0 1.640167 1_554
O29 Si10 1.645397 1_655
O30 Si3 1.640167 1_555
O30 Si9 1.645397 1_555
O31 Si2 1.640167 1_555
O31 Si8 1.645397 1_555
O32 Si5 1.640167 1_554
O32 Si10 1.645397 1_555
O33 Si4 1.640167 1_556
O33 Si11 1.645397 1_555
O34 Si7 1.640167 1_555
O34 Si8 1.645397 1_655
O35 Si6 1.640167 1_555
O35 Si9 1.645397 1_655
O36 Si11 1.594820 1_555
O37 Si10 1.594820 1_555
O38 Si9 1.594820 1_555
O39 Si8 1.594820 1_555
O40 Si15 1.652678 1_555
O40 Si11 1.657126 1_555
O41 Si17 1.652678 1_555
O41 Si10 1.657126 1_555
O42 Si22 1.652678 1_555
O42 Si9 1.657126 1_555
O43 Si21 1.652678 1_555
O43 Si8 1.657126 1_555
O44 Si15 1.592739 1_555
O45 Si17 1.592739 1_555
O46 Si22 1.592739 1_555
O47 Si21 1.592739 1_555
O48 Si15 1.639035 1_655
O48 Si23 1.639396 1_555
O49 Si17 1.639035 1_655
O49 Si19 1.639396 1_555
O50 Si22 1.639035 1_555
O50 Si18 1.639396 1_555
O51 Si21 1.639035 1_555
O51 Si20 1.639396 1_555
O52 Si17 1.639035 1_555
O52 Si16 1.639396 1_555
O53 Si15 1.639035 1_555
O53 Si14 1.639396 1_555
O54 Si21 1.639035 1_655
O54 Si13 1.639396 1_555
O55 Si22 1.639035 1_655
O55 Si12 1.639396 1_555
O56 Si23 1.642381 1_555
O56 Si14 1.642381 1_555
O57 Si16 1.642381 1_555
O57 Si19 1.642381 1_555
O58 Si12 1.642381 1_555
O58 Si18 1.642381 1_555
O59 Si18 1.600040 1_555
