# generated using pymatgen
data_Ce(PPt2)2
_symmetry_space_group_name_H-M   'P 1'
_cell_length_a   4.17203514
_cell_length_b   7.34634052
_cell_length_c   15.64576399
_cell_angle_alpha   90.00000000
_cell_angle_beta   90.00000000
_cell_angle_gamma   90.00000000
_symmetry_Int_Tables_number   1
_chemical_formula_structural   Ce(PPt2)2
_chemical_formula_sum   'Ce4 P8 Pt16'
_cell_volume   479.53000574
_cell_formula_units_Z   4
loop_
 _symmetry_equiv_pos_site_id
 _symmetry_equiv_pos_as_xyz
  1  'x, y, z'
loop_
 _atom_site_type_symbol
 _atom_site_label
 _atom_site_symmetry_multiplicity
 _atom_site_fract_x
 _atom_site_fract_y
 _atom_site_fract_z
 _atom_site_occupancy
  Ce  Ce0  1  0.25000000  0.84303094  0.18057794  1
  Ce  Ce1  1  0.75000000  0.15696906  0.81942206  1
  Ce  Ce2  1  0.25000000  0.34303094  0.31942206  1
  Ce  Ce3  1  0.75000000  0.65696906  0.68057794  1
  P  P0  1  0.25000000  0.31732051  0.69271387  1
  P  P1  1  0.25000000  0.79535243  0.55532368  1
  P  P2  1  0.75000000  0.20464757  0.44467632  1
  P  P3  1  0.75000000  0.18267949  0.19271387  1
  P  P4  1  0.25000000  0.81732051  0.80728613  1
  P  P5  1  0.25000000  0.29535243  0.94467632  1
  P  P6  1  0.75000000  0.70464757  0.05532368  1
  P  P7  1  0.75000000  0.68267949  0.30728613  1
  Pt  Pt0  1  0.25000000  0.98698855  0.68171910  1
  Pt  Pt1  1  0.25000000  0.48698855  0.81828090  1
  Pt  Pt2  1  0.75000000  0.37125623  0.00550432  1
  Pt  Pt3  1  0.75000000  0.74918945  0.87355916  1
  Pt  Pt4  1  0.75000000  0.52248680  0.44190276  1
  Pt  Pt5  1  0.75000000  0.24918945  0.62644084  1
  Pt  Pt6  1  0.75000000  0.51301145  0.18171910  1
  Pt  Pt7  1  0.75000000  0.02248680  0.05809724  1
  Pt  Pt8  1  0.25000000  0.75081055  0.37355916  1
  Pt  Pt9  1  0.25000000  0.25081055  0.12644084  1
  Pt  Pt10  1  0.25000000  0.97751320  0.94190276  1
  Pt  Pt11  1  0.25000000  0.12874377  0.50550432  1
  Pt  Pt12  1  0.75000000  0.87125623  0.49449568  1
  Pt  Pt13  1  0.75000000  0.01301145  0.31828090  1
  Pt  Pt14  1  0.25000000  0.62874377  0.99449568  1
  Pt  Pt15  1  0.25000000  0.47751320  0.55809724  1
loop_
_geom_bond_atom_site_label_1
_geom_bond_atom_site_label_2
_geom_bond_distance
_geom_bond_site_symmetry_2
Ce0 P6 3.037332 1_455
Ce0 P6 3.037332 1_555
Ce0 Pt8 3.094412 1_555
Ce0 P7 3.109540 1_455
Ce0 P7 3.109540 1_555
Ce0 Pt9 3.113131 1_565
Ce0 Pt7 3.124375 1_565
Ce0 Pt7 3.124375 1_465
Ce0 Pt6 3.198386 1_455
Ce0 Pt6 3.198386 1_555
Ce0 Pt13 3.248467 1_465
Ce0 Pt13 3.248467 1_565
Ce0 P3 3.257824 1_565
Ce0 P3 3.257824 1_465
Ce0 Pt14 3.309748 1_554
Ce1 P5 3.037332 1_555
Ce1 P5 3.037332 1_655
Ce1 Pt5 3.094412 1_555
Ce1 P0 3.109540 1_655
Ce1 P0 3.109540 1_555
Ce1 Pt3 3.113131 1_545
Ce1 Pt10 3.124375 1_645
Ce1 Pt10 3.124375 1_545
Ce1 Pt1 3.198386 1_655
Ce1 Pt1 3.198386 1_555
Ce1 Pt0 3.248467 1_645
Ce1 Pt0 3.248467 1_545
Ce1 P4 3.257824 1_545
Ce1 P4 3.257824 1_645
Ce1 Pt2 3.309748 1_556
Ce2 P2 3.037332 1_455
Ce2 P2 3.037332 1_555
Ce2 Pt9 3.094412 1_555
Ce2 P3 3.109540 1_455
Ce2 P3 3.109540 1_555
Ce2 Pt8 3.113131 1_555
Ce2 Pt4 3.124375 1_555
Ce2 Pt4 3.124375 1_455
Ce2 Pt13 3.198386 1_455
Ce2 Pt13 3.198386 1_555
Ce2 Pt6 3.248467 1_455
Ce2 Pt6 3.248467 1_555
Ce2 P7 3.257824 1_555
Ce2 P7 3.257824 1_455
Ce2 Pt11 3.309748 1_555
Ce3 P1 3.037332 1_655
Ce3 P1 3.037332 1_555
Ce3 Pt3 3.094412 1_555
Ce3 P4 3.109540 1_655
Ce3 P4 3.109540 1_555
Ce3 Pt5 3.113131 1_555
Ce3 Pt15 3.124375 1_555
Ce3 Pt15 3.124375 1_655
Ce3 Pt0 3.198386 1_655
Ce3 Pt0 3.198386 1_555
Ce3 Pt1 3.248467 1_655
Ce3 Pt1 3.248467 1_555
Ce3 P0 3.257824 1_655
Ce3 P0 3.257824 1_555
Ce3 Pt12 3.309748 1_555
P0 Pt1 2.326636 1_555
P0 Pt5 2.382673 1_455
P0 Pt5 2.382673 1_555
P0 Pt15 2.412659 1_555
P0 Pt0 2.432820 1_545
P1 Pt15 2.335358 1_555
P1 Pt12 2.359690 1_455
P1 Pt12 2.359690 1_555
P1 Pt0 2.427485 1_555
P1 Pt11 2.570248 1_565
P1 Pt8 2.862608 1_555
P2 Pt4 2.335358 1_555
P2 Pt11 2.359690 1_555
P2 Pt11 2.359690 1_655
P2 Pt13 2.427485 1_555
P2 Pt12 2.570248 1_545
P2 Pt5 2.862608 1_555
P3 Pt13 2.326636 1_555
P3 Pt9 2.382673 1_555
P3 Pt9 2.382673 1_655
P3 Pt7 2.412659 1_555
P3 Pt6 2.432820 1_555
P4 Pt0 2.326636 1_555
P4 Pt3 2.382673 1_455
P4 Pt3 2.382673 1_555
P4 Pt10 2.412659 1_555
P4 Pt1 2.432820 1_555
P5 Pt10 2.335358 1_545
P5 Pt2 2.359690 1_456
P5 Pt2 2.359690 1_556
P5 Pt1 2.427485 1_555
P5 Pt14 2.570248 1_555
P5 Pt9 2.862608 1_556
P6 Pt7 2.335358 1_565
P6 Pt14 2.359690 1_654
P6 Pt14 2.359690 1_554
P6 Pt6 2.427485 1_555
P6 Pt2 2.570248 1_555
P6 Pt3 2.862608 1_554
P7 Pt6 2.326636 1_555
P7 Pt8 2.382673 1_555
P7 Pt8 2.382673 1_655
P7 Pt4 2.412659 1_555
P7 Pt13 2.432820 1_565
Pt0 Pt5 2.968128 1_565
Pt0 Pt5 2.968128 1_465
Pt1 Pt3 2.968128 1_455
Pt1 Pt3 2.968128 1_555
Pt2 Pt7 2.691069 1_555
Pt2 Pt9 2.952052 1_555
Pt2 Pt9 2.952052 1_655
Pt4 Pt8 2.882417 1_555
Pt4 Pt8 2.882417 1_655
Pt6 Pt9 2.968128 1_655
Pt6 Pt9 2.968128 1_555
Pt7 Pt9 2.882417 1_555
Pt7 Pt9 2.882417 1_655
Pt10 Pt14 2.691069 1_555
Pt10 Pt7 2.786678 1_566
Pt10 Pt7 2.786678 1_466
Pt10 Pt3 2.882417 1_555
Pt10 Pt3 2.882417 1_455
Pt11 Pt15 2.691069 1_555
Pt11 Pt5 2.952052 1_555
Pt11 Pt5 2.952052 1_455
Pt12 Pt4 2.691069 1_555
Pt12 Pt8 2.952052 1_555
Pt12 Pt8 2.952052 1_655
Pt13 Pt8 2.968128 1_645
Pt13 Pt8 2.968128 1_545
Pt14 Pt3 2.952052 1_455
Pt14 Pt3 2.952052 1_555
Pt15 Pt4 2.786678 1_555
Pt15 Pt4 2.786678 1_455
Pt15 Pt5 2.882417 1_455
Pt15 Pt5 2.882417 1_555
