# generated using pymatgen
data_Al2Cd(Si5O12)2
_symmetry_space_group_name_H-M   'P 1'
_cell_length_a   12.46796300
_cell_length_b   12.47639655
_cell_length_c   12.48803469
_cell_angle_alpha   108.69145763
_cell_angle_beta   109.58500111
_cell_angle_gamma   109.70024331
_symmetry_Int_Tables_number   1
_chemical_formula_structural   Al2Cd(Si5O12)2
_chemical_formula_sum   'Al4 Cd2 Si20 O48'
_cell_volume   1503.30375987
_cell_formula_units_Z   2
loop_
 _symmetry_equiv_pos_site_id
 _symmetry_equiv_pos_as_xyz
  1  'x, y, z'
loop_
 _atom_site_type_symbol
 _atom_site_label
 _atom_site_symmetry_multiplicity
 _atom_site_fract_x
 _atom_site_fract_y
 _atom_site_fract_z
 _atom_site_occupancy
  Al  Al0  1  0.14662400  0.59343400  0.29756400  1
  Al  Al1  1  0.14990500  0.29724500  0.59163500  1
  Al  Al2  1  0.45308700  0.14951100  0.85183800  1
  Al  Al3  1  0.58353900  0.14906500  0.29225900  1
  Cd  Cd0  1  0.34811100  0.33998600  0.90328600  1
  Cd  Cd1  1  0.06228900  0.42177400  0.42160600  1
  Si  Si0  1  0.70325300  0.85829300  0.30735400  1
  Si  Si1  1  0.30067400  0.84616000  0.70033300  1
  Si  Si2  1  0.39509700  0.69463600  0.54998700  1
  Si  Si3  1  0.54859700  0.70081000  0.39925700  1
  Si  Si4  1  0.45227500  0.84498600  0.14792900  1
  Si  Si5  1  0.15291300  0.84624200  0.45592900  1
  Si  Si6  1  0.30307400  0.59054600  0.14837400  1
  Si  Si7  1  0.31244700  0.69989200  0.85375900  1
  Si  Si8  1  0.85967500  0.71144600  0.31662400  1
  Si  Si9  1  0.40047200  0.54951600  0.69620600  1
  Si  Si10  1  0.69901100  0.55579800  0.40584900  1
  Si  Si11  1  0.84448100  0.45248900  0.15745500  1
  Si  Si12  1  0.15681200  0.45009100  0.85236500  1
  Si  Si13  1  0.58117200  0.30963600  0.14924200  1
  Si  Si14  1  0.70950100  0.30954300  0.86100400  1
  Si  Si15  1  0.85435700  0.30875500  0.70197800  1
  Si  Si16  1  0.54765200  0.39174800  0.69590900  1
  Si  Si17  1  0.69537400  0.39827800  0.55005800  1
  Si  Si18  1  0.84071500  0.16094600  0.44188900  1
  Si  Si19  1  0.29973600  0.14620000  0.59400300  1
  O  O0  1  0.37178800  0.99083200  0.81753600  1
  O  O1  1  0.65079400  0.82884500  0.40526800  1
  O  O2  1  0.40019600  0.82091900  0.64862000  1
  O  O3  1  0.49063500  0.98654000  0.24728200  1
  O  O4  1  0.26184800  0.99639600  0.51055200  1
  O  O5  1  0.48330200  0.74296300  0.48664500  1
  O  O6  1  0.16992500  0.81281500  0.57617400  1
  O  O7  1  0.57920100  0.82116600  0.17512800  1
  O  O8  1  0.34187600  0.72994300  0.15161400  1
  O  O9  1  0.16529400  0.74737200  0.34798500  1
  O  O10  1  0.24004700  0.58279600  0.43556300  1
  O  O11  1  0.43165300  0.59500800  0.24763300  1
  O  O12  1  0.00763700  0.83332000  0.39797100  1
  O  O13  1  0.39124000  0.82096200  0.99856600  1
  O  O14  1  0.18356600  0.54338700  0.17529400  1
  O  O15  1  0.82736800  0.65717400  0.41168200  1
  O  O16  1  0.41028200  0.64722600  0.82728800  1
  O  O17  1  0.76017600  0.76216300  0.26060400  1
  O  O18  1  0.24923600  0.73710700  0.74459100  1
  O  O19  1  0.98667500  0.47392900  0.26139300  1
  O  O20  1  0.26036400  0.47920800  0.99809400  1
  O  O21  1  0.62467600  0.62976700  0.45257300  1
  O  O22  1  0.45645200  0.62830900  0.62862100  1
  O  O23  1  0.18878400  0.57896000  0.83636800  1
  O  O24  1  0.84476500  0.59125900  0.19746600  1
  O  O25  1  0.18794300  0.34960300  0.75939600  1
  O  O26  1  0.72687100  0.34874500  0.16163900  1
  O  O27  1  0.24401200  0.43905000  0.58977900  1
  O  O28  1  0.59405700  0.43955400  0.25443200  1
  O  O29  1  0.00689000  0.38103500  0.81890400  1
  O  O30  1  0.83043000  0.39995400  0.01357500  1
  O  O31  1  0.65145500  0.40275500  0.82614500  1
  O  O32  1  0.82706800  0.41037900  0.65700600  1
  O  O33  1  0.76548700  0.26013200  0.76465900  1
  O  O34  1  0.99406400  0.26673800  0.48321800  1
  O  O35  1  0.47867400  0.27533100  0.99984700  1
  O  O36  1  0.48305000  0.48071000  0.74268500  1
  O  O37  1  0.75226900  0.50363200  0.50374700  1
  O  O38  1  0.62246400  0.44787500  0.62619400  1
  O  O39  1  0.59610900  0.18590100  0.84522000  1
  O  O40  1  0.83468900  0.18994900  0.57795800  1
  O  O41  1  0.34427900  0.18312300  0.74837100  1
  O  O42  1  0.74868300  0.18624600  0.34101000  1
  O  O43  1  0.42842200  0.24147600  0.59495600  1
  O  O44  1  0.59400100  0.25399600  0.43203100  1
  O  O45  1  0.81661200  0.01129200  0.38277300  1
  O  O46  1  0.17993200  0.17193200  0.54053100  1
  O  O47  1  0.52891600  0.18520000  0.16672000  1
loop_
_geom_bond_atom_site_label_1
_geom_bond_atom_site_label_2
_geom_bond_distance
_geom_bond_site_symmetry_2
Al0 O9 1.721786 1_555
Al0 O14 1.728522 1_555
Al0 O10 1.802594 1_555
Al0 O19 1.834079 1_455
Al1 O46 1.705025 1_555
Al1 O27 1.775477 1_555
Al1 O34 1.777850 1_455
Al1 O25 1.813440 1_555
Al2 O0 1.715443 1_545
Al2 O39 1.723299 1_555
Al2 O41 1.800412 1_555
Al2 O35 1.841118 1_555
Al3 O3 1.737579 1_545
Al3 O44 1.745054 1_555
Al3 O47 1.751881 1_555
Al3 O42 1.777639 1_555
Cd0 O35 2.224294 1_555
Cd0 O41 2.241287 1_555
Cd0 O25 2.263891 1_555
Cd0 O20 2.539141 1_555
Cd1 O19 2.301887 1_455
Cd1 O34 2.310933 1_455
Cd1 O10 2.343719 1_555
Cd1 O27 2.404398 1_555
O0 Si1 1.595019 1_555
O1 Si3 1.633303 1_555
O1 Si0 1.649240 1_555
O2 Si2 1.624716 1_555
O2 Si1 1.651125 1_555
O3 Si4 1.586016 1_555
O4 Si19 1.621332 1_565
O4 Si5 1.632159 1_555
O5 Si2 1.624966 1_555
O5 Si3 1.626866 1_555
O6 Si1 1.633831 1_555
O6 Si5 1.649635 1_555
O7 Si0 1.627245 1_555
O7 Si4 1.652103 1_555
O8 Si6 1.623244 1_555
O8 Si4 1.646118 1_555
O9 Si5 1.601463 1_555
O10 Si2 1.666580 1_555
O11 Si6 1.634923 1_555
O11 Si3 1.644139 1_555
O12 Si8 1.615446 1_455
O12 Si5 1.637095 1_555
O13 Si7 1.604583 1_555
O13 Si4 1.638408 1_556
O14 Si6 1.597152 1_555
O15 Si10 1.632266 1_555
O15 Si8 1.637616 1_555
O16 Si9 1.633070 1_555
O16 Si7 1.643302 1_555
O17 Si8 1.630920 1_555
O17 Si0 1.638858 1_555
O18 Si7 1.620921 1_555
O18 Si1 1.642954 1_555
O19 Si11 1.677616 1_555
O20 Si12 1.672017 1_555
O20 Si6 1.701643 1_556
O21 Si10 1.626400 1_555
O21 Si3 1.627998 1_555
O22 Si9 1.621730 1_555
O22 Si2 1.636548 1_555
O23 Si12 1.615874 1_555
O23 Si7 1.642546 1_555
O24 Si11 1.639345 1_555
O24 Si8 1.641282 1_555
O25 Si12 1.663626 1_555
O26 Si11 1.625846 1_555
O26 Si13 1.651493 1_555
O27 Si9 1.657250 1_555
O28 Si10 1.641699 1_555
O28 Si13 1.642246 1_555
O29 Si12 1.603352 1_555
O29 Si15 1.643223 1_455
O30 Si11 1.626480 1_555
O30 Si14 1.651011 1_554
O31 Si16 1.632443 1_555
O31 Si14 1.657234 1_555
O32 Si15 1.630300 1_555
O32 Si17 1.654091 1_555
O33 Si15 1.625144 1_555
O33 Si14 1.640926 1_555
O34 Si18 1.692481 1_555
O35 Si13 1.678698 1_556
O36 Si9 1.627417 1_555
O36 Si16 1.650610 1_555
O37 Si10 1.617492 1_555
O37 Si17 1.642879 1_555
O38 Si16 1.616522 1_555
O38 Si17 1.641597 1_555
O39 Si14 1.601613 1_555
O40 Si15 1.638553 1_555
O40 Si18 1.653421 1_555
O41 Si19 1.666570 1_555
O42 Si18 1.591632 1_555
O43 Si16 1.632139 1_555
O43 Si19 1.636982 1_555
O44 Si17 1.589634 1_555
O45 Si0 1.632412 1_545
O45 Si18 1.646519 1_555
O46 Si19 1.603797 1_555
O47 Si13 1.585243 1_555
