# generated using pymatgen
data_Li11Ta37N48
_symmetry_space_group_name_H-M   'P 1'
_cell_length_a   5.26450109
_cell_length_b   5.26450109
_cell_length_c   40.35231300
_cell_angle_alpha   90.00000000
_cell_angle_beta   90.00000000
_cell_angle_gamma   120.00001373
_symmetry_Int_Tables_number   1
_chemical_formula_structural   Li11Ta37N48
_chemical_formula_sum   'Li11 Ta37 N48'
_cell_volume   968.53082088
_cell_formula_units_Z   1
loop_
 _symmetry_equiv_pos_site_id
 _symmetry_equiv_pos_as_xyz
  1  'x, y, z'
loop_
 _atom_site_type_symbol
 _atom_site_label
 _atom_site_symmetry_multiplicity
 _atom_site_fract_x
 _atom_site_fract_y
 _atom_site_fract_z
 _atom_site_occupancy
  Li  Li0  1  0.33333300  0.66666700  0.00138700  1
  Li  Li1  1  0.00000000  0.00000000  0.12571700  1
  Li  Li2  1  0.00000000  0.00000000  0.25019700  1
  Li  Li3  1  0.00000000  0.00000000  0.49813200  1
  Li  Li4  1  0.33333300  0.66666700  0.37403000  1
  Li  Li5  1  0.66666700  0.33333300  0.12647000  1
  Li  Li6  1  0.00000000  0.00000000  0.37411000  1
  Li  Li7  1  0.00000000  0.00000000  0.75009000  1
  Li  Li8  1  0.00000000  0.00000000  0.87546200  1
  Li  Li9  1  0.66666700  0.33333300  0.75013000  1
  Li  Li10  1  0.00000000  0.00000000  0.62395200  1
  Ta  Ta0  1  0.99517600  0.66959100  0.18792900  1
  Ta  Ta1  1  0.00566300  0.67404600  0.43601200  1
  Ta  Ta2  1  0.99445200  0.66896900  0.68754400  1
  Ta  Ta3  1  0.00331500  0.67025400  0.93824400  1
  Ta  Ta4  1  0.33141700  0.00567300  0.81214300  1
  Ta  Ta5  1  0.33333300  0.66666700  0.24935200  1
  Ta  Ta6  1  0.33333300  0.66666700  0.49761900  1
  Ta  Ta7  1  0.33333300  0.66666700  0.74996200  1
  Ta  Ta8  1  0.00000000  0.00000000  0.00196000  1
  Ta  Ta9  1  0.33333300  0.66666700  0.12622900  1
  Ta  Ta10  1  0.33333300  0.66666700  0.62590200  1
  Ta  Ta11  1  0.33333300  0.66666700  0.87356700  1
  Ta  Ta12  1  0.33040900  0.32558600  0.18792900  1
  Ta  Ta13  1  0.32595400  0.33161600  0.43601200  1
  Ta  Ta14  1  0.33103100  0.32548200  0.68754400  1
  Ta  Ta15  1  0.32974600  0.33306000  0.93824400  1
  Ta  Ta16  1  0.67441400  0.00482400  0.18792900  1
  Ta  Ta17  1  0.66838400  0.99433700  0.43601200  1
  Ta  Ta18  1  0.67451800  0.00554800  0.68754400  1
  Ta  Ta19  1  0.66694000  0.99668500  0.93824400  1
  Ta  Ta20  1  0.33351300  0.00368000  0.06406200  1
  Ta  Ta21  1  0.32575800  0.99483000  0.31256300  1
  Ta  Ta22  1  0.32664500  0.00045600  0.56156200  1
  Ta  Ta23  1  0.67016600  0.66648700  0.06406200  1
  Ta  Ta24  1  0.67381200  0.67335500  0.56156200  1
  Ta  Ta25  1  0.66907200  0.67424200  0.31256300  1
  Ta  Ta26  1  0.67425600  0.66858300  0.81214300  1
  Ta  Ta27  1  0.66666700  0.33333300  0.37395900  1
  Ta  Ta28  1  0.66666700  0.33333300  0.87500300  1
  Ta  Ta29  1  0.66666700  0.33333300  0.62550000  1
  Ta  Ta30  1  0.66666700  0.33333300  0.00177300  1
  Ta  Ta31  1  0.66666700  0.33333300  0.25104700  1
  Ta  Ta32  1  0.66666700  0.33333300  0.49786400  1
  Ta  Ta33  1  0.99632000  0.32983400  0.06406200  1
  Ta  Ta34  1  0.00517000  0.33092800  0.31256300  1
  Ta  Ta35  1  0.99954400  0.32618800  0.56156200  1
  Ta  Ta36  1  0.99432700  0.32574400  0.81214300  1
  N  N0  1  0.00811300  0.66654500  0.03135400  1
  N  N1  1  0.99943600  0.66928400  0.27978400  1
  N  N2  1  0.00110400  0.66582900  0.52875800  1
  N  N3  1  0.00763400  0.66590400  0.78036300  1
  N  N4  1  0.00640500  0.34149500  0.15637300  1
  N  N5  1  0.99394600  0.33567400  0.40445900  1
  N  N6  1  0.00271200  0.32907200  0.65452900  1
  N  N7  1  0.99889700  0.32979800  0.90530500  1
  N  N8  1  0.34172700  0.00605400  0.40445900  1
  N  N9  1  0.33090100  0.00110300  0.90530500  1
  N  N10  1  0.65843300  0.99188700  0.03135400  1
  N  N11  1  0.65827000  0.99236600  0.78036300  1
  N  N12  1  0.33228700  0.33904200  0.09582100  1
  N  N13  1  0.34038800  0.33408900  0.34409200  1
  N  N14  1  0.33486900  0.33532500  0.59448800  1
  N  N15  1  0.32885000  0.32933500  0.84504700  1
  N  N16  1  0.33345500  0.34156700  0.03135400  1
  N  N17  1  0.33071600  0.33015200  0.27978400  1
  N  N18  1  0.33417100  0.33527500  0.52875800  1
  N  N19  1  0.33409600  0.34173000  0.78036300  1
  N  N20  1  0.66941100  0.66960500  0.22079900  1
  N  N21  1  0.67495000  0.67120100  0.46876900  1
  N  N22  1  0.65788800  0.66503700  0.71919000  1
  N  N23  1  0.66334300  0.66399300  0.97100300  1
  N  N24  1  0.66432600  0.65827300  0.40445900  1
  N  N25  1  0.65850500  0.66491100  0.15637300  1
  N  N26  1  0.67092800  0.67364000  0.65452900  1
  N  N27  1  0.67020200  0.66909900  0.90530500  1
  N  N28  1  0.33039500  0.99980600  0.22079900  1
  N  N29  1  0.33508900  0.99359500  0.15637300  1
  N  N30  1  0.32879900  0.00375000  0.46876900  1
  N  N31  1  0.33496300  0.99285100  0.71919000  1
  N  N32  1  0.32636000  0.99728800  0.65452900  1
  N  N33  1  0.33600700  0.99935000  0.97100300  1
  N  N34  1  0.66095800  0.99324500  0.09582100  1
  N  N35  1  0.66591100  0.00629900  0.34409200  1
  N  N36  1  0.66467500  0.99954400  0.59448800  1
  N  N37  1  0.67066500  0.99951500  0.84504700  1
  N  N38  1  0.66984800  0.00056400  0.27978400  1
  N  N39  1  0.66472500  0.99889600  0.52875800  1
  N  N40  1  0.99370100  0.65961200  0.34409200  1
  N  N41  1  0.00675500  0.66771300  0.09582100  1
  N  N42  1  0.00045600  0.66513100  0.59448800  1
  N  N43  1  0.00048500  0.67115000  0.84504700  1
  N  N44  1  0.99625000  0.32505000  0.46876900  1
  N  N45  1  0.00019400  0.33058900  0.22079900  1
  N  N46  1  0.00714900  0.34211200  0.71919000  1
  N  N47  1  0.00065000  0.33665700  0.97100300  1
loop_
_geom_bond_atom_site_label_1
_geom_bond_atom_site_label_2
_geom_bond_distance
_geom_bond_site_symmetry_2
Li0 N0 2.095833 1_555
Li0 N10 2.095837 1_555
Li0 N16 2.095841 1_555
Li0 N33 2.132185 1_554
Li0 N47 2.132187 1_554
Li0 N23 2.132190 1_554
Li1 N12 2.139847 1_555
Li1 N34 2.139848 1_445
Li1 N41 2.139848 1_545
Li1 N29 2.168607 1_545
Li1 N25 2.168609 1_445
Li1 N4 2.168611 1_555
Li2 N20 2.105806 1_445
Li2 N45 2.105807 1_555
Li2 N28 2.105807 1_545
Li2 N17 2.109862 1_555
Li2 N1 2.109862 1_445
Li2 N38 2.109862 1_455
Li3 N30 2.089582 1_555
Li3 N21 2.089584 1_445
Li3 N44 2.089587 1_455
Li3 N18 2.152318 1_555
Li3 N39 2.152318 1_445
Li3 N2 2.152318 1_545
Li4 N40 2.142736 1_455
Li4 N35 2.142738 1_565
Li4 N13 2.142740 1_555
Li4 N5 2.150115 1_455
Li4 N8 2.150116 1_565
Li4 N24 2.150116 1_555
Li5 N4 2.140076 1_655
Li5 N29 2.140080 1_545
Li5 N25 2.140085 1_555
Li5 N34 2.163833 1_545
Li5 N41 2.163835 1_655
Li5 N12 2.163837 1_555
Li6 N13 2.149437 1_555
Li6 N40 2.149437 1_445
Li6 N35 2.149437 1_455
Li6 N8 2.163315 1_555
Li6 N24 2.163317 1_445
Li6 N5 2.163320 1_455
Li7 N19 2.158268 1_555
Li7 N11 2.158268 1_445
Li7 N3 2.158268 1_545
Li7 N22 2.175347 1_445
Li7 N46 2.175347 1_555
Li7 N31 2.175347 1_545
Li8 N27 2.115363 1_445
Li8 N9 2.115363 1_555
Li8 N7 2.115363 1_455
Li8 N15 2.123179 1_555
Li8 N37 2.123180 1_445
Li8 N43 2.123180 1_545
Li9 N11 2.152449 1_545
Li9 N3 2.152450 1_655
Li9 N19 2.152453 1_555
Li9 N46 2.165869 1_655
Li9 N31 2.165871 1_545
Li9 N22 2.165873 1_555
Li10 N26 2.121101 1_445
Li10 N6 2.121102 1_555
Li10 N32 2.121102 1_545
Li10 N14 2.127369 1_555
Li10 N36 2.127369 1_445
Li10 N42 2.127369 1_545
N0 Ta8 2.136671 1_565
N0 Ta30 2.140081 1_455
N0 Ta33 2.185853 1_455
N0 Ta20 2.187747 1_565
N0 Ta23 2.215112 1_455
N1 Ta31 2.107921 1_555
N1 Ta5 2.149944 1_655
N1 Ta21 2.166521 1_655
N1 Ta25 2.195554 1_555
N1 Ta34 2.230960 1_655
N2 Ta6 2.151800 1_555
N2 Ta32 2.153161 1_455
N2 Ta22 2.184866 1_565
N2 Ta24 2.188811 1_455
N2 Ta35 2.221418 1_455
N3 Ta7 2.106667 1_555
N3 Ta4 2.168083 1_565
N3 Ta36 2.175055 1_455
N3 Ta26 2.179394 1_455
N4 Ta9 2.103802 1_555
N4 Ta12 2.163514 1_555
N4 Ta0 2.170363 1_455
N4 Ta16 2.172509 1_455
N5 Ta27 2.112403 1_555
N5 Ta1 2.165248 1_655
N5 Ta17 2.169767 1_545
N5 Ta13 2.171159 1_655
N6 Ta10 2.104564 1_555
N6 Ta29 2.131216 1_455
N6 Ta18 2.172138 1_455
N6 Ta14 2.189830 1_555
N6 Ta2 2.248656 1_455
N7 Ta28 2.141755 1_555
N7 Ta11 2.182375 1_655
N7 Ta15 2.184210 1_655
N7 Ta19 2.198048 1_545
N7 Ta3 2.222157 1_655
N8 Ta27 2.112407 1_555
N8 Ta17 2.165256 1_545
N8 Ta13 2.169763 1_555
N8 Ta1 2.171154 1_545
N9 Ta28 2.141757 1_555
N9 Ta11 2.182373 1_545
N9 Ta3 2.184208 1_545
N9 Ta15 2.198046 1_555
N9 Ta19 2.222162 1_545
N10 Ta8 2.136667 1_665
N10 Ta30 2.140081 1_565
N10 Ta20 2.185862 1_565
N10 Ta23 2.187743 1_555
N10 Ta33 2.215107 1_565
N11 Ta7 2.106669 1_555
N11 Ta26 2.168084 1_555
N11 Ta4 2.175055 1_565
N11 Ta36 2.179394 1_565
N12 Ta9 2.114478 1_555
N12 Ta33 2.165011 1_455
N12 Ta23 2.170640 1_555
N12 Ta20 2.184226 1_555
N13 Ta27 2.099963 1_555
N13 Ta21 2.162623 1_545
N13 Ta34 2.168856 1_555
N13 Ta25 2.172769 1_555
N14 Ta29 2.153041 1_555
N14 Ta10 2.159585 1_555
N14 Ta22 2.190597 1_555
N14 Ta35 2.190670 1_455
N14 Ta24 2.222767 1_555
N15 Ta11 2.106386 1_555
N15 Ta28 2.141737 1_555
N15 Ta4 2.165520 1_555
N15 Ta36 2.198057 1_455
N15 Ta26 2.238653 1_555
N16 Ta8 2.136668 1_555
N16 Ta30 2.140081 1_555
N16 Ta23 2.185857 1_555
N16 Ta33 2.187751 1_455
N16 Ta20 2.215103 1_555
N17 Ta31 2.107924 1_555
N17 Ta5 2.149949 1_555
N17 Ta34 2.166521 1_555
N17 Ta21 2.195554 1_545
N17 Ta25 2.230960 1_555
N18 Ta6 2.151804 1_555
N18 Ta32 2.153163 1_555
N18 Ta35 2.184864 1_455
N18 Ta22 2.188815 1_555
N18 Ta24 2.221416 1_555
N19 Ta7 2.106671 1_555
N19 Ta36 2.168084 1_455
N19 Ta26 2.175054 1_555
N19 Ta4 2.179394 1_555
N20 Ta5 2.104936 1_555
N20 Ta31 2.144393 1_555
N20 Ta0 2.168087 1_555
N20 Ta16 2.197243 1_565
N20 Ta12 2.234321 1_555
N21 Ta32 2.113417 1_555
N21 Ta6 2.132444 1_555
N21 Ta17 2.168206 1_555
N21 Ta1 2.180040 1_655
N21 Ta13 2.243718 1_555
N22 Ta7 2.115654 1_555
N22 Ta18 2.166775 1_565
N22 Ta14 2.170516 1_555
N22 Ta2 2.175747 1_555
N23 Ta30 2.145387 1_556
N23 Ta8 2.166926 1_666
N23 Ta19 2.186828 1_555
N23 Ta15 2.192556 1_555
N23 Ta3 2.211976 1_655
N24 Ta27 2.112411 1_555
N24 Ta13 2.165251 1_555
N24 Ta1 2.169772 1_655
N24 Ta17 2.171150 1_555
N25 Ta9 2.103802 1_555
N25 Ta16 2.163514 1_565
N25 Ta12 2.170362 1_555
N25 Ta0 2.172509 1_555
N26 Ta10 2.104566 1_555
N26 Ta29 2.131221 1_555
N26 Ta2 2.172140 1_555
N26 Ta18 2.189826 1_565
N26 Ta14 2.248658 1_555
N27 Ta28 2.141760 1_555
N27 Ta11 2.182377 1_555
N27 Ta19 2.184206 1_555
N27 Ta3 2.198050 1_655
N27 Ta15 2.222159 1_555
N28 Ta5 2.104931 1_555
N28 Ta31 2.144390 1_565
N28 Ta12 2.168092 1_565
N28 Ta0 2.197241 1_455
N28 Ta16 2.234319 1_565
N29 Ta9 2.103802 1_555
N29 Ta0 2.163513 1_455
N29 Ta16 2.170363 1_565
N29 Ta12 2.172509 1_565
N30 Ta32 2.113412 1_555
N30 Ta6 2.132444 1_545
N30 Ta1 2.168210 1_545
N30 Ta13 2.180032 1_555
N30 Ta17 2.243723 1_545
N31 Ta7 2.115649 1_555
N31 Ta2 2.166777 1_455
N31 Ta18 2.170519 1_565
N31 Ta14 2.175743 1_565
N32 Ta10 2.104562 1_555
N32 Ta29 2.131218 1_565
N32 Ta14 2.172136 1_565
N32 Ta2 2.189827 1_455
N32 Ta18 2.248660 1_565
N33 Ta30 2.145384 1_566
N33 Ta8 2.166927 1_566
N33 Ta3 2.186830 1_555
N33 Ta19 2.192559 1_555
N33 Ta15 2.211972 1_565
N34 Ta9 2.114475 1_555
N34 Ta23 2.165007 1_555
N34 Ta20 2.170643 1_565
N34 Ta33 2.184228 1_565
N35 Ta27 2.099959 1_555
N35 Ta34 2.162623 1_655
N35 Ta25 2.168856 1_545
N35 Ta21 2.172769 1_545
N36 Ta29 2.153036 1_565
N36 Ta10 2.159583 1_555
N36 Ta35 2.190594 1_565
N36 Ta24 2.190674 1_555
N36 Ta22 2.222765 1_565
N37 Ta11 2.106384 1_555
N37 Ta28 2.141732 1_565
N37 Ta36 2.165519 1_565
N37 Ta26 2.198057 1_555
N37 Ta4 2.238654 1_565
N38 Ta31 2.107919 1_555
N38 Ta5 2.149946 1_545
N38 Ta25 2.166521 1_545
N38 Ta34 2.195554 1_655
N38 Ta21 2.230960 1_545
N39 Ta6 2.151802 1_555
N39 Ta32 2.153159 1_565
N39 Ta24 2.184868 1_555
N39 Ta35 2.188813 1_565
N39 Ta22 2.221414 1_565
N40 Ta27 2.099961 1_555
N40 Ta25 2.162623 1_555
N40 Ta21 2.168856 1_655
N40 Ta34 2.172769 1_655
N41 Ta9 2.114474 1_555
N41 Ta20 2.165009 1_565
N41 Ta33 2.170639 1_455
N41 Ta23 2.184230 1_455
N42 Ta29 2.153038 1_455
N42 Ta10 2.159581 1_555
N42 Ta24 2.190593 1_455
N42 Ta22 2.190672 1_565
N42 Ta35 2.222769 1_455
N43 Ta11 2.106382 1_555
N43 Ta28 2.141734 1_455
N43 Ta26 2.165520 1_455
N43 Ta4 2.198056 1_565
N43 Ta36 2.238654 1_455
N44 Ta32 2.113408 1_555
N44 Ta6 2.132444 1_655
N44 Ta13 2.168215 1_655
N44 Ta17 2.180036 1_545
N44 Ta1 2.243714 1_655
N45 Ta5 2.104933 1_555
N45 Ta31 2.144388 1_455
N45 Ta16 2.168089 1_455
N45 Ta12 2.197239 1_555
N45 Ta0 2.234323 1_455
N46 Ta7 2.115651 1_555
N46 Ta14 2.166779 1_555
N46 Ta2 2.170514 1_455
N46 Ta18 2.175745 1_455
N47 Ta30 2.145383 1_456
N47 Ta8 2.166927 1_556
N47 Ta15 2.186833 1_555
N47 Ta3 2.192555 1_555
N47 Ta19 2.211974 1_445
