# generated using pymatgen
data_CaCu(GeO3)2
_symmetry_space_group_name_H-M   'P 1'
_cell_length_a   9.34291300
_cell_length_b   5.25975100
_cell_length_c   10.26017874
_cell_angle_alpha   76.29656686
_cell_angle_beta   90.00000000
_cell_angle_gamma   90.00000000
_symmetry_Int_Tables_number   1
_chemical_formula_structural   CaCu(GeO3)2
_chemical_formula_sum   'Ca4 Cu4 Ge8 O24'
_cell_volume   489.84743053
_cell_formula_units_Z   4
loop_
 _symmetry_equiv_pos_site_id
 _symmetry_equiv_pos_as_xyz
  1  'x, y, z'
loop_
 _atom_site_type_symbol
 _atom_site_label
 _atom_site_symmetry_multiplicity
 _atom_site_fract_x
 _atom_site_fract_y
 _atom_site_fract_z
 _atom_site_occupancy
  Ca  Ca0  1  0.45356500  0.52972400  0.28480800  1
  Ca  Ca1  1  0.95356500  0.97027600  0.71519200  1
  Ca  Ca2  1  0.54643500  0.47027600  0.71519200  1
  Ca  Ca3  1  0.04643500  0.02972400  0.28480800  1
  Cu  Cu0  1  0.65924600  0.02857800  0.22519200  1
  Cu  Cu1  1  0.15924600  0.47142200  0.77480800  1
  Cu  Cu2  1  0.34075400  0.97142200  0.77480800  1
  Cu  Cu3  1  0.84075400  0.52857800  0.22519200  1
  Ge  Ge0  1  0.34964300  0.15480400  0.05001500  1
  Ge  Ge1  1  0.84964300  0.34519600  0.94998500  1
  Ge  Ge2  1  0.65035700  0.84519600  0.94998500  1
  Ge  Ge3  1  0.15035700  0.65480400  0.05001500  1
  Ge  Ge4  1  0.35136800  0.91760000  0.49391100  1
  Ge  Ge5  1  0.85136800  0.58240000  0.50608900  1
  Ge  Ge6  1  0.64863200  0.08240000  0.50608900  1
  Ge  Ge7  1  0.14863200  0.41760000  0.49391100  1
  O  O0  1  0.25119800  0.69227300  0.40125500  1
  O  O1  1  0.75119800  0.80772700  0.59874500  1
  O  O2  1  0.74880200  0.30772700  0.59874500  1
  O  O3  1  0.24880200  0.19227300  0.40125500  1
  O  O4  1  0.30736500  0.80931500  0.10304800  1
  O  O5  1  0.80736500  0.69068500  0.89695300  1
  O  O6  1  0.69263500  0.19068500  0.89695300  1
  O  O7  1  0.19263500  0.30931500  0.10304800  1
  O  O8  1  0.97819600  0.32487100  0.43547800  1
  O  O9  1  0.47819600  0.17512900  0.56452200  1
  O  O10  1  0.02180400  0.67512900  0.56452200  1
  O  O11  1  0.52180400  0.82487100  0.43547800  1
  O  O12  1  0.01460600  0.72942500  0.15003500  1
  O  O13  1  0.51460600  0.77057500  0.84996500  1
  O  O14  1  0.98539400  0.27057500  0.84996500  1
  O  O15  1  0.48539400  0.22942500  0.15003500  1
  O  O16  1  0.36581000  0.23934400  0.87422300  1
  O  O17  1  0.86581000  0.26065600  0.12577700  1
  O  O18  1  0.63419000  0.76065600  0.12577700  1
  O  O19  1  0.13419000  0.73934400  0.87422300  1
  O  O20  1  0.32071000  0.72228300  0.66168500  1
  O  O21  1  0.82071000  0.77771700  0.33831500  1
  O  O22  1  0.67929000  0.27771700  0.33831500  1
  O  O23  1  0.17929000  0.22228300  0.66168500  1
loop_
_geom_bond_atom_site_label_1
_geom_bond_atom_site_label_2
_geom_bond_distance
_geom_bond_site_symmetry_2
Ca0 O15 2.351635 1_555
Ca0 O18 2.458987 1_555
Ca0 O22 2.482164 1_555
Ca0 O4 2.491351 1_555
Ca0 O0 2.493421 1_555
Ca0 O11 2.518583 1_555
Ca0 O3 2.689410 1_555
Ca0 O9 3.038399 1_555
Ca1 O14 2.351635 1_565
Ca1 O19 2.458987 1_655
Ca1 O23 2.482164 1_665
Ca1 O5 2.491358 1_555
Ca1 O1 2.493421 1_555
Ca1 O10 2.518583 1_655
Ca1 O2 2.689410 1_565
Ca1 O8 3.038399 1_565
Ca2 O13 2.351635 1_555
Ca2 O16 2.458987 1_555
Ca2 O20 2.482164 1_555
Ca2 O6 2.491358 1_555
Ca2 O2 2.493421 1_555
Ca2 O9 2.518583 1_555
Ca2 O1 2.689410 1_555
Ca2 O11 3.038399 1_555
Ca3 O12 2.351635 1_545
Ca3 O17 2.458987 1_455
Ca3 O21 2.482164 1_445
Ca3 O7 2.491351 1_555
Ca3 O3 2.493421 1_555
Ca3 O8 2.518583 1_455
Ca3 O0 2.689410 1_545
Ca3 O10 3.038399 1_545
Cu0 O18 1.939619 1_545
Cu0 O22 1.954479 1_555
Cu0 O15 1.990719 1_555
Cu0 O21 2.153658 1_545
Cu0 O17 2.380148 1_555
Cu0 O11 2.521264 1_545
Cu1 O19 1.939619 1_555
Cu1 O23 1.954479 1_555
Cu1 O14 1.990719 1_455
Cu1 O20 2.153658 1_555
Cu1 O16 2.380148 1_555
Cu1 O10 2.521264 1_555
Cu2 O16 1.939619 1_565
Cu2 O20 1.954479 1_555
Cu2 O13 1.990719 1_555
Cu2 O23 2.153658 1_565
Cu2 O19 2.380148 1_555
Cu2 O9 2.521264 1_565
Cu3 O17 1.939619 1_555
Cu3 O21 1.954479 1_555
Cu3 O12 1.990719 1_655
Cu3 O22 2.153658 1_555
Cu3 O18 2.380148 1_555
Cu3 O8 2.521264 1_555
Ge0 O15 1.733962 1_555
Ge0 O16 1.758900 1_554
Ge0 O4 1.812674 1_545
Ge0 O7 1.821506 1_555
Ge1 O14 1.733962 1_555
Ge1 O17 1.758900 1_556
Ge1 O5 1.812674 1_555
Ge1 O6 1.821502 1_555
Ge2 O13 1.733962 1_555
Ge2 O18 1.758900 1_556
Ge2 O6 1.812674 1_565
Ge2 O5 1.821502 1_555
Ge3 O12 1.733962 1_555
Ge3 O19 1.758900 1_554
Ge3 O7 1.812674 1_555
Ge3 O4 1.821506 1_555
Ge4 O3 1.805133 1_565
Ge4 O20 1.806309 1_555
Ge4 O11 1.808729 1_555
Ge4 O0 1.928230 1_555
Ge4 O9 2.056377 1_565
Ge5 O2 1.805133 1_555
Ge5 O21 1.806309 1_555
Ge5 O10 1.808729 1_655
Ge5 O1 1.928230 1_555
Ge5 O8 2.056377 1_555
Ge6 O1 1.805133 1_545
Ge6 O22 1.806309 1_555
Ge6 O9 1.808729 1_555
Ge6 O2 1.928230 1_555
Ge6 O11 2.056377 1_545
Ge7 O0 1.805133 1_555
Ge7 O23 1.806309 1_555
Ge7 O8 1.808729 1_455
Ge7 O3 1.928230 1_555
Ge7 O10 2.056377 1_555
