# generated using pymatgen
data_U3As4
_symmetry_space_group_name_H-M   'P 1'
_cell_length_a   7.45047010
_cell_length_b   7.44917812
_cell_length_c   7.43433384
_cell_angle_alpha   109.42694838
_cell_angle_beta   109.43084551
_cell_angle_gamma   109.51494075
_symmetry_Int_Tables_number   1
_chemical_formula_structural   U3As4
_chemical_formula_sum   'U6 As8'
_cell_volume   317.78333978
_cell_formula_units_Z   2
loop_
 _symmetry_equiv_pos_site_id
 _symmetry_equiv_pos_as_xyz
  1  'x, y, z'
loop_
 _atom_site_type_symbol
 _atom_site_label
 _atom_site_symmetry_multiplicity
 _atom_site_fract_x
 _atom_site_fract_y
 _atom_site_fract_z
 _atom_site_occupancy
  U  U0  1  0.74939474  0.87471694  0.12464859  1
  U  U1  1  0.62528081  0.37470760  0.24994902  1
  U  U2  1  0.87464547  0.12523236  0.74985766  1
  U  U3  1  0.12533548  0.75064714  0.87530499  1
  U  U4  1  0.37466924  0.24935730  0.62468477  1
  U  U5  1  0.25057848  0.62528146  0.37524378  1
  As  As0  1  0.65881606  0.65866802  0.65862995  1
  As  As1  1  0.34122485  0.49987575  0.99978915  1
  As  As2  1  0.50014152  0.00009367  0.34190481  1
  As  As3  1  0.00009352  0.34123375  0.49990476  1
  As  As4  1  0.50008157  0.00008282  0.84191563  1
  As  As5  1  -0.00010599  0.84127145  0.49971732  1
  As  As6  1  0.15865982  0.15876336  0.15857911  1
  As  As7  1  0.84118543  0.50006737  0.99987045  1
loop_
_geom_bond_atom_site_label_1
_geom_bond_atom_site_label_2
_geom_bond_distance
_geom_bond_site_symmetry_2
As0 U5 2.938391 1_555
As0 U1 2.938464 1_555
As0 U4 2.943165 1_555
As0 U0 3.009699 1_556
As0 U3 3.015775 1_655
As0 U2 3.016206 1_565
As1 U0 2.937841 1_556
As1 U4 2.938096 1_555
As1 U1 2.942823 1_556
As1 U5 3.010163 1_556
As1 U2 3.016064 1_455
As1 U3 3.016671 1_555
As2 U2 2.933230 1_555
As2 U4 2.934591 1_555
As2 U5 2.934741 1_545
As2 U1 3.013092 1_555
As2 U0 3.013401 1_545
As2 U3 3.014016 1_544
As3 U1 2.938430 1_455
As3 U5 2.938680 1_555
As3 U3 2.943619 1_555
As3 U2 3.009209 1_455
As3 U4 3.015506 1_555
As3 U0 3.015895 1_445
As4 U1 2.933717 1_556
As4 U0 2.933861 1_546
As4 U3 2.934532 1_545
As4 U4 3.013182 1_555
As4 U2 3.013697 1_555
As4 U5 3.014195 1_545
As5 U4 2.936860 1_565
As5 U0 2.937805 1_455
As5 U2 2.942797 1_465
As5 U3 3.010810 1_555
As5 U1 3.015811 1_455
As5 U5 3.016722 1_555
As6 U3 2.937343 1_544
As6 U2 2.938876 1_454
As6 U0 2.942975 1_445
As6 U4 3.010211 1_555
As6 U5 3.015425 1_555
As6 U1 3.016788 1_555
As7 U2 2.938419 1_555
As7 U3 2.939025 1_655
As7 U5 2.943750 1_656
As7 U1 3.009517 1_556
As7 U0 3.015301 1_556
As7 U4 3.016023 1_555
