# generated using pymatgen
data_Na3GdI6
_symmetry_space_group_name_H-M   'P 1'
_cell_length_a   7.82280537
_cell_length_b   7.83747881
_cell_length_c   7.83750176
_cell_angle_alpha   119.52015554
_cell_angle_beta   99.87848569
_cell_angle_gamma   99.87820944
_symmetry_Int_Tables_number   1
_chemical_formula_structural   Na3GdI6
_chemical_formula_sum   'Na3 Gd1 I6'
_cell_volume   393.13639184
_cell_formula_units_Z   1
loop_
 _symmetry_equiv_pos_site_id
 _symmetry_equiv_pos_as_xyz
  1  'x, y, z'
loop_
 _atom_site_type_symbol
 _atom_site_label
 _atom_site_symmetry_multiplicity
 _atom_site_fract_x
 _atom_site_fract_y
 _atom_site_fract_z
 _atom_site_occupancy
  Na  Na0  1  0.00000000  0.33276923  0.66722977  1
  Na  Na1  1  0.50000000  0.82906080  0.17094020  1
  Na  Na2  1  0.00000100  0.66677628  0.33322472  1
  Gd  Gd0  1  0.00000100  0.00062181  0.99937919  1
  I  I0  1  0.23896690  0.76038583  0.76369258  1
  I  I1  1  0.24186399  0.40286847  0.08199425  1
  I  I2  1  0.24407027  0.07970866  0.39890624  1
  I  I3  1  0.75813301  0.91800675  0.59712453  1
  I  I4  1  0.75592973  0.60109176  0.92029234  1
  I  I5  1  0.76103510  0.23630942  0.23961617  1
loop_
_geom_bond_atom_site_label_1
_geom_bond_atom_site_label_2
_geom_bond_distance
_geom_bond_site_symmetry_2
Gd0 I0 3.068698 1_545
Gd0 I5 3.068704 1_456
Gd0 I1 3.075616 1_556
Gd0 I3 3.075684 1_445
Gd0 I2 3.076450 1_556
Gd0 I4 3.076475 1_445
I0 Na0 3.188547 1_555
I0 Na1 3.215696 1_556
I0 Na2 3.215821 1_555
I1 Na0 3.197167 1_554
I1 Na2 3.215994 1_555
I1 Na1 3.260234 1_555
I2 Na1 3.190244 1_545
I2 Na2 3.207062 1_545
I2 Na0 3.250911 1_555
I3 Na0 3.197141 1_665
I3 Na2 3.215998 1_655
I3 Na1 3.260174 1_555
I4 Na1 3.190254 1_556
I4 Na2 3.207059 1_656
I4 Na0 3.250913 1_655
I5 Na0 3.188532 1_655
I5 Na1 3.215706 1_545
I5 Na2 3.215816 1_655
