# generated using pymatgen
data_Zr2HBr2
_symmetry_space_group_name_H-M   'P 1'
_cell_length_a   10.37559352
_cell_length_b   10.37559352
_cell_length_c   5.97616690
_cell_angle_alpha   80.12873852
_cell_angle_beta   80.12873852
_cell_angle_gamma   19.60809688
_symmetry_Int_Tables_number   1
_chemical_formula_structural   Zr2HBr2
_chemical_formula_sum   'Zr4 H2 Br4'
_cell_volume   212.60659207
_cell_formula_units_Z   2
loop_
 _symmetry_equiv_pos_site_id
 _symmetry_equiv_pos_as_xyz
  1  'x, y, z'
loop_
 _atom_site_type_symbol
 _atom_site_label
 _atom_site_symmetry_multiplicity
 _atom_site_fract_x
 _atom_site_fract_y
 _atom_site_fract_z
 _atom_site_occupancy
  Zr  Zr0  1  0.18678900  0.18678900  0.04896000  1
  Zr  Zr1  1  0.81321100  0.81321100  0.95104000  1
  Zr  Zr2  1  0.31560500  0.31560500  0.45031700  1
  Zr  Zr3  1  0.68439500  0.68439500  0.54968300  1
  H  H0  1  0.21810700  0.21810700  0.38224000  1
  H  H1  1  0.78189300  0.78189300  0.61776000  1
  Br  Br0  1  0.09280500  0.09280500  0.77305100  1
  Br  Br1  1  0.90719500  0.90719500  0.22694900  1
  Br  Br2  1  0.40937900  0.40937900  0.72581500  1
  Br  Br3  1  0.59062100  0.59062100  0.27418500  1
loop_
_geom_bond_atom_site_label_1
_geom_bond_atom_site_label_2
_geom_bond_distance
_geom_bond_site_symmetry_2
H0 Zr3 2.087561 1_455
H0 Zr3 2.087561 1_545
H0 Zr2 2.102948 1_555
H0 Zr0 2.195662 1_555
H1 Zr2 2.087561 1_655
H1 Zr2 2.087561 1_565
H1 Zr3 2.102948 1_555
H1 Zr1 2.195662 1_555
Br0 Zr0 2.741295 1_556
Br0 Zr3 2.746082 1_455
Br0 Zr3 2.746082 1_545
Br1 Zr1 2.741295 1_554
Br1 Zr2 2.746082 1_655
Br1 Zr2 2.746082 1_565
Br2 Zr2 2.736058 1_555
Br2 Zr1 2.806964 1_455
Br2 Zr1 2.806964 1_545
Br3 Zr3 2.736058 1_555
Br3 Zr0 2.806964 1_565
Br3 Zr0 2.806964 1_655
