# generated using pymatgen
data_SrCd2
_symmetry_space_group_name_H-M   'P 1'
_cell_length_a   5.07903927
_cell_length_b   6.38623964
_cell_length_c   6.38623911
_cell_angle_alpha   78.32255256
_cell_angle_beta   66.56835122
_cell_angle_gamma   66.56834378
_symmetry_Int_Tables_number   1
_chemical_formula_structural   SrCd2
_chemical_formula_sum   'Sr2 Cd4'
_cell_volume   174.14698494
_cell_formula_units_Z   2
loop_
 _symmetry_equiv_pos_site_id
 _symmetry_equiv_pos_as_xyz
  1  'x, y, z'
loop_
 _atom_site_type_symbol
 _atom_site_label
 _atom_site_symmetry_multiplicity
 _atom_site_fract_x
 _atom_site_fract_y
 _atom_site_fract_z
 _atom_site_occupancy
  Sr  Sr0  1  0.45310323  0.29689677  0.79689677  1
  Sr  Sr1  1  0.54689677  0.70310323  0.20310323  1
  Cd  Cd0  1  0.83564197  0.10804138  0.22067169  1
  Cd  Cd1  1  0.16435803  0.89195862  0.77932731  1
  Cd  Cd2  1  0.16435803  0.27932731  0.39195862  1
  Cd  Cd3  1  0.83564197  0.72067269  0.60804138  1
loop_
_geom_bond_atom_site_label_1
_geom_bond_atom_site_label_2
_geom_bond_distance
_geom_bond_site_symmetry_2
Cd0 Cd2 2.927414 1_555
Cd0 Cd2 2.927436 1_655
Cd0 Cd1 2.938616 1_644
Cd0 Cd3 3.124477 1_545
Cd0 Sr1 3.480728 1_545
Cd0 Sr1 3.480740 1_645
Cd0 Sr1 3.482928 1_555
Cd0 Sr0 3.608044 1_555
Cd0 Sr0 3.681134 1_554
Cd0 Sr0 3.681145 1_654
Cd1 Cd3 2.927414 1_555
Cd1 Cd3 2.927431 1_455
Cd1 Cd2 3.124473 1_565
Cd1 Sr0 3.480731 1_565
Cd1 Sr0 3.480738 1_465
Cd1 Sr0 3.482927 1_555
Cd1 Sr1 3.608039 1_555
Cd1 Sr1 3.681139 1_556
Cd1 Sr1 3.681147 1_456
Cd2 Cd3 2.938622 1_455
Cd2 Sr0 3.480730 1_555
Cd2 Sr0 3.480738 1_455
Cd2 Sr0 3.482927 1_554
Cd2 Sr1 3.608039 1_545
Cd2 Sr1 3.681140 1_555
Cd2 Sr1 3.681146 1_455
Cd3 Sr1 3.480730 1_555
Cd3 Sr1 3.480738 1_655
Cd3 Sr1 3.482927 1_556
Cd3 Sr0 3.608039 1_565
Cd3 Sr0 3.681140 1_555
Cd3 Sr0 3.681146 1_655
