# generated using pymatgen
data_Si2Ni5P3
_symmetry_space_group_name_H-M   'P 1'
_cell_length_a   4.91299900
_cell_length_b   5.94242900
_cell_length_c   34.27215900
_cell_angle_alpha   90.00000000
_cell_angle_beta   90.00000000
_cell_angle_gamma   90.00000000
_symmetry_Int_Tables_number   1
_chemical_formula_structural   Si2Ni5P3
_chemical_formula_sum   'Si16 Ni40 P24'
_cell_volume   1000.58074519
_cell_formula_units_Z   8
loop_
 _symmetry_equiv_pos_site_id
 _symmetry_equiv_pos_as_xyz
  1  'x, y, z'
loop_
 _atom_site_type_symbol
 _atom_site_label
 _atom_site_symmetry_multiplicity
 _atom_site_fract_x
 _atom_site_fract_y
 _atom_site_fract_z
 _atom_site_occupancy
  Si  Si0  1  0.69591100  0.41766700  0.12379400  1
  Si  Si1  1  0.80408900  0.91766700  0.87620600  1
  Si  Si2  1  0.80408900  0.41766700  0.62379400  1
  Si  Si3  1  0.21952300  0.09011400  0.22698500  1
  Si  Si4  1  0.21952300  0.59011400  0.27301500  1
  Si  Si5  1  0.19591100  0.08233300  0.12379400  1
  Si  Si6  1  0.69591100  0.91766700  0.37620600  1
  Si  Si7  1  0.28047700  0.59011400  0.77301500  1
  Si  Si8  1  0.19591100  0.58233300  0.37620600  1
  Si  Si9  1  0.78047700  0.90988600  0.77301500  1
  Si  Si10  1  0.78047700  0.40988600  0.72698500  1
  Si  Si11  1  0.30408900  0.58233300  0.87620600  1
  Si  Si12  1  0.71952300  0.40988600  0.22698500  1
  Si  Si13  1  0.71952300  0.90988600  0.27301500  1
  Si  Si14  1  0.30408900  0.08233300  0.62379400  1
  Si  Si15  1  0.28047700  0.09011400  0.72698500  1
  Ni  Ni0  1  0.00466500  0.19916300  0.67380000  1
  Ni  Ni1  1  0.51155000  0.30061300  0.97597400  1
  Ni  Ni2  1  0.49202100  0.70519900  0.62802700  1
  Ni  Ni3  1  0.99202100  0.79480100  0.62802700  1
  Ni  Ni4  1  0.49981500  0.71810100  0.71906100  1
  Ni  Ni5  1  0.01155000  0.19938700  0.97597400  1
  Ni  Ni6  1  0.99202100  0.29480100  0.87197300  1
  Ni  Ni7  1  0.49872200  0.78880600  0.43218000  1
  Ni  Ni8  1  0.00797900  0.70519900  0.12802700  1
  Ni  Ni9  1  0.49533500  0.69916300  0.32620000  1
  Ni  Ni10  1  0.48845000  0.19938700  0.47597400  1
  Ni  Ni11  1  0.49872200  0.28880600  0.06782000  1
  Ni  Ni12  1  0.00018500  0.71810100  0.21906100  1
  Ni  Ni13  1  0.50466500  0.30083700  0.67380000  1
  Ni  Ni14  1  0.50127800  0.21119400  0.56782000  1
  Ni  Ni15  1  0.01155000  0.69938700  0.52402600  1
  Ni  Ni16  1  0.00018500  0.21810100  0.28093900  1
  Ni  Ni17  1  0.98845000  0.30061300  0.47597400  1
  Ni  Ni18  1  0.99533500  0.30083700  0.17380000  1
  Ni  Ni19  1  0.49981500  0.21810100  0.78093900  1
  Ni  Ni20  1  0.48845000  0.69938700  0.02402600  1
  Ni  Ni21  1  0.99981500  0.28189900  0.78093900  1
  Ni  Ni22  1  0.50018500  0.28189900  0.28093900  1
  Ni  Ni23  1  0.49202100  0.20519900  0.87197300  1
  Ni  Ni24  1  0.50797900  0.79480100  0.12802700  1
  Ni  Ni25  1  0.99981500  0.78189900  0.71906100  1
  Ni  Ni26  1  0.00127800  0.78880600  0.93218000  1
  Ni  Ni27  1  0.00127800  0.28880600  0.56782000  1
  Ni  Ni28  1  0.99872200  0.71119400  0.43218000  1
  Ni  Ni29  1  0.50127800  0.71119400  0.93218000  1
  Ni  Ni30  1  0.50018500  0.78189900  0.21906100  1
  Ni  Ni31  1  0.50466500  0.80083700  0.82620000  1
  Ni  Ni32  1  0.98845000  0.80061300  0.02402600  1
  Ni  Ni33  1  0.49533500  0.19916300  0.17380000  1
  Ni  Ni34  1  0.99533500  0.80083700  0.32620000  1
  Ni  Ni35  1  0.00797900  0.20519900  0.37197300  1
  Ni  Ni36  1  0.99872200  0.21119400  0.06782000  1
  Ni  Ni37  1  0.51155000  0.80061300  0.52402600  1
  Ni  Ni38  1  0.50797900  0.29480100  0.37197300  1
  Ni  Ni39  1  0.00466500  0.69916300  0.82620000  1
  P  P0  1  0.20536500  0.07258700  0.42549100  1
  P  P1  1  0.68596400  0.93660900  0.67335200  1
  P  P2  1  0.81329100  0.43445400  0.02333500  1
  P  P3  1  0.18596400  0.06339100  0.82664800  1
  P  P4  1  0.68596400  0.43660900  0.82664800  1
  P  P5  1  0.31403600  0.06339100  0.32664800  1
  P  P6  1  0.68670900  0.93445400  0.97666500  1
  P  P7  1  0.70536500  0.92741300  0.07450900  1
  P  P8  1  0.81329100  0.93445400  0.47666500  1
  P  P9  1  0.18670900  0.06554600  0.52333500  1
  P  P10  1  0.18596400  0.56339100  0.67335200  1
  P  P11  1  0.79463500  0.42741300  0.92549100  1
  P  P12  1  0.20536500  0.57258700  0.07450900  1
  P  P13  1  0.70536500  0.42741300  0.42549100  1
  P  P14  1  0.31329100  0.06554600  0.02333500  1
  P  P15  1  0.29463500  0.57258700  0.57450900  1
  P  P16  1  0.81403600  0.43660900  0.32664800  1
  P  P17  1  0.29463500  0.07258700  0.92549100  1
  P  P18  1  0.18670900  0.56554600  0.97666500  1
  P  P19  1  0.68670900  0.43445400  0.52333500  1
  P  P20  1  0.31329100  0.56554600  0.47666500  1
  P  P21  1  0.79463500  0.92741300  0.57450900  1
  P  P22  1  0.31403600  0.56339100  0.17335200  1
  P  P23  1  0.81403600  0.93660900  0.17335200  1
loop_
_geom_bond_atom_site_label_1
_geom_bond_atom_site_label_2
_geom_bond_distance
_geom_bond_site_symmetry_2
Ni0 P1 2.210463 1_445
Ni0 P10 2.340565 1_555
Ni0 Si15 2.361905 1_555
Ni0 Si14 2.362878 1_555
Ni0 Si2 2.365203 1_455
Ni0 Si10 2.470557 1_455
Ni1 P18 2.241910 1_555
Ni1 P2 2.337711 1_556
Ni1 P6 2.339988 1_545
Ni1 P11 2.344256 1_555
Ni1 P14 2.352588 1_556
Ni1 P17 2.442393 1_555
Ni2 P15 2.219378 1_555
Ni2 P1 2.282962 1_555
Ni2 Si2 2.300253 1_555
Ni2 P10 2.320368 1_555
Ni2 Si14 2.428176 1_565
Ni2 P21 2.705237 1_555
Ni3 P21 2.219378 1_555
Ni3 P10 2.282962 1_655
Ni3 Si14 2.300253 1_665
Ni3 P1 2.320368 1_555
Ni3 Si2 2.428176 1_555
Ni3 P15 2.705237 1_655
Ni4 P1 2.230804 1_555
Ni4 Si7 2.271327 1_555
Ni4 Si10 2.308605 1_555
Ni4 P10 2.382622 1_555
Ni4 Si15 2.474270 1_565
Ni4 Si9 2.572826 1_555
Ni5 P6 2.241910 1_445
Ni5 P14 2.337711 1_556
Ni5 P18 2.339988 1_555
Ni5 P17 2.344256 1_555
Ni5 P2 2.352588 1_456
Ni5 P11 2.442393 1_455
Ni6 P11 2.219378 1_555
Ni6 P3 2.282962 1_655
Ni6 Si11 2.300253 1_655
Ni6 P4 2.320368 1_555
Ni6 Si1 2.428176 1_545
Ni6 P17 2.705237 1_655
Ni7 P20 2.216869 1_555
Ni7 P0 2.230149 1_565
Ni7 Si6 2.281444 1_555
Ni7 P8 2.337090 1_555
Ni7 P13 2.386470 1_555
Ni7 Si8 2.720066 1_555
Ni8 P12 2.219378 1_555
Ni8 P23 2.282962 1_455
Ni8 Si0 2.300253 1_455
Ni8 P22 2.320368 1_555
Ni8 Si5 2.428176 1_565
Ni8 P7 2.705237 1_455
Ni9 P16 2.210463 1_555
Ni9 P5 2.340565 1_565
Ni9 Si4 2.361905 1_555
Ni9 Si8 2.362878 1_555
Ni9 Si6 2.365203 1_555
Ni9 Si13 2.470557 1_555
Ni10 P8 2.241910 1_545
Ni10 P9 2.337711 1_555
Ni10 P20 2.339988 1_555
Ni10 P0 2.344256 1_555
Ni10 P19 2.352588 1_555
Ni10 P13 2.442393 1_555
Ni11 P14 2.216869 1_555
Ni11 P12 2.230149 1_555
Ni11 Si0 2.281444 1_555
Ni11 P2 2.337090 1_555
Ni11 P7 2.386470 1_545
Ni11 Si5 2.720066 1_555
Ni12 P23 2.230804 1_455
Ni12 Si4 2.271327 1_555
Ni12 Si12 2.308605 1_455
Ni12 P22 2.382622 1_555
Ni12 Si3 2.474270 1_565
Ni12 Ni30 2.485582 1_555
Ni12 Ni30 2.485582 1_455
Ni12 Si13 2.572826 1_455
Ni13 P10 2.210463 1_555
Ni13 P1 2.340565 1_545
Ni13 Si10 2.361905 1_555
Ni13 Si2 2.362878 1_555
Ni13 Si14 2.365203 1_555
Ni13 Si15 2.470557 1_555
Ni14 P19 2.216869 1_555
Ni14 P21 2.230149 1_545
Ni14 Si14 2.281444 1_555
Ni14 P9 2.337090 1_555
Ni14 P15 2.386470 1_555
Ni14 Si2 2.720066 1_555
Ni15 P19 2.241910 1_455
Ni15 P20 2.337711 1_555
Ni15 P9 2.339988 1_565
Ni15 P15 2.344256 1_555
Ni15 P8 2.352588 1_455
Ni15 P21 2.442393 1_455
Ni16 P16 2.230804 1_455
Ni16 Si3 2.271327 1_555
Ni16 Si13 2.308605 1_445
Ni16 P5 2.382622 1_555
Ni16 Si4 2.474270 1_555
Ni16 Ni22 2.485582 1_555
Ni16 Ni22 2.485582 1_455
Ni16 Si12 2.572826 1_455
Ni17 P20 2.241910 1_655
Ni17 P19 2.337711 1_555
Ni17 P8 2.339988 1_545
Ni17 P13 2.344256 1_555
Ni17 P9 2.352588 1_655
Ni17 P0 2.442393 1_655
Ni18 P22 2.210463 1_655
Ni18 P23 2.340565 1_545
Ni18 Si12 2.361905 1_555
Ni18 Si0 2.362878 1_555
Ni18 Si5 2.365203 1_655
Ni18 Si3 2.470557 1_655
Ni19 P4 2.230804 1_555
Ni19 Si15 2.271327 1_555
Ni19 Si9 2.308605 1_545
Ni19 P3 2.382622 1_555
Ni19 Si7 2.474270 1_555
Ni19 Ni21 2.485582 1_555
Ni19 Ni21 2.485582 1_455
Ni19 Si10 2.572826 1_555
Ni20 P2 2.241910 1_555
Ni20 P18 2.337711 1_554
Ni20 P14 2.339988 1_565
Ni20 P12 2.344256 1_555
Ni20 P6 2.352588 1_554
Ni20 P7 2.442393 1_555
Ni21 P3 2.230804 1_655
Ni21 Si10 2.271327 1_555
Ni21 Si7 2.308605 1_655
Ni21 P4 2.382622 1_555
Ni21 Si9 2.474270 1_545
Ni21 Si15 2.572826 1_655
Ni22 P5 2.230804 1_555
Ni22 Si12 2.271327 1_555
Ni22 Si4 2.308605 1_555
Ni22 P16 2.382622 1_555
Ni22 Si13 2.474270 1_545
Ni22 Si3 2.572826 1_555
Ni23 P17 2.219378 1_555
Ni23 P4 2.282962 1_555
Ni23 Si1 2.300253 1_545
Ni23 P3 2.320368 1_555
Ni23 Si11 2.428176 1_555
Ni23 P11 2.705237 1_555
Ni24 P7 2.219378 1_555
Ni24 P22 2.282962 1_555
Ni24 Si5 2.300253 1_565
Ni24 P23 2.320368 1_555
Ni24 Si0 2.428176 1_555
Ni24 P12 2.705237 1_555
Ni25 P10 2.230804 1_655
Ni25 Si9 2.271327 1_555
Ni25 Si15 2.308605 1_665
Ni25 P1 2.382622 1_555
Ni25 Si10 2.474270 1_555
Ni25 Ni4 2.485582 1_655
Ni25 Ni4 2.485582 1_555
Ni25 Si7 2.572826 1_655
Ni26 P18 2.216869 1_555
Ni26 P17 2.230149 1_565
Ni26 Si1 2.281444 1_455
Ni26 P6 2.337090 1_455
Ni26 P11 2.386470 1_455
Ni26 Si11 2.720066 1_555
Ni27 P9 2.216869 1_555
Ni27 P15 2.230149 1_555
Ni27 Si2 2.281444 1_455
Ni27 P19 2.337090 1_455
Ni27 P21 2.386470 1_445
Ni27 Si14 2.720066 1_555
Ni28 P8 2.216869 1_555
Ni28 P13 2.230149 1_555
Ni28 Si8 2.281444 1_655
Ni28 P20 2.337090 1_655
Ni28 P0 2.386470 1_665
Ni28 Si6 2.720066 1_555
Ni29 P6 2.216869 1_555
Ni29 P11 2.230149 1_555
Ni29 Si11 2.281444 1_555
Ni29 P18 2.337090 1_555
Ni29 P17 2.386470 1_565
Ni29 Si1 2.720066 1_555
Ni30 P22 2.230804 1_555
Ni30 Si13 2.271327 1_555
Ni30 Si3 2.308605 1_565
Ni30 P23 2.382622 1_555
Ni30 Si12 2.474270 1_555
Ni30 Si4 2.572826 1_555
Ni31 P3 2.210463 1_565
Ni31 P4 2.340565 1_555
Ni31 Si9 2.361905 1_555
Ni31 Si1 2.362878 1_555
Ni31 Si11 2.365203 1_555
Ni31 Si7 2.470557 1_555
Ni32 P14 2.241910 1_665
Ni32 P6 2.337711 1_554
Ni32 P2 2.339988 1_555
Ni32 P7 2.344256 1_555
Ni32 P18 2.352588 1_654
Ni32 P12 2.442393 1_655
Ni33 P23 2.210463 1_545
Ni33 P22 2.340565 1_555
Ni33 Si3 2.361905 1_555
Ni33 Si5 2.362878 1_555
Ni33 Si0 2.365203 1_555
Ni33 Si12 2.470557 1_555
Ni34 P5 2.210463 1_665
Ni34 P16 2.340565 1_555
Ni34 Si13 2.361905 1_555
Ni34 Si6 2.362878 1_555
Ni34 Si8 2.365203 1_655
Ni34 Si4 2.470557 1_655
Ni35 P0 2.219378 1_555
Ni35 P16 2.282962 1_455
Ni35 Si6 2.300253 1_445
Ni35 P5 2.320368 1_555
Ni35 Si8 2.428176 1_555
Ni35 P13 2.705237 1_455
Ni36 P2 2.216869 1_555
Ni36 P7 2.230149 1_545
Ni36 Si5 2.281444 1_655
Ni36 P14 2.337090 1_655
Ni36 P12 2.386470 1_655
Ni36 Si0 2.720066 1_555
Ni37 P9 2.241910 1_565
Ni37 P8 2.337711 1_555
Ni37 P19 2.339988 1_555
Ni37 P21 2.344256 1_555
Ni37 P20 2.352588 1_555
Ni37 P15 2.442393 1_555
Ni38 P13 2.219378 1_555
Ni38 P5 2.282962 1_555
Ni38 Si8 2.300253 1_555
Ni38 P16 2.320368 1_555
Ni38 Si6 2.428176 1_545
Ni38 P0 2.705237 1_555
Ni39 P4 2.210463 1_455
Ni39 P3 2.340565 1_565
Ni39 Si7 2.361905 1_555
Ni39 Si11 2.362878 1_555
Ni39 Si1 2.365203 1_455
Ni39 Si9 2.470557 1_455
P1 Si14 2.674806 1_565
P1 Si15 2.859977 1_565
P3 Si1 2.674806 1_445
P3 Si9 2.859977 1_445
P4 Si11 2.674806 1_555
P4 Si7 2.859977 1_555
P5 Si6 2.674806 1_545
P5 Si13 2.859977 1_545
P10 Si2 2.674806 1_455
P10 Si10 2.859977 1_455
P16 Si8 2.674806 1_655
P16 Si4 2.859977 1_655
P22 Si0 2.674806 1_555
P22 Si12 2.859977 1_555
P23 Si5 2.674806 1_665
P23 Si3 2.859977 1_665
