# generated using pymatgen
data_Ba2H6Pt
_symmetry_space_group_name_H-M   'P 1'
_cell_length_a   7.89357255
_cell_length_b   7.89357255
_cell_length_c   6.02245143
_cell_angle_alpha   90.00000000
_cell_angle_beta   90.00000000
_cell_angle_gamma   135.14156626
_symmetry_Int_Tables_number   1
_chemical_formula_structural   Ba2H6Pt
_chemical_formula_sum   'Ba4 H12 Pt2'
_cell_volume   264.68529190
_cell_formula_units_Z   2
loop_
 _symmetry_equiv_pos_site_id
 _symmetry_equiv_pos_as_xyz
  1  'x, y, z'
loop_
 _atom_site_type_symbol
 _atom_site_label
 _atom_site_symmetry_multiplicity
 _atom_site_fract_x
 _atom_site_fract_y
 _atom_site_fract_z
 _atom_site_occupancy
  Ba  Ba0  1  0.14145944  0.85854056  0.50000000  1
  Ba  Ba1  1  0.64145944  0.35854056  -0.00000000  1
  Ba  Ba2  1  0.85854056  0.14145944  0.50000000  1
  Ba  Ba3  1  0.35854056  0.64145944  0.00000000  1
  H  H0  1  0.00054805  0.50054805  0.75000000  1
  H  H1  1  0.49945195  0.99945195  0.25000000  1
  H  H2  1  0.99945195  0.49945195  0.25000000  1
  H  H3  1  0.50054805  0.00054805  0.75000000  1
  H  H4  1  0.38654310  0.61345690  0.50000000  1
  H  H5  1  0.88654310  0.11345690  0.00000000  1
  H  H6  1  0.61345690  0.38654310  0.50000000  1
  H  H7  1  0.11345690  0.88654310  -0.00000000  1
  H  H8  1  0.30349149  0.30349149  0.69437429  1
  H  H9  1  0.69650851  0.69650851  0.30562571  1
  H  H10  1  0.19650851  0.19650851  0.19437429  1
  H  H11  1  0.80349149  0.80349149  0.80562571  1
  Pt  Pt0  1  0.50000000  0.50000000  0.50000000  1
  Pt  Pt1  1  0.00000000  0.00000000  -0.00000000  1
loop_
_geom_bond_atom_site_label_1
_geom_bond_atom_site_label_2
_geom_bond_distance
_geom_bond_site_symmetry_2
Ba0 H1 2.652049 1_555
Ba0 H0 2.652049 1_555
Ba0 H2 2.655795 1_455
Ba0 H3 2.655795 1_565
Ba0 H8 2.995579 1_565
Ba0 H9 2.995579 1_455
Ba0 H10 3.008364 1_565
Ba0 H11 3.008364 1_455
Ba0 H7 3.038826 1_556
Ba0 H7 3.038826 1_555
Ba0 H6 3.039324 1_565
Ba0 H6 3.039324 1_455
Ba1 H3 2.652049 1_554
Ba1 H2 2.652049 1_555
Ba1 H0 2.655795 1_654
Ba1 H1 2.655795 1_545
Ba1 H11 2.995579 1_554
Ba1 H10 2.995579 1_555
Ba1 H9 3.008364 1_555
Ba1 H8 3.008364 1_554
Ba1 H6 3.038826 1_555
Ba1 H6 3.038826 1_554
Ba1 H7 3.039324 1_545
Ba1 H7 3.039324 1_655
Ba2 H2 2.652049 1_555
Ba2 H3 2.652049 1_555
Ba2 H1 2.655795 1_545
Ba2 H0 2.655795 1_655
Ba2 H8 2.995579 1_655
Ba2 H9 2.995579 1_545
Ba2 H10 3.008364 1_655
Ba2 H11 3.008364 1_545
Ba2 H5 3.038826 1_556
Ba2 H5 3.038826 1_555
Ba2 H4 3.039324 1_655
Ba2 H4 3.039324 1_545
Ba3 H0 2.652049 1_554
Ba3 H1 2.652049 1_555
Ba3 H3 2.655795 1_564
Ba3 H2 2.655795 1_455
Ba3 H11 2.995579 1_554
Ba3 H10 2.995579 1_555
Ba3 H9 3.008364 1_555
Ba3 H8 3.008364 1_554
Ba3 H4 3.038826 1_554
Ba3 H4 3.038826 1_555
Ba3 H5 3.039324 1_455
Ba3 H5 3.039324 1_565
H4 Pt0 1.655662 1_555
H5 Pt1 1.655662 1_655
H6 Pt0 1.655662 1_555
H7 Pt1 1.655662 1_565
H8 Pt0 1.664746 1_555
H9 Pt0 1.664746 1_555
H10 Pt1 1.664746 1_555
H11 Pt1 1.664746 1_666
