# generated using pymatgen
data_Rb2ZnCl4
_symmetry_space_group_name_H-M   'P 1'
_cell_length_a   7.22393213
_cell_length_b   9.27366736
_cell_length_c   12.77600729
_cell_angle_alpha   90.00000000
_cell_angle_beta   90.00000000
_cell_angle_gamma   90.00000000
_symmetry_Int_Tables_number   1
_chemical_formula_structural   Rb2ZnCl4
_chemical_formula_sum   'Rb8 Zn4 Cl16'
_cell_volume   855.89467027
_cell_formula_units_Z   4
loop_
 _symmetry_equiv_pos_site_id
 _symmetry_equiv_pos_as_xyz
  1  'x, y, z'
loop_
 _atom_site_type_symbol
 _atom_site_label
 _atom_site_symmetry_multiplicity
 _atom_site_fract_x
 _atom_site_fract_y
 _atom_site_fract_z
 _atom_site_occupancy
  Rb  Rb0  1  0.74577529  0.87461764  0.91856729  1
  Rb  Rb1  1  0.24604610  0.48581173  0.82282331  1
  Rb  Rb2  1  0.74604610  0.51418827  0.17717669  1
  Rb  Rb3  1  0.24604610  0.98581173  0.67717669  1
  Rb  Rb4  1  0.24577529  0.62538236  0.41856729  1
  Rb  Rb5  1  0.24577529  0.12538236  0.08143271  1
  Rb  Rb6  1  0.74577529  0.37461764  0.58143271  1
  Rb  Rb7  1  0.74604610  0.01418827  0.32282331  1
  Zn  Zn0  1  0.74989992  0.27589417  0.92227155  1
  Zn  Zn1  1  0.74989992  0.77589417  0.57772845  1
  Zn  Zn2  1  0.24989992  0.22410583  0.42227155  1
  Zn  Zn3  1  0.24989992  0.72410583  0.07772845  1
  Cl  Cl0  1  0.50604210  0.82018194  0.15137312  1
  Cl  Cl1  1  0.00008466  0.81527891  0.16034980  1
  Cl  Cl2  1  0.75612632  0.01781685  0.58499851  1
  Cl  Cl3  1  0.00604210  0.67981806  0.65137312  1
  Cl  Cl4  1  0.00008466  0.31527891  0.33965020  1
  Cl  Cl5  1  0.24142561  0.81897062  0.91326935  1
  Cl  Cl6  1  0.75612632  0.51781685  0.91500149  1
  Cl  Cl7  1  0.74142561  0.68102938  0.41326935  1
  Cl  Cl8  1  0.25612632  0.48218315  0.08499851  1
  Cl  Cl9  1  0.50008466  0.68472109  0.66034980  1
  Cl  Cl10  1  0.74142561  0.18102938  0.08673065  1
  Cl  Cl11  1  0.25612632  0.98218315  0.41500149  1
  Cl  Cl12  1  0.24142561  0.31897062  0.58673065  1
  Cl  Cl13  1  0.50008466  0.18472109  0.83965020  1
  Cl  Cl14  1  0.00604210  0.17981806  0.84862688  1
  Cl  Cl15  1  0.50604210  0.32018194  0.34862688  1
loop_
_geom_bond_atom_site_label_1
_geom_bond_atom_site_label_2
_geom_bond_distance
_geom_bond_site_symmetry_2
Cl0 Zn3 2.258963 1_555
Cl0 Rb7 3.322796 1_565
Cl0 Rb2 3.341720 1_555
Cl0 Rb0 3.478601 1_554
Cl0 Rb5 3.513426 1_565
Cl1 Zn3 2.255188 1_555
Cl1 Rb7 3.328545 1_465
Cl1 Rb2 3.348206 1_455
Cl1 Rb5 3.526594 1_565
Cl1 Rb0 3.635907 1_454
Cl2 Zn1 2.245883 1_545
Cl2 Rb6 3.310010 1_555
Cl2 Rb7 3.350513 1_555
Cl2 Rb3 3.741732 1_645
Cl2 Rb3 3.879773 1_545
Cl3 Zn1 2.258963 1_455
Cl3 Rb1 3.322796 1_555
Cl3 Rb3 3.341720 1_555
Cl3 Rb4 3.478601 1_555
Cl3 Rb6 3.513426 1_455
Cl4 Zn2 2.255188 1_555
Cl4 Rb2 3.328545 1_455
Cl4 Rb7 3.348206 1_455
Cl4 Rb4 3.526594 1_555
Cl4 Rb6 3.635907 1_455
Cl5 Zn3 2.278694 1_556
Cl5 Rb1 3.298794 1_555
Cl5 Rb3 3.390166 1_555
Cl5 Rb5 3.562488 1_566
Cl5 Rb0 3.618175 1_455
Cl5 Rb0 3.680376 1_555
Cl6 Zn0 2.245883 1_555
Cl6 Rb0 3.310010 1_555
Cl6 Rb2 3.350513 1_556
Cl6 Rb1 3.741732 1_655
Cl6 Rb1 3.879773 1_555
Cl7 Zn1 2.278694 1_555
Cl7 Rb7 3.298794 1_565
Cl7 Rb2 3.390166 1_555
Cl7 Rb6 3.562488 1_555
Cl7 Rb4 3.618175 1_555
Cl7 Rb4 3.680376 1_655
Cl8 Zn3 2.245883 1_555
Cl8 Rb5 3.310010 1_555
Cl8 Rb1 3.350513 1_554
Cl8 Rb2 3.741732 1_555
Cl8 Rb2 3.879773 1_455
Cl9 Zn1 2.255188 1_555
Cl9 Rb1 3.328545 1_555
Cl9 Rb3 3.348206 1_555
Cl9 Rb6 3.526594 1_555
Cl9 Rb4 3.635907 1_555
Cl10 Zn0 2.278694 1_554
Cl10 Rb2 3.298794 1_555
Cl10 Rb7 3.390166 1_555
Cl10 Rb0 3.562488 1_544
Cl10 Rb5 3.618175 1_555
Cl10 Rb5 3.680376 1_655
Cl11 Zn2 2.245883 1_565
Cl11 Rb4 3.310010 1_555
Cl11 Rb3 3.350513 1_555
Cl11 Rb7 3.741732 1_565
Cl11 Rb7 3.879773 1_465
Cl12 Zn2 2.278694 1_555
Cl12 Rb3 3.298794 1_545
Cl12 Rb1 3.390166 1_555
Cl12 Rb4 3.562488 1_555
Cl12 Rb6 3.618175 1_455
Cl12 Rb6 3.680376 1_555
Cl13 Zn0 2.255188 1_555
Cl13 Rb3 3.328545 1_545
Cl13 Rb1 3.348206 1_555
Cl13 Rb0 3.526594 1_545
Cl13 Rb5 3.635907 1_556
Cl14 Zn0 2.258963 1_455
Cl14 Rb3 3.322796 1_545
Cl14 Rb1 3.341720 1_555
Cl14 Rb5 3.478601 1_556
Cl14 Rb0 3.513426 1_445
Cl15 Zn2 2.258963 1_555
Cl15 Rb2 3.322796 1_555
Cl15 Rb7 3.341720 1_555
Cl15 Rb6 3.478601 1_555
Cl15 Rb4 3.513426 1_555
