# generated using pymatgen
data_CaLaMnNbO6
_symmetry_space_group_name_H-M   'P 1'
_cell_length_a   6.31559200
_cell_length_b   6.03295900
_cell_length_c   7.44761019
_cell_angle_alpha   89.98693699
_cell_angle_beta   90.00000000
_cell_angle_gamma   90.00000000
_symmetry_Int_Tables_number   1
_chemical_formula_structural   CaLaMnNbO6
_chemical_formula_sum   'Ca2 La2 Mn2 Nb2 O12'
_cell_volume   283.76665851
_cell_formula_units_Z   2
loop_
 _symmetry_equiv_pos_site_id
 _symmetry_equiv_pos_as_xyz
  1  'x, y, z'
loop_
 _atom_site_type_symbol
 _atom_site_label
 _atom_site_symmetry_multiplicity
 _atom_site_fract_x
 _atom_site_fract_y
 _atom_site_fract_z
 _atom_site_occupancy
  Ca  Ca0  1  0.84302300  0.48921500  0.70223600  1
  Ca  Ca1  1  0.15697700  0.98921500  0.20223600  1
  La  La0  1  0.14515700  0.98362200  0.70155100  1
  La  La1  1  0.85484300  0.48362200  0.20155100  1
  Mn  Mn0  1  0.68356100  0.98853200  0.45263600  1
  Mn  Mn1  1  0.31643900  0.48853200  0.95263600  1
  Nb  Nb0  1  0.30047000  0.54098700  0.44950700  1
  Nb  Nb1  1  0.69953000  0.04098700  0.94950700  1
  O  O0  1  0.92798900  0.74552300  0.45984700  1
  O  O1  1  0.42923700  0.91033800  0.94710000  1
  O  O2  1  0.37906500  0.87091000  0.45386700  1
  O  O3  1  0.89556700  0.78335600  0.93446800  1
  O  O4  1  0.22172600  0.58191000  0.70124200  1
  O  O5  1  0.22145900  0.60560700  0.19754700  1
  O  O6  1  0.07201100  0.24552300  0.95984700  1
  O  O7  1  0.57076300  0.41033800  0.44710000  1
  O  O8  1  0.62093500  0.37091000  0.95386700  1
  O  O9  1  0.10443300  0.28335600  0.43446800  1
  O  O10  1  0.77827400  0.08191000  0.20124200  1
  O  O11  1  0.77854100  0.10560700  0.69754700  1
loop_
_geom_bond_atom_site_label_1
_geom_bond_atom_site_label_2
_geom_bond_distance
_geom_bond_site_symmetry_2
Ca0 O11 2.350116 1_555
Ca0 O0 2.436498 1_555
Ca0 O8 2.447079 1_555
Ca0 O4 2.456252 1_655
Ca0 O3 2.500388 1_555
Ca0 O7 2.606542 1_555
Ca0 O6 2.816488 1_655
Ca0 O9 2.871614 1_655
Ca1 O5 2.350116 1_555
Ca1 O6 2.436498 1_564
Ca1 O2 2.447079 1_555
Ca1 O10 2.456252 1_465
Ca1 O9 2.500388 1_565
Ca1 O1 2.606542 1_554
Ca1 O0 2.816488 1_455
Ca1 O3 2.871614 1_454
La0 O11 2.429719 1_465
La0 O2 2.459273 1_555
La0 O4 2.471288 1_555
La0 O6 2.532171 1_565
La0 O1 2.599683 1_555
La0 O3 2.636784 1_455
La0 O0 2.680690 1_455
La0 O9 2.700192 1_565
La1 O5 2.429719 1_655
La1 O8 2.459273 1_554
La1 O10 2.471288 1_555
La1 O0 2.532171 1_555
La1 O7 2.599683 1_555
La1 O9 2.636784 1_655
La1 O6 2.680690 1_654
La1 O3 2.700192 1_554
Mn0 O10 2.044537 1_565
Mn0 O11 2.046037 1_565
Mn0 O2 2.049837 1_555
Mn0 O0 2.129606 1_555
Mn0 O7 2.642885 1_565
Mn1 O4 2.044537 1_555
Mn1 O5 2.046037 1_556
Mn1 O8 2.049837 1_555
Mn1 O6 2.129606 1_555
Mn1 O1 2.642885 1_555
Nb0 O7 1.880330 1_555
Nb0 O4 1.955365 1_555
Nb0 O5 1.980380 1_555
Nb0 O9 1.990294 1_555
Nb0 O2 2.051636 1_555
Nb0 O0 2.657553 1_455
Nb1 O1 1.880330 1_545
Nb1 O10 1.955365 1_556
Nb1 O11 1.980380 1_555
Nb1 O3 1.990294 1_545
Nb1 O8 2.051636 1_555
Nb1 O6 2.657553 1_655
