# generated using pymatgen
data_Cu6PbSe2Cl5O8
_symmetry_space_group_name_H-M   'P 1'
_cell_length_a   9.86081292
_cell_length_b   9.86081292
_cell_length_c   15.49120645
_cell_angle_alpha   62.89691296
_cell_angle_beta   62.89691296
_cell_angle_gamma   37.06974725
_symmetry_Int_Tables_number   1
_chemical_formula_structural   Cu6PbSe2Cl5O8
_chemical_formula_sum   'Cu12 Pb2 Se4 Cl10 O16'
_cell_volume   796.28168871
_cell_formula_units_Z   2
loop_
 _symmetry_equiv_pos_site_id
 _symmetry_equiv_pos_as_xyz
  1  'x, y, z'
loop_
 _atom_site_type_symbol
 _atom_site_label
 _atom_site_symmetry_multiplicity
 _atom_site_fract_x
 _atom_site_fract_y
 _atom_site_fract_z
 _atom_site_occupancy
  Cu  Cu0  1  0.34814000  0.34814000  0.83410000  1
  Cu  Cu1  1  0.93075700  0.93075700  0.46544400  1
  Cu  Cu2  1  0.06924300  0.06924300  0.53455600  1
  Cu  Cu3  1  0.56036800  0.56036800  0.04732400  1
  Cu  Cu4  1  0.76788300  0.26099300  0.74322000  1
  Cu  Cu5  1  0.43963200  0.43963200  0.95267600  1
  Cu  Cu6  1  0.23211700  0.73900700  0.25678000  1
  Cu  Cu7  1  0.50000000  0.50000000  0.50000000  1
  Cu  Cu8  1  0.65186000  0.65186000  0.16590000  1
  Cu  Cu9  1  0.26099300  0.76788300  0.74322000  1
  Cu  Cu10  1  0.00000000  0.00000000  0.00000000  1
  Cu  Cu11  1  0.73900700  0.23211700  0.25678000  1
  Pb  Pb0  1  0.79386600  0.79386600  0.36063200  1
  Pb  Pb1  1  0.20613400  0.20613400  0.63936800  1
  Se  Se0  1  0.12660700  0.12660700  0.29103200  1
  Se  Se1  1  0.87339300  0.87339300  0.70896800  1
  Se  Se2  1  0.64231300  0.64231300  0.80031600  1
  Se  Se3  1  0.35768700  0.35768700  0.19968400  1
  Cl  Cl0  1  0.30478900  0.30478900  0.00523900  1
  Cl  Cl1  1  0.58627500  0.58627500  0.55085800  1
  Cl  Cl2  1  0.93689900  0.93689900  0.91977300  1
  Cl  Cl3  1  0.06310100  0.06310100  0.08022700  1
  Cl  Cl4  1  0.78999300  0.78999300  0.55941800  1
  Cl  Cl5  1  0.21000700  0.21000700  0.44058200  1
  Cl  Cl6  1  0.23797300  0.23797300  0.81249400  1
  Cl  Cl7  1  0.76202700  0.76202700  0.18750600  1
  Cl  Cl8  1  0.69521100  0.69521100  0.99476100  1
  Cl  Cl9  1  0.41372500  0.41372500  0.44914200  1
  O  O0  1  0.40260800  0.83181600  0.74950100  1
  O  O1  1  0.68882400  0.12512800  0.74755400  1
  O  O2  1  0.94765600  0.94765600  0.58272200  1
  O  O3  1  0.12512800  0.68882400  0.74755400  1
  O  O4  1  0.31117600  0.87487200  0.25244600  1
  O  O5  1  0.83181600  0.40260800  0.74950100  1
  O  O6  1  0.87487200  0.31117600  0.25244600  1
  O  O7  1  0.59739200  0.16818400  0.25049900  1
  O  O8  1  0.16818400  0.59739200  0.25049900  1
  O  O9  1  0.55839300  0.55839300  0.92016300  1
  O  O10  1  0.93289700  0.93289700  0.33952700  1
  O  O11  1  0.05234400  0.05234400  0.41727800  1
  O  O12  1  0.44160700  0.44160700  0.07983700  1
  O  O13  1  0.54002300  0.54002300  0.18081600  1
  O  O14  1  0.45997700  0.45997700  0.81918400  1
  O  O15  1  0.06710300  0.06710300  0.66047300  1
loop_
_geom_bond_atom_site_label_1
_geom_bond_atom_site_label_2
_geom_bond_distance
_geom_bond_site_symmetry_2
Cu0 O14 1.990514 1_555
Cu0 O1 2.170810 1_555
Cu0 O3 2.170810 1_555
Cu1 O10 1.931697 1_555
Cu1 O2 1.988025 1_555
Cu1 O11 2.023692 1_665
Cu2 O15 1.931697 1_555
Cu2 O11 1.988025 1_555
Cu2 O2 2.023692 1_445
Cu3 O13 1.914446 1_555
Cu3 O9 1.987887 1_554
Cu3 O12 2.027356 1_555
Cu4 O15 1.946516 1_655
Cu4 O14 1.948002 1_555
Cu4 O5 1.985330 1_555
Cu4 O1 1.986010 1_555
Cu5 O14 1.914446 1_555
Cu5 O12 1.987887 1_556
Cu5 O9 2.027356 1_555
Cu6 O10 1.946516 1_455
Cu6 O13 1.948002 1_555
Cu6 O8 1.985330 1_555
Cu6 O4 1.986010 1_555
Cu8 O13 1.990514 1_555
Cu8 O4 2.170810 1_555
Cu8 O6 2.170810 1_555
Cu9 O15 1.946516 1_565
Cu9 O14 1.948002 1_555
Cu9 O0 1.985330 1_555
Cu9 O3 1.986010 1_555
Cu11 O10 1.946516 1_545
Cu11 O13 1.948002 1_555
Cu11 O7 1.985330 1_555
Cu11 O6 1.986010 1_555
Cl0 Cu5 2.246627 1_554
Cl0 Cu0 2.370733 1_554
Cl1 Cu7 2.108240 1_555
Cl2 Cu10 2.084711 1_666
Cl3 Cu10 2.084711 1_555
Cl4 Cu1 2.316202 1_555
Cl4 Pb0 3.045298 1_555
Cl5 Cu2 2.316202 1_555
Cl5 Pb1 3.045298 1_555
Cl6 Cu0 2.240121 1_555
Cl6 Pb1 3.013578 1_555
Cl7 Cu8 2.240121 1_555
Cl7 Pb0 3.013578 1_555
Cl8 Cu3 2.246627 1_556
Cl8 Cu8 2.370733 1_556
Cl9 Cu7 2.108240 1_555
O0 Se2 1.733519 1_555
O0 Pb1 2.479995 1_565
O1 Se1 1.727068 1_545
O2 Se1 1.772888 1_555
O3 Se1 1.727068 1_455
O4 Se0 1.727068 1_565
O5 Se2 1.733519 1_555
O5 Pb1 2.479995 1_655
O6 Se0 1.727068 1_655
O7 Se3 1.733519 1_555
O7 Pb0 2.479995 1_545
O8 Se3 1.733519 1_555
O8 Pb0 2.479995 1_455
O9 Se2 1.763358 1_555
O10 Pb0 2.459365 1_555
O11 Se0 1.772888 1_555
O12 Se3 1.763358 1_555
O15 Pb1 2.459365 1_555
