# generated using pymatgen
data_Rb3P11
_symmetry_space_group_name_H-M   'P 1'
_cell_length_a   4.18983204
_cell_length_b   4.18983150
_cell_length_c   49.77394297
_cell_angle_alpha   70.32351269
_cell_angle_beta   70.32351718
_cell_angle_gamma   60.00000048
_symmetry_Int_Tables_number   1
_chemical_formula_structural   Rb3P11
_chemical_formula_sum   'Rb6 P22'
_cell_volume   697.16856993
_cell_formula_units_Z   2
loop_
 _symmetry_equiv_pos_site_id
 _symmetry_equiv_pos_as_xyz
  1  'x, y, z'
loop_
 _atom_site_type_symbol
 _atom_site_label
 _atom_site_symmetry_multiplicity
 _atom_site_fract_x
 _atom_site_fract_y
 _atom_site_fract_z
 _atom_site_occupancy
  Rb  Rb0  1  0.10240100  0.10240100  0.21160000  1
  Rb  Rb1  1  0.99059500  0.99059500  0.37852700  1
  Rb  Rb2  1  0.94797900  0.94797900  0.51950800  1
  Rb  Rb3  1  0.05202100  0.05202100  0.60549200  1
  Rb  Rb4  1  0.00940400  0.00940400  0.74647300  1
  Rb  Rb5  1  0.89759900  0.89759900  0.91340000  1
  P  P0  1  0.23976700  0.23976700  0.03508700  1
  P  P1  1  0.43474000  0.43474000  0.08697200  1
  P  P2  1  0.76023300  0.76023300  0.08991300  1
  P  P3  1  0.62867600  0.62867600  0.13924600  1
  P  P4  1  0.27588200  0.27588200  0.27154400  1
  P  P5  1  0.93230700  0.93230700  0.15038500  1
  P  P6  1  0.59352600  0.59352600  0.27742800  1
  P  P7  1  0.46447900  0.46447900  0.32582000  1
  P  P8  1  0.83559700  0.83559700  0.31165100  1
  P  P9  1  0.52839200  0.52839200  0.42685300  1
  P  P10  1  0.40278500  0.40278500  0.47395600  1
  P  P11  1  0.79375100  0.79375100  0.45234400  1
  P  P12  1  0.20624900  0.20624900  0.67265600  1
  P  P13  1  0.59721500  0.59721500  0.65104400  1
  P  P14  1  0.47160800  0.47160800  0.69814700  1
  P  P15  1  0.16440300  0.16440300  0.81334900  1
  P  P16  1  0.53552100  0.53552100  0.79918000  1
  P  P17  1  0.40647400  0.40647400  0.84757200  1
  P  P18  1  0.06769300  0.06769300  0.97461500  1
  P  P19  1  0.72411800  0.72411800  0.85345600  1
  P  P20  1  0.37132400  0.37132400  0.98575400  1
  P  P21  1  0.56526000  0.56526000  0.03802800  1
loop_
_geom_bond_atom_site_label_1
_geom_bond_atom_site_label_2
_geom_bond_distance
_geom_bond_site_symmetry_2
P0 P20 2.262307 1_554
P0 P21 2.422749 1_545
P0 P21 2.422749 1_455
P0 P21 2.422774 1_555
P1 P21 2.244468 1_555
P1 P2 2.422749 1_545
P1 P2 2.422749 1_455
P1 P2 2.422774 1_555
P2 P3 2.262307 1_555
P3 P5 2.472339 1_545
P3 P5 2.472340 1_455
P3 P5 2.472357 1_555
P4 P6 2.433998 1_545
P4 P6 2.433998 1_455
P4 P6 2.434013 1_555
P4 Rb0 3.661691 1_555
P4 Rb0 3.661703 1_565
P4 Rb0 3.661704 1_655
P5 Rb0 3.705653 1_655
P5 Rb0 3.705654 1_565
P5 Rb0 3.705658 1_665
P6 P7 2.219155 1_555
P7 P8 2.504743 1_545
P7 P8 2.504744 1_455
P7 P8 2.504751 1_555
P7 Rb1 3.419584 1_445
P7 Rb1 3.419595 1_545
P7 Rb1 3.419595 1_455
P9 Rb1 3.280668 1_455
P9 Rb1 3.280668 1_545
P9 Rb1 3.280670 1_555
P10 P9 2.160044 1_555
P10 P11 2.614152 1_545
P10 P11 2.614152 1_455
P10 P11 2.614159 1_555
P10 Rb2 3.196112 1_545
P10 Rb2 3.196112 1_455
P10 Rb2 3.196117 1_445
P11 P9 2.686635 1_565
P11 P9 2.686636 1_655
P11 P9 2.686652 1_555
P11 Rb1 3.385091 1_555
P12 P13 2.614152 1_545
P12 P13 2.614152 1_455
P12 P13 2.614159 1_555
P12 P14 2.686635 1_545
P12 P14 2.686636 1_455
P12 P14 2.686652 1_555
P12 Rb4 3.385091 1_555
P13 P14 2.160044 1_555
P13 Rb3 3.196112 1_565
P13 Rb3 3.196112 1_655
P13 Rb3 3.196117 1_665
P14 Rb4 3.280665 1_655
P14 Rb4 3.280665 1_565
P14 Rb4 3.280676 1_555
P15 P16 2.504743 1_545
P15 P16 2.504744 1_455
P15 P16 2.504751 1_555
P16 P17 2.219155 1_555
P16 Rb4 3.419579 1_665
P16 Rb4 3.419597 1_565
P16 Rb4 3.419597 1_655
P17 P19 2.433998 1_545
P17 P19 2.433998 1_455
P17 P19 2.434013 1_555
P18 P20 2.472339 1_545
P18 P20 2.472340 1_455
P18 P20 2.472357 1_555
P18 Rb5 3.705653 1_455
P18 Rb5 3.705654 1_545
P18 Rb5 3.705658 1_445
P19 Rb5 3.661691 1_555
P19 Rb5 3.661703 1_545
P19 Rb5 3.661704 1_455
