# generated using pymatgen
data_Rb2Pt3S4
_symmetry_space_group_name_H-M   'P 1'
_cell_length_a   8.64424695
_cell_length_b   7.41475998
_cell_length_c   6.39664879
_cell_angle_alpha   77.10282454
_cell_angle_beta   56.73353669
_cell_angle_gamma   46.16363877
_symmetry_Int_Tables_number   1
_chemical_formula_structural   Rb2Pt3S4
_chemical_formula_sum   'Rb2 Pt3 S4'
_cell_volume   238.78059402
_cell_formula_units_Z   1
loop_
 _symmetry_equiv_pos_site_id
 _symmetry_equiv_pos_as_xyz
  1  'x, y, z'
loop_
 _atom_site_type_symbol
 _atom_site_label
 _atom_site_symmetry_multiplicity
 _atom_site_fract_x
 _atom_site_fract_y
 _atom_site_fract_z
 _atom_site_occupancy
  Rb  Rb0  1  0.35371700  0.34872900  0.64240100  1
  Rb  Rb1  1  0.65756500  0.64345800  0.34165700  1
  Pt  Pt0  1  0.50322100  0.50425200  0.99596600  1
  Pt  Pt1  1  0.99102200  0.00745900  0.50212000  1
  Pt  Pt2  1  0.99132300  0.00316700  0.00449000  1
  S  S0  1  0.72289300  0.05380300  0.93493900  1
  S  S1  1  0.27193500  0.94305200  0.06206000  1
  S  S2  1  0.95147300  0.27222000  0.71294800  1
  S  S3  1  0.05223100  0.72812300  0.28614600  1
loop_
_geom_bond_atom_site_label_1
_geom_bond_atom_site_label_2
_geom_bond_distance
_geom_bond_site_symmetry_2
Rb0 S3 3.660176 1_555
Rb0 S2 3.675916 1_455
Rb0 S0 3.677713 1_555
Rb0 S3 3.731563 1_645
Rb0 S1 3.743391 1_546
Rb0 S0 3.775129 1_465
Rb0 S0 3.788498 1_554
Rb0 S3 3.860621 1_556
Rb1 S0 3.685038 1_564
Rb1 S2 3.699527 1_555
Rb1 S3 3.700988 1_655
Rb1 S1 3.708773 1_555
Rb1 S1 3.727611 1_645
Rb1 S2 3.774990 1_554
Rb1 S2 3.775288 1_465
Rb1 S1 3.839514 1_556
Pt0 S1 2.331943 1_556
Pt0 S2 2.389938 1_555
Pt0 S3 2.423154 1_556
Pt0 S0 2.428394 1_555
Pt0 Rb1 3.728032 1_556
Pt0 Rb0 3.764501 1_556
Pt0 Rb1 3.770394 1_555
Pt0 Rb0 3.814454 1_555
Pt1 S3 2.331486 1_645
Pt1 S0 2.331706 1_555
Pt1 S2 2.352844 1_555
Pt1 S1 2.354398 1_645
Pt1 Rb0 3.719942 1_555
Pt1 Rb1 3.722451 1_555
Pt1 Rb0 3.795934 1_645
Pt1 Rb1 3.839718 1_645
Pt2 S0 2.360978 1_554
Pt2 S3 2.365449 1_645
Pt2 S1 2.372174 1_645
Pt2 S2 2.380840 1_554
Pt2 Rb0 3.745072 1_555
Pt2 Rb1 3.779689 1_555
Pt2 Rb0 3.837370 1_644
Pt2 Rb1 3.903922 1_644
