# generated using pymatgen
data_Fe2Te3
_symmetry_space_group_name_H-M   'P 1'
_cell_length_a   6.23519526
_cell_length_b   6.23519526
_cell_length_c   6.23519558
_cell_angle_alpha   62.19033756
_cell_angle_beta   62.19033756
_cell_angle_gamma   62.19033829
_symmetry_Int_Tables_number   1
_chemical_formula_structural   Fe2Te3
_chemical_formula_sum   'Fe4 Te6'
_cell_volume   179.79575897
_cell_formula_units_Z   2
loop_
 _symmetry_equiv_pos_site_id
 _symmetry_equiv_pos_as_xyz
  1  'x, y, z'
loop_
 _atom_site_type_symbol
 _atom_site_label
 _atom_site_symmetry_multiplicity
 _atom_site_fract_x
 _atom_site_fract_y
 _atom_site_fract_z
 _atom_site_occupancy
  Fe  Fe0  1  0.84183900  0.84183900  0.84183900  1
  Fe  Fe1  1  0.15816100  0.15816100  0.15816100  1
  Fe  Fe2  1  0.65816100  0.65816100  0.65816100  1
  Fe  Fe3  1  0.34183900  0.34183900  0.34183900  1
  Te  Te0  1  0.75000000  0.08231800  0.41768200  1
  Te  Te1  1  0.58231800  0.25000000  0.91768200  1
  Te  Te2  1  0.41768200  0.75000000  0.08231800  1
  Te  Te3  1  0.25000000  0.91768200  0.58231800  1
  Te  Te4  1  0.08231800  0.41768200  0.75000000  1
  Te  Te5  1  0.91768200  0.58231800  0.25000000  1
loop_
_geom_bond_atom_site_label_1
_geom_bond_atom_site_label_2
_geom_bond_distance
_geom_bond_site_symmetry_2
Fe0 Te3 2.425969 1_655
Fe0 Te1 2.425969 1_565
Fe0 Te5 2.425969 1_556
Fe0 Te2 2.546063 1_556
Fe0 Te4 2.546063 1_655
Fe0 Te0 2.546063 1_565
Fe1 Te0 2.425969 1_455
Fe1 Te2 2.425969 1_545
Fe1 Te4 2.425969 1_554
Fe1 Te1 2.546063 1_554
Fe1 Te5 2.546063 1_455
Fe1 Te3 2.546063 1_545
Fe2 Te1 2.425969 1_555
Fe2 Te3 2.425969 1_555
Fe2 Te5 2.425969 1_555
Fe2 Te0 2.546063 1_565
Fe2 Te4 2.546063 1_655
Fe2 Te2 2.546063 1_556
Fe3 Te2 2.425969 1_555
Fe3 Te0 2.425969 1_555
Fe3 Te4 2.425969 1_555
Fe3 Te3 2.546063 1_545
Fe3 Te5 2.546063 1_455
Fe3 Te1 2.546063 1_554
