# generated using pymatgen
data_Sr2GaSbO6
_symmetry_space_group_name_H-M   'P 1'
_cell_length_a   5.66360335
_cell_length_b   5.66360335
_cell_length_c   5.66360335
_cell_angle_alpha   120.80457974
_cell_angle_beta   120.80457974
_cell_angle_gamma   88.61198614
_symmetry_Int_Tables_number   1
_chemical_formula_structural   Sr2GaSbO6
_chemical_formula_sum   'Sr2 Ga1 Sb1 O6'
_cell_volume   126.85609036
_cell_formula_units_Z   1
loop_
 _symmetry_equiv_pos_site_id
 _symmetry_equiv_pos_as_xyz
  1  'x, y, z'
loop_
 _atom_site_type_symbol
 _atom_site_label
 _atom_site_symmetry_multiplicity
 _atom_site_fract_x
 _atom_site_fract_y
 _atom_site_fract_z
 _atom_site_occupancy
  Sr  Sr0  1  0.75000000  0.25000000  0.50000000  1
  Sr  Sr1  1  0.25000000  0.75000000  0.50000000  1
  Ga  Ga0  1  0.00000000  0.00000000  0.00000000  1
  Sb  Sb0  1  0.50000000  0.50000000  0.00000000  1
  O  O0  1  0.79194800  0.70861300  0.50056100  1
  O  O1  1  0.29138700  0.79194800  0.08333500  1
  O  O2  1  0.70861300  0.20805200  0.91666500  1
  O  O3  1  0.20805200  0.29138700  0.49943900  1
  O  O4  1  0.74790800  0.74790800  0.00000000  1
  O  O5  1  0.25209200  0.25209200  0.00000000  1
loop_
_geom_bond_atom_site_label_1
_geom_bond_atom_site_label_2
_geom_bond_distance
_geom_bond_site_symmetry_2
Ga0 O3 2.003081 1_555
Ga0 O1 2.003081 1_545
Ga0 O0 2.003081 1_444
Ga0 O2 2.003081 1_454
Ga0 O4 2.043451 1_445
Ga0 O5 2.043451 1_555
O0 Sb0 2.007460 1_555
O0 Sr0 2.612206 1_555
O0 Sr1 2.612206 1_655
O0 Sr1 3.071149 1_555
O0 Sr0 3.071149 1_565
O1 Sb0 2.007460 1_555
O1 Sr1 2.612206 1_555
O1 Sr0 2.612206 1_565
O1 Sr0 3.071149 1_454
O1 Sr1 3.071149 1_554
O2 Sb0 2.007460 1_556
O2 Sr0 2.612206 1_555
O2 Sr1 2.612206 1_545
O2 Sr1 3.071149 1_656
O2 Sr0 3.071149 1_556
O3 Sb0 2.007460 1_556
O3 Sr1 2.612206 1_555
O3 Sr0 2.612206 1_455
O3 Sr0 3.071149 1_555
O3 Sr1 3.071149 1_545
O4 Sb0 2.009535 1_555
O4 Sr0 2.797345 1_554
O4 Sr1 2.797345 1_554
O4 Sr1 2.797345 1_655
O4 Sr0 2.797345 1_565
O5 Sb0 2.009535 1_555
O5 Sr1 2.797345 1_544
O5 Sr0 2.797345 1_555
O5 Sr0 2.797345 1_454
O5 Sr1 2.797345 1_555
