# generated using pymatgen
data_U5O11
_symmetry_space_group_name_H-M   'P 1'
_cell_length_a   3.83358264
_cell_length_b   3.83358264
_cell_length_c   15.72824411
_cell_angle_alpha   82.98695633
_cell_angle_beta   82.98695633
_cell_angle_gamma   60.37407860
_symmetry_Int_Tables_number   1
_chemical_formula_structural   U5O11
_chemical_formula_sum   'U5 O11'
_cell_volume   198.91567986
_cell_formula_units_Z   1
loop_
 _symmetry_equiv_pos_site_id
 _symmetry_equiv_pos_as_xyz
  1  'x, y, z'
loop_
 _atom_site_type_symbol
 _atom_site_label
 _atom_site_symmetry_multiplicity
 _atom_site_fract_x
 _atom_site_fract_y
 _atom_site_fract_z
 _atom_site_occupancy
  U  U0  1  0.29740300  0.29740300  0.58968900  1
  U  U1  1  0.89558300  0.89558300  0.79874900  1
  U  U2  1  0.50000000  0.50000000  0.00000000  1
  U  U3  1  0.10441700  0.10441700  0.20125100  1
  U  U4  1  0.70259700  0.70259700  0.41031100  1
  O  O0  1  0.93803100  0.93803100  0.66357700  1
  O  O1  1  0.24237800  0.24237800  0.75568400  1
  O  O2  1  0.54518300  0.54518300  0.85173500  1
  O  O3  1  0.84883900  0.84883900  0.95093000  1
  O  O4  1  0.75762200  0.75762200  0.24431600  1
  O  O5  1  0.15116100  0.15116100  0.04907000  1
  O  O6  1  0.45481700  0.45481700  0.14826500  1
  O  O7  1  0.35728200  0.35728200  0.43286800  1
  O  O8  1  0.06196900  0.06196900  0.33642300  1
  O  O9  1  0.00000000  0.00000000  0.50000000  1
  O  O10  1  0.64271800  0.64271800  0.56713200  1
loop_
_geom_bond_atom_site_label_1
_geom_bond_atom_site_label_2
_geom_bond_distance
_geom_bond_site_symmetry_2
O0 U1 2.104788 1_555
O0 U0 2.498171 1_655
O0 U0 2.498171 1_565
O0 U0 2.498228 1_665
O1 U1 2.302482 1_445
O1 U1 2.323731 1_455
O1 U1 2.323731 1_545
O1 U0 2.584637 1_555
O2 U2 2.308762 1_556
O2 U1 2.353850 1_555
O2 U1 2.372055 1_545
O2 U1 2.372055 1_455
O3 U2 2.331623 1_556
O3 U2 2.352319 1_656
O3 U2 2.352319 1_566
O3 U1 2.369711 1_555
O4 U3 2.302482 1_665
O4 U3 2.323731 1_655
O4 U3 2.323731 1_565
O4 U4 2.584637 1_555
O5 U2 2.331623 1_555
O5 U2 2.352319 1_455
O5 U2 2.352319 1_545
O5 U3 2.369711 1_555
O6 U2 2.308762 1_555
O6 U3 2.353850 1_555
O6 U3 2.372055 1_565
O6 U3 2.372055 1_655
O7 U4 2.235014 1_545
O7 U4 2.235014 1_455
O7 U4 2.265818 1_555
O7 U0 2.442270 1_555
O8 U3 2.104788 1_555
O8 U4 2.498171 1_455
O8 U4 2.498171 1_545
O8 U4 2.498228 1_445
O9 U0 2.580754 1_555
O9 U4 2.580754 1_445
O9 U4 2.640719 1_545
O9 U4 2.640719 1_455
O9 U0 2.640719 1_545
O9 U0 2.640719 1_455
O10 U0 2.235014 1_655
O10 U0 2.235014 1_565
O10 U0 2.265818 1_555
O10 U4 2.442270 1_555
