# generated using pymatgen
data_Ta14(CuS8)3
_symmetry_space_group_name_H-M   'P 1'
_cell_length_a   6.66841456
_cell_length_b   8.80076852
_cell_length_c   12.97376360
_cell_angle_alpha   92.27565029
_cell_angle_beta   98.01424200
_cell_angle_gamma   101.34467718
_symmetry_Int_Tables_number   1
_chemical_formula_structural   Ta14(CuS8)3
_chemical_formula_sum   'Ta14 Cu3 S24'
_cell_volume   737.45689653
_cell_formula_units_Z   1
loop_
 _symmetry_equiv_pos_site_id
 _symmetry_equiv_pos_as_xyz
  1  'x, y, z'
loop_
 _atom_site_type_symbol
 _atom_site_label
 _atom_site_symmetry_multiplicity
 _atom_site_fract_x
 _atom_site_fract_y
 _atom_site_fract_z
 _atom_site_occupancy
  Ta  Ta0  1  0.05872635  0.02231338  0.24362760  1
  Ta  Ta1  1  0.40742791  0.36270317  0.24582652  1
  Ta  Ta2  1  0.56927207  0.02811946  0.24234000  1
  Ta  Ta3  1  0.85513760  0.35298647  0.00066872  1
  Ta  Ta4  1  0.89769976  0.36297747  0.24935246  1
  Ta  Ta5  1  0.72722840  0.70007452  0.24739766  1
  Ta  Ta6  1  0.76606798  0.30551997  0.75040868  1
  Ta  Ta7  1  0.23226526  0.69346963  0.24994031  1
  Ta  Ta8  1  0.27352368  0.30101571  0.75247166  1
  Ta  Ta9  1  0.09934638  0.63708839  0.75107614  1
  Ta  Ta10  1  0.14530826  0.64710666  0.00009117  1
  Ta  Ta11  1  0.43369721  0.97344327  0.75758648  1
  Ta  Ta12  1  0.59535358  0.63654025  0.75418367  1
  Ta  Ta13  1  0.93825656  0.97611002  0.75640323  1
  Cu  Cu0  1  0.79536407  0.71862153  0.46322172  1
  Cu  Cu1  1  0.20330368  0.28520443  0.53538823  1
  Cu  Cu2  1  0.37570594  0.94628917  0.53698522  1
  S  S0  1  0.17028164  0.06487407  0.62946821  1
  S  S1  1  0.25110974  0.09685604  0.87694523  1
  S  S2  1  0.51599204  0.40691811  0.62887915  1
  S  S3  1  0.68184853  0.07093055  0.63273625  1
  S  S4  1  0.58341787  0.42914790  0.87653760  1
  S  S5  1  0.75157698  0.10124696  0.87933927  1
  S  S6  1  0.59079308  0.24052915  0.11956077  1
  S  S7  1  0.65740158  0.26095195  0.36745578  1
  S  S8  1  0.84103950  0.73943158  0.63439731  1
  S  S9  1  0.00557489  0.40490222  0.62932386  1
  S  S10  1  0.91157611  0.76041560  0.87578894  1
  S  S11  1  0.09096128  0.42296418  0.87440368  1
  S  S12  1  0.90859802  0.57711722  0.12557378  1
  S  S13  1  0.08828644  0.24042462  0.12493881  1
  S  S14  1  0.99312327  0.59529417  0.37130625  1
  S  S15  1  0.15840513  0.26039884  0.36483282  1
  S  S16  1  0.34098316  0.73246797  0.63188037  1
  S  S17  1  0.40910120  0.75960823  0.87919574  1
  S  S18  1  0.24837273  0.89842637  0.12174155  1
  S  S19  1  0.41604266  0.57094805  0.12391663  1
  S  S20  1  0.32497419  0.93186248  0.36556489  1
  S  S21  1  0.48408082  0.59232555  0.37097365  1
  S  S22  1  0.74868286  0.90270880  0.12182927  1
  S  S23  1  0.82442661  0.93780087  0.36963972  1
loop_
_geom_bond_atom_site_label_1
_geom_bond_atom_site_label_2
_geom_bond_distance
_geom_bond_site_symmetry_2
Cu0 S8 2.194396 1_555
Cu0 S14 2.288662 1_555
Cu0 S21 2.295761 1_555
Cu0 S23 2.310190 1_555
Cu1 S15 2.187404 1_555
Cu1 S9 2.286057 1_555
Cu1 S2 2.297669 1_555
Cu1 S0 2.322330 1_555
Cu2 S20 2.197154 1_555
Cu2 S16 2.280904 1_555
Cu2 S3 2.284238 1_565
Cu2 S0 2.307951 1_565
S0 Ta13 2.460360 1_445
S0 Ta8 2.491389 1_555
S0 Ta11 2.518728 1_545
S1 Ta11 2.443878 1_545
S1 Ta13 2.452229 1_445
S1 Ta8 2.459805 1_555
S2 Ta6 2.455054 1_555
S2 Ta12 2.466815 1_555
S2 Ta8 2.510533 1_555
S3 Ta6 2.441920 1_555
S3 Ta13 2.469178 1_545
S3 Ta11 2.529281 1_545
S4 Ta12 2.462866 1_555
S4 Ta3 2.464917 1_556
S4 Ta8 2.478800 1_555
S4 Ta6 2.506131 1_555
S5 Ta11 2.498164 1_545
S5 Ta6 2.500957 1_555
S5 Ta13 2.501975 1_545
S5 Ta3 2.584792 1_556
S6 Ta4 2.492499 1_555
S6 Ta2 2.499433 1_555
S6 Ta1 2.504125 1_555
S6 Ta3 2.580525 1_555
S7 Ta4 2.439168 1_555
S7 Ta1 2.456955 1_555
S7 Ta2 2.484984 1_555
S8 Ta9 2.461976 1_655
S8 Ta12 2.481396 1_555
S8 Ta13 2.487014 1_555
S9 Ta9 2.455037 1_555
S9 Ta6 2.458204 1_455
S9 Ta8 2.558096 1_555
S10 Ta10 2.462264 1_656
S10 Ta12 2.481037 1_555
S10 Ta13 2.492309 1_555
S10 Ta9 2.514735 1_655
S11 Ta3 2.439906 1_456
S11 Ta10 2.445423 1_556
S11 Ta8 2.460197 1_555
S11 Ta9 2.517403 1_555
S11 Ta6 2.522924 1_455
S12 Ta10 2.436185 1_655
S12 Ta3 2.439741 1_555
S12 Ta5 2.458426 1_555
S12 Ta7 2.517664 1_655
S12 Ta4 2.520875 1_555
S13 Ta3 2.455957 1_455
S13 Ta1 2.486205 1_555
S13 Ta0 2.503024 1_555
S13 Ta4 2.521290 1_455
S14 Ta7 2.456622 1_655
S14 Ta4 2.457445 1_555
S14 Ta5 2.558258 1_555
S15 Ta4 2.465886 1_455
S15 Ta1 2.487789 1_555
S15 Ta0 2.490766 1_555
S16 Ta9 2.440939 1_555
S16 Ta12 2.454995 1_555
S16 Ta11 2.543226 1_555
S17 Ta9 2.493232 1_555
S17 Ta11 2.498848 1_555
S17 Ta12 2.509498 1_555
S17 Ta10 2.596576 1_556
S18 Ta7 2.498658 1_555
S18 Ta0 2.500363 1_565
S18 Ta2 2.508709 1_565
S18 Ta10 2.584110 1_555
S19 Ta10 2.458097 1_555
S19 Ta1 2.465321 1_555
S19 Ta5 2.482879 1_555
S19 Ta7 2.505269 1_555
S20 Ta7 2.452634 1_555
S20 Ta0 2.482224 1_565
S20 Ta2 2.493625 1_565
S21 Ta7 2.457975 1_555
S21 Ta1 2.466359 1_555
S21 Ta5 2.517790 1_555
S22 Ta0 2.445458 1_665
S22 Ta2 2.449083 1_565
S22 Ta5 2.459683 1_555
S23 Ta0 2.453299 1_665
S23 Ta2 2.471288 1_565
S23 Ta5 2.495771 1_555
