# generated using pymatgen
data_Na3(VSe2)5
_symmetry_space_group_name_H-M   'P 1'
_cell_length_a   38.01660923
_cell_length_b   22.29953114
_cell_length_c   14.77093128
_cell_angle_alpha   12.26883683
_cell_angle_beta   13.58720663
_cell_angle_gamma   9.06245488
_symmetry_Int_Tables_number   1
_chemical_formula_structural   Na3(VSe2)5
_chemical_formula_sum   'Na3 V5 Se10'
_cell_volume   409.72361770
_cell_formula_units_Z   1
loop_
 _symmetry_equiv_pos_site_id
 _symmetry_equiv_pos_as_xyz
  1  'x, y, z'
loop_
 _atom_site_type_symbol
 _atom_site_label
 _atom_site_symmetry_multiplicity
 _atom_site_fract_x
 _atom_site_fract_y
 _atom_site_fract_z
 _atom_site_occupancy
  Na  Na0  1  0.34601600  0.14104600  0.16846600  1
  Na  Na1  1  0.57575300  0.12097500  0.12975800  1
  Na  Na2  1  0.73681500  0.17836300  0.14278800  1
  V  V0  1  0.02940600  0.94032300  0.01547100  1
  V  V1  1  0.19392500  0.03688700  0.96326700  1
  V  V2  1  0.36353800  0.04142500  0.02885400  1
  V  V3  1  0.56576700  0.01285100  0.06520800  1
  V  V4  1  0.83008600  0.98857100  0.94125900  1
  Se  Se0  1  0.02880500  0.40259000  0.42920700  1
  Se  Se1  1  0.23457700  0.40006200  0.42578800  1
  Se  Se2  1  0.16257000  0.61432000  0.56639900  1
  Se  Se3  1  0.44651500  0.38827700  0.39430000  1
  Se  Se4  1  0.35510200  0.60623600  0.59582900  1
  Se  Se5  1  0.63887100  0.38479000  0.41587200  1
  Se  Se6  1  0.55486000  0.59919300  0.61082600  1
  Se  Se7  1  0.84039500  0.40670000  0.39209100  1
  Se  Se8  1  0.75510500  0.61254500  0.60493900  1
  Se  Se9  1  0.94185400  0.62494700  0.60977700  1
loop_
_geom_bond_atom_site_label_1
_geom_bond_atom_site_label_2
_geom_bond_distance
_geom_bond_site_symmetry_2
Na0 Se6 2.968551 1_545
Na0 Se0 2.995494 1_555
Na0 Se4 3.031843 1_554
Na0 Se3 3.035631 1_554
Na0 Se5 3.088120 1_545
Na0 Se9 3.211440 1_455
Na1 Se6 2.909445 1_554
Na1 Se7 2.933778 1_545
Na1 Se5 3.002549 1_554
Na1 Se8 3.022172 1_545
Na1 Se1 3.095734 1_555
Na1 Se2 3.127672 1_555
Na2 Se7 2.959995 1_554
Na2 Se9 2.968413 1_545
Na2 Se4 2.990011 1_555
Na2 Se0 3.063086 1_645
Na2 Se8 3.094083 1_554
Na2 Se3 3.124229 1_555
Se0 V2 2.477468 1_555
Se0 V4 2.567421 1_454
Se0 V0 2.591444 1_546
Se1 V1 2.493638 1_555
Se1 V3 2.498788 1_555
Se1 V0 2.514471 1_555
Se2 V4 2.446350 1_455
Se2 V2 2.525307 1_556
Se2 V1 2.657020 1_564
Se3 V1 2.553182 1_564
Se3 V2 2.579941 1_556
Se3 V4 2.651200 1_544
Se4 V0 2.468569 1_556
Se4 V2 2.551278 1_565
Se4 V3 2.579028 1_556
Se5 V2 2.583779 1_565
Se5 V3 2.597372 1_556
Se5 V0 2.620936 1_645
Se6 V3 2.445994 1_565
Se6 V1 2.563256 1_565
Se6 V4 2.591908 1_545
Se7 V4 2.472889 1_545
Se7 V1 2.539188 1_654
Se7 V3 2.598436 1_565
Se8 V0 2.601979 1_646
Se8 V4 2.602760 1_554
Se8 V2 2.630330 1_566
Se9 V1 2.514553 1_655
Se9 V0 2.525075 1_655
Se9 V3 2.641758 1_566
