# generated using pymatgen
data_BaDy2ZnO5
_symmetry_space_group_name_H-M   'P 1'
_cell_length_a   5.76047000
_cell_length_b   7.14998800
_cell_length_c   12.44543800
_cell_angle_alpha   90.00000000
_cell_angle_beta   90.00000000
_cell_angle_gamma   90.00000000
_symmetry_Int_Tables_number   1
_chemical_formula_structural   BaDy2ZnO5
_chemical_formula_sum   'Ba4 Dy8 Zn4 O20'
_cell_volume   512.59388119
_cell_formula_units_Z   4
loop_
 _symmetry_equiv_pos_site_id
 _symmetry_equiv_pos_as_xyz
  1  'x, y, z'
loop_
 _atom_site_type_symbol
 _atom_site_label
 _atom_site_symmetry_multiplicity
 _atom_site_fract_x
 _atom_site_fract_y
 _atom_site_fract_z
 _atom_site_occupancy
  Ba  Ba0  1  0.75000000  0.07711700  0.10154700  1
  Ba  Ba1  1  0.75000000  0.42288300  0.60154700  1
  Ba  Ba2  1  0.25000000  0.57711700  0.39845300  1
  Ba  Ba3  1  0.25000000  0.92288300  0.89845300  1
  Dy  Dy0  1  0.25000000  0.39968700  0.07443600  1
  Dy  Dy1  1  0.75000000  0.61832300  0.20804200  1
  Dy  Dy2  1  0.75000000  0.88167700  0.70804200  1
  Dy  Dy3  1  0.25000000  0.11832300  0.29195800  1
  Dy  Dy4  1  0.75000000  0.60031300  0.92556400  1
  Dy  Dy5  1  0.75000000  0.89968700  0.42556400  1
  Dy  Dy6  1  0.25000000  0.10031300  0.57443600  1
  Dy  Dy7  1  0.25000000  0.38167700  0.79195800  1
  Zn  Zn0  1  0.25000000  0.80842700  0.14987600  1
  Zn  Zn1  1  0.75000000  0.19157300  0.85012400  1
  Zn  Zn2  1  0.75000000  0.30842700  0.35012400  1
  Zn  Zn3  1  0.25000000  0.69157300  0.64987600  1
  O  O0  1  0.25000000  0.42493000  0.60031300  1
  O  O1  1  0.75000000  0.57507000  0.39968700  1
  O  O2  1  0.75000000  0.92493000  0.89968700  1
  O  O3  1  0.25000000  0.07507000  0.10031300  1
  O  O4  1  0.00042200  0.85801700  0.27532900  1
  O  O5  1  0.50042200  0.14198300  0.72467100  1
  O  O6  1  0.99957800  0.35801700  0.22467100  1
  O  O7  1  0.49957800  0.64198300  0.77532900  1
  O  O8  1  0.99957800  0.14198300  0.72467100  1
  O  O9  1  0.49957800  0.85801700  0.27532900  1
  O  O10  1  0.00042200  0.64198300  0.77532900  1
  O  O11  1  0.50042200  0.35801700  0.22467100  1
  O  O12  1  0.49842000  0.66294400  0.06614800  1
  O  O13  1  0.99842000  0.33705600  0.93385200  1
  O  O14  1  0.50158000  0.16294400  0.43385200  1
  O  O15  1  0.00158000  0.83705600  0.56614800  1
  O  O16  1  0.99842000  0.16294400  0.43385200  1
  O  O17  1  0.49842000  0.83705600  0.56614800  1
  O  O18  1  0.00158000  0.66294400  0.06614800  1
  O  O19  1  0.50158000  0.33705600  0.93385200  1
loop_
_geom_bond_atom_site_label_1
_geom_bond_atom_site_label_2
_geom_bond_distance
_geom_bond_site_symmetry_2
Ba0 O2 2.737767 1_544
Ba0 O3 2.880313 1_655
Ba0 O3 2.880313 1_555
Ba0 O6 2.906679 1_555
Ba0 O11 2.906679 1_555
Ba0 O4 3.035249 1_645
Ba0 O9 3.035249 1_545
Ba0 O19 3.139710 1_554
Ba0 O13 3.139710 1_554
Ba0 O18 3.326231 1_645
Ba0 O12 3.326231 1_545
Ba1 O1 2.737767 1_555
Ba1 O0 2.880313 1_555
Ba1 O0 2.880313 1_655
Ba1 O8 2.906679 1_555
Ba1 O5 2.906679 1_555
Ba1 O10 3.035249 1_655
Ba1 O7 3.035249 1_555
Ba1 O14 3.139710 1_555
Ba1 O16 3.139710 1_555
Ba1 O15 3.326231 1_655
Ba1 O17 3.326231 1_555
Ba2 O0 2.737767 1_555
Ba2 O1 2.880313 1_455
Ba2 O1 2.880313 1_555
Ba2 O9 2.906679 1_555
Ba2 O4 2.906679 1_555
Ba2 O11 3.035249 1_555
Ba2 O6 3.035249 1_455
Ba2 O15 3.139710 1_555
Ba2 O17 3.139710 1_555
Ba2 O14 3.326231 1_555
Ba2 O16 3.326231 1_455
Ba3 O3 2.737767 1_566
Ba3 O2 2.880313 1_555
Ba3 O2 2.880313 1_455
Ba3 O7 2.906679 1_555
Ba3 O10 2.906679 1_555
Ba3 O5 3.035249 1_565
Ba3 O8 3.035249 1_465
Ba3 O18 3.139710 1_556
Ba3 O12 3.139710 1_556
Ba3 O19 3.326231 1_565
Ba3 O13 3.326231 1_465
Dy0 O13 2.315594 1_454
Dy0 O19 2.315594 1_554
Dy0 O3 2.343244 1_555
Dy0 O18 2.366736 1_555
Dy0 O12 2.366736 1_555
Dy0 O11 2.380261 1_555
Dy0 O6 2.380261 1_455
Dy1 O18 2.306630 1_655
Dy1 O12 2.306630 1_555
Dy1 O6 2.360886 1_555
Dy1 O11 2.360886 1_555
Dy1 O4 2.391517 1_655
Dy1 O9 2.391517 1_555
Dy1 O1 2.405072 1_555
Dy2 O15 2.306630 1_655
Dy2 O17 2.306630 1_555
Dy2 O8 2.360886 1_565
Dy2 O5 2.360886 1_565
Dy2 O10 2.391517 1_655
Dy2 O7 2.391517 1_555
Dy2 O2 2.405072 1_555
Dy3 O16 2.306630 1_455
Dy3 O14 2.306630 1_555
Dy3 O9 2.360886 1_545
Dy3 O4 2.360886 1_545
Dy3 O11 2.391517 1_555
Dy3 O6 2.391517 1_455
Dy3 O3 2.405072 1_555
Dy4 O18 2.315594 1_656
Dy4 O12 2.315594 1_556
Dy4 O2 2.343244 1_555
Dy4 O19 2.366736 1_555
Dy4 O13 2.366736 1_555
Dy4 O10 2.380261 1_655
Dy4 O7 2.380261 1_555
Dy5 O15 2.315594 1_655
Dy5 O17 2.315594 1_555
Dy5 O1 2.343244 1_555
Dy5 O14 2.366736 1_565
Dy5 O16 2.366736 1_565
Dy5 O4 2.380261 1_655
Dy5 O9 2.380261 1_555
Dy6 O14 2.315594 1_555
Dy6 O16 2.315594 1_455
Dy6 O0 2.343244 1_555
Dy6 O15 2.366736 1_545
Dy6 O17 2.366736 1_545
Dy6 O5 2.380261 1_555
Dy6 O8 2.380261 1_455
Dy7 O13 2.306630 1_455
Dy7 O19 2.306630 1_555
Dy7 O7 2.360886 1_555
Dy7 O10 2.360886 1_555
Dy7 O5 2.391517 1_555
Dy7 O8 2.391517 1_455
Dy7 O0 2.405072 1_555
O0 Zn3 2.003797 1_555
O1 Zn2 2.003797 1_555
O2 Zn1 2.003797 1_565
O3 Zn0 2.003797 1_545
O4 Zn0 2.151830 1_555
O5 Zn1 2.151830 1_555
O6 Zn2 2.151830 1_555
O7 Zn3 2.151830 1_555
O8 Zn1 2.151830 1_555
O9 Zn0 2.151830 1_555
O10 Zn3 2.151830 1_555
O11 Zn2 2.151830 1_555
O12 Zn0 2.053206 1_555
O13 Zn1 2.053206 1_555
O14 Zn2 2.053206 1_555
O15 Zn3 2.053206 1_555
O16 Zn2 2.053206 1_555
O17 Zn3 2.053206 1_555
O18 Zn0 2.053206 1_555
O19 Zn1 2.053206 1_555
