# generated using pymatgen
data_Ba2TbSbO6
_symmetry_space_group_name_H-M   'P 1'
_cell_length_a   6.04208461
_cell_length_b   6.04208461
_cell_length_c   6.04208461
_cell_angle_alpha   60.00000000
_cell_angle_beta   60.00000000
_cell_angle_gamma   60.00000000
_symmetry_Int_Tables_number   1
_chemical_formula_structural   Ba2TbSbO6
_chemical_formula_sum   'Ba2 Tb1 Sb1 O6'
_cell_volume   155.97155784
_cell_formula_units_Z   1
loop_
 _symmetry_equiv_pos_site_id
 _symmetry_equiv_pos_as_xyz
  1  'x, y, z'
loop_
 _atom_site_type_symbol
 _atom_site_label
 _atom_site_symmetry_multiplicity
 _atom_site_fract_x
 _atom_site_fract_y
 _atom_site_fract_z
 _atom_site_occupancy
  Ba  Ba0  1  0.75000000  0.75000000  0.75000000  1
  Ba  Ba1  1  0.25000000  0.25000000  0.25000000  1
  Tb  Tb0  1  0.00000000  0.00000000  0.00000000  1
  Sb  Sb0  1  0.50000000  0.50000000  0.50000000  1
  O  O0  1  0.73623300  0.26376700  0.73623300  1
  O  O1  1  0.26376700  0.26376700  0.73623300  1
  O  O2  1  0.73623300  0.73623300  0.26376700  1
  O  O3  1  0.73623300  0.26376700  0.26376700  1
  O  O4  1  0.26376700  0.73623300  0.26376700  1
  O  O5  1  0.26376700  0.73623300  0.73623300  1
loop_
_geom_bond_atom_site_label_1
_geom_bond_atom_site_label_2
_geom_bond_distance
_geom_bond_site_symmetry_2
Ba0 O0 3.023332 1_565
Ba0 O5 3.023332 1_655
Ba0 O2 3.023332 1_556
Ba0 O3 3.023332 1_565
Ba0 O4 3.023332 1_655
Ba0 O1 3.023332 1_565
Ba0 O1 3.023332 1_655
Ba0 O3 3.023332 1_556
Ba0 O4 3.023332 1_556
Ba0 O0 3.023332 1_555
Ba0 O2 3.023332 1_555
Ba0 O5 3.023332 1_555
Ba1 O3 3.023332 1_555
Ba1 O4 3.023332 1_555
Ba1 O1 3.023332 1_555
Ba1 O0 3.023332 1_455
Ba1 O0 3.023332 1_554
Ba1 O5 3.023332 1_554
Ba1 O2 3.023332 1_545
Ba1 O5 3.023332 1_545
Ba1 O2 3.023332 1_455
Ba1 O1 3.023332 1_554
Ba1 O4 3.023332 1_545
Ba1 O3 3.023332 1_455
O0 Sb0 2.018563 1_555
O0 Tb0 2.253836 1_656
O1 Sb0 2.018563 1_555
O1 Tb0 2.253836 1_556
O2 Sb0 2.018563 1_555
O2 Tb0 2.253836 1_665
O3 Sb0 2.018563 1_555
O3 Tb0 2.253836 1_655
O4 Sb0 2.018563 1_555
O4 Tb0 2.253836 1_565
O5 Sb0 2.018563 1_555
O5 Tb0 2.253836 1_566
