# generated using pymatgen
data_TbCoSn
_symmetry_space_group_name_H-M   'P 1'
_cell_length_a   4.58467387
_cell_length_b   7.39247035
_cell_length_c   7.53967504
_cell_angle_alpha   90.00019406
_cell_angle_beta   90.00048253
_cell_angle_gamma   89.99994977
_symmetry_Int_Tables_number   1
_chemical_formula_structural   TbCoSn
_chemical_formula_sum   'Tb4 Co4 Sn4'
_cell_volume   255.53516159
_cell_formula_units_Z   4
loop_
 _symmetry_equiv_pos_site_id
 _symmetry_equiv_pos_as_xyz
  1  'x, y, z'
loop_
 _atom_site_type_symbol
 _atom_site_label
 _atom_site_symmetry_multiplicity
 _atom_site_fract_x
 _atom_site_fract_y
 _atom_site_fract_z
 _atom_site_occupancy
  Tb  Tb0  1  0.25000227  0.98134451  0.21347495  1
  Tb  Tb1  1  0.75000464  0.51864118  0.71352436  1
  Tb  Tb2  1  0.25000606  0.48137708  0.28648913  1
  Tb  Tb3  1  0.75000650  0.01863725  0.78651096  1
  Co  Co0  1  0.24999728  0.15635115  0.56737016  1
  Co  Co1  1  0.24999453  0.65635695  0.93263048  1
  Co  Co2  1  0.74999865  0.34365311  0.06738915  1
  Co  Co3  1  0.74998516  0.84365249  0.43260644  1
  Sn  Sn0  1  0.75000006  0.71069671  0.09957051  1
  Sn  Sn1  1  0.24999796  0.78930125  0.59951089  1
  Sn  Sn2  1  0.75000230  0.21067118  0.40041971  1
  Sn  Sn3  1  0.25000159  0.28931213  0.90050326  1
loop_
_geom_bond_atom_site_label_1
_geom_bond_atom_site_label_2
_geom_bond_distance
_geom_bond_site_symmetry_2
Tb0 Tb2 3.736769 1_555
Tb0 Tb2 3.737242 1_565
Tb0 Tb3 3.961522 1_464
Tb0 Tb3 3.961576 1_564
Tb1 Tb3 3.736944 1_565
Tb1 Tb3 3.737005 1_555
Tb1 Tb2 3.961950 1_555
Tb1 Tb2 3.961989 1_655
Co0 Sn2 2.645820 1_455
Co0 Sn2 2.645879 1_555
Co0 Sn3 2.697185 1_555
Co0 Sn1 2.724206 1_545
Co0 Tb0 2.965350 1_545
Co0 Tb3 3.003505 1_455
Co0 Tb3 3.003547 1_555
Co0 Tb2 3.202825 1_555
Co0 Tb1 3.693484 1_455
Co0 Tb1 3.693517 1_555
Co1 Sn0 2.645820 1_456
Co1 Sn0 2.645846 1_556
Co1 Sn1 2.697052 1_555
Co1 Sn3 2.724158 1_555
Co1 Tb2 2.965024 1_556
Co1 Tb1 3.003338 1_455
Co1 Tb1 3.003428 1_555
Co1 Tb0 3.202419 1_556
Co1 Tb3 3.693335 1_465
Co1 Tb3 3.693417 1_565
Co2 Sn3 2.645619 1_554
Co2 Sn3 2.645661 1_654
Co2 Sn2 2.696528 1_555
Co2 Sn0 2.724185 1_555
Co2 Tb1 2.965092 1_554
Co2 Tb2 3.003362 1_555
Co2 Tb2 3.003394 1_655
Co2 Tb3 3.202744 1_554
Co2 Tb0 3.693449 1_545
Co2 Tb0 3.693455 1_645
Co3 Sn1 2.645678 1_555
Co3 Sn1 2.645761 1_655
Co3 Sn0 2.696489 1_555
Co3 Sn2 2.724007 1_565
Co3 Tb3 2.965343 1_565
Co3 Tb0 3.003361 1_555
Co3 Tb0 3.003504 1_655
Co3 Tb1 3.202928 1_555
Co3 Tb2 3.693276 1_555
Co3 Tb2 3.693403 1_655
Sn0 Tb0 3.161541 1_555
Sn0 Tb0 3.161548 1_655
Sn0 Tb2 3.180367 1_555
Sn0 Tb2 3.180388 1_655
Sn0 Tb1 3.238466 1_554
Sn0 Tb3 3.279261 1_564
Sn1 Tb1 3.161813 1_455
Sn1 Tb1 3.161845 1_555
Sn1 Tb3 3.180688 1_465
Sn1 Tb3 3.180730 1_565
Sn1 Tb0 3.238365 1_555
Sn1 Tb2 3.278961 1_555
Sn2 Tb2 3.161854 1_555
Sn2 Tb2 3.161892 1_655
Sn2 Tb0 3.180480 1_545
Sn2 Tb0 3.180495 1_645
Sn2 Tb3 3.238710 1_555
Sn2 Tb1 3.279646 1_555
Sn3 Tb3 3.161831 1_455
Sn3 Tb3 3.161871 1_555
Sn3 Tb1 3.180596 1_455
Sn3 Tb1 3.180636 1_555
Sn3 Tb2 3.238088 1_556
Sn3 Tb0 3.278924 1_546
