# generated using pymatgen
data_Ba2DyCu3O7
_symmetry_space_group_name_H-M   'P 1'
_cell_length_a   3.83805600
_cell_length_b   3.94605700
_cell_length_c   11.78566700
_cell_angle_alpha   90.00000000
_cell_angle_beta   90.00000000
_cell_angle_gamma   90.00000000
_symmetry_Int_Tables_number   1
_chemical_formula_structural   Ba2DyCu3O7
_chemical_formula_sum   'Ba2 Dy1 Cu3 O7'
_cell_volume   178.49613942
_cell_formula_units_Z   1
loop_
 _symmetry_equiv_pos_site_id
 _symmetry_equiv_pos_as_xyz
  1  'x, y, z'
loop_
 _atom_site_type_symbol
 _atom_site_label
 _atom_site_symmetry_multiplicity
 _atom_site_fract_x
 _atom_site_fract_y
 _atom_site_fract_z
 _atom_site_occupancy
  Ba  Ba0  1  0.00000000  0.00000000  0.68162100  1
  Ba  Ba1  1  0.00000000  0.00000000  0.31837900  1
  Dy  Dy0  1  0.00000000  0.00000000  0.00000000  1
  Cu  Cu0  1  0.50000000  0.50000000  0.85386100  1
  Cu  Cu1  1  0.50000000  0.50000000  0.14613900  1
  Cu  Cu2  1  0.50000000  0.50000000  0.50000000  1
  O  O0  1  0.50000000  0.50000000  0.66072800  1
  O  O1  1  0.00000000  0.50000000  0.11999100  1
  O  O2  1  0.50000000  0.00000000  0.50000000  1
  O  O3  1  0.50000000  0.50000000  0.33927200  1
  O  O4  1  0.50000000  0.00000000  0.87882900  1
  O  O5  1  0.00000000  0.50000000  0.88000900  1
  O  O6  1  0.50000000  0.00000000  0.12117100  1
loop_
_geom_bond_atom_site_label_1
_geom_bond_atom_site_label_2
_geom_bond_distance
_geom_bond_site_symmetry_2
Ba0 O0 2.763357 1_445
Ba0 O0 2.763357 1_455
Ba0 O0 2.763357 1_555
Ba0 O0 2.763357 1_545
Ba0 O2 2.874807 1_555
Ba0 O2 2.874807 1_455
Ba0 O4 3.014084 1_555
Ba0 O4 3.014084 1_455
Ba0 O5 3.059365 1_545
Ba0 O5 3.059365 1_555
Ba1 O3 2.763357 1_545
Ba1 O3 2.763357 1_455
Ba1 O3 2.763357 1_555
Ba1 O3 2.763357 1_445
Ba1 O2 2.874807 1_555
Ba1 O2 2.874807 1_455
Ba1 O6 3.014084 1_455
Ba1 O6 3.014084 1_555
Ba1 O1 3.059365 1_545
Ba1 O1 3.059365 1_555
Dy0 O6 2.392088 1_455
Dy0 O6 2.392088 1_555
Dy0 O4 2.392088 1_454
Dy0 O4 2.392088 1_554
Dy0 O5 2.427494 1_554
Dy0 O5 2.427494 1_544
Dy0 O1 2.427494 1_555
Dy0 O1 2.427494 1_545
Cu0 O5 1.943615 1_655
Cu0 O5 1.943615 1_555
Cu0 O4 1.994852 1_565
Cu0 O4 1.994852 1_555
Cu0 O0 2.276201 1_555
Cu1 O1 1.943615 1_655
Cu1 O1 1.943615 1_555
Cu1 O6 1.994852 1_555
Cu1 O6 1.994852 1_565
Cu1 O3 2.276201 1_555
Cu2 O3 1.894287 1_555
Cu2 O0 1.894287 1_555
Cu2 O2 1.973029 1_565
Cu2 O2 1.973029 1_555
