# generated using pymatgen
data_Rb2MgH4
_symmetry_space_group_name_H-M   'P 1'
_cell_length_a   6.39784100
_cell_length_b   8.26712200
_cell_length_c   11.23693300
_cell_angle_alpha   90.00000000
_cell_angle_beta   90.00000000
_cell_angle_gamma   90.00000000
_symmetry_Int_Tables_number   1
_chemical_formula_structural   Rb2MgH4
_chemical_formula_sum   'Rb8 Mg4 H16'
_cell_volume   594.34084968
_cell_formula_units_Z   4
loop_
 _symmetry_equiv_pos_site_id
 _symmetry_equiv_pos_as_xyz
  1  'x, y, z'
loop_
 _atom_site_type_symbol
 _atom_site_label
 _atom_site_symmetry_multiplicity
 _atom_site_fract_x
 _atom_site_fract_y
 _atom_site_fract_z
 _atom_site_occupancy
  Rb  Rb0  1  0.25000000  0.66259400  0.08490000  1
  Rb  Rb1  1  0.25000000  0.16259400  0.41510000  1
  Rb  Rb2  1  0.75000000  0.33740600  0.91510000  1
  Rb  Rb3  1  0.75000000  0.83740600  0.58490000  1
  Rb  Rb4  1  0.25000000  0.99315100  0.80013600  1
  Rb  Rb5  1  0.25000000  0.49315100  0.69986400  1
  Rb  Rb6  1  0.75000000  0.00684900  0.19986400  1
  Rb  Rb7  1  0.75000000  0.50684900  0.30013600  1
  Mg  Mg0  1  0.25000000  0.72727700  0.41972900  1
  Mg  Mg1  1  0.25000000  0.22727700  0.08027100  1
  Mg  Mg2  1  0.75000000  0.27272300  0.58027100  1
  Mg  Mg3  1  0.75000000  0.77272300  0.91972900  1
  H  H0  1  0.01250700  0.80471300  0.34467700  1
  H  H1  1  0.48749300  0.30471300  0.15532300  1
  H  H2  1  0.51250700  0.19528700  0.65532300  1
  H  H3  1  0.98749300  0.69528700  0.84467700  1
  H  H4  1  0.98749300  0.19528700  0.65532300  1
  H  H5  1  0.51250700  0.69528700  0.84467700  1
  H  H6  1  0.48749300  0.80471300  0.34467700  1
  H  H7  1  0.01250700  0.30471300  0.15532300  1
  H  H8  1  0.25000000  0.50475500  0.42088500  1
  H  H9  1  0.25000000  0.00475500  0.07911500  1
  H  H10  1  0.75000000  0.49524500  0.57911500  1
  H  H11  1  0.75000000  0.99524500  0.92088500  1
  H  H12  1  0.25000000  0.31490300  0.92768400  1
  H  H13  1  0.25000000  0.81490300  0.57231600  1
  H  H14  1  0.75000000  0.68509700  0.07231600  1
  H  H15  1  0.75000000  0.18509700  0.42768400  1
loop_
_geom_bond_atom_site_label_1
_geom_bond_atom_site_label_2
_geom_bond_distance
_geom_bond_site_symmetry_2
H0 Mg0 1.851965 1_555
H0 Rb6 2.874216 1_465
H0 Rb7 3.022408 1_455
H1 Mg1 1.851965 1_555
H1 Rb7 2.874216 1_555
H1 Rb6 3.022408 1_555
H2 Mg2 1.851965 1_555
H2 Rb4 2.874216 1_545
H2 Rb5 3.022408 1_555
H3 Mg3 1.851965 1_555
H3 Rb5 2.874216 1_655
H3 Rb4 3.022408 1_655
H4 Mg2 1.851965 1_555
H4 Rb4 2.874216 1_645
H4 Rb5 3.022408 1_655
H5 Mg3 1.851965 1_555
H5 Rb5 2.874216 1_555
H5 Rb4 3.022408 1_555
H6 Mg0 1.851965 1_555
H6 Rb6 2.874216 1_565
H6 Rb7 3.022408 1_555
H7 Mg1 1.851965 1_555
H7 Rb7 2.874216 1_455
H7 Rb6 3.022408 1_455
H8 Mg0 1.839662 1_555
H8 Rb1 2.829434 1_555
H8 Rb5 3.136336 1_555
H9 Mg1 1.839662 1_555
H9 Rb0 2.829434 1_545
H9 Rb4 3.136336 1_544
H10 Mg2 1.839662 1_555
H10 Rb3 2.829434 1_555
H10 Rb7 3.136336 1_555
H11 Mg3 1.839662 1_555
H11 Rb2 2.829434 1_565
H11 Rb6 3.136336 1_566
H12 Mg1 1.861361 1_556
H12 Rb5 2.953825 1_555
H12 Rb4 3.021523 1_545
H13 Mg0 1.861361 1_555
H13 Rb4 2.953825 1_555
H13 Rb5 3.021523 1_555
H14 Mg3 1.861361 1_554
H14 Rb7 2.953825 1_555
H14 Rb6 3.021523 1_565
H15 Mg2 1.861361 1_555
H15 Rb6 2.953825 1_555
H15 Rb7 3.021523 1_555
