# generated using pymatgen
data_Ta2O5
_symmetry_space_group_name_H-M   'P 1'
_cell_length_a   6.92468403
_cell_length_b   7.47292080
_cell_length_c   7.15298278
_cell_angle_alpha   59.68689055
_cell_angle_beta   62.77419010
_cell_angle_gamma   64.92891056
_symmetry_Int_Tables_number   1
_chemical_formula_structural   Ta2O5
_chemical_formula_sum   'Ta6 O15'
_cell_volume   275.02990888
_cell_formula_units_Z   3
loop_
 _symmetry_equiv_pos_site_id
 _symmetry_equiv_pos_as_xyz
  1  'x, y, z'
loop_
 _atom_site_type_symbol
 _atom_site_label
 _atom_site_symmetry_multiplicity
 _atom_site_fract_x
 _atom_site_fract_y
 _atom_site_fract_z
 _atom_site_occupancy
  Ta  Ta0  1  0.25650100  0.96519200  0.02792900  1
  Ta  Ta1  1  0.23156100  0.02930300  0.53525500  1
  Ta  Ta2  1  0.75042900  0.04027000  0.99174400  1
  Ta  Ta3  1  0.26956000  0.48014000  0.98361800  1
  Ta  Ta4  1  0.70472700  0.55401500  0.01219700  1
  Ta  Ta5  1  0.77339600  0.97870300  0.47219300  1
  O  O0  1  0.06331900  0.10519300  0.81777100  1
  O  O1  1  0.19865600  0.31394000  0.31992700  1
  O  O2  1  0.36858400  0.65048400  0.06888100  1
  O  O3  1  0.14301600  0.96267200  0.33740300  1
  O  O4  1  0.45693000  0.01150000  0.67739000  1
  O  O5  1  0.30815200  0.71068200  0.69266300  1
  O  O6  1  0.31806900  0.23739100  0.92636400  1
  O  O7  1  0.57708800  0.83873500  0.05738400  1
  O  O8  1  0.73933400  0.28337000  0.26917900  1
  O  O9  1  0.55736900  0.98819800  0.32189100  1
  O  O10  1  0.85690700  0.03948400  0.67616900  1
  O  O11  1  0.63054100  0.34058300  0.93424100  1
  O  O12  1  0.95407100  0.59041600  0.03505900  1
  O  O13  1  0.82223800  0.67271000  0.68883500  1
  O  O14  1  0.94725300  0.88631800  0.19600600  1
loop_
_geom_bond_atom_site_label_1
_geom_bond_atom_site_label_2
_geom_bond_distance
_geom_bond_site_symmetry_2
O0 Ta1 2.050712 1_555
O0 Ta0 2.051870 1_546
O0 Ta2 2.071898 1_455
O1 Ta1 1.884647 1_555
O1 Ta3 1.997667 1_554
O2 Ta4 2.027709 1_555
O2 Ta0 2.045676 1_555
O2 Ta3 2.090148 1_554
O3 Ta0 1.974067 1_555
O3 Ta1 2.095430 1_565
O3 Ta5 2.256932 1_455
O4 Ta5 1.995401 1_545
O4 Ta1 2.150847 1_555
O4 Ta0 2.163333 1_546
O5 Ta3 1.905986 1_555
O5 Ta1 1.997068 1_565
O6 Ta3 1.918061 1_555
O6 Ta0 1.951160 1_546
O7 Ta2 2.057187 1_564
O7 Ta4 2.061989 1_555
O7 Ta0 2.077192 1_555
O8 Ta4 1.940702 1_555
O8 Ta5 1.966937 1_545
O9 Ta2 2.034710 1_564
O9 Ta1 2.061313 1_565
O9 Ta5 2.168702 1_555
O10 Ta2 2.031236 1_555
O10 Ta5 2.081613 1_545
O10 Ta1 2.295623 1_655
O11 Ta2 1.922645 1_555
O11 Ta3 2.194417 1_555
O11 Ta4 2.230027 1_556
O12 Ta3 1.905794 1_654
O12 Ta4 1.945069 1_555
O13 Ta4 1.901949 1_556
O13 Ta5 1.997932 1_555
O14 Ta2 2.027897 1_564
O14 Ta5 2.079672 1_555
O14 Ta0 2.092194 1_655
