# generated using pymatgen
data_Mn3Bi
_symmetry_space_group_name_H-M   'P 1'
_cell_length_a   21.65307082
_cell_length_b   21.65307082
_cell_length_c   21.65307122
_cell_angle_alpha   119.10147641
_cell_angle_beta   119.10147641
_cell_angle_gamma   119.10147763
_symmetry_Int_Tables_number   1
_chemical_formula_structural   Mn3Bi
_chemical_formula_sum   'Mn96 Bi32'
_cell_volume   2492.51323223
_cell_formula_units_Z   32
loop_
 _symmetry_equiv_pos_site_id
 _symmetry_equiv_pos_as_xyz
  1  'x, y, z'
loop_
 _atom_site_type_symbol
 _atom_site_label
 _atom_site_symmetry_multiplicity
 _atom_site_fract_x
 _atom_site_fract_y
 _atom_site_fract_z
 _atom_site_occupancy
  Mn  Mn0_0  1  0.38382250  0.00000000  0.11617750  1
  Mn  Mn0_1  1  0.38382250  0.00000000  0.61617750  1
  Mn  Mn0_2  1  0.38382250  0.50000000  0.11617750  1
  Mn  Mn0_3  1  0.38382250  0.50000000  0.61617750  1
  Mn  Mn0_4  1  0.88382250  0.00000000  0.11617750  1
  Mn  Mn0_5  1  0.88382250  0.00000000  0.61617750  1
  Mn  Mn0_6  1  0.88382250  0.50000000  0.11617750  1
  Mn  Mn0_7  1  0.88382250  0.50000000  0.61617750  1
  Mn  Mn1_0  1  0.18781950  0.18781950  0.31173450  1
  Mn  Mn1_1  1  0.18781950  0.18781950  0.81173450  1
  Mn  Mn1_2  1  0.18781950  0.68781950  0.31173450  1
  Mn  Mn1_3  1  0.18781950  0.68781950  0.81173450  1
  Mn  Mn1_4  1  0.68781950  0.18781950  0.31173450  1
  Mn  Mn1_5  1  0.68781950  0.18781950  0.81173450  1
  Mn  Mn1_6  1  0.68781950  0.68781950  0.31173450  1
  Mn  Mn1_7  1  0.68781950  0.68781950  0.81173450  1
  Mn  Mn2_0  1  0.11617750  0.38382250  0.00000000  1
  Mn  Mn2_1  1  0.11617750  0.38382250  0.50000000  1
  Mn  Mn2_2  1  0.11617750  0.88382250  0.00000000  1
  Mn  Mn2_3  1  0.11617750  0.88382250  0.50000000  1
  Mn  Mn2_4  1  0.61617750  0.38382250  0.00000000  1
  Mn  Mn2_5  1  0.61617750  0.38382250  0.50000000  1
  Mn  Mn2_6  1  0.61617750  0.88382250  0.00000000  1
  Mn  Mn2_7  1  0.61617750  0.88382250  0.50000000  1
  Mn  Mn3_0  1  0.00000000  0.11617750  0.38382250  1
  Mn  Mn3_1  1  0.00000000  0.11617750  0.88382250  1
  Mn  Mn3_2  1  0.00000000  0.61617750  0.38382250  1
  Mn  Mn3_3  1  0.00000000  0.61617750  0.88382250  1
  Mn  Mn3_4  1  0.50000000  0.11617750  0.38382250  1
  Mn  Mn3_5  1  0.50000000  0.11617750  0.88382250  1
  Mn  Mn3_6  1  0.50000000  0.61617750  0.38382250  1
  Mn  Mn3_7  1  0.50000000  0.61617750  0.88382250  1
  Mn  Mn4_0  1  0.38382250  0.11617750  0.00000000  1
  Mn  Mn4_1  1  0.38382250  0.11617750  0.50000000  1
  Mn  Mn4_2  1  0.38382250  0.61617750  0.00000000  1
  Mn  Mn4_3  1  0.38382250  0.61617750  0.50000000  1
  Mn  Mn4_4  1  0.88382250  0.11617750  0.00000000  1
  Mn  Mn4_5  1  0.88382250  0.11617750  0.50000000  1
  Mn  Mn4_6  1  0.88382250  0.61617750  0.00000000  1
  Mn  Mn4_7  1  0.88382250  0.61617750  0.50000000  1
  Mn  Mn5_0  1  0.31173450  0.18781950  0.18781950  1
  Mn  Mn5_1  1  0.31173450  0.18781950  0.68781950  1
  Mn  Mn5_2  1  0.31173450  0.68781950  0.18781950  1
  Mn  Mn5_3  1  0.31173450  0.68781950  0.68781950  1
  Mn  Mn5_4  1  0.81173450  0.18781950  0.18781950  1
  Mn  Mn5_5  1  0.81173450  0.18781950  0.68781950  1
  Mn  Mn5_6  1  0.81173450  0.68781950  0.18781950  1
  Mn  Mn5_7  1  0.81173450  0.68781950  0.68781950  1
  Mn  Mn6_0  1  0.18781950  0.31173450  0.18781950  1
  Mn  Mn6_1  1  0.18781950  0.31173450  0.68781950  1
  Mn  Mn6_2  1  0.18781950  0.81173450  0.18781950  1
  Mn  Mn6_3  1  0.18781950  0.81173450  0.68781950  1
  Mn  Mn6_4  1  0.68781950  0.31173450  0.18781950  1
  Mn  Mn6_5  1  0.68781950  0.31173450  0.68781950  1
  Mn  Mn6_6  1  0.68781950  0.81173450  0.18781950  1
  Mn  Mn6_7  1  0.68781950  0.81173450  0.68781950  1
  Mn  Mn7_0  1  0.31218050  0.18826550  0.31218050  1
  Mn  Mn7_1  1  0.31218050  0.18826550  0.81218050  1
  Mn  Mn7_2  1  0.31218050  0.68826550  0.31218050  1
  Mn  Mn7_3  1  0.31218050  0.68826550  0.81218050  1
  Mn  Mn7_4  1  0.81218050  0.18826550  0.31218050  1
  Mn  Mn7_5  1  0.81218050  0.18826550  0.81218050  1
  Mn  Mn7_6  1  0.81218050  0.68826550  0.31218050  1
  Mn  Mn7_7  1  0.81218050  0.68826550  0.81218050  1
  Mn  Mn8_0  1  0.00000000  0.38382250  0.11617750  1
  Mn  Mn8_1  1  0.00000000  0.38382250  0.61617750  1
  Mn  Mn8_2  1  0.00000000  0.88382250  0.11617750  1
  Mn  Mn8_3  1  0.00000000  0.88382250  0.61617750  1
  Mn  Mn8_4  1  0.50000000  0.38382250  0.11617750  1
  Mn  Mn8_5  1  0.50000000  0.38382250  0.61617750  1
  Mn  Mn8_6  1  0.50000000  0.88382250  0.11617750  1
  Mn  Mn8_7  1  0.50000000  0.88382250  0.61617750  1
  Mn  Mn9_0  1  0.11617750  0.00000000  0.38382250  1
  Mn  Mn9_1  1  0.11617750  0.00000000  0.88382250  1
  Mn  Mn9_2  1  0.11617750  0.50000000  0.38382250  1
  Mn  Mn9_3  1  0.11617750  0.50000000  0.88382250  1
  Mn  Mn9_4  1  0.61617750  0.00000000  0.38382250  1
  Mn  Mn9_5  1  0.61617750  0.00000000  0.88382250  1
  Mn  Mn9_6  1  0.61617750  0.50000000  0.38382250  1
  Mn  Mn9_7  1  0.61617750  0.50000000  0.88382250  1
  Mn  Mn10_0  1  0.18826550  0.31218050  0.31218050  1
  Mn  Mn10_1  1  0.18826550  0.31218050  0.81218050  1
  Mn  Mn10_2  1  0.18826550  0.81218050  0.31218050  1
  Mn  Mn10_3  1  0.18826550  0.81218050  0.81218050  1
  Mn  Mn10_4  1  0.68826550  0.31218050  0.31218050  1
  Mn  Mn10_5  1  0.68826550  0.31218050  0.81218050  1
  Mn  Mn10_6  1  0.68826550  0.81218050  0.31218050  1
  Mn  Mn10_7  1  0.68826550  0.81218050  0.81218050  1
  Mn  Mn11_0  1  0.31218050  0.31218050  0.18826550  1
  Mn  Mn11_1  1  0.31218050  0.31218050  0.68826550  1
  Mn  Mn11_2  1  0.31218050  0.81218050  0.18826550  1
  Mn  Mn11_3  1  0.31218050  0.81218050  0.68826550  1
  Mn  Mn11_4  1  0.81218050  0.31218050  0.18826550  1
  Mn  Mn11_5  1  0.81218050  0.31218050  0.68826550  1
  Mn  Mn11_6  1  0.81218050  0.81218050  0.18826550  1
  Mn  Mn11_7  1  0.81218050  0.81218050  0.68826550  1
  Bi  Bi0_0  1  0.25000000  0.25000000  0.00000000  1
  Bi  Bi0_1  1  0.25000000  0.25000000  0.50000000  1
  Bi  Bi0_2  1  0.25000000  0.75000000  0.00000000  1
  Bi  Bi0_3  1  0.25000000  0.75000000  0.50000000  1
  Bi  Bi0_4  1  0.75000000  0.25000000  0.00000000  1
  Bi  Bi0_5  1  0.75000000  0.25000000  0.50000000  1
  Bi  Bi0_6  1  0.75000000  0.75000000  0.00000000  1
  Bi  Bi0_7  1  0.75000000  0.75000000  0.50000000  1
  Bi  Bi1_0  1  0.00000000  0.00000000  0.00000000  1
  Bi  Bi1_1  1  0.00000000  0.00000000  0.50000000  1
  Bi  Bi1_2  1  0.00000000  0.50000000  0.00000000  1
  Bi  Bi1_3  1  0.00000000  0.50000000  0.50000000  1
  Bi  Bi1_4  1  0.50000000  0.00000000  0.00000000  1
  Bi  Bi1_5  1  0.50000000  0.00000000  0.50000000  1
  Bi  Bi1_6  1  0.50000000  0.50000000  0.00000000  1
  Bi  Bi1_7  1  0.50000000  0.50000000  0.50000000  1
  Bi  Bi2_0  1  0.00000000  0.25000000  0.25000000  1
  Bi  Bi2_1  1  0.00000000  0.25000000  0.75000000  1
  Bi  Bi2_2  1  0.00000000  0.75000000  0.25000000  1
  Bi  Bi2_3  1  0.00000000  0.75000000  0.75000000  1
  Bi  Bi2_4  1  0.50000000  0.25000000  0.25000000  1
  Bi  Bi2_5  1  0.50000000  0.25000000  0.75000000  1
  Bi  Bi2_6  1  0.50000000  0.75000000  0.25000000  1
  Bi  Bi2_7  1  0.50000000  0.75000000  0.75000000  1
  Bi  Bi3_0  1  0.25000000  0.00000000  0.25000000  1
  Bi  Bi3_1  1  0.25000000  0.00000000  0.75000000  1
  Bi  Bi3_2  1  0.25000000  0.50000000  0.25000000  1
  Bi  Bi3_3  1  0.25000000  0.50000000  0.75000000  1
  Bi  Bi3_4  1  0.75000000  0.00000000  0.25000000  1
  Bi  Bi3_5  1  0.75000000  0.00000000  0.75000000  1
  Bi  Bi3_6  1  0.75000000  0.50000000  0.25000000  1
  Bi  Bi3_7  1  0.75000000  0.50000000  0.75000000  1
loop_
_geom_bond_atom_site_label_1
_geom_bond_atom_site_label_2
_geom_bond_distance
_geom_bond_site_symmetry_2
Mn0_0 Mn1_4 2.809909 1_555
Mn0_0 Mn10_3 2.809909 1_544
Mn0_0 Mn10_4 2.949022 1_555
Mn0_0 Mn1_3 2.949022 1_544
Mn0_1 Mn1_5 2.809909 1_555
Mn0_1 Mn10_2 2.809909 1_545
Mn0_1 Mn10_5 2.949022 1_555
Mn0_1 Mn1_2 2.949022 1_545
Mn0_2 Mn1_6 2.809909 1_555
Mn0_2 Mn10_1 2.809909 1_554
Mn0_2 Mn10_6 2.949022 1_555
Mn0_2 Mn1_1 2.949022 1_554
Mn0_3 Mn1_7 2.809909 1_555
Mn0_3 Mn10_0 2.809909 1_555
Mn0_3 Mn10_7 2.949022 1_555
Mn0_3 Mn1_0 2.949022 1_555
Mn0_4 Mn1_0 2.809909 1_655
Mn0_4 Mn10_7 2.809909 1_544
Mn0_4 Mn10_0 2.949022 1_655
Mn0_4 Mn1_7 2.949022 1_544
Mn0_5 Mn1_1 2.809909 1_655
Mn0_5 Mn10_6 2.809909 1_545
Mn0_5 Mn10_1 2.949022 1_655
Mn0_5 Mn1_6 2.949022 1_545
Mn0_6 Mn1_2 2.809909 1_655
Mn0_6 Mn10_5 2.809909 1_554
Mn0_6 Mn10_2 2.949022 1_655
Mn0_6 Mn1_5 2.949022 1_554
Mn0_7 Mn1_3 2.809909 1_655
Mn0_7 Mn10_4 2.809909 1_555
Mn0_7 Mn10_3 2.949022 1_655
Mn0_7 Mn1_4 2.949022 1_555
Mn1_0 Mn7_0 2.683405 1_555
Mn1_0 Mn8_2 2.809909 1_545
Mn1_0 Mn8_5 2.949022 1_555
Mn1_0 Mn1_7 3.097460 1_444
Mn1_0 Mn1_7 3.097460 1_555
Mn1_1 Mn7_1 2.683405 1_555
Mn1_1 Mn8_3 2.809909 1_545
Mn1_1 Mn8_4 2.949022 1_556
Mn1_1 Mn1_6 3.097460 1_556
Mn1_1 Mn1_6 3.097460 1_445
Mn1_2 Mn7_2 2.683405 1_555
Mn1_2 Mn8_0 2.809909 1_555
Mn1_2 Mn8_7 2.949022 1_555
Mn1_2 Mn1_5 3.097460 1_454
Mn1_2 Mn1_5 3.097460 1_565
Mn1_3 Mn7_3 2.683405 1_555
Mn1_3 Mn8_1 2.809909 1_555
Mn1_3 Mn8_6 2.949022 1_556
Mn1_3 Mn1_4 3.097460 1_566
Mn1_3 Mn1_4 3.097460 1_455
Mn1_4 Mn7_4 2.683405 1_555
Mn1_4 Mn8_6 2.809909 1_545
Mn1_4 Mn8_1 2.949022 1_655
Mn1_5 Mn7_5 2.683405 1_555
Mn1_5 Mn8_7 2.809909 1_545
Mn1_5 Mn8_0 2.949022 1_656
Mn1_6 Mn7_6 2.683405 1_555
Mn1_6 Mn8_4 2.809909 1_555
Mn1_6 Mn8_3 2.949022 1_655
Mn1_7 Mn7_7 2.683405 1_555
Mn1_7 Mn8_5 2.809909 1_555
Mn1_7 Mn8_2 2.949022 1_656
Mn2_0 Mn7_5 2.809909 1_454
Mn2_0 Mn5_2 2.809909 1_555
Mn2_0 Mn7_2 2.949022 1_555
Mn2_0 Mn5_5 2.949022 1_454
Mn2_1 Mn7_4 2.809909 1_455
Mn2_1 Mn5_3 2.809909 1_555
Mn2_1 Mn7_3 2.949022 1_555
Mn2_1 Mn5_4 2.949022 1_455
Mn2_2 Mn7_7 2.809909 1_454
Mn2_2 Mn5_0 2.809909 1_565
Mn2_2 Mn7_0 2.949022 1_565
Mn2_2 Mn5_7 2.949022 1_454
Mn2_3 Mn7_6 2.809909 1_455
Mn2_3 Mn5_1 2.809909 1_565
Mn2_3 Mn7_1 2.949022 1_565
Mn2_3 Mn5_6 2.949022 1_455
Mn2_4 Mn7_1 2.809909 1_554
Mn2_4 Mn5_6 2.809909 1_555
Mn2_4 Mn7_6 2.949022 1_555
Mn2_4 Mn5_1 2.949022 1_554
Mn2_5 Mn7_0 2.809909 1_555
Mn2_5 Mn5_7 2.809909 1_555
Mn2_5 Mn7_7 2.949022 1_555
Mn2_5 Mn5_0 2.949022 1_555
Mn2_6 Mn7_3 2.809909 1_554
Mn2_6 Mn5_4 2.809909 1_565
Mn2_6 Mn7_4 2.949022 1_565
Mn2_6 Mn5_3 2.949022 1_554
Mn2_7 Mn7_2 2.809909 1_555
Mn2_7 Mn5_5 2.809909 1_565
Mn2_7 Mn7_5 2.949022 1_565
Mn2_7 Mn5_2 2.949022 1_555
Mn3_0 Mn6_1 2.809909 1_555
Mn3_0 Mn6_6 2.949022 1_445
Mn3_1 Mn6_0 2.809909 1_556
Mn3_1 Mn6_7 2.949022 1_445
Mn3_2 Mn6_3 2.809909 1_555
Mn3_2 Mn6_4 2.949022 1_455
Mn3_3 Mn6_2 2.809909 1_556
Mn3_3 Mn6_5 2.949022 1_455
Mn3_4 Mn6_5 2.809909 1_555
Mn3_4 Mn6_2 2.949022 1_545
Mn3_5 Mn6_4 2.809909 1_556
Mn3_5 Mn6_3 2.949022 1_545
Mn3_6 Mn6_7 2.809909 1_555
Mn3_6 Mn6_0 2.949022 1_555
Mn3_7 Mn6_6 2.809909 1_556
Mn3_7 Mn6_1 2.949022 1_555
Mn4_0 Mn6_4 2.809909 1_555
Mn4_0 Mn6_3 2.949022 1_544
Mn4_1 Mn6_5 2.809909 1_555
Mn4_1 Mn6_2 2.949022 1_545
Mn4_2 Mn6_6 2.809909 1_555
Mn4_2 Mn6_1 2.949022 1_554
Mn4_3 Mn6_7 2.809909 1_555
Mn4_3 Mn6_0 2.949022 1_555
Mn4_4 Mn6_0 2.809909 1_655
Mn4_4 Mn6_7 2.949022 1_544
Mn4_5 Mn6_1 2.809909 1_655
Mn4_5 Mn6_6 2.949022 1_545
Mn4_6 Mn6_2 2.809909 1_655
Mn4_6 Mn6_5 2.949022 1_554
Mn4_7 Mn6_3 2.809909 1_655
Mn4_7 Mn6_4 2.949022 1_555
Mn5_0 Mn7_0 2.683405 1_555
Mn5_0 Mn9_1 2.809909 1_554
Mn5_0 Mn9_6 2.949022 1_555
Mn5_0 Mn5_7 3.097460 1_555
Mn5_0 Mn5_7 3.097460 1_444
Mn5_1 Mn7_1 2.683405 1_555
Mn5_1 Mn9_0 2.809909 1_555
Mn5_1 Mn9_7 2.949022 1_555
Mn5_1 Mn5_6 3.097460 1_445
Mn5_1 Mn5_6 3.097460 1_556
Mn5_2 Mn7_2 2.683405 1_555
Mn5_2 Mn9_3 2.809909 1_554
Mn5_2 Mn9_4 2.949022 1_565
Mn5_2 Mn5_5 3.097460 1_565
Mn5_2 Mn5_5 3.097460 1_454
Mn5_3 Mn7_3 2.683405 1_555
Mn5_3 Mn9_2 2.809909 1_555
Mn5_3 Mn9_5 2.949022 1_565
Mn5_3 Mn5_4 3.097460 1_455
Mn5_3 Mn5_4 3.097460 1_566
Mn5_4 Mn7_4 2.683405 1_555
Mn5_4 Mn9_5 2.809909 1_554
Mn5_4 Mn9_2 2.949022 1_655
Mn5_5 Mn7_5 2.683405 1_555
Mn5_5 Mn9_4 2.809909 1_555
Mn5_5 Mn9_3 2.949022 1_655
Mn5_6 Mn7_6 2.683405 1_555
Mn5_6 Mn9_7 2.809909 1_554
Mn5_6 Mn9_0 2.949022 1_665
Mn5_7 Mn7_7 2.683405 1_555
Mn5_7 Mn9_6 2.809909 1_555
Mn5_7 Mn9_1 2.949022 1_665
Mn6_0 Mn6_7 3.097460 1_555
Mn6_0 Mn6_7 3.097460 1_444
Mn6_1 Mn6_6 3.097460 1_445
Mn6_1 Mn6_6 3.097460 1_556
Mn6_2 Mn6_5 3.097460 1_565
Mn6_2 Mn6_5 3.097460 1_454
Mn6_3 Mn6_4 3.097460 1_455
Mn6_3 Mn6_4 3.097460 1_566
Mn7_0 Mn8_5 2.809909 1_555
Mn7_0 Mn8_2 2.949022 1_545
Mn7_0 Mn7_7 3.097460 1_555
Mn7_0 Mn7_7 3.097460 1_444
Mn7_1 Mn8_4 2.809909 1_556
Mn7_1 Mn8_3 2.949022 1_545
Mn7_1 Mn7_6 3.097460 1_445
Mn7_1 Mn7_6 3.097460 1_556
Mn7_2 Mn8_7 2.809909 1_555
Mn7_2 Mn8_0 2.949022 1_555
Mn7_2 Mn7_5 3.097460 1_565
Mn7_2 Mn7_5 3.097460 1_454
Mn7_3 Mn8_6 2.809909 1_556
Mn7_3 Mn8_1 2.949022 1_555
Mn7_3 Mn7_4 3.097460 1_455
Mn7_3 Mn7_4 3.097460 1_566
Mn7_4 Mn8_1 2.809909 1_655
Mn7_4 Mn8_6 2.949022 1_545
Mn7_5 Mn8_0 2.809909 1_656
Mn7_5 Mn8_7 2.949022 1_545
Mn7_6 Mn8_3 2.809909 1_655
Mn7_6 Mn8_4 2.949022 1_555
Mn7_7 Mn8_2 2.809909 1_656
Mn7_7 Mn8_5 2.949022 1_555
Mn10_0 Mn1_0 2.683405 1_555
Mn10_0 Mn6_0 2.683405 1_555
Mn10_0 Mn4_3 2.809909 1_555
Mn10_0 Mn4_4 2.949022 1_455
Mn10_0 Mn10_7 3.097460 1_555
Mn10_0 Mn10_7 3.097460 1_444
Mn10_1 Mn1_1 2.683405 1_555
Mn10_1 Mn6_1 2.683405 1_555
Mn10_1 Mn4_2 2.809909 1_556
Mn10_1 Mn4_5 2.949022 1_455
Mn10_1 Mn10_6 3.097460 1_445
Mn10_1 Mn10_6 3.097460 1_556
Mn10_2 Mn1_2 2.683405 1_555
Mn10_2 Mn6_2 2.683405 1_555
Mn10_2 Mn4_1 2.809909 1_565
Mn10_2 Mn4_6 2.949022 1_455
Mn10_2 Mn10_5 3.097460 1_565
Mn10_2 Mn10_5 3.097460 1_454
Mn10_3 Mn1_3 2.683405 1_555
Mn10_3 Mn6_3 2.683405 1_555
Mn10_3 Mn4_0 2.809909 1_566
Mn10_3 Mn4_7 2.949022 1_455
Mn10_3 Mn10_4 3.097460 1_455
Mn10_3 Mn10_4 3.097460 1_566
Mn10_4 Mn1_4 2.683405 1_555
Mn10_4 Mn6_4 2.683405 1_555
Mn10_4 Mn4_7 2.809909 1_555
Mn10_4 Mn4_0 2.949022 1_555
Mn10_5 Mn1_5 2.683405 1_555
Mn10_5 Mn6_5 2.683405 1_555
Mn10_5 Mn4_6 2.809909 1_556
Mn10_5 Mn4_1 2.949022 1_555
Mn10_6 Mn1_6 2.683405 1_555
Mn10_6 Mn6_6 2.683405 1_555
Mn10_6 Mn4_5 2.809909 1_565
Mn10_6 Mn4_2 2.949022 1_555
Mn10_7 Mn1_7 2.683405 1_555
Mn10_7 Mn6_7 2.683405 1_555
Mn10_7 Mn4_4 2.809909 1_566
Mn10_7 Mn4_3 2.949022 1_555
Mn11_0 Mn5_0 2.683405 1_555
Mn11_0 Mn6_0 2.683405 1_555
Mn11_0 Mn3_6 2.809909 1_555
Mn11_0 Mn9_6 2.809909 1_555
Mn11_0 Mn9_1 2.949022 1_554
Mn11_0 Mn3_1 2.949022 1_554
Mn11_0 Mn11_7 3.097460 1_444
Mn11_0 Mn11_7 3.097460 1_555
Mn11_1 Mn5_1 2.683405 1_555
Mn11_1 Mn6_1 2.683405 1_555
Mn11_1 Mn9_7 2.809909 1_555
Mn11_1 Mn3_7 2.809909 1_555
Mn11_1 Mn3_0 2.949022 1_555
Mn11_1 Mn9_0 2.949022 1_555
Mn11_1 Mn11_6 3.097460 1_556
Mn11_1 Mn11_6 3.097460 1_445
Mn11_2 Mn6_2 2.683405 1_555
Mn11_2 Mn5_2 2.683405 1_555
Mn11_2 Mn9_4 2.809909 1_565
Mn11_2 Mn3_4 2.809909 1_565
Mn11_2 Mn3_3 2.949022 1_554
Mn11_2 Mn9_3 2.949022 1_554
Mn11_2 Mn11_5 3.097460 1_454
Mn11_2 Mn11_5 3.097460 1_565
Mn11_3 Mn5_3 2.683405 1_555
Mn11_3 Mn6_3 2.683405 1_555
Mn11_3 Mn3_5 2.809909 1_565
Mn11_3 Mn9_5 2.809909 1_565
Mn11_3 Mn9_2 2.949022 1_555
Mn11_3 Mn3_2 2.949022 1_555
Mn11_3 Mn11_4 3.097460 1_455
Mn11_3 Mn11_4 3.097460 1_566
Mn11_4 Mn5_4 2.683405 1_555
Mn11_4 Mn6_4 2.683405 1_555
Mn11_4 Mn3_2 2.809909 1_655
Mn11_4 Mn9_2 2.809909 1_655
Mn11_4 Mn9_5 2.949022 1_554
Mn11_4 Mn3_5 2.949022 1_554
Mn11_5 Mn6_5 2.683405 1_555
Mn11_5 Mn5_5 2.683405 1_555
Mn11_5 Mn9_3 2.809909 1_655
Mn11_5 Mn3_3 2.809909 1_655
Mn11_5 Mn9_4 2.949022 1_555
Mn11_5 Mn3_4 2.949022 1_555
Mn11_6 Mn5_6 2.683405 1_555
Mn11_6 Mn6_6 2.683405 1_555
Mn11_6 Mn9_0 2.809909 1_665
Mn11_6 Mn3_0 2.809909 1_665
Mn11_6 Mn9_7 2.949022 1_554
Mn11_6 Mn3_7 2.949022 1_554
Mn11_7 Mn6_7 2.683405 1_555
Mn11_7 Mn5_7 2.683405 1_555
Mn11_7 Mn9_1 2.809909 1_665
Mn11_7 Mn3_1 2.809909 1_665
Mn11_7 Mn3_6 2.949022 1_555
Mn11_7 Mn9_6 2.949022 1_555
Bi0_0 Mn1_1 2.793307 1_554
Bi0_0 Mn11_0 2.793307 1_555
Bi0_0 Mn3_1 2.904093 1_554
Bi0_0 Mn9_1 2.904093 1_554
Bi0_0 Mn8_4 2.904093 1_555
Bi0_0 Mn0_2 2.904093 1_555
Bi0_1 Mn11_1 2.793307 1_555
Bi0_1 Mn1_0 2.793307 1_555
Bi0_1 Mn3_0 2.904093 1_555
Bi0_1 Mn9_0 2.904093 1_555
Bi0_1 Mn8_5 2.904093 1_555
Bi0_1 Mn0_3 2.904093 1_555
Bi0_2 Mn1_3 2.793307 1_554
Bi0_2 Mn11_2 2.793307 1_555
Bi0_2 Mn9_3 2.904093 1_554
Bi0_2 Mn3_3 2.904093 1_554
Bi0_2 Mn8_6 2.904093 1_555
Bi0_2 Mn0_0 2.904093 1_565
Bi0_3 Mn11_3 2.793307 1_555
Bi0_3 Mn1_2 2.793307 1_555
Bi0_3 Mn3_2 2.904093 1_555
Bi0_3 Mn9_2 2.904093 1_555
Bi0_3 Mn8_7 2.904093 1_555
Bi0_3 Mn0_1 2.904093 1_565
Bi0_4 Mn1_5 2.793307 1_554
Bi0_4 Mn11_4 2.793307 1_555
Bi0_4 Mn3_5 2.904093 1_554
Bi0_4 Mn9_5 2.904093 1_554
Bi0_4 Mn0_6 2.904093 1_555
Bi0_4 Mn8_0 2.904093 1_655
Bi0_5 Mn11_5 2.793307 1_555
Bi0_5 Mn1_4 2.793307 1_555
Bi0_5 Mn9_4 2.904093 1_555
Bi0_5 Mn3_4 2.904093 1_555
Bi0_5 Mn8_1 2.904093 1_655
Bi0_5 Mn0_7 2.904093 1_555
Bi0_6 Mn11_6 2.793307 1_555
Bi0_6 Mn1_7 2.793307 1_554
Bi0_6 Mn9_7 2.904093 1_554
Bi0_6 Mn3_7 2.904093 1_554
Bi0_6 Mn8_2 2.904093 1_655
Bi0_6 Mn0_4 2.904093 1_565
Bi0_7 Mn11_7 2.793307 1_555
Bi0_7 Mn1_6 2.793307 1_555
Bi0_7 Mn3_6 2.904093 1_555
Bi0_7 Mn9_6 2.904093 1_555
Bi0_7 Mn8_3 2.904093 1_655
Bi0_7 Mn0_5 2.904093 1_565
Bi1_0 Mn5_0 3.024646 1_555
Bi1_0 Mn6_0 3.024646 1_555
Bi1_0 Mn10_7 3.024646 1_444
Bi1_0 Mn7_7 3.024646 1_444
Bi1_0 Mn1_0 3.024646 1_555
Bi1_0 Mn11_7 3.024646 1_444
Bi1_0 Bi1_7 3.097460 1_444
Bi1_0 Bi1_7 3.097460 1_555
Bi1_0 Mn11_0 3.154303 1_555
Bi1_0 Mn1_7 3.154303 1_444
Bi1_0 Mn7_0 3.154303 1_555
Bi1_0 Mn10_0 3.154303 1_555
Bi1_0 Mn5_7 3.154303 1_444
Bi1_0 Mn6_7 3.154303 1_444
Bi1_1 Mn5_1 3.024646 1_555
Bi1_1 Mn6_1 3.024646 1_555
Bi1_1 Mn7_6 3.024646 1_445
Bi1_1 Mn10_6 3.024646 1_445
Bi1_1 Mn11_6 3.024646 1_445
Bi1_1 Mn1_1 3.024646 1_555
Bi1_1 Bi1_6 3.097460 1_556
Bi1_1 Bi1_6 3.097460 1_445
Bi1_1 Mn1_6 3.154303 1_445
Bi1_1 Mn11_1 3.154303 1_555
Bi1_1 Mn10_1 3.154303 1_555
Bi1_1 Mn7_1 3.154303 1_555
Bi1_1 Mn5_6 3.154303 1_445
Bi1_1 Mn6_6 3.154303 1_445
Bi1_2 Mn6_2 3.024646 1_555
Bi1_2 Mn5_2 3.024646 1_555
Bi1_2 Mn7_5 3.024646 1_454
Bi1_2 Mn10_5 3.024646 1_454
Bi1_2 Mn1_2 3.024646 1_555
Bi1_2 Mn11_5 3.024646 1_454
Bi1_2 Bi1_5 3.097460 1_454
Bi1_2 Bi1_5 3.097460 1_565
Bi1_2 Mn11_2 3.154303 1_555
Bi1_2 Mn1_5 3.154303 1_454
Bi1_2 Mn10_2 3.154303 1_555
Bi1_2 Mn7_2 3.154303 1_555
Bi1_2 Mn6_5 3.154303 1_454
Bi1_2 Mn5_5 3.154303 1_454
Bi1_3 Mn5_3 3.024646 1_555
Bi1_3 Mn6_3 3.024646 1_555
Bi1_3 Mn7_4 3.024646 1_455
Bi1_3 Mn10_4 3.024646 1_455
Bi1_3 Mn1_3 3.024646 1_555
Bi1_3 Mn11_4 3.024646 1_455
Bi1_3 Bi1_4 3.097460 1_455
Bi1_3 Bi1_4 3.097460 1_566
Bi1_3 Mn11_3 3.154303 1_555
Bi1_3 Mn1_4 3.154303 1_455
Bi1_3 Mn10_3 3.154303 1_555
Bi1_3 Mn7_3 3.154303 1_555
Bi1_3 Mn5_4 3.154303 1_455
Bi1_3 Mn6_4 3.154303 1_455
Bi1_4 Mn5_4 3.024646 1_555
Bi1_4 Mn6_4 3.024646 1_555
Bi1_4 Mn10_3 3.024646 1_544
Bi1_4 Mn7_3 3.024646 1_544
Bi1_4 Mn1_4 3.024646 1_555
Bi1_4 Mn11_3 3.024646 1_544
Bi1_4 Mn11_4 3.154303 1_555
Bi1_4 Mn1_3 3.154303 1_544
Bi1_4 Mn7_4 3.154303 1_555
Bi1_4 Mn10_4 3.154303 1_555
Bi1_4 Mn6_3 3.154303 1_544
Bi1_4 Mn5_3 3.154303 1_544
Bi1_5 Mn5_5 3.024646 1_555
Bi1_5 Mn6_5 3.024646 1_555
Bi1_5 Mn7_2 3.024646 1_545
Bi1_5 Mn10_2 3.024646 1_545
Bi1_5 Mn1_5 3.024646 1_555
Bi1_5 Mn11_2 3.024646 1_545
Bi1_5 Mn11_5 3.154303 1_555
Bi1_5 Mn1_2 3.154303 1_545
Bi1_5 Mn7_5 3.154303 1_555
Bi1_5 Mn10_5 3.154303 1_555
Bi1_5 Mn6_2 3.154303 1_545
Bi1_5 Mn5_2 3.154303 1_545
Bi1_6 Mn5_6 3.024646 1_555
Bi1_6 Mn6_6 3.024646 1_555
Bi1_6 Mn10_1 3.024646 1_554
Bi1_6 Mn7_1 3.024646 1_554
Bi1_6 Mn1_6 3.024646 1_555
Bi1_6 Mn11_1 3.024646 1_554
Bi1_6 Mn11_6 3.154303 1_555
Bi1_6 Mn1_1 3.154303 1_554
Bi1_6 Mn7_6 3.154303 1_555
Bi1_6 Mn10_6 3.154303 1_555
Bi1_6 Mn5_1 3.154303 1_554
Bi1_6 Mn6_1 3.154303 1_554
Bi1_7 Mn5_7 3.024646 1_555
Bi1_7 Mn6_7 3.024646 1_555
Bi1_7 Mn10_0 3.024646 1_555
Bi1_7 Mn7_0 3.024646 1_555
Bi1_7 Mn1_7 3.024646 1_555
Bi1_7 Mn11_0 3.024646 1_555
Bi1_7 Mn11_7 3.154303 1_555
Bi1_7 Mn1_0 3.154303 1_555
Bi1_7 Mn10_7 3.154303 1_555
Bi1_7 Mn7_7 3.154303 1_555
Bi1_7 Mn5_0 3.154303 1_555
Bi1_7 Mn6_0 3.154303 1_555
Bi2_0 Mn10_0 2.793307 1_555
Bi2_0 Mn5_4 2.793307 1_455
Bi2_0 Mn0_4 2.904093 1_455
Bi2_0 Mn9_2 2.904093 1_555
Bi2_0 Mn4_4 2.904093 1_455
Bi2_0 Mn2_1 2.904093 1_555
Bi2_1 Mn10_1 2.793307 1_555
Bi2_1 Mn5_5 2.793307 1_455
Bi2_1 Mn0_5 2.904093 1_455
Bi2_1 Mn9_3 2.904093 1_555
Bi2_1 Mn4_5 2.904093 1_455
Bi2_1 Mn2_0 2.904093 1_556
Bi2_2 Mn5_6 2.793307 1_455
Bi2_2 Mn10_2 2.793307 1_555
Bi2_2 Mn0_6 2.904093 1_455
Bi2_2 Mn9_0 2.904093 1_565
Bi2_2 Mn4_6 2.904093 1_455
Bi2_2 Mn2_3 2.904093 1_555
Bi2_3 Mn5_7 2.793307 1_455
Bi2_3 Mn10_3 2.793307 1_555
Bi2_3 Mn0_7 2.904093 1_455
Bi2_3 Mn9_1 2.904093 1_565
Bi2_3 Mn4_7 2.904093 1_455
Bi2_3 Mn2_2 2.904093 1_556
Bi2_4 Mn10_4 2.793307 1_555
Bi2_4 Mn5_0 2.793307 1_555
Bi2_4 Mn0_0 2.904093 1_555
Bi2_4 Mn9_6 2.904093 1_555
Bi2_4 Mn4_0 2.904093 1_555
Bi2_4 Mn2_5 2.904093 1_555
Bi2_5 Mn10_5 2.793307 1_555
Bi2_5 Mn5_1 2.793307 1_555
Bi2_5 Mn0_1 2.904093 1_555
Bi2_5 Mn9_7 2.904093 1_555
Bi2_5 Mn4_1 2.904093 1_555
Bi2_5 Mn2_4 2.904093 1_556
Bi2_6 Mn5_2 2.793307 1_555
Bi2_6 Mn10_6 2.793307 1_555
Bi2_6 Mn0_2 2.904093 1_555
Bi2_6 Mn9_4 2.904093 1_565
Bi2_6 Mn4_2 2.904093 1_555
Bi2_6 Mn2_7 2.904093 1_555
Bi2_7 Mn10_7 2.793307 1_555
Bi2_7 Mn5_3 2.793307 1_555
Bi2_7 Mn0_3 2.904093 1_555
Bi2_7 Mn9_5 2.904093 1_565
Bi2_7 Mn4_3 2.904093 1_555
Bi2_7 Mn2_6 2.904093 1_556
Bi3_0 Mn7_0 2.793307 1_555
Bi3_0 Mn6_2 2.793307 1_545
Bi3_0 Mn8_2 2.904093 1_545
Bi3_0 Mn3_4 2.904093 1_555
Bi3_0 Mn2_2 2.904093 1_545
Bi3_0 Mn4_1 2.904093 1_555
Bi3_1 Mn7_1 2.793307 1_555
Bi3_1 Mn6_3 2.793307 1_545
Bi3_1 Mn8_3 2.904093 1_545
Bi3_1 Mn3_5 2.904093 1_555
Bi3_1 Mn2_3 2.904093 1_545
Bi3_1 Mn4_0 2.904093 1_556
Bi3_2 Mn7_2 2.793307 1_555
Bi3_2 Mn6_0 2.793307 1_555
Bi3_2 Mn8_0 2.904093 1_555
Bi3_2 Mn3_6 2.904093 1_555
Bi3_2 Mn2_0 2.904093 1_555
Bi3_2 Mn4_3 2.904093 1_555
Bi3_3 Mn7_3 2.793307 1_555
Bi3_3 Mn6_1 2.793307 1_555
Bi3_3 Mn8_1 2.904093 1_555
Bi3_3 Mn3_7 2.904093 1_555
Bi3_3 Mn2_1 2.904093 1_555
Bi3_3 Mn4_2 2.904093 1_556
Bi3_4 Mn6_6 2.793307 1_545
Bi3_4 Mn7_4 2.793307 1_555
Bi3_4 Mn8_6 2.904093 1_545
Bi3_4 Mn3_0 2.904093 1_655
Bi3_4 Mn2_6 2.904093 1_545
Bi3_4 Mn4_5 2.904093 1_555
Bi3_5 Mn6_7 2.793307 1_545
Bi3_5 Mn7_5 2.793307 1_555
Bi3_5 Mn8_7 2.904093 1_545
Bi3_5 Mn3_1 2.904093 1_655
Bi3_5 Mn2_7 2.904093 1_545
Bi3_5 Mn4_4 2.904093 1_556
Bi3_6 Mn6_4 2.793307 1_555
Bi3_6 Mn7_6 2.793307 1_555
Bi3_6 Mn8_4 2.904093 1_555
Bi3_6 Mn3_2 2.904093 1_655
Bi3_6 Mn2_4 2.904093 1_555
Bi3_6 Mn4_7 2.904093 1_555
Bi3_7 Mn7_7 2.793307 1_555
Bi3_7 Mn6_5 2.793307 1_555
Bi3_7 Mn8_5 2.904093 1_555
Bi3_7 Mn3_3 2.904093 1_655
Bi3_7 Mn2_5 2.904093 1_555
Bi3_7 Mn4_6 2.904093 1_556
