# generated using pymatgen
data_Tb2Mn3Si5
_symmetry_space_group_name_H-M   'P 1'
_cell_length_a   10.64095294
_cell_length_b   10.64095294
_cell_length_c   5.48808011
_cell_angle_alpha   90.00000000
_cell_angle_beta   90.00000000
_cell_angle_gamma   90.00000000
_symmetry_Int_Tables_number   1
_chemical_formula_structural   Tb2Mn3Si5
_chemical_formula_sum   'Tb8 Mn12 Si20'
_cell_volume   621.41464938
_cell_formula_units_Z   4
loop_
 _symmetry_equiv_pos_site_id
 _symmetry_equiv_pos_as_xyz
  1  'x, y, z'
loop_
 _atom_site_type_symbol
 _atom_site_label
 _atom_site_symmetry_multiplicity
 _atom_site_fract_x
 _atom_site_fract_y
 _atom_site_fract_z
 _atom_site_occupancy
  Tb  Tb0  1  0.07525865  0.23793870  0.00000000  1
  Tb  Tb1  1  0.57525865  0.26206130  0.50000000  1
  Tb  Tb2  1  0.73793870  0.57525865  0.50000000  1
  Tb  Tb3  1  0.92474135  0.76206130  0.00000000  1
  Tb  Tb4  1  0.42474135  0.73793870  0.50000000  1
  Tb  Tb5  1  0.23793870  0.92474135  0.00000000  1
  Tb  Tb6  1  0.76206130  0.07525865  0.00000000  1
  Tb  Tb7  1  0.26206130  0.42474135  0.50000000  1
  Mn  Mn0  1  0.88186057  0.13995701  0.50000000  1
  Mn  Mn1  1  0.61813943  0.63995701  0.00000000  1
  Mn  Mn2  1  0.38186057  0.36004299  0.00000000  1
  Mn  Mn3  1  0.13995701  0.11813943  0.50000000  1
  Mn  Mn4  1  0.63995701  0.38186057  0.00000000  1
  Mn  Mn5  1  0.50000000  -0.00000000  0.75000000  1
  Mn  Mn6  1  0.36004299  0.61813943  0.00000000  1
  Mn  Mn7  1  0.86004299  0.88186057  0.50000000  1
  Mn  Mn8  1  0.11813943  0.86004299  0.50000000  1
  Mn  Mn9  1  0.50000000  -0.00000000  0.25000000  1
  Mn  Mn10  1  0.00000000  0.50000000  0.25000000  1
  Mn  Mn11  1  0.00000000  0.50000000  0.75000000  1
  Si  Si0  1  0.00000000  -0.00000000  0.75779258  1
  Si  Si1  1  0.67533317  0.82466683  0.25000000  1
  Si  Si2  1  0.47872826  0.81537087  0.00000000  1
  Si  Si3  1  0.81537087  0.52127174  0.00000000  1
  Si  Si4  1  0.31537087  0.97872826  0.50000000  1
  Si  Si5  1  0.97872826  0.68462913  0.50000000  1
  Si  Si6  1  0.18462913  0.47872826  0.00000000  1
  Si  Si7  1  0.67533317  0.82466683  0.75000000  1
  Si  Si8  1  0.17533317  0.67533317  0.25000000  1
  Si  Si9  1  0.02127174  0.31537087  0.50000000  1
  Si  Si10  1  0.50000000  0.50000000  0.74220742  1
  Si  Si11  1  0.17533317  0.67533317  0.75000000  1
  Si  Si12  1  0.32466683  0.17533317  0.75000000  1
  Si  Si13  1  0.32466683  0.17533317  0.25000000  1
  Si  Si14  1  0.50000000  0.50000000  0.25779258  1
  Si  Si15  1  0.52127174  0.18462913  0.00000000  1
  Si  Si16  1  0.82466683  0.32466683  0.75000000  1
  Si  Si17  1  0.00000000  -0.00000000  0.24220742  1
  Si  Si18  1  0.68462913  0.02127174  0.50000000  1
  Si  Si19  1  0.82466683  0.32466683  0.25000000  1
loop_
_geom_bond_atom_site_label_1
_geom_bond_atom_site_label_2
_geom_bond_distance
_geom_bond_site_symmetry_2
Mn0 Si9 2.384274 1_655
Mn0 Si0 2.408299 1_655
Mn0 Si17 2.408299 1_655
Mn0 Si18 2.449418 1_555
Mn0 Si19 2.473049 1_555
Mn0 Si16 2.473049 1_555
Mn0 Tb6 3.103028 1_555
Mn0 Tb6 3.103028 1_556
Mn1 Si2 2.384274 1_555
Mn1 Si10 2.408299 1_554
Mn1 Si14 2.408299 1_555
Mn1 Si3 2.449418 1_555
Mn1 Si1 2.473049 1_555
Mn1 Si7 2.473049 1_554
Mn1 Tb2 3.103028 1_555
Mn1 Tb2 3.103028 1_554
Mn2 Si15 2.384274 1_555
Mn2 Si14 2.408299 1_555
Mn2 Si10 2.408299 1_554
Mn2 Si6 2.449418 1_555
Mn2 Si12 2.473049 1_554
Mn2 Si13 2.473049 1_555
Mn2 Tb7 3.103028 1_554
Mn2 Tb7 3.103028 1_555
Mn3 Si4 2.384274 1_545
Mn3 Si17 2.408299 1_555
Mn3 Si0 2.408299 1_555
Mn3 Si9 2.449418 1_555
Mn3 Si12 2.473049 1_555
Mn3 Si13 2.473049 1_555
Mn3 Tb0 3.103028 1_555
Mn3 Tb0 3.103028 1_556
Mn4 Si3 2.384274 1_555
Mn4 Si14 2.408299 1_555
Mn4 Si10 2.408299 1_554
Mn4 Si15 2.449418 1_555
Mn4 Si19 2.473049 1_555
Mn4 Si16 2.473049 1_554
Mn4 Tb1 3.103028 1_554
Mn4 Tb1 3.103028 1_555
Mn5 Si4 2.406958 1_545
Mn5 Si15 2.406958 1_556
Mn5 Si18 2.406958 1_555
Mn5 Si2 2.406958 1_546
Mn5 Si12 2.638515 1_555
Mn5 Si7 2.638515 1_545
Mn5 Tb6 3.209353 1_556
Mn5 Tb1 3.209353 1_555
Mn5 Tb5 3.209353 1_546
Mn5 Tb4 3.209353 1_545
Mn6 Si6 2.384274 1_555
Mn6 Si14 2.408299 1_555
Mn6 Si10 2.408299 1_554
Mn6 Si2 2.449418 1_555
Mn6 Si8 2.473049 1_555
Mn6 Si11 2.473049 1_554
Mn6 Tb4 3.103028 1_555
Mn6 Tb4 3.103028 1_554
Mn7 Si18 2.384274 1_565
Mn7 Si0 2.408299 1_665
Mn7 Si17 2.408299 1_665
Mn7 Si5 2.449418 1_555
Mn7 Si7 2.473049 1_555
Mn7 Si1 2.473049 1_555
Mn7 Tb3 3.103028 1_556
Mn7 Tb3 3.103028 1_555
Mn8 Si5 2.384274 1_455
Mn8 Si17 2.408299 1_565
Mn8 Si0 2.408299 1_565
Mn8 Si4 2.449418 1_555
Mn8 Si11 2.473049 1_555
Mn8 Si8 2.473049 1_555
Mn8 Tb5 3.103028 1_555
Mn8 Tb5 3.103028 1_556
Mn9 Si4 2.406958 1_545
Mn9 Si15 2.406958 1_555
Mn9 Si18 2.406958 1_555
Mn9 Si2 2.406958 1_545
Mn9 Si1 2.638515 1_545
Mn9 Si13 2.638515 1_555
Mn9 Tb6 3.209353 1_555
Mn9 Tb5 3.209353 1_545
Mn9 Tb1 3.209353 1_555
Mn9 Tb4 3.209353 1_545
Mn10 Si9 2.406958 1_555
Mn10 Si6 2.406958 1_555
Mn10 Si3 2.406958 1_455
Mn10 Si5 2.406958 1_455
Mn10 Si8 2.638515 1_555
Mn10 Si19 2.638515 1_455
Mn10 Tb3 3.209353 1_455
Mn10 Tb7 3.209353 1_555
Mn10 Tb0 3.209353 1_555
Mn10 Tb2 3.209353 1_455
Mn11 Si9 2.406958 1_555
Mn11 Si6 2.406958 1_556
Mn11 Si3 2.406958 1_456
Mn11 Si5 2.406958 1_455
Mn11 Si11 2.638515 1_555
Mn11 Si16 2.638515 1_455
Mn11 Tb3 3.209353 1_456
Mn11 Tb0 3.209353 1_556
Mn11 Tb7 3.209353 1_555
Mn11 Tb2 3.209353 1_455
Si0 Si17 2.658507 1_556
Si0 Tb5 2.969634 1_546
Si0 Tb0 2.969634 1_556
Si0 Tb3 2.969634 1_446
Si0 Tb6 2.969634 1_456
Si1 Si18 2.503788 1_565
Si1 Si2 2.503788 1_555
Si1 Si7 2.744040 1_555
Si1 Si7 2.744040 1_554
Si1 Tb2 3.060987 1_555
Si1 Tb3 3.060987 1_555
Si1 Tb6 3.137601 1_565
Si1 Tb4 3.137601 1_555
Si2 Si7 2.503788 1_554
Si2 Tb5 2.814155 1_555
Si2 Tb4 2.922100 1_555
Si2 Tb4 2.922100 1_554
Si3 Tb3 2.814155 1_555
Si3 Tb2 2.922100 1_555
Si3 Tb2 2.922100 1_554
Si4 Tb4 2.814155 1_555
Si4 Tb5 2.922100 1_555
Si4 Tb5 2.922100 1_556
Si5 Si8 2.503788 1_655
Si5 Tb2 2.814155 1_555
Si5 Tb3 2.922100 1_556
Si5 Tb3 2.922100 1_555
Si6 Si8 2.503788 1_555
Si6 Tb0 2.814155 1_555
Si6 Tb7 2.922100 1_554
Si6 Tb7 2.922100 1_555
Si7 Tb2 3.060987 1_555
Si7 Tb3 3.060987 1_556
Si7 Tb6 3.137601 1_566
Si7 Tb4 3.137601 1_555
Si8 Tb4 3.060987 1_555
Si8 Tb5 3.060987 1_555
Si8 Tb3 3.137601 1_455
Si8 Tb7 3.137601 1_555
Si9 Tb7 2.814155 1_555
Si9 Tb0 2.922100 1_555
Si9 Tb0 2.922100 1_556
Si10 Si14 2.658507 1_555
Si10 Tb4 2.969634 1_555
Si10 Tb2 2.969634 1_555
Si10 Tb7 2.969634 1_555
Si10 Tb1 2.969634 1_555
Si11 Si5 2.503788 1_455
Si11 Si6 2.503788 1_556
Si11 Si8 2.744040 1_555
Si11 Si8 2.744040 1_556
Si11 Tb4 3.060987 1_555
Si11 Tb5 3.060987 1_556
Si11 Tb3 3.137601 1_456
Si11 Tb7 3.137601 1_555
Si12 Si15 2.503788 1_556
Si12 Si4 2.503788 1_545
Si12 Si13 2.744040 1_556
Si12 Si13 2.744040 1_555
Si12 Tb7 3.060987 1_555
Si12 Tb0 3.060987 1_556
Si12 Tb1 3.137601 1_555
Si12 Tb5 3.137601 1_546
Si13 Si15 2.503788 1_555
Si13 Si4 2.503788 1_545
Si13 Tb7 3.060987 1_555
Si13 Tb0 3.060987 1_555
Si13 Tb1 3.137601 1_555
Si13 Tb5 3.137601 1_545
Si14 Tb4 2.969634 1_555
Si14 Tb2 2.969634 1_555
Si14 Tb1 2.969634 1_555
Si14 Tb7 2.969634 1_555
Si15 Tb6 2.814155 1_555
Si15 Tb1 2.922100 1_554
Si15 Tb1 2.922100 1_555
Si16 Si3 2.503788 1_556
Si16 Si9 2.503788 1_655
Si16 Si19 2.744040 1_556
Si16 Si19 2.744040 1_555
Si16 Tb1 3.060987 1_555
Si16 Tb6 3.060987 1_556
Si16 Tb2 3.137601 1_555
Si16 Tb0 3.137601 1_656
Si17 Tb0 2.969634 1_555
Si17 Tb5 2.969634 1_545
Si17 Tb3 2.969634 1_445
Si17 Tb6 2.969634 1_455
Si18 Si7 2.503788 1_545
Si18 Tb1 2.814155 1_555
Si18 Tb6 2.922100 1_556
Si18 Tb6 2.922100 1_555
Si19 Si3 2.503788 1_555
Si19 Si9 2.503788 1_655
Si19 Tb1 3.060987 1_555
Si19 Tb6 3.060987 1_555
Si19 Tb2 3.137601 1_555
Si19 Tb0 3.137601 1_655
