# generated using pymatgen
data_Na2P2H2O7
_symmetry_space_group_name_H-M   'P 1'
_cell_length_a   15.21915904
_cell_length_b   14.31962318
_cell_length_c   7.11453153
_cell_angle_alpha   83.22265891
_cell_angle_beta   69.11852698
_cell_angle_gamma   27.65881411
_symmetry_Int_Tables_number   1
_chemical_formula_structural   Na2P2H2O7
_chemical_formula_sum   'Na8 P8 H8 O28'
_cell_volume   598.55089126
_cell_formula_units_Z   4
loop_
 _symmetry_equiv_pos_site_id
 _symmetry_equiv_pos_as_xyz
  1  'x, y, z'
loop_
 _atom_site_type_symbol
 _atom_site_label
 _atom_site_symmetry_multiplicity
 _atom_site_fract_x
 _atom_site_fract_y
 _atom_site_fract_z
 _atom_site_occupancy
  Na  Na0  1  0.91010400  0.99105400  0.30829300  1
  Na  Na1  1  0.99105400  0.91010400  0.79054900  1
  Na  Na2  1  0.30829300  0.79054900  0.91010400  1
  Na  Na3  1  0.79054900  0.30829300  0.99105400  1
  Na  Na4  1  0.33989600  0.25894600  0.94170700  1
  Na  Na5  1  0.25894600  0.33989600  0.45945100  1
  Na  Na6  1  0.94170700  0.45945100  0.33989600  1
  Na  Na7  1  0.45945100  0.94170700  0.25894600  1
  P  P0  1  0.41164400  0.44556700  0.87302200  1
  P  P1  1  0.44556700  0.41164400  0.26976600  1
  P  P2  1  0.87302200  0.26976600  0.41164400  1
  P  P3  1  0.26976600  0.87302200  0.44556700  1
  P  P4  1  0.83835600  0.80443300  0.37697800  1
  P  P5  1  0.80443300  0.83835600  0.98023400  1
  P  P6  1  0.37697800  0.98023400  0.83835600  1
  P  P7  1  0.98023400  0.37697800  0.80443300  1
  H  H0  1  0.38549100  0.38549100  0.61450900  1
  H  H1  1  0.61450900  0.61450900  0.38549100  1
  H  H2  1  0.86450900  0.86450900  0.63549100  1
  H  H3  1  0.63549100  0.63549100  0.86450900  1
  H  H4  1  0.67632200  0.32367800  0.67632200  1
  H  H5  1  0.32367800  0.67632200  0.32367800  1
  H  H6  1  0.57367800  0.92632200  0.57367800  1
  H  H7  1  0.92632200  0.57367800  0.92632200  1
  O  O0  1  0.36293600  0.40347200  0.79613900  1
  O  O1  1  0.40347200  0.36293600  0.43745300  1
  O  O2  1  0.79613900  0.43745300  0.36293600  1
  O  O3  1  0.43745300  0.79613900  0.40347200  1
  O  O4  1  0.88706400  0.84652800  0.45386100  1
  O  O5  1  0.84652800  0.88706400  0.81254700  1
  O  O6  1  0.45386100  0.81254700  0.88706400  1
  O  O7  1  0.81254700  0.45386100  0.84652800  1
  O  O8  1  0.65846600  0.25607700  0.69709400  1
  O  O9  1  0.25607700  0.65846600  0.38836400  1
  O  O10  1  0.69709400  0.38836400  0.65846600  1
  O  O11  1  0.38836400  0.69709400  0.25607700  1
  O  O12  1  0.59153400  0.99392300  0.55290600  1
  O  O13  1  0.99392300  0.59153400  0.86163600  1
  O  O14  1  0.55290600  0.86163600  0.59153400  1
  O  O15  1  0.86163600  0.55290600  0.99392300  1
  O  O16  1  0.24086900  0.67963400  0.93564700  1
  O  O17  1  0.67963400  0.24086900  0.14384900  1
  O  O18  1  0.93564700  0.14384900  0.24086900  1
  O  O19  1  0.14384900  0.93564700  0.67963400  1
  O  O20  1  0.00913100  0.57036600  0.31435300  1
  O  O21  1  0.57036600  0.00913100  0.10615100  1
  O  O22  1  0.31435300  0.10615100  0.00913100  1
  O  O23  1  0.10615100  0.31435300  0.57036600  1
  O  O24  1  0.40422200  0.40422200  0.09577800  1
  O  O25  1  0.09577800  0.09577800  0.40422200  1
  O  O26  1  0.84577800  0.84577800  0.15422200  1
  O  O27  1  0.15422200  0.15422200  0.84577800  1
loop_
_geom_bond_atom_site_label_1
_geom_bond_atom_site_label_2
_geom_bond_distance
_geom_bond_site_symmetry_2
Na0 O16 2.401229 1_654
Na0 O8 2.429033 1_565
Na0 O4 2.449360 1_555
Na0 O17 2.485729 1_565
Na0 O18 2.508883 1_565
Na0 O9 2.794014 1_655
Na1 O17 2.401225 1_566
Na1 O9 2.429028 1_655
Na1 O5 2.449360 1_555
Na1 O16 2.485723 1_655
Na1 O19 2.508883 1_655
Na1 O8 2.794010 1_565
Na2 O18 2.401227 1_466
Na2 O10 2.429029 1_555
Na2 O6 2.449360 1_555
Na2 O19 2.485731 1_555
Na2 O16 2.508897 1_555
Na2 O11 2.794015 1_556
Na3 O19 2.401230 1_645
Na3 O11 2.429030 1_556
Na3 O7 2.449360 1_555
Na3 O18 2.485724 1_556
Na3 O17 2.508896 1_556
Na3 O10 2.794008 1_555
Na4 O20 2.401229 1_556
Na4 O12 2.429033 1_545
Na4 O0 2.449360 1_555
Na4 O21 2.485729 1_556
Na4 O22 2.508883 1_556
Na4 O13 2.794014 1_455
Na5 O21 2.401225 1_555
Na5 O13 2.429028 1_455
Na5 O1 2.449360 1_555
Na5 O20 2.485723 1_555
Na5 O23 2.508883 1_555
Na5 O12 2.794010 1_545
Na6 O22 2.401227 1_655
Na6 O14 2.429029 1_555
Na6 O2 2.449360 1_555
Na6 O23 2.485731 1_655
Na6 O20 2.508897 1_655
Na6 O15 2.794015 1_554
Na7 O23 2.401230 1_565
Na7 O15 2.429030 1_554
Na7 O3 2.449360 1_555
Na7 O22 2.485724 1_565
Na7 O21 2.508896 1_565
Na7 O14 2.794008 1_555
H0 O1 1.208176 1_555
H0 O0 1.208176 1_555
H1 O3 1.208176 1_555
H1 O2 1.208176 1_555
H2 O5 1.208176 1_555
H2 O4 1.208176 1_555
H3 O7 1.208176 1_555
H3 O6 1.208176 1_555
H4 O8 1.198484 1_555
H4 O10 1.198498 1_555
H5 O9 1.198484 1_555
H5 O11 1.198498 1_555
H6 O12 1.198484 1_555
H6 O14 1.198498 1_555
H7 O13 1.198484 1_555
H7 O15 1.198498 1_555
O0 P0 1.539641 1_555
O1 P1 1.539645 1_555
O2 P2 1.539653 1_555
O3 P3 1.539656 1_555
O4 P4 1.539641 1_555
O5 P5 1.539645 1_555
O6 P6 1.539653 1_555
O7 P7 1.539656 1_555
O8 P0 1.560078 1_555
O9 P1 1.560080 1_555
O10 P2 1.560069 1_555
O11 P3 1.560060 1_555
O12 P4 1.560078 1_555
O13 P5 1.560080 1_555
O14 P6 1.560069 1_555
O15 P7 1.560060 1_555
O16 P0 1.510950 1_555
O17 P1 1.510950 1_555
O18 P2 1.510950 1_555
O19 P3 1.510950 1_555
O20 P4 1.510950 1_455
O21 P5 1.510950 1_544
O22 P6 1.510950 1_544
O23 P7 1.510950 1_455
O24 P1 1.626118 1_555
O24 P0 1.626124 1_554
O25 P3 1.626125 1_545
O25 P2 1.626129 1_455
O26 P5 1.626118 1_554
O26 P4 1.626124 1_555
O27 P7 1.626125 1_455
O27 P6 1.626129 1_545
