# generated using pymatgen
data_Tl4Fe(CN)6
_symmetry_space_group_name_H-M   'P 1'
_cell_length_a   7.36155700
_cell_length_b   7.80870558
_cell_length_c   13.48306158
_cell_angle_alpha   105.20192005
_cell_angle_beta   90.52830080
_cell_angle_gamma   97.93636619
_symmetry_Int_Tables_number   1
_chemical_formula_structural   Tl4Fe(CN)6
_chemical_formula_sum   'Tl8 Fe2 C12 N12'
_cell_volume   739.94124032
_cell_formula_units_Z   2
loop_
 _symmetry_equiv_pos_site_id
 _symmetry_equiv_pos_as_xyz
  1  'x, y, z'
loop_
 _atom_site_type_symbol
 _atom_site_label
 _atom_site_symmetry_multiplicity
 _atom_site_fract_x
 _atom_site_fract_y
 _atom_site_fract_z
 _atom_site_occupancy
  Tl  Tl0  1  0.11956000  0.96728100  0.63418400  1
  Tl  Tl1  1  0.71771500  0.46256400  0.58168000  1
  Tl  Tl2  1  0.88044000  0.03271900  0.36581600  1
  Tl  Tl3  1  0.24337300  0.43264700  0.06834600  1
  Tl  Tl4  1  0.75662700  0.56735300  0.93165400  1
  Tl  Tl5  1  0.64952100  0.02462200  0.85214800  1
  Tl  Tl6  1  0.28228500  0.53743600  0.41832000  1
  Tl  Tl7  1  0.35047900  0.97537800  0.14785200  1
  Fe  Fe0  1  0.77317300  0.49998900  0.25227600  1
  Fe  Fe1  1  0.22682700  0.50001100  0.74772400  1
  C  C0  1  0.58230300  0.64231300  0.25421900  1
  C  C1  1  0.95690100  0.35222500  0.24363400  1
  C  C2  1  0.13936000  0.37227200  0.61360300  1
  C  C3  1  0.41769700  0.35768700  0.74578100  1
  C  C4  1  0.07302900  0.34883300  0.81084200  1
  C  C5  1  0.92697100  0.65116700  0.18915800  1
  C  C6  1  0.04309900  0.64777500  0.75636600  1
  C  C7  1  0.62387500  0.34809800  0.31754500  1
  C  C8  1  0.37612500  0.65190200  0.68245500  1
  C  C9  1  0.32079500  0.63164400  0.87998800  1
  C  C10  1  0.86064000  0.62772800  0.38639700  1
  C  C11  1  0.67920500  0.36835600  0.12001200  1
  N  N0  1  0.97953600  0.25929300  0.85501200  1
  N  N1  1  0.46381200  0.74093700  0.63577100  1
  N  N2  1  0.53618800  0.25906300  0.36422900  1
  N  N3  1  0.08746700  0.29754600  0.52732800  1
  N  N4  1  0.91253300  0.70245400  0.47267200  1
  N  N5  1  0.92939400  0.74378800  0.75976800  1
  N  N6  1  0.02046400  0.74070700  0.14498800  1
  N  N7  1  0.07060600  0.25621200  0.24023200  1
  N  N8  1  0.38472800  0.70404500  0.96416900  1
  N  N9  1  0.54145400  0.27559200  0.74863500  1
  N  N10  1  0.45854600  0.72440800  0.25136500  1
  N  N11  1  0.61527200  0.29595500  0.03583100  1
loop_
_geom_bond_atom_site_label_1
_geom_bond_atom_site_label_2
_geom_bond_distance
_geom_bond_site_symmetry_2
C0 N10 1.189959 1_555
C0 Fe0 1.904406 1_555
C1 N7 1.191985 1_655
C1 Fe0 1.880854 1_555
C2 N3 1.189053 1_555
C2 Fe1 1.880135 1_555
C3 N9 1.189959 1_555
C3 Fe1 1.904406 1_555
C4 N0 1.187556 1_455
C4 Fe1 1.890833 1_555
C5 N6 1.187556 1_655
C5 Fe0 1.890833 1_555
C6 N5 1.191985 1_455
C6 Fe1 1.880854 1_555
C7 N2 1.187149 1_555
C7 Fe0 1.895895 1_555
C8 N1 1.187149 1_555
C8 Fe1 1.895895 1_555
C9 N8 1.187242 1_555
C9 Fe1 1.880127 1_555
C10 N4 1.189053 1_555
C10 Fe0 1.880135 1_555
C11 N11 1.187242 1_555
C11 Fe0 1.880127 1_555
N0 Tl5 2.827253 1_555
N3 Tl2 2.836927 1_455
N3 Tl6 2.909796 1_555
N4 Tl0 2.836927 1_655
N4 Tl1 2.909796 1_555
N6 Tl7 2.827253 1_555
N8 Tl7 2.844891 1_556
N8 Tl3 2.919969 1_556
N9 Tl5 2.875049 1_555
N10 Tl7 2.875049 1_555
N11 Tl5 2.844891 1_554
N11 Tl4 2.919969 1_554
