# generated using pymatgen
data_NiMo3S4
_symmetry_space_group_name_H-M   'P 1'
_cell_length_a   6.41673100
_cell_length_b   6.56910146
_cell_length_c   6.58980680
_cell_angle_alpha   98.21008627
_cell_angle_beta   97.01569426
_cell_angle_gamma   91.39804170
_symmetry_Int_Tables_number   1
_chemical_formula_structural   NiMo3S4
_chemical_formula_sum   'Ni2 Mo6 S8'
_cell_volume   272.62161254
_cell_formula_units_Z   2
loop_
 _symmetry_equiv_pos_site_id
 _symmetry_equiv_pos_as_xyz
  1  'x, y, z'
loop_
 _atom_site_type_symbol
 _atom_site_label
 _atom_site_symmetry_multiplicity
 _atom_site_fract_x
 _atom_site_fract_y
 _atom_site_fract_z
 _atom_site_occupancy
  Ni  Ni0  1  0.16524600  0.90847400  0.94321300  1
  Ni  Ni1  1  0.83475400  0.09152600  0.05678700  1
  Mo  Mo0  1  0.45802200  0.60328700  0.79317700  1
  Mo  Mo1  1  0.78055300  0.45626600  0.59026700  1
  Mo  Mo2  1  0.40781100  0.21282500  0.53545400  1
  Mo  Mo3  1  0.59218900  0.78717500  0.46454600  1
  Mo  Mo4  1  0.21944700  0.54373400  0.40973300  1
  Mo  Mo5  1  0.54197800  0.39671300  0.20682300  1
  S  S0  1  0.64184900  0.28087700  0.85563200  1
  S  S1  1  0.14294000  0.38619100  0.71838600  1
  S  S2  1  0.80283700  0.81155400  0.80684600  1
  S  S3  1  0.26957700  0.87709100  0.63020000  1
  S  S4  1  0.73042300  0.12290900  0.36980000  1
  S  S5  1  0.19716300  0.18844600  0.19315400  1
  S  S6  1  0.85706000  0.61380900  0.28161400  1
  S  S7  1  0.35815100  0.71912300  0.14436800  1
loop_
_geom_bond_atom_site_label_1
_geom_bond_atom_site_label_2
_geom_bond_distance
_geom_bond_site_symmetry_2
Ni0 S3 2.228903 1_555
Ni0 S7 2.231987 1_556
Ni0 S5 2.274058 1_566
Ni0 S2 2.423761 1_455
Ni1 S4 2.228903 1_555
Ni1 S0 2.231987 1_554
Ni1 S2 2.274058 1_544
Ni1 S5 2.423761 1_655
Mo0 S1 2.404069 1_555
Mo0 S3 2.488241 1_555
Mo0 S7 2.495743 1_556
Mo0 S0 2.509726 1_555
Mo0 S2 2.558090 1_555
Mo1 S4 2.439770 1_555
Mo1 S1 2.452665 1_655
Mo1 S0 2.466404 1_555
Mo1 S6 2.503875 1_555
Mo1 S2 2.546976 1_555
Mo2 S0 2.414679 1_555
Mo2 S1 2.416962 1_555
Mo2 S5 2.466224 1_555
Mo2 S4 2.500690 1_555
Mo2 S3 2.544370 1_545
Mo3 S7 2.414679 1_555
Mo3 S6 2.416962 1_555
Mo3 S2 2.466224 1_555
Mo3 S3 2.500690 1_555
Mo3 S4 2.544370 1_565
Mo4 S3 2.439770 1_555
Mo4 S6 2.452665 1_455
Mo4 S7 2.466404 1_555
Mo4 S1 2.503875 1_555
Mo4 S5 2.546976 1_555
Mo5 S6 2.404069 1_555
Mo5 S4 2.488241 1_555
Mo5 S0 2.495743 1_554
Mo5 S7 2.509726 1_555
Mo5 S5 2.558090 1_555
