# generated using pymatgen
data_UAg3(AsO4)3
_symmetry_space_group_name_H-M   'P 1'
_cell_length_a   27.97557400
_cell_length_b   9.09617100
_cell_length_c   11.23187708
_cell_angle_alpha   53.52090952
_cell_angle_beta   90.00000000
_cell_angle_gamma   90.00000000
_symmetry_Int_Tables_number   1
_chemical_formula_structural   UAg3(AsO4)3
_chemical_formula_sum   'U8 Ag24 As24 O96'
_cell_volume   2298.18994098
_cell_formula_units_Z   8
loop_
 _symmetry_equiv_pos_site_id
 _symmetry_equiv_pos_as_xyz
  1  'x, y, z'
loop_
 _atom_site_type_symbol
 _atom_site_label
 _atom_site_symmetry_multiplicity
 _atom_site_fract_x
 _atom_site_fract_y
 _atom_site_fract_z
 _atom_site_occupancy
  U  U0  1  0.14268200  0.24770200  0.14119200  1
  U  U1  1  0.13742100  0.22308600  0.67073000  1
  U  U2  1  0.35731800  0.24770200  0.64119200  1
  U  U3  1  0.36257900  0.22308600  0.17073000  1
  U  U4  1  0.64268200  0.75229800  0.35880800  1
  U  U5  1  0.63742100  0.77691400  0.82927000  1
  U  U6  1  0.85731800  0.75229800  0.85880800  1
  U  U7  1  0.86257900  0.77691400  0.32927000  1
  Ag  Ag0  1  0.31336100  0.69198000  0.21486900  1
  Ag  Ag1  1  0.68663900  0.30802000  0.78513100  1
  Ag  Ag2  1  0.24422600  0.22864300  0.41106200  1
  Ag  Ag3  1  0.81336100  0.30802000  0.28513100  1
  Ag  Ag4  1  0.56464700  0.99366400  0.97451100  1
  Ag  Ag5  1  0.05992800  0.51034800  0.78345300  1
  Ag  Ag6  1  0.43535300  0.00633600  0.02548900  1
  Ag  Ag7  1  0.57243200  0.52228000  0.19775000  1
  Ag  Ag8  1  0.74422600  0.77135700  0.08893800  1
  Ag  Ag9  1  0.07243200  0.47772000  0.30225000  1
  Ag  Ag10  1  0.75577400  0.77135700  0.58893800  1
  Ag  Ag11  1  0.68654200  0.24529000  0.33619200  1
  Ag  Ag12  1  0.55992800  0.48965200  0.71654700  1
  Ag  Ag13  1  0.06464700  0.00633600  0.52548900  1
  Ag  Ag14  1  0.44007200  0.51034800  0.28345300  1
  Ag  Ag15  1  0.25577400  0.22864300  0.91106200  1
  Ag  Ag16  1  0.94007200  0.48965200  0.21654700  1
  Ag  Ag17  1  0.18654200  0.75471000  0.16380800  1
  Ag  Ag18  1  0.81345800  0.24529000  0.83619200  1
  Ag  Ag19  1  0.18663900  0.69198000  0.71486900  1
  Ag  Ag20  1  0.93535300  0.99366400  0.47451100  1
  Ag  Ag21  1  0.42756800  0.47772000  0.80225000  1
  Ag  Ag22  1  0.31345800  0.75471000  0.66380800  1
  Ag  Ag23  1  0.92756800  0.52228000  0.69775000  1
  As  As0  1  0.49368900  0.24285100  0.16342500  1
  As  As1  1  0.99368900  0.75714900  0.33657500  1
  As  As2  1  0.75160900  0.05079700  0.19309200  1
  As  As3  1  0.25160900  0.94920300  0.30690800  1
  As  As4  1  0.10678700  0.74436700  0.43595500  1
  As  As5  1  0.01020700  0.18284500  0.15189300  1
  As  As6  1  0.24839100  0.94920300  0.80690800  1
  As  As7  1  0.39321300  0.74436700  0.93595500  1
  As  As8  1  0.75307500  0.48692100  0.47002500  1
  As  As9  1  0.40147100  0.72670100  0.44230200  1
  As  As10  1  0.09852900  0.72670100  0.94230200  1
  As  As11  1  0.89321300  0.25563300  0.56404500  1
  As  As12  1  0.74692500  0.48692100  0.97002500  1
  As  As13  1  0.74839100  0.05079700  0.69309200  1
  As  As14  1  0.90147100  0.27329900  0.05769800  1
  As  As15  1  0.48979300  0.18284500  0.65189300  1
  As  As16  1  0.00631100  0.24285100  0.66342500  1
  As  As17  1  0.51020700  0.81715500  0.34810700  1
  As  As18  1  0.25307500  0.51307900  0.02997500  1
  As  As19  1  0.98979300  0.81715500  0.84810700  1
  As  As20  1  0.24692500  0.51307900  0.52997500  1
  As  As21  1  0.60678700  0.25563300  0.06404500  1
  As  As22  1  0.50631100  0.75714900  0.83657500  1
  As  As23  1  0.59852900  0.27329900  0.55769800  1
  O  O0  1  0.80163400  0.53462200  0.88720600  1
  O  O1  1  0.67223100  0.75841700  0.49949800  1
  O  O2  1  0.39170000  0.24293400  0.30477000  1
  O  O3  1  0.60243900  0.06898000  0.72825600  1
  O  O4  1  0.88713100  0.74558800  0.71531000  1
  O  O5  1  0.74858800  0.07430900  0.83288200  1
  O  O6  1  0.05595500  0.25147200  0.57061700  1
  O  O7  1  0.62217200  0.45397100  0.03814900  1
  O  O8  1  0.43798700  0.26182800  0.55557700  1
  O  O9  1  0.88558100  0.28343900  0.90760600  1
  O  O10  1  0.38350300  0.75109600  0.08326600  1
  O  O11  1  0.49788600  0.02074300  0.33446700  1
  O  O12  1  0.50211400  0.97925700  0.66553300  1
  O  O13  1  0.95836100  0.24737900  0.55864300  1
  O  O14  1  0.00211400  0.02074300  0.83446700  1
  O  O15  1  0.33721800  0.20854900  0.02895800  1
  O  O16  1  0.61649700  0.24890400  0.91673400  1
  O  O17  1  0.11441900  0.71656100  0.09239400  1
  O  O18  1  0.61286900  0.74558800  0.21531000  1
  O  O19  1  0.54163900  0.24737900  0.05864300  1
  O  O20  1  0.49511400  0.16114900  0.81131400  1
  O  O21  1  0.93798700  0.73817200  0.94442300  1
  O  O22  1  0.29107800  0.09204700  0.79588700  1
  O  O23  1  0.37782800  0.54602900  0.96185100  1
  O  O24  1  0.39756100  0.93102000  0.27174400  1
  O  O25  1  0.61952600  0.44293300  0.56846400  1
  O  O26  1  0.10830000  0.24293400  0.80477000  1
  O  O27  1  0.00105600  0.39502100  0.70099200  1
  O  O28  1  0.66278200  0.79145100  0.97104200  1
  O  O29  1  0.87782800  0.45397100  0.53814900  1
  O  O30  1  0.69367400  0.00611800  0.65317900  1
  O  O31  1  0.19367400  0.99388200  0.84682100  1
  O  O32  1  0.38558100  0.71656100  0.59239400  1
  O  O33  1  0.83721800  0.79145100  0.47104200  1
  O  O34  1  0.75527100  0.47939300  0.62526700  1
  O  O35  1  0.30163400  0.46537800  0.61279400  1
  O  O36  1  0.20892200  0.09204700  0.29588700  1
  O  O37  1  0.61441900  0.28343900  0.40760600  1
  O  O38  1  0.88350300  0.24890400  0.41673400  1
  O  O39  1  0.38047400  0.55706700  0.43153600  1
  O  O40  1  0.00488600  0.16114900  0.31131400  1
  O  O41  1  0.24472900  0.52060700  0.37473300  1
  O  O42  1  0.75141200  0.07430900  0.33288200  1
  O  O43  1  0.32776900  0.24158300  0.50050200  1
  O  O44  1  0.11649700  0.75109600  0.58326600  1
  O  O45  1  0.12217200  0.54602900  0.46185100  1
  O  O46  1  0.46544200  0.66942100  0.47652700  1
  O  O47  1  0.25141200  0.92569100  0.16711800  1
  O  O48  1  0.99894400  0.60497900  0.29900800  1
  O  O49  1  0.38713100  0.25441200  0.78469000  1
  O  O50  1  0.70356300  0.61253100  0.83892100  1
  O  O51  1  0.88047400  0.44293300  0.06846400  1
  O  O52  1  0.89756100  0.06898000  0.22825600  1
  O  O53  1  0.70892200  0.90795300  0.20411300  1
  O  O54  1  0.62353900  0.06708000  0.23348000  1
  O  O55  1  0.25527100  0.52060700  0.87473300  1
  O  O56  1  0.10243900  0.93102000  0.77174400  1
  O  O57  1  0.99788600  0.97925700  0.16553300  1
  O  O58  1  0.23235700  0.73797100  0.47802200  1
  O  O59  1  0.16278200  0.20854900  0.52895800  1
  O  O60  1  0.55595500  0.74852800  0.92938300  1
  O  O61  1  0.74472900  0.47939300  0.12526700  1
  O  O62  1  0.11286900  0.25441200  0.28469000  1
  O  O63  1  0.30632600  0.99388200  0.34682100  1
  O  O64  1  0.19836600  0.46537800  0.11279400  1
  O  O65  1  0.60830000  0.75706600  0.69523000  1
  O  O66  1  0.73235700  0.26202900  0.02197800  1
  O  O67  1  0.24858800  0.92569100  0.66711800  1
  O  O68  1  0.82776900  0.75841700  0.99949800  1
  O  O69  1  0.11952600  0.55706700  0.93153600  1
  O  O70  1  0.76764300  0.26202900  0.52197800  1
  O  O71  1  0.49894400  0.39502100  0.20099200  1
  O  O72  1  0.56201300  0.73817200  0.44442300  1
  O  O73  1  0.79107800  0.90795300  0.70411300  1
  O  O74  1  0.94404500  0.74852800  0.42938300  1
  O  O75  1  0.04163900  0.75262100  0.44135700  1
  O  O76  1  0.53455800  0.33057900  0.52347300  1
  O  O77  1  0.89170000  0.75706600  0.19523000  1
  O  O78  1  0.96544200  0.33057900  0.02347300  1
  O  O79  1  0.17223100  0.24158300  0.00050200  1
  O  O80  1  0.03455800  0.66942100  0.97652700  1
  O  O81  1  0.45836100  0.75262100  0.94135700  1
  O  O82  1  0.20356300  0.38746900  0.66107900  1
  O  O83  1  0.99511400  0.83885100  0.68868600  1
  O  O84  1  0.29643700  0.38746900  0.16107900  1
  O  O85  1  0.87646100  0.06708000  0.73348000  1
  O  O86  1  0.80632600  0.00611800  0.15317900  1
  O  O87  1  0.37646100  0.93292000  0.76652000  1
  O  O88  1  0.12353900  0.93292000  0.26652000  1
  O  O89  1  0.79643700  0.61253100  0.33892100  1
  O  O90  1  0.50488600  0.83885100  0.18868600  1
  O  O91  1  0.44404500  0.25147200  0.07061700  1
  O  O92  1  0.06201300  0.26182800  0.05557700  1
  O  O93  1  0.50105600  0.60497900  0.79900800  1
  O  O94  1  0.69836600  0.53462200  0.38720600  1
  O  O95  1  0.26764300  0.73797100  0.97802200  1
loop_
_geom_bond_atom_site_label_1
_geom_bond_atom_site_label_2
_geom_bond_distance
_geom_bond_site_symmetry_2
Ag0 O10 2.319361 1_555
Ag0 O41 2.452009 1_555
Ag0 O47 2.540621 1_555
Ag0 O39 2.720719 1_555
Ag0 O95 2.750343 1_554
Ag1 O16 2.319361 1_555
Ag1 O34 2.452009 1_555
Ag1 O5 2.540621 1_555
Ag1 O25 2.720719 1_555
Ag1 O66 2.750343 1_556
Ag2 O41 2.435404 1_555
Ag2 O36 2.470620 1_555
Ag2 O67 2.540939 1_545
Ag2 O43 2.574095 1_555
Ag2 O59 2.586582 1_555
Ag2 O84 2.698319 1_555
Ag3 O38 2.319361 1_555
Ag3 O61 2.452009 1_555
Ag3 O42 2.540621 1_555
Ag3 O51 2.720719 1_555
Ag3 O70 2.750343 1_555
Ag4 O16 2.474670 1_565
Ag4 O20 2.478770 1_565
Ag4 O90 2.556748 1_556
Ag4 O60 2.575258 1_555
Ag4 O18 2.640064 1_556
Ag4 O3 2.642770 1_565
Ag5 O27 2.413739 1_555
Ag5 O92 2.497986 1_556
Ag5 O44 2.549685 1_555
Ag5 O69 2.562674 1_555
Ag5 O26 2.666992 1_555
Ag6 O10 2.474670 1_545
Ag6 O90 2.478770 1_545
Ag6 O20 2.556748 1_554
Ag6 O91 2.575258 1_555
Ag6 O49 2.640064 1_554
Ag6 O24 2.642770 1_545
Ag7 O71 2.348993 1_555
Ag7 O37 2.359336 1_555
Ag7 O18 2.433302 1_555
Ag7 O60 2.481426 1_554
Ag7 O7 2.619212 1_555
Ag8 O61 2.435404 1_555
Ag8 O53 2.470620 1_555
Ag8 O5 2.540939 1_564
Ag8 O68 2.574095 1_554
Ag8 O28 2.586582 1_554
Ag8 O89 2.698319 1_555
Ag9 O48 2.348993 1_455
Ag9 O17 2.359336 1_555
Ag9 O62 2.433302 1_555
Ag9 O6 2.481426 1_555
Ag9 O45 2.619212 1_555
Ag10 O34 2.435404 1_555
Ag10 O73 2.470620 1_555
Ag10 O42 2.540939 1_565
Ag10 O1 2.574095 1_555
Ag10 O33 2.586582 1_555
Ag10 O50 2.698319 1_555
Ag11 O37 2.272841 1_555
Ag11 O42 2.404666 1_555
Ag11 O61 2.607348 1_555
Ag12 O93 2.413739 1_555
Ag12 O72 2.497986 1_555
Ag12 O16 2.549685 1_555
Ag12 O25 2.562674 1_555
Ag12 O65 2.666992 1_555
Ag13 O44 2.474670 1_545
Ag13 O83 2.478770 1_445
Ag13 O40 2.556748 1_555
Ag13 O6 2.575258 1_555
Ag13 O62 2.640064 1_555
Ag13 O56 2.642770 1_545
Ag14 O71 2.413739 1_555
Ag14 O8 2.497986 1_555
Ag14 O10 2.549685 1_555
Ag14 O39 2.562674 1_555
Ag14 O2 2.666992 1_555
Ag15 O55 2.435404 1_555
Ag15 O22 2.470620 1_555
Ag15 O47 2.540939 1_546
Ag15 O79 2.574095 1_556
Ag15 O15 2.586582 1_556
Ag15 O82 2.698319 1_555
Ag16 O48 2.413739 1_555
Ag16 O21 2.497986 1_554
Ag16 O38 2.549685 1_555
Ag16 O51 2.562674 1_555
Ag16 O77 2.666992 1_555
Ag17 O17 2.272841 1_555
Ag17 O47 2.404666 1_555
Ag17 O41 2.607348 1_555
Ag18 O9 2.272841 1_555
Ag18 O5 2.404666 1_555
Ag18 O34 2.607348 1_555
Ag19 O44 2.319361 1_555
Ag19 O55 2.452009 1_555
Ag19 O67 2.540621 1_555
Ag19 O69 2.720719 1_555
Ag19 O58 2.750343 1_555
Ag20 O38 2.474670 1_565
Ag20 O40 2.478770 1_665
Ag20 O83 2.556748 1_555
Ag20 O74 2.575258 1_555
Ag20 O4 2.640064 1_555
Ag20 O52 2.642770 1_565
Ag21 O93 2.348993 1_555
Ag21 O32 2.359336 1_555
Ag21 O49 2.433302 1_555
Ag21 O91 2.481426 1_556
Ag21 O23 2.619212 1_555
Ag22 O32 2.272841 1_555
Ag22 O67 2.404666 1_555
Ag22 O55 2.607348 1_555
Ag23 O27 2.348993 1_655
Ag23 O9 2.359336 1_555
Ag23 O4 2.433302 1_555
Ag23 O74 2.481426 1_555
Ag23 O29 2.619212 1_555
As0 O71 1.676314 1_555
As0 O91 1.710083 1_555
As0 O19 1.768779 1_555
As0 O11 1.780769 1_555
As1 O48 1.676314 1_555
As1 O74 1.710083 1_555
As1 O75 1.768779 1_655
As1 O57 1.780769 1_555
As2 O42 1.705954 1_555
As2 O86 1.710537 1_555
As2 O53 1.714188 1_545
As2 O66 1.812380 1_555
As3 O47 1.705954 1_555
As3 O63 1.710537 1_555
As3 O36 1.714188 1_565
As3 O58 1.812380 1_555
As4 O45 1.703153 1_555
As4 O88 1.703484 1_555
As4 O44 1.713356 1_555
As4 O75 1.826591 1_555
As5 O40 1.687353 1_555
As5 O92 1.691979 1_555
As5 O78 1.774796 1_455
As5 O57 1.798432 1_445
As6 O67 1.705954 1_555
As6 O31 1.710537 1_555
As6 O22 1.714188 1_565
As6 O95 1.812380 1_555
As7 O23 1.703153 1_555
As7 O87 1.703484 1_555
As7 O10 1.713356 1_556
As7 O81 1.826591 1_555
As8 O34 1.704945 1_555
As8 O94 1.707664 1_555
As8 O89 1.716052 1_555
As8 O70 1.808848 1_555
As9 O32 1.692099 1_555
As9 O24 1.703661 1_555
As9 O39 1.721173 1_555
As9 O46 1.839523 1_555
As10 O17 1.692099 1_556
As10 O56 1.703661 1_555
As10 O69 1.721173 1_555
As10 O80 1.839523 1_555
As11 O29 1.703153 1_555
As11 O85 1.703484 1_555
As11 O38 1.713356 1_555
As11 O13 1.826591 1_555
As12 O61 1.704945 1_556
As12 O0 1.707664 1_555
As12 O50 1.716052 1_555
As12 O66 1.808848 1_556
As13 O5 1.705954 1_555
As13 O30 1.710537 1_555
As13 O73 1.714188 1_545
As13 O70 1.812380 1_555
As14 O9 1.692099 1_554
As14 O52 1.703661 1_555
As14 O51 1.721173 1_555
As14 O78 1.839523 1_555
As15 O20 1.687353 1_555
As15 O8 1.691979 1_555
As15 O76 1.774796 1_555
As15 O12 1.798432 1_545
As16 O27 1.676314 1_555
As16 O6 1.710083 1_555
As16 O13 1.768779 1_455
As16 O14 1.780769 1_555
As17 O90 1.687353 1_555
As17 O72 1.691979 1_555
As17 O46 1.774796 1_555
As17 O11 1.798432 1_565
As18 O55 1.704945 1_554
As18 O64 1.707664 1_555
As18 O84 1.716052 1_555
As18 O95 1.808848 1_554
As19 O83 1.687353 1_555
As19 O21 1.691979 1_555
As19 O80 1.774796 1_655
As19 O14 1.798432 1_665
As20 O41 1.704945 1_555
As20 O35 1.707664 1_555
As20 O82 1.716052 1_555
As20 O58 1.808848 1_555
As21 O7 1.703153 1_555
As21 O54 1.703484 1_555
As21 O16 1.713356 1_554
As21 O19 1.826591 1_555
As22 O93 1.676314 1_555
As22 O60 1.710083 1_555
As22 O81 1.768779 1_555
As22 O12 1.780769 1_555
As23 O37 1.692099 1_555
As23 O3 1.703661 1_555
As23 O25 1.721173 1_555
As23 O76 1.839523 1_555
O0 U6 2.387042 1_555
O1 U4 1.813313 1_555
O2 U3 1.812755 1_555
O3 U5 2.391420 1_545
O4 U6 1.847717 1_555
O6 U1 2.485950 1_555
O7 U5 2.473989 1_554
O8 U2 2.426370 1_555
O15 U3 1.818476 1_555
O18 U4 1.847717 1_555
O21 U6 2.426370 1_555
O22 U2 2.352112 1_555
O23 U3 2.473989 1_556
O24 U3 2.391420 1_565
O25 U4 2.450364 1_555
O26 U1 1.812755 1_555
O28 U5 1.818476 1_555
O29 U7 2.473989 1_555
O30 U5 2.414947 1_545
O31 U1 2.414947 1_565
O33 U7 1.818476 1_555
O35 U2 2.387042 1_555
O36 U0 2.352112 1_555
O39 U2 2.450364 1_555
O43 U2 1.813313 1_555
O45 U1 2.473989 1_555
O49 U2 1.847717 1_555
O50 U5 2.340651 1_555
O51 U6 2.450364 1_554
O52 U7 2.391420 1_545
O53 U4 2.352112 1_555
O54 U4 2.382072 1_545
O56 U1 2.391420 1_565
O59 U1 1.818476 1_555
O60 U5 2.485950 1_555
O62 U0 1.847717 1_555
O63 U3 2.414947 1_565
O64 U0 2.387042 1_555
O65 U5 1.812755 1_555
O68 U6 1.813313 1_555
O69 U0 2.450364 1_556
O72 U4 2.426370 1_555
O73 U6 2.352112 1_555
O74 U7 2.485950 1_555
O77 U7 1.812755 1_555
O79 U0 1.813313 1_555
O82 U1 2.340651 1_555
O84 U3 2.340651 1_555
O85 U6 2.382072 1_545
O86 U7 2.414947 1_545
O87 U2 2.382072 1_565
O88 U0 2.382072 1_565
O89 U7 2.340651 1_555
O91 U3 2.485950 1_555
O92 U0 2.426370 1_555
O94 U4 2.387042 1_555
