# generated using pymatgen
data_Na2Al2Si3(HO3)4
_symmetry_space_group_name_H-M   'P 1'
_cell_length_a   9.06646777
_cell_length_b   8.94978976
_cell_length_c   7.64012104
_cell_angle_alpha   91.54146354
_cell_angle_beta   79.48017494
_cell_angle_gamma   60.73830251
_symmetry_Int_Tables_number   1
_chemical_formula_structural   Na2Al2Si3(HO3)4
_chemical_formula_sum   'Na4 Al4 Si6 H8 O24'
_cell_volume   526.84740376
_cell_formula_units_Z   2
loop_
 _symmetry_equiv_pos_site_id
 _symmetry_equiv_pos_as_xyz
  1  'x, y, z'
loop_
 _atom_site_type_symbol
 _atom_site_label
 _atom_site_symmetry_multiplicity
 _atom_site_fract_x
 _atom_site_fract_y
 _atom_site_fract_z
 _atom_site_occupancy
  Na  Na0  1  0.47150100  0.64866900  0.84403400  1
  Na  Na1  1  0.10571100  0.00132500  0.36126300  1
  Na  Na2  1  0.34099700  0.28243900  0.72378000  1
  Na  Na3  1  0.92550600  0.30742200  0.92524300  1
  Al  Al0  1  0.92583600  0.68005500  0.93210700  1
  Al  Al1  1  0.67723100  0.86684500  0.71611500  1
  Al  Al2  1  0.43778800  0.57991200  0.44453600  1
  Al  Al3  1  0.59840600  0.21069600  0.95409000  1
  Si  Si0  1  0.74008100  0.05781700  0.29591300  1
  Si  Si1  1  0.99356900  0.45924400  0.58366100  1
  Si  Si2  1  0.07146000  0.90189900  0.03212500  1
  Si  Si3  1  0.33128000  0.95217300  0.60229800  1
  Si  Si4  1  0.73806200  0.29827300  0.60148900  1
  Si  Si5  1  0.27026900  0.55220400  0.14753900  1
  H  H0  1  0.89464100  0.82408300  0.78979500  1
  H  H1  1  0.03862600  0.54508800  0.43837600  1
  H  H2  1  0.11422500  0.83550900  0.83971400  1
  H  H3  1  0.81242500  0.64732700  0.64885300  1
  H  H4  1  0.70237800  0.40877000  0.26433300  1
  H  H5  1  0.65159600  0.58459600  0.12253000  1
  H  H6  1  0.18613400  0.07558600  0.89964900  1
  H  H7  1  0.13203500  0.35638900  0.24518600  1
  O  O0  1  0.04248400  0.48198400  0.78121900  1
  O  O1  1  0.27689900  0.08165700  0.43769400  1
  O  O2  1  0.87861200  0.36501700  0.56979500  1
  O  O3  1  0.20567600  0.27650100  0.45954900  1
  O  O4  1  0.59750000  0.01809000  0.42116600  1
  O  O5  1  0.29327600  0.80410100  0.52426200  1
  O  O6  1  0.69783900  0.75155800  0.98425100  1
  O  O7  1  0.41256600  0.42046700  0.97794500  1
  O  O8  1  0.81167400  0.15147500  0.42236800  1
  O  O9  1  0.64986400  0.19787400  0.16420600  1
  O  O10  1  0.07538500  0.56177100  0.11927100  1
  O  O11  1  0.76339800  0.89287300  0.48256600  1
  O  O12  1  0.63139500  0.53399700  0.28872700  1
  O  O13  1  0.05771800  0.08095800  0.08159100  1
  O  O14  1  0.11713600  0.37790900  0.11866500  1
  O  O15  1  0.23236100  0.74737700  0.11054400  1
  O  O16  1  0.30924500  0.52453000  0.34192200  1
  O  O17  1  0.19976600  0.10355900  0.77256900  1
  O  O18  1  0.89980000  0.88766500  0.13582500  1
  O  O19  1  0.75689300  0.22620600  0.79246200  1
  O  O20  1  0.50983300  0.83409300  0.66455900  1
  O  O21  1  0.55750400  0.06908500  0.84772100  1
  O  O22  1  0.53389100  0.44268300  0.60528800  1
  O  O23  1  0.68588900  0.59225300  0.98320400  1
loop_
_geom_bond_atom_site_label_1
_geom_bond_atom_site_label_2
_geom_bond_distance
_geom_bond_site_symmetry_2
Na0 O23 2.233326 1_555
Na0 O20 2.295036 1_555
Na0 O22 2.338506 1_555
Na0 O15 2.458863 1_556
Na0 O7 2.546198 1_555
Na1 O1 2.160101 1_555
Na1 O8 2.267220 1_455
Na1 O13 2.319729 1_555
Na1 O5 2.348508 1_545
Na1 O15 2.562147 1_545
Na2 O0 2.346461 1_555
Na2 O21 2.346851 1_555
Na2 O17 2.490660 1_555
Na2 O3 2.558479 1_555
Na2 O7 2.613907 1_555
Na2 O22 2.806877 1_555
Na2 O4 2.952058 1_555
Na3 O13 2.291219 1_656
Na3 O17 2.294285 1_655
Na3 O19 2.346779 1_555
Na3 O23 2.363910 1_555
Na3 O0 2.462223 1_655
Na3 O14 2.749398 1_656
Na3 O2 2.846748 1_555
Al0 H0 1.659829 1_555
Al0 O0 1.789406 1_655
Al0 O6 1.798228 1_555
Al0 O10 2.095249 1_656
Al0 O18 2.282998 1_556
Al1 H3 1.728529 1_555
Al1 O21 1.745916 1_565
Al1 O20 1.786478 1_555
Al1 O11 1.881414 1_555
Al1 H0 2.006996 1_555
Al1 O6 2.315439 1_555
Al2 O16 1.759538 1_555
Al2 O12 1.781187 1_555
Al2 O5 1.785035 1_555
Al2 O22 1.789340 1_555
Al3 O21 1.708311 1_555
Al3 O9 1.743246 1_556
Al3 O19 1.779092 1_555
Al3 O7 1.781532 1_555
H1 Si1 1.475248 1_455
H2 Si2 1.477859 1_556
H3 Si1 1.653007 1_555
H4 O12 0.972032 1_555
H5 O23 1.066939 1_554
H5 O12 1.370409 1_555
H6 O17 1.010010 1_555
H6 O13 1.625065 1_556
H6 Na3 2.223379 1_455
H7 O14 1.010934 1_555
O0 Si1 1.682981 1_455
O1 O3 1.526395 1_555
O1 Si3 1.706995 1_545
O2 Si4 1.636620 1_555
O2 Si1 1.644220 1_555
O3 Si1 1.856927 1_455
O4 Si0 1.652020 1_555
O5 Si3 1.645985 1_555
O7 Si5 1.598062 1_556
O8 Si4 1.660391 1_555
O8 Si0 1.665732 1_555
O9 Si0 1.618301 1_555
O10 O14 1.497024 1_555
O10 Si5 1.779995 1_555
O11 O4 1.541550 1_565
O11 Si0 2.043472 1_565
O13 Si2 1.575284 1_545
O15 Si5 1.650549 1_555
O15 Si2 1.670649 1_555
O16 Si5 1.586703 1_555
O17 Si3 1.645963 1_545
O18 Si2 1.677844 1_655
O18 Si0 1.734698 1_565
O19 Si4 1.614912 1_555
O20 Si3 1.612301 1_555
O22 Si4 1.654497 1_555
O23 O6 1.481644 1_555
