# generated using pymatgen
data_LiYb8Ge13
_symmetry_space_group_name_H-M   'P 1'
_cell_length_a   15.33741714
_cell_length_b   12.41100750
_cell_length_c   11.57050826
_cell_angle_alpha   103.56223327
_cell_angle_beta   90.00000000
_cell_angle_gamma   90.00000000
_symmetry_Int_Tables_number   1
_chemical_formula_structural   LiYb8Ge13
_chemical_formula_sum   'Li4 Yb32 Ge52'
_cell_volume   2141.06424543
_cell_formula_units_Z   4
loop_
 _symmetry_equiv_pos_site_id
 _symmetry_equiv_pos_as_xyz
  1  'x, y, z'
loop_
 _atom_site_type_symbol
 _atom_site_label
 _atom_site_symmetry_multiplicity
 _atom_site_fract_x
 _atom_site_fract_y
 _atom_site_fract_z
 _atom_site_occupancy
  Yb  Yb0  1  0.81087491  0.60520245  0.13063976  1
  Yb  Yb1  1  0.18624510  -0.02105937  0.69390444  1
  Yb  Yb2  1  0.03239674  0.93841435  0.15214002  1
  Yb  Yb3  1  0.57866453  0.04491851  0.62962081  1
  Yb  Yb4  1  0.42133547  -0.04491851  0.37037919  1
  Yb  Yb5  1  0.68912509  0.10520245  0.13063976  1
  Yb  Yb6  1  0.18912509  0.39479755  0.86936024  1
  Yb  Yb7  1  0.61985527  0.82352552  0.08269377  1
  Yb  Yb8  1  0.10482633  0.17550686  0.10070266  1
  Yb  Yb9  1  0.92133547  0.54491851  0.62962081  1
  Yb  Yb10  1  0.07866453  0.45508149  0.37037919  1
  Yb  Yb11  1  0.38014473  0.17647448  0.91730623  1
  Yb  Yb12  1  0.39517367  0.67550686  0.10070266  1
  Yb  Yb13  1  0.61581413  0.71113022  0.57729590  1
  Yb  Yb14  1  0.53239674  0.56158565  0.84785998  1
  Yb  Yb15  1  0.88418587  0.21113022  0.57729590  1
  Yb  Yb16  1  0.11581413  0.78886978  0.42270410  1
  Yb  Yb17  1  0.83011256  0.89029567  0.63301638  1
  Yb  Yb18  1  0.46760326  0.43841435  0.15214002  1
  Yb  Yb19  1  0.81375490  0.02105937  0.30609556  1
  Yb  Yb20  1  0.38418587  0.28886978  0.42270410  1
  Yb  Yb21  1  0.31375490  0.47894063  0.69390444  1
  Yb  Yb22  1  0.89517367  0.82449314  0.89929734  1
  Yb  Yb23  1  0.33011256  0.60970433  0.36698362  1
  Yb  Yb24  1  0.68624510  0.52105937  0.30609556  1
  Yb  Yb25  1  0.66988744  0.39029567  0.63301638  1
  Yb  Yb26  1  0.96760326  0.06158565  0.84785998  1
  Yb  Yb27  1  0.11985527  0.67647448  0.91730623  1
  Yb  Yb28  1  0.60482633  0.32449314  0.89929734  1
  Yb  Yb29  1  0.31087491  0.89479755  0.86936024  1
  Yb  Yb30  1  0.16988744  0.10970433  0.36698362  1
  Yb  Yb31  1  0.88014473  0.32352552  0.08269377  1
  Li  Li0  1  0.13072349  0.41834013  0.10649743  1
  Li  Li1  1  0.36927651  0.91834013  0.10649743  1
  Li  Li2  1  0.86927651  0.58165987  0.89350257  1
  Li  Li3  1  0.63072349  0.08165987  0.89350257  1
  Ge  Ge0  1  0.74449444  0.65421924  0.76266441  1
  Ge  Ge1  1  0.56395209  0.19863475  0.46519920  1
  Ge  Ge2  1  0.21255990  -0.01836617  0.10290939  1
  Ge  Ge3  1  0.88506126  0.50473837  0.33097208  1
  Ge  Ge4  1  0.48519336  0.05407438  0.10841878  1
  Ge  Ge5  1  0.69960634  0.92154948  0.47222042  1
  Ge  Ge6  1  0.30039366  0.07845052  0.52777958  1
  Ge  Ge7  1  0.98519336  0.44592562  0.89158122  1
  Ge  Ge8  1  0.93604791  0.69863475  0.46519920  1
  Ge  Ge9  1  0.91609523  0.80951827  0.31167439  1
  Ge  Ge10  1  0.50368551  0.50279343  0.39514823  1
  Ge  Ge11  1  0.58390477  0.30951827  0.31167439  1
  Ge  Ge12  1  0.52402473  0.70541121  0.32739996  1
  Ge  Ge13  1  0.02402473  0.79458879  0.67260004  1
  Ge  Ge14  1  0.49631449  0.49720657  0.60485177  1
  Ge  Ge15  1  0.11139268  0.92143616  0.91478806  1
  Ge  Ge16  1  0.41609523  0.69048173  0.68832561  1
  Ge  Ge17  1  0.88860732  0.07856384  0.08521194  1
  Ge  Ge18  1  0.08390477  0.19048173  0.68832561  1
  Ge  Ge19  1  0.04471893  0.26905911  0.91196818  1
  Ge  Ge20  1  0.45528107  0.76905911  0.91196818  1
  Ge  Ge21  1  0.00368551  -0.00279343  0.60485177  1
  Ge  Ge22  1  0.61493874  0.00473837  0.33097208  1
  Ge  Ge23  1  0.75550556  0.15421924  0.76266441  1
  Ge  Ge24  1  0.71255990  0.51836617  0.89709061  1
  Ge  Ge25  1  0.17939865  0.64392910  0.17657213  1
  Ge  Ge26  1  0.47597527  0.29458879  0.67260004  1
  Ge  Ge27  1  0.11493874  0.49526163  0.66902792  1
  Ge  Ge28  1  0.38860732  0.42143616  0.91478806  1
  Ge  Ge29  1  0.51480664  0.94592562  0.89158122  1
  Ge  Ge30  1  0.24449444  0.84578076  0.23733559  1
  Ge  Ge31  1  0.38506126  -0.00473837  0.66902792  1
  Ge  Ge32  1  0.32060135  0.14392910  0.17657213  1
  Ge  Ge33  1  0.43604791  0.80136525  0.53480080  1
  Ge  Ge34  1  0.80039366  0.42154948  0.47222042  1
  Ge  Ge35  1  0.67939865  0.85607090  0.82342787  1
  Ge  Ge36  1  0.78744010  0.01836617  0.89709061  1
  Ge  Ge37  1  0.28744010  0.48163383  0.10290939  1
  Ge  Ge38  1  0.25660203  0.21912865  0.69974846  1
  Ge  Ge39  1  0.19960634  0.57845052  0.52777958  1
  Ge  Ge40  1  0.24339797  0.71912865  0.69974846  1
  Ge  Ge41  1  -0.04471893  0.73094089  0.08803182  1
  Ge  Ge42  1  0.61139268  0.57856384  0.08521194  1
  Ge  Ge43  1  0.74339797  0.78087135  0.30025154  1
  Ge  Ge44  1  0.25550556  0.34578076  0.23733559  1
  Ge  Ge45  1  0.54471893  0.23094089  0.08803182  1
  Ge  Ge46  1  0.75660203  0.28087135  0.30025154  1
  Ge  Ge47  1  0.82060135  0.35607090  0.82342787  1
  Ge  Ge48  1  -0.02402473  0.20541121  0.32739996  1
  Ge  Ge49  1  0.99631449  0.00279343  0.39514823  1
  Ge  Ge50  1  0.01480664  0.55407438  0.10841878  1
  Ge  Ge51  1  0.06395209  0.30136525  0.53480080  1
loop_
_geom_bond_atom_site_label_1
_geom_bond_atom_site_label_2
_geom_bond_distance
_geom_bond_site_symmetry_2
Li0 Yb6 2.835512 1_554
Li0 Yb8 3.024981 1_555
Li0 Yb10 3.084605 1_555
Li1 Yb29 2.835512 1_554
Li1 Yb12 3.024981 1_555
Li1 Yb4 3.084605 1_565
Li2 Yb0 2.835512 1_556
Li2 Yb22 3.024981 1_555
Li2 Yb9 3.084605 1_555
Li3 Yb5 2.835512 1_556
Li3 Yb28 3.024981 1_555
Li3 Yb3 3.084605 1_555
Ge0 Ge24 2.594590 1_555
Ge0 Ge35 2.634575 1_555
Ge0 Li2 2.721194 1_555
Ge0 Yb13 3.115251 1_555
Ge0 Yb9 3.253764 1_555
Ge0 Yb22 3.277067 1_555
Ge0 Yb25 3.461852 1_555
Ge1 Ge11 2.507884 1_555
Ge1 Ge22 2.657390 1_555
Ge1 Ge26 2.767186 1_555
Ge1 Yb3 3.002002 1_555
Ge1 Yb20 3.058771 1_555
Ge1 Yb25 3.146778 1_555
Ge1 Yb4 3.683730 1_555
Ge2 Li1 2.532097 1_545
Ge2 Ge32 2.593138 1_555
Ge2 Ge30 2.594590 1_545
Ge2 Yb2 2.896718 1_545
Ge2 Yb8 2.923926 1_555
Ge2 Yb29 3.061322 1_544
Ge2 Yb30 3.164325 1_555
Ge3 Ge34 2.492920 1_555
Ge3 Ge8 2.657390 1_555
Ge3 Yb24 3.074023 1_555
Ge3 Yb10 3.088153 1_655
Ge3 Yb0 3.094783 1_555
Ge3 Yb31 3.207202 1_555
Ge3 Yb9 3.419156 1_555
Ge4 Ge45 2.439350 1_555
Ge4 Li1 2.445732 1_545
Ge4 Yb5 3.189873 1_555
Ge4 Yb11 3.371756 1_554
Ge4 Yb7 3.484563 1_545
Ge5 Yb3 2.791795 1_565
Ge5 Yb17 2.820792 1_555
Ge5 Yb19 3.065680 1_565
Ge5 Yb13 3.382136 1_555
Ge6 Yb4 2.791795 1_555
Ge6 Yb30 2.820792 1_555
Ge6 Yb1 3.065680 1_555
Ge6 Yb20 3.382136 1_555
Ge7 Li2 2.445732 1_555
Ge7 Yb6 3.189873 1_655
Ge7 Yb31 3.371756 1_556
Ge7 Yb27 3.484563 1_655
Ge8 Ge9 2.507884 1_555
Ge8 Yb9 3.002002 1_555
Ge8 Yb16 3.058771 1_655
Ge8 Yb17 3.146778 1_555
Ge8 Yb10 3.683730 1_655
Ge9 Yb19 3.072513 1_565
Ge9 Yb2 3.245491 1_655
Ge9 Yb0 3.306199 1_555
Ge9 Yb16 3.354621 1_655
Ge10 Ge14 2.446180 1_555
Ge10 Ge11 2.667206 1_555
Ge10 Yb18 2.792281 1_555
Ge10 Ge12 2.821340 1_555
Ge10 Yb24 3.010415 1_555
Ge10 Yb23 3.026001 1_555
Ge10 Yb20 3.302568 1_555
Ge10 Yb13 3.395470 1_555
Ge11 Ge45 2.612413 1_555
Ge11 Ge46 2.671630 1_555
Ge11 Yb24 3.072513 1_555
Ge11 Yb18 3.245491 1_555
Ge11 Yb5 3.306199 1_555
Ge11 Yb20 3.354621 1_555
Ge12 Ge33 2.767186 1_555
Ge12 Yb13 3.201726 1_555
Ge12 Yb12 3.235251 1_555
Ge12 Yb23 3.274320 1_555
Ge12 Yb24 3.349852 1_555
Ge12 Yb4 3.406886 1_565
Ge13 Ge8 2.767186 1_455
Ge13 Ge21 2.821340 1_565
Ge13 Yb16 3.201726 1_555
Ge13 Yb22 3.235251 1_455
Ge13 Yb17 3.274320 1_455
Ge13 Yb1 3.349852 1_565
Ge13 Yb9 3.406886 1_455
Ge14 Ge16 2.667206 1_555
Ge14 Yb14 2.792281 1_555
Ge14 Ge26 2.821340 1_555
Ge14 Yb21 3.010415 1_555
Ge14 Yb25 3.026001 1_555
Ge14 Yb13 3.302568 1_555
Ge14 Yb20 3.395470 1_555
Ge15 Ge2 2.634564 1_566
Ge15 Yb2 2.963617 1_556
Ge15 Yb26 3.020020 1_465
Ge15 Yb1 3.035556 1_565
Ge15 Yb27 3.049948 1_555
Ge15 Yb29 3.108839 1_555
Ge15 Yb8 3.376290 1_566
Ge15 Yb22 3.517959 1_455
Ge16 Ge33 2.507884 1_555
Ge16 Ge20 2.612413 1_555
Ge16 Ge40 2.671630 1_555
Ge16 Yb21 3.072513 1_555
Ge16 Yb14 3.245491 1_555
Ge16 Yb29 3.306199 1_555
Ge16 Yb13 3.354621 1_555
Ge17 Ge36 2.634564 1_554
Ge17 Yb26 2.963617 1_554
Ge17 Yb2 3.020020 1_645
Ge17 Yb19 3.035556 1_555
Ge17 Yb31 3.049948 1_555
Ge17 Yb5 3.108839 1_555
Ge17 Yb22 3.376290 1_544
Ge17 Yb8 3.517959 1_655
Ge18 Ge51 2.507884 1_555
Ge18 Ge19 2.612413 1_555
Ge18 Ge21 2.667206 1_555
Ge18 Ge38 2.671630 1_555
Ge18 Yb1 3.072513 1_555
Ge18 Yb26 3.245491 1_455
Ge18 Yb6 3.306199 1_555
Ge18 Yb15 3.354621 1_455
Ge19 Ge7 2.439350 1_455
Ge19 Yb26 2.771952 1_455
Ge19 Yb6 2.818612 1_555
Ge19 Yb8 2.855859 1_556
Ge19 Li0 2.878004 1_556
Ge19 Yb31 3.178697 1_456
Ge20 Ge29 2.439350 1_555
Ge20 Yb14 2.771952 1_555
Ge20 Yb29 2.818612 1_555
Ge20 Yb12 2.855859 1_556
Ge20 Li1 2.878004 1_556
Ge20 Yb7 3.178697 1_556
Ge21 Ge49 2.446180 1_455
Ge21 Yb26 2.792281 1_455
Ge21 Yb1 3.010415 1_555
Ge21 Yb17 3.026001 1_445
Ge21 Yb15 3.302568 1_455
Ge21 Yb16 3.395470 1_545
Ge22 Ge5 2.492920 1_545
Ge22 Yb19 3.074023 1_555
Ge22 Yb4 3.088153 1_555
Ge22 Yb5 3.094783 1_555
Ge22 Yb7 3.207202 1_545
Ge22 Yb3 3.419156 1_555
Ge23 Ge36 2.594590 1_555
Ge23 Ge47 2.634575 1_555
Ge23 Li3 2.721194 1_555
Ge23 Yb15 3.115251 1_555
Ge23 Yb3 3.253764 1_555
Ge23 Yb28 3.277067 1_555
Ge23 Yb17 3.461852 1_545
Ge24 Li2 2.532097 1_555
Ge24 Ge47 2.593138 1_555
Ge24 Ge42 2.634564 1_556
Ge24 Yb14 2.896718 1_555
Ge24 Yb28 2.923926 1_555
Ge24 Yb0 3.061322 1_556
Ge24 Yb25 3.164325 1_555
Ge25 Ge37 2.593138 1_555
Ge25 Ge30 2.634575 1_555
Ge25 Ge50 2.797449 1_555
Ge25 Li0 2.826459 1_555
Ge25 Yb16 3.145579 1_555
Ge25 Yb27 3.250305 1_554
Ge25 Yb23 3.288852 1_555
Ge25 Yb12 3.469568 1_555
Ge26 Yb20 3.201726 1_555
Ge26 Yb28 3.235251 1_555
Ge26 Yb25 3.274320 1_555
Ge26 Yb21 3.349852 1_555
Ge26 Yb3 3.406886 1_555
Ge27 Ge39 2.492920 1_555
Ge27 Ge51 2.657390 1_555
Ge27 Yb21 3.074023 1_555
Ge27 Yb9 3.088153 1_455
Ge27 Yb6 3.094783 1_555
Ge27 Yb27 3.207202 1_555
Ge27 Yb10 3.419156 1_555
Ge28 Ge37 2.634564 1_556
Ge28 Yb18 2.963617 1_556
Ge28 Yb14 3.020020 1_555
Ge28 Yb21 3.035556 1_555
Ge28 Yb11 3.049948 1_555
Ge28 Yb6 3.108839 1_555
Ge28 Yb12 3.376290 1_556
Ge28 Yb28 3.517959 1_555
Ge29 Li3 2.445732 1_565
Ge29 Ge35 2.797449 1_555
Ge29 Yb29 3.189873 1_555
Ge29 Yb7 3.371756 1_556
Ge29 Yb11 3.484563 1_565
Ge30 Li1 2.721194 1_555
Ge30 Yb16 3.115251 1_555
Ge30 Yb4 3.253764 1_565
Ge30 Yb12 3.277067 1_555
Ge30 Yb30 3.461852 1_565
Ge31 Ge6 2.492920 1_555
Ge31 Ge33 2.657390 1_545
Ge31 Yb1 3.074023 1_555
Ge31 Yb3 3.088153 1_555
Ge31 Yb29 3.094783 1_545
Ge31 Yb11 3.207202 1_555
Ge31 Yb4 3.419156 1_555
Ge32 Ge44 2.634575 1_555
Ge32 Ge4 2.797449 1_555
Ge32 Li1 2.826459 1_545
Ge32 Yb20 3.145579 1_555
Ge32 Yb11 3.250305 1_554
Ge32 Yb30 3.288852 1_555
Ge32 Yb8 3.469568 1_555
Ge33 Yb4 3.002002 1_565
Ge33 Yb13 3.058771 1_555
Ge33 Yb23 3.146778 1_555
Ge33 Yb3 3.683730 1_565
Ge34 Ge46 2.414398 1_555
Ge34 Yb9 2.791795 1_555
Ge34 Yb25 2.820792 1_555
Ge34 Yb24 3.065680 1_555
Ge34 Yb15 3.382136 1_555
Ge35 Ge36 2.593138 1_565
Ge35 Li3 2.826459 1_565
Ge35 Yb13 3.145579 1_555
Ge35 Yb7 3.250305 1_556
Ge35 Yb17 3.288852 1_555
Ge35 Yb22 3.469568 1_555
Ge36 Li3 2.532097 1_555
Ge36 Yb26 2.896718 1_555
Ge36 Yb22 2.923926 1_545
Ge36 Yb5 3.061322 1_556
Ge36 Yb17 3.164325 1_545
Ge37 Li0 2.532097 1_555
Ge37 Ge44 2.594590 1_555
Ge37 Yb18 2.896718 1_555
Ge37 Yb12 2.923926 1_555
Ge37 Yb6 3.061322 1_554
Ge37 Yb23 3.164325 1_555
Ge38 Ge6 2.414398 1_555
Ge38 Yb6 2.769319 1_555
Ge38 Yb1 3.156057 1_555
Ge38 Yb11 3.291225 1_555
Ge38 Yb21 3.357500 1_555
Ge39 Ge40 2.414398 1_555
Ge39 Yb10 2.791795 1_555
Ge39 Yb23 2.820792 1_555
Ge39 Yb21 3.065680 1_555
Ge39 Yb16 3.382136 1_555
Ge40 Yb29 2.769319 1_555
Ge40 Yb21 3.156057 1_555
Ge40 Yb27 3.291225 1_555
Ge40 Yb1 3.357500 1_565
Ge41 Ge50 2.439350 1_555
Ge41 Ge9 2.612413 1_455
Ge41 Yb2 2.771952 1_555
Ge41 Yb0 2.818612 1_455
Ge41 Yb22 2.855859 1_454
Ge41 Li2 2.878004 1_454
Ge41 Yb27 3.178697 1_554
Ge42 Yb14 2.963617 1_554
Ge42 Yb18 3.020020 1_555
Ge42 Yb24 3.035556 1_555
Ge42 Yb7 3.049948 1_555
Ge42 Yb0 3.108839 1_555
Ge42 Yb28 3.376290 1_554
Ge42 Yb12 3.517959 1_555
Ge43 Ge5 2.414398 1_555
Ge43 Ge9 2.671630 1_555
Ge43 Yb0 2.769319 1_555
Ge43 Yb19 3.156057 1_565
Ge43 Yb7 3.291225 1_555
Ge43 Yb24 3.357500 1_555
Ge44 Li0 2.721194 1_555
Ge44 Yb20 3.115251 1_555
Ge44 Yb10 3.253764 1_555
Ge44 Yb8 3.277067 1_555
Ge44 Yb23 3.461852 1_555
Ge45 Yb18 2.771952 1_555
Ge45 Yb5 2.818612 1_555
Ge45 Yb28 2.855859 1_554
Ge45 Li3 2.878004 1_554
Ge45 Yb11 3.178697 1_554
Ge46 Yb5 2.769319 1_555
Ge46 Yb24 3.156057 1_555
Ge46 Yb31 3.291225 1_555
Ge46 Yb19 3.357500 1_555
Ge47 Ge7 2.797449 1_555
Ge47 Li2 2.826459 1_555
Ge47 Yb15 3.145579 1_555
Ge47 Yb31 3.250305 1_556
Ge47 Yb25 3.288852 1_555
Ge47 Yb28 3.469568 1_555
Ge48 Ge51 2.767186 1_555
Ge48 Ge49 2.821340 1_455
Ge48 Yb15 3.201726 1_455
Ge48 Yb8 3.235251 1_555
Ge48 Yb30 3.274320 1_555
Ge48 Yb19 3.349852 1_455
Ge48 Yb10 3.406886 1_555
Ge49 Ge9 2.667206 1_545
Ge49 Yb2 2.792281 1_645
Ge49 Yb19 3.010415 1_555
Ge49 Yb30 3.026001 1_655
Ge49 Yb16 3.302568 1_645
Ge49 Yb15 3.395470 1_555
Ge50 Li0 2.445732 1_555
Ge50 Yb0 3.189873 1_455
Ge50 Yb27 3.371756 1_554
Ge50 Yb31 3.484563 1_455
Ge51 Yb10 3.002002 1_555
Ge51 Yb15 3.058771 1_455
Ge51 Yb30 3.146778 1_555
Ge51 Yb9 3.683730 1_455
