# generated using pymatgen
data_La4Ag2Se7
_symmetry_space_group_name_H-M   'P 1'
_cell_length_a   12.49945700
_cell_length_b   7.62606000
_cell_length_c   7.99324925
_cell_angle_alpha   70.92007203
_cell_angle_beta   90.00000000
_cell_angle_gamma   90.00000000
_symmetry_Int_Tables_number   1
_chemical_formula_structural   La4Ag2Se7
_chemical_formula_sum   'La8 Ag4 Se14'
_cell_volume   720.07163593
_cell_formula_units_Z   2
loop_
 _symmetry_equiv_pos_site_id
 _symmetry_equiv_pos_as_xyz
  1  'x, y, z'
loop_
 _atom_site_type_symbol
 _atom_site_label
 _atom_site_symmetry_multiplicity
 _atom_site_fract_x
 _atom_site_fract_y
 _atom_site_fract_z
 _atom_site_occupancy
  La  La0  1  0.20439800  0.17653400  0.20057300  1
  La  La1  1  0.93643500  0.56289200  0.05174600  1
  La  La2  1  0.06356500  0.56289200  0.55174600  1
  La  La3  1  0.85306800  0.99141200  0.25675600  1
  La  La4  1  0.79560200  0.17653400  0.70057300  1
  La  La5  1  0.14693200  0.99141200  0.75675600  1
  La  La6  1  0.37356000  0.48068700  0.75558700  1
  La  La7  1  0.62644000  0.48068700  0.25558700  1
  Ag  Ag0  1  0.68964600  0.68465200  0.68109000  1
  Ag  Ag1  1  0.43779100  0.08623500  0.55314200  1
  Ag  Ag2  1  0.56220900  0.08623500  0.05314200  1
  Ag  Ag3  1  0.31035400  0.68465200  0.18109000  1
  Se  Se0  1  0.82933000  0.56861600  0.42130900  1
  Se  Se1  1  0.71384300  0.84745500  0.00284300  1
  Se  Se2  1  0.06833000  0.83260000  0.17843600  1
  Se  Se3  1  0.17067000  0.56861600  0.92130900  1
  Se  Se4  1  0.93167000  0.83260000  0.67843600  1
  Se  Se5  1  0.34826000  0.03812900  0.95110500  1
  Se  Se6  1  0.25358400  0.34749900  0.50384300  1
  Se  Se7  1  0.99668000  0.24518800  0.88751600  1
  Se  Se8  1  0.57681100  0.38810200  0.64005400  1
  Se  Se9  1  0.65174000  0.03812900  0.45110500  1
  Se  Se10  1  0.74641600  0.34749900  0.00384300  1
  Se  Se11  1  0.00332000  0.24518800  0.38751600  1
  Se  Se12  1  0.42318900  0.38810200  0.14005400  1
  Se  Se13  1  0.28615700  0.84745500  0.50284300  1
loop_
_geom_bond_atom_site_label_1
_geom_bond_atom_site_label_2
_geom_bond_distance
_geom_bond_site_symmetry_2
La0 Se13 3.035763 1_545
La0 Se11 3.055401 1_555
La0 Se5 3.114455 1_554
La0 Se3 3.120470 1_554
La0 Se12 3.131432 1_555
La0 Se6 3.165508 1_555
La0 Se2 3.179115 1_545
La0 Se7 3.524259 1_454
La1 Se10 2.982818 1_555
La1 Se4 3.020850 1_554
La1 Se2 3.055423 1_655
La1 Se11 3.085626 1_655
La1 Se3 3.103429 1_654
La1 Se7 3.199963 1_554
La1 Se0 3.256477 1_555
La1 Se1 3.471110 1_555
La2 Se6 2.982818 1_555
La2 Se2 3.020850 1_555
La2 Se4 3.055423 1_455
La2 Se7 3.085626 1_455
La2 Se0 3.103429 1_455
La2 Se11 3.199963 1_555
La2 Se3 3.256477 1_555
La2 Se13 3.471110 1_555
La3 Se9 3.038879 1_565
La3 Se0 3.072684 1_555
La3 Se2 3.097423 1_655
La3 Se10 3.106302 1_565
La3 Se11 3.112467 1_665
La3 Se1 3.132024 1_555
La3 Se4 3.335289 1_555
La3 Se7 3.456056 1_564
La4 Se1 3.035763 1_546
La4 Se7 3.055401 1_555
La4 Se9 3.114455 1_555
La4 Se0 3.120470 1_555
La4 Se8 3.131432 1_555
La4 Se10 3.165508 1_556
La4 Se4 3.179115 1_545
La4 Se11 3.524259 1_655
La5 Se5 3.038879 1_565
La5 Se3 3.072684 1_555
La5 Se4 3.097423 1_455
La5 Se6 3.106302 1_565
La5 Se7 3.112467 1_465
La5 Se13 3.132024 1_555
La5 Se2 3.335289 1_556
La5 Se11 3.456056 1_565
La6 Se8 2.869129 1_555
La6 Se6 2.943794 1_555
La6 Se12 2.984788 1_556
La6 Se3 3.035860 1_555
La6 Se13 3.066575 1_555
La6 Se5 3.237985 1_555
La7 Se12 2.869129 1_555
La7 Se10 2.943794 1_555
La7 Se8 2.984788 1_555
La7 Se0 3.035860 1_555
La7 Se1 3.066575 1_555
La7 Se9 3.237985 1_555
Ag0 Se9 2.762362 1_565
Ag0 Se8 2.774192 1_555
Ag0 Se0 3.056893 1_555
Ag0 Se10 3.071375 1_556
Ag0 Se1 3.214791 1_556
Ag0 Se4 3.226363 1_555
Ag1 Se13 2.747448 1_545
Ag1 Se9 2.854297 1_555
Ag1 Se6 2.985490 1_555
Ag1 Se8 3.138017 1_555
Ag1 Se5 3.277632 1_555
Ag1 Se12 3.356480 1_555
Ag2 Se1 2.747448 1_545
Ag2 Se5 2.854297 1_554
Ag2 Se10 2.985490 1_555
Ag2 Se12 3.138017 1_555
Ag2 Se9 3.277632 1_555
Ag2 Se8 3.356480 1_554
Ag3 Se5 2.762362 1_564
Ag3 Se12 2.774192 1_555
Ag3 Se3 3.056893 1_554
Ag3 Se6 3.071375 1_555
Ag3 Se13 3.214791 1_555
Ag3 Se2 3.226363 1_555
