# generated using pymatgen
data_Rb8BaNaAl11Si13O48
_symmetry_space_group_name_H-M   'P 1'
_cell_length_a   12.61196200
_cell_length_b   12.27086115
_cell_length_c   12.24164536
_cell_angle_alpha   90.05717882
_cell_angle_beta   90.38534012
_cell_angle_gamma   90.28059533
_symmetry_Int_Tables_number   1
_chemical_formula_structural   Rb8BaNaAl11Si13O48
_chemical_formula_sum   'Rb8 Ba1 Na1 Al11 Si13 O48'
_cell_volume   1894.44599115
_cell_formula_units_Z   1
loop_
 _symmetry_equiv_pos_site_id
 _symmetry_equiv_pos_as_xyz
  1  'x, y, z'
loop_
 _atom_site_type_symbol
 _atom_site_label
 _atom_site_symmetry_multiplicity
 _atom_site_fract_x
 _atom_site_fract_y
 _atom_site_fract_z
 _atom_site_occupancy
  Rb  Rb0  1  0.01607700  0.52026400  0.52694600  1
  Rb  Rb1  1  0.55744000  0.53767800  0.97386100  1
  Rb  Rb2  1  0.55632900  0.97343000  0.53615300  1
  Rb  Rb3  1  0.72565400  0.29197100  0.28209600  1
  Rb  Rb4  1  0.74178800  0.24074600  0.76159600  1
  Rb  Rb5  1  0.73722500  0.76320300  0.24250700  1
  Rb  Rb6  1  0.25211200  0.33553000  0.32639500  1
  Rb  Rb7  1  0.00166800  0.86640500  0.88686700  1
  Ba  Ba0  1  0.82477800  0.10295100  0.10011000  1
  Na  Na0  1  0.15275900  0.16251900  0.16117600  1
  Al  Al0  1  0.99888300  0.61929900  0.80907500  1
  Al  Al1  1  0.60656900  0.19309700  0.00494500  1
  Al  Al2  1  0.60643600  0.00941900  0.19169300  1
  Al  Al3  1  0.61785900  0.81255900  0.99435800  1
  Al  Al4  1  0.61805700  0.99133800  0.81276500  1
  Al  Al5  1  0.82457500  0.36798000  0.00686200  1
  Al  Al6  1  0.81802100  0.63517400  0.00066700  1
  Al  Al7  1  0.82531000  0.00834300  0.36507400  1
  Al  Al8  1  0.81865800  0.99740100  0.63281000  1
  Al  Al9  1  0.00570700  0.19138500  0.37747800  1
  Al  Al10  1  0.00503400  0.37607900  0.18990800  1
  Si  Si0  1  0.00607200  0.36809800  0.81727600  1
  Si  Si1  1  0.00671800  0.82044700  0.36687400  1
  Si  Si2  1  0.00130300  0.81074800  0.62085600  1
  Si  Si3  1  0.18628500  0.37896200  0.99892300  1
  Si  Si4  1  0.18391100  0.62671800  0.99883800  1
  Si  Si5  1  0.18699800  0.99960000  0.37736700  1
  Si  Si6  1  0.18401300  0.99557000  0.62530600  1
  Si  Si7  1  0.36321000  0.18600100  0.99883300  1
  Si  Si8  1  0.36752100  0.81519400  0.00011500  1
  Si  Si9  1  0.36477300  0.00288500  0.18554700  1
  Si  Si10  1  0.36703400  0.99664300  0.81553300  1
  Si  Si11  1  0.00458900  0.17812700  0.63509600  1
  Si  Si12  1  0.00365100  0.63454700  0.18172900  1
  O  O0  1  0.99554400  0.23162100  0.51433200  1
  O  O1  1  0.02185800  0.27790100  0.72142800  1
  O  O2  1  0.01928900  0.71371900  0.29006500  1
  O  O3  1  0.99022000  0.48486600  0.75646800  1
  O  O4  1  0.01796700  0.69904300  0.68889000  1
  O  O5  1  0.12170600  0.11030400  0.35143900  1
  O  O6  1  0.12107400  0.34795400  0.10957100  1
  O  O7  1  0.11307100  0.10362000  0.64110700  1
  O  O8  1  0.11213600  0.64408500  0.10847100  1
  O  O9  1  0.11745100  0.37053000  0.88749400  1
  O  O10  1  0.11875700  0.88799100  0.36369300  1
  O  O11  1  0.11690400  0.64028900  0.88750200  1
  O  O12  1  0.11204100  0.88485400  0.63647700  1
  O  O13  1  0.23874600  0.00020100  0.50173300  1
  O  O14  1  0.23850800  0.50229900  0.00763100  1
  O  O15  1  0.27573000  0.28333100  0.99479900  1
  O  O16  1  0.27599800  0.99670800  0.71787600  1
  O  O17  1  0.27793200  0.71826000  0.00642000  1
  O  O18  1  0.27686300  0.99866200  0.28294600  1
  O  O19  1  0.33015500  0.11441300  0.11227300  1
  O  O20  1  0.34843900  0.10585500  0.89358200  1
  O  O21  1  0.35102200  0.89644100  0.10734300  1
  O  O22  1  0.33884800  0.89064500  0.89273400  1
  O  O23  1  0.47717700  0.01522100  0.24674400  1
  O  O24  1  0.47670000  0.24595400  0.00856900  1
  O  O25  1  0.48170900  0.99538100  0.75960800  1
  O  O26  1  0.48218900  0.75964300  0.99767600  1
  O  O27  1  0.63194800  0.14024200  0.13687900  1
  O  O28  1  0.62946300  0.10311100  0.90068700  1
  O  O29  1  0.62691200  0.90368400  0.10354400  1
  O  O30  1  0.64643000  0.86746400  0.86941300  1
  O  O31  1  0.69957900  0.01769300  0.70022000  1
  O  O32  1  0.71498500  0.28173700  0.99746800  1
  O  O33  1  0.69774300  0.70079600  0.02601000  1
  O  O34  1  0.71621600  0.00155400  0.27866700  1
  O  O35  1  0.77992400  0.49873500  0.01216500  1
  O  O36  1  0.78105500  0.00464000  0.49655700  1
  O  O37  1  0.89337100  0.12835700  0.31840200  1
  O  O38  1  0.90112800  0.10973100  0.67030900  1
  O  O39  1  0.89253700  0.31738100  0.12666000  1
  O  O40  1  0.90817300  0.33272900  0.89498000  1
  O  O41  1  0.90012600  0.67395000  0.11599200  1
  O  O42  1  0.89427100  0.66674400  0.88541000  1
  O  O43  1  0.90856700  0.89537200  0.32961100  1
  O  O44  1  0.90152400  0.88173200  0.66150400  1
  O  O45  1  0.04377800  0.30876000  0.30858400  1
  O  O46  1  0.99495600  0.51210400  0.23074600  1
  O  O47  1  0.99229300  0.77108300  0.49138700  1
loop_
_geom_bond_atom_site_label_1
_geom_bond_atom_site_label_2
_geom_bond_distance
_geom_bond_site_symmetry_2
Ba0 O27 2.520250 1_555
Ba0 O39 2.780628 1_555
Ba0 O37 2.819772 1_555
Ba0 O34 2.868731 1_555
Ba0 O32 2.884629 1_554
Na0 O19 2.396383 1_555
Na0 O6 2.396833 1_555
Na0 O5 2.449807 1_555
Al0 O42 1.725083 1_555
Al0 O3 1.772864 1_555
Al0 O11 1.783305 1_655
Al0 O4 1.784766 1_655
Al1 O28 1.713716 1_554
Al1 O32 1.745960 1_554
Al1 O24 1.765418 1_555
Al1 O27 1.768837 1_555
Al2 O29 1.708437 1_545
Al2 O34 1.744004 1_555
Al2 O27 1.769408 1_555
Al2 O23 1.769924 1_555
Al3 O30 1.711817 1_555
Al3 O29 1.744599 1_556
Al3 O33 1.747952 1_556
Al3 O26 1.827873 1_555
Al4 O30 1.709842 1_555
Al4 O28 1.747377 1_565
Al4 O31 1.754003 1_565
Al4 O25 1.835439 1_555
Al5 O35 1.704352 1_555
Al5 O32 1.739767 1_554
Al5 O40 1.788099 1_554
Al5 O39 1.805825 1_555
Al6 O35 1.745622 1_555
Al6 O33 1.750304 1_555
Al6 O42 1.755362 1_554
Al6 O41 1.807188 1_555
Al7 O36 1.707712 1_555
Al7 O34 1.731474 1_555
Al7 O37 1.796641 1_555
Al7 O43 1.797753 1_545
Al8 O36 1.733483 1_565
Al8 O31 1.737342 1_565
Al8 O38 1.780666 1_565
Al8 O44 1.800219 1_555
Al9 O45 1.737057 1_555
Al9 O0 1.751784 1_455
Al9 O37 1.761473 1_455
Al9 O5 1.803245 1_555
Al10 O45 1.740271 1_555
Al10 O46 1.747395 1_455
Al10 O39 1.762212 1_455
Al10 O6 1.803256 1_555
O0 Si11 1.621671 1_655
O1 Si0 1.626057 1_555
O1 Si11 1.629420 1_555
O2 Si1 1.620491 1_555
O2 Si12 1.653359 1_555
O3 Si0 1.627901 1_655
O3 Rb0 2.864080 1_655
O4 Si2 1.618461 1_555
O4 Rb0 2.955254 1_555
O4 Rb7 3.183458 1_555
O5 Si5 1.622490 1_545
O6 Si3 1.633657 1_554
O7 Si6 1.615330 1_545
O7 Si11 1.650521 1_555
O8 Si4 1.638202 1_554
O8 Si12 1.644715 1_555
O9 Si3 1.614920 1_555
O9 Si0 1.642034 1_555
O10 Si5 1.621863 1_555
O10 Si1 1.635376 1_555
O11 Si4 1.608055 1_555
O11 Rb7 3.138518 1_555
O12 Si6 1.636563 1_555
O12 Si2 1.672619 1_555
O12 Rb7 3.382310 1_555
O13 Si5 1.652393 1_545
O13 Si6 1.667914 1_545
O14 Si3 1.650657 1_554
O14 Si4 1.681145 1_554
O15 Si7 1.630459 1_555
O15 Si3 1.632716 1_555
O16 Si6 1.616274 1_555
O16 Si10 1.651956 1_555
O17 Si4 1.631495 1_554
O17 Si8 1.638790 1_555
O18 Si5 1.624322 1_555
O18 Si9 1.634294 1_565
O19 Si9 1.694452 1_555
O19 Si7 1.697223 1_554
O20 Si7 1.629245 1_555
O20 Si10 1.663536 1_545
O21 Si9 1.626559 1_565
O21 Si8 1.662344 1_555
O22 Si10 1.647346 1_555
O22 Si8 1.647800 1_556
O23 Si9 1.605372 1_555
O24 Si7 1.609767 1_554
O25 Si10 1.604422 1_555
O25 Rb2 2.911459 1_555
O26 Si8 1.602251 1_556
O26 Rb1 2.903742 1_555
O27 Rb3 2.822577 1_555
O28 Rb4 2.788045 1_555
O29 Rb5 2.792589 1_555
O31 Rb2 2.744506 1_545
O31 Rb4 2.883678 1_555
O32 Rb4 2.952389 1_555
O33 Rb1 2.737265 1_554
O33 Rb5 2.798718 1_555
O34 Rb5 2.971031 1_545
O35 Rb1 2.884011 1_554
O36 Rb2 2.902194 1_545
O37 Rb3 2.955216 1_555
O38 Si11 1.609469 1_655
O38 Rb4 2.816047 1_555
O39 Rb3 2.862921 1_555
O40 Si0 1.621433 1_655
O40 Rb4 2.875873 1_555
O41 Si12 1.605904 1_655
O41 Rb5 2.807231 1_555
O42 Rb7 2.793671 1_655
O43 Si1 1.609377 1_655
O43 Rb5 2.892798 1_555
O44 Si2 1.614990 1_655
O44 Rb7 3.032840 1_655
O45 Rb6 2.653847 1_555
O46 Si12 1.621914 1_655
O47 Si1 1.651614 1_655
O47 Si2 1.660500 1_655
O47 Rb0 3.124430 1_655
