# generated using pymatgen
data_La5In3Br
_symmetry_space_group_name_H-M   'P 1'
_cell_length_a   9.81208485
_cell_length_b   9.81220824
_cell_length_c   6.94584090
_cell_angle_alpha   90.00058756
_cell_angle_beta   90.00063898
_cell_angle_gamma   119.99959527
_symmetry_Int_Tables_number   1
_chemical_formula_structural   La5In3Br
_chemical_formula_sum   'La10 In6 Br2'
_cell_volume   579.14229869
_cell_formula_units_Z   2
loop_
 _symmetry_equiv_pos_site_id
 _symmetry_equiv_pos_as_xyz
  1  'x, y, z'
loop_
 _atom_site_type_symbol
 _atom_site_label
 _atom_site_symmetry_multiplicity
 _atom_site_fract_x
 _atom_site_fract_y
 _atom_site_fract_z
 _atom_site_occupancy
  La  La0  1  0.73339014  0.73335972  0.24995471  1
  La  La1  1  -0.00001828  0.73334994  0.75001180  1
  La  La2  1  0.73337572  0.00001834  0.75001262  1
  La  La3  1  0.33330460  0.66667482  0.49994267  1
  La  La4  1  0.26663314  0.26663486  0.75000855  1
  La  La5  1  0.00001853  0.26663852  0.24999138  1
  La  La6  1  0.66669105  0.33334077  0.49993544  1
  La  La7  1  0.26661504  0.99998373  0.24999055  1
  La  La8  1  0.33330353  0.66667381  0.00006101  1
  La  La9  1  0.66669035  0.33334070  0.00007038  1
  In  In0  1  0.38943289  0.99993580  0.75000922  1
  In  In1  1  0.00005747  0.61055012  0.25000156  1
  In  In2  1  0.61048239  0.99994856  0.25000614  1
  In  In3  1  0.00006366  0.38953119  0.75000273  1
  In  In4  1  0.38946067  0.38950549  0.25000176  1
  In  In5  1  0.61047935  0.61053005  0.74999687  1
  Br  Br0  1  0.00000656  0.99998876  0.49998710  1
  Br  Br1  1  0.00001520  0.99999783  0.00001650  1
loop_
_geom_bond_atom_site_label_1
_geom_bond_atom_site_label_2
_geom_bond_distance
_geom_bond_site_symmetry_2
In0 La2 3.374391 1_565
In0 La1 3.383673 1_555
In0 La4 3.384253 1_565
In0 La8 3.494596 1_556
In0 La3 3.494602 1_555
In0 La9 3.495723 1_566
In0 La6 3.495833 1_565
In0 La7 3.676030 1_556
In0 La7 3.676250 1_555
In1 La5 3.374341 1_555
In1 La7 3.383516 1_555
In1 La0 3.384008 1_455
In1 La3 3.494025 1_555
In1 La8 3.494059 1_555
In1 La9 3.494914 1_455
In1 La6 3.494983 1_455
In1 La1 3.676077 1_554
In1 La1 3.676188 1_555
In2 La7 3.374228 1_555
In2 La0 3.384011 1_555
In2 La5 3.384505 1_665
In2 La8 3.494385 1_555
In2 La3 3.494410 1_555
In2 La6 3.494987 1_565
In2 La9 3.495051 1_565
In2 La2 3.676164 1_564
In2 La2 3.676224 1_565
In3 La1 3.374023 1_555
In3 La4 3.383727 1_555
In3 La2 3.384360 1_455
In3 La8 3.494466 1_556
In3 La3 3.494545 1_555
In3 La6 3.495316 1_455
In3 La9 3.495364 1_456
In3 La5 3.676173 1_556
In3 La5 3.676299 1_555
In4 La0 3.374338 1_555
In4 La5 3.383566 1_555
In4 La7 3.384401 1_545
In4 La3 3.494623 1_555
In4 La8 3.494641 1_555
In4 La6 3.495131 1_555
In4 La9 3.495142 1_555
In4 La4 3.676100 1_554
In4 La4 3.676237 1_555
In5 La4 3.374130 1_555
In5 La2 3.383985 1_565
In5 La1 3.384224 1_655
In5 La3 3.494972 1_555
In5 La8 3.495034 1_556
In5 La6 3.495505 1_555
In5 La9 3.495565 1_556
In5 La0 3.675936 1_556
In5 La0 3.676538 1_555
Br0 La7 3.139876 1_555
Br0 La0 3.140089 1_455
Br0 La1 3.140136 1_555
Br0 La4 3.140158 1_565
Br0 La5 3.140167 1_565
Br0 La2 3.140270 1_465
Br1 La7 3.139723 1_555
Br1 La0 3.139862 1_455
Br1 La5 3.140018 1_565
Br1 La1 3.140068 1_554
Br1 La4 3.140096 1_564
Br1 La2 3.140188 1_464
