# generated using pymatgen
data_Sr18ThCl40
_symmetry_space_group_name_H-M   'P 1'
_cell_length_a   4.97431973
_cell_length_b   4.97431972
_cell_length_c   94.93835306
_cell_angle_alpha   60.14490021
_cell_angle_beta   60.14490032
_cell_angle_gamma   59.99889787
_symmetry_Int_Tables_number   1
_chemical_formula_structural   Sr18ThCl40
_chemical_formula_sum   'Sr18 Th1 Cl40'
_cell_volume   1664.70838848
_cell_formula_units_Z   1
loop_
 _symmetry_equiv_pos_site_id
 _symmetry_equiv_pos_as_xyz
  1  'x, y, z'
loop_
 _atom_site_type_symbol
 _atom_site_label
 _atom_site_symmetry_multiplicity
 _atom_site_fract_x
 _atom_site_fract_y
 _atom_site_fract_z
 _atom_site_occupancy
  Sr  Sr0  1  0.99624873  0.99624873  0.05322493  1
  Sr  Sr1  1  0.99729564  0.99729564  0.10568865  1
  Sr  Sr2  1  0.99995775  0.99995775  0.15790048  1
  Sr  Sr3  1  -0.00000508  -0.00000508  0.21052542  1
  Sr  Sr4  1  0.99999561  0.99999561  0.26315863  1
  Sr  Sr5  1  0.99999630  0.99999630  0.31579259  1
  Sr  Sr6  1  0.99998593  0.99998593  0.36842110  1
  Sr  Sr7  1  0.99998991  0.99998991  0.42105260  1
  Sr  Sr8  1  0.00000036  0.00000036  0.47368612  1
  Sr  Sr9  1  -0.00000036  -0.00000036  0.52631388  1
  Sr  Sr10  1  0.00001009  0.00001009  0.57894740  1
  Sr  Sr11  1  0.00001407  0.00001407  0.63157890  1
  Sr  Sr12  1  0.00000370  0.00000370  0.68420741  1
  Sr  Sr13  1  0.00000439  0.00000439  0.73684137  1
  Sr  Sr14  1  0.00000508  0.00000508  0.78947458  1
  Sr  Sr15  1  0.00004225  0.00004225  0.84209952  1
  Sr  Sr16  1  0.00270436  0.00270436  0.89431135  1
  Sr  Sr17  1  0.00375127  0.00375127  0.94677507  1
  Th  Th0  1  0.00000000  0.00000000  0.00000000  1
  Cl  Cl0  1  0.24826882  0.24826882  0.01342820  1
  Cl  Cl1  1  0.52039185  0.52039185  0.02309201  1
  Cl  Cl2  1  0.24156010  0.24156010  0.06712627  1
  Cl  Cl3  1  0.75316349  0.75316349  0.03897218  1
  Cl  Cl4  1  0.24842514  0.24842514  0.11867108  1
  Cl  Cl5  1  0.74875953  0.74875953  0.09230402  1
  Cl  Cl6  1  0.24955256  0.24955256  0.17112301  1
  Cl  Cl7  1  0.74935970  0.74935970  0.14484030  1
  Cl  Cl8  1  0.24954612  0.24954612  0.22375464  1
  Cl  Cl9  1  0.75045277  0.75045277  0.19729768  1
  Cl  Cl10  1  0.24955157  0.24955157  0.27638627  1
  Cl  Cl11  1  0.75043960  0.75043960  0.24993208  1
  Cl  Cl12  1  0.24957376  0.24957376  0.32901378  1
  Cl  Cl13  1  0.75047674  0.75047674  0.30255817  1
  Cl  Cl14  1  0.24951436  0.24951436  0.38164909  1
  Cl  Cl15  1  0.24952617  0.24952617  0.43428277  1
  Cl  Cl16  1  0.75045455  0.75045455  0.35518961  1
  Cl  Cl17  1  0.24954345  0.24954345  0.48691288  1
  Cl  Cl18  1  0.75042774  0.75042774  0.40782589  1
  Cl  Cl19  1  0.75044909  0.75044909  0.46045772  1
  Cl  Cl20  1  0.24955091  0.24955091  0.53954228  1
  Cl  Cl21  1  0.75045655  0.75045655  0.51308712  1
  Cl  Cl22  1  0.24957226  0.24957226  0.59217411  1
  Cl  Cl23  1  0.75047383  0.75047383  0.56571723  1
  Cl  Cl24  1  0.24954545  0.24954545  0.64481039  1
  Cl  Cl25  1  0.75048564  0.75048564  0.61835091  1
  Cl  Cl26  1  0.24952326  0.24952326  0.69744183  1
  Cl  Cl27  1  0.24956040  0.24956040  0.75006792  1
  Cl  Cl28  1  0.75042624  0.75042624  0.67098622  1
  Cl  Cl29  1  0.75044843  0.75044843  0.72361373  1
  Cl  Cl30  1  0.24954723  0.24954723  0.80270232  1
  Cl  Cl31  1  0.25064030  0.25064030  0.85515970  1
  Cl  Cl32  1  0.75045388  0.75045388  0.77624536  1
  Cl  Cl33  1  0.25124047  0.25124047  0.90769598  1
  Cl  Cl34  1  0.75044744  0.75044744  0.82887699  1
  Cl  Cl35  1  0.24683651  0.24683651  0.96102782  1
  Cl  Cl36  1  0.75157486  0.75157486  0.88132892  1
  Cl  Cl37  1  0.47960815  0.47960815  0.97690799  1
  Cl  Cl38  1  0.75843990  0.75843990  0.93287373  1
  Cl  Cl39  1  0.75173118  0.75173118  0.98657180  1
loop_
_geom_bond_atom_site_label_1
_geom_bond_atom_site_label_2
_geom_bond_distance
_geom_bond_site_symmetry_2
Cl0 Th0 3.055444 1_555
Cl0 Th0 3.055534 1_565
Cl0 Th0 3.055534 1_655
Cl0 Sr0 3.091665 1_445
Cl1 Th0 3.386102 1_655
Cl1 Th0 3.386102 1_565
Cl1 Th0 3.386268 1_665
Cl2 Sr1 2.995772 1_445
Cl2 Sr0 3.068118 1_455
Cl2 Sr0 3.068118 1_545
Cl2 Sr0 3.068505 1_445
Cl3 Th0 3.027608 1_665
Cl3 Sr0 3.077835 1_545
Cl3 Sr0 3.077835 1_455
Cl3 Sr0 3.078217 1_555
Cl4 Sr1 3.043733 1_455
Cl4 Sr1 3.043733 1_545
Cl4 Sr1 3.044097 1_445
Cl4 Sr2 3.047591 1_445
Cl5 Sr0 3.035914 1_555
Cl5 Sr1 3.054220 1_555
Cl5 Sr1 3.054415 1_545
Cl5 Sr1 3.054415 1_455
Cl6 Sr2 3.050021 1_455
Cl6 Sr2 3.050021 1_545
Cl6 Sr2 3.050215 1_445
Cl6 Sr3 3.061031 1_555
Cl7 Sr1 3.041551 1_555
Cl7 Sr2 3.045787 1_555
Cl7 Sr2 3.045898 1_545
Cl7 Sr2 3.045898 1_455
Cl8 Sr3 3.050201 1_565
Cl8 Sr3 3.050201 1_655
Cl8 Sr3 3.050380 1_555
Cl8 Sr4 3.061154 1_445
Cl9 Sr3 3.050191 1_665
Cl9 Sr3 3.050237 1_655
Cl9 Sr3 3.050237 1_565
Cl9 Sr2 3.060626 1_555
Cl10 Sr4 3.050181 1_455
Cl10 Sr4 3.050181 1_545
Cl10 Sr4 3.050296 1_445
Cl10 Sr5 3.061335 1_445
Cl11 Sr4 3.050180 1_545
Cl11 Sr4 3.050180 1_455
Cl11 Sr4 3.050212 1_555
Cl11 Sr3 3.061361 1_665
Cl12 Sr5 3.049970 1_445
Cl12 Sr5 3.050091 1_455
Cl12 Sr5 3.050091 1_545
Cl12 Sr6 3.061413 1_445
Cl13 Sr5 3.050332 1_545
Cl13 Sr5 3.050332 1_455
Cl13 Sr5 3.050526 1_555
Cl13 Sr4 3.060808 1_555
Cl14 Sr6 3.050100 1_445
Cl14 Sr6 3.050293 1_455
Cl14 Sr6 3.050293 1_545
Cl14 Sr7 3.061117 1_445
Cl15 Sr7 3.050262 1_455
Cl15 Sr7 3.050262 1_545
Cl15 Sr7 3.050332 1_445
Cl15 Sr8 3.061104 1_555
Cl16 Sr6 3.050283 1_545
Cl16 Sr6 3.050283 1_455
Cl16 Sr6 3.050395 1_555
Cl16 Sr5 3.060612 1_555
Cl17 Sr8 3.050123 1_555
Cl17 Sr8 3.050233 1_565
Cl17 Sr8 3.050233 1_655
Cl17 Sr9 3.060922 1_555
Cl18 Sr7 3.050156 1_545
Cl18 Sr7 3.050156 1_455
Cl18 Sr7 3.050274 1_555
Cl18 Sr6 3.061216 1_555
Cl19 Sr8 3.050201 1_655
Cl19 Sr8 3.050201 1_565
Cl19 Sr8 3.050317 1_665
Cl19 Sr7 3.061242 1_555
Cl20 Sr9 3.050201 1_565
Cl20 Sr9 3.050201 1_655
Cl20 Sr9 3.050317 1_555
Cl20 Sr10 3.061242 1_555
Cl21 Sr9 3.050123 1_665
Cl21 Sr9 3.050233 1_655
Cl21 Sr9 3.050233 1_565
Cl21 Sr8 3.060922 1_665
Cl22 Sr10 3.050156 1_565
Cl22 Sr10 3.050156 1_655
Cl22 Sr10 3.050274 1_555
Cl22 Sr11 3.061216 1_555
Cl23 Sr10 3.050262 1_655
Cl23 Sr10 3.050262 1_565
Cl23 Sr10 3.050332 1_665
Cl23 Sr9 3.061104 1_665
Cl24 Sr11 3.050283 1_565
Cl24 Sr11 3.050283 1_655
Cl24 Sr11 3.050395 1_555
Cl24 Sr12 3.060612 1_555
Cl25 Sr11 3.050100 1_665
Cl25 Sr11 3.050293 1_655
Cl25 Sr11 3.050293 1_565
Cl25 Sr10 3.061117 1_665
Cl26 Sr12 3.050332 1_565
Cl26 Sr12 3.050332 1_655
Cl26 Sr12 3.050526 1_555
Cl26 Sr13 3.060808 1_555
Cl27 Sr13 3.050180 1_565
Cl27 Sr13 3.050180 1_655
Cl27 Sr13 3.050212 1_555
Cl27 Sr14 3.061361 1_555
Cl28 Sr12 3.049970 1_665
Cl28 Sr12 3.050091 1_655
Cl28 Sr12 3.050091 1_565
Cl28 Sr11 3.061413 1_665
Cl29 Sr13 3.050181 1_655
Cl29 Sr13 3.050181 1_565
Cl29 Sr13 3.050296 1_665
Cl29 Sr12 3.061335 1_665
Cl30 Sr14 3.050191 1_555
Cl30 Sr14 3.050237 1_565
Cl30 Sr14 3.050237 1_655
Cl30 Sr15 3.060626 1_555
Cl31 Sr16 3.041551 1_555
Cl31 Sr15 3.045787 1_555
Cl31 Sr15 3.045898 1_565
Cl31 Sr15 3.045898 1_655
Cl32 Sr14 3.050201 1_655
Cl32 Sr14 3.050201 1_565
Cl32 Sr14 3.050380 1_665
Cl32 Sr13 3.061154 1_665
Cl33 Sr17 3.035914 1_555
Cl33 Sr16 3.054220 1_555
Cl33 Sr16 3.054415 1_565
Cl33 Sr16 3.054415 1_655
Cl34 Sr15 3.050021 1_655
Cl34 Sr15 3.050021 1_565
Cl34 Sr15 3.050215 1_665
Cl34 Sr14 3.061031 1_665
Cl35 Th0 3.027608 1_556
Cl35 Sr17 3.077835 1_565
Cl35 Sr17 3.077835 1_655
Cl35 Sr17 3.078217 1_555
Cl36 Sr16 3.043733 1_655
Cl36 Sr16 3.043733 1_565
Cl36 Sr16 3.044097 1_665
Cl36 Sr15 3.047591 1_665
Cl37 Th0 3.386102 1_566
Cl37 Th0 3.386102 1_656
Cl37 Th0 3.386268 1_556
Cl38 Sr16 2.995772 1_665
Cl38 Sr17 3.068118 1_655
Cl38 Sr17 3.068118 1_565
Cl38 Sr17 3.068505 1_665
Cl39 Th0 3.055444 1_666
Cl39 Th0 3.055534 1_656
Cl39 Th0 3.055534 1_566
Cl39 Sr17 3.091665 1_665
