# generated using pymatgen
data_Yb10Ti6O27
_symmetry_space_group_name_H-M   'P 1'
_cell_length_a   7.34299000
_cell_length_b   7.44749126
_cell_length_c   11.82318453
_cell_angle_alpha   101.06475263
_cell_angle_beta   90.83384132
_cell_angle_gamma   119.06076060
_symmetry_Int_Tables_number   1
_chemical_formula_structural   Yb10Ti6O27
_chemical_formula_sum   'Yb10 Ti6 O27'
_cell_volume   550.27180366
_cell_formula_units_Z   1
loop_
 _symmetry_equiv_pos_site_id
 _symmetry_equiv_pos_as_xyz
  1  'x, y, z'
loop_
 _atom_site_type_symbol
 _atom_site_label
 _atom_site_symmetry_multiplicity
 _atom_site_fract_x
 _atom_site_fract_y
 _atom_site_fract_z
 _atom_site_occupancy
  Yb  Yb0  1  0.98042300  0.04186300  0.04945700  1
  Yb  Yb1  1  0.02877600  0.56927800  0.01550800  1
  Yb  Yb2  1  0.69152000  0.38581400  0.75404500  1
  Yb  Yb3  1  0.16076500  0.38947500  0.77440400  1
  Yb  Yb4  1  0.20714200  0.91757200  0.73908800  1
  Yb  Yb5  1  0.53171000  0.08104900  0.98189400  1
  Yb  Yb6  1  0.49235000  0.45274800  0.47092200  1
  Yb  Yb7  1  0.21528400  0.48841900  0.26559400  1
  Yb  Yb8  1  0.70752700  0.94694900  0.73151700  1
  Yb  Yb9  1  0.74987500  0.00467500  0.28837600  1
  Ti  Ti0  1  0.47359200  0.50216600  0.00635900  1
  Ti  Ti1  1  0.02376900  0.50655900  0.52457200  1
  Ti  Ti2  1  0.40818800  0.92848800  0.48961800  1
  Ti  Ti3  1  0.76737500  0.41042300  0.22153100  1
  Ti  Ti4  1  0.03492400  0.06043900  0.53040100  1
  Ti  Ti5  1  0.27395100  0.03106200  0.24281400  1
  O  O0  1  0.84305600  0.25727400  0.85921600  1
  O  O1  1  0.50553500  0.04572000  0.65146500  1
  O  O2  1  0.83264300  0.68489400  0.91741100  1
  O  O3  1  0.02260000  0.05040500  0.68315200  1
  O  O4  1  0.17212700  0.35894700  0.56997900  1
  O  O5  1  0.40302600  0.29778000  0.86202900  1
  O  O6  1  0.08026900  0.12211200  0.24601500  1
  O  O7  1  0.30216400  0.11514300  0.46269300  1
  O  O8  1  0.35736400  0.68304600  0.92992400  1
  O  O9  1  0.02110100  0.56221800  0.70048900  1
  O  O10  1  0.42669000  0.77380000  0.82812100  1
  O  O11  1  0.33715700  0.64424800  0.45706500  1
  O  O12  1  0.48672500  0.31501100  0.27699200  1
  O  O13  1  0.75868100  0.47219600  0.57389000  1
  O  O14  1  0.76903100  0.17605300  0.13473300  1
  O  O15  1  0.90424700  0.37040700  0.36535300  1
  O  O16  1  0.64559200  0.41817800  0.07279700  1
  O  O17  1  0.78481100  0.65524900  0.36622800  1
  O  O18  1  0.66512000  0.77550200  0.10043700  1
  O  O19  1  0.88789200  0.83317600  0.84980100  1
  O  O20  1  0.76485400  0.01154100  0.49523200  1
  O  O21  1  0.93536800  0.84530400  0.36478200  1
  O  O22  1  0.02204300  0.61867200  0.20239600  1
  O  O23  1  0.22754200  0.40788600  0.06652800  1
  O  O24  1  0.12364000  0.79709100  0.54093500  1
  O  O25  1  0.41685200  0.90845300  0.31595600  1
  O  O26  1  0.24420100  0.95771400  0.08278300  1
loop_
_geom_bond_atom_site_label_1
_geom_bond_atom_site_label_2
_geom_bond_distance
_geom_bond_site_symmetry_2
O0 Yb8 2.234683 1_545
O0 Yb2 2.269852 1_555
O0 Yb3 2.373413 1_655
O0 Yb1 2.423598 1_656
O0 Yb5 2.639188 1_555
O1 Ti2 1.909850 1_545
O1 Yb8 2.218822 1_545
O1 Yb2 2.272364 1_555
O1 Yb4 2.280153 1_545
O2 Yb1 2.387506 1_656
O2 Yb2 2.411206 1_555
O2 Yb0 2.497526 1_566
O2 Ti0 2.655850 1_556
O3 Ti4 1.823571 1_555
O3 Yb8 2.179259 1_445
O3 Yb4 2.186242 1_545
O3 Yb3 2.236869 1_555
O4 Ti4 1.894048 1_555
O4 Ti1 2.014074 1_555
O4 Yb3 2.390334 1_555
O4 Yb6 2.487392 1_555
O5 Ti0 1.925730 1_556
O5 Yb2 2.366061 1_555
O5 Yb3 2.470283 1_555
O5 Yb4 2.569492 1_545
O5 Yb5 2.797743 1_555
O6 Ti5 1.847297 1_555
O6 Yb9 2.245842 1_455
O6 Yb0 2.299357 1_455
O6 Yb7 2.366913 1_555
O7 Ti2 1.963131 1_545
O7 Ti4 2.012918 1_555
O7 Yb6 2.184611 1_555
O7 Ti5 2.535108 1_555
O8 Ti0 2.218444 1_556
O8 Yb3 2.357673 1_555
O8 Yb1 2.444911 1_556
O8 Yb5 2.528652 1_565
O9 Ti1 2.043609 1_555
O9 Yb4 2.254875 1_555
O9 Yb3 2.271070 1_555
O9 Yb2 2.293253 1_455
O10 O8 1.469880 1_555
O10 Yb8 2.295764 1_555
O10 Yb5 2.405044 1_565
O10 Yb3 2.499071 1_555
O10 Yb4 2.629398 1_555
O11 Ti2 1.873538 1_555
O11 Yb6 2.241131 1_555
O11 Ti1 2.249286 1_555
O11 Yb7 2.279506 1_555
O12 Ti5 1.876226 1_555
O12 Ti3 1.994347 1_555
O12 Yb6 2.316141 1_555
O12 Yb7 2.866790 1_555
O13 Ti1 1.949584 1_655
O13 Yb6 2.217102 1_555
O13 Yb2 2.332881 1_555
O14 Ti3 1.852941 1_555
O14 Yb5 2.241116 1_554
O14 Yb0 2.364445 1_555
O14 Yb9 2.381519 1_555
O15 Ti1 1.922722 1_655
O15 Ti3 2.103846 1_555
O15 Yb9 2.356107 1_555
O15 Yb7 2.430270 1_655
O16 Ti0 1.878992 1_555
O16 Ti3 1.984632 1_555
O16 Yb5 2.248715 1_554
O16 Yb1 2.629480 1_655
O17 O21 1.309817 1_555
O17 Ti3 2.199375 1_555
O17 Yb6 2.462944 1_555
O18 Ti0 1.913942 1_555
O18 Yb0 2.386765 1_565
O18 Yb9 2.389552 1_565
O19 O2 1.391457 1_555
O19 Yb8 2.432890 1_555
O19 Yb0 2.443091 1_566
O19 Yb4 2.564701 1_655
O20 Ti4 1.858649 1_655
O20 Ti2 2.377304 1_545
O20 Yb9 2.436155 1_555
O21 Ti4 2.133558 1_665
O21 Yb9 2.454865 1_565
O22 Ti3 1.811908 1_455
O22 Yb1 2.174627 1_555
O22 Yb7 2.257733 1_555
O22 Ti5 2.640937 1_565
O23 Ti0 1.805583 1_555
O23 Yb7 2.328951 1_555
O23 Yb0 2.395218 1_455
O23 Yb1 2.428124 1_555
O24 Ti1 1.884320 1_555
O24 Ti2 1.992465 1_555
O24 Yb4 2.299263 1_555
O24 Ti4 2.370469 1_565
O25 Ti5 1.972366 1_565
O25 Ti2 2.034091 1_555
O25 Yb9 2.238363 1_565
O25 Yb7 2.663137 1_555
O26 Ti5 1.844287 1_565
O26 Yb5 2.309456 1_564
O26 Yb0 2.356155 1_465
O26 Yb1 2.477551 1_555
