# generated using pymatgen
data_Li17Ti20O40
_symmetry_space_group_name_H-M   'P 1'
_cell_length_a   2.94905800
_cell_length_b   9.59547500
_cell_length_c   25.49598245
_cell_angle_alpha   79.77004451
_cell_angle_beta   90.00000000
_cell_angle_gamma   90.00000000
_symmetry_Int_Tables_number   1
_chemical_formula_structural   Li17Ti20O40
_chemical_formula_sum   'Li17 Ti20 O40'
_cell_volume   710.00605232
_cell_formula_units_Z   1
loop_
 _symmetry_equiv_pos_site_id
 _symmetry_equiv_pos_as_xyz
  1  'x, y, z'
loop_
 _atom_site_type_symbol
 _atom_site_label
 _atom_site_symmetry_multiplicity
 _atom_site_fract_x
 _atom_site_fract_y
 _atom_site_fract_z
 _atom_site_occupancy
  Li  Li0  1  0.00000000  0.99982600  0.10177000  1
  Li  Li1  1  0.00000000  0.49958300  0.80279400  1
  Li  Li2  1  0.50000000  0.75050100  0.14960600  1
  Li  Li3  1  0.50000000  0.24781700  0.25033700  1
  Li  Li4  1  0.50000000  0.24550700  0.44888200  1
  Li  Li5  1  0.50000000  0.75116500  0.34923100  1
  Li  Li6  1  0.50000000  0.24883500  0.65076900  1
  Li  Li7  1  0.50000000  0.75449300  0.55111800  1
  Li  Li8  1  0.50000000  0.24949900  0.85039400  1
  Li  Li9  1  0.50000000  0.75218300  0.74966300  1
  Li  Li10  1  0.50000000  0.74733900  0.95111200  1
  Li  Li11  1  0.50000000  0.25266100  0.04888800  1
  Li  Li12  1  0.00000000  0.50041700  0.19720600  1
  Li  Li13  1  0.00000000  0.00000000  0.50000000  1
  Li  Li14  1  0.00000000  0.49796400  0.40024900  1
  Li  Li15  1  0.00000000  0.50203600  0.59975100  1
  Li  Li16  1  0.00000000  0.00017400  0.89823000  1
  Ti  Ti0  1  0.00000000  0.25036100  0.14966400  1
  Ti  Ti1  1  0.00000000  0.25407900  0.95081600  1
  Ti  Ti2  1  0.50000000  0.99358700  0.20585200  1
  Ti  Ti3  1  0.50000000  0.99850300  0.39523900  1
  Ti  Ti4  1  0.50000000  0.49983700  0.29906200  1
  Ti  Ti5  1  0.50000000  0.00149700  0.60476100  1
  Ti  Ti6  1  0.50000000  0.50000000  0.50000000  1
  Ti  Ti7  1  0.50000000  0.50016300  0.70093800  1
  Ti  Ti8  1  0.50000000  0.00641300  0.79414800  1
  Ti  Ti9  1  0.50000000  0.49453300  0.90635500  1
  Ti  Ti10  1  0.50000000  0.00000000  0.00000000  1
  Ti  Ti11  1  0.50000000  0.50546700  0.09364500  1
  Ti  Ti12  1  0.00000000  0.75241800  0.25021200  1
  Ti  Ti13  1  0.00000000  0.24364600  0.34900700  1
  Ti  Ti14  1  0.00000000  0.25634300  0.54859600  1
  Ti  Ti15  1  0.00000000  0.24758200  0.74978800  1
  Ti  Ti16  1  0.00000000  0.74365700  0.45140400  1
  Ti  Ti17  1  0.00000000  0.75635400  0.65099300  1
  Ti  Ti18  1  0.00000000  0.74963900  0.85033600  1
  Ti  Ti19  1  0.00000000  0.74592100  0.04918400  1
  O  O0  1  0.00000000  0.37602000  0.47458800  1
  O  O1  1  0.00000000  0.12125200  0.02414200  1
  O  O2  1  0.00000000  0.37922300  0.67659200  1
  O  O3  1  0.00000000  0.62398000  0.52541200  1
  O  O4  1  0.00000000  0.87818400  0.17694300  1
  O  O5  1  0.00000000  0.62372400  0.72460400  1
  O  O6  1  0.00000000  0.37091000  0.07836000  1
  O  O7  1  0.00000000  0.62909000  0.92164000  1
  O  O8  1  0.50000000  0.36179800  0.97564500  1
  O  O9  1  0.50000000  0.37478200  0.17064200  1
  O  O10  1  0.50000000  0.87542100  0.07300100  1
  O  O11  1  0.50000000  0.86159300  0.27474300  1
  O  O12  1  0.50000000  0.37179700  0.37183600  1
  O  O13  1  0.50000000  0.37587400  0.77399400  1
  O  O14  1  0.50000000  0.13346200  0.32563500  1
  O  O15  1  0.50000000  0.87447200  0.47219600  1
  O  O16  1  0.50000000  0.37348000  0.57453000  1
  O  O17  1  0.50000000  0.12552800  0.52780400  1
  O  O18  1  0.50000000  0.86653800  0.67436500  1
  O  O19  1  0.50000000  0.62652000  0.42547000  1
  O  O20  1  0.50000000  0.13840700  0.72525700  1
  O  O21  1  0.50000000  0.87453800  0.87148100  1
  O  O22  1  0.50000000  0.62820300  0.62816400  1
  O  O23  1  0.50000000  0.62521800  0.82935800  1
  O  O24  1  0.50000000  0.12457900  0.92699900  1
  O  O25  1  0.50000000  0.63820200  0.02435500  1
  O  O26  1  0.50000000  0.12546200  0.12851900  1
  O  O27  1  0.50000000  0.62412600  0.22600600  1
  O  O28  1  0.00000000  0.86875200  0.37888800  1
  O  O29  1  0.00000000  0.62235600  0.12249900  1
  O  O30  1  0.00000000  0.37627600  0.27539600  1
  O  O31  1  0.00000000  0.87996200  0.57795700  1
  O  O32  1  0.00000000  0.62077700  0.32340800  1
  O  O33  1  0.00000000  0.87096600  0.77899600  1
  O  O34  1  0.00000000  0.87874800  0.97585800  1
  O  O35  1  0.00000000  0.12903400  0.22100400  1
  O  O36  1  0.00000000  0.12003800  0.42204300  1
  O  O37  1  0.00000000  0.37764400  0.87750100  1
  O  O38  1  0.00000000  0.13124800  0.62111200  1
  O  O39  1  0.00000000  0.12181600  0.82305700  1
loop_
_geom_bond_atom_site_label_1
_geom_bond_atom_site_label_2
_geom_bond_distance
_geom_bond_site_symmetry_2
Li0 O4 2.059409 1_555
Li0 O26 2.093968 1_465
Li0 O26 2.093968 1_565
Li0 O10 2.109084 1_455
Li0 O10 2.109084 1_555
Li0 O1 2.110850 1_565
Li1 O37 2.050713 1_555
Li1 O23 2.091948 1_455
Li1 O23 2.091948 1_555
Li1 O13 2.105253 1_555
Li1 O13 2.105253 1_455
Li1 O5 2.132984 1_555
Li2 O10 2.102358 1_555
Li2 O27 2.103747 1_555
Li2 O4 2.112913 1_655
Li2 O4 2.112913 1_555
Li2 O29 2.113215 1_655
Li2 O29 2.113215 1_555
Li3 O14 2.035046 1_555
Li3 O35 2.082168 1_655
Li3 O35 2.082168 1_555
Li3 O30 2.093210 1_555
Li3 O30 2.093210 1_655
Li3 O9 2.175680 1_555
Li4 O36 2.093936 1_555
Li4 O36 2.093936 1_655
Li4 O0 2.112739 1_555
Li4 O0 2.112739 1_655
Li4 O12 2.116999 1_555
Li4 O17 2.133419 1_555
Li5 O11 2.003681 1_555
Li5 O28 2.078961 1_655
Li5 O28 2.078961 1_555
Li5 O19 2.093567 1_555
Li5 O32 2.113203 1_655
Li5 O32 2.113203 1_555
Li6 O20 2.003681 1_555
Li6 O38 2.078961 1_555
Li6 O38 2.078961 1_655
Li6 O16 2.093567 1_555
Li6 O2 2.113203 1_555
Li6 O2 2.113203 1_655
Li7 O31 2.093936 1_555
Li7 O31 2.093936 1_655
Li7 O3 2.112739 1_655
Li7 O3 2.112739 1_555
Li7 O22 2.116999 1_555
Li7 O15 2.133419 1_555
Li8 O24 2.102358 1_555
Li8 O13 2.103747 1_555
Li8 O39 2.112913 1_655
Li8 O39 2.112913 1_555
Li8 O37 2.113215 1_555
Li8 O37 2.113215 1_655
Li9 O18 2.035046 1_555
Li9 O33 2.082168 1_655
Li9 O33 2.082168 1_555
Li9 O5 2.093210 1_555
Li9 O5 2.093210 1_655
Li9 O23 2.175680 1_555
Li10 O25 1.972116 1_556
Li10 O7 2.080661 1_655
Li10 O7 2.080661 1_555
Li10 O34 2.108276 1_655
Li10 O34 2.108276 1_555
Li10 O21 2.175205 1_555
Li11 O8 1.972116 1_554
Li11 O6 2.080661 1_555
Li11 O6 2.080661 1_655
Li11 O1 2.108276 1_555
Li11 O1 2.108276 1_655
Li11 O26 2.175205 1_555
Li12 O29 2.050713 1_555
Li12 O9 2.091948 1_555
Li12 O9 2.091948 1_455
Li12 O27 2.105253 1_455
Li12 O27 2.105253 1_555
Li12 O30 2.132984 1_555
Li13 O17 2.104964 1_555
Li13 O17 2.104964 1_455
Li13 O15 2.104964 1_545
Li13 O15 2.104964 1_445
Li13 O31 2.112826 1_545
Li13 O36 2.112826 1_555
Li14 O0 2.042975 1_555
Li14 O19 2.095504 1_455
Li14 O19 2.095504 1_555
Li14 O32 2.099261 1_555
Li14 O12 2.115693 1_455
Li14 O12 2.115693 1_555
Li15 O3 2.042975 1_555
Li15 O16 2.095504 1_555
Li15 O16 2.095504 1_455
Li15 O2 2.099261 1_555
Li15 O22 2.115693 1_455
Li15 O22 2.115693 1_555
Li16 O39 2.059409 1_555
Li16 O21 2.093968 1_545
Li16 O21 2.093968 1_445
Li16 O24 2.109084 1_455
Li16 O24 2.109084 1_555
Li16 O34 2.110850 1_545
O0 Ti14 2.027186 1_555
O0 Ti6 2.069554 1_555
O0 Ti6 2.069554 1_455
O1 Ti10 2.039888 1_555
O1 Ti10 2.039888 1_455
O1 Ti1 2.067169 1_554
O2 Ti7 2.040124 1_455
O2 Ti7 2.040124 1_555
O2 Ti15 2.059362 1_555
O3 Ti16 2.027186 1_555
O3 Ti6 2.069554 1_555
O3 Ti6 2.069554 1_455
O4 Ti12 2.035990 1_555
O4 Ti2 2.057577 1_455
O4 Ti2 2.057577 1_555
O5 Ti7 2.048934 1_455
O5 Ti7 2.048934 1_555
O5 Ti17 2.072092 1_555
O6 Ti0 1.973846 1_555
O6 Ti11 2.042515 1_555
O6 Ti11 2.042515 1_455
O7 Ti18 1.973846 1_555
O7 Ti9 2.042515 1_455
O7 Ti9 2.042515 1_555
O8 Ti1 1.968692 1_555
O8 Ti1 1.968692 1_655
O8 Ti9 1.985929 1_555
O9 Ti0 2.027921 1_555
O9 Ti0 2.027921 1_655
O9 Ti11 2.133518 1_555
O10 Ti10 2.025554 1_565
O10 Ti19 2.086883 1_555
O10 Ti19 2.086883 1_655
O11 Ti12 1.973722 1_555
O11 Ti12 1.973722 1_655
O11 Ti2 1.974601 1_555
O12 Ti4 2.035296 1_555
O12 Ti13 2.068654 1_655
O12 Ti13 2.068654 1_555
O13 Ti7 2.025510 1_555
O13 Ti15 2.083360 1_555
O13 Ti15 2.083360 1_655
O14 Ti13 1.967465 1_655
O14 Ti13 1.967465 1_555
O14 Ti3 2.002500 1_545
O15 Ti16 2.065724 1_655
O15 Ti16 2.065724 1_555
O15 Ti3 2.106370 1_555
O16 Ti14 2.034395 1_555
O16 Ti14 2.034395 1_655
O16 Ti6 2.065249 1_555
O17 Ti14 2.065724 1_555
O17 Ti14 2.065724 1_655
O17 Ti5 2.106370 1_555
O18 Ti17 1.967465 1_555
O18 Ti17 1.967465 1_655
O18 Ti5 2.002500 1_565
O19 Ti16 2.034395 1_555
O19 Ti16 2.034395 1_655
O19 Ti6 2.065249 1_555
O20 Ti15 1.973722 1_555
O20 Ti15 1.973722 1_655
O20 Ti8 1.974601 1_555
O21 Ti18 2.032411 1_655
O21 Ti18 2.032411 1_555
O21 Ti8 2.145358 1_565
O22 Ti7 2.035296 1_555
O22 Ti17 2.068654 1_555
O22 Ti17 2.068654 1_655
O23 Ti18 2.027921 1_655
O23 Ti18 2.027921 1_555
O23 Ti9 2.133518 1_555
O24 Ti10 2.025554 1_556
O24 Ti1 2.086883 1_655
O24 Ti1 2.086883 1_555
O25 Ti19 1.968692 1_555
O25 Ti19 1.968692 1_655
O25 Ti11 1.985929 1_555
O26 Ti0 2.032411 1_555
O26 Ti0 2.032411 1_655
O26 Ti2 2.145358 1_545
O27 Ti4 2.025510 1_555
O27 Ti12 2.083360 1_655
O27 Ti12 2.083360 1_555
O28 Ti16 2.017636 1_555
O28 Ti3 2.020512 1_455
O28 Ti3 2.020512 1_555
O29 Ti19 2.027962 1_555
O29 Ti11 2.065554 1_555
O29 Ti11 2.065554 1_455
O30 Ti4 2.048934 1_455
O30 Ti4 2.048934 1_555
O30 Ti13 2.072092 1_555
O31 Ti17 2.022322 1_555
O31 Ti5 2.069863 1_565
O31 Ti5 2.069863 1_465
O32 Ti4 2.040124 1_455
O32 Ti4 2.040124 1_555
O32 Ti12 2.059362 1_555
O33 Ti18 1.977760 1_555
O33 Ti8 2.047188 1_565
O33 Ti8 2.047188 1_465
O34 Ti10 2.039888 1_466
O34 Ti10 2.039888 1_566
O34 Ti19 2.067169 1_556
O35 Ti0 1.977760 1_555
O35 Ti2 2.047188 1_445
O35 Ti2 2.047188 1_545
O36 Ti13 2.022322 1_555
O36 Ti3 2.069863 1_545
O36 Ti3 2.069863 1_445
O37 Ti1 2.027962 1_555
O37 Ti9 2.065554 1_555
O37 Ti9 2.065554 1_455
O38 Ti14 2.017636 1_555
O38 Ti5 2.020512 1_455
O38 Ti5 2.020512 1_555
O39 Ti15 2.035990 1_555
O39 Ti8 2.057577 1_455
O39 Ti8 2.057577 1_555
