# generated using pymatgen
data_NiB6(H8O9)2
_symmetry_space_group_name_H-M   'P 1'
_cell_length_a   7.21587100
_cell_length_b   9.01952600
_cell_length_c   21.85209045
_cell_angle_alpha   80.34546225
_cell_angle_beta   90.00000000
_cell_angle_gamma   90.00000000
_symmetry_Int_Tables_number   1
_chemical_formula_structural   NiB6(H8O9)2
_chemical_formula_sum   'Ni4 B24 H64 O72'
_cell_volume   1402.07263291
_cell_formula_units_Z   4
loop_
 _symmetry_equiv_pos_site_id
 _symmetry_equiv_pos_as_xyz
  1  'x, y, z'
loop_
 _atom_site_type_symbol
 _atom_site_label
 _atom_site_symmetry_multiplicity
 _atom_site_fract_x
 _atom_site_fract_y
 _atom_site_fract_z
 _atom_site_occupancy
  Ni  Ni0  1  0.39689800  0.63734000  0.60492300  1
  Ni  Ni1  1  0.89689800  0.36266000  0.89507700  1
  Ni  Ni2  1  0.60310200  0.36266000  0.39507700  1
  Ni  Ni3  1  0.10310200  0.63734000  0.10492300  1
  B  B0  1  0.10019400  0.39252500  0.57931400  1
  B  B1  1  0.60019400  0.60747500  0.92068600  1
  B  B2  1  0.89980600  0.60747500  0.42068600  1
  B  B3  1  0.39980600  0.39252500  0.07931400  1
  B  B4  1  0.26603100  0.32643400  0.68668800  1
  B  B5  1  0.76603100  0.67356600  0.81331200  1
  B  B6  1  0.73396900  0.67356600  0.31331200  1
  B  B7  1  0.23396900  0.32643400  0.18668800  1
  B  B8  1  0.32518900  0.15463800  0.60161100  1
  B  B9  1  0.82518900  0.84536200  0.89838900  1
  B  B10  1  0.67481100  0.84536200  0.39838900  1
  B  B11  1  0.17481100  0.15463800  0.10161100  1
  B  B12  1  0.10704600  0.19257900  0.51234000  1
  B  B13  1  0.60704600  0.80742100  0.98766000  1
  B  B14  1  0.89295400  0.80742100  0.48766000  1
  B  B15  1  0.39295400  0.19257900  0.01234000  1
  B  B16  1  0.93722900  0.41436900  0.67805700  1
  B  B17  1  0.43722900  0.58563100  0.82194300  1
  B  B18  1  0.06277100  0.58563100  0.32194300  1
  B  B19  1  0.56277100  0.41436900  0.17805700  1
  B  B20  1  0.36697300  0.06068400  0.71240800  1
  B  B21  1  0.86697300  0.93931600  0.78759200  1
  B  B22  1  0.63302700  0.93931600  0.28759200  1
  B  B23  1  0.13302700  0.06068400  0.21240800  1
  H  H0  1  0.13691000  0.59556600  0.52428400  1
  H  H1  1  0.63691000  0.40443400  0.97571600  1
  H  H2  1  0.86309000  0.40443400  0.47571600  1
  H  H3  1  0.36309000  0.59556600  0.02428400  1
  H  H4  1  0.52287300  0.42927400  0.68954300  1
  H  H5  1  0.02287300  0.57072600  0.81045700  1
  H  H6  1  0.47712700  0.57072600  0.31045700  1
  H  H7  1  0.97712700  0.42927400  0.18954300  1
  H  H8  1  0.53882200  0.31386200  0.58222500  1
  H  H9  1  0.03882200  0.68613800  0.91777500  1
  H  H10  1  0.46117800  0.68613800  0.41777500  1
  H  H11  1  0.96117800  0.31386200  0.08222500  1
  H  H12  1  0.11204800  0.08090200  0.43799600  1
  H  H13  1  0.61204800  0.91909800  0.06200400  1
  H  H14  1  0.88795200  0.91909800  0.56200400  1
  H  H15  1  0.38795200  0.08090200  0.93799600  1
  H  H16  1  0.78583600  0.44306700  0.75082500  1
  H  H17  1  0.28583600  0.55693300  0.74917500  1
  H  H18  1  0.21416400  0.55693300  0.24917500  1
  H  H19  1  0.71416400  0.44306700  0.25082500  1
  H  H20  1  0.45714600  0.85499600  0.74807600  1
  H  H21  1  0.95714600  0.14500400  0.75192400  1
  H  H22  1  0.54285400  0.14500400  0.25192400  1
  H  H23  1  0.04285400  0.85499600  0.24807600  1
  H  H24  1  0.63915000  0.54162500  0.51958000  1
  H  H25  1  0.13915000  0.45837500  0.98042000  1
  H  H26  1  0.36085000  0.45837500  0.48042000  1
  H  H27  1  0.86085000  0.54162500  0.01958000  1
  H  H28  1  0.73763900  0.50715100  0.58383700  1
  H  H29  1  0.23763900  0.49284900  0.91616300  1
  H  H30  1  0.26236100  0.49284900  0.41616300  1
  H  H31  1  0.76236100  0.50715100  0.08383700  1
  H  H32  1  0.08730900  0.76486700  0.61360700  1
  H  H33  1  0.58730900  0.23513300  0.88639300  1
  H  H34  1  0.91269100  0.23513300  0.38639300  1
  H  H35  1  0.41269100  0.76486700  0.11360700  1
  H  H36  1  0.23547000  0.84242500  0.65109500  1
  H  H37  1  0.73547000  0.15757500  0.84890500  1
  H  H38  1  0.76453000  0.15757500  0.34890500  1
  H  H39  1  0.26453000  0.84242500  0.15109500  1
  H  H40  1  0.65730100  0.83307000  0.64084500  1
  H  H41  1  0.15730100  0.16693000  0.85915500  1
  H  H42  1  0.34269900  0.16693000  0.35915500  1
  H  H43  1  0.84269900  0.83307000  0.14084500  1
  H  H44  1  0.63289900  0.68818600  0.69422000  1
  H  H45  1  0.13289900  0.31181400  0.80578000  1
  H  H46  1  0.36710100  0.31181400  0.30578000  1
  H  H47  1  0.86710100  0.68818600  0.19422000  1
  H  H48  1  0.43827800  0.81814600  0.49213400  1
  H  H49  1  0.93827800  0.18185400  0.00786600  1
  H  H50  1  0.56172200  0.18185400  0.50786600  1
  H  H51  1  0.06172200  0.81814600  0.99213400  1
  H  H52  1  0.33278800  0.91185900  0.53848800  1
  H  H53  1  0.83278800  0.08814100  0.96151200  1
  H  H54  1  0.66721200  0.08814100  0.46151200  1
  H  H55  1  0.16721200  0.91185900  0.03848800  1
  H  H56  1  0.14643400  0.97812000  0.34328900  1
  H  H57  1  0.64643400  0.02188000  0.15671100  1
  H  H58  1  0.85356600  0.02188000  0.65671100  1
  H  H59  1  0.35356600  0.97812000  0.84328900  1
  H  H60  1  0.30519500  0.91603700  0.39188500  1
  H  H61  1  0.80519500  0.08396300  0.10811500  1
  H  H62  1  0.69480500  0.08396300  0.60811500  1
  H  H63  1  0.19480500  0.91603700  0.89188500  1
  O  O0  1  0.21539400  0.52559200  0.55349300  1
  O  O1  1  0.71539400  0.47440800  0.94650700  1
  O  O2  1  0.78460600  0.47440800  0.44650700  1
  O  O3  1  0.28460600  0.52559200  0.05349300  1
  O  O4  1  0.39269100  0.45782000  0.67927600  1
  O  O5  1  0.89269100  0.54218000  0.82072400  1
  O  O6  1  0.60730900  0.54218000  0.32072400  1
  O  O7  1  0.10730900  0.45782000  0.17927600  1
  O  O8  1  0.51536100  0.20651900  0.58163800  1
  O  O9  1  0.01536100  0.79348100  0.91836200  1
  O  O10  1  0.48463900  0.79348100  0.41836200  1
  O  O11  1  0.98463900  0.20651900  0.08163800  1
  O  O12  1  0.04846800  0.16097200  0.45607600  1
  O  O13  1  0.54846800  0.83902800  0.04392400  1
  O  O14  1  0.95153200  0.83902800  0.54392400  1
  O  O15  1  0.45153200  0.16097200  0.95607600  1
  O  O16  1  0.77118100  0.43977800  0.70635600  1
  O  O17  1  0.27118100  0.56022200  0.79364400  1
  O  O18  1  0.22881900  0.56022200  0.29364400  1
  O  O19  1  0.72881900  0.43977800  0.20635600  1
  O  O20  1  0.42209500  0.94970500  0.76076100  1
  O  O21  1  0.92209500  0.05029500  0.73923900  1
  O  O22  1  0.57790500  0.05029500  0.23923900  1
  O  O23  1  0.07790500  0.94970500  0.26076100  1
  O  O24  1  0.03299700  0.32126200  0.52868200  1
  O  O25  1  0.53299700  0.67873800  0.97131800  1
  O  O26  1  0.96700300  0.67873800  0.47131800  1
  O  O27  1  0.46700300  0.32126200  0.02868200  1
  O  O28  1  0.94028700  0.43609700  0.61443800  1
  O  O29  1  0.44028700  0.56390300  0.88556200  1
  O  O30  1  0.05971300  0.56390300  0.38556200  1
  O  O31  1  0.55971300  0.43609700  0.11443800  1
  O  O32  1  0.08926500  0.36567100  0.71308400  1
  O  O33  1  0.58926500  0.63432900  0.78691600  1
  O  O34  1  0.91073500  0.63432900  0.28691600  1
  O  O35  1  0.41073500  0.36567100  0.21308400  1
  O  O36  1  0.34775800  0.20138200  0.72637200  1
  O  O37  1  0.84775800  0.79861800  0.77362800  1
  O  O38  1  0.65224200  0.79861800  0.27362800  1
  O  O39  1  0.15224200  0.20138200  0.22637200  1
  O  O40  1  0.23027300  0.10450200  0.54989300  1
  O  O41  1  0.73027300  0.89549800  0.95010700  1
  O  O42  1  0.76972700  0.89549800  0.45010700  1
  O  O43  1  0.26972700  0.10450200  0.04989300  1
  O  O44  1  0.33479700  0.02974800  0.65370600  1
  O  O45  1  0.83479700  0.97025200  0.84629400  1
  O  O46  1  0.66520300  0.97025200  0.34629400  1
  O  O47  1  0.16520300  0.02974800  0.15370600  1
  O  O48  1  0.22182200  0.28606800  0.62226500  1
  O  O49  1  0.72182200  0.71393200  0.87773500  1
  O  O50  1  0.77817800  0.71393200  0.37773500  1
  O  O51  1  0.27817800  0.28606800  0.12226500  1
  O  O52  1  0.61149300  0.51812600  0.56413800  1
  O  O53  1  0.11149300  0.48187400  0.93586200  1
  O  O54  1  0.38850700  0.48187400  0.43586200  1
  O  O55  1  0.88850700  0.51812600  0.06413800  1
  O  O56  1  0.18491200  0.74311900  0.64556600  1
  O  O57  1  0.68491200  0.25688100  0.85443400  1
  O  O58  1  0.81508800  0.25688100  0.35443400  1
  O  O59  1  0.31508800  0.74311900  0.14556600  1
  O  O60  1  0.58052200  0.74270100  0.65564000  1
  O  O61  1  0.08052200  0.25729900  0.84436000  1
  O  O62  1  0.41947800  0.25729900  0.34436000  1
  O  O63  1  0.91947800  0.74270100  0.15564000  1
  O  O64  1  0.41346700  0.82469800  0.53654000  1
  O  O65  1  0.91346700  0.17530200  0.96346000  1
  O  O66  1  0.58653300  0.17530200  0.46346000  1
  O  O67  1  0.08653300  0.82469800  0.03654000  1
  O  O68  1  0.21317400  0.99860200  0.38040900  1
  O  O69  1  0.71317400  0.00139800  0.11959100  1
  O  O70  1  0.78682600  0.00139800  0.61959100  1
  O  O71  1  0.28682600  0.99860200  0.88040900  1
loop_
_geom_bond_atom_site_label_1
_geom_bond_atom_site_label_2
_geom_bond_distance
_geom_bond_site_symmetry_2
Ni0 O60 2.059187 1_555
Ni0 O64 2.062999 1_555
Ni0 O56 2.079213 1_555
Ni0 O0 2.091462 1_555
Ni0 O4 2.092880 1_555
Ni0 O52 2.160955 1_555
Ni1 O61 2.059187 1_655
Ni1 O65 2.062999 1_555
Ni1 O57 2.079213 1_555
Ni1 O1 2.091462 1_555
Ni1 O5 2.092880 1_555
Ni1 O53 2.160955 1_655
Ni2 O62 2.059187 1_555
Ni2 O66 2.062999 1_555
Ni2 O58 2.079213 1_555
Ni2 O2 2.091462 1_555
Ni2 O6 2.092880 1_555
Ni2 O54 2.160955 1_555
Ni3 O63 2.059187 1_455
Ni3 O67 2.062999 1_555
Ni3 O59 2.079213 1_555
Ni3 O3 2.091462 1_555
Ni3 O7 2.092880 1_555
Ni3 O55 2.160955 1_455
B0 O24 1.452907 1_555
B0 O28 1.475175 1_455
B0 O0 1.490878 1_555
B0 O48 1.506942 1_555
B1 O25 1.452907 1_555
B1 O29 1.475175 1_555
B1 O1 1.490878 1_555
B1 O49 1.506942 1_555
B2 O26 1.452907 1_555
B2 O30 1.475175 1_655
B2 O2 1.490878 1_555
B2 O50 1.506942 1_555
B3 O27 1.452907 1_555
B3 O31 1.475175 1_555
B3 O3 1.490878 1_555
B3 O51 1.506942 1_555
B4 O36 1.429648 1_555
B4 O32 1.467438 1_555
B4 O4 1.483745 1_555
B4 O48 1.545339 1_555
B5 O37 1.429648 1_555
B5 O33 1.467438 1_555
B5 O5 1.483745 1_555
B5 O49 1.545339 1_555
B6 O38 1.429648 1_555
B6 O34 1.467438 1_555
B6 O6 1.483745 1_555
B6 O50 1.545339 1_555
B7 O39 1.429648 1_555
B7 O35 1.467438 1_555
B7 O7 1.483745 1_555
B7 O51 1.545339 1_555
B8 O40 1.456786 1_555
B8 O44 1.462703 1_555
B8 O8 1.491323 1_555
B8 O48 1.531260 1_555
B9 O41 1.456786 1_555
B9 O45 1.462703 1_555
B9 O9 1.491323 1_655
B9 O49 1.531260 1_555
B10 O42 1.456786 1_555
B10 O46 1.462703 1_555
B10 O10 1.491323 1_555
B10 O50 1.531260 1_555
B11 O43 1.456786 1_555
B11 O47 1.462703 1_555
B11 O11 1.491323 1_455
B11 O51 1.531260 1_555
B12 O40 1.369853 1_555
B12 O12 1.374459 1_555
B12 O24 1.378109 1_555
B13 O41 1.369853 1_555
B13 O13 1.374459 1_556
B13 O25 1.378109 1_555
B14 O42 1.369853 1_555
B14 O14 1.374459 1_555
B14 O26 1.378109 1_555
B15 O43 1.369853 1_555
B15 O15 1.374459 1_554
B15 O27 1.378109 1_555
B16 O32 1.367328 1_655
B16 O28 1.371200 1_555
B16 O16 1.384956 1_555
B17 O33 1.367328 1_555
B17 O29 1.371200 1_555
B17 O17 1.384956 1_555
B18 O34 1.367328 1_455
B18 O30 1.371200 1_555
B18 O18 1.384956 1_555
B19 O35 1.367328 1_555
B19 O31 1.371200 1_555
B19 O19 1.384956 1_555
B20 O36 1.361123 1_555
B20 O44 1.377423 1_555
B20 O20 1.386307 1_545
B21 O37 1.361123 1_555
B21 O45 1.377423 1_555
B21 O21 1.386307 1_565
B22 O38 1.361123 1_555
B22 O46 1.377423 1_555
B22 O22 1.386307 1_565
B23 O39 1.361123 1_555
B23 O47 1.377423 1_555
B23 O23 1.386307 1_545
H0 O0 0.995660 1_555
H1 O1 0.995660 1_555
H2 O2 0.995660 1_555
H3 O3 0.995660 1_555
H4 O4 0.989788 1_555
H5 O5 0.989788 1_455
H6 O6 0.989788 1_555
H7 O7 0.989788 1_655
H8 O8 0.985073 1_555
H9 O9 0.985073 1_555
H10 O10 0.985073 1_555
H11 O11 0.985073 1_555
H12 O12 0.991889 1_555
H13 O13 0.991889 1_555
H14 O14 0.991889 1_555
H15 O15 0.991889 1_555
H16 O16 0.982859 1_555
H17 O17 0.982859 1_555
H18 O18 0.982859 1_555
H19 O19 0.982859 1_555
H20 O20 0.974648 1_555
H21 O21 0.974648 1_555
H22 O22 0.974648 1_555
H23 O23 0.974648 1_555
H24 O52 0.981628 1_555
H25 O53 0.981628 1_555
H26 O54 0.981628 1_555
H27 O55 0.981628 1_555
H28 O52 1.004673 1_555
H28 O28 1.688905 1_555
H29 O53 1.004673 1_555
H29 O29 1.688905 1_555
H30 O54 1.004673 1_555
H30 O30 1.688905 1_555
H31 O55 1.004673 1_555
H31 O31 1.688905 1_555
H32 O56 0.988067 1_555
H33 O57 0.988067 1_555
H34 O58 0.988067 1_555
H35 O59 0.988067 1_555
H36 O56 0.993104 1_555
H37 O57 0.993104 1_555
H38 O58 0.993104 1_555
H39 O59 0.993104 1_555
H40 O60 0.993704 1_555
H41 O61 0.993704 1_555
H42 O62 0.993704 1_555
H43 O63 0.993704 1_555
H44 O60 0.977912 1_555
H45 O61 0.977912 1_555
H46 O62 0.977912 1_555
H47 O63 0.977912 1_555
H48 O64 0.998191 1_555
H49 O65 0.998191 1_554
H50 O66 0.998191 1_555
H51 O67 0.998191 1_556
H52 O64 0.984881 1_555
H53 O65 0.984881 1_555
H54 O66 0.984881 1_555
H55 O67 0.984881 1_555
H56 O68 0.987056 1_555
H57 O69 0.987056 1_555
H58 O70 0.987056 1_555
H59 O71 0.987056 1_555
H60 O68 0.997865 1_555
H61 O69 0.997865 1_555
H62 O70 0.997865 1_555
H63 O71 0.997865 1_555
