# generated using pymatgen
data_P(W3O10)2
_symmetry_space_group_name_H-M   'P 1'
_cell_length_a   5.39198400
_cell_length_b   6.67225500
_cell_length_c   42.98333900
_cell_angle_alpha   90.00000000
_cell_angle_beta   90.00000000
_cell_angle_gamma   90.00000000
_symmetry_Int_Tables_number   1
_chemical_formula_structural   P(W3O10)2
_chemical_formula_sum   'P4 W24 O80'
_cell_volume   1546.39835710
_cell_formula_units_Z   4
loop_
 _symmetry_equiv_pos_site_id
 _symmetry_equiv_pos_as_xyz
  1  'x, y, z'
loop_
 _atom_site_type_symbol
 _atom_site_label
 _atom_site_symmetry_multiplicity
 _atom_site_fract_x
 _atom_site_fract_y
 _atom_site_fract_z
 _atom_site_occupancy
  P  P0  1  0.73696200  0.88366100  0.22391300  1
  P  P1  1  0.26303800  0.38366100  0.27608700  1
  P  P2  1  0.76303800  0.11633900  0.72391300  1
  P  P3  1  0.23696200  0.61633900  0.77608700  1
  W  W0  1  0.24601700  0.90689300  0.12646800  1
  W  W1  1  0.25763100  0.73853700  0.33631500  1
  W  W2  1  0.75704000  0.08533900  0.51805300  1
  W  W3  1  0.74601700  0.59310700  0.87353200  1
  W  W4  1  0.75451700  0.07681900  0.30014300  1
  W  W5  1  0.24296000  0.58533900  0.98194700  1
  W  W6  1  0.74548300  0.92318100  0.80014300  1
  W  W7  1  0.75564900  0.74529800  0.44593800  1
  W  W8  1  0.74236900  0.23853700  0.16368500  1
  W  W9  1  0.74435100  0.25470200  0.94593800  1
  W  W10  1  0.25837200  0.07505200  0.40964500  1
  W  W11  1  0.74162800  0.57505200  0.09035500  1
  W  W12  1  0.75837200  0.42494800  0.59035500  1
  W  W13  1  0.24435100  0.24529900  0.05406200  1
  W  W14  1  0.75763100  0.76146300  0.66368500  1
  W  W15  1  0.25564900  0.75470200  0.55406200  1
  W  W16  1  0.24548300  0.57681900  0.19985700  1
  W  W17  1  0.25704000  0.41466100  0.48194700  1
  W  W18  1  0.25398300  0.09310700  0.62646800  1
  W  W19  1  0.74296000  0.91466100  0.01805300  1
  W  W20  1  0.25451700  0.42318100  0.69985700  1
  W  W21  1  0.24236900  0.26146300  0.83631500  1
  W  W22  1  0.75398300  0.40689300  0.37353200  1
  W  W23  1  0.24162800  0.92494800  0.90964500  1
  O  O0  1  0.75490500  0.91599200  0.48147600  1
  O  O1  1  0.24609000  0.57424800  0.29615400  1
  O  O2  1  0.97988000  0.57285200  0.68749000  1
  O  O3  1  0.54301900  0.93285100  0.42331900  1
  O  O4  1  0.47988000  0.92714800  0.31251000  1
  O  O5  1  0.04864200  0.23947500  0.28355600  1
  O  O6  1  0.74609000  0.92575200  0.70384600  1
  O  O7  1  0.54864200  0.26052500  0.71644400  1
  O  O8  1  0.98274000  0.71806100  0.78037900  1
  O  O9  1  0.45135800  0.76052500  0.78355600  1
  O  O10  1  0.74019200  0.74357400  0.05510600  1
  O  O11  1  0.73980300  0.05509600  0.75842400  1
  O  O12  1  0.95698100  0.06714900  0.92331900  1
  O  O13  1  0.52227800  0.10813900  0.81672900  1
  O  O14  1  0.25736800  0.91002700  0.37024900  1
  O  O15  1  0.48274000  0.78193900  0.21962100  1
  O  O16  1  0.95819300  0.72552400  0.99775900  1
  O  O17  1  0.52624100  0.77800900  0.89219000  1
  O  O18  1  0.74587000  0.42370700  0.90808900  1
  O  O19  1  0.52815300  0.44287000  0.96568000  1
  O  O20  1  0.75391000  0.07424800  0.20384600  1
  O  O21  1  0.01726000  0.21806100  0.71962100  1
  O  O22  1  0.02624100  0.72199100  0.10781000  1
  O  O23  1  0.45819300  0.77447600  0.00224100  1
  O  O24  1  0.02963400  0.73486000  0.88687600  1
  O  O25  1  0.25413000  0.92370700  0.59191100  1
  O  O26  1  0.97184700  0.55713000  0.46568000  1
  O  O27  1  0.52963400  0.76514000  0.11312400  1
  O  O28  1  0.46333200  0.09428800  0.15036000  1
  O  O29  1  0.02227800  0.39186100  0.18327100  1
  O  O30  1  0.74158900  0.76095200  0.83497600  1
  O  O31  1  0.24587000  0.07629300  0.09191100  1
  O  O32  1  0.25980800  0.24357400  0.44489400  1
  O  O33  1  0.45847800  0.11331200  0.92851400  1
  O  O34  1  0.47087000  0.60362900  0.46069100  1
  O  O35  1  0.53436900  0.94235000  0.64531400  1
  O  O36  1  0.97036600  0.23486000  0.61312400  1
  O  O37  1  0.52012000  0.42714800  0.18749000  1
  O  O38  1  0.97772200  0.89186100  0.31672900  1
  O  O39  1  0.45698100  0.43285100  0.07668100  1
  O  O40  1  0.75736800  0.58997300  0.62975100  1
  O  O41  1  0.02012000  0.07285200  0.81251000  1
  O  O42  1  0.04180700  0.22552400  0.50224100  1
  O  O43  1  0.97087000  0.89637100  0.53930900  1
  O  O44  1  0.25391000  0.42575200  0.79615400  1
  O  O45  1  0.23980300  0.44490400  0.24157600  1
  O  O46  1  0.24263200  0.08997300  0.87024900  1
  O  O47  1  0.47036600  0.26514000  0.38687500  1
  O  O48  1  0.03436900  0.55765000  0.35468600  1
  O  O49  1  0.04152200  0.88668800  0.42851400  1
  O  O50  1  0.75980800  0.25642600  0.55510600  1
  O  O51  1  0.26019700  0.55509600  0.74157600  1
  O  O52  1  0.51726000  0.28193900  0.28037900  1
  O  O53  1  0.47772200  0.60813900  0.68327100  1
  O  O54  1  0.97375900  0.22199100  0.39219000  1
  O  O55  1  0.75841100  0.23904800  0.33497600  1
  O  O56  1  0.02815300  0.05713000  0.03432000  1
  O  O57  1  0.54180700  0.27447600  0.49775900  1
  O  O58  1  0.25841100  0.26095200  0.66502400  1
  O  O59  1  0.96563100  0.05765000  0.14531400  1
  O  O60  1  0.24158900  0.73904800  0.16502400  1
  O  O61  1  0.46563100  0.44235000  0.85468600  1
  O  O62  1  0.03666800  0.90571200  0.65036000  1
  O  O63  1  0.52913000  0.10362900  0.03930900  1
  O  O64  1  0.25490500  0.58400800  0.51852400  1
  O  O65  1  0.76019700  0.94490400  0.25842400  1
  O  O66  1  0.95847800  0.38668800  0.07148600  1
  O  O67  1  0.53666800  0.59428800  0.34964000  1
  O  O68  1  0.24509500  0.41599200  0.01852400  1
  O  O69  1  0.04301900  0.56714900  0.57668100  1
  O  O70  1  0.47375900  0.27800900  0.60781000  1
  O  O71  1  0.47184700  0.94287000  0.53432000  1
  O  O72  1  0.95135800  0.73947500  0.21644400  1
  O  O73  1  0.74263200  0.41002700  0.12975100  1
  O  O74  1  0.02913000  0.39637100  0.96069100  1
  O  O75  1  0.96333200  0.40571200  0.84964000  1
  O  O76  1  0.54152200  0.61331200  0.57148600  1
  O  O77  1  0.74509500  0.08400800  0.98147600  1
  O  O78  1  0.24019200  0.75642600  0.94489400  1
  O  O79  1  0.75413000  0.57629300  0.40808900  1
loop_
_geom_bond_atom_site_label_1
_geom_bond_atom_site_label_2
_geom_bond_distance
_geom_bond_site_symmetry_2
O0 W7 1.905394 1_555
O0 W2 1.936152 1_565
O1 P1 1.539292 1_555
O1 W1 2.045833 1_555
O2 W20 1.863529 1_655
O2 W14 2.016624 1_555
O3 W10 1.897716 1_565
O3 W7 1.955943 1_555
O4 W4 1.863529 1_565
O4 W1 2.016624 1_555
O5 P1 1.537850 1_555
O5 W4 2.049705 1_455
O6 P2 1.539292 1_565
O6 W14 2.045833 1_555
O7 P2 1.537850 1_555
O7 W20 2.049705 1_555
O8 P3 1.540673 1_655
O8 W6 2.057028 1_555
O9 P3 1.537850 1_555
O9 W6 2.049705 1_555
O10 W11 1.886789 1_555
O10 W19 1.959566 1_555
O11 P2 1.543743 1_555
O11 W6 1.997820 1_545
O12 W23 1.897716 1_645
O12 W9 1.955943 1_555
O13 W6 1.865391 1_545
O13 W21 2.008281 1_555
O14 W1 1.853849 1_555
O14 W10 2.019885 1_565
O15 P0 1.540673 1_555
O15 W16 2.057028 1_555
O16 W5 1.922093 1_655
O16 W19 1.923622 1_556
O17 W3 1.889317 1_555
O17 W23 1.969571 1_555
O18 W3 1.866514 1_555
O18 W9 1.979489 1_555
O19 W9 1.911888 1_555
O19 W5 1.938352 1_555
O20 P0 1.539292 1_545
O20 W8 2.045833 1_555
O21 P2 1.540673 1_455
O21 W20 2.057028 1_555
O22 W0 1.889317 1_555
O22 W11 1.969571 1_455
O23 W19 1.922093 1_555
O23 W5 1.923622 1_554
O24 W3 1.887372 1_455
O24 W23 1.968009 1_555
O25 W18 1.866514 1_565
O25 W15 1.979489 1_555
O26 W7 1.911888 1_555
O26 W17 1.938352 1_655
O27 W0 1.887372 1_555
O27 W11 1.968009 1_555
O28 W8 1.875659 1_555
O28 W0 1.997756 1_545
O29 W16 1.865391 1_555
O29 W8 2.008281 1_455
O30 W6 1.847654 1_555
O30 W3 2.000321 1_555
O31 W0 1.866514 1_545
O31 W13 1.979493 1_555
O32 W10 1.886789 1_555
O32 W17 1.959566 1_555
O33 W23 1.898561 1_545
O33 W9 1.956242 1_555
O34 W7 1.911402 1_555
O34 W17 1.937478 1_555
O35 W14 1.878671 1_555
O35 W18 1.988383 1_565
O36 W18 1.887372 1_655
O36 W12 1.968009 1_555
O37 W16 1.863529 1_555
O37 W8 2.016624 1_555
O38 W4 1.865391 1_565
O38 W1 2.008281 1_655
O39 W11 1.897716 1_555
O39 W13 1.955939 1_555
O40 W14 1.853849 1_555
O40 W12 2.019885 1_555
O41 W6 1.863529 1_445
O41 W21 2.016624 1_555
O42 W2 1.922093 1_455
O42 W17 1.923622 1_555
O43 W15 1.911402 1_655
O43 W2 1.937478 1_565
O44 P3 1.539292 1_555
O44 W21 2.045833 1_555
O45 P1 1.543743 1_555
O45 W16 1.997820 1_555
O46 W21 1.853849 1_555
O46 W23 2.019885 1_545
O47 W22 1.887359 1_555
O47 W10 1.968030 1_555
O48 W1 1.878671 1_555
O48 W22 1.988383 1_455
O49 W10 1.898561 1_565
O49 W7 1.956242 1_455
O50 W12 1.886789 1_555
O50 W2 1.959566 1_555
O51 P3 1.543743 1_555
O51 W20 1.997820 1_555
O52 P1 1.540673 1_555
O52 W4 2.057028 1_555
O53 W20 1.865391 1_555
O53 W14 2.008281 1_555
O54 W22 1.889317 1_555
O54 W10 1.969571 1_655
O55 W4 1.847654 1_555
O55 W22 2.000321 1_555
O56 W13 1.911893 1_555
O56 W19 1.938352 1_445
O57 W17 1.922093 1_555
O57 W2 1.923622 1_555
O58 W20 1.847654 1_555
O58 W18 2.000321 1_555
O59 W8 1.878671 1_555
O59 W0 1.988383 1_645
O60 W16 1.847654 1_555
O60 W0 2.000321 1_555
O61 W21 1.878671 1_555
O61 W3 1.988383 1_555
O62 W14 1.875659 1_455
O62 W18 1.997756 1_565
O63 W13 1.911406 1_555
O63 W19 1.937478 1_545
O64 W15 1.905394 1_555
O64 W17 1.936152 1_555
O65 P0 1.543743 1_555
O65 W4 1.997820 1_565
O66 W11 1.898561 1_555
O66 W13 1.956239 1_655
O67 W1 1.875659 1_555
O67 W22 1.997756 1_555
O68 W13 1.905390 1_555
O68 W5 1.936152 1_554
O69 W12 1.897716 1_455
O69 W15 1.955943 1_555
O70 W18 1.889317 1_555
O70 W12 1.969571 1_555
O71 W15 1.911888 1_555
O71 W2 1.938352 1_565
O72 P0 1.537850 1_555
O72 W16 2.049705 1_655
O73 W8 1.853849 1_555
O73 W11 2.019885 1_555
O74 W9 1.911402 1_455
O74 W5 1.937478 1_555
O75 W21 1.875659 1_655
O75 W3 1.997756 1_555
O76 W12 1.898561 1_555
O76 W15 1.956242 1_555
O77 W9 1.905394 1_555
O77 W19 1.936152 1_546
O78 W23 1.886789 1_555
O78 W5 1.959566 1_555
O79 W22 1.866514 1_555
O79 W7 1.979489 1_555
