# generated using pymatgen
data_LiTiO2
_symmetry_space_group_name_H-M   'P 1'
_cell_length_a   5.86759857
_cell_length_b   5.86759773
_cell_length_c   5.86759867
_cell_angle_alpha   60.00000026
_cell_angle_beta   60.00000503
_cell_angle_gamma   60.00000487
_symmetry_Int_Tables_number   1
_chemical_formula_structural   LiTiO2
_chemical_formula_sum   'Li4 Ti4 O8'
_cell_volume   142.84536818
_cell_formula_units_Z   4
loop_
 _symmetry_equiv_pos_site_id
 _symmetry_equiv_pos_as_xyz
  1  'x, y, z'
loop_
 _atom_site_type_symbol
 _atom_site_label
 _atom_site_symmetry_multiplicity
 _atom_site_fract_x
 _atom_site_fract_y
 _atom_site_fract_z
 _atom_site_occupancy
  Li  Li0  1  0.50000000  0.50000000  0.00000000  1
  Li  Li1  1  0.50000000  -0.00000000  0.50000000  1
  Li  Li2  1  -0.00000000  0.50000000  0.50000000  1
  Li  Li3  1  0.50000000  0.50000000  0.50000000  1
  Ti  Ti0  1  -0.00000000  0.50000000  0.00000000  1
  Ti  Ti1  1  0.50000000  -0.00000000  0.00000000  1
  Ti  Ti2  1  -0.00000000  -0.00000000  0.50000000  1
  Ti  Ti3  1  -0.00000000  -0.00000000  0.00000000  1
  O  O0  1  0.76136477  0.24621174  0.24621174  1
  O  O1  1  0.75378826  0.75378826  0.75378826  1
  O  O2  1  0.24621174  0.76136477  0.24621174  1
  O  O3  1  0.24621174  0.24621174  0.76136477  1
  O  O4  1  0.24621174  0.24621174  0.24621174  1
  O  O5  1  0.75378826  0.75378826  0.23863523  1
  O  O6  1  0.23863523  0.75378826  0.75378826  1
  O  O7  1  0.75378826  0.23863523  0.75378826  1
loop_
_geom_bond_atom_site_label_1
_geom_bond_atom_site_label_2
_geom_bond_distance
_geom_bond_site_symmetry_2
Li0 O4 2.106414 1_555
Li0 O1 2.106414 1_554
Li0 O7 2.106414 1_554
Li0 O2 2.106414 1_555
Li0 O6 2.106414 1_554
Li0 O0 2.106414 1_555
Li1 O6 2.106413 1_545
Li1 O0 2.106413 1_555
Li1 O5 2.106414 1_545
Li1 O3 2.106414 1_555
Li1 O4 2.106414 1_555
Li1 O1 2.106414 1_545
Li2 O2 2.106413 1_555
Li2 O7 2.106413 1_455
Li2 O3 2.106414 1_555
Li2 O5 2.106414 1_455
Li2 O4 2.106414 1_555
Li2 O1 2.106414 1_455
Li3 O5 2.106414 1_555
Li3 O3 2.106414 1_555
Li3 O7 2.106414 1_555
Li3 O2 2.106414 1_555
Li3 O6 2.106414 1_555
Li3 O0 2.106414 1_555
O0 Ti0 2.043558 1_655
O0 Ti3 2.043558 1_655
O0 Ti2 2.043558 1_655
O1 Ti2 2.043558 1_665
O1 Ti0 2.043558 1_656
O1 Ti1 2.043558 1_566
O2 Ti1 2.043558 1_565
O2 Ti3 2.043558 1_565
O2 Ti2 2.043558 1_565
O3 Ti3 2.043558 1_556
O3 Ti0 2.043558 1_556
O3 Ti1 2.043558 1_556
O4 Ti2 2.043558 1_555
O4 Ti0 2.043558 1_555
O4 Ti1 2.043558 1_555
O5 Ti3 2.043558 1_665
O5 Ti0 2.043558 1_655
O5 Ti1 2.043558 1_565
O6 Ti0 2.043558 1_556
O6 Ti3 2.043558 1_566
O6 Ti2 2.043558 1_565
O7 Ti1 2.043558 1_556
O7 Ti3 2.043558 1_656
O7 Ti2 2.043558 1_655
