# generated using pymatgen
data_YbV4O8
_symmetry_space_group_name_H-M   'P 1'
_cell_length_a   7.25333226
_cell_length_b   7.23049965
_cell_length_c   6.98032799
_cell_angle_alpha   96.92012024
_cell_angle_beta   113.37911242
_cell_angle_gamma   74.93775009
_symmetry_Int_Tables_number   1
_chemical_formula_structural   YbV4O8
_chemical_formula_sum   'Yb2 V8 O16'
_cell_volume   324.42213033
_cell_formula_units_Z   2
loop_
 _symmetry_equiv_pos_site_id
 _symmetry_equiv_pos_as_xyz
  1  'x, y, z'
loop_
 _atom_site_type_symbol
 _atom_site_label
 _atom_site_symmetry_multiplicity
 _atom_site_fract_x
 _atom_site_fract_y
 _atom_site_fract_z
 _atom_site_occupancy
  Yb  Yb0  1  0.22783400  0.83933100  0.99681800  1
  Yb  Yb1  1  0.77216600  0.16066900  0.00318200  1
  V  V0  1  0.25487600  0.31983600  0.77749400  1
  V  V1  1  0.23676900  0.06746700  0.48951700  1
  V  V2  1  0.22332800  0.61070200  0.47651700  1
  V  V3  1  0.39180900  0.36799700  0.28866300  1
  V  V4  1  0.60819100  0.63200300  0.71133700  1
  V  V5  1  0.77667200  0.38929800  0.52348300  1
  V  V6  1  0.76323100  0.93253300  0.51048300  1
  V  V7  1  0.74512400  0.68016400  0.22250600  1
  O  O0  1  0.89150200  0.95978400  0.77782300  1
  O  O1  1  0.28408200  0.26020800  0.02381200  1
  O  O2  1  0.04195300  0.20237200  0.59725900  1
  O  O3  1  0.26373300  0.56342200  0.77490200  1
  O  O4  1  0.26020200  0.61958700  0.22164400  1
  O  O5  1  0.23457000  0.34168800  0.42860200  1
  O  O6  1  0.53523400  0.86132300  0.25938000  1
  O  O7  1  0.35195400  0.81954100  0.60835600  1
  O  O8  1  0.64804600  0.18045900  0.39164400  1
  O  O9  1  0.46476600  0.13867700  0.74062000  1
  O  O10  1  0.76543000  0.65831200  0.57139800  1
  O  O11  1  0.73979800  0.38041300  0.77835600  1
  O  O12  1  0.73626700  0.43657800  0.22509800  1
  O  O13  1  0.95804700  0.79762800  0.40274100  1
  O  O14  1  0.71591800  0.73979200  0.97618800  1
  O  O15  1  0.10849800  0.04021600  0.22217700  1
loop_
_geom_bond_atom_site_label_1
_geom_bond_atom_site_label_2
_geom_bond_distance
_geom_bond_site_symmetry_2
O0 V6 1.736555 1_555
O0 Yb1 2.282577 1_566
O0 Yb0 2.302949 1_655
O1 V0 1.740437 1_554
O1 V3 1.859755 1_555
O2 V1 1.861207 1_555
O2 V0 1.889859 1_555
O2 V5 1.955514 1_455
O3 V0 1.781533 1_555
O3 V2 2.043522 1_555
O3 Yb0 2.398472 1_555
O4 V3 1.840495 1_555
O4 V2 1.911794 1_555
O4 Yb0 2.270915 1_554
O5 V3 1.825599 1_555
O5 V2 1.919477 1_555
O5 V1 2.072127 1_555
O5 V0 2.402851 1_555
O6 V7 1.814670 1_555
O6 V6 1.999208 1_555
O6 Yb0 2.286194 1_554
O7 V1 1.905142 1_565
O7 V4 1.916893 1_555
O7 V2 1.927022 1_555
O8 V6 1.905142 1_545
O8 V3 1.916893 1_555
O8 V5 1.927022 1_555
O9 V0 1.814670 1_555
O9 V1 1.999208 1_555
O9 Yb1 2.286194 1_556
O10 V4 1.825599 1_555
O10 V5 1.919477 1_555
O10 V6 2.072127 1_555
O10 V7 2.402851 1_555
O11 V4 1.840495 1_555
O11 V5 1.911794 1_555
O11 Yb1 2.270915 1_556
O12 V7 1.781533 1_555
O12 V5 2.043522 1_555
O12 Yb1 2.398472 1_555
O13 V6 1.861207 1_555
O13 V7 1.889859 1_555
O13 V2 1.955514 1_655
O14 V7 1.740437 1_556
O14 V4 1.859755 1_555
O15 V1 1.736555 1_555
O15 Yb0 2.282577 1_544
O15 Yb1 2.302949 1_455
