# generated using pymatgen
data_Ce3AsS3
_symmetry_space_group_name_H-M   'P 1'
_cell_length_a   8.62824300
_cell_length_b   8.62824300
_cell_length_c   8.62824300
_cell_angle_alpha   90.00000000
_cell_angle_beta   90.00000000
_cell_angle_gamma   90.00000000
_symmetry_Int_Tables_number   1
_chemical_formula_structural   Ce3AsS3
_chemical_formula_sum   'Ce12 As4 S12'
_cell_volume   642.34315918
_cell_formula_units_Z   4
loop_
 _symmetry_equiv_pos_site_id
 _symmetry_equiv_pos_as_xyz
  1  'x, y, z'
loop_
 _atom_site_type_symbol
 _atom_site_label
 _atom_site_symmetry_multiplicity
 _atom_site_fract_x
 _atom_site_fract_y
 _atom_site_fract_z
 _atom_site_occupancy
  Ce  Ce0  1  0.62465800  0.49845400  0.25058400  1
  Ce  Ce1  1  0.24941600  0.37534200  0.99845400  1
  Ce  Ce2  1  0.99845400  0.24941600  0.37534200  1
  Ce  Ce3  1  0.37534200  0.99845400  0.24941600  1
  Ce  Ce4  1  0.74941600  0.12465800  0.00154600  1
  Ce  Ce5  1  0.12465800  0.00154600  0.74941600  1
  Ce  Ce6  1  0.49845400  0.25058400  0.62465800  1
  Ce  Ce7  1  0.75058400  0.87534200  0.50154600  1
  Ce  Ce8  1  0.50154600  0.75058400  0.87534200  1
  Ce  Ce9  1  0.87534200  0.50154600  0.75058400  1
  Ce  Ce10  1  0.25058400  0.62465800  0.49845400  1
  Ce  Ce11  1  0.00154600  0.74941600  0.12465800  1
  As  As0  1  0.32624400  0.32624400  0.32624400  1
  As  As1  1  0.82624400  0.17375600  0.67375600  1
  As  As2  1  0.67375600  0.82624400  0.17375600  1
  As  As3  1  0.17375600  0.67375600  0.82624400  1
  S  S0  1  0.57397500  0.42602500  0.92602500  1
  S  S1  1  0.17515000  0.32485000  0.67515000  1
  S  S2  1  0.92497800  0.42497800  0.07502200  1
  S  S3  1  0.07397500  0.07397500  0.07397500  1
  S  S4  1  0.42497800  0.07502200  0.92497800  1
  S  S5  1  0.07502200  0.92497800  0.42497800  1
  S  S6  1  0.67515000  0.17515000  0.32485000  1
  S  S7  1  0.42602500  0.92602500  0.57397500  1
  S  S8  1  0.57502200  0.57502200  0.57502200  1
  S  S9  1  0.92602500  0.57397500  0.42602500  1
  S  S10  1  0.32485000  0.67515000  0.17515000  1
  S  S11  1  0.82485000  0.82485000  0.82485000  1
loop_
_geom_bond_atom_site_label_1
_geom_bond_atom_site_label_2
_geom_bond_distance
_geom_bond_site_symmetry_2
Ce0 S6 2.895163 1_555
Ce0 S0 2.902391 1_554
Ce0 S8 2.907941 1_555
Ce0 S2 3.067736 1_555
Ce0 S10 3.072389 1_555
Ce0 S9 3.078543 1_555
Ce1 S1 2.895163 1_555
Ce1 S0 2.902391 1_555
Ce1 S2 2.907941 1_456
Ce1 S4 3.067736 1_555
Ce1 S10 3.072389 1_556
Ce1 S3 3.078543 1_556
Ce2 S6 2.895163 1_555
Ce2 S9 2.902391 1_555
Ce2 S5 2.907941 1_645
Ce2 S2 3.067736 1_555
Ce2 S1 3.072389 1_655
Ce2 S3 3.078543 1_655
Ce3 S10 2.895163 1_555
Ce3 S7 2.902391 1_555
Ce3 S4 2.907941 1_564
Ce3 S5 3.067736 1_555
Ce3 S6 3.072389 1_565
Ce3 S3 3.078543 1_565
Ce4 S6 2.895163 1_555
Ce4 S3 2.902391 1_655
Ce4 S4 2.907941 1_554
Ce4 S2 3.067736 1_555
Ce4 S11 3.072389 1_544
Ce4 S0 3.078543 1_554
Ce5 S1 2.895163 1_555
Ce5 S3 2.902391 1_556
Ce5 S5 2.907941 1_545
Ce5 S4 3.067736 1_555
Ce5 S11 3.072389 1_445
Ce5 S7 3.078543 1_545
Ce6 S1 2.895163 1_555
Ce6 S7 2.902391 1_545
Ce6 S8 2.907941 1_555
Ce6 S4 3.067736 1_555
Ce6 S6 3.072389 1_555
Ce6 S0 3.078543 1_555
Ce7 S11 2.895163 1_555
Ce7 S7 2.902391 1_555
Ce7 S5 2.907941 1_655
Ce7 S8 3.067736 1_555
Ce7 S6 3.072389 1_565
Ce7 S9 3.078543 1_555
Ce8 S11 2.895163 1_555
Ce8 S0 2.902391 1_555
Ce8 S4 2.907941 1_565
Ce8 S8 3.067736 1_555
Ce8 S10 3.072389 1_556
Ce8 S7 3.078543 1_555
Ce9 S11 2.895163 1_555
Ce9 S9 2.902391 1_555
Ce9 S2 2.907941 1_556
Ce9 S8 3.067736 1_555
Ce9 S1 3.072389 1_655
Ce9 S0 3.078543 1_555
Ce10 S10 2.895163 1_555
Ce10 S9 2.902391 1_455
Ce10 S8 2.907941 1_555
Ce10 S5 3.067736 1_555
Ce10 S1 3.072389 1_555
Ce10 S7 3.078543 1_555
Ce11 S10 2.895163 1_555
Ce11 S3 2.902391 1_565
Ce11 S2 2.907941 1_455
Ce11 S5 3.067736 1_555
Ce11 S11 3.072389 1_454
Ce11 S9 3.078543 1_455
As0 Ce2 2.935625 1_455
As0 Ce1 2.935625 1_554
As0 Ce3 2.935625 1_545
As0 Ce6 3.043601 1_555
As0 Ce10 3.043601 1_555
As0 Ce0 3.043601 1_555
As1 Ce9 2.935625 1_555
As1 Ce4 2.935625 1_556
As1 Ce6 2.935625 1_555
As1 Ce5 3.043601 1_655
As1 Ce2 3.043601 1_555
As1 Ce7 3.043601 1_545
As2 Ce7 2.935625 1_555
As2 Ce11 2.935625 1_655
As2 Ce0 2.935625 1_555
As2 Ce4 3.043601 1_565
As2 Ce3 3.043601 1_555
As2 Ce8 3.043601 1_554
As3 Ce8 2.935625 1_555
As3 Ce5 2.935625 1_565
As3 Ce10 2.935625 1_555
As3 Ce11 3.043601 1_556
As3 Ce1 3.043601 1_555
As3 Ce9 3.043601 1_455
