# generated using pymatgen
data_Yb(HoS2)2
_symmetry_space_group_name_H-M   'P 1'
_cell_length_a   7.19842247
_cell_length_b   7.19842247
_cell_length_c   7.19842247
_cell_angle_alpha   109.39706072
_cell_angle_beta   109.39706072
_cell_angle_gamma   109.61964249
_symmetry_Int_Tables_number   1
_chemical_formula_structural   Yb(HoS2)2
_chemical_formula_sum   'Yb2 Ho4 S8'
_cell_volume   287.13617973
_cell_formula_units_Z   2
loop_
 _symmetry_equiv_pos_site_id
 _symmetry_equiv_pos_as_xyz
  1  'x, y, z'
loop_
 _atom_site_type_symbol
 _atom_site_label
 _atom_site_symmetry_multiplicity
 _atom_site_fract_x
 _atom_site_fract_y
 _atom_site_fract_z
 _atom_site_occupancy
  Yb  Yb0  1  0.25000000  0.75000000  0.50000000  1
  Yb  Yb1  1  0.00000000  0.00000000  0.00000000  1
  Ho  Ho0  1  0.49779700  0.87500000  0.12279700  1
  Ho  Ho1  1  0.75220300  0.37500000  0.87720300  1
  Ho  Ho2  1  0.12500000  0.24779700  0.62279700  1
  Ho  Ho3  1  0.62500000  0.50220300  0.37720300  1
  S  S0  1  0.01643800  0.61907300  0.74980300  1
  S  S1  1  0.86907300  0.76643800  0.24980300  1
  S  S2  1  0.38092700  0.13073000  0.39736400  1
  S  S3  1  0.73336500  0.98356200  0.60263600  1
  S  S4  1  0.86927000  0.26663500  0.25019700  1
  S  S5  1  0.38073000  0.13092700  0.89736400  1
  S  S6  1  0.23356200  0.48336500  0.10263600  1
  S  S7  1  0.51663500  0.61927000  0.75019700  1
loop_
_geom_bond_atom_site_label_1
_geom_bond_atom_site_label_2
_geom_bond_distance
_geom_bond_site_symmetry_2
Ho0 S4 2.744164 1_565
Ho0 S6 2.744168 1_555
Ho0 S2 2.780396 1_565
Ho0 S7 2.780400 1_554
Ho0 S1 2.973804 1_555
Ho0 S3 2.973810 1_555
Ho0 S0 2.976141 1_554
Ho0 S5 2.976145 1_564
Ho1 S5 2.744160 1_555
Ho1 S0 2.744164 1_655
Ho1 S3 2.780398 1_545
Ho1 S1 2.780400 1_556
Ho1 S7 2.973804 1_555
Ho1 S2 2.973809 1_555
Ho1 S4 2.976141 1_556
Ho1 S6 2.976141 1_656
Ho2 S7 2.744164 1_555
Ho2 S3 2.744168 1_445
Ho2 S5 2.780396 1_555
Ho2 S4 2.780400 1_455
Ho2 S0 2.973804 1_555
Ho2 S6 2.973810 1_556
Ho2 S1 2.976141 1_445
Ho2 S2 2.976145 1_555
Ho3 S2 2.744160 1_555
Ho3 S1 2.744164 1_555
Ho3 S6 2.780398 1_555
Ho3 S0 2.780400 1_655
Ho3 S4 2.973804 1_555
Ho3 S5 2.973809 1_554
Ho3 S7 2.976141 1_555
Ho3 S3 2.976141 1_555
S0 Yb1 2.802820 1_566
S0 Yb0 3.003019 1_555
S1 Yb0 2.802820 1_655
S1 Yb1 3.003019 1_665
S2 Yb1 2.802815 1_555
S2 Yb0 3.003024 1_545
S3 Yb1 2.802814 1_666
S3 Yb0 3.003017 1_555
S4 Yb1 2.802820 1_655
S4 Yb0 3.003019 1_655
S5 Yb0 2.802815 1_545
S5 Yb1 3.003024 1_556
S6 Yb0 2.802814 1_555
S6 Yb1 3.003017 1_555
S7 Yb0 2.802820 1_555
S7 Yb1 3.003019 1_666
