# generated using pymatgen
data_Cs10(Mo2N5)3
_symmetry_space_group_name_H-M   'P 1'
_cell_length_a   12.18541532
_cell_length_b   12.18538167
_cell_length_c   12.18538195
_cell_angle_alpha   65.60051288
_cell_angle_beta   65.60094885
_cell_angle_gamma   65.60093277
_symmetry_Int_Tables_number   1
_chemical_formula_structural   Cs10(Mo2N5)3
_chemical_formula_sum   'Cs20 Mo12 N30'
_cell_volume   1435.03021094
_cell_formula_units_Z   2
loop_
 _symmetry_equiv_pos_site_id
 _symmetry_equiv_pos_as_xyz
  1  'x, y, z'
loop_
 _atom_site_type_symbol
 _atom_site_label
 _atom_site_symmetry_multiplicity
 _atom_site_fract_x
 _atom_site_fract_y
 _atom_site_fract_z
 _atom_site_occupancy
  Cs  Cs0  1  0.44338503  0.55721663  0.17542052  1
  Cs  Cs1  1  0.17543382  0.44337327  0.55724092  1
  Cs  Cs2  1  0.55719650  0.17543055  0.44342234  1
  Cs  Cs3  1  0.25000449  0.42331390  0.07666973  1
  Cs  Cs4  1  0.07668985  0.24999147  0.42332660  1
  Cs  Cs5  1  0.42329428  0.07670474  0.25000335  1
  Cs  Cs6  1  0.05663082  0.32456926  0.94275753  1
  Cs  Cs7  1  0.94279107  0.05661115  0.32457721  1
  Cs  Cs8  1  0.32456841  0.94279819  0.05657733  1
  Cs  Cs9  1  0.00004052  -0.00000217  -0.00003887  1
  Cs  Cs10  1  0.67542723  0.05723372  0.94336320  1
  Cs  Cs11  1  0.05722716  0.94339543  0.67543690  1
  Cs  Cs12  1  0.94341934  0.67542447  0.05719357  1
  Cs  Cs13  1  0.57666903  0.92332687  0.75000540  1
  Cs  Cs14  1  0.92331434  0.74999000  0.57670381  1
  Cs  Cs15  1  0.75000449  0.57669308  0.92329224  1
  Cs  Cs16  1  0.44275946  0.82457083  0.55663765  1
  Cs  Cs17  1  0.82457617  0.55658649  0.44280492  1
  Cs  Cs18  1  0.55659776  0.44278091  0.82456448  1
  Cs  Cs19  1  0.49996625  0.49999086  0.50004329  1
  Mo  Mo0  1  0.25449211  0.79433321  0.39959657  1
  Mo  Mo1  1  0.79432126  0.39958263  0.25449880  1
  Mo  Mo2  1  0.39958515  0.25449880  0.79432039  1
  Mo  Mo3  1  0.70568568  0.24551056  0.10039937  1
  Mo  Mo4  1  0.89959410  0.29431504  0.75449837  1
  Mo  Mo5  1  0.24549896  0.10041743  0.70567813  1
  Mo  Mo6  1  0.75448810  0.89960108  0.29432819  1
  Mo  Mo7  1  0.10041845  0.70566136  0.24550119  1
  Mo  Mo8  1  0.29433403  0.75450285  0.89956892  1
  Mo  Mo9  1  0.60041148  0.74550084  0.20566678  1
  Mo  Mo10  1  0.20567248  0.60041248  0.74550612  1
  Mo  Mo11  1  0.74550211  0.20568401  0.60041278  1
  N  N0  1  0.42903889  0.76460885  0.30543131  1
  N  N1  1  0.30542048  0.42904034  0.76461200  1
  N  N2  1  0.76460371  0.30543811  0.42904494  1
  N  N3  1  0.10794583  0.54581111  0.31009162  1
  N  N4  1  0.25000070  0.67109432  0.82890185  1
  N  N5  1  0.54583033  0.31008230  0.10793392  1
  N  N6  1  0.95417482  0.39205486  0.18991941  1
  N  N7  1  0.82890739  0.24998975  0.67110585  1
  N  N8  1  0.31008835  0.10794168  0.54583740  1
  N  N9  1  0.39205593  0.18991835  0.95416526  1
  N  N10  1  0.67109045  0.82890034  0.25000925  1
  N  N11  1  0.18990003  0.95418150  0.39206672  1
  N  N12  1  0.80544340  0.26460443  0.92903089  1
  N  N13  1  0.07096172  0.19457191  0.73538818  1
  N  N14  1  0.73539445  0.07097550  0.19455153  1
  N  N15  1  0.26461194  0.92905094  0.80541711  1
  N  N16  1  0.92904170  0.80542877  0.26460618  1
  N  N17  1  0.19458841  0.73539073  0.07093922  1
  N  N18  1  0.81007294  0.04582946  0.60795429  1
  N  N19  1  0.32889728  0.17109342  0.75000793  1
  N  N20  1  0.60793692  0.81009683  0.04581276  1
  N  N21  1  0.68991601  0.89205386  0.45418957  1
  N  N22  1  0.17109968  0.74999142  0.32891315  1
  N  N23  1  0.04583428  0.60793813  0.81008732  1
  N  N24  1  0.45417038  0.68991501  0.89205181  1
  N  N25  1  0.75000153  0.32889919  0.17109682  1
  N  N26  1  0.89206400  0.45416490  0.68991335  1
  N  N27  1  0.23538473  0.69457240  0.57097113  1
  N  N28  1  0.69456689  0.57094904  0.23539630  1
  N  N29  1  0.57095693  0.23539459  0.69457320  1
loop_
_geom_bond_atom_site_label_1
_geom_bond_atom_site_label_2
_geom_bond_distance
_geom_bond_site_symmetry_2
Cs0 N5 3.065183 1_555
Cs0 N24 3.121301 1_554
Cs1 N3 3.065358 1_555
Cs1 N26 3.121294 1_455
Cs2 N8 3.064943 1_555
Cs2 N21 3.121462 1_545
Cs3 N9 3.258617 1_554
Cs3 N3 3.258833 1_555
Cs3 N4 3.271098 1_554
Cs3 N5 3.410909 1_555
Cs3 N6 3.410912 1_455
Cs3 N1 3.552251 1_554
Cs3 N17 3.552463 1_555
Cs4 N8 3.258686 1_555
Cs4 N6 3.258794 1_455
Cs4 N7 3.271210 1_455
Cs4 N11 3.410722 1_545
Cs4 N3 3.410779 1_555
Cs4 N13 3.552276 1_555
Cs4 N2 3.552546 1_455
Cs5 N5 3.258642 1_555
Cs5 N11 3.258730 1_545
Cs5 N10 3.271466 1_545
Cs5 N8 3.410895 1_555
Cs5 N9 3.410928 1_554
Cs5 N0 3.552593 1_545
Cs5 N14 3.552653 1_555
Cs6 N6 3.065474 1_456
Cs6 N23 3.121248 1_555
Cs7 N11 3.064936 1_645
Cs7 N18 3.121430 1_555
Cs8 N9 3.065061 1_564
Cs8 N20 3.121373 1_555
Cs9 N15 3.136418 1_544
Cs9 N13 3.136515 1_554
Cs9 N17 3.136749 1_545
Cs9 N12 3.136917 1_454
Cs9 N16 3.137171 1_445
Cs9 N14 3.137278 1_455
Cs10 N20 3.065217 1_546
Cs10 N9 3.121295 1_555
Cs11 N18 3.065398 1_465
Cs11 N11 3.121303 1_555
Cs12 N23 3.064906 1_654
Cs12 N6 3.121410 1_555
Cs13 N18 3.258682 1_565
Cs13 N24 3.258726 1_555
Cs13 N19 3.271055 1_565
Cs13 N20 3.410699 1_556
Cs13 N21 3.410816 1_555
Cs13 N15 3.552278 1_555
Cs13 N29 3.552379 1_565
Cs14 N23 3.258589 1_655
Cs14 N21 3.258706 1_555
Cs14 N22 3.271305 1_655
Cs14 N26 3.410840 1_555
Cs14 N18 3.410985 1_565
Cs14 N27 3.552383 1_655
Cs14 N16 3.552654 1_555
Cs15 N26 3.258617 1_555
Cs15 N20 3.258814 1_556
Cs15 N25 3.271429 1_556
Cs15 N23 3.410891 1_655
Cs15 N24 3.410902 1_555
Cs15 N12 3.552502 1_555
Cs15 N28 3.552669 1_556
Cs16 N21 3.065409 1_555
Cs16 N8 3.121273 1_565
Cs17 N26 3.064918 1_555
Cs17 N3 3.121371 1_655
Cs18 N24 3.065209 1_555
Cs18 N5 3.121353 1_556
Cs19 N1 3.136402 1_555
Cs19 N29 3.136585 1_555
Cs19 N27 3.136657 1_555
Cs19 N2 3.137052 1_555
Cs19 N0 3.137063 1_555
Cs19 N28 3.137289 1_555
Mo0 N11 1.751369 1_555
Mo0 N22 1.904629 1_555
Mo0 N27 1.904629 1_555
Mo0 N0 1.913691 1_555
Mo1 N6 1.751437 1_555
Mo1 N25 1.904541 1_555
Mo1 N28 1.904545 1_555
Mo1 N2 1.913617 1_555
Mo2 N9 1.751326 1_555
Mo2 N19 1.904557 1_555
Mo2 N29 1.904581 1_555
Mo2 N1 1.913635 1_555
Mo3 N5 1.751437 1_555
Mo3 N25 1.904507 1_555
Mo3 N12 1.904582 1_554
Mo3 N14 1.913534 1_555
Mo4 N26 1.751379 1_555
Mo4 N7 1.904523 1_555
Mo4 N13 1.904524 1_655
Mo4 N12 1.913512 1_555
Mo5 N8 1.751300 1_555
Mo5 N15 1.904485 1_545
Mo5 N19 1.904517 1_555
Mo5 N13 1.913575 1_555
Mo6 N21 1.751464 1_555
Mo6 N10 1.904657 1_555
Mo6 N14 1.904685 1_565
Mo6 N16 1.913776 1_555
Mo7 N3 1.751392 1_555
Mo7 N16 1.904685 1_455
Mo7 N22 1.904708 1_555
Mo7 N17 1.913840 1_555
Mo8 N24 1.751277 1_555
Mo8 N17 1.904549 1_556
Mo8 N4 1.904565 1_555
Mo8 N15 1.913654 1_555
Mo9 N20 1.751439 1_555
Mo9 N0 1.904635 1_555
Mo9 N10 1.904664 1_555
Mo9 N28 1.913703 1_555
Mo10 N23 1.751273 1_555
Mo10 N4 1.904534 1_555
Mo10 N1 1.904578 1_555
Mo10 N27 1.913553 1_555
Mo11 N18 1.751403 1_555
Mo11 N7 1.904550 1_555
Mo11 N2 1.904551 1_555
Mo11 N29 1.913667 1_555
