# generated using pymatgen
data_Na3Sm7Cl24
_symmetry_space_group_name_H-M   'P 1'
_cell_length_a   7.55064801
_cell_length_b   7.55064801
_cell_length_c   16.76443600
_cell_angle_alpha   90.00000000
_cell_angle_beta   90.00000000
_cell_angle_gamma   120.00000013
_symmetry_Int_Tables_number   1
_chemical_formula_structural   Na3Sm7Cl24
_chemical_formula_sum   'Na3 Sm7 Cl24'
_cell_volume   827.72872922
_cell_formula_units_Z   1
loop_
 _symmetry_equiv_pos_site_id
 _symmetry_equiv_pos_as_xyz
  1  'x, y, z'
loop_
 _atom_site_type_symbol
 _atom_site_label
 _atom_site_symmetry_multiplicity
 _atom_site_fract_x
 _atom_site_fract_y
 _atom_site_fract_z
 _atom_site_occupancy
  Na  Na0  1  0.00000000  0.00000000  0.50000000  1
  Na  Na1  1  0.66666700  0.33333300  0.38835700  1
  Na  Na2  1  0.66666700  0.33333300  0.61164300  1
  Sm  Sm0  1  0.00000000  0.00000000  0.75228200  1
  Sm  Sm1  1  0.00000000  0.00000000  0.00000000  1
  Sm  Sm2  1  0.00000000  0.00000000  0.24771800  1
  Sm  Sm3  1  0.33333300  0.66666700  0.87677500  1
  Sm  Sm4  1  0.33333300  0.66666700  0.12322500  1
  Sm  Sm5  1  0.33333300  0.66666700  0.37440700  1
  Sm  Sm6  1  0.33333300  0.66666700  0.62559300  1
  Cl  Cl0  1  0.97173700  0.24498700  0.87670900  1
  Cl  Cl1  1  0.97173700  0.24498700  0.12329100  1
  Cl  Cl2  1  0.98108900  0.25368800  0.36807800  1
  Cl  Cl3  1  0.98108900  0.25368800  0.63192200  1
  Cl  Cl4  1  0.75501300  0.72675000  0.87670900  1
  Cl  Cl5  1  0.75501300  0.72675000  0.12329100  1
  Cl  Cl6  1  0.74631200  0.72740100  0.36807800  1
  Cl  Cl7  1  0.74631200  0.72740100  0.63192200  1
  Cl  Cl8  1  0.05810300  0.63624700  0.75334500  1
  Cl  Cl9  1  0.05955600  0.63729800  0.00000000  1
  Cl  Cl10  1  0.05810300  0.63624700  0.24665500  1
  Cl  Cl11  1  0.04935400  0.61202000  0.50000000  1
  Cl  Cl12  1  0.27325000  0.02826300  0.87670900  1
  Cl  Cl13  1  0.27325000  0.02826300  0.12329100  1
  Cl  Cl14  1  0.27259900  0.01891100  0.36807800  1
  Cl  Cl15  1  0.27259900  0.01891100  0.63192200  1
  Cl  Cl16  1  0.57814400  0.94189700  0.75334500  1
  Cl  Cl17  1  0.57774100  0.94044400  0.00000000  1
  Cl  Cl18  1  0.57814400  0.94189700  0.24665500  1
  Cl  Cl19  1  0.56266600  0.95064600  0.50000000  1
  Cl  Cl20  1  0.36375300  0.42185600  0.75334500  1
  Cl  Cl21  1  0.36270200  0.42225900  0.00000000  1
  Cl  Cl22  1  0.36375300  0.42185600  0.24665500  1
  Cl  Cl23  1  0.38798000  0.43733400  0.50000000  1
loop_
_geom_bond_atom_site_label_1
_geom_bond_atom_site_label_2
_geom_bond_distance
_geom_bond_site_symmetry_2
Cl0 Sm1 2.852050 1_656
Cl0 Sm0 2.865882 1_655
Cl0 Sm3 2.983107 1_655
Cl1 Sm1 2.852050 1_655
Cl1 Sm2 2.865882 1_655
Cl1 Sm4 2.983107 1_655
Cl2 Na1 2.746131 1_555
Cl2 Sm2 2.834513 1_655
Cl2 Sm5 2.918065 1_655
Cl2 Na0 2.975608 1_655
Cl3 Na2 2.746131 1_555
Cl3 Sm0 2.834513 1_655
Cl3 Sm6 2.918065 1_655
Cl3 Na0 2.975608 1_655
Cl4 Sm1 2.852050 1_666
Cl4 Sm0 2.865882 1_665
Cl4 Sm3 2.983110 1_555
Cl5 Sm1 2.852050 1_665
Cl5 Sm2 2.865882 1_665
Cl5 Sm4 2.983110 1_555
Cl6 Na1 2.746139 1_555
Cl6 Sm2 2.834513 1_665
Cl6 Sm5 2.918068 1_555
Cl6 Na0 2.975608 1_665
Cl7 Na2 2.746139 1_555
Cl7 Sm0 2.834513 1_665
Cl7 Sm6 2.918068 1_555
Cl7 Na0 2.975608 1_665
Cl8 Sm3 2.859357 1_555
Cl8 Sm6 2.912221 1_555
Cl8 Sm0 2.990218 1_565
Cl9 Sm4 2.851592 1_555
Cl9 Sm3 2.851592 1_554
Cl9 Sm1 2.988958 1_565
Cl10 Sm4 2.859357 1_555
Cl10 Sm5 2.912221 1_555
Cl10 Sm2 2.990218 1_565
Cl11 Sm6 2.883803 1_555
Cl11 Sm5 2.883803 1_555
Cl11 Na0 3.132497 1_565
Cl11 Na2 3.193745 1_455
Cl11 Na1 3.193745 1_455
Cl12 Sm1 2.852050 1_556
Cl12 Sm0 2.865882 1_555
Cl12 Sm3 2.983103 1_545
Cl13 Sm1 2.852050 1_555
Cl13 Sm2 2.865882 1_555
Cl13 Sm4 2.983103 1_545
Cl14 Na1 2.746136 1_555
Cl14 Sm2 2.834513 1_555
Cl14 Sm5 2.918060 1_545
Cl14 Na0 2.975608 1_555
Cl15 Na2 2.746136 1_555
Cl15 Sm0 2.834513 1_555
Cl15 Sm6 2.918060 1_545
Cl15 Na0 2.975608 1_555
Cl16 Sm3 2.859359 1_555
Cl16 Sm6 2.912223 1_555
Cl16 Sm0 2.990218 1_665
Cl17 Sm4 2.851592 1_555
Cl17 Sm3 2.851592 1_554
Cl17 Sm1 2.988965 1_665
Cl18 Sm4 2.859359 1_555
Cl18 Sm5 2.912223 1_555
Cl18 Sm2 2.990218 1_665
Cl19 Sm6 2.883805 1_555
Cl19 Sm5 2.883805 1_555
Cl19 Na0 3.132497 1_665
Cl19 Na2 3.193743 1_565
Cl19 Na1 3.193743 1_565
Cl20 Sm3 2.859362 1_555
Cl20 Sm6 2.912226 1_555
Cl20 Sm0 2.990218 1_555
Cl21 Sm4 2.851592 1_555
Cl21 Sm3 2.851592 1_554
Cl21 Sm1 2.988962 1_555
Cl22 Sm4 2.859362 1_555
Cl22 Sm5 2.912226 1_555
Cl22 Sm2 2.990218 1_555
Cl23 Sm6 2.883808 1_555
Cl23 Sm5 2.883808 1_555
Cl23 Na0 3.132497 1_555
Cl23 Na2 3.193749 1_555
Cl23 Na1 3.193749 1_555
