# generated using pymatgen
data_NbZn16
_symmetry_space_group_name_H-M   'P 1'
_cell_length_a   6.81020880
_cell_length_b   6.81020934
_cell_length_c   11.50979195
_cell_angle_alpha   90.00000000
_cell_angle_beta   90.00000000
_cell_angle_gamma   111.97580925
_symmetry_Int_Tables_number   1
_chemical_formula_structural   NbZn16
_chemical_formula_sum   'Nb2 Zn32'
_cell_volume   495.02628681
_cell_formula_units_Z   2
loop_
 _symmetry_equiv_pos_site_id
 _symmetry_equiv_pos_as_xyz
  1  'x, y, z'
loop_
 _atom_site_type_symbol
 _atom_site_label
 _atom_site_symmetry_multiplicity
 _atom_site_fract_x
 _atom_site_fract_y
 _atom_site_fract_z
 _atom_site_occupancy
  Nb  Nb0  1  0.04767998  0.95232002  0.75000000  1
  Nb  Nb1  1  0.95232002  0.04767998  0.25000000  1
  Zn  Zn0  1  0.75371505  0.64984038  0.36594128  1
  Zn  Zn1  1  0.35515768  0.98169493  0.93124432  1
  Zn  Zn2  1  0.62002540  0.37997460  0.96742855  1
  Zn  Zn3  1  0.01830507  0.64484232  0.56875568  1
  Zn  Zn4  1  0.19135996  0.48204506  0.25000000  1
  Zn  Zn5  1  0.64984038  0.75371505  0.86594128  1
  Zn  Zn6  1  0.37997460  0.62002540  0.46742855  1
  Zn  Zn7  1  0.35015962  0.24628495  0.13405872  1
  Zn  Zn8  1  0.17552327  0.82447673  0.36012119  1
  Zn  Zn9  1  0.98169493  0.35515768  0.06875568  1
  Zn  Zn10  1  0.24628495  0.35015962  0.86594128  1
  Zn  Zn11  1  0.64484232  0.01830507  0.43124432  1
  Zn  Zn12  1  0.80864004  0.51795494  0.75000000  1
  Zn  Zn13  1  0.24628495  0.35015962  0.63405872  1
  Zn  Zn14  1  0.37997460  0.62002540  0.03257145  1
  Zn  Zn15  1  0.35015962  0.24628495  0.36594128  1
  Zn  Zn16  1  0.75371505  0.64984038  0.13405872  1
  Zn  Zn17  1  0.51795494  0.80864004  0.25000000  1
  Zn  Zn18  1  0.00000000  -0.00000000  -0.00000000  1
  Zn  Zn19  1  0.62002540  0.37997460  0.53257145  1
  Zn  Zn20  1  0.29096789  0.70903211  0.75000000  1
  Zn  Zn21  1  0.48204506  0.19135996  0.75000000  1
  Zn  Zn22  1  0.64484232  0.01830507  0.06875568  1
  Zn  Zn23  1  0.64984038  0.75371505  0.63405872  1
  Zn  Zn24  1  0.17552327  0.82447673  0.13987881  1
  Zn  Zn25  1  0.01830507  0.64484232  0.93124432  1
  Zn  Zn26  1  0.00000000  -0.00000000  0.50000000  1
  Zn  Zn27  1  0.98169493  0.35515768  0.43124432  1
  Zn  Zn28  1  0.35515768  0.98169493  0.56875568  1
  Zn  Zn29  1  0.70903211  0.29096789  0.25000000  1
  Zn  Zn30  1  0.82447673  0.17552327  0.86012119  1
  Zn  Zn31  1  0.82447673  0.17552327  0.63987881  1
loop_
_geom_bond_atom_site_label_1
_geom_bond_atom_site_label_2
_geom_bond_distance
_geom_bond_site_symmetry_2
Nb0 Zn20 2.746777 1_555
Nb0 Zn21 2.792212 1_565
Nb0 Zn12 2.792212 1_455
Nb0 Zn30 2.820810 1_465
Nb0 Zn31 2.820810 1_465
Nb0 Zn23 2.864994 1_455
Nb0 Zn5 2.864994 1_455
Nb0 Zn10 2.864994 1_565
Nb0 Zn13 2.864994 1_565
Nb0 Zn28 2.909129 1_555
Nb0 Zn1 2.909129 1_555
Nb0 Zn25 2.909129 1_555
Nb0 Zn3 2.909129 1_555
Nb0 Zn18 2.927370 1_566
Nb0 Zn26 2.927370 1_565
Nb1 Zn29 2.746777 1_555
Nb1 Zn17 2.792212 1_545
Nb1 Zn4 2.792212 1_655
Nb1 Zn8 2.820810 1_645
Nb1 Zn24 2.820810 1_645
Nb1 Zn15 2.864994 1_655
Nb1 Zn7 2.864994 1_655
Nb1 Zn0 2.864994 1_545
Nb1 Zn16 2.864994 1_545
Nb1 Zn11 2.909129 1_555
Nb1 Zn22 2.909129 1_555
Nb1 Zn9 2.909129 1_555
Nb1 Zn27 2.909129 1_555
Nb1 Zn26 2.927370 1_655
Nb1 Zn18 2.927370 1_655
Zn0 Zn19 2.575369 1_555
Zn0 Zn17 2.612998 1_555
Zn0 Zn8 2.667178 1_655
Zn0 Zn16 2.668920 1_555
Zn0 Zn29 2.699979 1_555
Zn0 Zn6 2.738099 1_555
Zn0 Zn26 2.808400 1_665
Zn0 Zn3 2.956882 1_655
Zn0 Zn11 2.967128 1_565
Zn0 Zn27 3.055307 1_555
Zn0 Zn15 3.074618 1_555
Zn1 Zn22 2.468005 1_566
Zn1 Zn21 2.492750 1_565
Zn1 Zn25 2.566421 1_555
Zn1 Zn18 2.591826 1_566
Zn1 Zn2 2.668772 1_565
Zn1 Zn20 2.717235 1_555
Zn1 Zn24 2.725633 1_556
Zn1 Zn14 2.786908 1_556
Zn1 Zn7 2.956882 1_566
Zn1 Zn10 2.967128 1_565
Zn1 Zn5 3.055307 1_555
Zn1 Zn30 3.077401 1_565
Zn2 Zn7 2.575368 1_556
Zn2 Zn30 2.617957 1_555
Zn2 Zn25 2.668772 1_655
Zn2 Zn5 2.738100 1_555
Zn2 Zn9 2.786908 1_556
Zn2 Zn22 2.786908 1_556
Zn2 Zn21 2.809336 1_555
Zn3 Zn8 2.725633 1_555
Zn3 Zn6 2.786908 1_555
Zn3 Zn31 3.077401 1_455
Zn4 Zn9 2.492750 1_455
Zn4 Zn7 2.612998 1_555
Zn4 Zn8 2.691603 1_555
Zn4 Zn6 2.809336 1_555
Zn6 Zn8 2.617957 1_555
Zn7 Zn9 2.967128 1_455
Zn10 Zn14 2.575369 1_556
Zn10 Zn21 2.612998 1_555
Zn10 Zn30 2.667178 1_455
Zn10 Zn13 2.668920 1_555
Zn10 Zn20 2.699979 1_555
Zn10 Zn2 2.738099 1_555
Zn10 Zn18 2.808400 1_556
Zn10 Zn9 2.956882 1_456
Zn10 Zn25 3.055307 1_555
Zn10 Zn5 3.074618 1_555
Zn11 Zn28 2.468005 1_545
Zn11 Zn17 2.492750 1_545
Zn11 Zn27 2.566421 1_555
Zn11 Zn26 2.591826 1_655
Zn11 Zn6 2.668772 1_545
Zn11 Zn29 2.717235 1_555
Zn11 Zn31 2.725633 1_555
Zn11 Zn19 2.786908 1_555
Zn11 Zn23 2.956882 1_545
Zn11 Zn15 3.055307 1_555
Zn11 Zn8 3.077401 1_545
Zn12 Zn21 2.488270 1_555
Zn12 Zn3 2.492750 1_655
Zn12 Zn25 2.492750 1_655
Zn12 Zn5 2.612998 1_555
Zn12 Zn23 2.612998 1_555
Zn12 Zn30 2.691603 1_555
Zn12 Zn31 2.691603 1_555
Zn12 Zn19 2.809336 1_555
Zn12 Zn2 2.809336 1_555
Zn12 Zn20 3.046942 1_655
Zn13 Zn6 2.575369 1_555
Zn13 Zn21 2.612998 1_555
Zn13 Zn31 2.667178 1_455
Zn13 Zn20 2.699979 1_555
Zn13 Zn19 2.738099 1_555
Zn13 Zn26 2.808400 1_555
Zn13 Zn27 2.956882 1_455
Zn13 Zn28 2.967128 1_545
Zn13 Zn3 3.055307 1_555
Zn13 Zn23 3.074618 1_555
Zn14 Zn5 2.575368 1_554
Zn14 Zn24 2.617957 1_555
Zn14 Zn9 2.668772 1_455
Zn14 Zn22 2.668772 1_565
Zn14 Zn16 2.738099 1_555
Zn14 Zn7 2.738100 1_555
Zn14 Zn25 2.786908 1_554
Zn14 Zn4 2.809336 1_555
Zn14 Zn17 2.809336 1_555
Zn14 Zn2 2.812030 1_554
Zn15 Zn19 2.575368 1_555
Zn15 Zn4 2.612998 1_555
Zn15 Zn8 2.667179 1_545
Zn15 Zn7 2.668920 1_555
Zn15 Zn29 2.699979 1_555
Zn15 Zn6 2.738100 1_555
Zn15 Zn26 2.808400 1_555
Zn15 Zn28 2.956882 1_545
Zn15 Zn27 2.967128 1_455
Zn16 Zn2 2.575369 1_554
Zn16 Zn17 2.612998 1_555
Zn16 Zn24 2.667178 1_655
Zn16 Zn29 2.699979 1_555
Zn16 Zn18 2.808400 1_665
Zn16 Zn25 2.956882 1_654
Zn16 Zn22 2.967128 1_565
Zn16 Zn9 3.055307 1_555
Zn16 Zn7 3.074618 1_555
Zn17 Zn4 2.488270 1_555
Zn17 Zn22 2.492750 1_565
Zn17 Zn8 2.691603 1_555
Zn17 Zn24 2.691603 1_555
Zn17 Zn6 2.809336 1_555
Zn17 Zn29 3.046942 1_565
Zn18 Zn24 2.553263 1_545
Zn18 Zn30 2.553263 1_454
Zn18 Zn22 2.591826 1_455
Zn18 Zn25 2.591826 1_544
Zn18 Zn9 2.591826 1_455
Zn18 Zn7 2.808400 1_555
Zn18 Zn5 2.808400 1_444
Zn19 Zn31 2.617957 1_555
Zn19 Zn3 2.668772 1_655
Zn19 Zn28 2.668772 1_545
Zn19 Zn23 2.738100 1_555
Zn19 Zn27 2.786908 1_555
Zn19 Zn21 2.809336 1_555
Zn19 Zn6 2.812030 1_555
Zn20 Zn23 2.699979 1_555
Zn20 Zn5 2.699979 1_555
Zn20 Zn25 2.717234 1_555
Zn20 Zn3 2.717234 1_555
Zn20 Zn28 2.717235 1_555
Zn20 Zn21 3.046942 1_565
Zn21 Zn28 2.492750 1_545
Zn21 Zn31 2.691603 1_555
Zn21 Zn30 2.691603 1_555
Zn22 Zn9 2.566421 1_555
Zn22 Zn29 2.717235 1_555
Zn22 Zn30 2.725633 1_554
Zn22 Zn5 2.956882 1_544
Zn22 Zn7 3.055307 1_555
Zn22 Zn24 3.077401 1_545
Zn23 Zn6 2.575368 1_555
Zn23 Zn31 2.667179 1_565
Zn23 Zn5 2.668920 1_555
Zn23 Zn26 2.808400 1_665
Zn23 Zn3 2.967128 1_655
Zn23 Zn28 3.055307 1_555
Zn24 Zn8 2.534944 1_555
Zn24 Zn7 2.667179 1_565
Zn24 Zn4 2.691603 1_555
Zn24 Zn25 2.725633 1_554
Zn24 Zn9 3.077401 1_455
Zn25 Zn9 2.468005 1_456
Zn25 Zn5 2.967128 1_455
Zn25 Zn30 3.077401 1_455
Zn26 Zn8 2.553263 1_545
Zn26 Zn31 2.553263 1_455
Zn26 Zn28 2.591826 1_545
Zn26 Zn3 2.591826 1_545
Zn26 Zn27 2.591826 1_455
Zn27 Zn3 2.468005 1_655
Zn27 Zn4 2.492750 1_655
Zn27 Zn6 2.668772 1_655
Zn27 Zn29 2.717234 1_555
Zn27 Zn31 2.725633 1_555
Zn27 Zn8 3.077401 1_655
Zn28 Zn3 2.566421 1_555
Zn28 Zn8 2.725633 1_555
Zn28 Zn6 2.786908 1_555
Zn28 Zn31 3.077401 1_565
Zn29 Zn7 2.699979 1_555
Zn29 Zn9 2.717234 1_555
Zn29 Zn4 3.046942 1_655
Zn30 Zn31 2.534944 1_555
Zn30 Zn5 2.667179 1_545
Zn30 Zn9 2.725633 1_556
