# generated using pymatgen
data_Ba13Ru10BrO36
_symmetry_space_group_name_H-M   'P 1'
_cell_length_a   11.70460006
_cell_length_b   11.70460006
_cell_length_c   20.41674407
_cell_angle_alpha   81.93305780
_cell_angle_beta   81.93305780
_cell_angle_gamma   60.05118338
_symmetry_Int_Tables_number   1
_chemical_formula_structural   Ba13Ru10BrO36
_chemical_formula_sum   'Ba26 Ru20 Br2 O72'
_cell_volume   2391.51581743
_cell_formula_units_Z   2
loop_
 _symmetry_equiv_pos_site_id
 _symmetry_equiv_pos_as_xyz
  1  'x, y, z'
loop_
 _atom_site_type_symbol
 _atom_site_label
 _atom_site_symmetry_multiplicity
 _atom_site_fract_x
 _atom_site_fract_y
 _atom_site_fract_z
 _atom_site_occupancy
  Ba  Ba0  1  0.34418500  0.34418500  0.43519600  1
  Ba  Ba1  1  0.38083400  0.38083400  0.21453300  1
  Ba  Ba2  1  0.47058500  0.47058500  0.68068700  1
  Ba  Ba3  1  0.84402900  0.34428900  0.43537600  1
  Ba  Ba4  1  0.34428900  0.84402900  0.43537600  1
  Ba  Ba5  1  0.52941500  0.52941500  0.31931300  1
  Ba  Ba6  1  0.87795500  0.38391200  0.21993500  1
  Ba  Ba7  1  0.38391200  0.87795500  0.21993500  1
  Ba  Ba8  1  0.61916600  0.61916600  0.78546700  1
  Ba  Ba9  1  0.47014700  0.96838700  0.68063400  1
  Ba  Ba10  1  0.96838700  0.47014700  0.68063400  1
  Ba  Ba11  1  0.65581500  0.65581500  0.56480400  1
  Ba  Ba12  1  0.84413400  0.84413400  0.43503900  1
  Ba  Ba13  1  0.52985300  0.03161300  0.31936600  1
  Ba  Ba14  1  0.03161300  0.52985300  0.31936600  1
  Ba  Ba15  1  0.87789100  0.87789100  0.21652700  1
  Ba  Ba16  1  0.94163900  0.94163900  0.89177800  1
  Ba  Ba17  1  0.61608800  0.12204500  0.78006500  1
  Ba  Ba18  1  0.12204500  0.61608800  0.78006500  1
  Ba  Ba19  1  0.97015400  0.97015400  0.68056700  1
  Ba  Ba20  1  0.15597100  0.65571100  0.56462400  1
  Ba  Ba21  1  0.65571100  0.15597100  0.56462400  1
  Ba  Ba22  1  0.02984600  0.02984600  0.31943300  1
  Ba  Ba23  1  0.05836100  0.05836100  0.10822200  1
  Ba  Ba24  1  0.12210900  0.12210900  0.78347300  1
  Ba  Ba25  1  0.15586600  0.15586600  0.56496100  1
  Ru  Ru0  1  0.29171100  0.29171100  0.74926400  1
  Ru  Ru1  1  0.31516500  0.31516500  0.60943900  1
  Ru  Ru2  1  0.29273100  0.79085100  0.74892000  1
  Ru  Ru3  1  0.79085100  0.29273100  0.74892000  1
  Ru  Ru4  1  0.31441900  0.81508400  0.60992200  1
  Ru  Ru5  1  0.81508400  0.31441900  0.60992200  1
  Ru  Ru6  1  0.50000000  0.50000000  0.50000000  1
  Ru  Ru7  1  0.79179700  0.79179700  0.74945100  1
  Ru  Ru8  1  0.81533300  0.81533300  0.61012700  1
  Ru  Ru9  1  0.00000000  0.50000000  0.50000000  1
  Ru  Ru10  1  0.50000000  0.00000000  0.50000000  1
  Ru  Ru11  1  0.68483500  0.68483500  0.39056100  1
  Ru  Ru12  1  0.70828900  0.70828900  0.25073600  1
  Ru  Ru13  1  0.00000000  0.00000000  0.50000000  1
  Ru  Ru14  1  0.68558100  0.18491600  0.39007800  1
  Ru  Ru15  1  0.18491600  0.68558100  0.39007800  1
  Ru  Ru16  1  0.70726900  0.20914900  0.25108000  1
  Ru  Ru17  1  0.20914900  0.70726900  0.25108000  1
  Ru  Ru18  1  0.18466700  0.18466700  0.38987300  1
  Ru  Ru19  1  0.20820300  0.20820300  0.25054900  1
  Br  Br0  1  0.91028400  0.91028400  0.05702400  1
  Br  Br1  1  0.08971600  0.08971600  0.94297600  1
  O  O0  1  0.54484400  0.27152200  0.32525400  1
  O  O1  1  0.27152200  0.54484400  0.32525400  1
  O  O2  1  0.27106100  0.27106100  0.32527200  1
  O  O3  1  0.36362400  0.62337400  0.79148100  1
  O  O4  1  0.62337400  0.36362400  0.79148100  1
  O  O5  1  0.36574100  0.36574100  0.79139700  1
  O  O6  1  0.65511700  0.40849000  0.55642800  1
  O  O7  1  0.40849000  0.65511700  0.55642800  1
  O  O8  1  0.40841300  0.40841300  0.55608800  1
  O  O9  1  0.59158700  0.59158700  0.44391200  1
  O  O10  1  0.59151000  0.34488300  0.44357200  1
  O  O11  1  0.34488300  0.59151000  0.44357200  1
  O  O12  1  0.54567700  0.77024200  0.32582100  1
  O  O13  1  0.04377100  0.27040800  0.32553500  1
  O  O14  1  0.27040800  0.04377100  0.32553500  1
  O  O15  1  0.77024200  0.54567700  0.32582100  1
  O  O16  1  0.27082300  0.77279200  0.32580200  1
  O  O17  1  0.77279200  0.27082300  0.32580200  1
  O  O18  1  0.63425900  0.63425900  0.20860300  1
  O  O19  1  0.37662600  0.63637600  0.20851900  1
  O  O20  1  0.63637600  0.37662600  0.20851900  1
  O  O21  1  0.36815300  0.12316100  0.79036600  1
  O  O22  1  0.62358000  0.86702600  0.79149600  1
  O  O23  1  0.86702600  0.62358000  0.79149600  1
  O  O24  1  0.12316100  0.36815300  0.79036600  1
  O  O25  1  0.86565500  0.36566900  0.79077100  1
  O  O26  1  0.36566900  0.86565500  0.79077100  1
  O  O27  1  0.72893900  0.72893900  0.67472800  1
  O  O28  1  0.72847800  0.45515600  0.67474600  1
  O  O29  1  0.45515600  0.72847800  0.67474600  1
  O  O30  1  0.40841400  0.15531900  0.55612200  1
  O  O31  1  0.65543500  0.90809600  0.55661000  1
  O  O32  1  0.90809600  0.65543500  0.55661000  1
  O  O33  1  0.15531900  0.40841400  0.55612200  1
  O  O34  1  0.40836800  0.90814800  0.55652500  1
  O  O35  1  0.90814800  0.40836800  0.55652500  1
  O  O36  1  0.59163200  0.09185200  0.44347500  1
  O  O37  1  0.09185200  0.59163200  0.44347500  1
  O  O38  1  0.34456500  0.09190400  0.44339000  1
  O  O39  1  0.59158600  0.84468100  0.44387800  1
  O  O40  1  0.09190400  0.34456500  0.44339000  1
  O  O41  1  0.84468100  0.59158600  0.44387800  1
  O  O42  1  0.04461500  0.77262200  0.32573500  1
  O  O43  1  0.77262200  0.04461500  0.32573500  1
  O  O44  1  0.77054700  0.77054700  0.32614500  1
  O  O45  1  0.63433100  0.13434500  0.20922900  1
  O  O46  1  0.13434500  0.63433100  0.20922900  1
  O  O47  1  0.37642000  0.13297400  0.20850400  1
  O  O48  1  0.13297400  0.37642000  0.20850400  1
  O  O49  1  0.63184700  0.87683900  0.20963400  1
  O  O50  1  0.87683900  0.63184700  0.20963400  1
  O  O51  1  0.86197100  0.12202200  0.79698100  1
  O  O52  1  0.12202200  0.86197100  0.79698100  1
  O  O53  1  0.86467300  0.86467300  0.79831600  1
  O  O54  1  0.72917700  0.22720800  0.67419800  1
  O  O55  1  0.22720800  0.72917700  0.67419800  1
  O  O56  1  0.72959200  0.95622900  0.67446500  1
  O  O57  1  0.45432300  0.22975800  0.67417900  1
  O  O58  1  0.95622900  0.72959200  0.67446500  1
  O  O59  1  0.22975800  0.45432300  0.67417900  1
  O  O60  1  0.90820900  0.15546400  0.55625100  1
  O  O61  1  0.15546400  0.90820900  0.55625100  1
  O  O62  1  0.90811500  0.90811500  0.55634400  1
  O  O63  1  0.09188500  0.09188500  0.44365600  1
  O  O64  1  0.84453600  0.09179100  0.44374900  1
  O  O65  1  0.09179100  0.84453600  0.44374900  1
  O  O66  1  0.13532700  0.13532700  0.20168400  1
  O  O67  1  0.87797800  0.13802900  0.20301900  1
  O  O68  1  0.13802900  0.87797800  0.20301900  1
  O  O69  1  0.22945300  0.22945300  0.67385500  1
  O  O70  1  0.95538500  0.22737800  0.67426500  1
  O  O71  1  0.22737800  0.95538500  0.67426500  1
loop_
_geom_bond_atom_site_label_1
_geom_bond_atom_site_label_2
_geom_bond_distance
_geom_bond_site_symmetry_2
Ba0 O2 2.882976 1_555
Ba0 O0 2.887853 1_555
Ba0 O1 2.887853 1_555
Ba0 O10 2.927859 1_555
Ba0 O11 2.927859 1_555
Ba0 O40 2.931854 1_555
Ba0 O38 2.931854 1_555
Ba0 O37 2.931957 1_555
Ba0 O36 2.931957 1_555
Ba0 O8 2.971232 1_555
Ba0 O30 2.979481 1_555
Ba0 O33 2.979481 1_555
Ba1 O1 2.895883 1_555
Ba1 O0 2.895883 1_555
Ba1 O2 2.903645 1_555
Ba1 O45 2.930768 1_555
Ba1 O46 2.930768 1_555
Ba1 O47 2.947181 1_555
Ba1 O48 2.947181 1_555
Ba1 O20 2.952155 1_555
Ba1 O19 2.952155 1_555
Ba2 O4 2.826215 1_555
Ba2 O3 2.826215 1_555
Ba2 O5 2.840344 1_555
Ba2 O29 2.918559 1_555
Ba2 O28 2.918559 1_555
Ba2 O57 2.940636 1_555
Ba2 O59 2.940636 1_555
Ba2 O54 2.945842 1_555
Ba2 O55 2.945842 1_555
Ba2 O6 3.006947 1_555
Ba2 O7 3.006947 1_555
Ba2 O8 3.016353 1_555
Ba3 O17 2.866835 1_555
Ba3 O13 2.880455 1_655
Ba3 O15 2.887041 1_555
Ba3 O41 2.927769 1_555
Ba3 O40 2.930347 1_655
Ba3 O9 2.932036 1_555
Ba3 O64 2.933352 1_555
Ba3 O10 2.933397 1_555
Ba3 O63 2.934741 1_655
Ba3 O35 2.974470 1_555
Ba3 O60 2.978451 1_555
Ba3 O6 2.981705 1_555
Ba4 O16 2.866835 1_555
Ba4 O14 2.880455 1_565
Ba4 O12 2.887041 1_555
Ba4 O39 2.927769 1_555
Ba4 O38 2.930347 1_565
Ba4 O9 2.932036 1_555
Ba4 O65 2.933352 1_555
Ba4 O11 2.933397 1_555
Ba4 O63 2.934741 1_565
Ba4 O34 2.974470 1_555
Ba4 O61 2.978451 1_555
Ba4 O7 2.981705 1_555
Ba5 O19 2.826215 1_555
Ba5 O20 2.826215 1_555
Ba5 O18 2.840344 1_555
Ba5 O1 2.918559 1_555
Ba5 O0 2.918559 1_555
Ba5 O15 2.940636 1_555
Ba5 O12 2.940636 1_555
Ba5 O16 2.945842 1_555
Ba5 O17 2.945842 1_555
Ba5 O11 3.006947 1_555
Ba5 O10 3.006947 1_555
Ba5 O9 3.016353 1_555
Ba6 O15 2.801512 1_555
Ba6 O13 2.824211 1_655
Ba6 O17 2.831282 1_555
Ba6 O50 2.873590 1_555
Ba6 O18 2.902671 1_555
Ba6 O20 2.913442 1_555
Ba6 O48 2.919014 1_655
Ba6 O67 2.946203 1_555
Ba6 O66 2.986166 1_655
Ba7 O12 2.801512 1_555
Ba7 O14 2.824211 1_565
Ba7 O16 2.831282 1_555
Ba7 O49 2.873590 1_555
Ba7 O18 2.902671 1_555
Ba7 O19 2.913442 1_555
Ba7 O47 2.919014 1_565
Ba7 O68 2.946203 1_555
Ba7 O66 2.986166 1_565
Ba8 O28 2.895883 1_555
Ba8 O29 2.895883 1_555
Ba8 O27 2.903645 1_555
Ba8 O25 2.930768 1_555
Ba8 O26 2.930768 1_555
Ba8 O22 2.947181 1_555
Ba8 O23 2.947181 1_555
Ba8 O3 2.952155 1_555
Ba8 O4 2.952155 1_555
Ba9 O26 2.816946 1_555
Ba9 O21 2.820520 1_565
Ba9 O22 2.831204 1_555
Ba9 O29 2.919406 1_555
Ba9 O27 2.925858 1_555
Ba9 O71 2.941987 1_555
Ba9 O69 2.947643 1_565
Ba9 O56 2.953621 1_555
Ba9 O57 2.956112 1_565
Ba9 O34 2.994223 1_555
Ba9 O31 3.007557 1_555
Ba9 O30 3.024514 1_565
Ba10 O25 2.816946 1_555
Ba10 O24 2.820520 1_655
Ba10 O23 2.831204 1_555
Ba10 O28 2.919406 1_555
Ba10 O27 2.925858 1_555
Ba10 O70 2.941987 1_555
Ba10 O69 2.947643 1_655
Ba10 O58 2.953621 1_555
Ba10 O59 2.956112 1_655
Ba10 O35 2.994223 1_555
Ba10 O32 3.007557 1_555
Ba10 O33 3.024514 1_655
Ba11 O27 2.882976 1_555
Ba11 O28 2.887853 1_555
Ba11 O29 2.887853 1_555
Ba11 O6 2.927859 1_555
Ba11 O7 2.927859 1_555
Ba11 O32 2.931854 1_555
Ba11 O31 2.931854 1_555
Ba11 O34 2.931957 1_555
Ba11 O35 2.931957 1_555
Ba11 O9 2.971232 1_555
Ba11 O41 2.979481 1_555
Ba11 O39 2.979481 1_555
Ba12 O44 2.870917 1_555
Ba12 O43 2.877594 1_565
Ba12 O42 2.877594 1_655
Ba12 O64 2.931345 1_565
Ba12 O65 2.931345 1_655
Ba12 O39 2.932933 1_555
Ba12 O41 2.932933 1_555
Ba12 O36 2.934700 1_565
Ba12 O37 2.934700 1_655
Ba12 O62 2.975979 1_555
Ba12 O32 2.988533 1_555
Ba12 O31 2.988533 1_555
Ba13 O45 2.816946 1_555
Ba13 O49 2.820520 1_545
Ba13 O47 2.831204 1_555
Ba13 O0 2.919406 1_555
Ba13 O2 2.925858 1_555
Ba13 O43 2.941987 1_555
Ba13 O44 2.947643 1_545
Ba13 O14 2.953621 1_555
Ba13 O12 2.956112 1_545
Ba13 O36 2.994223 1_555
Ba13 O38 3.007557 1_555
Ba13 O39 3.024514 1_545
Ba14 O46 2.816946 1_555
Ba14 O50 2.820520 1_455
Ba14 O48 2.831204 1_555
Ba14 O1 2.919406 1_555
Ba14 O2 2.925858 1_555
Ba14 O42 2.941987 1_555
Ba14 O44 2.947643 1_455
Ba14 O13 2.953621 1_555
Ba14 O15 2.956112 1_455
Ba14 O37 2.994223 1_555
Ba14 O40 3.007557 1_555
Ba14 O41 3.024514 1_455
Ba15 O44 2.857231 1_555
Ba15 O42 2.889137 1_655
Ba15 O43 2.889137 1_565
Ba15 O49 2.909143 1_555
Ba15 O50 2.909143 1_555
Ba15 O46 2.934118 1_655
Ba15 O45 2.934118 1_565
Ba15 O68 3.018986 1_655
Ba15 O67 3.018986 1_565
Ba15 Br0 3.216049 1_555
Ba16 O51 2.543040 1_565
Ba16 O52 2.543040 1_655
Ba16 O53 2.653200 1_555
Ba16 Br0 3.330356 1_556
Ba16 Br1 3.334171 1_665
Ba17 O57 2.801512 1_555
Ba17 O56 2.824211 1_545
Ba17 O54 2.831282 1_555
Ba17 O21 2.873590 1_555
Ba17 O5 2.902671 1_555
Ba17 O4 2.913442 1_555
Ba17 O22 2.919014 1_545
Ba17 O51 2.946203 1_555
Ba17 O53 2.986166 1_545
Ba18 O59 2.801512 1_555
Ba18 O58 2.824211 1_455
Ba18 O55 2.831282 1_555
Ba18 O24 2.873590 1_555
Ba18 O5 2.902671 1_555
Ba18 O3 2.913442 1_555
Ba18 O23 2.919014 1_455
Ba18 O52 2.946203 1_555
Ba18 O53 2.986166 1_455
Ba19 O71 2.913530 1_655
Ba19 O70 2.913530 1_565
Ba19 O52 2.916500 1_655
Ba19 O51 2.916500 1_565
Ba19 O58 2.921046 1_555
Ba19 O56 2.921046 1_555
Ba19 O54 2.923146 1_565
Ba19 O55 2.923146 1_655
Ba19 O53 2.946841 1_555
Ba19 O62 3.007865 1_555
Ba19 O60 3.012224 1_565
Ba19 O61 3.012224 1_655
Ba20 O55 2.866835 1_555
Ba20 O58 2.880455 1_455
Ba20 O59 2.887041 1_555
Ba20 O33 2.927769 1_555
Ba20 O32 2.930347 1_455
Ba20 O8 2.932036 1_555
Ba20 O61 2.933352 1_555
Ba20 O7 2.933397 1_555
Ba20 O62 2.934741 1_455
Ba20 O37 2.974470 1_555
Ba20 O65 2.978451 1_555
Ba20 O11 2.981705 1_555
Ba21 O54 2.866835 1_555
Ba21 O56 2.880455 1_545
Ba21 O57 2.887041 1_555
Ba21 O30 2.927769 1_555
Ba21 O31 2.930347 1_545
Ba21 O8 2.932036 1_555
Ba21 O60 2.933352 1_555
Ba21 O6 2.933397 1_555
Ba21 O62 2.934741 1_545
Ba21 O36 2.974470 1_555
Ba21 O64 2.978451 1_555
Ba21 O10 2.981705 1_555
Ba22 O43 2.913530 1_455
Ba22 O42 2.913530 1_545
Ba22 O68 2.916500 1_545
Ba22 O67 2.916500 1_455
Ba22 O14 2.921046 1_555
Ba22 O13 2.921046 1_555
Ba22 O17 2.923146 1_455
Ba22 O16 2.923146 1_545
Ba22 O66 2.946841 1_555
Ba22 O63 3.007865 1_555
Ba22 O65 3.012224 1_545
Ba22 O64 3.012224 1_455
Ba23 O68 2.543040 1_545
Ba23 O67 2.543040 1_455
Ba23 O66 2.653200 1_555
Ba23 Br1 3.330356 1_554
Ba23 Br0 3.334171 1_445
Ba24 O69 2.857231 1_555
Ba24 O71 2.889137 1_545
Ba24 O70 2.889137 1_455
Ba24 O24 2.909143 1_555
Ba24 O21 2.909143 1_555
Ba24 O26 2.934118 1_545
Ba24 O25 2.934118 1_455
Ba24 O52 3.018986 1_545
Ba24 O51 3.018986 1_455
Ba24 Br1 3.216049 1_555
Ba25 O69 2.870917 1_555
Ba25 O71 2.877594 1_545
Ba25 O70 2.877594 1_455
Ba25 O60 2.931345 1_455
Ba25 O61 2.931345 1_545
Ba25 O30 2.932933 1_555
Ba25 O33 2.932933 1_555
Ba25 O35 2.934700 1_455
Ba25 O34 2.934700 1_545
Ba25 O63 2.975979 1_555
Ba25 O40 2.988533 1_555
Ba25 O38 2.988533 1_555
O0 Ru14 2.015146 1_555
O0 Ru16 2.134738 1_555
O1 Ru15 2.015146 1_555
O1 Ru17 2.134738 1_555
O2 Ru18 2.014200 1_555
O2 Ru19 2.140221 1_555
O3 Ru2 1.840230 1_555
O4 Ru3 1.840230 1_555
O5 Ru0 1.846518 1_555
O6 Ru6 2.017408 1_555
O6 Ru5 2.022106 1_555
O7 Ru6 2.017408 1_555
O7 Ru4 2.022106 1_555
O8 Ru6 2.016922 1_555
O8 Ru1 2.022615 1_555
O9 Ru6 2.016922 1_555
O9 Ru11 2.022615 1_555
O10 Ru6 2.017408 1_555
O10 Ru14 2.022106 1_555
O11 Ru6 2.017408 1_555
O11 Ru15 2.022106 1_555
O12 Ru11 2.001761 1_555
O12 Ru12 2.147915 1_555
O13 Ru18 2.009428 1_555
O13 Ru19 2.159830 1_555
O14 Ru18 2.009428 1_555
O14 Ru19 2.159830 1_555
O15 Ru11 2.001761 1_555
O15 Ru12 2.147915 1_555
O16 Ru15 2.013372 1_555
O16 Ru17 2.151016 1_555
O17 Ru14 2.013372 1_555
O17 Ru16 2.151016 1_555
O18 Ru12 1.846518 1_555
O19 Ru17 1.840230 1_555
O20 Ru16 1.840230 1_555
O21 Ru0 1.838591 1_555
O22 Ru7 1.842720 1_555
O23 Ru7 1.842720 1_555
O24 Ru0 1.838591 1_555
O25 Ru3 1.840251 1_555
O26 Ru2 1.840251 1_555
O27 Ru8 2.014200 1_555
O27 Ru7 2.140221 1_555
O28 Ru5 2.015146 1_555
O28 Ru3 2.134738 1_555
O29 Ru4 2.015146 1_555
O29 Ru2 2.134738 1_555
O30 Ru10 2.015218 1_555
O30 Ru1 2.018884 1_555
O31 Ru8 2.021752 1_555
O31 Ru10 2.022392 1_565
O32 Ru8 2.021752 1_555
O32 Ru9 2.022392 1_655
O33 Ru9 2.015218 1_555
O33 Ru1 2.018884 1_555
O34 Ru10 2.023270 1_565
O34 Ru4 2.027424 1_555
O35 Ru9 2.023270 1_655
O35 Ru5 2.027424 1_555
O36 Ru10 2.023270 1_555
O36 Ru14 2.027424 1_555
O37 Ru9 2.023270 1_555
O37 Ru15 2.027424 1_555
O38 Ru18 2.021752 1_555
O38 Ru10 2.022392 1_555
O39 Ru10 2.015218 1_565
O39 Ru11 2.018884 1_555
O40 Ru18 2.021752 1_555
O40 Ru9 2.022392 1_555
O41 Ru9 2.015218 1_655
O41 Ru11 2.018884 1_555
O42 Ru15 2.004941 1_555
O42 Ru17 2.156301 1_555
O43 Ru14 2.004941 1_555
O43 Ru16 2.156301 1_555
O44 Ru11 2.001717 1_555
O44 Ru12 2.142978 1_555
O45 Ru16 1.840251 1_555
O46 Ru17 1.840251 1_555
O47 Ru19 1.842720 1_555
O48 Ru19 1.842720 1_555
O49 Ru12 1.838591 1_555
O50 Ru12 1.838591 1_555
O51 Ru3 1.914787 1_555
O52 Ru2 1.914787 1_555
O53 Ru7 1.911710 1_555
O54 Ru5 2.013372 1_555
O54 Ru3 2.151016 1_555
O55 Ru4 2.013372 1_555
O55 Ru2 2.151016 1_555
O56 Ru8 2.009428 1_555
O56 Ru7 2.159830 1_555
O57 Ru1 2.001761 1_555
O57 Ru0 2.147915 1_555
O58 Ru8 2.009428 1_555
O58 Ru7 2.159830 1_555
O59 Ru1 2.001761 1_555
O59 Ru0 2.147915 1_555
O60 Ru5 2.015559 1_555
O60 Ru13 2.018073 1_655
O61 Ru4 2.015559 1_555
O61 Ru13 2.018073 1_565
O62 Ru8 2.018071 1_555
O62 Ru13 2.024114 1_665
O63 Ru18 2.018071 1_555
O63 Ru13 2.024114 1_555
O64 Ru14 2.015559 1_555
O64 Ru13 2.018073 1_655
O65 Ru15 2.015559 1_555
O65 Ru13 2.018073 1_565
O66 Ru19 1.911710 1_555
O67 Ru16 1.914787 1_555
O68 Ru17 1.914787 1_555
O69 Ru1 2.001717 1_555
O69 Ru0 2.142978 1_555
O70 Ru5 2.004941 1_555
O70 Ru3 2.156301 1_555
O71 Ru4 2.004941 1_555
O71 Ru2 2.156301 1_555
