# generated using pymatgen
data_Ca3InAu3
_symmetry_space_group_name_H-M   'P 1'
_cell_length_a   4.57337271
_cell_length_b   8.97343671
_cell_length_c   16.72065060
_cell_angle_alpha   90.00000000
_cell_angle_beta   90.00000000
_cell_angle_gamma   90.00000000
_symmetry_Int_Tables_number   1
_chemical_formula_structural   Ca3InAu3
_chemical_formula_sum   'Ca12 In4 Au12'
_cell_volume   686.19661573
_cell_formula_units_Z   4
loop_
 _symmetry_equiv_pos_site_id
 _symmetry_equiv_pos_as_xyz
  1  'x, y, z'
loop_
 _atom_site_type_symbol
 _atom_site_label
 _atom_site_symmetry_multiplicity
 _atom_site_fract_x
 _atom_site_fract_y
 _atom_site_fract_z
 _atom_site_occupancy
  Ca  Ca0  1  0.75000000  0.02524382  0.84382489  1
  Ca  Ca1  1  0.75000000  0.47475618  0.34382489  1
  Ca  Ca2  1  0.25000000  0.97475618  0.15617511  1
  Ca  Ca3  1  0.75000000  0.24945474  0.55605594  1
  Ca  Ca4  1  0.25000000  0.74945474  0.94394406  1
  Ca  Ca5  1  0.75000000  0.25054526  0.05605594  1
  Ca  Ca6  1  0.25000000  0.12980866  0.36626143  1
  Ca  Ca7  1  0.25000000  0.75054526  0.44394406  1
  Ca  Ca8  1  0.75000000  0.87019134  0.63373857  1
  Ca  Ca9  1  0.75000000  0.62980866  0.13373857  1
  Ca  Ca10  1  0.25000000  0.37019134  0.86626143  1
  Ca  Ca11  1  0.25000000  0.52524382  0.65617511  1
  In  In0  1  0.75000000  0.63580717  0.79270527  1
  In  In1  1  0.25000000  0.36419283  0.20729473  1
  In  In2  1  0.25000000  0.13580717  0.70729473  1
  In  In3  1  0.75000000  0.86419283  0.29270527  1
  Au  Au0  1  0.75000000  0.17383130  0.23830185  1
  Au  Au1  1  0.25000000  0.46715589  0.04772749  1
  Au  Au2  1  0.75000000  0.32616870  0.73830185  1
  Au  Au3  1  0.25000000  0.08504641  0.97029277  1
  Au  Au4  1  0.25000000  0.03284411  0.54772749  1
  Au  Au5  1  0.25000000  0.82616870  0.76169815  1
  Au  Au6  1  0.75000000  0.53284411  0.95227251  1
  Au  Au7  1  0.75000000  0.58504641  0.52970723  1
  Au  Au8  1  0.75000000  0.96715589  0.45227251  1
  Au  Au9  1  0.25000000  0.67383130  0.26169815  1
  Au  Au10  1  0.25000000  0.41495359  0.47029277  1
  Au  Au11  1  0.75000000  0.91495359  0.02970723  1
loop_
_geom_bond_atom_site_label_1
_geom_bond_atom_site_label_2
_geom_bond_distance
_geom_bond_site_symmetry_2
Ca0 In2 3.380055 1_655
Ca0 In2 3.380055 1_555
Ca0 In0 3.597600 1_545
Ca0 Ca8 3.778292 1_545
Ca0 Ca10 3.866647 1_555
Ca0 Ca10 3.866647 1_655
Ca1 In1 3.380055 1_655
Ca1 In1 3.380055 1_555
Ca1 In3 3.597600 1_555
Ca1 Ca9 3.778292 1_555
Ca1 Ca6 3.866647 1_555
Ca1 Ca6 3.866647 1_655
Ca2 In3 3.380055 1_455
Ca2 In3 3.380055 1_555
Ca2 In1 3.597600 1_565
Ca2 Ca6 3.778292 1_565
Ca2 Ca9 3.866647 1_455
Ca2 Ca9 3.866647 1_555
Ca3 In2 3.558628 1_555
Ca3 In2 3.558628 1_655
Ca3 Ca8 3.642743 1_545
Ca4 In0 3.558628 1_455
Ca4 In0 3.558628 1_555
Ca5 In1 3.558628 1_655
Ca5 In1 3.558628 1_555
Ca5 Ca9 3.642743 1_555
Ca6 In1 3.389497 1_555
Ca6 In3 3.524573 1_445
Ca6 In3 3.524573 1_545
Ca6 Ca7 3.642743 1_545
Ca7 In3 3.558628 1_455
Ca7 In3 3.558628 1_555
Ca8 In0 3.389497 1_555
Ca8 In2 3.524573 1_565
Ca8 In2 3.524573 1_665
Ca9 In3 3.389497 1_555
Ca9 In1 3.524573 1_555
Ca9 In1 3.524573 1_655
Ca10 In2 3.389497 1_555
Ca10 In0 3.524573 1_555
Ca10 In0 3.524573 1_455
Ca10 Ca4 3.642743 1_555
Ca10 Ca11 3.778292 1_555
Ca11 In0 3.380055 1_555
Ca11 In0 3.380055 1_455
Ca11 In2 3.597600 1_555
Ca11 Ca8 3.866647 1_555
Ca11 Ca8 3.866647 1_455
Au0 In1 2.900978 1_555
Au0 In1 2.900978 1_655
Au0 In3 2.923639 1_545
Au0 Ca5 3.124057 1_555
Au0 Ca6 3.156380 1_555
Au0 Ca6 3.156380 1_655
Au0 Ca2 3.210269 1_545
Au0 Ca2 3.210269 1_645
Au0 Ca1 3.225669 1_555
Au1 In1 2.823515 1_555
Au1 Au6 2.850232 1_454
Au1 Au6 2.850232 1_554
Au1 Ca5 3.004407 1_555
Au1 Ca5 3.004407 1_455
Au1 Ca9 3.070430 1_455
Au1 Ca9 3.070430 1_555
Au1 Ca4 3.070572 1_554
Au1 Ca10 3.156523 1_554
Au2 In2 2.900978 1_555
Au2 In2 2.900978 1_655
Au2 In0 2.923639 1_555
Au2 Ca3 3.124057 1_555
Au2 Ca10 3.156380 1_555
Au2 Ca10 3.156380 1_655
Au2 Ca11 3.210269 1_555
Au2 Ca11 3.210269 1_655
Au2 Ca0 3.225669 1_555
Au3 Ca4 3.043467 1_545
Au3 Ca5 3.080721 1_456
Au3 Ca5 3.080721 1_556
Au3 Ca10 3.094004 1_555
Au3 Ca0 3.160467 1_455
Au3 Ca0 3.160467 1_555
Au3 Ca2 3.261839 1_546
Au4 In2 2.823515 1_555
Au4 Au8 2.850232 1_445
Au4 Au8 2.850232 1_545
Au4 Ca3 3.004407 1_455
Au4 Ca3 3.004407 1_555
Au4 Ca8 3.070430 1_545
Au4 Ca8 3.070430 1_445
Au4 Ca7 3.070572 1_545
Au4 Ca6 3.156523 1_555
Au5 In0 2.900978 1_555
Au5 In0 2.900978 1_455
Au5 In2 2.923639 1_565
Au5 Ca4 3.124057 1_555
Au5 Ca8 3.156380 1_455
Au5 Ca8 3.156380 1_555
Au5 Ca0 3.210269 1_565
Au5 Ca0 3.210269 1_465
Au5 Ca11 3.225669 1_555
Au6 In0 2.823515 1_555
Au6 Ca4 3.004407 1_655
Au6 Ca4 3.004407 1_555
Au6 Ca10 3.070430 1_555
Au6 Ca10 3.070430 1_655
Au6 Ca5 3.070572 1_556
Au6 Ca9 3.156523 1_556
Au7 Ca3 3.043467 1_555
Au7 Ca7 3.080721 1_555
Au7 Ca7 3.080721 1_655
Au7 Ca8 3.094004 1_555
Au7 Ca11 3.160467 1_555
Au7 Ca11 3.160467 1_655
Au7 Ca1 3.261839 1_555
Au8 In3 2.823515 1_555
Au8 Ca7 3.004407 1_655
Au8 Ca7 3.004407 1_555
Au8 Ca6 3.070430 1_565
Au8 Ca6 3.070430 1_665
Au8 Ca3 3.070572 1_565
Au8 Ca8 3.156523 1_555
Au9 In3 2.900978 1_455
Au9 In3 2.900978 1_555
Au9 In1 2.923639 1_555
Au9 Ca7 3.124057 1_555
Au9 Ca9 3.156380 1_455
Au9 Ca9 3.156380 1_555
Au9 Ca1 3.210269 1_555
Au9 Ca1 3.210269 1_455
Au9 Ca2 3.225669 1_555
Au10 Au7 2.923272 1_555
Au10 Au7 2.923272 1_455
Au10 Ca7 3.043467 1_555
Au10 Ca3 3.080721 1_455
Au10 Ca3 3.080721 1_555
Au10 Ca6 3.094004 1_555
Au10 Ca1 3.160467 1_455
Au10 Ca1 3.160467 1_555
Au10 Ca11 3.261839 1_555
Au11 Au3 2.923272 1_664
Au11 Au3 2.923272 1_564
Au11 Ca5 3.043467 1_565
Au11 Ca4 3.080721 1_654
Au11 Ca4 3.080721 1_554
Au11 Ca9 3.094004 1_555
Au11 Ca2 3.160467 1_555
Au11 Ca2 3.160467 1_655
Au11 Ca0 3.261839 1_564
