# generated using pymatgen
data_Ce3(Ge3Pd10)2
_symmetry_space_group_name_H-M   'P 1'
_cell_length_a   8.87999121
_cell_length_b   8.87999121
_cell_length_c   8.87999121
_cell_angle_alpha   60.00000000
_cell_angle_beta   60.00000000
_cell_angle_gamma   60.00000000
_symmetry_Int_Tables_number   1
_chemical_formula_structural   Ce3(Ge3Pd10)2
_chemical_formula_sum   'Ce3 Ge6 Pd20'
_cell_volume   495.13384028
_cell_formula_units_Z   1
loop_
 _symmetry_equiv_pos_site_id
 _symmetry_equiv_pos_as_xyz
  1  'x, y, z'
loop_
 _atom_site_type_symbol
 _atom_site_label
 _atom_site_symmetry_multiplicity
 _atom_site_fract_x
 _atom_site_fract_y
 _atom_site_fract_z
 _atom_site_occupancy
  Ce  Ce0  1  0.00000000  0.00000000  0.00000000  1
  Ce  Ce1  1  0.25000000  0.25000000  0.25000000  1
  Ce  Ce2  1  0.75000000  0.75000000  0.75000000  1
  Ge  Ge0  1  0.26865500  0.73134500  0.26865500  1
  Ge  Ge1  1  0.26865500  0.26865500  0.73134500  1
  Ge  Ge2  1  0.26865500  0.73134500  0.73134500  1
  Ge  Ge3  1  0.73134500  0.26865500  0.73134500  1
  Ge  Ge4  1  0.73134500  0.26865500  0.26865500  1
  Ge  Ge5  1  0.73134500  0.73134500  0.26865500  1
  Pd  Pd0  1  0.85476400  0.38174500  0.38174500  1
  Pd  Pd1  1  0.34845600  0.65154400  0.00000000  1
  Pd  Pd2  1  0.34845600  0.00000000  0.00000000  1
  Pd  Pd3  1  0.00000000  0.34845600  0.65154400  1
  Pd  Pd4  1  0.00000000  0.34845600  0.00000000  1
  Pd  Pd5  1  0.38174500  0.38174500  0.38174500  1
  Pd  Pd6  1  0.00000000  0.00000000  0.34845600  1
  Pd  Pd7  1  0.00000000  0.65154400  0.00000000  1
  Pd  Pd8  1  0.00000000  0.00000000  0.65154400  1
  Pd  Pd9  1  0.65154400  0.00000000  0.34845600  1
  Pd  Pd10  1  0.14523600  0.61825500  0.61825500  1
  Pd  Pd11  1  0.61825500  0.61825500  0.61825500  1
  Pd  Pd12  1  0.65154400  0.34845600  0.00000000  1
  Pd  Pd13  1  0.61825500  0.14523600  0.61825500  1
  Pd  Pd14  1  0.65154400  0.00000000  0.00000000  1
  Pd  Pd15  1  0.61825500  0.61825500  0.14523600  1
  Pd  Pd16  1  0.00000000  0.65154400  0.34845600  1
  Pd  Pd17  1  0.34845600  0.00000000  0.65154400  1
  Pd  Pd18  1  0.38174500  0.85476400  0.38174500  1
  Pd  Pd19  1  0.38174500  0.38174500  0.85476400  1
loop_
_geom_bond_atom_site_label_1
_geom_bond_atom_site_label_2
_geom_bond_distance
_geom_bond_site_symmetry_2
Ce0 Pd6 3.094286 1_555
Ce0 Pd14 3.094286 1_455
Ce0 Pd17 3.094286 1_554
Ce0 Pd16 3.094286 1_545
Ce0 Pd4 3.094286 1_555
Ce0 Pd7 3.094286 1_545
Ce0 Pd9 3.094286 1_455
Ce0 Pd8 3.094286 1_554
Ce0 Pd1 3.094286 1_545
Ce0 Pd12 3.094286 1_455
Ce0 Pd2 3.094286 1_555
Ce0 Pd3 3.094286 1_554
Ce1 Pd5 2.865644 1_555
Ce1 Pd18 2.865652 1_545
Ce1 Pd0 2.865652 1_455
Ce1 Pd19 2.865652 1_554
Ce1 Pd2 3.415804 1_555
Ce1 Pd9 3.415804 1_555
Ce1 Pd3 3.415804 1_555
Ce1 Pd8 3.415804 1_555
Ce1 Pd16 3.415804 1_555
Ce1 Pd6 3.415804 1_555
Ce1 Pd7 3.415804 1_555
Ce1 Pd14 3.415804 1_555
Ce1 Pd4 3.415804 1_555
Ce1 Pd17 3.415804 1_555
Ce1 Pd12 3.415804 1_555
Ce1 Pd1 3.415804 1_555
Ce2 Pd11 2.865644 1_555
Ce2 Pd13 2.865652 1_565
Ce2 Pd10 2.865652 1_655
Ce2 Pd15 2.865652 1_556
Ce2 Pd7 3.415804 1_656
Ce2 Pd4 3.415804 1_656
Ce2 Pd14 3.415804 1_566
Ce2 Pd16 3.415804 1_655
Ce2 Pd17 3.415804 1_565
Ce2 Pd8 3.415804 1_665
Ce2 Pd9 3.415804 1_565
Ce2 Pd2 3.415804 1_566
Ce2 Pd3 3.415804 1_655
Ce2 Pd6 3.415804 1_665
Ce2 Pd12 3.415804 1_556
Ce2 Pd1 3.415804 1_556
Ge0 Pd2 2.488675 1_565
Ge0 Pd6 2.488675 1_565
Ge0 Pd1 2.488675 1_555
Ge0 Pd16 2.488675 1_555
Ge0 Pd18 2.535315 1_555
Ge0 Pd15 2.535322 1_555
Ge0 Pd10 2.535322 1_555
Ge0 Pd5 2.535322 1_555
Ge1 Pd3 2.488675 1_555
Ge1 Pd4 2.488675 1_556
Ge1 Pd2 2.488675 1_556
Ge1 Pd17 2.488675 1_555
Ge1 Pd19 2.535315 1_555
Ge1 Pd13 2.535322 1_555
Ge1 Pd10 2.535322 1_555
Ge1 Pd5 2.535322 1_555
Ge2 Pd1 2.488675 1_556
Ge2 Pd7 2.488675 1_556
Ge2 Pd17 2.488675 1_565
Ge2 Pd8 2.488675 1_565
Ge2 Pd10 2.535315 1_555
Ge2 Pd18 2.535322 1_555
Ge2 Pd19 2.535322 1_555
Ge2 Pd11 2.535322 1_555
Ge3 Pd8 2.488675 1_655
Ge3 Pd3 2.488675 1_655
Ge3 Pd14 2.488675 1_556
Ge3 Pd12 2.488675 1_556
Ge3 Pd13 2.535315 1_555
Ge3 Pd0 2.535322 1_555
Ge3 Pd19 2.535322 1_555
Ge3 Pd11 2.535322 1_555
Ge4 Pd12 2.488675 1_555
Ge4 Pd9 2.488675 1_555
Ge4 Pd6 2.488675 1_655
Ge4 Pd4 2.488675 1_655
Ge4 Pd0 2.535315 1_555
Ge4 Pd15 2.535322 1_555
Ge4 Pd13 2.535322 1_555
Ge4 Pd5 2.535322 1_555
Ge5 Pd14 2.488675 1_565
Ge5 Pd9 2.488675 1_565
Ge5 Pd16 2.488675 1_655
Ge5 Pd7 2.488675 1_655
Ge5 Pd15 2.535315 1_555
Ge5 Pd0 2.535322 1_555
Ge5 Pd18 2.535322 1_555
Ge5 Pd11 2.535322 1_555
Pd0 Pd6 3.080742 1_655
Pd0 Pd4 3.080742 1_655
Pd0 Pd7 3.080746 1_655
Pd0 Pd8 3.080746 1_655
Pd0 Pd3 3.080750 1_655
Pd0 Pd16 3.080750 1_655
Pd1 Pd12 2.691419 1_555
Pd1 Pd11 3.080743 1_554
Pd1 Pd5 3.080743 1_555
Pd1 Pd15 3.080750 1_555
Pd1 Pd19 3.080750 1_554
Pd1 Pd7 3.094286 1_555
Pd1 Pd17 3.094286 1_564
Pd1 Pd2 3.094286 1_565
Pd1 Pd16 3.094286 1_555
Pd2 Pd6 3.094286 1_555
Pd2 Pd4 3.094286 1_555
Pd3 Pd5 3.080743 1_555
Pd3 Pd4 3.094286 1_556
Pd3 Pd8 3.094286 1_555
Pd4 Pd7 2.691419 1_555
Pd4 Pd6 3.094286 1_555
Pd5 Pd9 3.080743 1_555
Pd6 Pd8 2.691419 1_555
Pd6 Pd9 3.094286 1_455
Pd7 Pd8 3.094286 1_564
Pd10 Pd8 3.080742 1_565
Pd10 Pd7 3.080742 1_556
Pd10 Pd6 3.080746 1_565
Pd10 Pd4 3.080746 1_556
Pd10 Pd3 3.080750 1_555
Pd10 Pd16 3.080750 1_555
Pd11 Pd12 3.080743 1_556
Pd11 Pd9 3.080743 1_565
Pd11 Pd3 3.080743 1_655
Pd11 Pd17 3.080743 1_565
Pd11 Pd16 3.080743 1_655
Pd12 Pd5 3.080743 1_555
Pd12 Pd15 3.080750 1_555
Pd12 Pd19 3.080750 1_554
Pd12 Pd14 3.094286 1_555
Pd12 Pd4 3.094286 1_655
Pd12 Pd9 3.094286 1_555
Pd12 Pd3 3.094286 1_654
Pd13 Pd8 3.080742 1_655
Pd13 Pd14 3.080742 1_556
Pd13 Pd2 3.080746 1_556
Pd13 Pd6 3.080746 1_655
Pd13 Pd9 3.080750 1_555
Pd13 Pd17 3.080750 1_555
Pd14 Pd2 2.691419 1_555
Pd14 Pd15 3.080742 1_545
Pd14 Pd19 3.080746 1_554
Pd14 Pd18 3.080746 1_545
Pd14 Pd8 3.094286 1_654
Pd14 Pd9 3.094286 1_555
Pd14 Pd7 3.094286 1_645
Pd15 Pd7 3.080742 1_655
Pd15 Pd2 3.080746 1_565
Pd15 Pd4 3.080746 1_655
Pd16 Pd3 2.691419 1_555
Pd16 Pd5 3.080743 1_555
Pd16 Pd7 3.094286 1_555
Pd16 Pd9 3.094286 1_465
Pd16 Pd6 3.094286 1_565
Pd17 Pd9 2.691419 1_555
Pd17 Pd5 3.080743 1_555
Pd17 Pd18 3.080750 1_545
Pd17 Pd2 3.094286 1_556
Pd17 Pd3 3.094286 1_555
Pd17 Pd8 3.094286 1_555
Pd18 Pd2 3.080742 1_565
Pd18 Pd6 3.080742 1_565
Pd18 Pd8 3.080746 1_565
Pd18 Pd9 3.080750 1_565
Pd19 Pd4 3.080742 1_556
Pd19 Pd2 3.080742 1_556
Pd19 Pd7 3.080746 1_556
