# generated using pymatgen
data_AgSbPbS3
_symmetry_space_group_name_H-M   'P 1'
_cell_length_a   12.18434700
_cell_length_b   5.85522500
_cell_length_c   8.19797710
_cell_angle_alpha   88.19180959
_cell_angle_beta   90.00000000
_cell_angle_gamma   90.00000000
_symmetry_Int_Tables_number   1
_chemical_formula_structural   AgSbPbS3
_chemical_formula_sum   'Ag4 Sb4 Pb4 S12'
_cell_volume   584.56962046
_cell_formula_units_Z   4
loop_
 _symmetry_equiv_pos_site_id
 _symmetry_equiv_pos_as_xyz
  1  'x, y, z'
loop_
 _atom_site_type_symbol
 _atom_site_label
 _atom_site_symmetry_multiplicity
 _atom_site_fract_x
 _atom_site_fract_y
 _atom_site_fract_z
 _atom_site_occupancy
  Ag  Ag0  1  0.90918500  0.73173300  0.39785100  1
  Ag  Ag1  1  0.09081500  0.26826700  0.60214900  1
  Ag  Ag2  1  0.59081500  0.73173300  0.89785100  1
  Ag  Ag3  1  0.40918500  0.26826700  0.10214900  1
  Sb  Sb0  1  0.25077800  0.74924900  0.38927200  1
  Sb  Sb1  1  0.24922200  0.74924900  0.88927200  1
  Sb  Sb2  1  0.74922200  0.25075100  0.61072800  1
  Sb  Sb3  1  0.75077800  0.25075100  0.11072800  1
  Pb  Pb0  1  0.42027400  0.23242900  0.63946900  1
  Pb  Pb1  1  0.57972600  0.76757100  0.36053100  1
  Pb  Pb2  1  0.92027400  0.76757100  0.86053100  1
  Pb  Pb3  1  0.07972600  0.23242900  0.13946900  1
  S  S0  1  0.08824400  0.73506800  0.58348500  1
  S  S1  1  0.59549300  0.27150700  0.38911300  1
  S  S2  1  0.22634000  0.18104700  0.85607900  1
  S  S3  1  0.41175600  0.73506800  0.08348500  1
  S  S4  1  0.40450700  0.72849300  0.61088700  1
  S  S5  1  0.09549300  0.72849300  0.11088700  1
  S  S6  1  0.58824400  0.26493200  0.91651500  1
  S  S7  1  0.77366000  0.81895300  0.14392100  1
  S  S8  1  0.91175600  0.26493200  0.41651500  1
  S  S9  1  0.72634000  0.81895300  0.64392100  1
  S  S10  1  0.27366000  0.18104700  0.35607900  1
  S  S11  1  0.90450700  0.27150700  0.88911300  1
loop_
_geom_bond_atom_site_label_1
_geom_bond_atom_site_label_2
_geom_bond_distance
_geom_bond_site_symmetry_2
Ag0 S0 2.660468 1_655
Ag0 S7 2.693321 1_555
Ag0 S8 2.732859 1_555
Ag0 S9 3.059171 1_555
Ag0 S8 3.130722 1_565
Ag1 S8 2.660468 1_455
Ag1 S2 2.693321 1_555
Ag1 S0 2.732859 1_555
Ag1 S10 3.059171 1_555
Ag1 S0 3.130722 1_545
Ag2 S3 2.660468 1_556
Ag2 S9 2.693321 1_555
Ag2 S6 2.732859 1_555
Ag2 S7 3.059171 1_556
Ag2 S6 3.130722 1_565
Ag3 S6 2.660468 1_554
Ag3 S10 2.693321 1_555
Ag3 S3 2.732859 1_555
Ag3 S2 3.059171 1_554
Ag3 S3 3.130722 1_545
Pb0 S4 2.912965 1_555
Pb0 S10 2.953507 1_555
Pb0 S1 2.965306 1_555
Pb0 S2 2.965419 1_555
Pb0 S4 2.973521 1_545
Pb0 S6 3.067656 1_555
Pb1 S1 2.912965 1_555
Pb1 S9 2.953507 1_555
Pb1 S4 2.965306 1_555
Pb1 S7 2.965419 1_555
Pb1 S1 2.973521 1_565
Pb1 S3 3.067656 1_555
Pb2 S11 2.912965 1_555
Pb2 S7 2.953507 1_556
Pb2 S5 2.965306 1_656
Pb2 S9 2.965419 1_555
Pb2 S11 2.973521 1_565
Pb2 S0 3.067656 1_655
Pb3 S5 2.912965 1_555
Pb3 S2 2.953507 1_554
Pb3 S11 2.965306 1_454
Pb3 S10 2.965419 1_555
Pb3 S5 2.973521 1_545
Pb3 S8 3.067656 1_455
S0 Sb0 2.540743 1_555
S0 Sb1 3.186124 1_555
S1 Sb2 2.609604 1_555
S1 Sb3 2.969936 1_555
S2 Sb1 2.549614 1_545
S3 Sb1 2.540743 1_554
S3 Sb0 3.186124 1_555
S4 Sb0 2.609604 1_555
S4 Sb1 2.969936 1_555
S5 Sb1 2.609604 1_554
S5 Sb0 2.969936 1_555
S6 Sb3 2.540743 1_556
S6 Sb2 3.186124 1_555
S7 Sb3 2.549614 1_565
S8 Sb2 2.540743 1_555
S8 Sb3 3.186124 1_555
S9 Sb2 2.549614 1_565
S10 Sb0 2.549614 1_545
S11 Sb3 2.609604 1_556
S11 Sb2 2.969936 1_555
