# generated using pymatgen
data_Bi5(PO4)6
_symmetry_space_group_name_H-M   'P 1'
_cell_length_a   8.93646200
_cell_length_b   8.94290315
_cell_length_c   8.96373637
_cell_angle_alpha   108.73757843
_cell_angle_beta   110.17781159
_cell_angle_gamma   108.80343204
_symmetry_Int_Tables_number   1
_chemical_formula_structural   Bi5(PO4)6
_chemical_formula_sum   'Bi5 P6 O24'
_cell_volume   556.05061078
_cell_formula_units_Z   1
loop_
 _symmetry_equiv_pos_site_id
 _symmetry_equiv_pos_as_xyz
  1  'x, y, z'
loop_
 _atom_site_type_symbol
 _atom_site_label
 _atom_site_symmetry_multiplicity
 _atom_site_fract_x
 _atom_site_fract_y
 _atom_site_fract_z
 _atom_site_occupancy
  Bi  Bi0  1  0.49680300  0.51980600  0.15782200  1
  Bi  Bi1  1  0.82821300  0.30152900  0.82975300  1
  Bi  Bi2  1  0.02918100  0.67193800  0.49966300  1
  Bi  Bi3  1  0.47608200  0.49276800  0.65385700  1
  Bi  Bi4  1  0.16487400  0.99943000  0.00387800  1
  P  P0  1  0.13450500  0.39057900  0.25304000  1
  P  P1  1  0.74874500  0.85403400  0.62376700  1
  P  P2  1  0.87113700  0.74560400  0.11956300  1
  P  P3  1  0.37702700  0.12969100  0.75846500  1
  P  P4  1  0.23976200  0.61852000  0.88165600  1
  P  P5  1  0.62344300  0.25917500  0.37936200  1
  O  O0  1  0.06302400  0.43437000  0.75858400  1
  O  O1  1  0.27731400  0.36718500  0.19329700  1
  O  O2  1  0.35078300  0.27077300  0.70524600  1
  O  O3  1  0.38348000  0.62967800  0.81968900  1
  O  O4  1  0.16059200  0.58415900  0.32400400  1
  O  O5  1  0.66069400  0.42628500  0.34933100  1
  O  O6  1  0.84686800  0.91347800  0.15138200  1
  O  O7  1  0.92676800  0.83587600  0.66579000  1
  O  O8  1  0.94472600  0.25515200  0.08007000  1
  O  O9  1  0.72828600  0.57630700  0.93058600  1
  O  O10  1  0.85370300  0.68041100  0.25814400  1
  O  O11  1  0.67252300  0.80009100  0.73899600  1
  O  O12  1  0.65195200  0.32480700  0.57726100  1
  O  O13  1  0.06591100  0.81983900  0.14466200  1
  O  O14  1  0.81057900  0.05443600  0.67069700  1
  O  O15  1  0.42755500  0.09852100  0.24675300  1
  O  O16  1  0.34551400  0.16207600  0.92600000  1
  O  O17  1  0.18991100  0.76700800  0.85670600  1
  O  O18  1  0.60272000  0.73703200  0.42102500  1
  O  O19  1  0.23918800  0.93733400  0.59662300  1
  O  O20  1  0.75364900  0.18746400  0.35525100  1
  O  O21  1  0.16559300  0.34074300  0.40737500  1
  O  O22  1  0.57121800  0.15585300  0.82032900  1
  O  O23  1  0.32526000  0.65824400  0.08028300  1
loop_
_geom_bond_atom_site_label_1
_geom_bond_atom_site_label_2
_geom_bond_distance
_geom_bond_site_symmetry_2
Bi0 O18 2.136696 1_555
Bi0 O1 2.189664 1_555
Bi0 O23 2.325322 1_555
Bi0 O5 2.401866 1_555
Bi0 O10 2.698610 1_555
Bi0 O16 2.717185 1_554
Bi1 O14 2.129998 1_555
Bi1 O22 2.201256 1_555
Bi1 O8 2.356952 1_556
Bi1 O12 2.387789 1_555
Bi1 O0 2.454560 1_655
Bi2 O19 2.142105 1_555
Bi2 O10 2.234197 1_455
Bi2 O4 2.355919 1_555
Bi2 O7 2.367915 1_455
Bi2 O17 2.705931 1_555
Bi2 O5 2.803399 1_455
Bi3 O3 2.173935 1_555
Bi3 O2 2.217577 1_555
Bi3 O9 2.378647 1_555
Bi3 O11 2.415705 1_555
Bi3 O21 2.416164 1_555
Bi3 O12 2.607941 1_555
Bi4 O17 2.202820 1_554
Bi4 O15 2.220204 1_565
Bi4 O16 2.263844 1_564
Bi4 O13 2.471946 1_555
Bi4 O7 2.558986 1_454
Bi4 O1 2.795326 1_565
O0 P4 1.541965 1_555
O1 P0 1.590872 1_555
O2 P3 1.540996 1_555
O3 P4 1.553426 1_555
O4 P0 1.544655 1_555
O5 P5 1.554423 1_555
O6 P2 1.536131 1_555
O7 P1 1.578490 1_555
O8 P0 1.549983 1_655
O9 P2 1.551084 1_556
O10 P2 1.564448 1_555
O11 P1 1.535314 1_555
O12 P5 1.574508 1_555
O13 P2 1.552411 1_455
O14 P1 1.552762 1_545
O15 P5 1.545154 1_555
O16 P3 1.575852 1_555
O17 P4 1.585957 1_555
O18 P1 1.537030 1_555
O19 P3 1.542397 1_565
O20 P5 1.541876 1_555
O21 P0 1.549340 1_555
O22 P3 1.537798 1_555
O23 P4 1.536277 1_554
