# generated using pymatgen
data_Hf3(MnGa3)2
_symmetry_space_group_name_H-M   'P 1'
_cell_length_a   5.38059217
_cell_length_b   7.67143324
_cell_length_c   8.72163266
_cell_angle_alpha   90.00000000
_cell_angle_beta   90.00000000
_cell_angle_gamma   90.00000000
_symmetry_Int_Tables_number   1
_chemical_formula_structural   Hf3(MnGa3)2
_chemical_formula_sum   'Hf6 Mn4 Ga12'
_cell_volume   360.00155467
_cell_formula_units_Z   2
loop_
 _symmetry_equiv_pos_site_id
 _symmetry_equiv_pos_as_xyz
  1  'x, y, z'
loop_
 _atom_site_type_symbol
 _atom_site_label
 _atom_site_symmetry_multiplicity
 _atom_site_fract_x
 _atom_site_fract_y
 _atom_site_fract_z
 _atom_site_occupancy
  Hf  Hf0  1  0.00000000  0.85370748  0.71841490  1
  Hf  Hf1  1  0.50000000  0.14629252  0.21841490  1
  Hf  Hf2  1  0.00000000  0.27094389  -0.00000000  1
  Hf  Hf3  1  0.00000000  0.85370748  0.28158510  1
  Hf  Hf4  1  0.50000000  0.14629252  0.78158510  1
  Hf  Hf5  1  0.50000000  0.72905611  0.50000000  1
  Mn  Mn0  1  0.75000000  0.50000000  0.25000000  1
  Mn  Mn1  1  0.75000000  0.50000000  0.75000000  1
  Mn  Mn2  1  0.25000000  0.50000000  0.75000000  1
  Mn  Mn3  1  0.25000000  0.50000000  0.25000000  1
  Ga  Ga0  1  0.00000000  0.57547247  0.50000000  1
  Ga  Ga1  1  0.00000000  0.63042482  -0.00000000  1
  Ga  Ga2  1  0.75998072  0.95087579  -0.00000000  1
  Ga  Ga3  1  0.00000000  0.23093292  0.30972843  1
  Ga  Ga4  1  0.50000000  0.42452753  -0.00000000  1
  Ga  Ga5  1  0.50000000  0.76906708  0.19027157  1
  Ga  Ga6  1  0.25998072  0.04912421  0.50000000  1
  Ga  Ga7  1  0.50000000  0.36957518  0.50000000  1
  Ga  Ga8  1  0.00000000  0.23093292  0.69027157  1
  Ga  Ga9  1  0.50000000  0.76906708  0.80972843  1
  Ga  Ga10  1  0.74001928  0.04912421  0.50000000  1
  Ga  Ga11  1  0.24001928  0.95087579  -0.00000000  1
loop_
_geom_bond_atom_site_label_1
_geom_bond_atom_site_label_2
_geom_bond_distance
_geom_bond_site_symmetry_2
Hf0 Mn2 3.041066 1_555
Hf0 Mn1 3.041066 1_455
Hf1 Mn3 3.041066 1_555
Hf1 Mn0 3.041066 1_555
Hf2 Mn0 3.106657 1_455
Hf2 Mn3 3.106657 1_555
Hf2 Mn2 3.106657 1_554
Hf2 Mn1 3.106657 1_454
Hf3 Mn0 3.041066 1_455
Hf3 Mn3 3.041066 1_555
Hf4 Mn1 3.041066 1_555
Hf4 Mn2 3.041066 1_555
Hf5 Mn3 3.106657 1_555
Hf5 Mn0 3.106657 1_555
Hf5 Mn1 3.106657 1_555
Hf5 Mn2 3.106657 1_555
Mn0 Mn3 2.690296 1_555
Mn0 Mn3 2.690296 1_655
Mn1 Mn2 2.690296 1_655
Mn1 Mn2 2.690296 1_555
Ga0 Mn2 2.626561 1_555
Ga0 Mn3 2.626561 1_555
Ga0 Mn0 2.626561 1_455
Ga0 Mn1 2.626561 1_455
Ga0 Hf0 2.860892 1_555
Ga0 Hf3 2.860892 1_555
Ga0 Hf5 2.936982 1_455
Ga0 Hf5 2.936982 1_555
Ga1 Mn3 2.750399 1_555
Ga1 Mn0 2.750399 1_455
Ga1 Mn2 2.750399 1_554
Ga1 Mn1 2.750399 1_454
Ga1 Hf2 2.757734 1_555
Ga1 Ga11 2.776898 1_555
Ga1 Ga2 2.776898 1_455
Ga1 Hf3 2.994224 1_555
Ga1 Hf0 2.994224 1_554
Ga2 Ga9 2.579909 1_554
Ga2 Ga5 2.579909 1_555
Ga2 Hf2 2.774298 1_665
Ga2 Hf1 2.798739 1_565
Ga2 Hf4 2.798739 1_564
Ga2 Hf3 2.873124 1_655
Ga2 Hf0 2.873124 1_654
Ga3 Mn0 2.518218 1_455
Ga3 Mn3 2.518218 1_555
Ga3 Ga6 2.579909 1_555
Ga3 Hf2 2.718720 1_555
Ga3 Hf1 2.879854 1_555
Ga3 Hf1 2.879854 1_455
Ga3 Hf3 2.904251 1_545
Ga4 Mn1 2.626561 1_554
Ga4 Mn3 2.626561 1_555
Ga4 Mn0 2.626561 1_555
Ga4 Mn2 2.626561 1_554
Ga4 Hf1 2.860892 1_555
Ga4 Hf4 2.860892 1_554
Ga4 Hf2 2.936982 1_555
Ga4 Hf2 2.936982 1_655
Ga5 Mn0 2.518218 1_555
Ga5 Mn3 2.518218 1_555
Ga5 Hf5 2.718720 1_555
Ga5 Hf3 2.879854 1_655
Ga5 Hf3 2.879854 1_555
Ga5 Hf1 2.904251 1_565
Ga6 Ga8 2.579909 1_555
Ga6 Hf5 2.774298 1_545
Ga6 Ga7 2.776898 1_555
Ga6 Hf0 2.798739 1_545
Ga6 Hf3 2.798739 1_545
Ga6 Hf4 2.873124 1_555
Ga6 Hf1 2.873124 1_555
Ga7 Mn3 2.750399 1_555
Ga7 Mn0 2.750399 1_555
Ga7 Mn1 2.750399 1_555
Ga7 Mn2 2.750399 1_555
Ga7 Hf5 2.757734 1_555
Ga7 Hf4 2.994224 1_555
Ga7 Hf1 2.994224 1_555
Ga8 Mn1 2.518218 1_455
Ga8 Mn2 2.518218 1_555
Ga8 Hf2 2.718720 1_556
Ga8 Hf4 2.879854 1_455
Ga8 Hf4 2.879854 1_555
Ga8 Hf0 2.904251 1_545
Ga9 Mn1 2.518218 1_555
Ga9 Mn2 2.518218 1_555
Ga9 Hf5 2.718720 1_555
Ga9 Hf0 2.879854 1_655
Ga9 Hf0 2.879854 1_555
Ga9 Hf4 2.904251 1_565
Ga10 Ga3 2.579909 1_655
Ga10 Ga8 2.579909 1_655
Ga10 Ga6 2.582892 1_555
Ga10 Hf5 2.774298 1_545
Ga10 Ga7 2.776898 1_555
Ga10 Ga6 2.797700 1_655
Ga10 Hf0 2.798739 1_645
Ga10 Hf3 2.798739 1_645
Ga10 Hf4 2.873124 1_555
Ga10 Hf1 2.873124 1_555
Ga11 Ga9 2.579909 1_554
Ga11 Ga5 2.579909 1_555
Ga11 Ga2 2.582892 1_455
Ga11 Hf2 2.774298 1_565
Ga11 Ga2 2.797700 1_555
Ga11 Hf1 2.798739 1_565
Ga11 Hf4 2.798739 1_564
Ga11 Hf3 2.873124 1_555
Ga11 Hf0 2.873124 1_554
