# generated using pymatgen
data_Ba3TbRu2O9
_symmetry_space_group_name_H-M   'P 1'
_cell_length_a   5.96671632
_cell_length_b   5.96671632
_cell_length_c   14.64001400
_cell_angle_alpha   90.00000000
_cell_angle_beta   90.00000000
_cell_angle_gamma   120.00000352
_symmetry_Int_Tables_number   1
_chemical_formula_structural   Ba3TbRu2O9
_chemical_formula_sum   'Ba6 Tb2 Ru4 O18'
_cell_volume   451.38059915
_cell_formula_units_Z   2
loop_
 _symmetry_equiv_pos_site_id
 _symmetry_equiv_pos_as_xyz
  1  'x, y, z'
loop_
 _atom_site_type_symbol
 _atom_site_label
 _atom_site_symmetry_multiplicity
 _atom_site_fract_x
 _atom_site_fract_y
 _atom_site_fract_z
 _atom_site_occupancy
  Ba  Ba0  1  0.33333300  0.66666700  0.59537200  1
  Ba  Ba1  1  0.00000000  0.00000000  0.25000000  1
  Ba  Ba2  1  0.66666700  0.33333300  0.40462800  1
  Ba  Ba3  1  0.66666700  0.33333300  0.09537200  1
  Ba  Ba4  1  0.33333300  0.66666700  0.90462800  1
  Ba  Ba5  1  0.00000000  0.00000000  0.75000000  1
  Tb  Tb0  1  0.00000000  0.00000000  0.50000000  1
  Tb  Tb1  1  0.00000000  0.00000000  0.00000000  1
  Ru  Ru0  1  0.33333300  0.66666700  0.33543300  1
  Ru  Ru1  1  0.66666700  0.33333300  0.83543300  1
  Ru  Ru2  1  0.66666700  0.33333300  0.66456700  1
  Ru  Ru3  1  0.33333300  0.66666700  0.16456700  1
  O  O0  1  0.17645000  0.82355000  0.08866400  1
  O  O1  1  0.17645000  0.35290100  0.08866400  1
  O  O2  1  0.64709900  0.82355000  0.08866400  1
  O  O3  1  0.35290100  0.17645000  0.58866400  1
  O  O4  1  0.82355000  0.64709900  0.91133600  1
  O  O5  1  0.82355000  0.17645000  0.58866400  1
  O  O6  1  0.82355000  0.64709900  0.58866400  1
  O  O7  1  0.17645000  0.82355000  0.41133600  1
  O  O8  1  0.64709900  0.82355000  0.41133600  1
  O  O9  1  0.35290100  0.17645000  0.91133600  1
  O  O10  1  0.82355000  0.17645000  0.91133600  1
  O  O11  1  0.17645000  0.35290100  0.41133600  1
  O  O12  1  0.49024000  0.98047900  0.25000000  1
  O  O13  1  0.50976000  0.49024000  0.75000000  1
  O  O14  1  0.98047900  0.49024000  0.75000000  1
  O  O15  1  0.01952100  0.50976000  0.25000000  1
  O  O16  1  0.49024000  0.50976000  0.25000000  1
  O  O17  1  0.50976000  0.01952100  0.75000000  1
loop_
_geom_bond_atom_site_label_1
_geom_bond_atom_site_label_2
_geom_bond_distance
_geom_bond_site_symmetry_2
Ba0 O17 2.906727 1_565
Ba0 O14 2.906727 1_455
Ba0 O13 2.906727 1_555
Ba0 O6 2.986680 1_455
Ba0 O3 2.986680 1_565
Ba0 O5 2.986686 1_455
Ba0 O5 2.986686 1_565
Ba0 O3 2.986692 1_555
Ba0 O6 2.986692 1_555
Ba0 O8 3.144505 1_555
Ba0 O11 3.144505 1_555
Ba0 O7 3.144505 1_555
Ba1 O7 2.983990 1_545
Ba1 O0 2.983990 1_545
Ba1 O11 2.983993 1_555
Ba1 O8 2.983993 1_445
Ba1 O1 2.983993 1_555
Ba1 O2 2.983993 1_445
Ba1 O12 2.985060 1_445
Ba1 O15 2.985060 1_555
Ba1 O16 2.985063 1_555
Ba1 O16 2.985063 1_445
Ba1 O15 2.985066 1_545
Ba1 O12 2.985066 1_545
Ba2 O15 2.906727 1_655
Ba2 O12 2.906727 1_545
Ba2 O16 2.906727 1_555
Ba2 O8 2.986680 1_545
Ba2 O11 2.986680 1_655
Ba2 O7 2.986686 1_545
Ba2 O7 2.986686 1_655
Ba2 O11 2.986692 1_555
Ba2 O8 2.986692 1_555
Ba2 O6 3.144505 1_555
Ba2 O3 3.144505 1_555
Ba2 O5 3.144505 1_555
Ba3 O15 2.906727 1_655
Ba3 O12 2.906727 1_545
Ba3 O16 2.906727 1_555
Ba3 O2 2.986680 1_545
Ba3 O1 2.986680 1_655
Ba3 O0 2.986686 1_545
Ba3 O0 2.986686 1_655
Ba3 O1 2.986692 1_555
Ba3 O2 2.986692 1_555
Ba3 O4 3.144505 1_554
Ba3 O9 3.144505 1_554
Ba3 O10 3.144505 1_554
Ba4 O17 2.906727 1_565
Ba4 O14 2.906727 1_455
Ba4 O13 2.906727 1_555
Ba4 O4 2.986680 1_455
Ba4 O9 2.986680 1_565
Ba4 O10 2.986686 1_455
Ba4 O10 2.986686 1_565
Ba4 O9 2.986692 1_555
Ba4 O4 2.986692 1_555
Ba4 O2 3.144505 1_556
Ba4 O1 3.144505 1_556
Ba4 O0 3.144505 1_556
Ba5 O10 2.983990 1_455
Ba5 O5 2.983990 1_455
Ba5 O9 2.983993 1_555
Ba5 O4 2.983993 1_445
Ba5 O3 2.983993 1_555
Ba5 O6 2.983993 1_445
Ba5 O17 2.985060 1_555
Ba5 O14 2.985060 1_445
Ba5 O13 2.985063 1_445
Ba5 O13 2.985063 1_555
Ba5 O17 2.985066 1_455
Ba5 O14 2.985066 1_455
O0 Ru3 1.965586 1_555
O0 Tb1 2.238358 1_565
O1 Ru3 1.965586 1_555
O1 Tb1 2.238363 1_555
O2 Ru3 1.965586 1_555
O2 Tb1 2.238363 1_665
O3 Ru2 1.965586 1_555
O3 Tb0 2.238363 1_555
O4 Ru1 1.965586 1_555
O4 Tb1 2.238363 1_666
O5 Ru2 1.965586 1_555
O5 Tb0 2.238358 1_655
O6 Ru2 1.965586 1_555
O6 Tb0 2.238363 1_665
O7 Ru0 1.965586 1_555
O7 Tb0 2.238358 1_565
O8 Ru0 1.965586 1_555
O8 Tb0 2.238363 1_665
O9 Ru1 1.965586 1_555
O9 Tb1 2.238363 1_556
O10 Ru1 1.965586 1_555
O10 Tb1 2.238358 1_656
O11 Ru0 1.965586 1_555
O11 Tb0 2.238363 1_555
O12 Ru0 2.047886 1_555
O12 Ru3 2.047886 1_555
O13 Ru1 2.047895 1_555
O13 Ru2 2.047895 1_555
O14 Ru1 2.047886 1_555
O14 Ru2 2.047886 1_555
O15 Ru3 2.047886 1_555
O15 Ru0 2.047886 1_555
O16 Ru3 2.047895 1_555
O16 Ru0 2.047895 1_555
O17 Ru1 2.047886 1_555
O17 Ru2 2.047886 1_555
