# generated using pymatgen
data_Al2CoO4
_symmetry_space_group_name_H-M   'P 1'
_cell_length_a   5.78364792
_cell_length_b   5.78364792
_cell_length_c   14.19663500
_cell_angle_alpha   90.00000000
_cell_angle_beta   90.00000000
_cell_angle_gamma   119.99999906
_symmetry_Int_Tables_number   1
_chemical_formula_structural   Al2CoO4
_chemical_formula_sum   'Al12 Co6 O24'
_cell_volume   411.26310199
_cell_formula_units_Z   6
loop_
 _symmetry_equiv_pos_site_id
 _symmetry_equiv_pos_as_xyz
  1  'x, y, z'
loop_
 _atom_site_type_symbol
 _atom_site_label
 _atom_site_symmetry_multiplicity
 _atom_site_fract_x
 _atom_site_fract_y
 _atom_site_fract_z
 _atom_site_occupancy
  Al  Al0  1  0.66666700  0.33333300  0.91412800  1
  Al  Al1  1  0.16382200  0.32764300  0.79100600  1
  Al  Al2  1  0.16382200  0.83617800  0.79100600  1
  Al  Al3  1  0.67235700  0.83617800  0.79100600  1
  Al  Al4  1  0.83253000  0.66506000  0.45766900  1
  Al  Al5  1  0.00000000  0.00000000  0.62371400  1
  Al  Al6  1  0.83253000  0.16747000  0.45766900  1
  Al  Al7  1  0.33494000  0.16747000  0.45766900  1
  Al  Al8  1  0.49776500  0.99553000  0.12623400  1
  Al  Al9  1  0.66666700  0.33333300  0.29135100  1
  Al  Al10  1  0.49776500  0.50223500  0.12623400  1
  Al  Al11  1  0.00447000  0.50223500  0.12623400  1
  Co  Co0  1  0.00000000  0.00000000  0.00288800  1
  Co  Co1  1  0.66666700  0.33333300  0.66620500  1
  Co  Co2  1  0.33333300  0.66666700  0.96052100  1
  Co  Co3  1  0.33333300  0.66666700  0.58465700  1
  Co  Co4  1  0.33333300  0.66666700  0.33441800  1
  Co  Co5  1  0.00000000  0.00000000  0.24692800  1
  O  O0  1  0.00573800  0.50286900  0.86586500  1
  O  O1  1  0.33333300  0.66666700  0.72750900  1
  O  O2  1  0.49713100  0.50286900  0.86586500  1
  O  O3  1  0.49713100  0.99426200  0.86586500  1
  O  O4  1  0.85262100  0.70524300  0.71170900  1
  O  O5  1  0.70564300  0.85282100  0.53666000  1
  O  O6  1  0.85262100  0.14737900  0.71170900  1
  O  O7  1  0.00000000  0.00000000  0.38846200  1
  O  O8  1  0.14717900  0.85282100  0.53666000  1
  O  O9  1  0.00000000  0.00000000  0.86121800  1
  O  O10  1  0.14717900  0.29435700  0.53666000  1
  O  O11  1  0.29475700  0.14737900  0.71170900  1
  O  O12  1  0.37749800  0.18874900  0.20275800  1
  O  O13  1  0.51893000  0.03786000  0.37991800  1
  O  O14  1  0.51893000  0.48107000  0.37991800  1
  O  O15  1  0.66666700  0.33333300  0.04343000  1
  O  O16  1  0.66666700  0.33333300  0.52724400  1
  O  O17  1  0.81125100  0.18874900  0.20275800  1
  O  O18  1  0.81125100  0.62250200  0.20275800  1
  O  O19  1  0.96214000  0.48107000  0.37991800  1
  O  O20  1  0.17941900  0.35883900  0.05533000  1
  O  O21  1  0.17941900  0.82058100  0.05533000  1
  O  O22  1  0.33333300  0.66666700  0.19674000  1
  O  O23  1  0.64116100  0.82058100  0.05533000  1
loop_
_geom_bond_atom_site_label_1
_geom_bond_atom_site_label_2
_geom_bond_distance
_geom_bond_site_symmetry_2
Al0 O0 1.831338 1_655
Al0 O3 1.831338 1_545
Al0 O2 1.831343 1_555
Al0 O15 1.835653 1_556
Al1 O9 1.920090 1_555
Al1 O1 1.922535 1_555
Al1 O11 1.928030 1_555
Al1 O6 1.928038 1_455
Al1 O2 1.979654 1_555
Al1 O0 1.979658 1_555
Al2 O9 1.920095 1_565
Al2 O1 1.922526 1_555
Al2 O11 1.928039 1_565
Al2 O4 1.928039 1_455
Al2 O0 1.979653 1_555
Al2 O3 1.979653 1_555
Al3 O9 1.920090 1_665
Al3 O1 1.922535 1_555
Al3 O4 1.928030 1_555
Al3 O6 1.928038 1_565
Al3 O2 1.979654 1_555
Al3 O3 1.979658 1_555
Al4 O19 1.926235 1_555
Al4 O14 1.926235 1_555
Al4 O16 1.932966 1_555
Al4 O5 1.942249 1_555
Al4 O8 1.942253 1_655
Al4 O7 1.944172 1_665
Al5 O5 1.923839 1_445
Al5 O10 1.923839 1_555
Al5 O8 1.923842 1_545
Al5 O11 1.933977 1_555
Al5 O4 1.933977 1_445
Al5 O6 1.933980 1_455
Al6 O19 1.926235 1_555
Al6 O13 1.926235 1_555
Al6 O16 1.932962 1_555
Al6 O10 1.942253 1_655
Al6 O5 1.942253 1_545
Al6 O7 1.944172 1_655
Al7 O13 1.926235 1_555
Al7 O14 1.926235 1_555
Al7 O16 1.932966 1_555
Al7 O10 1.942249 1_555
Al7 O8 1.942253 1_545
Al7 O7 1.944172 1_555
Al8 O23 1.887873 1_555
Al8 O21 1.887878 1_555
Al8 O12 1.920993 1_565
Al8 O17 1.920993 1_565
Al8 O22 1.927480 1_555
Al8 O15 2.060266 1_565
Al9 O17 1.918247 1_555
Al9 O18 1.918251 1_555
Al9 O12 1.918251 1_555
Al9 O13 1.941963 1_555
Al9 O19 1.941963 1_555
Al9 O14 1.941967 1_555
Al10 O20 1.887878 1_555
Al10 O23 1.887878 1_555
Al10 O18 1.920993 1_555
Al10 O12 1.920993 1_555
Al10 O22 1.927484 1_555
Al10 O15 2.060270 1_555
Al11 O20 1.887873 1_555
Al11 O21 1.887878 1_555
Al11 O18 1.920993 1_455
Al11 O17 1.920993 1_455
Al11 O22 1.927480 1_555
Al11 O15 2.060266 1_455
Co0 O21 1.945436 1_545
Co0 O20 1.945441 1_555
Co0 O23 1.945441 1_445
Co0 O9 2.011237 1_554
Co1 O6 1.971642 1_555
Co1 O4 1.971652 1_555
Co1 O11 1.971652 1_555
Co1 O16 1.972779 1_555
Co2 O21 2.046684 1_556
Co2 O23 2.046684 1_556
Co2 O20 2.046684 1_556
Co2 O0 2.120893 1_555
Co2 O3 2.120893 1_555
Co2 O2 2.120897 1_555
Co3 O8 1.985402 1_555
Co3 O10 1.985411 1_555
Co3 O5 1.985411 1_555
Co3 O1 2.028018 1_555
Co4 O22 1.954564 1_555
Co4 O19 1.968240 1_455
Co4 O13 1.968240 1_565
Co4 O14 1.968245 1_555
Co5 O17 1.992075 1_455
Co5 O18 1.992075 1_445
Co5 O12 1.992075 1_555
Co5 O7 2.009307 1_555
