# generated using pymatgen
data_Cs2Li3I5
_symmetry_space_group_name_H-M   'P 1'
_cell_length_a   4.75266917
_cell_length_b   8.83605285
_cell_length_c   10.93680348
_cell_angle_alpha   67.24793699
_cell_angle_beta   77.46214637
_cell_angle_gamma   74.41396660
_symmetry_Int_Tables_number   1
_chemical_formula_structural   Cs2Li3I5
_chemical_formula_sum   'Cs2 Li3 I5'
_cell_volume   404.65108438
_cell_formula_units_Z   1
loop_
 _symmetry_equiv_pos_site_id
 _symmetry_equiv_pos_as_xyz
  1  'x, y, z'
loop_
 _atom_site_type_symbol
 _atom_site_label
 _atom_site_symmetry_multiplicity
 _atom_site_fract_x
 _atom_site_fract_y
 _atom_site_fract_z
 _atom_site_occupancy
  Cs  Cs0  1  0.68125000  0.85941100  0.77293800  1
  Cs  Cs1  1  0.31404000  0.14501900  0.22681300  1
  Li  Li0  1  0.04602400  0.69505200  0.20587100  1
  Li  Li1  1  0.50787400  0.50039800  0.49740600  1
  Li  Li2  1  0.94367400  0.31175100  0.79387200  1
  I  I0  1  0.35674800  0.47711900  0.80355800  1
  I  I1  1  0.09847600  0.24306800  0.56179400  1
  I  I2  1  0.89698000  0.76386500  0.43768800  1
  I  I3  1  0.63403900  0.52716900  0.19936100  1
  I  I4  1  0.99807600  0.00259500  0.99953200  1
loop_
_geom_bond_atom_site_label_1
_geom_bond_atom_site_label_2
_geom_bond_distance
_geom_bond_site_symmetry_2
Cs0 I4 3.874114 1_465
Cs0 I4 3.883122 1_565
Cs0 I2 3.937598 1_555
Cs0 I0 3.948887 1_655
Cs0 I0 3.949877 1_555
Cs0 I1 4.021492 1_565
Cs0 I1 4.040530 1_665
Cs0 I3 4.441674 1_556
Cs1 I4 3.878673 1_554
Cs1 I4 3.882447 1_454
Cs1 I1 3.945989 1_555
Cs1 I3 3.947459 1_555
Cs1 I3 3.963552 1_455
Cs1 I2 4.011189 1_545
Cs1 I2 4.023085 1_445
Cs1 I0 4.414254 1_554
I0 Li2 2.780031 1_555
I0 Li2 2.784249 1_455
I0 Li1 3.204994 1_555
I1 Li2 2.737296 1_455
I1 Li1 3.120075 1_455
I1 Li1 3.161626 1_555
I2 Li0 2.735072 1_655
I2 Li1 3.143099 1_555
I2 Li1 3.207942 1_655
I3 Li0 2.782543 1_655
I3 Li0 2.789838 1_555
I3 Li1 3.109996 1_555
I4 Li0 2.770614 1_646
I4 Li2 2.776452 1_555
