# generated using pymatgen
data_Li11Mn11O26
_symmetry_space_group_name_H-M   'P 1'
_cell_length_a   5.15580424
_cell_length_b   5.15580447
_cell_length_c   68.21942611
_cell_angle_alpha   32.42721937
_cell_angle_beta   32.42721538
_cell_angle_gamma   32.08672817
_symmetry_Int_Tables_number   1
_chemical_formula_structural   Li11Mn11O26
_chemical_formula_sum   'Li11 Mn11 O26'
_cell_volume   460.59828965
_cell_formula_units_Z   1
loop_
 _symmetry_equiv_pos_site_id
 _symmetry_equiv_pos_as_xyz
  1  'x, y, z'
loop_
 _atom_site_type_symbol
 _atom_site_label
 _atom_site_symmetry_multiplicity
 _atom_site_fract_x
 _atom_site_fract_y
 _atom_site_fract_z
 _atom_site_occupancy
  Li  Li0  1  0.07798700  0.07798700  0.08981900  1
  Li  Li1  1  0.87466500  0.87466500  0.07429100  1
  Li  Li2  1  0.54214100  0.54214100  0.41594800  1
  Li  Li3  1  0.50843700  0.50843700  0.49852600  1
  Li  Li4  1  0.50543600  0.50543600  0.57648400  1
  Li  Li5  1  0.50995200  0.50995200  0.65234500  1
  Li  Li6  1  0.51988200  0.51988200  0.72708500  1
  Li  Li7  1  0.52736500  0.52736500  0.80218200  1
  Li  Li8  1  0.51427400  0.51427400  0.88061000  1
  Li  Li9  1  0.42865800  0.42865800  0.97144800  1
  Li  Li10  1  0.98495900  0.98495900  0.00415800  1
  Mn  Mn0  1  0.96169900  0.96169900  0.15584800  1
  Mn  Mn1  1  0.96921300  0.96921300  0.23552700  1
  Mn  Mn2  1  0.96797100  0.96797100  0.31273800  1
  Mn  Mn3  1  0.97047500  0.97047500  0.46614700  1
  Mn  Mn4  1  0.96453900  0.96453900  0.38908900  1
  Mn  Mn5  1  0.99309900  0.99309900  0.54010300  1
  Mn  Mn6  1  0.00781400  0.00781400  0.61451800  1
  Mn  Mn7  1  0.01687400  0.01687400  0.68935300  1
  Mn  Mn8  1  0.04641900  0.04641900  0.83715300  1
  Mn  Mn9  1  0.03914400  0.03914400  0.76222900  1
  Mn  Mn10  1  0.02516600  0.02516600  0.91752700  1
  O  O0  1  0.25250300  0.25250300  0.01879300  1
  O  O1  1  0.10490700  0.10490700  0.11461600  1
  O  O2  1  0.84934800  0.84934800  0.04845300  1
  O  O3  1  0.18470800  0.18470800  0.18560800  1
  O  O4  1  0.66779900  0.66779900  0.13897600  1
  O  O5  1  0.20800600  0.20800600  0.26078900  1
  O  O6  1  0.69397900  0.69397900  0.21505100  1
  O  O7  1  0.21349400  0.21349400  0.33640600  1
  O  O8  1  0.68936500  0.68936500  0.29393700  1
  O  O9  1  0.20824000  0.20824000  0.41263800  1
  O  O10  1  0.68787800  0.68787800  0.37094400  1
  O  O11  1  0.22792400  0.22792400  0.48649800  1
  O  O12  1  0.71570100  0.71570100  0.44499600  1
  O  O13  1  0.24925500  0.24925500  0.56040700  1
  O  O14  1  0.73474700  0.73474700  0.52023700  1
  O  O15  1  0.26752200  0.26752200  0.63414000  1
  O  O16  1  0.74627100  0.74627100  0.59526400  1
  O  O17  1  0.28219800  0.28219800  0.70776500  1
  O  O18  1  0.75891600  0.75891600  0.66952900  1
  O  O19  1  0.30000300  0.30000300  0.78146500  1
  O  O20  1  0.77476500  0.77476500  0.74364500  1
  O  O21  1  0.32164900  0.32164900  0.85445500  1
  O  O22  1  0.78904000  0.78904000  0.81704400  1
  O  O23  1  0.33811900  0.33811900  0.92926100  1
  O  O24  1  0.81021400  0.81021400  0.88944200  1
  O  O25  1  0.84428100  0.84428100  0.96243200  1
loop_
_geom_bond_atom_site_label_1
_geom_bond_atom_site_label_2
_geom_bond_distance
_geom_bond_site_symmetry_2
Li0 O1 1.930162 1_555
Li0 O4 1.955694 1_445
Li0 O2 1.973661 1_545
Li0 O2 1.973662 1_455
Li1 O0 1.858180 1_665
Li1 O1 1.956172 1_565
Li1 O1 1.956172 1_655
Li1 O2 1.986632 1_555
Li2 O10 1.929498 1_555
Li2 O9 2.034168 1_655
Li2 O9 2.034169 1_565
Li2 O12 2.271974 1_455
Li2 O12 2.271975 1_545
Li2 O11 2.556356 1_555
Li3 O11 2.073559 1_655
Li3 O11 2.073559 1_565
Li3 O12 2.092592 1_555
Li3 O14 2.126964 1_455
Li3 O14 2.126965 1_545
Li3 O13 2.317752 1_555
Li4 O13 2.101536 1_655
Li4 O13 2.101537 1_565
Li4 O16 2.118516 1_455
Li4 O16 2.118516 1_545
Li4 O14 2.137973 1_555
Li4 O15 2.177121 1_555
Li5 O17 2.097363 1_555
Li5 O18 2.114415 1_455
Li5 O18 2.114415 1_545
Li5 O15 2.125945 1_655
Li5 O15 2.125945 1_565
Li5 O16 2.151537 1_555
Li6 O19 2.076327 1_555
Li6 O20 2.094461 1_455
Li6 O20 2.094462 1_545
Li6 O17 2.122909 1_655
Li6 O17 2.122910 1_565
Li6 O18 2.165733 1_555
Li7 O21 2.025512 1_555
Li7 O22 2.104786 1_455
Li7 O22 2.104787 1_545
Li7 O19 2.149467 1_655
Li7 O19 2.149468 1_565
Li7 O20 2.181755 1_555
Li8 O23 1.971184 1_555
Li8 O24 2.083869 1_455
Li8 O24 2.083870 1_545
Li8 O21 2.223862 1_655
Li8 O21 2.223863 1_565
Li8 O22 2.340491 1_555
Li9 O0 1.890848 1_556
Li9 O25 2.002796 1_455
Li9 O25 2.002796 1_545
Li9 O23 2.503020 1_655
Li9 O23 2.503021 1_565
Li10 O2 1.950351 1_555
Li10 O0 2.072163 1_565
Li10 O0 2.072163 1_655
Li10 O25 2.237888 1_654
Li10 O25 2.237888 1_564
Mn0 O1 1.707047 1_665
Mn0 O4 1.843169 1_655
Mn0 O4 1.843169 1_565
Mn0 O3 1.974298 1_565
Mn0 O3 1.974299 1_655
Mn0 O6 2.128070 1_555
Mn1 O3 1.839306 1_665
Mn1 O6 1.864827 1_655
Mn1 O6 1.864828 1_565
Mn1 O5 1.965924 1_565
Mn1 O5 1.965925 1_655
Mn1 O8 2.039042 1_555
Mn2 O5 1.846587 1_665
Mn2 O8 1.883090 1_655
Mn2 O8 1.883090 1_565
Mn2 O7 1.960777 1_565
Mn2 O7 1.960777 1_655
Mn2 O10 2.027637 1_555
Mn3 O9 1.941280 1_665
Mn3 O12 1.964344 1_655
Mn3 O12 1.964344 1_565
Mn3 O11 1.968148 1_565
Mn3 O11 1.968148 1_655
Mn3 O14 1.982821 1_555
Mn4 O7 1.851589 1_665
Mn4 O10 1.910168 1_655
Mn4 O10 1.910169 1_565
Mn4 O9 1.973550 1_565
Mn4 O9 1.973551 1_655
Mn4 O12 2.026470 1_555
Mn5 O11 1.959596 1_665
Mn5 O14 1.975068 1_655
Mn5 O14 1.975068 1_565
Mn5 O13 1.977079 1_565
Mn5 O13 1.977079 1_655
Mn5 O16 1.993801 1_555
Mn6 O13 1.958798 1_555
Mn6 O16 1.971700 1_545
Mn6 O16 1.971700 1_455
Mn6 O15 1.973193 1_455
Mn6 O15 1.973193 1_545
Mn6 O18 1.976828 1_445
Mn7 O20 1.965950 1_445
Mn7 O17 1.971147 1_455
Mn7 O17 1.971147 1_545
Mn7 O18 1.978542 1_545
Mn7 O18 1.978542 1_455
Mn7 O15 1.980625 1_555
Mn8 O24 1.880584 1_445
Mn8 O21 1.940833 1_455
Mn8 O21 1.940833 1_545
Mn8 O22 1.974692 1_545
Mn8 O22 1.974692 1_455
Mn8 O19 1.994461 1_555
Mn9 O22 1.961173 1_445
Mn9 O17 1.971413 1_555
Mn9 O20 1.972281 1_545
Mn9 O20 1.972281 1_455
Mn9 O19 1.976343 1_455
Mn9 O19 1.976343 1_545
Mn10 O25 1.718082 1_445
Mn10 O23 1.870998 1_455
Mn10 O23 1.870998 1_545
Mn10 O24 2.043014 1_545
Mn10 O24 2.043015 1_455
Mn10 O21 2.222542 1_555
