# generated using pymatgen
data_CaCu3(RuO3)4
_symmetry_space_group_name_H-M   'P 1'
_cell_length_a   6.49460336
_cell_length_b   6.49460336
_cell_length_c   6.49460336
_cell_angle_alpha   109.47122063
_cell_angle_beta   109.47122063
_cell_angle_gamma   109.47122063
_symmetry_Int_Tables_number   1
_chemical_formula_structural   CaCu3(RuO3)4
_chemical_formula_sum   'Ca1 Cu3 Ru4 O12'
_cell_volume   210.88029892
_cell_formula_units_Z   1
loop_
 _symmetry_equiv_pos_site_id
 _symmetry_equiv_pos_as_xyz
  1  'x, y, z'
loop_
 _atom_site_type_symbol
 _atom_site_label
 _atom_site_symmetry_multiplicity
 _atom_site_fract_x
 _atom_site_fract_y
 _atom_site_fract_z
 _atom_site_occupancy
  Ca  Ca0  1  0.00000000  0.00000000  0.00000000  1
  Cu  Cu0  1  0.50000000  0.00000000  0.50000000  1
  Cu  Cu1  1  0.00000000  0.50000000  0.50000000  1
  Cu  Cu2  1  0.50000000  0.50000000  0.00000000  1
  Ru  Ru0  1  0.00000000  0.00000000  0.50000000  1
  Ru  Ru1  1  0.50000000  0.00000000  0.00000000  1
  Ru  Ru2  1  0.00000000  0.50000000  0.00000000  1
  Ru  Ru3  1  0.50000000  0.50000000  0.50000000  1
  O  O0  1  0.69363000  0.82771300  0.52134300  1
  O  O1  1  0.69363000  0.17228700  0.86591600  1
  O  O2  1  0.30637000  0.82771300  0.13408400  1
  O  O3  1  0.30637000  0.17228700  0.47865700  1
  O  O4  1  0.82771300  0.52134300  0.69363000  1
  O  O5  1  0.17228700  0.86591600  0.69363000  1
  O  O6  1  0.82771300  0.13408400  0.30637000  1
  O  O7  1  0.17228700  0.47865700  0.30637000  1
  O  O8  1  0.52134300  0.69363000  0.82771300  1
  O  O9  1  0.86591600  0.69363000  0.17228700  1
  O  O10  1  0.13408400  0.30637000  0.82771300  1
  O  O11  1  0.47865700  0.30637000  0.17228700  1
loop_
_geom_bond_atom_site_label_1
_geom_bond_atom_site_label_2
_geom_bond_distance
_geom_bond_site_symmetry_2
Ca0 O0 2.635938 1_444
Ca0 O4 2.635938 1_444
Ca0 O8 2.635938 1_444
Ca0 O11 2.635938 1_555
Ca0 O7 2.635938 1_555
Ca0 O3 2.635938 1_555
Ca0 O1 2.635940 1_454
Ca0 O5 2.635940 1_544
Ca0 O9 2.635940 1_445
Ca0 O10 2.635940 1_554
Ca0 O6 2.635940 1_455
Ca0 O2 2.635940 1_545
Cu0 O1 1.943685 1_555
Cu0 O2 1.943685 1_545
Cu0 O3 1.943690 1_555
Cu0 O0 1.943690 1_545
Cu1 O5 1.943685 1_555
Cu1 O6 1.943685 1_455
Cu1 O7 1.943690 1_555
Cu1 O4 1.943690 1_455
Cu2 O9 1.943685 1_555
Cu2 O10 1.943685 1_554
Cu2 O11 1.943690 1_555
Cu2 O8 1.943690 1_554
O0 Ru3 2.008319 1_555
O0 Ru0 2.008319 1_665
O1 Ru2 2.008317 1_656
O1 Ru1 2.008324 1_556
O2 Ru2 2.008317 1_555
O2 Ru1 2.008324 1_565
O3 Ru3 2.008319 1_555
O3 Ru0 2.008319 1_555
O4 Ru3 2.008319 1_555
O4 Ru2 2.008319 1_656
O5 Ru1 2.008317 1_566
O5 Ru0 2.008324 1_565
O6 Ru1 2.008317 1_555
O6 Ru0 2.008324 1_655
O7 Ru2 2.008319 1_555
O7 Ru3 2.008319 1_555
O8 Ru3 2.008319 1_555
O8 Ru1 2.008319 1_566
O9 Ru0 2.008317 1_665
O9 Ru2 2.008324 1_655
O10 Ru0 2.008317 1_555
O10 Ru2 2.008324 1_556
O11 Ru1 2.008319 1_555
O11 Ru3 2.008319 1_555
