# generated using pymatgen
data_SiO2
_symmetry_space_group_name_H-M   'P 1'
_cell_length_a   4.97822466
_cell_length_b   8.27394090
_cell_length_c   14.05082491
_cell_angle_alpha   90.00000000
_cell_angle_beta   90.00000000
_cell_angle_gamma   90.00000000
_symmetry_Int_Tables_number   1
_chemical_formula_structural   SiO2
_chemical_formula_sum   'Si12 O24'
_cell_volume   578.74696722
_cell_formula_units_Z   12
loop_
 _symmetry_equiv_pos_site_id
 _symmetry_equiv_pos_as_xyz
  1  'x, y, z'
loop_
 _atom_site_type_symbol
 _atom_site_label
 _atom_site_symmetry_multiplicity
 _atom_site_fract_x
 _atom_site_fract_y
 _atom_site_fract_z
 _atom_site_occupancy
  Si  Si0  1  0.38427541  0.31799787  0.20122934  1
  Si  Si1  1  0.88427541  0.18200213  0.29877066  1
  Si  Si2  1  0.11572359  0.81799787  0.29877066  1
  Si  Si3  1  0.61572459  0.68200213  0.20122934  1
  Si  Si4  1  0.61572459  0.68200213  0.79877066  1
  Si  Si5  1  0.11572359  0.81799787  0.70122934  1
  Si  Si6  1  0.88427541  0.18200213  0.70122934  1
  Si  Si7  1  0.38427541  0.31799787  0.79877066  1
  Si  Si8  1  0.24742704  0.88096781  0.50000000  1
  Si  Si9  1  0.74742704  0.61903219  -0.00000000  1
  Si  Si10  1  0.25257296  0.38096781  -0.00000000  1
  Si  Si11  1  0.75257296  0.11903219  0.50000000  1
  O  O0  1  0.13216878  0.30128931  0.27348814  1
  O  O1  1  0.63216878  0.19871069  0.22651186  1
  O  O2  1  0.36783122  0.80128931  0.22651186  1
  O  O3  1  0.86783122  0.69871069  0.27348814  1
  O  O4  1  0.86783122  0.69871069  0.72651186  1
  O  O5  1  0.36783122  0.80128931  0.77348814  1
  O  O6  1  0.63216878  0.19871069  0.77348814  1
  O  O7  1  0.13216878  0.30128931  0.72651186  1
  O  O8  1  0.26936878  0.27359784  0.09586925  1
  O  O9  1  0.76936878  0.22640216  0.40413075  1
  O  O10  1  0.23063122  0.77359784  0.40413075  1
  O  O11  1  0.73063122  0.72640216  0.09586925  1
  O  O12  1  0.73063122  0.72640216  0.90413075  1
  O  O13  1  0.23063122  0.77359784  0.59586925  1
  O  O14  1  0.76936878  0.22640216  0.59586925  1
  O  O15  1  0.26936878  0.27359784  0.90413075  1
  O  O16  1  0.50000000  0.50000000  0.20604356  1
  O  O17  1  -0.00000000  -0.00000000  0.29395644  1
  O  O18  1  0.50000000  0.50000000  0.79395644  1
  O  O19  1  -0.00000000  -0.00000000  0.70604356  1
  O  O20  1  -0.00000000  -0.00000000  0.50000000  1
  O  O21  1  0.50000000  0.50000000  -0.00000000  1
  O  O22  1  0.50000000  -0.00000000  0.50000000  1
  O  O23  1  -0.00000000  0.50000000  -0.00000000  1
loop_
_geom_bond_atom_site_label_1
_geom_bond_atom_site_label_2
_geom_bond_distance
_geom_bond_site_symmetry_2
O0 Si1 1.619642 1_455
O0 Si0 1.620207 1_555
O1 Si0 1.619642 1_555
O1 Si1 1.620207 1_555
O2 Si3 1.619642 1_555
O2 Si2 1.620211 1_555
O3 Si2 1.619639 1_655
O3 Si3 1.620207 1_555
O4 Si5 1.619639 1_655
O4 Si4 1.620207 1_555
O5 Si4 1.619642 1_555
O5 Si5 1.620211 1_555
O6 Si7 1.619642 1_555
O6 Si6 1.620207 1_555
O7 Si6 1.619642 1_455
O7 Si7 1.620207 1_555
O8 Si10 1.615772 1_555
O8 Si0 1.629033 1_555
O9 Si11 1.615772 1_555
O9 Si1 1.629033 1_555
O10 Si8 1.615772 1_555
O10 Si2 1.629035 1_555
O11 Si9 1.615772 1_555
O11 Si3 1.629033 1_555
O12 Si9 1.615772 1_556
O12 Si4 1.629033 1_555
O13 Si8 1.615772 1_555
O13 Si5 1.629035 1_555
O14 Si11 1.615772 1_555
O14 Si6 1.629033 1_555
O15 Si10 1.615772 1_556
O15 Si7 1.629033 1_555
O16 Si0 1.613732 1_555
O16 Si3 1.613732 1_555
O17 Si2 1.613730 1_545
O17 Si1 1.613732 1_455
O18 Si4 1.613732 1_555
O18 Si7 1.613732 1_555
O19 Si5 1.613730 1_545
O19 Si6 1.613732 1_455
O20 Si11 1.577074 1_455
O20 Si8 1.577074 1_545
O21 Si10 1.577074 1_555
O21 Si9 1.577074 1_555
O22 Si8 1.597162 1_545
O22 Si11 1.597162 1_555
O23 Si9 1.597162 1_455
O23 Si10 1.597162 1_555
