# generated using pymatgen
data_Mn2Sb
_symmetry_space_group_name_H-M   'P 1'
_cell_length_a   4.52750668
_cell_length_b   4.52750668
_cell_length_c   5.49196400
_cell_angle_alpha   90.00000000
_cell_angle_beta   90.00000000
_cell_angle_gamma   120.00000997
_symmetry_Int_Tables_number   1
_chemical_formula_structural   Mn2Sb
_chemical_formula_sum   'Mn4 Sb2'
_cell_volume   97.49368140
_cell_formula_units_Z   2
loop_
 _symmetry_equiv_pos_site_id
 _symmetry_equiv_pos_as_xyz
  1  'x, y, z'
loop_
 _atom_site_type_symbol
 _atom_site_label
 _atom_site_symmetry_multiplicity
 _atom_site_fract_x
 _atom_site_fract_y
 _atom_site_fract_z
 _atom_site_occupancy
  Mn  Mn0  1  0.00000000  0.00000000  0.00000000  1
  Mn  Mn1  1  0.00000000  0.00000000  0.50000000  1
  Mn  Mn2  1  0.33333300  0.66666700  0.75000000  1
  Mn  Mn3  1  0.66666700  0.33333300  0.25000000  1
  Sb  Sb0  1  0.33333300  0.66666700  0.25000000  1
  Sb  Sb1  1  0.66666700  0.33333300  0.75000000  1
loop_
_geom_bond_atom_site_label_1
_geom_bond_atom_site_label_2
_geom_bond_distance
_geom_bond_site_symmetry_2
Mn0 Mn1 2.745982 1_555
Mn0 Mn1 2.745982 1_554
Mn0 Sb1 2.952603 1_454
Mn0 Mn2 2.952603 1_544
Mn0 Sb0 2.952603 1_545
Mn0 Mn3 2.952603 1_455
Mn0 Mn3 2.952606 1_445
Mn0 Mn2 2.952606 1_554
Mn0 Sb1 2.952606 1_444
Mn0 Sb1 2.952606 1_554
Mn0 Sb0 2.952606 1_445
Mn0 Mn2 2.952606 1_444
Mn0 Mn3 2.952606 1_555
Mn0 Sb0 2.952606 1_555
Mn1 Mn2 2.952603 1_545
Mn1 Mn3 2.952603 1_455
Mn1 Sb1 2.952603 1_455
Mn1 Sb0 2.952603 1_545
Mn1 Mn3 2.952606 1_445
Mn1 Sb0 2.952606 1_445
Mn1 Mn2 2.952606 1_555
Mn1 Mn2 2.952606 1_445
Mn1 Mn3 2.952606 1_555
Mn1 Sb1 2.952606 1_555
Mn1 Sb0 2.952606 1_555
Mn1 Sb1 2.952606 1_445
Mn2 Sb1 2.613954 1_455
Mn2 Sb1 2.613954 1_565
Mn2 Sb1 2.613963 1_555
Mn2 Sb0 2.745982 1_555
Mn2 Sb0 2.745982 1_556
Mn3 Sb0 2.613954 1_545
Mn3 Sb0 2.613954 1_655
Mn3 Sb0 2.613963 1_555
Mn3 Sb1 2.745982 1_554
Mn3 Sb1 2.745982 1_555
