# generated using pymatgen
data_Rb3Tm(SO4)3
_symmetry_space_group_name_H-M   'P 1'
_cell_length_a   9.55430397
_cell_length_b   9.55430397
_cell_length_c   9.51471648
_cell_angle_alpha   70.00022888
_cell_angle_beta   70.00022888
_cell_angle_gamma   108.38496675
_symmetry_Int_Tables_number   1
_chemical_formula_structural   Rb3Tm(SO4)3
_chemical_formula_sum   'Rb6 Tm2 S6 O24'
_cell_volume   668.71697060
_cell_formula_units_Z   2
loop_
 _symmetry_equiv_pos_site_id
 _symmetry_equiv_pos_as_xyz
  1  'x, y, z'
loop_
 _atom_site_type_symbol
 _atom_site_label
 _atom_site_symmetry_multiplicity
 _atom_site_fract_x
 _atom_site_fract_y
 _atom_site_fract_z
 _atom_site_occupancy
  Rb  Rb0  1  0.81479200  0.80202700  0.14841000  1
  Rb  Rb1  1  0.45479200  0.92787800  0.87785500  1
  Rb  Rb2  1  0.71753800  0.32973000  0.95796900  1
  Rb  Rb3  1  0.92787800  0.45479200  0.37785500  1
  Rb  Rb4  1  0.80202700  0.81479200  0.64841000  1
  Rb  Rb5  1  0.32973000  0.71753800  0.45796900  1
  Tm  Tm0  1  0.16862700  0.35114300  0.99687700  1
  Tm  Tm1  1  0.35114300  0.16862700  0.49687700  1
  S  S0  1  0.09059200  0.29655200  0.69906300  1
  S  S1  1  0.29655200  0.09059200  0.19906300  1
  S  S2  1  0.49351400  0.37687900  0.64599600  1
  S  S3  1  0.10264700  0.71716900  0.85422500  1
  S  S4  1  0.71716900  0.10264700  0.35422500  1
  S  S5  1  0.37687900  0.49351400  0.14599600  1
  O  O0  1  0.58308100  0.15535900  0.34909900  1
  O  O1  1  0.74714200  0.95393900  0.89356800  1
  O  O2  1  0.15535900  0.58308100  0.84909900  1
  O  O3  1  0.09278900  0.73058000  0.00638200  1
  O  O4  1  0.64360200  0.41954400  0.66705200  1
  O  O5  1  0.73058000  0.09278900  0.50638200  1
  O  O6  1  0.17661100  0.11213300  0.13031300  1
  O  O7  1  0.33671300  0.95813500  0.17615900  1
  O  O8  1  0.39010900  0.18664300  0.72012700  1
  O  O9  1  0.44997600  0.53713900  0.95982600  1
  O  O10  1  0.88312300  0.24290700  0.18984200  1
  O  O11  1  0.18664300  0.39010900  0.22012700  1
  O  O12  1  0.03063800  0.20498000  0.89285400  1
  O  O13  1  0.93909100  0.67004100  0.85641000  1
  O  O14  1  0.41954400  0.64360200  0.16705200  1
  O  O15  1  0.67004100  0.93909100  0.35641000  1
  O  O16  1  0.53713900  0.44997600  0.45982600  1
  O  O17  1  0.24290700  0.88312300  0.68984200  1
  O  O18  1  0.11213300  0.17661100  0.63031300  1
  O  O19  1  0.43854300  0.38450300  0.23277600  1
  O  O20  1  0.20498000  0.03063800  0.39285400  1
  O  O21  1  0.38450300  0.43854300  0.73277600  1
  O  O22  1  0.95813500  0.33671300  0.67615900  1
  O  O23  1  0.95393900  0.74714200  0.39356800  1
loop_
_geom_bond_atom_site_label_1
_geom_bond_atom_site_label_2
_geom_bond_distance
_geom_bond_site_symmetry_2
Rb2 S1 3.311676 1_556
Rb5 S0 3.311676 1_555
O0 S4 1.526504 1_555
O0 Tm1 2.252011 1_555
O0 Rb2 3.068239 1_554
O1 Rb0 2.767717 1_556
O1 Rb1 2.785447 1_555
O1 Rb4 3.034436 1_555
O2 S3 1.526504 1_555
O2 Tm0 2.252011 1_555
O2 Rb5 3.068239 1_555
O3 S3 1.470525 1_554
O3 Rb1 2.903216 1_554
O3 Rb0 2.943866 1_455
O3 Rb3 3.019812 1_455
O4 S2 1.465014 1_555
O4 Rb3 2.956149 1_555
O4 Rb2 2.998715 1_555
O5 S4 1.470525 1_555
O5 Rb3 2.903216 1_555
O5 Rb4 2.943866 1_545
O5 Rb1 3.019812 1_545
O6 S1 1.533917 1_555
O6 Tm0 2.241737 1_554
O7 S1 1.494681 1_565
O7 Rb1 2.826450 1_554
O7 Rb5 2.836010 1_555
O7 Rb2 3.434567 1_564
O8 S2 1.513546 1_555
O8 Tm1 2.330431 1_555
O8 Rb1 2.794055 1_545
O9 S5 1.504762 1_556
O9 Tm0 2.533390 1_555
O9 Rb4 3.050900 1_555
O9 Rb1 3.524614 1_555
O10 S4 1.511873 1_555
O10 Tm0 2.318886 1_654
O10 Rb3 3.152080 1_555
O10 Rb2 3.165726 1_554
O11 S5 1.513546 1_555
O11 Tm0 2.330431 1_554
O11 Rb3 2.794055 1_455
O12 S0 1.533404 1_555
O12 Tm0 2.311835 1_555
O12 Rb0 3.185208 1_446
O13 S3 1.473982 1_655
O13 Rb2 2.845436 1_555
O13 Rb4 2.930410 1_555
O14 S5 1.465014 1_555
O14 Rb1 2.956149 1_554
O14 Rb5 2.998715 1_555
O15 S4 1.473982 1_565
O15 Rb5 2.845436 1_555
O15 Rb0 2.930410 1_555
O16 S2 1.504762 1_555
O16 Tm1 2.533390 1_555
O16 Rb0 3.050900 1_555
O16 Rb3 3.524614 1_555
O17 S3 1.511873 1_555
O17 Tm1 2.318886 1_565
O17 Rb1 3.152080 1_555
O17 Rb5 3.165726 1_555
O18 S0 1.533917 1_555
O18 Tm1 2.241737 1_555
O19 S5 1.498404 1_555
O19 Tm1 2.280081 1_555
O19 Rb2 3.356244 1_554
O20 S1 1.533404 1_555
O20 Tm1 2.311835 1_555
O20 Rb4 3.185208 1_445
O21 S2 1.498404 1_555
O21 Tm0 2.280081 1_555
O21 Rb5 3.356244 1_555
O22 S0 1.494681 1_655
O22 Rb3 2.826450 1_555
O22 Rb2 2.836010 1_555
O22 Rb5 3.434567 1_655
O23 Rb4 2.767717 1_555
O23 Rb3 2.785447 1_555
O23 Rb0 3.034436 1_555
