# generated using pymatgen
data_Gd(Co2B)6
_symmetry_space_group_name_H-M   'P 1'
_cell_length_a   5.93003670
_cell_length_b   5.93003670
_cell_length_c   5.93003666
_cell_angle_alpha   104.10935315
_cell_angle_beta   104.10935315
_cell_angle_gamma   104.10935920
_symmetry_Int_Tables_number   1
_chemical_formula_structural   Gd(Co2B)6
_chemical_formula_sum   'Gd1 Co12 B6'
_cell_volume   185.66948193
_cell_formula_units_Z   1
loop_
 _symmetry_equiv_pos_site_id
 _symmetry_equiv_pos_as_xyz
  1  'x, y, z'
loop_
 _atom_site_type_symbol
 _atom_site_label
 _atom_site_symmetry_multiplicity
 _atom_site_fract_x
 _atom_site_fract_y
 _atom_site_fract_z
 _atom_site_occupancy
  Gd  Gd0  1  0.00000000  0.00000000  0.00000000  1
  Co  Co0  1  0.50000000  0.86698855  0.13301145  1
  Co  Co1  1  0.86698855  0.50000000  0.13301145  1
  Co  Co2  1  0.50000000  0.13301145  0.86698855  1
  Co  Co3  1  0.45784544  0.18570020  0.45784544  1
  Co  Co4  1  0.81429980  0.54215456  0.54215456  1
  Co  Co5  1  0.18570020  0.45784544  0.45784544  1
  Co  Co6  1  0.54215456  0.54215456  0.81429980  1
  Co  Co7  1  0.13301145  0.86698855  0.50000000  1
  Co  Co8  1  0.86698855  0.13301145  0.50000000  1
  Co  Co9  1  0.54215456  0.81429980  0.54215456  1
  Co  Co10  1  0.13301145  0.50000000  0.86698855  1
  Co  Co11  1  0.45784544  0.45784544  0.18570020  1
  B  B0  1  0.67699882  0.23059730  0.23059730  1
  B  B1  1  0.23059730  0.23059730  0.67699882  1
  B  B2  1  0.23059730  0.67699882  0.23059730  1
  B  B3  1  0.76940270  0.76940270  0.32300118  1
  B  B4  1  0.76940270  0.32300118  0.76940270  1
  B  B5  1  0.32300118  0.76940270  0.76940270  1
loop_
_geom_bond_atom_site_label_1
_geom_bond_atom_site_label_2
_geom_bond_distance
_geom_bond_site_symmetry_2
Co0 Gd0 3.215424 1_665
Co0 Gd0 3.215424 1_565
Co1 Gd0 3.215424 1_665
Co1 Gd0 3.215424 1_655
Co2 Gd0 3.215424 1_556
Co2 Gd0 3.215424 1_656
Co3 Gd0 3.073478 1_555
Co4 Gd0 3.073478 1_666
Co5 Gd0 3.073478 1_555
Co6 Gd0 3.073478 1_666
Co7 Gd0 3.215424 1_566
Co7 Gd0 3.215424 1_565
Co8 Gd0 3.215424 1_656
Co8 Gd0 3.215424 1_655
Co9 Gd0 3.073478 1_666
Co10 Gd0 3.215424 1_556
Co10 Gd0 3.215424 1_566
Co11 Gd0 3.073478 1_555
B0 Co1 2.011841 1_555
B0 Co8 2.011841 1_555
B0 Co0 2.019387 1_545
B0 Co2 2.019388 1_554
B0 Co4 2.087765 1_555
B0 Co3 2.106155 1_555
B0 Co11 2.106155 1_555
B0 Gd0 3.008480 1_655
B1 Co2 2.011841 1_555
B1 Co10 2.011841 1_555
B1 Co7 2.019388 1_545
B1 Co8 2.019388 1_455
B1 Co6 2.087765 1_555
B1 Co5 2.106155 1_555
B1 Co3 2.106155 1_555
B1 Gd0 3.008480 1_556
B2 Co0 2.011841 1_555
B2 Co7 2.011841 1_555
B2 Co1 2.019387 1_455
B2 Co10 2.019388 1_554
B2 Co9 2.087765 1_555
B2 Co5 2.106155 1_555
B2 Co11 2.106155 1_555
B2 Gd0 3.008480 1_565
B3 Co1 2.011841 1_555
B3 Co0 2.011841 1_555
B3 Co7 2.019388 1_655
B3 Co8 2.019388 1_565
B3 Co11 2.087765 1_555
B3 Co9 2.106155 1_555
B3 Co4 2.106155 1_555
B3 Gd0 3.008480 1_665
B4 Co2 2.011841 1_555
B4 Co8 2.011841 1_555
B4 Co10 2.019387 1_655
B4 Co1 2.019388 1_556
B4 Co3 2.087765 1_555
B4 Co4 2.106155 1_555
B4 Co6 2.106155 1_555
B4 Gd0 3.008480 1_656
B5 Co10 2.011841 1_555
B5 Co7 2.011841 1_555
B5 Co2 2.019387 1_565
B5 Co0 2.019388 1_556
B5 Co5 2.087765 1_555
B5 Co9 2.106155 1_555
B5 Co6 2.106155 1_555
B5 Gd0 3.008480 1_566
