# generated using pymatgen
data_ZrW2
_symmetry_space_group_name_H-M   'P 1'
_cell_length_a   5.40125862
_cell_length_b   5.40125907
_cell_length_c   5.40126043
_cell_angle_alpha   60.00000425
_cell_angle_beta   60.00000145
_cell_angle_gamma   60.00000006
_symmetry_Int_Tables_number   1
_chemical_formula_structural   ZrW2
_chemical_formula_sum   'Zr2 W4'
_cell_volume   111.42178720
_cell_formula_units_Z   2
loop_
 _symmetry_equiv_pos_site_id
 _symmetry_equiv_pos_as_xyz
  1  'x, y, z'
loop_
 _atom_site_type_symbol
 _atom_site_label
 _atom_site_symmetry_multiplicity
 _atom_site_fract_x
 _atom_site_fract_y
 _atom_site_fract_z
 _atom_site_occupancy
  Zr  Zr0  1  0.87500000  0.87500000  0.87500000  1
  Zr  Zr1  1  0.12500000  0.12500000  0.12500000  1
  W  W0  1  0.50000000  0.50000000  0.50000000  1
  W  W1  1  0.50000000  0.50000000  0.00000000  1
  W  W2  1  -0.00000000  0.50000000  0.50000000  1
  W  W3  1  0.50000000  -0.00000000  0.50000000  1
loop_
_geom_bond_atom_site_label_1
_geom_bond_atom_site_label_2
_geom_bond_distance
_geom_bond_site_symmetry_2
W0 W2 2.700629 1_555
W0 W2 2.700629 1_655
W0 W3 2.700630 1_555
W0 W3 2.700630 1_565
W0 W1 2.700630 1_556
W0 W1 2.700630 1_555
W0 Zr1 3.166769 1_655
W0 Zr0 3.166769 1_455
W0 Zr0 3.166769 1_545
W0 Zr1 3.166769 1_565
W0 Zr1 3.166769 1_556
W0 Zr0 3.166769 1_554
W1 W2 2.700630 1_555
W1 W2 2.700630 1_654
W1 W3 2.700630 1_564
W1 W3 2.700630 1_555
W1 Zr0 3.166769 1_554
W1 Zr1 3.166769 1_555
W1 Zr0 3.166769 1_454
W1 Zr1 3.166769 1_655
W1 Zr0 3.166769 1_544
W1 Zr1 3.166769 1_565
W2 W3 2.700629 1_465
W2 W3 2.700629 1_555
W2 Zr0 3.166769 1_445
W2 Zr1 3.166769 1_565
W2 Zr0 3.166769 1_455
W2 Zr1 3.166769 1_555
W2 Zr0 3.166770 1_454
W2 Zr1 3.166770 1_556
W3 Zr1 3.166769 1_655
W3 Zr0 3.166769 1_445
W3 Zr0 3.166769 1_545
W3 Zr1 3.166769 1_555
W3 Zr0 3.166770 1_544
W3 Zr1 3.166770 1_556
