# generated using pymatgen
data_Na2LiFe(Si2O5)3
_symmetry_space_group_name_H-M   'P 1'
_cell_length_a   11.31473041
_cell_length_b   11.31473041
_cell_length_c   10.22529000
_cell_angle_alpha   90.00000000
_cell_angle_beta   90.00000000
_cell_angle_gamma   101.77116549
_symmetry_Int_Tables_number   1
_chemical_formula_structural   Na2LiFe(Si2O5)3
_chemical_formula_sum   'Na8 Li4 Fe4 Si24 O60'
_cell_volume   1281.54398900
_cell_formula_units_Z   4
loop_
 _symmetry_equiv_pos_site_id
 _symmetry_equiv_pos_as_xyz
  1  'x, y, z'
loop_
 _atom_site_type_symbol
 _atom_site_label
 _atom_site_symmetry_multiplicity
 _atom_site_fract_x
 _atom_site_fract_y
 _atom_site_fract_z
 _atom_site_occupancy
  Na  Na0  1  0.91572700  0.08427300  0.74842100  1
  Na  Na1  1  0.58427300  0.41572700  0.24842100  1
  Na  Na2  1  0.08427300  0.91572700  0.25157900  1
  Na  Na3  1  0.41572700  0.58427300  0.75157900  1
  Na  Na4  1  0.97426100  0.52573900  0.75000000  1
  Na  Na5  1  0.52573900  0.97426100  0.25000000  1
  Na  Na6  1  0.02573900  0.47426100  0.25000000  1
  Na  Na7  1  0.47426100  0.02573900  0.75000000  1
  Li  Li0  1  0.74792800  0.74792800  0.00000000  1
  Li  Li1  1  0.24792800  0.24792800  0.50000000  1
  Li  Li2  1  0.25207200  0.25207200  0.00000000  1
  Li  Li3  1  0.75207200  0.75207200  0.50000000  1
  Fe  Fe0  1  0.16355100  0.33644900  0.75000000  1
  Fe  Fe1  1  0.33644900  0.16355100  0.25000000  1
  Fe  Fe2  1  0.83644900  0.66355100  0.25000000  1
  Fe  Fe3  1  0.66355100  0.83644900  0.75000000  1
  Si  Si0  1  0.01948100  0.75612200  0.98697900  1
  Si  Si1  1  0.68507000  0.54094800  0.80698400  1
  Si  Si2  1  0.95905200  0.81493000  0.69301600  1
  Si  Si3  1  0.54094800  0.68507000  0.19301600  1
  Si  Si4  1  0.18507000  0.04094800  0.69301600  1
  Si  Si5  1  0.31493000  0.45905200  0.19301600  1
  Si  Si6  1  0.04094800  0.18507000  0.30698400  1
  Si  Si7  1  0.45905200  0.31493000  0.80698400  1
  Si  Si8  1  0.75612200  0.01948100  0.01302100  1
  Si  Si9  1  0.74387800  0.48051900  0.51302100  1
  Si  Si10  1  0.81493000  0.95905200  0.30698400  1
  Si  Si11  1  0.48051900  0.74387800  0.48697900  1
  Si  Si12  1  0.24387800  0.98051900  0.98697900  1
  Si  Si13  1  0.25612200  0.51948100  0.48697900  1
  Si  Si14  1  0.42319200  0.80158600  0.95811600  1
  Si  Si15  1  0.51948100  0.25612200  0.51302100  1
  Si  Si16  1  0.57680800  0.19841400  0.04188400  1
  Si  Si17  1  0.92319200  0.30158600  0.54188400  1
  Si  Si18  1  0.19841400  0.57680800  0.95811600  1
  Si  Si19  1  0.30158600  0.92319200  0.45811600  1
  Si  Si20  1  0.69841400  0.07680800  0.54188400  1
  Si  Si21  1  0.80158600  0.42319200  0.04188400  1
  Si  Si22  1  0.07680800  0.69841400  0.45811600  1
  Si  Si23  1  0.98051900  0.24387800  0.01302100  1
  O  O0  1  0.35563600  0.90971200  0.00519500  1
  O  O1  1  0.44704100  0.55295900  0.19034300  1
  O  O2  1  0.94704100  0.05295900  0.30965700  1
  O  O3  1  0.55295900  0.44704100  0.80965700  1
  O  O4  1  0.32412000  0.67588000  0.92941300  1
  O  O5  1  0.82412000  0.17588000  0.57058700  1
  O  O6  1  0.67588000  0.32412000  0.07058700  1
  O  O7  1  0.17588000  0.82412000  0.42941300  1
  O  O8  1  0.11619400  0.88380600  0.01548900  1
  O  O9  1  0.38380600  0.61619400  0.51548900  1
  O  O10  1  0.88380600  0.11619400  0.98451100  1
  O  O11  1  0.61619400  0.38380600  0.48451100  1
  O  O12  1  0.00148200  0.66367200  0.32648200  1
  O  O13  1  0.49851800  0.83632800  0.82648200  1
  O  O14  1  0.66367200  0.00148200  0.67351800  1
  O  O15  1  0.83632800  0.49851800  0.17351800  1
  O  O16  1  0.99851800  0.33632800  0.67351800  1
  O  O17  1  0.50148200  0.16367200  0.17351800  1
  O  O18  1  0.33632800  0.99851800  0.32648200  1
  O  O19  1  0.16367200  0.50148200  0.82648200  1
  O  O20  1  0.00223900  0.27958200  0.41283700  1
  O  O21  1  0.49776100  0.22041800  0.91283700  1
  O  O22  1  0.27958200  0.00223900  0.58716300  1
  O  O23  1  0.22041800  0.49776100  0.08716300  1
  O  O24  1  0.02472900  0.25099400  0.16665100  1
  O  O25  1  0.50223900  0.77958200  0.08716300  1
  O  O26  1  0.72041800  0.99776100  0.41283700  1
  O  O27  1  0.77958200  0.50223900  0.91283700  1
  O  O28  1  0.67346500  0.66357500  0.16288900  1
  O  O29  1  0.82653500  0.83642500  0.66288900  1
  O  O30  1  0.66357500  0.67346500  0.83711100  1
  O  O31  1  0.83642500  0.82653500  0.33711100  1
  O  O32  1  0.32653500  0.33642500  0.83711100  1
  O  O33  1  0.17346500  0.16357500  0.33711100  1
  O  O34  1  0.33642500  0.32653500  0.16288900  1
  O  O35  1  0.16357500  0.17346500  0.66288900  1
  O  O36  1  0.09028800  0.64436400  0.00519500  1
  O  O37  1  0.40971200  0.85563600  0.50519500  1
  O  O38  1  0.64436400  0.09028800  0.99480500  1
  O  O39  1  0.85563600  0.40971200  0.49480500  1
  O  O40  1  0.90971200  0.35563600  0.99480500  1
  O  O41  1  0.59028800  0.14436400  0.49480500  1
  O  O42  1  0.05295900  0.94704100  0.69034300  1
  O  O43  1  0.14436400  0.59028800  0.50519500  1
  O  O44  1  0.24916900  0.40818000  0.58475900  1
  O  O45  1  0.25083100  0.09182000  0.08475900  1
  O  O46  1  0.40818000  0.24916900  0.41524100  1
  O  O47  1  0.09182000  0.25083100  0.91524100  1
  O  O48  1  0.75083100  0.59182000  0.41524100  1
  O  O49  1  0.74916900  0.90818000  0.91524100  1
  O  O50  1  0.59182000  0.75083100  0.58475900  1
  O  O51  1  0.90818000  0.74916900  0.08475900  1
  O  O52  1  0.75099400  0.52472900  0.66665100  1
  O  O53  1  0.74900600  0.97527100  0.16665100  1
  O  O54  1  0.52472900  0.75099400  0.33334900  1
  O  O55  1  0.97527100  0.74900600  0.83334900  1
  O  O56  1  0.24900600  0.47527100  0.33334900  1
  O  O57  1  0.25099400  0.02472900  0.83334900  1
  O  O58  1  0.47527100  0.24900600  0.66665100  1
  O  O59  1  0.99776100  0.72041800  0.58716300  1
loop_
_geom_bond_atom_site_label_1
_geom_bond_atom_site_label_2
_geom_bond_distance
_geom_bond_site_symmetry_2
Na0 O5 2.427681 1_555
Na0 O10 2.478295 1_555
Na0 O42 2.481614 1_645
Na1 O6 2.427681 1_555
Na1 O11 2.478295 1_555
Na1 O1 2.481614 1_555
Na2 O7 2.427681 1_555
Na2 O8 2.478295 1_555
Na2 O2 2.481614 1_465
Na3 O4 2.427681 1_555
Na3 O9 2.478295 1_555
Na3 O3 2.481614 1_555
Na4 O16 2.349457 1_555
Na4 O19 2.349457 1_655
Na4 O55 2.663912 1_555
Na4 O52 2.663912 1_555
Na4 O27 2.730605 1_555
Na4 O59 2.730605 1_555
Na5 O18 2.349457 1_555
Na5 O17 2.349457 1_565
Na5 O54 2.663912 1_555
Na5 O53 2.663912 1_555
Na5 O25 2.730605 1_555
Na5 O26 2.730605 1_555
Na6 O12 2.349457 1_555
Na6 O15 2.349457 1_455
Na6 O24 2.663912 1_555
Na6 O56 2.663912 1_555
Na6 O20 2.730605 1_555
Na6 O23 2.730605 1_555
Na7 O14 2.349457 1_555
Na7 O13 2.349457 1_545
Na7 O58 2.663912 1_555
Na7 O57 2.663912 1_555
Na7 O22 2.730605 1_555
Na7 O21 2.730605 1_555
Li0 O51 2.007156 1_555
Li0 O49 2.007156 1_554
Li0 O30 2.016651 1_554
Li0 O28 2.016651 1_555
Li1 O46 2.007156 1_555
Li1 O44 2.007156 1_555
Li1 O35 2.016651 1_555
Li1 O33 2.016651 1_555
Li2 O47 2.007156 1_554
Li2 O45 2.007156 1_555
Li2 O32 2.016651 1_554
Li2 O34 2.016651 1_555
Li3 O48 2.007156 1_555
Li3 O50 2.007156 1_555
Li3 O29 2.016651 1_555
Li3 O31 2.016651 1_555
Fe0 O16 2.024200 1_455
Fe0 O19 2.024200 1_555
Fe0 O44 2.032552 1_555
Fe0 O47 2.032552 1_555
Fe0 O35 2.048022 1_555
Fe0 O32 2.048022 1_555
Fe1 O18 2.024200 1_545
Fe1 O17 2.024200 1_555
Fe1 O45 2.032552 1_555
Fe1 O46 2.032552 1_555
Fe1 O33 2.048022 1_555
Fe1 O34 2.048022 1_555
Fe2 O15 2.024200 1_555
Fe2 O12 2.024200 1_655
Fe2 O51 2.032552 1_555
Fe2 O48 2.032552 1_555
Fe2 O31 2.048022 1_555
Fe2 O28 2.048022 1_555
Fe3 O13 2.024200 1_555
Fe3 O14 2.024200 1_565
Fe3 O49 2.032552 1_555
Fe3 O50 2.032552 1_555
Fe3 O29 2.048022 1_555
Fe3 O30 2.048022 1_555
O0 Si12 1.639783 1_554
O0 Si14 1.641436 1_554
O1 Si3 1.648067 1_555
O1 Si5 1.648067 1_555
O2 Si10 1.648067 1_545
O2 Si6 1.648067 1_655
O3 Si1 1.648067 1_555
O3 Si7 1.648067 1_555
O4 Si14 1.647792 1_555
O4 Si18 1.647792 1_555
O5 Si20 1.647792 1_555
O5 Si17 1.647792 1_555
O6 Si21 1.647792 1_555
O6 Si16 1.647792 1_555
O7 Si22 1.647792 1_555
O7 Si19 1.647792 1_555
O8 Si0 1.650636 1_554
O8 Si12 1.650636 1_554
O9 Si11 1.650636 1_555
O9 Si13 1.650636 1_555
O10 Si8 1.650636 1_556
O10 Si23 1.650636 1_556
O11 Si15 1.650636 1_555
O11 Si9 1.650636 1_555
O12 Si22 1.598730 1_555
O13 Si14 1.598730 1_555
O14 Si20 1.598730 1_555
O15 Si21 1.598730 1_555
O16 Si17 1.598730 1_555
O17 Si16 1.598730 1_555
O18 Si19 1.598730 1_555
O19 Si18 1.598730 1_555
O20 Si17 1.641334 1_455
O20 Si6 1.642570 1_555
O21 Si16 1.641334 1_556
O21 Si7 1.642570 1_555
O22 Si19 1.641334 1_545
O22 Si4 1.642570 1_555
O23 Si18 1.641334 1_554
O23 Si5 1.642570 1_555
O24 Si6 1.644683 1_555
O24 Si23 1.645611 1_455
O25 Si14 1.641334 1_554
O25 Si3 1.642570 1_555
O26 Si20 1.641334 1_565
O26 Si10 1.642570 1_555
O27 Si21 1.641334 1_556
O27 Si1 1.642570 1_555
O28 Si3 1.597191 1_555
O29 Si2 1.597191 1_555
O30 Si1 1.597191 1_555
O31 Si10 1.597191 1_555
O32 Si7 1.597191 1_555
O33 Si6 1.597191 1_555
O34 Si5 1.597191 1_555
O35 Si4 1.597191 1_555
O36 Si0 1.639783 1_554
O36 Si18 1.641436 1_554
O37 Si11 1.639783 1_555
O37 Si19 1.641436 1_555
O38 Si8 1.639783 1_556
O38 Si16 1.641436 1_556
O39 Si9 1.639783 1_555
O39 Si17 1.641436 1_555
O40 Si23 1.639783 1_556
O40 Si21 1.641436 1_556
O41 Si15 1.639783 1_555
O41 Si20 1.641436 1_555
O42 Si2 1.648067 1_455
O42 Si4 1.648067 1_565
O43 Si13 1.639783 1_555
O43 Si22 1.641436 1_555
O44 Si13 1.597299 1_555
O45 Si12 1.597299 1_544
O46 Si15 1.597299 1_555
O47 Si23 1.597299 1_456
O48 Si9 1.597299 1_555
O49 Si8 1.597299 1_566
O50 Si11 1.597299 1_555
O51 Si0 1.597299 1_654
O52 Si1 1.644683 1_555
O52 Si9 1.645611 1_555
O53 Si10 1.644683 1_555
O53 Si8 1.645611 1_565
O54 Si3 1.644683 1_555
O54 Si11 1.645611 1_555
O55 Si2 1.644683 1_555
O55 Si0 1.645611 1_655
O56 Si5 1.644683 1_555
O56 Si13 1.645611 1_555
O57 Si4 1.644683 1_555
O57 Si12 1.645611 1_545
O58 Si7 1.644683 1_555
O58 Si15 1.645611 1_555
O59 Si22 1.641334 1_655
O59 Si2 1.642570 1_555
