# generated using pymatgen
data_Cu3BiSe2IO8
_symmetry_space_group_name_H-M   'P 1'
_cell_length_a   6.46661500
_cell_length_b   7.44800900
_cell_length_c   9.82356800
_cell_angle_alpha   90.00000000
_cell_angle_beta   90.00000000
_cell_angle_gamma   90.00000000
_symmetry_Int_Tables_number   1
_chemical_formula_structural   Cu3BiSe2IO8
_chemical_formula_sum   'Cu6 Bi2 Se4 I2 O16'
_cell_volume   473.13650102
_cell_formula_units_Z   2
loop_
 _symmetry_equiv_pos_site_id
 _symmetry_equiv_pos_as_xyz
  1  'x, y, z'
loop_
 _atom_site_type_symbol
 _atom_site_label
 _atom_site_symmetry_multiplicity
 _atom_site_fract_x
 _atom_site_fract_y
 _atom_site_fract_z
 _atom_site_occupancy
  Cu  Cu0  1  0.00000000  0.20477900  0.00000000  1
  Cu  Cu1  1  0.50000000  0.79522100  0.50000000  1
  Cu  Cu2  1  0.25000000  0.00000000  0.25000000  1
  Cu  Cu3  1  0.75000000  0.00000000  0.75000000  1
  Cu  Cu4  1  0.75000000  0.00000000  0.25000000  1
  Cu  Cu5  1  0.25000000  0.00000000  0.75000000  1
  Bi  Bi0  1  0.00000000  0.75873500  0.00000000  1
  Bi  Bi1  1  0.50000000  0.24126500  0.50000000  1
  Se  Se0  1  0.50000000  0.61536600  0.19328000  1
  Se  Se1  1  0.00000000  0.38463400  0.30672000  1
  Se  Se2  1  0.50000000  0.61536600  0.80672000  1
  Se  Se3  1  0.00000000  0.38463400  0.69328000  1
  I  I0  1  0.00000000  0.82917200  0.50000000  1
  I  I1  1  0.50000000  0.17082800  0.00000000  1
  O  O0  1  0.78942200  0.24091800  0.66488700  1
  O  O1  1  0.71057800  0.75908200  0.16488700  1
  O  O2  1  0.00000000  0.00818700  0.13573000  1
  O  O3  1  0.50000000  0.99181300  0.63573000  1
  O  O4  1  0.50000000  0.59307300  0.63266900  1
  O  O5  1  0.28942200  0.75908200  0.83511300  1
  O  O6  1  0.21057800  0.24091800  0.66488700  1
  O  O7  1  0.00000000  0.40692700  0.13266900  1
  O  O8  1  0.28942200  0.75908200  0.16488700  1
  O  O9  1  0.21057800  0.24091800  0.33511300  1
  O  O10  1  0.50000000  0.59307300  0.36733100  1
  O  O11  1  0.50000000  0.99181300  0.36427000  1
  O  O12  1  0.71057800  0.75908200  0.83511300  1
  O  O13  1  0.00000000  0.00818700  0.86427000  1
  O  O14  1  0.78942200  0.24091800  0.33511300  1
  O  O15  1  0.00000000  0.40692700  0.86733100  1
loop_
_geom_bond_atom_site_label_1
_geom_bond_atom_site_label_2
_geom_bond_distance
_geom_bond_site_symmetry_2
Cu0 O2 1.980345 1_555
Cu0 O13 1.980345 1_554
Cu0 O7 1.991326 1_555
Cu0 O15 1.991326 1_554
Cu0 I1 3.243180 1_455
Cu0 I1 3.243180 1_555
Cu1 O11 1.980345 1_555
Cu1 O3 1.980345 1_555
Cu1 O10 1.991326 1_555
Cu1 O4 1.991326 1_555
Cu1 I0 3.243180 1_655
Cu1 I0 3.243180 1_555
Cu2 O11 1.969107 1_545
Cu2 O2 1.969107 1_555
Cu2 O8 1.995946 1_545
Cu2 O9 1.995946 1_555
Cu2 I1 3.203716 1_555
Cu2 I0 3.203716 1_545
Cu3 O13 1.969107 1_655
Cu3 O3 1.969107 1_545
Cu3 O12 1.995946 1_545
Cu3 O0 1.995946 1_555
Cu3 I1 3.203716 1_556
Cu3 I0 3.203716 1_645
Cu4 O11 1.969107 1_545
Cu4 O2 1.969107 1_655
Cu4 O1 1.995946 1_545
Cu4 O14 1.995946 1_555
Cu4 I1 3.203716 1_555
Cu4 I0 3.203716 1_645
Cu5 O3 1.969107 1_545
Cu5 O13 1.969107 1_555
Cu5 O5 1.995946 1_545
Cu5 O6 1.995946 1_555
Cu5 I1 3.203716 1_556
Cu5 I0 3.203716 1_545
Bi0 O2 2.286854 1_565
Bi0 O13 2.286854 1_564
Bi0 O1 2.475178 1_455
Bi0 O12 2.475178 1_454
Bi0 O8 2.475178 1_555
Bi0 O5 2.475178 1_554
Bi1 O11 2.286854 1_545
Bi1 O3 2.286854 1_545
Bi1 O14 2.475178 1_555
Bi1 O0 2.475178 1_555
Bi1 O6 2.475178 1_555
Bi1 O9 2.475178 1_555
O0 Se3 1.754380 1_655
O1 Se0 1.754380 1_555
O4 Se2 1.717845 1_555
O5 Se2 1.754380 1_555
O6 Se3 1.754380 1_555
O7 Se1 1.717845 1_555
O8 Se0 1.754380 1_555
O9 Se1 1.754380 1_555
O10 Se0 1.717845 1_555
O12 Se2 1.754380 1_555
O14 Se1 1.754380 1_655
O15 Se3 1.717845 1_555
