# generated using pymatgen
data_Ba2Ti(GeO4)2
_symmetry_space_group_name_H-M   'P 1'
_cell_length_a   8.84839800
_cell_length_b   8.84839800
_cell_length_c   5.48720300
_cell_angle_alpha   90.00000000
_cell_angle_beta   90.00000000
_cell_angle_gamma   90.00000000
_symmetry_Int_Tables_number   1
_chemical_formula_structural   Ba2Ti(GeO4)2
_chemical_formula_sum   'Ba4 Ti2 Ge4 O16'
_cell_volume   429.61587921
_cell_formula_units_Z   2
loop_
 _symmetry_equiv_pos_site_id
 _symmetry_equiv_pos_as_xyz
  1  'x, y, z'
loop_
 _atom_site_type_symbol
 _atom_site_label
 _atom_site_symmetry_multiplicity
 _atom_site_fract_x
 _atom_site_fract_y
 _atom_site_fract_z
 _atom_site_occupancy
  Ba  Ba0  1  0.82814500  0.32814500  0.01554400  1
  Ba  Ba1  1  0.32814500  0.17185500  0.01554400  1
  Ba  Ba2  1  0.17185500  0.67185500  0.01554400  1
  Ba  Ba3  1  0.67185500  0.82814500  0.01554400  1
  Ti  Ti0  1  0.00000000  0.00000000  0.45359400  1
  Ti  Ti1  1  0.50000000  0.50000000  0.45359400  1
  Ge  Ge0  1  0.63229900  0.13229900  0.49148800  1
  Ge  Ge1  1  0.13229900  0.36770100  0.49148800  1
  Ge  Ge2  1  0.36770100  0.86770100  0.49148800  1
  Ge  Ge3  1  0.86770100  0.63229900  0.49148800  1
  O  O0  1  0.00000000  0.00000000  0.76363800  1
  O  O1  1  0.50000000  0.50000000  0.76363800  1
  O  O2  1  0.87190600  0.62809400  0.80627700  1
  O  O3  1  0.12809400  0.37190600  0.80627700  1
  O  O4  1  0.08085300  0.19851200  0.34133400  1
  O  O5  1  0.69851200  0.58085300  0.34133400  1
  O  O6  1  0.30148800  0.41914700  0.34133400  1
  O  O7  1  0.50000000  0.00000000  0.35403400  1
  O  O8  1  0.80148800  0.08085300  0.34133400  1
  O  O9  1  0.19851200  0.91914700  0.34133400  1
  O  O10  1  0.58085300  0.30148800  0.34133400  1
  O  O11  1  0.41914700  0.69851200  0.34133400  1
  O  O12  1  0.91914700  0.80148800  0.34133400  1
  O  O13  1  0.00000000  0.50000000  0.35403400  1
  O  O14  1  0.62809400  0.12809400  0.80627700  1
  O  O15  1  0.37190600  0.87190600  0.80627700  1
loop_
_geom_bond_atom_site_label_1
_geom_bond_atom_site_label_2
_geom_bond_distance
_geom_bond_site_symmetry_2
Ba0 O14 2.754142 1_554
Ba0 O8 2.835378 1_555
Ba0 O10 2.835378 1_555
Ba0 O13 2.841566 1_655
Ba0 O3 2.917633 1_654
Ba0 O2 2.917633 1_554
Ba0 O5 3.084066 1_555
Ba0 O4 3.084066 1_655
Ba1 O3 2.754142 1_554
Ba1 O4 2.835378 1_555
Ba1 O6 2.835378 1_555
Ba1 O7 2.841566 1_555
Ba1 O15 2.917633 1_544
Ba1 O14 2.917633 1_554
Ba1 O9 3.084066 1_545
Ba1 O10 3.084066 1_555
Ba2 O15 2.754142 1_554
Ba2 O9 2.835378 1_555
Ba2 O11 2.835378 1_555
Ba2 O13 2.841566 1_555
Ba2 O2 2.917633 1_454
Ba2 O3 2.917633 1_554
Ba2 O12 3.084066 1_455
Ba2 O6 3.084066 1_555
Ba3 O2 2.754142 1_554
Ba3 O12 2.835378 1_555
Ba3 O5 2.835378 1_555
Ba3 O7 2.841566 1_565
Ba3 O14 2.917633 1_564
Ba3 O15 2.917633 1_554
Ba3 O11 3.084066 1_555
Ba3 O8 3.084066 1_565
Ge0 O14 1.728112 1_555
Ge0 O10 1.768400 1_555
Ge0 O8 1.768400 1_555
Ge0 O7 1.819243 1_555
Ge1 O3 1.728112 1_555
Ge1 O4 1.768400 1_555
Ge1 O6 1.768400 1_555
Ge1 O13 1.819243 1_555
Ge2 O15 1.728112 1_555
Ge2 O9 1.768400 1_555
Ge2 O11 1.768400 1_555
Ge2 O7 1.819243 1_565
Ge3 O2 1.728112 1_555
Ge3 O5 1.768400 1_555
Ge3 O12 1.768400 1_555
Ge3 O13 1.819243 1_655
O0 Ti0 1.701274 1_555
O1 Ti1 1.701274 1_555
O4 Ti0 1.994144 1_555
O5 Ti1 1.994144 1_555
O6 Ti1 1.994144 1_555
O8 Ti0 1.994144 1_655
O9 Ti0 1.994144 1_565
O10 Ti1 1.994144 1_555
O11 Ti1 1.994144 1_555
O12 Ti0 1.994144 1_665
