# generated using pymatgen
data_Na11Zr8Si7P5O48
_symmetry_space_group_name_H-M   'P 1'
_cell_length_a   9.14653020
_cell_length_b   9.16047104
_cell_length_c   18.58518613
_cell_angle_alpha   60.91382880
_cell_angle_beta   60.74268026
_cell_angle_gamma   60.23518394
_symmetry_Int_Tables_number   1
_chemical_formula_structural   Na11Zr8Si7P5O48
_chemical_formula_sum   'Na11 Zr8 Si7 P5 O48'
_cell_volume   1116.69336076
_cell_formula_units_Z   1
loop_
 _symmetry_equiv_pos_site_id
 _symmetry_equiv_pos_as_xyz
  1  'x, y, z'
loop_
 _atom_site_type_symbol
 _atom_site_label
 _atom_site_symmetry_multiplicity
 _atom_site_fract_x
 _atom_site_fract_y
 _atom_site_fract_z
 _atom_site_occupancy
  Na  Na0  1  0.24177000  0.09420100  0.15615900  1
  Na  Na1  1  0.51665200  0.00445300  0.26144600  1
  Na  Na2  1  0.61593100  0.40335200  0.11995500  1
  Na  Na3  1  0.24857600  0.08239000  0.65934200  1
  Na  Na4  1  0.38214200  0.61121500  0.37749600  1
  Na  Na5  1  0.51786500  0.00162000  0.75729600  1
  Na  Na6  1  0.92732200  0.72352100  0.07272000  1
  Na  Na7  1  0.59892500  0.40190500  0.62397800  1
  Na  Na8  1  0.37026600  0.61018300  0.88294700  1
  Na  Na9  1  0.00686500  0.48046100  0.48754900  1
  Na  Na10  1  0.91848500  0.75406000  0.58876200  1
  Zr  Zr0  1  0.14763800  0.64860200  0.28117400  1
  Zr  Zr1  1  0.65272000  0.14744300  0.02631900  1
  Zr  Zr2  1  0.14421500  0.64691400  0.78397200  1
  Zr  Zr3  1  0.34916900  0.85579400  0.46969600  1
  Zr  Zr4  1  0.64722200  0.15097300  0.52387100  1
  Zr  Zr5  1  0.84839300  0.34611500  0.22459200  1
  Zr  Zr6  1  0.34726600  0.85270200  0.97226100  1
  Zr  Zr7  1  0.85198300  0.35131000  0.72317900  1
  Si  Si0  1  0.25372600  0.46286000  0.12296800  1
  Si  Si1  1  0.04853500  0.95004400  0.37543200  1
  Si  Si2  1  0.45985400  0.25237000  0.36759800  1
  Si  Si3  1  0.53088500  0.75321900  0.13095900  1
  Si  Si4  1  0.25244100  0.46375700  0.62141700  1
  Si  Si5  1  0.05346300  0.95685000  0.87282600  1
  Si  Si6  1  0.53613800  0.74808100  0.62923400  1
  P  P0  1  0.95500400  0.03954200  0.12661000  1
  P  P1  1  0.74654800  0.53510100  0.38184200  1
  P  P2  1  0.46790400  0.24826000  0.86762100  1
  P  P3  1  0.95589000  0.04184900  0.62691900  1
  P  P4  1  0.74332500  0.53995300  0.87931200  1
  O  O0  1  0.11130800  0.00168900  0.04407100  1
  O  O1  1  0.00506400  0.11355100  0.28876000  1
  O  O2  1  0.07105100  0.42987400  0.14931300  1
  O  O3  1  0.26883800  0.63073800  0.03016400  1
  O  O4  1  0.11043600  0.00355900  0.54461300  1
  O  O5  1  0.42390600  0.27890300  0.11335000  1
  O  O6  1  0.25364200  0.51551900  0.19519600  1
  O  O7  1  0.06239400  0.76104200  0.37856200  1
  O  O8  1  0.00955600  0.12323800  0.78665900  1
  O  O9  1  0.27432400  0.42365000  0.36751200  1
  O  O10  1  0.43442100  0.07052600  0.38929500  1
  O  O11  1  0.06990100  0.43247700  0.64292400  1
  O  O12  1  0.48229900  0.76266200  0.05431700  1
  O  O13  1  0.77630600  0.06849500  0.12182100  1
  O  O14  1  0.35716700  0.74787400  0.22031400  1
  O  O15  1  0.61692300  0.28990700  0.27392200  1
  O  O16  1  0.24132600  0.92331700  0.37445200  1
  O  O17  1  0.51567900  0.24009000  0.44347400  1
  O  O18  1  0.26774700  0.62908700  0.52954400  1
  O  O19  1  0.56411900  0.93618700  0.10532800  1
  O  O20  1  0.71282800  0.58490400  0.14185600  1
  O  O21  1  0.42079500  0.27570400  0.61771600  1
  O  O22  1  0.94136400  0.21020700  0.13139400  1
  O  O23  1  0.23916600  0.51985000  0.69596500  1
  O  O24  1  0.75894300  0.47749800  0.31259100  1
  O  O25  1  0.07446000  0.77015500  0.87107200  1
  O  O26  1  0.58372100  0.70893600  0.38381800  1
  O  O27  1  0.29818400  0.41340800  0.86094100  1
  O  O28  1  0.43943200  0.07863800  0.88852700  1
  O  O29  1  0.71345100  0.38858400  0.47248500  1
  O  O30  1  0.48437500  0.75778200  0.55404400  1
  O  O31  1  0.77711600  0.06217000  0.62612400  1
  O  O32  1  0.36787200  0.73169100  0.72045700  1
  O  O33  1  0.62072500  0.27590700  0.77877100  1
  O  O34  1  0.24439200  0.93278000  0.87280200  1
  O  O35  1  0.51932700  0.23759800  0.93909400  1
  O  O36  1  0.91667900  0.56373700  0.36084500  1
  O  O37  1  0.56859100  0.92882600  0.60820400  1
  O  O38  1  0.72353200  0.57918600  0.63461200  1
  O  O39  1  0.98844400  0.87948400  0.20753200  1
  O  O40  1  0.93958900  0.22031600  0.62700900  1
  O  O41  1  0.74746700  0.48759600  0.80929500  1
  O  O42  1  0.58262400  0.71544100  0.88276000  1
  O  O43  1  0.88707900  0.99743000  0.46315900  1
  O  O44  1  0.71038300  0.39178000  0.96788600  1
  O  O45  1  0.91711900  0.56653500  0.85273400  1
  O  O46  1  0.99575900  0.88850200  0.70853900  1
  O  O47  1  0.88905800  0.99787100  0.96072500  1
loop_
_geom_bond_atom_site_label_1
_geom_bond_atom_site_label_2
_geom_bond_distance
_geom_bond_site_symmetry_2
Na0 O1 2.370761 1_555
Na0 O19 2.459708 1_545
Na0 O5 2.542682 1_555
Na0 O22 2.598528 1_455
Na0 O14 2.613097 1_545
Na0 O2 2.637447 1_555
Na1 O10 2.403595 1_555
Na1 O16 2.544806 1_545
Na1 O13 2.568570 1_555
Na1 O26 2.570230 1_545
Na1 O5 2.837766 1_555
Na2 O20 2.488232 1_555
Na2 O15 2.528456 1_555
Na2 O44 2.561040 1_554
Na2 O5 2.595058 1_555
Na2 O13 2.653474 1_555
Na2 O22 2.656977 1_555
Na2 O12 2.715689 1_555
Na2 O6 2.734730 1_555
Na3 O8 2.347470 1_555
Na3 O37 2.437642 1_545
Na3 O21 2.542076 1_555
Na3 O32 2.642846 1_545
Na3 O40 2.705758 1_455
Na3 O11 2.716771 1_555
Na4 O16 2.468567 1_555
Na4 O9 2.475939 1_555
Na4 O26 2.483400 1_555
Na4 O7 2.534113 1_555
Na4 O18 2.548838 1_555
Na4 O14 2.639300 1_555
Na4 O17 2.800237 1_555
Na4 O24 2.831032 1_555
Na5 O31 2.492857 1_555
Na5 O34 2.502799 1_545
Na5 O28 2.533988 1_555
Na5 O42 2.554517 1_545
Na5 O21 2.743563 1_555
Na5 O37 2.927532 1_545
Na6 O47 2.350284 1_554
Na6 O20 2.352757 1_555
Na6 O2 2.363389 1_655
Na6 O3 2.589980 1_655
Na6 O19 2.820058 1_555
Na7 O21 2.488137 1_555
Na7 O38 2.518979 1_555
Na7 O29 2.522625 1_555
Na7 O33 2.598484 1_555
Na7 O30 2.689777 1_555
Na7 O31 2.692587 1_555
Na7 O23 2.712430 1_555
Na7 O40 2.722729 1_555
Na8 O25 2.418478 1_555
Na8 O27 2.451822 1_555
Na8 O3 2.495691 1_556
Na8 O34 2.527117 1_555
Na8 O42 2.559695 1_555
Na8 O32 2.670504 1_555
Na8 O35 2.811479 1_555
Na8 O41 2.840669 1_555
Na9 O9 2.400517 1_555
Na9 O7 2.489148 1_555
Na9 O36 2.516929 1_455
Na9 O40 2.582105 1_455
Na9 O38 2.856028 1_455
Na9 O11 3.000999 1_555
Na10 O43 2.337035 1_555
Na10 O11 2.457278 1_655
Na10 O38 2.548654 1_555
Na10 O18 2.623775 1_655
Na10 O37 2.698267 1_555
Na10 O31 2.743088 1_565
O0 P0 1.548733 1_455
O0 Zr6 2.081487 1_544
O1 Si1 1.638671 1_545
O1 Zr5 2.045354 1_455
O2 Si0 1.637234 1_555
O2 Zr5 2.101512 1_455
O3 Si0 1.660758 1_555
O3 Zr6 2.091216 1_554
O4 P3 1.541716 1_455
O4 Zr3 2.113010 1_545
O5 Si0 1.646528 1_555
O5 Zr1 2.128153 1_555
O6 Si0 1.631821 1_555
O6 Zr0 2.045877 1_555
O7 Si1 1.645721 1_555
O7 Zr0 2.140232 1_555
O8 Si5 1.642179 1_545
O8 Zr7 2.027298 1_455
O9 Si2 1.642581 1_555
O9 Zr0 2.096575 1_555
O10 Si2 1.622193 1_555
O10 Zr3 2.058252 1_545
O11 Si4 1.655533 1_555
O11 Zr7 2.058552 1_455
O12 Si3 1.641545 1_555
O12 Zr6 2.034239 1_554
O13 P0 1.561595 1_555
O13 Zr1 2.202859 1_555
O14 Si3 1.644348 1_555
O14 Zr0 2.095390 1_555
O15 Si2 1.636104 1_555
O15 Zr5 2.077034 1_555
O16 Si1 1.647431 1_555
O16 Zr3 2.127276 1_555
O17 Si2 1.659670 1_555
O17 Zr4 1.985632 1_555
O18 Si4 1.640560 1_555
O18 Zr3 2.141203 1_555
O19 Si3 1.648213 1_555
O19 Zr1 2.046729 1_565
O20 Si3 1.632769 1_555
O20 Zr5 2.141773 1_555
O21 Si4 1.649648 1_555
O21 Zr4 2.166550 1_555
O22 P0 1.548628 1_555
O22 Zr5 2.208844 1_555
O23 Si4 1.632216 1_555
O23 Zr2 2.059892 1_555
O24 P1 1.551140 1_555
O24 Zr5 2.102566 1_555
O25 Si5 1.638522 1_555
O25 Zr2 2.086648 1_555
O26 P1 1.550431 1_555
O26 Zr3 2.198811 1_555
O27 P2 1.545287 1_555
O27 Zr2 2.146686 1_555
O28 P2 1.532652 1_555
O28 Zr6 2.175899 1_545
O29 P1 1.561290 1_555
O29 Zr4 2.177005 1_555
O30 Si6 1.633716 1_555
O30 Zr3 2.053535 1_555
O31 P3 1.557995 1_555
O31 Zr4 2.330039 1_555
O32 Si6 1.642264 1_555
O32 Zr2 2.122983 1_555
O33 P2 1.559953 1_555
O33 Zr7 2.153906 1_555
O34 Si5 1.647827 1_555
O34 Zr6 2.129966 1_555
O35 P2 1.560190 1_555
O35 Zr1 2.104708 1_556
O36 P1 1.534527 1_555
O36 Zr0 2.171018 1_655
O37 Si6 1.651558 1_555
O37 Zr4 2.089315 1_565
O38 Si6 1.650953 1_555
O38 Zr7 2.135844 1_555
O39 P0 1.538064 1_565
O39 Zr0 2.131306 1_655
O40 P3 1.566952 1_555
O40 Zr7 2.237679 1_555
O41 P4 1.570145 1_555
O41 Zr7 2.072726 1_555
O42 P4 1.552690 1_555
O42 Zr6 2.197245 1_555
O43 Si1 1.650958 1_655
O43 Zr4 2.030787 1_565
O44 P4 1.546561 1_555
O44 Zr1 2.171690 1_556
O45 P4 1.526443 1_555
O45 Zr2 2.121045 1_655
O46 P3 1.538721 1_565
O46 Zr2 2.137164 1_655
O47 Si5 1.644918 1_655
O47 Zr1 2.035598 1_566
