# generated using pymatgen
data_KYb3F10
_symmetry_space_group_name_H-M   'P 1'
_cell_length_a   8.21132607
_cell_length_b   8.21132607
_cell_length_c   13.47746900
_cell_angle_alpha   90.00000000
_cell_angle_beta   90.00000000
_cell_angle_gamma   120.00000059
_symmetry_Int_Tables_number   1
_chemical_formula_structural   KYb3F10
_chemical_formula_sum   'K4 Yb12 F40'
_cell_volume   786.98339220
_cell_formula_units_Z   4
loop_
 _symmetry_equiv_pos_site_id
 _symmetry_equiv_pos_as_xyz
  1  'x, y, z'
loop_
 _atom_site_type_symbol
 _atom_site_label
 _atom_site_symmetry_multiplicity
 _atom_site_fract_x
 _atom_site_fract_y
 _atom_site_fract_z
 _atom_site_occupancy
  K  K0  1  0.00000000  0.00000000  0.98973400  1
  K  K1  1  0.66666700  0.33333300  0.24454400  1
  K  K2  1  0.33333300  0.66666700  0.74454400  1
  K  K3  1  0.00000000  0.00000000  0.48973400  1
  Yb  Yb0  1  0.81845400  0.63690900  0.75377000  1
  Yb  Yb1  1  0.03266700  0.51633400  0.48071100  1
  Yb  Yb2  1  0.36309100  0.18154600  0.75377000  1
  Yb  Yb3  1  0.51633400  0.03266700  0.98071100  1
  Yb  Yb4  1  0.48366600  0.96733300  0.48071100  1
  Yb  Yb5  1  0.48366600  0.51633400  0.48071100  1
  Yb  Yb6  1  0.96733300  0.48366600  0.98071100  1
  Yb  Yb7  1  0.63690900  0.81845400  0.25377000  1
  Yb  Yb8  1  0.81845400  0.18154600  0.75377000  1
  Yb  Yb9  1  0.18154600  0.81845400  0.25377000  1
  Yb  Yb10  1  0.51633400  0.48366600  0.98071100  1
  Yb  Yb11  1  0.18154600  0.36309100  0.25377000  1
  F  F0  1  0.11344200  0.22688400  0.78369600  1
  F  F1  1  0.22688400  0.11344200  0.28369600  1
  F  F2  1  0.49158000  0.50842000  0.30887700  1
  F  F3  1  0.33333300  0.66666700  0.20075500  1
  F  F4  1  0.78741400  0.21258600  0.46065300  1
  F  F5  1  0.21258600  0.42517200  0.96065300  1
  F  F6  1  0.81269100  0.18730900  0.92096300  1
  F  F7  1  0.62538100  0.81269100  0.42096300  1
  F  F8  1  0.88655800  0.11344200  0.28369600  1
  F  F9  1  0.01684000  0.50842000  0.30887700  1
  F  F10  1  0.50842000  0.01684000  0.80887700  1
  F  F11  1  0.01045100  0.31917300  0.10907200  1
  F  F12  1  0.69127800  0.68082700  0.60907200  1
  F  F13  1  0.98954900  0.68082700  0.60907200  1
  F  F14  1  0.21258600  0.78741400  0.96065300  1
  F  F15  1  0.31917300  0.01045100  0.60907200  1
  F  F16  1  0.30872200  0.98954900  0.10907200  1
  F  F17  1  0.77311600  0.88655800  0.78369600  1
  F  F18  1  0.81269100  0.62538100  0.92096300  1
  F  F19  1  0.66666700  0.33333300  0.70075500  1
  F  F20  1  0.37461900  0.18730900  0.92096300  1
  F  F21  1  0.78741400  0.57482800  0.46065300  1
  F  F22  1  0.30872200  0.31917300  0.10907200  1
  F  F23  1  0.66666700  0.33333300  0.04773300  1
  F  F24  1  0.18730900  0.37461900  0.42096300  1
  F  F25  1  0.98316000  0.49158000  0.80887700  1
  F  F26  1  0.88655800  0.77311600  0.28369600  1
  F  F27  1  0.31917300  0.30872200  0.60907200  1
  F  F28  1  0.49158000  0.98316000  0.30887700  1
  F  F29  1  0.33333300  0.66666700  0.54773300  1
  F  F30  1  0.42517200  0.21258600  0.46065300  1
  F  F31  1  0.69127800  0.01045100  0.60907200  1
  F  F32  1  0.68082700  0.69127800  0.10907200  1
  F  F33  1  0.50842000  0.49158000  0.80887700  1
  F  F34  1  0.68082700  0.98954900  0.10907200  1
  F  F35  1  0.18730900  0.81269100  0.42096300  1
  F  F36  1  0.57482800  0.78741400  0.96065300  1
  F  F37  1  0.98954900  0.30872200  0.60907200  1
  F  F38  1  0.11344200  0.88655800  0.78369600  1
  F  F39  1  0.01045100  0.69127800  0.10907200  1
loop_
_geom_bond_atom_site_label_1
_geom_bond_atom_site_label_2
_geom_bond_distance
_geom_bond_site_symmetry_2
F0 Yb2 2.294935 1_555
F0 Yb8 2.294943 1_455
F0 K0 3.211563 1_555
F1 Yb11 2.294935 1_555
F1 Yb9 2.294943 1_545
F1 K3 3.211563 1_555
F2 Yb5 2.318621 1_555
F2 Yb7 2.327815 1_555
F2 Yb11 2.327815 1_555
F2 K1 2.636794 1_555
F3 Yb9 2.273951 1_555
F3 Yb11 2.273965 1_555
F3 Yb7 2.273965 1_555
F4 Yb4 2.307961 1_545
F4 Yb1 2.307961 1_655
F4 K3 3.048788 1_655
F5 Yb6 2.307956 1_455
F5 Yb10 2.307964 1_555
F5 K0 3.048788 1_555
F6 Yb8 2.254829 1_555
F6 Yb6 2.256686 1_555
F6 Yb3 2.256686 1_555
F6 K0 2.820622 1_655
F7 Yb7 2.254829 1_555
F7 Yb5 2.256686 1_555
F7 Yb4 2.256686 1_555
F7 K3 2.820629 1_665
F8 Yb7 2.294940 1_545
F8 Yb11 2.294940 1_655
F8 K3 3.211563 1_655
F9 Yb1 2.318621 1_555
F9 Yb9 2.327815 1_555
F9 Yb11 2.327822 1_555
F9 K1 2.636787 1_455
F10 Yb3 2.318621 1_555
F10 Yb8 2.327815 1_555
F10 Yb2 2.327822 1_555
F10 K2 2.636787 1_545
F11 Yb11 2.323861 1_555
F11 Yb6 2.328266 1_454
F11 K0 3.039423 1_554
F12 Yb0 2.323856 1_555
F12 Yb5 2.328270 1_555
F12 K3 3.039423 1_665
F13 Yb0 2.323861 1_555
F13 Yb1 2.328266 1_655
F13 K3 3.039423 1_665
F14 Yb6 2.307961 1_455
F14 Yb3 2.307961 1_565
F14 K0 3.048788 1_565
F15 Yb2 2.323861 1_555
F15 Yb4 2.328266 1_545
F15 K3 3.039423 1_555
F16 Yb9 2.323859 1_555
F16 Yb3 2.328271 1_564
F16 K0 3.039423 1_564
F17 Yb0 2.294935 1_555
F17 Yb8 2.294943 1_565
F17 K0 3.211563 1_665
F18 Yb0 2.254829 1_555
F18 Yb10 2.256686 1_555
F18 Yb6 2.256686 1_555
F18 K0 2.820629 1_665
F19 Yb8 2.273951 1_555
F19 Yb0 2.273965 1_555
F19 Yb2 2.273965 1_555
F20 Yb2 2.254829 1_555
F20 Yb10 2.256686 1_555
F20 Yb3 2.256686 1_555
F20 K0 2.820629 1_555
F21 Yb1 2.307956 1_655
F21 Yb5 2.307964 1_555
F21 K3 3.048788 1_665
F22 Yb11 2.323856 1_555
F22 Yb10 2.328270 1_554
F22 K0 3.039423 1_554
F23 Yb3 2.321078 1_554
F23 Yb6 2.321078 1_554
F23 Yb10 2.321078 1_554
F23 K1 2.652514 1_555
F24 Yb11 2.254829 1_555
F24 Yb5 2.256686 1_555
F24 Yb1 2.256686 1_555
F24 K3 2.820629 1_555
F25 Yb6 2.318621 1_555
F25 Yb8 2.327815 1_555
F25 Yb0 2.327822 1_555
F25 K2 2.636787 1_655
F26 Yb7 2.294935 1_555
F26 Yb9 2.294943 1_655
F26 K3 3.211563 1_665
F27 Yb2 2.323856 1_555
F27 Yb5 2.328270 1_555
F27 K3 3.039423 1_555
F28 Yb4 2.318621 1_555
F28 Yb9 2.327815 1_555
F28 Yb7 2.327822 1_555
F28 K1 2.636787 1_565
F29 Yb4 2.321078 1_555
F29 Yb1 2.321078 1_555
F29 Yb5 2.321078 1_555
F29 K2 2.652514 1_555
F30 Yb4 2.307956 1_545
F30 Yb5 2.307964 1_555
F30 K3 3.048788 1_555
F31 Yb8 2.323859 1_555
F31 Yb4 2.328271 1_545
F31 K3 3.039423 1_655
F32 Yb7 2.323856 1_555
F32 Yb10 2.328270 1_554
F32 K0 3.039423 1_664
F33 Yb10 2.318621 1_555
F33 Yb0 2.327815 1_555
F33 Yb2 2.327815 1_555
F33 K2 2.636794 1_555
F34 Yb7 2.323861 1_555
F34 Yb3 2.328266 1_564
F34 K0 3.039423 1_664
F35 Yb9 2.254829 1_555
F35 Yb4 2.256686 1_555
F35 Yb1 2.256686 1_555
F35 K3 2.820622 1_565
F36 Yb3 2.307956 1_565
F36 Yb10 2.307964 1_555
F36 K0 3.048788 1_665
F37 Yb8 2.323859 1_555
F37 Yb1 2.328271 1_655
F37 K3 3.039423 1_655
F38 Yb0 2.294940 1_455
F38 Yb2 2.294940 1_565
F38 K0 3.211563 1_565
F39 Yb9 2.323859 1_555
F39 Yb6 2.328271 1_454
F39 K0 3.039423 1_564
