# generated using pymatgen
data_ZrCrFe
_symmetry_space_group_name_H-M   'P 1'
_cell_length_a   4.14025304
_cell_length_b   4.14025304
_cell_length_c   4.14025304
_cell_angle_alpha   60.00000000
_cell_angle_beta   60.00000000
_cell_angle_gamma   60.00000000
_symmetry_Int_Tables_number   1
_chemical_formula_structural   ZrCrFe
_chemical_formula_sum   'Zr1 Cr1 Fe1'
_cell_volume   50.18404410
_cell_formula_units_Z   1
loop_
 _symmetry_equiv_pos_site_id
 _symmetry_equiv_pos_as_xyz
  1  'x, y, z'
loop_
 _atom_site_type_symbol
 _atom_site_label
 _atom_site_symmetry_multiplicity
 _atom_site_fract_x
 _atom_site_fract_y
 _atom_site_fract_z
 _atom_site_occupancy
  Zr  Zr0  1  0.50000000  0.50000000  0.50000000  1
  Cr  Cr0  1  0.75000000  0.75000000  0.75000000  1
  Fe  Fe0  1  0.00000000  0.00000000  0.00000000  1
loop_
_geom_bond_atom_site_label_1
_geom_bond_atom_site_label_2
_geom_bond_distance
_geom_bond_site_symmetry_2
Cr0 Fe0 2.535377 1_656
Cr0 Zr0 2.535377 1_565
Cr0 Zr0 2.535377 1_555
Cr0 Fe0 2.535377 1_665
Cr0 Zr0 2.535377 1_556
Cr0 Fe0 2.535377 1_666
Cr0 Zr0 2.535377 1_655
Cr0 Fe0 2.535377 1_566
Fe0 Zr0 2.927601 1_445
Fe0 Zr0 2.927601 1_545
Fe0 Zr0 2.927601 1_455
Fe0 Zr0 2.927601 1_554
Fe0 Zr0 2.927601 1_544
Fe0 Zr0 2.927601 1_454
