# generated using pymatgen
data_K2Ho4Cu4S9
_symmetry_space_group_name_H-M   'P 1'
_cell_length_a   3.92282900
_cell_length_b   7.11189308
_cell_length_c   15.08721864
_cell_angle_alpha   93.56528855
_cell_angle_beta   97.40332280
_cell_angle_gamma   105.83557019
_symmetry_Int_Tables_number   1
_chemical_formula_structural   K2Ho4Cu4S9
_chemical_formula_sum   'K2 Ho4 Cu4 S9'
_cell_volume   399.46851516
_cell_formula_units_Z   1
loop_
 _symmetry_equiv_pos_site_id
 _symmetry_equiv_pos_as_xyz
  1  'x, y, z'
loop_
 _atom_site_type_symbol
 _atom_site_label
 _atom_site_symmetry_multiplicity
 _atom_site_fract_x
 _atom_site_fract_y
 _atom_site_fract_z
 _atom_site_occupancy
  K  K0  1  0.73593600  0.70565400  0.76920500  1
  K  K1  1  0.25088200  0.28551100  0.22806400  1
  Ho  Ho0  1  0.60719600  0.25081600  0.94433700  1
  Ho  Ho1  1  0.62769800  0.85868400  0.39381400  1
  Ho  Ho2  1  0.39793100  0.74263900  0.05512100  1
  Ho  Ho3  1  0.37213400  0.13649800  0.60400700  1
  Cu  Cu0  1  0.98670200  0.73434600  0.23011200  1
  Cu  Cu1  1  0.11096500  0.68068800  0.54365900  1
  Cu  Cu2  1  0.01612000  0.26556800  0.76945700  1
  Cu  Cu3  1  0.88371800  0.31842100  0.45941900  1
  S  S0  1  0.56915500  0.92067200  0.22056400  1
  S  S1  1  0.43170100  0.07736600  0.77735000  1
  S  S2  1  0.01189000  0.40613800  0.62664500  1
  S  S3  1  0.98500700  0.59056300  0.37208400  1
  S  S4  1  0.79982400  0.50174800  0.10222500  1
  S  S5  1  0.71158900  0.84999300  0.57515500  1
  S  S6  1  0.00696100  0.99774300  0.99981100  1
  S  S7  1  0.20258800  0.49221600  0.89788500  1
  S  S8  1  0.28175200  0.14715500  0.42352200  1
loop_
_geom_bond_atom_site_label_1
_geom_bond_atom_site_label_2
_geom_bond_distance
_geom_bond_site_symmetry_2
K0 S5 3.160598 1_555
K0 S7 3.182886 1_555
K0 S1 3.185467 1_565
K0 S1 3.223107 1_665
K0 S7 3.223590 1_655
K0 S2 3.409405 1_655
K0 S2 3.432898 1_555
K1 S0 3.161587 1_445
K1 S8 3.164312 1_555
K1 S0 3.173638 1_545
K1 S4 3.175351 1_455
K1 S4 3.196260 1_555
K1 S3 3.427608 1_455
K1 S3 3.480358 1_555
Ho0 S1 2.654406 1_555
Ho0 S7 2.697560 1_655
Ho0 S7 2.703324 1_555
Ho0 S4 2.775176 1_556
Ho0 S6 2.790815 1_645
Ho0 S6 2.804718 1_545
Ho1 S0 2.668939 1_555
Ho1 S3 2.680554 1_455
Ho1 S3 2.684688 1_555
Ho1 S5 2.719843 1_555
Ho1 S8 2.776582 1_665
Ho1 S8 2.795246 1_565
Ho2 S0 2.644886 1_555
Ho2 S4 2.694874 1_555
Ho2 S4 2.707853 1_455
Ho2 S7 2.765490 1_554
Ho2 S6 2.777996 1_554
Ho2 S6 2.834134 1_654
Ho3 S1 2.665331 1_555
Ho3 S2 2.676476 1_655
Ho3 S2 2.704258 1_555
Ho3 S8 2.708838 1_555
Ho3 S5 2.763034 1_545
Ho3 S5 2.788034 1_445
Cu0 S0 2.335269 1_655
Cu0 S4 2.360793 1_555
Cu0 S0 2.367944 1_555
Cu0 S3 2.430240 1_555
Cu1 S5 2.297894 1_455
Cu1 S5 2.306304 1_555
Cu1 S2 2.355089 1_555
Cu1 S3 2.578168 1_455
Cu2 S1 2.340320 1_455
Cu2 S7 2.343175 1_555
Cu2 S1 2.371513 1_555
Cu2 S2 2.431030 1_555
Cu3 S8 2.317714 1_555
Cu3 S8 2.321370 1_655
Cu3 S3 2.381681 1_555
Cu3 S2 2.512674 1_655
