# generated using pymatgen
data_Li3Sn2P5O16
_symmetry_space_group_name_H-M   'P 1'
_cell_length_a   7.52372200
_cell_length_b   5.25970100
_cell_length_c   18.70528187
_cell_angle_alpha   84.53573444
_cell_angle_beta   90.00000000
_cell_angle_gamma   90.00000000
_symmetry_Int_Tables_number   1
_chemical_formula_structural   Li3Sn2P5O16
_chemical_formula_sum   'Li6 Sn4 P10 O32'
_cell_volume   736.85159361
_cell_formula_units_Z   2
loop_
 _symmetry_equiv_pos_site_id
 _symmetry_equiv_pos_as_xyz
  1  'x, y, z'
loop_
 _atom_site_type_symbol
 _atom_site_label
 _atom_site_symmetry_multiplicity
 _atom_site_fract_x
 _atom_site_fract_y
 _atom_site_fract_z
 _atom_site_occupancy
  Li  Li0  1  0.62885000  0.20525600  0.45923000  1
  Li  Li1  1  0.37115000  0.79474400  0.54077000  1
  Li  Li2  1  0.37115000  0.20525600  0.95923000  1
  Li  Li3  1  0.62885000  0.79474400  0.04077000  1
  Li  Li4  1  0.96597000  0.50000000  0.75000000  1
  Li  Li5  1  0.03403000  0.50000000  0.25000000  1
  Sn  Sn0  1  0.85460500  0.27024200  0.92124400  1
  Sn  Sn1  1  0.14539500  0.27024200  0.42124400  1
  Sn  Sn2  1  0.14539500  0.72975800  0.07875600  1
  Sn  Sn3  1  0.85460500  0.72975800  0.57875600  1
  P  P0  1  0.15581100  0.72347900  0.90601000  1
  P  P1  1  0.24872300  0.00000000  0.25000000  1
  P  P2  1  0.84418900  0.27652100  0.09399000  1
  P  P3  1  0.84418900  0.72347900  0.40601000  1
  P  P4  1  0.52445400  0.26797300  0.62435300  1
  P  P5  1  0.15581100  0.27652100  0.59399000  1
  P  P6  1  0.52445400  0.73202700  0.87564700  1
  P  P7  1  0.47554600  0.26797300  0.12435300  1
  P  P8  1  0.47554600  0.73202700  0.37564700  1
  P  P9  1  0.75127700  0.00000000  0.75000000  1
  O  O0  1  0.79510300  0.48357900  0.03307700  1
  O  O1  1  0.14740700  0.19063900  0.28921200  1
  O  O2  1  0.42687300  0.54699700  0.10770700  1
  O  O3  1  0.85472500  0.01196500  0.06732300  1
  O  O4  1  0.14527500  0.01196500  0.56732300  1
  O  O5  1  0.99618300  0.63973200  0.86215500  1
  O  O6  1  0.38482600  0.15831500  0.19780900  1
  O  O7  1  0.14740700  0.80936100  0.21078800  1
  O  O8  1  0.99618300  0.36026800  0.63784500  1
  O  O9  1  0.57312700  0.54699700  0.60770700  1
  O  O10  1  0.14527500  0.98803500  0.93267700  1
  O  O11  1  0.32174600  0.25901200  0.65177400  1
  O  O12  1  0.79510300  0.51642100  0.46692300  1
  O  O13  1  0.42687300  0.45300300  0.39229300  1
  O  O14  1  0.00381700  0.63973200  0.36215600  1
  O  O15  1  0.20489700  0.48357900  0.53307700  1
  O  O16  1  0.85259300  0.19063900  0.78921200  1
  O  O17  1  0.61517400  0.84168500  0.80219100  1
  O  O18  1  0.61517400  0.15831500  0.69780900  1
  O  O19  1  0.38482600  0.84168500  0.30219100  1
  O  O20  1  0.67825400  0.74098800  0.34822600  1
  O  O21  1  0.20489700  0.51642100  0.96692300  1
  O  O22  1  0.57312700  0.45300300  0.89229300  1
  O  O23  1  0.55693900  0.09610800  0.56554100  1
  O  O24  1  0.55693900  0.90389200  0.93445900  1
  O  O25  1  0.44306100  0.09610800  0.06554100  1
  O  O26  1  0.32174600  0.74098800  0.84822600  1
  O  O27  1  0.85259300  0.80936100  0.71078800  1
  O  O28  1  0.00381700  0.36026800  0.13784500  1
  O  O29  1  0.85472500  0.98803500  0.43267700  1
  O  O30  1  0.44306100  0.90389200  0.43445900  1
  O  O31  1  0.67825400  0.25901200  0.15177400  1
loop_
_geom_bond_atom_site_label_1
_geom_bond_atom_site_label_2
_geom_bond_distance
_geom_bond_site_symmetry_2
Li0 O12 2.075750 1_555
Li0 O23 2.087898 1_555
Li0 O29 2.132638 1_545
Li0 O30 2.195672 1_545
Li0 O13 2.294387 1_555
Li1 O15 2.075750 1_555
Li1 O30 2.087898 1_555
Li1 O4 2.132638 1_565
Li1 O23 2.195672 1_565
Li1 O9 2.294387 1_555
Li2 O21 2.075750 1_555
Li2 O25 2.087898 1_556
Li2 O10 2.132638 1_545
Li2 O24 2.195672 1_545
Li2 O22 2.294387 1_555
Li3 O0 2.075750 1_555
Li3 O24 2.087898 1_554
Li3 O3 2.132638 1_565
Li3 O25 2.195672 1_565
Li3 O2 2.294387 1_555
Li4 O16 1.919877 1_555
Li4 O27 1.919877 1_555
Li4 O8 2.299263 1_555
Li4 O5 2.299263 1_555
Li5 O7 1.919877 1_555
Li5 O1 1.919877 1_555
Li5 O28 2.299263 1_555
Li5 O14 2.299281 1_555
O0 P2 1.544132 1_555
O0 Sn0 2.506480 1_554
O1 P1 1.504834 1_555
O1 Sn1 2.543985 1_555
O2 P7 1.515858 1_555
O2 Sn2 2.367081 1_555
O3 P2 1.524310 1_555
O3 Sn2 2.640288 1_645
O4 P5 1.524310 1_555
O4 Sn3 2.640288 1_445
O5 P0 1.542129 1_655
O5 Sn0 2.392492 1_555
O6 P7 1.592334 1_555
O6 P1 1.593797 1_555
O7 P1 1.504834 1_565
O7 Sn2 2.543985 1_555
O8 P5 1.542129 1_655
O8 Sn3 2.392492 1_555
O9 P4 1.515858 1_555
O9 Sn3 2.367081 1_555
O10 P0 1.524310 1_555
O10 Sn0 2.640288 1_465
O11 P4 1.608319 1_555
O11 P5 1.648156 1_555
O12 P3 1.544132 1_555
O12 Sn3 2.506480 1_555
O13 P8 1.515858 1_555
O13 Sn1 2.367081 1_555
O14 P3 1.542118 1_455
O14 Sn1 2.392485 1_555
O15 P5 1.544132 1_555
O15 Sn1 2.506480 1_555
O16 P9 1.504834 1_555
O16 Sn0 2.543985 1_555
O17 P6 1.592334 1_555
O17 P9 1.593797 1_565
O18 P4 1.592334 1_555
O18 P9 1.593797 1_555
O19 P8 1.592334 1_555
O19 P1 1.593797 1_565
O20 P8 1.608319 1_555
O20 P3 1.648156 1_555
O21 P0 1.544132 1_555
O21 Sn2 2.506480 1_556
O22 P6 1.515858 1_555
O22 Sn0 2.367081 1_555
O23 P4 1.508800 1_555
O24 P6 1.508800 1_555
O25 P7 1.508800 1_555
O26 P6 1.608319 1_555
O26 P0 1.648156 1_555
O27 P9 1.504834 1_565
O27 Sn3 2.543985 1_555
O28 P2 1.542129 1_455
O28 Sn2 2.392492 1_555
O29 P3 1.524310 1_555
O29 Sn1 2.640288 1_665
O30 P8 1.508800 1_555
O31 P7 1.608319 1_555
O31 P2 1.648156 1_555
