# generated using pymatgen
data_Ce(In2Pd)2
_symmetry_space_group_name_H-M   'P 1'
_cell_length_a   4.52914300
_cell_length_b   7.32565400
_cell_length_c   18.33435500
_cell_angle_alpha   90.00000000
_cell_angle_beta   90.00000000
_cell_angle_gamma   90.00000000
_symmetry_Int_Tables_number   1
_chemical_formula_structural   Ce(In2Pd)2
_chemical_formula_sum   'Ce4 In16 Pd8'
_cell_volume   608.31436428
_cell_formula_units_Z   4
loop_
 _symmetry_equiv_pos_site_id
 _symmetry_equiv_pos_as_xyz
  1  'x, y, z'
loop_
 _atom_site_type_symbol
 _atom_site_label
 _atom_site_symmetry_multiplicity
 _atom_site_fract_x
 _atom_site_fract_y
 _atom_site_fract_z
 _atom_site_occupancy
  Ce  Ce0  1  0.25000000  0.54010700  0.85803500  1
  Ce  Ce1  1  0.75000000  0.04010700  0.64196500  1
  Ce  Ce2  1  0.75000000  0.45989300  0.14196500  1
  Ce  Ce3  1  0.25000000  0.95989300  0.35803500  1
  In  In0  1  0.75000000  0.25373600  0.30875900  1
  In  In1  1  0.75000000  0.51156700  0.57062600  1
  In  In2  1  0.75000000  0.65508000  0.31399100  1
  In  In3  1  0.25000000  0.01156700  0.92937400  1
  In  In4  1  0.75000000  0.35384200  0.96655000  1
  In  In5  1  0.25000000  0.75373600  0.19124100  1
  In  In6  1  0.25000000  0.64615800  0.03345000  1
  In  In7  1  0.25000000  0.85384200  0.53345000  1
  In  In8  1  0.75000000  0.24626400  0.80875900  1
  In  In9  1  0.25000000  0.48843300  0.42937400  1
  In  In10  1  0.25000000  0.15508000  0.18600900  1
  In  In11  1  0.75000000  0.84492000  0.81399100  1
  In  In12  1  0.25000000  0.74626400  0.69124100  1
  In  In13  1  0.75000000  0.98843300  0.07062600  1
  In  In14  1  0.25000000  0.34492000  0.68600900  1
  In  In15  1  0.75000000  0.14615800  0.46655000  1
  Pd  Pd0  1  0.25000000  0.23863900  0.54284600  1
  Pd  Pd1  1  0.75000000  0.54874600  0.72238900  1
  Pd  Pd2  1  0.75000000  0.76136100  0.45715400  1
  Pd  Pd3  1  0.25000000  0.26136100  0.04284600  1
  Pd  Pd4  1  0.75000000  0.73863900  0.95715400  1
  Pd  Pd5  1  0.25000000  0.45125400  0.27761100  1
  Pd  Pd6  1  0.75000000  0.95125400  0.22238900  1
  Pd  Pd7  1  0.25000000  0.04874600  0.77761100  1
loop_
_geom_bond_atom_site_label_1
_geom_bond_atom_site_label_2
_geom_bond_distance
_geom_bond_site_symmetry_2
Ce0 Pd4 3.247463 1_455
Ce0 Pd4 3.247463 1_555
Ce0 In8 3.252406 1_455
Ce0 In8 3.252406 1_555
Ce0 In11 3.281228 1_555
Ce0 In11 3.281228 1_455
Ce0 In6 3.308625 1_556
Ce0 In4 3.308852 1_455
Ce0 In4 3.308852 1_555
Ce0 Pd1 3.364130 1_455
Ce0 Pd1 3.364130 1_555
Ce0 In12 3.410651 1_555
Ce0 In14 3.462970 1_555
Ce0 In3 3.693122 1_565
Ce1 Pd0 3.247463 1_555
Ce1 Pd0 3.247463 1_655
Ce1 In12 3.252406 1_645
Ce1 In12 3.252406 1_545
Ce1 In14 3.281228 1_655
Ce1 In14 3.281228 1_555
Ce1 In15 3.308625 1_555
Ce1 In7 3.308852 1_645
Ce1 In7 3.308852 1_545
Ce1 Pd7 3.364130 1_655
Ce1 Pd7 3.364130 1_555
Ce1 In8 3.410651 1_555
Ce1 In11 3.462970 1_545
Ce1 In1 3.693122 1_555
Ce2 Pd3 3.247463 1_555
Ce2 Pd3 3.247463 1_655
Ce2 In5 3.252406 1_655
Ce2 In5 3.252406 1_555
Ce2 In10 3.281228 1_655
Ce2 In10 3.281228 1_555
Ce2 In4 3.308625 1_554
Ce2 In6 3.308852 1_555
Ce2 In6 3.308852 1_655
Ce2 Pd5 3.364130 1_555
Ce2 Pd5 3.364130 1_655
Ce2 In0 3.410651 1_555
Ce2 In2 3.462970 1_555
Ce2 In13 3.693122 1_545
Ce3 Pd2 3.247463 1_455
Ce3 Pd2 3.247463 1_555
Ce3 In0 3.252406 1_465
Ce3 In0 3.252406 1_565
Ce3 In2 3.281228 1_455
Ce3 In2 3.281228 1_555
Ce3 In7 3.308625 1_555
Ce3 In15 3.308852 1_565
Ce3 In15 3.308852 1_465
Ce3 Pd6 3.364130 1_455
Ce3 Pd6 3.364130 1_555
Ce3 In5 3.410651 1_555
Ce3 In10 3.462970 1_565
Ce3 In9 3.693122 1_555
In0 Pd6 2.723547 1_545
In0 Pd5 2.747376 1_555
In0 Pd5 2.747376 1_655
In1 Pd2 2.770697 1_555
In1 Pd1 2.795775 1_555
In1 Pd0 3.063528 1_655
In1 Pd0 3.063528 1_555
In2 Pd2 2.737839 1_555
In2 Pd6 2.743731 1_555
In2 Pd5 2.793332 1_555
In2 Pd5 2.793332 1_655
In3 Pd3 2.770697 1_556
In3 Pd7 2.795775 1_555
In3 Pd4 3.063528 1_445
In3 Pd4 3.063528 1_545
In4 Pd3 2.746637 1_556
In4 Pd3 2.746637 1_656
In4 Pd4 2.824149 1_555
In5 Pd5 2.723547 1_555
In5 Pd6 2.747376 1_455
In5 Pd6 2.747376 1_555
In6 Pd4 2.746637 1_454
In6 Pd4 2.746637 1_554
In6 Pd3 2.824149 1_555
In7 Pd2 2.746637 1_555
In7 Pd2 2.746637 1_455
In7 Pd0 2.824149 1_565
In8 Pd1 2.723547 1_555
In8 Pd7 2.747376 1_655
In8 Pd7 2.747376 1_555
In9 Pd0 2.770697 1_555
In9 Pd5 2.795775 1_555
In9 Pd2 3.063528 1_455
In9 Pd2 3.063528 1_555
In10 Pd3 2.737839 1_555
In10 Pd5 2.743731 1_555
In10 Pd6 2.793332 1_445
In10 Pd6 2.793332 1_545
In11 Pd4 2.737839 1_555
In11 Pd1 2.743731 1_555
In11 Pd7 2.793332 1_565
In11 Pd7 2.793332 1_665
In12 Pd7 2.723547 1_565
In12 Pd1 2.747376 1_455
In12 Pd1 2.747376 1_555
In13 Pd4 2.770697 1_554
In13 Pd6 2.795775 1_555
In13 Pd3 3.063528 1_665
In13 Pd3 3.063528 1_565
In14 Pd0 2.737839 1_555
In14 Pd7 2.743731 1_555
In14 Pd1 2.793332 1_455
In14 Pd1 2.793332 1_555
In15 Pd0 2.746637 1_655
In15 Pd0 2.746637 1_555
In15 Pd2 2.824149 1_545
