# generated using pymatgen
data_Na3AlP3NO9
_symmetry_space_group_name_H-M   'P 1'
_cell_length_a   9.40675300
_cell_length_b   9.40675300
_cell_length_c   9.40675300
_cell_angle_alpha   90.00000000
_cell_angle_beta   90.00000000
_cell_angle_gamma   90.00000000
_symmetry_Int_Tables_number   1
_chemical_formula_structural   Na3AlP3NO9
_chemical_formula_sum   'Na12 Al4 P12 N4 O36'
_cell_volume   832.37537155
_cell_formula_units_Z   4
loop_
 _symmetry_equiv_pos_site_id
 _symmetry_equiv_pos_as_xyz
  1  'x, y, z'
loop_
 _atom_site_type_symbol
 _atom_site_label
 _atom_site_symmetry_multiplicity
 _atom_site_fract_x
 _atom_site_fract_y
 _atom_site_fract_z
 _atom_site_occupancy
  Na  Na0  1  0.94933700  0.05066300  0.55066300  1
  Na  Na1  1  0.75984000  0.74016000  0.25984000  1
  Na  Na2  1  0.74016000  0.25984000  0.75984000  1
  Na  Na3  1  0.25984000  0.75984000  0.74016000  1
  Na  Na4  1  0.24016000  0.24016000  0.24016000  1
  Na  Na5  1  0.14142000  0.35858000  0.64142000  1
  Na  Na6  1  0.35858000  0.64142000  0.14142000  1
  Na  Na7  1  0.64142000  0.14142000  0.35858000  1
  Na  Na8  1  0.44933700  0.44933700  0.44933700  1
  Na  Na9  1  0.85858000  0.85858000  0.85858000  1
  Na  Na10  1  0.05066300  0.55066300  0.94933700  1
  Na  Na11  1  0.55066300  0.94933700  0.05066300  1
  Al  Al0  1  0.33254700  0.16745300  0.83254700  1
  Al  Al1  1  0.16745300  0.83254700  0.33254700  1
  Al  Al2  1  0.83254700  0.33254700  0.16745300  1
  Al  Al3  1  0.66745300  0.66745300  0.66745300  1
  P  P0  1  0.17139600  0.92161400  0.01078600  1
  P  P1  1  0.01078600  0.17139600  0.92161400  1
  P  P2  1  0.92161400  0.01078600  0.17139600  1
  P  P3  1  0.98921400  0.67139600  0.57838600  1
  P  P4  1  0.48921400  0.82860400  0.42161400  1
  P  P5  1  0.57838600  0.98921400  0.67139600  1
  P  P6  1  0.82860400  0.42161400  0.48921400  1
  P  P7  1  0.67139600  0.57838600  0.98921400  1
  P  P8  1  0.42161400  0.48921400  0.82860400  1
  P  P9  1  0.07838600  0.51078600  0.32860400  1
  P  P10  1  0.51078600  0.32860400  0.07838600  1
  P  P11  1  0.32860400  0.07838600  0.51078600  1
  N  N0  1  0.94255900  0.55744100  0.44255900  1
  N  N1  1  0.55744100  0.44255900  0.94255900  1
  N  N2  1  0.44255900  0.94255900  0.55744100  1
  N  N3  1  0.05744100  0.05744100  0.05744100  1
  O  O0  1  0.34954500  0.75406300  0.37951600  1
  O  O1  1  0.58904400  0.69752500  0.05963900  1
  O  O2  1  0.91095600  0.30247500  0.55963900  1
  O  O3  1  0.69752500  0.05963900  0.58904400  1
  O  O4  1  0.55963900  0.91095600  0.30247500  1
  O  O5  1  0.05963900  0.58904400  0.69752500  1
  O  O6  1  0.80247500  0.94036100  0.08904400  1
  O  O7  1  0.94036100  0.08904400  0.80247500  1
  O  O8  1  0.25406300  0.12048400  0.65045500  1
  O  O9  1  0.65045500  0.25406300  0.12048400  1
  O  O10  1  0.12048400  0.65045500  0.25406300  1
  O  O11  1  0.37951600  0.34954500  0.75406300  1
  O  O12  1  0.15045500  0.24593700  0.87951600  1
  O  O13  1  0.30247500  0.55963900  0.91095600  1
  O  O14  1  0.84954500  0.74593700  0.62048400  1
  O  O15  1  0.08904400  0.80247500  0.94036100  1
  O  O16  1  0.62048400  0.84954500  0.74593700  1
  O  O17  1  0.75406300  0.37951600  0.34954500  1
  O  O18  1  0.74593700  0.62048400  0.84954500  1
  O  O19  1  0.24593700  0.87951600  0.15045500  1
  O  O20  1  0.21783900  0.01442400  0.40786200  1
  O  O21  1  0.40786200  0.21783900  0.01442400  1
  O  O22  1  0.01442400  0.40786200  0.21783900  1
  O  O23  1  0.48557600  0.59213800  0.71783900  1
  O  O24  1  0.90786200  0.28216100  0.98557600  1
  O  O25  1  0.98557600  0.90786200  0.28216100  1
  O  O26  1  0.09213800  0.78216100  0.51442400  1
  O  O27  1  0.59213800  0.71783900  0.48557600  1
  O  O28  1  0.51442400  0.09213800  0.78216100  1
  O  O29  1  0.71783900  0.48557600  0.59213800  1
  O  O30  1  0.78216100  0.51442400  0.09213800  1
  O  O31  1  0.28216100  0.98557600  0.90786200  1
  O  O32  1  0.41095600  0.19752500  0.44036100  1
  O  O33  1  0.44036100  0.41095600  0.19752500  1
  O  O34  1  0.19752500  0.44036100  0.41095600  1
  O  O35  1  0.87951600  0.15045500  0.24593700  1
loop_
_geom_bond_atom_site_label_1
_geom_bond_atom_site_label_2
_geom_bond_distance
_geom_bond_site_symmetry_2
Na0 O2 2.397577 1_555
Na0 O7 2.397577 1_555
Na0 O3 2.397577 1_555
Na1 O4 2.507733 1_555
Na1 O6 2.507733 1_555
Na1 O1 2.507733 1_555
Na1 O25 2.653620 1_555
Na1 O27 2.653620 1_555
Na1 O30 2.653620 1_555
Na2 O2 2.507733 1_555
Na2 O7 2.507733 1_555
Na2 O3 2.507733 1_555
Na2 O29 2.653620 1_555
Na2 O24 2.653620 1_555
Na2 O28 2.653620 1_555
Na3 O13 2.507733 1_555
Na3 O15 2.507733 1_555
Na3 O5 2.507733 1_555
Na3 O31 2.653620 1_555
Na3 O23 2.653620 1_555
Na3 O26 2.653620 1_555
Na4 O32 2.507733 1_555
Na4 O33 2.507733 1_555
Na4 O34 2.507733 1_555
Na4 O21 2.653620 1_555
Na4 O20 2.653620 1_555
Na4 O22 2.653620 1_555
Na5 O5 2.360131 1_555
Na5 O2 2.360131 1_455
Na5 O34 2.360131 1_555
Na5 O12 2.479171 1_555
Na5 O8 2.479171 1_555
Na5 O11 2.479171 1_555
Na6 O1 2.360131 1_555
Na6 O13 2.360131 1_554
Na6 O33 2.360131 1_555
Na6 O19 2.479171 1_555
Na6 O10 2.479171 1_555
Na6 O0 2.479171 1_555
Na7 O3 2.360131 1_555
Na7 O32 2.360131 1_555
Na7 O4 2.360131 1_545
Na7 O35 2.479171 1_555
Na7 O9 2.479171 1_555
Na7 O17 2.479171 1_555
Na8 O33 2.397577 1_555
Na8 O34 2.397577 1_555
Na8 O32 2.397577 1_555
Na9 O6 2.360131 1_556
Na9 O15 2.360131 1_655
Na9 O7 2.360131 1_565
Na9 O14 2.479171 1_555
Na9 O16 2.479171 1_555
Na9 O18 2.479171 1_555
Na10 O13 2.397577 1_555
Na10 O5 2.397577 1_555
Na10 O15 2.397577 1_555
Na11 O4 2.397577 1_555
Na11 O6 2.397577 1_555
Na11 O1 2.397577 1_555
Al0 O31 1.911455 1_545
Al0 O21 1.911455 1_556
Al0 O28 1.911455 1_555
Al0 O12 1.916840 1_555
Al0 O11 1.916840 1_555
Al0 O8 1.916840 1_555
Al1 O25 1.911455 1_455
Al1 O20 1.911455 1_565
Al1 O26 1.911455 1_555
Al1 O19 1.916840 1_555
Al1 O0 1.916840 1_555
Al1 O10 1.916840 1_555
Al2 O24 1.911455 1_554
Al2 O22 1.911455 1_655
Al2 O30 1.911455 1_555
Al2 O35 1.916840 1_555
Al2 O17 1.916840 1_555
Al2 O9 1.916840 1_555
Al3 O27 1.911455 1_555
Al3 O29 1.911455 1_555
Al3 O23 1.911455 1_555
Al3 O18 1.916840 1_555
Al3 O14 1.916840 1_555
Al3 O16 1.916840 1_555
N0 P6 1.724579 1_555
N0 P3 1.724579 1_555
N0 P9 1.724579 1_655
N0 Na1 2.977036 1_555
N1 P8 1.724579 1_555
N1 P7 1.724579 1_555
N1 P10 1.724579 1_556
N1 Na2 2.977036 1_555
N2 P4 1.724579 1_555
N2 P5 1.724579 1_555
N2 P11 1.724579 1_565
N2 Na3 2.977036 1_555
N3 P1 1.724579 1_554
N3 P2 1.724579 1_455
N3 P0 1.724579 1_545
N3 Na4 2.977036 1_555
O0 P4 1.540987 1_555
O1 P7 1.514915 1_554
O2 P6 1.514915 1_555
O3 P5 1.514915 1_545
O4 P4 1.514915 1_555
O5 P3 1.514915 1_455
O6 P2 1.514915 1_565
O7 P1 1.514915 1_655
O8 P11 1.540987 1_555
O9 P10 1.540987 1_555
O10 P9 1.540987 1_555
O11 P8 1.540987 1_555
O12 P1 1.540987 1_555
O13 P8 1.514915 1_555
O14 P3 1.540987 1_555
O15 P0 1.514915 1_556
O16 P5 1.540987 1_555
O17 P6 1.540987 1_555
O18 P7 1.540987 1_555
O19 P0 1.540987 1_555
O20 P11 1.544352 1_555
O21 P10 1.544352 1_555
O22 P9 1.544352 1_555
O23 P8 1.544352 1_555
O24 P1 1.544352 1_655
O25 P2 1.544352 1_565
O26 P3 1.544352 1_455
O27 P4 1.544352 1_555
O28 P5 1.544352 1_545
O29 P6 1.544352 1_555
O30 P7 1.544352 1_554
O31 P0 1.544352 1_556
O32 P11 1.514915 1_555
O33 P10 1.514915 1_555
O34 P9 1.514915 1_555
O35 P2 1.540987 1_555
