# generated using pymatgen
data_NdInPt
_symmetry_space_group_name_H-M   'P 1'
_cell_length_a   7.76106034
_cell_length_b   7.76106034
_cell_length_c   3.98423662
_cell_angle_alpha   90.00000000
_cell_angle_beta   90.00000000
_cell_angle_gamma   120.00000308
_symmetry_Int_Tables_number   1
_chemical_formula_structural   NdInPt
_chemical_formula_sum   'Nd3 In3 Pt3'
_cell_volume   207.83460535
_cell_formula_units_Z   3
loop_
 _symmetry_equiv_pos_site_id
 _symmetry_equiv_pos_as_xyz
  1  'x, y, z'
loop_
 _atom_site_type_symbol
 _atom_site_label
 _atom_site_symmetry_multiplicity
 _atom_site_fract_x
 _atom_site_fract_y
 _atom_site_fract_z
 _atom_site_occupancy
  Nd  Nd0  1  0.00000000  0.58965598  0.50000000  1
  Nd  Nd1  1  0.58965598  0.00000000  0.50000000  1
  Nd  Nd2  1  0.41034402  0.41034402  0.50000000  1
  In  In0  1  -0.00000000  0.25406764  0.00000000  1
  In  In1  1  0.25406764  -0.00000000  0.00000000  1
  In  In2  1  0.74593236  0.74593236  -0.00000000  1
  Pt  Pt0  1  0.00000000  0.00000000  0.50000000  1
  Pt  Pt1  1  0.66666700  0.33333300  -0.00000000  1
  Pt  Pt2  1  0.33333300  0.66666700  -0.00000000  1
loop_
_geom_bond_atom_site_label_1
_geom_bond_atom_site_label_2
_geom_bond_distance
_geom_bond_site_symmetry_2
Nd0 Pt2 3.077694 1_556
Nd0 Pt2 3.077694 1_555
Nd0 Pt1 3.077695 1_455
Nd0 Pt1 3.077695 1_456
Nd0 Pt0 3.184705 1_565
Nd1 Pt1 3.077694 1_555
Nd1 Pt1 3.077694 1_556
Nd1 Pt2 3.077695 1_545
Nd1 Pt2 3.077695 1_546
Nd1 Pt0 3.184705 1_655
Nd2 Pt2 3.077699 1_556
Nd2 Pt1 3.077699 1_555
Nd2 Pt2 3.077699 1_555
Nd2 Pt1 3.077699 1_556
Nd2 Pt0 3.184705 1_555
In0 Pt0 2.802974 1_554
In0 Pt0 2.802974 1_555
In0 Pt1 2.943230 1_455
In0 Pt2 2.943234 1_555
In0 Nd0 3.279034 1_554
In0 Nd0 3.279034 1_555
In0 In2 3.415317 1_445
In0 In1 3.415317 1_555
In0 Nd1 3.423346 1_454
In0 Nd1 3.423346 1_455
In0 Nd2 3.423346 1_554
In0 Nd2 3.423346 1_555
In1 Pt0 2.802974 1_554
In1 Pt0 2.802974 1_555
In1 Pt2 2.943230 1_545
In1 Pt1 2.943234 1_555
In1 Nd1 3.279034 1_555
In1 Nd1 3.279034 1_554
In1 In2 3.415317 1_445
In1 Nd0 3.423346 1_545
In1 Nd0 3.423346 1_544
In1 Nd2 3.423346 1_554
In1 Nd2 3.423346 1_555
In2 Pt0 2.802974 1_664
In2 Pt0 2.802974 1_665
In2 Pt1 2.943237 1_555
In2 Pt2 2.943237 1_555
In2 Nd2 3.279034 1_554
In2 Nd2 3.279034 1_555
In2 Nd1 3.423346 1_565
In2 Nd0 3.423346 1_655
In2 Nd0 3.423346 1_654
In2 Nd1 3.423346 1_564
