# generated using pymatgen
data_Sb(PO3)5
_symmetry_space_group_name_H-M   'P 1'
_cell_length_a   14.04988700
_cell_length_b   9.42801600
_cell_length_c   10.45525562
_cell_angle_alpha   65.81681014
_cell_angle_beta   90.00000000
_cell_angle_gamma   90.00000000
_symmetry_Int_Tables_number   1
_chemical_formula_structural   Sb(PO3)5
_chemical_formula_sum   'Sb4 P20 O60'
_cell_volume   1263.38894789
_cell_formula_units_Z   4
loop_
 _symmetry_equiv_pos_site_id
 _symmetry_equiv_pos_as_xyz
  1  'x, y, z'
loop_
 _atom_site_type_symbol
 _atom_site_label
 _atom_site_symmetry_multiplicity
 _atom_site_fract_x
 _atom_site_fract_y
 _atom_site_fract_z
 _atom_site_occupancy
  Sb  Sb0  1  0.00022000  0.49890400  0.25063900  1
  Sb  Sb1  1  0.99978000  0.50109600  0.74936100  1
  Sb  Sb2  1  0.50022000  0.50109600  0.24936100  1
  Sb  Sb3  1  0.49978000  0.49890400  0.75063900  1
  P  P0  1  0.58873500  0.17327900  0.99098100  1
  P  P1  1  0.64552600  0.47836300  0.00332700  1
  P  P2  1  0.91126500  0.17327900  0.49098100  1
  P  P3  1  0.41435200  0.82467800  0.50589400  1
  P  P4  1  0.41126500  0.82672100  0.00901900  1
  P  P5  1  0.25114200  0.01354200  0.52247000  1
  P  P6  1  0.08873500  0.82672100  0.50901900  1
  P  P7  1  0.14552600  0.52163700  0.49667300  1
  P  P8  1  0.75114200  0.98645800  0.97753000  1
  P  P9  1  0.58564800  0.17532200  0.49410600  1
  P  P10  1  0.35551800  0.51937900  0.49589200  1
  P  P11  1  0.74885800  0.98645800  0.47753000  1
  P  P12  1  0.91435200  0.17532200  0.99410600  1
  P  P13  1  0.35447400  0.52163700  0.99667300  1
  P  P14  1  0.24885800  0.01354200  0.02247000  1
  P  P15  1  0.14448200  0.51937900  0.99589200  1
  P  P16  1  0.64448200  0.48062100  0.50410800  1
  P  P17  1  0.08564800  0.82467800  0.00589400  1
  P  P18  1  0.85447400  0.47836300  0.50332700  1
  P  P19  1  0.85551800  0.48062100  0.00410800  1
  O  O0  1  0.01332200  0.72177000  0.62108500  1
  O  O1  1  0.37678300  0.50687900  0.85927600  1
  O  O2  1  0.42176000  0.42876300  0.11779500  1
  O  O3  1  0.12321700  0.50687900  0.35927600  1
  O  O4  1  0.46095000  0.93256600  0.37936800  1
  O  O5  1  0.66132000  0.12323700  0.41301800  1
  O  O6  1  0.01323700  0.71924300  0.12262700  1
  O  O7  1  0.37677000  0.50285200  0.35903300  1
  O  O8  1  0.74963700  0.54581900  0.45918700  1
  O  O9  1  0.53905000  0.06743400  0.62063200  1
  O  O10  1  0.87678300  0.49312100  0.64072400  1
  O  O11  1  0.83636000  0.12382600  0.40677400  1
  O  O12  1  0.24635300  0.10999800  0.10308800  1
  O  O13  1  0.75364700  0.89000200  0.89691200  1
  O  O14  1  0.04469000  0.93753100  0.38116300  1
  O  O15  1  0.07769800  0.42645700  0.11779500  1
  O  O16  1  0.75198100  0.92567200  0.63217500  1
  O  O17  1  0.57769800  0.57354300  0.38220500  1
  O  O18  1  0.48667800  0.72177000  0.12108500  1
  O  O19  1  0.64919800  0.30745800  0.52859200  1
  O  O20  1  0.16132000  0.87676300  0.08698200  1
  O  O21  1  0.95531000  0.06246900  0.61883700  1
  O  O22  1  0.16364000  0.87617400  0.59322600  1
  O  O23  1  0.25036300  0.45418100  0.54081300  1
  O  O24  1  0.33868000  0.87676300  0.58698200  1
  O  O25  1  0.03905000  0.93256600  0.87936800  1
  O  O26  1  0.83868000  0.12323700  0.91301800  1
  O  O27  1  0.65251800  0.30646100  0.02415100  1
  O  O28  1  0.85080200  0.30745800  0.02859200  1
  O  O29  1  0.51323700  0.28075700  0.37737300  1
  O  O30  1  0.48676300  0.71924300  0.62262700  1
  O  O31  1  0.24801900  0.07432800  0.36782500  1
  O  O32  1  0.92230200  0.57354300  0.88220500  1
  O  O33  1  0.45531000  0.93753100  0.88116300  1
  O  O34  1  0.74801900  0.92567200  0.13217500  1
  O  O35  1  0.12323000  0.50285200  0.85903300  1
  O  O36  1  0.07824000  0.42876300  0.61779500  1
  O  O37  1  0.54469000  0.06246900  0.11883700  1
  O  O38  1  0.14919800  0.69254200  0.97140800  1
  O  O39  1  0.62323000  0.49714800  0.64096700  1
  O  O40  1  0.24963700  0.45418100  0.04081300  1
  O  O41  1  0.75036300  0.54581900  0.95918700  1
  O  O42  1  0.98676300  0.28075700  0.87737300  1
  O  O43  1  0.57824000  0.57123700  0.88220500  1
  O  O44  1  0.51332200  0.27823000  0.87891500  1
  O  O45  1  0.33636000  0.87617400  0.09322600  1
  O  O46  1  0.42230200  0.42645700  0.61779500  1
  O  O47  1  0.25198100  0.07432800  0.86782500  1
  O  O48  1  0.96095000  0.06743400  0.12063200  1
  O  O49  1  0.92176000  0.57123700  0.38220500  1
  O  O50  1  0.66364000  0.12382600  0.90677400  1
  O  O51  1  0.62321700  0.49312100  0.14072400  1
  O  O52  1  0.35080200  0.69254200  0.47140800  1
  O  O53  1  0.74635300  0.89000200  0.39691200  1
  O  O54  1  0.98667800  0.27823000  0.37891500  1
  O  O55  1  0.34748200  0.69353900  0.97584900  1
  O  O56  1  0.84748200  0.30646100  0.52415100  1
  O  O57  1  0.87677000  0.49714800  0.14096700  1
  O  O58  1  0.15251800  0.69353900  0.47584900  1
  O  O59  1  0.25364700  0.10999800  0.60308800  1
loop_
_geom_bond_atom_site_label_1
_geom_bond_atom_site_label_2
_geom_bond_distance
_geom_bond_site_symmetry_2
O0 P6 1.588919 1_555
O0 Sb1 1.969095 1_455
O1 P13 1.531325 1_555
O1 Sb3 2.086153 1_555
O2 P13 1.534794 1_554
O2 Sb2 2.083501 1_555
O3 P7 1.531325 1_555
O3 Sb0 2.086153 1_555
O4 P3 1.452853 1_555
O5 P9 1.559278 1_555
O5 P11 1.708189 1_545
O6 P17 1.587048 1_555
O6 Sb0 1.965254 1_555
O7 P10 1.530872 1_555
O7 Sb2 2.083021 1_555
O8 P16 1.595196 1_555
O8 P18 1.595792 1_555
O9 P9 1.452853 1_555
O10 P18 1.531325 1_555
O10 Sb1 2.086153 1_555
O11 P2 1.560888 1_555
O11 P11 1.717849 1_545
O12 P14 1.471966 1_555
O13 P8 1.471966 1_555
O14 P6 1.455035 1_555
O15 P15 1.535421 1_554
O15 Sb0 2.087544 1_555
O16 P11 1.478308 1_555
O17 P16 1.535421 1_555
O17 Sb2 2.087544 1_555
O18 P4 1.588919 1_555
O18 Sb2 1.969095 1_555
O19 P16 1.546882 1_555
O19 P9 1.687367 1_555
O20 P17 1.559278 1_555
O20 P14 1.708189 1_565
O21 P2 1.455035 1_555
O22 P6 1.560888 1_555
O22 P5 1.717849 1_565
O23 P10 1.595196 1_555
O23 P7 1.595792 1_555
O24 P3 1.559278 1_555
O24 P5 1.708189 1_565
O25 P17 1.452853 1_556
O26 P12 1.559278 1_555
O26 P8 1.708189 1_545
O27 P1 1.547451 1_555
O27 P0 1.690194 1_554
O28 P19 1.546882 1_555
O28 P12 1.687367 1_554
O29 P9 1.587048 1_555
O29 Sb2 1.965254 1_555
O30 P3 1.587048 1_555
O30 Sb3 1.965254 1_555
O31 P5 1.478308 1_555
O32 P19 1.535421 1_556
O32 Sb1 2.087544 1_555
O33 P4 1.455035 1_556
O34 P8 1.478308 1_554
O35 P15 1.530872 1_555
O35 Sb1 2.083021 1_455
O36 P7 1.534794 1_555
O36 Sb1 2.083501 1_455
O37 P0 1.455035 1_554
O38 P15 1.546882 1_555
O38 P17 1.687367 1_556
O39 P16 1.530872 1_555
O39 Sb3 2.083021 1_555
O40 P15 1.595196 1_554
O40 P13 1.595792 1_554
O41 P19 1.595196 1_556
O41 P1 1.595792 1_556
O42 P12 1.587048 1_555
O42 Sb1 1.965254 1_555
O43 P1 1.534794 1_556
O43 Sb3 2.083501 1_555
O44 P0 1.588919 1_555
O44 Sb3 1.969095 1_555
O45 P4 1.560888 1_555
O45 P14 1.717849 1_565
O46 P10 1.535421 1_555
O46 Sb3 2.087544 1_555
O47 P14 1.478308 1_556
O48 P12 1.452853 1_554
O49 P18 1.534794 1_555
O49 Sb0 2.083501 1_655
O50 P0 1.560888 1_555
O50 P8 1.717849 1_545
O51 P1 1.531325 1_555
O51 Sb2 2.086153 1_555
O52 P10 1.546882 1_555
O52 P3 1.687367 1_555
O53 P11 1.471966 1_555
O54 P2 1.588919 1_555
O54 Sb0 1.969095 1_655
O55 P13 1.547451 1_555
O55 P4 1.690194 1_556
O56 P18 1.547451 1_555
O56 P2 1.690194 1_555
O57 P19 1.530872 1_555
O57 Sb0 2.083021 1_655
O58 P7 1.547451 1_555
O58 P6 1.690194 1_555
O59 P5 1.471966 1_555
