# generated using pymatgen
data_BaMg(CO3)2
_symmetry_space_group_name_H-M   'P 1'
_cell_length_a   6.36716362
_cell_length_b   6.36716362
_cell_length_c   6.36716285
_cell_angle_alpha   47.12997841
_cell_angle_beta   47.12997841
_cell_angle_gamma   47.12997745
_symmetry_Int_Tables_number   1
_chemical_formula_structural   BaMg(CO3)2
_chemical_formula_sum   'Ba1 Mg1 C2 O6'
_cell_volume   126.77913208
_cell_formula_units_Z   1
loop_
 _symmetry_equiv_pos_site_id
 _symmetry_equiv_pos_as_xyz
  1  'x, y, z'
loop_
 _atom_site_type_symbol
 _atom_site_label
 _atom_site_symmetry_multiplicity
 _atom_site_fract_x
 _atom_site_fract_y
 _atom_site_fract_z
 _atom_site_occupancy
  Ba  Ba0  1  0.00000000  0.00000000  0.00000000  1
  Mg  Mg0  1  0.50000000  0.50000000  0.50000000  1
  C  C0  1  0.76000300  0.76000300  0.76000300  1
  C  C1  1  0.23999700  0.23999700  0.23999700  1
  O  O0  1  0.61081900  0.05157200  0.61081900  1
  O  O1  1  0.05157200  0.61081900  0.61081900  1
  O  O2  1  0.38918100  0.38918100  0.94842800  1
  O  O3  1  0.38918100  0.94842800  0.38918100  1
  O  O4  1  0.94842800  0.38918100  0.38918100  1
  O  O5  1  0.61081900  0.61081900  0.05157200  1
loop_
_geom_bond_atom_site_label_1
_geom_bond_atom_site_label_2
_geom_bond_distance
_geom_bond_site_symmetry_2
Ba0 O0 2.981817 1_455
Ba0 O1 2.981817 1_545
Ba0 O4 2.981817 1_454
Ba0 O3 2.981817 1_544
Ba0 O5 2.981817 1_455
Ba0 O5 2.981817 1_545
Ba0 O2 2.981817 1_544
Ba0 O2 2.981817 1_454
Ba0 O0 2.981817 1_554
Ba0 O1 2.981817 1_554
Ba0 O3 2.981817 1_445
Ba0 O4 2.981817 1_445
Mg0 O2 2.083959 1_555
Mg0 O5 2.083959 1_555
Mg0 O3 2.083959 1_555
Mg0 O4 2.083959 1_555
Mg0 O0 2.083959 1_555
Mg0 O1 2.083959 1_555
C0 O5 1.296081 1_556
C0 O0 1.296081 1_565
C0 O1 1.296081 1_655
C1 O2 1.296081 1_554
C1 O3 1.296081 1_545
C1 O4 1.296081 1_455
