# generated using pymatgen
data_Na4TeO5
_symmetry_space_group_name_H-M   'P 1'
_cell_length_a   5.77381000
_cell_length_b   5.81382610
_cell_length_c   8.63310127
_cell_angle_alpha   108.67062109
_cell_angle_beta   101.55540923
_cell_angle_gamma   102.56241822
_symmetry_Int_Tables_number   1
_chemical_formula_structural   Na4TeO5
_chemical_formula_sum   'Na8 Te2 O10'
_cell_volume   256.29922002
_cell_formula_units_Z   2
loop_
 _symmetry_equiv_pos_site_id
 _symmetry_equiv_pos_as_xyz
  1  'x, y, z'
loop_
 _atom_site_type_symbol
 _atom_site_label
 _atom_site_symmetry_multiplicity
 _atom_site_fract_x
 _atom_site_fract_y
 _atom_site_fract_z
 _atom_site_occupancy
  Na  Na0  1  0.30955900  0.51478200  0.90035000  1
  Na  Na1  1  0.11248400  0.49348800  0.30227500  1
  Na  Na2  1  0.30331800  0.99580500  0.40049100  1
  Na  Na3  1  0.69668200  0.00419500  0.59950900  1
  Na  Na4  1  0.69044100  0.48521800  0.09965000  1
  Na  Na5  1  0.50000000  0.50000000  0.50000000  1
  Na  Na6  1  0.50000000  0.00000000  0.00000000  1
  Na  Na7  1  0.88751600  0.50651200  0.69772500  1
  Te  Te0  1  0.09863400  0.00686300  0.79719200  1
  Te  Te1  1  0.90136600  0.99313700  0.20280800  1
  O  O0  1  0.75960700  0.78681100  0.84560600  1
  O  O1  1  0.24039300  0.21318900  0.15439400  1
  O  O2  1  0.08915100  0.22661900  0.59926600  1
  O  O3  1  0.91084900  0.77338100  0.40073400  1
  O  O4  1  0.56717400  0.77570800  0.23988700  1
  O  O5  1  0.43282600  0.22429200  0.76011300  1
  O  O6  1  0.92322700  0.19226700  0.96209700  1
  O  O7  1  0.07677300  0.80773300  0.03790300  1
  O  O8  1  0.74287400  0.20642600  0.31244300  1
  O  O9  1  0.25712600  0.79357400  0.68755700  1
loop_
_geom_bond_atom_site_label_1
_geom_bond_atom_site_label_2
_geom_bond_distance
_geom_bond_site_symmetry_2
Na0 O5 2.093684 1_555
Na0 O2 2.478259 1_555
Na0 O7 2.541213 1_556
Na0 Na6 2.573895 1_566
Na0 O6 2.841212 1_455
Na1 O1 2.097657 1_555
Na1 O3 2.249619 1_455
Na1 O8 2.442696 1_455
Na1 Na5 2.512573 1_555
Na1 O6 2.733988 1_454
Na2 O3 2.352890 1_455
Na2 O2 2.524325 1_565
Na2 O4 2.537527 1_555
Na2 Na5 2.677491 1_565
Na2 O7 2.872474 1_555
Na3 O2 2.352890 1_655
Na3 O3 2.524325 1_545
Na3 O5 2.537527 1_555
Na3 Na5 2.677491 1_545
Na3 O6 2.872474 1_555
Na4 O4 2.093684 1_555
Na4 O3 2.478259 1_555
Na4 O6 2.541213 1_554
Na4 Na6 2.573895 1_555
Na4 O7 2.841212 1_655
Na5 Na7 2.512573 1_555
Na5 O9 2.771789 1_555
Na5 O8 2.771789 1_555
Na5 O0 2.804470 1_555
Na5 O1 2.804470 1_555
Na5 O2 2.989001 1_555
Na5 O3 2.989001 1_555
Na6 O0 2.471935 1_544
Na6 O1 2.471935 1_555
Na6 O8 2.522377 1_555
Na6 O9 2.522377 1_544
Na6 O7 2.587318 1_545
Na6 O6 2.587318 1_554
Na6 Te1 2.626196 1_545
Na6 Te0 2.626196 1_554
Na6 O5 2.786930 1_554
Na6 O4 2.786930 1_545
Na7 O0 2.097657 1_555
Na7 O2 2.249619 1_655
Na7 O9 2.442696 1_655
Na7 O7 2.733988 1_656
O2 Te0 2.438383 1_555
O3 Te1 2.438383 1_555
O6 Te0 2.069867 1_655
O6 Te1 2.693788 1_546
O7 Te1 2.069867 1_455
O7 Te0 2.693788 1_564
O8 Te1 1.833056 1_545
O9 Te0 1.833056 1_565
