# generated using pymatgen
data_H5IO6
_symmetry_space_group_name_H-M   'P 1'
_cell_length_a   18.67853300
_cell_length_b   4.97986800
_cell_length_c   5.99087427
_cell_angle_alpha   58.04718053
_cell_angle_beta   90.00000000
_cell_angle_gamma   90.00000000
_symmetry_Int_Tables_number   1
_chemical_formula_structural   H5IO6
_chemical_formula_sum   'H20 I4 O24'
_cell_volume   472.81859275
_cell_formula_units_Z   4
loop_
 _symmetry_equiv_pos_site_id
 _symmetry_equiv_pos_as_xyz
  1  'x, y, z'
loop_
 _atom_site_type_symbol
 _atom_site_label
 _atom_site_symmetry_multiplicity
 _atom_site_fract_x
 _atom_site_fract_y
 _atom_site_fract_z
 _atom_site_occupancy
  H  H0  1  0.49882500  0.33335700  0.84113700  1
  H  H1  1  0.00117500  0.33335700  0.34113700  1
  H  H2  1  0.50117500  0.66664300  0.15886300  1
  H  H3  1  0.99882500  0.66664300  0.65886300  1
  H  H4  1  0.44129100  0.83328800  0.66303700  1
  H  H5  1  0.05870900  0.83328800  0.16303700  1
  H  H6  1  0.55870900  0.16671200  0.33696300  1
  H  H7  1  0.94129100  0.16671200  0.83696300  1
  H  H8  1  0.30717500  0.65266500  0.91466100  1
  H  H9  1  0.19282500  0.65266500  0.41466100  1
  H  H10  1  0.69282500  0.34733500  0.08533900  1
  H  H11  1  0.80717500  0.34733500  0.58533900  1
  H  H12  1  0.36838100  0.58295200  0.37982700  1
  H  H13  1  0.13161900  0.58295200  0.87982700  1
  H  H14  1  0.63161900  0.41704800  0.62017300  1
  H  H15  1  0.86838100  0.41704800  0.12017300  1
  H  H16  1  0.28059000  0.10138300  0.12178000  1
  H  H17  1  0.21941000  0.10138300  0.62178000  1
  H  H18  1  0.71941000  0.89861700  0.87822000  1
  H  H19  1  0.78059000  0.89861700  0.37822000  1
  I  I0  1  0.37863700  0.12423400  0.83205600  1
  I  I1  1  0.12136300  0.12423400  0.33205600  1
  I  I2  1  0.62136300  0.87576600  0.16794400  1
  I  I3  1  0.87863700  0.87576600  0.66794400  1
  O  O0  1  0.44848000  0.42446000  0.80951000  1
  O  O1  1  0.05152000  0.42446000  0.30951000  1
  O  O2  1  0.55152000  0.57554000  0.19049000  1
  O  O3  1  0.94848000  0.57554000  0.69049000  1
  O  O4  1  0.41783200  0.78490700  0.12704400  1
  O  O5  1  0.08216800  0.78490700  0.62704400  1
  O  O6  1  0.58216800  0.21509300  0.87295600  1
  O  O7  1  0.91783200  0.21509300  0.37295600  1
  O  O8  1  0.43455500  0.06424300  0.59260200  1
  O  O9  1  0.06544500  0.06424300  0.09260200  1
  O  O10  1  0.56544500  0.93575700  0.40739800  1
  O  O11  1  0.93455500  0.93575700  0.90739800  1
  O  O12  1  0.29636700  0.88357500  0.83238200  1
  O  O13  1  0.20363300  0.88357500  0.33238200  1
  O  O14  1  0.70363300  0.11642500  0.16761800  1
  O  O15  1  0.79636700  0.11642500  0.66761800  1
  O  O16  1  0.33344100  0.47042100  0.53469300  1
  O  O17  1  0.16655900  0.47042100  0.03469300  1
  O  O18  1  0.66655900  0.52957900  0.46530700  1
  O  O19  1  0.83344100  0.52957900  0.96530700  1
  O  O20  1  0.32252200  0.24533500  0.03938800  1
  O  O21  1  0.17747800  0.24533500  0.53938800  1
  O  O22  1  0.67747800  0.75466500  0.96061200  1
  O  O23  1  0.82252200  0.75466500  0.46061200  1
loop_
_geom_bond_atom_site_label_1
_geom_bond_atom_site_label_2
_geom_bond_distance
_geom_bond_site_symmetry_2
H0 O0 1.017369 1_555
H0 O6 1.639437 1_555
H1 O1 1.017369 1_555
H1 O7 1.639437 1_455
H2 O2 1.017369 1_555
H2 O4 1.639437 1_555
H3 O3 1.017369 1_555
H3 O5 1.639437 1_655
H4 O8 1.001498 1_565
H5 O9 1.001498 1_565
H6 O10 1.001498 1_545
H7 O11 1.001498 1_545
H8 O12 1.003027 1_555
H9 O13 1.003027 1_555
H10 O14 1.003027 1_555
H11 O15 1.003027 1_555
H12 O16 1.024908 1_555
H12 O4 1.595605 1_555
H13 O17 1.024908 1_556
H13 O5 1.595605 1_555
H14 O18 1.024908 1_555
H14 O6 1.595605 1_555
H15 O19 1.024908 1_554
H15 O7 1.595605 1_555
H16 O20 0.998227 1_555
H17 O21 0.998227 1_555
H18 O22 0.998227 1_555
H19 O23 0.998227 1_555
I0 O4 1.831320 1_546
I0 O16 1.899387 1_555
I0 O8 1.921372 1_555
I0 O0 1.934340 1_555
I0 O12 1.948128 1_545
I0 O20 1.948835 1_556
I1 O5 1.831320 1_545
I1 O17 1.899387 1_555
I1 O9 1.921372 1_555
I1 O1 1.934340 1_555
I1 O13 1.948128 1_545
I1 O21 1.948835 1_555
I2 O6 1.831320 1_564
I2 O18 1.899387 1_555
I2 O10 1.921372 1_555
I2 O2 1.934340 1_555
I2 O14 1.948128 1_565
I2 O22 1.948835 1_554
I3 O7 1.831320 1_565
I3 O19 1.899387 1_555
I3 O11 1.921372 1_555
I3 O3 1.934340 1_555
I3 O15 1.948128 1_565
I3 O23 1.948835 1_555
