# generated using pymatgen
data_Na3YH12(CO5)3
_symmetry_space_group_name_H-M   'P 1'
_cell_length_a   11.68265387
_cell_length_b   11.68265387
_cell_length_c   5.85853600
_cell_angle_alpha   90.00000000
_cell_angle_beta   90.00000000
_cell_angle_gamma   119.99999928
_symmetry_Int_Tables_number   1
_chemical_formula_structural   Na3YH12(CO5)3
_chemical_formula_sum   'Na6 Y2 H24 C6 O30'
_cell_volume   692.47286103
_cell_formula_units_Z   2
loop_
 _symmetry_equiv_pos_site_id
 _symmetry_equiv_pos_as_xyz
  1  'x, y, z'
loop_
 _atom_site_type_symbol
 _atom_site_label
 _atom_site_symmetry_multiplicity
 _atom_site_fract_x
 _atom_site_fract_y
 _atom_site_fract_z
 _atom_site_occupancy
  Na  Na0  1  0.63750900  0.63351400  0.17307600  1
  Na  Na1  1  0.99600500  0.36249100  0.17307600  1
  Na  Na2  1  0.36648600  0.00399500  0.17307600  1
  Na  Na3  1  0.36249100  0.36648600  0.67307600  1
  Na  Na4  1  0.63351400  0.99600500  0.67307600  1
  Na  Na5  1  0.00399500  0.63750900  0.67307600  1
  Y  Y0  1  0.33333300  0.66666700  0.91233300  1
  Y  Y1  1  0.66666700  0.33333300  0.41233300  1
  H  H0  1  0.11162700  0.68025900  0.14989200  1
  H  H1  1  0.13180400  0.00126600  0.93965700  1
  H  H2  1  0.09494100  0.23563900  0.54261100  1
  H  H3  1  0.31974100  0.43136800  0.14989200  1
  H  H4  1  0.68025900  0.56863200  0.64989200  1
  H  H5  1  0.56863200  0.88837300  0.14989200  1
  H  H6  1  0.43136800  0.11162700  0.64989200  1
  H  H7  1  0.21847800  0.71809100  0.35406800  1
  H  H8  1  0.28190900  0.50038700  0.35406800  1
  H  H9  1  0.13053800  0.13180400  0.43965700  1
  H  H10  1  0.90505900  0.76436100  0.04261100  1
  H  H11  1  0.88837300  0.31974100  0.64989200  1
  H  H12  1  0.86946200  0.86819600  0.93965700  1
  H  H13  1  0.78152200  0.28190900  0.85406800  1
  H  H14  1  0.00126600  0.86946200  0.43965700  1
  H  H15  1  0.99873400  0.13053800  0.93965700  1
  H  H16  1  0.76436100  0.85930200  0.54261100  1
  H  H17  1  0.49961300  0.78152200  0.35406800  1
  H  H18  1  0.50038700  0.21847800  0.85406800  1
  H  H19  1  0.23563900  0.14069800  0.04261100  1
  H  H20  1  0.86819600  0.99873400  0.43965700  1
  H  H21  1  0.71809100  0.49961300  0.85406800  1
  H  H22  1  0.14069800  0.90505900  0.54261100  1
  H  H23  1  0.85930200  0.09494100  0.04261100  1
  C  C0  1  0.12493400  0.44380300  0.67904000  1
  C  C1  1  0.55619700  0.68113100  0.67904000  1
  C  C2  1  0.87506600  0.55619700  0.17904000  1
  C  C3  1  0.31886900  0.87506600  0.67904000  1
  C  C4  1  0.68113100  0.12493400  0.17904000  1
  C  C5  1  0.44380300  0.31886900  0.17904000  1
  O  O0  1  0.65310000  0.68791500  0.56346200  1
  O  O1  1  0.29864200  0.50318700  0.18626700  1
  O  O2  1  0.90282800  0.50248100  0.34735800  1
  O  O3  1  0.49751900  0.40034700  0.34735800  1
  O  O4  1  0.49681300  0.79545500  0.18626700  1
  O  O5  1  0.50797700  0.75862300  0.63146700  1
  O  O6  1  0.59965300  0.09717200  0.34735800  1
  O  O7  1  0.50318700  0.20454500  0.68626700  1
  O  O8  1  0.95634900  0.14460900  0.07156000  1
  O  O9  1  0.96518500  0.65310000  0.06346200  1
  O  O10  1  0.75862300  0.25064600  0.13146700  1
  O  O11  1  0.70135800  0.49681300  0.68626700  1
  O  O12  1  0.68791500  0.03481500  0.06346200  1
  O  O13  1  0.03481500  0.34690000  0.56346200  1
  O  O14  1  0.25064600  0.49202300  0.63146700  1
  O  O15  1  0.40034700  0.90282800  0.84735800  1
  O  O16  1  0.85539100  0.81174100  0.07156000  1
  O  O17  1  0.81174100  0.95634900  0.57156000  1
  O  O18  1  0.24137700  0.74935400  0.63146700  1
  O  O19  1  0.74935400  0.50797700  0.13146700  1
  O  O20  1  0.31208500  0.96518500  0.56346200  1
  O  O21  1  0.20454500  0.70135800  0.18626700  1
  O  O22  1  0.49202300  0.24137700  0.13146700  1
  O  O23  1  0.50248100  0.59965300  0.84735800  1
  O  O24  1  0.09717200  0.49751900  0.84735800  1
  O  O25  1  0.79545500  0.29864200  0.68626700  1
  O  O26  1  0.14460900  0.18825900  0.57156000  1
  O  O27  1  0.04365100  0.85539100  0.57156000  1
  O  O28  1  0.18825900  0.04365100  0.07156000  1
  O  O29  1  0.34690000  0.31208500  0.06346200  1
loop_
_geom_bond_atom_site_label_1
_geom_bond_atom_site_label_2
_geom_bond_distance
_geom_bond_site_symmetry_2
Na0 O0 2.356294 1_555
Na0 O23 2.379551 1_554
Na0 O19 2.415370 1_555
Na0 O16 2.422470 1_555
Na0 O3 2.585046 1_555
Na1 O13 2.356294 1_655
Na1 O24 2.379551 1_654
Na1 O10 2.415370 1_555
Na1 O8 2.422466 1_555
Na1 O2 2.585046 1_555
Na2 O20 2.356294 1_545
Na2 O15 2.379551 1_544
Na2 O22 2.415370 1_555
Na2 O28 2.422477 1_555
Na2 O6 2.585046 1_555
Na3 O29 2.356294 1_556
Na3 O3 2.379551 1_555
Na3 O14 2.415370 1_555
Na3 O26 2.422470 1_555
Na3 O23 2.585046 1_555
Na4 O12 2.356294 1_566
Na4 O6 2.379551 1_565
Na4 O5 2.415370 1_555
Na4 O17 2.422477 1_555
Na4 O15 2.585046 1_555
Na5 O9 2.356294 1_456
Na5 O2 2.379551 1_455
Na5 O18 2.415370 1_555
Na5 O27 2.422466 1_555
Na5 O24 2.585046 1_555
H0 O21 1.008449 1_555
H0 O9 1.655651 1_455
H1 O28 0.975070 1_556
H2 O26 0.996510 1_555
H3 O1 1.008449 1_555
H3 O29 1.655651 1_555
H4 O11 1.008449 1_555
H4 O0 1.655651 1_555
H5 O4 1.008449 1_555
H5 O12 1.655651 1_565
H6 O7 1.008449 1_555
H6 O20 1.655651 1_545
H7 O21 0.999657 1_555
H7 O18 1.657822 1_555
H8 O1 0.999657 1_555
H8 O14 1.657822 1_555
H9 O26 0.975068 1_555
H10 O16 0.996510 1_555
H11 O25 1.008449 1_555
H11 O13 1.655651 1_655
H12 O16 0.975068 1_556
H13 O25 0.999657 1_555
H13 O10 1.657822 1_556
H14 O27 0.975075 1_555
H15 O8 0.975075 1_556
H16 O17 0.996500 1_555
H17 O4 0.999657 1_555
H17 O5 1.657822 1_555
H18 O7 0.999657 1_555
H18 O22 1.657822 1_556
H19 O28 0.996500 1_555
H20 O17 0.975070 1_555
H21 O11 0.999657 1_555
H21 O19 1.657822 1_556
H22 O27 0.996500 1_555
H23 O8 0.996500 1_555
C0 O13 1.287114 1_555
C0 O24 1.294190 1_555
C0 O14 1.313246 1_555
C1 O0 1.287114 1_555
C1 O23 1.294190 1_555
C1 O5 1.313246 1_555
C2 O9 1.287114 1_555
C2 O2 1.294190 1_555
C2 O19 1.313246 1_555
C3 O20 1.287114 1_555
C3 O15 1.294190 1_555
C3 O18 1.313246 1_555
C4 O12 1.287114 1_555
C4 O6 1.294190 1_555
C4 O10 1.313246 1_555
C5 O29 1.287114 1_555
C5 O3 1.294190 1_555
C5 O22 1.313246 1_555
O1 Y0 2.369263 1_554
O2 Y1 2.491956 1_555
O3 Y1 2.491964 1_555
O4 Y0 2.369260 1_554
O5 Y0 2.415081 1_555
O6 Y1 2.491953 1_555
O7 Y1 2.369260 1_555
O10 Y1 2.415074 1_555
O11 Y1 2.369263 1_555
O14 Y0 2.415081 1_555
O15 Y0 2.491953 1_555
O18 Y0 2.415074 1_555
O19 Y1 2.415081 1_555
O21 Y0 2.369254 1_554
O22 Y1 2.415081 1_555
O23 Y0 2.491964 1_555
O24 Y0 2.491956 1_555
O25 Y1 2.369254 1_555
