# generated using pymatgen
data_K2La2Ti3O10
_symmetry_space_group_name_H-M   'P 1'
_cell_length_a   15.28115725
_cell_length_b   15.28115725
_cell_length_c   15.28115725
_cell_angle_alpha   165.29487936
_cell_angle_beta   165.29487936
_cell_angle_gamma   20.85407093
_symmetry_Int_Tables_number   1
_chemical_formula_structural   K2La2Ti3O10
_chemical_formula_sum   'K2 La2 Ti3 O10'
_cell_volume   229.90248602
_cell_formula_units_Z   1
loop_
 _symmetry_equiv_pos_site_id
 _symmetry_equiv_pos_as_xyz
  1  'x, y, z'
loop_
 _atom_site_type_symbol
 _atom_site_label
 _atom_site_symmetry_multiplicity
 _atom_site_fract_x
 _atom_site_fract_y
 _atom_site_fract_z
 _atom_site_occupancy
  K  K0  1  0.29225600  0.29225600  0.00000000  1
  K  K1  1  0.70774400  0.70774400  0.00000000  1
  La  La0  1  0.42844400  0.42844400  0.00000000  1
  La  La1  1  0.57155600  0.57155600  0.00000000  1
  Ti  Ti0  1  0.13990900  0.13990900  0.00000000  1
  Ti  Ti1  1  0.86009100  0.86009100  0.00000000  1
  Ti  Ti2  1  0.00000000  0.00000000  0.00000000  1
  O  O0  1  0.80140600  0.80140600  0.00000000  1
  O  O1  1  0.19859400  0.19859400  0.00000000  1
  O  O2  1  0.37349500  0.87349500  0.50000000  1
  O  O3  1  0.87349500  0.37349500  0.50000000  1
  O  O4  1  0.62650500  0.12650500  0.50000000  1
  O  O5  1  0.12650500  0.62650500  0.50000000  1
  O  O6  1  0.93575200  0.93575200  0.00000000  1
  O  O7  1  0.00000000  0.50000000  0.50000000  1
  O  O8  1  0.50000000  0.00000000  0.50000000  1
  O  O9  1  0.06424800  0.06424800  0.00000000  1
loop_
_geom_bond_atom_site_label_1
_geom_bond_atom_site_label_2
_geom_bond_distance
_geom_bond_site_symmetry_2
K0 O0 2.779275 1_545
K0 O0 2.779275 1_556
K0 O0 2.779275 1_444
K0 O0 2.779275 1_455
K0 O1 2.815256 1_555
K0 O2 3.128418 1_544
K0 O3 3.128418 1_454
K0 O3 3.128418 1_555
K0 O2 3.128418 1_555
K1 O1 2.779275 1_554
K1 O1 2.779275 1_655
K1 O1 2.779275 1_565
K1 O1 2.779275 1_666
K1 O0 2.815256 1_555
K1 O4 3.128418 1_565
K1 O5 3.128418 1_655
K1 O5 3.128418 1_554
K1 O4 3.128418 1_554
La0 O2 2.559739 1_555
La0 O3 2.559739 1_454
La0 O2 2.559739 1_544
La0 O3 2.559739 1_555
La0 O6 2.774343 1_556
La0 O6 2.774343 1_545
La0 O6 2.774343 1_455
La0 O6 2.774343 1_444
La0 O8 2.906943 1_565
La0 O7 2.906943 1_554
La0 O7 2.906943 1_655
La0 O8 2.906943 1_554
La1 O4 2.559739 1_554
La1 O5 2.559739 1_554
La1 O4 2.559739 1_565
La1 O5 2.559739 1_655
La1 O9 2.774343 1_666
La1 O9 2.774343 1_655
La1 O9 2.774343 1_554
La1 O9 2.774343 1_565
La1 O8 2.906943 1_565
La1 O7 2.906943 1_554
La1 O8 2.906943 1_554
La1 O7 2.906943 1_655
O0 Ti1 1.763931 1_555
O1 Ti0 1.763931 1_555
O2 Ti1 1.996669 1_556
O2 Ti1 1.996669 1_455
O3 Ti1 1.996669 1_556
O3 Ti1 1.996669 1_545
O4 Ti0 1.996669 1_555
O4 Ti0 1.996669 1_656
O5 Ti0 1.996669 1_555
O5 Ti0 1.996669 1_566
O6 Ti2 1.931142 1_665
O6 Ti1 2.274189 1_555
O7 Ti2 1.955598 1_566
O7 Ti2 1.955598 1_555
O8 Ti2 1.955598 1_656
O8 Ti2 1.955598 1_555
O9 Ti2 1.931142 1_555
O9 Ti0 2.274189 1_555
