# generated using pymatgen
data_LiGa(SiO3)2
_symmetry_space_group_name_H-M   'P 1'
_cell_length_a   6.53237565
_cell_length_b   6.53237565
_cell_length_c   5.34004554
_cell_angle_alpha   74.63781421
_cell_angle_beta   74.63781421
_cell_angle_gamma   83.62432247
_symmetry_Int_Tables_number   1
_chemical_formula_structural   LiGa(SiO3)2
_chemical_formula_sum   'Li2 Ga2 Si4 O12'
_cell_volume   211.67284969
_cell_formula_units_Z   2
loop_
 _symmetry_equiv_pos_site_id
 _symmetry_equiv_pos_as_xyz
  1  'x, y, z'
loop_
 _atom_site_type_symbol
 _atom_site_label
 _atom_site_symmetry_multiplicity
 _atom_site_fract_x
 _atom_site_fract_y
 _atom_site_fract_z
 _atom_site_occupancy
  Li  Li0  1  0.74152100  0.25847900  0.75000000  1
  Li  Li1  1  0.25847900  0.74152100  0.25000000  1
  Ga  Ga0  1  0.10144400  0.89855600  0.75000000  1
  Ga  Ga1  1  0.89855600  0.10144400  0.25000000  1
  Si  Si0  1  0.61287300  0.79410000  0.76237200  1
  Si  Si1  1  0.38712700  0.20590000  0.23762800  1
  Si  Si2  1  0.79410000  0.61287300  0.26237200  1
  Si  Si3  1  0.20590000  0.38712700  0.73762800  1
  O  O0  1  0.35582100  0.35487900  0.94859400  1
  O  O1  1  0.35487900  0.35582100  0.44859400  1
  O  O2  1  0.64417900  0.64512100  0.05140600  1
  O  O3  1  0.64512100  0.64417900  0.55140600  1
  O  O4  1  0.97042400  0.80170200  0.14403200  1
  O  O5  1  0.62726200  0.10775500  0.17148900  1
  O  O6  1  0.02957600  0.19829800  0.85596800  1
  O  O7  1  0.80170200  0.97042400  0.64403200  1
  O  O8  1  0.19829800  0.02957600  0.35596800  1
  O  O9  1  0.37273800  0.89224500  0.82851100  1
  O  O10  1  0.10775500  0.62726200  0.67148900  1
  O  O11  1  0.89224500  0.37273800  0.32851100  1
loop_
_geom_bond_atom_site_label_1
_geom_bond_atom_site_label_2
_geom_bond_distance
_geom_bond_site_symmetry_2
Li0 O6 2.073043 1_655
Li0 O7 2.073043 1_545
Li0 O11 2.165967 1_555
Li0 O5 2.165967 1_556
Li0 O0 2.540674 1_555
Li0 O3 2.540674 1_555
Li1 O8 2.073043 1_565
Li1 O4 2.073043 1_455
Li1 O9 2.165967 1_554
Li1 O10 2.165967 1_555
Li1 O1 2.540674 1_555
Li1 O2 2.540674 1_555
Ga0 O10 1.920008 1_555
Ga0 O9 1.920008 1_555
Ga0 O4 2.005238 1_456
Ga0 O8 2.005238 1_565
Ga0 O7 2.148635 1_455
Ga0 O6 2.148635 1_565
Ga1 O5 1.920008 1_555
Ga1 O11 1.920008 1_555
Ga1 O7 2.005238 1_545
Ga1 O6 2.005238 1_654
Ga1 O4 2.148635 1_545
Ga1 O8 2.148635 1_655
O0 Si3 1.638795 1_555
O0 Si1 1.642665 1_556
O1 Si1 1.638795 1_555
O1 Si3 1.642665 1_555
O2 Si2 1.638795 1_555
O2 Si0 1.642665 1_554
O3 Si0 1.638795 1_555
O3 Si2 1.642665 1_555
O4 Si2 1.662657 1_555
O5 Si1 1.612301 1_555
O6 Si3 1.662657 1_555
O7 Si0 1.662657 1_555
O8 Si1 1.662657 1_555
O9 Si0 1.612301 1_555
O10 Si3 1.612301 1_555
O11 Si2 1.612301 1_555
