# generated using pymatgen
data_V3(HO4)2
_symmetry_space_group_name_H-M   'P 1'
_cell_length_a   17.22373300
_cell_length_b   3.69245300
_cell_length_c   10.03830613
_cell_angle_alpha   69.80935367
_cell_angle_beta   90.00000000
_cell_angle_gamma   90.00000000
_symmetry_Int_Tables_number   1
_chemical_formula_structural   V3(HO4)2
_chemical_formula_sum   'V12 H8 O32'
_cell_volume   599.18347006
_cell_formula_units_Z   4
loop_
 _symmetry_equiv_pos_site_id
 _symmetry_equiv_pos_as_xyz
  1  'x, y, z'
loop_
 _atom_site_type_symbol
 _atom_site_label
 _atom_site_symmetry_multiplicity
 _atom_site_fract_x
 _atom_site_fract_y
 _atom_site_fract_z
 _atom_site_occupancy
  V  V0  1  0.45828300  0.37408500  0.37340100  1
  V  V1  1  0.95828300  0.62591500  0.12659900  1
  V  V2  1  0.54171700  0.62591500  0.62659900  1
  V  V3  1  0.04171700  0.37408500  0.87340100  1
  V  V4  1  0.65339400  0.29895200  0.44609600  1
  V  V5  1  0.15339400  0.70104800  0.05390400  1
  V  V6  1  0.34660600  0.70104800  0.55390400  1
  V  V7  1  0.84660600  0.29895200  0.94609600  1
  V  V8  1  0.05253300  0.33165900  0.41506400  1
  V  V9  1  0.55253300  0.66834100  0.08493600  1
  V  V10  1  0.94746700  0.66834100  0.58493600  1
  V  V11  1  0.44746700  0.33165900  0.91506400  1
  H  H0  1  0.73555600  0.28148400  0.66492900  1
  H  H1  1  0.23555600  0.71851600  0.83507100  1
  H  H2  1  0.26444400  0.71851600  0.33507100  1
  H  H3  1  0.76444400  0.28148400  0.16492900  1
  H  H4  1  0.18468700  0.18929900  0.54575200  1
  H  H5  1  0.68468700  0.81070100  0.95424800  1
  H  H6  1  0.81531300  0.81070100  0.45424800  1
  H  H7  1  0.31531300  0.18929900  0.04575200  1
  O  O0  1  0.54327100  0.18087800  0.56977200  1
  O  O1  1  0.04327100  0.81912200  0.93022800  1
  O  O2  1  0.45672900  0.81912200  0.43022800  1
  O  O3  1  0.95672900  0.18087800  0.06977200  1
  O  O4  1  0.40670600  0.51582000  0.22807200  1
  O  O5  1  0.90670600  0.48418000  0.27192800  1
  O  O6  1  0.59329400  0.48418000  0.77192800  1
  O  O7  1  0.09329400  0.51582000  0.72807200  1
  O  O8  1  0.37481300  0.22407900  0.52898100  1
  O  O9  1  0.87481300  0.77592100  0.97101900  1
  O  O10  1  0.62518700  0.77592100  0.47101900  1
  O  O11  1  0.12518700  0.22407900  0.02898100  1
  O  O12  1  0.55489800  0.45802100  0.29139700  1
  O  O13  1  0.05489800  0.54197900  0.20860300  1
  O  O14  1  0.44510200  0.54197900  0.70860300  1
  O  O15  1  0.94510200  0.45802100  0.79139700  1
  O  O16  1  0.71479200  0.39771400  0.31354100  1
  O  O17  1  0.21479200  0.60228600  0.18645900  1
  O  O18  1  0.28520800  0.60228600  0.68645900  1
  O  O19  1  0.78520800  0.39771400  0.81354100  1
  O  O20  1  0.71646200  0.16620200  0.59578600  1
  O  O21  1  0.21646200  0.83379800  0.90421400  1
  O  O22  1  0.28353800  0.83379800  0.40421400  1
  O  O23  1  0.78353800  0.16620200  0.09578600  1
  O  O24  1  0.98151800  0.17761100  0.57527000  1
  O  O25  1  0.48151800  0.82238900  0.92473000  1
  O  O26  1  0.01848200  0.82238900  0.42473000  1
  O  O27  1  0.51848200  0.17761100  0.07527000  1
  O  O28  1  0.14965600  0.28872000  0.46457800  1
  O  O29  1  0.64965600  0.71128000  0.03542200  1
  O  O30  1  0.85034400  0.71128000  0.53542200  1
  O  O31  1  0.35034400  0.28872000  0.96457800  1
loop_
_geom_bond_atom_site_label_1
_geom_bond_atom_site_label_2
_geom_bond_distance
_geom_bond_site_symmetry_2
H0 O20 0.987444 1_555
H1 O21 0.987444 1_555
H2 O22 0.987444 1_555
H3 O23 0.987444 1_555
H4 O28 0.977908 1_555
H5 O29 0.977908 1_556
H6 O30 0.977908 1_555
H7 O31 0.977908 1_554
O0 V2 1.916656 1_555
O0 V2 1.928298 1_545
O0 V4 2.226060 1_555
O0 V0 2.359385 1_555
O1 V3 1.916656 1_555
O1 V3 1.928298 1_565
O1 V5 2.226060 1_556
O1 V1 2.359385 1_456
O2 V0 1.916656 1_555
O2 V0 1.928298 1_565
O2 V6 2.226060 1_555
O2 V2 2.359385 1_555
O3 V1 1.916656 1_555
O3 V1 1.928298 1_545
O3 V7 2.226060 1_554
O3 V3 2.359385 1_654
O4 V0 1.632265 1_555
O5 V1 1.632265 1_555
O6 V2 1.632265 1_555
O7 V3 1.632265 1_555
O8 V6 1.922209 1_545
O8 V6 1.924722 1_555
O8 V0 2.053202 1_555
O9 V7 1.922209 1_565
O9 V7 1.924722 1_555
O9 V1 2.053202 1_556
O10 V4 1.922209 1_565
O10 V4 1.924722 1_555
O10 V2 2.053202 1_555
O11 V5 1.922209 1_545
O11 V5 1.924722 1_555
O11 V3 2.053202 1_554
O12 V0 1.834858 1_555
O12 V9 1.946552 1_555
O12 V4 2.237167 1_555
O13 V1 1.834858 1_455
O13 V8 1.946552 1_555
O13 V5 2.237167 1_555
O14 V2 1.834858 1_555
O14 V11 1.946552 1_555
O14 V6 2.237167 1_555
O15 V3 1.834858 1_655
O15 V10 1.946552 1_555
O15 V7 2.237167 1_555
O16 V4 1.639179 1_555
O17 V5 1.639179 1_555
O18 V6 1.639179 1_555
O19 V7 1.639179 1_555
O20 V4 1.780371 1_555
O21 V5 1.780371 1_556
O22 V6 1.780371 1_555
O23 V7 1.780371 1_554
O24 V10 1.938577 1_555
O24 V10 1.939985 1_545
O24 V8 1.942800 1_655
O25 V11 1.938577 1_555
O25 V11 1.939985 1_565
O25 V9 1.942800 1_556
O26 V8 1.938577 1_555
O26 V8 1.939985 1_565
O26 V10 1.942800 1_455
O27 V9 1.938577 1_555
O27 V9 1.939985 1_545
O27 V11 1.942800 1_554
O28 V8 1.736696 1_555
O29 V9 1.736696 1_555
O30 V10 1.736696 1_555
O31 V11 1.736696 1_555
