# generated using pymatgen
data_SiO2
_symmetry_space_group_name_H-M   'P 1'
_cell_length_a   13.77484100
_cell_length_b   13.77484100
_cell_length_c   13.77484100
_cell_angle_alpha   90.00000000
_cell_angle_beta   90.00000000
_cell_angle_gamma   90.00000000
_symmetry_Int_Tables_number   1
_chemical_formula_structural   SiO2
_chemical_formula_sum   'Si46 O92'
_cell_volume   2613.72434937
_cell_formula_units_Z   46
loop_
 _symmetry_equiv_pos_site_id
 _symmetry_equiv_pos_as_xyz
  1  'x, y, z'
loop_
 _atom_site_type_symbol
 _atom_site_label
 _atom_site_symmetry_multiplicity
 _atom_site_fract_x
 _atom_site_fract_y
 _atom_site_fract_z
 _atom_site_occupancy
  Si  Si0  1  0.00000000  0.30983800  0.11297500  1
  Si  Si1  1  0.50000000  0.38702500  0.80983800  1
  Si  Si2  1  0.50000000  0.61297500  0.19016200  1
  Si  Si3  1  0.61297500  0.80983800  0.50000000  1
  Si  Si4  1  0.38702500  0.80983800  0.50000000  1
  Si  Si5  1  0.19016200  0.50000000  0.61297500  1
  Si  Si6  1  0.80983800  0.50000000  0.61297500  1
  Si  Si7  1  0.11297500  0.00000000  0.30983800  1
  Si  Si8  1  0.30983800  0.11297500  0.00000000  1
  Si  Si9  1  0.69016200  0.88702500  0.00000000  1
  Si  Si10  1  0.11297500  0.00000000  0.69016200  1
  Si  Si11  1  0.69016200  0.11297500  0.00000000  1
  Si  Si12  1  0.88702500  0.00000000  0.30983800  1
  Si  Si13  1  0.88702500  0.00000000  0.69016200  1
  Si  Si14  1  0.30983800  0.88702500  0.00000000  1
  Si  Si15  1  0.00000000  0.69016200  0.88702500  1
  Si  Si16  1  0.00000000  0.30983800  0.88702500  1
  Si  Si17  1  0.00000000  0.69016200  0.11297500  1
  Si  Si18  1  0.80983800  0.50000000  0.38702500  1
  Si  Si19  1  0.19016200  0.50000000  0.38702500  1
  Si  Si20  1  0.61297500  0.19016200  0.50000000  1
  Si  Si21  1  0.38702500  0.19016200  0.50000000  1
  Si  Si22  1  0.50000000  0.61297500  0.80983800  1
  Si  Si23  1  0.50000000  0.38702500  0.19016200  1
  Si  Si24  1  0.18216100  0.18216100  0.18216100  1
  Si  Si25  1  0.68216100  0.31783900  0.68216100  1
  Si  Si26  1  0.68216100  0.68216100  0.31783900  1
  Si  Si27  1  0.31783900  0.68216100  0.68216100  1
  Si  Si28  1  0.81783900  0.81783900  0.18216100  1
  Si  Si29  1  0.18216100  0.81783900  0.81783900  1
  Si  Si30  1  0.81783900  0.18216100  0.81783900  1
  Si  Si31  1  0.31783900  0.31783900  0.31783900  1
  Si  Si32  1  0.81783900  0.81783900  0.81783900  1
  Si  Si33  1  0.31783900  0.68216100  0.31783900  1
  Si  Si34  1  0.31783900  0.31783900  0.68216100  1
  Si  Si35  1  0.68216100  0.31783900  0.31783900  1
  Si  Si36  1  0.18216100  0.18216100  0.81783900  1
  Si  Si37  1  0.81783900  0.18216100  0.18216100  1
  Si  Si38  1  0.18216100  0.81783900  0.18216100  1
  Si  Si39  1  0.68216100  0.68216100  0.68216100  1
  Si  Si40  1  0.25000000  0.00000000  0.50000000  1
  Si  Si41  1  0.75000000  0.00000000  0.50000000  1
  Si  Si42  1  0.00000000  0.50000000  0.25000000  1
  Si  Si43  1  0.00000000  0.50000000  0.75000000  1
  Si  Si44  1  0.50000000  0.75000000  0.00000000  1
  Si  Si45  1  0.50000000  0.25000000  0.00000000  1
  O  O0  1  0.00000000  0.34428800  0.00000000  1
  O  O1  1  0.50000000  0.50000000  0.84428800  1
  O  O2  1  0.50000000  0.50000000  0.15571200  1
  O  O3  1  0.50000000  0.84428800  0.50000000  1
  O  O4  1  0.15571200  0.50000000  0.50000000  1
  O  O5  1  0.84428800  0.50000000  0.50000000  1
  O  O6  1  0.00000000  0.00000000  0.34428800  1
  O  O7  1  0.34428800  0.00000000  0.00000000  1
  O  O8  1  0.65571200  0.00000000  0.00000000  1
  O  O9  1  0.00000000  0.00000000  0.65571200  1
  O  O10  1  0.00000000  0.65571200  0.00000000  1
  O  O11  1  0.50000000  0.15571200  0.50000000  1
  O  O12  1  0.09637000  0.24622500  0.13418400  1
  O  O13  1  0.59637000  0.36581600  0.74622500  1
  O  O14  1  0.59637000  0.63418400  0.25377500  1
  O  O15  1  0.63418400  0.74622500  0.40363000  1
  O  O16  1  0.36581600  0.74622500  0.59637000  1
  O  O17  1  0.25377500  0.59637000  0.63418400  1
  O  O18  1  0.74622500  0.40363000  0.63418400  1
  O  O19  1  0.13418400  0.09637000  0.24622500  1
  O  O20  1  0.24622500  0.13418400  0.09637000  1
  O  O21  1  0.75377500  0.86581600  0.09637000  1
  O  O22  1  0.13418400  0.90363000  0.75377500  1
  O  O23  1  0.75377500  0.13418400  0.90363000  1
  O  O24  1  0.86581600  0.90363000  0.24622500  1
  O  O25  1  0.86581600  0.09637000  0.75377500  1
  O  O26  1  0.24622500  0.86581600  0.90363000  1
  O  O27  1  0.09637000  0.75377500  0.86581600  1
  O  O28  1  0.90363000  0.24622500  0.86581600  1
  O  O29  1  0.90363000  0.75377500  0.13418400  1
  O  O30  1  0.74622500  0.59637000  0.36581600  1
  O  O31  1  0.25377500  0.40363000  0.36581600  1
  O  O32  1  0.63418400  0.25377500  0.59637000  1
  O  O33  1  0.36581600  0.25377500  0.40363000  1
  O  O34  1  0.40363000  0.63418400  0.74622500  1
  O  O35  1  0.40363000  0.36581600  0.25377500  1
  O  O36  1  0.90363000  0.75377500  0.86581600  1
  O  O37  1  0.40363000  0.63418400  0.25377500  1
  O  O38  1  0.40363000  0.36581600  0.74622500  1
  O  O39  1  0.36581600  0.25377500  0.59637000  1
  O  O40  1  0.63418400  0.25377500  0.40363000  1
  O  O41  1  0.74622500  0.40363000  0.36581600  1
  O  O42  1  0.25377500  0.59637000  0.36581600  1
  O  O43  1  0.86581600  0.90363000  0.75377500  1
  O  O44  1  0.75377500  0.86581600  0.90363000  1
  O  O45  1  0.24622500  0.13418400  0.90363000  1
  O  O46  1  0.86581600  0.09637000  0.24622500  1
  O  O47  1  0.24622500  0.86581600  0.09637000  1
  O  O48  1  0.13418400  0.09637000  0.75377500  1
  O  O49  1  0.13418400  0.90363000  0.24622500  1
  O  O50  1  0.75377500  0.13418400  0.09637000  1
  O  O51  1  0.90363000  0.24622500  0.13418400  1
  O  O52  1  0.09637000  0.75377500  0.13418400  1
  O  O53  1  0.09637000  0.24622500  0.86581600  1
  O  O54  1  0.25377500  0.40363000  0.63418400  1
  O  O55  1  0.74622500  0.59637000  0.63418400  1
  O  O56  1  0.36581600  0.74622500  0.40363000  1
  O  O57  1  0.63418400  0.74622500  0.59637000  1
  O  O58  1  0.59637000  0.36581600  0.25377500  1
  O  O59  1  0.59637000  0.63418400  0.74622500  1
  O  O60  1  0.00000000  0.40444400  0.18216800  1
  O  O61  1  0.50000000  0.31783200  0.90444400  1
  O  O62  1  0.50000000  0.68216800  0.09555600  1
  O  O63  1  0.68216800  0.90444400  0.50000000  1
  O  O64  1  0.31783200  0.90444400  0.50000000  1
  O  O65  1  0.09555600  0.50000000  0.68216800  1
  O  O66  1  0.90444400  0.50000000  0.68216800  1
  O  O67  1  0.18216800  0.00000000  0.40444400  1
  O  O68  1  0.40444400  0.18216800  0.00000000  1
  O  O69  1  0.59555600  0.81783200  0.00000000  1
  O  O70  1  0.18216800  0.00000000  0.59555600  1
  O  O71  1  0.59555600  0.18216800  0.00000000  1
  O  O72  1  0.81783200  0.00000000  0.40444400  1
  O  O73  1  0.81783200  0.00000000  0.59555600  1
  O  O74  1  0.40444400  0.81783200  0.00000000  1
  O  O75  1  0.00000000  0.59555600  0.81783200  1
  O  O76  1  0.00000000  0.40444400  0.81783200  1
  O  O77  1  0.00000000  0.59555600  0.18216800  1
  O  O78  1  0.90444400  0.50000000  0.31783200  1
  O  O79  1  0.09555600  0.50000000  0.31783200  1
  O  O80  1  0.68216800  0.09555600  0.50000000  1
  O  O81  1  0.31783200  0.09555600  0.50000000  1
  O  O82  1  0.50000000  0.68216800  0.90444400  1
  O  O83  1  0.50000000  0.31783200  0.09555600  1
  O  O84  1  0.25000000  0.25000000  0.25000000  1
  O  O85  1  0.75000000  0.25000000  0.75000000  1
  O  O86  1  0.75000000  0.75000000  0.25000000  1
  O  O87  1  0.25000000  0.75000000  0.75000000  1
  O  O88  1  0.75000000  0.75000000  0.75000000  1
  O  O89  1  0.25000000  0.75000000  0.25000000  1
  O  O90  1  0.25000000  0.25000000  0.75000000  1
  O  O91  1  0.75000000  0.25000000  0.25000000  1
loop_
_geom_bond_atom_site_label_1
_geom_bond_atom_site_label_2
_geom_bond_distance
_geom_bond_site_symmetry_2
O0 Si0 1.626957 1_555
O0 Si16 1.626957 1_554
O1 Si22 1.626957 1_555
O1 Si1 1.626957 1_555
O2 Si2 1.626957 1_555
O2 Si23 1.626957 1_555
O3 Si3 1.626957 1_555
O3 Si4 1.626957 1_555
O4 Si5 1.626957 1_555
O4 Si19 1.626957 1_555
O5 Si6 1.626957 1_555
O5 Si18 1.626957 1_555
O6 Si7 1.626957 1_555
O6 Si12 1.626957 1_455
O7 Si8 1.626957 1_555
O7 Si14 1.626957 1_545
O8 Si11 1.626957 1_555
O8 Si9 1.626957 1_545
O9 Si10 1.626957 1_555
O9 Si13 1.626957 1_455
O10 Si17 1.626957 1_555
O10 Si15 1.626957 1_554
O11 Si20 1.626957 1_555
O11 Si21 1.626957 1_555
O12 Si24 1.616188 1_555
O12 Si0 1.617216 1_555
O13 Si25 1.616188 1_555
O13 Si1 1.617216 1_555
O14 Si26 1.616188 1_555
O14 Si2 1.617216 1_555
O15 Si26 1.616188 1_555
O15 Si3 1.617216 1_555
O16 Si27 1.616188 1_555
O16 Si4 1.617216 1_555
O17 Si27 1.616188 1_555
O17 Si5 1.617216 1_555
O18 Si25 1.616188 1_555
O18 Si6 1.617216 1_555
O19 Si24 1.616188 1_555
O19 Si7 1.617216 1_555
O20 Si24 1.616188 1_555
O20 Si8 1.617216 1_555
O21 Si28 1.616188 1_555
O21 Si9 1.617216 1_555
O22 Si29 1.616188 1_555
O22 Si10 1.617216 1_565
O23 Si30 1.616188 1_555
O23 Si11 1.617216 1_556
O24 Si28 1.616188 1_555
O24 Si12 1.617216 1_565
O25 Si30 1.616188 1_555
O25 Si13 1.617216 1_555
O26 Si29 1.616188 1_555
O26 Si14 1.617216 1_556
O27 Si29 1.616188 1_555
O27 Si15 1.617216 1_555
O28 Si30 1.616188 1_555
O28 Si16 1.617216 1_655
O29 Si28 1.616188 1_555
O29 Si17 1.617216 1_655
O30 Si26 1.616188 1_555
O30 Si18 1.617216 1_555
O31 Si31 1.616188 1_555
O31 Si19 1.617216 1_555
O32 Si25 1.616188 1_555
O32 Si20 1.617216 1_555
O33 Si31 1.616188 1_555
O33 Si21 1.617216 1_555
O34 Si27 1.616188 1_555
O34 Si22 1.617216 1_555
O35 Si31 1.616188 1_555
O35 Si23 1.617216 1_555
O36 Si32 1.616188 1_555
O36 Si15 1.617216 1_655
O37 Si33 1.616188 1_555
O37 Si2 1.617216 1_555
O38 Si34 1.616188 1_555
O38 Si1 1.617216 1_555
O39 Si34 1.616188 1_555
O39 Si21 1.617216 1_555
O40 Si35 1.616188 1_555
O40 Si20 1.617216 1_555
O41 Si35 1.616188 1_555
O41 Si18 1.617216 1_555
O42 Si33 1.616188 1_555
O42 Si19 1.617216 1_555
O43 Si32 1.616188 1_555
O43 Si13 1.617216 1_565
O44 Si32 1.616188 1_555
O44 Si9 1.617216 1_556
O45 Si36 1.616188 1_555
O45 Si8 1.617216 1_556
O46 Si37 1.616188 1_555
O46 Si12 1.617216 1_555
O47 Si38 1.616188 1_555
O47 Si14 1.617216 1_555
O48 Si36 1.616188 1_555
O48 Si10 1.617216 1_555
O49 Si38 1.616188 1_555
O49 Si7 1.617216 1_565
O50 Si37 1.616188 1_555
O50 Si11 1.617216 1_555
O51 Si37 1.616188 1_555
O51 Si0 1.617216 1_655
O52 Si38 1.616188 1_555
O52 Si17 1.617216 1_555
O53 Si36 1.616188 1_555
O53 Si16 1.617216 1_555
O54 Si34 1.616188 1_555
O54 Si5 1.617216 1_555
O55 Si39 1.616188 1_555
O55 Si6 1.617216 1_555
O56 Si33 1.616188 1_555
O56 Si4 1.617216 1_555
O57 Si39 1.616188 1_555
O57 Si3 1.617216 1_555
O58 Si35 1.616188 1_555
O58 Si23 1.617216 1_555
O59 Si39 1.616188 1_555
O59 Si22 1.617216 1_555
O60 Si42 1.614193 1_555
O60 Si0 1.614536 1_555
O61 Si45 1.614193 1_556
O61 Si1 1.614536 1_555
O62 Si44 1.614193 1_555
O62 Si2 1.614536 1_555
O63 Si41 1.614193 1_565
O63 Si3 1.614536 1_555
O64 Si40 1.614193 1_565
O64 Si4 1.614536 1_555
O65 Si43 1.614193 1_555
O65 Si5 1.614536 1_555
O66 Si43 1.614193 1_655
O66 Si6 1.614536 1_555
O67 Si40 1.614193 1_555
O67 Si7 1.614536 1_555
O68 Si45 1.614193 1_555
O68 Si8 1.614536 1_555
O69 Si44 1.614193 1_555
O69 Si9 1.614536 1_555
O70 Si40 1.614193 1_555
O70 Si10 1.614536 1_555
O71 Si45 1.614193 1_555
O71 Si11 1.614536 1_555
O72 Si41 1.614193 1_555
O72 Si12 1.614536 1_555
O73 Si41 1.614193 1_555
O73 Si13 1.614536 1_555
O74 Si44 1.614193 1_555
O74 Si14 1.614536 1_555
O75 Si43 1.614193 1_555
O75 Si15 1.614536 1_555
O76 Si43 1.614193 1_555
O76 Si16 1.614536 1_555
O77 Si42 1.614193 1_555
O77 Si17 1.614536 1_555
O78 Si42 1.614193 1_655
O78 Si18 1.614536 1_555
O79 Si42 1.614193 1_555
O79 Si19 1.614536 1_555
O80 Si41 1.614193 1_555
O80 Si20 1.614536 1_555
O81 Si40 1.614193 1_555
O81 Si21 1.614536 1_555
O82 Si44 1.614193 1_556
O82 Si22 1.614536 1_555
O83 Si45 1.614193 1_555
O83 Si23 1.614536 1_555
O84 Si31 1.618552 1_555
O84 Si24 1.618552 1_555
O85 Si25 1.618552 1_555
O85 Si30 1.618552 1_555
O86 Si28 1.618552 1_555
O86 Si26 1.618552 1_555
O87 Si27 1.618552 1_555
O87 Si29 1.618552 1_555
O88 Si32 1.618552 1_555
O88 Si39 1.618552 1_555
O89 Si33 1.618552 1_555
O89 Si38 1.618552 1_555
O90 Si34 1.618552 1_555
O90 Si36 1.618552 1_555
O91 Si35 1.618552 1_555
O91 Si37 1.618552 1_555
