# generated using pymatgen
data_RbW3Br7
_symmetry_space_group_name_H-M   'P 1'
_cell_length_a   13.00607260
_cell_length_b   13.00607260
_cell_length_c   9.95482344
_cell_angle_alpha   69.48575628
_cell_angle_beta   69.48575628
_cell_angle_gamma   74.41227075
_symmetry_Int_Tables_number   1
_chemical_formula_structural   RbW3Br7
_chemical_formula_sum   'Rb4 W12 Br28'
_cell_volume   1456.55888248
_cell_formula_units_Z   4
loop_
 _symmetry_equiv_pos_site_id
 _symmetry_equiv_pos_as_xyz
  1  'x, y, z'
loop_
 _atom_site_type_symbol
 _atom_site_label
 _atom_site_symmetry_multiplicity
 _atom_site_fract_x
 _atom_site_fract_y
 _atom_site_fract_z
 _atom_site_occupancy
  Rb  Rb0  1  0.43161290  0.56838710  0.25000000  1
  Rb  Rb1  1  0.56838710  0.43161290  0.75000000  1
  Rb  Rb2  1  0.00000000  0.00000000  0.00000000  1
  Rb  Rb3  1  0.00000000  0.00000000  0.50000000  1
  W  W0  1  0.04569473  0.34709855  0.05404551  1
  W  W1  1  0.65290145  0.95430527  0.44595449  1
  W  W2  1  0.95430527  0.65290145  0.94595449  1
  W  W3  1  0.34709855  0.04569473  0.55404551  1
  W  W4  1  0.06673968  0.51287776  0.13045277  1
  W  W5  1  0.48712224  0.93326032  0.36954723  1
  W  W6  1  0.93326032  0.48712224  0.86954723  1
  W  W7  1  0.51287776  0.06673968  0.63045277  1
  W  W8  1  0.86760271  0.48361811  0.15327400  1
  W  W9  1  0.51638189  0.13239729  0.34672600  1
  W  W10  1  0.13239729  0.51638189  0.84672600  1
  W  W11  1  0.48361811  0.86760271  0.65327400  1
  Br  Br0  1  0.84705990  0.31515060  0.07571183  1
  Br  Br1  1  0.68484940  0.15294010  0.42428817  1
  Br  Br2  1  0.15294010  0.68484940  0.92428917  1
  Br  Br3  1  0.31515060  0.84705990  0.57571183  1
  Br  Br4  1  0.88839431  0.65000968  0.23041085  1
  Br  Br5  1  0.34999032  0.11160569  0.26958915  1
  Br  Br6  1  0.11160569  0.34999032  0.76958915  1
  Br  Br7  1  0.65000968  0.88839431  0.73041085  1
  Br  Br8  1  0.24660024  0.37521554  0.03016626  1
  Br  Br9  1  0.62478446  0.75339976  0.46983374  1
  Br  Br10  1  0.75339976  0.62478446  0.96983374  1
  Br  Br11  1  0.37521554  0.24660024  0.53016626  1
  Br  Br12  1  0.97867705  0.34223036  0.34099164  1
  Br  Br13  1  0.65776964  0.02132295  0.15900836  1
  Br  Br14  1  0.02132295  0.65776964  0.65900836  1
  Br  Br15  1  0.34223036  0.97867705  0.84099164  1
  Br  Br16  1  0.11337296  0.12926034  0.13308882  1
  Br  Br17  1  0.87073966  0.88662704  0.36691118  1
  Br  Br18  1  0.88662704  0.87073966  0.86691118  1
  Br  Br19  1  0.12926034  0.11337296  0.63308882  1
  Br  Br20  1  0.16047275  0.53052935  0.31191367  1
  Br  Br21  1  0.46947065  0.83952725  0.18808633  1
  Br  Br22  1  0.83952725  0.46947065  0.68808633  1
  Br  Br23  1  0.53052935  0.16047275  0.81191367  1
  Br  Br24  1  0.67858319  0.46190159  0.36671800  1
  Br  Br25  1  0.53809841  0.32141681  0.13328200  1
  Br  Br26  1  0.32141681  0.53809841  0.63328200  1
  Br  Br27  1  0.46190159  0.67858319  0.86671800  1
loop_
_geom_bond_atom_site_label_1
_geom_bond_atom_site_label_2
_geom_bond_distance
_geom_bond_site_symmetry_2
Br0 W6 2.643742 1_554
Br0 W0 2.648961 1_655
Br0 W8 2.667100 1_555
Br1 W7 2.643742 1_555
Br1 W1 2.648961 1_545
Br1 W9 2.667100 1_555
Br2 W4 2.643738 1_556
Br2 W2 2.648964 1_455
Br2 W10 2.667106 1_555
Br3 W5 2.643742 1_555
Br3 W3 2.648961 1_565
Br3 W11 2.667100 1_555
Br4 W4 2.637121 1_655
Br4 W8 2.640238 1_555
Br4 W2 2.645032 1_554
Br5 W5 2.637121 1_545
Br5 W9 2.640238 1_555
Br5 W3 2.645032 1_555
Br6 W6 2.637121 1_455
Br6 W10 2.640238 1_555
Br6 W0 2.645032 1_556
Br7 W7 2.637121 1_565
Br7 W11 2.640238 1_555
Br7 W1 2.645032 1_555
Br8 W10 2.645263 1_554
Br8 W0 2.652400 1_555
Br8 W4 2.653231 1_555
Br9 W11 2.645263 1_555
Br9 W1 2.652400 1_555
Br9 W5 2.653231 1_555
Br10 W8 2.645263 1_556
Br10 W2 2.652400 1_555
Br10 W6 2.653231 1_555
Br11 W9 2.645263 1_555
Br11 W3 2.652400 1_555
Br11 W7 2.653231 1_555
Br12 W8 2.648865 1_555
Br12 W4 2.655919 1_655
Br12 W0 2.661046 1_655
Br13 W9 2.648865 1_555
Br13 W5 2.655919 1_545
Br13 W1 2.661046 1_545
Br14 W10 2.648865 1_555
Br14 W6 2.655919 1_455
Br14 W2 2.661046 1_455
Br15 W11 2.648865 1_555
Br15 W7 2.655919 1_565
Br15 W3 2.661046 1_565
Br16 W0 2.646458 1_555
Br16 Rb2 3.319407 1_555
Br16 Rb3 3.405185 1_555
Br17 W1 2.646458 1_555
Br17 Rb3 3.319407 1_665
Br17 Rb2 3.405185 1_665
Br18 W2 2.646458 1_555
Br18 Rb2 3.319407 1_666
Br18 Rb3 3.405185 1_665
Br19 W3 2.646458 1_555
Br19 Rb3 3.319407 1_555
Br19 Rb2 3.405185 1_556
Br20 W4 2.605107 1_555
Br20 Rb0 3.500771 1_555
Br21 W5 2.605107 1_555
Br21 Rb0 3.500771 1_555
Br22 W6 2.605107 1_555
Br22 Rb1 3.500771 1_555
Br23 W7 2.605107 1_555
Br23 Rb1 3.500771 1_555
Br24 W8 2.632432 1_555
Br24 Rb1 3.490645 1_555
Br24 Rb0 3.561313 1_555
Br25 W9 2.632432 1_555
Br25 Rb1 3.490645 1_554
Br25 Rb0 3.561313 1_555
Br26 W10 2.632432 1_555
Br26 Rb0 3.490645 1_555
Br26 Rb1 3.561313 1_555
Br27 W11 2.632432 1_555
Br27 Rb0 3.490645 1_556
Br27 Rb1 3.561313 1_555
