# generated using pymatgen
data_In2(WO4)3
_symmetry_space_group_name_H-M   'P 1'
_cell_length_a   9.80727400
_cell_length_b   16.68321600
_cell_length_c   16.75480728
_cell_angle_alpha   70.83782249
_cell_angle_beta   90.00000000
_cell_angle_gamma   90.00000000
_symmetry_Int_Tables_number   1
_chemical_formula_structural   In2(WO4)3
_chemical_formula_sum   'In16 W24 O96'
_cell_volume   2589.47880161
_cell_formula_units_Z   8
loop_
 _symmetry_equiv_pos_site_id
 _symmetry_equiv_pos_as_xyz
  1  'x, y, z'
loop_
 _atom_site_type_symbol
 _atom_site_label
 _atom_site_symmetry_multiplicity
 _atom_site_fract_x
 _atom_site_fract_y
 _atom_site_fract_z
 _atom_site_occupancy
  In  In0  1  0.54219900  0.67547200  0.95230900  1
  In  In1  1  0.46511500  0.43769500  0.68117300  1
  In  In2  1  0.97336700  0.56668900  0.81537700  1
  In  In3  1  0.02663300  0.43331100  0.18462300  1
  In  In4  1  0.51773900  0.18889400  0.41731000  1
  In  In5  1  0.48226100  0.81110600  0.58269000  1
  In  In6  1  0.04219900  0.82452800  0.04769100  1
  In  In7  1  0.98226100  0.68889400  0.41731000  1
  In  In8  1  0.96511500  0.06230500  0.31882700  1
  In  In9  1  0.45780100  0.32452800  0.04769100  1
  In  In10  1  0.03488500  0.93769500  0.68117300  1
  In  In11  1  0.47336700  0.93331100  0.18462300  1
  In  In12  1  0.53488500  0.56230500  0.31882700  1
  In  In13  1  0.52663300  0.06668900  0.81537700  1
  In  In14  1  0.95780100  0.17547200  0.95230900  1
  In  In15  1  0.01773900  0.31110600  0.58269000  1
  W  W0  1  0.74749400  0.99431000  0.51283300  1
  W  W1  1  0.25485500  0.01784200  0.98049600  1
  W  W2  1  0.13015900  0.36182100  0.78683600  1
  W  W3  1  0.24749400  0.50569000  0.48716700  1
  W  W4  1  0.38738500  0.38889700  0.25088500  1
  W  W5  1  0.61261500  0.61110300  0.74911500  1
  W  W6  1  0.87580400  0.77598300  0.86395100  1
  W  W7  1  0.36984100  0.86182100  0.78683600  1
  W  W8  1  0.12419600  0.22401700  0.13604900  1
  W  W9  1  0.75485500  0.48215800  0.01950400  1
  W  W10  1  0.86984100  0.63817900  0.21316400  1
  W  W11  1  0.62419600  0.27598300  0.86395100  1
  W  W12  1  0.74514500  0.98215800  0.01950400  1
  W  W13  1  0.24514500  0.51784200  0.98049600  1
  W  W14  1  0.37580400  0.72401700  0.13604900  1
  W  W15  1  0.61584200  0.76610200  0.38452400  1
  W  W16  1  0.25250600  0.00569000  0.48716700  1
  W  W17  1  0.11584200  0.73389800  0.61547600  1
  W  W18  1  0.75250600  0.49431000  0.51283300  1
  W  W19  1  0.63015900  0.13817900  0.21316400  1
  W  W20  1  0.11261500  0.88889700  0.25088500  1
  W  W21  1  0.88415800  0.26610200  0.38452400  1
  W  W22  1  0.88738500  0.11110300  0.74911500  1
  W  W23  1  0.38415800  0.23389800  0.61547600  1
  O  O0  1  0.43278100  0.85084800  0.68995600  1
  O  O1  1  0.10858300  0.78526900  0.33173100  1
  O  O2  1  0.80952500  0.99891400  0.40927500  1
  O  O3  1  0.04174100  0.44853900  0.80642600  1
  O  O4  1  0.37735300  0.99862800  0.06517600  1
  O  O5  1  0.11288400  0.00555900  0.41614600  1
  O  O6  1  0.20247700  0.73170000  0.09585100  1
  O  O7  1  0.11541600  0.08082600  0.99965600  1
  O  O8  1  0.92377300  0.12150300  0.85147800  1
  O  O9  1  0.28038400  0.93578300  0.24803300  1
  O  O10  1  0.29752300  0.23170000  0.09585100  1
  O  O11  1  0.57622700  0.62150300  0.85147800  1
  O  O12  1  0.21961600  0.43578300  0.24803300  1
  O  O13  1  0.33862200  0.07445300  0.88153800  1
  O  O14  1  0.60413000  0.23655800  0.12632200  1
  O  O15  1  0.19047500  0.00108600  0.59072500  1
  O  O16  1  0.80712800  0.08371700  0.02408700  1
  O  O17  1  0.09160900  0.31402500  0.17001700  1
  O  O18  1  0.40839100  0.81402500  0.17001700  1
  O  O19  1  0.66137800  0.92554700  0.11846200  1
  O  O20  1  0.54174100  0.05146100  0.19357400  1
  O  O21  1  0.48380600  0.54339700  0.72697100  1
  O  O22  1  0.49815000  0.72115500  0.05533100  1
  O  O23  1  0.14097300  0.41349600  0.49906000  1
  O  O24  1  0.93573100  0.36243900  0.30290200  1
  O  O25  1  0.10413000  0.26344200  0.87367800  1
  O  O26  1  0.50185000  0.27884500  0.94466900  1
  O  O27  1  0.69913900  0.26615000  0.39083400  1
  O  O28  1  0.56426900  0.86243900  0.30290200  1
  O  O29  1  0.83862200  0.42554700  0.11846200  1
  O  O30  1  0.11636700  0.12859600  0.22800200  1
  O  O31  1  0.70247700  0.76830000  0.90414900  1
  O  O32  1  0.45825900  0.94853900  0.80642600  1
  O  O33  1  0.12264700  0.49862800  0.06517600  1
  O  O34  1  0.81248600  0.11877400  0.22441100  1
  O  O35  1  0.19913900  0.23385000  0.60916600  1
  O  O36  1  0.88363300  0.87140400  0.77199800  1
  O  O37  1  0.69287200  0.58371700  0.02408700  1
  O  O38  1  0.95850100  0.26370200  0.48415900  1
  O  O39  1  0.30086100  0.73385000  0.60916600  1
  O  O40  1  0.99815000  0.77884500  0.94466900  1
  O  O41  1  0.55824100  0.67239000  0.36256000  1
  O  O42  1  0.39587000  0.76344200  0.87367800  1
  O  O43  1  0.51619400  0.45660300  0.27302900  1
  O  O44  1  0.56721900  0.14915200  0.31004400  1
  O  O45  1  0.05824100  0.82761000  0.63744000  1
  O  O46  1  0.38458400  0.58082600  0.99965600  1
  O  O47  1  0.34951300  0.10207400  0.44470200  1
  O  O48  1  0.98380600  0.95660300  0.27302900  1
  O  O49  1  0.01619400  0.04339700  0.72697100  1
  O  O50  1  0.45850100  0.23629800  0.51584100  1
  O  O51  1  0.43573100  0.13756100  0.69709800  1
  O  O52  1  0.39141700  0.28526900  0.33173100  1
  O  O53  1  0.89587000  0.73655800  0.12632200  1
  O  O54  1  0.61541600  0.41917400  0.00034400  1
  O  O55  1  0.71961600  0.06421700  0.75196700  1
  O  O56  1  0.38363300  0.62859600  0.22800200  1
  O  O57  1  0.93278100  0.64915200  0.31004400  1
  O  O58  1  0.42377300  0.37849700  0.14852200  1
  O  O59  1  0.61636700  0.37140400  0.77199800  1
  O  O60  1  0.31248600  0.38122600  0.77558900  1
  O  O61  1  0.79752300  0.26830000  0.90414900  1
  O  O62  1  0.95825900  0.55146100  0.19357400  1
  O  O63  1  0.87735300  0.50137200  0.93482400  1
  O  O64  1  0.69047500  0.49891400  0.40927500  1
  O  O65  1  0.38711600  0.50555900  0.41614600  1
  O  O66  1  0.68751400  0.61877400  0.22441100  1
  O  O67  1  0.80086100  0.76615000  0.39083400  1
  O  O68  1  0.06426900  0.63756100  0.69709800  1
  O  O69  1  0.44175900  0.32761000  0.63744000  1
  O  O70  1  0.00185000  0.22115500  0.05533100  1
  O  O71  1  0.30712800  0.41628300  0.97591300  1
  O  O72  1  0.60858300  0.71473100  0.66826900  1
  O  O73  1  0.07622700  0.87849700  0.14852200  1
  O  O74  1  0.54149900  0.76370200  0.48415900  1
  O  O75  1  0.88711600  0.99444100  0.58385400  1
  O  O76  1  0.89141700  0.21473100  0.66826900  1
  O  O77  1  0.04149900  0.73629800  0.51584100  1
  O  O78  1  0.15048700  0.60207400  0.44470200  1
  O  O79  1  0.64097300  0.08650400  0.50094000  1
  O  O80  1  0.65048700  0.89792600  0.55529800  1
  O  O81  1  0.94175900  0.17239000  0.36256000  1
  O  O82  1  0.30952500  0.50108600  0.59072500  1
  O  O83  1  0.16137800  0.57445300  0.88153800  1
  O  O84  1  0.61288400  0.49444100  0.58385400  1
  O  O85  1  0.88458400  0.91917400  0.00034400  1
  O  O86  1  0.19287200  0.91628300  0.97591300  1
  O  O87  1  0.84951300  0.39792600  0.55529800  1
  O  O88  1  0.78038400  0.56421700  0.75196700  1
  O  O89  1  0.35902700  0.91349600  0.49906000  1
  O  O90  1  0.62264700  0.00137200  0.93482400  1
  O  O91  1  0.59160900  0.18597500  0.82998300  1
  O  O92  1  0.90839100  0.68597500  0.82998300  1
  O  O93  1  0.06721900  0.35084800  0.68995600  1
  O  O94  1  0.85902700  0.58650400  0.50094000  1
  O  O95  1  0.18751400  0.88122600  0.77558900  1
loop_
_geom_bond_atom_site_label_1
_geom_bond_atom_site_label_2
_geom_bond_distance
_geom_bond_site_symmetry_2
In0 O22 2.147227 1_556
In0 O42 2.163270 1_555
In0 O46 2.165559 1_555
In0 O31 2.167937 1_555
In0 O37 2.182792 1_556
In0 O11 2.185112 1_555
In1 O21 2.149533 1_555
In1 O59 2.152763 1_555
In1 O84 2.154484 1_555
In1 O60 2.156912 1_555
In1 O82 2.165936 1_555
In1 O69 2.201322 1_555
In2 O3 2.133432 1_655
In2 O68 2.140521 1_655
In2 O63 2.155849 1_555
In2 O83 2.177090 1_655
In2 O88 2.177448 1_555
In2 O92 2.178548 1_555
In3 O62 2.133432 1_455
In3 O24 2.140521 1_455
In3 O33 2.155849 1_555
In3 O29 2.177090 1_455
In3 O12 2.177448 1_555
In3 O17 2.178548 1_555
In4 O50 2.132002 1_555
In4 O47 2.143400 1_555
In4 O27 2.155835 1_555
In4 O52 2.159271 1_555
In4 O44 2.165030 1_555
In4 O79 2.184187 1_555
In5 O74 2.132002 1_555
In5 O80 2.143400 1_555
In5 O39 2.155835 1_555
In5 O72 2.159271 1_555
In5 O0 2.165030 1_555
In5 O89 2.184187 1_555
In6 O40 2.147227 1_454
In6 O53 2.163270 1_455
In6 O85 2.165559 1_455
In6 O6 2.167937 1_555
In6 O86 2.182792 1_554
In6 O73 2.185112 1_555
In7 O77 2.132002 1_655
In7 O78 2.143400 1_655
In7 O67 2.155835 1_555
In7 O1 2.159271 1_655
In7 O57 2.165030 1_555
In7 O94 2.184187 1_555
In8 O48 2.149533 1_545
In8 O30 2.152763 1_655
In8 O5 2.154484 1_655
In8 O34 2.156912 1_555
In8 O2 2.165936 1_545
In8 O81 2.201322 1_555
In9 O26 2.147227 1_554
In9 O14 2.163270 1_555
In9 O54 2.165559 1_555
In9 O10 2.167937 1_555
In9 O71 2.182792 1_554
In9 O58 2.185112 1_555
In10 O49 2.149533 1_565
In10 O36 2.152763 1_455
In10 O75 2.154484 1_455
In10 O95 2.156912 1_555
In10 O15 2.165936 1_565
In10 O45 2.201322 1_555
In11 O20 2.133432 1_565
In11 O28 2.140521 1_555
In11 O4 2.155849 1_555
In11 O19 2.177090 1_555
In11 O9 2.177448 1_555
In11 O18 2.178548 1_555
In12 O43 2.149533 1_555
In12 O56 2.152763 1_555
In12 O65 2.154484 1_555
In12 O66 2.156912 1_555
In12 O64 2.165936 1_555
In12 O41 2.201322 1_555
In13 O32 2.133432 1_545
In13 O51 2.140521 1_555
In13 O90 2.155849 1_555
In13 O13 2.177090 1_555
In13 O55 2.177448 1_555
In13 O91 2.178548 1_555
In14 O70 2.147227 1_656
In14 O25 2.163270 1_655
In14 O7 2.165559 1_655
In14 O61 2.167937 1_555
In14 O16 2.182792 1_556
In14 O8 2.185112 1_555
In15 O38 2.132002 1_455
In15 O87 2.143400 1_455
In15 O35 2.155835 1_555
In15 O76 2.159271 1_455
In15 O93 2.165030 1_555
In15 O23 2.184187 1_555
O0 W7 1.801224 1_555
O1 W20 1.813266 1_555
O2 W0 1.816331 1_555
O3 W2 1.806777 1_555
O4 W1 1.805675 1_564
O5 W16 1.814577 1_555
O6 W14 1.817392 1_555
O7 W1 1.816242 1_555
O8 W22 1.815017 1_555
O9 W20 1.815708 1_555
O10 W8 1.817392 1_555
O11 W5 1.815017 1_555
O12 W4 1.815708 1_555
O13 W1 1.813264 1_555
O14 W19 1.818871 1_555
O15 W16 1.816331 1_555
O16 W12 1.825264 1_545
O17 W8 1.800544 1_555
O18 W14 1.800544 1_555
O19 W12 1.813264 1_555
O20 W19 1.806777 1_555
O21 W5 1.812321 1_555
O22 W14 1.820278 1_555
O23 W3 1.815375 1_555
O24 W21 1.807275 1_555
O25 W2 1.818871 1_555
O26 W11 1.820278 1_555
O27 W21 1.817625 1_555
O28 W15 1.807275 1_555
O29 W9 1.813264 1_555
O30 W8 1.817593 1_555
O31 W6 1.817392 1_555
O32 W7 1.806777 1_555
O33 W13 1.805675 1_554
O34 W19 1.815951 1_555
O35 W23 1.817625 1_555
O36 W6 1.817593 1_555
O37 W9 1.825264 1_555
O38 W21 1.809998 1_555
O39 W17 1.817625 1_555
O40 W6 1.820278 1_555
O41 W15 1.810118 1_555
O42 W7 1.818871 1_555
O43 W4 1.812321 1_555
O44 W19 1.801224 1_555
O45 W17 1.810118 1_555
O46 W13 1.816242 1_555
O47 W16 1.801642 1_555
O48 W20 1.812321 1_655
O49 W22 1.812321 1_455
O50 W23 1.809998 1_555
O51 W23 1.807275 1_555
O52 W4 1.813266 1_555
O53 W10 1.818871 1_555
O54 W9 1.816242 1_555
O55 W22 1.815708 1_555
O56 W14 1.817593 1_555
O57 W10 1.801224 1_555
O58 W4 1.815017 1_555
O59 W11 1.817593 1_555
O60 W2 1.815951 1_555
O61 W11 1.817392 1_555
O62 W10 1.806777 1_555
O63 W9 1.805675 1_556
O64 W18 1.816331 1_555
O65 W3 1.814577 1_555
O66 W10 1.815951 1_555
O67 W15 1.817625 1_555
O68 W17 1.807275 1_555
O69 W23 1.810118 1_555
O70 W8 1.820278 1_555
O71 W13 1.825264 1_555
O72 W5 1.813266 1_555
O73 W20 1.815017 1_555
O74 W15 1.809998 1_555
O75 W0 1.814577 1_555
O76 W22 1.813266 1_555
O77 W17 1.809998 1_555
O78 W3 1.801642 1_555
O79 W0 1.815375 1_545
O80 W0 1.801642 1_555
O81 W21 1.810118 1_555
O82 W3 1.816331 1_555
O83 W13 1.813264 1_555
O84 W18 1.814577 1_555
O85 W12 1.816242 1_555
O86 W1 1.825264 1_565
O87 W18 1.801642 1_555
O88 W5 1.815708 1_555
O89 W16 1.815375 1_565
O90 W12 1.805675 1_546
O91 W11 1.800544 1_555
O92 W6 1.800544 1_555
O93 W2 1.801224 1_555
O94 W18 1.815375 1_555
O95 W7 1.815951 1_555
