# generated using pymatgen
data_K11B62
_symmetry_space_group_name_H-M   'P 1'
_cell_length_a   4.26690400
_cell_length_b   4.26177300
_cell_length_c   46.20387342
_cell_angle_alpha   89.95024365
_cell_angle_beta   90.00000000
_cell_angle_gamma   90.00000000
_symmetry_Int_Tables_number   1
_chemical_formula_structural   K11B62
_chemical_formula_sum   'K11 B62'
_cell_volume   840.19754297
_cell_formula_units_Z   1
loop_
 _symmetry_equiv_pos_site_id
 _symmetry_equiv_pos_as_xyz
  1  'x, y, z'
loop_
 _atom_site_type_symbol
 _atom_site_label
 _atom_site_symmetry_multiplicity
 _atom_site_fract_x
 _atom_site_fract_y
 _atom_site_fract_z
 _atom_site_occupancy
  K  K0  1  0.50000000  0.50470200  0.04544200  1
  K  K1  1  0.50000000  0.50046300  0.22775500  1
  K  K2  1  0.50000000  0.49935400  0.13733000  1
  K  K3  1  0.50000000  0.50005800  0.31823100  1
  K  K4  1  0.50000000  0.49999600  0.49998800  1
  K  K5  1  0.50000000  0.50001100  0.40905400  1
  K  K6  1  0.50000000  0.49996700  0.68192600  1
  K  K7  1  0.50000000  0.49996000  0.59095100  1
  K  K8  1  0.50000000  0.50008900  0.77240300  1
  K  K9  1  0.50000000  0.49945200  0.95378900  1
  K  K10  1  0.50000000  0.50033000  0.86388600  1
  B  B0  1  0.00000000  0.98818300  0.02819600  1
  B  B1  1  0.00000000  0.98186800  0.11998800  1
  B  B2  1  0.00000000  0.30696600  0.18105100  1
  B  B3  1  0.00000000  0.00149600  0.24972500  1
  B  B4  1  0.00000000  0.69399000  0.17970100  1
  B  B5  1  0.00000000  0.00010800  0.29808200  1
  B  B6  1  0.00000000  0.30609700  0.27243600  1
  B  B7  1  0.00000000  0.99994400  0.33587900  1
  B  B8  1  0.00000000  0.99993800  0.39056800  1
  B  B9  1  0.00000000  0.30163200  0.36313900  1
  B  B10  1  0.00000000  0.00004500  0.42699800  1
  B  B11  1  0.00000000  0.69830200  0.36315300  1
  B  B12  1  0.00000000  0.99993300  0.48181600  1
  B  B13  1  0.00000000  0.30040200  0.45447600  1
  B  B14  1  0.00000000  0.69956600  0.45448700  1
  B  B15  1  0.00000000  0.00005200  0.51813400  1
  B  B16  1  0.00000000  0.99992300  0.57275900  1
  B  B17  1  0.00000000  0.99991600  0.66384800  1
  B  B18  1  0.00000000  0.00008500  0.70047800  1
  B  B19  1  0.00000000  0.69989000  0.63644500  1
  B  B20  1  0.00000000  0.99979300  0.75490000  1
  B  B21  1  0.00000000  0.29974600  0.72775700  1
  B  B22  1  0.00000000  0.99987200  0.79198100  1
  B  B23  1  0.00000000  0.70018800  0.72776600  1
  B  B24  1  0.00000000  0.30027800  0.81809400  1
  B  B25  1  0.00000000  0.00051600  0.88528700  1
  B  B26  1  0.00000000  0.69959400  0.81810000  1
  B  B27  1  0.00000000  0.00835200  0.93442400  1
  B  B28  1  0.00000000  0.30540100  0.90880100  1
  B  B29  1  0.00000000  0.98093300  0.97071900  1
  B  B30  1  0.00000000  0.69888700  0.90919000  1
  B  B31  1  0.68429500  0.96791800  0.99907800  1
  B  B32  1  0.68440100  0.96763700  0.09188700  1
  B  B33  1  0.70292500  0.00315300  0.18190200  1
  B  B34  1  0.69439400  0.00034300  0.27238400  1
  B  B35  1  0.69838600  0.99998800  0.36314400  1
  B  B36  1  0.69962000  0.99999000  0.45447900  1
  B  B37  1  0.70009300  0.99998800  0.54546400  1
  B  B38  1  0.69991300  0.99998700  0.63643900  1
  B  B39  1  0.70022900  0.99998300  0.72775500  1
  B  B40  1  0.69579900  0.00030800  0.81762000  1
  B  B41  1  0.69651400  0.00179300  0.90851600  1
  B  B42  1  0.31570500  0.96791800  0.99907800  1
  B  B43  1  0.31559900  0.96763700  0.09188700  1
  B  B44  1  0.29707500  0.00315300  0.18190200  1
  B  B45  1  0.30560600  0.00034300  0.27238400  1
  B  B46  1  0.30161400  0.99998800  0.36314400  1
  B  B47  1  0.30038000  0.99999000  0.45447900  1
  B  B48  1  0.29990700  0.99998800  0.54546400  1
  B  B49  1  0.30008700  0.99998700  0.63643900  1
  B  B50  1  0.30420100  0.00030800  0.81762000  1
  B  B51  1  0.29977100  0.99998300  0.72775500  1
  B  B52  1  0.30348600  0.00179300  0.90851600  1
  B  B53  1  0.00000000  0.00772900  0.15569400  1
  B  B54  1  0.00000000  0.77397000  0.99996700  1
  B  B55  1  0.00000000  0.77460400  0.09079000  1
  B  B56  1  0.00000000  0.98652500  0.06245600  1
  B  B57  1  0.00000000  0.69492400  0.27237100  1
  B  B58  1  0.00000000  0.00006200  0.60911100  1
  B  B59  1  0.00000000  0.29992800  0.54545600  1
  B  B60  1  0.00000000  0.30009000  0.63643400  1
  B  B61  1  0.00000000  0.70006000  0.54546700  1
loop_
_geom_bond_atom_site_label_1
_geom_bond_atom_site_label_2
_geom_bond_distance
_geom_bond_site_symmetry_2
B0 B56 1.582954 1_555
B0 B54 1.592694 1_554
B0 B31 1.905859 1_454
B0 B42 1.905859 1_554
B0 K0 3.070718 1_555
B0 K0 3.070718 1_455
B0 K0 3.167849 1_565
B0 K0 3.167849 1_465
B1 B55 1.613157 1_555
B1 B53 1.653528 1_565
B1 B32 1.871632 1_455
B1 B43 1.871632 1_555
B1 K2 3.069108 1_455
B1 K2 3.069108 1_555
B1 K2 3.171835 1_565
B1 K2 3.171835 1_465
B2 B4 1.650533 1_555
B2 B53 1.732501 1_555
B2 B44 1.812375 1_555
B2 B33 1.812375 1_455
B2 K2 3.049872 1_455
B2 K2 3.049872 1_555
B2 K1 3.145043 1_555
B2 K1 3.145043 1_455
B3 B6 1.669922 1_555
B3 B45 1.672268 1_555
B3 B34 1.672268 1_455
B3 B57 1.673166 1_545
B3 K1 3.178086 1_455
B3 K1 3.178086 1_555
B3 K1 3.185164 1_445
B3 K1 3.185164 1_545
B4 B53 1.736542 1_565
B4 B44 1.831225 1_565
B4 K2 3.012492 1_455
B4 K2 3.012492 1_555
B4 K1 3.187213 1_555
B4 K1 3.187213 1_455
B5 B7 1.746367 1_545
B5 B6 1.761241 1_555
B5 B57 1.762251 1_545
B5 K3 3.155384 1_445
B5 K3 3.155384 1_545
B5 K3 3.156188 1_455
B5 K3 3.156188 1_555
B6 K1 3.081671 1_555
B6 K1 3.081671 1_455
B6 K3 3.116891 1_555
B6 K3 3.116891 1_455
B7 B9 1.800635 1_565
B7 K3 3.123497 1_465
B7 K3 3.123497 1_565
B7 K3 3.123800 1_555
B7 K3 3.123800 1_455
B8 B9 1.804561 1_565
B8 K5 3.133263 1_455
B8 K5 3.133263 1_555
B8 K5 3.134695 1_465
B8 K5 3.134695 1_565
B9 K3 3.093379 1_455
B9 K3 3.093379 1_555
B9 K5 3.125710 1_555
B9 K5 3.125710 1_455
B10 B8 1.683208 1_545
B10 B14 1.802829 1_545
B10 B13 1.803668 1_555
B10 B36 1.804147 1_445
B10 B47 1.804147 1_545
B10 K5 3.126657 1_455
B10 K5 3.126657 1_555
B10 K5 3.127836 1_545
B10 K5 3.127836 1_445
B11 B9 1.690518 1_555
B11 B7 1.799385 1_555
B11 B8 1.805499 1_555
B11 B46 1.819156 1_555
B11 B35 1.819156 1_455
B11 K3 3.094586 1_555
B11 K3 3.094586 1_455
B11 K5 3.124173 1_455
B11 K5 3.124173 1_555
B12 B15 1.678033 1_565
B12 B13 1.797960 1_565
B12 B14 1.798855 1_555
B12 B47 1.799471 1_555
B12 B36 1.799471 1_455
B12 K4 3.129377 1_455
B12 K4 3.129377 1_555
B12 K4 3.130735 1_465
B12 K4 3.130735 1_565
B13 B14 1.701147 1_555
B13 B36 1.811594 1_445
B13 B47 1.811594 1_545
B13 K5 3.110725 1_455
B13 K5 3.110725 1_555
B13 K4 3.114512 1_555
B13 K4 3.114512 1_455
B14 B47 1.811630 1_555
B14 B36 1.811630 1_455
B14 K5 3.112002 1_455
B14 K5 3.112002 1_555
B14 K4 3.113143 1_555
B14 K4 3.113143 1_455
B15 B61 1.796286 1_545
B15 B59 1.797138 1_555
B15 B48 1.797807 1_545
B15 B37 1.797807 1_445
B15 K4 3.129076 1_555
B15 K4 3.129076 1_455
B15 K4 3.130392 1_545
B15 K4 3.130392 1_445
B16 B58 1.679604 1_565
B16 B59 1.795352 1_565
B16 B61 1.796124 1_555
B16 B37 1.796671 1_455
B16 B48 1.796671 1_555
B16 K7 3.129700 1_555
B16 K7 3.129700 1_455
B16 K7 3.130908 1_565
B16 K7 3.130908 1_465
B17 B18 1.692449 1_565
B17 B60 1.799468 1_565
B17 B19 1.800225 1_555
B17 B49 1.800918 1_555
B17 B38 1.800918 1_455
B17 K6 3.128252 1_455
B17 K6 3.128252 1_555
B17 K6 3.129536 1_565
B17 K6 3.129536 1_465
B18 B23 1.794538 1_545
B18 B21 1.795089 1_555
B18 B51 1.795674 1_545
B18 B39 1.795674 1_445
B18 K6 3.133964 1_455
B18 K6 3.133964 1_555
B18 K6 3.135659 1_545
B18 K6 3.135659 1_445
B19 B60 1.703857 1_555
B19 B58 1.796864 1_565
B19 B38 1.809761 1_455
B19 B49 1.809761 1_555
B19 K6 3.112930 1_555
B19 K6 3.112930 1_455
B19 K7 3.114342 1_555
B19 K7 3.114342 1_455
B20 B22 1.713286 1_555
B20 B21 1.790012 1_565
B20 B23 1.790217 1_555
B20 B39 1.791399 1_455
B20 B51 1.791399 1_555
B20 K8 3.120566 1_455
B20 K8 3.120566 1_555
B20 K8 3.123247 1_465
B20 K8 3.123247 1_565
B21 B23 1.706593 1_555
B21 B51 1.807801 1_545
B21 B39 1.807801 1_445
B21 K8 3.088511 1_555
B21 K8 3.088511 1_455
B21 K6 3.124211 1_455
B21 K6 3.124211 1_555
B22 B50 1.757307 1_565
B22 B40 1.757307 1_465
B22 B26 1.758225 1_555
B22 B24 1.759957 1_565
B22 K8 3.148010 1_455
B22 K8 3.148010 1_555
B22 K8 3.148198 1_465
B22 K8 3.148198 1_565
B23 B39 1.807897 1_455
B23 B51 1.807897 1_555
B23 K8 3.086955 1_555
B23 K8 3.086955 1_455
B23 K6 3.125497 1_455
B23 K6 3.125497 1_555
B24 B26 1.701794 1_555
B24 B50 1.821988 1_555
B24 B40 1.821988 1_455
B24 K8 3.119356 1_455
B24 K8 3.119356 1_555
B24 K10 3.123797 1_555
B24 K10 3.123797 1_455
B25 B52 1.681913 1_555
B25 B41 1.681913 1_455
B25 B30 1.694020 1_545
B25 B28 1.694435 1_555
B25 K10 3.172224 1_455
B25 K10 3.172224 1_555
B25 K10 3.174441 1_545
B25 K10 3.174441 1_445
B26 B40 1.824191 1_465
B26 B50 1.824191 1_565
B26 K8 3.120188 1_555
B26 K8 3.120188 1_455
B26 K10 3.121693 1_555
B26 K10 3.121693 1_455
B27 B29 1.680935 1_545
B27 B28 1.732517 1_555
B27 B30 1.761088 1_545
B27 B52 1.763704 1_555
B27 B41 1.763704 1_455
B27 K9 3.120239 1_455
B27 K9 3.120239 1_555
B27 K9 3.170578 1_545
B27 K9 3.170578 1_445
B28 B30 1.677060 1_555
B28 B52 1.830652 1_555
B28 B41 1.830652 1_455
B28 K10 3.089564 1_455
B28 K10 3.089564 1_555
B28 K9 3.091795 1_455
B28 K9 3.091795 1_555
B29 B54 1.613105 1_555
B29 B31 1.880015 1_455
B29 B42 1.880015 1_555
B29 K9 3.062163 1_455
B29 K9 3.062163 1_555
B29 K9 3.169190 1_465
B29 K9 3.169190 1_565
B30 B52 1.828729 1_565
B30 B41 1.828729 1_465
B30 K9 3.085004 1_455
B30 K9 3.085004 1_555
B30 K10 3.106820 1_555
B30 K10 3.106820 1_455
B31 B42 1.572738 1_555
B31 B54 1.580970 1_655
B31 K9 2.998383 1_555
B31 K0 3.016155 1_556
B31 K9 3.181241 1_565
B31 K0 3.232529 1_566
B32 B43 1.573643 1_555
B32 B55 1.578870 1_655
B32 B56 1.915419 1_655
B32 K2 3.000532 1_555
B32 K0 3.020583 1_555
B32 K2 3.189179 1_565
B32 K0 3.233333 1_565
B33 B44 1.731723 1_555
B33 B53 1.753120 1_655
B33 B4 1.831225 1_645
B33 K2 3.074933 1_555
B33 K2 3.099752 1_545
B33 K1 3.120557 1_555
B33 K1 3.133673 1_545
B34 B45 1.658921 1_555
B34 B5 1.763572 1_655
B34 B57 1.842451 1_645
B34 B6 1.843463 1_655
B34 K1 3.078182 1_555
B34 K1 3.079953 1_545
B34 K3 3.116609 1_545
B34 K3 3.117463 1_555
B35 B46 1.692988 1_555
B35 B7 1.800896 1_655
B35 B8 1.806043 1_655
B35 B9 1.819030 1_665
B35 K3 3.091454 1_565
B35 K3 3.093526 1_555
B35 K5 3.122264 1_555
B35 K5 3.124911 1_565
B36 B47 1.703519 1_555
B36 K5 3.108664 1_565
B36 K5 3.111039 1_555
B36 K4 3.111205 1_555
B36 K4 3.113740 1_565
B37 B48 1.707555 1_555
B37 B61 1.808708 1_655
B37 B59 1.808744 1_665
B37 K4 3.110769 1_565
B37 K7 3.111171 1_555
B37 K4 3.113222 1_555
B37 K7 3.113507 1_565
B38 B49 1.706019 1_555
B38 B58 1.798288 1_665
B38 B60 1.809779 1_665
B38 K7 3.110831 1_565
B38 K6 3.110937 1_555
B38 K6 3.113319 1_565
B38 K7 3.113488 1_555
B39 B51 1.708716 1_555
B39 K8 3.084906 1_555
B39 K8 3.088004 1_565
B39 K6 3.121889 1_565
B39 K6 3.124491 1_555
B40 B50 1.670911 1_555
B40 K8 3.097050 1_555
B40 K8 3.100828 1_545
B40 K10 3.130492 1_545
B40 K10 3.133146 1_555
B41 B52 1.677013 1_555
B41 K10 3.076003 1_555
B41 K10 3.087103 1_545
B41 K9 3.095906 1_555
B41 K9 3.107119 1_545
B42 B54 1.580970 1_555
B42 K9 2.998383 1_555
B42 K0 3.016155 1_556
B42 K9 3.181241 1_565
B42 K0 3.232529 1_566
B43 B55 1.578870 1_555
B43 B56 1.915419 1_555
B43 K2 3.000532 1_555
B43 K0 3.020583 1_555
B43 K2 3.189179 1_565
B43 K0 3.233333 1_565
B44 B53 1.753120 1_555
B44 K2 3.074933 1_555
B44 K2 3.099752 1_545
B44 K1 3.120557 1_555
B44 K1 3.133673 1_545
B45 B5 1.763572 1_555
B45 B57 1.842451 1_545
B45 B6 1.843463 1_555
B45 K1 3.078182 1_555
B45 K1 3.079953 1_545
B45 K3 3.116609 1_545
B45 K3 3.117463 1_555
B46 B7 1.800896 1_555
B46 B8 1.806043 1_555
B46 B9 1.819030 1_565
B46 K3 3.091454 1_565
B46 K3 3.093526 1_555
B46 K5 3.122264 1_555
B46 K5 3.124911 1_565
B47 K5 3.108664 1_565
B47 K5 3.111039 1_555
B47 K4 3.111205 1_555
B47 K4 3.113740 1_565
B48 B61 1.808708 1_555
B48 B59 1.808744 1_565
B48 K4 3.110769 1_565
B48 K7 3.111171 1_555
B48 K4 3.113222 1_555
B48 K7 3.113507 1_565
B49 B58 1.798288 1_565
B49 B60 1.809779 1_565
B49 K7 3.110831 1_565
B49 K6 3.110937 1_555
B49 K6 3.113319 1_565
B49 K7 3.113488 1_555
B50 K8 3.097050 1_555
B50 K8 3.100828 1_545
B50 K10 3.130492 1_545
B50 K10 3.133146 1_555
B51 K8 3.084906 1_555
B51 K8 3.088004 1_565
B51 K6 3.121889 1_565
B51 K6 3.124491 1_555
B52 K10 3.076003 1_555
B52 K10 3.087103 1_545
B52 K9 3.095906 1_555
B52 K9 3.107119 1_545
B53 K2 3.107781 1_555
B53 K2 3.107781 1_455
B53 K2 3.157342 1_545
B53 K2 3.157342 1_445
B54 K0 3.206093 1_456
B54 K0 3.206093 1_556
B54 K9 3.236813 1_455
B54 K9 3.236813 1_555
B55 B56 1.589809 1_555
B55 K0 3.204526 1_455
B55 K0 3.204526 1_555
B55 K2 3.247646 1_455
B55 K2 3.247646 1_555
B56 K0 3.064136 1_455
B56 K0 3.064136 1_555
B56 K0 3.169132 1_465
B56 K0 3.169132 1_565
B57 B6 1.657093 1_555
B57 K1 3.080732 1_455
B57 K1 3.080732 1_555
B57 K3 3.118979 1_555
B57 K3 3.118979 1_455
B58 B60 1.797631 1_555
B58 K7 3.129115 1_455
B58 K7 3.129115 1_555
B58 K7 3.130699 1_545
B58 K7 3.130699 1_445
B59 B61 1.705272 1_555
B59 K4 3.112693 1_455
B59 K4 3.112693 1_555
B59 K7 3.114493 1_455
B59 K7 3.114493 1_555
B60 K7 3.112930 1_555
B60 K7 3.112930 1_455
B60 K6 3.114218 1_555
B60 K6 3.114218 1_455
B61 K7 3.113229 1_555
B61 K7 3.113229 1_455
B61 K4 3.114031 1_455
B61 K4 3.114031 1_555
