# generated using pymatgen
data_Sm2B4O9
_symmetry_space_group_name_H-M   'P 1'
_cell_length_a   4.48436600
_cell_length_b   13.04805719
_cell_length_c   25.16035980
_cell_angle_alpha   99.72965883
_cell_angle_beta   90.02227125
_cell_angle_gamma   99.89330162
_symmetry_Int_Tables_number   1
_chemical_formula_structural   Sm2B4O9
_chemical_formula_sum   'Sm20 B40 O90'
_cell_volume   1428.77984269
_cell_formula_units_Z   10
loop_
 _symmetry_equiv_pos_site_id
 _symmetry_equiv_pos_as_xyz
  1  'x, y, z'
loop_
 _atom_site_type_symbol
 _atom_site_label
 _atom_site_symmetry_multiplicity
 _atom_site_fract_x
 _atom_site_fract_y
 _atom_site_fract_z
 _atom_site_occupancy
  Sm  Sm0  1  0.26189100  0.12843700  0.07063500  1
  Sm  Sm1  1  0.18029700  0.71769800  0.70827900  1
  Sm  Sm2  1  0.92073600  0.31023300  0.45947300  1
  Sm  Sm3  1  0.57739800  0.56884400  0.86962000  1
  Sm  Sm4  1  0.34177500  0.02407500  0.67834000  1
  Sm  Sm5  1  0.65698100  0.97476200  0.32104700  1
  Sm  Sm6  1  0.53358500  0.71812900  0.20815900  1
  Sm  Sm7  1  0.42301900  0.43072300  0.12994900  1
  Sm  Sm8  1  0.46382300  0.28159400  0.79224700  1
  Sm  Sm9  1  0.38586300  0.30924800  0.96034800  1
  Sm  Sm10  1  0.73514400  0.87145400  0.92872700  1
  Sm  Sm11  1  0.12905200  0.87236500  0.42975900  1
  Sm  Sm12  1  0.68021800  0.02347100  0.17803900  1
  Sm  Sm13  1  0.31597300  0.97579700  0.82120300  1
  Sm  Sm14  1  0.07545100  0.69087400  0.54041500  1
  Sm  Sm15  1  0.99079500  0.56961200  0.37075300  1
  Sm  Sm16  1  0.61806400  0.69036500  0.03879200  1
  Sm  Sm17  1  0.00651800  0.43025700  0.62983000  1
  Sm  Sm18  1  0.81593700  0.28157900  0.29190600  1
  Sm  Sm19  1  0.86497700  0.12831600  0.57043100  1
  B  B0  1  0.76863600  0.14619900  0.96886300  1
  B  B1  1  0.56818000  0.70445300  0.44184100  1
  B  B2  1  0.92102700  0.49727400  0.21808700  1
  B  B3  1  0.22527800  0.10386300  0.27470700  1
  B  B4  1  0.07847100  0.50338600  0.78202500  1
  B  B5  1  0.07368100  0.80245400  0.30866700  1
  B  B6  1  0.63902100  0.60907400  0.63377800  1
  B  B7  1  0.84620200  0.06235000  0.43405000  1
  B  B8  1  0.96791000  0.48385300  0.03849100  1
  B  B9  1  0.92263300  0.19665300  0.69137300  1
  B  B10  1  0.54390000  0.70941400  0.33769500  1
  B  B11  1  0.12141800  0.89561600  0.22502400  1
  B  B12  1  0.42416800  0.50343400  0.28185900  1
  B  B13  1  0.42758200  0.29539900  0.55821600  1
  B  B14  1  0.03671900  0.81552200  0.12391900  1
  B  B15  1  0.72778300  0.80279500  0.80779200  1
  B  B16  1  0.02985900  0.39070300  0.86679100  1
  B  B17  1  0.27223700  0.19661800  0.19133500  1
  B  B18  1  0.03364300  0.51597800  0.96094700  1
  B  B19  1  0.35797300  0.39127400  0.36660100  1
  B  B20  1  0.57535300  0.49709500  0.71828900  1
  B  B21  1  0.37436200  0.14744400  0.46890400  1
  B  B22  1  0.95655200  0.18343900  0.87612300  1
  B  B23  1  0.62388300  0.85242500  0.53084300  1
  B  B24  1  0.21139700  0.06157300  0.93402700  1
  B  B25  1  0.15326000  0.93730100  0.56533100  1
  B  B26  1  0.22615700  0.85278500  0.03116600  1
  B  B27  1  0.51534200  0.48428000  0.53913600  1
  B  B28  1  0.83761100  0.29023100  0.16223700  1
  B  B29  1  0.78247200  0.93794400  0.06565200  1
  B  B30  1  0.86724500  0.29480400  0.05813200  1
  B  B31  1  0.13463100  0.70552800  0.94129100  1
  B  B32  1  0.77620500  0.81626800  0.62379700  1
  B  B33  1  0.48083200  0.51626600  0.46169300  1
  B  B34  1  0.77466700  0.89599200  0.72477500  1
  B  B35  1  0.22278200  0.18350300  0.37583000  1
  B  B36  1  0.87523600  0.10388400  0.77490600  1
  B  B37  1  0.45147400  0.29041600  0.66237600  1
  B  B38  1  0.16490800  0.71022600  0.83735200  1
  B  B39  1  0.96851800  0.60887700  0.13352500  1
  O  O0  1  0.55466600  0.87326700  0.02208800  1
  O  O1  1  0.44441800  0.69507900  0.94424900  1
  O  O2  1  0.15287700  0.28610100  0.36373500  1
  O  O3  1  0.92057500  0.60287800  0.94427100  1
  O  O4  1  0.79254600  0.87436800  0.11112800  1
  O  O5  1  0.04882800  0.74165100  0.89126500  1
  O  O6  1  0.77409500  0.90653200  0.84028400  1
  O  O7  1  0.04366400  0.78538300  0.98444600  1
  O  O8  1  0.65823700  0.44797500  0.48667000  1
  O  O9  1  0.31676300  0.87333500  0.52174900  1
  O  O10  1  0.76644700  0.46247800  0.75804400  1
  O  O11  1  0.30320900  0.25988300  0.60850600  1
  O  O12  1  0.67086600  0.39470600  0.36753400  1
  O  O13  1  0.72087800  0.39397400  0.86750200  1
  O  O14  1  0.77129700  0.27034900  0.66429000  1
  O  O15  1  0.27748600  0.60508800  0.13320400  1
  O  O16  1  0.86573700  0.71343700  0.13604200  1
  O  O17  1  0.07979600  0.87328500  0.61053900  1
  O  O18  1  0.13010100  0.90596000  0.34132900  1
  O  O19  1  0.59127500  0.78474200  0.57371100  1
  O  O20  1  0.18164200  0.42523400  0.81384500  1
  O  O21  1  0.47051600  0.40745400  0.67278900  1
  O  O22  1  0.25611800  0.45765000  0.41855600  1
  O  O23  1  0.90821100  0.10342500  0.27367400  1
  O  O24  1  0.69088900  0.74043400  0.39167200  1
  O  O25  1  0.93845800  0.40747000  0.17288200  1
  O  O26  1  0.75217100  0.13039400  0.83049400  1
  O  O27  1  0.67392900  0.95987500  0.41508500  1
  O  O28  1  0.73938600  0.54196900  0.58225800  1
  O  O29  1  0.31259900  0.99974500  0.24972100  1
  O  O30  1  0.68297700  0.12704200  0.47777400  1
  O  O31  1  0.78675900  0.44837400  0.98611800  1
  O  O32  1  0.73873700  0.78443200  0.48492600  1
  O  O33  1  0.23155100  0.53864700  0.24266100  1
  O  O34  1  0.71203500  0.04035000  0.08455300  1
  O  O35  1  0.55762700  0.30535300  0.05533900  1
  O  O36  1  0.80509600  0.21493800  0.92643000  1
  O  O37  1  0.33765600  0.55266200  0.51417400  1
  O  O38  1  0.80484400  0.89627300  0.22616800  1
  O  O39  1  0.08283900  0.39703500  0.05454800  1
  O  O40  1  0.12904400  0.28561500  0.86376500  1
  O  O41  1  0.28151100  0.95911100  0.91461500  1
  O  O42  1  0.75627200  0.57532300  0.68686000  1
  O  O43  1  0.24204400  0.42514400  0.31369300  1
  O  O44  1  0.74724000  0.30606600  0.55523600  1
  O  O45  1  0.02947100  0.76391300  0.80021600  1
  O  O46  1  0.32623600  0.03974200  0.58477500  1
  O  O47  1  0.53194400  0.59270600  0.32714500  1
  O  O48  1  0.80256000  0.54179600  0.08171900  1
  O  O49  1  0.95781200  0.26044700  0.10847000  1
  O  O50  1  0.32587500  0.60577900  0.63321400  1
  O  O51  1  0.50441600  0.72792200  0.83437900  1
  O  O52  1  0.97277400  0.23656000  0.19937800  1
  O  O53  1  0.38090800  0.19075600  0.24581400  1
  O  O54  1  0.30462700  0.53784900  0.74261400  1
  O  O55  1  0.31383200  0.39747200  0.55538400  1
  O  O56  1  0.49800000  0.27057600  0.16434700  1
  O  O57  1  0.06189200  0.59334100  0.82709100  1
  O  O58  1  0.18808700  0.78388800  0.07332600  1
  O  O59  1  0.81779400  0.57547300  0.18652700  1
  O  O60  1  0.19216400  0.10417100  0.77397500  1
  O  O61  1  0.09076700  0.94685600  0.04318000  1
  O  O62  1  0.21404000  0.55208500  0.01327300  1
  O  O63  1  0.61964800  0.80834000  0.75319500  1
  O  O64  1  0.37362300  0.13027200  0.33039800  1
  O  O65  1  0.69188400  0.46168100  0.25703200  1
  O  O66  1  0.19924100  0.45750700  0.91798400  1
  O  O67  1  0.62814700  0.87070500  0.66916700  1
  O  O68  1  0.40630300  0.21564300  0.42623300  1
  O  O69  1  0.95340000  0.21362900  0.01517100  1
  O  O70  1  0.25860200  0.21500400  0.51527800  1
  O  O71  1  0.87077000  0.09297900  0.65887900  1
  O  O72  1  0.68612200  0.99966000  0.74998000  1
  O  O73  1  0.73312500  0.76353200  0.30056800  1
  O  O74  1  0.92026200  0.12529600  0.38865300  1
  O  O75  1  0.43982200  0.12540300  0.97774900  1
  O  O76  1  0.22181500  0.72684000  0.33468500  1
  O  O77  1  0.22232700  0.09269900  0.15878800  1
  O  O78  1  0.09204700  0.89671500  0.72635100  1
  O  O79  1  0.24243200  0.86835500  0.16943600  1
  O  O80  1  0.80483600  0.19024900  0.74566700  1
  O  O81  1  0.24830900  0.69405000  0.44487900  1
  O  O82  1  0.14488800  0.05356400  0.45717300  1
  O  O83  1  0.90364700  0.05190800  0.95669300  1
  O  O84  1  0.85476800  0.94660900  0.54254700  1
  O  O85  1  0.19099200  0.80961800  0.25435300  1
  O  O86  1  0.26170200  0.23781500  0.69981200  1
  O  O87  1  0.84414400  0.71401900  0.63632800  1
  O  O88  1  0.20105600  0.12520500  0.88889500  1
  O  O89  1  0.68102500  0.60230500  0.44502700  1
loop_
_geom_bond_atom_site_label_1
_geom_bond_atom_site_label_2
_geom_bond_distance
_geom_bond_site_symmetry_2
B0 O83 1.450090 1_555
B0 O75 1.476856 1_555
B0 O69 1.490093 1_556
B0 O36 1.498137 1_555
B1 O81 1.420743 1_555
B1 O32 1.480495 1_555
B1 O24 1.492852 1_555
B1 O89 1.518812 1_555
B2 O65 1.490746 1_555
B2 O33 1.496988 1_655
B2 O25 1.501282 1_555
B2 O59 1.523754 1_555
B3 O23 1.421084 1_455
B3 O64 1.510616 1_555
B3 O29 1.512776 1_545
B3 O53 1.519236 1_555
B4 O54 1.486198 1_555
B4 O10 1.496881 1_455
B4 O57 1.499694 1_555
B4 O20 1.527299 1_555
B5 O18 1.438967 1_555
B5 O85 1.476417 1_555
B5 O76 1.512082 1_555
B5 O73 1.526427 1_455
B6 O50 1.397509 1_555
B6 O87 1.504237 1_555
B6 O28 1.549762 1_555
B6 O42 1.591209 1_555
B7 O27 1.428791 1_545
B7 O82 1.490085 1_655
B7 O74 1.520904 1_555
B7 O30 1.535445 1_555
B8 O39 1.437787 1_655
B8 O48 1.489859 1_555
B8 O62 1.505740 1_655
B8 O31 1.508101 1_554
B9 O71 1.438869 1_555
B9 O80 1.475165 1_555
B9 O14 1.514894 1_555
B9 O86 1.525148 1_655
B10 O73 1.452217 1_555
B10 O24 1.471232 1_555
B10 O47 1.492515 1_555
B10 O76 1.504048 1_555
B11 O38 1.421405 1_455
B11 O79 1.508611 1_555
B11 O29 1.510330 1_555
B11 O85 1.516905 1_555
B12 O33 1.489540 1_555
B12 O65 1.496193 1_555
B12 O47 1.498729 1_555
B12 O43 1.530505 1_555
B13 O44 1.419459 1_555
B13 O70 1.478143 1_555
B13 O11 1.495582 1_555
B13 O55 1.518095 1_555
B14 O79 1.466822 1_555
B14 O58 1.473383 1_555
B14 O16 1.497246 1_455
B14 O4 1.504732 1_455
B15 O6 1.439740 1_555
B15 O63 1.473943 1_555
B15 O51 1.513398 1_555
B15 O45 1.525573 1_655
B16 O13 1.393581 1_455
B16 O40 1.502702 1_555
B16 O66 1.545322 1_555
B16 O20 1.593450 1_555
B17 O77 1.442056 1_555
B17 O53 1.473060 1_555
B17 O56 1.517754 1_555
B17 O52 1.523486 1_455
B18 O3 1.441180 1_455
B18 O66 1.489486 1_555
B18 O31 1.502890 1_455
B18 O62 1.506063 1_556
B19 O12 1.396191 1_555
B19 O2 1.505691 1_555
B19 O22 1.556033 1_555
B19 O43 1.585837 1_555
B20 O10 1.491276 1_555
B20 O54 1.497878 1_555
B20 O21 1.502559 1_555
B20 O42 1.521235 1_555
B21 O82 1.446017 1_555
B21 O30 1.477297 1_555
B21 O70 1.489303 1_555
B21 O68 1.498088 1_555
B22 O26 1.466180 1_555
B22 O36 1.467335 1_555
B22 O88 1.500452 1_655
B22 O40 1.502783 1_655
B23 O84 1.452298 1_555
B23 O9 1.474298 1_555
B23 O32 1.482598 1_555
B23 O19 1.497440 1_555
B24 O41 1.431309 1_545
B24 O83 1.486882 1_455
B24 O88 1.520792 1_555
B24 O75 1.532760 1_555
B25 O46 1.431808 1_565
B25 O84 1.487911 1_455
B25 O17 1.525413 1_555
B25 O9 1.529109 1_555
B26 O61 1.448248 1_555
B26 O0 1.476273 1_555
B26 O7 1.492472 1_554
B26 O58 1.494064 1_555
B27 O55 1.439351 1_555
B27 O28 1.488759 1_555
B27 O37 1.502928 1_555
B27 O8 1.507047 1_555
B28 O52 1.448334 1_555
B28 O49 1.471900 1_555
B28 O25 1.496683 1_555
B28 O56 1.502794 1_555
B29 O34 1.428889 1_565
B29 O61 1.487319 1_655
B29 O4 1.527420 1_555
B29 O0 1.532129 1_555
B30 O35 1.421448 1_555
B30 O69 1.481037 1_555
B30 O49 1.491328 1_555
B30 O39 1.523069 1_655
B31 O1 1.422122 1_555
B31 O7 1.481563 1_555
B31 O5 1.488934 1_555
B31 O3 1.520918 1_455
B32 O67 1.461853 1_555
B32 O19 1.466885 1_555
B32 O87 1.501318 1_555
B32 O17 1.501463 1_655
B33 O89 1.433588 1_555
B33 O22 1.494029 1_555
B33 O8 1.501431 1_555
B33 O37 1.508247 1_555
B34 O78 1.422151 1_655
B34 O67 1.505611 1_555
B34 O72 1.511408 1_555
B34 O63 1.518612 1_555
B35 O64 1.462978 1_555
B35 O68 1.470448 1_555
B35 O74 1.500139 1_455
B35 O2 1.504937 1_555
B36 O60 1.420795 1_655
B36 O72 1.508944 1_545
B36 O26 1.510962 1_555
B36 O80 1.520867 1_555
B37 O86 1.449441 1_555
B37 O11 1.470925 1_555
B37 O21 1.492637 1_555
B37 O14 1.503684 1_555
B38 O45 1.448998 1_555
B38 O5 1.471396 1_555
B38 O57 1.493579 1_555
B38 O51 1.503987 1_555
B39 O15 1.394849 1_655
B39 O16 1.504883 1_555
B39 O48 1.552018 1_555
B39 O59 1.587796 1_555
O0 Sm10 2.482465 1_554
O0 Sm16 2.554405 1_555
O1 Sm3 2.426393 1_555
O1 Sm16 2.516546 1_556
O1 Sm10 2.534090 1_555
O2 Sm18 2.341755 1_455
O2 Sm2 2.615988 1_455
O3 Sm3 2.360999 1_555
O3 Sm16 2.901066 1_556
O4 Sm12 2.470482 1_565
O4 Sm16 2.750508 1_555
O5 Sm10 2.452716 1_455
O6 Sm10 2.347095 1_555
O6 Sm13 2.460019 1_555
O6 Sm13 2.518926 1_655
O7 Sm10 2.491044 1_455
O7 Sm16 2.609840 1_456
O8 Sm2 2.322930 1_555
O9 Sm11 2.459790 1_555
O9 Sm14 2.559810 1_555
O10 Sm8 2.781992 1_555
O11 Sm19 2.451560 1_455
O12 Sm18 2.367360 1_555
O12 Sm15 2.466891 1_555
O12 Sm2 3.017538 1_555
O13 Sm8 2.354380 1_555
O13 Sm3 2.467073 1_555
O13 Sm9 3.039922 1_555
O14 Sm17 2.464487 1_655
O14 Sm19 2.824338 1_555
O15 Sm6 2.350977 1_555
O15 Sm7 2.460914 1_555
O15 Sm16 3.086362 1_555
O16 Sm6 2.347465 1_555
O16 Sm16 2.635385 1_555
O17 Sm4 2.496216 1_565
O17 Sm14 2.709775 1_555
O18 Sm11 2.339110 1_555
O18 Sm5 2.464894 1_555
O18 Sm5 2.525114 1_455
O19 Sm14 2.496139 1_555
O19 Sm14 2.735791 1_655
O20 Sm8 2.424976 1_555
O20 Sm3 2.568402 1_555
O21 Sm17 2.430215 1_555
O21 Sm17 2.626632 1_655
O22 Sm15 2.487262 1_455
O22 Sm2 2.588067 1_455
O23 Sm5 2.352819 1_545
O23 Sm18 2.399063 1_555
O23 Sm12 2.589714 1_555
O24 Sm11 2.453794 1_655
O25 Sm7 2.422120 1_655
O25 Sm7 2.636547 1_555
O26 Sm13 2.536593 1_545
O26 Sm8 2.829765 1_555
O27 Sm5 2.408709 1_555
O27 Sm11 2.558950 1_655
O27 Sm11 2.568056 1_555
O28 Sm17 2.486144 1_655
O28 Sm14 2.615512 1_655
O29 Sm5 2.465835 1_555
O29 Sm12 2.466161 1_565
O30 Sm19 2.466177 1_555
O30 Sm2 2.561040 1_555
O31 Sm9 2.329717 1_555
O32 Sm11 2.481273 1_655
O32 Sm14 2.631949 1_655
O33 Sm6 2.769584 1_555
O34 Sm12 2.401247 1_555
O34 Sm0 2.539922 1_555
O34 Sm0 2.585821 1_655
O35 Sm7 2.422090 1_555
O35 Sm9 2.522119 1_554
O35 Sm0 2.546437 1_555
O36 Sm9 2.493632 1_555
O36 Sm9 2.750883 1_655
O37 Sm14 2.323258 1_555
O38 Sm12 2.351763 1_565
O38 Sm6 2.399992 1_555
O38 Sm5 2.568155 1_555
O39 Sm7 2.367459 1_555
O39 Sm9 2.897540 1_554
O40 Sm8 2.343445 1_555
O40 Sm9 2.636124 1_555
O41 Sm13 2.399328 1_555
O41 Sm10 2.551207 1_555
O41 Sm10 2.571432 1_455
O42 Sm1 2.409182 1_655
O42 Sm17 2.591177 1_655
O43 Sm18 2.425465 1_455
O43 Sm15 2.588478 1_455
O44 Sm17 2.413105 1_655
O44 Sm2 2.538667 1_555
O44 Sm19 2.554283 1_555
O45 Sm1 2.416968 1_555
O45 Sm13 2.803281 1_555
O46 Sm4 2.399165 1_555
O46 Sm19 2.546522 1_555
O46 Sm19 2.589652 1_455
O47 Sm15 2.419016 1_555
O47 Sm15 2.654449 1_455
O48 Sm7 2.493632 1_555
O48 Sm16 2.620509 1_555
O49 Sm0 2.446715 1_655
O50 Sm1 2.349916 1_555
O50 Sm17 2.471894 1_555
O50 Sm14 3.041079 1_555
O51 Sm3 2.461085 1_555
O51 Sm10 2.835949 1_555
O52 Sm18 2.437310 1_555
O52 Sm12 2.825150 1_555
O53 Sm18 2.300935 1_555
O54 Sm1 2.774613 1_555
O55 Sm17 2.350403 1_555
O55 Sm2 2.933460 1_455
O56 Sm7 2.465974 1_555
O56 Sm0 2.822291 1_555
O57 Sm3 2.417921 1_455
O57 Sm3 2.637953 1_555
O58 Sm16 2.532468 1_555
O58 Sm16 2.710390 1_455
O59 Sm6 2.420461 1_555
O59 Sm7 2.582243 1_555
O60 Sm13 2.348996 1_545
O60 Sm8 2.392799 1_555
O60 Sm4 2.593149 1_555
O61 Sm0 2.345458 1_565
O62 Sm16 2.331202 1_555
O63 Sm1 2.302920 1_555
O64 Sm5 2.551883 1_545
O64 Sm18 2.841134 1_555
O65 Sm18 2.783446 1_555
O66 Sm3 2.493883 1_555
O66 Sm9 2.613679 1_555
O67 Sm4 2.536605 1_565
O67 Sm1 2.876692 1_555
O68 Sm2 2.493147 1_555
O68 Sm2 2.745921 1_455
O69 Sm0 2.479520 1_655
O69 Sm9 2.640561 1_654
O70 Sm19 2.483378 1_455
O70 Sm2 2.654409 1_455
O71 Sm19 2.348720 1_555
O71 Sm4 2.468249 1_555
O71 Sm4 2.511934 1_655
O72 Sm13 2.465100 1_555
O72 Sm4 2.468987 1_565
O73 Sm6 2.430666 1_555
O73 Sm5 2.796770 1_555
O74 Sm5 2.493508 1_545
O74 Sm2 2.746424 1_555
O75 Sm0 2.465976 1_556
O75 Sm9 2.561040 1_555
O76 Sm15 2.450547 1_455
O77 Sm0 2.343018 1_555
O77 Sm12 2.459929 1_555
O77 Sm12 2.520832 1_455
O78 Sm4 2.348395 1_565
O78 Sm1 2.403797 1_555
O78 Sm13 2.564814 1_555
O79 Sm12 2.546294 1_565
O79 Sm6 2.831973 1_555
O80 Sm8 2.299606 1_555
O81 Sm15 2.403894 1_455
O81 Sm14 2.530719 1_555
O81 Sm11 2.563333 1_555
O82 Sm11 2.337040 1_545
O83 Sm10 2.332021 1_545
O84 Sm19 2.348624 1_565
O85 Sm6 2.301909 1_555
O86 Sm8 2.434773 1_555
O86 Sm4 2.834383 1_555
O87 Sm1 2.344255 1_655
O87 Sm14 2.618004 1_655
O88 Sm13 2.488060 1_545
O88 Sm9 2.746150 1_555
O89 Sm15 2.353740 1_555
O89 Sm14 2.929307 1_655
