# generated using pymatgen
data_Sr16Fe16O41
_symmetry_space_group_name_H-M   'P 1'
_cell_length_a   5.61993700
_cell_length_b   5.62012875
_cell_length_c   36.77478866
_cell_angle_alpha   86.06014116
_cell_angle_beta   86.04391974
_cell_angle_gamma   60.20608129
_symmetry_Int_Tables_number   1
_chemical_formula_structural   Sr16Fe16O41
_chemical_formula_sum   'Sr16 Fe16 O41'
_cell_volume   1004.79372382
_cell_formula_units_Z   1
loop_
 _symmetry_equiv_pos_site_id
 _symmetry_equiv_pos_as_xyz
  1  'x, y, z'
loop_
 _atom_site_type_symbol
 _atom_site_label
 _atom_site_symmetry_multiplicity
 _atom_site_fract_x
 _atom_site_fract_y
 _atom_site_fract_z
 _atom_site_occupancy
  Sr  Sr0  1  0.37588000  0.37514900  0.87159500  1
  Sr  Sr1  1  0.00000000  0.00000000  0.00000000  1
  Sr  Sr2  1  0.68664900  0.68996600  0.93681600  1
  Sr  Sr3  1  0.62412000  0.62485100  0.12840500  1
  Sr  Sr4  1  0.31335100  0.31003400  0.06318400  1
  Sr  Sr5  1  0.24472100  0.25608600  0.24692800  1
  Sr  Sr6  1  0.93142900  0.94286100  0.19057500  1
  Sr  Sr7  1  0.87789400  0.87394600  0.37417400  1
  Sr  Sr8  1  0.56237700  0.56349300  0.30904700  1
  Sr  Sr9  1  0.50000000  0.50000000  0.50000000  1
  Sr  Sr10  1  0.12210600  0.12605400  0.62582600  1
  Sr  Sr11  1  0.18769300  0.18784000  0.43686100  1
  Sr  Sr12  1  0.81230700  0.81216000  0.56313900  1
  Sr  Sr13  1  0.75527900  0.74391400  0.75307200  1
  Sr  Sr14  1  0.43762300  0.43650700  0.69095300  1
  Sr  Sr15  1  0.06857100  0.05713900  0.80942500  1
  Fe  Fe0  1  0.70016300  0.75375200  0.84082000  1
  Fe  Fe1  1  0.33086600  0.37193600  0.96584400  1
  Fe  Fe2  1  0.04340000  0.00529300  0.90823900  1
  Fe  Fe3  1  0.66913400  0.62806400  0.03415600  1
  Fe  Fe4  1  0.95660000  0.99470700  0.09176100  1
  Fe  Fe5  1  0.29983700  0.24624800  0.15918000  1
  Fe  Fe6  1  0.59905300  0.58841200  0.21876400  1
  Fe  Fe7  1  0.94105500  0.88775500  0.27835900  1
  Fe  Fe8  1  0.19200000  0.23121300  0.34569500  1
  Fe  Fe9  1  0.55768100  0.51940200  0.40324200  1
  Fe  Fe10  1  0.81634200  0.85637400  0.47108900  1
  Fe  Fe11  1  0.18365800  0.14362600  0.52891100  1
  Fe  Fe12  1  0.44231900  0.48059800  0.59675800  1
  Fe  Fe13  1  0.05894500  0.11224500  0.72164100  1
  Fe  Fe14  1  0.80800000  0.76878700  0.65430500  1
  Fe  Fe15  1  0.40094700  0.41158800  0.78123600  1
  O  O0  1  0.68808100  0.18520500  0.93775800  1
  O  O1  1  0.87405600  0.87805300  0.87456500  1
  O  O2  1  0.18559500  0.18578800  0.93852200  1
  O  O3  1  0.18546700  0.69009200  0.93762500  1
  O  O4  1  0.31191900  0.81479500  0.06224200  1
  O  O5  1  0.37130900  0.88864200  0.87576200  1
  O  O6  1  0.50000000  0.50000000  0.00000000  1
  O  O7  1  0.81440500  0.81421200  0.06147800  1
  O  O8  1  0.81453300  0.30990800  0.06237500  1
  O  O9  1  0.00000000  0.50000000  0.00000000  1
  O  O10  1  0.94037100  0.45519900  0.18612800  1
  O  O11  1  0.12594400  0.12194700  0.12543500  1
  O  O12  1  0.42263400  0.46768200  0.18118700  1
  O  O13  1  0.45074700  0.93852300  0.19027700  1
  O  O14  1  0.62869100  0.11135800  0.12423800  1
  O  O15  1  0.73217300  0.24732700  0.25156200  1
  O  O16  1  0.71934500  0.76524000  0.25649200  1
  O  O17  1  0.06535200  0.06129000  0.31219800  1
  O  O18  1  0.07624200  0.55890700  0.31337800  1
  O  O19  1  0.24850000  0.73691100  0.24739100  1
  O  O20  1  0.37274300  0.87617100  0.37526100  1
  O  O21  1  0.37322400  0.37242700  0.37609400  1
  O  O22  1  0.68629900  0.68767200  0.43748300  1
  O  O23  1  0.68749400  0.18820600  0.43766600  1
  O  O24  1  0.87792300  0.37262800  0.37527600  1
  O  O25  1  0.00000000  0.50000000  0.50000000  1
  O  O26  1  0.00000000  0.00000000  0.50000000  1
  O  O27  1  0.31370100  0.31232800  0.56251700  1
  O  O28  1  0.62725700  0.12382900  0.62473900  1
  O  O29  1  0.50000000  0.00000000  0.50000000  1
  O  O30  1  0.31250600  0.81179400  0.56233400  1
  O  O31  1  0.62677600  0.62757300  0.62390600  1
  O  O32  1  0.93464800  0.93871000  0.68780200  1
  O  O33  1  0.12207700  0.62737200  0.62472400  1
  O  O34  1  0.26782700  0.75267300  0.74843800  1
  O  O35  1  0.05962900  0.54480100  0.81387200  1
  O  O36  1  0.92375800  0.44109300  0.68662200  1
  O  O37  1  0.28065500  0.23476000  0.74350800  1
  O  O38  1  0.57736600  0.53231800  0.81881300  1
  O  O39  1  0.75150000  0.26308900  0.75260900  1
  O  O40  1  0.54925300  0.06147700  0.80972300  1
loop_
_geom_bond_atom_site_label_1
_geom_bond_atom_site_label_2
_geom_bond_distance
_geom_bond_site_symmetry_2
Fe0 O40 1.850004 1_565
Fe0 O38 1.936213 1_555
Fe0 O1 1.986956 1_555
Fe0 O35 1.992079 1_655
Fe0 O5 2.013792 1_555
Fe1 O3 1.830814 1_555
Fe1 O2 1.969005 1_555
Fe1 O0 1.991855 1_555
Fe1 O6 1.992005 1_556
Fe1 O9 2.006312 1_556
Fe2 O3 1.842239 1_545
Fe2 O5 1.963554 1_545
Fe2 O1 1.977693 1_445
Fe2 O2 1.997864 1_555
Fe2 O0 2.008364 1_455
Fe3 O8 1.830814 1_555
Fe3 O7 1.969005 1_555
Fe3 O4 1.991855 1_555
Fe3 O6 1.992005 1_555
Fe3 O9 2.006312 1_655
Fe4 O8 1.842239 1_565
Fe4 O14 1.963554 1_565
Fe4 O11 1.977693 1_665
Fe4 O7 1.997864 1_555
Fe4 O4 2.008364 1_655
Fe5 O13 1.850004 1_545
Fe5 O12 1.936213 1_555
Fe5 O11 1.986956 1_555
Fe5 O10 1.992079 1_455
Fe5 O14 2.013792 1_555
Fe6 O13 1.967566 1_555
Fe6 O19 1.971463 1_555
Fe6 O10 2.014711 1_555
Fe6 O15 2.017608 1_555
Fe6 O12 2.083129 1_555
Fe6 O16 2.087149 1_555
Fe7 O19 1.845682 1_655
Fe7 O16 1.933959 1_555
Fe7 O17 1.987836 1_665
Fe7 O15 1.990339 1_565
Fe7 O18 2.015927 1_655
Fe8 O24 1.841295 1_455
Fe8 O18 1.960280 1_555
Fe8 O17 1.973362 1_555
Fe8 O21 1.999790 1_555
Fe8 O20 2.008873 1_545
Fe9 O24 1.833864 1_555
Fe9 O21 1.964871 1_555
Fe9 O20 1.988092 1_555
Fe9 O22 1.992728 1_555
Fe9 O23 2.013368 1_555
Fe10 O29 1.836742 1_565
Fe10 O22 1.983594 1_555
Fe10 O26 1.986097 1_665
Fe10 O23 1.994715 1_565
Fe10 O25 2.002904 1_655
Fe11 O29 1.836742 1_555
Fe11 O27 1.983594 1_555
Fe11 O26 1.986097 1_555
Fe11 O30 1.994715 1_545
Fe11 O25 2.002904 1_555
Fe12 O33 1.833864 1_555
Fe12 O31 1.964871 1_555
Fe12 O28 1.988092 1_555
Fe12 O27 1.992728 1_555
Fe12 O30 2.013368 1_555
Fe13 O39 1.845682 1_455
Fe13 O37 1.933959 1_555
Fe13 O32 1.987836 1_445
Fe13 O34 1.990339 1_545
Fe13 O36 2.015927 1_455
Fe14 O33 1.841295 1_655
Fe14 O36 1.960280 1_555
Fe14 O32 1.973362 1_555
Fe14 O31 1.999790 1_555
Fe14 O28 2.008873 1_565
Fe15 O40 1.967566 1_555
Fe15 O39 1.971463 1_555
Fe15 O35 2.014711 1_555
Fe15 O34 2.017608 1_555
Fe15 O38 2.083129 1_555
Fe15 O37 2.087149 1_555
O0 Sr2 2.789912 1_545
O0 Sr1 2.794378 1_656
O0 Sr2 2.830666 1_555
O0 Sr0 2.917011 1_555
O1 Sr0 2.807614 1_565
O1 Sr2 2.812216 1_555
O1 Sr0 2.834188 1_655
O1 Sr15 2.889155 1_665
O2 Sr1 2.778863 1_556
O2 Sr2 2.810711 1_545
O2 Sr2 2.828355 1_455
O2 Sr0 2.956634 1_555
O3 Sr1 2.792253 1_566
O3 Sr2 2.805887 1_455
O3 Sr2 2.814364 1_555
O3 Sr0 2.919629 1_555
O4 Sr4 2.789912 1_565
O4 Sr1 2.794378 1_565
O4 Sr4 2.830666 1_555
O4 Sr3 2.917011 1_555
O5 Sr0 2.740775 1_565
O5 Sr2 2.768868 1_555
O5 Sr0 2.887750 1_555
O5 Sr15 2.897733 1_565
O6 Sr1 2.818765 1_655
O6 Sr1 2.818765 1_565
O6 Sr4 2.841632 1_555
O6 Sr2 2.841632 1_554
O7 Sr1 2.778863 1_665
O7 Sr4 2.810711 1_565
O7 Sr4 2.828355 1_655
O7 Sr3 2.956634 1_555
O8 Sr1 2.792253 1_655
O8 Sr4 2.805887 1_655
O8 Sr4 2.814364 1_555
O8 Sr3 2.919629 1_555
O9 Sr1 2.810064 1_565
O9 Sr1 2.810064 1_555
O9 Sr4 2.827604 1_555
O9 Sr2 2.827604 1_454
O10 Sr3 2.670659 1_555
O10 Sr5 2.731092 1_655
O10 Sr6 2.732109 1_555
O10 Sr6 2.897965 1_545
O11 Sr3 2.807614 1_545
O11 Sr4 2.812216 1_555
O11 Sr3 2.834188 1_455
O11 Sr6 2.889155 1_445
O12 Sr3 2.507024 1_555
O12 Sr6 2.746027 1_455
O12 Sr6 2.934308 1_545
O12 Sr5 2.951566 1_555
O13 Sr5 2.643997 1_565
O13 Sr6 2.714381 1_555
O13 Sr3 2.787933 1_555
O13 Sr6 2.905765 1_455
O14 Sr3 2.740775 1_545
O14 Sr4 2.768868 1_555
O14 Sr3 2.887750 1_555
O14 Sr6 2.897733 1_545
O15 Sr8 2.662658 1_555
O15 Sr5 2.732270 1_555
O15 Sr6 2.736545 1_545
O15 Sr5 2.898396 1_655
O16 Sr8 2.501342 1_555
O16 Sr5 2.744496 1_565
O16 Sr5 2.937437 1_655
O16 Sr6 2.957111 1_555
O17 Sr7 2.802542 1_445
O17 Sr8 2.806545 1_545
O17 Sr8 2.835776 1_455
O17 Sr5 2.894445 1_555
O18 Sr8 2.738519 1_555
O18 Sr7 2.759497 1_455
O18 Sr8 2.890479 1_455
O18 Sr5 2.900934 1_555
O19 Sr6 2.648073 1_455
O19 Sr5 2.714141 1_555
O19 Sr8 2.782488 1_555
O19 Sr5 2.906220 1_565
O20 Sr11 2.773328 1_565
O20 Sr7 2.790304 1_455
O20 Sr7 2.830253 1_555
O20 Sr8 2.919234 1_555
O21 Sr11 2.755371 1_555
O21 Sr7 2.810892 1_455
O21 Sr7 2.828608 1_545
O21 Sr8 2.961649 1_555
O22 Sr9 2.815376 1_555
O22 Sr11 2.815414 1_565
O22 Sr11 2.822312 1_655
O22 Sr7 2.848706 1_555
O23 Sr9 2.796327 1_555
O23 Sr11 2.808179 1_655
O23 Sr11 2.812071 1_555
O23 Sr7 2.839017 1_545
O24 Sr11 2.768135 1_655
O24 Sr7 2.805814 1_545
O24 Sr7 2.814897 1_555
O24 Sr8 2.928126 1_555
O25 Sr9 2.809969 1_555
O25 Sr9 2.809969 1_455
O25 Sr12 2.822169 1_455
O25 Sr11 2.822169 1_555
O26 Sr9 2.818765 1_455
O26 Sr9 2.818765 1_545
O26 Sr12 2.837300 1_445
O26 Sr11 2.837300 1_555
O27 Sr9 2.815376 1_555
O27 Sr12 2.815414 1_545
O27 Sr12 2.822312 1_455
O27 Sr10 2.848706 1_555
O28 Sr12 2.773328 1_545
O28 Sr10 2.790304 1_655
O28 Sr10 2.830253 1_555
O28 Sr14 2.919234 1_555
O29 Sr9 2.810064 1_555
O29 Sr9 2.810064 1_545
O29 Sr12 2.823206 1_545
O29 Sr11 2.823206 1_555
O30 Sr9 2.796327 1_555
O30 Sr12 2.808179 1_455
O30 Sr12 2.812071 1_555
O30 Sr10 2.839017 1_565
O31 Sr12 2.755371 1_555
O31 Sr10 2.810892 1_655
O31 Sr10 2.828608 1_565
O31 Sr14 2.961649 1_555
O32 Sr10 2.802542 1_665
O32 Sr14 2.806545 1_565
O32 Sr14 2.835776 1_655
O32 Sr13 2.894445 1_555
O33 Sr12 2.768135 1_455
O33 Sr10 2.805814 1_565
O33 Sr10 2.814897 1_555
O33 Sr14 2.928126 1_555
O34 Sr14 2.662658 1_555
O34 Sr13 2.732270 1_555
O34 Sr15 2.736545 1_565
O34 Sr13 2.898396 1_455
O35 Sr0 2.670659 1_555
O35 Sr13 2.731092 1_455
O35 Sr15 2.732109 1_555
O35 Sr15 2.897965 1_565
O36 Sr14 2.738519 1_555
O36 Sr10 2.759497 1_655
O36 Sr14 2.890479 1_655
O36 Sr13 2.900934 1_555
O37 Sr14 2.501342 1_555
O37 Sr13 2.744496 1_545
O37 Sr13 2.937437 1_455
O37 Sr15 2.957111 1_555
O38 Sr0 2.507024 1_555
O38 Sr15 2.746027 1_655
O38 Sr15 2.934308 1_565
O38 Sr13 2.951566 1_555
O39 Sr15 2.648073 1_655
O39 Sr13 2.714141 1_555
O39 Sr14 2.782488 1_555
O39 Sr13 2.906220 1_545
O40 Sr13 2.643997 1_545
O40 Sr15 2.714381 1_555
O40 Sr0 2.787933 1_555
O40 Sr15 2.905765 1_655
