# generated using pymatgen
data_Cs7NbIn3As5
_symmetry_space_group_name_H-M   'P 1'
_cell_length_a   8.93709972
_cell_length_b   9.77114078
_cell_length_c   14.99522897
_cell_angle_alpha   85.36730900
_cell_angle_beta   85.50605339
_cell_angle_gamma   85.99175692
_symmetry_Int_Tables_number   1
_chemical_formula_structural   Cs7NbIn3As5
_chemical_formula_sum   'Cs14 Nb2 In6 As10'
_cell_volume   1298.51192319
_cell_formula_units_Z   2
loop_
 _symmetry_equiv_pos_site_id
 _symmetry_equiv_pos_as_xyz
  1  'x, y, z'
loop_
 _atom_site_type_symbol
 _atom_site_label
 _atom_site_symmetry_multiplicity
 _atom_site_fract_x
 _atom_site_fract_y
 _atom_site_fract_z
 _atom_site_occupancy
  Cs  Cs0  1  0.83017996  0.36578180  0.64356583  1
  Cs  Cs1  1  0.81217532  0.81457575  0.13102580  1
  Cs  Cs2  1  0.23907335  0.00940544  0.46821577  1
  Cs  Cs3  1  0.27012225  0.25230593  0.25321765  1
  Cs  Cs4  1  0.74484481  0.50444754  0.97480833  1
  Cs  Cs5  1  0.25515519  0.49555246  0.02519167  1
  Cs  Cs6  1  0.68824687  0.07902478  0.88763331  1
  Cs  Cs7  1  0.76092665  0.99059456  0.53178423  1
  Cs  Cs8  1  0.72987775  0.74769407  0.74678235  1
  Cs  Cs9  1  0.31677346  0.33855124  0.60004572  1
  Cs  Cs10  1  0.16982004  0.63421820  0.35643417  1
  Cs  Cs11  1  0.18782468  0.18542425  0.86897420  1
  Cs  Cs12  1  0.31175313  0.92097522  0.11236669  1
  Cs  Cs13  1  0.68322654  0.66144876  0.39995428  1
  Nb  Nb0  1  0.35377064  0.60640353  0.77196904  1
  Nb  Nb1  1  0.64622936  0.39359647  0.22803096  1
  In  In0  1  0.06489925  0.81122048  0.86650833  1
  In  In1  1  0.93510075  0.18877952  0.13349167  1
  In  In2  1  0.36422566  0.94900484  0.70330357  1
  In  In3  1  0.09334141  0.72169520  0.62489124  1
  In  In4  1  0.90665859  0.27830480  0.37510876  1
  In  In5  1  0.63577434  0.05099516  0.29669643  1
  As  As0  1  0.91636878  0.44962128  0.21244766  1
  As  As1  1  0.62108848  0.20076629  0.12705530  1
  As  As2  1  0.08363122  0.55037872  0.78755234  1
  As  As3  1  0.59102193  0.29586067  0.38846536  1
  As  As4  1  0.40897807  0.70413933  0.61153464  1
  As  As5  1  0.04213648  0.98753930  0.70198458  1
  As  As6  1  0.51335678  0.40304347  0.80829133  1
  As  As7  1  0.48664322  0.59695653  0.19170867  1
  As  As8  1  0.37891152  0.79923371  0.87294470  1
  As  As9  1  0.95786352  0.01246070  0.29801542  1
loop_
_geom_bond_atom_site_label_1
_geom_bond_atom_site_label_2
_geom_bond_distance
_geom_bond_site_symmetry_2
Cs0 Cs8 4.168062 1_555
Cs0 In4 4.176840 1_555
Cs0 In3 4.311268 1_655
Cs1 In5 3.714518 1_565
Cs1 In1 3.894521 1_565
Cs1 In0 4.409342 1_654
Cs2 In3 3.752938 1_545
Cs2 In2 3.770396 1_545
Cs2 Cs3 3.849646 1_555
Cs2 In4 4.079798 1_455
Cs2 In5 4.237142 1_555
Cs3 In4 3.603622 1_455
Cs3 Nb1 3.703050 1_555
Cs3 In1 3.722288 1_455
Cs3 In5 3.768467 1_555
Cs3 Cs5 4.009128 1_555
Cs4 Cs8 4.009128 1_555
Cs6 Cs8 3.986684 1_545
Cs6 In0 4.124838 1_645
Cs7 In4 3.752938 1_565
Cs7 In5 3.770396 1_565
Cs7 Cs8 3.849646 1_555
Cs7 In3 4.079798 1_655
Cs7 In2 4.237142 1_555
Cs8 In3 3.603622 1_655
Cs8 Nb0 3.703050 1_555
Cs8 In0 3.722288 1_655
Cs8 In2 3.768467 1_555
Cs9 In2 3.998818 1_545
Cs10 Cs3 4.168062 1_555
Cs10 In3 4.176840 1_555
Cs10 In4 4.311268 1_455
Cs11 In2 3.714518 1_545
Cs11 In0 3.894521 1_545
Cs11 In1 4.409342 1_456
Cs12 Cs3 3.986684 1_565
Cs12 In1 4.124838 1_465
Cs13 In5 3.998818 1_565
As0 Nb1 2.501727 1_555
As0 In4 2.843705 1_555
As0 In1 2.884877 1_555
As0 Cs3 3.653292 1_655
As0 Cs1 3.752991 1_555
As0 Cs10 3.874610 1_655
As0 Cs4 3.970884 1_554
As0 Cs5 3.988417 1_655
As0 Cs13 3.993781 1_555
As1 Nb1 2.542949 1_555
As1 In1 2.809511 1_555
As1 In5 2.837948 1_555
As1 Cs3 3.560085 1_555
As1 Cs4 3.769489 1_554
As1 Cs6 3.862267 1_554
As1 Cs1 4.029665 1_545
As1 Cs12 4.051505 1_545
As2 Nb0 2.501727 1_555
As2 In3 2.843705 1_555
As2 In0 2.884877 1_555
As2 Cs8 3.653292 1_455
As2 Cs11 3.752991 1_555
As2 Cs0 3.874610 1_455
As2 Cs5 3.970884 1_556
As2 Cs4 3.988417 1_455
As2 Cs9 3.993781 1_555
As3 Nb1 2.540043 1_555
As3 In4 2.806465 1_555
As3 In5 2.844299 1_555
As3 Cs3 3.706835 1_555
As3 Cs13 3.742006 1_555
As3 Cs7 3.829376 1_545
As3 Cs9 3.885819 1_555
As4 Nb0 2.540043 1_555
As4 In3 2.806465 1_555
As4 In2 2.844299 1_555
As4 Cs8 3.706835 1_555
As4 Cs9 3.742006 1_555
As4 Cs2 3.829376 1_565
As4 Cs13 3.885819 1_555
As5 In2 2.878258 1_555
As5 In0 2.905006 1_555
As5 In3 2.920504 1_555
As5 Cs11 3.653653 1_565
As5 Cs7 3.716599 1_455
As5 Cs8 3.754691 1_455
As5 Cs2 3.794220 1_565
As5 Cs0 4.095530 1_465
As5 Cs6 4.144736 1_465
As6 Nb0 2.414524 1_555
As6 Cs6 3.587953 1_555
As6 Cs4 3.604493 1_555
As6 Cs0 3.627169 1_555
As6 Cs11 3.735114 1_555
As6 Cs9 3.816716 1_555
As6 Cs8 4.008207 1_555
As7 Nb1 2.414524 1_555
As7 Cs12 3.587953 1_555
As7 Cs5 3.604493 1_555
As7 Cs10 3.627169 1_555
As7 Cs1 3.735114 1_555
As7 Cs13 3.816716 1_555
As7 Cs3 4.008207 1_555
As8 Nb0 2.542949 1_555
As8 In0 2.809511 1_555
As8 In2 2.837948 1_555
As8 Cs8 3.560085 1_555
As8 Cs5 3.769489 1_556
As8 Cs12 3.862267 1_556
As8 Cs11 4.029665 1_565
As8 Cs6 4.051505 1_565
As9 In5 2.878258 1_555
As9 In1 2.905006 1_555
As9 In4 2.920504 1_555
As9 Cs1 3.653653 1_545
As9 Cs2 3.716599 1_655
As9 Cs3 3.754691 1_655
As9 Cs7 3.794220 1_545
As9 Cs10 4.095530 1_645
As9 Cs12 4.144736 1_645
