# generated using pymatgen
data_VPH6C2N3O7
_symmetry_space_group_name_H-M   'P 1'
_cell_length_a   6.27222800
_cell_length_b   8.30226983
_cell_length_c   9.16466679
_cell_angle_alpha   68.04486970
_cell_angle_beta   70.83432952
_cell_angle_gamma   78.51311575
_symmetry_Int_Tables_number   1
_chemical_formula_structural   VPH6C2N3O7
_chemical_formula_sum   'V2 P2 H12 C4 N6 O14'
_cell_volume   416.50136923
_cell_formula_units_Z   2
loop_
 _symmetry_equiv_pos_site_id
 _symmetry_equiv_pos_as_xyz
  1  'x, y, z'
loop_
 _atom_site_type_symbol
 _atom_site_label
 _atom_site_symmetry_multiplicity
 _atom_site_fract_x
 _atom_site_fract_y
 _atom_site_fract_z
 _atom_site_occupancy
  V  V0  1  0.66309800  0.57355700  0.15359800  1
  V  V1  1  0.33690200  0.42644300  0.84640200  1
  P  P0  1  0.17232100  0.65238500  0.09135300  1
  P  P1  1  0.82767900  0.34761500  0.90864700  1
  H  H0  1  0.70289300  0.83602500  0.70840600  1
  H  H1  1  0.29710700  0.16397500  0.29159400  1
  H  H2  1  0.93537700  0.97649500  0.20790300  1
  H  H3  1  0.06462300  0.02350500  0.79209700  1
  H  H4  1  0.97001500  0.68541100  0.37541700  1
  H  H5  1  0.02998500  0.31458900  0.62458300  1
  H  H6  1  0.65538800  0.05263900  0.59079300  1
  H  H7  1  0.34461200  0.94736100  0.40920700  1
  H  H8  1  0.89224500  0.63123800  0.58844900  1
  H  H9  1  0.10775500  0.36876200  0.41155100  1
  H  H10  1  0.77841000  0.13124900  0.30015600  1
  H  H11  1  0.22159000  0.86875100  0.69984400  1
  C  C0  1  0.52599100  0.40035000  0.52165300  1
  C  C1  1  0.47400900  0.59965000  0.47834700  1
  C  C2  1  0.82989600  0.88860500  0.45999500  1
  C  C3  1  0.17010400  0.11139500  0.54000500  1
  N  N0  1  0.72143400  0.92877500  0.59635000  1
  N  N1  1  0.27856600  0.07122500  0.40365000  1
  N  N2  1  0.92224600  0.72387100  0.47550800  1
  N  N3  1  0.07775400  0.27612900  0.52449200  1
  N  N4  1  0.85010600  0.00723200  0.31225500  1
  N  N5  1  0.14989400  0.99276800  0.68774500  1
  O  O0  1  0.61337100  0.34090900  0.40589400  1
  O  O1  1  0.38662900  0.65909100  0.59410600  1
  O  O2  1  0.35007800  0.53900700  0.18685300  1
  O  O3  1  0.64992200  0.46099300  0.81314700  1
  O  O4  1  0.94408300  0.56648700  0.20496000  1
  O  O5  1  0.05591700  0.43351300  0.79504000  1
  O  O6  1  0.23178100  0.61133000  0.92607300  1
  O  O7  1  0.76821900  0.38867000  0.07392700  1
  O  O8  1  0.47592500  0.30890500  0.67339800  1
  O  O9  1  0.52407500  0.69109500  0.32660200  1
  O  O10  1  0.69302200  0.74074000  0.98989700  1
  O  O11  1  0.30697800  0.25926000  0.01010300  1
  O  O12  1  0.15865300  0.84232800  0.06011800  1
  O  O13  1  0.84134700  0.15767200  0.93988200  1
loop_
_geom_bond_atom_site_label_1
_geom_bond_atom_site_label_2
_geom_bond_distance
_geom_bond_site_symmetry_2
H0 N0 1.013432 1_555
H1 N1 1.013432 1_555
H2 N4 1.028622 1_565
H3 N5 1.028622 1_545
H4 N2 1.016672 1_555
H5 N3 1.016672 1_555
H6 N0 1.018199 1_545
H7 N1 1.018199 1_565
H8 N2 1.016239 1_555
H9 N3 1.016239 1_555
H10 N4 1.018626 1_555
H11 N5 1.018626 1_555
C0 O0 1.253553 1_555
C0 O8 1.275827 1_555
C1 O1 1.253553 1_555
C1 O9 1.275827 1_555
C2 N4 1.326353 1_565
C2 N0 1.341165 1_555
C2 N2 1.348848 1_555
C3 N5 1.326353 1_545
C3 N1 1.341165 1_555
C3 N3 1.348848 1_555
O0 V0 2.366683 1_555
O1 V1 2.366683 1_555
O2 P0 1.581714 1_555
O2 V0 1.948303 1_555
O3 P1 1.581714 1_555
O3 V1 1.948303 1_555
O4 P0 1.585786 1_655
O4 V0 1.952928 1_555
O5 P1 1.585786 1_455
O5 V1 1.952928 1_555
O6 P0 1.585625 1_556
O6 V1 1.855507 1_555
O7 P1 1.585625 1_554
O7 V0 1.855507 1_555
O8 V1 2.033897 1_555
O9 V0 2.033897 1_555
O10 V0 1.604469 1_556
O11 V1 1.604469 1_554
O12 P0 1.483511 1_555
O13 P1 1.483511 1_555
