# generated using pymatgen
data_Rb3V2Br9
_symmetry_space_group_name_H-M   'P 1'
_cell_length_a   7.45851345
_cell_length_b   7.45826864
_cell_length_c   18.75079563
_cell_angle_alpha   89.99596610
_cell_angle_beta   90.00560307
_cell_angle_gamma   119.98984735
_symmetry_Int_Tables_number   1
_chemical_formula_structural   Rb3V2Br9
_chemical_formula_sum   'Rb6 V4 Br18'
_cell_volume   903.41032666
_cell_formula_units_Z   2
loop_
 _symmetry_equiv_pos_site_id
 _symmetry_equiv_pos_as_xyz
  1  'x, y, z'
loop_
 _atom_site_type_symbol
 _atom_site_label
 _atom_site_symmetry_multiplicity
 _atom_site_fract_x
 _atom_site_fract_y
 _atom_site_fract_z
 _atom_site_occupancy
  Rb  Rb0  1  0.66682145  0.33316581  0.56868864  1
  Rb  Rb1  1  0.33319431  0.66680389  0.06872107  1
  Rb  Rb2  1  0.33373360  0.66626188  0.43094085  1
  Rb  Rb3  1  0.66628545  0.33371264  0.93097136  1
  Rb  Rb4  1  -0.00018957  0.00019921  0.25106476  1
  Rb  Rb5  1  0.00021716  0.99979612  0.75107308  1
  V  V0  1  0.33296772  0.66700976  0.65877378  1
  V  V1  1  0.66602626  0.33397590  0.33924859  1
  V  V2  1  0.33398308  0.66607047  0.83923738  1
  V  V3  1  0.66702204  0.33298342  0.15871437  1
  Br  Br0  1  0.82850443  0.65585155  0.41081689  1
  Br  Br1  1  0.17008598  0.82969365  0.59055496  1
  Br  Br2  1  0.65729447  0.82894332  0.58946982  1
  Br  Br3  1  0.82843532  0.17165801  0.41021509  1
  Br  Br4  1  0.34413393  0.17143881  0.41080091  1
  Br  Br5  1  0.17147133  0.34423827  0.91083978  1
  Br  Br6  1  0.01902940  0.50749402  0.75022485  1
  Br  Br7  1  0.65577153  0.82860372  0.91084522  1
  Br  Br8  1  0.82897073  0.65735175  0.08940773  1
  Br  Br9  1  0.17108016  0.34260543  0.58948077  1
  Br  Br10  1  0.49255629  0.98099560  0.75021888  1
  Br  Br11  1  0.50968009  0.49031089  0.24949154  1
  Br  Br12  1  0.49036985  0.50968363  0.74955092  1
  Br  Br13  1  0.17165457  0.82838579  0.91021008  1
  Br  Br14  1  0.34260340  0.17105105  0.08942568  1
  Br  Br15  1  0.98098922  0.49258650  0.25021124  1
  Br  Br16  1  0.50745052  0.01902912  0.25022049  1
  Br  Br17  1  0.82985725  0.17010178  0.09058129  1
loop_
_geom_bond_atom_site_label_1
_geom_bond_atom_site_label_2
_geom_bond_distance
_geom_bond_site_symmetry_2
Br0 V1 2.474735 1_555
Br0 Rb0 3.620438 1_555
Br0 Rb4 3.731018 1_665
Br0 Rb2 3.748747 1_555
Br0 Rb2 3.749056 1_655
Br1 V0 2.461172 1_555
Br1 Rb2 3.663535 1_555
Br1 Rb5 3.725861 1_555
Br1 Rb0 3.751709 1_455
Br1 Rb0 3.753267 1_565
Br2 V0 2.465494 1_555
Br2 Rb2 3.633734 1_555
Br2 Rb0 3.745913 1_565
Br2 Rb5 3.753458 1_655
Br2 Rb0 3.753973 1_555
Br3 V1 2.483759 1_555
Br3 Rb0 3.631330 1_555
Br3 Rb4 3.716161 1_655
Br3 Rb2 3.750224 1_655
Br3 Rb2 3.750966 1_545
Br4 V1 2.474775 1_555
Br4 Rb0 3.620648 1_555
Br4 Rb4 3.730644 1_555
Br4 Rb2 3.748621 1_545
Br4 Rb2 3.748998 1_555
Br5 V2 2.474793 1_555
Br5 Rb1 3.620222 1_556
Br5 Rb5 3.731692 1_545
Br5 Rb3 3.748408 1_455
Br5 Rb3 3.749450 1_555
Br6 V2 2.631508 1_555
Br6 V0 2.655974 1_555
Br6 Rb5 3.718433 1_545
Br6 Rb5 3.743863 1_555
Br6 Rb3 4.084144 1_455
Br6 Rb0 4.094216 1_455
Br7 V2 2.474616 1_555
Br7 Rb1 3.620303 1_556
Br7 Rb5 3.731917 1_655
Br7 Rb3 3.747734 1_565
Br7 Rb3 3.749857 1_555
Br8 V3 2.465583 1_555
Br8 Rb3 3.632729 1_554
Br8 Rb1 3.746195 1_655
Br8 Rb1 3.753550 1_555
Br8 Rb4 3.754116 1_665
Br9 V0 2.465701 1_555
Br9 Rb2 3.634297 1_555
Br9 Rb0 3.746630 1_455
Br9 Rb5 3.752901 1_545
Br9 Rb0 3.753522 1_555
Br10 V2 2.631446 1_555
Br10 V0 2.656026 1_555
Br10 Rb5 3.718324 1_655
Br10 Rb5 3.744212 1_555
Br10 Rb3 4.084009 1_565
Br10 Rb0 4.094036 1_565
Br11 V1 2.628779 1_555
Br11 V3 2.651150 1_555
Br11 Rb4 3.732003 1_555
Br11 Rb4 3.732131 1_665
Br11 Rb1 4.084781 1_555
Br11 Rb2 4.091833 1_555
Br12 V2 2.628642 1_555
Br12 V0 2.651187 1_555
Br12 Rb5 3.731908 1_655
Br12 Rb5 3.732200 1_545
Br12 Rb0 4.086544 1_555
Br12 Rb3 4.090977 1_555
Br13 V2 2.483586 1_555
Br13 Rb1 3.631573 1_556
Br13 Rb5 3.715668 1_555
Br13 Rb3 3.750496 1_565
Br13 Rb3 3.750836 1_455
Br14 V3 2.465688 1_555
Br14 Rb3 3.633284 1_554
Br14 Rb1 3.746425 1_545
Br14 Rb1 3.753136 1_555
Br14 Rb4 3.753764 1_555
Br15 V1 2.632036 1_555
Br15 V3 2.656487 1_555
Br15 Rb4 3.717769 1_665
Br15 Rb4 3.744532 1_655
Br15 Rb2 4.083610 1_655
Br15 Rb1 4.093766 1_655
Br16 V1 2.631731 1_555
Br16 V3 2.656547 1_555
Br16 Rb4 3.718068 1_555
Br16 Rb4 3.744479 1_655
Br16 Rb2 4.083595 1_545
Br16 Rb1 4.093850 1_545
Br17 V3 2.461384 1_555
Br17 Rb3 3.663521 1_554
Br17 Rb4 3.724552 1_655
Br17 Rb1 3.752311 1_545
Br17 Rb1 3.752627 1_655
