# generated using pymatgen
data_Hf2Ni2Sn
_symmetry_space_group_name_H-M   'P 1'
_cell_length_a   7.06214500
_cell_length_b   7.06214500
_cell_length_c   3.38980100
_cell_angle_alpha   90.00000000
_cell_angle_beta   90.00000000
_cell_angle_gamma   90.00000000
_symmetry_Int_Tables_number   1
_chemical_formula_structural   Hf2Ni2Sn
_chemical_formula_sum   'Hf4 Ni4 Sn2'
_cell_volume   169.06256898
_cell_formula_units_Z   2
loop_
 _symmetry_equiv_pos_site_id
 _symmetry_equiv_pos_as_xyz
  1  'x, y, z'
loop_
 _atom_site_type_symbol
 _atom_site_label
 _atom_site_symmetry_multiplicity
 _atom_site_fract_x
 _atom_site_fract_y
 _atom_site_fract_z
 _atom_site_occupancy
  Hf  Hf0  1  0.66708900  0.16708900  0.50000000  1
  Hf  Hf1  1  0.33291100  0.83291100  0.50000000  1
  Hf  Hf2  1  0.83291100  0.66708900  0.50000000  1
  Hf  Hf3  1  0.16708900  0.33291100  0.50000000  1
  Ni  Ni0  1  0.62540400  0.87459600  0.00000000  1
  Ni  Ni1  1  0.12540400  0.62540400  0.00000000  1
  Ni  Ni2  1  0.87459600  0.37459600  0.00000000  1
  Ni  Ni3  1  0.37459600  0.12540400  0.00000000  1
  Sn  Sn0  1  0.50000000  0.50000000  0.00000000  1
  Sn  Sn1  1  0.00000000  0.00000000  0.00000000  1
loop_
_geom_bond_atom_site_label_1
_geom_bond_atom_site_label_2
_geom_bond_distance
_geom_bond_site_symmetry_2
Hf0 Ni2 2.677264 1_556
Hf0 Ni2 2.677264 1_555
Hf0 Ni3 2.688154 1_556
Hf0 Ni3 2.688154 1_555
Hf0 Ni0 2.688154 1_545
Hf0 Ni0 2.688154 1_546
Hf0 Sn0 3.129315 1_556
Hf0 Sn0 3.129315 1_555
Hf0 Sn1 3.129315 1_656
Hf0 Sn1 3.129315 1_655
Hf1 Ni1 2.677264 1_555
Hf1 Ni1 2.677264 1_556
Hf1 Ni0 2.688154 1_555
Hf1 Ni0 2.688154 1_556
Hf1 Ni3 2.688154 1_566
Hf1 Ni3 2.688154 1_565
Hf1 Sn0 3.129315 1_556
Hf1 Sn0 3.129315 1_555
Hf1 Sn1 3.129315 1_565
Hf1 Sn1 3.129315 1_566
Hf2 Ni0 2.677264 1_555
Hf2 Ni0 2.677264 1_556
Hf2 Ni2 2.688154 1_556
Hf2 Ni2 2.688154 1_555
Hf2 Ni1 2.688154 1_655
Hf2 Ni1 2.688154 1_656
Hf2 Sn0 3.129315 1_556
Hf2 Sn0 3.129315 1_555
Hf2 Sn1 3.129315 1_665
Hf2 Sn1 3.129315 1_666
Hf3 Ni3 2.677264 1_555
Hf3 Ni3 2.677264 1_556
Hf3 Ni1 2.688154 1_556
Hf3 Ni1 2.688154 1_555
Hf3 Ni2 2.688154 1_456
Hf3 Ni2 2.688154 1_455
Hf3 Sn1 3.129315 1_556
Hf3 Sn0 3.129315 1_556
Hf3 Sn1 3.129315 1_555
Hf3 Sn0 3.129315 1_555
Ni0 Ni3 2.504915 1_565
Ni0 Sn0 2.789756 1_555
Ni0 Sn1 2.789756 1_665
Ni1 Ni2 2.504915 1_455
Ni1 Sn0 2.789756 1_555
Ni1 Sn1 2.789756 1_565
Ni2 Sn0 2.789756 1_555
Ni2 Sn1 2.789756 1_655
Ni3 Sn1 2.789756 1_555
Ni3 Sn0 2.789756 1_555
