# generated using pymatgen
data_Na13Zr8Si9(PO16)3
_symmetry_space_group_name_H-M   'P 1'
_cell_length_a   9.19207300
_cell_length_b   9.19567848
_cell_length_c   16.22682351
_cell_angle_alpha   90.21416873
_cell_angle_beta   105.98629300
_cell_angle_gamma   119.74300719
_symmetry_Int_Tables_number   1
_chemical_formula_structural   Na13Zr8Si9(PO16)3
_chemical_formula_sum   'Na13 Zr8 Si9 P3 O48'
_cell_volume   1128.55253693
_cell_formula_units_Z   1
loop_
 _symmetry_equiv_pos_site_id
 _symmetry_equiv_pos_as_xyz
  1  'x, y, z'
loop_
 _atom_site_type_symbol
 _atom_site_label
 _atom_site_symmetry_multiplicity
 _atom_site_fract_x
 _atom_site_fract_y
 _atom_site_fract_z
 _atom_site_occupancy
  Na  Na0  1  0.29692700  0.74341600  0.79889400  1
  Na  Na1  1  0.09643700  0.36651400  0.59900600  1
  Na  Na2  1  0.99859300  0.99778800  0.50288000  1
  Na  Na3  1  0.59776800  0.48124600  0.86902000  1
  Na  Na4  1  0.30289200  0.24408500  0.29391900  1
  Na  Na5  1  0.39401200  0.01069200  0.63045900  1
  Na  Na6  1  0.01150300  0.56222800  0.01135800  1
  Na  Na7  1  0.91576100  0.17068300  0.91612000  1
  Na  Na8  1  0.60119300  0.98335800  0.37031900  1
  Na  Na9  1  0.70537500  0.75037800  0.69656900  1
  Na  Na10  1  0.38438200  0.51006000  0.12228900  1
  Na  Na11  1  0.90669700  0.64224800  0.40578000  1
  Na  Na12  1  0.71488100  0.25805800  0.19548500  1
  Zr  Zr0  1  0.15354500  0.07287200  0.72174700  1
  Zr  Zr1  1  0.64487400  0.82306100  0.97276100  1
  Zr  Zr2  1  0.15800400  0.57530900  0.22121700  1
  Zr  Zr3  1  0.35882500  0.68683000  0.53049100  1
  Zr  Zr4  1  0.64191800  0.31710400  0.47287400  1
  Zr  Zr5  1  0.84913800  0.42530900  0.77698600  1
  Zr  Zr6  1  0.34683100  0.17529000  0.03237900  1
  Zr  Zr7  1  0.85318600  0.93055100  0.27716000  1
  Si  Si0  1  0.24940300  0.41348900  0.88072600  1
  Si  Si1  1  0.03956300  0.67020300  0.62238800  1
  Si  Si2  1  0.46199000  0.37521600  0.62922000  1
  Si  Si3  1  0.53706800  0.12740400  0.87400200  1
  Si  Si4  1  0.24627100  0.91214300  0.38067000  1
  Si  Si5  1  0.04127600  0.17380600  0.12300800  1
  Si  Si6  1  0.75339900  0.08760000  0.61865600  1
  Si  Si7  1  0.46502000  0.87818900  0.13025900  1
  Si  Si8  1  0.53944100  0.62534600  0.37182500  1
  P  P0  1  0.96023500  0.83072700  0.87788900  1
  P  P1  1  0.96025500  0.32955300  0.37670900  1
  P  P2  1  0.75232800  0.58678500  0.11952000  1
  O  O0  1  0.11461500  0.95486100  0.95801700  1
  O  O1  1  0.99995100  0.59715800  0.71115100  1
  O  O2  1  0.07082500  0.42591800  0.85699600  1
  O  O3  1  0.26270100  0.33760300  0.97212200  1
  O  O4  1  0.11147900  0.45161300  0.45873800  1
  O  O5  1  0.42330300  0.60073400  0.88741600  1
  O  O6  1  0.23473300  0.28507300  0.80411900  1
  O  O7  1  0.06588700  0.86002400  0.62406300  1
  O  O8  1  0.00198700  0.09820800  0.21147700  1
  O  O9  1  0.43089300  0.53041300  0.60133200  1
  O  O10  1  0.27389700  0.21485600  0.63326600  1
  O  O11  1  0.47969100  0.19479400  0.94554600  1
  O  O12  1  0.78357600  0.81474200  0.87771800  1
  O  O13  1  0.06666600  0.92204700  0.35904900  1
  O  O14  1  0.37712900  0.05254600  0.77928300  1
  O  O15  1  0.62332800  0.45001700  0.72294200  1
  O  O16  1  0.22309500  0.67659000  0.62363500  1
  O  O17  1  0.51398500  0.29914900  0.55775200  1
  O  O18  1  0.26206900  0.83891800  0.47292800  1
  O  O19  1  0.72326100  0.28961500  0.86845700  1
  O  O20  1  0.56904800  0.96933400  0.89794800  1
  O  O21  1  0.41911300  0.09840500  0.38571300  1
  O  O22  1  0.22837600  0.77955600  0.30537800  1
  O  O23  1  0.94009400  0.65293500  0.87776600  1
  O  O24  1  0.05621200  0.35980900  0.12429900  1
  O  O25  1  0.76238000  0.21402900  0.69435000  1
  O  O26  1  0.58198500  0.89981700  0.61316900  1
  O  O27  1  0.44548300  0.04029500  0.10442000  1
  O  O28  1  0.27910000  0.71528500  0.13466300  1
  O  O29  1  0.73780400  0.15978100  0.52619400  1
  O  O30  1  0.48438200  0.69661200  0.44320400  1
  O  O31  1  0.78351700  0.31785700  0.37315100  1
  O  O32  1  0.37747600  0.55410000  0.27785500  1
  O  O33  1  0.62559800  0.94636400  0.22410000  1
  O  O34  1  0.93214700  0.07745200  0.64300900  1
  O  O35  1  0.23400600  0.20077700  0.12614700  1
  O  O36  1  0.51782700  0.80252300  0.05872200  1
  O  O37  1  0.72700700  0.78577800  0.36693000  1
  O  O38  1  0.56808400  0.46625800  0.39542400  1
  O  O39  1  0.99514900  0.89863300  0.79364200  1
  O  O40  1  0.93725900  0.14975500  0.37726000  1
  O  O41  1  0.76749200  0.71086800  0.19142100  1
  O  O42  1  0.58811500  0.41000500  0.11575000  1
  O  O43  1  0.87795300  0.53928000  0.53641300  1
  O  O44  1  0.72940600  0.64808100  0.03121000  1
  O  O45  1  0.91568600  0.56693200  0.14344500  1
  O  O46  1  0.00198800  0.39834300  0.29387500  1
  O  O47  1  0.88125400  0.04021900  0.03745500  1
loop_
_geom_bond_atom_site_label_1
_geom_bond_atom_site_label_2
_geom_bond_distance
_geom_bond_site_symmetry_2
Na0 O1 2.343060 1_455
Na0 O5 2.396155 1_555
Na0 O20 2.400123 1_555
Na0 O14 2.604245 1_565
Na0 O16 2.726900 1_555
Na1 O4 2.427230 1_555
Na1 O16 2.467137 1_555
Na1 O34 2.545821 1_455
Na1 O10 2.584252 1_555
Na1 O9 2.657578 1_555
Na1 O29 2.738065 1_455
Na2 O7 2.445495 1_655
Na2 O40 2.568236 1_565
Na2 O10 2.621455 1_665
Na2 O37 2.646676 1_555
Na2 O34 2.697511 1_565
Na2 O13 2.747455 1_655
Na3 O5 2.424432 1_555
Na3 O15 2.474873 1_555
Na3 O19 2.541382 1_555
Na3 O12 2.647399 1_555
Na3 O44 2.667977 1_556
Na3 O23 2.690238 1_555
Na3 O6 2.752489 1_555
Na3 O11 2.754759 1_555
Na4 O8 2.346594 1_555
Na4 O38 2.377168 1_555
Na4 O21 2.390188 1_555
Na4 O35 2.600618 1_555
Na4 O32 2.613381 1_555
Na5 O26 2.473176 1_545
Na5 O14 2.502578 1_555
Na5 O7 2.589917 1_545
Na5 O10 2.613364 1_555
Na5 O18 2.619467 1_545
Na5 O16 2.651774 1_545
Na5 O17 2.735276 1_555
Na5 O25 2.793977 1_555
Na6 O23 2.366188 1_454
Na6 O28 2.422345 1_555
Na6 O45 2.539387 1_455
Na6 O24 2.713298 1_555
Na6 O19 2.943375 1_454
Na7 O47 2.323891 1_556
Na7 O2 2.431349 1_655
Na7 O19 2.469406 1_555
Na7 O3 2.624591 1_655
Na7 O20 2.701018 1_545
Na7 O12 2.863493 1_545
Na8 O21 2.442963 1_565
Na8 O33 2.481629 1_555
Na8 O37 2.600136 1_555
Na8 O29 2.608624 1_565
Na8 O40 2.648364 1_565
Na8 O31 2.667180 1_565
Na8 O30 2.723614 1_555
Na8 O22 2.826722 1_555
Na9 O39 2.346169 1_555
Na9 O9 2.368686 1_555
Na9 O26 2.391911 1_555
Na9 O15 2.549599 1_555
Na9 O12 2.812208 1_555
Na9 O34 2.990531 1_565
Na10 O35 2.480245 1_555
Na10 O42 2.486619 1_555
Na10 O3 2.532498 1_554
Na10 O28 2.540604 1_555
Na10 O32 2.578075 1_555
Na10 O24 2.632259 1_555
Na10 O36 2.691816 1_555
Na10 O41 2.902760 1_555
Na11 O43 2.352659 1_555
Na11 O13 2.496412 1_655
Na11 O37 2.542318 1_555
Na11 O31 2.601407 1_555
Na11 O38 2.654645 1_555
Na11 O18 2.700310 1_655
Na12 O27 2.316848 1_555
Na12 O46 2.337471 1_655
Na12 O42 2.404726 1_555
Na12 O33 2.643918 1_545
Na12 O31 2.766569 1_555
Na12 O45 2.803932 1_555
O0 P0 1.540352 1_455
O0 Zr6 2.095462 1_566
O1 Si1 1.646748 1_655
O1 Zr5 2.053041 1_555
O2 Si0 1.641398 1_555
O2 Zr5 2.090329 1_455
O3 Si0 1.641312 1_555
O3 Zr6 2.126398 1_556
O4 P1 1.544483 1_455
O4 Zr3 2.201587 1_555
O5 Si0 1.644324 1_555
O5 Zr1 2.130605 1_555
O6 Si0 1.642135 1_555
O6 Zr0 2.034052 1_555
O7 Si1 1.638021 1_555
O7 Zr0 2.168229 1_565
O8 Si5 1.648782 1_555
O8 Zr7 2.026491 1_445
O9 Si2 1.631433 1_555
O9 Zr3 2.089852 1_555
O10 Si2 1.643669 1_555
O10 Zr0 2.108487 1_555
O11 Si3 1.632828 1_555
O11 Zr6 2.059461 1_556
O12 P0 1.555384 1_555
O12 Zr1 2.277906 1_555
O13 Si4 1.639323 1_555
O13 Zr7 2.083100 1_455
O14 Si3 1.655563 1_555
O14 Zr0 2.110925 1_555
O15 Si2 1.650176 1_555
O15 Zr5 2.143793 1_555
O16 Si1 1.653129 1_555
O16 Zr3 2.184737 1_555
O17 Si2 1.641207 1_555
O17 Zr4 2.002075 1_555
O18 Si4 1.643313 1_555
O18 Zr3 2.098999 1_555
O19 Si3 1.647745 1_555
O19 Zr5 2.150855 1_555
O20 Si3 1.647881 1_565
O20 Zr1 2.060377 1_555
O21 Si4 1.640687 1_545
O21 Zr4 2.129739 1_555
O22 Si4 1.638725 1_555
O22 Zr2 2.024802 1_555
O23 P0 1.551347 1_555
O23 Zr5 2.289018 1_555
O24 Si5 1.646203 1_555
O24 Zr2 2.145271 1_555
O25 Si6 1.644795 1_555
O25 Zr5 2.015667 1_555
O26 Si6 1.641442 1_565
O26 Zr3 2.078905 1_555
O27 Si7 1.630638 1_545
O27 Zr6 2.067307 1_555
O28 Si7 1.642466 1_555
O28 Zr2 2.078817 1_555
O29 Si6 1.641828 1_555
O29 Zr4 2.114913 1_555
O30 Si8 1.635075 1_555
O30 Zr3 2.035836 1_555
O31 P1 1.558560 1_555
O31 Zr4 2.337517 1_555
O32 Si8 1.656848 1_555
O32 Zr2 2.079202 1_555
O33 Si7 1.651408 1_555
O33 Zr7 2.109404 1_555
O34 Si6 1.630736 1_555
O34 Zr0 2.104540 1_655
O35 Si5 1.648292 1_555
O35 Zr6 2.133852 1_555
O36 Si7 1.645206 1_555
O36 Zr1 2.006376 1_554
O37 Si8 1.645566 1_555
O37 Zr7 2.156972 1_555
O38 Si8 1.639186 1_555
O38 Zr4 2.094752 1_555
O39 P0 1.552733 1_555
O39 Zr0 2.164023 1_665
O40 P1 1.559730 1_555
O40 Zr7 2.244374 1_545
O41 P2 1.557331 1_555
O41 Zr7 2.105590 1_555
O42 P2 1.561572 1_555
O42 Zr6 2.232370 1_555
O43 Si1 1.635203 1_655
O43 Zr4 2.073247 1_555
O44 P2 1.540499 1_555
O44 Zr1 2.222254 1_554
O45 P2 1.546052 1_555
O45 Zr2 2.200135 1_655
O46 P1 1.550353 1_455
O46 Zr2 2.173703 1_555
O47 Si5 1.633865 1_655
O47 Zr1 2.057572 1_544
