# generated using pymatgen
data_C
_symmetry_space_group_name_H-M   'P 1'
_cell_length_a   3.54923433
_cell_length_b   3.54923433
_cell_length_c   5.43134400
_cell_angle_alpha   90.00000000
_cell_angle_beta   90.00000000
_cell_angle_gamma   92.25091631
_symmetry_Int_Tables_number   1
_chemical_formula_structural   C
_chemical_formula_sum   C8
_cell_volume   68.36619810
_cell_formula_units_Z   8
loop_
 _symmetry_equiv_pos_site_id
 _symmetry_equiv_pos_as_xyz
  1  'x, y, z'
loop_
 _atom_site_type_symbol
 _atom_site_label
 _atom_site_symmetry_multiplicity
 _atom_site_fract_x
 _atom_site_fract_y
 _atom_site_fract_z
 _atom_site_occupancy
  C  C0  1  0.25000000  0.25000000  0.13066100  1
  C  C1  1  0.89178200  0.39178200  0.76336400  1
  C  C2  1  0.75000000  0.75000000  0.13066100  1
  C  C3  1  0.25000000  0.25000000  0.86933900  1
  C  C4  1  0.75000000  0.75000000  0.86933900  1
  C  C5  1  0.60821800  0.10821800  0.76336400  1
  C  C6  1  0.10821800  0.60821800  0.23663600  1
  C  C7  1  0.39178200  0.89178200  0.23663600  1
loop_
_geom_bond_atom_site_label_1
_geom_bond_atom_site_label_2
_geom_bond_distance
_geom_bond_site_symmetry_2
C0 C3 1.419330 1_554
C0 C7 1.500414 1_545
C0 C6 1.500414 1_555
C1 C5 1.395083 1_555
C1 C4 1.500414 1_555
C1 C3 1.500414 1_655
C2 C4 1.419330 1_554
C2 C6 1.500414 1_655
C2 C7 1.500414 1_555
C3 C5 1.500414 1_555
C4 C5 1.500414 1_565
C6 C7 1.395083 1_555
