# generated using pymatgen
data_BaLaMnRuO6
_symmetry_space_group_name_H-M   'P 1'
_cell_length_a   5.77729700
_cell_length_b   5.78197600
_cell_length_c   9.90925895
_cell_angle_alpha   54.94186919
_cell_angle_beta   90.00000000
_cell_angle_gamma   90.00000000
_symmetry_Int_Tables_number   1
_chemical_formula_structural   BaLaMnRuO6
_chemical_formula_sum   'Ba2 La2 Mn2 Ru2 O12'
_cell_volume   270.95540253
_cell_formula_units_Z   2
loop_
 _symmetry_equiv_pos_site_id
 _symmetry_equiv_pos_as_xyz
  1  'x, y, z'
loop_
 _atom_site_type_symbol
 _atom_site_label
 _atom_site_symmetry_multiplicity
 _atom_site_fract_x
 _atom_site_fract_y
 _atom_site_fract_z
 _atom_site_occupancy
  Ba  Ba0  1  0.74853900  0.25055900  0.24910200  1
  Ba  Ba1  1  0.25146100  0.25055900  0.74910200  1
  La  La0  1  0.23920000  0.73270500  0.24914000  1
  La  La1  1  0.76080000  0.73270500  0.74914000  1
  Mn  Mn0  1  0.25257500  0.99843300  0.49704300  1
  Mn  Mn1  1  0.74742500  0.99843300  0.99704300  1
  Ru  Ru0  1  0.25044600  0.50159800  0.99901900  1
  Ru  Ru1  1  0.74955400  0.50159800  0.49901900  1
  O  O0  1  0.24039100  0.78718400  0.75958100  1
  O  O1  1  0.98059000  0.71234700  0.54166000  1
  O  O2  1  0.99204300  0.31249500  0.96266700  1
  O  O3  1  0.00795700  0.31249500  0.46266700  1
  O  O4  1  0.01941000  0.71234700  0.04166000  1
  O  O5  1  0.75960900  0.78718400  0.25958100  1
  O  O6  1  0.74899200  0.16370700  0.73902400  1
  O  O7  1  0.51392400  0.32431600  0.95913000  1
  O  O8  1  0.52620000  0.71665600  0.54363400  1
  O  O9  1  0.47380000  0.71665600  0.04363400  1
  O  O10  1  0.48607600  0.32431600  0.45913000  1
  O  O11  1  0.25100800  0.16370700  0.23902400  1
loop_
_geom_bond_atom_site_label_1
_geom_bond_atom_site_label_2
_geom_bond_distance
_geom_bond_site_symmetry_2
Ba0 O5 2.621736 1_545
Ba0 O4 2.738290 1_655
Ba0 O9 2.761165 1_555
Ba0 O3 2.779154 1_655
Ba0 O10 2.798614 1_555
Ba0 O11 2.929480 1_555
Ba0 O11 2.957477 1_655
Ba0 O7 2.977886 1_554
Ba0 O2 2.999314 1_554
Ba0 O8 3.057338 1_545
Ba0 O1 3.085717 1_545
Ba0 O5 3.164187 1_555
Ba1 O0 2.621736 1_545
Ba1 O1 2.738290 1_455
Ba1 O8 2.761165 1_555
Ba1 O2 2.779154 1_455
Ba1 O7 2.798614 1_555
Ba1 O6 2.929480 1_555
Ba1 O6 2.957477 1_455
Ba1 O10 2.977886 1_555
Ba1 O3 2.999314 1_555
Ba1 O9 3.057338 1_546
Ba1 O4 3.085717 1_546
Ba1 O0 3.164187 1_555
La0 O11 2.436801 1_565
La0 O4 2.476141 1_555
La0 O9 2.491919 1_555
La0 O3 2.501812 1_555
La0 O10 2.509025 1_555
La0 O5 2.797207 1_455
La0 O5 3.030966 1_555
La0 O2 3.225350 1_464
La1 O6 2.436801 1_565
La1 O1 2.476141 1_555
La1 O8 2.491919 1_555
La1 O2 2.501812 1_555
La1 O7 2.509025 1_555
La1 O0 2.797207 1_655
La1 O0 3.030966 1_555
La1 O3 3.225350 1_665
Mn0 O8 2.121882 1_555
Mn0 O1 2.135556 1_455
Mn0 O0 2.148126 1_555
Mn0 O11 2.154879 1_565
Mn0 O10 2.167512 1_565
Mn0 O3 2.167977 1_565
Mn1 O9 2.121882 1_556
Mn1 O4 2.135556 1_656
Mn1 O5 2.148126 1_556
Mn1 O6 2.154879 1_565
Mn1 O7 2.167512 1_565
Mn1 O2 2.167977 1_565
O0 Ru0 1.964334 1_555
O1 Ru1 2.009103 1_555
O2 Ru0 2.001599 1_655
O3 Ru1 2.001599 1_455
O4 Ru0 2.009103 1_554
O5 Ru1 1.964334 1_555
O6 Ru1 2.033524 1_555
O7 Ru0 1.997367 1_555
O8 Ru1 2.009547 1_555
O9 Ru0 2.009547 1_554
O10 Ru1 1.997367 1_555
O11 Ru0 2.033524 1_554
