# generated using pymatgen
data_B2Pb2S5
_symmetry_space_group_name_H-M   'P 1'
_cell_length_a   9.70579333
_cell_length_b   9.70579333
_cell_length_c   15.64761385
_cell_angle_alpha   90.00000000
_cell_angle_beta   90.00000000
_cell_angle_gamma   90.00000000
_symmetry_Int_Tables_number   1
_chemical_formula_structural   B2Pb2S5
_chemical_formula_sum   'B16 Pb16 S40'
_cell_volume   1474.04315706
_cell_formula_units_Z   8
loop_
 _symmetry_equiv_pos_site_id
 _symmetry_equiv_pos_as_xyz
  1  'x, y, z'
loop_
 _atom_site_type_symbol
 _atom_site_label
 _atom_site_symmetry_multiplicity
 _atom_site_fract_x
 _atom_site_fract_y
 _atom_site_fract_z
 _atom_site_occupancy
  B  B0  1  0.92513732  0.77141303  0.43062639  1
  B  B1  1  0.56899217  0.59377080  0.81557423  1
  B  B2  1  0.77141303  0.92513732  0.56937361  1
  B  B3  1  0.72858697  0.42513732  0.68062639  1
  B  B4  1  0.90622920  0.06899217  0.06557423  1
  B  B5  1  0.57486268  0.27141303  0.81937361  1
  B  B6  1  0.09377080  0.93100783  0.56557423  1
  B  B7  1  0.40622920  0.43100783  0.68442577  1
  B  B8  1  0.59377080  0.56899217  0.18442577  1
  B  B9  1  0.07486268  0.22858697  0.93062639  1
  B  B10  1  0.27141303  0.57486268  0.18062639  1
  B  B11  1  0.22858697  0.07486268  0.06937361  1
  B  B12  1  0.93100783  0.09377080  0.43442577  1
  B  B13  1  0.42513732  0.72858697  0.31937361  1
  B  B14  1  0.43100783  0.40622920  0.31557423  1
  B  B15  1  0.06899217  0.90622920  0.93442577  1
  Pb  Pb0  1  0.73265546  0.44306581  0.42975609  1
  Pb  Pb1  1  0.54977914  0.85528866  0.08793352  1
  Pb  Pb2  1  0.05693419  0.23265546  0.67975609  1
  Pb  Pb3  1  0.95022086  0.35528866  0.16206648  1
  Pb  Pb4  1  0.55693419  0.26734454  0.07024391  1
  Pb  Pb5  1  0.04977914  0.64471134  0.66206648  1
  Pb  Pb6  1  0.85528866  0.54977914  0.91206648  1
  Pb  Pb7  1  0.45022086  0.14471134  0.58793352  1
  Pb  Pb8  1  0.64471134  0.04977914  0.33793352  1
  Pb  Pb9  1  0.76734454  0.94306581  0.82024391  1
  Pb  Pb10  1  0.14471134  0.45022086  0.41206648  1
  Pb  Pb11  1  0.26734454  0.55693419  0.92975609  1
  Pb  Pb12  1  0.23265546  0.05693419  0.32024391  1
  Pb  Pb13  1  0.35528866  0.95022086  0.83793352  1
  Pb  Pb14  1  0.94306581  0.76734454  0.17975609  1
  Pb  Pb15  1  0.44306581  0.73265546  0.57024391  1
  S  S0  1  0.93290285  0.93366860  0.35993483  1
  S  S1  1  0.73561897  0.59399000  0.74803424  1
  S  S2  1  0.57277024  0.75099669  0.88857918  1
  S  S3  1  0.23616550  0.23616550  0.00000000  1
  S  S4  1  0.23561897  0.90601000  0.00196576  1
  S  S5  1  0.25099669  0.92722976  0.63857918  1
  S  S6  1  0.90601000  0.23561897  0.99803424  1
  S  S7  1  0.56709715  0.43366860  0.89006517  1
  S  S8  1  0.42549876  0.88408163  0.39608114  1
  S  S9  1  0.06709715  0.06633140  0.85993483  1
  S  S10  1  0.09399000  0.76438103  0.49803424  1
  S  S11  1  0.93366860  0.93290285  0.64006517  1
  S  S12  1  0.42722976  0.24900331  0.38857918  1
  S  S13  1  0.07277024  0.74900331  0.86142082  1
  S  S14  1  0.61591837  0.92549876  0.64608114  1
  S  S15  1  0.09763541  0.09763541  0.50000000  1
  S  S16  1  0.40601000  0.26438103  0.75196576  1
  S  S17  1  0.43366860  0.56709715  0.10993483  1
  S  S18  1  0.26438103  0.40601000  0.24803424  1
  S  S19  1  0.76438103  0.09399000  0.50196576  1
  S  S20  1  0.74900331  0.07277024  0.13857918  1
  S  S21  1  0.40236459  0.59763541  0.75000000  1
  S  S22  1  0.38408163  0.07450124  0.14608114  1
  S  S23  1  0.26383450  0.73616550  0.25000000  1
  S  S24  1  0.59763541  0.40236459  0.25000000  1
  S  S25  1  0.59399000  0.73561897  0.25196576  1
  S  S26  1  0.43290285  0.56633140  0.39006517  1
  S  S27  1  0.24900331  0.42722976  0.61142082  1
  S  S28  1  0.90236459  0.90236459  0.00000000  1
  S  S29  1  0.92549876  0.61591837  0.35391886  1
  S  S30  1  0.73616550  0.26383450  0.75000000  1
  S  S31  1  0.06633140  0.06709715  0.14006517  1
  S  S32  1  0.56633140  0.43290285  0.60993483  1
  S  S33  1  0.11591837  0.57450124  0.10391886  1
  S  S34  1  0.76383450  0.76383450  0.50000000  1
  S  S35  1  0.75099669  0.57277024  0.11142082  1
  S  S36  1  0.07450124  0.38408163  0.85391886  1
  S  S37  1  0.57450124  0.11591837  0.89608114  1
  S  S38  1  0.92722976  0.25099669  0.36142082  1
  S  S39  1  0.88408163  0.42549876  0.60391886  1
loop_
_geom_bond_atom_site_label_1
_geom_bond_atom_site_label_2
_geom_bond_distance
_geom_bond_site_symmetry_2
B0 S34 1.906516 1_555
B0 S0 1.925958 1_555
B0 S29 1.928313 1_555
B0 S10 1.950136 1_655
B1 S2 1.906567 1_555
B1 S21 1.915660 1_555
B1 S1 1.931941 1_555
B1 S7 1.942585 1_555
B2 S34 1.906516 1_555
B2 S11 1.925958 1_555
B2 S14 1.928313 1_555
B2 S19 1.950136 1_565
B3 S30 1.906516 1_555
B3 S32 1.925958 1_555
B3 S39 1.928313 1_555
B3 S1 1.950136 1_555
B4 S20 1.906567 1_555
B4 S28 1.915660 1_545
B4 S6 1.931941 1_554
B4 S31 1.942585 1_655
B5 S30 1.906516 1_555
B5 S7 1.925958 1_555
B5 S37 1.928313 1_555
B5 S16 1.950136 1_555
B6 S5 1.906567 1_555
B6 S15 1.915660 1_565
B6 S10 1.931941 1_555
B6 S11 1.942585 1_455
B7 S27 1.906567 1_555
B7 S21 1.915660 1_555
B7 S16 1.931941 1_555
B7 S32 1.942585 1_555
B8 S35 1.906567 1_555
B8 S24 1.915660 1_555
B8 S25 1.931941 1_555
B8 S17 1.942585 1_555
B9 S3 1.906516 1_556
B9 S9 1.925958 1_555
B9 S36 1.928313 1_555
B9 S6 1.950136 1_455
B10 S23 1.906516 1_555
B10 S17 1.925958 1_555
B10 S33 1.928313 1_555
B10 S18 1.950136 1_555
B11 S3 1.906516 1_555
B11 S31 1.925958 1_555
B11 S22 1.928313 1_555
B11 S4 1.950136 1_545
B12 S38 1.906567 1_555
B12 S15 1.915660 1_655
B12 S19 1.931941 1_555
B12 S0 1.942585 1_545
B13 S23 1.906516 1_555
B13 S26 1.925958 1_555
B13 S8 1.928313 1_555
B13 S25 1.950136 1_555
B14 S12 1.906567 1_555
B14 S24 1.915660 1_555
B14 S18 1.931941 1_555
B14 S26 1.942585 1_555
B15 S13 1.906567 1_555
B15 S28 1.915660 1_456
B15 S4 1.931941 1_556
B15 S9 1.942585 1_565
Pb0 S29 2.779572 1_555
Pb0 S38 2.860939 1_555
Pb0 S39 3.100969 1_555
Pb0 S24 3.128097 1_555
Pb0 S26 3.206449 1_555
Pb0 S32 3.250315 1_555
Pb0 S34 3.315484 1_555
Pb1 S22 2.817991 1_565
Pb1 S25 2.849772 1_555
Pb1 S20 2.970279 1_565
Pb1 S17 3.035201 1_555
Pb2 S39 2.779572 1_455
Pb2 S27 2.860939 1_555
Pb2 S36 3.100969 1_555
Pb2 S15 3.128097 1_555
Pb2 S11 3.206449 1_445
Pb2 S9 3.250315 1_555
Pb2 S30 3.315484 1_455
Pb3 S33 2.817991 1_655
Pb3 S6 2.849772 1_554
Pb3 S35 2.970279 1_555
Pb3 S31 3.035201 1_655
Pb4 S22 2.779572 1_555
Pb4 S20 2.860939 1_555
Pb4 S37 3.100969 1_554
Pb4 S24 3.128097 1_555
Pb4 S17 3.206449 1_555
Pb4 S7 3.250315 1_554
Pb4 S3 3.315484 1_555
Pb5 S39 2.817991 1_455
Pb5 S10 2.849772 1_555
Pb5 S27 2.970279 1_555
Pb5 S11 3.035201 1_455
Pb6 S36 2.817991 1_655
Pb6 S1 2.849772 1_555
Pb6 S13 2.970279 1_655
Pb6 S7 3.035201 1_555
Pb7 S14 2.817991 1_545
Pb7 S16 2.849772 1_555
Pb7 S5 2.970279 1_545
Pb7 S32 3.035201 1_555
Pb8 S8 2.817991 1_545
Pb8 S19 2.849772 1_555
Pb8 S12 2.970279 1_555
Pb8 S0 3.035201 1_545
Pb9 S37 2.779572 1_565
Pb9 S2 2.860939 1_555
Pb9 S14 3.100969 1_555
Pb9 S28 3.128097 1_556
Pb9 S9 3.206449 1_665
Pb9 S11 3.250315 1_555
Pb9 S30 3.315484 1_565
Pb10 S29 2.817991 1_455
Pb10 S18 2.849772 1_555
Pb10 S38 2.970279 1_455
Pb10 S26 3.035201 1_555
Pb11 S36 2.779572 1_555
Pb11 S13 2.860939 1_555
Pb11 S33 3.100969 1_556
Pb11 S21 3.128097 1_555
Pb11 S7 3.206449 1_555
Pb11 S17 3.250315 1_556
Pb11 S3 3.315484 1_556
Pb12 S8 2.779572 1_545
Pb12 S12 2.860939 1_555
Pb12 S22 3.100969 1_555
Pb12 S15 3.128097 1_555
Pb12 S0 3.206449 1_445
Pb12 S31 3.250315 1_555
Pb12 S23 3.315484 1_545
Pb13 S37 2.817991 1_565
Pb13 S4 2.849772 1_556
Pb13 S2 2.970279 1_555
Pb13 S9 3.035201 1_565
Pb14 S33 2.779572 1_655
Pb14 S35 2.860939 1_555
Pb14 S29 3.100969 1_555
Pb14 S28 3.128097 1_555
Pb14 S31 3.206449 1_665
Pb14 S0 3.250315 1_555
Pb14 S23 3.315484 1_655
Pb15 S14 2.779572 1_555
Pb15 S5 2.860939 1_555
Pb15 S8 3.100969 1_555
Pb15 S21 3.128097 1_555
Pb15 S32 3.206449 1_555
Pb15 S26 3.250315 1_555
Pb15 S34 3.315484 1_555
