# generated using pymatgen
data_V3(HO4)2
_symmetry_space_group_name_H-M   'P 1'
_cell_length_a   9.34771000
_cell_length_b   3.72412500
_cell_length_c   17.02715004
_cell_angle_alpha   88.50653641
_cell_angle_beta   90.00000000
_cell_angle_gamma   90.00000000
_symmetry_Int_Tables_number   1
_chemical_formula_structural   V3(HO4)2
_chemical_formula_sum   'V12 H8 O32'
_cell_volume   592.54848262
_cell_formula_units_Z   4
loop_
 _symmetry_equiv_pos_site_id
 _symmetry_equiv_pos_as_xyz
  1  'x, y, z'
loop_
 _atom_site_type_symbol
 _atom_site_label
 _atom_site_symmetry_multiplicity
 _atom_site_fract_x
 _atom_site_fract_y
 _atom_site_fract_z
 _atom_site_occupancy
  V  V0  1  0.37677400  0.25147300  0.45251100  1
  V  V1  1  0.12322600  0.25147300  0.95251100  1
  V  V2  1  0.62322600  0.74852700  0.54748900  1
  V  V3  1  0.87677400  0.74852700  0.04748900  1
  V  V4  1  0.44136200  0.22791500  0.65498400  1
  V  V5  1  0.05863800  0.22791500  0.15498400  1
  V  V6  1  0.55863800  0.77208500  0.34501600  1
  V  V7  1  0.94136200  0.77208500  0.84501600  1
  V  V8  1  0.40693600  0.24979100  0.04997000  1
  V  V9  1  0.09306400  0.24979100  0.54997000  1
  V  V10  1  0.59306400  0.75020900  0.95003000  1
  V  V11  1  0.90693600  0.75020900  0.45003000  1
  H  H0  1  0.22151500  0.01560300  0.74725100  1
  H  H1  1  0.27848500  0.01560300  0.24725100  1
  H  H2  1  0.77848500  0.98439700  0.25274900  1
  H  H3  1  0.72151500  0.98439700  0.75274900  1
  H  H4  1  0.61977600  0.44521000  0.74704900  1
  H  H5  1  0.88022400  0.44521000  0.24704900  1
  H  H6  1  0.38022400  0.55479000  0.25295100  1
  H  H7  1  0.11977600  0.55479000  0.75295100  1
  O  O0  1  0.57060500  0.24393400  0.54364000  1
  O  O1  1  0.92939500  0.24393400  0.04364000  1
  O  O2  1  0.42939500  0.75606600  0.45636000  1
  O  O3  1  0.07060500  0.75606600  0.95636000  1
  O  O4  1  0.22630700  0.25703600  0.40513100  1
  O  O5  1  0.27369300  0.25703600  0.90513100  1
  O  O6  1  0.77369300  0.74296400  0.59486900  1
  O  O7  1  0.72630700  0.74296400  0.09486900  1
  O  O8  1  0.52041300  0.26974000  0.37210800  1
  O  O9  1  0.97958700  0.26974000  0.87210800  1
  O  O10  1  0.47958700  0.73026000  0.62789200  1
  O  O11  1  0.02041300  0.73026000  0.12789200  1
  O  O12  1  0.29055400  0.24770900  0.55623600  1
  O  O13  1  0.20944600  0.24770900  0.05623600  1
  O  O14  1  0.70944600  0.75229100  0.44376400  1
  O  O15  1  0.79055400  0.75229100  0.94376400  1
  O  O16  1  0.30092900  0.18174200  0.72026700  1
  O  O17  1  0.19907100  0.18174200  0.22026700  1
  O  O18  1  0.69907100  0.81825800  0.27973300  1
  O  O19  1  0.80092900  0.81825800  0.77973300  1
  O  O20  1  0.60654700  0.21724200  0.72078200  1
  O  O21  1  0.89345300  0.21724200  0.22078200  1
  O  O22  1  0.39345300  0.78275800  0.27921800  1
  O  O23  1  0.10654700  0.78275800  0.77921800  1
  O  O24  1  0.57503300  0.25020100  0.97944100  1
  O  O25  1  0.92496700  0.25020100  0.47944100  1
  O  O26  1  0.42496700  0.74979900  0.02055900  1
  O  O27  1  0.07503300  0.74979900  0.52055900  1
  O  O28  1  0.46082100  0.24841500  0.13907300  1
  O  O29  1  0.03917900  0.24841500  0.63907300  1
  O  O30  1  0.53917900  0.75158500  0.86092700  1
  O  O31  1  0.96082100  0.75158500  0.36092700  1
loop_
_geom_bond_atom_site_label_1
_geom_bond_atom_site_label_2
_geom_bond_distance
_geom_bond_site_symmetry_2
H0 O16 1.063095 1_555
H0 O23 1.475994 1_545
H1 O17 1.063095 1_555
H1 O22 1.475994 1_545
H2 O18 1.063095 1_555
H2 O21 1.475994 1_565
H3 O19 1.063095 1_555
H3 O20 1.475994 1_565
H4 O20 0.977695 1_555
H5 O21 0.977695 1_555
H6 O22 0.977695 1_555
H7 O23 0.977695 1_555
O0 V2 1.908877 1_545
O0 V2 1.945234 1_555
O0 V4 2.247567 1_555
O0 V0 2.385180 1_555
O1 V3 1.908877 1_545
O1 V3 1.945234 1_555
O1 V5 2.247567 1_655
O1 V1 2.385180 1_654
O2 V0 1.908877 1_565
O2 V0 1.945234 1_555
O2 V6 2.247567 1_555
O2 V2 2.385180 1_555
O3 V1 1.908877 1_565
O3 V1 1.945234 1_555
O3 V7 2.247567 1_455
O3 V3 2.385180 1_456
O4 V0 1.621327 1_555
O5 V1 1.621327 1_555
O6 V2 1.621327 1_555
O7 V3 1.621327 1_555
O8 V0 1.917514 1_555
O8 V6 1.948169 1_555
O8 V6 1.954448 1_545
O9 V1 1.917514 1_655
O9 V7 1.948169 1_555
O9 V7 1.954448 1_545
O10 V2 1.917514 1_555
O10 V4 1.948169 1_555
O10 V4 1.954448 1_565
O11 V3 1.917514 1_455
O11 V5 1.948169 1_555
O11 V5 1.954448 1_565
O12 V9 1.849164 1_555
O12 V0 1.941064 1_555
O12 V4 2.193935 1_555
O13 V8 1.849164 1_555
O13 V1 1.941064 1_554
O13 V5 2.193935 1_555
O14 V11 1.849164 1_555
O14 V2 1.941064 1_555
O14 V6 2.193935 1_555
O15 V10 1.849164 1_555
O15 V3 1.941064 1_556
O15 V7 2.193935 1_555
O16 V4 1.725826 1_555
O17 V5 1.725826 1_555
O18 V6 1.725826 1_555
O19 V7 1.725826 1_555
O20 V4 1.907537 1_555
O21 V5 1.907537 1_655
O22 V6 1.907537 1_555
O23 V7 1.907537 1_455
O24 V10 1.923012 1_555
O24 V10 1.948067 1_545
O24 V8 1.977660 1_556
O25 V11 1.923012 1_555
O25 V11 1.948067 1_545
O25 V9 1.977660 1_655
O26 V8 1.923012 1_555
O26 V8 1.948067 1_565
O26 V10 1.977660 1_554
O27 V9 1.923012 1_555
O27 V9 1.948067 1_565
O27 V11 1.977660 1_455
O28 V8 1.598481 1_555
O29 V9 1.598481 1_555
O30 V10 1.598481 1_555
O31 V11 1.598481 1_555
