# generated using pymatgen
data_K3NaFeCl6
_symmetry_space_group_name_H-M   'P 1'
_cell_length_a   8.22534849
_cell_length_b   8.22534849
_cell_length_c   6.23500686
_cell_angle_alpha   86.66831637
_cell_angle_beta   86.66831637
_cell_angle_gamma   114.15889758
_symmetry_Int_Tables_number   1
_chemical_formula_structural   K3NaFeCl6
_chemical_formula_sum   'K3 Na1 Fe1 Cl6'
_cell_volume   382.68382057
_cell_formula_units_Z   1
loop_
 _symmetry_equiv_pos_site_id
 _symmetry_equiv_pos_as_xyz
  1  'x, y, z'
loop_
 _atom_site_type_symbol
 _atom_site_label
 _atom_site_symmetry_multiplicity
 _atom_site_fract_x
 _atom_site_fract_y
 _atom_site_fract_z
 _atom_site_occupancy
  K  K0  1  0.50000000  0.50000000  0.00000000  1
  K  K1  1  0.00000000  0.50000000  0.00000000  1
  K  K2  1  0.50000000  0.00000000  0.00000000  1
  Na  Na0  1  0.00000000  0.00000000  0.00000000  1
  Fe  Fe0  1  0.50000000  0.50000000  0.50000000  1
  Cl  Cl0  1  0.25056600  0.50895900  0.32804200  1
  Cl  Cl1  1  0.23330200  0.23330200  0.75227300  1
  Cl  Cl2  1  0.50895900  0.25056600  0.32804200  1
  Cl  Cl3  1  0.74943400  0.49104100  0.67195800  1
  Cl  Cl4  1  0.76669800  0.76669800  0.24772700  1
  Cl  Cl5  1  0.49104100  0.74943400  0.67195800  1
loop_
_geom_bond_atom_site_label_1
_geom_bond_atom_site_label_2
_geom_bond_distance
_geom_bond_site_symmetry_2
Cl0 Fe0 2.394703 1_555
Cl0 K0 2.837565 1_555
Cl0 K1 2.969802 1_555
Cl1 Na0 2.459158 1_556
Cl1 Fe0 2.712465 1_555
Cl1 K0 2.976388 1_556
Cl2 Fe0 2.394703 1_555
Cl2 K0 2.837565 1_555
Cl2 K2 2.969802 1_555
Cl3 Fe0 2.394703 1_555
Cl3 K0 2.837565 1_556
Cl3 K1 2.969802 1_656
Cl4 Na0 2.459158 1_665
Cl4 Fe0 2.712465 1_555
Cl4 K0 2.976388 1_555
Cl5 Fe0 2.394703 1_555
Cl5 K0 2.837565 1_556
Cl5 K2 2.969802 1_566
