# generated using pymatgen
data_YAl6Si18(N15O)2
_symmetry_space_group_name_H-M   'P 1'
_cell_length_a   7.93999800
_cell_length_b   7.94099432
_cell_length_c   11.43932224
_cell_angle_alpha   90.42873304
_cell_angle_beta   89.96194413
_cell_angle_gamma   119.66644388
_symmetry_Int_Tables_number   1
_chemical_formula_structural   YAl6Si18(N15O)2
_chemical_formula_sum   'Y1 Al6 Si18 N30 O2'
_cell_volume   626.70234403
_cell_formula_units_Z   1
loop_
 _symmetry_equiv_pos_site_id
 _symmetry_equiv_pos_as_xyz
  1  'x, y, z'
loop_
 _atom_site_type_symbol
 _atom_site_label
 _atom_site_symmetry_multiplicity
 _atom_site_fract_x
 _atom_site_fract_y
 _atom_site_fract_z
 _atom_site_occupancy
  Y  Y0  1  0.67022700  0.32254600  0.13219200  1
  Al  Al0  1  0.16292900  0.91348800  0.99428800  1
  Al  Al1  1  0.48776000  0.90341200  0.14444900  1
  Al  Al2  1  0.25305300  0.08246200  0.25334900  1
  Al  Al3  1  0.57331700  0.08655300  0.39890200  1
  Al  Al4  1  0.91379800  0.16424900  0.74418700  1
  Al  Al5  1  0.91485400  0.16637700  0.25043000  1
  Si  Si0  1  0.15948600  0.91021500  0.49508400  1
  Si  Si1  1  0.49268400  0.90986800  0.64444400  1
  Si  Si2  1  0.08106200  0.56495400  0.64327800  1
  Si  Si3  1  0.08607100  0.56914300  0.14220600  1
  Si  Si4  1  0.74249800  0.83642300  0.99446400  1
  Si  Si5  1  0.74774100  0.83483300  0.50283700  1
  Si  Si6  1  0.83466800  0.73951500  0.74794900  1
  Si  Si7  1  0.82728300  0.74538300  0.24927300  1
  Si  Si8  1  0.42918400  0.51343200  0.64142400  1
  Si  Si9  1  0.42353700  0.51510400  0.14406000  1
  Si  Si10  1  0.08140300  0.25842600  0.99692200  1
  Si  Si11  1  0.09175600  0.26138500  0.49796300  1
  Si  Si12  1  0.51031800  0.43022500  0.89027900  1
  Si  Si13  1  0.52200100  0.43922900  0.39545600  1
  Si  Si14  1  0.92424200  0.48703800  0.89277400  1
  Si  Si15  1  0.91943200  0.48659400  0.39913300  1
  Si  Si16  1  0.25339000  0.08687500  0.75136100  1
  Si  Si17  1  0.56591300  0.07511100  0.88557200  1
  N  N0  1  0.61366700  0.94968800  0.51479400  1
  N  N1  1  0.60832000  0.95549200  0.99832100  1
  N  N2  1  0.04294200  0.66043300  0.51196400  1
  N  N3  1  0.03025600  0.64534200  0.01246300  1
  N  N4  1  0.98985000  0.00675100  0.00106700  1
  N  N5  1  0.00536700  0.98624600  0.74880900  1
  N  N6  1  0.00083700  0.00398600  0.50176100  1
  N  N7  1  0.33120800  0.66694400  0.66981600  1
  N  N8  1  0.32180800  0.65392800  0.17747900  1
  N  N9  1  0.68028000  0.68272700  0.62742600  1
  N  N10  1  0.67476300  0.68010500  0.12212800  1
  N  N11  1  0.68678600  0.67727000  0.87487800  1
  N  N12  1  0.68724200  0.69025600  0.37617800  1
  N  N13  1  0.01573500  0.32731200  0.62083400  1
  N  N14  1  0.99341200  0.32371000  0.11858100  1
  N  N15  1  0.34955700  0.39053500  0.50600800  1
  N  N16  1  0.34520300  0.38491000  0.00858300  1
  N  N17  1  0.41877900  0.35662900  0.25196100  1
  N  N18  1  0.39038800  0.34327200  0.75409300  1
  N  N19  1  0.95248000  0.60200300  0.75781900  1
  N  N20  1  0.93615600  0.59191000  0.25316300  1
  N  N21  1  0.66584400  0.33123900  0.92271800  1
  N  N22  1  0.67494400  0.35123800  0.42556500  1
  N  N23  1  0.32516600  0.00942200  0.86907600  1
  N  N24  1  0.31247900  0.99933500  0.38444100  1
  N  N25  1  0.00317500  0.32256300  0.87633700  1
  N  N26  1  0.00791200  0.32780500  0.37978900  1
  N  N27  1  0.64557000  0.04463800  0.75319800  1
  N  N28  1  0.65416500  0.07843000  0.24802200  1
  N  N29  1  0.99221100  0.98426400  0.24116600  1
  O  O0  1  0.31132400  0.99033500  0.62662200  1
  O  O1  1  0.33023500  0.01177700  0.11966100  1
loop_
_geom_bond_atom_site_label_1
_geom_bond_atom_site_label_2
_geom_bond_distance
_geom_bond_site_symmetry_2
Al0 N23 1.825861 1_565
Al0 O1 1.841239 1_566
Al0 N4 1.857295 1_466
Al0 N3 1.863580 1_556
Al1 N8 1.797324 1_555
Al1 N28 1.800208 1_565
Al1 O1 1.858718 1_565
Al1 N1 1.870282 1_554
Al2 N24 1.797573 1_545
Al2 N29 1.821248 1_445
Al2 O1 1.831884 1_555
Al2 N17 1.906922 1_555
Al3 N24 1.837155 1_545
Al3 N0 1.846140 1_545
Al3 N28 1.852848 1_555
Al3 N22 1.863814 1_555
Al4 N13 1.819700 1_655
Al4 N27 1.856684 1_555
Al4 N25 1.859887 1_655
Al4 N5 1.883600 1_645
Al5 N28 1.828027 1_555
Al5 N29 1.832147 1_545
Al5 N26 1.847814 1_655
Al5 N14 1.865582 1_555
N0 Si1 1.710790 1_555
N0 Si5 1.715487 1_555
N1 Si17 1.736291 1_565
N1 Si4 1.739961 1_555
N2 Si0 1.736803 1_555
N2 Si2 1.779811 1_555
N2 Si15 1.779949 1_455
N3 Si3 1.745014 1_555
N3 Si14 1.758331 1_454
N4 Si4 1.749696 1_544
N4 Si10 1.757304 1_654
N5 Si16 1.720325 1_565
N5 Si6 1.745541 1_455
N6 Si0 1.753463 1_545
N6 Si5 1.780729 1_445
N6 Si11 1.800446 1_555
N7 Si1 1.734623 1_555
N7 Si2 1.760029 1_555
N7 Si8 1.768954 1_555
N8 Si3 1.693820 1_555
N8 Si9 1.699584 1_555
N9 Si6 1.747166 1_555
N9 Si8 1.776912 1_555
N9 Si5 1.778032 1_555
N10 Si9 1.782058 1_555
N10 Si7 1.794527 1_555
N10 Si4 1.824305 1_554
N10 Y0 2.824934 1_555
N11 Si4 1.756657 1_555
N11 Si12 1.768251 1_555
N11 Si6 1.779109 1_555
N12 Si7 1.749569 1_555
N12 Si5 1.754492 1_555
N12 Si13 1.777894 1_555
N13 Si11 1.707248 1_555
N13 Si2 1.708840 1_555
N14 Si3 1.727951 1_655
N14 Si10 1.743598 1_654
N14 Y0 2.566154 1_555
N15 Si13 1.761953 1_555
N15 Si8 1.766254 1_555
N15 Si11 1.780726 1_555
N16 Si9 1.788370 1_555
N16 Si12 1.793780 1_554
N16 Si10 1.824738 1_554
N17 Si9 1.756353 1_555
N17 Si13 1.802761 1_555
N17 Y0 2.542062 1_555
N18 Si16 1.770994 1_555
N18 Si12 1.773562 1_555
N18 Si8 1.787566 1_555
N19 Si14 1.756426 1_555
N19 Si6 1.758788 1_555
N19 Si2 1.770727 1_655
N20 Si3 1.807816 1_655
N20 Si7 1.810610 1_555
N20 Si15 1.848229 1_555
N20 Y0 2.537207 1_555
N21 Si12 1.801758 1_555
N21 Si17 1.826725 1_555
N21 Si14 1.830326 1_555
N21 Y0 2.398522 1_556
N22 Si13 1.710456 1_555
N22 Si15 1.718646 1_555
N23 Si16 1.696098 1_555
N23 Si17 1.724418 1_555
N24 Si0 1.654931 1_555
N25 Si10 1.694928 1_555
N25 Si14 1.714787 1_455
N26 Si11 1.705366 1_555
N26 Si15 1.733497 1_455
N27 Si1 1.691955 1_545
N27 Si17 1.701864 1_555
N28 Y0 2.307227 1_555
N29 Si7 1.692732 1_555
O0 Si16 1.779684 1_565
O0 Si0 1.830622 1_555
O0 Si1 1.853821 1_555
O1 Y0 2.607433 1_555
