# generated using pymatgen
data_Hf(ClO4)4
_symmetry_space_group_name_H-M   'P 1'
_cell_length_a   7.47433029
_cell_length_b   7.47433029
_cell_length_c   13.19743228
_cell_angle_alpha   73.55229691
_cell_angle_beta   73.55229691
_cell_angle_gamma   62.85369794
_symmetry_Int_Tables_number   1
_chemical_formula_structural   Hf(ClO4)4
_chemical_formula_sum   'Hf2 Cl8 O32'
_cell_volume   618.89697195
_cell_formula_units_Z   2
loop_
 _symmetry_equiv_pos_site_id
 _symmetry_equiv_pos_as_xyz
  1  'x, y, z'
loop_
 _atom_site_type_symbol
 _atom_site_label
 _atom_site_symmetry_multiplicity
 _atom_site_fract_x
 _atom_site_fract_y
 _atom_site_fract_z
 _atom_site_occupancy
  Hf  Hf0  1  0.59617230  0.65145803  0.41061088  1
  Hf  Hf1  1  0.65145803  0.59617230  0.91061088  1
  Cl  Cl0  1  0.28830460  0.84635593  0.57526191  1
  Cl  Cl1  1  0.60228540  0.00397365  0.82076555  1
  Cl  Cl2  1  0.24832151  0.63365271  0.00487059  1
  Cl  Cl3  1  0.41235240  0.95428216  0.24135556  1
  Cl  Cl4  1  0.63365271  0.24832151  0.50487059  1
  Cl  Cl5  1  0.84635593  0.28830460  0.07526191  1
  Cl  Cl6  1  0.00397365  0.60228540  0.32076555  1
  Cl  Cl7  1  0.95428216  0.41235240  0.74135556  1
  O  O0  1  0.38723361  0.69932062  0.03596872  1
  O  O1  1  0.75997210  0.03787943  0.74161762  1
  O  O2  1  0.18078990  0.43262952  0.34723710  1
  O  O3  1  0.96196685  0.51643914  0.82274151  1
  O  O4  1  0.68508491  0.86490635  0.91985040  1
  O  O5  1  0.73818586  0.28289817  0.99513913  1
  O  O6  1  0.51758726  0.99087027  0.13690833  1
  O  O7  1  0.44546364  0.73213600  0.27463058  1
  O  O8  1  0.55861544  0.38365176  0.40330480  1
  O  O9  1  0.05558993  0.16403536  0.05349605  1
  O  O10  1  0.28289817  0.73818586  0.49513913  1
  O  O11  1  0.24581466  0.74703083  0.68049106  1
  O  O12  1  0.06775250  0.80182932  0.98222064  1
  O  O13  1  0.69932062  0.38723361  0.53596872  1
  O  O14  1  0.53746190  0.86491709  0.78920534  1
  O  O15  1  0.47091881  0.22115312  0.58239874  1
  O  O16  1  0.86490635  0.68508491  0.41985040  1
  O  O17  1  0.08176985  0.20351828  0.75952480  1
  O  O18  1  0.80920398  0.51161588  0.04430169  1
  O  O19  1  0.43262952  0.18078990  0.84723710  1
  O  O20  1  0.38365176  0.55861544  0.90330480  1
  O  O21  1  0.80182932  0.06775250  0.48222064  1
  O  O22  1  0.73213600  0.44546364  0.77463058  1
  O  O23  1  0.99087027  0.51758726  0.63690833  1
  O  O24  1  0.16403536  0.05558993  0.55349605  1
  O  O25  1  0.22115312  0.47091881  0.08239874  1
  O  O26  1  0.74703083  0.24581466  0.18049106  1
  O  O27  1  0.51643914  0.96196685  0.32274151  1
  O  O28  1  0.51161588  0.80920398  0.54430169  1
  O  O29  1  0.20351828  0.08176985  0.25952480  1
  O  O30  1  0.03787943  0.75997210  0.24161762  1
  O  O31  1  0.86491709  0.53746190  0.28920534  1
loop_
_geom_bond_atom_site_label_1
_geom_bond_atom_site_label_2
_geom_bond_distance
_geom_bond_site_symmetry_2
Hf0 O27 2.165970 1_555
Hf0 O10 2.166243 1_555
Hf0 O13 2.171256 1_555
Hf0 O31 2.171809 1_555
Hf0 O16 2.174690 1_555
Hf0 O8 2.175352 1_555
Hf0 O7 2.182922 1_555
Hf0 O28 2.183846 1_555
Hf1 O3 2.165970 1_555
Hf1 O5 2.166243 1_555
Hf1 O0 2.171256 1_556
Hf1 O14 2.171809 1_555
Hf1 O4 2.174690 1_555
Hf1 O20 2.175352 1_555
Hf1 O22 2.182922 1_555
Hf1 O18 2.183846 1_556
Cl0 O24 1.400767 1_565
Cl0 O11 1.400785 1_555
Cl0 O28 1.511646 1_555
Cl0 O10 1.520383 1_555
Cl1 O19 1.399265 1_555
Cl1 O1 1.403537 1_555
Cl1 O4 1.508303 1_545
Cl1 O14 1.519029 1_545
Cl2 O12 1.399466 1_554
Cl2 O25 1.403766 1_555
Cl2 O20 1.508192 1_554
Cl2 O0 1.519136 1_555
Cl3 O29 1.400739 1_565
Cl3 O6 1.400855 1_555
Cl3 O7 1.511511 1_555
Cl3 O27 1.520235 1_555
Cl4 O21 1.399466 1_555
Cl4 O15 1.403766 1_555
Cl4 O8 1.508192 1_555
Cl4 O13 1.519136 1_555
Cl5 O9 1.400767 1_655
Cl5 O26 1.400785 1_555
Cl5 O18 1.511646 1_555
Cl5 O5 1.520383 1_554
Cl6 O2 1.399265 1_555
Cl6 O30 1.403537 1_555
Cl6 O16 1.508303 1_455
Cl6 O31 1.519029 1_455
Cl7 O17 1.400739 1_655
Cl7 O23 1.400855 1_555
Cl7 O22 1.511511 1_555
Cl7 O3 1.520235 1_555
