# generated using pymatgen
data_Na3Nd2(NO3)9
_symmetry_space_group_name_H-M   'P 1'
_cell_length_a   13.25704900
_cell_length_b   13.25704900
_cell_length_c   13.25704900
_cell_angle_alpha   90.00000000
_cell_angle_beta   90.00000000
_cell_angle_gamma   90.00000000
_symmetry_Int_Tables_number   1
_chemical_formula_structural   Na3Nd2(NO3)9
_chemical_formula_sum   'Na12 Nd8 N36 O108'
_cell_volume   2329.91772065
_cell_formula_units_Z   4
loop_
 _symmetry_equiv_pos_site_id
 _symmetry_equiv_pos_as_xyz
  1  'x, y, z'
loop_
 _atom_site_type_symbol
 _atom_site_label
 _atom_site_symmetry_multiplicity
 _atom_site_fract_x
 _atom_site_fract_y
 _atom_site_fract_z
 _atom_site_occupancy
  Na  Na0  1  0.67005900  0.07994100  0.87500000  1
  Na  Na1  1  0.62500000  0.32994100  0.57994100  1
  Na  Na2  1  0.12500000  0.17005900  0.42005900  1
  Na  Na3  1  0.17005900  0.42005900  0.12500000  1
  Na  Na4  1  0.87500000  0.67005900  0.07994100  1
  Na  Na5  1  0.57994100  0.62500000  0.32994100  1
  Na  Na6  1  0.82994100  0.92005900  0.37500000  1
  Na  Na7  1  0.07994100  0.87500000  0.67005900  1
  Na  Na8  1  0.32994100  0.57994100  0.62500000  1
  Na  Na9  1  0.92005900  0.37500000  0.82994100  1
  Na  Na10  1  0.37500000  0.82994100  0.92005900  1
  Na  Na11  1  0.42005900  0.12500000  0.17005900  1
  Nd  Nd0  1  0.21195700  0.78804300  0.28804300  1
  Nd  Nd1  1  0.03804300  0.03804300  0.03804300  1
  Nd  Nd2  1  0.78804300  0.28804300  0.21195700  1
  Nd  Nd3  1  0.71195700  0.71195700  0.71195700  1
  Nd  Nd4  1  0.53804300  0.46195700  0.96195700  1
  Nd  Nd5  1  0.28804300  0.21195700  0.78804300  1
  Nd  Nd6  1  0.96195700  0.53804300  0.46195700  1
  Nd  Nd7  1  0.46195700  0.96195700  0.53804300  1
  N  N0  1  0.61186800  0.86755300  0.39801000  1
  N  N1  1  0.24501700  0.87500000  0.50498300  1
  N  N2  1  0.11755300  0.63813200  0.14801000  1
  N  N3  1  0.00498300  0.25498300  0.12500000  1
  N  N4  1  0.39801000  0.61186800  0.86755300  1
  N  N5  1  0.38244700  0.36186800  0.64801000  1
  N  N6  1  0.63244700  0.60199000  0.11186800  1
  N  N7  1  0.13813200  0.35199000  0.88244700  1
  N  N8  1  0.11186800  0.63244700  0.60199000  1
  N  N9  1  0.50498300  0.24501700  0.87500000  1
  N  N10  1  0.36755300  0.10199000  0.38813200  1
  N  N11  1  0.63813200  0.14801000  0.11755300  1
  N  N12  1  0.37500000  0.99501700  0.75498300  1
  N  N13  1  0.88244700  0.13813200  0.35199000  1
  N  N14  1  0.49501700  0.74501700  0.62500000  1
  N  N15  1  0.12500000  0.00498300  0.25498300  1
  N  N16  1  0.85199000  0.61755300  0.86186800  1
  N  N17  1  0.62500000  0.49501700  0.74501700  1
  N  N18  1  0.88813200  0.13244700  0.89801000  1
  N  N19  1  0.38813200  0.36755300  0.10199000  1
  N  N20  1  0.10199000  0.38813200  0.36755300  1
  N  N21  1  0.87500000  0.50498300  0.24501700  1
  N  N22  1  0.14801000  0.11755300  0.63813200  1
  N  N23  1  0.35199000  0.88244700  0.13813200  1
  N  N24  1  0.74501700  0.62500000  0.49501700  1
  N  N25  1  0.89801000  0.88813200  0.13244700  1
  N  N26  1  0.99501700  0.75498300  0.37500000  1
  N  N27  1  0.86186800  0.85199000  0.61755300  1
  N  N28  1  0.61755300  0.86186800  0.85199000  1
  N  N29  1  0.36186800  0.64801000  0.38244700  1
  N  N30  1  0.64801000  0.38244700  0.36186800  1
  N  N31  1  0.13244700  0.89801000  0.88813200  1
  N  N32  1  0.25498300  0.12500000  0.00498300  1
  N  N33  1  0.86755300  0.39801000  0.61186800  1
  N  N34  1  0.75498300  0.37500000  0.99501700  1
  N  N35  1  0.60199000  0.11186800  0.63244700  1
  O  O0  1  0.02265800  0.66777700  0.59167700  1
  O  O1  1  0.94410900  0.86746400  0.05008700  1
  O  O2  1  0.82306300  0.34551900  0.67606300  1
  O  O3  1  0.42693700  0.42606300  0.59551900  1
  O  O4  1  0.19410900  0.19991300  0.61746400  1
  O  O5  1  0.88253600  0.80589100  0.69991300  1
  O  O6  1  0.69410900  0.30008700  0.38253600  1
  O  O7  1  0.76431800  0.58563800  0.41138300  1
  O  O8  1  0.94991300  0.44410900  0.63253600  1
  O  O9  1  0.43600900  0.31399100  0.87500000  1
  O  O10  1  0.51431800  0.66138300  0.66436200  1
  O  O11  1  0.40832300  0.52265800  0.83222300  1
  O  O12  1  0.32306300  0.15448100  0.32393700  1
  O  O13  1  0.38253600  0.69410900  0.30008700  1
  O  O14  1  0.52265800  0.83222300  0.40832300  1
  O  O15  1  0.27265800  0.65832300  0.41777700  1
  O  O16  1  0.41138300  0.76431800  0.58563800  1
  O  O17  1  0.32393700  0.32306300  0.15448100  1
  O  O18  1  0.81399100  0.62500000  0.56399100  1
  O  O19  1  0.12500000  0.93600900  0.18600900  1
  O  O20  1  0.41777700  0.27265800  0.65832300  1
  O  O21  1  0.08563800  0.08861700  0.23568200  1
  O  O22  1  0.40448100  0.92693700  0.07393700  1
  O  O23  1  0.16436200  0.98568200  0.33861700  1
  O  O24  1  0.83861700  0.33563800  0.01431800  1
  O  O25  1  0.59551900  0.42693700  0.42606300  1
  O  O26  1  0.16777700  0.90832300  0.97734200  1
  O  O27  1  0.11746400  0.30589100  0.80008700  1
  O  O28  1  0.05008700  0.94410900  0.86746400  1
  O  O29  1  0.44410900  0.63253600  0.94991300  1
  O  O30  1  0.90832300  0.97734200  0.16777700  1
  O  O31  1  0.83222300  0.40832300  0.52265800  1
  O  O32  1  0.08222300  0.72734200  0.15832300  1
  O  O33  1  0.92693700  0.07393700  0.40448100  1
  O  O34  1  0.17693700  0.84551900  0.82393700  1
  O  O35  1  0.69991300  0.88253600  0.80589100  1
  O  O36  1  0.08861700  0.23568200  0.08563800  1
  O  O37  1  0.66436200  0.51431800  0.66138300  1
  O  O38  1  0.65448100  0.17606300  0.67693700  1
  O  O39  1  0.58222300  0.77265800  0.84167700  1
  O  O40  1  0.30589100  0.80008700  0.11746400  1
  O  O41  1  0.84167700  0.58222300  0.77265800  1
  O  O42  1  0.98568200  0.33861700  0.16436200  1
  O  O43  1  0.66777700  0.59167700  0.02265800  1
  O  O44  1  0.59167700  0.02265800  0.66777700  1
  O  O45  1  0.57393700  0.09551900  0.07306300  1
  O  O46  1  0.23568200  0.08563800  0.08861700  1
  O  O47  1  0.34167700  0.91777700  0.22734200  1
  O  O48  1  0.67606300  0.82306300  0.34551900  1
  O  O49  1  0.41436200  0.91138300  0.73568200  1
  O  O50  1  0.73568200  0.41436200  0.91138300  1
  O  O51  1  0.63253600  0.94991300  0.44410900  1
  O  O52  1  0.09551900  0.07306300  0.57393700  1
  O  O53  1  0.16138300  0.83563800  0.48568200  1
  O  O54  1  0.55589100  0.13253600  0.55008700  1
  O  O55  1  0.80008700  0.11746400  0.30589100  1
  O  O56  1  0.66138300  0.66436200  0.51431800  1
  O  O57  1  0.37500000  0.06399100  0.68600900  1
  O  O58  1  0.33861700  0.16436200  0.98568200  1
  O  O59  1  0.57306300  0.92606300  0.90448100  1
  O  O60  1  0.91138300  0.73568200  0.41436200  1
  O  O61  1  0.15832300  0.08222300  0.72734200  1
  O  O62  1  0.77265800  0.84167700  0.58222300  1
  O  O63  1  0.07393700  0.40448100  0.92693700  1
  O  O64  1  0.55008700  0.55589100  0.13253600  1
  O  O65  1  0.86746400  0.05008700  0.94410900  1
  O  O66  1  0.13253600  0.55008700  0.55589100  1
  O  O67  1  0.15448100  0.32393700  0.32306300  1
  O  O68  1  0.58563800  0.41138300  0.76431800  1
  O  O69  1  0.82393700  0.17693700  0.84551900  1
  O  O70  1  0.61746400  0.19410900  0.19991300  1
  O  O71  1  0.87500000  0.43600900  0.31399100  1
  O  O72  1  0.01431800  0.83861700  0.33563800  1
  O  O73  1  0.48568200  0.16138300  0.83563800  1
  O  O74  1  0.91436200  0.58861700  0.26431800  1
  O  O75  1  0.58861700  0.26431800  0.91436200  1
  O  O76  1  0.84551900  0.82393700  0.17693700  1
  O  O77  1  0.72734200  0.15832300  0.08222300  1
  O  O78  1  0.31399100  0.87500000  0.43600900  1
  O  O79  1  0.36746400  0.44991300  0.05589100  1
  O  O80  1  0.97734200  0.16777700  0.90832300  1
  O  O81  1  0.05589100  0.36746400  0.44991300  1
  O  O82  1  0.47734200  0.33222300  0.09167700  1
  O  O83  1  0.92606300  0.90448100  0.57306300  1
  O  O84  1  0.44991300  0.05589100  0.36746400  1
  O  O85  1  0.83563800  0.48568200  0.16138300  1
  O  O86  1  0.09167700  0.47734200  0.33222300  1
  O  O87  1  0.90448100  0.57306300  0.92606300  1
  O  O88  1  0.80589100  0.69991300  0.88253600  1
  O  O89  1  0.42606300  0.59551900  0.42693700  1
  O  O90  1  0.67693700  0.65448100  0.17606300  1
  O  O91  1  0.17606300  0.67693700  0.65448100  1
  O  O92  1  0.65832300  0.41777700  0.27265800  1
  O  O93  1  0.07306300  0.57393700  0.09551900  1
  O  O94  1  0.06399100  0.68600900  0.37500000  1
  O  O95  1  0.30008700  0.38253600  0.69410900  1
  O  O96  1  0.91777700  0.22734200  0.34167700  1
  O  O97  1  0.68600900  0.37500000  0.06399100  1
  O  O98  1  0.62500000  0.56399100  0.81399100  1
  O  O99  1  0.33222300  0.09167700  0.47734200  1
  O  O100  1  0.19991300  0.61746400  0.19410900  1
  O  O101  1  0.93600900  0.18600900  0.12500000  1
  O  O102  1  0.26431800  0.91436200  0.58861700  1
  O  O103  1  0.34551900  0.67606300  0.82306300  1
  O  O104  1  0.56399100  0.81399100  0.62500000  1
  O  O105  1  0.18600900  0.12500000  0.93600900  1
  O  O106  1  0.33563800  0.01431800  0.83861700  1
  O  O107  1  0.22734200  0.34167700  0.91777700  1
loop_
_geom_bond_atom_site_label_1
_geom_bond_atom_site_label_2
_geom_bond_distance
_geom_bond_site_symmetry_2
Na0 O59 2.442889 1_545
Na0 O69 2.442889 1_555
Na0 O73 2.722607 1_555
Na0 O75 2.722607 1_555
Na0 O35 2.800849 1_545
Na0 O65 2.800849 1_555
Na0 O38 2.925908 1_555
Na0 O45 2.925908 1_556
Na0 O77 3.033706 1_556
Na0 O44 3.033706 1_555
Na1 O38 2.442889 1_555
Na1 O25 2.442889 1_555
Na1 O68 2.722607 1_555
Na1 O37 2.722607 1_555
Na1 O54 2.800849 1_555
Na1 O6 2.800849 1_555
Na1 O2 2.925908 1_555
Na1 O3 2.925908 1_555
Na1 O20 3.033706 1_555
Na1 O31 3.033706 1_555
Na2 O52 2.442889 1_555
Na2 O67 2.442889 1_555
Na2 O21 2.722607 1_555
Na2 O23 2.722607 1_545
Na2 O81 2.800849 1_555
Na2 O4 2.800849 1_555
Na2 O33 2.925908 1_455
Na2 O12 2.925908 1_555
Na2 O99 3.033706 1_555
Na2 O96 3.033706 1_455
Na3 O93 2.442889 1_555
Na3 O17 2.442889 1_555
Na3 O36 2.722607 1_555
Na3 O42 2.722607 1_455
Na3 O100 2.800849 1_555
Na3 O79 2.800849 1_555
Na3 O67 2.925908 1_555
Na3 O63 2.925908 1_554
Na3 O86 3.033706 1_555
Na3 O107 3.033706 1_554
Na4 O87 2.442889 1_554
Na4 O76 2.442889 1_555
Na4 O85 2.722607 1_555
Na4 O74 2.722607 1_555
Na4 O1 2.800849 1_555
Na4 O88 2.800849 1_554
Na4 O90 2.925908 1_555
Na4 O93 2.925908 1_655
Na4 O32 3.033706 1_655
Na4 O43 3.033706 1_555
Na5 O90 2.442889 1_555
Na5 O89 2.442889 1_555
Na5 O7 2.722607 1_555
Na5 O56 2.722607 1_555
Na5 O13 2.800849 1_555
Na5 O64 2.800849 1_555
Na5 O48 2.925908 1_555
Na5 O25 2.925908 1_555
Na5 O92 3.033706 1_555
Na5 O14 3.033706 1_555
Na6 O33 2.442889 1_565
Na6 O48 2.442889 1_555
Na6 O60 2.722607 1_555
Na6 O72 2.722607 1_655
Na6 O51 2.800849 1_555
Na6 O55 2.800849 1_565
Na6 O76 2.925908 1_555
Na6 O83 2.925908 1_555
Na6 O30 3.033706 1_555
Na6 O62 3.033706 1_555
Na7 O83 2.442889 1_455
Na7 O34 2.442889 1_555
Na7 O53 2.722607 1_555
Na7 O102 2.722607 1_555
Na7 O5 2.800849 1_455
Na7 O28 2.800849 1_555
Na7 O91 2.925908 1_555
Na7 O52 2.925908 1_565
Na7 O61 3.033706 1_565
Na7 O0 3.033706 1_555
Na8 O91 2.442889 1_555
Na8 O3 2.442889 1_555
Na8 O16 2.722607 1_555
Na8 O10 2.722607 1_555
Na8 O66 2.800849 1_555
Na8 O95 2.800849 1_555
Na8 O103 2.925908 1_555
Na8 O89 2.925908 1_555
Na8 O15 3.033706 1_555
Na8 O11 3.033706 1_555
Na9 O63 2.442889 1_655
Na9 O2 2.442889 1_555
Na9 O50 2.722607 1_555
Na9 O24 2.722607 1_556
Na9 O8 2.800849 1_555
Na9 O27 2.800849 1_655
Na9 O87 2.925908 1_555
Na9 O69 2.925908 1_555
Na9 O80 3.033706 1_555
Na9 O41 3.033706 1_555
Na10 O22 2.442889 1_556
Na10 O103 2.442889 1_555
Na10 O49 2.722607 1_555
Na10 O106 2.722607 1_565
Na10 O40 2.800849 1_556
Na10 O29 2.800849 1_555
Na10 O34 2.925908 1_555
Na10 O59 2.925908 1_555
Na10 O26 3.033706 1_555
Na10 O39 3.033706 1_555
Na11 O45 2.442889 1_555
Na11 O12 2.442889 1_555
Na11 O46 2.722607 1_555
Na11 O58 2.722607 1_554
Na11 O70 2.800849 1_555
Na11 O84 2.800849 1_555
Na11 O17 2.925908 1_555
Na11 O22 2.925908 1_545
Na11 O82 3.033706 1_555
Na11 O47 3.033706 1_545
Nd0 O47 2.561830 1_555
Nd0 O32 2.561830 1_555
Nd0 O15 2.561830 1_555
Nd0 O40 2.586513 1_555
Nd0 O13 2.586513 1_555
Nd0 O100 2.586513 1_555
Nd0 O19 2.646978 1_555
Nd0 O78 2.646978 1_555
Nd0 O94 2.646978 1_555
Nd0 O23 2.777160 1_555
Nd0 O72 2.777160 1_555
Nd0 O53 2.777160 1_555
Nd1 O80 2.561830 1_454
Nd1 O26 2.561830 1_544
Nd1 O30 2.561830 1_445
Nd1 O1 2.586513 1_445
Nd1 O28 2.586513 1_544
Nd1 O65 2.586513 1_454
Nd1 O101 2.646978 1_455
Nd1 O19 2.646978 1_545
Nd1 O105 2.646978 1_554
Nd1 O36 2.777160 1_555
Nd1 O21 2.777160 1_555
Nd1 O46 2.777160 1_555
Nd2 O96 2.561830 1_555
Nd2 O77 2.561830 1_555
Nd2 O92 2.561830 1_555
Nd2 O55 2.586513 1_555
Nd2 O6 2.586513 1_555
Nd2 O70 2.586513 1_555
Nd2 O101 2.646978 1_555
Nd2 O71 2.646978 1_555
Nd2 O97 2.646978 1_555
Nd2 O42 2.777160 1_555
Nd2 O24 2.777160 1_555
Nd2 O85 2.777160 1_555
Nd3 O62 2.561830 1_555
Nd3 O41 2.561830 1_555
Nd3 O39 2.561830 1_555
Nd3 O88 2.586513 1_555
Nd3 O5 2.586513 1_555
Nd3 O35 2.586513 1_555
Nd3 O18 2.646978 1_555
Nd3 O104 2.646978 1_555
Nd3 O98 2.646978 1_555
Nd3 O56 2.777160 1_555
Nd3 O37 2.777160 1_555
Nd3 O10 2.777160 1_555
Nd4 O11 2.561830 1_555
Nd4 O43 2.561830 1_556
Nd4 O82 2.561830 1_556
Nd4 O29 2.586513 1_555
Nd4 O79 2.586513 1_556
Nd4 O64 2.586513 1_556
Nd4 O98 2.646978 1_555
Nd4 O97 2.646978 1_556
Nd4 O9 2.646978 1_555
Nd4 O50 2.777160 1_555
Nd4 O68 2.777160 1_555
Nd4 O75 2.777160 1_555
Nd5 O107 2.561830 1_555
Nd5 O61 2.561830 1_555
Nd5 O20 2.561830 1_555
Nd5 O27 2.586513 1_555
Nd5 O95 2.586513 1_555
Nd5 O4 2.586513 1_555
Nd5 O105 2.646978 1_555
Nd5 O9 2.646978 1_555
Nd5 O57 2.646978 1_555
Nd5 O58 2.777160 1_555
Nd5 O106 2.777160 1_555
Nd5 O73 2.777160 1_555
Nd6 O31 2.561830 1_555
Nd6 O0 2.561830 1_655
Nd6 O86 2.561830 1_655
Nd6 O8 2.586513 1_555
Nd6 O81 2.586513 1_655
Nd6 O66 2.586513 1_655
Nd6 O18 2.646978 1_555
Nd6 O94 2.646978 1_655
Nd6 O71 2.646978 1_555
Nd6 O7 2.777160 1_555
Nd6 O60 2.777160 1_555
Nd6 O74 2.777160 1_555
Nd7 O14 2.561830 1_555
Nd7 O44 2.561830 1_565
Nd7 O99 2.561830 1_565
Nd7 O84 2.586513 1_565
Nd7 O51 2.586513 1_555
Nd7 O54 2.586513 1_565
Nd7 O57 2.646978 1_565
Nd7 O104 2.646978 1_555
Nd7 O78 2.646978 1_555
Nd7 O49 2.777160 1_555
Nd7 O16 2.777160 1_555
Nd7 O102 2.777160 1_555
N0 O48 1.247548 1_555
N0 O14 1.279356 1_555
N0 O51 1.280898 1_555
N1 O102 1.251829 1_555
N1 O53 1.251829 1_555
N1 O78 1.293145 1_555
N2 O93 1.247548 1_555
N2 O32 1.279356 1_555
N2 O100 1.280898 1_555
N3 O36 1.251829 1_555
N3 O42 1.251829 1_455
N3 O101 1.293145 1_455
N4 O103 1.247548 1_555
N4 O11 1.279356 1_555
N4 O29 1.280898 1_555
N5 O3 1.247548 1_555
N5 O20 1.279356 1_555
N5 O95 1.280898 1_555
N6 O90 1.247548 1_555
N6 O43 1.279356 1_555
N6 O64 1.280898 1_555
N7 O63 1.247548 1_555
N7 O107 1.279356 1_555
N7 O27 1.280898 1_555
N8 O91 1.247548 1_555
N8 O0 1.279356 1_555
N8 O66 1.280898 1_555
N9 O75 1.251829 1_555
N9 O73 1.251829 1_555
N9 O9 1.293145 1_555
N10 O12 1.247548 1_555
N10 O99 1.279356 1_555
N10 O84 1.280898 1_555
N11 O45 1.247548 1_555
N11 O77 1.279356 1_555
N11 O70 1.280898 1_555
N12 O49 1.251829 1_555
N12 O106 1.251829 1_565
N12 O57 1.293145 1_565
N13 O33 1.247548 1_555
N13 O96 1.279356 1_555
N13 O55 1.280898 1_555
N14 O16 1.251829 1_555
N14 O10 1.251829 1_555
N14 O104 1.293145 1_555
N15 O21 1.251829 1_555
N15 O23 1.251829 1_545
N15 O19 1.293145 1_545
N16 O87 1.247548 1_555
N16 O41 1.279356 1_555
N16 O88 1.280898 1_555
N17 O68 1.251829 1_555
N17 O37 1.251829 1_555
N17 O98 1.293145 1_555
N18 O69 1.247548 1_555
N18 O80 1.279356 1_555
N18 O65 1.280898 1_555
N19 O17 1.247548 1_555
N19 O82 1.279356 1_555
N19 O79 1.280898 1_555
N20 O67 1.247548 1_555
N20 O86 1.279356 1_555
N20 O81 1.280898 1_555
N21 O74 1.251829 1_555
N21 O85 1.251829 1_555
N21 O71 1.293145 1_555
N22 O52 1.247548 1_555
N22 O61 1.279356 1_555
N22 O4 1.280898 1_555
N23 O22 1.247548 1_555
N23 O47 1.279356 1_555
N23 O40 1.280898 1_555
N24 O7 1.251829 1_555
N24 O56 1.251829 1_555
N24 O18 1.293145 1_555
N25 O76 1.247548 1_555
N25 O30 1.279356 1_555
N25 O1 1.280898 1_555
N26 O60 1.251829 1_555
N26 O72 1.251829 1_655
N26 O94 1.293145 1_655
N27 O83 1.247548 1_555
N27 O62 1.279356 1_555
N27 O5 1.280898 1_555
N28 O59 1.247548 1_555
N28 O39 1.279356 1_555
N28 O35 1.280898 1_555
N29 O89 1.247548 1_555
N29 O15 1.279356 1_555
N29 O13 1.280898 1_555
N30 O25 1.247548 1_555
N30 O92 1.279356 1_555
N30 O6 1.280898 1_555
N31 O34 1.247548 1_555
N31 O26 1.279356 1_555
N31 O28 1.280898 1_555
N32 O58 1.251829 1_554
N32 O46 1.251829 1_555
N32 O105 1.293145 1_554
N33 O2 1.247548 1_555
N33 O31 1.279356 1_555
N33 O8 1.280898 1_555
N34 O24 1.251829 1_556
N34 O50 1.251829 1_555
N34 O97 1.293145 1_556
N35 O38 1.247548 1_555
N35 O44 1.279356 1_555
N35 O54 1.280898 1_555
