# generated using pymatgen
data_Na3VH6O7
_symmetry_space_group_name_H-M   'P 1'
_cell_length_a   5.58858274
_cell_length_b   5.58858274
_cell_length_c   5.58858233
_cell_angle_alpha   100.00373742
_cell_angle_beta   100.00373742
_cell_angle_gamma   100.00374030
_symmetry_Int_Tables_number   1
_chemical_formula_structural   Na3VH6O7
_chemical_formula_sum   'Na3 V1 H6 O7'
_cell_volume   165.49389929
_cell_formula_units_Z   1
loop_
 _symmetry_equiv_pos_site_id
 _symmetry_equiv_pos_as_xyz
  1  'x, y, z'
loop_
 _atom_site_type_symbol
 _atom_site_label
 _atom_site_symmetry_multiplicity
 _atom_site_fract_x
 _atom_site_fract_y
 _atom_site_fract_z
 _atom_site_occupancy
  Na  Na0  1  0.42857700  0.62431500  0.17735200  1
  Na  Na1  1  0.17735200  0.42857700  0.62431500  1
  Na  Na2  1  0.62431500  0.17735200  0.42857700  1
  V  V0  1  0.99738400  0.99738400  0.99738400  1
  H  H0  1  0.51113800  0.88362500  0.75089200  1
  H  H1  1  0.75089200  0.51113800  0.88362500  1
  H  H2  1  0.88362500  0.75089200  0.51113800  1
  H  H3  1  0.25611600  0.92346100  0.60775300  1
  H  H4  1  0.60775300  0.25611600  0.92346100  1
  H  H5  1  0.92346100  0.60775300  0.25611600  1
  O  O0  1  0.21827300  0.21827300  0.21827300  1
  O  O1  1  0.69370900  0.99978600  0.04377600  1
  O  O2  1  0.04377600  0.69370900  0.99978600  1
  O  O3  1  0.99978600  0.04377600  0.69370900  1
  O  O4  1  0.39704200  0.83951200  0.58220900  1
  O  O5  1  0.58220900  0.39704200  0.83951200  1
  O  O6  1  0.83951200  0.58220900  0.39704200  1
loop_
_geom_bond_atom_site_label_1
_geom_bond_atom_site_label_2
_geom_bond_distance
_geom_bond_site_symmetry_2
Na0 O2 2.332767 1_554
Na0 O4 2.421461 1_555
Na0 O0 2.435158 1_555
Na0 O5 2.454393 1_554
Na0 O6 2.478991 1_555
Na0 O1 2.646528 1_555
Na1 O3 2.332767 1_455
Na1 O5 2.421461 1_555
Na1 O0 2.435158 1_555
Na1 O6 2.454393 1_455
Na1 O4 2.478991 1_555
Na1 O2 2.646528 1_555
Na2 O1 2.332767 1_545
Na2 O6 2.421461 1_555
Na2 O0 2.435158 1_555
Na2 O4 2.454393 1_545
Na2 O5 2.478991 1_555
Na2 O3 2.646528 1_555
H0 O4 1.005904 1_555
H0 O1 1.721075 1_556
H1 O5 1.005904 1_555
H1 O2 1.721075 1_655
H2 O6 1.005904 1_555
H2 O3 1.721075 1_565
H3 O4 1.002461 1_555
H3 O3 1.787873 1_465
H4 O5 1.002461 1_555
H4 O1 1.787873 1_546
H5 O6 1.002461 1_555
H5 O2 1.787873 1_654
O0 V0 1.727236 1_444
O1 V0 1.762715 1_554
O2 V0 1.762715 1_455
O3 V0 1.762715 1_545
