# generated using pymatgen
data_CoAg3(CN)6
_symmetry_space_group_name_H-M   'P 1'
_cell_length_a   7.48897696
_cell_length_b   7.48897696
_cell_length_c   6.80579200
_cell_angle_alpha   90.00000000
_cell_angle_beta   90.00000000
_cell_angle_gamma   119.99999085
_symmetry_Int_Tables_number   1
_chemical_formula_structural   CoAg3(CN)6
_chemical_formula_sum   'Co1 Ag3 C6 N6'
_cell_volume   330.56306991
_cell_formula_units_Z   1
loop_
 _symmetry_equiv_pos_site_id
 _symmetry_equiv_pos_as_xyz
  1  'x, y, z'
loop_
 _atom_site_type_symbol
 _atom_site_label
 _atom_site_symmetry_multiplicity
 _atom_site_fract_x
 _atom_site_fract_y
 _atom_site_fract_z
 _atom_site_occupancy
  Co  Co0  1  0.00000000  0.00000000  0.00000000  1
  Ag  Ag0  1  0.50000000  0.50000000  0.50000000  1
  Ag  Ag1  1  0.00000000  0.50000000  0.50000000  1
  Ag  Ag2  1  0.50000000  0.00000000  0.50000000  1
  C  C0  1  0.79900500  0.00000000  0.83680800  1
  C  C1  1  0.20099500  0.20099500  0.83680800  1
  C  C2  1  0.00000000  0.79900500  0.83680800  1
  C  C3  1  0.79900500  0.79900500  0.16319200  1
  C  C4  1  0.20099500  0.00000000  0.16319200  1
  C  C5  1  0.00000000  0.20099500  0.16319200  1
  N  N0  1  0.67901800  0.67901800  0.27305600  1
  N  N1  1  0.00000000  0.67901800  0.72694400  1
  N  N2  1  0.32098200  0.32098200  0.72694400  1
  N  N3  1  0.67901800  0.00000000  0.72694400  1
  N  N4  1  0.32098200  0.00000000  0.27305600  1
  N  N5  1  0.00000000  0.32098200  0.27305600  1
loop_
_geom_bond_atom_site_label_1
_geom_bond_atom_site_label_2
_geom_bond_distance
_geom_bond_site_symmetry_2
Ag0 N2 2.045228 1_555
Ag0 N0 2.045228 1_555
Ag1 N1 2.045228 1_555
Ag1 N5 2.045228 1_555
Ag2 N3 2.045228 1_555
Ag2 N4 2.045228 1_555
C0 N3 1.168982 1_555
C0 Co0 1.870645 1_656
C1 N2 1.168982 1_555
C1 Co0 1.870645 1_556
C2 N1 1.168982 1_555
C2 Co0 1.870645 1_566
C3 N0 1.168982 1_555
C3 Co0 1.870645 1_665
C4 N4 1.168982 1_555
C4 Co0 1.870645 1_555
C5 N5 1.168982 1_555
C5 Co0 1.870645 1_555
