# generated using pymatgen
data_Gd5(RuO7)2
_symmetry_space_group_name_H-M   'P 1'
_cell_length_a   6.45429955
_cell_length_b   6.45429955
_cell_length_c   7.55830434
_cell_angle_alpha   89.75113799
_cell_angle_beta   89.75113799
_cell_angle_gamma   107.58871049
_symmetry_Int_Tables_number   1
_chemical_formula_structural   Gd5(RuO7)2
_chemical_formula_sum   'Gd5 Ru2 O14'
_cell_volume   300.13578981
_cell_formula_units_Z   1
loop_
 _symmetry_equiv_pos_site_id
 _symmetry_equiv_pos_as_xyz
  1  'x, y, z'
loop_
 _atom_site_type_symbol
 _atom_site_label
 _atom_site_symmetry_multiplicity
 _atom_site_fract_x
 _atom_site_fract_y
 _atom_site_fract_z
 _atom_site_occupancy
  Gd  Gd0  1  0.93287100  0.48275600  0.75558800  1
  Gd  Gd1  1  0.51724400  0.06712900  0.24441200  1
  Gd  Gd2  1  0.48275600  0.93287100  0.75558800  1
  Gd  Gd3  1  0.00000000  0.00000000  0.50000000  1
  Gd  Gd4  1  0.06712900  0.51724400  0.24441200  1
  Ru  Ru0  1  0.50000000  0.50000000  0.50000000  1
  Ru  Ru1  1  0.50000000  0.50000000  0.00000000  1
  O  O0  1  0.87361900  0.17492000  0.28830400  1
  O  O1  1  0.82508000  0.12638100  0.71169600  1
  O  O2  1  0.80415800  0.54934600  0.46211100  1
  O  O3  1  0.79777900  0.53345800  0.04712800  1
  O  O4  1  0.58875600  0.58875600  0.75052200  1
  O  O5  1  0.46654200  0.20222100  0.95287200  1
  O  O6  1  0.45065400  0.19584200  0.53788900  1
  O  O7  1  0.54934600  0.80415800  0.46211100  1
  O  O8  1  0.53345800  0.79777900  0.04712800  1
  O  O9  1  0.41124400  0.41124400  0.24947800  1
  O  O10  1  0.20222100  0.46654200  0.95287200  1
  O  O11  1  0.19584200  0.45065400  0.53788900  1
  O  O12  1  0.17492000  0.87361900  0.28830400  1
  O  O13  1  0.12638100  0.82508000  0.71169600  1
loop_
_geom_bond_atom_site_label_1
_geom_bond_atom_site_label_2
_geom_bond_distance
_geom_bond_site_symmetry_2
Gd0 O13 2.207706 1_655
Gd0 O1 2.219521 1_555
Gd0 O10 2.321165 1_655
Gd0 O11 2.412972 1_655
Gd0 O3 2.425899 1_556
Gd0 O2 2.453313 1_555
Gd0 O4 2.514225 1_555
Gd1 O12 2.207706 1_545
Gd1 O0 2.219521 1_555
Gd1 O8 2.321165 1_545
Gd1 O7 2.412972 1_545
Gd1 O5 2.425899 1_554
Gd1 O6 2.453313 1_555
Gd1 O9 2.514225 1_555
Gd2 O1 2.207706 1_565
Gd2 O13 2.219521 1_555
Gd2 O5 2.321165 1_565
Gd2 O6 2.412972 1_565
Gd2 O8 2.425899 1_556
Gd2 O7 2.453313 1_555
Gd2 O4 2.514225 1_555
Gd3 O13 2.247753 1_545
Gd3 O1 2.247753 1_455
Gd3 O12 2.247753 1_545
Gd3 O0 2.247753 1_455
Gd3 O11 2.815744 1_555
Gd3 O6 2.815744 1_555
Gd3 O7 2.815744 1_445
Gd3 O2 2.815744 1_445
Gd4 O0 2.207706 1_455
Gd4 O12 2.219521 1_555
Gd4 O3 2.321165 1_455
Gd4 O2 2.412972 1_455
Gd4 O10 2.425899 1_554
Gd4 O11 2.453313 1_555
Gd4 O9 2.514225 1_555
O2 Ru0 1.911483 1_555
O3 Ru1 1.903472 1_555
O4 Ru1 1.998709 1_556
O4 Ru0 2.015507 1_555
O5 Ru1 1.903472 1_556
O6 Ru0 1.911483 1_555
O7 Ru0 1.911483 1_555
O8 Ru1 1.903472 1_555
O9 Ru1 1.998709 1_555
O9 Ru0 2.015507 1_555
O10 Ru1 1.903472 1_556
O11 Ru0 1.911483 1_555
