# generated using pymatgen
data_Mn7SbAsO12
_symmetry_space_group_name_H-M   'P 1'
_cell_length_a   11.09484173
_cell_length_b   11.09484173
_cell_length_c   11.09484173
_cell_angle_alpha   147.44298436
_cell_angle_beta   132.35902235
_cell_angle_gamma   58.89350231
_symmetry_Int_Tables_number   1
_chemical_formula_structural   Mn7SbAsO12
_chemical_formula_sum   'Mn14 Sb2 As2 O24'
_cell_volume   538.54978978
_cell_formula_units_Z   2
loop_
 _symmetry_equiv_pos_site_id
 _symmetry_equiv_pos_as_xyz
  1  'x, y, z'
loop_
 _atom_site_type_symbol
 _atom_site_label
 _atom_site_symmetry_multiplicity
 _atom_site_fract_x
 _atom_site_fract_y
 _atom_site_fract_z
 _atom_site_occupancy
  Mn  Mn0  1  0.79492600  0.92569700  0.86922900  1
  Mn  Mn1  1  0.15839400  0.15839400  0.50000000  1
  Mn  Mn2  1  0.81041500  0.33389400  0.47652100  1
  Mn  Mn3  1  0.15839400  0.65839400  0.00000000  1
  Mn  Mn4  1  0.64262700  0.16610600  0.47652100  1
  Mn  Mn5  1  0.84160600  0.34160600  0.00000000  1
  Mn  Mn6  1  0.55646800  0.42569700  0.13077100  1
  Mn  Mn7  1  0.00000000  0.00000000  0.50000000  1
  Mn  Mn8  1  0.35737300  0.83389400  0.52347900  1
  Mn  Mn9  1  0.84160600  0.84160600  0.50000000  1
  Mn  Mn10  1  0.18958500  0.66610600  0.52347900  1
  Mn  Mn11  1  0.20507400  0.07430300  0.13077100  1
  Mn  Mn12  1  0.44353200  0.57430300  0.86922900  1
  Mn  Mn13  1  0.00000000  0.50000000  0.00000000  1
  Sb  Sb0  1  0.50000000  0.00000000  0.50000000  1
  Sb  Sb1  1  0.00000000  0.50000000  0.50000000  1
  As  As0  1  0.37047000  0.25000000  0.12047000  1
  As  As1  1  0.62953000  0.75000000  0.87953000  1
  O  O0  1  0.26654300  0.99088500  0.27565700  1
  O  O1  1  0.11106500  0.82902100  0.28204400  1
  O  O2  1  0.73868000  0.51782400  0.75650300  1
  O  O3  1  0.78477200  0.50911500  0.27565700  1
  O  O4  1  0.73868000  0.98217600  0.22085600  1
  O  O5  1  0.40567500  0.17598100  0.22969400  1
  O  O6  1  0.44628800  0.67598100  0.77030600  1
  O  O7  1  0.55371200  0.32401900  0.22969400  1
  O  O8  1  0.73345700  0.00911500  0.72434300  1
  O  O9  1  0.91973300  0.20095800  0.27440600  1
  O  O10  1  0.26132000  0.48217600  0.24349700  1
  O  O11  1  0.95302300  0.67097900  0.28204400  1
  O  O12  1  0.59432500  0.82401900  0.77030600  1
  O  O13  1  0.57344800  0.29904200  0.71877500  1
  O  O14  1  0.08026700  0.35467300  0.28122500  1
  O  O15  1  0.88893500  0.17097900  0.71795600  1
  O  O16  1  0.21522800  0.49088500  0.72434300  1
  O  O17  1  0.91973300  0.64532700  0.71877500  1
  O  O18  1  0.04697700  0.32902100  0.71795600  1
  O  O19  1  0.42655200  0.70095800  0.28122500  1
  O  O20  1  0.57344800  0.85467300  0.27440600  1
  O  O21  1  0.26132000  0.01782400  0.77914400  1
  O  O22  1  0.42655200  0.14532700  0.72559400  1
  O  O23  1  0.08026700  0.79904200  0.72559400  1
loop_
_geom_bond_atom_site_label_1
_geom_bond_atom_site_label_2
_geom_bond_distance
_geom_bond_site_symmetry_2
Mn0 O8 2.069812 1_565
Mn0 O9 2.071509 1_566
Mn0 O17 2.071509 1_555
Mn0 O12 2.155481 1_555
Mn1 O18 2.202897 1_555
Mn1 O1 2.202897 1_545
Mn1 O16 2.238660 1_555
Mn1 O0 2.238669 1_545
Mn1 O22 2.295347 1_555
Mn1 O9 2.295347 1_455
Mn2 O18 2.165741 1_655
Mn2 O17 2.217268 1_555
Mn2 O9 2.217268 1_555
Mn2 O7 2.220235 1_555
Mn2 O2 2.326971 1_555
Mn2 O4 2.326980 1_545
Mn3 O18 2.202897 1_554
Mn3 O1 2.202897 1_555
Mn3 O16 2.238660 1_554
Mn3 O0 2.238665 1_555
Mn3 O19 2.295347 1_555
Mn3 O17 2.295347 1_454
Mn4 O15 2.165741 1_555
Mn4 O20 2.217268 1_545
Mn4 O13 2.217268 1_555
Mn4 O5 2.220230 1_555
Mn4 O4 2.326980 1_545
Mn4 O2 2.326984 1_555
Mn5 O11 2.202897 1_555
Mn5 O15 2.202897 1_554
Mn5 O3 2.238660 1_555
Mn5 O8 2.238665 1_554
Mn5 O13 2.295347 1_554
Mn5 O14 2.295347 1_655
Mn6 O3 2.069816 1_555
Mn6 O19 2.071509 1_555
Mn6 O22 2.071509 1_554
Mn6 O7 2.155488 1_555
Mn7 O15 2.198167 1_455
Mn7 O18 2.198167 1_555
Mn7 O1 2.198167 1_545
Mn7 O11 2.198167 1_445
Mn7 O21 2.344521 1_555
Mn7 O4 2.344521 1_445
Mn8 O1 2.165741 1_555
Mn8 O19 2.217268 1_555
Mn8 O22 2.217268 1_565
Mn8 O12 2.220230 1_555
Mn8 O21 2.326980 1_565
Mn8 O10 2.326984 1_555
Mn9 O11 2.202897 1_555
Mn9 O15 2.202897 1_565
Mn9 O3 2.238660 1_555
Mn9 O8 2.238669 1_565
Mn9 O23 2.295347 1_655
Mn9 O20 2.295347 1_555
Mn10 O11 2.165741 1_455
Mn10 O23 2.217268 1_555
Mn10 O14 2.217268 1_555
Mn10 O6 2.220235 1_555
Mn10 O10 2.326971 1_555
Mn10 O21 2.326980 1_565
Mn11 O0 2.069812 1_545
Mn11 O14 2.071509 1_555
Mn11 O23 2.071509 1_544
Mn11 O5 2.155481 1_555
Mn12 O16 2.069816 1_555
Mn12 O20 2.071509 1_556
Mn12 O13 2.071509 1_555
Mn12 O6 2.155488 1_555
Mn13 O18 2.198167 1_554
Mn13 O15 2.198167 1_454
Mn13 O1 2.198167 1_555
Mn13 O11 2.198167 1_455
Mn13 O2 2.344525 1_454
Mn13 O10 2.344525 1_555
As0 O7 1.733142 1_555
As0 O5 1.733153 1_555
As0 O21 1.744221 1_554
As0 O10 1.744221 1_555
As1 O6 1.733142 1_555
As1 O12 1.733153 1_555
As1 O4 1.744221 1_556
As1 O2 1.744221 1_555
O0 Sb0 2.018212 1_565
O3 Sb1 2.018218 1_655
O8 Sb0 2.018212 1_555
O9 Sb1 2.028882 1_655
O13 Sb0 2.028882 1_555
O14 Sb1 2.028882 1_555
O16 Sb1 2.018218 1_555
O17 Sb1 2.028882 1_655
O19 Sb0 2.028882 1_565
O20 Sb0 2.028882 1_565
O22 Sb0 2.028882 1_555
O23 Sb1 2.028882 1_555
