# generated using pymatgen
data_Ba2BeS(OF)4
_symmetry_space_group_name_H-M   'P 1'
_cell_length_a   7.80782300
_cell_length_b   6.34675800
_cell_length_c   7.39624575
_cell_angle_alpha   85.70668932
_cell_angle_beta   90.00000000
_cell_angle_gamma   90.00000000
_symmetry_Int_Tables_number   1
_chemical_formula_structural   Ba2BeS(OF)4
_chemical_formula_sum   'Ba4 Be2 S2 O8 F8'
_cell_volume   365.48775897
_cell_formula_units_Z   2
loop_
 _symmetry_equiv_pos_site_id
 _symmetry_equiv_pos_as_xyz
  1  'x, y, z'
loop_
 _atom_site_type_symbol
 _atom_site_label
 _atom_site_symmetry_multiplicity
 _atom_site_fract_x
 _atom_site_fract_y
 _atom_site_fract_z
 _atom_site_occupancy
  Ba  Ba0  1  0.05254400  0.92230700  0.39773900  1
  Ba  Ba1  1  0.55254400  0.07769300  0.60226100  1
  Ba  Ba2  1  0.75464500  0.47873600  0.09721400  1
  Ba  Ba3  1  0.25464500  0.52126400  0.90278600  1
  Be  Be0  1  0.35077400  0.52874500  0.40124500  1
  Be  Be1  1  0.85077400  0.47125500  0.59875500  1
  S  S0  1  0.49254100  0.98198600  0.07934400  1
  S  S1  1  0.99254100  0.01801400  0.92065600  1
  O  O0  1  0.00704800  0.19720400  0.04614700  1
  O  O1  1  0.51794900  0.18963300  0.96871200  1
  O  O2  1  0.18756000  0.06881200  0.83421800  1
  O  O3  1  0.23748900  0.92299500  0.69895200  1
  O  O4  1  0.73748900  0.07700500  0.30104800  1
  O  O5  1  0.68756000  0.93118800  0.16578200  1
  O  O6  1  0.50704800  0.80279600  0.95385300  1
  O  O7  1  0.01794900  0.81036700  0.03128800  1
  F  F0  1  0.40136000  0.75707900  0.44110200  1
  F  F1  1  0.99145600  0.59192900  0.69586100  1
  F  F2  1  0.81756800  0.60907700  0.41793900  1
  F  F3  1  0.68941100  0.45607500  0.72492000  1
  F  F4  1  0.18941100  0.54392500  0.27508000  1
  F  F5  1  0.31756800  0.39092300  0.58206100  1
  F  F6  1  0.90136000  0.24292100  0.55889800  1
  F  F7  1  0.49145600  0.40807100  0.30413900  1
loop_
_geom_bond_atom_site_label_1
_geom_bond_atom_site_label_2
_geom_bond_distance
_geom_bond_site_symmetry_2
Ba0 O3 2.655176 1_555
Ba0 F2 2.701096 1_455
Ba0 F6 2.705179 1_465
Ba0 O4 2.724221 1_465
Ba0 F4 2.838735 1_555
Ba0 O7 2.865672 1_555
Ba0 F0 2.927391 1_555
Ba0 F1 2.965450 1_455
Ba0 O0 3.041919 1_565
Ba1 O4 2.655176 1_555
Ba1 F5 2.701096 1_555
Ba1 F0 2.705179 1_545
Ba1 O3 2.724221 1_545
Ba1 F3 2.838735 1_555
Ba1 O1 2.865672 1_555
Ba1 F6 2.927391 1_555
Ba1 F7 2.965450 1_555
Ba1 O6 3.041919 1_545
Ba2 F7 2.581367 1_555
Ba2 F2 2.616612 1_555
Ba2 O0 2.705577 1_655
Ba2 F3 2.814533 1_554
Ba2 O1 2.818965 1_554
Ba2 O4 2.866392 1_555
Ba2 O7 2.956458 1_655
Ba2 O6 2.960602 1_554
Ba2 O5 2.999284 1_555
Ba3 F1 2.581367 1_455
Ba3 F5 2.616612 1_555
Ba3 O6 2.705577 1_555
Ba3 F4 2.814533 1_556
Ba3 O7 2.818965 1_556
Ba3 O3 2.866392 1_555
Ba3 O1 2.956458 1_555
Ba3 O0 2.960602 1_556
Ba3 O2 2.999284 1_555
Be0 F7 1.546387 1_555
Be0 F0 1.551447 1_555
Be0 F5 1.563886 1_555
Be0 F4 1.566499 1_555
Be1 F1 1.546387 1_555
Be1 F6 1.551447 1_555
Be1 F2 1.563886 1_555
Be1 F3 1.566499 1_555
O0 S1 1.525043 1_454
O1 S0 1.511380 1_546
O2 O3 1.465609 1_545
O2 S1 1.673423 1_455
O4 O5 1.465609 1_545
O5 S0 1.673423 1_555
O6 S0 1.525043 1_556
O7 S1 1.511380 1_464
