# generated using pymatgen
data_Li49Cu8N19
_symmetry_space_group_name_H-M   'P 1'
_cell_length_a   3.67743823
_cell_length_b   3.67743823
_cell_length_c   71.35068500
_cell_angle_alpha   90.00000000
_cell_angle_beta   90.00000000
_cell_angle_gamma   120.00000422
_symmetry_Int_Tables_number   1
_chemical_formula_structural   Li49Cu8N19
_chemical_formula_sum   'Li49 Cu8 N19'
_cell_volume   835.64060431
_cell_formula_units_Z   1
loop_
 _symmetry_equiv_pos_site_id
 _symmetry_equiv_pos_as_xyz
  1  'x, y, z'
loop_
 _atom_site_type_symbol
 _atom_site_label
 _atom_site_symmetry_multiplicity
 _atom_site_fract_x
 _atom_site_fract_y
 _atom_site_fract_z
 _atom_site_occupancy
  Li  Li0  1  0.00000000  0.00000000  0.68416800  1
  Li  Li1  1  0.00000000  0.00000000  0.78906800  1
  Li  Li2  1  0.66666700  0.33333300  0.65646900  1
  Li  Li3  1  0.00000000  0.00000000  0.84202300  1
  Li  Li4  1  0.66666700  0.33333300  0.71187400  1
  Li  Li5  1  0.00000000  0.00000000  0.89460100  1
  Li  Li6  1  0.66666700  0.33333300  0.76181900  1
  Li  Li7  1  0.00000000  0.00000000  0.94716100  1
  Li  Li8  1  0.66666700  0.33333300  0.81577000  1
  Li  Li9  1  0.00000000  0.00000000  0.00000000  1
  Li  Li10  1  0.66666700  0.33333300  0.86835100  1
  Li  Li11  1  0.00000000  0.00000000  0.05283900  1
  Li  Li12  1  0.00000000  0.00000000  0.10539900  1
  Li  Li13  1  0.66666700  0.33333300  0.92092900  1
  Li  Li14  1  0.66666700  0.33333300  0.97340900  1
  Li  Li15  1  0.00000000  0.00000000  0.21093200  1
  Li  Li16  1  0.66666700  0.33333300  0.02659100  1
  Li  Li17  1  0.66666700  0.33333300  0.07907100  1
  Li  Li18  1  0.66666700  0.33333300  0.13164900  1
  Li  Li19  1  0.66666700  0.33333300  0.18423000  1
  Li  Li20  1  0.66666700  0.33333300  0.23818100  1
  Li  Li21  1  0.66666700  0.33333300  0.28812600  1
  Li  Li22  1  0.66666700  0.33333300  0.34353100  1
  Li  Li23  1  0.66666700  0.33333300  0.39478800  1
  Li  Li24  1  0.66666700  0.33333300  0.44737800  1
  Li  Li25  1  0.66666700  0.33333300  0.50000000  1
  Li  Li26  1  0.66666700  0.33333300  0.55262200  1
  Li  Li27  1  0.66666700  0.33333300  0.60521200  1
  Li  Li28  1  0.33333300  0.66666700  0.65646900  1
  Li  Li29  1  0.33333300  0.66666700  0.71187400  1
  Li  Li30  1  0.33333300  0.66666700  0.76181900  1
  Li  Li31  1  0.33333300  0.66666700  0.81577000  1
  Li  Li32  1  0.33333300  0.66666700  0.92092900  1
  Li  Li33  1  0.33333300  0.66666700  0.86835100  1
  Li  Li34  1  0.33333300  0.66666700  0.97340900  1
  Li  Li35  1  0.33333300  0.66666700  0.02659100  1
  Li  Li36  1  0.33333300  0.66666700  0.07907100  1
  Li  Li37  1  0.33333300  0.66666700  0.13164900  1
  Li  Li38  1  0.33333300  0.66666700  0.18423000  1
  Li  Li39  1  0.33333300  0.66666700  0.23818100  1
  Li  Li40  1  0.33333300  0.66666700  0.28812600  1
  Li  Li41  1  0.33333300  0.66666700  0.34353100  1
  Li  Li42  1  0.33333300  0.66666700  0.44737800  1
  Li  Li43  1  0.33333300  0.66666700  0.39478800  1
  Li  Li44  1  0.33333300  0.66666700  0.50000000  1
  Li  Li45  1  0.33333300  0.66666700  0.55262200  1
  Li  Li46  1  0.33333300  0.66666700  0.60521200  1
  Li  Li47  1  0.00000000  0.00000000  0.15797700  1
  Li  Li48  1  0.00000000  0.00000000  0.31583200  1
  Cu  Cu0  1  0.00000000  0.00000000  0.73680100  1
  Cu  Cu1  1  0.00000000  0.00000000  0.26319900  1
  Cu  Cu2  1  0.00000000  0.00000000  0.42110000  1
  Cu  Cu3  1  0.00000000  0.00000000  0.47369300  1
  Cu  Cu4  1  0.00000000  0.00000000  0.52630700  1
  Cu  Cu5  1  0.00000000  0.00000000  0.57890000  1
  Cu  Cu6  1  0.00000000  0.00000000  0.63143200  1
  Cu  Cu7  1  0.00000000  0.00000000  0.36856800  1
  N  N0  1  0.00000000  0.00000000  0.65772700  1
  N  N1  1  0.00000000  0.00000000  0.71053600  1
  N  N2  1  0.00000000  0.00000000  0.76302100  1
  N  N3  1  0.00000000  0.00000000  0.86835800  1
  N  N4  1  0.00000000  0.00000000  0.02648900  1
  N  N5  1  0.00000000  0.00000000  0.07910500  1
  N  N6  1  0.00000000  0.00000000  0.23697900  1
  N  N7  1  0.00000000  0.00000000  0.39488400  1
  N  N8  1  0.00000000  0.00000000  0.44740400  1
  N  N9  1  0.00000000  0.00000000  0.50000000  1
  N  N10  1  0.00000000  0.00000000  0.55259600  1
  N  N11  1  0.00000000  0.00000000  0.81569900  1
  N  N12  1  0.00000000  0.00000000  0.92089500  1
  N  N13  1  0.00000000  0.00000000  0.97351100  1
  N  N14  1  0.00000000  0.00000000  0.13164200  1
  N  N15  1  0.00000000  0.00000000  0.18430100  1
  N  N16  1  0.00000000  0.00000000  0.28946400  1
  N  N17  1  0.00000000  0.00000000  0.34227300  1
  N  N18  1  0.00000000  0.00000000  0.60511600  1
loop_
_geom_bond_atom_site_label_1
_geom_bond_atom_site_label_2
_geom_bond_distance
_geom_bond_site_symmetry_2
Li0 N1 1.881375 1_555
Li0 N0 1.886583 1_555
Li1 N2 1.858471 1_555
Li1 N11 1.900140 1_555
Li2 N0 2.125064 1_655
Li2 N0 2.125067 1_665
Li2 N0 2.125067 1_555
Li3 N11 1.878235 1_555
Li3 N3 1.879020 1_555
Li4 N1 2.125313 1_655
Li4 N1 2.125316 1_555
Li4 N1 2.125316 1_665
Li5 N3 1.872456 1_555
Li5 N12 1.876095 1_555
Li6 N2 2.124899 1_655
Li6 N2 2.124902 1_665
Li6 N2 2.124902 1_555
Li7 N12 1.874097 1_555
Li7 N13 1.880091 1_555
Li8 N11 2.123174 1_655
Li8 N11 2.123177 1_555
Li8 N11 2.123177 1_665
Li9 N4 1.890008 1_555
Li9 N13 1.890008 1_554
Li10 N3 2.123168 1_655
Li10 N3 2.123171 1_665
Li10 N3 2.123171 1_555
Li11 N5 1.874097 1_555
Li11 N4 1.880091 1_555
Li12 N14 1.872456 1_555
Li12 N5 1.876095 1_555
Li13 N12 2.123169 1_655
Li13 N12 2.123172 1_555
Li13 N12 2.123172 1_665
Li14 N13 2.123180 1_655
Li14 N13 2.123183 1_665
Li14 N13 2.123183 1_555
Li15 N6 1.858471 1_555
Li15 N15 1.900140 1_555
Li16 N4 2.123180 1_655
Li16 N4 2.123183 1_665
Li16 N4 2.123183 1_555
Li17 N5 2.123169 1_655
Li17 N5 2.123172 1_665
Li17 N5 2.123172 1_555
Li18 N14 2.123168 1_655
Li18 N14 2.123171 1_665
Li18 N14 2.123171 1_555
Li19 N15 2.123174 1_655
Li19 N15 2.123177 1_555
Li19 N15 2.123177 1_665
Li20 N6 2.124899 1_655
Li20 N6 2.124902 1_665
Li20 N6 2.124902 1_555
Li21 N16 2.125313 1_655
Li21 N16 2.125316 1_555
Li21 N16 2.125316 1_665
Li22 N17 2.125064 1_655
Li22 N17 2.125067 1_665
Li22 N17 2.125067 1_555
Li23 N7 2.123179 1_655
Li23 N7 2.123182 1_665
Li23 N7 2.123182 1_555
Li24 N8 2.123169 1_655
Li24 N8 2.123172 1_555
Li24 N8 2.123172 1_665
Li25 N9 2.123168 1_655
Li25 N9 2.123171 1_555
Li25 N9 2.123171 1_665
Li26 N10 2.123169 1_655
Li26 N10 2.123172 1_665
Li26 N10 2.123172 1_555
Li27 N18 2.123179 1_655
Li27 N18 2.123182 1_665
Li27 N18 2.123182 1_555
Li28 N0 2.125064 1_565
Li28 N0 2.125067 1_665
Li28 N0 2.125067 1_555
Li29 N1 2.125313 1_565
Li29 N1 2.125316 1_555
Li29 N1 2.125316 1_665
Li30 N2 2.124899 1_565
Li30 N2 2.124902 1_665
Li30 N2 2.124902 1_555
Li31 N11 2.123174 1_565
Li31 N11 2.123177 1_555
Li31 N11 2.123177 1_665
Li32 N12 2.123169 1_565
Li32 N12 2.123172 1_555
Li32 N12 2.123172 1_665
Li33 N3 2.123168 1_565
Li33 N3 2.123171 1_555
Li33 N3 2.123171 1_665
Li34 N13 2.123180 1_565
Li34 N13 2.123183 1_555
Li34 N13 2.123183 1_665
Li35 N4 2.123180 1_565
Li35 N4 2.123183 1_555
Li35 N4 2.123183 1_665
Li36 N5 2.123169 1_565
Li36 N5 2.123172 1_665
Li36 N5 2.123172 1_555
Li37 N14 2.123168 1_565
Li37 N14 2.123171 1_665
Li37 N14 2.123171 1_555
Li38 N15 2.123174 1_565
Li38 N15 2.123177 1_555
Li38 N15 2.123177 1_665
Li39 N6 2.124899 1_565
Li39 N6 2.124902 1_665
Li39 N6 2.124902 1_555
Li40 N16 2.125313 1_565
Li40 N16 2.125316 1_665
Li40 N16 2.125316 1_555
Li41 N17 2.125064 1_565
Li41 N17 2.125067 1_665
Li41 N17 2.125067 1_555
Li42 N8 2.123169 1_565
Li42 N8 2.123172 1_555
Li42 N8 2.123172 1_665
Li43 N7 2.123179 1_565
Li43 N7 2.123182 1_665
Li43 N7 2.123182 1_555
Li44 N9 2.123168 1_565
Li44 N9 2.123171 1_555
Li44 N9 2.123171 1_665
Li45 N10 2.123169 1_565
Li45 N10 2.123172 1_665
Li45 N10 2.123172 1_555
Li46 N18 2.123179 1_565
Li46 N18 2.123182 1_665
Li46 N18 2.123182 1_555
Li47 N15 1.878235 1_555
Li47 N14 1.879020 1_555
Li48 N16 1.881375 1_555
Li48 N17 1.886583 1_555
Cu0 N2 1.870815 1_555
Cu0 N1 1.874026 1_555
Cu1 N6 1.870815 1_555
Cu1 N16 1.874026 1_555
Cu2 N7 1.870530 1_555
Cu2 N8 1.876808 1_555
Cu3 N8 1.875738 1_555
Cu3 N9 1.877022 1_555
Cu4 N10 1.875738 1_555
Cu4 N9 1.877022 1_555
Cu5 N18 1.870530 1_555
Cu5 N10 1.876808 1_555
Cu6 N0 1.876166 1_555
Cu6 N18 1.877665 1_555
Cu7 N17 1.876166 1_555
Cu7 N7 1.877665 1_555
