# generated using pymatgen
data_LaH13C3S3O11
_symmetry_space_group_name_H-M   'P 1'
_cell_length_a   5.28868700
_cell_length_b   10.23386888
_cell_length_c   13.17964987
_cell_angle_alpha   98.59634653
_cell_angle_beta   91.44868926
_cell_angle_gamma   104.01709749
_symmetry_Int_Tables_number   1
_chemical_formula_structural   LaH13C3S3O11
_chemical_formula_sum   'La2 H26 C6 S6 O22'
_cell_volume   682.90927289
_cell_formula_units_Z   2
loop_
 _symmetry_equiv_pos_site_id
 _symmetry_equiv_pos_as_xyz
  1  'x, y, z'
loop_
 _atom_site_type_symbol
 _atom_site_label
 _atom_site_symmetry_multiplicity
 _atom_site_fract_x
 _atom_site_fract_y
 _atom_site_fract_z
 _atom_site_occupancy
  La  La0  1  0.97107500  0.42483100  0.25631800  1
  La  La1  1  0.02892500  0.57516900  0.74368200  1
  H  H0  1  0.52100100  0.55334400  0.39060300  1
  H  H1  1  0.47899900  0.44665600  0.60939700  1
  H  H2  1  0.47075300  0.39844000  0.39562600  1
  H  H3  1  0.52924700  0.60156000  0.60437400  1
  H  H4  1  0.76941000  0.33301300  0.01932300  1
  H  H5  1  0.23059000  0.66698700  0.98067700  1
  H  H6  1  0.07079800  0.33711600  0.02494800  1
  H  H7  1  0.92920200  0.66288400  0.97505200  1
  H  H8  1  0.68091100  0.88922300  0.95643200  1
  H  H9  1  0.31908900  0.11077700  0.04356800  1
  H  H10  1  0.91579600  0.02459500  0.91063300  1
  H  H11  1  0.08420400  0.97540500  0.08936700  1
  H  H12  1  0.57895000  0.02625400  0.90848100  1
  H  H13  1  0.42105000  0.97374600  0.09151900  1
  H  H14  1  0.63804700  0.75697900  0.32463200  1
  H  H15  1  0.36195300  0.24302100  0.67536800  1
  H  H16  1  0.88100700  0.84524400  0.24895500  1
  H  H17  1  0.11899300  0.15475600  0.75104500  1
  H  H18  1  0.55162400  0.86668200  0.24427200  1
  H  H19  1  0.44837600  0.13331800  0.75572800  1
  H  H20  1  0.28150000  0.92544700  0.58411800  1
  H  H21  1  0.71850000  0.07455300  0.41588200  1
  H  H22  1  0.24946500  0.92576500  0.44705400  1
  H  H23  1  0.75053500  0.07423500  0.55294600  1
  H  H24  1  0.96251800  0.87734000  0.51871600  1
  H  H25  1  0.03748200  0.12266000  0.48128400  1
  C  C0  1  0.71547600  0.96073600  0.90110400  1
  C  C1  1  0.28452400  0.03926400  0.09889600  1
  C  C2  1  0.67348500  0.79559200  0.25177500  1
  C  C3  1  0.32651500  0.20440800  0.74822500  1
  C  C4  1  0.16849800  0.87696700  0.51166900  1
  C  C5  1  0.83150200  0.12303300  0.48833100  1
  S  S0  1  0.66799900  0.86462400  0.77528700  1
  S  S1  1  0.33200100  0.13537600  0.22471300  1
  S  S2  1  0.57960100  0.65378000  0.15116600  1
  S  S3  1  0.42039900  0.34622000  0.84883400  1
  S  S4  1  0.18452500  0.70449500  0.48870300  1
  S  S5  1  0.81547500  0.29550500  0.51129700  1
  O  O0  1  0.70900700  0.96105700  0.70259100  1
  O  O1  1  0.29099300  0.03894300  0.29740900  1
  O  O2  1  0.60211500  0.22183700  0.23306500  1
  O  O3  1  0.39788500  0.77816300  0.76693500  1
  O  O4  1  0.13990100  0.21942400  0.22888600  1
  O  O5  1  0.86009900  0.78057600  0.77111400  1
  O  O6  1  0.30835600  0.58340100  0.16714400  1
  O  O7  1  0.69164400  0.41659900  0.83285600  1
  O  O8  1  0.76304400  0.56783700  0.16201200  1
  O  O9  1  0.23695600  0.43216300  0.83798800  1
  O  O10  1  0.59835400  0.70498500  0.05211900  1
  O  O11  1  0.40164600  0.29501500  0.94788100  1
  O  O12  1  0.03649100  0.63970400  0.56938800  1
  O  O13  1  0.96350900  0.36029600  0.43061200  1
  O  O14  1  0.46113200  0.69926400  0.49465500  1
  O  O15  1  0.53886800  0.30073600  0.50534500  1
  O  O16  1  0.05666300  0.64735000  0.38473300  1
  O  O17  1  0.94333700  0.35265000  0.61526700  1
  O  O18  1  0.48803800  0.46344600  0.34616200  1
  O  O19  1  0.51196200  0.53655400  0.65383800  1
  O  O20  1  0.91344200  0.32351800  0.06370800  1
  O  O21  1  0.08655800  0.67648200  0.93629200  1
loop_
_geom_bond_atom_site_label_1
_geom_bond_atom_site_label_2
_geom_bond_distance
_geom_bond_site_symmetry_2
La0 O2 2.456203 1_555
La0 O4 2.458684 1_655
La0 O8 2.480283 1_555
La0 O13 2.481933 1_555
La0 O6 2.543713 1_655
La0 O16 2.562199 1_655
La0 O20 2.575464 1_555
La0 O18 2.864677 1_655
La0 O18 2.930280 1_555
La1 O3 2.456203 1_555
La1 O5 2.458684 1_455
La1 O9 2.480283 1_555
La1 O12 2.481933 1_555
La1 O7 2.543713 1_455
La1 O17 2.562199 1_455
La1 O21 2.575464 1_555
La1 O19 2.864677 1_455
La1 O19 2.930280 1_555
H0 O18 0.987885 1_555
H1 O19 0.987885 1_555
H2 O18 0.989512 1_555
H3 O19 0.989512 1_555
H4 O20 0.980922 1_555
H5 O21 0.980922 1_555
H6 O20 0.979562 1_455
H7 O21 0.979562 1_655
C0 H10 1.094805 1_565
C0 H12 1.094970 1_565
C0 H8 1.096465 1_555
C1 H11 1.094805 1_545
C1 H13 1.094970 1_545
C1 H9 1.096465 1_555
C2 H18 1.095378 1_555
C2 H14 1.095434 1_555
C2 H16 1.096212 1_555
C3 H19 1.095378 1_555
C3 H15 1.095434 1_555
C3 H17 1.096212 1_555
C4 H22 1.095430 1_555
C4 H20 1.095878 1_555
C4 H24 1.096530 1_455
C5 H23 1.095430 1_555
C5 H21 1.095878 1_555
C5 H25 1.096530 1_655
O0 S0 1.458915 1_555
O1 S1 1.458915 1_555
O2 S1 1.478649 1_555
O3 S0 1.478649 1_555
O4 S1 1.478861 1_555
O5 S0 1.478861 1_555
O6 S2 1.476849 1_555
O7 S3 1.476849 1_555
O8 S2 1.476201 1_555
O9 S3 1.476201 1_555
O10 S2 1.474581 1_555
O11 S3 1.474581 1_555
O12 S4 1.478115 1_555
O13 S5 1.478115 1_555
O14 S4 1.477312 1_555
O15 S5 1.477312 1_555
O16 S4 1.482898 1_555
O17 S5 1.482898 1_555
