# generated using pymatgen
data_NaTbO2
_symmetry_space_group_name_H-M   'P 1'
_cell_length_a   4.60709775
_cell_length_b   4.60709784
_cell_length_c   6.10043566
_cell_angle_alpha   112.18535428
_cell_angle_beta   112.18535944
_cell_angle_gamma   89.99998708
_symmetry_Int_Tables_number   1
_chemical_formula_structural   NaTbO2
_chemical_formula_sum   'Na2 Tb2 O4'
_cell_volume   109.47556205
_cell_formula_units_Z   2
loop_
 _symmetry_equiv_pos_site_id
 _symmetry_equiv_pos_as_xyz
  1  'x, y, z'
loop_
 _atom_site_type_symbol
 _atom_site_label
 _atom_site_symmetry_multiplicity
 _atom_site_fract_x
 _atom_site_fract_y
 _atom_site_fract_z
 _atom_site_occupancy
  Na  Na0  1  0.87500000  0.12500000  0.75000000  1
  Na  Na1  1  0.12500000  0.87500000  0.25000000  1
  Tb  Tb0  1  0.62500000  0.37500000  0.25000000  1
  Tb  Tb1  1  0.37500000  0.62500000  0.75000000  1
  O  O0  1  0.15262201  0.40262201  0.30524503  1
  O  O1  1  0.40262201  0.15262201  0.80524503  1
  O  O2  1  0.59737799  0.84737799  0.19475497  1
  O  O3  1  0.84737799  0.59737799  0.69475497  1
loop_
_geom_bond_atom_site_label_1
_geom_bond_atom_site_label_2
_geom_bond_distance
_geom_bond_site_symmetry_2
Na0 O1 2.321103 1_655
Na0 O3 2.321103 1_545
Na0 O1 2.321107 1_555
Na0 O3 2.321107 1_555
Na0 O2 2.863828 1_545
Na0 O0 2.863828 1_656
Na1 O2 2.321103 1_455
Na1 O0 2.321103 1_565
Na1 O2 2.321107 1_555
Na1 O0 2.321107 1_555
Na1 O1 2.863828 1_565
Na1 O3 2.863828 1_454
O0 Tb1 2.293946 1_555
O0 Tb0 2.321103 1_455
O0 Tb0 2.321107 1_555
O1 Tb0 2.293946 1_556
O1 Tb1 2.321103 1_545
O1 Tb1 2.321107 1_555
O2 Tb1 2.293946 1_554
O2 Tb0 2.321103 1_565
O2 Tb0 2.321107 1_555
O3 Tb0 2.293946 1_555
O3 Tb1 2.321103 1_655
O3 Tb1 2.321107 1_555
