# generated using pymatgen
data_LiB13C2
_symmetry_space_group_name_H-M   'P 1'
_cell_length_a   7.30353285
_cell_length_b   7.30366624
_cell_length_c   7.30363529
_cell_angle_alpha   134.36234715
_cell_angle_beta   113.32148354
_cell_angle_gamma   84.54406027
_symmetry_Int_Tables_number   1
_chemical_formula_structural   LiB13C2
_chemical_formula_sum   'Li2 B26 C4'
_cell_volume   245.78338141
_cell_formula_units_Z   2
loop_
 _symmetry_equiv_pos_site_id
 _symmetry_equiv_pos_as_xyz
  1  'x, y, z'
loop_
 _atom_site_type_symbol
 _atom_site_label
 _atom_site_symmetry_multiplicity
 _atom_site_fract_x
 _atom_site_fract_y
 _atom_site_fract_z
 _atom_site_occupancy
  Li  Li0  1  0.20280107  0.50003037  0.70289609  1
  Li  Li1  1  0.30735903  0.00026186  0.30758743  1
  B  B0  1  0.40893141  0.41665960  0.99225494  1
  B  B1  1  0.37782851  0.57489687  0.30926270  1
  B  B2  1  0.73436628  0.93141290  0.30922329  1
  B  B3  1  0.13133480  0.92501826  0.69992305  1
  B  B4  1  0.98282319  0.65853229  0.00359234  1
  B  B5  1  0.34504055  0.02074603  0.00354839  1
  B  B6  1  0.13133261  0.43139160  0.20629507  1
  B  B7  1  0.73436801  0.42512432  0.80293572  1
  B  B8  1  0.16413973  0.15845024  0.68492888  1
  B  B9  1  0.10026226  0.08327826  0.01696166  1
  B  B10  1  0.00343402  0.17606165  0.82735234  1
  B  B11  1  0.34503978  0.34147586  0.32427342  1
  B  B12  1  0.77489616  0.56861561  0.69994781  1
  B  B13  1  0.57557549  0.58331447  0.99224590  1
  B  B14  1  0.37782978  0.06854619  0.80291066  1
  B  B15  1  0.86910205  0.49996493  0.36911231  1
  B  B16  1  0.52645075  0.52081640  0.68492994  1
  B  B17  1  0.93369548  0.91670622  0.01696383  1
  B  B18  1  0.85795589  0.67608061  0.18185551  1
  B  B19  1  0.16413984  0.47919086  0.00567229  1
  B  B20  1  0.98281598  0.97920873  0.32426659  1
  B  B21  1  0.65128832  0.82393476  0.82732999  1
  B  B22  1  0.77489200  0.07492416  0.20625487  1
  B  B23  1  0.50574163  0.32387702  0.18184170  1
  B  B24  1  0.64019464  0.00000790  0.64015693  1
  B  B25  1  0.52645168  0.84150433  0.00561627  1
  C  C0  1  0.50361704  0.86944264  0.63414947  1
  C  C1  1  0.76475899  0.13060360  0.63413848  1
  C  C2  1  0.74440277  0.36938918  0.37498904  1
  C  C3  1  0.00553926  0.63053327  0.37499008  1
loop_
_geom_bond_atom_site_label_1
_geom_bond_atom_site_label_2
_geom_bond_distance
_geom_bond_site_symmetry_2
B0 B13 1.801319 1_555
B0 B23 1.822720 1_556
B0 B19 1.826317 1_556
B0 B8 1.826325 1_555
B0 B1 1.836462 1_556
B0 B14 1.836483 1_555
B0 Li0 2.491913 1_555
B1 C0 1.616762 1_555
B1 B19 1.772263 1_555
B1 B11 1.826362 1_555
B2 C1 1.616715 1_565
B2 B25 1.772410 1_555
B2 B20 1.826343 1_555
B3 C3 1.616714 1_555
B3 B5 1.772413 1_566
B3 B8 1.826378 1_565
B3 B9 1.836489 1_566
B4 B7 1.826378 1_554
B4 Li1 2.446645 1_665
B4 Li0 2.762126 1_654
B5 B9 1.826215 1_555
B5 Li1 2.446513 1_555
B5 Li0 2.762575 1_544
B6 C3 1.616723 1_555
B6 B9 1.836513 1_555
B7 C1 1.616709 1_555
B8 Li0 2.442893 1_555
B8 Li1 2.761229 1_555
B9 Li1 2.498843 1_555
B10 C1 1.627096 1_455
B10 B8 1.796407 1_555
B10 B19 1.796409 1_556
B10 B9 1.822874 1_556
B11 B6 1.772405 1_555
B11 B16 1.775257 1_555
B11 B23 1.796466 1_555
B11 B5 1.816917 1_555
B11 B9 1.826229 1_555
B11 Li1 2.445481 1_555
B11 Li0 2.763143 1_555
B12 C2 1.616672 1_555
B12 B4 1.772600 1_556
B12 B16 1.826404 1_555
B12 B17 1.836437 1_556
B13 B18 1.822772 1_556
B13 B16 1.826413 1_555
B13 B25 1.826423 1_556
B13 B2 1.836440 1_556
B13 B7 1.836455 1_555
B13 Li0 2.492022 1_555
B14 C0 1.616774 1_545
B14 B8 1.772280 1_555
B14 B5 1.826401 1_556
B15 C3 1.412017 1_655
B15 C2 1.412149 1_555
B15 Li0 2.679024 1_655
B16 B7 1.772422 1_555
B16 B21 1.796508 1_555
B16 B25 1.816684 1_556
B16 Li0 2.443243 1_555
B16 Li1 2.761061 1_555
B17 B9 1.800417 1_665
B17 B21 1.822948 1_554
B17 B20 1.826308 1_555
B17 B4 1.826308 1_555
B17 B22 1.836455 1_565
B17 Li1 2.498882 1_665
B18 C3 1.626773 1_655
B18 B20 1.796597 1_555
B18 B4 1.796607 1_555
B19 B4 1.775283 1_455
B19 B8 1.816997 1_554
B19 B6 1.826349 1_555
B19 Li0 2.442596 1_554
B19 Li1 2.763265 1_565
B20 B22 1.772582 1_565
B20 B8 1.775305 1_665
B20 B4 1.816640 1_555
B20 Li1 2.445605 1_665
B20 Li0 2.762737 1_665
B21 C0 1.627001 1_555
B21 B25 1.796503 1_556
B22 C2 1.616666 1_555
B22 B25 1.826367 1_545
B23 C2 1.626756 1_555
B23 B5 1.796479 1_555
B24 C0 1.412095 1_545
B24 C1 1.412334 1_555
B24 Li1 2.671967 1_555
B25 B5 1.775237 1_565
B25 Li0 2.442958 1_554
B25 Li1 2.763060 1_565
