# generated using pymatgen
data_Sb(PO3)4
_symmetry_space_group_name_H-M   'P 1'
_cell_length_a   8.78360900
_cell_length_b   10.35426200
_cell_length_c   12.62889547
_cell_angle_alpha   53.09148534
_cell_angle_beta   90.00000000
_cell_angle_gamma   90.00000000
_symmetry_Int_Tables_number   1
_chemical_formula_structural   Sb(PO3)4
_chemical_formula_sum   'Sb4 P16 O48'
_cell_volume   918.39140886
_cell_formula_units_Z   4
loop_
 _symmetry_equiv_pos_site_id
 _symmetry_equiv_pos_as_xyz
  1  'x, y, z'
loop_
 _atom_site_type_symbol
 _atom_site_label
 _atom_site_symmetry_multiplicity
 _atom_site_fract_x
 _atom_site_fract_y
 _atom_site_fract_z
 _atom_site_occupancy
  Sb  Sb0  1  0.27269100  0.82751600  0.98707500  1
  Sb  Sb1  1  0.77269100  0.17248400  0.51292500  1
  Sb  Sb2  1  0.22730900  0.82751600  0.48707500  1
  Sb  Sb3  1  0.72730900  0.17248400  0.01292500  1
  P  P0  1  0.49685500  0.51201500  0.23323900  1
  P  P1  1  0.38627500  0.70406000  0.31118900  1
  P  P2  1  0.88627500  0.29594000  0.18881100  1
  P  P3  1  0.50314500  0.48798500  0.76676100  1
  P  P4  1  0.61372500  0.29594000  0.68881100  1
  P  P5  1  0.09898200  0.10358600  0.15562200  1
  P  P6  1  0.00314500  0.51201500  0.73323900  1
  P  P7  1  0.15672000  0.18081100  0.46520600  1
  P  P8  1  0.11372500  0.70406000  0.81118900  1
  P  P9  1  0.90101800  0.89641400  0.84437800  1
  P  P10  1  0.40101800  0.10358600  0.65562200  1
  P  P11  1  0.84328000  0.81918900  0.53479400  1
  P  P12  1  0.59898200  0.89641400  0.34437800  1
  P  P13  1  0.34328000  0.18081100  0.96520600  1
  P  P14  1  0.65672000  0.81918900  0.03479400  1
  P  P15  1  0.99685500  0.48798500  0.26676100  1
  O  O0  1  0.66827100  0.18387800  0.83013400  1
  O  O1  1  0.71026300  0.33231500  0.57527000  1
  O  O2  1  0.78973700  0.33231500  0.07527000  1
  O  O3  1  0.27664000  0.07884700  0.92822100  1
  O  O4  1  0.77850100  0.78619000  0.96001300  1
  O  O5  1  0.77664000  0.92115300  0.57177900  1
  O  O6  1  0.21026300  0.66768500  0.92473000  1
  O  O7  1  0.37581400  0.57064800  0.12745200  1
  O  O8  1  0.86232600  0.64049500  0.66703200  1
  O  O9  1  0.72336000  0.92115300  0.07177900  1
  O  O10  1  0.72149900  0.78619000  0.46001300  1
  O  O11  1  0.06387900  0.53574400  0.84273800  1
  O  O12  1  0.83172900  0.18387800  0.33013400  1
  O  O13  1  0.12418600  0.57064800  0.62745200  1
  O  O14  1  0.95011300  0.76968500  0.81844700  1
  O  O15  1  0.31268400  0.96710400  0.77323200  1
  O  O16  1  0.98885600  0.87376800  0.45351700  1
  O  O17  1  0.44269100  0.65487800  0.69249500  1
  O  O18  1  0.55730900  0.34512200  0.30750500  1
  O  O19  1  0.01114400  0.12623200  0.54648300  1
  O  O20  1  0.96790200  0.05897400  0.10619700  1
  O  O21  1  0.54988700  0.76968500  0.31844700  1
  O  O22  1  0.03209800  0.94102600  0.89380300  1
  O  O23  1  0.22336000  0.07884700  0.42822100  1
  O  O24  1  0.22149900  0.21381000  0.03998700  1
  O  O25  1  0.93612100  0.46425600  0.15726200  1
  O  O26  1  0.45011300  0.23031500  0.68155300  1
  O  O27  1  0.04988700  0.23031500  0.18155300  1
  O  O28  1  0.43612100  0.53574400  0.34273800  1
  O  O29  1  0.05730900  0.65487800  0.19249500  1
  O  O30  1  0.36232600  0.35950500  0.83296800  1
  O  O31  1  0.94269100  0.34512200  0.80750500  1
  O  O32  1  0.46790200  0.94102600  0.39380300  1
  O  O33  1  0.63767400  0.64049500  0.16703200  1
  O  O34  1  0.27850100  0.21381000  0.53998700  1
  O  O35  1  0.28973700  0.66768500  0.42473000  1
  O  O36  1  0.62418600  0.42935200  0.87254800  1
  O  O37  1  0.33172900  0.81612200  0.16986600  1
  O  O38  1  0.13767400  0.35950500  0.33296800  1
  O  O39  1  0.56387900  0.46425600  0.65726200  1
  O  O40  1  0.51114400  0.87376800  0.95351700  1
  O  O41  1  0.16827100  0.81612200  0.66986600  1
  O  O42  1  0.53209800  0.05897400  0.60619700  1
  O  O43  1  0.48885600  0.12623200  0.04648300  1
  O  O44  1  0.81268400  0.03289600  0.72676800  1
  O  O45  1  0.87581400  0.42935200  0.37254800  1
  O  O46  1  0.18731600  0.96710400  0.27323200  1
  O  O47  1  0.68731600  0.03289600  0.22676800  1
loop_
_geom_bond_atom_site_label_1
_geom_bond_atom_site_label_2
_geom_bond_distance
_geom_bond_site_symmetry_2
O0 P4 1.507959 1_555
O0 Sb3 2.298839 1_556
O1 P4 1.506084 1_555
O1 Sb1 2.285697 1_555
O2 P2 1.506084 1_555
O2 Sb3 2.285697 1_555
O3 P13 1.505889 1_555
O3 Sb0 2.236671 1_545
O4 P14 1.593868 1_556
O4 P9 1.609788 1_555
O5 P11 1.505889 1_555
O5 Sb1 2.236671 1_565
O6 P8 1.506084 1_555
O6 Sb0 2.285697 1_555
O7 P0 1.519731 1_555
O7 Sb0 2.318188 1_554
O8 P11 1.590312 1_555
O8 P6 1.631806 1_655
O9 P14 1.505889 1_555
O9 Sb3 2.236671 1_565
O10 P11 1.593868 1_555
O10 P12 1.609788 1_555
O11 P8 1.598045 1_555
O11 P6 1.632577 1_555
O12 P2 1.507959 1_555
O12 Sb1 2.298839 1_555
O13 P6 1.519731 1_555
O13 Sb2 2.318188 1_555
O14 P9 1.590960 1_555
O14 P8 1.615610 1_655
O15 P10 1.511328 1_565
O15 Sb0 2.194881 1_555
O16 P11 1.520285 1_555
O16 Sb2 2.133547 1_655
O17 P3 1.483629 1_555
O18 P0 1.483629 1_555
O19 P7 1.520285 1_555
O19 Sb1 2.133547 1_455
O20 P5 1.508277 1_655
O20 Sb3 2.360505 1_555
O21 P12 1.590960 1_555
O21 P1 1.615610 1_555
O22 P9 1.508277 1_455
O22 Sb0 2.360505 1_555
O23 P7 1.505889 1_555
O23 Sb2 2.236671 1_545
O24 P13 1.593868 1_554
O24 P5 1.609788 1_555
O25 P2 1.598045 1_555
O25 P15 1.632577 1_555
O26 P10 1.590960 1_555
O26 P4 1.615610 1_555
O27 P5 1.590960 1_555
O27 P2 1.615610 1_455
O28 P1 1.598045 1_555
O28 P0 1.632577 1_555
O29 P15 1.483629 1_455
O30 P13 1.590312 1_555
O30 P3 1.631806 1_555
O31 P6 1.483629 1_655
O32 P12 1.508277 1_555
O32 Sb2 2.360505 1_555
O33 P14 1.590312 1_555
O33 P0 1.631806 1_555
O34 P7 1.593868 1_555
O34 P10 1.609788 1_555
O35 P1 1.506084 1_555
O35 Sb2 2.285697 1_555
O36 P3 1.519731 1_555
O36 Sb3 2.318188 1_556
O37 P1 1.507959 1_555
O37 Sb0 2.298839 1_554
O38 P7 1.590312 1_555
O38 P15 1.631806 1_455
O39 P4 1.598045 1_555
O39 P3 1.632577 1_555
O40 P14 1.520285 1_556
O40 Sb0 2.133547 1_555
O41 P8 1.507959 1_555
O41 Sb2 2.298839 1_555
O42 P10 1.508277 1_555
O42 Sb1 2.360505 1_555
O43 P13 1.520285 1_554
O43 Sb3 2.133547 1_555
O44 P9 1.511328 1_545
O44 Sb1 2.194881 1_555
O45 P15 1.519731 1_555
O45 Sb1 2.318188 1_555
O46 P5 1.511328 1_565
O46 Sb2 2.194881 1_555
O47 P12 1.511328 1_545
O47 Sb3 2.194881 1_555
