# generated using pymatgen
data_GdCdPd
_symmetry_space_group_name_H-M   'P 1'
_cell_length_a   7.61454068
_cell_length_b   7.61483259
_cell_length_c   3.95591588
_cell_angle_alpha   90.00545835
_cell_angle_beta   89.99383639
_cell_angle_gamma   120.10272099
_symmetry_Int_Tables_number   1
_chemical_formula_structural   GdCdPd
_chemical_formula_sum   'Gd3 Cd3 Pd3'
_cell_volume   198.44094403
_cell_formula_units_Z   3
loop_
 _symmetry_equiv_pos_site_id
 _symmetry_equiv_pos_as_xyz
  1  'x, y, z'
loop_
 _atom_site_type_symbol
 _atom_site_label
 _atom_site_symmetry_multiplicity
 _atom_site_fract_x
 _atom_site_fract_y
 _atom_site_fract_z
 _atom_site_occupancy
  Gd  Gd0  1  0.59492787  0.00022296  0.00000149  1
  Gd  Gd1  1  0.40539835  0.40533965  0.00000951  1
  Gd  Gd2  1  0.00014466  0.59489523  -0.00000808  1
  Cd  Cd0  1  0.25594577  0.00012224  0.50001628  1
  Cd  Cd1  1  0.74420825  0.74415749  0.49999719  1
  Cd  Cd2  1  0.00001971  0.25591635  0.49999197  1
  Pd  Pd0  1  0.66658146  0.33312185  0.49999537  1
  Pd  Pd1  1  0.33314213  0.66658959  0.49999268  1
  Pd  Pd2  1  0.99963279  0.99963663  0.00000261  1
loop_
_geom_bond_atom_site_label_1
_geom_bond_atom_site_label_2
_geom_bond_distance
_geom_bond_site_symmetry_2
Gd0 Pd0 3.041030 1_555
Gd0 Pd0 3.041299 1_554
Gd0 Pd1 3.043071 1_545
Gd0 Pd1 3.043081 1_544
Gd0 Pd2 3.083884 1_545
Gd1 Pd0 3.044055 1_554
Gd1 Pd0 3.044328 1_555
Gd1 Pd1 3.044560 1_555
Gd1 Pd1 3.044970 1_554
Gd1 Pd2 3.084741 1_445
Gd2 Pd1 3.041426 1_554
Gd2 Pd1 3.041717 1_555
Gd2 Pd0 3.042707 1_455
Gd2 Pd0 3.042797 1_454
Gd2 Pd2 3.083995 1_455
Cd0 Pd2 2.777265 1_446
Cd0 Pd2 2.777641 1_445
Cd0 Pd0 2.872890 1_555
Cd0 Pd1 2.879870 1_545
Cd0 Gd0 3.251465 1_555
Cd0 Gd0 3.251731 1_556
Cd0 Gd2 3.346478 1_546
Cd0 Gd2 3.346492 1_545
Cd0 Gd1 3.347462 1_556
Cd0 Gd1 3.347696 1_555
Cd0 Cd1 3.371100 1_445
Cd0 Cd2 3.376290 1_555
Cd1 Pd2 2.772029 1_555
Cd1 Pd2 2.772093 1_556
Cd1 Pd0 2.879279 1_555
Cd1 Pd1 2.879534 1_555
Cd1 Gd1 3.247737 1_555
Cd1 Gd1 3.247757 1_556
Cd1 Gd2 3.350064 1_655
Cd1 Gd2 3.350414 1_656
Cd1 Gd0 3.350922 1_566
Cd1 Gd0 3.351266 1_565
Cd1 Cd2 3.371373 1_665
Cd2 Pd2 2.777430 1_445
Cd2 Pd2 2.777754 1_446
Cd2 Pd1 2.873434 1_555
Cd2 Pd0 2.879126 1_455
Cd2 Gd2 3.251434 1_556
Cd2 Gd2 3.251733 1_555
Cd2 Gd0 3.345609 1_456
Cd2 Gd0 3.345737 1_455
Cd2 Gd1 3.348261 1_555
Cd2 Gd1 3.348607 1_556
