# generated using pymatgen
data_Cu9Se5
_symmetry_space_group_name_H-M   'P 1'
_cell_length_a   5.80575900
_cell_length_b   7.11606472
_cell_length_c   7.13057309
_cell_angle_alpha   79.32925313
_cell_angle_beta   66.00942297
_cell_angle_gamma   66.07317848
_symmetry_Int_Tables_number   1
_chemical_formula_structural   Cu9Se5
_chemical_formula_sum   'Cu9 Se5'
_cell_volume   245.94277306
_cell_formula_units_Z   1
loop_
 _symmetry_equiv_pos_site_id
 _symmetry_equiv_pos_as_xyz
  1  'x, y, z'
loop_
 _atom_site_type_symbol
 _atom_site_label
 _atom_site_symmetry_multiplicity
 _atom_site_fract_x
 _atom_site_fract_y
 _atom_site_fract_z
 _atom_site_occupancy
  Cu  Cu0  1  0.47025800  0.89351200  0.69425900  1
  Cu  Cu1  1  0.85338800  0.71091900  0.10893800  1
  Cu  Cu2  1  0.26390100  0.50328500  0.48191000  1
  Cu  Cu3  1  0.06689600  0.79513200  0.72954800  1
  Cu  Cu4  1  0.38533100  0.79260700  0.07517900  1
  Cu  Cu5  1  0.63758100  0.30097700  0.90108700  1
  Cu  Cu6  1  0.04888900  0.09727800  0.31196800  1
  Cu  Cu7  1  0.86478000  0.40172000  0.53193600  1
  Cu  Cu8  1  0.59246800  0.19049900  0.27169600  1
  Se  Se0  1  0.99499900  0.00601400  0.99082400  1
  Se  Se1  1  0.40973000  0.80317800  0.40034800  1
  Se  Se2  1  0.78976100  0.59633600  0.80730100  1
  Se  Se3  1  0.19045900  0.40224800  0.18850700  1
  Se  Se4  1  0.58164100  0.20092100  0.60978700  1
loop_
_geom_bond_atom_site_label_1
_geom_bond_atom_site_label_2
_geom_bond_distance
_geom_bond_site_symmetry_2
Cu0 Se4 2.430857 1_565
Cu0 Se2 2.442410 1_555
Cu0 Se1 2.491970 1_555
Cu0 Se0 2.610855 1_465
Cu1 Se3 2.435359 1_655
Cu1 Se0 2.444850 1_564
Cu1 Se1 2.482861 1_555
Cu1 Se2 2.639566 1_554
Cu2 Se1 2.492947 1_555
Cu2 Se4 2.507131 1_555
Cu2 Se3 2.570385 1_555
Cu2 Se2 2.701152 1_455
Cu3 Se1 2.391347 1_555
Cu3 Se2 2.393289 1_455
Cu3 Se0 2.406662 1_465
Cu4 Se1 2.396277 1_555
Cu4 Se0 2.404622 1_464
Cu4 Se2 2.406928 1_554
Cu5 Se2 2.480050 1_555
Cu5 Se3 2.482254 1_556
Cu5 Se0 2.484049 1_555
Cu5 Se4 2.492138 1_555
Cu6 Se1 2.488925 1_545
Cu6 Se3 2.512212 1_555
Cu6 Se4 2.585584 1_455
Cu6 Se0 2.657378 1_454
Cu7 Se2 2.405277 1_555
Cu7 Se3 2.410217 1_655
Cu7 Se4 2.433430 1_555
Cu8 Se4 2.400110 1_555
Cu8 Se0 2.423880 1_554
Cu8 Se3 2.451921 1_555
