# generated using pymatgen
data_Yb4Mg4Fe3H22
_symmetry_space_group_name_H-M   'P 1'
_cell_length_a   6.60888600
_cell_length_b   6.60888600
_cell_length_c   6.60888600
_cell_angle_alpha   90.00000000
_cell_angle_beta   90.00000000
_cell_angle_gamma   90.00000000
_symmetry_Int_Tables_number   1
_chemical_formula_structural   Yb4Mg4Fe3H22
_chemical_formula_sum   'Yb4 Mg4 Fe3 H22'
_cell_volume   288.65878661
_cell_formula_units_Z   1
loop_
 _symmetry_equiv_pos_site_id
 _symmetry_equiv_pos_as_xyz
  1  'x, y, z'
loop_
 _atom_site_type_symbol
 _atom_site_label
 _atom_site_symmetry_multiplicity
 _atom_site_fract_x
 _atom_site_fract_y
 _atom_site_fract_z
 _atom_site_occupancy
  Yb  Yb0  1  0.28964200  0.28964200  0.71035800  1
  Yb  Yb1  1  0.28964200  0.71035800  0.28964200  1
  Yb  Yb2  1  0.71035800  0.28964200  0.28964200  1
  Yb  Yb3  1  0.71035800  0.71035800  0.71035800  1
  Mg  Mg0  1  0.78629700  0.78629700  0.21370300  1
  Mg  Mg1  1  0.78629700  0.21370300  0.78629700  1
  Mg  Mg2  1  0.21370300  0.78629700  0.78629700  1
  Mg  Mg3  1  0.21370300  0.21370300  0.21370300  1
  Fe  Fe0  1  0.00000000  0.00000000  0.50000000  1
  Fe  Fe1  1  0.00000000  0.50000000  0.00000000  1
  Fe  Fe2  1  0.50000000  0.00000000  0.00000000  1
  H  H0  1  0.00000000  0.50000000  0.23940100  1
  H  H1  1  0.50000000  0.76059900  0.00000000  1
  H  H2  1  0.76059900  0.00000000  0.50000000  1
  H  H3  1  0.00000000  0.76059900  0.50000000  1
  H  H4  1  0.50000000  0.00000000  0.23940100  1
  H  H5  1  0.76059900  0.50000000  0.00000000  1
  H  H6  1  0.00000000  0.50000000  0.76059900  1
  H  H7  1  0.50000000  0.23940100  0.00000000  1
  H  H8  1  0.00000000  0.23940100  0.50000000  1
  H  H9  1  0.50000000  0.00000000  0.76059900  1
  H  H10  1  0.23940100  0.00000000  0.50000000  1
  H  H11  1  0.23940100  0.50000000  0.00000000  1
  H  H12  1  0.00000000  0.00000000  0.26130500  1
  H  H13  1  0.00000000  0.73869500  0.00000000  1
  H  H14  1  0.73869500  0.00000000  0.00000000  1
  H  H15  1  0.00000000  0.00000000  0.73869500  1
  H  H16  1  0.00000000  0.26130500  0.00000000  1
  H  H17  1  0.26130500  0.00000000  0.00000000  1
  H  H18  1  0.62577400  0.62577400  0.37422600  1
  H  H19  1  0.62577400  0.37422600  0.62577400  1
  H  H20  1  0.37422600  0.62577400  0.62577400  1
  H  H21  1  0.37422600  0.37422600  0.37422600  1
loop_
_geom_bond_atom_site_label_1
_geom_bond_atom_site_label_2
_geom_bond_distance
_geom_bond_site_symmetry_2
Fe0 H12 1.577508 1_555
Fe0 H15 1.577508 1_555
Fe0 H3 1.582174 1_545
Fe0 H2 1.582174 1_455
Fe0 H8 1.582174 1_555
Fe0 H10 1.582174 1_555
Fe1 H16 1.577508 1_555
Fe1 H13 1.577508 1_555
Fe1 H6 1.582174 1_554
Fe1 H5 1.582174 1_455
Fe1 H0 1.582174 1_555
Fe1 H11 1.582174 1_555
Fe2 H17 1.577508 1_555
Fe2 H14 1.577508 1_555
Fe2 H9 1.582174 1_554
Fe2 H1 1.582174 1_545
Fe2 H7 1.582174 1_555
Fe2 H4 1.582174 1_555
H0 Yb2 2.388974 1_455
H0 Yb1 2.388974 1_555
H1 Yb3 2.388974 1_554
H1 Yb1 2.388974 1_555
H2 Yb2 2.388974 1_555
H2 Yb3 2.388974 1_545
H3 Yb1 2.388974 1_555
H3 Yb3 2.388974 1_455
H4 Yb1 2.388974 1_545
H4 Yb2 2.388974 1_555
H5 Yb2 2.388974 1_555
H5 Yb3 2.388974 1_554
H6 Yb0 2.388974 1_555
H6 Yb3 2.388974 1_455
H7 Yb0 2.388974 1_554
H7 Yb2 2.388974 1_555
H8 Yb0 2.388974 1_555
H8 Yb2 2.388974 1_455
H9 Yb0 2.388974 1_555
H9 Yb3 2.388974 1_545
H10 Yb1 2.388974 1_545
H10 Yb0 2.388974 1_555
H11 Yb0 2.388974 1_554
H11 Yb1 2.388974 1_555
H12 Mg0 2.021972 1_445
H12 Mg3 2.021972 1_555
H12 Yb2 2.713573 1_455
H12 Yb1 2.713573 1_545
H13 Mg0 2.021972 1_455
H13 Mg2 2.021972 1_554
H13 Yb3 2.713573 1_454
H13 Yb1 2.713573 1_555
H14 Mg1 2.021972 1_554
H14 Mg0 2.021972 1_545
H14 Yb3 2.713573 1_544
H14 Yb2 2.713573 1_555
H15 Mg2 2.021972 1_545
H15 Mg1 2.021972 1_455
H15 Yb3 2.713573 1_445
H15 Yb0 2.713573 1_555
H16 Mg1 2.021972 1_454
H16 Mg3 2.021972 1_555
H16 Yb2 2.713573 1_455
H16 Yb0 2.713573 1_554
H17 Mg2 2.021972 1_544
H17 Mg3 2.021972 1_555
H17 Yb0 2.713573 1_554
H17 Yb1 2.713573 1_545
H18 Mg0 1.837495 1_555
H18 Yb1 2.357934 1_555
H18 Yb3 2.357934 1_555
H18 Yb2 2.357934 1_555
H19 Mg1 1.837495 1_555
H19 Yb2 2.357934 1_555
H19 Yb3 2.357934 1_555
H19 Yb0 2.357934 1_555
H20 Mg2 1.837495 1_555
H20 Yb1 2.357934 1_555
H20 Yb3 2.357934 1_555
H20 Yb0 2.357934 1_555
H21 Mg3 1.837495 1_555
H21 Yb1 2.357934 1_555
H21 Yb2 2.357934 1_555
H21 Yb0 2.357934 1_555
