# generated using pymatgen
data_Ce2Mg17
_symmetry_space_group_name_H-M   'P 1'
_cell_length_a   10.31898375
_cell_length_b   10.31898375
_cell_length_c   10.15651600
_cell_angle_alpha   90.00000000
_cell_angle_beta   90.00000000
_cell_angle_gamma   119.99999842
_symmetry_Int_Tables_number   1
_chemical_formula_structural   Ce2Mg17
_chemical_formula_sum   'Ce4 Mg34'
_cell_volume   936.58943170
_cell_formula_units_Z   2
loop_
 _symmetry_equiv_pos_site_id
 _symmetry_equiv_pos_as_xyz
  1  'x, y, z'
loop_
 _atom_site_type_symbol
 _atom_site_label
 _atom_site_symmetry_multiplicity
 _atom_site_fract_x
 _atom_site_fract_y
 _atom_site_fract_z
 _atom_site_occupancy
  Ce  Ce0  1  0.00000000  0.00000000  0.25000000  1
  Ce  Ce1  1  0.00000000  0.00000000  0.75000000  1
  Ce  Ce2  1  0.66666700  0.33333300  0.25000000  1
  Ce  Ce3  1  0.33333300  0.66666700  0.75000000  1
  Mg  Mg0  1  0.50000000  0.00000000  0.50000000  1
  Mg  Mg1  1  0.50000000  0.50000000  0.50000000  1
  Mg  Mg2  1  0.83476100  0.16523900  0.49789900  1
  Mg  Mg3  1  0.33047900  0.16523900  0.00210100  1
  Mg  Mg4  1  0.16523900  0.33047900  0.50210100  1
  Mg  Mg5  1  0.66709600  0.66223100  0.75000000  1
  Mg  Mg6  1  0.66666700  0.33333300  0.89470400  1
  Mg  Mg7  1  0.33333300  0.66666700  0.39470400  1
  Mg  Mg8  1  0.66952100  0.83476100  0.99789900  1
  Mg  Mg9  1  0.33776900  0.33290400  0.75000000  1
  Mg  Mg10  1  0.00486500  0.33776900  0.25000000  1
  Mg  Mg11  1  0.83476100  0.16523900  0.00210100  1
  Mg  Mg12  1  0.66223100  0.99513500  0.25000000  1
  Mg  Mg13  1  0.99513500  0.66223100  0.75000000  1
  Mg  Mg14  1  0.33047900  0.16523900  0.49789900  1
  Mg  Mg15  1  0.83476100  0.66952100  0.49789900  1
  Mg  Mg16  1  0.16523900  0.33047900  0.99789900  1
  Mg  Mg17  1  0.83476100  0.66952100  0.00210100  1
  Mg  Mg18  1  0.66666700  0.33333300  0.60529600  1
  Mg  Mg19  1  0.66952100  0.83476100  0.50210100  1
  Mg  Mg20  1  0.00000000  0.50000000  0.00000000  1
  Mg  Mg21  1  0.33290400  0.99513500  0.25000000  1
  Mg  Mg22  1  0.33290400  0.33776900  0.25000000  1
  Mg  Mg23  1  0.33333300  0.66666700  0.10529600  1
  Mg  Mg24  1  0.16523900  0.83476100  0.50210100  1
  Mg  Mg25  1  0.00486500  0.66709600  0.25000000  1
  Mg  Mg26  1  0.66709600  0.00486500  0.75000000  1
  Mg  Mg27  1  0.16523900  0.83476100  0.99789900  1
  Mg  Mg28  1  0.66223100  0.66709600  0.25000000  1
  Mg  Mg29  1  0.50000000  0.50000000  0.00000000  1
  Mg  Mg30  1  0.99513500  0.33290400  0.75000000  1
  Mg  Mg31  1  0.33776900  0.00486500  0.75000000  1
  Mg  Mg32  1  0.00000000  0.50000000  0.50000000  1
  Mg  Mg33  1  0.50000000  0.00000000  0.00000000  1
loop_
_geom_bond_atom_site_label_1
_geom_bond_atom_site_label_2
_geom_bond_distance
_geom_bond_site_symmetry_2
Ce0 Mg25 3.460605 1_545
Ce0 Mg21 3.460605 1_545
Ce0 Mg12 3.460605 1_445
Ce0 Mg10 3.460605 1_555
Ce0 Mg28 3.460605 1_445
Ce0 Mg22 3.460605 1_555
Ce0 Mg2 3.880896 1_455
Ce0 Mg11 3.880896 1_455
Ce0 Mg15 3.880902 1_445
Ce0 Mg17 3.880902 1_445
Ce0 Mg14 3.880902 1_555
Ce0 Mg3 3.880902 1_555
Ce0 Mg24 3.908718 1_545
Ce0 Mg27 3.908718 1_544
Ce0 Mg19 3.908725 1_445
Ce0 Mg4 3.908725 1_555
Ce0 Mg8 3.908725 1_444
Ce0 Mg16 3.908725 1_554
Ce1 Mg30 3.460605 1_455
Ce1 Mg26 3.460605 1_455
Ce1 Mg31 3.460605 1_555
Ce1 Mg13 3.460605 1_445
Ce1 Mg9 3.460605 1_555
Ce1 Mg5 3.460605 1_445
Ce1 Mg27 3.880896 1_545
Ce1 Mg24 3.880896 1_545
Ce1 Mg8 3.880902 1_445
Ce1 Mg19 3.880902 1_445
Ce1 Mg4 3.880902 1_555
Ce1 Mg16 3.880902 1_555
Ce1 Mg11 3.908718 1_456
Ce1 Mg2 3.908718 1_455
Ce1 Mg3 3.908725 1_556
Ce1 Mg17 3.908725 1_446
Ce1 Mg15 3.908725 1_445
Ce1 Mg14 3.908725 1_555
Ce2 Mg10 3.467199 1_655
Ce2 Mg12 3.467199 1_545
Ce2 Mg25 3.467204 1_655
Ce2 Mg21 3.467204 1_545
Ce2 Mg28 3.467209 1_555
Ce2 Mg22 3.467209 1_555
Ce2 Mg6 3.608570 1_554
Ce2 Mg18 3.608570 1_555
Ce2 Mg20 3.914155 1_655
Ce2 Mg33 3.914155 1_555
Ce2 Mg32 3.914155 1_655
Ce2 Mg0 3.914155 1_555
Ce2 Mg29 3.914162 1_555
Ce2 Mg1 3.914162 1_555
Ce2 Mg2 3.919867 1_555
Ce2 Mg11 3.919867 1_555
Ce2 Mg14 3.919867 1_555
Ce2 Mg3 3.919867 1_555
Ce2 Mg15 3.919867 1_555
Ce2 Mg17 3.919867 1_555
Ce3 Mg31 3.467199 1_565
Ce3 Mg13 3.467199 1_455
Ce3 Mg26 3.467204 1_565
Ce3 Mg30 3.467204 1_455
Ce3 Mg5 3.467209 1_555
Ce3 Mg9 3.467209 1_555
Ce3 Mg7 3.608570 1_555
Ce3 Mg23 3.608570 1_556
Ce3 Mg33 3.914155 1_566
Ce3 Mg32 3.914155 1_555
Ce3 Mg20 3.914155 1_556
Ce3 Mg0 3.914155 1_565
Ce3 Mg29 3.914162 1_556
Ce3 Mg1 3.914162 1_555
Ce3 Mg27 3.919867 1_555
Ce3 Mg24 3.919867 1_555
Ce3 Mg16 3.919867 1_555
Ce3 Mg4 3.919867 1_555
Ce3 Mg19 3.919867 1_555
Ce3 Mg8 3.919867 1_555
Mg0 Mg14 2.991741 1_555
Mg0 Mg19 2.991741 1_545
Mg0 Mg24 2.991750 1_545
Mg0 Mg2 2.991750 1_555
Mg0 Mg31 3.055521 1_555
Mg0 Mg12 3.055521 1_545
Mg0 Mg21 3.055521 1_545
Mg0 Mg26 3.055521 1_555
Mg0 Mg18 3.164986 1_555
Mg0 Mg7 3.164986 1_545
Mg1 Mg4 2.991750 1_555
Mg1 Mg14 2.991750 1_555
Mg1 Mg19 2.991750 1_555
Mg1 Mg15 2.991750 1_555
Mg1 Mg5 3.055521 1_555
Mg1 Mg22 3.055521 1_555
Mg1 Mg9 3.055521 1_555
Mg1 Mg28 3.055521 1_555
Mg1 Mg18 3.164995 1_555
Mg1 Mg7 3.164995 1_555
Mg2 Mg4 2.953626 1_655
Mg2 Mg32 2.991750 1_655
Mg2 Mg26 3.069991 1_555
Mg2 Mg30 3.069991 1_555
Mg3 Mg33 2.991741 1_555
Mg3 Mg31 3.069988 1_554
Mg3 Mg9 3.069994 1_554
Mg3 Mg6 3.196230 1_554
Mg4 Mg9 3.076513 1_555
Mg4 Mg7 3.196230 1_555
Mg5 Mg8 3.076513 1_555
Mg5 Mg9 3.398320 1_555
Mg10 Mg20 3.055521 1_555
Mg10 Mg32 3.055521 1_555
Mg10 Mg4 3.069988 1_555
Mg10 Mg16 3.069988 1_554
Mg10 Mg2 3.076510 1_455
Mg10 Mg11 3.076510 1_455
Mg10 Mg22 3.385029 1_555
Mg10 Mg25 3.398320 1_555
Mg11 Mg16 2.953626 1_654
Mg11 Mg8 2.953626 1_544
Mg11 Mg20 2.991750 1_655
Mg11 Mg33 2.991750 1_555
Mg11 Mg26 3.069991 1_554
Mg11 Mg30 3.069991 1_554
Mg11 Mg12 3.076510 1_545
Mg11 Mg6 3.196230 1_554
Mg12 Mg33 3.055521 1_565
Mg12 Mg19 3.069988 1_555
Mg12 Mg8 3.069988 1_554
Mg12 Mg2 3.076510 1_565
Mg12 Mg28 3.385029 1_555
Mg12 Mg21 3.398320 1_555
Mg13 Mg20 3.055521 1_656
Mg13 Mg32 3.055521 1_655
Mg13 Mg17 3.069988 1_556
Mg13 Mg15 3.069988 1_555
Mg13 Mg24 3.076510 1_655
Mg13 Mg27 3.076510 1_655
Mg13 Mg5 3.385029 1_555
Mg13 Mg30 3.398320 1_555
Mg14 Mg24 2.953626 1_545
Mg14 Mg4 2.953644 1_555
Mg14 Mg31 3.069988 1_555
Mg14 Mg9 3.069994 1_555
Mg14 Mg21 3.076507 1_545
Mg14 Mg22 3.076513 1_555
Mg14 Mg18 3.196230 1_555
Mg15 Mg24 2.953626 1_655
Mg15 Mg19 2.953644 1_555
Mg15 Mg32 2.991741 1_655
Mg15 Mg5 3.069994 1_555
Mg15 Mg25 3.076507 1_655
Mg15 Mg28 3.076513 1_555
Mg15 Mg18 3.196230 1_555
Mg16 Mg3 2.953644 1_556
Mg16 Mg20 2.991741 1_556
Mg16 Mg29 2.991750 1_556
Mg16 Mg22 3.069994 1_556
Mg16 Mg30 3.076507 1_455
Mg16 Mg9 3.076513 1_555
Mg16 Mg23 3.196230 1_556
Mg17 Mg27 2.953626 1_654
Mg17 Mg8 2.953644 1_554
Mg17 Mg20 2.991741 1_655
Mg17 Mg29 2.991750 1_555
Mg17 Mg5 3.069994 1_554
Mg17 Mg25 3.076507 1_655
Mg17 Mg28 3.076513 1_555
Mg17 Mg6 3.196230 1_554
Mg18 Mg6 2.939377 1_555
Mg18 Mg32 3.164986 1_655
Mg18 Mg2 3.196230 1_555
Mg19 Mg2 2.953626 1_565
Mg19 Mg28 3.069994 1_555
Mg19 Mg26 3.076507 1_565
Mg19 Mg5 3.076513 1_555
Mg19 Mg7 3.196230 1_555
Mg20 Mg27 2.991750 1_554
Mg20 Mg25 3.055521 1_555
Mg20 Mg30 3.055521 1_454
Mg20 Mg23 3.164986 1_555
Mg20 Mg6 3.164986 1_454
Mg21 Mg33 3.055521 1_565
Mg21 Mg24 3.069991 1_555
Mg21 Mg27 3.069991 1_554
Mg21 Mg3 3.076507 1_565
Mg21 Mg25 3.385029 1_555
Mg22 Mg29 3.055521 1_555
Mg22 Mg4 3.069994 1_555
Mg22 Mg3 3.076513 1_555
Mg22 Mg28 3.398320 1_555
Mg23 Mg7 2.939377 1_555
Mg23 Mg33 3.164986 1_565
Mg23 Mg29 3.164995 1_555
Mg23 Mg27 3.196230 1_554
Mg23 Mg8 3.196230 1_554
Mg24 Mg32 2.991750 1_555
Mg24 Mg25 3.069991 1_555
Mg24 Mg31 3.076510 1_565
Mg24 Mg7 3.196230 1_555
Mg25 Mg32 3.055521 1_555
Mg25 Mg27 3.069991 1_554
Mg26 Mg33 3.055521 1_556
Mg26 Mg8 3.076507 1_545
Mg26 Mg30 3.385029 1_555
Mg26 Mg31 3.398320 1_555
Mg27 Mg3 2.953626 1_566
Mg27 Mg33 2.991750 1_566
Mg27 Mg31 3.076510 1_565
Mg28 Mg29 3.055521 1_555
Mg28 Mg8 3.069994 1_554
Mg29 Mg3 2.991750 1_555
Mg29 Mg8 2.991750 1_554
Mg29 Mg5 3.055521 1_554
Mg29 Mg9 3.055521 1_554
Mg29 Mg6 3.164995 1_554
Mg30 Mg32 3.055521 1_655
Mg30 Mg4 3.076507 1_655
Mg31 Mg33 3.055521 1_556
Mg31 Mg9 3.385029 1_555
Mg32 Mg4 2.991741 1_555
Mg32 Mg7 3.164986 1_555
Mg33 Mg8 2.991741 1_544
Mg33 Mg6 3.164986 1_554
