# generated using pymatgen
data_CsPbCl3
_symmetry_space_group_name_H-M   'P 1'
_cell_length_a   5.67694364
_cell_length_b   5.67694364
_cell_length_c   5.67694296
_cell_angle_alpha   89.68499392
_cell_angle_beta   89.68499392
_cell_angle_gamma   89.68498377
_symmetry_Int_Tables_number   1
_chemical_formula_structural   CsPbCl3
_chemical_formula_sum   'Cs1 Pb1 Cl3'
_cell_volume   182.94648775
_cell_formula_units_Z   1
loop_
 _symmetry_equiv_pos_site_id
 _symmetry_equiv_pos_as_xyz
  1  'x, y, z'
loop_
 _atom_site_type_symbol
 _atom_site_label
 _atom_site_symmetry_multiplicity
 _atom_site_fract_x
 _atom_site_fract_y
 _atom_site_fract_z
 _atom_site_occupancy
  Cs  Cs0  1  0.50000000  0.50000000  0.50000000  1
  Pb  Pb0  1  -0.00000000  0.00000000  -0.00000000  1
  Cl  Cl0  1  0.98139970  0.50000000  0.01860030  1
  Cl  Cl1  1  0.50000000  0.01860030  0.98139970  1
  Cl  Cl2  1  0.01860030  0.98139970  0.50000000  1
loop_
_geom_bond_atom_site_label_1
_geom_bond_atom_site_label_2
_geom_bond_distance
_geom_bond_site_symmetry_2
Cl0 Pb0 2.842376 1_655
Cl0 Pb0 2.842376 1_665
Cl0 Cs0 3.854235 1_555
Cl0 Cs0 4.027979 1_554
Cl0 Cs0 4.027979 1_655
Cl0 Cs0 4.152075 1_654
Cl1 Pb0 2.842376 1_656
Cl1 Pb0 2.842376 1_556
Cl1 Cs0 3.854235 1_555
Cl1 Cs0 4.027979 1_556
Cl1 Cs0 4.027979 1_545
Cl1 Cs0 4.152075 1_546
Cl2 Pb0 2.842375 1_565
Cl2 Pb0 2.842375 1_566
Cl2 Cs0 3.854235 1_555
Cl2 Cs0 4.027979 1_565
Cl2 Cs0 4.027979 1_455
Cl2 Cs0 4.152075 1_465
