# generated using pymatgen
data_LiNi3P2
_symmetry_space_group_name_H-M   'P 1'
_cell_length_a   7.19974900
_cell_length_b   8.98882700
_cell_length_c   15.57716500
_cell_angle_alpha   89.99937839
_cell_angle_beta   90.00000000
_cell_angle_gamma   90.00000000
_symmetry_Int_Tables_number   1
_chemical_formula_structural   LiNi3P2
_chemical_formula_sum   'Li14 Ni42 P28'
_cell_volume   1008.11203248
_cell_formula_units_Z   14
loop_
 _symmetry_equiv_pos_site_id
 _symmetry_equiv_pos_as_xyz
  1  'x, y, z'
loop_
 _atom_site_type_symbol
 _atom_site_label
 _atom_site_symmetry_multiplicity
 _atom_site_fract_x
 _atom_site_fract_y
 _atom_site_fract_z
 _atom_site_occupancy
  Li  Li0  1  0.24357000  0.50008800  0.83408700  1
  Li  Li1  1  0.75643000  0.50008800  0.83408700  1
  Li  Li2  1  0.50000000  0.32941700  0.55160200  1
  Li  Li3  1  0.00000000  0.00842000  0.88791200  1
  Li  Li4  1  0.50000000  0.99882600  0.66853600  1
  Li  Li5  1  0.00000000  0.00025800  0.66379400  1
  Li  Li6  1  0.25352900  0.99858600  0.33411300  1
  Li  Li7  1  0.74647100  0.99858600  0.33411300  1
  Li  Li8  1  0.50000000  0.83230900  0.05006500  1
  Li  Li9  1  0.00000000  0.66069600  0.55737200  1
  Li  Li10  1  0.00000000  0.51021500  0.38860300  1
  Li  Li11  1  0.50000000  0.49871700  0.16769400  1
  Li  Li12  1  0.00000000  0.49958900  0.16706600  1
  Li  Li13  1  0.50000000  0.16373200  0.06033100  1
  Ni  Ni0  1  0.25828500  0.80179900  0.91760200  1
  Ni  Ni1  1  0.74171500  0.80179900  0.91760200  1
  Ni  Ni2  1  0.50000000  0.75650000  0.80496600  1
  Ni  Ni3  1  0.00000000  0.75857900  0.80455500  1
  Ni  Ni4  1  0.24603200  0.47527500  0.64095800  1
  Ni  Ni5  1  0.75396800  0.47527500  0.64095800  1
  Ni  Ni6  1  0.00000000  0.41526900  0.97491800  1
  Ni  Ni7  1  0.50000000  0.41138300  0.97811700  1
  Ni  Ni8  1  0.50000000  0.32573900  0.71924800  1
  Ni  Ni9  1  0.00000000  0.32782700  0.71531500  1
  Ni  Ni10  1  0.00000000  0.35221700  0.53849300  1
  Ni  Ni11  1  0.25554500  0.29943200  0.41893800  1
  Ni  Ni12  1  0.74445500  0.29943200  0.41893800  1
  Ni  Ni13  1  0.00000000  0.25891900  0.30703400  1
  Ni  Ni14  1  0.50000000  0.25390300  0.30610900  1
  Ni  Ni15  1  0.24287300  0.22358500  0.94142500  1
  Ni  Ni16  1  0.75712700  0.22358500  0.94142500  1
  Ni  Ni17  1  0.25021900  0.15575000  0.78575900  1
  Ni  Ni18  1  0.74978100  0.15575000  0.78575900  1
  Ni  Ni19  1  0.25126400  0.09832800  0.52967100  1
  Ni  Ni20  1  0.74873600  0.09832800  0.52967100  1
  Ni  Ni21  1  0.50000000  0.01924400  0.90411600  1
  Ni  Ni22  1  0.24703500  0.97764400  0.14192800  1
  Ni  Ni23  1  0.75296500  0.97764400  0.14192800  1
  Ni  Ni24  1  0.50000000  0.90753200  0.47684000  1
  Ni  Ni25  1  0.00000000  0.91482300  0.47749500  1
  Ni  Ni26  1  0.50000000  0.82697600  0.21625200  1
  Ni  Ni27  1  0.00000000  0.82775900  0.21731400  1
  Ni  Ni28  1  0.00000000  0.83901600  0.04071200  1
  Ni  Ni29  1  0.25381900  0.74279400  0.68496600  1
  Ni  Ni30  1  0.74618100  0.74279400  0.68496600  1
  Ni  Ni31  1  0.25098600  0.72449300  0.43937500  1
  Ni  Ni32  1  0.74901400  0.72449300  0.43937500  1
  Ni  Ni33  1  0.25028000  0.65522800  0.28410300  1
  Ni  Ni34  1  0.74972000  0.65522800  0.28410300  1
  Ni  Ni35  1  0.50000000  0.64632600  0.56183700  1
  Ni  Ni36  1  0.24654400  0.59997400  0.02855800  1
  Ni  Ni37  1  0.75345600  0.59997400  0.02855800  1
  Ni  Ni38  1  0.50000000  0.51339200  0.39237000  1
  Ni  Ni39  1  0.24919000  0.24408500  0.18655500  1
  Ni  Ni40  1  0.75081000  0.24408500  0.18655500  1
  Ni  Ni41  1  0.00000000  0.15444400  0.06285600  1
  P  P0  1  0.50000000  0.64325300  0.93669600  1
  P  P1  1  0.00000000  0.65555900  0.93810000  1
  P  P2  1  0.50000000  0.57865900  0.70409400  1
  P  P3  1  0.00000000  0.58263600  0.70832600  1
  P  P4  1  0.25745800  0.50272300  0.49928000  1
  P  P5  1  0.74254200  0.50272300  0.49928000  1
  P  P6  1  0.50000000  0.26431000  0.85823300  1
  P  P7  1  0.00000000  0.27315300  0.85302100  1
  P  P8  1  0.24969200  0.22551200  0.65009900  1
  P  P9  1  0.75030800  0.22551200  0.65009900  1
  P  P10  1  0.50000000  0.14167500  0.43744100  1
  P  P11  1  0.00000000  0.15554100  0.44078300  1
  P  P12  1  0.50000000  0.07870200  0.20749700  1
  P  P13  1  0.00000000  0.08528300  0.20725500  1
  P  P14  1  0.24336400  0.00091700  0.00158800  1
  P  P15  1  0.75663600  0.00091700  0.00158800  1
  P  P16  1  0.25258600  0.91080300  0.78826600  1
  P  P17  1  0.74741400  0.91080300  0.78826600  1
  P  P18  1  0.25179100  0.85969200  0.56113100  1
  P  P19  1  0.74820900  0.85969200  0.56113100  1
  P  P20  1  0.50000000  0.76395800  0.35346000  1
  P  P21  1  0.00000000  0.77280100  0.35582400  1
  P  P22  1  0.24737000  0.72747600  0.14885800  1
  P  P23  1  0.75263000  0.72747600  0.14885800  1
  P  P24  1  0.25324200  0.41072100  0.28960900  1
  P  P25  1  0.74675800  0.41072100  0.28960900  1
  P  P26  1  0.24566900  0.36131600  0.06200700  1
  P  P27  1  0.75433100  0.36131600  0.06200700  1
loop_
_geom_bond_atom_site_label_1
_geom_bond_atom_site_label_2
_geom_bond_distance
_geom_bond_site_symmetry_2
Li0 P7 2.706168 1_555
Li0 P3 2.731939 1_555
Li0 P0 2.760333 1_555
Li0 P1 2.766489 1_555
Li0 P2 2.829780 1_555
Li0 P6 2.835797 1_555
Li0 Ni6 2.910162 1_555
Li0 Ni3 2.947144 1_555
Li0 Ni9 2.982604 1_555
Li0 Ni2 2.987746 1_555
Li0 Ni15 2.995495 1_555
Li0 Ni0 3.009785 1_555
Li0 Ni8 3.010775 1_555
Li0 Ni7 3.012964 1_555
Li0 Ni4 3.016713 1_555
Li0 Ni36 3.159647 1_556
Li0 Ni17 3.185797 1_555
Li0 Ni29 3.187582 1_555
Li1 P7 2.706168 1_655
Li1 P3 2.731939 1_655
Li1 P0 2.760333 1_555
Li1 P1 2.766489 1_655
Li1 P2 2.829780 1_555
Li1 P6 2.835797 1_555
Li1 Ni6 2.910162 1_655
Li1 Ni3 2.947144 1_655
Li1 Ni9 2.982604 1_655
Li1 Ni2 2.987746 1_555
Li1 Ni16 2.995495 1_555
Li1 Ni1 3.009785 1_555
Li1 Ni8 3.010775 1_555
Li1 Ni7 3.012964 1_555
Li1 Ni5 3.016713 1_555
Li1 Ni37 3.159647 1_556
Li1 Ni18 3.185797 1_555
Li1 Ni30 3.187582 1_555
Li2 P10 2.451604 1_555
Li2 P5 2.477983 1_555
Li2 P4 2.477983 1_555
Li2 P9 2.544434 1_555
Li2 P8 2.544434 1_555
Li2 Ni8 2.611658 1_555
Li2 Ni4 2.645725 1_555
Li2 Ni5 2.645725 1_555
Li2 Ni12 2.727793 1_555
Li2 Ni11 2.727793 1_555
Li2 Ni20 2.763812 1_555
Li2 Ni19 2.763812 1_555
Li2 Ni35 2.853100 1_555
Li2 Ni38 2.981107 1_555
Li3 P7 2.440912 1_555
Li3 P14 2.492020 1_556
Li3 P15 2.492020 1_456
Li3 P16 2.546850 1_545
Li3 P17 2.546850 1_445
Li3 Ni3 2.594146 1_545
Li3 Ni0 2.668601 1_545
Li3 Ni1 2.668601 1_445
Li3 Ni15 2.737380 1_555
Li3 Ni16 2.737380 1_455
Li3 Ni17 2.744327 1_555
Li3 Ni18 2.744327 1_455
Li3 Ni28 2.825593 1_546
Li3 Ni41 3.024781 1_556
Li4 P17 2.697689 1_555
Li4 P16 2.697689 1_555
Li4 P9 2.735363 1_565
Li4 P8 2.735363 1_565
Li4 P19 2.748971 1_555
Li4 P18 2.748971 1_555
Li4 Ni30 2.916094 1_555
Li4 Ni29 2.916094 1_555
Li4 Ni18 2.925428 1_565
Li4 Ni17 2.925428 1_565
Li4 Ni20 2.947222 1_565
Li4 Ni19 2.947222 1_565
Li4 Ni8 3.042898 1_565
Li4 Ni2 3.043191 1_555
Li4 Ni24 3.096798 1_555
Li5 P8 2.716061 1_555
Li5 P9 2.716061 1_455
Li5 P18 2.727697 1_545
Li5 P19 2.727697 1_445
Li5 P16 2.777246 1_545
Li5 P17 2.777246 1_445
Li5 Ni19 2.900805 1_555
Li5 Ni20 2.900805 1_455
Li5 Ni29 2.967195 1_545
Li5 Ni30 2.967195 1_445
Li5 Ni17 2.967920 1_555
Li5 Ni18 2.967920 1_455
Li5 Ni25 3.001912 1_545
Li5 Ni9 3.051883 1_555
Li5 Ni3 3.086586 1_545
Li6 P10 2.719189 1_565
Li6 P12 2.749105 1_565
Li6 P21 2.750507 1_555
Li6 P20 2.772684 1_555
Li6 P13 2.800730 1_565
Li6 P11 2.843128 1_565
Li6 Ni14 2.933641 1_565
Li6 Ni31 2.959560 1_555
Li6 Ni24 2.960032 1_555
Li6 Ni25 2.981142 1_555
Li6 Ni26 2.983156 1_555
Li6 Ni13 2.997633 1_565
Li6 Ni22 2.999976 1_555
Li6 Ni27 3.000003 1_555
Li6 Ni11 3.009849 1_565
Li7 P10 2.719189 1_565
Li7 P12 2.749105 1_565
Li7 P21 2.750507 1_655
Li7 P20 2.772684 1_555
Li7 P13 2.800730 1_665
Li7 P11 2.843128 1_665
Li7 Ni14 2.933641 1_565
Li7 Ni32 2.959560 1_555
Li7 Ni24 2.960032 1_555
Li7 Ni25 2.981142 1_655
Li7 Ni26 2.983156 1_555
Li7 Ni13 2.997633 1_665
Li7 Ni23 2.999976 1_555
Li7 Ni27 3.000003 1_655
Li7 Ni12 3.009849 1_565
Li8 P0 2.450845 1_554
Li8 P15 2.506244 1_565
Li8 P14 2.506244 1_565
Li8 P23 2.562129 1_555
Li8 P22 2.562129 1_555
Li8 Ni26 2.589166 1_555
Li8 Ni23 2.659217 1_555
Li8 Ni22 2.659217 1_555
Li8 Ni0 2.713197 1_554
Li8 Ni1 2.713197 1_554
Li8 Ni37 2.793513 1_555
Li8 Ni36 2.793513 1_555
Li8 Ni21 2.827028 1_564
Li9 P3 2.453885 1_555
Li9 P4 2.504240 1_555
Li9 P5 2.504240 1_455
Li9 P18 2.547427 1_555
Li9 P19 2.547427 1_455
Li9 Ni25 2.601184 1_555
Li9 Ni32 2.640582 1_455
Li9 Ni31 2.640582 1_555
Li9 Ni4 2.758792 1_555
Li9 Ni5 2.758792 1_455
Li9 Ni10 2.788419 1_555
Li9 Ni29 2.799018 1_555
Li9 Ni30 2.799018 1_455
Li10 P21 2.414932 1_555
Li10 P4 2.532347 1_555
Li10 P5 2.532347 1_455
Li10 P24 2.549925 1_555
Li10 P25 2.549925 1_455
Li10 Ni13 2.591709 1_555
Li10 Ni11 2.682948 1_555
Li10 Ni12 2.682948 1_455
Li10 Ni10 2.732859 1_555
Li10 Ni34 2.756061 1_455
Li10 Ni33 2.756061 1_555
Li10 Ni31 2.756955 1_555
Li10 Ni32 2.756955 1_455
Li11 P25 2.718171 1_555
Li11 P24 2.718171 1_555
Li11 P27 2.754771 1_555
Li11 P26 2.754771 1_555
Li11 P23 2.760913 1_555
Li11 P22 2.760913 1_555
Li11 Ni33 2.915466 1_555
Li11 Ni34 2.915466 1_555
Li11 Ni39 2.930172 1_555
Li11 Ni40 2.930172 1_555
Li11 Ni37 2.975859 1_555
Li11 Ni36 2.975859 1_555
Li11 Ni26 3.046079 1_555
Li11 Ni7 3.055644 1_554
Li11 Ni14 3.080799 1_555
Li12 P26 2.711378 1_555
Li12 P27 2.711378 1_455
Li12 P23 2.729193 1_455
Li12 P22 2.729193 1_555
Li12 P24 2.757937 1_555
Li12 P25 2.757937 1_455
Li12 Ni34 2.920280 1_455
Li12 Ni33 2.920280 1_555
Li12 Ni40 2.930138 1_455
Li12 Ni39 2.930138 1_555
Li12 Ni36 2.935996 1_555
Li12 Ni37 2.935996 1_455
Li12 Ni27 3.051950 1_555
Li12 Ni13 3.071428 1_555
Li12 Ni6 3.087603 1_554
Li13 P12 2.416480 1_555
Li13 P14 2.528492 1_555
Li13 P15 2.528492 1_555
Li13 P26 2.551084 1_555
Li13 P27 2.551084 1_555
Li13 Ni7 2.568174 1_554
Li13 Ni16 2.673438 1_554
Li13 Ni15 2.673438 1_554
Li13 Ni21 2.758308 1_554
Li13 Ni39 2.765594 1_555
Li13 Ni40 2.765594 1_555
Li13 Ni23 2.780390 1_545
Li13 Ni22 2.780390 1_545
Ni0 P14 2.219609 1_566
Ni0 P16 2.240681 1_555
Ni0 P0 2.268940 1_555
Ni0 P1 2.299562 1_555
Ni0 Ni2 2.504568 1_555
Ni0 Ni36 2.507107 1_556
Ni0 Ni3 2.590359 1_555
Ni0 Ni21 2.625469 1_565
Ni0 Ni28 2.692134 1_556
Ni1 P15 2.219609 1_566
Ni1 P17 2.240681 1_555
Ni1 P0 2.268940 1_555
Ni1 P1 2.299562 1_655
Ni1 Ni2 2.504568 1_555
Ni1 Ni37 2.507107 1_556
Ni1 Ni3 2.590359 1_655
Ni1 Ni21 2.625469 1_565
Ni1 Ni28 2.692134 1_656
Ni2 P2 2.241540 1_555
Ni2 P17 2.272562 1_555
Ni2 P16 2.272562 1_555
Ni2 P0 2.290593 1_555
Ni3 P3 2.179033 1_555
Ni3 P1 2.277046 1_555
Ni3 P16 2.289936 1_555
Ni3 P17 2.289936 1_455
Ni4 P4 2.222211 1_555
Ni4 P8 2.249740 1_555
Ni4 P3 2.273837 1_555
Ni4 P2 2.274706 1_555
Ni4 Ni9 2.497188 1_555
Ni4 Ni8 2.576318 1_555
Ni5 P5 2.222211 1_555
Ni5 P9 2.249740 1_555
Ni5 P3 2.273837 1_655
Ni5 P2 2.274706 1_555
Ni5 Ni9 2.497188 1_655
Ni5 Ni8 2.576318 1_555
Ni6 P1 2.234765 1_555
Ni6 P26 2.281237 1_556
Ni6 P27 2.281237 1_456
Ni6 P7 2.288542 1_555
Ni7 P0 2.181819 1_555
Ni7 P6 2.288046 1_555
Ni7 P26 2.294160 1_556
Ni7 P27 2.294160 1_556
Ni8 P6 2.234292 1_555
Ni8 P9 2.284664 1_555
Ni8 P8 2.284664 1_555
Ni8 P2 2.285674 1_555
Ni9 P7 2.200642 1_555
Ni9 P8 2.260456 1_555
Ni9 P9 2.260456 1_455
Ni9 P3 2.293019 1_555
Ni10 P11 2.332831 1_555
Ni10 P4 2.374723 1_555
Ni10 P5 2.374723 1_455
Ni10 Ni5 2.628484 1_455
Ni10 Ni4 2.628484 1_555
Ni10 P8 2.747965 1_555
Ni10 P9 2.747965 1_455
Ni11 P4 2.214880 1_555
Ni11 P24 2.249328 1_555
Ni11 P11 2.274595 1_555
Ni11 P10 2.278505 1_555
Ni12 P5 2.214880 1_555
Ni12 P25 2.249328 1_555
Ni12 P11 2.274595 1_655
Ni12 P10 2.278505 1_555
Ni13 P13 2.202695 1_555
Ni13 P11 2.281258 1_555
Ni13 P24 2.293454 1_555
Ni13 P25 2.293454 1_455
Ni14 P12 2.199954 1_555
Ni14 P10 2.280975 1_555
Ni14 P25 2.282399 1_555
Ni14 P24 2.282399 1_555
Ni15 P14 2.210058 1_556
Ni15 P26 2.249735 1_556
Ni15 P7 2.269924 1_555
Ni15 P6 2.289207 1_555
Ni15 Ni17 2.500891 1_555
Ni15 Ni6 2.509718 1_555
Ni15 Ni7 2.569718 1_555
Ni15 Ni41 2.649884 1_556
Ni15 Ni21 2.671832 1_555
Ni16 P15 2.210058 1_556
Ni16 P27 2.249735 1_556
Ni16 P7 2.269924 1_655
Ni16 P6 2.289207 1_555
Ni16 Ni18 2.500891 1_555
Ni16 Ni6 2.509718 1_655
Ni16 Ni7 2.569718 1_555
Ni16 Ni41 2.649884 1_656
Ni16 Ni21 2.671832 1_555
Ni17 P16 2.202198 1_545
Ni17 P8 2.204273 1_555
Ni17 P7 2.336011 1_555
Ni17 P6 2.336850 1_555
Ni18 P17 2.202198 1_545
Ni18 P9 2.204273 1_555
Ni18 P7 2.336011 1_655
Ni18 P6 2.336850 1_555
Ni19 P8 2.196876 1_555
Ni19 P18 2.200323 1_545
Ni19 P10 2.328724 1_555
Ni19 P11 2.335437 1_555
Ni19 Ni25 2.579544 1_545
Ni20 P9 2.196876 1_555
Ni20 P19 2.200323 1_545
Ni20 P10 2.328724 1_555
Ni20 P11 2.335437 1_655
Ni20 Ni25 2.579544 1_645
Ni21 P6 2.315896 1_555
Ni21 P14 2.397192 1_556
Ni21 P15 2.397192 1_556
Ni21 P17 2.716601 1_545
Ni21 P16 2.716601 1_545
Ni22 P14 2.196243 1_565
Ni22 P22 2.251307 1_555
Ni22 P13 2.266072 1_565
Ni22 P12 2.277167 1_565
Ni22 Ni39 2.493895 1_565
Ni22 Ni27 2.521412 1_555
Ni22 Ni26 2.547872 1_555
Ni22 Ni28 2.683663 1_555
Ni22 Ni41 2.684419 1_565
Ni23 P15 2.196243 1_565
Ni23 P23 2.251307 1_555
Ni23 P13 2.266072 1_665
Ni23 P12 2.277167 1_565
Ni23 Ni40 2.493895 1_565
Ni23 Ni27 2.521412 1_655
Ni23 Ni26 2.547872 1_555
Ni23 Ni28 2.683663 1_655
Ni23 Ni41 2.684419 1_665
Ni24 P10 2.192321 1_565
Ni24 P19 2.258858 1_555
Ni24 P18 2.258858 1_555
Ni24 P20 2.315026 1_555
Ni24 Ni32 2.502381 1_555
Ni24 Ni31 2.502381 1_555
Ni25 P11 2.238061 1_565
Ni25 P21 2.285150 1_555
Ni25 P18 2.286755 1_555
Ni25 P19 2.286755 1_455
Ni25 Ni31 2.558317 1_555
Ni25 Ni32 2.558317 1_455
Ni26 P20 2.211097 1_555
Ni26 P12 2.266826 1_565
Ni26 P22 2.282618 1_555
Ni26 P23 2.282618 1_555
Ni27 P21 2.213420 1_555
Ni27 P22 2.263109 1_555
Ni27 P23 2.263109 1_455
Ni27 P13 2.320134 1_565
Ni28 P1 2.296598 1_554
Ni28 P15 2.357830 1_465
Ni28 P14 2.357830 1_565
Ni28 P23 2.648598 1_455
Ni28 P22 2.648598 1_555
Ni29 P18 2.196664 1_555
Ni29 P16 2.206834 1_555
Ni29 P2 2.325310 1_555
Ni29 P3 2.354666 1_555
Ni29 Ni4 2.501122 1_555
Ni30 P19 2.196664 1_555
Ni30 P17 2.206834 1_555
Ni30 P2 2.325310 1_555
Ni30 P3 2.354666 1_655
Ni30 Ni5 2.501122 1_555
Ni31 P4 2.201534 1_555
Ni31 P18 2.252583 1_555
Ni31 P20 2.265211 1_555
Ni31 P21 2.268875 1_555
Ni31 Ni33 2.497559 1_555
Ni31 Ni35 2.710518 1_555
Ni31 Ni38 2.711295 1_555
Ni32 P5 2.201534 1_555
Ni32 P19 2.252583 1_555
Ni32 P20 2.265211 1_555
Ni32 P21 2.268875 1_655
Ni32 Ni34 2.497559 1_555
Ni32 Ni35 2.710518 1_555
Ni32 Ni38 2.711295 1_555
Ni33 P24 2.199606 1_555
Ni33 P22 2.204652 1_555
Ni33 P20 2.314087 1_555
Ni33 P21 2.368995 1_555
Ni34 P25 2.199606 1_555
Ni34 P23 2.204652 1_555
Ni34 P20 2.314087 1_555
Ni34 P21 2.368995 1_655
Ni35 P2 2.297916 1_555
Ni35 P5 2.380165 1_555
Ni35 P4 2.380165 1_555
Ni35 P19 2.621454 1_555
Ni35 P18 2.621454 1_555
Ni35 Ni4 2.688207 1_555
Ni35 Ni5 2.688207 1_555
Ni36 P22 2.196642 1_555
Ni36 P26 2.207628 1_555
Ni36 P1 2.320766 1_554
Ni36 P0 2.351364 1_554
Ni37 P23 2.196642 1_555
Ni37 P27 2.207628 1_555
Ni37 P1 2.320766 1_654
Ni37 P0 2.351364 1_554
Ni38 P20 2.332417 1_555
Ni38 P5 2.414945 1_555
Ni38 P4 2.414945 1_555
Ni38 P25 2.563274 1_555
Ni38 P24 2.563274 1_555
Ni39 P24 2.195780 1_555
Ni39 P26 2.207948 1_555
Ni39 P13 2.315248 1_555
Ni39 P12 2.361607 1_555
Ni40 P25 2.195780 1_555
Ni40 P27 2.207948 1_555
Ni40 P13 2.315248 1_655
Ni40 P12 2.361607 1_555
Ni41 P13 2.333650 1_555
Ni41 P14 2.425987 1_555
Ni41 P15 2.425987 1_455
Ni41 P26 2.566427 1_555
Ni41 P27 2.566427 1_455
