# generated using pymatgen
data_Ce14Si11Ni6
_symmetry_space_group_name_H-M   'P 1'
_cell_length_a   4.14532231
_cell_length_b   16.98707181
_cell_length_c   20.96836597
_cell_angle_alpha   113.30202064
_cell_angle_beta   89.99668267
_cell_angle_gamma   97.00789778
_symmetry_Int_Tables_number   1
_chemical_formula_structural   Ce14Si11Ni6
_chemical_formula_sum   'Ce28 Si22 Ni12'
_cell_volume   1344.07620692
_cell_formula_units_Z   2
loop_
 _symmetry_equiv_pos_site_id
 _symmetry_equiv_pos_as_xyz
  1  'x, y, z'
loop_
 _atom_site_type_symbol
 _atom_site_label
 _atom_site_symmetry_multiplicity
 _atom_site_fract_x
 _atom_site_fract_y
 _atom_site_fract_z
 _atom_site_occupancy
  Ce  Ce0  1  0.28596112  0.57751518  0.57547674  1
  Ce  Ce1  1  0.71436807  0.42746906  0.62489524  1
  Ce  Ce2  1  0.28831278  0.57555002  0.97651697  1
  Ce  Ce3  1  0.89610458  0.78967410  0.22135230  1
  Ce  Ce4  1  0.89169387  0.78379326  0.03810592  1
  Ce  Ce5  1  0.50499208  0.00752556  0.68097373  1
  Ce  Ce6  1  0.29189767  0.58195424  0.17612224  1
  Ce  Ce7  1  0.10708889  0.21658948  0.96202729  1
  Ce  Ce8  1  0.38508068  0.76883158  0.35258944  1
  Ce  Ce9  1  0.49591812  0.99194698  0.31858803  1
  Ce  Ce10  1  0.28633741  0.57731335  0.77186375  1
  Ce  Ce11  1  0.60688961  0.21613505  0.28376710  1
  Ce  Ce12  1  0.88720400  0.77191930  0.85102173  1
  Ce  Ce13  1  0.60679593  0.21938450  0.46182130  1
  Ce  Ce14  1  0.70739518  0.42290279  0.22787607  1
  Ce  Ce15  1  0.11508391  0.22897299  0.14976737  1
  Ce  Ce16  1  0.61582265  0.23141709  0.64686638  1
  Ce  Ce17  1  0.39325131  0.78342859  0.71626137  1
  Ce  Ce18  1  0.71011472  0.41736256  0.82298311  1
  Ce  Ce19  1  0.50121808  0.00022764  0.49970367  1
  Ce  Ce20  1  0.99784727  0.99205758  0.81734202  1
  Ce  Ce21  1  0.39003138  0.78032971  0.53733961  1
  Ce  Ce22  1  0.00604030  0.00818498  0.18260976  1
  Ce  Ce23  1  0.70982787  0.42554606  0.02403863  1
  Ce  Ce24  1  0.10617106  0.21034151  0.77812133  1
  Ce  Ce25  1  0.70920251  0.42154688  0.42404188  1
  Ce  Ce26  1  0.28399580  0.57248393  0.37358347  1
  Ce  Ce27  1  0.00219756  0.00051483  0.00033678  1
  Si  Si0  1  0.56778002  0.13405198  0.84079105  1
  Si  Si1  1  0.18450527  0.37301695  0.50759820  1
  Si  Si2  1  0.57638249  0.15200342  0.03721944  1
  Si  Si3  1  0.80932007  0.62603835  0.49144159  1
  Si  Si4  1  0.92652366  0.85032985  0.46480548  1
  Si  Si5  1  0.07339964  0.15011803  0.53479647  1
  Si  Si6  1  0.04460950  0.08891906  0.62196577  1
  Si  Si7  1  0.54661054  0.08834808  0.12398997  1
  Si  Si8  1  0.81634672  0.63769935  0.69386468  1
  Si  Si9  1  0.42503795  0.84860707  0.96324607  1
  Si  Si10  1  0.45847140  0.91248944  0.87657698  1
  Si  Si11  1  0.80869178  0.61815228  0.89007894  1
  Si  Si12  1  0.18744399  0.37335794  0.70923207  1
  Si  Si13  1  0.18617052  0.37111662  0.90981769  1
  Si  Si14  1  0.43398613  0.86647988  0.15870466  1
  Si  Si15  1  0.95578765  0.91095770  0.37735801  1
  Si  Si16  1  0.18566041  0.38192543  0.10981143  1
  Si  Si17  1  0.93500570  0.86565938  0.65753512  1
  Si  Si18  1  0.06363176  0.13326849  0.34193914  1
  Si  Si19  1  0.81672050  0.62945763  0.09036042  1
  Si  Si20  1  0.17907359  0.36211163  0.30616023  1
  Si  Si21  1  0.81372036  0.62748926  0.28946632  1
  Ni  Ni0  1  0.85649157  0.71000952  0.61420416  1
  Ni  Ni1  1  0.34796826  0.69591143  0.91468598  1
  Ni  Ni2  1  0.97014932  0.93736964  0.58080841  1
  Ni  Ni3  1  0.47023372  0.93592594  0.08003200  1
  Ni  Ni4  1  0.64697613  0.30473306  0.08585206  1
  Ni  Ni5  1  0.03414695  0.06240416  0.41900954  1
  Ni  Ni6  1  0.64647190  0.29022021  0.88583977  1
  Ni  Ni7  1  0.35790053  0.71081486  0.11482464  1
  Ni  Ni8  1  0.53319933  0.06524394  0.92002426  1
  Ni  Ni9  1  0.14336660  0.28820380  0.38516687  1
  Ni  Ni10  1  0.15413632  0.30158828  0.58376575  1
  Ni  Ni11  1  0.84806132  0.69855555  0.41563357  1
loop_
_geom_bond_atom_site_label_1
_geom_bond_atom_site_label_2
_geom_bond_distance
_geom_bond_site_symmetry_2
Ce0 Ni0 2.902766 1_455
Ce0 Ni0 2.928104 1_555
Ce0 Si3 3.033699 1_555
Ce0 Si3 3.038938 1_455
Ce0 Si8 3.078049 1_455
Ce0 Si8 3.079892 1_555
Ce0 Si1 3.162593 1_555
Ce1 Ni10 2.835317 1_555
Ce1 Ni10 2.851589 1_655
Ce1 Si1 3.056532 1_655
Ce1 Si1 3.071522 1_555
Ce1 Si12 3.088505 1_555
Ce1 Si12 3.089364 1_655
Ce1 Si8 3.251044 1_555
Ce2 Ni1 2.810013 1_555
Ce2 Ni7 2.887859 1_556
Ce2 Si19 3.010873 1_456
Ce2 Si19 3.019359 1_556
Ce2 Si11 3.019660 1_555
Ce2 Si11 3.025039 1_455
Ce2 Si13 3.161304 1_555
Ce3 Ni7 2.943709 1_555
Ce3 Ni7 2.950658 1_655
Ce3 Si19 2.987822 1_555
Ce3 Si14 3.007513 1_655
Ce3 Si14 3.010581 1_555
Ce3 Si15 3.090348 1_555
Ce3 Si21 3.553903 1_555
Ce4 Si9 3.050495 1_554
Ce4 Si9 3.055658 1_654
Ce4 Si14 3.131627 1_555
Ce4 Ni3 3.131744 1_555
Ce4 Si14 3.137038 1_655
Ce4 Ni3 3.145381 1_655
Ce4 Ni7 3.151011 1_555
Ce4 Ni7 3.165788 1_655
Ce4 Ni1 3.182634 1_554
Ce4 Ni1 3.183585 1_654
Ce4 Si19 3.200671 1_555
Ce4 Si11 3.244067 1_554
Ce5 Ni2 2.850011 1_445
Ce5 Ni2 2.851239 1_545
Ce5 Si6 3.007445 1_655
Ce5 Si6 3.013689 1_555
Ce5 Si17 3.050495 1_445
Ce5 Si17 3.055759 1_545
Ce5 Si0 3.175287 1_555
Ce6 Ni7 2.932266 1_555
Ce6 Si21 3.010603 1_555
Ce6 Si21 3.015793 1_455
Ce6 Si19 3.049799 1_455
Ce6 Si19 3.055696 1_555
Ce6 Si16 3.093552 1_555
Ce7 Si2 3.050982 1_456
Ce7 Si2 3.060017 1_556
Ce7 Ni8 3.124288 1_455
Ce7 Ni8 3.133986 1_555
Ce7 Si0 3.137211 1_455
Ce7 Si0 3.147719 1_555
Ce7 Ni6 3.150604 1_455
Ce7 Ni6 3.164469 1_555
Ce7 Ni4 3.177923 1_556
Ce7 Ni4 3.200260 1_456
Ce7 Si13 3.203106 1_555
Ce7 Si16 3.238519 1_556
Ce8 Ni11 2.943441 1_555
Ce8 Ni11 2.954310 1_455
Ce8 Si4 3.021733 1_455
Ce8 Si4 3.025878 1_555
Ce8 Si21 3.033207 1_555
Ce8 Si21 3.037239 1_455
Ce8 Si15 3.051205 1_555
Ce8 Si15 3.053143 1_455
Ce9 Ni5 2.845201 1_565
Ce9 Ni5 2.863454 1_665
Ce9 Si15 3.002309 1_455
Ce9 Si15 3.004476 1_555
Ce9 Si18 3.038538 1_665
Ce9 Si18 3.055095 1_565
Ce9 Si14 3.171944 1_555
Ce10 Ni1 2.862471 1_555
Ce10 Si8 3.054694 1_555
Ce10 Si8 3.055845 1_455
Ce10 Si11 3.085469 1_455
Ce10 Si11 3.096425 1_555
Ce10 Si12 3.154360 1_555
Ce11 Ni9 2.868028 1_555
Ce11 Ni9 2.870870 1_655
Ce11 Si18 3.010505 1_655
Ce11 Si18 3.020820 1_555
Ce11 Si20 3.104686 1_655
Ce11 Si20 3.109072 1_555
Ce11 Si7 3.180066 1_555
Ce12 Ni1 3.010479 1_655
Ce12 Si9 3.011925 1_655
Ce12 Si11 3.014033 1_555
Ce12 Si9 3.014631 1_555
Ce12 Ni1 3.017410 1_555
Ce12 Si10 3.028326 1_555
Ce12 Si10 3.033963 1_655
Ce12 Si8 3.168017 1_555
Ce13 Si5 3.066604 1_555
Ce13 Si5 3.073634 1_655
Ce13 Ni9 3.110557 1_555
Ce13 Ni9 3.122361 1_655
Ce13 Si18 3.132282 1_655
Ce13 Si18 3.133072 1_555
Ce13 Ni10 3.134159 1_555
Ce13 Si1 3.151076 1_555
Ce13 Si1 3.156043 1_655
Ce13 Ni10 3.168387 1_655
Ce13 Ni5 3.180179 1_555
Ce13 Ni5 3.211492 1_655
Ce14 Ni4 2.847577 1_555
Ce14 Si20 3.057137 1_555
Ce14 Si20 3.068889 1_655
Ce14 Si16 3.084902 1_655
Ce14 Si16 3.092035 1_555
Ce14 Si21 3.164714 1_555
Ce15 Ni4 2.997599 1_555
Ce15 Si16 3.012461 1_555
Ce15 Si2 3.017262 1_555
Ce15 Si2 3.018697 1_455
Ce15 Si7 3.026002 1_455
Ce15 Ni4 3.031822 1_455
Ce15 Si7 3.036359 1_555
Ce15 Si20 3.150432 1_555
Ce16 Ni10 2.939222 1_555
Ce16 Ni10 2.957940 1_655
Ce16 Si5 3.016353 1_655
Ce16 Si5 3.026641 1_555
Ce16 Si12 3.037608 1_555
Ce16 Si12 3.041417 1_655
Ce16 Si6 3.056212 1_555
Ce16 Si6 3.056346 1_655
Ce17 Ni0 2.880068 1_555
Ce17 Ni0 2.880560 1_455
Ce17 Si17 3.014056 1_455
Ce17 Si17 3.017614 1_555
Ce17 Si8 3.092626 1_555
Ce17 Si8 3.115054 1_455
Ce17 Si10 3.194443 1_555
Ce18 Ni6 2.929911 1_555
Ce18 Si12 3.018741 1_655
Ce18 Si12 3.022741 1_555
Ce18 Si13 3.055659 1_655
Ce18 Si13 3.060140 1_555
Ce18 Si11 3.105408 1_555
Ce19 Ni5 3.104911 1_555
Ce19 Si5 3.113620 1_655
Ce19 Ni5 3.114962 1_655
Ce19 Si4 3.120962 1_445
Ce19 Ni2 3.121108 1_445
Ce19 Si4 3.122280 1_545
Ce19 Ni2 3.123210 1_545
Ce19 Si5 3.128752 1_555
Ce19 Si6 3.167462 1_655
Ce19 Si15 3.170241 1_545
Ce19 Si6 3.172425 1_555
Ce19 Si15 3.174760 1_445
Ce20 Ni8 2.883718 1_665
Ce20 Ni8 2.890911 1_565
Ce20 Si10 2.993201 1_555
Ce20 Si10 2.995629 1_655
Ce20 Si0 3.051687 1_665
Ce20 Si0 3.057611 1_565
Ce20 Si17 3.174573 1_555
Ce21 Si4 3.067174 1_455
Ce21 Si4 3.075416 1_555
Ce21 Si17 3.128451 1_455
Ce21 Ni0 3.129578 1_455
Ce21 Ni0 3.138573 1_555
Ce21 Si17 3.141318 1_555
Ce21 Ni11 3.144135 1_555
Ce21 Ni11 3.150257 1_455
Ce21 Si3 3.151564 1_555
Ce21 Si3 3.171045 1_455
Ce21 Ni2 3.191513 1_455
Ce21 Ni2 3.200201 1_555
Ce22 Ni3 2.883188 1_445
Ce22 Ni3 2.884919 1_545
Ce22 Si7 2.991580 1_455
Ce22 Si7 2.994302 1_555
Ce22 Si14 3.046295 1_545
Ce22 Si14 3.053131 1_445
Ce22 Si18 3.161229 1_555
Ce23 Ni4 2.816655 1_555
Ce23 Ni6 2.886730 1_554
Ce23 Si13 3.010314 1_554
Ce23 Si16 3.014267 1_655
Ce23 Si16 3.027540 1_555
Ce23 Si13 3.030352 1_654
Ce23 Si19 3.153271 1_555
Ce24 Ni6 2.963080 1_455
Ce24 Ni6 2.965374 1_555
Ce24 Si13 3.001146 1_555
Ce24 Si0 3.003417 1_555
Ce24 Si0 3.004735 1_455
Ce24 Si6 3.093407 1_555
Ce24 Si12 3.578455 1_555
Ce25 Ni9 2.922310 1_555
Ce25 Ni9 2.927127 1_655
Ce25 Si1 3.028318 1_655
Ce25 Si1 3.030640 1_555
Ce25 Si20 3.070468 1_655
Ce25 Si20 3.072973 1_555
Ce25 Si3 3.162359 1_555
Ce26 Ni11 2.842468 1_455
Ce26 Ni11 2.848785 1_555
Ce26 Si3 3.068475 1_555
Ce26 Si3 3.076398 1_455
Ce26 Si21 3.087576 1_455
Ce26 Si21 3.099790 1_555
Ce26 Si20 3.253041 1_555
Ce27 Ni3 3.117498 1_445
Ce27 Ni3 3.119437 1_545
Ce27 Ni8 3.124752 1_554
Ce27 Ni8 3.132355 1_454
Ce27 Si2 3.133145 1_555
Ce27 Si9 3.138753 1_544
Ce27 Si2 3.141599 1_455
Ce27 Si9 3.145433 1_444
Ce27 Si7 3.184622 1_455
Ce27 Si10 3.187260 1_444
Ce27 Si7 3.187510 1_555
Ce27 Si10 3.188594 1_544
Si2 Si7 2.453314 1_555
Si5 Si6 2.430815 1_555
Si10 Si9 2.454166 1_555
Si15 Si4 2.429223 1_555
Ni0 Si3 2.392927 1_555
Ni0 Si17 2.410770 1_555
Ni0 Si8 2.428977 1_555
Ni1 Si9 2.361187 1_555
Ni1 Si11 2.394738 1_555
Ni1 Si11 2.397654 1_455
Ni2 Si4 2.285788 1_555
Ni2 Si6 2.348597 1_665
Ni2 Si17 2.366564 1_555
Ni3 Si9 2.300099 1_554
Ni3 Si7 2.359170 1_565
Ni3 Si14 2.373160 1_555
Ni4 Si2 2.361827 1_555
Ni4 Si16 2.391506 1_555
Ni4 Si16 2.392208 1_655
Ni5 Si5 2.284724 1_555
Ni5 Si15 2.346323 1_445
Ni5 Si18 2.361939 1_555
Ni6 Si0 2.417143 1_555
Ni6 Si13 2.418613 1_655
Ni6 Si13 2.423865 1_555
Ni7 Si14 2.410390 1_555
Ni7 Si19 2.423007 1_555
Ni7 Si19 2.426630 1_455
Ni8 Si2 2.305046 1_556
Ni8 Si10 2.364911 1_545
Ni8 Si0 2.375377 1_555
Ni9 Si1 2.389380 1_555
Ni9 Si18 2.399606 1_555
Ni9 Si20 2.437770 1_555
Ni10 Si5 2.342333 1_555
Ni10 Si1 2.352599 1_555
Ni10 Si12 2.418277 1_555
Ni11 Si4 2.346976 1_555
Ni11 Si3 2.360268 1_555
Ni11 Si21 2.430596 1_555
