# generated using pymatgen
data_Be2Ag
_symmetry_space_group_name_H-M   'P 1'
_cell_length_a   4.52048553
_cell_length_b   4.52048515
_cell_length_c   4.52048478
_cell_angle_alpha   60.00000271
_cell_angle_beta   60.00000547
_cell_angle_gamma   60.00000963
_symmetry_Int_Tables_number   1
_chemical_formula_structural   Be2Ag
_chemical_formula_sum   'Be4 Ag2'
_cell_volume   65.31910150
_cell_formula_units_Z   2
loop_
 _symmetry_equiv_pos_site_id
 _symmetry_equiv_pos_as_xyz
  1  'x, y, z'
loop_
 _atom_site_type_symbol
 _atom_site_label
 _atom_site_symmetry_multiplicity
 _atom_site_fract_x
 _atom_site_fract_y
 _atom_site_fract_z
 _atom_site_occupancy
  Be  Be0  1  0.50000000  0.00000000  0.50000000  1
  Be  Be1  1  -0.00000000  0.50000000  0.50000000  1
  Be  Be2  1  0.50000000  0.50000000  0.50000000  1
  Be  Be3  1  0.50000000  0.50000000  -0.00000000  1
  Ag  Ag0  1  0.12500000  0.12500000  0.12500000  1
  Ag  Ag1  1  0.87500000  0.87500000  0.87500000  1
loop_
_geom_bond_atom_site_label_1
_geom_bond_atom_site_label_2
_geom_bond_distance
_geom_bond_site_symmetry_2
Be0 Be3 2.260243 1_555
Be0 Be3 2.260243 1_546
Be0 Be2 2.260243 1_555
Be0 Be2 2.260243 1_545
Be0 Be1 2.260243 1_555
Be0 Be1 2.260243 1_645
Be1 Be3 2.260243 1_555
Be1 Be2 2.260243 1_455
Be1 Be3 2.260243 1_456
Be1 Be2 2.260243 1_555
Be2 Be3 2.260242 1_555
Be2 Be3 2.260242 1_556
Ag0 Be1 2.650369 1_554
Ag0 Be1 2.650369 1_555
Ag0 Be0 2.650369 1_554
Ag0 Be0 2.650369 1_555
Ag0 Be3 2.650369 1_555
Ag0 Be2 2.650369 1_554
Ag0 Be1 2.650369 1_545
Ag0 Be2 2.650370 1_545
Ag0 Be3 2.650370 1_545
Ag0 Be0 2.650370 1_455
Ag0 Be3 2.650370 1_455
Ag0 Be2 2.650370 1_455
Ag0 Ag1 2.768220 1_444
Ag0 Ag1 2.768220 1_445
Ag0 Ag1 2.768221 1_454
Ag0 Ag1 2.768221 1_544
Ag1 Be1 2.650369 1_655
Ag1 Be1 2.650369 1_656
Ag1 Be0 2.650369 1_566
Ag1 Be0 2.650369 1_565
Ag1 Be2 2.650369 1_556
Ag1 Be3 2.650369 1_556
Ag1 Be1 2.650369 1_665
Ag1 Be3 2.650370 1_566
Ag1 Be2 2.650370 1_565
Ag1 Be0 2.650370 1_665
Ag1 Be2 2.650370 1_655
Ag1 Be3 2.650370 1_656
