# generated using pymatgen
data_Sm3S4
_symmetry_space_group_name_H-M   'P 1'
_cell_length_a   8.55468901
_cell_length_b   8.55468901
_cell_length_c   8.55468901
_cell_angle_alpha   109.47122063
_cell_angle_beta   109.47122063
_cell_angle_gamma   109.47122063
_symmetry_Int_Tables_number   1
_chemical_formula_structural   Sm3S4
_chemical_formula_sum   'Sm6 S8'
_cell_volume   481.93757392
_cell_formula_units_Z   2
loop_
 _symmetry_equiv_pos_site_id
 _symmetry_equiv_pos_as_xyz
  1  'x, y, z'
loop_
 _atom_site_type_symbol
 _atom_site_label
 _atom_site_symmetry_multiplicity
 _atom_site_fract_x
 _atom_site_fract_y
 _atom_site_fract_z
 _atom_site_occupancy
  Sm  Sm0  1  0.25000000  0.12500000  0.87500000  1
  Sm  Sm1  1  0.62500000  0.75000000  0.37500000  1
  Sm  Sm2  1  0.75000000  0.37500000  0.62500000  1
  Sm  Sm3  1  0.87500000  0.25000000  0.12500000  1
  Sm  Sm4  1  0.12500000  0.87500000  0.25000000  1
  Sm  Sm5  1  0.37500000  0.62500000  0.75000000  1
  S  S0  1  0.00000000  0.93834900  0.50000000  1
  S  S1  1  0.00000000  0.43834900  0.50000000  1
  S  S2  1  0.50000000  0.00000000  0.93834900  1
  S  S3  1  0.43834900  0.50000000  0.00000000  1
  S  S4  1  0.50000000  0.00000000  0.43834900  1
  S  S5  1  0.56165100  0.56165100  0.56165100  1
  S  S6  1  0.06165100  0.06165100  0.06165100  1
  S  S7  1  0.93834900  0.50000000  0.00000000  1
loop_
_geom_bond_atom_site_label_1
_geom_bond_atom_site_label_2
_geom_bond_distance
_geom_bond_site_symmetry_2
S0 Sm1 2.673834 1_455
S0 Sm0 2.673834 1_565
S0 Sm4 2.673834 1_555
S1 Sm3 2.673834 1_455
S1 Sm2 2.673834 1_455
S1 Sm5 2.673834 1_555
S2 Sm0 2.673834 1_555
S2 Sm3 2.673834 1_556
S2 Sm5 2.673834 1_545
S3 Sm0 2.673834 1_554
S3 Sm5 2.673834 1_554
S3 Sm1 2.673834 1_555
S4 Sm4 2.673834 1_545
S4 Sm2 2.673834 1_555
S4 Sm1 2.673834 1_545
S5 Sm2 2.673834 1_555
S5 Sm1 2.673834 1_555
S5 Sm5 2.673834 1_555
S6 Sm4 2.673834 1_545
S6 Sm3 2.673834 1_455
S6 Sm0 2.673834 1_554
S7 Sm4 2.673834 1_655
S7 Sm2 2.673834 1_554
S7 Sm3 2.673834 1_555
