# generated using pymatgen
data_MnO2
_symmetry_space_group_name_H-M   'P 1'
_cell_length_a   2.85692487
_cell_length_b   8.88865391
_cell_length_c   6.97240585
_cell_angle_alpha   87.95775817
_cell_angle_beta   101.82871927
_cell_angle_gamma   89.99192439
_symmetry_Int_Tables_number   1
_chemical_formula_structural   MnO2
_chemical_formula_sum   'Mn6 O12'
_cell_volume   173.18380507
_cell_formula_units_Z   6
loop_
 _symmetry_equiv_pos_site_id
 _symmetry_equiv_pos_as_xyz
  1  'x, y, z'
loop_
 _atom_site_type_symbol
 _atom_site_label
 _atom_site_symmetry_multiplicity
 _atom_site_fract_x
 _atom_site_fract_y
 _atom_site_fract_z
 _atom_site_occupancy
  Mn  Mn0  1  0.34298813  0.26024942  0.68026836  1
  Mn  Mn1  1  0.34346528  0.75947429  0.68173574  1
  Mn  Mn2  1  0.65998789  0.24174788  0.31613516  1
  Mn  Mn3  1  0.66006027  0.74226316  0.31679547  1
  Mn  Mn4  1  0.00189299  0.00176274  0.99729192  1
  Mn  Mn5  1  0.00355582  0.50060520  0.99848541  1
  O  O0  1  0.56286545  0.09823790  0.11984895  1
  O  O1  1  0.56468156  0.59664708  0.12217777  1
  O  O2  1  0.44177187  0.40360271  0.87608446  1
  O  O3  1  0.44166265  0.90374802  0.87723607  1
  O  O4  1  0.10234862  0.34876620  0.19975649  1
  O  O5  1  0.10304945  0.84994840  0.20203161  1
  O  O6  1  0.90123814  0.15274533  0.79625630  1
  O  O7  1  0.90244572  0.65265019  0.79895652  1
  O  O8  1  0.22837109  0.14327891  0.45176482  1
  O  O9  1  0.22891333  0.64376333  0.45358659  1
  O  O10  1  0.77507484  0.35861153  0.54472537  1
  O  O11  1  0.77547491  0.85749569  0.54624600  1
loop_
_geom_bond_atom_site_label_1
_geom_bond_atom_site_label_2
_geom_bond_distance
_geom_bond_site_symmetry_2
Mn0 O6 1.877121 1_455
Mn0 O6 1.877890 1_555
Mn0 O2 1.879753 1_555
Mn0 O10 1.897654 1_555
Mn0 O10 1.897917 1_455
Mn0 O8 1.905477 1_555
Mn1 O7 1.877311 1_455
Mn1 O7 1.878575 1_555
Mn1 O3 1.883939 1_555
Mn1 O11 1.895919 1_555
Mn1 O11 1.896630 1_455
Mn1 O9 1.897024 1_555
Mn2 O4 1.875088 1_555
Mn2 O4 1.877825 1_655
Mn2 O0 1.883094 1_555
Mn2 O8 1.897436 1_555
Mn2 O8 1.899533 1_655
Mn2 O10 1.905428 1_555
Mn3 O5 1.873972 1_555
Mn3 O5 1.875931 1_655
Mn3 O1 1.888003 1_555
Mn3 O9 1.901542 1_555
Mn3 O11 1.902074 1_555
Mn3 O9 1.903158 1_655
Mn4 O3 1.876452 1_545
Mn4 O3 1.877375 1_445
Mn4 O0 1.877559 1_556
Mn4 O0 1.878852 1_456
Mn4 O6 1.883900 1_455
Mn4 O5 1.906768 1_546
Mn5 O1 1.878436 1_556
Mn5 O2 1.878650 1_555
Mn5 O2 1.881221 1_455
Mn5 O1 1.881529 1_456
Mn5 O7 1.883212 1_455
Mn5 O4 1.890262 1_556
