# generated using pymatgen
data_K2ZnCl4
_symmetry_space_group_name_H-M   'P 1'
_cell_length_a   7.15892310
_cell_length_b   8.87527911
_cell_length_c   12.57361805
_cell_angle_alpha   90.00000000
_cell_angle_beta   90.00000000
_cell_angle_gamma   90.00000000
_symmetry_Int_Tables_number   1
_chemical_formula_structural   K2ZnCl4
_chemical_formula_sum   'K8 Zn4 Cl16'
_cell_volume   798.89551048
_cell_formula_units_Z   4
loop_
 _symmetry_equiv_pos_site_id
 _symmetry_equiv_pos_as_xyz
  1  'x, y, z'
loop_
 _atom_site_type_symbol
 _atom_site_label
 _atom_site_symmetry_multiplicity
 _atom_site_fract_x
 _atom_site_fract_y
 _atom_site_fract_z
 _atom_site_occupancy
  K  K0  1  0.73975610  0.48271921  0.81949448  1
  K  K1  1  0.74273904  0.61788854  0.42873775  1
  K  K2  1  0.23975610  0.51728079  0.18050552  1
  K  K3  1  0.74273904  0.11788854  0.07126225  1
  K  K4  1  0.24273904  0.88211146  0.92873775  1
  K  K5  1  0.24273904  0.38211146  0.57126225  1
  K  K6  1  0.73975610  0.98271921  0.68050552  1
  K  K7  1  0.23975610  0.01728079  0.31949448  1
  Zn  Zn0  1  0.25678635  0.78385016  0.57544297  1
  Zn  Zn1  1  0.75678635  0.71614984  0.07544297  1
  Zn  Zn2  1  0.25678635  0.28385016  0.92455703  1
  Zn  Zn3  1  0.75678635  0.21614984  0.42455703  1
  Cl  Cl0  1  0.51193063  0.67368259  0.64874722  1
  Cl  Cl1  1  0.24565217  0.18300096  0.09115388  1
  Cl  Cl2  1  0.01193063  0.32631741  0.35125278  1
  Cl  Cl3  1  0.24565217  0.68300096  0.40884612  1
  Cl  Cl4  1  0.29028140  0.53447106  0.92598631  1
  Cl  Cl5  1  0.51193063  0.17368259  0.85125278  1
  Cl  Cl6  1  0.50685530  0.30836971  0.33711781  1
  Cl  Cl7  1  0.74565217  0.31699904  0.59115388  1
  Cl  Cl8  1  0.79028140  0.96552894  0.42598631  1
  Cl  Cl9  1  0.00685530  0.19163029  0.83711781  1
  Cl  Cl10  1  0.74565217  0.81699904  0.90884612  1
  Cl  Cl11  1  0.79028140  0.46552894  0.07401369  1
  Cl  Cl12  1  0.00685530  0.69163029  0.66288219  1
  Cl  Cl13  1  0.29028140  0.03447106  0.57401369  1
  Cl  Cl14  1  0.50685530  0.80836971  0.16288219  1
  Cl  Cl15  1  0.01193063  0.82631741  0.14874722  1
loop_
_geom_bond_atom_site_label_1
_geom_bond_atom_site_label_2
_geom_bond_distance
_geom_bond_site_symmetry_2
Cl0 Zn0 2.267570 1_555
Cl0 K0 3.184630 1_555
Cl0 K6 3.215967 1_555
Cl0 K1 3.260052 1_555
Cl0 K5 3.370397 1_555
Cl1 Zn2 2.279335 1_554
Cl1 K2 3.172702 1_555
Cl1 K7 3.226159 1_555
Cl1 K4 3.361889 1_544
Cl1 K3 3.613889 1_555
Cl1 K3 3.654968 1_455
Cl2 Zn3 2.267570 1_455
Cl2 K2 3.184630 1_555
Cl2 K7 3.215967 1_555
Cl2 K5 3.260052 1_555
Cl2 K1 3.370397 1_455
Cl3 Zn0 2.279335 1_555
Cl3 K7 3.172702 1_565
Cl3 K2 3.226159 1_555
Cl3 K5 3.361889 1_555
Cl3 K1 3.613889 1_555
Cl3 K1 3.654968 1_455
Cl4 Zn2 2.237290 1_555
Cl4 K4 3.104314 1_555
Cl4 K2 3.224215 1_556
Cl4 K0 3.515366 1_555
Cl5 Zn2 2.267570 1_555
Cl5 K6 3.184630 1_545
Cl5 K0 3.215967 1_555
Cl5 K3 3.260052 1_556
Cl5 K4 3.370397 1_545
Cl6 Zn3 2.253889 1_555
Cl6 K7 3.221776 1_555
Cl6 K2 3.312374 1_555
Cl6 K1 3.424190 1_555
Cl6 K5 3.559608 1_555
Cl7 Zn3 2.279335 1_555
Cl7 K6 3.172702 1_545
Cl7 K0 3.226159 1_555
Cl7 K1 3.361889 1_555
Cl7 K5 3.613889 1_655
Cl7 K5 3.654968 1_555
Cl8 Zn3 2.237290 1_565
Cl8 K1 3.104314 1_555
Cl8 K6 3.224215 1_555
Cl8 K7 3.515366 1_665
Cl9 Zn2 2.253889 1_555
Cl9 K0 3.221776 1_455
Cl9 K6 3.312374 1_445
Cl9 K4 3.424190 1_545
Cl9 K3 3.559608 1_456
Cl10 Zn1 2.279335 1_556
Cl10 K0 3.172702 1_555
Cl10 K6 3.226159 1_555
Cl10 K3 3.361889 1_566
Cl10 K4 3.613889 1_655
Cl10 K4 3.654968 1_555
Cl11 Zn1 2.237290 1_555
Cl11 K3 3.104314 1_555
Cl11 K0 3.224215 1_554
Cl11 K2 3.515366 1_655
Cl12 Zn0 2.253889 1_555
Cl12 K6 3.221776 1_455
Cl12 K0 3.312374 1_455
Cl12 K5 3.424190 1_555
Cl12 K1 3.559608 1_455
Cl13 Zn0 2.237290 1_545
Cl13 K5 3.104314 1_555
Cl13 K7 3.224215 1_555
Cl13 K6 3.515366 1_545
Cl14 Zn1 2.253889 1_555
Cl14 K2 3.221776 1_555
Cl14 K7 3.312374 1_565
Cl14 K3 3.424190 1_565
Cl14 K4 3.559608 1_554
Cl15 Zn1 2.267570 1_455
Cl15 K7 3.184630 1_565
Cl15 K2 3.215967 1_555
Cl15 K4 3.260052 1_554
Cl15 K3 3.370397 1_465
