# generated using pymatgen
data_Ca3Be2Si3(HO6)2
_symmetry_space_group_name_H-M   'P 1'
_cell_length_a   9.89928400
_cell_length_b   9.89928400
_cell_length_c   9.95995300
_cell_angle_alpha   90.00000000
_cell_angle_beta   90.00000000
_cell_angle_gamma   90.00000000
_symmetry_Int_Tables_number   1
_chemical_formula_structural   Ca3Be2Si3(HO6)2
_chemical_formula_sum   'Ca12 Be8 Si12 H8 O48'
_cell_volume   976.03379837
_cell_formula_units_Z   4
loop_
 _symmetry_equiv_pos_site_id
 _symmetry_equiv_pos_as_xyz
  1  'x, y, z'
loop_
 _atom_site_type_symbol
 _atom_site_label
 _atom_site_symmetry_multiplicity
 _atom_site_fract_x
 _atom_site_fract_y
 _atom_site_fract_z
 _atom_site_occupancy
  Ca  Ca0  1  0.20594400  0.81433700  0.99028100  1
  Ca  Ca1  1  0.79405600  0.18566300  0.99028100  1
  Ca  Ca2  1  0.31433700  0.29405600  0.49028100  1
  Ca  Ca3  1  0.68566300  0.70594400  0.49028100  1
  Ca  Ca4  1  0.29405600  0.68566300  0.50971900  1
  Ca  Ca5  1  0.70594400  0.31433700  0.50971900  1
  Ca  Ca6  1  0.18566300  0.20594400  0.00971900  1
  Ca  Ca7  1  0.81433700  0.79405600  0.00971900  1
  Ca  Ca8  1  0.50000000  0.00000000  0.99032600  1
  Ca  Ca9  1  0.50000000  0.00000000  0.49032600  1
  Ca  Ca10  1  0.00000000  0.50000000  0.50967400  1
  Ca  Ca11  1  0.00000000  0.50000000  0.00967400  1
  Be  Be0  1  0.48203100  0.78748700  0.72345900  1
  Be  Be1  1  0.51796900  0.21251300  0.72345900  1
  Be  Be2  1  0.28748700  0.01796900  0.22345900  1
  Be  Be3  1  0.71251300  0.98203100  0.22345900  1
  Be  Be4  1  0.01796900  0.71251300  0.77654100  1
  Be  Be5  1  0.98203100  0.28748700  0.77654100  1
  Be  Be6  1  0.21251300  0.48203100  0.27654100  1
  Be  Be7  1  0.78748700  0.51796900  0.27654100  1
  Si  Si0  1  0.48706800  0.78843000  0.22070400  1
  Si  Si1  1  0.51293200  0.21157000  0.22070400  1
  Si  Si2  1  0.28843000  0.01293200  0.72070400  1
  Si  Si3  1  0.71157000  0.98706800  0.72070400  1
  Si  Si4  1  0.01293200  0.71157000  0.27929600  1
  Si  Si5  1  0.98706800  0.28843000  0.27929600  1
  Si  Si6  1  0.21157000  0.48706800  0.77929600  1
  Si  Si7  1  0.78843000  0.51293200  0.77929600  1
  Si  Si8  1  0.00000000  0.00000000  0.23946800  1
  Si  Si9  1  0.50000000  0.50000000  0.73946800  1
  Si  Si10  1  0.50000000  0.50000000  0.26053200  1
  Si  Si11  1  0.00000000  0.00000000  0.76053200  1
  H  H0  1  0.70604100  0.50450800  0.07029600  1
  H  H1  1  0.29395900  0.49549200  0.07029600  1
  H  H2  1  0.00450800  0.79395900  0.57029600  1
  H  H3  1  0.99549200  0.20604100  0.57029600  1
  H  H4  1  0.79395900  0.99549200  0.42970400  1
  H  H5  1  0.20604100  0.00450800  0.42970400  1
  H  H6  1  0.49549200  0.70604100  0.92970400  1
  H  H7  1  0.50450800  0.29395900  0.92970400  1
  O  O0  1  0.64081500  0.12308600  0.16281300  1
  O  O1  1  0.35918500  0.87691400  0.16281300  1
  O  O2  1  0.62308600  0.85918500  0.66281300  1
  O  O3  1  0.37691400  0.14081500  0.66281300  1
  O  O4  1  0.85918500  0.37691400  0.33718700  1
  O  O5  1  0.14081500  0.62308600  0.33718700  1
  O  O6  1  0.87691400  0.64081500  0.83718700  1
  O  O7  1  0.12308600  0.35918500  0.83718700  1
  O  O8  1  0.62536200  0.85573300  0.15638300  1
  O  O9  1  0.37463800  0.14426700  0.15638300  1
  O  O10  1  0.35573300  0.87463800  0.65638300  1
  O  O11  1  0.64426700  0.12536200  0.65638300  1
  O  O12  1  0.87463800  0.64426700  0.34361700  1
  O  O13  1  0.12536200  0.35573300  0.34361700  1
  O  O14  1  0.14426700  0.62536200  0.84361700  1
  O  O15  1  0.85573300  0.37463800  0.84361700  1
  O  O16  1  0.86300100  0.98250100  0.14931300  1
  O  O17  1  0.13699900  0.01749900  0.14931300  1
  O  O18  1  0.48250100  0.63699900  0.64931300  1
  O  O19  1  0.51749900  0.36300100  0.64931300  1
  O  O20  1  0.63699900  0.51749900  0.35068700  1
  O  O21  1  0.36300100  0.48250100  0.35068700  1
  O  O22  1  0.01749900  0.86300100  0.85068700  1
  O  O23  1  0.98250100  0.13699900  0.85068700  1
  O  O24  1  0.52271300  0.36825200  0.15977500  1
  O  O25  1  0.47728700  0.63174800  0.15977500  1
  O  O26  1  0.86825200  0.97728700  0.65977500  1
  O  O27  1  0.13174800  0.02271300  0.65977500  1
  O  O28  1  0.97728700  0.13174800  0.34022500  1
  O  O29  1  0.02271300  0.86825200  0.34022500  1
  O  O30  1  0.63174800  0.52271300  0.84022500  1
  O  O31  1  0.36825200  0.47728700  0.84022500  1
  O  O32  1  0.78525600  0.54162100  0.11525100  1
  O  O33  1  0.21474400  0.45837900  0.11525100  1
  O  O34  1  0.04162100  0.71474400  0.61525100  1
  O  O35  1  0.95837900  0.28525600  0.61525100  1
  O  O36  1  0.71474400  0.95837900  0.38474900  1
  O  O37  1  0.28525600  0.04162100  0.38474900  1
  O  O38  1  0.45837900  0.78525600  0.88474900  1
  O  O39  1  0.54162100  0.21474400  0.88474900  1
  O  O40  1  0.01660800  0.71664900  0.11580900  1
  O  O41  1  0.98339200  0.28335100  0.11580900  1
  O  O42  1  0.21664900  0.48339200  0.61580900  1
  O  O43  1  0.78335100  0.51660800  0.61580900  1
  O  O44  1  0.48339200  0.78335100  0.38419100  1
  O  O45  1  0.51660800  0.21664900  0.38419100  1
  O  O46  1  0.28335100  0.01660800  0.88419100  1
  O  O47  1  0.71664900  0.98339200  0.88419100  1
loop_
_geom_bond_atom_site_label_1
_geom_bond_atom_site_label_2
_geom_bond_distance
_geom_bond_site_symmetry_2
Ca0 O1 2.374425 1_556
Ca0 O22 2.375947 1_555
Ca0 O46 2.390198 1_565
Ca0 O14 2.450756 1_555
Ca0 O40 2.451789 1_556
Ca0 O17 2.649429 1_566
Ca0 O38 2.726225 1_555
Ca1 O0 2.374425 1_556
Ca1 O23 2.375947 1_555
Ca1 O47 2.390198 1_545
Ca1 O15 2.450756 1_555
Ca1 O41 2.451789 1_556
Ca1 O16 2.649429 1_546
Ca1 O39 2.726225 1_555
Ca2 O3 2.374425 1_555
Ca2 O21 2.375947 1_555
Ca2 O45 2.390198 1_555
Ca2 O13 2.450756 1_555
Ca2 O42 2.451789 1_555
Ca2 O19 2.649429 1_555
Ca2 O37 2.726225 1_555
Ca3 O2 2.374425 1_555
Ca3 O20 2.375947 1_555
Ca3 O44 2.390198 1_555
Ca3 O12 2.450756 1_555
Ca3 O43 2.451789 1_555
Ca3 O18 2.649429 1_555
Ca3 O36 2.726225 1_555
Ca4 O5 2.374425 1_555
Ca4 O18 2.375947 1_555
Ca4 O42 2.390198 1_555
Ca4 O10 2.450756 1_555
Ca4 O44 2.451789 1_555
Ca4 O21 2.649429 1_555
Ca4 O34 2.726225 1_555
Ca5 O4 2.374425 1_555
Ca5 O19 2.375947 1_555
Ca5 O43 2.390198 1_555
Ca5 O11 2.450756 1_555
Ca5 O45 2.451789 1_555
Ca5 O20 2.649429 1_555
Ca5 O35 2.726225 1_555
Ca6 O7 2.374425 1_554
Ca6 O17 2.375947 1_555
Ca6 O41 2.390198 1_455
Ca6 O9 2.450756 1_555
Ca6 O46 2.451789 1_554
Ca6 O23 2.649429 1_454
Ca6 O33 2.726225 1_555
Ca7 O6 2.374425 1_554
Ca7 O16 2.375947 1_555
Ca7 O40 2.390198 1_655
Ca7 O8 2.450756 1_555
Ca7 O47 2.451789 1_554
Ca7 O22 2.649429 1_654
Ca7 O32 2.726225 1_555
Ca8 O47 2.396685 1_545
Ca8 O46 2.396685 1_555
Ca8 O39 2.407192 1_555
Ca8 O38 2.407192 1_545
Ca8 O8 2.512987 1_546
Ca8 O9 2.512987 1_556
Ca8 O0 2.525707 1_556
Ca8 O1 2.525707 1_546
Ca9 O45 2.396685 1_555
Ca9 O44 2.396685 1_545
Ca9 O36 2.407192 1_545
Ca9 O37 2.407192 1_555
Ca9 O11 2.512987 1_555
Ca9 O10 2.512987 1_545
Ca9 O2 2.525707 1_545
Ca9 O3 2.525707 1_555
Ca10 O42 2.396685 1_555
Ca10 O43 2.396685 1_455
Ca10 O34 2.407192 1_555
Ca10 O35 2.407192 1_455
Ca10 O12 2.512987 1_455
Ca10 O13 2.512987 1_555
Ca10 O5 2.525707 1_555
Ca10 O4 2.525707 1_455
Ca11 O40 2.396685 1_555
Ca11 O41 2.396685 1_455
Ca11 O33 2.407192 1_555
Ca11 O32 2.407192 1_455
Ca11 O14 2.512987 1_554
Ca11 O15 2.512987 1_454
Ca11 O7 2.525707 1_554
Ca11 O6 2.525707 1_454
Be0 O38 1.623564 1_555
Be0 O10 1.659452 1_555
Be0 O18 1.662729 1_555
Be0 O2 1.678805 1_555
Be1 O39 1.623564 1_555
Be1 O11 1.659452 1_555
Be1 O19 1.662729 1_555
Be1 O3 1.678805 1_555
Be2 O37 1.623564 1_555
Be2 O9 1.659452 1_555
Be2 O17 1.662729 1_555
Be2 O1 1.678805 1_545
Be3 O36 1.623564 1_555
Be3 O8 1.659452 1_555
Be3 O16 1.662729 1_555
Be3 O0 1.678805 1_565
Be4 O34 1.623564 1_555
Be4 O14 1.659452 1_555
Be4 O22 1.662729 1_555
Be4 O6 1.678805 1_455
Be5 O35 1.623564 1_555
Be5 O15 1.659452 1_555
Be5 O23 1.662729 1_555
Be5 O7 1.678805 1_655
Be6 O33 1.623564 1_555
Be6 O13 1.659452 1_555
Be6 O21 1.662729 1_555
Be6 O5 1.678805 1_555
Be7 O32 1.623564 1_555
Be7 O12 1.659452 1_555
Be7 O20 1.662729 1_555
Be7 O4 1.678805 1_555
H0 O32 0.974875 1_555
H1 O33 0.974875 1_555
H2 O34 0.974875 1_555
H3 O35 0.974875 1_555
H4 O36 0.974875 1_555
H5 O37 0.974875 1_555
H6 O38 0.974875 1_555
H7 O39 0.974875 1_555
O0 Si1 1.643879 1_555
O1 Si0 1.643879 1_555
O2 Si3 1.643879 1_555
O3 Si2 1.643879 1_555
O4 Si5 1.643879 1_555
O5 Si4 1.643879 1_555
O6 Si7 1.643879 1_555
O7 Si6 1.643879 1_555
O8 Si0 1.651816 1_555
O9 Si1 1.651816 1_555
O10 Si2 1.651816 1_565
O11 Si3 1.651816 1_545
O12 Si4 1.651816 1_655
O13 Si5 1.651816 1_455
O14 Si6 1.651816 1_555
O15 Si7 1.651816 1_555
O16 Si8 1.635714 1_665
O17 Si8 1.635714 1_555
O18 Si9 1.635714 1_555
O19 Si9 1.635714 1_555
O20 Si10 1.635714 1_555
O21 Si10 1.635714 1_555
O22 Si11 1.635714 1_565
O23 Si11 1.635714 1_655
O24 Si10 1.660904 1_555
O24 Si1 1.668342 1_555
O25 Si10 1.660904 1_555
O25 Si0 1.668342 1_555
O26 Si11 1.660904 1_665
O26 Si3 1.668342 1_555
O27 Si11 1.660904 1_555
O27 Si2 1.668342 1_555
O28 Si8 1.660904 1_655
O28 Si5 1.668342 1_555
O29 Si8 1.660904 1_565
O29 Si4 1.668342 1_555
O30 Si9 1.660904 1_555
O30 Si7 1.668342 1_555
O31 Si9 1.660904 1_555
O31 Si6 1.668342 1_555
O40 Si4 1.629505 1_555
O41 Si5 1.629505 1_555
O42 Si6 1.629505 1_555
O43 Si7 1.629505 1_555
O44 Si0 1.629505 1_555
O45 Si1 1.629505 1_555
O46 Si2 1.629505 1_555
O47 Si3 1.629505 1_555
