# generated using pymatgen
data_Mg2Al4Si5O18
_symmetry_space_group_name_H-M   'P 1'
_cell_length_a   9.44996100
_cell_length_b   9.83578512
_cell_length_c   9.90314469
_cell_angle_alpha   119.49771292
_cell_angle_beta   89.97593763
_cell_angle_gamma   90.05845626
_symmetry_Int_Tables_number   1
_chemical_formula_structural   Mg2Al4Si5O18
_chemical_formula_sum   'Mg4 Al8 Si10 O36'
_cell_volume   801.15865402
_cell_formula_units_Z   2
loop_
 _symmetry_equiv_pos_site_id
 _symmetry_equiv_pos_as_xyz
  1  'x, y, z'
loop_
 _atom_site_type_symbol
 _atom_site_label
 _atom_site_symmetry_multiplicity
 _atom_site_fract_x
 _atom_site_fract_y
 _atom_site_fract_z
 _atom_site_occupancy
  Mg  Mg0  1  0.75249000  0.33055700  0.66251900  1
  Mg  Mg1  1  0.24758000  0.33201800  0.66565100  1
  Mg  Mg2  1  0.75166400  0.66728400  0.32900400  1
  Mg  Mg3  1  0.24751600  0.66586900  0.32449700  1
  Al  Al0  1  0.24938600  0.50296200  0.00256700  1
  Al  Al1  1  0.24865300  0.49885100  0.49749000  1
  Al  Al2  1  0.75169600  0.49830900  0.49702200  1
  Al  Al3  1  0.74907700  0.99837300  0.49596900  1
  Al  Al4  1  0.25080400  0.99861800  0.49696900  1
  Al  Al5  1  0.00125100  0.36366800  0.10314800  1
  Al  Al6  1  0.99994400  0.88767100  0.26324800  1
  Al  Al7  1  0.49927300  0.74175700  0.10449200  1
  Si  Si0  1  0.50007800  0.26833700  0.89904600  1
  Si  Si1  1  0.99974800  0.10295100  0.72934800  1
  Si  Si2  1  0.99983600  0.62493900  0.89065700  1
  Si  Si3  1  0.50024100  0.62663800  0.73042500  1
  Si  Si4  1  0.50067100  0.11359800  0.37833000  1
  Si  Si5  1  0.99914700  0.73225400  0.62449600  1
  Si  Si6  1  0.99924500  0.26612800  0.37877700  1
  Si  Si7  1  0.50101400  0.89798100  0.63275600  1
  Si  Si8  1  0.50027400  0.37508300  0.26669600  1
  Si  Si9  1  0.75047700  0.50163800  0.00181200  1
  O  O0  1  0.99918600  0.21755900  0.91120100  1
  O  O1  1  0.50701900  0.08146200  0.77643500  1
  O  O2  1  0.64818600  0.35189300  0.87576900  1
  O  O3  1  0.36209300  0.34757700  0.86397900  1
  O  O4  1  0.85050900  0.51524500  0.86789700  1
  O  O5  1  0.13803900  0.50876100  0.85619000  1
  O  O6  1  0.85733400  0.13483200  0.65054700  1
  O  O7  1  0.14211300  0.13433200  0.65066300  1
  O  O8  1  0.50065900  0.69326100  0.91175800  1
  O  O9  1  0.99310900  0.68464400  0.76252400  1
  O  O10  1  0.64000200  0.14573000  0.49216600  1
  O  O11  1  0.35951300  0.14401300  0.48890700  1
  O  O12  1  0.35944600  0.51552700  0.64877800  1
  O  O13  1  0.64106000  0.51492900  0.64882500  1
  O  O14  1  0.86007800  0.35124000  0.49448800  1
  O  O15  1  0.14055700  0.34960100  0.49065900  1
  O  O16  1  0.50100400  0.77164200  0.69304100  1
  O  O17  1  0.99874800  0.08350400  0.31683200  1
  O  O18  1  0.99900400  0.91927700  0.69058100  1
  O  O19  1  0.50141700  0.23497800  0.30957300  1
  O  O20  1  0.85755800  0.65475500  0.51538500  1
  O  O21  1  0.14271000  0.65614400  0.51976400  1
  O  O22  1  0.64289800  0.48360100  0.34313600  1
  O  O23  1  0.35875500  0.48300100  0.34491900  1
  O  O24  1  0.64015200  0.86656200  0.52306400  1
  O  O25  1  0.35969700  0.86999800  0.52760300  1
  O  O26  1  0.99307400  0.31311300  0.24582700  1
  O  O27  1  0.50068000  0.30306500  0.07832400  1
  O  O28  1  0.84941300  0.85569100  0.34828600  1
  O  O29  1  0.14881400  0.85752800  0.35066200  1
  O  O30  1  0.84611100  0.47763200  0.12412800  1
  O  O31  1  0.14429800  0.48782400  0.13832800  1
  O  O32  1  0.65276700  0.64539700  0.12328000  1
  O  O33  1  0.35905600  0.64825600  0.13819000  1
  O  O34  1  0.50582500  0.93801400  0.23998900  1
  O  O35  1  0.99905100  0.76392600  0.06338000  1
loop_
_geom_bond_atom_site_label_1
_geom_bond_atom_site_label_2
_geom_bond_distance
_geom_bond_site_symmetry_2
Mg0 O14 2.043430 1_555
Mg0 O10 2.063552 1_555
Mg0 O6 2.116780 1_555
Mg0 O4 2.157377 1_555
Mg0 O13 2.159166 1_555
Mg0 O2 2.244484 1_555
Mg1 O15 2.086366 1_555
Mg1 O11 2.101664 1_555
Mg1 O5 2.103768 1_555
Mg1 O7 2.123205 1_555
Mg1 O12 2.167089 1_555
Mg1 O3 2.181165 1_555
Mg2 O28 1.992989 1_555
Mg2 O22 2.141299 1_555
Mg2 O32 2.153997 1_555
Mg2 O20 2.156199 1_555
Mg2 O30 2.160444 1_555
Mg2 O24 2.222301 1_555
Mg3 O29 2.003284 1_555
Mg3 O33 2.056484 1_555
Mg3 O31 2.058099 1_555
Mg3 O23 2.177920 1_555
Mg3 O21 2.215815 1_555
Mg3 O25 2.284986 1_555
Al0 O31 1.735413 1_555
Al0 O33 1.740180 1_555
Al0 O3 1.813913 1_554
Al0 O5 1.815097 1_554
Al1 O15 1.761319 1_555
Al1 O21 1.763915 1_555
Al1 O12 1.768259 1_555
Al1 O23 1.776745 1_555
Al2 O14 1.763337 1_555
Al2 O20 1.767232 1_555
Al2 O13 1.771106 1_555
Al2 O22 1.784472 1_555
Al3 O28 1.728529 1_555
Al3 O24 1.775381 1_555
Al3 O6 1.779486 1_565
Al3 O10 1.794822 1_565
Al4 O29 1.724062 1_555
Al4 O25 1.769813 1_555
Al4 O7 1.775996 1_565
Al4 O11 1.793375 1_565
Al5 O26 1.715064 1_455
Al5 O0 1.728809 1_454
Al5 O31 1.737247 1_555
Al5 O30 1.795200 1_455
Al6 O17 1.727810 1_565
Al6 O35 1.739760 1_555
Al6 O29 1.752439 1_655
Al6 O28 1.758019 1_555
Al7 O8 1.724572 1_554
Al7 O34 1.726163 1_555
Al7 O33 1.735584 1_555
Al7 O32 1.792645 1_555
O0 Si1 1.585828 1_555
O1 Si0 1.630784 1_555
O1 Si7 1.660053 1_545
O2 Si9 1.688021 1_556
O2 Si0 1.694527 1_555
O3 Si0 1.642356 1_555
O4 Si9 1.686336 1_556
O4 Si2 1.721587 1_555
O5 Si2 1.657261 1_455
O6 Si1 1.661698 1_555
O7 Si1 1.657571 1_455
O8 Si3 1.579672 1_555
O9 Si2 1.641043 1_555
O9 Si5 1.649614 1_555
O10 Si4 1.659496 1_555
O11 Si4 1.656810 1_555
O12 Si3 1.657140 1_555
O13 Si3 1.660969 1_555
O14 Si6 1.673245 1_555
O15 Si6 1.669776 1_455
O16 Si7 1.622086 1_555
O16 Si3 1.640487 1_555
O17 Si6 1.586729 1_555
O18 Si5 1.620676 1_555
O18 Si1 1.651704 1_565
O19 Si8 1.629627 1_555
O19 Si4 1.639979 1_555
O20 Si5 1.651334 1_555
O21 Si5 1.647105 1_455
O22 Si8 1.652596 1_555
O23 Si8 1.645468 1_555
O24 Si7 1.635055 1_555
O25 Si7 1.631478 1_555
O26 Si6 1.596803 1_555
O27 Si0 1.634504 1_554
O27 Si8 1.637216 1_555
O30 Si9 1.619502 1_555
O32 Si9 1.620389 1_555
O34 Si4 1.591216 1_565
O35 Si2 1.578593 1_554
