# generated using pymatgen
data_KNaZr2Be(PO4)4
_symmetry_space_group_name_H-M   'P 1'
_cell_length_a   7.43695900
_cell_length_b   7.83992822
_cell_length_c   7.92842904
_cell_angle_alpha   107.63991163
_cell_angle_beta   114.93906494
_cell_angle_gamma   104.28924908
_symmetry_Int_Tables_number   1
_chemical_formula_structural   KNaZr2Be(PO4)4
_chemical_formula_sum   'K1 Na1 Zr2 Be1 P4 O16'
_cell_volume   359.97216453
_cell_formula_units_Z   1
loop_
 _symmetry_equiv_pos_site_id
 _symmetry_equiv_pos_as_xyz
  1  'x, y, z'
loop_
 _atom_site_type_symbol
 _atom_site_label
 _atom_site_symmetry_multiplicity
 _atom_site_fract_x
 _atom_site_fract_y
 _atom_site_fract_z
 _atom_site_occupancy
  K  K0  1  0.25326900  0.95316800  0.39791100  1
  Na  Na0  1  0.96150900  0.05788000  0.92752600  1
  Zr  Zr0  1  0.33614700  0.75756500  0.92474600  1
  Zr  Zr1  1  0.42031900  0.53892700  0.48017700  1
  Be  Be0  1  0.88847600  0.54805600  0.23776200  1
  P  P0  1  0.63553300  0.41462600  0.77919300  1
  P  P1  1  0.72048500  0.79075000  0.41621500  1
  P  P2  1  0.86949900  0.25299900  0.61292800  1
  P  P3  1  0.67431100  0.25043700  0.30524500  1
  O  O0  1  0.68942700  0.45045000  0.99536600  1
  O  O1  1  0.74200100  0.57839100  0.74075800  1
  O  O2  1  0.12689700  0.87351700  0.82291700  1
  O  O3  1  0.38577400  0.32981200  0.61795000  1
  O  O4  1  0.71405600  0.23833100  0.70934600  1
  O  O5  1  0.42326000  0.73733500  0.70945200  1
  O  O6  1  0.88127200  0.75707500  0.34911300  1
  O  O7  1  0.12591400  0.37016900  0.19615200  1
  O  O8  1  0.86420100  0.42436800  0.35429100  1
  O  O9  1  0.48406600  0.29605300  0.29900900  1
  O  O10  1  0.16273800  0.87889900  0.02634400  1
  O  O11  1  0.50861200  0.77014000  0.23225500  1
  O  O12  1  0.09136900  0.43036000  0.76319600  1
  O  O13  1  0.60910700  0.05725300  0.12364200  1
  O  O14  1  0.13188200  0.57115800  0.26064800  1
  O  O15  1  0.88887400  0.05138300  0.58516000  1
loop_
_geom_bond_atom_site_label_1
_geom_bond_atom_site_label_2
_geom_bond_distance
_geom_bond_site_symmetry_2
K0 O10 2.562255 1_555
K0 O3 2.593389 1_565
K0 O6 2.608488 1_455
K0 O14 2.613508 1_555
K0 O4 2.928340 1_565
K0 O11 3.113889 1_555
K0 O9 3.304885 1_565
K0 O5 3.393859 1_555
Na0 O7 2.278425 1_656
Na0 O2 2.302439 1_645
Na0 O10 2.352981 1_646
Na0 O15 2.515667 1_555
Na0 O4 2.909332 1_555
Be0 O8 1.556828 1_555
Be0 O0 1.618856 1_554
Be0 O6 1.635243 1_555
Be0 O14 1.698175 1_655
O0 P0 1.500135 1_555
O1 P0 1.518878 1_555
O1 Zr1 2.272985 1_555
O2 Zr0 1.995873 1_555
O3 P0 1.548936 1_555
O3 Zr1 2.249678 1_555
O4 P2 1.633060 1_555
O4 P0 1.662909 1_555
O5 Zr1 1.990077 1_555
O5 Zr0 2.043954 1_555
O6 P1 1.545894 1_555
O7 Zr1 2.054677 1_555
O8 P3 1.506619 1_555
O9 P3 1.527620 1_555
O9 Zr1 2.296921 1_555
O10 O2 1.504924 1_554
O10 Zr0 2.057695 1_554
O11 P1 1.558717 1_555
O11 Zr0 2.180315 1_554
O12 P2 1.510332 1_455
O12 Zr0 2.296121 1_555
O13 P3 1.526146 1_555
O13 Zr0 2.197363 1_544
O14 O7 1.484722 1_555
O14 Zr1 2.253942 1_555
O15 P2 1.579866 1_555
O15 P1 1.789177 1_545
