# generated using pymatgen
data_S
_symmetry_space_group_name_H-M   'P 1'
_cell_length_a   5.64087434
_cell_length_b   5.64087584
_cell_length_c   5.64087400
_cell_angle_alpha   59.99999907
_cell_angle_beta   59.99999027
_cell_angle_gamma   60.00000232
_symmetry_Int_Tables_number   1
_chemical_formula_structural   S
_chemical_formula_sum   S8
_cell_volume   126.91832736
_cell_formula_units_Z   8
loop_
 _symmetry_equiv_pos_site_id
 _symmetry_equiv_pos_as_xyz
  1  'x, y, z'
loop_
 _atom_site_type_symbol
 _atom_site_label
 _atom_site_symmetry_multiplicity
 _atom_site_fract_x
 _atom_site_fract_y
 _atom_site_fract_z
 _atom_site_occupancy
  S  S0_0  1  0.00000000  0.00000000  0.00000000  1
  S  S0_1  1  0.00000000  0.00000000  0.50000000  1
  S  S0_2  1  0.00000000  0.50000000  0.00000000  1
  S  S0_3  1  0.00000000  0.50000000  0.50000000  1
  S  S0_4  1  0.50000000  0.00000000  0.00000000  1
  S  S0_5  1  0.50000000  0.00000000  0.50000000  1
  S  S0_6  1  0.50000000  0.50000000  0.00000000  1
  S  S0_7  1  0.50000000  0.50000000  0.50000000  1
loop_
_geom_bond_atom_site_label_1
_geom_bond_atom_site_label_2
_geom_bond_distance
_geom_bond_site_symmetry_2
S0_0 S0_5 2.820437 1_455
S0_0 S0_5 2.820437 1_554
S0_0 S0_1 2.820437 1_554
S0_0 S0_1 2.820437 1_555
S0_0 S0_4 2.820437 1_455
S0_0 S0_4 2.820437 1_555
S0_0 S0_3 2.820437 1_554
S0_0 S0_3 2.820437 1_545
S0_0 S0_6 2.820438 1_545
S0_0 S0_6 2.820438 1_455
S0_0 S0_2 2.820438 1_545
S0_0 S0_2 2.820438 1_555
S0_1 S0_4 2.820437 1_456
S0_1 S0_4 2.820437 1_555
S0_1 S0_5 2.820437 1_455
S0_1 S0_5 2.820437 1_555
S0_1 S0_2 2.820437 1_555
S0_1 S0_2 2.820437 1_546
S0_1 S0_7 2.820438 1_545
S0_1 S0_7 2.820438 1_455
S0_1 S0_3 2.820438 1_545
S0_1 S0_3 2.820438 1_555
S0_2 S0_7 2.820437 1_554
S0_2 S0_7 2.820437 1_455
S0_2 S0_3 2.820437 1_555
S0_2 S0_3 2.820437 1_554
S0_2 S0_6 2.820437 1_555
S0_2 S0_6 2.820437 1_455
S0_2 S0_4 2.820438 1_465
S0_2 S0_4 2.820438 1_555
S0_3 S0_6 2.820437 1_555
S0_3 S0_6 2.820437 1_456
S0_3 S0_7 2.820437 1_555
S0_3 S0_7 2.820437 1_455
S0_3 S0_5 2.820438 1_465
S0_3 S0_5 2.820438 1_555
S0_4 S0_5 2.820437 1_555
S0_4 S0_5 2.820437 1_554
S0_4 S0_7 2.820437 1_554
S0_4 S0_7 2.820437 1_545
S0_4 S0_6 2.820438 1_555
S0_4 S0_6 2.820438 1_545
S0_5 S0_6 2.820437 1_555
S0_5 S0_6 2.820437 1_546
S0_5 S0_7 2.820438 1_555
S0_5 S0_7 2.820438 1_545
S0_6 S0_7 2.820437 1_555
S0_6 S0_7 2.820437 1_554
