# generated using pymatgen
data_Ba2ZnAg2(SeO)2
_symmetry_space_group_name_H-M   'P 1'
_cell_length_a   10.48561366
_cell_length_b   10.48561366
_cell_length_c   6.18205800
_cell_angle_alpha   90.00000000
_cell_angle_beta   90.00000000
_cell_angle_gamma   145.83933344
_symmetry_Int_Tables_number   1
_chemical_formula_structural   Ba2ZnAg2(SeO)2
_chemical_formula_sum   'Ba4 Zn2 Ag4 Se4 O4'
_cell_volume   381.66513968
_cell_formula_units_Z   2
loop_
 _symmetry_equiv_pos_site_id
 _symmetry_equiv_pos_as_xyz
  1  'x, y, z'
loop_
 _atom_site_type_symbol
 _atom_site_label
 _atom_site_symmetry_multiplicity
 _atom_site_fract_x
 _atom_site_fract_y
 _atom_site_fract_z
 _atom_site_occupancy
  Ba  Ba0  1  0.91145500  0.08854500  0.50000000  1
  Ba  Ba1  1  0.41145500  0.58854500  0.00000000  1
  Ba  Ba2  1  0.58854500  0.41145500  0.00000000  1
  Ba  Ba3  1  0.08854500  0.91145500  0.50000000  1
  Zn  Zn0  1  0.00000000  0.00000000  0.00000000  1
  Zn  Zn1  1  0.50000000  0.50000000  0.50000000  1
  Ag  Ag0  1  0.99798000  0.49798000  0.75000000  1
  Ag  Ag1  1  0.50202000  0.00202000  0.25000000  1
  Ag  Ag2  1  0.49798000  0.99798000  0.75000000  1
  Ag  Ag3  1  0.00202000  0.50202000  0.25000000  1
  Se  Se0  1  0.66336300  0.33663700  0.50000000  1
  Se  Se1  1  0.16336300  0.83663700  0.00000000  1
  Se  Se2  1  0.83663700  0.16336300  0.00000000  1
  Se  Se3  1  0.33663700  0.66336300  0.50000000  1
  O  O0  1  0.78667900  0.78667900  0.21659000  1
  O  O1  1  0.21332100  0.21332100  0.78341000  1
  O  O2  1  0.28667900  0.28667900  0.28341000  1
  O  O3  1  0.71332100  0.71332100  0.71659000  1
loop_
_geom_bond_atom_site_label_1
_geom_bond_atom_site_label_2
_geom_bond_distance
_geom_bond_site_symmetry_2
Ba0 O0 2.819005 1_545
Ba0 O1 2.819005 1_655
Ba0 O2 2.839280 1_655
Ba0 O3 2.839280 1_545
Ba0 Se3 3.425543 1_655
Ba0 Se3 3.425543 1_545
Ba0 Se2 3.435684 1_556
Ba0 Se2 3.435684 1_555
Ba1 O3 2.819005 1_554
Ba1 O2 2.819005 1_555
Ba1 O0 2.839280 1_555
Ba1 O1 2.839280 1_554
Ba1 Se2 3.425543 1_455
Ba1 Se2 3.425543 1_565
Ba1 Se3 3.435684 1_555
Ba1 Se3 3.435684 1_554
Ba2 O3 2.819005 1_554
Ba2 O2 2.819005 1_555
Ba2 O0 2.839280 1_555
Ba2 O1 2.839280 1_554
Ba2 Se1 3.425543 1_545
Ba2 Se1 3.425543 1_655
Ba2 Se0 3.435684 1_555
Ba2 Se0 3.435684 1_554
Ba3 O0 2.819005 1_455
Ba3 O1 2.819005 1_565
Ba3 O2 2.839280 1_565
Ba3 O3 2.839280 1_455
Ba3 Se0 3.425543 1_565
Ba3 Se0 3.425543 1_455
Ba3 Se1 3.435684 1_556
Ba3 Se1 3.435684 1_555
Ag0 Se0 2.781720 1_555
Ag0 Se2 2.781720 1_556
Ag0 Se3 2.795461 1_655
Ag0 Se1 2.795461 1_656
Ag1 Se0 2.781720 1_555
Ag1 Se2 2.781720 1_555
Ag1 Se3 2.795461 1_545
Ag1 Se1 2.795461 1_545
Ag2 Se3 2.781720 1_555
Ag2 Se1 2.781720 1_556
Ag2 Se0 2.795461 1_565
Ag2 Se2 2.795461 1_566
Ag3 Se3 2.781720 1_555
Ag3 Se1 2.781720 1_555
Ag3 Se0 2.795461 1_455
Ag3 Se2 2.795461 1_455
O0 Zn0 1.875984 1_665
O0 Zn1 2.487520 1_555
O1 Zn0 1.875984 1_556
O1 Zn1 2.487520 1_555
O2 Zn1 1.875984 1_555
O2 Zn0 2.487520 1_555
O3 Zn1 1.875984 1_555
O3 Zn0 2.487520 1_666
