# generated using pymatgen
data_NaCa3Fe4(SiO3)8
_symmetry_space_group_name_H-M   'P 1'
_cell_length_a   7.65577316
_cell_length_b   7.65577316
_cell_length_c   10.80381065
_cell_angle_alpha   66.37223009
_cell_angle_beta   66.37223009
_cell_angle_gamma   77.16840831
_symmetry_Int_Tables_number   1
_chemical_formula_structural   NaCa3Fe4(SiO3)8
_chemical_formula_sum   'Na1 Ca3 Fe4 Si8 O24'
_cell_volume   530.07686453
_cell_formula_units_Z   1
loop_
 _symmetry_equiv_pos_site_id
 _symmetry_equiv_pos_as_xyz
  1  'x, y, z'
loop_
 _atom_site_type_symbol
 _atom_site_label
 _atom_site_symmetry_multiplicity
 _atom_site_fract_x
 _atom_site_fract_y
 _atom_site_fract_z
 _atom_site_occupancy
  Na  Na0  1  0.65817800  0.34182200  0.50000000  1
  Ca  Ca0  1  0.12688200  0.87311800  0.00000000  1
  Ca  Ca1  1  0.36327700  0.13129200  0.26130000  1
  Ca  Ca2  1  0.86870800  0.63672300  0.73870000  1
  Fe  Fe0  1  0.73888400  0.26111600  0.00000000  1
  Fe  Fe1  1  0.76253900  0.72629200  0.26340600  1
  Fe  Fe2  1  0.29966600  0.70033400  0.50000000  1
  Fe  Fe3  1  0.27370800  0.23746100  0.73659400  1
  Si  Si0  1  0.62574500  0.84309800  0.50860600  1
  Si  Si1  1  0.33577300  0.62714000  0.75173200  1
  Si  Si2  1  0.11620700  0.34153800  0.00023600  1
  Si  Si3  1  0.15690200  0.37425500  0.49139400  1
  Si  Si4  1  0.83742600  0.12256900  0.25655300  1
  Si  Si5  1  0.87743100  0.16257300  0.74344700  1
  Si  Si6  1  0.65846200  0.88379300  0.99976400  1
  Si  Si7  1  0.37286000  0.66422700  0.24826800  1
  O  O0  1  0.91740200  0.95138400  0.18994800  1
  O  O1  1  0.45266300  0.91037300  0.44253900  1
  O  O2  1  0.52036900  0.76514100  0.69250800  1
  O  O3  1  0.75418600  0.34196900  0.79145500  1
  O  O4  1  0.41128200  0.47687700  0.66371900  1
  O  O5  1  0.65803100  0.24581400  0.20854500  1
  O  O6  1  0.25783600  0.52807500  0.93198300  1
  O  O7  1  0.23485900  0.47963100  0.30749200  1
  O  O8  1  0.83281300  0.75497600  0.05301900  1
  O  O9  1  0.94645100  0.42701700  0.93360600  1
  O  O10  1  0.75441700  0.66653100  0.46318800  1
  O  O11  1  0.02512300  0.26333400  0.18363600  1
  O  O12  1  0.96883100  0.23997500  0.55998400  1
  O  O13  1  0.25038600  0.83875500  0.30683900  1
  O  O14  1  0.04861600  0.08259800  0.81005200  1
  O  O15  1  0.16124500  0.74961400  0.69316100  1
  O  O16  1  0.76002500  0.03116900  0.44001600  1
  O  O17  1  0.73666600  0.97487700  0.81636400  1
  O  O18  1  0.33346900  0.24558300  0.53681200  1
  O  O19  1  0.57298300  0.05354900  0.06639400  1
  O  O20  1  0.24502400  0.16718700  0.94698100  1
  O  O21  1  0.47192500  0.74216400  0.06801700  1
  O  O22  1  0.52312300  0.58871800  0.33628100  1
  O  O23  1  0.08962700  0.54733700  0.55746100  1
loop_
_geom_bond_atom_site_label_1
_geom_bond_atom_site_label_2
_geom_bond_distance
_geom_bond_site_symmetry_2
Na0 O4 2.385034 1_555
Na0 O22 2.385034 1_555
Na0 O10 2.582026 1_555
Na0 O18 2.582026 1_555
Na0 O12 2.586685 1_555
Na0 O16 2.586685 1_555
Ca0 O0 2.250126 1_455
Ca0 O14 2.250126 1_564
Ca0 O8 2.381195 1_455
Ca0 O20 2.381195 1_564
Ca0 O6 2.883079 1_554
Ca0 O21 2.883079 1_555
Ca1 O1 2.251276 1_545
Ca1 O19 2.288261 1_555
Ca1 O5 2.373376 1_555
Ca1 O13 2.374967 1_545
Ca1 O7 2.799362 1_555
Ca1 O11 2.885630 1_555
Ca2 O23 2.251276 1_655
Ca2 O9 2.288261 1_555
Ca2 O3 2.373376 1_555
Ca2 O15 2.374967 1_655
Ca2 O2 2.799362 1_555
Ca2 O17 2.885630 1_555
Fe0 O19 1.976200 1_555
Fe0 O9 1.976200 1_554
Fe0 O3 2.043516 1_554
Fe0 O5 2.043516 1_555
Fe1 O10 1.996344 1_555
Fe1 O0 2.015458 1_555
Fe1 O22 2.030949 1_555
Fe1 O8 2.043587 1_555
Fe2 O1 1.948485 1_555
Fe2 O23 1.948485 1_555
Fe2 O15 2.073936 1_555
Fe2 O13 2.073936 1_555
Fe2 O4 2.218584 1_555
Fe2 O22 2.218584 1_555
Fe3 O18 1.996344 1_555
Fe3 O14 2.015458 1_555
Fe3 O4 2.030949 1_555
Fe3 O20 2.043587 1_555
O0 Si4 1.629908 1_565
O1 Si0 1.640396 1_555
O2 Si1 1.708593 1_555
O2 Si0 1.712623 1_555
O3 Si5 1.627478 1_555
O4 Si1 1.643942 1_555
O5 Si4 1.627472 1_555
O6 Si1 1.676087 1_555
O6 Si2 1.720928 1_556
O7 Si7 1.708593 1_555
O7 Si3 1.712623 1_555
O8 Si6 1.631369 1_554
O9 Si2 1.621722 1_656
O10 Si0 1.609713 1_555
O11 Si2 1.702267 1_555
O11 Si4 1.716606 1_455
O12 Si3 1.694285 1_655
O12 Si5 1.703060 1_555
O13 Si7 1.646372 1_555
O14 Si5 1.629908 1_455
O15 Si1 1.646372 1_555
O16 Si0 1.694285 1_545
O16 Si4 1.703061 1_555
O17 Si6 1.702267 1_555
O17 Si5 1.716600 1_565
O18 Si3 1.609713 1_555
O19 Si6 1.621722 1_544
O20 Si2 1.631369 1_556
O21 Si7 1.676087 1_555
O21 Si6 1.720928 1_554
O22 Si7 1.643942 1_555
O23 Si3 1.640396 1_555
