# generated using pymatgen
data_PbO
_symmetry_space_group_name_H-M   'P 1'
_cell_length_a   5.25637583
_cell_length_b   5.65284203
_cell_length_c   45.18858540
_cell_angle_alpha   90.00000000
_cell_angle_beta   90.00000000
_cell_angle_gamma   90.00000000
_symmetry_Int_Tables_number   1
_chemical_formula_structural   PbO
_chemical_formula_sum   'Pb32 O32'
_cell_volume   1342.70932494
_cell_formula_units_Z   32
loop_
 _symmetry_equiv_pos_site_id
 _symmetry_equiv_pos_as_xyz
  1  'x, y, z'
loop_
 _atom_site_type_symbol
 _atom_site_label
 _atom_site_symmetry_multiplicity
 _atom_site_fract_x
 _atom_site_fract_y
 _atom_site_fract_z
 _atom_site_occupancy
  Pb  Pb0  1  0.22617881  0.76599438  0.12501973  1
  Pb  Pb1  1  0.22614431  0.22961691  0.93750437  1
  Pb  Pb2  1  0.77382119  0.23400562  0.87498027  1
  Pb  Pb3  1  0.77387115  0.74389277  0.18748160  1
  Pb  Pb4  1  0.77372960  0.23055821  0.25000000  1
  Pb  Pb5  1  0.77385569  0.72961691  0.56249563  1
  Pb  Pb6  1  0.77385569  0.77038309  0.06249563  1
  Pb  Pb7  1  0.22612885  0.25610723  0.81251840  1
  Pb  Pb8  1  0.77372960  0.26944179  0.75000000  1
  Pb  Pb9  1  0.22627040  0.73055821  0.25000000  1
  Pb  Pb10  1  0.22627040  0.76944179  0.75000000  1
  Pb  Pb11  1  0.77387115  0.75610723  0.81251840  1
  Pb  Pb12  1  0.22614431  0.27038309  0.43750437  1
  Pb  Pb13  1  0.77382119  0.26599438  0.37498027  1
  Pb  Pb14  1  0.22617881  0.73400562  0.87498027  1
  Pb  Pb15  1  0.22617881  0.76599438  0.37498027  1
  Pb  Pb16  1  0.77400392  0.25000000  0.50000000  1
  Pb  Pb17  1  0.22617881  0.73400562  0.62501973  1
  Pb  Pb18  1  0.22599608  0.75000000  -0.00000000  1
  Pb  Pb19  1  0.22599608  0.75000000  0.50000000  1
  Pb  Pb20  1  0.22612885  0.25610723  0.68748160  1
  Pb  Pb21  1  0.77400392  0.25000000  -0.00000000  1
  Pb  Pb22  1  0.77385569  0.72961691  0.93750437  1
  Pb  Pb23  1  0.77385569  0.77038309  0.43750437  1
  Pb  Pb24  1  0.77387115  0.74389277  0.31251840  1
  Pb  Pb25  1  0.77382119  0.23400562  0.62501973  1
  Pb  Pb26  1  0.77382119  0.26599438  0.12501973  1
  Pb  Pb27  1  0.22614431  0.22961691  0.56249563  1
  Pb  Pb28  1  0.22612885  0.24389277  0.18748160  1
  Pb  Pb29  1  0.22614431  0.27038309  0.06249563  1
  Pb  Pb30  1  0.77387115  0.75610723  0.68748160  1
  Pb  Pb31  1  0.22612885  0.24389277  0.31251840  1
  O  O0  1  0.99771347  0.97634552  0.90623029  1
  O  O1  1  0.99322240  0.48251920  0.28127571  1
  O  O2  1  0.99322240  0.01748080  0.71872429  1
  O  O3  1  0.00677760  0.98251920  0.21872429  1
  O  O4  1  0.00677760  0.51748080  0.78127571  1
  O  O5  1  0.00228653  0.47634552  0.59376971  1
  O  O6  1  0.99322240  0.48251920  0.21872429  1
  O  O7  1  0.98906245  0.00670205  0.15627011  1
  O  O8  1  0.98987037  0.98646043  0.53122175  1
  O  O9  1  0.99322240  0.01748080  0.78127571  1
  O  O10  1  0.01012963  0.01353957  0.46877825  1
  O  O11  1  0.01012963  0.48646043  0.53122175  1
  O  O12  1  0.98906245  0.49329795  0.65627011  1
  O  O13  1  0.98987037  0.51353957  0.46877825  1
  O  O14  1  0.01012963  0.01353957  0.03122175  1
  O  O15  1  0.01093755  0.99329795  0.65627011  1
  O  O16  1  0.01012963  0.48646043  0.96877825  1
  O  O17  1  0.98906245  0.00670205  0.34372989  1
  O  O18  1  0.00228653  0.47634552  0.90623029  1
  O  O19  1  0.00677760  0.98251920  0.28127571  1
  O  O20  1  0.98987037  0.98646043  0.96877825  1
  O  O21  1  0.98906245  0.49329795  0.84372989  1
  O  O22  1  0.99771347  0.52365448  0.40623029  1
  O  O23  1  0.99771347  0.97634552  0.59376971  1
  O  O24  1  0.98987037  0.51353957  0.03122175  1
  O  O25  1  0.01093755  0.99329795  0.84372989  1
  O  O26  1  0.01093755  0.50670205  0.15627011  1
  O  O27  1  0.99771347  0.52365448  0.09376971  1
  O  O28  1  0.00228653  0.02365448  0.40623029  1
  O  O29  1  0.00228653  0.02365448  0.09376971  1
  O  O30  1  0.00677760  0.51748080  0.71872429  1
  O  O31  1  0.01093755  0.50670205  0.34372989  1
loop_
_geom_bond_atom_site_label_1
_geom_bond_atom_site_label_2
_geom_bond_distance
_geom_bond_site_symmetry_2
O0 Pb14 2.304986 1_655
O0 Pb22 2.308038 1_555
O0 Pb1 2.342802 1_665
O0 Pb2 2.345332 1_565
O1 Pb31 2.304684 1_655
O1 Pb4 2.314553 1_555
O1 Pb9 2.337516 1_655
O1 Pb24 2.346407 1_555
O2 Pb20 2.304684 1_655
O2 Pb8 2.314553 1_555
O2 Pb10 2.337516 1_645
O2 Pb30 2.346407 1_545
O3 Pb3 2.304684 1_455
O3 Pb9 2.314553 1_555
O3 Pb4 2.337516 1_465
O3 Pb28 2.346407 1_565
O4 Pb11 2.304684 1_455
O4 Pb10 2.314553 1_555
O4 Pb8 2.337516 1_455
O4 Pb7 2.346407 1_555
O5 Pb25 2.304986 1_455
O5 Pb27 2.308038 1_555
O5 Pb5 2.342802 1_455
O5 Pb17 2.345332 1_555
O6 Pb28 2.304684 1_655
O6 Pb4 2.314553 1_555
O6 Pb9 2.337516 1_655
O6 Pb3 2.346407 1_555
O7 Pb28 2.310796 1_655
O7 Pb0 2.323596 1_645
O7 Pb26 2.328654 1_555
O7 Pb3 2.340032 1_545
O8 Pb19 2.306021 1_655
O8 Pb5 2.322597 1_555
O8 Pb27 2.330009 1_665
O8 Pb16 2.344649 1_565
O9 Pb7 2.304684 1_655
O9 Pb8 2.314553 1_555
O9 Pb10 2.337516 1_645
O9 Pb11 2.346407 1_545
O10 Pb16 2.306021 1_455
O10 Pb12 2.322597 1_555
O10 Pb23 2.330009 1_445
O10 Pb19 2.344649 1_545
O11 Pb16 2.306021 1_455
O11 Pb27 2.322597 1_555
O11 Pb5 2.330009 1_455
O11 Pb19 2.344649 1_555
O12 Pb20 2.310796 1_655
O12 Pb17 2.323596 1_655
O12 Pb25 2.328654 1_555
O12 Pb30 2.340032 1_555
O13 Pb19 2.306021 1_655
O13 Pb23 2.322597 1_555
O13 Pb12 2.330009 1_655
O13 Pb16 2.344649 1_555
O14 Pb21 2.306021 1_455
O14 Pb29 2.322597 1_555
O14 Pb6 2.330009 1_445
O14 Pb18 2.344649 1_545
O15 Pb30 2.310796 1_455
O15 Pb25 2.323596 1_465
O15 Pb17 2.328654 1_555
O15 Pb20 2.340032 1_565
O16 Pb21 2.306021 1_456
O16 Pb1 2.322597 1_555
O16 Pb22 2.330009 1_455
O16 Pb18 2.344649 1_556
O17 Pb31 2.310796 1_655
O17 Pb15 2.323596 1_645
O17 Pb13 2.328654 1_555
O17 Pb24 2.340032 1_545
O18 Pb2 2.304986 1_455
O18 Pb1 2.308038 1_555
O18 Pb22 2.342802 1_455
O18 Pb14 2.345332 1_555
O19 Pb24 2.304684 1_455
O19 Pb9 2.314553 1_555
O19 Pb4 2.337516 1_465
O19 Pb31 2.346407 1_565
O20 Pb18 2.306021 1_656
O20 Pb22 2.322597 1_555
O20 Pb1 2.330009 1_665
O20 Pb21 2.344649 1_566
O21 Pb7 2.310796 1_655
O21 Pb14 2.323596 1_655
O21 Pb2 2.328654 1_555
O21 Pb11 2.340032 1_555
O22 Pb15 2.304986 1_655
O22 Pb23 2.308038 1_555
O22 Pb12 2.342802 1_655
O22 Pb13 2.345332 1_555
O23 Pb17 2.304986 1_655
O23 Pb5 2.308038 1_555
O23 Pb27 2.342802 1_665
O23 Pb25 2.345332 1_565
O24 Pb18 2.306021 1_655
O24 Pb6 2.322597 1_555
O24 Pb29 2.330009 1_655
O24 Pb21 2.344649 1_555
O25 Pb11 2.310796 1_455
O25 Pb2 2.323596 1_465
O25 Pb14 2.328654 1_555
O25 Pb7 2.340032 1_565
O26 Pb3 2.310796 1_455
O26 Pb26 2.323596 1_455
O26 Pb0 2.328654 1_555
O26 Pb28 2.340032 1_555
O27 Pb0 2.304986 1_655
O27 Pb6 2.308038 1_555
O27 Pb29 2.342802 1_655
O27 Pb26 2.345332 1_555
O28 Pb13 2.304986 1_455
O28 Pb12 2.308038 1_555
O28 Pb23 2.342802 1_445
O28 Pb15 2.345332 1_545
O29 Pb26 2.304986 1_455
O29 Pb29 2.308038 1_555
O29 Pb6 2.342802 1_445
O29 Pb0 2.345332 1_545
O30 Pb30 2.304684 1_455
O30 Pb10 2.314553 1_555
O30 Pb8 2.337516 1_455
O30 Pb20 2.346407 1_555
O31 Pb24 2.310796 1_455
O31 Pb13 2.323596 1_455
O31 Pb15 2.328654 1_555
O31 Pb31 2.340032 1_555
