# generated using pymatgen
data_K3Ga13
_symmetry_space_group_name_H-M   'P 1'
_cell_length_a   6.40243350
_cell_length_b   8.65512330
_cell_length_c   28.26080679
_cell_angle_alpha   90.00000000
_cell_angle_beta   90.00000000
_cell_angle_gamma   111.70721068
_symmetry_Int_Tables_number   1
_chemical_formula_structural   K3Ga13
_chemical_formula_sum   'K12 Ga52'
_cell_volume   1454.98602449
_cell_formula_units_Z   4
loop_
 _symmetry_equiv_pos_site_id
 _symmetry_equiv_pos_as_xyz
  1  'x, y, z'
loop_
 _atom_site_type_symbol
 _atom_site_label
 _atom_site_symmetry_multiplicity
 _atom_site_fract_x
 _atom_site_fract_y
 _atom_site_fract_z
 _atom_site_occupancy
  K  K0  1  0.21334800  0.42669700  0.58606814  1
  K  K1  1  0.78665200  0.57330300  0.41393186  1
  K  K2  1  0.36324541  0.72649182  0.82040671  1
  K  K3  1  0.98721405  0.97442810  0.86088611  1
  K  K4  1  0.63675459  0.27350818  0.32040671  1
  K  K5  1  0.36324541  0.72649182  0.67959329  1
  K  K6  1  0.01278595  0.02557190  0.36088611  1
  K  K7  1  0.01278595  0.02557190  0.13911389  1
  K  K8  1  0.21334800  0.42669700  0.91393186  1
  K  K9  1  0.98721405  0.97442810  0.63911389  1
  K  K10  1  0.63675459  0.27350818  0.17959329  1
  K  K11  1  0.78665200  0.57330300  0.08606814  1
  Ga  Ga0  1  0.20171516  0.40343233  0.07297936  1
  Ga  Ga1  1  0.24349711  0.09921672  0.53534564  1
  Ga  Ga2  1  0.40590436  0.21987281  0.04702604  1
  Ga  Ga3  1  0.97196123  0.34458843  0.79678685  1
  Ga  Ga4  1  0.74225861  0.48451721  0.84308084  1
  Ga  Ga5  1  0.34269487  0.68538873  0.03166066  1
  Ga  Ga6  1  0.59409564  0.78012719  0.95297396  1
  Ga  Ga7  1  0.24349711  0.09921672  0.96465436  1
  Ga  Ga8  1  0.85571761  0.09921672  0.53534564  1
  Ga  Ga9  1  0.85571761  0.09921672  0.96465436  1
  Ga  Ga10  1  0.81396845  0.21987281  0.04702604  1
  Ga  Ga11  1  0.79828484  0.59656767  0.92702064  1
  Ga  Ga12  1  0.34269487  0.68538873  0.46833934  1
  Ga  Ga13  1  0.40590436  0.21987281  0.45297396  1
  Ga  Ga14  1  0.77338707  0.54677614  0.75000000  1
  Ga  Ga15  1  0.25698384  0.93567660  0.25000000  1
  Ga  Ga16  1  0.18603155  0.78012719  0.54702604  1
  Ga  Ga17  1  0.25774139  0.51548279  0.15691916  1
  Ga  Ga18  1  0.75650289  0.90078328  0.03534564  1
  Ga  Ga19  1  0.51632674  0.03265248  0.91039297  1
  Ga  Ga20  1  0.37262721  0.34458843  0.79678685  1
  Ga  Ga21  1  0.65730513  0.31461127  0.96833934  1
  Ga  Ga22  1  0.14428239  0.90078328  0.46465436  1
  Ga  Ga23  1  0.57434994  0.14870088  0.82842598  1
  Ga  Ga24  1  0.75650289  0.90078328  0.46465436  1
  Ga  Ga25  1  0.14428239  0.90078328  0.03534564  1
  Ga  Ga26  1  0.42565006  0.85129912  0.17157402  1
  Ga  Ga27  1  0.92627147  0.85254294  0.75000000  1
  Ga  Ga28  1  0.74301616  0.06432340  0.75000000  1
  Ga  Ga29  1  0.65730513  0.31461127  0.53166066  1
  Ga  Ga30  1  0.37262721  0.34458843  0.70321315  1
  Ga  Ga31  1  0.02803877  0.65541157  0.29678685  1
  Ga  Ga32  1  0.67869275  0.93567660  0.25000000  1
  Ga  Ga33  1  0.51632674  0.03265248  0.58960703  1
  Ga  Ga34  1  0.22661293  0.45322386  0.25000000  1
  Ga  Ga35  1  0.20171516  0.40343233  0.42702064  1
  Ga  Ga36  1  0.62737279  0.65541157  0.20321315  1
  Ga  Ga37  1  0.18603155  0.78012719  0.95297396  1
  Ga  Ga38  1  0.48367326  0.96734752  0.41039297  1
  Ga  Ga39  1  0.59409564  0.78012719  0.54702604  1
  Ga  Ga40  1  0.32130725  0.06432340  0.75000000  1
  Ga  Ga41  1  0.57434994  0.14870088  0.67157402  1
  Ga  Ga42  1  0.79828484  0.59656767  0.57297936  1
  Ga  Ga43  1  0.48367326  0.96734752  0.08960703  1
  Ga  Ga44  1  0.25774139  0.51548279  0.34308084  1
  Ga  Ga45  1  0.81396845  0.21987281  0.45297396  1
  Ga  Ga46  1  0.02803877  0.65541157  0.20321315  1
  Ga  Ga47  1  0.07372853  0.14745706  0.25000000  1
  Ga  Ga48  1  0.42565006  0.85129912  0.32842598  1
  Ga  Ga49  1  0.74225861  0.48451721  0.65691916  1
  Ga  Ga50  1  0.97196123  0.34458843  0.70321315  1
  Ga  Ga51  1  0.62737279  0.65541157  0.29678685  1
loop_
_geom_bond_atom_site_label_1
_geom_bond_atom_site_label_2
_geom_bond_distance
_geom_bond_site_symmetry_2
K0 K5 3.577388 1_555
K0 K9 3.933708 1_445
K1 K4 3.577388 1_555
K1 K6 3.933708 1_665
K2 K8 3.577388 1_555
K2 K3 3.940999 1_455
K2 K3 3.941004 1_555
K3 K8 3.933708 1_665
K4 K6 3.940999 1_655
K4 K6 3.941004 1_555
K5 K9 3.940999 1_455
K5 K9 3.941004 1_555
K10 K11 3.577388 1_555
K10 K7 3.940999 1_655
K10 K7 3.941004 1_555
K11 K7 3.933708 1_665
Ga0 Ga10 2.511458 1_455
Ga0 Ga2 2.511467 1_555
Ga0 Ga17 2.537564 1_555
Ga0 Ga5 2.550338 1_555
Ga0 K11 3.500069 1_455
Ga0 K11 3.500087 1_555
Ga0 K7 3.567318 1_555
Ga1 Ga8 2.482732 1_455
Ga1 Ga33 2.545406 1_555
Ga1 Ga22 2.556824 1_545
Ga1 Ga13 2.605296 1_555
Ga1 Ga29 2.617617 1_555
Ga1 Ga16 2.668333 1_545
Ga1 K0 3.245073 1_555
Ga1 K9 3.338850 1_445
Ga2 Ga7 2.605296 1_554
Ga2 Ga25 2.668330 1_545
Ga2 Ga21 2.689211 1_554
Ga2 Ga43 2.697785 1_545
Ga2 K11 3.316795 1_555
Ga2 K7 3.578382 1_555
Ga3 Ga4 2.580464 1_555
Ga3 Ga50 2.644468 1_555
Ga3 K2 3.394385 1_655
Ga3 K8 3.611261 1_655
Ga3 K3 3.713047 1_545
Ga4 K2 3.800596 1_655
Ga4 K2 3.800601 1_555
Ga4 K8 3.804364 1_655
Ga4 K8 3.804369 1_555
Ga4 K3 3.971553 1_555
Ga5 Ga6 2.689211 1_554
Ga5 K11 3.663929 1_555
Ga5 K11 3.663930 1_455
Ga5 K8 3.923905 1_554
Ga6 Ga9 2.668330 1_565
Ga6 K8 3.316795 1_555
Ga6 K3 3.578382 1_555
Ga7 Ga9 2.482732 1_455
Ga7 K8 3.245073 1_555
Ga7 K3 3.338850 1_445
Ga8 K0 3.245076 1_655
Ga8 K9 3.338855 1_545
Ga9 K8 3.245076 1_655
Ga9 K3 3.338855 1_545
Ga10 Ga9 2.605293 1_554
Ga10 Ga2 2.612603 1_555
Ga10 Ga18 2.668333 1_545
Ga10 Ga21 2.689214 1_554
Ga10 Ga43 2.697788 1_545
Ga10 K11 3.316792 1_555
Ga10 K7 3.578382 1_655
Ga11 Ga37 2.511458 1_655
Ga11 Ga6 2.511467 1_555
Ga11 Ga4 2.537564 1_555
Ga11 Ga21 2.550338 1_555
Ga11 K8 3.500069 1_655
Ga11 K8 3.500087 1_555
Ga11 K3 3.567318 1_555
Ga12 Ga35 2.550338 1_555
Ga12 Ga22 2.617612 1_555
Ga12 Ga24 2.617617 1_555
Ga12 Ga39 2.689211 1_555
Ga12 Ga16 2.689214 1_555
Ga12 Ga38 2.796884 1_555
Ga12 K1 3.663929 1_555
Ga12 K1 3.663930 1_455
Ga12 K0 3.923905 1_555
Ga13 Ga35 2.511467 1_555
Ga13 Ga45 2.612603 1_555
Ga13 Ga22 2.668330 1_545
Ga13 Ga29 2.689211 1_555
Ga13 Ga38 2.697785 1_545
Ga13 K1 3.316795 1_555
Ga13 K6 3.578382 1_555
Ga14 Ga27 2.458779 1_555
Ga14 Ga49 2.677758 1_555
Ga14 Ga4 2.677758 1_555
Ga14 Ga20 2.841255 1_555
Ga14 Ga30 2.841255 1_555
Ga14 Ga50 2.841263 1_555
Ga14 Ga3 2.841263 1_555
Ga15 Ga47 2.515410 1_565
Ga15 Ga31 2.674105 1_555
Ga15 Ga46 2.674105 1_555
Ga15 Ga26 2.682383 1_555
Ga15 Ga48 2.682383 1_555
Ga15 Ga32 2.699963 1_555
Ga15 K4 3.627893 1_565
Ga15 K10 3.627893 1_565
Ga15 K6 3.710781 1_565
Ga15 K7 3.710781 1_565
Ga16 Ga42 2.511458 1_455
Ga16 Ga22 2.605293 1_555
Ga16 Ga39 2.612603 1_555
Ga16 Ga33 2.697788 1_565
Ga16 K0 3.316792 1_555
Ga16 K9 3.578382 1_455
Ga17 Ga46 2.580464 1_555
Ga17 Ga36 2.580464 1_555
Ga17 Ga34 2.677758 1_555
Ga17 Ga26 2.731993 1_555
Ga17 K10 3.800596 1_455
Ga17 K10 3.800601 1_555
Ga17 K11 3.804364 1_455
Ga17 K11 3.804369 1_555
Ga17 K7 3.971553 1_555
Ga18 Ga25 2.482732 1_655
Ga18 Ga43 2.545406 1_555
Ga18 Ga9 2.556824 1_564
Ga18 Ga6 2.605296 1_554
Ga18 Ga5 2.617617 1_555
Ga18 K11 3.245073 1_555
Ga18 K7 3.338850 1_665
Ga19 Ga23 2.497357 1_555
Ga19 Ga9 2.545392 1_555
Ga19 Ga7 2.545406 1_555
Ga19 Ga6 2.697785 1_545
Ga19 Ga37 2.697788 1_545
Ga19 Ga21 2.796884 1_555
Ga19 K3 3.524837 1_545
Ga19 K3 3.524843 1_445
Ga19 K2 3.539556 1_545
Ga20 Ga3 2.565237 1_455
Ga20 Ga4 2.580464 1_555
Ga20 Ga23 2.638515 1_555
Ga20 Ga30 2.644468 1_555
Ga20 Ga40 2.674105 1_555
Ga20 K2 3.394387 1_555
Ga20 K8 3.611263 1_555
Ga20 K3 3.713048 1_445
Ga21 Ga9 2.617612 1_555
Ga21 Ga7 2.617617 1_555
Ga21 K8 3.663929 1_555
Ga21 K8 3.663930 1_655
Ga21 K11 3.923905 1_556
Ga22 Ga24 2.482732 1_455
Ga22 Ga38 2.545392 1_555
Ga22 K1 3.245076 1_455
Ga22 K6 3.338855 1_565
Ga23 Ga3 2.638520 1_555
Ga23 Ga40 2.682380 1_555
Ga23 Ga28 2.682383 1_555
Ga23 Ga4 2.731993 1_555
Ga23 K2 3.402688 1_545
Ga23 K3 3.612920 1_445
Ga23 K3 3.612925 1_545
Ga24 Ga38 2.545406 1_555
Ga24 Ga8 2.556824 1_565
Ga24 Ga39 2.605296 1_555
Ga24 Ga45 2.668333 1_565
Ga24 K1 3.245073 1_555
Ga24 K6 3.338850 1_665
Ga25 Ga43 2.545392 1_555
Ga25 Ga7 2.556824 1_564
Ga25 Ga37 2.605293 1_554
Ga25 Ga5 2.617612 1_555
Ga25 K11 3.245076 1_455
Ga25 K7 3.338855 1_565
Ga26 Ga43 2.497357 1_555
Ga26 Ga36 2.638515 1_555
Ga26 Ga46 2.638520 1_555
Ga26 Ga32 2.682380 1_555
Ga26 K10 3.402688 1_565
Ga26 K7 3.612920 1_665
Ga26 K7 3.612925 1_565
Ga27 Ga28 2.515410 1_565
Ga27 Ga40 2.515410 1_665
Ga27 K9 3.283429 1_555
Ga27 K3 3.283429 1_555
Ga28 Ga3 2.674105 1_555
Ga28 Ga50 2.674105 1_555
Ga28 Ga41 2.682383 1_555
Ga28 Ga40 2.699963 1_555
Ga28 K5 3.627893 1_545
Ga28 K2 3.627893 1_545
Ga28 K9 3.710781 1_545
Ga28 K3 3.710781 1_545
Ga29 Ga42 2.550338 1_555
Ga29 Ga8 2.617612 1_555
Ga29 Ga45 2.689214 1_555
Ga29 Ga33 2.796884 1_555
Ga29 K0 3.663929 1_555
Ga29 K0 3.663930 1_655
Ga29 K1 3.923905 1_555
Ga30 Ga50 2.565237 1_455
Ga30 Ga49 2.580464 1_555
Ga30 Ga41 2.638515 1_555
Ga30 Ga40 2.674105 1_555
Ga30 K5 3.394387 1_555
Ga30 K0 3.611263 1_555
Ga30 K9 3.713048 1_445
Ga31 Ga51 2.565237 1_455
Ga31 Ga44 2.580464 1_555
Ga31 Ga48 2.638520 1_555
Ga31 Ga46 2.644468 1_555
Ga31 Ga34 2.841263 1_555
Ga31 K4 3.394385 1_455
Ga31 K1 3.611261 1_455
Ga31 K6 3.713047 1_565
Ga32 Ga47 2.515410 1_665
Ga32 Ga51 2.674105 1_555
Ga32 Ga36 2.674105 1_555
Ga32 Ga48 2.682380 1_555
Ga32 K4 3.627891 1_565
Ga32 K10 3.627891 1_565
Ga32 K6 3.710781 1_665
Ga32 K7 3.710781 1_665
Ga33 Ga41 2.497357 1_555
Ga33 Ga8 2.545392 1_555
Ga33 Ga39 2.697785 1_545
Ga33 K9 3.524837 1_545
Ga33 K9 3.524843 1_445
Ga33 K5 3.539556 1_545
Ga34 Ga47 2.458779 1_555
Ga34 Ga44 2.677758 1_555
Ga34 Ga51 2.841255 1_555
Ga34 Ga36 2.841255 1_555
Ga34 Ga46 2.841263 1_555
Ga35 Ga45 2.511458 1_455
Ga35 Ga44 2.537564 1_555
Ga35 K1 3.500069 1_455
Ga35 K1 3.500087 1_555
Ga35 K6 3.567318 1_555
Ga36 Ga46 2.565237 1_655
Ga36 Ga51 2.644468 1_555
Ga36 K10 3.394387 1_555
Ga36 K11 3.611263 1_555
Ga36 K7 3.713048 1_665
Ga37 Ga6 2.612603 1_555
Ga37 Ga7 2.668333 1_565
Ga37 Ga5 2.689214 1_556
Ga37 K8 3.316792 1_555
Ga37 K3 3.578382 1_455
Ga38 Ga48 2.497357 1_555
Ga38 Ga45 2.697788 1_565
Ga38 K6 3.524837 1_565
Ga38 K6 3.524843 1_665
Ga38 K4 3.539556 1_565
Ga39 Ga42 2.511467 1_555
Ga39 Ga8 2.668330 1_565
Ga39 K0 3.316795 1_555
Ga39 K9 3.578382 1_555
Ga40 Ga41 2.682380 1_555
Ga40 K5 3.627891 1_545
Ga40 K2 3.627891 1_545
Ga40 K3 3.710781 1_445
Ga40 K9 3.710781 1_445
Ga41 Ga50 2.638520 1_555
Ga41 Ga49 2.731993 1_555
Ga41 K5 3.402688 1_545
Ga41 K9 3.612920 1_445
Ga41 K9 3.612925 1_545
Ga42 Ga49 2.537564 1_555
Ga42 K0 3.500069 1_655
Ga42 K0 3.500087 1_555
Ga42 K9 3.567318 1_555
Ga43 Ga5 2.796884 1_555
Ga43 K7 3.524837 1_565
Ga43 K7 3.524843 1_665
Ga43 K10 3.539556 1_565
Ga44 Ga51 2.580464 1_555
Ga44 Ga48 2.731993 1_555
Ga44 K4 3.800596 1_455
Ga44 K4 3.800601 1_555
Ga44 K1 3.804364 1_455
Ga44 K1 3.804369 1_555
Ga44 K6 3.971553 1_555
Ga45 Ga8 2.605293 1_555
Ga45 K1 3.316792 1_555
Ga45 K6 3.578382 1_655
Ga46 K10 3.394385 1_455
Ga46 K11 3.611261 1_455
Ga46 K7 3.713047 1_565
Ga47 K6 3.283429 1_555
Ga47 K7 3.283429 1_555
Ga48 Ga51 2.638515 1_555
Ga48 K4 3.402688 1_565
Ga48 K6 3.612920 1_665
Ga48 K6 3.612925 1_565
Ga49 Ga50 2.580464 1_555
Ga49 K5 3.800596 1_655
Ga49 K5 3.800601 1_555
Ga49 K0 3.804364 1_655
Ga49 K0 3.804369 1_555
Ga49 K9 3.971553 1_555
Ga50 K5 3.394385 1_655
Ga50 K0 3.611261 1_655
Ga50 K9 3.713047 1_545
Ga51 K4 3.394387 1_555
Ga51 K1 3.611263 1_555
Ga51 K6 3.713048 1_665
