# generated using pymatgen
data_Sr2RuO6
_symmetry_space_group_name_H-M   'P 1'
_cell_length_a   6.32101000
_cell_length_b   6.93915400
_cell_length_c   9.78451349
_cell_angle_alpha   47.32577446
_cell_angle_beta   90.00000000
_cell_angle_gamma   90.00000000
_symmetry_Int_Tables_number   1
_chemical_formula_structural   Sr2RuO6
_chemical_formula_sum   'Sr4 Ru2 O12'
_cell_volume   315.53628656
_cell_formula_units_Z   2
loop_
 _symmetry_equiv_pos_site_id
 _symmetry_equiv_pos_as_xyz
  1  'x, y, z'
loop_
 _atom_site_type_symbol
 _atom_site_label
 _atom_site_symmetry_multiplicity
 _atom_site_fract_x
 _atom_site_fract_y
 _atom_site_fract_z
 _atom_site_occupancy
  Sr  Sr0  1  0.82092600  0.43052700  0.89845900  1
  Sr  Sr1  1  0.67907400  0.43052700  0.39845900  1
  Sr  Sr2  1  0.32092600  0.56947300  0.60154100  1
  Sr  Sr3  1  0.17907400  0.56947300  0.10154100  1
  Ru  Ru0  1  0.00000000  0.00000000  0.50000000  1
  Ru  Ru1  1  0.50000000  0.00000000  0.00000000  1
  O  O0  1  0.06729300  0.34883600  0.42391000  1
  O  O1  1  0.77406700  0.94375500  0.63386000  1
  O  O2  1  0.28382100  0.42498800  0.42336500  1
  O  O3  1  0.72593300  0.94375500  0.13386000  1
  O  O4  1  0.21617900  0.42498800  0.92336500  1
  O  O5  1  0.43270700  0.34883600  0.92391000  1
  O  O6  1  0.56729300  0.65116400  0.07609000  1
  O  O7  1  0.78382100  0.57501200  0.07663500  1
  O  O8  1  0.27406700  0.05624500  0.86614000  1
  O  O9  1  0.71617900  0.57501200  0.57663500  1
  O  O10  1  0.22593300  0.05624500  0.36614000  1
  O  O11  1  0.93270700  0.65116400  0.57609000  1
loop_
_geom_bond_atom_site_label_1
_geom_bond_atom_site_label_2
_geom_bond_distance
_geom_bond_site_symmetry_2
O0 O2 1.465851 1_555
O0 Ru0 2.037530 1_555
O0 Sr1 2.492746 1_455
O0 Sr3 2.499131 1_555
O1 Ru0 1.792856 1_665
O1 Sr1 2.555010 1_565
O1 Sr0 2.640890 1_555
O2 Sr1 2.508019 1_555
O2 Sr2 2.543444 1_555
O2 Sr3 2.660673 1_555
O3 Ru1 1.792856 1_565
O3 Sr0 2.555010 1_564
O3 Sr1 2.640890 1_555
O4 O5 1.465851 1_555
O4 Sr0 2.508019 1_455
O4 Sr3 2.543444 1_556
O4 Sr2 2.660673 1_555
O5 Ru1 2.037530 1_556
O5 Sr0 2.492746 1_555
O5 Sr2 2.499131 1_555
O6 O7 1.465851 1_555
O6 Ru1 2.037530 1_565
O6 Sr3 2.492746 1_555
O6 Sr1 2.499131 1_555
O7 Sr3 2.508019 1_655
O7 Sr0 2.543444 1_554
O7 Sr1 2.660673 1_555
O8 Ru1 1.792856 1_556
O8 Sr3 2.555010 1_546
O8 Sr2 2.640890 1_555
O9 Sr2 2.508019 1_555
O9 Sr1 2.543444 1_555
O9 Sr0 2.660673 1_555
O10 Ru0 1.792856 1_555
O10 Sr2 2.555010 1_545
O10 Sr3 2.640890 1_555
O11 O9 1.465851 1_555
O11 Ru0 2.037530 1_665
O11 Sr2 2.492746 1_655
O11 Sr0 2.499131 1_555
