# generated using pymatgen
data_Re3(SeCl)7
_symmetry_space_group_name_H-M   'P 1'
_cell_length_a   10.43077490
_cell_length_b   12.06177758
_cell_length_c   14.48541919
_cell_angle_alpha   90.00000000
_cell_angle_beta   90.00000000
_cell_angle_gamma   90.00000000
_symmetry_Int_Tables_number   1
_chemical_formula_structural   Re3(SeCl)7
_chemical_formula_sum   'Re12 Se28 Cl28'
_cell_volume   1822.46399358
_cell_formula_units_Z   4
loop_
 _symmetry_equiv_pos_site_id
 _symmetry_equiv_pos_as_xyz
  1  'x, y, z'
loop_
 _atom_site_type_symbol
 _atom_site_label
 _atom_site_symmetry_multiplicity
 _atom_site_fract_x
 _atom_site_fract_y
 _atom_site_fract_z
 _atom_site_occupancy
  Re  Re0  1  0.11841955  0.72178319  0.56020523  1
  Re  Re1  1  0.75000000  0.26859448  0.60494243  1
  Re  Re2  1  0.75000000  0.73140552  0.10494243  1
  Re  Re3  1  0.88158045  0.27821681  0.43979477  1
  Re  Re4  1  0.88158045  0.72178319  0.93979477  1
  Re  Re5  1  0.11841955  0.27821681  0.06020523  1
  Re  Re6  1  0.38158045  0.72178319  0.56020523  1
  Re  Re7  1  0.61841955  0.72178319  0.93979477  1
  Re  Re8  1  0.25000000  0.73140552  0.39505757  1
  Re  Re9  1  0.61841955  0.27821681  0.43979477  1
  Re  Re10  1  0.25000000  0.26859448  0.89505757  1
  Re  Re11  1  0.38158045  0.27821681  0.06020523  1
  Se  Se0  1  0.90760165  0.12374711  0.55448469  1
  Se  Se1  1  0.00282417  0.29206639  0.90139411  1
  Se  Se2  1  0.75000000  0.56895845  0.00163350  1
  Se  Se3  1  0.75000000  0.86494237  0.85640300  1
  Se  Se4  1  0.25000000  0.68835970  0.70848720  1
  Se  Se5  1  0.50282417  0.29206639  0.59860589  1
  Se  Se6  1  0.00282417  0.70793361  0.40139411  1
  Se  Se7  1  0.75000000  0.68835970  0.79151280  1
  Se  Se8  1  0.40760165  0.87625289  0.44551531  1
  Se  Se9  1  0.09239835  0.87625289  0.44551531  1
  Se  Se10  1  0.09239835  0.12374711  0.94551531  1
  Se  Se11  1  0.90760165  0.87625289  0.05448469  1
  Se  Se12  1  0.75000000  0.43104155  0.50163350  1
  Se  Se13  1  0.59239835  0.12374711  0.55448469  1
  Se  Se14  1  0.25000000  0.56895845  0.49836650  1
  Se  Se15  1  0.75000000  0.13505763  0.35640300  1
  Se  Se16  1  0.25000000  0.43104155  0.99836650  1
  Se  Se17  1  0.40760165  0.12374711  0.94551531  1
  Se  Se18  1  0.25000000  0.31164030  0.20848720  1
  Se  Se19  1  0.99717583  0.70793361  0.09860589  1
  Se  Se20  1  0.49717583  0.70793361  0.40139411  1
  Se  Se21  1  0.25000000  0.86494237  0.64359700  1
  Se  Se22  1  0.49717583  0.29206639  0.90139411  1
  Se  Se23  1  0.25000000  0.13505763  0.14359700  1
  Se  Se24  1  0.59239835  0.87625289  0.05448469  1
  Se  Se25  1  0.50282417  0.70793361  0.09860589  1
  Se  Se26  1  0.99717583  0.29206639  0.59860589  1
  Se  Se27  1  0.75000000  0.31164030  0.29151280  1
  Cl  Cl0  1  0.75000000  0.84302507  0.24493240  1
  Cl  Cl1  1  0.05701722  0.81693680  0.86643698  1
  Cl  Cl2  1  0.99063063  0.43312913  0.11320089  1
  Cl  Cl3  1  0.44298278  0.81693680  0.86643698  1
  Cl  Cl4  1  0.94298278  0.18306320  0.13356302  1
  Cl  Cl5  1  0.25000000  0.04051212  0.52728360  1
  Cl  Cl6  1  0.00936937  0.43312913  0.38679911  1
  Cl  Cl7  1  0.55701722  0.18306320  0.13356302  1
  Cl  Cl8  1  0.75000000  0.58963936  0.22185451  1
  Cl  Cl9  1  0.55701722  0.81693680  0.63356302  1
  Cl  Cl10  1  0.49063063  0.43312913  0.38679911  1
  Cl  Cl11  1  0.75000000  0.41036064  0.72185451  1
  Cl  Cl12  1  0.49063063  0.56687087  0.88679911  1
  Cl  Cl13  1  0.25000000  0.58963936  0.27814549  1
  Cl  Cl14  1  0.05701722  0.18306320  0.36643698  1
  Cl  Cl15  1  0.99063063  0.56687087  0.61320089  1
  Cl  Cl16  1  0.25000000  0.15697493  0.75506760  1
  Cl  Cl17  1  0.25000000  0.41036064  0.77814549  1
  Cl  Cl18  1  0.00936937  0.56687087  0.88679911  1
  Cl  Cl19  1  0.50936937  0.56687087  0.61320089  1
  Cl  Cl20  1  0.44298278  0.18306320  0.36643698  1
  Cl  Cl21  1  0.75000000  0.04051212  0.97271640  1
  Cl  Cl22  1  0.75000000  0.95948788  0.47271640  1
  Cl  Cl23  1  0.94298278  0.81693680  0.63356302  1
  Cl  Cl24  1  0.25000000  0.95948788  0.02728360  1
  Cl  Cl25  1  0.50936937  0.43312913  0.11320089  1
  Cl  Cl26  1  0.75000000  0.15697493  0.74493240  1
  Cl  Cl27  1  0.25000000  0.84302507  0.25506760  1
loop_
_geom_bond_atom_site_label_1
_geom_bond_atom_site_label_2
_geom_bond_distance
_geom_bond_site_symmetry_2
Re0 Se14 2.466576 1_555
Re0 Se9 2.511002 1_555
Re0 Se21 2.514871 1_555
Re0 Se4 2.580665 1_555
Re0 Se6 2.602650 1_555
Re1 Se12 2.465498 1_555
Re1 Se13 2.507801 1_555
Re1 Se0 2.507801 1_555
Re1 Se5 2.595357 1_555
Re1 Se26 2.595357 1_555
Re2 Se2 2.465498 1_555
Re2 Se11 2.507801 1_555
Re2 Se24 2.507801 1_555
Re2 Se19 2.595357 1_555
Re2 Se25 2.595357 1_555
Re3 Se12 2.466576 1_555
Re3 Se0 2.511002 1_555
Re3 Se15 2.514871 1_555
Re3 Se27 2.580665 1_555
Re3 Se26 2.602650 1_555
Re4 Se2 2.466576 1_556
Re4 Se11 2.511002 1_556
Re4 Se3 2.514871 1_555
Re4 Se7 2.580665 1_555
Re4 Se19 2.602650 1_556
Re5 Se16 2.466576 1_554
Re5 Se10 2.511002 1_554
Re5 Se23 2.514871 1_555
Re5 Se18 2.580665 1_555
Re5 Se1 2.602650 1_554
Re6 Se14 2.466576 1_555
Re6 Se8 2.511002 1_555
Re6 Se21 2.514871 1_555
Re6 Se4 2.580665 1_555
Re6 Se20 2.602650 1_555
Re7 Se2 2.466576 1_556
Re7 Se24 2.511002 1_556
Re7 Se3 2.514871 1_555
Re7 Se7 2.580665 1_555
Re7 Se25 2.602650 1_556
Re8 Se14 2.465498 1_555
Re8 Se9 2.507801 1_555
Re8 Se8 2.507801 1_555
Re8 Se20 2.595357 1_555
Re8 Se6 2.595357 1_555
Re9 Se12 2.466576 1_555
Re9 Se13 2.511002 1_555
Re9 Se15 2.514871 1_555
Re9 Se27 2.580665 1_555
Re9 Se5 2.602650 1_555
Re10 Se16 2.465498 1_555
Re10 Se17 2.507801 1_555
Re10 Se10 2.507801 1_555
Re10 Se22 2.595357 1_555
Re10 Se1 2.595357 1_555
Re11 Se16 2.466576 1_554
Re11 Se17 2.511002 1_554
Re11 Se23 2.514871 1_555
Re11 Se18 2.580665 1_555
Re11 Se22 2.602650 1_554
Se0 Se26 2.324493 1_555
Se1 Se10 2.324493 1_555
Se3 Se7 2.328091 1_555
Se6 Se9 2.324493 1_555
Se11 Se19 2.324493 1_555
Se13 Se5 2.324493 1_555
Se15 Se27 2.328091 1_555
Se17 Se22 2.324493 1_555
Se18 Se23 2.328091 1_555
Se20 Se8 2.324493 1_555
Se21 Se4 2.328091 1_555
Se24 Se25 2.324493 1_555
Cl0 Re2 2.434057 1_555
Cl1 Re4 2.407303 1_455
Cl2 Re5 2.420205 1_655
Cl3 Re7 2.407303 1_555
Cl4 Re5 2.407303 1_655
Cl5 Se21 2.706159 1_545
Cl5 Se9 2.833855 1_545
Cl5 Se8 2.833855 1_545
Cl6 Re3 2.420205 1_455
Cl7 Re11 2.407303 1_555
Cl8 Re2 2.406646 1_555
Cl9 Re6 2.407303 1_555
Cl10 Re9 2.420205 1_555
Cl11 Re1 2.406646 1_555
Cl12 Re7 2.420205 1_555
Cl13 Re8 2.406646 1_555
Cl14 Re3 2.407303 1_455
Cl15 Re0 2.420205 1_655
Cl16 Re10 2.434057 1_555
Cl17 Re10 2.406646 1_555
Cl18 Re4 2.420205 1_455
Cl19 Re6 2.420205 1_555
Cl20 Re9 2.407303 1_555
Cl21 Se3 2.706159 1_545
Cl21 Se24 2.833855 1_546
Cl21 Se11 2.833855 1_546
Cl22 Se15 2.706159 1_565
Cl22 Se13 2.833855 1_565
Cl22 Se0 2.833855 1_565
Cl23 Re0 2.407303 1_655
Cl24 Se23 2.706159 1_565
Cl24 Se10 2.833855 1_564
Cl24 Se17 2.833855 1_564
Cl25 Re11 2.420205 1_555
Cl26 Re1 2.434057 1_555
Cl27 Re8 2.434057 1_555
