# generated using pymatgen
data_Ba7Na3Ti7Nb3O30
_symmetry_space_group_name_H-M   'P 1'
_cell_length_a   4.02851300
_cell_length_b   8.05673500
_cell_length_c   20.17327134
_cell_angle_alpha   89.97238774
_cell_angle_beta   90.00000000
_cell_angle_gamma   90.00000000
_symmetry_Int_Tables_number   1
_chemical_formula_structural   Ba7Na3Ti7Nb3O30
_chemical_formula_sum   'Ba7 Na3 Ti7 Nb3 O30'
_cell_volume   654.75696701
_cell_formula_units_Z   1
loop_
 _symmetry_equiv_pos_site_id
 _symmetry_equiv_pos_as_xyz
  1  'x, y, z'
loop_
 _atom_site_type_symbol
 _atom_site_label
 _atom_site_symmetry_multiplicity
 _atom_site_fract_x
 _atom_site_fract_y
 _atom_site_fract_z
 _atom_site_occupancy
  Ba  Ba0  1  0.00000000  0.50260500  0.00451000  1
  Ba  Ba1  1  0.00000000  0.50165100  0.19848800  1
  Ba  Ba2  1  0.00000000  0.50143400  0.39951300  1
  Ba  Ba3  1  0.00000000  0.99827300  0.19879500  1
  Ba  Ba4  1  0.00000000  0.99855600  0.39950200  1
  Ba  Ba5  1  0.00000000  0.50552000  0.59965100  1
  Ba  Ba6  1  0.00000000  0.99448700  0.59967000  1
  Na  Na0  1  0.00000000  0.99801200  0.00365600  1
  Na  Na1  1  0.00000000  0.50520100  0.79849100  1
  Na  Na2  1  0.00000000  0.99461400  0.79829900  1
  Ti  Ti0  1  0.50000000  0.75774200  0.09727900  1
  Ti  Ti1  1  0.50000000  0.24988400  0.29860600  1
  Ti  Ti2  1  0.50000000  0.75008500  0.29878900  1
  Ti  Ti3  1  0.50000000  0.24375100  0.10024900  1
  Ti  Ti4  1  0.50000000  0.75002500  0.50006100  1
  Ti  Ti5  1  0.50000000  0.75005800  0.70324600  1
  Ti  Ti6  1  0.50000000  0.24998000  0.49758900  1
  Nb  Nb0  1  0.50000000  0.24997600  0.70331400  1
  Nb  Nb1  1  0.50000000  0.75270900  0.89669400  1
  Nb  Nb2  1  0.50000000  0.24572200  0.90122500  1
  O  O0  1  0.00000000  0.75170600  0.09951800  1
  O  O1  1  0.00000000  0.75006000  0.30006700  1
  O  O2  1  0.00000000  0.24826900  0.09917400  1
  O  O3  1  0.00000000  0.24992900  0.30009300  1
  O  O4  1  0.00000000  0.75074400  0.89964600  1
  O  O5  1  0.00000000  0.24948500  0.89899000  1
  O  O6  1  0.50000000  0.74994200  0.99979700  1
  O  O7  1  0.50000000  0.75111700  0.20046200  1
  O  O8  1  0.50000000  0.49904100  0.09897300  1
  O  O9  1  0.50000000  0.24962500  0.99916200  1
  O  O10  1  0.50000000  0.49888600  0.30006500  1
  O  O11  1  0.50000000  0.49973900  0.50010900  1
  O  O12  1  0.50000000  0.99912300  0.70105300  1
  O  O13  1  0.50000000  0.24890200  0.19979900  1
  O  O14  1  0.50000000  0.24997700  0.40096900  1
  O  O15  1  0.50000000  0.00056000  0.09984000  1
  O  O16  1  0.50000000  0.00111700  0.30013400  1
  O  O17  1  0.50000000  0.75002900  0.40018400  1
  O  O18  1  0.50000000  0.74997500  0.59981600  1
  O  O19  1  0.50000000  0.50091200  0.70114600  1
  O  O20  1  0.50000000  0.50028400  0.89969300  1
  O  O21  1  0.50000000  0.25001100  0.60132700  1
  O  O22  1  0.50000000  0.24932500  0.80081200  1
  O  O23  1  0.50000000  0.00025100  0.50011000  1
  O  O24  1  0.50000000  0.75094300  0.80018200  1
  O  O25  1  0.50000000  0.99978000  0.89889000  1
  O  O26  1  0.00000000  0.75000100  0.49991500  1
  O  O27  1  0.00000000  0.74997800  0.70109100  1
  O  O28  1  0.00000000  0.24999300  0.50026100  1
  O  O29  1  0.00000000  0.25001300  0.70109400  1
loop_
_geom_bond_atom_site_label_1
_geom_bond_atom_site_label_2
_geom_bond_distance
_geom_bond_site_symmetry_2
Ba0 O8 2.772980 1_455
Ba0 O8 2.772980 1_555
Ba0 O0 2.775781 1_555
Ba0 O2 2.800357 1_555
Ba0 O6 2.834970 1_454
Ba0 O6 2.834970 1_554
Ba0 O9 2.867632 1_554
Ba0 O9 2.867632 1_454
Ba0 O4 2.909951 1_554
Ba0 O20 2.920400 1_454
Ba0 O20 2.920400 1_554
Ba0 O5 2.948611 1_554
Ba1 O0 2.835675 1_555
Ba1 O8 2.843931 1_555
Ba1 O8 2.843931 1_455
Ba1 O7 2.845789 1_555
Ba1 O7 2.845789 1_455
Ba1 O2 2.861005 1_555
Ba1 O13 2.864354 1_455
Ba1 O13 2.864354 1_555
Ba1 O1 2.865058 1_555
Ba1 O10 2.873440 1_555
Ba1 O10 2.873440 1_455
Ba1 O3 2.882759 1_555
Ba2 O1 2.834296 1_555
Ba2 O17 2.840581 1_455
Ba2 O17 2.840581 1_555
Ba2 O10 2.842973 1_455
Ba2 O10 2.842973 1_555
Ba2 O26 2.849011 1_555
Ba2 O3 2.851734 1_555
Ba2 O14 2.856991 1_455
Ba2 O14 2.856991 1_555
Ba2 O11 2.859310 1_555
Ba2 O11 2.859310 1_455
Ba2 O28 2.868900 1_555
Ba3 O0 2.821541 1_555
Ba3 O7 2.832570 1_555
Ba3 O7 2.832570 1_455
Ba3 O15 2.835936 1_465
Ba3 O15 2.835936 1_565
Ba3 O2 2.844596 1_565
Ba3 O13 2.852202 1_565
Ba3 O13 2.852202 1_465
Ba3 O1 2.858147 1_555
Ba3 O16 2.870039 1_565
Ba3 O16 2.870039 1_465
Ba3 O3 2.879374 1_565
Ba4 O1 2.834765 1_555
Ba4 O17 2.840187 1_455
Ba4 O17 2.840187 1_555
Ba4 O16 2.841821 1_565
Ba4 O16 2.841821 1_465
Ba4 O26 2.847728 1_555
Ba4 O3 2.849448 1_565
Ba4 O14 2.856808 1_565
Ba4 O14 2.856808 1_465
Ba4 O23 2.859491 1_465
Ba4 O23 2.859491 1_565
Ba4 O28 2.870418 1_565
Ba5 O26 2.814982 1_555
Ba5 O18 2.817128 1_455
Ba5 O18 2.817128 1_555
Ba5 O27 2.840881 1_555
Ba5 O11 2.844627 1_455
Ba5 O11 2.844627 1_555
Ba5 O19 2.872409 1_455
Ba5 O19 2.872409 1_555
Ba5 O28 2.874437 1_555
Ba5 O21 2.880279 1_555
Ba5 O21 2.880279 1_455
Ba5 O29 2.901979 1_555
Ba6 O26 2.816640 1_555
Ba6 O18 2.817447 1_555
Ba6 O18 2.817447 1_455
Ba6 O27 2.839522 1_555
Ba6 O23 2.844850 1_465
Ba6 O23 2.844850 1_565
Ba6 O12 2.870827 1_555
Ba6 O12 2.870827 1_455
Ba6 O28 2.873199 1_565
Ba6 O21 2.880384 1_565
Ba6 O21 2.880384 1_465
Ba6 O29 2.903216 1_565
Na0 O0 2.770200 1_555
Na0 O2 2.789625 1_565
Na0 O15 2.796897 1_465
Na0 O15 2.796897 1_565
Na0 O6 2.838658 1_454
Na0 O6 2.838658 1_554
Na0 O9 2.859148 1_564
Na0 O9 2.859148 1_464
Na0 O4 2.894014 1_554
Na0 O25 2.919618 1_454
Na0 O25 2.919618 1_554
Na0 O5 2.925578 1_564
Na1 O27 2.783199 1_555
Na1 O19 2.813338 1_455
Na1 O19 2.813338 1_555
Na1 O24 2.824602 1_555
Na1 O24 2.824602 1_455
Na1 O4 2.842819 1_555
Na1 O29 2.844549 1_555
Na1 O20 2.868231 1_455
Na1 O20 2.868231 1_555
Na1 O22 2.882571 1_555
Na1 O22 2.882571 1_455
Na1 O5 2.889787 1_555
Na2 O27 2.781002 1_555
Na2 O12 2.811943 1_555
Na2 O12 2.811943 1_455
Na2 O24 2.812957 1_555
Na2 O24 2.812957 1_455
Na2 O4 2.834878 1_555
Na2 O29 2.841736 1_565
Na2 O25 2.859527 1_455
Na2 O25 2.859527 1_555
Na2 O22 2.875965 1_565
Na2 O22 2.875965 1_465
Na2 O5 2.889054 1_565
Nb0 O22 1.966858 1_555
Nb0 O29 2.014754 1_555
Nb0 O29 2.014754 1_655
Nb0 O12 2.021593 1_545
Nb0 O19 2.022177 1_555
Nb0 O21 2.057411 1_555
Nb1 O24 1.947022 1_555
Nb1 O25 1.991100 1_555
Nb1 O4 2.015199 1_555
Nb1 O4 2.015199 1_655
Nb1 O20 2.034592 1_555
Nb1 O6 2.080034 1_555
Nb2 O9 1.975975 1_555
Nb2 O25 1.982072 1_545
Nb2 O5 2.014989 1_655
Nb2 O5 2.014989 1_555
Nb2 O22 2.025853 1_555
Nb2 O20 2.051157 1_555
O0 Ti0 2.015349 1_455
O0 Ti0 2.015349 1_555
O1 Ti2 2.014421 1_455
O1 Ti2 2.014421 1_555
O2 Ti3 2.014702 1_455
O2 Ti3 2.014702 1_555
O3 Ti1 2.014480 1_455
O3 Ti1 2.014480 1_555
O6 Ti0 1.967565 1_556
O7 Ti2 1.983591 1_555
O7 Ti0 2.082197 1_555
O8 Ti3 2.056953 1_555
O8 Ti0 2.084549 1_555
O9 Ti3 2.039782 1_556
O10 Ti1 2.006373 1_555
O10 Ti2 2.023995 1_555
O11 Ti6 2.012909 1_555
O11 Ti4 2.016488 1_555
O12 Ti5 2.007117 1_555
O13 Ti1 1.993280 1_555
O13 Ti3 2.008698 1_555
O14 Ti6 1.949141 1_555
O14 Ti1 2.064997 1_555
O15 Ti0 1.957027 1_545
O15 Ti3 1.959347 1_555
O16 Ti1 2.004472 1_555
O16 Ti2 2.022693 1_545
O17 Ti4 2.014846 1_555
O17 Ti2 2.045469 1_555
O18 Ti4 2.012385 1_555
O18 Ti5 2.086522 1_555
O19 Ti5 2.007771 1_555
O21 Ti6 2.092735 1_555
O23 Ti6 2.012619 1_555
O23 Ti4 2.016005 1_545
O24 Ti5 1.955533 1_555
O26 Ti4 2.014259 1_455
O26 Ti4 2.014259 1_555
O27 Ti5 2.014726 1_455
O27 Ti5 2.014726 1_555
O28 Ti6 2.014978 1_555
O28 Ti6 2.014978 1_455
