# generated using pymatgen
data_Li7Mn11O24
_symmetry_space_group_name_H-M   'P 1'
_cell_length_a   5.86218475
_cell_length_b   5.86218507
_cell_length_c   53.34637079
_cell_angle_alpha   59.60109206
_cell_angle_beta   59.60109021
_cell_angle_gamma   60.78786718
_symmetry_Int_Tables_number   1
_chemical_formula_structural   Li7Mn11O24
_chemical_formula_sum   'Li21 Mn33 O72'
_cell_volume   1295.83884715
_cell_formula_units_Z   3
loop_
 _symmetry_equiv_pos_site_id
 _symmetry_equiv_pos_as_xyz
  1  'x, y, z'
loop_
 _atom_site_type_symbol
 _atom_site_label
 _atom_site_symmetry_multiplicity
 _atom_site_fract_x
 _atom_site_fract_y
 _atom_site_fract_z
 _atom_site_occupancy
  Li  Li0  1  0.12948662  0.12948662  0.01174381  1
  Li  Li1  1  0.12578820  0.12578820  0.12571323  1
  Li  Li2  1  0.12578521  0.12578521  0.23556234  1
  Li  Li3  1  0.87434326  0.87434326  0.09606042  1
  Li  Li4  1  0.12706028  0.12706028  0.34677358  1
  Li  Li5  1  0.12565674  0.12565674  0.45949458  1
  Li  Li6  1  0.87293972  0.87293972  0.20878142  1
  Li  Li7  1  0.87421479  0.87421479  0.31999266  1
  Li  Li8  1  0.11450025  0.11450025  0.57072954  1
  Li  Li9  1  0.87421180  0.87421180  0.42984277  1
  Li  Li10  1  0.12652184  0.12652184  0.67906746  1
  Li  Li11  1  0.49981937  0.49981937  0.61137565  1
  Li  Li12  1  0.87051338  0.87051338  0.54381219  1
  Li  Li13  1  0.11738458  0.11738458  0.79439850  1
  Li  Li14  1  0.88798548  0.88798548  0.65137229  1
  Li  Li15  1  0.50000000  0.50000000  0.77777800  1
  Li  Li16  1  0.11201452  0.11201452  0.90418371  1
  Li  Li17  1  0.88261542  0.88261542  0.76115750  1
  Li  Li18  1  0.50018063  0.50018063  0.94417935  1
  Li  Li19  1  0.87347816  0.87347816  0.87648854  1
  Li  Li20  1  0.88549975  0.88549975  0.98482546  1
  Mn  Mn0  1  0.00294733  0.49890185  0.05444845  1
  Mn  Mn1  1  0.49890185  0.00294733  0.05444845  1
  Mn  Mn2  1  0.50622497  0.50622497  -0.00224445  1
  Mn  Mn3  1  0.50156584  0.50156584  0.05443214  1
  Mn  Mn4  1  0.00145652  0.50306612  0.16677302  1
  Mn  Mn5  1  0.49790248  0.49790248  0.11052957  1
  Mn  Mn6  1  0.49991193  0.49991193  0.16678341  1
  Mn  Mn7  1  0.00000000  0.50000000  0.27777800  1
  Mn  Mn8  1  0.50306612  0.00145652  0.16677302  1
  Mn  Mn9  1  0.49778940  0.49778940  0.22228787  1
  Mn  Mn10  1  0.50000000  0.50000000  0.27777800  1
  Mn  Mn11  1  -0.00145652  0.49693388  0.38878298  1
  Mn  Mn12  1  0.50221060  0.50221060  0.33326713  1
  Mn  Mn13  1  0.50000000  0.00000000  0.27777800  1
  Mn  Mn14  1  0.50008807  0.50008807  0.38877259  1
  Mn  Mn15  1  0.99705267  0.50109815  0.50110755  1
  Mn  Mn16  1  0.49693388  -0.00145652  0.38878298  1
  Mn  Mn17  1  0.50109815  0.99705267  0.50110755  1
  Mn  Mn18  1  0.50209752  0.50209752  0.44502543  1
  Mn  Mn19  1  0.49843416  0.49843416  0.50112386  1
  Mn  Mn20  1  0.99852996  0.49837344  0.61128064  1
  Mn  Mn21  1  0.49837344  0.99852996  0.61128064  1
  Mn  Mn22  1  0.49377503  0.49377503  0.55780045  1
  Mn  Mn23  1  -0.00397108  0.50255503  0.72213857  1
  Mn  Mn24  1  0.50261511  0.50261511  0.66580497  1
  Mn  Mn25  1  0.50255503  -0.00397108  0.72213857  1
  Mn  Mn26  1  0.50114142  0.50114142  0.72224208  1
  Mn  Mn27  1  0.00397108  0.49744497  0.83341643  1
  Mn  Mn28  1  0.49885858  0.49885858  0.83331292  1
  Mn  Mn29  1  0.00147004  0.50162656  0.94427436  1
  Mn  Mn30  1  0.49744497  0.00397108  0.83341643  1
  Mn  Mn31  1  0.50162656  0.00147004  0.94427436  1
  Mn  Mn32  1  0.49738489  0.49738489  0.88975103  1
  O  O0  1  0.26715064  0.26715064  0.02819055  1
  O  O1  1  0.26453898  0.26453898  0.07890154  1
  O  O2  1  0.27024813  0.70783138  0.02884587  1
  O  O3  1  0.70783138  0.27024813  0.02884587  1
  O  O4  1  0.28491444  0.74700712  0.07891380  1
  O  O5  1  0.26656283  0.26656283  0.13915459  1
  O  O6  1  0.74700712  0.28491444  0.07891380  1
  O  O7  1  0.26793619  0.26793619  0.19102058  1
  O  O8  1  0.26028233  0.71306408  0.14241554  1
  O  O9  1  0.73678056  0.73678056  0.03094680  1
  O  O10  1  0.73574649  0.73574649  0.08063993  1
  O  O11  1  0.71306408  0.26028233  0.14241554  1
  O  O12  1  0.26207399  0.26207399  0.25058241  1
  O  O13  1  0.29353446  0.73088729  0.19311726  1
  O  O14  1  0.73088729  0.29353446  0.19311726  1
  O  O15  1  0.73398799  0.73398799  0.14218247  1
  O  O16  1  0.26737119  0.26737119  0.30141952  1
  O  O17  1  0.25597046  0.71367378  0.24915382  1
  O  O18  1  0.71367378  0.25597046  0.24915382  1
  O  O19  1  0.73068515  0.73068515  0.19518830  1
  O  O20  1  0.28632622  0.74402954  0.30640218  1
  O  O21  1  0.26931485  0.26931485  0.36036770  1
  O  O22  1  0.26601201  0.26601201  0.41337253  1
  O  O23  1  0.74402954  0.28632622  0.30640218  1
  O  O24  1  0.26911271  0.70646554  0.36243874  1
  O  O25  1  0.73262881  0.73262881  0.25413548  1
  O  O26  1  0.70646554  0.26911271  0.36243874  1
  O  O27  1  0.73792601  0.73792601  0.30497359  1
  O  O28  1  0.26425351  0.26425351  0.47491607  1
  O  O29  1  0.28693592  0.73971767  0.41314046  1
  O  O30  1  0.25299288  0.71508556  0.47664220  1
  O  O31  1  0.26321944  0.26321944  0.52460820  1
  O  O32  1  0.73206381  0.73206381  0.36453442  1
  O  O33  1  0.73971767  0.28693592  0.41314046  1
  O  O34  1  0.71508556  0.25299288  0.47664220  1
  O  O35  1  0.73343717  0.73343717  0.41640141  1
  O  O36  1  0.25667063  0.25667063  0.58567112  1
  O  O37  1  0.29216862  0.72975187  0.52671013  1
  O  O38  1  0.25467078  0.25467078  0.63368122  1
  O  O39  1  0.72975187  0.29216862  0.52671013  1
  O  O40  1  0.73546102  0.73546102  0.47665446  1
  O  O41  1  0.25825181  0.71095672  0.58178130  1
  O  O42  1  0.73284936  0.73284936  0.52736545  1
  O  O43  1  0.71095672  0.25825181  0.58178130  1
  O  O44  1  0.28949890  0.74287342  0.63983728  1
  O  O45  1  0.26622712  0.26622712  0.69564848  1
  O  O46  1  0.26114580  0.26114580  0.74546153  1
  O  O47  1  0.74287342  0.28949890  0.63983728  1
  O  O48  1  0.27003522  0.70665647  0.69582803  1
  O  O49  1  0.74597222  0.74597222  0.58844804  1
  O  O50  1  0.70665647  0.27003522  0.69582803  1
  O  O51  1  0.74227292  0.74227292  0.63670833  1
  O  O52  1  0.24839912  0.24839912  0.81086950  1
  O  O53  1  0.29110317  0.74766491  0.74518599  1
  O  O54  1  0.26043426  0.26043426  0.85719469  1
  O  O55  1  0.73956574  0.73956574  0.69836131  1
  O  O56  1  0.25233509  0.70889683  0.81036901  1
  O  O57  1  0.74766491  0.29110317  0.74518599  1
  O  O58  1  0.70889683  0.25233509  0.81036901  1
  O  O59  1  0.75160088  0.75160088  0.74468550  1
  O  O60  1  0.25772708  0.25772708  0.91884667  1
  O  O61  1  0.29334353  0.72996478  0.85972697  1
  O  O62  1  0.25712658  0.71050110  0.91571772  1
  O  O63  1  0.25402778  0.25402778  0.96710796  1
  O  O64  1  0.72996478  0.29334353  0.85972697  1
  O  O65  1  0.73885420  0.73885420  0.81009447  1
  O  O66  1  0.71050110  0.25712658  0.91571772  1
  O  O67  1  0.73377288  0.73377288  0.85990652  1
  O  O68  1  0.28904328  0.74174819  0.97377370  1
  O  O69  1  0.74174819  0.28904328  0.97377370  1
  O  O70  1  0.74532922  0.74532922  0.92187478  1
  O  O71  1  0.74332937  0.74332937  0.96988388  1
loop_
_geom_bond_atom_site_label_1
_geom_bond_atom_site_label_2
_geom_bond_distance
_geom_bond_site_symmetry_2
Li0 O63 1.933264 1_554
Li0 O3 2.027777 1_455
Li0 O2 2.027777 1_545
Li0 O0 2.034985 1_555
Li1 O5 1.933571 1_555
Li1 O11 1.984088 1_455
Li1 O8 1.984088 1_545
Li1 O1 2.023321 1_555
Li2 O7 1.924806 1_555
Li2 O12 1.958949 1_555
Li2 O18 1.982982 1_455
Li2 O17 1.982982 1_545
Li3 O4 1.973853 1_655
Li3 O6 1.973853 1_565
Li3 O15 1.992728 1_555
Li3 O10 1.998531 1_555
Li4 O21 1.954389 1_555
Li4 O16 1.959404 1_555
Li4 O26 2.021369 1_455
Li4 O24 2.021369 1_545
Li5 O34 1.973855 1_455
Li5 O30 1.973855 1_545
Li5 O22 1.992728 1_555
Li5 O28 1.998575 1_555
Li6 O19 1.954346 1_555
Li6 O25 1.959404 1_555
Li6 O13 2.021369 1_655
Li6 O14 2.021369 1_565
Li7 O32 1.924806 1_555
Li7 O27 1.958905 1_555
Li7 O20 1.982985 1_655
Li7 O23 1.982985 1_565
Li8 O43 1.949222 1_455
Li8 O41 1.949222 1_545
Li8 O31 1.993475 1_555
Li8 O36 2.011752 1_555
Li9 O35 1.933571 1_555
Li9 O29 1.984088 1_655
Li9 O33 1.984088 1_565
Li9 O40 2.023321 1_555
Li10 O38 1.964736 1_555
Li10 O50 2.019465 1_455
Li10 O48 2.019465 1_545
Li10 O45 2.060295 1_555
Li11 O38 2.025119 1_555
Li11 O49 2.029912 1_555
Li11 O47 2.106115 1_555
Li11 O44 2.106115 1_555
Li11 O41 2.145686 1_555
Li11 O43 2.145686 1_555
Li12 O49 1.933264 1_555
Li12 O37 2.027777 1_655
Li12 O39 2.027777 1_565
Li12 O42 2.034985 1_555
Li13 O58 1.963225 1_455
Li13 O56 1.963225 1_545
Li13 O52 1.973196 1_555
Li13 O46 2.115619 1_555
Li14 O44 1.937003 1_655
Li14 O47 1.937003 1_565
Li14 O55 2.030267 1_555
Li14 O51 2.033702 1_555
Li15 O52 2.078576 1_555
Li15 O59 2.078583 1_555
Li15 O56 2.120138 1_555
Li15 O58 2.120138 1_555
Li15 O57 2.120179 1_555
Li15 O53 2.120179 1_555
Li16 O66 1.937007 1_455
Li16 O62 1.937007 1_545
Li16 O54 2.030267 1_555
Li16 O60 2.033659 1_555
Li17 O53 1.963226 1_655
Li17 O57 1.963226 1_565
Li17 O59 1.973241 1_555
Li17 O65 2.115619 1_555
Li18 O70 2.025126 1_555
Li18 O63 2.029906 1_555
Li18 O62 2.106115 1_555
Li18 O66 2.106115 1_555
Li18 O69 2.145686 1_555
Li18 O68 2.145686 1_555
Li19 O70 1.964736 1_555
Li19 O61 2.019467 1_655
Li19 O64 2.019467 1_565
Li19 O67 2.060339 1_555
Li20 O68 1.949222 1_655
Li20 O69 1.949222 1_565
Li20 O9 1.993475 1_556
Li20 O71 2.011752 1_555
Mn0 O6 1.930425 1_455
Mn0 O2 1.958401 1_555
Mn0 O0 1.970563 1_555
Mn0 O10 1.989740 1_455
Mn0 O9 2.009382 1_455
Mn0 O1 2.023636 1_555
Mn1 O4 1.930425 1_545
Mn1 O3 1.958401 1_555
Mn1 O0 1.970563 1_555
Mn1 O10 1.989740 1_545
Mn1 O9 2.009382 1_545
Mn1 O1 2.023636 1_555
Mn2 O69 1.819046 1_554
Mn2 O68 1.819046 1_554
Mn2 O71 1.943547 1_554
Mn2 O0 1.968752 1_555
Mn2 O2 2.031552 1_555
Mn2 O3 2.031552 1_555
Mn3 O9 1.931687 1_555
Mn3 O2 1.940709 1_555
Mn3 O3 1.940709 1_555
Mn3 O1 1.943876 1_555
Mn3 O6 1.956599 1_555
Mn3 O4 1.956599 1_555
Mn4 O8 1.927459 1_555
Mn4 O14 1.974427 1_455
Mn4 O19 2.035286 1_455
Mn4 O7 2.037711 1_555
Mn4 O5 2.038383 1_555
Mn4 O15 2.055356 1_455
Mn5 O5 1.900973 1_555
Mn5 O10 1.956568 1_555
Mn5 O6 2.096402 1_555
Mn5 O4 2.096402 1_555
Mn5 O8 2.117330 1_555
Mn5 O11 2.117330 1_555
Mn6 O7 1.901713 1_555
Mn6 O15 1.918609 1_555
Mn6 O8 1.927535 1_555
Mn6 O11 1.927535 1_555
Mn6 O14 1.968909 1_555
Mn6 O13 1.968909 1_555
Mn7 O17 1.931930 1_555
Mn7 O23 1.931930 1_455
Mn7 O16 2.020048 1_555
Mn7 O25 2.020084 1_455
Mn7 O12 2.027567 1_555
Mn7 O27 2.027567 1_455
Mn8 O11 1.927459 1_555
Mn8 O13 1.974427 1_545
Mn8 O19 2.035286 1_545
Mn8 O7 2.037711 1_555
Mn8 O5 2.038383 1_555
Mn8 O15 2.055356 1_545
Mn9 O19 1.908495 1_555
Mn9 O17 1.921872 1_555
Mn9 O18 1.921872 1_555
Mn9 O12 1.933703 1_555
Mn9 O14 1.964483 1_555
Mn9 O13 1.964483 1_555
Mn10 O25 1.908942 1_555
Mn10 O16 1.908946 1_555
Mn10 O17 2.114977 1_555
Mn10 O23 2.114977 1_555
Mn10 O18 2.114977 1_555
Mn10 O20 2.114977 1_555
Mn11 O33 1.927459 1_455
Mn11 O24 1.974427 1_555
Mn11 O21 2.035286 1_555
Mn11 O32 2.037747 1_455
Mn11 O35 2.038383 1_455
Mn11 O22 2.055319 1_555
Mn12 O21 1.908497 1_555
Mn12 O23 1.921835 1_555
Mn12 O20 1.921835 1_555
Mn12 O27 1.933700 1_555
Mn12 O24 1.964523 1_555
Mn12 O26 1.964523 1_555
Mn13 O18 1.931930 1_555
Mn13 O20 1.931930 1_545
Mn13 O16 2.020048 1_555
Mn13 O25 2.020085 1_545
Mn13 O12 2.027567 1_555
Mn13 O27 2.027567 1_545
Mn14 O32 1.901711 1_555
Mn14 O22 1.918611 1_555
Mn14 O33 1.927535 1_555
Mn14 O29 1.927535 1_555
Mn14 O24 1.968909 1_555
Mn14 O26 1.968909 1_555
Mn15 O30 1.930425 1_655
Mn15 O39 1.958401 1_555
Mn15 O42 1.970563 1_555
Mn15 O28 1.989740 1_655
Mn15 O31 2.009346 1_655
Mn15 O40 2.023636 1_555
Mn16 O29 1.927459 1_545
Mn16 O26 1.974427 1_555
Mn16 O21 2.035286 1_555
Mn16 O32 2.037747 1_545
Mn16 O35 2.038383 1_545
Mn16 O22 2.055320 1_555
Mn17 O34 1.930425 1_565
Mn17 O37 1.958401 1_555
Mn17 O42 1.970563 1_555
Mn17 O28 1.989740 1_565
Mn17 O31 2.009346 1_565
Mn17 O40 2.023636 1_555
Mn18 O35 1.900968 1_555
Mn18 O28 1.956573 1_555
Mn18 O30 2.096443 1_555
Mn18 O34 2.096443 1_555
Mn18 O33 2.117289 1_555
Mn18 O29 2.117289 1_555
Mn19 O31 1.931691 1_555
Mn19 O39 1.940709 1_555
Mn19 O37 1.940709 1_555
Mn19 O40 1.943876 1_555
Mn19 O30 1.956599 1_555
Mn19 O34 1.956599 1_555
Mn20 O47 1.912851 1_555
Mn20 O38 1.928197 1_655
Mn20 O49 1.928895 1_555
Mn20 O41 1.946814 1_655
Mn20 O36 1.984419 1_655
Mn20 O51 1.986212 1_555
Mn21 O44 1.912851 1_555
Mn21 O38 1.928197 1_565
Mn21 O49 1.928895 1_555
Mn21 O43 1.946814 1_565
Mn21 O36 1.984419 1_565
Mn21 O51 1.986212 1_555
Mn22 O41 1.819010 1_555
Mn22 O43 1.819010 1_555
Mn22 O36 1.943544 1_555
Mn22 O42 1.968752 1_555
Mn22 O39 2.031552 1_555
Mn22 O37 2.031552 1_555
Mn23 O57 1.890921 1_455
Mn23 O59 1.903252 1_455
Mn23 O48 1.968860 1_555
Mn23 O55 1.976645 1_455
Mn23 O46 1.998588 1_555
Mn23 O45 1.999832 1_555
Mn24 O47 1.876947 1_555
Mn24 O44 1.876947 1_555
Mn24 O45 1.945288 1_555
Mn24 O51 1.967130 1_555
Mn24 O48 1.997957 1_555
Mn24 O50 1.997957 1_555
Mn25 O53 1.890921 1_545
Mn25 O59 1.903252 1_545
Mn25 O50 1.968860 1_555
Mn25 O55 1.976645 1_545
Mn25 O46 1.998588 1_555
Mn25 O45 1.999832 1_555
Mn26 O57 1.905454 1_555
Mn26 O53 1.905454 1_555
Mn26 O55 1.957754 1_555
Mn26 O48 1.973124 1_555
Mn26 O50 1.973124 1_555
Mn26 O46 1.974273 1_555
Mn27 O56 1.890921 1_555
Mn27 O52 1.903252 1_555
Mn27 O64 1.968860 1_455
Mn27 O54 1.976681 1_555
Mn27 O65 1.998553 1_455
Mn27 O67 1.999832 1_455
Mn28 O56 1.905454 1_555
Mn28 O58 1.905454 1_555
Mn28 O54 1.957751 1_555
Mn28 O64 1.973124 1_555
Mn28 O61 1.973124 1_555
Mn28 O65 1.974278 1_555
Mn29 O62 1.912851 1_555
Mn29 O70 1.928163 1_455
Mn29 O63 1.928929 1_555
Mn29 O69 1.946814 1_455
Mn29 O71 1.984419 1_455
Mn29 O60 1.986212 1_555
Mn30 O58 1.890921 1_555
Mn30 O52 1.903252 1_555
Mn30 O61 1.968860 1_545
Mn30 O54 1.976681 1_555
Mn30 O65 1.998553 1_545
Mn30 O67 1.999832 1_545
Mn31 O66 1.912851 1_555
Mn31 O70 1.928163 1_545
Mn31 O63 1.928929 1_555
Mn31 O68 1.946814 1_545
Mn31 O71 1.984419 1_545
Mn31 O60 1.986212 1_555
Mn32 O62 1.876910 1_555
Mn32 O66 1.876910 1_555
Mn32 O67 1.945293 1_555
Mn32 O60 1.967126 1_555
Mn32 O64 1.997998 1_555
Mn32 O61 1.997998 1_555
