# generated using pymatgen
data_Re2RuBr
_symmetry_space_group_name_H-M   'P 1'
_cell_length_a   4.43585196
_cell_length_b   4.43585196
_cell_length_c   4.43585196
_cell_angle_alpha   60.00000000
_cell_angle_beta   60.00000000
_cell_angle_gamma   60.00000000
_symmetry_Int_Tables_number   1
_chemical_formula_structural   Re2RuBr
_chemical_formula_sum   'Re2 Ru1 Br1'
_cell_volume   61.71860950
_cell_formula_units_Z   1
loop_
 _symmetry_equiv_pos_site_id
 _symmetry_equiv_pos_as_xyz
  1  'x, y, z'
loop_
 _atom_site_type_symbol
 _atom_site_label
 _atom_site_symmetry_multiplicity
 _atom_site_fract_x
 _atom_site_fract_y
 _atom_site_fract_z
 _atom_site_occupancy
  Re  Re0  1  0.25000000  0.25000000  0.25000000  1
  Re  Re1  1  0.75000000  0.75000000  0.75000000  1
  Ru  Ru0  1  0.50000000  0.50000000  0.50000000  1
  Br  Br0  1  0.00000000  0.00000000  0.00000000  1
loop_
_geom_bond_atom_site_label_1
_geom_bond_atom_site_label_2
_geom_bond_distance
_geom_bond_site_symmetry_2
Re0 Ru0 2.716393 1_545
Re0 Ru0 2.716393 1_555
Re0 Ru0 2.716393 1_455
Re0 Ru0 2.716393 1_554
Re1 Ru0 2.716393 1_556
Re1 Ru0 2.716393 1_565
Re1 Ru0 2.716393 1_555
Re1 Ru0 2.716393 1_655
Br0 Re1 2.716393 1_544
Br0 Re1 2.716393 1_444
Br0 Re1 2.716393 1_445
Br0 Re1 2.716393 1_454
Br0 Re0 2.716393 1_545
Br0 Re0 2.716393 1_455
Br0 Re0 2.716393 1_555
Br0 Re0 2.716393 1_554
Br0 Ru0 3.136621 1_445
Br0 Ru0 3.136621 1_455
Br0 Ru0 3.136621 1_554
Br0 Ru0 3.136621 1_454
Br0 Ru0 3.136621 1_544
Br0 Ru0 3.136621 1_545
