# generated using pymatgen
data_K2CoH4(SeO5)2
_symmetry_space_group_name_H-M   'P 1'
_cell_length_a   8.03382483
_cell_length_b   15.23730909
_cell_length_c   9.02110826
_cell_angle_alpha   92.49570060
_cell_angle_beta   110.33067127
_cell_angle_gamma   99.52481947
_symmetry_Int_Tables_number   1
_chemical_formula_structural   K2CoH4(SeO5)2
_chemical_formula_sum   'K8 Co4 H16 Se8 O40'
_cell_volume   1015.12477010
_cell_formula_units_Z   4
loop_
 _symmetry_equiv_pos_site_id
 _symmetry_equiv_pos_as_xyz
  1  'x, y, z'
loop_
 _atom_site_type_symbol
 _atom_site_label
 _atom_site_symmetry_multiplicity
 _atom_site_fract_x
 _atom_site_fract_y
 _atom_site_fract_z
 _atom_site_occupancy
  K  K0  1  0.66362100  0.17463100  0.92436300  1
  K  K1  1  0.16363400  0.42477600  0.42435600  1
  K  K2  1  0.66368100  0.67474700  0.92434700  1
  K  K3  1  0.16382600  0.92484300  0.42440100  1
  K  K4  1  0.83647900  0.07522800  0.57585000  1
  K  K5  1  0.33611400  0.32519800  0.07537200  1
  K  K6  1  0.83629700  0.57526700  0.57564900  1
  K  K7  1  0.33635400  0.82531100  0.07566700  1
  Co  Co0  1  0.00018900  0.50003200  0.00011200  1
  Co  Co1  1  0.49980500  0.74998900  0.49990600  1
  Co  Co2  1  0.99996700  0.00005800  0.00003400  1
  Co  Co3  1  0.50002600  0.24991200  0.49993500  1
  H  H0  1  0.69507900  0.26878200  0.31162700  1
  H  H1  1  0.19472000  0.51874000  0.81181400  1
  H  H2  1  0.69467900  0.76874300  0.31173300  1
  H  H3  1  0.19518700  0.01876700  0.81159800  1
  H  H4  1  0.80488600  0.98123400  0.18841900  1
  H  H5  1  0.30484100  0.23121000  0.68835700  1
  H  H6  1  0.80530900  0.48125800  0.18827000  1
  H  H7  1  0.30531000  0.73127000  0.68819100  1
  H  H8  1  0.23406500  0.10344300  0.92856100  1
  H  H9  1  0.73405300  0.35348700  0.42863900  1
  H  H10  1  0.23414400  0.60354400  0.92895700  1
  H  H11  1  0.73391800  0.85355800  0.42877800  1
  H  H12  1  0.26583700  0.14649400  0.57140200  1
  H  H13  1  0.76606300  0.39645100  0.07119800  1
  H  H14  1  0.26586300  0.64645800  0.57104600  1
  H  H15  1  0.76605500  0.89656800  0.07142600  1
  Se  Se0  1  0.44978600  0.07130800  0.22321500  1
  Se  Se1  1  0.94972800  0.32142400  0.72320900  1
  Se  Se2  1  0.44961300  0.57146000  0.22311500  1
  Se  Se3  1  0.94942500  0.82151700  0.72301100  1
  Se  Se4  1  0.05024400  0.17859800  0.27680900  1
  Se  Se5  1  0.55055500  0.42854200  0.77700700  1
  Se  Se6  1  0.05039300  0.67854600  0.27689300  1
  Se  Se7  1  0.55025200  0.92861100  0.77673900  1
  O  O0  1  0.25735900  0.99238100  0.17004800  1
  O  O1  1  0.75714900  0.24250300  0.66981600  1
  O  O2  1  0.25676500  0.49267000  0.16901200  1
  O  O3  1  0.75654200  0.74279800  0.66904800  1
  O  O4  1  0.24267200  0.25753200  0.33013700  1
  O  O5  1  0.74347200  0.50723900  0.83102700  1
  O  O6  1  0.24326400  0.75732600  0.33100700  1
  O  O7  1  0.74277000  0.00754600  0.82988700  1
  O  O8  1  0.49054700  0.11879200  0.40845400  1
  O  O9  1  0.99067400  0.36869400  0.90840400  1
  O  O10  1  0.49070100  0.61860500  0.40838600  1
  O  O11  1  0.99027600  0.86895600  0.90833400  1
  O  O12  1  0.00949300  0.13108000  0.09157000  1
  O  O13  1  0.50972000  0.38118100  0.59164600  1
  O  O14  1  0.00930400  0.63140500  0.09162700  1
  O  O15  1  0.50928300  0.88128400  0.59157700  1
  O  O16  1  0.42675900  0.14772500  0.09255400  1
  O  O17  1  0.92677100  0.39781700  0.59241400  1
  O  O18  1  0.42694800  0.64788500  0.09240200  1
  O  O19  1  0.92681500  0.89790200  0.59229400  1
  O  O20  1  0.07316700  0.10221100  0.40751700  1
  O  O21  1  0.57315600  0.35209300  0.90762700  1
  O  O22  1  0.07307600  0.60212400  0.40762100  1
  O  O23  1  0.57331800  0.85224600  0.90757300  1
  O  O24  1  0.61806600  0.01880800  0.23373100  1
  O  O25  1  0.11782500  0.26876600  0.73355100  1
  O  O26  1  0.61747000  0.51861000  0.23355700  1
  O  O27  1  0.11728300  0.76870700  0.73359900  1
  O  O28  1  0.88203300  0.23117300  0.26614900  1
  O  O29  1  0.38267900  0.48132200  0.76651500  1
  O  O30  1  0.88254200  0.73138700  0.26647300  1
  O  O31  1  0.38209900  0.98122500  0.76643000  1
  O  O32  1  0.13166900  0.05992000  0.84915000  1
  O  O33  1  0.63162000  0.30989200  0.34930800  1
  O  O34  1  0.13165600  0.55988600  0.84985200  1
  O  O35  1  0.63150700  0.80982000  0.34977900  1
  O  O36  1  0.36828500  0.19010800  0.65063300  1
  O  O37  1  0.86846900  0.44016600  0.15024600  1
  O  O38  1  0.36835600  0.69011300  0.65013500  1
  O  O39  1  0.86844100  0.94010000  0.15090200  1
loop_
_geom_bond_atom_site_label_1
_geom_bond_atom_site_label_2
_geom_bond_distance
_geom_bond_site_symmetry_2
K0 O16 2.809535 1_556
K0 O36 2.819138 1_555
K0 O1 2.838255 1_555
K0 O12 2.867336 1_656
K0 O7 2.887182 1_555
K0 O21 2.910766 1_555
K0 O28 2.972673 1_556
K0 O31 3.319528 1_545
K1 O17 2.808651 1_455
K1 O37 2.820051 1_455
K1 O2 2.843421 1_555
K1 O13 2.869181 1_555
K1 O4 2.888187 1_555
K1 O22 2.909365 1_555
K1 O29 2.976366 1_555
K1 O28 3.322424 1_455
K2 O18 2.807666 1_556
K2 O38 2.821204 1_555
K2 O3 2.842851 1_555
K2 O14 2.864499 1_656
K2 O5 2.891983 1_555
K2 O23 2.911000 1_555
K2 O30 2.976062 1_556
K2 O29 3.317999 1_555
K3 O19 2.808472 1_455
K3 O39 2.817258 1_455
K3 O0 2.834862 1_555
K3 O15 2.864582 1_555
K3 O6 2.890999 1_555
K3 O20 2.909982 1_565
K3 O31 2.973909 1_555
K3 O30 3.319361 1_455
K4 O20 2.809429 1_655
K4 O32 2.815543 1_655
K4 O7 2.833714 1_555
K4 O8 2.868156 1_555
K4 O1 2.888956 1_555
K4 O19 2.908337 1_545
K4 O24 2.974864 1_555
K4 O25 3.320184 1_655
K5 O21 2.807598 1_554
K5 O33 2.820303 1_555
K5 O4 2.838608 1_555
K5 O9 2.863697 1_454
K5 O2 2.890775 1_555
K5 O16 2.911511 1_555
K5 O25 2.972506 1_554
K5 O26 3.319434 1_555
K6 O22 2.807782 1_655
K6 O34 2.821366 1_655
K6 O5 2.843240 1_555
K6 O10 2.864264 1_555
K6 O3 2.892400 1_555
K6 O17 2.910617 1_555
K6 O26 2.975799 1_555
K6 O27 3.318287 1_655
K7 O23 2.809566 1_554
K7 O35 2.820409 1_555
K7 O6 2.843722 1_555
K7 O11 2.869521 1_454
K7 O0 2.886110 1_555
K7 O18 2.910632 1_555
K7 O27 2.975862 1_554
K7 O24 3.321346 1_565
Co0 O9 2.111036 1_454
Co0 O14 2.111768 1_555
Co0 O2 2.119446 1_555
Co0 O5 2.120336 1_454
Co0 O34 2.137384 1_554
Co0 O37 2.137824 1_455
Co1 O15 2.110394 1_555
Co1 O10 2.111962 1_555
Co1 O6 2.119143 1_555
Co1 O3 2.120592 1_555
Co1 O38 2.137185 1_555
Co1 O35 2.137481 1_555
Co2 O12 2.106035 1_655
Co2 O11 2.107323 1_544
Co2 O7 2.127890 1_554
Co2 O0 2.129279 1_645
Co2 O39 2.142803 1_545
Co2 O32 2.143288 1_654
Co3 O8 2.107346 1_555
Co3 O13 2.109704 1_555
Co3 O1 2.126234 1_555
Co3 O4 2.128092 1_555
Co3 O33 2.141486 1_555
Co3 O36 2.141777 1_555
H0 O33 0.987631 1_555
H1 O34 0.987271 1_555
H2 O35 0.987208 1_555
H3 O32 0.987868 1_555
H4 O39 0.987728 1_555
H5 O36 0.987648 1_555
H6 O37 0.987198 1_555
H7 O38 0.987363 1_555
H8 O32 0.999146 1_555
H8 O16 1.736772 1_556
H9 O33 0.999539 1_555
H9 O17 1.735992 1_555
H10 O34 0.999407 1_555
H10 O18 1.734836 1_556
H11 O35 0.999347 1_555
H11 O19 1.735578 1_555
H12 O36 0.999378 1_555
H12 O20 1.736161 1_555
H13 O37 0.999329 1_555
H13 O21 1.735924 1_554
H14 O38 0.999346 1_555
H14 O22 1.734647 1_555
H15 O39 0.999413 1_555
H15 O23 1.736417 1_554
O0 Se0 1.698676 1_565
O1 Se1 1.699344 1_555
O2 Se2 1.699363 1_555
O3 Se3 1.699048 1_555
O4 Se4 1.698646 1_555
O5 Se5 1.699024 1_555
O6 Se6 1.699402 1_555
O7 Se7 1.699261 1_545
O8 Se0 1.690922 1_555
O9 Se1 1.689089 1_555
O10 Se2 1.688791 1_555
O11 Se3 1.691205 1_555
O12 Se4 1.691123 1_555
O13 Se5 1.691124 1_555
O14 Se6 1.688727 1_555
O15 Se7 1.689085 1_555
O16 Se0 1.678890 1_555
O17 Se1 1.679469 1_555
O18 Se2 1.679364 1_555
O19 Se3 1.678946 1_555
O20 Se4 1.678861 1_555
O21 Se5 1.679063 1_555
O22 Se6 1.679421 1_555
O23 Se7 1.679379 1_555
O24 Se0 1.658934 1_555
O25 Se1 1.659463 1_455
O26 Se2 1.659412 1_555
O27 Se3 1.658771 1_455
O28 Se4 1.658892 1_655
O29 Se5 1.658789 1_555
O30 Se6 1.659325 1_655
O31 Se7 1.659502 1_555
