# generated using pymatgen
data_Cu13I15
_symmetry_space_group_name_H-M   'P 1'
_cell_length_a   4.23802723
_cell_length_b   4.23802723
_cell_length_c   52.69698366
_cell_angle_alpha   89.77947917
_cell_angle_beta   89.77947917
_cell_angle_gamma   60.23672105
_symmetry_Int_Tables_number   1
_chemical_formula_structural   Cu13I15
_chemical_formula_sum   'Cu13 I15'
_cell_volume   821.61921896
_cell_formula_units_Z   1
loop_
 _symmetry_equiv_pos_site_id
 _symmetry_equiv_pos_as_xyz
  1  'x, y, z'
loop_
 _atom_site_type_symbol
 _atom_site_label
 _atom_site_symmetry_multiplicity
 _atom_site_fract_x
 _atom_site_fract_y
 _atom_site_fract_z
 _atom_site_occupancy
  Cu  Cu0  1  0.66731200  0.66731200  0.91860600  1
  Cu  Cu1  1  0.02394100  0.02394100  0.84782400  1
  Cu  Cu2  1  0.68965400  0.68965400  0.71675100  1
  Cu  Cu3  1  0.02434800  0.02434800  0.64866600  1
  Cu  Cu4  1  0.35850600  0.35850600  0.58186400  1
  Cu  Cu5  1  0.69226600  0.69226600  0.51519400  1
  Cu  Cu6  1  0.02524600  0.02524600  0.44849500  1
  Cu  Cu7  1  0.35893100  0.35893100  0.38179500  1
  Cu  Cu8  1  0.69194800  0.69194800  0.31514100  1
  Cu  Cu9  1  0.02537300  0.02537300  0.24851700  1
  Cu  Cu10  1  0.35896300  0.35896300  0.18194300  1
  Cu  Cu11  1  0.69185000  0.69185000  0.11508200  1
  Cu  Cu12  1  0.02637800  0.02637800  0.04678400  1
  I  I0  1  0.00650400  0.00650400  0.00019500  1
  I  I1  1  0.33295300  0.33295300  0.93527100  1
  I  I2  1  0.68344900  0.68344900  0.86814400  1
  I  I3  1  0.35436200  0.35436200  0.73237300  1
  I  I4  1  0.00821900  0.00821900  0.80102600  1
  I  I5  1  0.68893100  0.68893100  0.66546800  1
  I  I6  1  0.68907900  0.68907900  0.46569500  1
  I  I7  1  0.02257500  0.02257500  0.39905900  1
  I  I8  1  0.02262800  0.02262800  0.59879900  1
  I  I9  1  0.35613900  0.35613900  0.53227900  1
  I  I10  1  0.35558600  0.35558600  0.33241800  1
  I  I11  1  0.68897900  0.68897900  0.26582700  1
  I  I12  1  0.35506200  0.35506200  0.13284400  1
  I  I13  1  0.02239200  0.02239200  0.19929500  1
  I  I14  1  0.68775500  0.68775500  0.06637900  1
loop_
_geom_bond_atom_site_label_1
_geom_bond_atom_site_label_2
_geom_bond_distance
_geom_bond_site_symmetry_2
Cu0 I1 2.600296 1_555
Cu0 I1 2.603450 1_565
Cu0 I1 2.603450 1_655
Cu0 I2 2.661300 1_555
Cu1 I4 2.469318 1_555
Cu1 I2 2.654770 1_455
Cu1 I2 2.654770 1_545
Cu1 I2 2.711970 1_445
Cu2 I3 2.582097 1_565
Cu2 I3 2.582097 1_655
Cu2 I3 2.588969 1_555
Cu2 I5 2.702488 1_555
Cu3 I5 2.602291 1_455
Cu3 I5 2.602291 1_545
Cu3 I5 2.610009 1_445
Cu3 I8 2.627927 1_555
Cu4 I8 2.603129 1_565
Cu4 I8 2.603129 1_655
Cu4 I9 2.613115 1_555
Cu4 I8 2.615542 1_555
Cu5 I9 2.605021 1_565
Cu5 I9 2.605021 1_655
Cu5 I6 2.608657 1_555
Cu5 I9 2.619931 1_555
Cu6 I7 2.605289 1_555
Cu6 I6 2.606998 1_455
Cu6 I6 2.606998 1_545
Cu6 I6 2.622270 1_445
Cu7 I10 2.602244 1_555
Cu7 I7 2.607540 1_655
Cu7 I7 2.607540 1_565
Cu7 I7 2.624723 1_555
Cu8 I11 2.598887 1_555
Cu8 I10 2.607760 1_565
Cu8 I10 2.607760 1_655
Cu8 I10 2.624999 1_555
Cu9 I13 2.594040 1_555
Cu9 I11 2.608263 1_455
Cu9 I11 2.608263 1_545
Cu9 I11 2.625815 1_445
Cu10 I12 2.587655 1_555
Cu10 I13 2.608444 1_565
Cu10 I13 2.608444 1_655
Cu10 I13 2.627792 1_555
Cu11 I14 2.566810 1_555
Cu11 I12 2.615409 1_565
Cu11 I12 2.615409 1_655
Cu11 I12 2.636786 1_555
Cu12 I0 2.460067 1_555
Cu12 I14 2.645639 1_455
Cu12 I14 2.645639 1_545
Cu12 I14 2.684617 1_445
