# generated using pymatgen
data_Al(HO)3
_symmetry_space_group_name_H-M   'P 1'
_cell_length_a   5.18167600
_cell_length_b   8.59706127
_cell_length_c   9.49889255
_cell_angle_alpha   89.03623213
_cell_angle_beta   89.91596441
_cell_angle_gamma   89.88516926
_symmetry_Int_Tables_number   1
_chemical_formula_structural   Al(HO)3
_chemical_formula_sum   'Al8 H24 O24'
_cell_volume   423.08778697
_cell_formula_units_Z   8
loop_
 _symmetry_equiv_pos_site_id
 _symmetry_equiv_pos_as_xyz
  1  'x, y, z'
loop_
 _atom_site_type_symbol
 _atom_site_label
 _atom_site_symmetry_multiplicity
 _atom_site_fract_x
 _atom_site_fract_y
 _atom_site_fract_z
 _atom_site_occupancy
  Al  Al0  1  0.98711800  0.33859200  0.50575300  1
  Al  Al1  1  0.50909500  0.81765400  0.01516900  1
  Al  Al2  1  0.99579100  0.68491400  0.48373100  1
  Al  Al3  1  0.48542500  0.16174200  0.00122500  1
  Al  Al4  1  0.51042400  0.16609300  0.50701500  1
  Al  Al5  1  0.99975700  0.68390100  0.00665800  1
  Al  Al6  1  0.49346800  0.83399300  0.48690800  1
  Al  Al7  1  0.97609900  0.32347600  0.99516300  1
  H  H0  1  0.38203800  0.41788700  0.61531300  1
  H  H1  1  0.19349200  0.81570400  0.23001100  1
  H  H2  1  0.69694200  0.68618700  0.27065500  1
  H  H3  1  0.84757100  0.06342400  0.88333000  1
  H  H4  1  0.91997200  0.92422600  0.59706900  1
  H  H5  1  0.67634400  0.31279700  0.20621900  1
  H  H6  1  0.10000600  0.05534500  0.40226600  1
  H  H7  1  0.16981100  0.17804100  0.27839100  1
  H  H8  1  0.32188500  0.68105000  0.80065900  1
  H  H9  1  0.38854900  0.99255700  0.70946500  1
  H  H10  1  0.12618200  0.48669900  0.22694400  1
  H  H11  1  0.34467800  0.47511000  0.10146800  1
  H  H12  1  0.61431600  0.01257400  0.28795500  1
  H  H13  1  0.67970500  0.51916200  0.90555500  1
  H  H14  1  0.89477200  0.51497600  0.70621200  1
  H  H15  1  0.81523600  0.98201700  0.12195100  1
  H  H16  1  0.31766900  0.52449500  0.38670400  1
  H  H17  1  0.18302300  0.96582500  0.88904800  1
  H  H18  1  0.80318300  0.19334300  0.71293100  1
  H  H19  1  0.28409600  0.30100600  0.79559400  1
  H  H20  1  0.51167500  0.60493700  0.61310600  1
  H  H21  1  0.14266900  0.04708700  0.12105000  1
  H  H22  1  0.63927700  0.44495700  0.38386400  1
  H  H23  1  0.82430300  0.82411600  0.78923000  1
  O  O0  1  0.30449400  0.31535100  0.60378200  1
  O  O1  1  0.19330600  0.82178800  0.11890400  1
  O  O2  1  0.68454400  0.67720400  0.38194100  1
  O  O3  1  0.79332700  0.17416800  0.88773700  1
  O  O4  1  0.82969700  0.82444300  0.60396200  1
  O  O5  1  0.66904300  0.31588400  0.10144900  1
  O  O6  1  0.15869300  0.16676500  0.38848400  1
  O  O7  1  0.32007500  0.67555400  0.90553800  1
  O  O8  1  0.37165500  0.99994800  0.60600700  1
  O  O9  1  0.15465900  0.48008300  0.11657600  1
  O  O10  1  0.63177200  0.01320000  0.39210600  1
  O  O11  1  0.86700700  0.50416400  0.89416200  1
  O  O12  1  0.87341100  0.51299400  0.60197400  1
  O  O13  1  0.62907800  0.99841600  0.11436600  1
  O  O14  1  0.13481700  0.49634800  0.37919700  1
  O  O15  1  0.36733200  0.98983100  0.89589100  1
  O  O16  1  0.81260100  0.18896100  0.60824300  1
  O  O17  1  0.70993000  0.68243600  0.11248500  1
  O  O18  1  0.19080200  0.82404200  0.38861700  1
  O  O19  1  0.28801300  0.30727500  0.89896400  1
  O  O20  1  0.35785600  0.67278900  0.60978900  1
  O  O21  1  0.17390200  0.16187600  0.11963200  1
  O  O22  1  0.68304100  0.33241200  0.38914300  1
  O  O23  1  0.83791800  0.84141100  0.89305100  1
loop_
_geom_bond_atom_site_label_1
_geom_bond_atom_site_label_2
_geom_bond_distance
_geom_bond_site_symmetry_2
Al0 O16 1.838550 1_555
Al0 O12 1.863208 1_555
Al0 O0 1.899584 1_655
Al0 O22 1.928675 1_555
Al0 O14 1.953681 1_655
Al0 O6 2.064112 1_655
Al1 O17 1.802958 1_555
Al1 O7 1.893873 1_554
Al1 O1 1.909439 1_555
Al1 O13 1.934998 1_555
Al1 O15 1.988971 1_554
Al1 O23 2.068339 1_554
Al2 O18 1.798277 1_655
Al2 O4 1.876958 1_555
Al2 O2 1.883480 1_555
Al2 O12 1.947814 1_555
Al2 O14 2.044579 1_655
Al2 O20 2.228459 1_655
Al3 O19 1.874092 1_554
Al3 O15 1.901315 1_544
Al3 O5 1.902055 1_555
Al3 O13 1.904742 1_545
Al3 O3 1.926328 1_554
Al3 O21 1.966067 1_555
Al4 O10 1.832328 1_555
Al4 O8 1.843473 1_545
Al4 O16 1.851195 1_555
Al4 O0 1.913472 1_555
Al4 O22 2.011585 1_555
Al4 O6 2.143638 1_555
Al5 O17 1.805895 1_555
Al5 O1 1.896914 1_655
Al5 O23 1.910598 1_554
Al5 O7 1.918283 1_654
Al5 O11 2.016105 1_554
Al5 O9 2.177154 1_655
Al6 O18 1.829254 1_555
Al6 O10 1.911539 1_565
Al6 O20 1.929757 1_555
Al6 O8 1.939692 1_555
Al6 O2 1.956605 1_555
Al6 O4 2.068920 1_555
Al7 O19 1.861631 1_655
Al7 O5 1.883753 1_556
Al7 O11 1.897611 1_555
Al7 O3 1.907258 1_555
Al7 O9 2.014743 1_656
Al7 O21 2.078726 1_656
H0 O0 0.977395 1_555
H1 O1 1.055811 1_555
H1 O18 1.509532 1_555
H2 O2 1.060478 1_555
H2 O17 1.504732 1_555
H3 O3 0.993696 1_555
H4 O4 0.979092 1_555
H5 O5 0.995879 1_555
H6 O6 1.011923 1_555
H7 O6 1.050128 1_555
H7 O21 1.516864 1_555
H8 O7 0.996591 1_555
H9 O8 0.987725 1_555
H10 O9 1.060950 1_555
H10 O14 1.450765 1_555
H11 O9 0.995749 1_555
H12 O10 0.993683 1_555
H13 O11 0.984856 1_555
H14 O12 0.996908 1_555
H15 O13 0.977168 1_555
H16 O14 0.981354 1_555
H17 O15 0.979961 1_555
H18 O16 0.996886 1_555
H19 O19 0.984524 1_555
H20 O20 0.986980 1_555
H21 O21 1.000215 1_555
H22 O22 0.993794 1_555
H23 O23 1.002409 1_555
