# generated using pymatgen
data_CdI2
_symmetry_space_group_name_H-M   'P 1'
_cell_length_a   4.34201450
_cell_length_b   4.34201450
_cell_length_c   103.16014500
_cell_angle_alpha   90.00000000
_cell_angle_beta   90.00000000
_cell_angle_gamma   120.00000755
_symmetry_Int_Tables_number   1
_chemical_formula_structural   CdI2
_chemical_formula_sum   'Cd14 I28'
_cell_volume   1684.32184203
_cell_formula_units_Z   14
loop_
 _symmetry_equiv_pos_site_id
 _symmetry_equiv_pos_as_xyz
  1  'x, y, z'
loop_
 _atom_site_type_symbol
 _atom_site_label
 _atom_site_symmetry_multiplicity
 _atom_site_fract_x
 _atom_site_fract_y
 _atom_site_fract_z
 _atom_site_occupancy
  Cd  Cd0  1  0.33333300  0.66666700  0.80357400  1
  Cd  Cd1  1  0.66666700  0.33333300  0.16071300  1
  Cd  Cd2  1  0.33333300  0.66666700  0.94643900  1
  Cd  Cd3  1  0.66666700  0.33333300  0.58928200  1
  Cd  Cd4  1  0.33333300  0.66666700  0.08928200  1
  Cd  Cd5  1  0.00000000  0.00000000  0.73214600  1
  Cd  Cd6  1  0.33333300  0.66666700  0.66071300  1
  Cd  Cd7  1  0.66666700  0.33333300  0.30357500  1
  Cd  Cd8  1  0.66666700  0.33333300  0.01784800  1
  Cd  Cd9  1  0.66666700  0.33333300  0.44644200  1
  Cd  Cd10  1  0.33333300  0.66666700  0.51784800  1
  Cd  Cd11  1  0.33333300  0.66666700  0.37499400  1
  Cd  Cd12  1  0.00000000  0.00000000  0.87499500  1
  Cd  Cd13  1  0.33333300  0.66666700  0.23214500  1
  I  I0  1  0.00000000  0.00000000  0.92967800  1
  I  I1  1  0.00000000  0.00000000  0.64395800  1
  I  I2  1  0.00000000  0.00000000  0.21538000  1
  I  I3  1  0.33333300  0.66666700  0.17746500  1
  I  I4  1  0.66666700  0.33333300  0.39173300  1
  I  I5  1  0.00000000  0.00000000  0.07254500  1
  I  I6  1  0.33333300  0.66666700  0.46318100  1
  I  I7  1  0.66666700  0.33333300  0.82032800  1
  I  I8  1  0.66666700  0.33333300  0.53460400  1
  I  I9  1  0.66666700  0.33333300  0.10604500  1
  I  I10  1  0.66666700  0.33333300  0.89173900  1
  I  I11  1  0.66666700  0.33333300  0.96318100  1
  I  I12  1  0.33333300  0.66666700  0.32033000  1
  I  I13  1  0.66666700  0.33333300  0.24889700  1
  I  I14  1  0.00000000  0.00000000  0.14395600  1
  I  I15  1  0.00000000  0.00000000  0.57254500  1
  I  I16  1  0.00000000  0.00000000  0.35823600  1
  I  I17  1  0.00000000  0.00000000  0.00111800  1
  I  I18  1  0.00000000  0.00000000  0.78680700  1
  I  I19  1  0.00000000  0.00000000  0.28680900  1
  I  I20  1  0.33333300  0.66666700  0.85825400  1
  I  I21  1  0.66666700  0.33333300  0.67746300  1
  I  I22  1  0.33333300  0.66666700  0.03460600  1
  I  I23  1  0.00000000  0.00000000  0.50111800  1
  I  I24  1  0.66666700  0.33333300  0.74890400  1
  I  I25  1  0.33333300  0.66666700  0.71539700  1
  I  I26  1  0.00000000  0.00000000  0.42968200  1
  I  I27  1  0.33333300  0.66666700  0.60604500  1
loop_
_geom_bond_atom_site_label_1
_geom_bond_atom_site_label_2
_geom_bond_distance
_geom_bond_site_symmetry_2
Cd0 I7 3.044918 1_455
Cd0 I7 3.044918 1_565
Cd0 I7 3.044925 1_555
Cd0 I18 3.045680 1_565
Cd0 I18 3.045683 1_665
Cd0 I18 3.045683 1_555
Cd1 I3 3.044801 1_545
Cd1 I3 3.044801 1_655
Cd1 I3 3.044807 1_555
Cd1 I14 3.045094 1_655
Cd1 I14 3.045097 1_665
Cd1 I14 3.045097 1_555
Cd2 I11 3.044216 1_455
Cd2 I11 3.044216 1_565
Cd2 I11 3.044222 1_555
Cd2 I0 3.045328 1_565
Cd2 I0 3.045331 1_555
Cd2 I0 3.045331 1_665
Cd3 I15 3.043923 1_655
Cd3 I15 3.043926 1_665
Cd3 I15 3.043926 1_555
Cd3 I27 3.045445 1_545
Cd3 I27 3.045445 1_655
Cd3 I27 3.045452 1_555
Cd4 I5 3.043923 1_565
Cd4 I5 3.043926 1_555
Cd4 I5 3.043926 1_665
Cd4 I9 3.045445 1_455
Cd4 I9 3.045445 1_565
Cd4 I9 3.045452 1_555
Cd5 I25 3.044626 1_545
Cd5 I25 3.044628 1_555
Cd5 I25 3.044628 1_445
Cd5 I24 3.045153 1_455
Cd5 I24 3.045155 1_445
Cd5 I24 3.045155 1_555
Cd6 I21 3.044684 1_455
Cd6 I21 3.044684 1_565
Cd6 I21 3.044690 1_555
Cd6 I1 3.044977 1_565
Cd6 I1 3.044980 1_555
Cd6 I1 3.044980 1_665
Cd7 I12 3.044977 1_545
Cd7 I12 3.044977 1_655
Cd7 I12 3.044983 1_555
Cd7 I19 3.045621 1_655
Cd7 I19 3.045624 1_665
Cd7 I19 3.045624 1_555
Cd8 I17 3.043514 1_655
Cd8 I17 3.043517 1_555
Cd8 I17 3.043517 1_665
Cd8 I22 3.045152 1_545
Cd8 I22 3.045152 1_655
Cd8 I22 3.045159 1_555
Cd9 I6 3.044040 1_655
Cd9 I6 3.044040 1_545
Cd9 I6 3.044046 1_555
Cd9 I26 3.045270 1_655
Cd9 I26 3.045273 1_665
Cd9 I26 3.045273 1_555
Cd10 I23 3.043514 1_565
Cd10 I23 3.043517 1_665
Cd10 I23 3.043517 1_555
Cd10 I8 3.045035 1_455
Cd10 I8 3.045035 1_565
Cd10 I8 3.045042 1_555
Cd11 I4 3.044040 1_455
Cd11 I4 3.044040 1_565
Cd11 I4 3.044046 1_555
Cd11 I16 3.045153 1_565
Cd11 I16 3.045155 1_555
Cd11 I16 3.045155 1_665
Cd12 I20 3.044157 1_545
Cd12 I20 3.044160 1_445
Cd12 I20 3.044160 1_555
Cd12 I10 3.044333 1_455
Cd12 I10 3.044336 1_445
Cd12 I10 3.044336 1_555
Cd13 I13 3.044801 1_455
Cd13 I13 3.044801 1_565
Cd13 I13 3.044807 1_555
Cd13 I2 3.045563 1_565
Cd13 I2 3.045565 1_555
Cd13 I2 3.045565 1_665
