# generated using pymatgen
data_Cs2Pd(ICl2)2
_symmetry_space_group_name_H-M   'P 1'
_cell_length_a   7.46227487
_cell_length_b   7.46227487
_cell_length_c   7.46227487
_cell_angle_alpha   111.55468507
_cell_angle_beta   111.55468507
_cell_angle_gamma   105.38013470
_symmetry_Int_Tables_number   1
_chemical_formula_structural   Cs2Pd(ICl2)2
_chemical_formula_sum   'Cs2 Pd1 I2 Cl4'
_cell_volume   318.67172247
_cell_formula_units_Z   1
loop_
 _symmetry_equiv_pos_site_id
 _symmetry_equiv_pos_as_xyz
  1  'x, y, z'
loop_
 _atom_site_type_symbol
 _atom_site_label
 _atom_site_symmetry_multiplicity
 _atom_site_fract_x
 _atom_site_fract_y
 _atom_site_fract_z
 _atom_site_occupancy
  Cs  Cs0  1  0.75000000  0.25000000  0.50000000  1
  Cs  Cs1  1  0.25000000  0.75000000  0.50000000  1
  Pd  Pd0  1  0.00000000  0.00000000  0.00000000  1
  I  I0  1  0.65776000  0.65776000  0.00000000  1
  I  I1  1  0.34224000  0.34224000  0.00000000  1
  Cl  Cl0  1  0.19668800  0.80331200  0.00000000  1
  Cl  Cl1  1  0.19668800  0.19668800  0.39337600  1
  Cl  Cl2  1  0.80331200  0.19668800  0.00000000  1
  Cl  Cl3  1  0.80331200  0.80331200  0.60662400  1
loop_
_geom_bond_atom_site_label_1
_geom_bond_atom_site_label_2
_geom_bond_distance
_geom_bond_site_symmetry_2
Cs0 I1 4.279006 1_656
Cs0 I1 4.279006 1_555
Cs0 I0 4.279006 1_556
Cs0 I0 4.279006 1_545
Cs1 I0 4.279006 1_455
Cs1 I1 4.279006 1_566
Cs1 I1 4.279006 1_555
Cs1 I0 4.279006 1_556
I0 I1 2.854245 1_555
I0 Pd0 3.095958 1_665
I1 Pd0 3.095958 1_555
Cl0 Pd0 2.334788 1_565
Cl0 Cs1 3.784425 1_555
Cl0 Cs1 3.784425 1_554
Cl0 Cs0 3.784425 1_565
Cl0 Cs0 3.784425 1_454
Cl1 Pd0 2.334788 1_555
Cl1 Cs0 3.784425 1_555
Cl1 Cs1 3.784425 1_555
Cl1 Cs1 3.784425 1_545
Cl1 Cs0 3.784425 1_455
Cl2 Pd0 2.334788 1_655
Cl2 Cs0 3.784425 1_555
Cl2 Cs0 3.784425 1_554
Cl2 Cs1 3.784425 1_544
Cl2 Cs1 3.784425 1_655
Cl3 Pd0 2.334788 1_666
Cl3 Cs1 3.784425 1_555
Cl3 Cs1 3.784425 1_655
Cl3 Cs0 3.784425 1_565
Cl3 Cs0 3.784425 1_555
