# generated using pymatgen
data_Rb2CuH4(C2O5)2
_symmetry_space_group_name_H-M   'P 1'
_cell_length_a   7.04898608
_cell_length_b   9.00767442
_cell_length_c   9.05867635
_cell_angle_alpha   107.82091545
_cell_angle_beta   97.95200552
_cell_angle_gamma   97.92191771
_symmetry_Int_Tables_number   1
_chemical_formula_structural   Rb2CuH4(C2O5)2
_chemical_formula_sum   'Rb4 Cu2 H8 C8 O20'
_cell_volume   532.32406910
_cell_formula_units_Z   2
loop_
 _symmetry_equiv_pos_site_id
 _symmetry_equiv_pos_as_xyz
  1  'x, y, z'
loop_
 _atom_site_type_symbol
 _atom_site_label
 _atom_site_symmetry_multiplicity
 _atom_site_fract_x
 _atom_site_fract_y
 _atom_site_fract_z
 _atom_site_occupancy
  Rb  Rb0  1  0.62872600  0.88079600  0.83244000  1
  Rb  Rb1  1  0.37127400  0.11920400  0.16756000  1
  Rb  Rb2  1  0.74391900  0.44978600  0.87169100  1
  Rb  Rb3  1  0.25608100  0.55021400  0.12830900  1
  Cu  Cu0  1  0.00000000  0.00000000  0.50000000  1
  Cu  Cu1  1  0.50000000  0.50000000  0.50000000  1
  H  H0  1  0.50267700  0.17210800  0.56198100  1
  H  H1  1  0.49732300  0.82789200  0.43801900  1
  H  H2  1  0.70554800  0.23099600  0.51466800  1
  H  H3  1  0.29445200  0.76900400  0.48533200  1
  H  H4  1  0.13765300  0.81784700  0.91750300  1
  H  H5  1  0.86234700  0.18215300  0.08249700  1
  H  H6  1  0.15206200  0.81204800  0.74465100  1
  H  H7  1  0.84793800  0.18795200  0.25534900  1
  C  C0  1  0.94355000  0.84898500  0.18159700  1
  C  C1  1  0.05645000  0.15101500  0.81840300  1
  C  C2  1  0.73704700  0.84339200  0.22400100  1
  C  C3  1  0.26295300  0.15660800  0.77599900  1
  C  C4  1  0.77835800  0.53496900  0.32460700  1
  C  C5  1  0.22164200  0.46503100  0.67539300  1
  C  C6  1  0.87145600  0.63392900  0.50037700  1
  C  C7  1  0.12854400  0.36607100  0.49962300  1
  O  O0  1  0.08754800  0.92393000  0.29680500  1
  O  O1  1  0.91245200  0.07607000  0.70319500  1
  O  O2  1  0.96089100  0.78140800  0.04194100  1
  O  O3  1  0.03910900  0.21859200  0.95805900  1
  O  O4  1  0.73497900  0.90900800  0.37274600  1
  O  O5  1  0.26502100  0.09099200  0.62725400  1
  O  O6  1  0.58840600  0.77775800  0.11972500  1
  O  O7  1  0.41159400  0.22224200  0.88027500  1
  O  O8  1  0.59889500  0.46360200  0.30147500  1
  O  O9  1  0.40110500  0.53639800  0.69852500  1
  O  O10  1  0.87474200  0.53099600  0.21845700  1
  O  O11  1  0.12525800  0.46900400  0.78154300  1
  O  O12  1  0.76624600  0.62130700  0.60298000  1
  O  O13  1  0.23375400  0.37869300  0.39702000  1
  O  O14  1  0.03796600  0.72041600  0.53460700  1
  O  O15  1  0.96203400  0.27958400  0.46539300  1
  O  O16  1  0.56982700  0.24463700  0.51539700  1
  O  O17  1  0.43017300  0.75536300  0.48460300  1
  O  O18  1  0.21634600  0.86677300  0.85655100  1
  O  O19  1  0.78365400  0.13322700  0.14344900  1
loop_
_geom_bond_atom_site_label_1
_geom_bond_atom_site_label_2
_geom_bond_distance
_geom_bond_site_symmetry_2
Cu0 O5 1.973402 1_555
Cu0 O4 1.973402 1_445
Cu0 O0 1.974162 1_545
Cu0 O1 1.974162 1_455
Cu1 O8 1.968903 1_555
Cu1 O9 1.968903 1_555
Cu1 O12 1.978092 1_555
Cu1 O13 1.978092 1_555
Cu1 O16 2.458095 1_555
Cu1 O17 2.458095 1_555
H0 O16 0.983729 1_555
H1 O17 0.983729 1_555
H2 O16 0.981867 1_555
H3 O17 0.981867 1_555
H4 O18 0.986451 1_555
H4 Rb1 3.030453 1_566
H5 O19 0.986451 1_555
H5 Rb0 3.030453 1_544
H6 O18 0.990624 1_555
H7 O19 0.990624 1_555
C0 O2 1.256140 1_555
C0 O0 1.289180 1_655
C1 O3 1.256140 1_555
C1 O1 1.289180 1_455
C2 O6 1.246276 1_555
C2 O4 1.298257 1_555
C3 O7 1.246276 1_555
C3 O5 1.298257 1_555
C4 O10 1.246560 1_555
C4 O8 1.295188 1_555
C5 O11 1.246560 1_555
C5 O9 1.295188 1_555
C6 O14 1.257016 1_655
C6 O12 1.288008 1_555
C7 O15 1.257016 1_455
C7 O13 1.288008 1_555
O0 Rb1 3.066483 1_565
O1 Rb0 3.066483 1_545
O2 Rb2 2.984780 1_554
O2 Rb0 3.205258 1_554
O3 Rb3 2.984780 1_556
O3 Rb1 3.205258 1_556
O6 Rb3 2.918750 1_555
O6 Rb0 3.053715 1_554
O6 Rb1 3.557423 1_565
O7 Rb2 2.918750 1_555
O7 Rb1 3.053715 1_556
O7 Rb0 3.557423 1_545
O8 Rb3 3.021376 1_555
O8 Rb1 3.075024 1_555
O9 Rb2 3.021376 1_555
O9 Rb0 3.075024 1_555
O10 Rb3 2.913433 1_655
O10 Rb2 2.976403 1_554
O11 Rb2 2.913433 1_455
O11 Rb3 2.976403 1_556
O12 Rb0 2.988635 1_555
O13 Rb1 2.988635 1_555
O16 Rb1 3.054292 1_555
O17 Rb0 3.054292 1_555
O18 Rb0 2.933401 1_555
O18 Rb1 2.973781 1_566
O19 Rb1 2.933401 1_555
O19 Rb0 2.973781 1_544
