# generated using pymatgen
data_Bi24Ru3Br20
_symmetry_space_group_name_H-M   'P 1'
_cell_length_a   14.18413685
_cell_length_b   14.18239397
_cell_length_c   33.16762697
_cell_angle_alpha   90.00000000
_cell_angle_beta   90.00000000
_cell_angle_gamma   90.00000000
_symmetry_Int_Tables_number   1
_chemical_formula_structural   Bi24Ru3Br20
_chemical_formula_sum   'Bi96 Ru12 Br80'
_cell_volume   6672.16624098
_cell_formula_units_Z   4
loop_
 _symmetry_equiv_pos_site_id
 _symmetry_equiv_pos_as_xyz
  1  'x, y, z'
loop_
 _atom_site_type_symbol
 _atom_site_label
 _atom_site_symmetry_multiplicity
 _atom_site_fract_x
 _atom_site_fract_y
 _atom_site_fract_z
 _atom_site_occupancy
  Bi  Bi0  1  0.09029999  0.84592959  0.74958989  1
  Bi  Bi1  1  0.29999774  0.39817900  0.63987092  1
  Bi  Bi2  1  0.84640316  0.09018017  0.24946332  1
  Bi  Bi3  1  0.59054026  0.15375544  0.25046472  1
  Bi  Bi4  1  0.18217411  0.39748880  0.55712898  1
  Bi  Bi5  1  0.69389056  0.91131540  0.54122508  1
  Bi  Bi6  1  0.74979837  0.24932784  0.83090830  1
  Bi  Bi7  1  0.90945974  0.15375544  0.75046472  1
  Bi  Bi8  1  0.24995559  0.24993742  0.78815315  1
  Bi  Bi9  1  0.21009569  0.78998984  0.99993375  1
  Bi  Bi10  1  0.19389056  0.41131540  0.95877492  1
  Bi  Bi11  1  0.25020163  0.74932784  0.16909170  1
  Bi  Bi12  1  0.78990431  0.28998984  0.00006625  1
  Bi  Bi13  1  0.38961191  0.31598903  0.35826719  1
  Bi  Bi14  1  0.31590243  0.10224680  0.55741163  1
  Bi  Bi15  1  0.10484849  0.19993852  0.14003107  1
  Bi  Bi16  1  0.60484849  0.69993852  0.35996893  1
  Bi  Bi17  1  0.19687079  0.10490875  0.63997305  1
  Bi  Bi18  1  0.60185959  0.80319439  0.86013887  1
  Bi  Bi19  1  0.58710087  0.80633061  0.04176179  1
  Bi  Bi20  1  0.68217411  0.89748880  0.94287102  1
  Bi  Bi21  1  0.89016248  0.68513111  0.64161045  1
  Bi  Bi22  1  0.10276608  0.18245406  0.55717622  1
  Bi  Bi23  1  0.24956380  0.75002210  0.83095798  1
  Bi  Bi24  1  0.39515151  0.19993852  0.64003107  1
  Bi  Bi25  1  0.30790061  0.08810985  0.95846719  1
  Bi  Bi26  1  0.10983752  0.18513111  0.35838955  1
  Bi  Bi27  1  0.75004441  0.74993742  0.21184685  1
  Bi  Bi28  1  0.69687079  0.60490875  0.86002695  1
  Bi  Bi29  1  0.89515151  0.69993852  0.85996893  1
  Bi  Bi30  1  0.20000226  0.39817900  0.13987092  1
  Bi  Bi31  1  0.18409757  0.10224680  0.05741163  1
  Bi  Bi32  1  0.80790061  0.58810985  0.54153281  1
  Bi  Bi33  1  0.65426365  0.40939544  0.24959465  1
  Bi  Bi34  1  0.25043620  0.75002210  0.33095798  1
  Bi  Bi35  1  0.80610944  0.91131540  0.04122508  1
  Bi  Bi36  1  0.68451153  0.89031975  0.14188749  1
  Bi  Bi37  1  0.84573635  0.40939544  0.74959465  1
  Bi  Bi38  1  0.39016248  0.18513111  0.85838955  1
  Bi  Bi39  1  0.15426365  0.90939544  0.25040535  1
  Bi  Bi40  1  0.08994942  0.19221140  0.95896287  1
  Bi  Bi41  1  0.75020163  0.24932784  0.33090830  1
  Bi  Bi42  1  0.81782589  0.89748880  0.44287102  1
  Bi  Bi43  1  0.60213978  0.81596946  0.44261623  1
  Bi  Bi44  1  0.61038809  0.81598903  0.64173281  1
  Bi  Bi45  1  0.11038809  0.31598903  0.85826719  1
  Bi  Bi46  1  0.30610944  0.41131540  0.45877492  1
  Bi  Bi47  1  0.41005058  0.19221140  0.45896287  1
  Bi  Bi48  1  0.31548847  0.39031975  0.85811251  1
  Bi  Bi49  1  0.10185959  0.30319439  0.63986113  1
  Bi  Bi50  1  0.31532054  0.11048250  0.35843429  1
  Bi  Bi51  1  0.15359684  0.59018017  0.75053668  1
  Bi  Bi52  1  0.34573635  0.90939544  0.75040535  1
  Bi  Bi53  1  0.79999774  0.89817900  0.86012908  1
  Bi  Bi54  1  0.30312921  0.10490875  0.13997305  1
  Bi  Bi55  1  0.69209939  0.58810985  0.04153281  1
  Bi  Bi56  1  0.28990431  0.78998984  0.49993375  1
  Bi  Bi57  1  0.68467946  0.61048250  0.64156571  1
  Bi  Bi58  1  0.39723392  0.18245406  0.05717622  1
  Bi  Bi59  1  0.65359684  0.09018017  0.74946332  1
  Bi  Bi60  1  0.70000226  0.89817900  0.36012908  1
  Bi  Bi61  1  0.40945974  0.65375544  0.74953528  1
  Bi  Bi62  1  0.74995559  0.74993742  0.71184685  1
  Bi  Bi63  1  0.88961191  0.81598903  0.14173281  1
  Bi  Bi64  1  0.91289913  0.80633061  0.54176179  1
  Bi  Bi65  1  0.08710087  0.30633061  0.45823821  1
  Bi  Bi66  1  0.80312921  0.60490875  0.36002695  1
  Bi  Bi67  1  0.40970001  0.84592959  0.24958989  1
  Bi  Bi68  1  0.75043620  0.25002210  0.16904202  1
  Bi  Bi69  1  0.25004441  0.24993742  0.28815315  1
  Bi  Bi70  1  0.10213978  0.31596946  0.05738377  1
  Bi  Bi71  1  0.39786022  0.31596946  0.55738377  1
  Bi  Bi72  1  0.90970001  0.34592959  0.25041011  1
  Bi  Bi73  1  0.68409757  0.60224680  0.44258837  1
  Bi  Bi74  1  0.81548847  0.89031975  0.64188749  1
  Bi  Bi75  1  0.39814041  0.30319439  0.13986113  1
  Bi  Bi76  1  0.24979837  0.74932784  0.66909170  1
  Bi  Bi77  1  0.89814041  0.80319439  0.36013887  1
  Bi  Bi78  1  0.58994942  0.69221140  0.54103713  1
  Bi  Bi79  1  0.34640316  0.59018017  0.25053668  1
  Bi  Bi80  1  0.91005058  0.69221140  0.04103713  1
  Bi  Bi81  1  0.09054026  0.65375544  0.24953528  1
  Bi  Bi82  1  0.81590243  0.60224680  0.94258837  1
  Bi  Bi83  1  0.31782589  0.39748880  0.05712898  1
  Bi  Bi84  1  0.81532054  0.61048250  0.14156571  1
  Bi  Bi85  1  0.60276608  0.68245406  0.94282378  1
  Bi  Bi86  1  0.74956380  0.25002210  0.66904202  1
  Bi  Bi87  1  0.59029999  0.34592959  0.75041011  1
  Bi  Bi88  1  0.89723392  0.68245406  0.44282378  1
  Bi  Bi89  1  0.60983752  0.68513111  0.14161045  1
  Bi  Bi90  1  0.89786022  0.81596946  0.94261623  1
  Bi  Bi91  1  0.41289913  0.30633061  0.95823821  1
  Bi  Bi92  1  0.18451153  0.39031975  0.35811251  1
  Bi  Bi93  1  0.19209939  0.08810985  0.45846719  1
  Bi  Bi94  1  0.71009569  0.28998984  0.50006625  1
  Bi  Bi95  1  0.18467946  0.11048250  0.85843429  1
  Ru  Ru0  1  0.25022865  0.25010593  0.41704968  1
  Ru  Ru1  1  0.75022865  0.75010593  0.08295032  1
  Ru  Ru2  1  0.25019130  0.24986836  0.00466039  1
  Ru  Ru3  1  0.24980870  0.24986836  0.50466039  1
  Ru  Ru4  1  0.74997125  0.24973895  0.24997912  1
  Ru  Ru5  1  0.24977135  0.25010593  0.91704968  1
  Ru  Ru6  1  0.74980870  0.74986836  0.99533961  1
  Ru  Ru7  1  0.24997125  0.74973895  0.25002088  1
  Ru  Ru8  1  0.74977135  0.75010593  0.58295032  1
  Ru  Ru9  1  0.25002875  0.74973895  0.75002088  1
  Ru  Ru10  1  0.75019130  0.74986836  0.49533961  1
  Ru  Ru11  1  0.75002875  0.24973895  0.74997912  1
  Br  Br0  1  0.82333230  0.55036770  0.25754392  1
  Br  Br1  1  0.97969991  0.37087815  0.95233650  1
  Br  Br2  1  0.37471870  0.50978629  0.95151720  1
  Br  Br3  1  0.99008983  0.12140869  0.45112347  1
  Br  Br4  1  0.57126168  0.36848508  0.66005590  1
  Br  Br5  1  0.94974269  0.67682688  0.75717923  1
  Br  Br6  1  0.56899726  0.13699996  0.34292625  1
  Br  Br7  1  0.12479653  0.97964877  0.95223299  1
  Br  Br8  1  0.55025731  0.67682688  0.25717923  1
  Br  Br9  1  0.36340926  0.56837450  0.34168951  1
  Br  Br10  1  0.47969991  0.87087815  0.54766350  1
  Br  Br11  1  0.94985168  0.82331692  0.25753684  1
  Br  Br12  1  0.52030009  0.37087815  0.45233650  1
  Br  Br13  1  0.44974269  0.17682688  0.74282077  1
  Br  Br14  1  0.06775113  0.86169563  0.65861424  1
  Br  Br15  1  0.13061271  0.57100818  0.66003247  1
  Br  Br16  1  0.50991017  0.12140869  0.95112347  1
  Br  Br17  1  0.55014832  0.82331692  0.75753684  1
  Br  Br18  1  0.67752213  0.41129173  0.95005177  1
  Br  Br19  1  0.42936734  0.63120603  0.83973062  1
  Br  Br20  1  0.67666770  0.55036770  0.75754392  1
  Br  Br21  1  0.07126168  0.86848508  0.83994410  1
  Br  Br22  1  0.63061271  0.07100818  0.83996753  1
  Br  Br23  1  0.93224887  0.36169563  0.34138576  1
  Br  Br24  1  0.06899726  0.63699996  0.15707375  1
  Br  Br25  1  0.32333909  0.44998994  0.74284272  1
  Br  Br26  1  0.36130388  0.93161287  0.84279541  1
  Br  Br27  1  0.78017878  0.13783039  0.95034332  1
  Br  Br28  1  0.67666091  0.94998994  0.25715728  1
  Br  Br29  1  0.57063266  0.13120603  0.16026938  1
  Br  Br30  1  0.17752213  0.91129173  0.54994823  1
  Br  Br31  1  0.42873832  0.86848508  0.33994410  1
  Br  Br32  1  0.56775113  0.36169563  0.84138576  1
  Br  Br33  1  0.00991017  0.62140869  0.54887653  1
  Br  Br34  1  0.07063266  0.63120603  0.33973062  1
  Br  Br35  1  0.44985168  0.32331692  0.24246316  1
  Br  Br36  1  0.49008983  0.62140869  0.04887653  1
  Br  Br37  1  0.86130388  0.43161287  0.65720459  1
  Br  Br38  1  0.32247787  0.91129173  0.04994823  1
  Br  Br39  1  0.13659074  0.56837450  0.84168951  1
  Br  Br40  1  0.63217156  0.42919235  0.33977155  1
  Br  Br41  1  0.13792712  0.78029452  0.45014352  1
  Br  Br42  1  0.86340926  0.06837450  0.15831049  1
  Br  Br43  1  0.86938729  0.07100818  0.33996753  1
  Br  Br44  1  0.58816027  0.17862491  0.54992799  1
  Br  Br45  1  0.62528130  0.00978629  0.04848280  1
  Br  Br46  1  0.86207288  0.28029452  0.54985648  1
  Br  Br47  1  0.05025731  0.17682688  0.24282077  1
  Br  Br48  1  0.08816027  0.67862491  0.95007201  1
  Br  Br49  1  0.62479653  0.47964877  0.54776701  1
  Br  Br50  1  0.43100274  0.63699996  0.65707375  1
  Br  Br51  1  0.17666770  0.05036770  0.74245608  1
  Br  Br52  1  0.43224887  0.86169563  0.15861424  1
  Br  Br53  1  0.91183973  0.17862491  0.04992799  1
  Br  Br54  1  0.37520347  0.97964877  0.45223299  1
  Br  Br55  1  0.28017878  0.63783039  0.54965668  1
  Br  Br56  1  0.82247787  0.41129173  0.45005177  1
  Br  Br57  1  0.12528130  0.50978629  0.45151720  1
  Br  Br58  1  0.36938729  0.57100818  0.16003247  1
  Br  Br59  1  0.63792712  0.28029452  0.04985648  1
  Br  Br60  1  0.87520347  0.47964877  0.04776701  1
  Br  Br61  1  0.93100274  0.13699996  0.84292625  1
  Br  Br62  1  0.41183973  0.67862491  0.45007201  1
  Br  Br63  1  0.63659074  0.06837450  0.65831049  1
  Br  Br64  1  0.92873832  0.36848508  0.16005590  1
  Br  Br65  1  0.17666091  0.44998994  0.24284272  1
  Br  Br66  1  0.13217156  0.92919235  0.16022845  1
  Br  Br67  1  0.13869612  0.93161287  0.34279541  1
  Br  Br68  1  0.36782844  0.92919235  0.66022845  1
  Br  Br69  1  0.71982122  0.13783039  0.45034332  1
  Br  Br70  1  0.87471870  0.00978629  0.54848280  1
  Br  Br71  1  0.05014832  0.32331692  0.74246316  1
  Br  Br72  1  0.36207288  0.78029452  0.95014352  1
  Br  Br73  1  0.82333909  0.94998994  0.75715728  1
  Br  Br74  1  0.21982122  0.63783039  0.04965668  1
  Br  Br75  1  0.02030009  0.87087815  0.04766350  1
  Br  Br76  1  0.86782844  0.42919235  0.83977155  1
  Br  Br77  1  0.32333230  0.05036770  0.24245608  1
  Br  Br78  1  0.63869612  0.43161287  0.15720459  1
  Br  Br79  1  0.92936734  0.13120603  0.66026938  1
loop_
_geom_bond_atom_site_label_1
_geom_bond_atom_site_label_2
_geom_bond_distance
_geom_bond_site_symmetry_2
Bi0 Ru9 2.644672 1_555
Bi0 Br21 3.025933 1_555
Bi0 Br14 3.042577 1_555
Bi0 Br5 3.128880 1_455
Bi0 Br51 3.156483 1_565
Bi2 Ru4 2.644241 1_555
Bi2 Br43 3.031679 1_555
Bi2 Br42 3.048657 1_555
Bi2 Br28 3.132883 1_545
Bi2 Br47 3.149504 1_655
Bi3 Ru4 2.639549 1_555
Bi3 Br29 3.021833 1_555
Bi3 Br6 3.091063 1_555
Bi3 Br35 3.136183 1_555
Bi3 Br28 3.145294 1_545
Bi4 Ru3 2.886527 1_555
Bi5 Ru8 2.787622 1_555
Bi5 Ru10 2.862987 1_555
Bi5 Br70 2.930354 1_565
Bi5 Br10 3.099131 1_555
Bi6 Ru11 2.684237 1_555
Bi6 Br61 3.050058 1_555
Bi6 Br32 3.054200 1_555
Bi6 Br22 3.056807 1_555
Bi6 Br76 3.065347 1_555
Bi7 Ru11 2.639549 1_555
Bi7 Br79 3.021833 1_555
Bi7 Br61 3.091063 1_555
Bi7 Br71 3.136183 1_655
Bi7 Br73 3.145294 1_545
Bi8 Bi95 3.194184 1_555
Bi8 Br13 3.371395 1_555
Bi8 Br51 3.374741 1_555
Bi8 Br25 3.375174 1_555
Bi8 Br71 3.378115 1_555
Bi9 Br72 2.719007 1_555
Bi9 Br74 2.719515 1_556
Bi9 Br48 2.867220 1_555
Bi9 Br38 2.872700 1_556
Bi9 Br75 3.327090 1_556
Bi9 Br7 3.346950 1_555
Bi10 Ru5 2.787622 1_555
Bi10 Ru2 2.862987 1_556
Bi10 Br2 2.930354 1_555
Bi10 Br1 3.099131 1_455
Bi11 Ru7 2.684237 1_555
Bi11 Br24 3.050058 1_555
Bi11 Br52 3.054200 1_555
Bi11 Br58 3.056807 1_555
Bi11 Br66 3.065347 1_555
Bi12 Br59 2.719007 1_555
Bi12 Br27 2.719515 1_554
Bi12 Br53 2.867220 1_555
Bi12 Br18 2.872700 1_554
Bi12 Br1 3.327090 1_554
Bi12 Br60 3.346950 1_555
Bi13 Ru0 2.929668 1_555
Bi13 Bi92 3.094288 1_555
Bi13 Bi50 3.099223 1_555
Bi13 Bi69 3.194457 1_555
Bi14 Ru3 2.885024 1_555
Bi14 Br30 3.353838 1_545
Bi19 Ru1 2.802845 1_555
Bi19 Ru6 2.887597 1_554
Bi19 Br45 2.944320 1_565
Bi19 Br36 2.971082 1_555
Bi20 Ru6 2.886527 1_555
Bi21 Ru8 2.932570 1_555
Bi21 Bi74 3.096844 1_555
Bi21 Bi57 3.100924 1_555
Bi21 Bi62 3.197915 1_555
Bi22 Ru3 2.880643 1_555
Bi23 Ru9 2.684503 1_555
Bi23 Br26 3.049396 1_555
Bi23 Br21 3.050850 1_555
Bi23 Br39 3.054710 1_555
Bi23 Br19 3.070592 1_555
Bi25 Ru5 2.800964 1_555
Bi25 Ru2 2.877572 1_556
Bi25 Br16 2.914186 1_555
Bi25 Br7 3.025597 1_545
Bi26 Ru0 2.932570 1_555
Bi26 Bi92 3.096844 1_555
Bi26 Bi50 3.100924 1_555
Bi26 Bi69 3.197915 1_555
Bi27 Bi84 3.194184 1_555
Bi27 Bi63 3.194457 1_555
Bi27 Bi36 3.195641 1_555
Bi27 Bi89 3.197915 1_555
Bi27 Br8 3.371395 1_555
Bi27 Br0 3.374741 1_555
Bi27 Br28 3.375174 1_555
Bi27 Br11 3.378115 1_555
Bi31 Ru2 2.885024 1_555
Bi31 Br38 3.353838 1_545
Bi32 Ru8 2.800964 1_555
Bi32 Ru10 2.877572 1_555
Bi32 Br33 2.914186 1_655
Bi32 Br49 3.025597 1_555
Bi33 Ru4 2.640105 1_555
Bi33 Br40 3.020402 1_555
Bi33 Br78 3.088420 1_555
Bi33 Br0 3.133315 1_555
Bi33 Br35 3.154816 1_555
Bi34 Ru7 2.684503 1_555
Bi34 Br67 3.049396 1_555
Bi34 Br31 3.050850 1_555
Bi34 Br9 3.054710 1_555
Bi34 Br34 3.070592 1_555
Bi35 Ru1 2.787622 1_555
Bi35 Ru6 2.862987 1_554
Bi35 Br45 2.930354 1_565
Bi35 Br75 3.099131 1_655
Bi36 Ru1 2.940162 1_555
Bi36 Bi63 3.094288 1_555
Bi36 Bi89 3.096844 1_555
Bi37 Ru11 2.640105 1_555
Bi37 Br76 3.020402 1_555
Bi37 Br37 3.088420 1_555
Bi37 Br20 3.133315 1_555
Bi37 Br71 3.154816 1_655
Bi38 Ru5 2.932570 1_555
Bi38 Bi48 3.096844 1_555
Bi38 Bi95 3.100924 1_555
Bi38 Bi8 3.197915 1_555
Bi39 Ru7 2.640105 1_555
Bi39 Br66 3.020402 1_555
Bi39 Br67 3.088420 1_555
Bi39 Br77 3.133315 1_565
Bi39 Br11 3.154816 1_455
Bi40 Ru5 2.783114 1_555
Bi40 Ru2 2.851662 1_556
Bi40 Br1 2.985719 1_455
Bi40 Br7 3.063043 1_545
Bi41 Ru4 2.684237 1_555
Bi41 Br6 3.050058 1_555
Bi41 Br23 3.054200 1_555
Bi41 Br43 3.056807 1_555
Bi41 Br40 3.065347 1_555
Bi42 Ru10 2.886527 1_555
Bi43 Ru10 2.889077 1_555
Bi43 Br62 3.337855 1_555
Bi44 Ru8 2.929668 1_555
Bi44 Bi74 3.094288 1_555
Bi44 Bi57 3.099223 1_555
Bi44 Bi62 3.194457 1_555
Bi45 Ru5 2.929668 1_555
Bi45 Bi48 3.094288 1_555
Bi45 Bi95 3.099223 1_555
Bi45 Bi8 3.194457 1_555
Bi46 Ru0 2.787622 1_555
Bi46 Ru3 2.862987 1_555
Bi46 Br57 2.930354 1_555
Bi46 Br12 3.099131 1_555
Bi47 Ru0 2.783114 1_555
Bi47 Ru3 2.851662 1_555
Bi47 Br12 2.985719 1_555
Bi47 Br54 3.063043 1_545
Bi48 Ru5 2.940162 1_555
Bi48 Bi8 3.195641 1_555
Bi50 Ru0 2.924595 1_555
Bi50 Bi69 3.194184 1_555
Bi51 Ru9 2.644241 1_555
Bi51 Br15 3.031679 1_555
Bi51 Br39 3.048657 1_555
Bi51 Br25 3.132883 1_555
Bi51 Br5 3.149504 1_455
Bi52 Ru9 2.640105 1_555
Bi52 Br68 3.020402 1_555
Bi52 Br26 3.088420 1_555
Bi52 Br51 3.133315 1_565
Bi52 Br17 3.154816 1_555
Bi55 Ru1 2.800964 1_555
Bi55 Ru6 2.877572 1_554
Bi55 Br36 2.914186 1_555
Bi55 Br60 3.025597 1_555
Bi56 Br41 2.719007 1_555
Bi56 Br55 2.719515 1_555
Bi56 Br62 2.867220 1_555
Bi56 Br30 2.872700 1_555
Bi56 Br10 3.327090 1_555
Bi56 Br54 3.346950 1_555
Bi57 Ru8 2.924595 1_555
Bi57 Bi62 3.194184 1_555
Bi58 Ru2 2.880643 1_555
Bi59 Ru11 2.644241 1_555
Bi59 Br22 3.031679 1_555
Bi59 Br63 3.048657 1_555
Bi59 Br73 3.132883 1_545
Bi59 Br13 3.149504 1_555
Bi61 Ru9 2.639549 1_555
Bi61 Br19 3.021833 1_555
Bi61 Br50 3.091063 1_555
Bi61 Br17 3.136183 1_555
Bi61 Br25 3.145294 1_555
Bi62 Bi74 3.195641 1_555
Bi62 Br5 3.371395 1_555
Bi62 Br20 3.374741 1_555
Bi62 Br73 3.375174 1_555
Bi62 Br17 3.378115 1_555
Bi63 Ru1 2.929668 1_555
Bi63 Bi84 3.099223 1_555
Bi64 Ru8 2.802845 1_555
Bi64 Ru10 2.887597 1_555
Bi64 Br70 2.944320 1_565
Bi64 Br33 2.971082 1_655
Bi65 Ru0 2.802845 1_555
Bi65 Ru3 2.887597 1_555
Bi65 Br57 2.944320 1_555
Bi65 Br3 2.971082 1_455
Bi67 Ru7 2.644672 1_555
Bi67 Br31 3.025933 1_555
Bi67 Br52 3.042577 1_555
Bi67 Br8 3.128880 1_555
Bi67 Br77 3.156483 1_565
Bi68 Ru4 2.684503 1_555
Bi68 Br78 3.049396 1_555
Bi68 Br64 3.050850 1_555
Bi68 Br42 3.054710 1_555
Bi68 Br29 3.070592 1_555
Bi69 Bi92 3.195641 1_555
Bi69 Br47 3.371395 1_555
Bi69 Br77 3.374741 1_555
Bi69 Br65 3.375174 1_555
Bi69 Br35 3.378115 1_555
Bi70 Ru2 2.889077 1_555
Bi70 Br53 3.337855 1_455
Bi71 Ru3 2.889077 1_555
Bi71 Br44 3.337855 1_555
Bi72 Ru4 2.644672 1_555
Bi72 Br64 3.025933 1_555
Bi72 Br23 3.042577 1_555
Bi72 Br47 3.128880 1_655
Bi72 Br0 3.156483 1_555
Bi73 Ru10 2.885024 1_555
Bi73 Br56 3.353838 1_555
Bi74 Ru8 2.940162 1_555
Bi76 Ru9 2.684237 1_555
Bi76 Br50 3.050058 1_555
Bi76 Br14 3.054200 1_555
Bi76 Br15 3.056807 1_555
Bi76 Br68 3.065347 1_555
Bi78 Ru8 2.783114 1_555
Bi78 Ru10 2.851662 1_555
Bi78 Br10 2.985719 1_555
Bi78 Br49 3.063043 1_555
Bi79 Ru7 2.644241 1_555
Bi79 Br58 3.031679 1_555
Bi79 Br9 3.048657 1_555
Bi79 Br65 3.132883 1_555
Bi79 Br8 3.149504 1_555
Bi80 Ru1 2.783114 1_555
Bi80 Ru6 2.851662 1_554
Bi80 Br75 2.985719 1_655
Bi80 Br60 3.063043 1_555
Bi81 Ru7 2.639549 1_555
Bi81 Br34 3.021833 1_555
Bi81 Br24 3.091063 1_555
Bi81 Br11 3.136183 1_455
Bi81 Br65 3.145294 1_555
Bi82 Ru6 2.885024 1_555
Bi82 Br18 3.353838 1_555
Bi83 Ru2 2.886527 1_555
Bi84 Ru1 2.924595 1_555
Bi84 Bi89 3.100924 1_555
Bi85 Ru6 2.880643 1_555
Bi86 Ru11 2.684503 1_555
Bi86 Br37 3.049396 1_555
Bi86 Br4 3.050850 1_555
Bi86 Br63 3.054710 1_555
Bi86 Br79 3.070592 1_555
Bi87 Ru11 2.644672 1_555
Bi87 Br4 3.025933 1_555
Bi87 Br32 3.042577 1_555
Bi87 Br13 3.128880 1_555
Bi87 Br20 3.156483 1_555
Bi88 Ru10 2.880643 1_555
Bi89 Ru1 2.932570 1_555
Bi90 Ru6 2.889077 1_555
Bi90 Br48 3.337855 1_655
Bi91 Ru5 2.802845 1_555
Bi91 Ru2 2.887597 1_556
Bi91 Br2 2.944320 1_555
Bi91 Br16 2.971082 1_555
Bi92 Ru0 2.940162 1_555
Bi93 Ru0 2.800964 1_555
Bi93 Ru3 2.877572 1_555
Bi93 Br3 2.914186 1_455
Bi93 Br54 3.025597 1_545
Bi94 Br46 2.719007 1_555
Bi94 Br69 2.719515 1_555
Bi94 Br44 2.867220 1_555
Bi94 Br56 2.872700 1_555
Bi94 Br12 3.327090 1_555
Bi94 Br49 3.346950 1_555
Bi95 Ru5 2.924595 1_555
Ru0 Ru3 2.905847 1_555
Ru1 Ru6 2.905847 1_554
Ru2 Ru5 2.905847 1_554
Ru10 Ru8 2.905847 1_555
