# generated using pymatgen
data_Cs2Zr(SiO3)3
_symmetry_space_group_name_H-M   'P 1'
_cell_length_a   7.33231160
_cell_length_b   7.33231160
_cell_length_c   10.43867100
_cell_angle_alpha   90.00000000
_cell_angle_beta   90.00000000
_cell_angle_gamma   119.99999640
_symmetry_Int_Tables_number   1
_chemical_formula_structural   Cs2Zr(SiO3)3
_chemical_formula_sum   'Cs4 Zr2 Si6 O18'
_cell_volume   486.02396398
_cell_formula_units_Z   2
loop_
 _symmetry_equiv_pos_site_id
 _symmetry_equiv_pos_as_xyz
  1  'x, y, z'
loop_
 _atom_site_type_symbol
 _atom_site_label
 _atom_site_symmetry_multiplicity
 _atom_site_fract_x
 _atom_site_fract_y
 _atom_site_fract_z
 _atom_site_occupancy
  Cs  Cs0  1  0.33333300  0.66666700  0.43633300  1
  Cs  Cs1  1  0.66666700  0.33333300  0.93633300  1
  Cs  Cs2  1  0.66666700  0.33333300  0.56366700  1
  Cs  Cs3  1  0.33333300  0.66666700  0.06366700  1
  Zr  Zr0  1  0.00000000  0.00000000  0.50000000  1
  Zr  Zr1  1  0.00000000  0.00000000  0.00000000  1
  Si  Si0  1  0.61016000  0.76457900  0.75000000  1
  Si  Si1  1  0.84558100  0.61016000  0.25000000  1
  Si  Si2  1  0.76457900  0.15441900  0.25000000  1
  Si  Si3  1  0.23542100  0.84558100  0.75000000  1
  Si  Si4  1  0.15441900  0.38984000  0.75000000  1
  Si  Si5  1  0.38984000  0.23542100  0.25000000  1
  O  O0  1  0.26024600  0.19698900  0.38203000  1
  O  O1  1  0.06325700  0.26024600  0.88203000  1
  O  O2  1  0.19698900  0.93674300  0.88203000  1
  O  O3  1  0.80301100  0.06325700  0.38203000  1
  O  O4  1  0.93674300  0.73975400  0.38203000  1
  O  O5  1  0.73975400  0.80301100  0.88203000  1
  O  O6  1  0.73975400  0.80301100  0.61797000  1
  O  O7  1  0.93674300  0.73975400  0.11797000  1
  O  O8  1  0.80301100  0.06325700  0.11797000  1
  O  O9  1  0.19698900  0.93674300  0.61797000  1
  O  O10  1  0.06325700  0.26024600  0.61797000  1
  O  O11  1  0.26024600  0.19698900  0.11797000  1
  O  O12  1  0.51173600  0.09470400  0.25000000  1
  O  O13  1  0.41703100  0.51173600  0.75000000  1
  O  O14  1  0.09470400  0.58296900  0.75000000  1
  O  O15  1  0.90529600  0.41703100  0.25000000  1
  O  O16  1  0.58296900  0.48826400  0.25000000  1
  O  O17  1  0.48826400  0.90529600  0.75000000  1
loop_
_geom_bond_atom_site_label_1
_geom_bond_atom_site_label_2
_geom_bond_distance
_geom_bond_site_symmetry_2
Cs0 O9 3.239702 1_555
Cs0 O10 3.239707 1_555
Cs0 O6 3.239708 1_555
Cs0 O4 3.259273 1_455
Cs0 O3 3.259277 1_565
Cs0 O0 3.259280 1_555
Cs0 O12 3.352481 1_565
Cs0 O15 3.352482 1_455
Cs0 O16 3.352492 1_555
Cs1 O8 3.239702 1_556
Cs1 O7 3.239707 1_556
Cs1 O11 3.239708 1_556
Cs1 O1 3.259273 1_655
Cs1 O2 3.259277 1_545
Cs1 O5 3.259280 1_555
Cs1 O17 3.352481 1_545
Cs1 O14 3.352482 1_655
Cs1 O13 3.352492 1_555
Cs2 O3 3.239702 1_555
Cs2 O4 3.239707 1_555
Cs2 O0 3.239708 1_555
Cs2 O10 3.259273 1_655
Cs2 O9 3.259277 1_545
Cs2 O6 3.259280 1_555
Cs2 O17 3.352481 1_545
Cs2 O14 3.352482 1_655
Cs2 O13 3.352492 1_555
Cs3 O2 3.239702 1_554
Cs3 O1 3.239707 1_554
Cs3 O5 3.239708 1_554
Cs3 O7 3.259273 1_455
Cs3 O8 3.259277 1_565
Cs3 O11 3.259280 1_555
Cs3 O12 3.352481 1_565
Cs3 O15 3.352482 1_455
Cs3 O16 3.352492 1_555
O0 Si5 1.616802 1_555
O0 Zr0 2.118438 1_555
O1 Si4 1.616802 1_555
O1 Zr1 2.118438 1_556
O2 Si3 1.616802 1_555
O2 Zr1 2.118438 1_566
O3 Si2 1.616802 1_555
O3 Zr0 2.118438 1_655
O4 Si1 1.616802 1_555
O4 Zr0 2.118438 1_665
O5 Si0 1.616802 1_555
O5 Zr1 2.118438 1_666
O6 Si0 1.616802 1_555
O6 Zr0 2.118438 1_665
O7 Si1 1.616802 1_555
O7 Zr1 2.118438 1_665
O8 Si2 1.616802 1_555
O8 Zr1 2.118438 1_655
O9 Si3 1.616802 1_555
O9 Zr0 2.118438 1_565
O10 Si4 1.616802 1_555
O10 Zr0 2.118438 1_555
O11 Si5 1.616802 1_555
O11 Zr1 2.118438 1_555
O12 Si5 1.669011 1_555
O12 Si2 1.678394 1_555
O13 Si4 1.669005 1_555
O13 Si0 1.678396 1_555
O14 Si3 1.669005 1_555
O14 Si4 1.678401 1_555
O15 Si2 1.669005 1_555
O15 Si1 1.678401 1_555
O16 Si1 1.669005 1_555
O16 Si5 1.678396 1_555
O17 Si0 1.669011 1_555
O17 Si3 1.678394 1_555
