# generated using pymatgen
data_Pu2Te3
_symmetry_space_group_name_H-M   'P 1'
_cell_length_a   24.16818480
_cell_length_b   9.29237717
_cell_length_c   9.29237709
_cell_angle_alpha   90.00000000
_cell_angle_beta   54.77898413
_cell_angle_gamma   54.77898375
_symmetry_Int_Tables_number   1
_chemical_formula_structural   Pu2Te3
_chemical_formula_sum   'Pu16 Te24'
_cell_volume   1207.43766283
_cell_formula_units_Z   8
loop_
 _symmetry_equiv_pos_site_id
 _symmetry_equiv_pos_as_xyz
  1  'x, y, z'
loop_
 _atom_site_type_symbol
 _atom_site_label
 _atom_site_symmetry_multiplicity
 _atom_site_fract_x
 _atom_site_fract_y
 _atom_site_fract_z
 _atom_site_occupancy
  Pu  Pu0  1  0.99914840  0.38183505  0.24753058  1
  Pu  Pu1  1  0.08166385  0.62750373  0.37750373  1
  Pu  Pu2  1  0.16666700  0.25000000  0.62986691  1
  Pu  Pu3  1  0.25166915  0.87249627  0.12249627  1
  Pu  Pu4  1  0.33418460  0.37928025  0.25246942  1
  Pu  Pu5  1  0.33418460  0.11816495  0.74497578  1
  Pu  Pu6  1  0.16666700  0.75000000  0.87013309  1
  Pu  Pu7  1  0.49914840  0.25502422  0.62071975  1
  Pu  Pu8  1  0.58166385  0.87750373  0.12750373  1
  Pu  Pu9  1  0.66666700  0.37013309  0.25000000  1
  Pu  Pu10  1  0.66666700  0.12986691  0.75000000  1
  Pu  Pu11  1  0.49914840  0.74753058  0.88183505  1
  Pu  Pu12  1  0.75166915  0.62249627  0.37249627  1
  Pu  Pu13  1  0.83418460  0.24497578  0.61816495  1
  Pu  Pu14  1  0.99914840  0.12071975  0.75502422  1
  Pu  Pu15  1  0.83418460  0.75246942  0.87928025  1
  Te  Te0  1  0.04934600  0.00092802  0.35179821  1
  Te  Te1  1  0.12023442  0.49583234  0.99772423  1
  Te  Te2  1  0.04934600  0.35103299  0.50016279  1
  Te  Te3  1  0.28398700  0.14896701  0.14820179  1
  Te  Te4  1  0.28398700  0.49907198  -0.00016279  1
  Te  Te5  1  0.12023442  0.64346340  0.64157151  1
  Te  Te6  1  0.38339983  0.00166893  0.34809875  1
  Te  Te7  1  0.21309858  0.85653660  0.50227577  1
  Te  Te8  1  0.44993417  0.49829725  0.99833107  1
  Te  Te9  1  0.38339983  0.34813257  0.50170275  1
  Te  Te10  1  0.21309858  0.00416766  0.85842849  1
  Te  Te11  1  0.62023442  0.14157151  0.14346340  1
  Te  Te12  1  0.62023442  0.49772423  0.99583234  1
  Te  Te13  1  0.44993417  0.65190125  0.65186743  1
  Te  Te14  1  0.71309858  0.00227577  0.35653660  1
  Te  Te15  1  0.54934600  0.85179821  0.50092802  1
  Te  Te16  1  0.78398700  0.49983721  0.99907198  1
  Te  Te17  1  0.71309858  0.35842849  0.50416766  1
  Te  Te18  1  0.54934600  0.00016279  0.85103299  1
  Te  Te19  1  0.94993417  0.15186743  0.15190125  1
  Te  Te20  1  0.94993417  0.49833107  0.99829725  1
  Te  Te21  1  0.78398700  0.64820179  0.64896701  1
  Te  Te22  1  0.88339983  0.84809875  0.50166893  1
  Te  Te23  1  0.88339983  0.00170275  0.84813257  1
loop_
_geom_bond_atom_site_label_1
_geom_bond_atom_site_label_2
_geom_bond_distance
_geom_bond_site_symmetry_2
Pu0 Te10 3.103203 1_654
Pu0 Te20 3.105241 1_554
Pu0 Te21 3.140271 1_555
Pu0 Te2 3.154252 1_655
Pu0 Te22 3.251805 1_555
Pu0 Te1 3.288563 1_654
Pu0 Te19 3.304821 1_555
Pu0 Te0 3.367729 1_655
Pu1 Te5 3.116099 1_555
Pu1 Te1 3.116099 1_554
Pu1 Te2 3.130014 1_555
Pu1 Te0 3.130014 1_565
Pu1 Te22 3.284312 1_455
Pu1 Te23 3.284325 1_465
Pu1 Te3 3.335459 1_555
Pu1 Te4 3.335461 1_555
Pu2 Te5 3.124997 1_555
Pu2 Te7 3.125007 1_545
Pu2 Te6 3.139402 1_555
Pu2 Te20 3.139402 1_455
Pu2 Te1 3.283394 1_555
Pu2 Te10 3.283402 1_555
Pu2 Te3 3.353360 1_555
Pu2 Te2 3.353374 1_555
Pu3 Te10 3.116099 1_564
Pu3 Te7 3.116099 1_555
Pu3 Te4 3.130014 1_555
Pu3 Te3 3.130014 1_565
Pu3 Te13 3.284329 1_554
Pu3 Te8 3.284331 1_554
Pu3 Te2 3.335457 1_565
Pu3 Te0 3.335463 1_565
Pu4 Te5 3.103203 1_555
Pu4 Te9 3.105258 1_555
Pu4 Te18 3.140271 1_554
Pu4 Te4 3.154253 1_555
Pu4 Te8 3.251813 1_554
Pu4 Te7 3.288570 1_555
Pu4 Te6 3.304827 1_555
Pu4 Te3 3.367721 1_555
Pu5 Te1 3.103203 1_555
Pu5 Te6 3.105238 1_555
Pu5 Te15 3.140271 1_545
Pu5 Te3 3.154261 1_556
Pu5 Te13 3.251801 1_545
Pu5 Te10 3.288561 1_555
Pu5 Te9 3.304834 1_555
Pu5 Te4 3.367734 1_556
Pu6 Te10 3.124996 1_565
Pu6 Te1 3.125012 1_555
Pu6 Te19 3.139402 1_466
Pu6 Te9 3.139402 1_555
Pu6 Te7 3.283405 1_555
Pu6 Te5 3.283419 1_555
Pu6 Te4 3.353354 1_556
Pu6 Te0 3.353354 1_566
Pu7 Te14 3.103203 1_555
Pu7 Te13 3.105249 1_555
Pu7 Te4 3.140271 1_556
Pu7 Te15 3.154262 1_545
Pu7 Te9 3.251795 1_555
Pu7 Te11 3.288569 1_555
Pu7 Te8 3.304833 1_555
Pu7 Te18 3.367726 1_555
Pu8 Te11 3.116099 1_565
Pu8 Te12 3.116099 1_554
Pu8 Te18 3.130014 1_564
Pu8 Te15 3.130014 1_555
Pu8 Te6 3.284312 1_565
Pu8 Te9 3.284325 1_565
Pu8 Te21 3.335459 1_554
Pu8 Te16 3.335461 1_554
Pu9 Te17 3.124996 1_555
Pu9 Te12 3.125012 1_554
Pu9 Te13 3.139402 1_555
Pu9 Te23 3.139402 1_554
Pu9 Te14 3.283405 1_555
Pu9 Te11 3.283419 1_555
Pu9 Te16 3.353354 1_554
Pu9 Te15 3.353354 1_555
Pu10 Te11 3.124997 1_556
Pu10 Te14 3.125007 1_555
Pu10 Te22 3.139402 1_545
Pu10 Te8 3.139402 1_555
Pu10 Te12 3.283394 1_555
Pu10 Te17 3.283402 1_555
Pu10 Te21 3.353360 1_545
Pu10 Te18 3.353374 1_555
Pu11 Te17 3.103203 1_555
Pu11 Te8 3.105241 1_555
Pu11 Te3 3.140271 1_566
Pu11 Te18 3.154252 1_565
Pu11 Te6 3.251805 1_566
Pu11 Te12 3.288563 1_555
Pu11 Te13 3.304821 1_555
Pu11 Te15 3.367729 1_555
Pu12 Te17 3.116099 1_555
Pu12 Te14 3.116099 1_565
Pu12 Te16 3.130014 1_554
Pu12 Te21 3.130014 1_555
Pu12 Te19 3.284329 1_555
Pu12 Te20 3.284331 1_554
Pu12 Te18 3.335457 1_565
Pu12 Te15 3.335463 1_555
Pu13 Te12 3.103203 1_555
Pu13 Te22 3.105238 1_545
Pu13 Te0 3.140271 1_655
Pu13 Te21 3.154261 1_555
Pu13 Te19 3.251801 1_555
Pu13 Te17 3.288561 1_555
Pu13 Te23 3.304834 1_555
Pu13 Te16 3.367734 1_555
Pu14 Te7 3.103203 1_645
Pu14 Te19 3.105249 1_556
Pu14 Te16 3.140271 1_555
Pu14 Te0 3.154262 1_655
Pu14 Te23 3.251795 1_555
Pu14 Te5 3.288569 1_645
Pu14 Te20 3.304833 1_555
Pu14 Te2 3.367726 1_655
Pu15 Te11 3.103203 1_566
Pu15 Te23 3.105258 1_565
Pu15 Te2 3.140271 1_655
Pu15 Te16 3.154253 1_555
Pu15 Te20 3.251813 1_555
Pu15 Te14 3.288570 1_566
Pu15 Te22 3.304827 1_555
Pu15 Te21 3.367721 1_555
