# generated using pymatgen
data_K3SiN(OF2)3
_symmetry_space_group_name_H-M   'P 1'
_cell_length_a   5.72195441
_cell_length_b   5.72195441
_cell_length_c   14.89028600
_cell_angle_alpha   90.00000000
_cell_angle_beta   90.00000000
_cell_angle_gamma   120.00000477
_symmetry_Int_Tables_number   1
_chemical_formula_structural   K3SiN(OF2)3
_chemical_formula_sum   'K6 Si2 N2 O6 F12'
_cell_volume   422.20409092
_cell_formula_units_Z   2
loop_
 _symmetry_equiv_pos_site_id
 _symmetry_equiv_pos_as_xyz
  1  'x, y, z'
loop_
 _atom_site_type_symbol
 _atom_site_label
 _atom_site_symmetry_multiplicity
 _atom_site_fract_x
 _atom_site_fract_y
 _atom_site_fract_z
 _atom_site_occupancy
  K  K0  1  0.66666700  0.33333300  0.08797500  1
  K  K1  1  0.33333300  0.66666700  0.58797500  1
  K  K2  1  0.33333300  0.66666700  0.91202500  1
  K  K3  1  0.66666700  0.33333300  0.41202500  1
  K  K4  1  0.00000000  0.00000000  0.75000000  1
  K  K5  1  0.00000000  0.00000000  0.25000000  1
  Si  Si0  1  0.00000000  0.00000000  0.00000000  1
  Si  Si1  1  0.00000000  0.00000000  0.50000000  1
  N  N0  1  0.66666700  0.33333300  0.75000000  1
  N  N1  1  0.33333300  0.66666700  0.25000000  1
  O  O0  1  0.53852200  0.07704400  0.75000000  1
  O  O1  1  0.53852200  0.46147800  0.75000000  1
  O  O2  1  0.46147800  0.53852200  0.25000000  1
  O  O3  1  0.07704400  0.53852200  0.25000000  1
  O  O4  1  0.92295600  0.46147800  0.75000000  1
  O  O5  1  0.46147800  0.92295600  0.25000000  1
  F  F0  1  0.71671400  0.85835700  0.06661300  1
  F  F1  1  0.28328600  0.14164300  0.56661300  1
  F  F2  1  0.14164300  0.85835700  0.43338700  1
  F  F3  1  0.14164300  0.28328600  0.06661300  1
  F  F4  1  0.85835700  0.71671400  0.56661300  1
  F  F5  1  0.85835700  0.14164300  0.56661300  1
  F  F6  1  0.14164300  0.85835700  0.06661300  1
  F  F7  1  0.85835700  0.71671400  0.93338700  1
  F  F8  1  0.14164300  0.28328600  0.43338700  1
  F  F9  1  0.85835700  0.14164300  0.93338700  1
  F  F10  1  0.28328600  0.14164300  0.93338700  1
  F  F11  1  0.71671400  0.85835700  0.43338700  1
loop_
_geom_bond_atom_site_label_1
_geom_bond_atom_site_label_2
_geom_bond_distance
_geom_bond_site_symmetry_2
K0 O3 3.155316 1_655
K0 O5 3.155316 1_545
K0 O2 3.155319 1_555
K1 O0 3.155316 1_565
K1 O4 3.155316 1_455
K1 O1 3.155319 1_555
K2 O0 3.155316 1_565
K2 O4 3.155316 1_455
K2 O1 3.155319 1_555
K3 O3 3.155316 1_655
K3 O5 3.155316 1_545
K3 O2 3.155319 1_555
K4 O1 2.886338 1_445
K4 O1 2.886338 1_555
K4 O0 2.886338 1_555
K4 O4 2.886338 1_445
K4 O4 2.886338 1_455
K4 O0 2.886338 1_455
K5 O2 2.886338 1_555
K5 O2 2.886338 1_445
K5 O5 2.886338 1_445
K5 O3 2.886338 1_555
K5 O5 2.886338 1_545
K5 O3 2.886338 1_545
N0 O4 1.270004 1_555
N0 O0 1.270004 1_555
N0 O1 1.270009 1_555
N1 O5 1.270004 1_555
N1 O3 1.270004 1_555
N1 O2 1.270009 1_555
F0 Si0 1.718850 1_665
F0 K0 2.889266 1_565
F0 K0 2.889272 1_555
F0 K2 2.984587 1_554
F0 K5 3.070382 1_665
F1 Si1 1.718850 1_555
F1 K1 2.889266 1_545
F1 K1 2.889272 1_555
F1 K3 2.984587 1_555
F1 K4 3.070382 1_555
F2 Si1 1.718851 1_565
F2 K3 2.889269 1_455
F2 K3 2.889269 1_565
F2 K1 2.984584 1_555
F2 K5 3.070382 1_565
F3 Si0 1.718850 1_555
F3 K0 2.889266 1_455
F3 K0 2.889272 1_555
F3 K2 2.984587 1_554
F3 K5 3.070382 1_555
F4 Si1 1.718850 1_665
F4 K1 2.889266 1_655
F4 K1 2.889272 1_555
F4 K3 2.984587 1_555
F4 K4 3.070382 1_665
F5 Si1 1.718851 1_655
F5 K1 2.889269 1_545
F5 K1 2.889269 1_655
F5 K3 2.984584 1_555
F5 K4 3.070382 1_655
F6 Si0 1.718851 1_565
F6 K0 2.889269 1_455
F6 K0 2.889269 1_565
F6 K2 2.984584 1_554
F6 K5 3.070382 1_565
F7 Si0 1.718850 1_666
F7 K2 2.889266 1_655
F7 K2 2.889272 1_555
F7 K0 2.984587 1_556
F7 K4 3.070382 1_665
F8 Si1 1.718850 1_555
F8 K3 2.889266 1_455
F8 K3 2.889272 1_555
F8 K1 2.984587 1_555
F8 K5 3.070382 1_555
F9 Si0 1.718851 1_656
F9 K2 2.889269 1_545
F9 K2 2.889269 1_655
F9 K0 2.984584 1_556
F9 K4 3.070382 1_655
F10 Si0 1.718850 1_556
F10 K2 2.889266 1_545
F10 K2 2.889272 1_555
F10 K0 2.984587 1_556
F10 K4 3.070382 1_555
F11 Si1 1.718850 1_665
F11 K3 2.889266 1_565
F11 K3 2.889272 1_555
F11 K1 2.984587 1_555
F11 K5 3.070382 1_665
