# generated using pymatgen
data_Ba2LiN
_symmetry_space_group_name_H-M   'P 1'
_cell_length_a   8.26862700
_cell_length_b   8.26862700
_cell_length_c   15.50168600
_cell_angle_alpha   90.00000000
_cell_angle_beta   90.00000000
_cell_angle_gamma   90.00000000
_symmetry_Int_Tables_number   1
_chemical_formula_structural   Ba2LiN
_chemical_formula_sum   'Ba16 Li8 N8'
_cell_volume   1059.85325535
_cell_formula_units_Z   8
loop_
 _symmetry_equiv_pos_site_id
 _symmetry_equiv_pos_as_xyz
  1  'x, y, z'
loop_
 _atom_site_type_symbol
 _atom_site_label
 _atom_site_symmetry_multiplicity
 _atom_site_fract_x
 _atom_site_fract_y
 _atom_site_fract_z
 _atom_site_occupancy
  Ba  Ba0  1  0.00000000  0.77257100  0.41006500  1
  Ba  Ba1  1  0.00000000  0.22742900  0.41006500  1
  Ba  Ba2  1  0.78041100  0.50000000  0.60540000  1
  Ba  Ba3  1  0.77257100  0.00000000  0.58993500  1
  Ba  Ba4  1  0.50000000  0.72742900  0.08993500  1
  Ba  Ba5  1  0.27257100  0.50000000  0.91006500  1
  Ba  Ba6  1  0.00000000  0.71958900  0.10540000  1
  Ba  Ba7  1  0.50000000  0.27257100  0.08993500  1
  Ba  Ba8  1  0.28041100  0.00000000  0.89460000  1
  Ba  Ba9  1  0.21958900  0.50000000  0.60540000  1
  Ba  Ba10  1  0.00000000  0.28041100  0.10540000  1
  Ba  Ba11  1  0.50000000  0.21958900  0.39460000  1
  Ba  Ba12  1  0.22742900  0.00000000  0.58993500  1
  Ba  Ba13  1  0.71958900  0.00000000  0.89460000  1
  Ba  Ba14  1  0.72742900  0.50000000  0.91006500  1
  Ba  Ba15  1  0.50000000  0.78041100  0.39460000  1
  Li  Li0  1  0.74356500  0.50000000  0.21884600  1
  Li  Li1  1  0.50000000  0.25643500  0.78115400  1
  Li  Li2  1  0.00000000  0.24356500  0.71884600  1
  Li  Li3  1  0.50000000  0.74356500  0.78115400  1
  Li  Li4  1  0.75643500  0.00000000  0.28115400  1
  Li  Li5  1  0.24356500  0.00000000  0.28115400  1
  Li  Li6  1  0.00000000  0.75643500  0.71884600  1
  Li  Li7  1  0.25643500  0.50000000  0.21884600  1
  N  N0  1  0.25675500  0.00000000  0.41124300  1
  N  N1  1  0.00000000  0.25675500  0.58875700  1
  N  N2  1  0.74324500  0.00000000  0.41124300  1
  N  N3  1  0.50000000  0.24324500  0.91124300  1
  N  N4  1  0.24324500  0.50000000  0.08875700  1
  N  N5  1  0.50000000  0.75675500  0.91124300  1
  N  N6  1  0.00000000  0.74324500  0.58875700  1
  N  N7  1  0.75675500  0.50000000  0.08875700  1
loop_
_geom_bond_atom_site_label_1
_geom_bond_atom_site_label_2
_geom_bond_distance
_geom_bond_site_symmetry_2
Ba0 N6 2.780621 1_555
Ba0 N2 2.836175 1_465
Ba0 N0 2.836175 1_565
Ba1 N1 2.780621 1_555
Ba1 N2 2.836175 1_455
Ba1 N0 2.836175 1_555
Ba2 N1 2.721886 1_655
Ba2 N6 2.721886 1_655
Ba3 N2 2.780621 1_555
Ba3 N6 2.836175 1_645
Ba3 N1 2.836175 1_655
Ba4 N5 2.780621 1_554
Ba4 N7 2.836175 1_555
Ba4 N4 2.836175 1_555
Ba5 N4 2.780621 1_556
Ba5 N5 2.836175 1_555
Ba5 N3 2.836175 1_555
Ba6 N4 2.721886 1_555
Ba6 N7 2.721886 1_455
Ba7 N3 2.780621 1_554
Ba7 N7 2.836175 1_555
Ba7 N4 2.836175 1_555
Ba8 N3 2.721886 1_555
Ba8 N5 2.721886 1_545
Ba9 N1 2.721886 1_555
Ba9 N6 2.721886 1_555
Ba10 N4 2.721886 1_555
Ba10 N7 2.721886 1_455
Ba11 N0 2.721886 1_555
Ba11 N2 2.721886 1_555
Ba12 N0 2.780621 1_555
Ba12 N6 2.836175 1_545
Ba12 N1 2.836175 1_555
Ba13 N3 2.721886 1_555
Ba13 N5 2.721886 1_545
Ba14 N7 2.780621 1_556
Ba14 N5 2.836175 1_555
Ba14 N3 2.836175 1_555
Ba15 N0 2.721886 1_565
Ba15 N2 2.721886 1_565
Li0 N7 2.019546 1_555
Li1 N3 2.019546 1_555
Li2 N1 2.019546 1_555
Li3 N5 2.019546 1_555
Li4 N2 2.019546 1_555
Li5 N0 2.019546 1_555
Li6 N6 2.019546 1_555
Li7 N4 2.019546 1_555
