# generated using pymatgen
data_AgSbS2
_symmetry_space_group_name_H-M   'P 1'
_cell_length_a   7.44579064
_cell_length_b   7.44579064
_cell_length_c   13.57904443
_cell_angle_alpha   84.22146683
_cell_angle_beta   84.22146683
_cell_angle_gamma   45.79840505
_symmetry_Int_Tables_number   1
_chemical_formula_structural   AgSbS2
_chemical_formula_sum   'Ag4 Sb4 S8'
_cell_volume   536.45644760
_cell_formula_units_Z   4
loop_
 _symmetry_equiv_pos_site_id
 _symmetry_equiv_pos_as_xyz
  1  'x, y, z'
loop_
 _atom_site_type_symbol
 _atom_site_label
 _atom_site_symmetry_multiplicity
 _atom_site_fract_x
 _atom_site_fract_y
 _atom_site_fract_z
 _atom_site_occupancy
  Ag  Ag0  1  0.99431200  0.99937500  0.00850800  1
  Ag  Ag1  1  0.49479500  0.48718100  0.50003000  1
  Ag  Ag2  1  0.48718100  0.49479500  0.00003000  1
  Ag  Ag3  1  0.99937500  0.99431200  0.50850800  1
  Sb  Sb0  1  0.66187900  0.76514300  0.86374000  1
  Sb  Sb1  1  0.22825300  0.32310400  0.65282600  1
  Sb  Sb2  1  0.76514300  0.66187900  0.36374000  1
  Sb  Sb3  1  0.32310400  0.22825300  0.15282600  1
  S  S0  1  0.52874000  0.80022700  0.21227300  1
  S  S1  1  0.81569300  0.29447300  0.37061400  1
  S  S2  1  0.67598900  0.20144000  0.13950900  1
  S  S3  1  0.20144000  0.67598900  0.63950900  1
  S  S4  1  0.18831300  0.46948100  0.30250000  1
  S  S5  1  0.46948100  0.18831300  0.80250000  1
  S  S6  1  0.80022700  0.52874000  0.71227300  1
  S  S7  1  0.29447300  0.81569300  0.87061400  1
loop_
_geom_bond_atom_site_label_1
_geom_bond_atom_site_label_2
_geom_bond_distance
_geom_bond_site_symmetry_2
Ag0 S2 2.400686 1_565
Ag0 S7 2.404680 1_654
Ag1 S1 2.395382 1_555
Ag1 S3 2.399162 1_555
Ag2 S7 2.395382 1_554
Ag2 S2 2.399162 1_555
Ag3 S3 2.400686 1_655
Ag3 S1 2.404680 1_565
S0 Sb3 2.465694 1_565
S0 Sb2 2.482718 1_555
S1 Sb2 2.480722 1_555
S2 Sb3 2.481231 1_555
S3 Sb1 2.481231 1_555
S4 Sb2 2.467781 1_455
S4 Sb3 2.484939 1_555
S5 Sb0 2.467781 1_545
S5 Sb1 2.484939 1_555
S6 Sb1 2.465694 1_655
S6 Sb0 2.482718 1_555
S7 Sb0 2.480722 1_555
