# generated using pymatgen
data_Ho5NiSb2
_symmetry_space_group_name_H-M   'P 1'
_cell_length_a   7.90777468
_cell_length_b   8.69236289
_cell_length_c   12.08376576
_cell_angle_alpha   90.00000000
_cell_angle_beta   90.00000000
_cell_angle_gamma   90.00000000
_symmetry_Int_Tables_number   1
_chemical_formula_structural   Ho5NiSb2
_chemical_formula_sum   'Ho20 Ni4 Sb8'
_cell_volume   830.60479380
_cell_formula_units_Z   4
loop_
 _symmetry_equiv_pos_site_id
 _symmetry_equiv_pos_as_xyz
  1  'x, y, z'
loop_
 _atom_site_type_symbol
 _atom_site_label
 _atom_site_symmetry_multiplicity
 _atom_site_fract_x
 _atom_site_fract_y
 _atom_site_fract_z
 _atom_site_occupancy
  Ho  Ho0  1  0.32140359  0.53797820  0.43322477  1
  Ho  Ho1  1  0.87195844  0.25000000  0.80802637  1
  Ho  Ho2  1  0.17859641  0.53797820  0.93322477  1
  Ho  Ho3  1  0.32140359  0.96202180  0.43322477  1
  Ho  Ho4  1  0.12804156  0.75000000  0.19197363  1
  Ho  Ho5  1  0.84104456  0.75000000  0.79532592  1
  Ho  Ho6  1  0.37195844  0.75000000  0.69197363  1
  Ho  Ho7  1  0.95505496  0.75000000  0.50075946  1
  Ho  Ho8  1  0.45505496  0.25000000  0.99924054  1
  Ho  Ho9  1  0.67859641  0.46202180  0.56677523  1
  Ho  Ho10  1  0.82140359  0.03797820  0.06677523  1
  Ho  Ho11  1  0.65895544  0.75000000  0.29532592  1
  Ho  Ho12  1  0.54494504  0.75000000  0.00075946  1
  Ho  Ho13  1  0.04494504  0.25000000  0.49924054  1
  Ho  Ho14  1  0.67859641  0.03797820  0.56677523  1
  Ho  Ho15  1  0.17859641  0.96202180  0.93322477  1
  Ho  Ho16  1  0.62804156  0.25000000  0.30802637  1
  Ho  Ho17  1  0.34104456  0.25000000  0.70467408  1
  Ho  Ho18  1  0.82140359  0.46202180  0.06677523  1
  Ho  Ho19  1  0.15895544  0.25000000  0.20467408  1
  Ni  Ni0  1  0.92602188  0.75000000  0.01123540  1
  Ni  Ni1  1  0.57397812  0.75000000  0.51123540  1
  Ni  Ni2  1  0.07397812  0.25000000  0.98876460  1
  Ni  Ni3  1  0.42602188  0.25000000  0.48876460  1
  Sb  Sb0  1  0.93337186  0.49264198  0.32664775  1
  Sb  Sb1  1  0.43337186  0.50735802  0.17335225  1
  Sb  Sb2  1  0.43337186  0.99264198  0.17335225  1
  Sb  Sb3  1  0.56662814  0.49264198  0.82664775  1
  Sb  Sb4  1  0.06662814  0.50735802  0.67335225  1
  Sb  Sb5  1  0.56662814  0.00735802  0.82664775  1
  Sb  Sb6  1  0.93337186  0.00735802  0.32664775  1
  Sb  Sb7  1  0.06662814  0.99264198  0.67335225  1
loop_
_geom_bond_atom_site_label_1
_geom_bond_atom_site_label_2
_geom_bond_distance
_geom_bond_site_symmetry_2
Ho0 Ni3 2.720460 1_555
Ho0 Ni1 2.876520 1_555
Ho0 Sb1 3.273516 1_555
Ho0 Sb0 3.351023 1_455
Ho0 Sb4 3.542517 1_555
Ho1 Ni2 2.705908 1_655
Ho1 Sb4 3.165832 1_655
Ho1 Sb7 3.165832 1_645
Ho1 Sb5 3.213845 1_555
Ho1 Sb3 3.213845 1_555
Ho2 Ni2 2.720460 1_555
Ho2 Ni0 2.876520 1_456
Ho2 Sb4 3.273516 1_555
Ho2 Sb3 3.351023 1_555
Ho2 Sb1 3.542517 1_556
Ho3 Ni3 2.720460 1_565
Ho3 Ni1 2.876520 1_555
Ho3 Sb2 3.273516 1_555
Ho3 Sb6 3.351023 1_465
Ho3 Sb7 3.542517 1_555
Ho4 Ni0 2.705908 1_455
Ho4 Sb0 3.165832 1_455
Ho4 Sb6 3.165832 1_465
Ho4 Sb1 3.213845 1_555
Ho4 Sb2 3.213845 1_555
Ho5 Ni0 2.694149 1_556
Ho5 Sb7 3.130973 1_655
Ho5 Sb4 3.130973 1_655
Ho5 Sb3 3.139529 1_555
Ho5 Sb5 3.139529 1_565
Ho6 Ni1 2.705908 1_555
Ho6 Sb3 3.165832 1_555
Ho6 Sb5 3.165832 1_565
Ho6 Sb4 3.213845 1_555
Ho6 Sb7 3.213845 1_555
Ho7 Ni1 3.016127 1_555
Ho7 Sb0 3.075759 1_555
Ho7 Sb6 3.075759 1_565
Ho7 Sb7 3.094590 1_655
Ho7 Sb4 3.094590 1_655
Ho8 Ni2 3.016127 1_555
Ho8 Sb1 3.075759 1_556
Ho8 Sb2 3.075759 1_546
Ho8 Sb5 3.094590 1_555
Ho8 Sb3 3.094590 1_555
Ho9 Ni1 2.720460 1_555
Ho9 Ni3 2.876520 1_555
Ho9 Sb3 3.273516 1_555
Ho9 Sb4 3.351023 1_655
Ho9 Sb0 3.542517 1_555
Ho10 Ni0 2.720460 1_545
Ho10 Ni2 2.876520 1_654
Ho10 Sb6 3.273516 1_555
Ho10 Sb2 3.351023 1_545
Ho10 Sb5 3.542517 1_554
Ho11 Ni1 2.694149 1_555
Ho11 Sb1 3.130973 1_555
Ho11 Sb2 3.130973 1_555
Ho11 Sb0 3.139529 1_555
Ho11 Sb6 3.139529 1_565
Ho12 Ni0 3.016127 1_555
Ho12 Sb3 3.075759 1_554
Ho12 Sb5 3.075759 1_564
Ho12 Sb1 3.094590 1_555
Ho12 Sb2 3.094590 1_555
Ho13 Ni3 3.016127 1_555
Ho13 Sb7 3.075759 1_545
Ho13 Sb4 3.075759 1_555
Ho13 Sb0 3.094590 1_455
Ho13 Sb6 3.094590 1_455
Ho14 Ni1 2.720460 1_545
Ho14 Ni3 2.876520 1_555
Ho14 Sb5 3.273516 1_555
Ho14 Sb7 3.351023 1_645
Ho14 Sb6 3.542517 1_555
Ho15 Ni2 2.720460 1_565
Ho15 Ni0 2.876520 1_456
Ho15 Sb7 3.273516 1_555
Ho15 Sb5 3.351023 1_565
Ho15 Sb2 3.542517 1_556
Ho16 Ni3 2.705908 1_555
Ho16 Sb1 3.165832 1_555
Ho16 Sb2 3.165832 1_545
Ho16 Sb0 3.213845 1_555
Ho16 Sb6 3.213845 1_555
Ho17 Ni3 2.694149 1_555
Ho17 Sb3 3.130973 1_555
Ho17 Sb5 3.130973 1_555
Ho17 Sb7 3.139529 1_545
Ho17 Sb4 3.139529 1_555
Ho18 Ni0 2.720460 1_555
Ho18 Ni2 2.876520 1_654
Ho18 Sb0 3.273516 1_555
Ho18 Sb1 3.351023 1_555
Ho18 Sb3 3.542517 1_554
Ho19 Ni2 2.694149 1_554
Ho19 Sb0 3.130973 1_455
Ho19 Sb6 3.130973 1_455
Ho19 Sb1 3.139529 1_555
Ho19 Sb2 3.139529 1_545
