# generated using pymatgen
data_Cs3VH8(Cl3O2)2
_symmetry_space_group_name_H-M   'P 1'
_cell_length_a   10.35305444
_cell_length_b   10.35305444
_cell_length_c   10.35305444
_cell_angle_alpha   145.63545942
_cell_angle_beta   131.79553164
_cell_angle_gamma   60.53200432
_symmetry_Int_Tables_number   1
_chemical_formula_structural   Cs3VH8(Cl3O2)2
_chemical_formula_sum   'Cs3 V1 H8 Cl6 O4'
_cell_volume   462.49195173
_cell_formula_units_Z   1
loop_
 _symmetry_equiv_pos_site_id
 _symmetry_equiv_pos_as_xyz
  1  'x, y, z'
loop_
 _atom_site_type_symbol
 _atom_site_label
 _atom_site_symmetry_multiplicity
 _atom_site_fract_x
 _atom_site_fract_y
 _atom_site_fract_z
 _atom_site_occupancy
  Cs  Cs0  1  0.00000000  0.00000000  0.00000000  1
  Cs  Cs1  1  0.81290400  0.31290400  0.50000000  1
  Cs  Cs2  1  0.18709600  0.68709600  0.50000000  1
  V  V0  1  0.50000000  0.50000000  0.00000000  1
  H  H0  1  0.50597700  0.30267400  0.60240700  1
  H  H1  1  0.49402300  0.09643000  0.79669800  1
  H  H2  1  0.29973200  0.69732600  0.20330200  1
  H  H3  1  0.70026800  0.90357000  0.39759300  1
  H  H4  1  0.70026800  0.30267400  0.79669800  1
  H  H5  1  0.29973200  0.09643000  0.60240700  1
  H  H6  1  0.49402300  0.69732600  0.39759300  1
  H  H7  1  0.50597700  0.90357000  0.20330200  1
  Cl  Cl0  1  0.08592200  0.84285200  0.24307100  1
  Cl  Cl1  1  0.91407800  0.15714800  0.75692900  1
  Cl  Cl2  1  0.40021900  0.15714800  0.24307100  1
  Cl  Cl3  1  0.59978100  0.84285200  0.75692900  1
  Cl  Cl4  1  0.21545000  0.50000000  0.71545000  1
  Cl  Cl5  1  0.78455000  0.50000000  0.28455000  1
  O  O0  1  0.58069900  0.34774100  0.76704200  1
  O  O1  1  0.41930100  0.18634300  0.76704200  1
  O  O2  1  0.41930100  0.65225900  0.23295800  1
  O  O3  1  0.58069900  0.81365700  0.23295800  1
loop_
_geom_bond_atom_site_label_1
_geom_bond_atom_site_label_2
_geom_bond_distance
_geom_bond_site_symmetry_2
H0 O0 1.002982 1_555
H1 O1 1.002988 1_555
H2 O2 1.002989 1_555
H3 O3 1.002988 1_555
H4 O0 1.002989 1_555
H5 O1 1.002988 1_555
H6 O2 1.002982 1_555
H7 O3 1.002988 1_555
Cl0 H5 2.061279 1_565
Cl0 H2 2.061282 1_555
Cl0 Cs0 3.481772 1_565
Cl0 Cs2 3.532532 1_555
Cl0 Cs1 3.723589 1_465
Cl0 Cs1 3.723594 1_454
Cl1 H3 2.061279 1_545
Cl1 H4 2.061282 1_555
Cl1 Cs0 3.481772 1_656
Cl1 Cs1 3.532532 1_555
Cl1 Cs2 3.723589 1_645
Cl1 Cs2 3.723594 1_656
Cl2 H7 2.061274 1_545
Cl2 H0 2.061279 1_555
Cl2 Cs0 3.481768 1_555
Cl2 Cs1 3.532536 1_555
Cl2 Cs2 3.723596 1_544
Cl2 Cs2 3.723596 1_555
Cl3 H1 2.061274 1_565
Cl3 H6 2.061279 1_555
Cl3 Cs0 3.481768 1_666
Cl3 Cs2 3.532536 1_555
Cl3 Cs1 3.723596 1_555
Cl3 Cs1 3.723596 1_566
Cl4 V0 2.406061 1_556
Cl4 Cs0 3.559888 1_566
Cl4 Cs0 3.559888 1_555
Cl4 Cs2 3.809782 1_555
Cl4 Cs1 3.809782 1_455
Cl5 V0 2.406061 1_555
Cl5 Cs0 3.559888 1_655
Cl5 Cs0 3.559888 1_666
Cl5 Cs2 3.809782 1_655
Cl5 Cs1 3.809782 1_555
O0 V0 2.028142 1_556
O1 V0 2.028142 1_556
O2 V0 2.028142 1_555
O3 V0 2.028142 1_555
