# generated using pymatgen
data_BaGe2B
_symmetry_space_group_name_H-M   'P 1'
_cell_length_a   5.04567216
_cell_length_b   5.04567216
_cell_length_c   5.04567216
_cell_angle_alpha   60.00000000
_cell_angle_beta   60.00000000
_cell_angle_gamma   60.00000000
_symmetry_Int_Tables_number   1
_chemical_formula_structural   BaGe2B
_chemical_formula_sum   'Ba1 Ge2 B1'
_cell_volume   90.83267187
_cell_formula_units_Z   1
loop_
 _symmetry_equiv_pos_site_id
 _symmetry_equiv_pos_as_xyz
  1  'x, y, z'
loop_
 _atom_site_type_symbol
 _atom_site_label
 _atom_site_symmetry_multiplicity
 _atom_site_fract_x
 _atom_site_fract_y
 _atom_site_fract_z
 _atom_site_occupancy
  Ba  Ba0  1  0.75000000  0.75000000  0.75000000  1
  Ge  Ge0  1  0.00000000  0.00000000  0.00000000  1
  Ge  Ge1  1  0.25000000  0.25000000  0.25000000  1
  B  B0  1  0.50000000  0.50000000  0.50000000  1
loop_
_geom_bond_atom_site_label_1
_geom_bond_atom_site_label_2
_geom_bond_distance
_geom_bond_site_symmetry_2
Ba0 Ge0 3.089831 1_566
Ba0 Ge0 3.089831 1_656
Ba0 Ge0 3.089831 1_665
Ba0 Ge0 3.089831 1_666
Ba0 Ge1 3.567829 1_556
Ba0 Ge1 3.567829 1_565
Ba0 Ge1 3.567829 1_656
Ba0 Ge1 3.567829 1_655
Ba0 Ge1 3.567829 1_665
Ba0 Ge1 3.567829 1_566
Ge0 Ge1 3.089831 1_545
Ge0 Ge1 3.089831 1_455
Ge0 Ge1 3.089831 1_555
Ge0 Ge1 3.089831 1_554
B0 Ba0 3.089831 1_554
B0 Ba0 3.089831 1_455
B0 Ba0 3.089831 1_545
B0 Ba0 3.089831 1_555
