# generated using pymatgen
data_Mn5Si2
_symmetry_space_group_name_H-M   'P 1'
_cell_length_a   8.53070700
_cell_length_b   8.72373700
_cell_length_c   8.72373700
_cell_angle_alpha   90.00000000
_cell_angle_beta   90.00000000
_cell_angle_gamma   90.00000000
_symmetry_Int_Tables_number   1
_chemical_formula_structural   Mn5Si2
_chemical_formula_sum   'Mn40 Si16'
_cell_volume   649.21740444
_cell_formula_units_Z   8
loop_
 _symmetry_equiv_pos_site_id
 _symmetry_equiv_pos_as_xyz
  1  'x, y, z'
loop_
 _atom_site_type_symbol
 _atom_site_label
 _atom_site_symmetry_multiplicity
 _atom_site_fract_x
 _atom_site_fract_y
 _atom_site_fract_z
 _atom_site_occupancy
  Mn  Mn0  1  0.00000000  0.86373200  0.86373200  1
  Mn  Mn1  1  0.00000000  0.54638700  0.54638700  1
  Mn  Mn2  1  0.90208300  0.72369900  0.32601000  1
  Mn  Mn3  1  0.78562200  0.45670600  0.36906300  1
  Mn  Mn4  1  0.25000000  0.95361300  0.04638700  1
  Mn  Mn5  1  0.16972600  0.81428200  0.57961600  1
  Mn  Mn6  1  0.03562200  0.13093700  0.95670600  1
  Mn  Mn7  1  0.15208300  0.17399000  0.22369900  1
  Mn  Mn8  1  0.08027400  0.68571800  0.07961600  1
  Mn  Mn9  1  0.71437800  0.63093700  0.54329400  1
  Mn  Mn10  1  0.50000000  0.45361300  0.45361300  1
  Mn  Mn11  1  0.58027400  0.31428200  0.92038400  1
  Mn  Mn12  1  0.21437800  0.36906300  0.45670600  1
  Mn  Mn13  1  0.07392800  0.39811200  0.00925900  1
  Mn  Mn14  1  0.32392800  0.49074100  0.89811200  1
  Mn  Mn15  1  0.83027400  0.57961600  0.81428200  1
  Mn  Mn16  1  0.91972600  0.07961600  0.68571800  1
  Mn  Mn17  1  0.50000000  0.13626800  0.13626800  1
  Mn  Mn18  1  0.59791700  0.67399000  0.27630100  1
  Mn  Mn19  1  0.17607200  0.10188800  0.50925900  1
  Mn  Mn20  1  0.65208300  0.82601000  0.77630100  1
  Mn  Mn21  1  0.66972600  0.18571800  0.42038400  1
  Mn  Mn22  1  0.84791700  0.22369900  0.17399000  1
  Mn  Mn23  1  0.53562200  0.86906300  0.04329400  1
  Mn  Mn24  1  0.28562200  0.54329400  0.63093700  1
  Mn  Mn25  1  0.33027400  0.42038400  0.18571800  1
  Mn  Mn26  1  0.92607200  0.00925900  0.39811200  1
  Mn  Mn27  1  0.75000000  0.04638700  0.95361300  1
  Mn  Mn28  1  0.25000000  0.63626800  0.36373200  1
  Mn  Mn29  1  0.67607200  0.89811200  0.49074100  1
  Mn  Mn30  1  0.82392800  0.50925900  0.10188800  1
  Mn  Mn31  1  0.57392800  0.60188800  0.99074100  1
  Mn  Mn32  1  0.41972600  0.92038400  0.31428200  1
  Mn  Mn33  1  0.40208300  0.27630100  0.67399000  1
  Mn  Mn34  1  0.09791700  0.32601000  0.72369900  1
  Mn  Mn35  1  0.42607200  0.99074100  0.60188800  1
  Mn  Mn36  1  0.46437800  0.04329400  0.86906300  1
  Mn  Mn37  1  0.75000000  0.36373200  0.63626800  1
  Mn  Mn38  1  0.34791700  0.77630100  0.82601000  1
  Mn  Mn39  1  0.96437800  0.95670600  0.13093700  1
  Si  Si0  1  0.35122200  0.69272200  0.11615500  1
  Si  Si1  1  0.89877800  0.80727800  0.61615500  1
  Si  Si2  1  0.14877800  0.88384500  0.30727800  1
  Si  Si3  1  0.85122200  0.30727800  0.88384500  1
  Si  Si4  1  0.04811400  0.46740900  0.26549500  1
  Si  Si5  1  0.20188500  0.03259100  0.76549500  1
  Si  Si6  1  0.64877800  0.11615500  0.69272200  1
  Si  Si7  1  0.10122200  0.61615500  0.80727800  1
  Si  Si8  1  0.54811400  0.53259100  0.73450500  1
  Si  Si9  1  0.79811400  0.76549500  0.03259100  1
  Si  Si10  1  0.70188600  0.96740900  0.23450500  1
  Si  Si11  1  0.45188500  0.73450500  0.53259100  1
  Si  Si12  1  0.39877800  0.19272200  0.38384500  1
  Si  Si13  1  0.29811500  0.23450500  0.96740900  1
  Si  Si14  1  0.60122200  0.38384500  0.19272200  1
  Si  Si15  1  0.95188600  0.26549500  0.46740900  1
loop_
_geom_bond_atom_site_label_1
_geom_bond_atom_site_label_2
_geom_bond_distance
_geom_bond_site_symmetry_2
Mn0 Si7 2.377581 1_555
Mn0 Si1 2.377581 1_455
Mn0 Si5 2.422902 1_565
Mn0 Si9 2.422908 1_456
Mn0 Mn6 2.486741 1_565
Mn0 Mn39 2.486741 1_456
Mn0 Mn27 2.775275 1_465
Mn0 Mn4 2.775275 1_556
Mn1 Si7 2.509181 1_555
Mn1 Si1 2.509181 1_455
Mn1 Mn12 2.519833 1_555
Mn1 Mn3 2.519833 1_455
Mn1 Mn24 2.545895 1_555
Mn1 Mn9 2.545895 1_455
Mn1 Si15 2.578325 1_455
Mn1 Si4 2.578325 1_555
Mn1 Mn34 2.605079 1_555
Mn1 Mn2 2.605079 1_455
Mn1 Mn5 2.764449 1_555
Mn1 Mn15 2.764449 1_455
Mn1 Mn37 2.775275 1_455
Mn1 Mn28 2.775275 1_555
Mn2 Si2 2.531276 1_655
Mn2 Mn3 2.559914 1_555
Mn2 Mn9 2.609963 1_555
Mn2 Si4 2.613315 1_655
Mn2 Si1 2.634222 1_555
Mn2 Mn39 2.703747 1_555
Mn2 Si9 2.733442 1_555
Mn2 Si10 2.841483 1_555
Mn3 Mn9 2.233796 1_555
Mn3 Si14 2.290211 1_555
Mn3 Si15 2.351650 1_555
Mn3 Mn30 2.397797 1_555
Mn3 Si4 2.416451 1_655
Mn3 Mn37 2.486741 1_555
Mn4 Si0 2.509181 1_555
Mn4 Si2 2.509181 1_555
Mn4 Mn6 2.519833 1_564
Mn4 Si13 2.578327 1_564
Mn4 Si5 2.578327 1_564
Mn4 Mn7 2.605079 1_565
Mn4 Mn8 2.764449 1_555
Mn5 Si1 2.334054 1_455
Mn5 Si2 2.458587 1_555
Mn5 Si5 2.516292 1_565
Mn5 Si11 2.538970 1_555
Mn5 Si7 2.696915 1_555
Mn6 Si3 2.290211 1_455
Mn6 Si5 2.351645 1_555
Mn6 Si13 2.416459 1_555
Mn6 Mn7 2.559914 1_556
Mn7 Si12 2.531276 1_555
Mn7 Si13 2.613319 1_554
Mn7 Si2 2.634222 1_545
Mn7 Si4 2.733442 1_555
Mn7 Si15 2.841483 1_455
Mn8 Si0 2.334054 1_555
Mn8 Si7 2.458587 1_554
Mn8 Si4 2.516293 1_555
Mn8 Si9 2.538978 1_455
Mn8 Si2 2.696915 1_555
Mn9 Si1 2.290211 1_555
Mn9 Si8 2.351650 1_555
Mn9 Si11 2.416459 1_555
Mn10 Si14 2.509181 1_555
Mn10 Si12 2.509181 1_555
Mn10 Mn9 2.519833 1_555
Mn10 Mn24 2.519833 1_555
Mn10 Mn3 2.545895 1_555
Mn10 Mn12 2.545895 1_555
Mn10 Si8 2.578325 1_555
Mn10 Si11 2.578327 1_555
Mn10 Mn18 2.605079 1_555
Mn10 Mn33 2.605079 1_555
Mn10 Mn21 2.764449 1_555
Mn10 Mn25 2.764449 1_555
Mn10 Mn28 2.775275 1_555
Mn10 Mn37 2.775275 1_555
Mn11 Si3 2.334054 1_555
Mn11 Si14 2.458587 1_556
Mn11 Si8 2.516293 1_555
Mn11 Si13 2.538970 1_555
Mn11 Mn36 2.601260 1_555
Mn11 Si6 2.696915 1_555
Mn11 Mn27 2.764449 1_555
Mn12 Mn24 2.233796 1_555
Mn12 Si12 2.290211 1_555
Mn12 Si4 2.351650 1_555
Mn12 Mn19 2.397797 1_555
Mn12 Si15 2.416451 1_455
Mn12 Mn28 2.486741 1_555
Mn12 Mn34 2.559914 1_555
Mn12 Mn25 2.601260 1_555
Mn12 Mn33 2.609963 1_555
Mn12 Mn7 2.703747 1_555
Mn13 Si4 2.326085 1_555
Mn13 Si3 2.331162 1_454
Mn13 Mn6 2.397797 1_554
Mn13 Si13 2.414110 1_554
Mn13 Si7 2.603293 1_554
Mn14 Si13 2.326085 1_555
Mn14 Si7 2.331162 1_555
Mn14 Mn24 2.397797 1_555
Mn14 Si8 2.414104 1_555
Mn14 Si0 2.603293 1_556
Mn15 Si7 2.334054 1_655
Mn15 Si3 2.458587 1_555
Mn15 Si9 2.516293 1_556
Mn15 Si8 2.538978 1_555
Mn15 Mn9 2.601260 1_555
Mn15 Si1 2.696915 1_555
Mn16 Si6 2.334054 1_555
Mn16 Si1 2.458587 1_545
Mn16 Si15 2.516293 1_555
Mn16 Si5 2.538970 1_655
Mn16 Mn6 2.601260 1_655
Mn16 Si3 2.696915 1_555
Mn16 Mn27 2.764449 1_555
Mn17 Si14 2.377581 1_555
Mn17 Si12 2.377581 1_555
Mn17 Si13 2.422902 1_554
Mn17 Si10 2.422908 1_545
Mn17 Mn23 2.486741 1_545
Mn17 Mn36 2.486741 1_554
Mn17 Mn27 2.775275 1_554
Mn17 Mn4 2.775275 1_545
Mn18 Si0 2.531276 1_555
Mn18 Mn9 2.559914 1_555
Mn18 Mn3 2.609963 1_555
Mn18 Si11 2.613319 1_555
Mn18 Si14 2.634222 1_555
Mn18 Mn23 2.703747 1_555
Mn18 Si10 2.733442 1_555
Mn18 Si9 2.841483 1_555
Mn19 Si5 2.326085 1_555
Mn19 Si12 2.331162 1_555
Mn19 Si15 2.414104 1_455
Mn19 Si2 2.603293 1_545
Mn20 Si1 2.531276 1_555
Mn20 Mn23 2.559914 1_556
Mn20 Mn27 2.605079 1_565
Mn20 Mn36 2.609963 1_565
Mn20 Si9 2.613315 1_556
Mn20 Si6 2.634222 1_565
Mn20 Mn9 2.703747 1_555
Mn20 Si8 2.733442 1_555
Mn20 Si11 2.841488 1_555
Mn21 Si12 2.334054 1_555
Mn21 Si6 2.458587 1_555
Mn21 Si10 2.516293 1_545
Mn21 Si15 2.538978 1_555
Mn21 Mn3 2.601260 1_555
Mn21 Si14 2.696915 1_555
Mn22 Si14 2.531276 1_555
Mn22 Mn39 2.559914 1_545
Mn22 Mn27 2.605079 1_554
Mn22 Mn6 2.609963 1_654
Mn22 Si10 2.613315 1_545
Mn22 Si3 2.634222 1_554
Mn22 Mn3 2.703747 1_555
Mn22 Si15 2.733442 1_555
Mn22 Si4 2.841483 1_655
Mn23 Mn36 2.233796 1_564
Mn23 Si0 2.290211 1_555
Mn23 Si10 2.351650 1_555
Mn23 Mn31 2.397797 1_554
Mn23 Si9 2.416451 1_555
Mn23 Mn27 2.519833 1_564
Mn23 Mn4 2.545895 1_555
Mn23 Mn32 2.601260 1_555
Mn23 Mn38 2.609963 1_554
Mn24 Si7 2.290211 1_555
Mn24 Si11 2.351645 1_555
Mn24 Si8 2.416451 1_555
Mn24 Mn28 2.486741 1_555
Mn24 Mn33 2.559914 1_555
Mn24 Mn5 2.601260 1_555
Mn24 Mn34 2.609963 1_555
Mn24 Mn38 2.703747 1_555
Mn25 Si14 2.334054 1_555
Mn25 Si0 2.458587 1_555
Mn25 Si13 2.516292 1_554
Mn25 Si4 2.538978 1_555
Mn25 Si12 2.696915 1_555
Mn26 Si15 2.326085 1_555
Mn26 Si2 2.331162 1_645
Mn26 Mn39 2.397797 1_545
Mn26 Si10 2.414104 1_545
Mn26 Si1 2.603293 1_545
Mn27 Si6 2.509181 1_555
Mn27 Si3 2.509181 1_555
Mn27 Mn39 2.519833 1_546
Mn27 Mn6 2.545895 1_655
Mn27 Mn36 2.545895 1_555
Mn27 Si10 2.578325 1_546
Mn27 Si9 2.578325 1_546
Mn28 Si0 2.377581 1_555
Mn28 Si2 2.377581 1_555
Mn28 Si11 2.422902 1_555
Mn28 Si4 2.422908 1_555
Mn29 Si10 2.326085 1_555
Mn29 Si1 2.331162 1_555
Mn29 Mn9 2.397797 1_555
Mn29 Si11 2.414110 1_555
Mn29 Si6 2.603293 1_565
Mn30 Si9 2.326085 1_555
Mn30 Si14 2.331162 1_555
Mn30 Si4 2.414104 1_655
Mn30 Si3 2.603293 1_554
Mn31 Si8 2.326085 1_555
Mn31 Si0 2.331162 1_556
Mn31 Si9 2.414104 1_556
Mn31 Si14 2.603293 1_556
Mn32 Si2 2.334054 1_555
Mn32 Si12 2.458587 1_565
Mn32 Si11 2.516292 1_555
Mn32 Si10 2.538978 1_555
Mn32 Si0 2.696915 1_555
Mn32 Mn4 2.764449 1_555
Mn33 Si6 2.531276 1_555
Mn33 Si8 2.613315 1_555
Mn33 Si12 2.634222 1_555
Mn33 Mn36 2.703747 1_555
Mn33 Si13 2.733439 1_555
Mn33 Si5 2.841488 1_555
Mn34 Si3 2.531276 1_455
Mn34 Si15 2.613315 1_455
Mn34 Si7 2.634222 1_555
Mn34 Mn6 2.703747 1_555
Mn34 Si5 2.733439 1_555
Mn34 Si13 2.841488 1_555
Mn35 Si11 2.326085 1_555
Mn35 Si6 2.331162 1_565
Mn35 Mn36 2.397797 1_565
Mn35 Si5 2.414110 1_565
Mn35 Si12 2.603293 1_565
Mn36 Si6 2.290211 1_555
Mn36 Si13 2.351645 1_555
Mn36 Si5 2.416459 1_555
Mn36 Mn4 2.519833 1_546
Mn36 Mn38 2.559914 1_545
Mn37 Si3 2.377581 1_555
Mn37 Si6 2.377581 1_555
Mn37 Si8 2.422908 1_555
Mn37 Si15 2.422908 1_555
Mn37 Mn9 2.486741 1_555
Mn38 Si7 2.531276 1_555
Mn38 Mn4 2.605079 1_556
Mn38 Si5 2.613319 1_565
Mn38 Si0 2.634222 1_556
Mn38 Si11 2.733439 1_555
Mn38 Si8 2.841483 1_555
Mn39 Mn6 2.233796 1_664
Mn39 Si2 2.290211 1_655
Mn39 Si9 2.351650 1_555
Mn39 Si10 2.416451 1_555
Mn39 Mn4 2.545895 1_655
Mn39 Mn8 2.601260 1_655
Mn39 Mn7 2.609963 1_665
Si10 Si9 2.622830 1_555
Si11 Si8 2.622833 1_555
Si13 Si5 2.622836 1_555
Si15 Si4 2.622830 1_655
