# generated using pymatgen
data_HfTl8(MoO4)6
_symmetry_space_group_name_H-M   'P 1'
_cell_length_a   10.88446056
_cell_length_b   10.88446056
_cell_length_c   8.00524455
_cell_angle_alpha   81.40874797
_cell_angle_beta   81.40874797
_cell_angle_gamma   124.20184177
_symmetry_Int_Tables_number   1
_chemical_formula_structural   HfTl8(MoO4)6
_chemical_formula_sum   'Hf1 Tl8 Mo6 O24'
_cell_volume   743.33292145
_cell_formula_units_Z   1
loop_
 _symmetry_equiv_pos_site_id
 _symmetry_equiv_pos_as_xyz
  1  'x, y, z'
loop_
 _atom_site_type_symbol
 _atom_site_label
 _atom_site_symmetry_multiplicity
 _atom_site_fract_x
 _atom_site_fract_y
 _atom_site_fract_z
 _atom_site_occupancy
  Hf  Hf0  1  0.00000000  0.00000000  0.00000000  1
  Tl  Tl0  1  0.21487300  0.21487300  0.35885900  1
  Tl  Tl1  1  0.51593800  0.86362900  0.89688100  1
  Tl  Tl2  1  0.66639500  0.33360500  0.50000000  1
  Tl  Tl3  1  0.78512700  0.78512700  0.64114100  1
  Tl  Tl4  1  0.48406200  0.13637100  0.10311900  1
  Tl  Tl5  1  0.33360500  0.66639500  0.50000000  1
  Tl  Tl6  1  0.86362900  0.51593800  0.89688100  1
  Tl  Tl7  1  0.13637100  0.48406200  0.10311900  1
  Mo  Mo0  1  0.94428000  0.25977700  0.70833100  1
  Mo  Mo1  1  0.05572000  0.74022300  0.29166900  1
  Mo  Mo2  1  0.61253700  0.61253700  0.21325200  1
  Mo  Mo3  1  0.74022300  0.05572000  0.29166900  1
  Mo  Mo4  1  0.25977700  0.94428000  0.70833100  1
  Mo  Mo5  1  0.38746300  0.38746300  0.78674800  1
  O  O0  1  0.05943900  0.90889500  0.19228600  1
  O  O1  1  0.93518900  0.58459700  0.20741800  1
  O  O2  1  0.90889500  0.05943900  0.19228600  1
  O  O3  1  0.75705200  0.21693600  0.77084300  1
  O  O4  1  0.94056100  0.09110500  0.80771400  1
  O  O5  1  0.24294800  0.78306400  0.22915700  1
  O  O6  1  0.67698800  0.97729800  0.52557400  1
  O  O7  1  0.56249500  0.41321000  0.79955900  1
  O  O8  1  0.02270200  0.32301200  0.47442600  1
  O  O9  1  0.21693600  0.75705200  0.77084300  1
  O  O10  1  0.41540300  0.06481100  0.79258200  1
  O  O11  1  0.43750500  0.58679000  0.20044100  1
  O  O12  1  0.78507900  0.78507900  0.03591700  1
  O  O13  1  0.78306400  0.24294800  0.22915700  1
  O  O14  1  0.32301200  0.02270200  0.47442600  1
  O  O15  1  0.41321000  0.56249500  0.79955900  1
  O  O16  1  0.97729800  0.67698800  0.52557400  1
  O  O17  1  0.58459700  0.93518900  0.20741800  1
  O  O18  1  0.06481100  0.41540300  0.79258200  1
  O  O19  1  0.34953300  0.34953300  0.58511200  1
  O  O20  1  0.21492100  0.21492100  0.96408300  1
  O  O21  1  0.09110500  0.94056100  0.80771400  1
  O  O22  1  0.65046700  0.65046700  0.41488800  1
  O  O23  1  0.58679000  0.43750500  0.20044100  1
loop_
_geom_bond_atom_site_label_1
_geom_bond_atom_site_label_2
_geom_bond_distance
_geom_bond_site_symmetry_2
Hf0 O2 2.081838 1_455
Hf0 O0 2.081838 1_545
Hf0 O21 2.081838 1_544
Hf0 O4 2.081838 1_454
Hf0 O20 2.115021 1_554
Hf0 O12 2.115021 1_445
Mo0 O18 1.775583 1_655
Mo0 O3 1.782720 1_555
Mo0 O8 1.784771 1_655
Mo0 O4 1.864291 1_555
Mo1 O1 1.775583 1_455
Mo1 O5 1.782720 1_555
Mo1 O16 1.784771 1_455
Mo1 O0 1.864291 1_555
Mo2 O22 1.775650 1_555
Mo2 O11 1.784744 1_555
Mo2 O23 1.784744 1_555
Mo2 O12 1.873788 1_555
Mo3 O17 1.775583 1_545
Mo3 O13 1.782720 1_555
Mo3 O6 1.784771 1_545
Mo3 O2 1.864291 1_555
Mo4 O10 1.775583 1_565
Mo4 O9 1.782720 1_555
Mo4 O14 1.784771 1_565
Mo4 O21 1.864291 1_555
Mo5 O19 1.775650 1_555
Mo5 O15 1.784744 1_555
Mo5 O7 1.784744 1_555
Mo5 O20 1.873788 1_555
O1 Tl6 2.797165 1_554
O6 Tl1 2.888784 1_555
O8 Tl7 2.888784 1_555
O10 Tl4 2.797165 1_556
O14 Tl4 2.888784 1_555
O16 Tl6 2.888784 1_555
O17 Tl1 2.797165 1_554
O18 Tl7 2.797165 1_556
O19 Tl0 2.597727 1_555
O22 Tl3 2.597727 1_555
