# generated using pymatgen
data_AlHO2
_symmetry_space_group_name_H-M   'P 1'
_cell_length_a   6.14653375
_cell_length_b   6.14653375
_cell_length_c   3.70066778
_cell_angle_alpha   90.00000000
_cell_angle_beta   90.00000000
_cell_angle_gamma   26.92996224
_symmetry_Int_Tables_number   1
_chemical_formula_structural   AlHO2
_chemical_formula_sum   'Al2 H2 O4'
_cell_volume   63.32043996
_cell_formula_units_Z   2
loop_
 _symmetry_equiv_pos_site_id
 _symmetry_equiv_pos_as_xyz
  1  'x, y, z'
loop_
 _atom_site_type_symbol
 _atom_site_label
 _atom_site_symmetry_multiplicity
 _atom_site_fract_x
 _atom_site_fract_y
 _atom_site_fract_z
 _atom_site_occupancy
  Al  Al0  1  0.68097016  0.68097016  0.25122022  1
  Al  Al1  1  0.31902984  0.31902984  0.75122022  1
  H  H0  1  0.01954244  0.01954244  0.43845705  1
  H  H1  1  0.98045756  0.98045756  0.93845705  1
  O  O0  1  0.29094010  0.29094010  0.25185776  1
  O  O1  1  0.70905990  0.70905990  0.75185776  1
  O  O2  1  0.07810967  0.07810967  0.24717996  1
  O  O3  1  0.92189033  0.92189033  0.74717996  1
loop_
_geom_bond_atom_site_label_1
_geom_bond_atom_site_label_2
_geom_bond_distance
_geom_bond_site_symmetry_2
Al0 O1 1.878239 1_554
Al0 O1 1.882882 1_555
Al0 O2 1.887016 1_655
Al0 O2 1.887016 1_565
Al0 O0 1.943418 1_655
Al0 O0 1.943418 1_565
Al1 O0 1.878239 1_555
Al1 O0 1.882882 1_556
Al1 O3 1.887016 1_545
Al1 O3 1.887016 1_455
Al1 O1 1.943418 1_545
Al1 O1 1.943418 1_455
H0 O2 0.995645 1_555
H0 O3 1.633461 1_445
H1 O3 0.995645 1_555
H1 O2 1.633461 1_666
