# generated using pymatgen
data_Ti3Fe5O12
_symmetry_space_group_name_H-M   'P 1'
_cell_length_a   5.15678000
_cell_length_b   5.54432585
_cell_length_c   7.59441390
_cell_angle_alpha   95.32044376
_cell_angle_beta   90.23487490
_cell_angle_gamma   90.03179812
_symmetry_Int_Tables_number   1
_chemical_formula_structural   Ti3Fe5O12
_chemical_formula_sum   'Ti3 Fe5 O12'
_cell_volume   216.19350843
_cell_formula_units_Z   1
loop_
 _symmetry_equiv_pos_site_id
 _symmetry_equiv_pos_as_xyz
  1  'x, y, z'
loop_
 _atom_site_type_symbol
 _atom_site_label
 _atom_site_symmetry_multiplicity
 _atom_site_fract_x
 _atom_site_fract_y
 _atom_site_fract_z
 _atom_site_occupancy
  Ti  Ti0  1  0.00184400  0.28732600  0.35782800  1
  Ti  Ti1  1  0.99497500  0.30409100  0.86148100  1
  Ti  Ti2  1  0.50589500  0.78285800  0.34922700  1
  Fe  Fe0  1  0.99948200  0.71434900  0.13902900  1
  Fe  Fe1  1  0.50081400  0.20559900  0.64735400  1
  Fe  Fe2  1  0.50053600  0.79095300  0.85382900  1
  Fe  Fe3  1  0.99863600  0.71675100  0.64520800  1
  Fe  Fe4  1  0.49903800  0.20895400  0.14244900  1
  O  O0  1  0.15043200  0.33353900  0.58340600  1
  O  O1  1  0.18984200  0.02281200  0.26716700  1
  O  O2  1  0.37594600  0.84967800  0.58429000  1
  O  O3  1  0.62721400  0.83919900  0.10117900  1
  O  O4  1  0.16615700  0.63769800  0.89136400  1
  O  O5  1  0.69154700  0.49589400  0.75825600  1
  O  O6  1  0.30532600  0.51698200  0.26776800  1
  O  O7  1  0.87237600  0.32955400  0.09094700  1
  O  O8  1  0.31919900  0.14745700  0.88576000  1
  O  O9  1  0.67897500  0.15137100  0.40884100  1
  O  O10  1  0.79993300  0.02337600  0.76582800  1
  O  O11  1  0.82183200  0.64156000  0.39878800  1
loop_
_geom_bond_atom_site_label_1
_geom_bond_atom_site_label_2
_geom_bond_distance
_geom_bond_site_symmetry_2
Fe0 O3 2.069032 1_555
Fe0 O4 2.079051 1_654
Fe0 O1 2.125353 1_665
Fe0 O6 2.197375 1_655
Fe0 O7 2.228563 1_555
Fe0 O11 2.248504 1_555
Fe1 O5 2.001820 1_555
Fe1 O0 2.015394 1_555
Fe1 O9 2.031865 1_555
Fe1 O2 2.087792 1_545
Fe1 O10 2.090085 1_555
Fe1 O8 2.093072 1_555
Fe2 O4 1.955464 1_555
Fe2 O3 1.980790 1_556
Fe2 O5 1.990144 1_555
Fe2 O10 2.157980 1_565
Fe2 O8 2.180622 1_565
Fe2 O2 2.195909 1_555
Fe3 O11 2.085225 1_555
Fe3 O10 2.121319 1_565
Fe3 O4 2.138270 1_655
Fe3 O2 2.147551 1_655
Fe3 O5 2.224455 1_555
Fe3 O0 2.273126 1_655
Fe4 O7 2.088012 1_555
Fe4 O6 2.128029 1_555
Fe4 O3 2.149846 1_545
Fe4 O8 2.153611 1_554
Fe4 O1 2.167101 1_555
Fe4 O9 2.271681 1_555
O0 Ti0 1.869547 1_555
O0 Ti1 2.281832 1_455
O1 Ti0 1.839696 1_555
O1 Ti2 2.227651 1_545
O2 Ti2 1.913259 1_555
O3 Ti2 2.038668 1_555
O4 Ti1 2.042196 1_455
O5 Ti1 2.083296 1_555
O6 Ti2 1.857252 1_555
O6 Ti0 2.169404 1_555
O7 Ti1 1.849324 1_554
O7 Ti0 2.164619 1_655
O8 Ti1 1.900624 1_455
O9 Ti0 1.883728 1_655
O9 Ti2 2.235888 1_545
O10 Ti1 1.934997 1_555
O11 Ti2 1.860325 1_555
O11 Ti0 2.169520 1_655
