# generated using pymatgen
data_C68OF20
_symmetry_space_group_name_H-M   'P 1'
_cell_length_a   10.17765200
_cell_length_b   12.36702750
_cell_length_c   16.92806163
_cell_angle_alpha   80.15230283
_cell_angle_beta   78.07369358
_cell_angle_gamma   74.92129248
_symmetry_Int_Tables_number   1
_chemical_formula_structural   C68OF20
_chemical_formula_sum   'C136 O2 F40'
_cell_volume   1997.35119780
_cell_formula_units_Z   2
loop_
 _symmetry_equiv_pos_site_id
 _symmetry_equiv_pos_as_xyz
  1  'x, y, z'
loop_
 _atom_site_type_symbol
 _atom_site_label
 _atom_site_symmetry_multiplicity
 _atom_site_fract_x
 _atom_site_fract_y
 _atom_site_fract_z
 _atom_site_occupancy
  C  C0  1  0.75048800  0.95241100  0.15300400  1
  C  C1  1  0.43739600  0.52045200  0.13476500  1
  C  C2  1  0.29962900  0.59225600  0.26122300  1
  C  C3  1  0.56260400  0.47954800  0.86523500  1
  C  C4  1  0.76666200  0.83607400  0.75098100  1
  C  C5  1  0.07004700  0.52903300  0.77484300  1
  C  C6  1  0.30339400  0.71771300  0.13999600  1
  C  C7  1  0.77811200  0.54346200  0.03715400  1
  C  C8  1  0.77341700  0.12700300  0.47714200  1
  C  C9  1  0.67255900  0.40087800  0.82699800  1
  C  C10  1  0.50272500  0.67200200  0.03004600  1
  C  C11  1  0.39206300  0.59885300  0.68635600  1
  C  C12  1  0.57600300  0.83884600  0.02263800  1
  C  C13  1  0.22188800  0.45653800  0.96284600  1
  C  C14  1  0.79345400  0.67105000  0.49779000  1
  C  C15  1  0.33602900  0.58516200  0.85957200  1
  C  C16  1  0.25532800  0.61561600  0.72749300  1
  C  C17  1  0.89045700  0.51935000  0.08282200  1
  C  C18  1  0.79836600  0.84261200  0.29729400  1
  C  C19  1  0.44965000  0.98732700  0.24467500  1
  C  C20  1  0.42351000  0.06279800  0.71520600  1
  C  C21  1  0.10954300  0.48065000  0.91717800  1
  C  C22  1  0.84186800  0.43406400  0.29731700  1
  C  C23  1  0.38156300  0.27506400  0.99938800  1
  C  C24  1  0.06593300  0.23620000  0.83460200  1
  C  C25  1  0.74467200  0.38438400  0.27250700  1
  C  C26  1  0.92997200  0.63607300  0.28907700  1
  C  C27  1  0.29075400  0.07197900  0.75497900  1
  C  C28  1  0.51776800  0.30885300  0.57459500  1
  C  C29  1  0.43578000  0.85586800  0.06522800  1
  C  C30  1  0.37456300  0.04442700  0.88698800  1
  C  C31  1  0.75340400  0.66193700  0.00412800  1
  C  C32  1  0.24659600  0.33806300  0.99587200  1
  C  C33  1  0.62423000  0.11690300  0.51754100  1
  C  C34  1  0.07256500  0.92286600  0.84597000  1
  C  C35  1  0.80402200  0.06189700  0.12000400  1
  C  C36  1  0.74197700  0.68134500  0.41532400  1
  C  C37  1  0.70037100  0.40774400  0.73877700  1
  C  C38  1  0.08265500  0.24189100  0.74399100  1
  C  C39  1  0.26190800  0.78343600  0.20809200  1
  C  C40  1  0.55035000  0.01267300  0.75532500  1
  C  C41  1  0.33050500  0.11410200  0.95189000  1
  C  C42  1  0.15813200  0.56593600  0.70268300  1
  C  C43  1  0.69555500  0.26771000  0.65185000  1
  C  C44  1  0.30880500  0.88155400  0.20407500  1
  C  C45  1  0.48223200  0.69114700  0.42540500  1
  C  C46  1  0.56411400  0.46844800  0.38086000  1
  C  C47  1  0.37577000  0.88309700  0.48245900  1
  C  C48  1  0.80922900  0.82075600  0.05164000  1
  C  C49  1  0.29497900  0.20062400  0.63063500  1
  C  C50  1  0.52249700  0.43216800  0.18302100  1
  C  C51  1  0.65248600  0.09009200  0.72639500  1
  C  C52  1  0.47343500  0.44237200  0.93777800  1
  C  C53  1  0.61188800  0.35582700  0.60326500  1
  C  C54  1  0.93479700  0.62319300  0.07784000  1
  C  C55  1  0.15355700  0.39940800  0.64147700  1
  C  C56  1  0.91473500  0.72563600  0.49763900  1
  C  C57  1  0.24951200  0.04758900  0.84699600  1
  C  C58  1  0.77312200  0.39126300  0.18439600  1
  C  C59  1  0.32744100  0.59912200  0.17300200  1
  C  C60  1  0.38167600  0.50711400  0.30768400  1
  C  C61  1  0.61832400  0.49288600  0.69231600  1
  C  C62  1  0.97229900  0.64986400  0.14591300  1
  C  C63  1  0.56422000  0.14413200  0.93477200  1
  C  C64  1  0.38705000  0.11450600  0.25726400  1
  C  C65  1  0.08526500  0.27436400  0.50236100  1
  C  C66  1  0.25964600  0.70667400  0.28216500  1
  C  C67  1  0.19597800  0.93810300  0.87999600  1
  C  C68  1  0.34252200  0.48243800  0.59533900  1
  C  C69  1  0.07002800  0.36392700  0.71092300  1
  C  C70  1  0.66397100  0.41483800  0.14042800  1
  C  C71  1  0.70502100  0.79937600  0.36936500  1
  C  C72  1  0.42614300  0.14195900  0.63855200  1
  C  C73  1  0.38510700  0.37108600  0.57065400  1
  C  C74  1  0.55613500  0.17923000  0.59420000  1
  C  C75  1  0.20163400  0.15738800  0.70270600  1
  C  C76  1  0.65438000  0.16401000  0.65545600  1
  C  C77  1  0.38811200  0.64417300  0.39673500  1
  C  C78  1  0.92995300  0.47096700  0.22515700  1
  C  C79  1  0.38920200  0.75325800  0.06991100  1
  C  C80  1  0.85066200  0.71082100  0.02962000  1
  C  C81  1  0.20112100  0.49991000  0.63805100  1
  C  C82  1  0.14544800  0.15193200  0.88094900  1
  C  C83  1  0.79887900  0.50009000  0.36194900  1
  C  C84  1  0.49143500  0.97136300  0.15384700  1
  C  C85  1  0.96985500  0.57227500  0.22098900  1
  C  C86  1  0.39674900  0.91860600  0.13134900  1
  C  C87  1  0.03014500  0.42772500  0.77901100  1
  C  C88  1  0.34562000  0.83599000  0.34454400  1
  C  C89  1  0.33348400  0.50781000  0.93425100  1
  C  C90  1  0.25802300  0.31865500  0.58467600  1
  C  C91  1  0.69660600  0.28228700  0.86000400  1
  C  C92  1  0.69119500  0.11844600  0.79592500  1
  C  C93  1  0.61489300  0.62891400  0.42934600  1
  C  C94  1  0.50856500  0.02863700  0.84615300  1
  C  C95  1  0.61079800  0.24674200  0.93008900  1
  C  C96  1  0.70924600  0.92802100  0.24502100  1
  C  C97  1  0.57385700  0.85804100  0.36144800  1
  C  C98  1  0.42557000  0.53344200  0.37704900  1
  C  C99  1  0.11172900  0.55540700  0.84502000  1
  C  C100  1  0.42399700  0.16115400  0.97736200  1
  C  C101  1  0.19077100  0.17924400  0.94836000  1
  C  C102  1  0.22687800  0.60873700  0.81560400  1
  C  C103  1  0.23333800  0.16392600  0.24901900  1
  C  C104  1  0.91734500  0.75810900  0.25600900  1
  C  C105  1  0.65747800  0.51756200  0.40466100  1
  C  C106  1  0.92743500  0.07713400  0.15403000  1
  C  C107  1  0.66651600  0.49219000  0.06574900  1
  C  C108  1  0.60793700  0.40114700  0.31364400  1
  C  C109  1  0.74035400  0.29332600  0.71783500  1
  C  C110  1  0.20654600  0.32895000  0.50221000  1
  C  C111  1  0.14933800  0.28917900  0.97038000  1
  C  C112  1  0.60325100  0.08139400  0.86865100  1
  C  C113  1  0.02770100  0.35013600  0.85408700  1
  C  C114  1  0.49486700  0.42529200  0.26836000  1
  C  C115  1  0.44386500  0.82077000  0.40580000  1
  C  C116  1  0.57649000  0.93720200  0.28479400  1
  C  C117  1  0.52656500  0.55762800  0.06222200  1
  C  C118  1  0.50513300  0.57470800  0.73164000  1
  C  C119  1  0.34751400  0.90990800  0.27360500  1
  C  C120  1  0.84644300  0.60059200  0.35852300  1
  C  C121  1  0.47750300  0.56783200  0.81697900  1
  C  C122  1  0.93406700  0.76380000  0.16539800  1
  C  C123  1  0.66949500  0.88589800  0.04811000  1
  C  C124  1  0.85455200  0.84806800  0.11905100  1
  C  C125  1  0.43588600  0.53155200  0.61914000  1
  C  C126  1  0.88827100  0.44459300  0.15498000  1
  C  C127  1  0.22658300  0.87299700  0.52285800  1
  C  C128  1  0.49727500  0.32799800  0.96995400  1
  C  C129  1  0.57443000  0.46655800  0.62295100  1
  C  C130  1  0.73809200  0.21656400  0.79190800  1
  C  C131  1  0.61843700  0.72493600  0.00061200  1
  C  C132  1  0.06520300  0.37680700  0.92216000  1
  C  C133  1  0.30444500  0.73229000  0.34815000  1
  C  C134  1  0.62543700  0.95557300  0.11301200  1
  C  C135  1  0.61295000  0.88549400  0.74273600  1
  O  O0  1  0.94101300  0.84070500  0.29714100  1
  O  O1  1  0.05898700  0.15929500  0.70285900  1
  F  F0  1  0.05244800  0.29362700  0.42669900  1
  F  F1  1  0.81258400  0.07686900  0.40813700  1
  F  F2  1  0.97186000  0.31966900  0.55452200  1
  F  F3  1  0.13501100  0.92351900  0.47236700  1
  F  F4  1  0.89333600  0.08301100  0.23507500  1
  F  F5  1  0.02814000  0.68033100  0.44547800  1
  F  F6  1  0.63111100  0.00356100  0.53721100  1
  F  F7  1  0.31232300  0.28324900  0.44451600  1
  F  F8  1  0.94755200  0.70637300  0.57330100  1
  F  F9  1  0.54240300  0.81789700  0.79936300  1
  F  F10  1  0.96207000  0.17447700  0.11689400  1
  F  F11  1  0.78800900  0.85106900  0.82472400  1
  F  F12  1  0.70047500  0.15579100  0.13421400  1
  F  F13  1  0.96094800  0.00913000  0.86065400  1
  F  F14  1  0.14820700  0.11460800  0.30811000  1
  F  F15  1  0.54514400  0.15568800  0.45767400  1
  F  F16  1  0.12052800  0.16158200  0.52406200  1
  F  F17  1  0.68767700  0.71675100  0.55548400  1
  F  F18  1  0.03905200  0.99087000  0.13934600  1
  F  F19  1  0.84526200  0.06640000  0.03680100  1
  F  F20  1  0.22135600  0.76276500  0.54282800  1
  F  F21  1  0.60009800  0.86722400  0.66742500  1
  F  F22  1  0.10666400  0.91698900  0.76492500  1
  F  F23  1  0.85179300  0.88539200  0.69189000  1
  F  F24  1  0.39990200  0.13277600  0.33257500  1
  F  F25  1  0.45759700  0.18210300  0.20063700  1
  F  F26  1  0.45485600  0.84431200  0.54232600  1
  F  F27  1  0.18741600  0.92313100  0.59186300  1
  F  F28  1  0.03793000  0.82552300  0.88310600  1
  F  F29  1  0.29952500  0.84420900  0.86578600  1
  F  F30  1  0.86498900  0.07648100  0.52763300  1
  F  F31  1  0.20020800  0.27629600  0.25418100  1
  F  F32  1  0.77864400  0.23723500  0.45717200  1
  F  F33  1  0.15473800  0.93360000  0.96319900  1
  F  F34  1  0.87947200  0.83841800  0.47593800  1
  F  F35  1  0.83717900  0.55821700  0.52540100  1
  F  F36  1  0.79979200  0.72370400  0.74581900  1
  F  F37  1  0.16282100  0.44178300  0.47459900  1
  F  F38  1  0.21199100  0.14893100  0.17527600  1
  F  F39  1  0.36888900  0.99643900  0.46278900  1
loop_
_geom_bond_atom_site_label_1
_geom_bond_atom_site_label_2
_geom_bond_distance
_geom_bond_site_symmetry_2
C0 C96 1.525920 1_555
C0 C134 1.549462 1_555
C0 C124 1.551862 1_555
C0 C35 1.562561 1_565
C1 C59 1.402651 1_555
C1 C50 1.450813 1_555
C1 C117 1.451329 1_555
C2 C60 1.398314 1_555
C2 C66 1.451171 1_555
C2 C59 1.453280 1_555
C3 C9 1.402651 1_555
C3 C52 1.451329 1_555
C4 F23 1.353273 1_555
C4 F36 1.355769 1_555
C4 F11 1.360938 1_555
C5 C87 1.400805 1_555
C5 C99 1.452730 1_555
C6 C79 1.398784 1_555
C8 F30 1.353925 1_555
C8 F1 1.354441 1_555
C8 F32 1.359486 1_555
C9 C91 1.453447 1_555
C10 C117 1.403134 1_555
C10 C79 1.451132 1_555
C10 C131 1.452844 1_555
C11 C16 1.401184 1_555
C11 C125 1.451687 1_555
C11 C118 1.452110 1_555
C12 C123 1.404783 1_555
C12 C29 1.439160 1_555
C12 C131 1.451422 1_555
C13 C89 1.403163 1_555
C13 C21 1.450182 1_555
C13 C32 1.452160 1_555
C14 F17 1.367457 1_555
C14 F35 1.379656 1_555
C14 C36 1.564054 1_555
C15 C89 1.449002 1_555
C16 C42 1.452114 1_555
C17 C7 1.450182 1_555
C17 C54 1.452158 1_555
C18 O0 1.445328 1_555
C18 C96 1.494973 1_555
C18 C71 1.496339 1_555
C19 C84 1.540704 1_555
C19 C64 1.569166 1_565
C20 C27 1.364600 1_555
C20 C72 1.485818 1_555
C20 C40 1.521183 1_555
C21 C99 1.400167 1_555
C22 C83 1.406087 1_555
C22 C78 1.440033 1_555
C22 C25 1.452114 1_555
C23 C32 1.399487 1_555
C24 C82 1.378576 1_555
C24 C38 1.499361 1_555
C25 C58 1.451450 1_555
C26 C85 1.437645 1_555
C27 C75 1.494973 1_555
C27 C57 1.525920 1_555
C28 C73 1.377961 1_555
C28 C53 1.438317 1_555
C28 C74 1.542170 1_555
C29 C86 1.401983 1_555
C29 C79 1.450645 1_555
C30 C94 1.376209 1_555
C30 C41 1.438677 1_555
C30 C57 1.549462 1_555
C31 C80 1.452120 1_555
C31 C7 1.452160 1_555
C33 F15 1.369302 1_555
C33 F6 1.370935 1_555
C33 C74 1.565547 1_555
C34 F22 1.353561 1_555
C34 F13 1.354200 1_465
C34 F28 1.356106 1_555
C35 F12 1.367818 1_555
C35 F19 1.379871 1_555
C36 C71 1.524561 1_555
C36 C93 1.551299 1_555
C37 C61 1.398314 1_555
C37 C9 1.453280 1_555
C38 O1 1.423678 1_555
C38 C69 1.499152 1_555
C39 C44 1.401623 1_555
C39 C66 1.437462 1_555
C39 C6 1.452061 1_555
C40 C94 1.540704 1_555
C40 C51 1.544065 1_555
C42 C81 1.406087 1_555
C42 C5 1.440033 1_555
C43 C76 1.437470 1_555
C43 C53 1.445390 1_555
C44 C86 1.446283 1_555
C45 C93 1.377961 1_555
C45 C77 1.438317 1_555
C46 C98 1.438281 1_555
C47 F26 1.369302 1_555
C47 F39 1.370935 1_555
C48 C80 1.405450 1_555
C49 C72 1.364980 1_555
C49 C75 1.496339 1_555
C49 C90 1.524561 1_555
C50 C70 1.449913 1_555
C51 C76 1.379203 1_555
C51 C92 1.438131 1_555
C52 C89 1.451276 1_555
C54 C62 1.399883 1_555
C54 C80 1.441332 1_555
C55 C69 1.379073 1_555
C55 C81 1.435034 1_555
C55 C90 1.551067 1_555
C56 F34 1.352014 1_555
C56 F5 1.355470 1_655
C56 F8 1.356401 1_555
C57 C82 1.551862 1_555
C57 C67 1.562561 1_545
C58 C70 1.404304 1_555
C59 C6 1.453447 1_555
C60 C98 1.451770 1_555
C62 C85 1.455585 1_555
C63 C95 1.450645 1_555
C64 F24 1.369774 1_555
C64 F25 1.373676 1_555
C65 F16 1.352014 1_555
C65 F2 1.355470 1_455
C65 F0 1.356401 1_555
C67 F29 1.367818 1_555
C67 F33 1.379871 1_555
C68 C73 1.438852 1_555
C68 C81 1.449878 1_555
C69 C87 1.437645 1_555
C71 C97 1.364980 1_555
C72 C74 1.521473 1_555
C73 C90 1.551299 1_555
C74 C76 1.540890 1_555
C75 O1 1.445328 1_555
C77 C98 1.401303 1_555
C78 C85 1.400805 1_555
C84 C86 1.436396 1_555
C91 C95 1.398784 1_555
C100 C41 1.404783 1_555
C100 C63 1.439160 1_555
C100 C23 1.451422 1_555
C101 C111 1.405450 1_555
C101 C82 1.435106 1_555
C101 C41 1.448339 1_555
C102 C15 1.404304 1_555
C102 C99 1.450869 1_555
C102 C16 1.451450 1_555
C103 F14 1.353273 1_555
C103 F31 1.355769 1_555
C103 F38 1.360938 1_555
C104 O0 1.423678 1_555
C104 C26 1.499152 1_555
C104 C122 1.499361 1_555
C105 C46 1.405854 1_555
C105 C93 1.438852 1_555
C105 C83 1.449878 1_555
C106 F4 1.353561 1_555
C106 F18 1.354200 1_645
C106 F10 1.356106 1_555
C107 C7 1.403163 1_555
C107 C70 1.449002 1_555
C107 C117 1.451276 1_555
C108 C25 1.401184 1_555
C108 C46 1.451687 1_555
C108 C114 1.452110 1_555
C109 C43 1.400935 1_555
C109 C130 1.437462 1_555
C109 C37 1.451171 1_555
C110 F7 1.367457 1_555
C110 F37 1.379656 1_555
C110 C90 1.564054 1_555
C111 C132 1.441332 1_555
C111 C32 1.452120 1_555
C112 C63 1.401983 1_555
C112 C94 1.436396 1_555
C112 C92 1.446283 1_555
C113 C132 1.399883 1_555
C113 C24 1.437460 1_555
C113 C87 1.455585 1_555
C114 C50 1.405620 1_555
C114 C60 1.449534 1_555
C115 C97 1.521473 1_555
C115 C88 1.540890 1_555
C115 C45 1.542170 1_555
C115 C47 1.565547 1_555
C116 C96 1.364600 1_555
C116 C97 1.485818 1_555
C116 C19 1.521183 1_555
C118 C121 1.405620 1_555
C118 C61 1.449534 1_555
C119 C88 1.379203 1_555
C119 C44 1.438131 1_555
C119 C19 1.544065 1_555
C120 C26 1.379073 1_555
C120 C83 1.435034 1_555
C120 C36 1.551067 1_555
C121 C15 1.449913 1_555
C121 C3 1.450813 1_555
C122 C124 1.378576 1_555
C122 C62 1.437460 1_555
C123 C134 1.438677 1_555
C123 C48 1.448339 1_555
C124 C48 1.435106 1_555
C125 C68 1.405854 1_555
C125 C129 1.438281 1_555
C126 C17 1.400167 1_555
C126 C58 1.450869 1_555
C126 C78 1.452730 1_555
C127 F3 1.353925 1_555
C127 F27 1.354441 1_555
C127 F20 1.359486 1_555
C128 C52 1.403134 1_555
C128 C95 1.451132 1_555
C128 C23 1.452844 1_555
C129 C53 1.401303 1_555
C129 C61 1.451770 1_555
C130 C92 1.401623 1_555
C130 C91 1.452061 1_555
C131 C31 1.399487 1_555
C132 C21 1.452158 1_555
C133 C66 1.400935 1_555
C133 C88 1.437470 1_555
C133 C77 1.445390 1_555
C134 C84 1.376209 1_555
C135 F21 1.369774 1_555
C135 F9 1.373676 1_555
C135 C40 1.569166 1_565
