# generated using pymatgen
data_Ce2In5Pd4
_symmetry_space_group_name_H-M   'P 1'
_cell_length_a   4.66742300
_cell_length_b   9.72280700
_cell_length_c   10.64051277
_cell_angle_alpha   77.30243057
_cell_angle_beta   90.00000000
_cell_angle_gamma   90.00000000
_symmetry_Int_Tables_number   1
_chemical_formula_structural   Ce2In5Pd4
_chemical_formula_sum   'Ce4 In10 Pd8'
_cell_volume   471.06212650
_cell_formula_units_Z   2
loop_
 _symmetry_equiv_pos_site_id
 _symmetry_equiv_pos_as_xyz
  1  'x, y, z'
loop_
 _atom_site_type_symbol
 _atom_site_label
 _atom_site_symmetry_multiplicity
 _atom_site_fract_x
 _atom_site_fract_y
 _atom_site_fract_z
 _atom_site_occupancy
  Ce  Ce0  1  0.25000000  0.32625900  0.70336800  1
  Ce  Ce1  1  0.75000000  0.67374100  0.29663200  1
  Ce  Ce2  1  0.25000000  0.22443600  0.11084200  1
  Ce  Ce3  1  0.75000000  0.77556400  0.88915800  1
  In  In0  1  0.75000000  0.08260700  0.65311600  1
  In  In1  1  0.25000000  0.83289300  0.64991900  1
  In  In2  1  0.75000000  0.42257200  0.92102600  1
  In  In3  1  0.75000000  0.16710700  0.35008100  1
  In  In4  1  0.75000000  0.59400700  0.64012600  1
  In  In5  1  0.25000000  0.88192000  0.07498100  1
  In  In6  1  0.25000000  0.57742800  0.07897400  1
  In  In7  1  0.25000000  0.91739300  0.34688400  1
  In  In8  1  0.75000000  0.11808000  0.92501900  1
  In  In9  1  0.25000000  0.40599300  0.35987400  1
  Pd  Pd0  1  0.25000000  0.01678000  0.81510000  1
  Pd  Pd1  1  0.25000000  0.12275100  0.50355700  1
  Pd  Pd2  1  0.75000000  0.42617800  0.18388600  1
  Pd  Pd3  1  0.75000000  0.87724900  0.49644300  1
  Pd  Pd4  1  0.75000000  0.98322000  0.18490000  1
  Pd  Pd5  1  0.75000000  0.37103900  0.51270100  1
  Pd  Pd6  1  0.25000000  0.57382200  0.81611400  1
  Pd  Pd7  1  0.25000000  0.62896100  0.48729900  1
loop_
_geom_bond_atom_site_label_1
_geom_bond_atom_site_label_2
_geom_bond_distance
_geom_bond_site_symmetry_2
Ce0 Pd6 2.915876 1_555
Ce0 Pd0 2.982434 1_555
Ce0 Pd5 3.059978 1_455
Ce0 Pd5 3.059978 1_555
Ce0 Pd1 3.206986 1_555
Ce0 Pd7 3.312567 1_555
Ce1 Pd2 2.915876 1_555
Ce1 Pd4 2.982434 1_555
Ce1 Pd7 3.059978 1_655
Ce1 Pd7 3.059978 1_555
Ce1 Pd3 3.206986 1_555
Ce1 Pd5 3.312567 1_555
Ce2 Pd2 3.250840 1_455
Ce2 Pd2 3.250840 1_555
Ce2 Pd4 3.279503 1_445
Ce2 Pd4 3.279503 1_545
Ce2 In8 3.365100 1_554
Ce2 In8 3.365100 1_454
Ce2 In6 3.373796 1_555
Ce2 In2 3.395032 1_554
Ce2 In2 3.395032 1_454
Ce2 In3 3.407835 1_555
Ce2 In3 3.407835 1_455
Ce2 In5 3.434324 1_545
Ce2 In7 3.453134 1_545
Ce2 In9 3.491989 1_555
Ce3 Pd6 3.250840 1_555
Ce3 Pd6 3.250840 1_655
Ce3 Pd0 3.279503 1_565
Ce3 Pd0 3.279503 1_665
Ce3 In5 3.365100 1_556
Ce3 In5 3.365100 1_656
Ce3 In2 3.373796 1_555
Ce3 In6 3.395032 1_656
Ce3 In6 3.395032 1_556
Ce3 In1 3.407835 1_555
Ce3 In1 3.407835 1_655
Ce3 In8 3.434324 1_565
Ce3 In0 3.453134 1_565
Ce3 In4 3.491989 1_555
In0 Pd1 2.803212 1_555
In0 Pd1 2.803212 1_655
In0 Pd3 2.868636 1_545
In0 Pd5 2.873122 1_555
In0 Pd0 2.888193 1_555
In0 Pd0 2.888193 1_655
In1 Pd6 2.741145 1_555
In1 Pd0 2.768974 1_565
In1 Pd3 2.826568 1_555
In1 Pd3 2.826568 1_455
In1 Pd7 2.904115 1_555
In1 Pd1 2.904888 1_565
In2 Pd2 2.804880 1_556
In2 Pd6 2.851892 1_655
In2 Pd6 2.851892 1_555
In3 Pd2 2.741145 1_555
In3 Pd4 2.768974 1_545
In3 Pd1 2.826568 1_555
In3 Pd1 2.826568 1_655
In3 Pd5 2.904115 1_555
In3 Pd3 2.904888 1_545
In4 Pd5 2.798254 1_555
In4 Pd7 2.821905 1_655
In4 Pd7 2.821905 1_555
In4 Pd3 2.840865 1_555
In4 Pd6 2.971499 1_655
In4 Pd6 2.971499 1_555
In5 Pd0 2.787836 1_564
In5 Pd4 2.879347 1_555
In5 Pd4 2.879347 1_455
In6 Pd6 2.804880 1_554
In6 Pd2 2.851892 1_455
In6 Pd2 2.851892 1_555
In7 Pd3 2.803212 1_455
In7 Pd3 2.803212 1_555
In7 Pd1 2.868636 1_565
In7 Pd7 2.873122 1_555
In7 Pd4 2.888193 1_555
In7 Pd4 2.888193 1_455
In8 Pd4 2.787836 1_546
In8 Pd0 2.879347 1_655
In8 Pd0 2.879347 1_555
In9 Pd7 2.798254 1_555
In9 Pd5 2.821905 1_455
In9 Pd5 2.821905 1_555
In9 Pd1 2.840865 1_555
In9 Pd2 2.971499 1_455
In9 Pd2 2.971499 1_555
