# generated using pymatgen
data_Rb2YbTi(PO4)3
_symmetry_space_group_name_H-M   'P 1'
_cell_length_a   10.38589100
_cell_length_b   10.42533800
_cell_length_c   20.73047035
_cell_angle_alpha   89.98946146
_cell_angle_beta   90.00000000
_cell_angle_gamma   90.00000000
_symmetry_Int_Tables_number   1
_chemical_formula_structural   Rb2YbTi(PO4)3
_chemical_formula_sum   'Rb16 Yb8 Ti8 P24 O96'
_cell_volume   2244.62116164
_cell_formula_units_Z   8
loop_
 _symmetry_equiv_pos_site_id
 _symmetry_equiv_pos_as_xyz
  1  'x, y, z'
loop_
 _atom_site_type_symbol
 _atom_site_label
 _atom_site_symmetry_multiplicity
 _atom_site_fract_x
 _atom_site_fract_y
 _atom_site_fract_z
 _atom_site_occupancy
  Yb  Yb0  1  0.91370300  0.83426600  0.04289100  1
  Yb  Yb1  1  0.85269400  0.39026300  0.42141700  1
  Yb  Yb2  1  0.58677200  0.66681600  0.78896900  1
  Yb  Yb3  1  0.58706100  0.66846400  0.29610100  1
  Yb  Yb4  1  0.41370300  0.16573400  0.95710900  1
  Yb  Yb5  1  0.35269400  0.60973700  0.57858300  1
  Yb  Yb6  1  0.08706100  0.33153600  0.70389900  1
  Yb  Yb7  1  0.08677200  0.33318400  0.21103100  1
  Rb  Rb0  1  0.93263000  0.67038400  0.71519800  1
  Rb  Rb1  1  0.92578100  0.67475800  0.21504500  1
  Rb  Rb2  1  0.79035400  0.03951400  0.85395400  1
  Rb  Rb3  1  0.79595400  0.04199700  0.35400800  1
  Rb  Rb4  1  0.70814500  0.45544900  0.60201800  1
  Rb  Rb5  1  0.70900900  0.45942500  0.10311000  1
  Rb  Rb6  1  0.57445800  0.82503300  0.96215100  1
  Rb  Rb7  1  0.56939700  0.80900400  0.46418700  1
  Rb  Rb8  1  0.42578100  0.32524200  0.78495500  1
  Rb  Rb9  1  0.43263000  0.32961600  0.28480200  1
  Rb  Rb10  1  0.29595400  0.95800300  0.64599200  1
  Rb  Rb11  1  0.29035400  0.96048600  0.14604600  1
  Rb  Rb12  1  0.20814500  0.54455100  0.39798200  1
  Rb  Rb13  1  0.20900900  0.54057500  0.89689000  1
  Rb  Rb14  1  0.06939700  0.19099600  0.53581300  1
  Rb  Rb15  1  0.07445800  0.17496700  0.03784900  1
  Ti  Ti0  1  0.91979700  0.83958600  0.54210800  1
  Ti  Ti1  1  0.85665400  0.39427100  0.92810900  1
  Ti  Ti2  1  0.64448200  0.09966900  0.67943000  1
  Ti  Ti3  1  0.64257500  0.10700900  0.17500800  1
  Ti  Ti4  1  0.41979700  0.16041400  0.45789200  1
  Ti  Ti5  1  0.35665400  0.60572900  0.07189100  1
  Ti  Ti6  1  0.14257500  0.89299100  0.82499200  1
  Ti  Ti7  1  0.14448200  0.90033100  0.32057000  1
  P  P0  1  0.95635200  0.00629500  0.68753800  1
  P  P1  1  0.95261100  0.01349700  0.19184800  1
  P  P2  1  0.89141300  0.72133400  0.38704600  1
  P  P3  1  0.88246900  0.70414000  0.88157000  1
  P  P4  1  0.76201200  0.36138800  0.77268700  1
  P  P5  1  0.75530000  0.36166200  0.26609900  1
  P  P6  1  0.72740200  0.11677700  0.52366600  1
  P  P7  1  0.73963100  0.13514400  0.02090500  1
  P  P8  1  0.64098900  0.79765600  0.62974800  1
  P  P9  1  0.61217000  0.79549500  0.13214500  1
  P  P10  1  0.54690300  0.49006300  0.94218100  1
  P  P11  1  0.53242900  0.46730900  0.44006500  1
  P  P12  1  0.45261100  0.98650300  0.80815200  1
  P  P13  1  0.45635200  0.99370500  0.31246200  1
  P  P14  1  0.39141300  0.27866600  0.61295400  1
  P  P15  1  0.38246900  0.29586000  0.11843000  1
  P  P16  1  0.25530000  0.63833800  0.73390100  1
  P  P17  1  0.26201200  0.63861200  0.22731300  1
  P  P18  1  0.23963100  0.86485600  0.97909500  1
  P  P19  1  0.22740200  0.88322300  0.47633400  1
  P  P20  1  0.14098900  0.20234400  0.37025200  1
  P  P21  1  0.11217000  0.20450500  0.86785500  1
  P  P22  1  0.03242900  0.53269100  0.55993500  1
  P  P23  1  0.04690300  0.50993700  0.05781900  1
  O  O0  1  0.99542900  0.67925500  0.56583800  1
  O  O1  1  0.99243000  0.64178900  0.07371500  1
  O  O2  1  0.99669100  0.80567600  0.35293100  1
  O  O3  1  0.00252800  0.78041900  0.85545000  1
  O  O4  1  0.97008700  0.91823300  0.62619200  1
  O  O5  1  0.97914000  0.91718400  0.13811400  1
  O  O6  1  0.94178600  0.46693000  0.51196700  1
  O  O7  1  0.97852400  0.45472000  0.99572000  1
  O  O8  1  0.93447500  0.58137500  0.38469800  1
  O  O9  1  0.91538500  0.55649300  0.88339200  1
  O  O10  1  0.89568900  0.38756800  0.74675500  1
  O  O11  1  0.89349500  0.39579000  0.24752300  1
  O  O12  1  0.87798100  0.77002700  0.45830600  1
  O  O13  1  0.84860000  0.75385200  0.94836600  1
  O  O14  1  0.80919300  0.99146300  0.51559000  1
  O  O15  1  0.83632400  0.02766700  0.00731500  1
  O  O16  1  0.81098200  0.01411900  0.70719100  1
  O  O17  1  0.80411100  0.01751500  0.20720500  1
  O  O18  1  0.79477200  0.26076700  0.98854500  1
  O  O19  1  0.79437100  0.22199500  0.48581700  1
  O  O20  1  0.76654600  0.33545700  0.84779000  1
  O  O21  1  0.74252000  0.30865200  0.33459500  1
  O  O22  1  0.77437800  0.72920700  0.83318600  1
  O  O23  1  0.76341500  0.74533000  0.35272600  1
  O  O24  1  0.76156000  0.78206700  0.58451600  1
  O  O25  1  0.72026500  0.77056400  0.08404200  1
  O  O26  1  0.72460400  0.15483300  0.59689400  1
  O  O27  1  0.73268500  0.16091000  0.09556300  1
  O  O28  1  0.70315700  0.23841200  0.73908400  1
  O  O29  1  0.70578000  0.25308500  0.21899600  1
  O  O30  1  0.69577400  0.48316900  0.95702100  1
  O  O31  1  0.67203400  0.47850000  0.46167300  1
  O  O32  1  0.66952100  0.47224100  0.75930000  1
  O  O33  1  0.66829100  0.47864100  0.25390900  1
  O  O34  1  0.67320000  0.74382400  0.69594100  1
  O  O35  1  0.64475900  0.74216700  0.19852700  1
  O  O36  1  0.60699300  0.10439600  0.99421900  1
  O  O37  1  0.58843000  0.09258300  0.49681100  1
  O  O38  1  0.60282700  0.94297900  0.63388000  1
  O  O39  1  0.58060900  0.94363900  0.13636200  1
  O  O40  1  0.52523100  0.03791000  0.74665700  1
  O  O41  1  0.53249300  0.05825500  0.25602200  1
  O  O42  1  0.52261700  0.58506600  0.88702000  1
  O  O43  1  0.50710800  0.53178700  0.37443300  1
  O  O44  1  0.48913500  0.72670900  0.10371500  1
  O  O45  1  0.53007100  0.72697400  0.59734900  1
  O  O46  1  0.50473500  0.85374900  0.82430500  1
  O  O47  1  0.51011800  0.86241000  0.32902700  1
  O  O48  1  0.49243000  0.35821100  0.92628500  1
  O  O49  1  0.49542900  0.32074500  0.43416200  1
  O  O50  1  0.49669100  0.19432400  0.64706900  1
  O  O51  1  0.50252800  0.21958100  0.14455000  1
  O  O52  1  0.47914000  0.08281600  0.86188600  1
  O  O53  1  0.47008700  0.08176700  0.37380800  1
  O  O54  1  0.47852400  0.54528000  0.00428000  1
  O  O55  1  0.44178600  0.53307000  0.48803300  1
  O  O56  1  0.43447500  0.41862500  0.61530200  1
  O  O57  1  0.41538500  0.44350700  0.11660800  1
  O  O58  1  0.39349500  0.60421000  0.75247700  1
  O  O59  1  0.39568900  0.61243200  0.25324500  1
  O  O60  1  0.37798100  0.22997300  0.54169400  1
  O  O61  1  0.34860000  0.24614800  0.05163400  1
  O  O62  1  0.33632400  0.97233300  0.99268500  1
  O  O63  1  0.30919300  0.00853700  0.48441000  1
  O  O64  1  0.30411100  0.98248500  0.79279500  1
  O  O65  1  0.31098200  0.98588100  0.29280900  1
  O  O66  1  0.29437100  0.77800500  0.51418300  1
  O  O67  1  0.29477200  0.73923300  0.01145500  1
  O  O68  1  0.24252000  0.69134800  0.66540500  1
  O  O69  1  0.26654600  0.66454300  0.15221000  1
  O  O70  1  0.26341500  0.25467000  0.64727400  1
  O  O71  1  0.27437800  0.27079300  0.16681500  1
  O  O72  1  0.22026500  0.22943600  0.91595800  1
  O  O73  1  0.26156000  0.21793300  0.41548400  1
  O  O74  1  0.23268500  0.83909000  0.90443700  1
  O  O75  1  0.22460400  0.84516700  0.40310600  1
  O  O76  1  0.20578000  0.74691500  0.78100400  1
  O  O77  1  0.20315700  0.76158800  0.26091600  1
  O  O78  1  0.17203400  0.52150000  0.53832700  1
  O  O79  1  0.19577400  0.51683100  0.04297900  1
  O  O80  1  0.16829100  0.52135900  0.74609100  1
  O  O81  1  0.16952100  0.52775900  0.24070000  1
  O  O82  1  0.17320000  0.25617600  0.30405900  1
  O  O83  1  0.14475900  0.25783300  0.80147300  1
  O  O84  1  0.08843000  0.90741700  0.50318900  1
  O  O85  1  0.10699300  0.89560400  0.00578100  1
  O  O86  1  0.10282700  0.05702100  0.36612000  1
  O  O87  1  0.08060900  0.05636100  0.86363800  1
  O  O88  1  0.03249300  0.94174500  0.74397800  1
  O  O89  1  0.02523100  0.96209000  0.25334300  1
  O  O90  1  0.00710800  0.46821300  0.62556700  1
  O  O91  1  0.02261700  0.41493400  0.11298000  1
  O  O92  1  0.03007100  0.27302600  0.40265100  1
  O  O93  1  0.98913500  0.27329100  0.89628500  1
  O  O94  1  0.01011800  0.13759000  0.67097300  1
  O  O95  1  0.00473500  0.14625100  0.17569500  1
loop_
_geom_bond_atom_site_label_1
_geom_bond_atom_site_label_2
_geom_bond_distance
_geom_bond_site_symmetry_2
O0 P22 1.580327 1_655
O0 Ti0 1.911189 1_555
O0 Rb0 3.165586 1_555
O1 P23 1.522617 1_655
O1 Yb0 2.258980 1_555
O1 Rb1 3.030117 1_555
O2 P2 1.571186 1_555
O2 Ti7 1.944131 1_655
O2 Rb3 3.227537 1_565
O2 Rb1 3.252285 1_555
O3 P3 1.574880 1_455
O3 Ti6 1.972651 1_555
O3 Rb0 3.209001 1_455
O4 P0 1.575101 1_565
O4 Ti0 1.995996 1_555
O4 Rb0 3.198547 1_555
O4 Rb10 3.434347 1_655
O5 P1 1.524919 1_565
O5 Yb0 2.259763 1_555
O5 Rb1 3.039192 1_555
O5 Rb11 3.267752 1_655
O6 P22 1.531454 1_655
O6 Yb1 2.240368 1_555
O6 Rb4 3.063891 1_555
O6 Rb14 3.205596 1_655
O7 P23 1.579003 1_656
O7 Ti1 1.990993 1_555
O7 Rb15 3.203222 1_656
O7 Rb13 3.275403 1_655
O8 P2 1.526908 1_555
O8 Yb1 2.295645 1_555
O8 Rb12 2.881299 1_655
O9 P3 1.577221 1_555
O9 Ti1 2.022635 1_555
O9 Rb13 3.066848 1_655
O10 P4 1.513593 1_555
O10 Yb6 2.254141 1_655
O10 Rb0 3.044311 1_555
O11 P5 1.528024 1_555
O11 Yb7 2.242307 1_655
O11 Rb1 3.003905 1_555
O12 P2 1.568347 1_555
O12 Ti0 1.932100 1_555
O12 Rb7 3.232880 1_555
O13 P3 1.519877 1_555
O13 Yb0 2.236165 1_556
O13 Rb6 2.956185 1_555
O14 P6 1.567323 1_565
O14 Ti0 2.031871 1_555
O14 Rb7 3.310164 1_555
O14 Rb3 3.393539 1_565
O14 Rb14 3.436065 1_665
O15 P7 1.530841 1_555
O15 Yb0 2.292285 1_545
O15 Rb15 2.979285 1_655
O15 Rb2 3.217244 1_554
O16 P0 1.565931 1_555
O16 Ti2 2.028985 1_555
O16 Rb2 3.061517 1_555
O17 P1 1.575378 1_555
O17 Ti3 2.032347 1_555
O17 Rb3 3.055201 1_555
O18 P7 1.578888 1_556
O18 Ti1 1.979715 1_555
O18 Rb15 3.206596 1_656
O18 Rb5 3.274923 1_556
O19 P6 1.517350 1_555
O19 Yb1 2.285998 1_555
O19 Rb14 3.055731 1_655
O19 Rb3 3.315103 1_555
O20 P4 1.580869 1_555
O20 Ti1 2.006128 1_555
O20 Rb2 3.097812 1_555
O21 P5 1.529385 1_555
O21 Yb1 2.296363 1_555
O21 Rb3 2.863172 1_555
O21 Rb9 3.387008 1_555
O22 P3 1.527918 1_555
O22 Yb2 2.249446 1_555
O22 Rb0 3.010094 1_555
O22 Rb2 3.267871 1_565
O23 P2 1.528378 1_555
O23 Yb3 2.318448 1_555
O23 Rb3 3.111381 1_565
O23 Rb7 3.136990 1_555
O23 Rb1 3.395902 1_555
O24 P8 1.572836 1_555
O24 Ti0 1.957842 1_555
O24 Rb7 3.206895 1_555
O24 Rb0 3.442447 1_555
O24 Rb4 3.468959 1_555
O25 P9 1.523951 1_555
O25 Yb0 2.281397 1_555
O25 Rb6 3.000026 1_554
O25 Rb5 3.269744 1_555
O26 P6 1.569380 1_555
O26 Ti2 1.987559 1_555
O26 Rb4 3.140498 1_555
O27 P7 1.572538 1_555
O27 Ti3 1.975772 1_555
O27 Rb5 3.125766 1_555
O28 P4 1.582063 1_555
O28 Ti2 1.998382 1_555
O28 Rb8 3.165915 1_555
O28 Rb2 3.284614 1_555
O29 P5 1.581052 1_555
O29 Ti3 1.892662 1_555
O29 Rb5 3.224611 1_555
O29 Rb9 3.247466 1_555
O30 P10 1.578102 1_555
O30 Ti1 2.002555 1_555
O30 Rb5 3.041656 1_556
O31 P11 1.522025 1_555
O31 Yb1 2.250220 1_555
O31 Rb4 2.943275 1_555
O32 P4 1.528153 1_555
O32 Yb2 2.287402 1_555
O32 Rb8 3.006564 1_555
O32 Rb4 3.289807 1_555
O32 Rb0 3.545354 1_555
O33 P5 1.538717 1_555
O33 Yb3 2.322439 1_555
O33 Rb9 2.968849 1_555
O33 Rb5 3.160999 1_555
O33 Rb1 3.461288 1_555
O34 P8 1.519725 1_555
O34 Yb2 2.273518 1_555
O34 Rb0 2.829365 1_555
O35 P9 1.522204 1_555
O35 Yb3 2.245098 1_555
O35 Rb1 3.021529 1_555
O36 P7 1.518733 1_556
O36 Yb4 2.242897 1_555
O36 Rb6 3.006529 1_545
O37 P6 1.567437 1_555
O37 Ti4 2.053831 1_555
O37 Rb7 3.039334 1_545
O38 P8 1.568383 1_555
O38 Ti2 1.935938 1_565
O38 Rb10 3.200862 1_555
O39 P9 1.581287 1_555
O39 Ti3 1.989315 1_565
O39 Rb11 3.026337 1_555
O40 P12 1.575117 1_545
O40 Ti2 1.972417 1_555
O40 Rb8 3.266690 1_555
O40 Rb10 3.274115 1_545
O41 P13 1.564256 1_545
O41 Ti3 2.094217 1_555
O41 Rb9 3.071759 1_555
O41 Rb3 3.412034 1_555
O42 P10 1.533556 1_555
O42 Yb2 2.302462 1_555
O42 Rb6 2.995968 1_555
O42 Rb13 3.296310 1_555
O43 P11 1.540086 1_555
O43 Yb3 2.314294 1_555
O43 Rb9 2.914565 1_555
O43 Rb12 3.145959 1_555
O43 Rb7 3.497864 1_555
O44 P9 1.579434 1_555
O44 Ti5 1.979775 1_555
O44 Rb6 3.232230 1_554
O44 Rb11 3.312562 1_555
O45 P8 1.523598 1_555
O45 Yb5 2.244804 1_555
O45 Rb7 2.918514 1_555
O45 Rb4 3.382728 1_555
O46 P12 1.523317 1_555
O46 Yb2 2.249679 1_555
O46 Rb6 2.963044 1_555
O47 P13 1.517620 1_555
O47 Yb3 2.278881 1_555
O47 Rb7 2.922205 1_555
O48 P10 1.522617 1_555
O48 Yb4 2.258980 1_555
O48 Rb8 3.030117 1_555
O49 P11 1.580327 1_555
O49 Ti4 1.911189 1_555
O49 Rb9 3.165586 1_555
O50 P14 1.571186 1_555
O50 Ti2 1.944131 1_555
O50 Rb10 3.227537 1_545
O50 Rb8 3.252285 1_555
O51 P15 1.574880 1_555
O51 Ti3 1.972651 1_555
O51 Rb9 3.209001 1_555
O52 P12 1.524919 1_545
O52 Yb4 2.259763 1_555
O52 Rb8 3.039192 1_555
O52 Rb2 3.267752 1_555
O53 P13 1.575101 1_545
O53 Ti4 1.995996 1_555
O53 Rb9 3.198547 1_555
O53 Rb3 3.434347 1_555
O54 P10 1.579003 1_554
O54 Ti5 1.990993 1_555
O54 Rb6 3.203222 1_554
O54 Rb5 3.275403 1_555
O55 P11 1.531454 1_555
O55 Yb5 2.240368 1_555
O55 Rb12 3.063891 1_555
O55 Rb7 3.205596 1_555
O56 P14 1.526908 1_555
O56 Yb5 2.295645 1_555
O56 Rb4 2.881299 1_555
O57 P15 1.577221 1_555
O57 Ti5 2.022635 1_555
O57 Rb5 3.066848 1_555
O58 P16 1.528024 1_555
O58 Yb2 2.242307 1_555
O58 Rb8 3.003905 1_555
O59 P17 1.513593 1_555
O59 Yb3 2.254141 1_555
O59 Rb9 3.044311 1_555
O60 P14 1.568347 1_555
O60 Ti4 1.932100 1_555
O60 Rb14 3.232880 1_555
O61 P15 1.519877 1_555
O61 Yb4 2.236165 1_554
O61 Rb15 2.956185 1_555
O62 P18 1.530841 1_555
O62 Yb4 2.292285 1_565
O62 Rb6 2.979285 1_555
O62 Rb11 3.217244 1_556
O63 P19 1.567323 1_545
O63 Ti4 2.031871 1_555
O63 Rb14 3.310164 1_555
O63 Rb10 3.393539 1_545
O63 Rb7 3.436065 1_545
O64 P12 1.575378 1_555
O64 Ti6 2.032347 1_555
O64 Rb10 3.055201 1_555
O65 P13 1.565931 1_555
O65 Ti7 2.028985 1_555
O65 Rb11 3.061517 1_555
O66 P19 1.517350 1_555
O66 Yb5 2.285998 1_555
O66 Rb7 3.055731 1_555
O66 Rb10 3.315103 1_555
O67 P18 1.578888 1_554
O67 Ti5 1.979715 1_555
O67 Rb6 3.206596 1_554
O67 Rb13 3.274923 1_554
O68 P16 1.529385 1_555
O68 Yb5 2.296363 1_555
O68 Rb10 2.863172 1_555
O68 Rb0 3.387008 1_455
O69 P17 1.580869 1_555
O69 Ti5 2.006128 1_555
O69 Rb11 3.097812 1_555
O70 P14 1.528378 1_555
O70 Yb6 2.318448 1_555
O70 Rb10 3.111381 1_545
O70 Rb14 3.136990 1_555
O70 Rb8 3.395902 1_555
O71 P15 1.527931 1_555
O71 Yb7 2.249438 1_555
O71 Rb9 3.010077 1_555
O71 Rb11 3.267874 1_545
O72 P21 1.523951 1_555
O72 Yb4 2.281397 1_555
O72 Rb15 3.000026 1_556
O72 Rb13 3.269744 1_555
O73 P20 1.572836 1_555
O73 Ti4 1.957842 1_555
O73 Rb14 3.206895 1_555
O73 Rb9 3.442447 1_555
O73 Rb12 3.468959 1_555
O74 P18 1.572538 1_555
O74 Ti6 1.975772 1_555
O74 Rb13 3.125766 1_555
O75 P19 1.569380 1_555
O75 Ti7 1.987559 1_555
O75 Rb12 3.140498 1_555
O76 P16 1.581052 1_555
O76 Ti6 1.892662 1_555
O76 Rb13 3.224611 1_555
O76 Rb0 3.247466 1_455
O77 P17 1.582063 1_555
O77 Ti7 1.998382 1_555
O77 Rb1 3.165915 1_455
O77 Rb11 3.284614 1_555
O78 P22 1.522025 1_555
O78 Yb5 2.250220 1_555
O78 Rb12 2.943275 1_555
O79 P23 1.578102 1_555
O79 Ti5 2.002555 1_555
O79 Rb13 3.041656 1_554
O80 P16 1.538717 1_555
O80 Yb6 2.322439 1_555
O80 Rb0 2.968849 1_455
O80 Rb13 3.160999 1_555
O80 Rb8 3.461288 1_555
O81 P17 1.528153 1_555
O81 Yb7 2.287402 1_555
O81 Rb1 3.006564 1_455
O81 Rb12 3.289807 1_555
O81 Rb9 3.545354 1_555
O82 P20 1.519725 1_555
O82 Yb7 2.273518 1_555
O82 Rb9 2.829365 1_555
O83 P21 1.522204 1_555
O83 Yb6 2.245098 1_555
O83 Rb8 3.021529 1_555
O84 P19 1.567437 1_555
O84 Ti0 2.053831 1_455
O84 Rb14 3.039334 1_565
O85 P18 1.518733 1_554
O85 Yb0 2.242897 1_455
O85 Rb15 3.006529 1_565
O86 P20 1.568383 1_555
O86 Ti7 1.935938 1_545
O86 Rb3 3.200862 1_455
O87 P21 1.581287 1_555
O87 Ti6 1.989315 1_545
O87 Rb2 3.026337 1_455
O88 P0 1.564256 1_465
O88 Ti6 2.094217 1_555
O88 Rb0 3.071759 1_455
O88 Rb10 3.412034 1_555
O89 P1 1.575117 1_465
O89 Ti7 1.972417 1_555
O89 Rb1 3.266690 1_455
O89 Rb3 3.274115 1_465
O90 P22 1.540086 1_555
O90 Yb6 2.314294 1_555
O90 Rb0 2.914565 1_455
O90 Rb4 3.145959 1_455
O90 Rb14 3.497864 1_555
O91 P23 1.533556 1_555
O91 Yb7 2.302462 1_555
O91 Rb15 2.995968 1_555
O91 Rb5 3.296310 1_455
O92 P20 1.523598 1_555
O92 Yb1 2.244804 1_455
O92 Rb14 2.918514 1_555
O92 Rb12 3.382728 1_555
O93 P21 1.579434 1_655
O93 Ti1 1.979775 1_555
O93 Rb15 3.232230 1_656
O93 Rb2 3.312562 1_555
O94 P0 1.517620 1_455
O94 Yb6 2.278881 1_555
O94 Rb14 2.922205 1_555
O95 P1 1.523317 1_455
O95 Yb7 2.249679 1_555
O95 Rb15 2.963044 1_555
