# generated using pymatgen
data_K3LiMg4(Si2O5)6
_symmetry_space_group_name_H-M   'P 1'
_cell_length_a   10.43620931
_cell_length_b   10.43620931
_cell_length_c   14.03219600
_cell_angle_alpha   90.00000000
_cell_angle_beta   90.00000000
_cell_angle_gamma   120.07735943
_symmetry_Int_Tables_number   1
_chemical_formula_structural   K3LiMg4(Si2O5)6
_chemical_formula_sum   'K6 Li2 Mg8 Si24 O60'
_cell_volume   1322.52156897
_cell_formula_units_Z   2
loop_
 _symmetry_equiv_pos_site_id
 _symmetry_equiv_pos_as_xyz
  1  'x, y, z'
loop_
 _atom_site_type_symbol
 _atom_site_label
 _atom_site_symmetry_multiplicity
 _atom_site_fract_x
 _atom_site_fract_y
 _atom_site_fract_z
 _atom_site_occupancy
  K  K0  1  0.66726300  0.33125200  0.50000300  1
  K  K1  1  0.00000000  0.00000000  0.25000500  1
  K  K2  1  0.66874800  0.33273700  0.00000300  1
  K  K3  1  0.33125200  0.66726300  0.00000300  1
  K  K4  1  0.33273700  0.66874800  0.50000300  1
  K  K5  1  0.00000000  0.00000000  0.75000500  1
  Li  Li0  1  0.50000000  0.00000000  0.25006300  1
  Li  Li1  1  0.00000000  0.50000000  0.75006300  1
  Mg  Mg0  1  0.66114800  0.32190200  0.24996600  1
  Mg  Mg1  1  0.67809800  0.33885200  0.74996600  1
  Mg  Mg2  1  0.50000000  0.00000000  0.74999000  1
  Mg  Mg3  1  0.33885200  0.67809800  0.24996600  1
  Mg  Mg4  1  0.00000000  0.50000000  0.24999000  1
  Mg  Mg5  1  0.32190200  0.66114800  0.74996600  1
  Mg  Mg6  1  0.50000000  0.50000000  0.24991300  1
  Mg  Mg7  1  0.50000000  0.50000000  0.74991300  1
  Si  Si0  1  0.76918200  0.65834100  0.61590900  1
  Si  Si1  1  0.76749200  0.65787900  0.38383200  1
  Si  Si2  1  0.88913100  0.65442300  0.88329300  1
  Si  Si3  1  0.89062300  0.65805900  0.11585800  1
  Si  Si4  1  0.34165900  0.23081800  0.11590900  1
  Si  Si5  1  0.34212100  0.23250800  0.88383200  1
  Si  Si6  1  0.34557700  0.11086900  0.38329300  1
  Si  Si7  1  0.34194100  0.10937700  0.61585800  1
  Si  Si8  1  0.88946600  0.23045700  0.38427500  1
  Si  Si9  1  0.88929000  0.23418100  0.61680400  1
  Si  Si10  1  0.23418100  0.88929000  0.11680400  1
  Si  Si11  1  0.23045700  0.88946600  0.88427500  1
  Si  Si12  1  0.76581900  0.11071000  0.11680400  1
  Si  Si13  1  0.76954300  0.11053400  0.88427500  1
  Si  Si14  1  0.11053400  0.76954300  0.38427500  1
  Si  Si15  1  0.11071000  0.76581900  0.61680400  1
  Si  Si16  1  0.65442300  0.88913100  0.38329300  1
  Si  Si17  1  0.65805900  0.89062300  0.61585800  1
  Si  Si18  1  0.65834100  0.76918200  0.11590900  1
  Si  Si19  1  0.65787900  0.76749200  0.88383200  1
  Si  Si20  1  0.11086900  0.34557700  0.88329300  1
  Si  Si21  1  0.10937700  0.34194100  0.11585800  1
  Si  Si22  1  0.23081800  0.34165900  0.61590900  1
  Si  Si23  1  0.23250800  0.34212100  0.38383200  1
  O  O0  1  0.78366700  0.72527000  0.14656800  1
  O  O1  1  0.78356900  0.72523500  0.85349900  1
  O  O2  1  0.94110200  0.72552600  0.35275600  1
  O  O3  1  0.94242700  0.72821700  0.64653000  1
  O  O4  1  0.76004000  0.63946800  0.49984000  1
  O  O5  1  0.88105600  0.64141600  0.00000100  1
  O  O6  1  0.65795600  0.50256200  0.33231500  1
  O  O7  1  0.65779300  0.50306300  0.66700100  1
  O  O8  1  0.49693700  0.34220700  0.16700100  1
  O  O9  1  0.49743800  0.34204400  0.83231500  1
  O  O10  1  0.83987100  0.49888400  0.83499300  1
  O  O11  1  0.84453400  0.50282700  0.16755800  1
  O  O12  1  0.27476500  0.21643100  0.35349900  1
  O  O13  1  0.27473000  0.21633300  0.64656800  1
  O  O14  1  0.36053200  0.23996000  0.99984000  1
  O  O15  1  0.35858400  0.11894400  0.50000100  1
  O  O16  1  0.27178300  0.05757300  0.14653000  1
  O  O17  1  0.27447400  0.05889800  0.85275600  1
  O  O18  1  0.84005300  0.34108600  0.66493100  1
  O  O19  1  0.84553100  0.34189100  0.33323400  1
  O  O20  1  0.50111600  0.16012900  0.33499300  1
  O  O21  1  0.49717300  0.15546600  0.66755800  1
  O  O22  1  0.21450800  0.94279000  0.35331700  1
  O  O23  1  0.21603200  0.94155200  0.64734300  1
  O  O24  1  0.65891400  0.15994700  0.16493100  1
  O  O25  1  0.65810900  0.15446900  0.83323400  1
  O  O26  1  0.88160100  0.23893600  0.50018600  1
  O  O27  1  0.05844800  0.78396800  0.14734300  1
  O  O28  1  0.05721000  0.78549200  0.85331700  1
  O  O29  1  0.23893600  0.88160000  0.00018600  1
  O  O30  1  0.76106400  0.11839900  0.00018600  1
  O  O31  1  0.94155200  0.21603200  0.14734300  1
  O  O32  1  0.94279000  0.21450800  0.85331700  1
  O  O33  1  0.11839900  0.76106400  0.50018600  1
  O  O34  1  0.34108600  0.84005300  0.16493100  1
  O  O35  1  0.34189100  0.84553100  0.83323400  1
  O  O36  1  0.78396800  0.05844800  0.64734300  1
  O  O37  1  0.78549200  0.05721000  0.35331700  1
  O  O38  1  0.49888400  0.83987100  0.33499300  1
  O  O39  1  0.50282700  0.84453400  0.66755800  1
  O  O40  1  0.15994700  0.65891400  0.66493100  1
  O  O41  1  0.15446900  0.65810900  0.33323400  1
  O  O42  1  0.72821700  0.94242700  0.14653000  1
  O  O43  1  0.72552600  0.94110200  0.85275600  1
  O  O44  1  0.64141600  0.88105600  0.50000100  1
  O  O45  1  0.63946800  0.76004000  0.99984000  1
  O  O46  1  0.72523500  0.78356900  0.35349900  1
  O  O47  1  0.72527000  0.78366700  0.64656800  1
  O  O48  1  0.16012900  0.50111600  0.83499300  1
  O  O49  1  0.15546600  0.49717300  0.16755800  1
  O  O50  1  0.50306300  0.65779300  0.16700100  1
  O  O51  1  0.50256200  0.65795600  0.83231500  1
  O  O52  1  0.34204400  0.49743800  0.33231500  1
  O  O53  1  0.34220700  0.49693700  0.66700100  1
  O  O54  1  0.11894400  0.35858400  0.00000100  1
  O  O55  1  0.23996000  0.36053200  0.49984000  1
  O  O56  1  0.05889800  0.27447400  0.35275600  1
  O  O57  1  0.05757300  0.27178300  0.64653000  1
  O  O58  1  0.21633300  0.27473000  0.14656800  1
  O  O59  1  0.21643100  0.27476500  0.85349900  1
loop_
_geom_bond_atom_site_label_1
_geom_bond_atom_site_label_2
_geom_bond_distance
_geom_bond_site_symmetry_2
K0 O26 2.844631 1_555
K0 O15 2.851764 1_555
K0 O4 2.856978 1_555
K0 O18 2.903931 1_555
K0 O20 2.907471 1_555
K0 O19 2.956815 1_555
K0 O21 2.963170 1_555
K0 O7 2.982234 1_555
K0 O6 2.986063 1_555
K1 O42 2.967513 1_445
K1 O16 2.967513 1_555
K1 O22 2.968058 1_545
K1 O37 2.968058 1_455
K1 O2 2.982788 1_445
K1 O56 2.982788 1_555
K1 O27 2.984758 1_545
K1 O31 2.984758 1_455
K1 O0 2.989335 1_445
K1 O58 2.989335 1_555
K1 O12 2.990216 1_555
K1 O46 2.990216 1_445
K2 O30 2.844631 1_555
K2 O5 2.851764 1_555
K2 O14 2.856978 1_554
K2 O24 2.903931 1_555
K2 O10 2.907471 1_554
K2 O25 2.956815 1_554
K2 O11 2.963170 1_555
K2 O8 2.982234 1_555
K2 O9 2.986063 1_554
K3 O29 2.844621 1_555
K3 O54 2.851764 1_555
K3 O45 2.856978 1_554
K3 O34 2.903931 1_555
K3 O48 2.907471 1_554
K3 O35 2.956815 1_554
K3 O49 2.963170 1_555
K3 O50 2.982234 1_555
K3 O51 2.986063 1_554
K4 O33 2.844631 1_555
K4 O44 2.851764 1_555
K4 O55 2.856978 1_555
K4 O40 2.903931 1_555
K4 O38 2.907471 1_555
K4 O41 2.956815 1_555
K4 O39 2.963170 1_555
K4 O53 2.982234 1_555
K4 O52 2.986063 1_555
K5 O3 2.967513 1_445
K5 O57 2.967513 1_555
K5 O32 2.968058 1_455
K5 O28 2.968058 1_545
K5 O43 2.982788 1_445
K5 O17 2.982788 1_555
K5 O23 2.984758 1_545
K5 O36 2.984758 1_455
K5 O47 2.989335 1_445
K5 O13 2.989335 1_555
K5 O59 2.990216 1_555
K5 O1 2.990216 1_445
Li0 O24 2.046718 1_555
Li0 O34 2.046718 1_545
Li0 O20 2.047831 1_555
Li0 O38 2.047831 1_545
Li1 O40 2.046718 1_555
Li1 O18 2.046718 1_455
Li1 O48 2.047831 1_555
Li1 O10 2.047831 1_455
Mg0 O20 2.058381 1_555
Mg0 O24 2.059515 1_555
Mg0 O8 2.168209 1_555
Mg0 O19 2.170062 1_555
Mg0 O11 2.223303 1_555
Mg0 O6 2.225777 1_555
Mg1 O10 2.058381 1_555
Mg1 O18 2.059515 1_555
Mg1 O7 2.168209 1_555
Mg1 O25 2.170062 1_555
Mg1 O21 2.223303 1_555
Mg1 O9 2.225777 1_555
Mg2 O39 2.004804 1_545
Mg2 O21 2.004804 1_555
Mg2 O25 2.004915 1_555
Mg2 O35 2.004915 1_545
Mg3 O38 2.058381 1_555
Mg3 O34 2.059515 1_555
Mg3 O50 2.168209 1_555
Mg3 O41 2.170062 1_555
Mg3 O49 2.223303 1_555
Mg3 O52 2.225777 1_555
Mg4 O49 2.004804 1_555
Mg4 O11 2.004804 1_455
Mg4 O41 2.004915 1_555
Mg4 O19 2.004915 1_455
Mg5 O48 2.058381 1_555
Mg5 O40 2.059515 1_555
Mg5 O53 2.168209 1_555
Mg5 O35 2.170062 1_555
Mg5 O39 2.223303 1_555
Mg5 O51 2.225777 1_555
Mg6 O6 2.002735 1_555
Mg6 O52 2.002735 1_555
Mg6 O8 2.003414 1_555
Mg6 O50 2.003414 1_555
Mg7 O51 2.002735 1_555
Mg7 O9 2.002735 1_555
Mg7 O53 2.003414 1_555
Mg7 O7 2.003414 1_555
O0 Si18 1.645165 1_555
O0 Si3 1.645725 1_555
O1 Si19 1.635881 1_555
O1 Si2 1.658504 1_555
O2 Si1 1.639873 1_555
O2 Si14 1.648967 1_655
O3 Si0 1.632113 1_555
O3 Si15 1.649714 1_655
O4 Si1 1.636421 1_555
O4 Si0 1.637600 1_555
O5 Si3 1.632711 1_555
O5 Si2 1.641957 1_554
O6 Si1 1.612285 1_555
O7 Si0 1.613443 1_555
O8 Si4 1.613443 1_555
O9 Si5 1.612285 1_555
O10 Si2 1.588112 1_555
O11 Si3 1.612797 1_555
O12 Si23 1.635881 1_555
O12 Si6 1.658504 1_555
O13 Si22 1.645165 1_555
O13 Si7 1.645725 1_555
O14 Si5 1.636421 1_555
O14 Si4 1.637600 1_556
O15 Si7 1.632711 1_555
O15 Si6 1.641957 1_555
O16 Si4 1.632113 1_555
O16 Si10 1.649714 1_545
O17 Si5 1.639873 1_555
O17 Si11 1.648967 1_545
O18 Si9 1.593577 1_555
O19 Si8 1.615589 1_555
O20 Si6 1.588112 1_555
O21 Si7 1.612797 1_555
O22 Si14 1.633608 1_555
O22 Si6 1.649207 1_565
O23 Si7 1.637866 1_565
O23 Si15 1.653705 1_555
O24 Si12 1.593577 1_555
O25 Si13 1.615589 1_555
O26 Si8 1.633188 1_555
O26 Si9 1.640341 1_555
O27 Si3 1.637866 1_455
O27 Si10 1.653705 1_555
O28 Si11 1.633608 1_555
O28 Si2 1.649207 1_455
O29 Si11 1.633189 1_554
O29 Si10 1.640342 1_555
O30 Si13 1.633188 1_554
O30 Si12 1.640341 1_555
O31 Si21 1.637866 1_655
O31 Si12 1.653705 1_555
O32 Si13 1.633608 1_555
O32 Si20 1.649207 1_655
O33 Si14 1.633188 1_555
O33 Si15 1.640341 1_555
O34 Si10 1.593577 1_555
O35 Si11 1.615589 1_555
O36 Si17 1.637866 1_545
O36 Si9 1.653705 1_555
O37 Si8 1.633608 1_555
O37 Si16 1.649207 1_545
O38 Si16 1.588112 1_555
O39 Si17 1.612797 1_555
O40 Si15 1.593577 1_555
O41 Si14 1.615589 1_555
O42 Si18 1.632113 1_555
O42 Si12 1.649714 1_565
O43 Si19 1.639873 1_555
O43 Si13 1.648967 1_565
O44 Si17 1.632711 1_555
O44 Si16 1.641957 1_555
O45 Si19 1.636421 1_555
O45 Si18 1.637600 1_556
O46 Si1 1.635881 1_555
O46 Si16 1.658504 1_555
O47 Si0 1.645165 1_555
O47 Si17 1.645725 1_555
O48 Si20 1.588112 1_555
O49 Si21 1.612797 1_555
O50 Si18 1.613443 1_555
O51 Si19 1.612285 1_555
O52 Si23 1.612285 1_555
O53 Si22 1.613443 1_555
O54 Si21 1.632711 1_555
O54 Si20 1.641957 1_554
O55 Si23 1.636421 1_555
O55 Si22 1.637600 1_555
O56 Si23 1.639873 1_555
O56 Si8 1.648967 1_455
O57 Si22 1.632113 1_555
O57 Si9 1.649714 1_455
O58 Si4 1.645165 1_555
O58 Si21 1.645725 1_555
O59 Si5 1.635881 1_555
O59 Si20 1.658504 1_555
