# generated using pymatgen
data_K2PdN2(ClO2)2
_symmetry_space_group_name_H-M   'P 1'
_cell_length_a   4.22277500
_cell_length_b   7.47572680
_cell_length_c   7.76403545
_cell_angle_alpha   62.62174938
_cell_angle_beta   83.76612621
_cell_angle_gamma   80.33240297
_symmetry_Int_Tables_number   1
_chemical_formula_structural   K2PdN2(ClO2)2
_chemical_formula_sum   'K2 Pd1 N2 Cl2 O4'
_cell_volume   214.41554109
_cell_formula_units_Z   1
loop_
 _symmetry_equiv_pos_site_id
 _symmetry_equiv_pos_as_xyz
  1  'x, y, z'
loop_
 _atom_site_type_symbol
 _atom_site_label
 _atom_site_symmetry_multiplicity
 _atom_site_fract_x
 _atom_site_fract_y
 _atom_site_fract_z
 _atom_site_occupancy
  K  K0  1  0.89971300  0.31063000  0.34807000  1
  K  K1  1  0.10028700  0.68937000  0.65193000  1
  Pd  Pd0  1  0.50000000  0.00000000  0.00000000  1
  N  N0  1  0.71440900  0.26739100  0.86906800  1
  N  N1  1  0.28559100  0.73260900  0.13093200  1
  Cl  Cl0  1  0.48636500  0.01043400  0.29971000  1
  Cl  Cl1  1  0.51363500  0.98956600  0.70029000  1
  O  O0  1  0.75475400  0.35887300  0.68790200  1
  O  O1  1  0.18896400  0.66239900  0.03525500  1
  O  O2  1  0.81103600  0.33760100  0.96474500  1
  O  O3  1  0.24524600  0.64112700  0.31209800  1
loop_
_geom_bond_atom_site_label_1
_geom_bond_atom_site_label_2
_geom_bond_distance
_geom_bond_site_symmetry_2
K0 O0 2.813639 1_555
K0 O2 2.950103 1_554
K0 O3 2.966317 1_655
K0 O1 2.977656 1_655
K0 O3 3.325639 1_555
K1 O3 2.813639 1_555
K1 O1 2.950103 1_556
K1 O0 2.966317 1_455
K1 O2 2.977656 1_455
K1 O0 3.325639 1_555
N0 O2 1.220715 1_555
N0 O0 1.256010 1_555
N0 Pd0 2.094747 1_556
N1 O1 1.220715 1_555
N1 O3 1.256010 1_555
N1 Pd0 2.094747 1_565
Cl0 Pd0 2.358065 1_555
Cl0 K0 3.165452 1_455
Cl0 K1 3.194745 1_545
Cl0 K0 3.233723 1_555
Cl0 K1 3.656914 1_645
Cl1 Pd0 2.358065 1_566
Cl1 K1 3.165452 1_655
Cl1 K0 3.194745 1_565
Cl1 K1 3.233723 1_555
Cl1 K0 3.656914 1_465
