# generated using pymatgen
data_Ta8NiSe8
_symmetry_space_group_name_H-M   'P 1'
_cell_length_a   3.47845400
_cell_length_b   17.03360900
_cell_length_c   22.77369300
_cell_angle_alpha   90.00000000
_cell_angle_beta   90.00000000
_cell_angle_gamma   90.00000000
_symmetry_Int_Tables_number   1
_chemical_formula_structural   Ta8NiSe8
_chemical_formula_sum   'Ta32 Ni4 Se32'
_cell_volume   1349.35555202
_cell_formula_units_Z   4
loop_
 _symmetry_equiv_pos_site_id
 _symmetry_equiv_pos_as_xyz
  1  'x, y, z'
loop_
 _atom_site_type_symbol
 _atom_site_label
 _atom_site_symmetry_multiplicity
 _atom_site_fract_x
 _atom_site_fract_y
 _atom_site_fract_z
 _atom_site_occupancy
  Ta  Ta0  1  0.75000000  0.04183500  0.95533600  1
  Ta  Ta1  1  0.25000000  0.54183500  0.54466400  1
  Ta  Ta2  1  0.75000000  0.20860000  0.33349200  1
  Ta  Ta3  1  0.25000000  0.05235800  0.74583600  1
  Ta  Ta4  1  0.25000000  0.44764200  0.24583600  1
  Ta  Ta5  1  0.75000000  0.45816500  0.45533600  1
  Ta  Ta6  1  0.75000000  0.19750700  0.55322500  1
  Ta  Ta7  1  0.25000000  0.15824700  0.87572100  1
  Ta  Ta8  1  0.25000000  0.95816500  0.04466400  1
  Ta  Ta9  1  0.75000000  0.81779100  0.55769100  1
  Ta  Ta10  1  0.75000000  0.84175300  0.12427900  1
  Ta  Ta11  1  0.25000000  0.70860000  0.16650800  1
  Ta  Ta12  1  0.75000000  0.94764200  0.25416400  1
  Ta  Ta13  1  0.25000000  0.69750700  0.94677500  1
  Ta  Ta14  1  0.25000000  0.18220900  0.44230900  1
  Ta  Ta15  1  0.25000000  0.06153900  0.31553000  1
  Ta  Ta16  1  0.75000000  0.68220900  0.05769100  1
  Ta  Ta17  1  0.75000000  0.66393300  0.48238800  1
  Ta  Ta18  1  0.25000000  0.43846100  0.81553000  1
  Ta  Ta19  1  0.75000000  0.93846100  0.68447000  1
  Ta  Ta20  1  0.75000000  0.56153900  0.18447000  1
  Ta  Ta21  1  0.75000000  0.65824700  0.62427900  1
  Ta  Ta22  1  0.75000000  0.55235800  0.75416400  1
  Ta  Ta23  1  0.25000000  0.79140000  0.66650800  1
  Ta  Ta24  1  0.25000000  0.33606700  0.51761200  1
  Ta  Ta25  1  0.25000000  0.34175300  0.37572100  1
  Ta  Ta26  1  0.25000000  0.80249300  0.44677500  1
  Ta  Ta27  1  0.75000000  0.29140000  0.83349200  1
  Ta  Ta28  1  0.25000000  0.31779100  0.94230900  1
  Ta  Ta29  1  0.25000000  0.16393300  0.01761200  1
  Ta  Ta30  1  0.75000000  0.30249300  0.05322500  1
  Ta  Ta31  1  0.75000000  0.83606700  0.98238800  1
  Ni  Ni0  1  0.25000000  0.70927200  0.55435000  1
  Ni  Ni1  1  0.75000000  0.29072800  0.44565000  1
  Ni  Ni2  1  0.25000000  0.79072800  0.05435000  1
  Ni  Ni3  1  0.75000000  0.20927200  0.94565000  1
  Se  Se0  1  0.75000000  0.09036900  0.66544300  1
  Se  Se1  1  0.75000000  0.71304200  0.73134000  1
  Se  Se2  1  0.75000000  0.39566700  0.73690300  1
  Se  Se3  1  0.25000000  0.93159600  0.92638500  1
  Se  Se4  1  0.25000000  0.95016300  0.16235800  1
  Se  Se5  1  0.25000000  0.59036900  0.83455700  1
  Se  Se6  1  0.25000000  0.90963100  0.33455700  1
  Se  Se7  1  0.75000000  0.40963100  0.16544300  1
  Se  Se8  1  0.25000000  0.41222900  0.03113400  1
  Se  Se9  1  0.25000000  0.54983700  0.66235800  1
  Se  Se10  1  0.25000000  0.57560400  0.09782100  1
  Se  Se11  1  0.75000000  0.78695800  0.23134000  1
  Se  Se12  1  0.25000000  0.60433300  0.26309700  1
  Se  Se13  1  0.25000000  0.28695800  0.26866000  1
  Se  Se14  1  0.25000000  0.89566700  0.76309700  1
  Se  Se15  1  0.75000000  0.91222900  0.46886600  1
  Se  Se16  1  0.75000000  0.58777100  0.96886600  1
  Se  Se17  1  0.75000000  0.10433300  0.23690300  1
  Se  Se18  1  0.75000000  0.45016300  0.33764200  1
  Se  Se19  1  0.25000000  0.23187800  0.12037600  1
  Se  Se20  1  0.25000000  0.26812200  0.62037600  1
  Se  Se21  1  0.75000000  0.04983700  0.83764200  1
  Se  Se22  1  0.25000000  0.92439600  0.59782100  1
  Se  Se23  1  0.25000000  0.56840400  0.42638500  1
  Se  Se24  1  0.25000000  0.21304200  0.76866000  1
  Se  Se25  1  0.75000000  0.43159600  0.57361500  1
  Se  Se26  1  0.75000000  0.42439600  0.90217900  1
  Se  Se27  1  0.25000000  0.08777100  0.53113400  1
  Se  Se28  1  0.75000000  0.06840400  0.07361500  1
  Se  Se29  1  0.75000000  0.73187800  0.37962400  1
  Se  Se30  1  0.75000000  0.76812200  0.87962400  1
  Se  Se31  1  0.75000000  0.07560400  0.40217900  1
loop_
_geom_bond_atom_site_label_1
_geom_bond_atom_site_label_2
_geom_bond_distance
_geom_bond_site_symmetry_2
Ni0 Ta17 2.511401 1_455
Ni0 Ta17 2.511401 1_555
Ni0 Ta21 2.513265 1_455
Ni0 Ta21 2.513265 1_555
Ni0 Ta9 2.539201 1_555
Ni0 Ta9 2.539201 1_455
Ni0 Ta1 2.860574 1_555
Ni0 Ta23 2.912254 1_555
Ni0 Ta26 2.919470 1_555
Ni1 Ta24 2.511401 1_555
Ni1 Ta24 2.511401 1_655
Ni1 Ta25 2.513265 1_655
Ni1 Ta25 2.513265 1_555
Ni1 Ta14 2.539201 1_655
Ni1 Ta14 2.539201 1_555
Ni1 Ta5 2.860574 1_555
Ni1 Ta2 2.912254 1_555
Ni1 Ta6 2.919470 1_555
Ni2 Ta31 2.511401 1_554
Ni2 Ta31 2.511401 1_454
Ni2 Ta10 2.513265 1_455
Ni2 Ta10 2.513265 1_555
Ni2 Ta16 2.539201 1_455
Ni2 Ta16 2.539201 1_555
Ni2 Ta8 2.860574 1_555
Ni2 Ta11 2.912254 1_555
Ni2 Ta13 2.919470 1_554
Ni3 Ta29 2.511401 1_556
Ni3 Ta29 2.511401 1_656
Ni3 Ta7 2.513265 1_655
Ni3 Ta7 2.513265 1_555
Ni3 Ta28 2.539201 1_555
Ni3 Ta28 2.539201 1_655
Ni3 Ta0 2.860574 1_555
Ni3 Ta27 2.912254 1_555
Ni3 Ta30 2.919470 1_556
Se0 Ta3 2.606936 1_555
Se0 Ta3 2.606936 1_655
Se0 Ta19 2.623573 1_545
Se0 Ta6 3.140321 1_555
Se1 Ta21 2.610718 1_555
Se1 Ta23 2.643167 1_655
Se1 Ta23 2.643167 1_555
Se1 Ta22 2.785947 1_555
Se2 Ta18 2.600501 1_555
Se2 Ta18 2.600501 1_655
Se2 Ta22 2.697806 1_555
Se2 Ta27 2.827182 1_555
Se3 Ta0 2.643034 1_565
Se3 Ta0 2.643034 1_465
Se3 Ta31 2.701728 1_455
Se3 Ta31 2.701728 1_555
Se3 Ta8 2.731403 1_556
Se4 Ta10 2.680844 1_455
Se4 Ta10 2.680844 1_555
Se4 Ta8 2.683790 1_555
Se4 Ta12 2.719934 1_455
Se4 Ta12 2.719934 1_555
Se5 Ta22 2.606936 1_555
Se5 Ta22 2.606936 1_455
Se5 Ta18 2.623573 1_555
Se5 Ta13 3.140321 1_555
Se6 Ta12 2.606936 1_555
Se6 Ta12 2.606936 1_455
Se6 Ta15 2.623573 1_565
Se6 Ta26 3.140321 1_555
Se7 Ta4 2.606936 1_555
Se7 Ta4 2.606936 1_655
Se7 Ta20 2.623573 1_555
Se7 Ta30 3.140321 1_555
Se8 Ta28 2.584507 1_554
Se8 Ta30 2.602292 1_555
Se8 Ta30 2.602292 1_455
Se9 Ta21 2.680844 1_455
Se9 Ta21 2.680844 1_555
Se9 Ta1 2.683790 1_555
Se9 Ta22 2.719934 1_555
Se9 Ta22 2.719934 1_455
Se10 Ta20 2.641267 1_455
Se10 Ta20 2.641267 1_555
Se10 Ta16 2.675353 1_455
Se10 Ta16 2.675353 1_555
Se10 Ta11 2.752988 1_555
Se11 Ta10 2.610718 1_555
Se11 Ta11 2.643167 1_655
Se11 Ta11 2.643167 1_555
Se11 Ta12 2.785947 1_555
Se12 Ta20 2.600501 1_455
Se12 Ta20 2.600501 1_555
Se12 Ta4 2.697806 1_555
Se12 Ta11 2.827182 1_555
Se13 Ta25 2.610718 1_555
Se13 Ta2 2.643167 1_555
Se13 Ta2 2.643167 1_455
Se13 Ta4 2.785947 1_555
Se14 Ta19 2.600501 1_455
Se14 Ta19 2.600501 1_555
Se14 Ta3 2.697806 1_565
Se14 Ta23 2.827182 1_555
Se15 Ta9 2.584507 1_555
Se15 Ta26 2.602292 1_655
Se15 Ta26 2.602292 1_555
Se16 Ta16 2.584507 1_556
Se16 Ta13 2.602292 1_555
Se16 Ta13 2.602292 1_655
Se17 Ta15 2.600501 1_555
Se17 Ta15 2.600501 1_655
Se17 Ta12 2.697806 1_545
Se17 Ta2 2.827182 1_555
Se18 Ta25 2.680844 1_655
Se18 Ta25 2.680844 1_555
Se18 Ta5 2.683790 1_555
Se18 Ta4 2.719934 1_655
Se18 Ta4 2.719934 1_555
Se19 Ta30 2.609673 1_555
Se19 Ta30 2.609673 1_455
Se19 Ta29 2.610849 1_555
Se20 Ta6 2.609673 1_455
Se20 Ta6 2.609673 1_555
Se20 Ta24 2.610849 1_555
Se21 Ta7 2.680844 1_655
Se21 Ta7 2.680844 1_555
Se21 Ta0 2.683790 1_555
Se21 Ta3 2.719934 1_655
Se21 Ta3 2.719934 1_555
Se22 Ta19 2.641267 1_455
Se22 Ta19 2.641267 1_555
Se22 Ta9 2.675353 1_455
Se22 Ta9 2.675353 1_555
Se22 Ta23 2.752988 1_555
Se23 Ta5 2.643034 1_455
Se23 Ta5 2.643034 1_555
Se23 Ta17 2.701728 1_455
Se23 Ta17 2.701728 1_555
Se23 Ta1 2.731403 1_555
Se24 Ta7 2.610718 1_555
Se24 Ta27 2.643167 1_555
Se24 Ta27 2.643167 1_455
Se24 Ta3 2.785947 1_555
Se25 Ta1 2.643034 1_655
Se25 Ta1 2.643034 1_555
Se25 Ta24 2.701728 1_555
Se25 Ta24 2.701728 1_655
Se25 Ta5 2.731403 1_555
Se26 Ta18 2.641267 1_555
Se26 Ta18 2.641267 1_655
Se26 Ta28 2.675353 1_655
Se26 Ta28 2.675353 1_555
Se26 Ta27 2.752988 1_555
Se27 Ta14 2.584507 1_555
Se27 Ta6 2.602292 1_555
Se27 Ta6 2.602292 1_455
Se28 Ta8 2.643034 1_545
Se28 Ta8 2.643034 1_645
Se28 Ta29 2.701728 1_555
Se28 Ta29 2.701728 1_655
Se28 Ta0 2.731403 1_554
Se29 Ta26 2.609673 1_555
Se29 Ta26 2.609673 1_655
Se29 Ta17 2.610849 1_555
Se30 Ta13 2.609673 1_555
Se30 Ta13 2.609673 1_655
Se30 Ta31 2.610849 1_555
Se31 Ta15 2.641267 1_555
Se31 Ta15 2.641267 1_655
Se31 Ta14 2.675353 1_555
Se31 Ta14 2.675353 1_655
Se31 Ta2 2.752988 1_555
