# generated using pymatgen
data_H5N2Cl
_symmetry_space_group_name_H-M   'P 1'
_cell_length_a   27.63520780
_cell_length_b   21.37999425
_cell_length_c   17.69870934
_cell_angle_alpha   89.49700610
_cell_angle_beta   50.68015249
_cell_angle_gamma   39.82284141
_symmetry_Int_Tables_number   1
_chemical_formula_structural   H5N2Cl
_chemical_formula_sum   'H160 N64 Cl32'
_cell_volume   1367.01131705
_cell_formula_units_Z   32
loop_
 _symmetry_equiv_pos_site_id
 _symmetry_equiv_pos_as_xyz
  1  'x, y, z'
loop_
 _atom_site_type_symbol
 _atom_site_label
 _atom_site_symmetry_multiplicity
 _atom_site_fract_x
 _atom_site_fract_y
 _atom_site_fract_z
 _atom_site_occupancy
  H  H0_0  1  0.27472050  0.44103050  0.11497600  1
  H  H0_1  1  0.27472050  0.44103050  0.61497600  1
  H  H0_2  1  0.27472050  0.94103050  0.11497600  1
  H  H0_3  1  0.27472050  0.94103050  0.61497600  1
  H  H0_4  1  0.77472050  0.44103050  0.11497600  1
  H  H0_5  1  0.77472050  0.44103050  0.61497600  1
  H  H0_6  1  0.77472050  0.94103050  0.11497600  1
  H  H0_7  1  0.77472050  0.94103050  0.61497600  1
  H  H1_0  1  0.16927300  0.11497600  0.44103050  1
  H  H1_1  1  0.16927300  0.11497600  0.94103050  1
  H  H1_2  1  0.16927300  0.61497600  0.44103050  1
  H  H1_3  1  0.16927300  0.61497600  0.94103050  1
  H  H1_4  1  0.66927300  0.11497600  0.44103050  1
  H  H1_5  1  0.66927300  0.11497600  0.94103050  1
  H  H1_6  1  0.66927300  0.61497600  0.44103050  1
  H  H1_7  1  0.66927300  0.61497600  0.94103050  1
  H  H2_0  1  0.18396950  0.35027950  0.45572700  1
  H  H2_1  1  0.18396950  0.35027950  0.95572700  1
  H  H2_2  1  0.18396950  0.85027950  0.45572700  1
  H  H2_3  1  0.18396950  0.85027950  0.95572700  1
  H  H2_4  1  0.68396950  0.35027950  0.45572700  1
  H  H2_5  1  0.68396950  0.35027950  0.95572700  1
  H  H2_6  1  0.68396950  0.85027950  0.45572700  1
  H  H2_7  1  0.68396950  0.85027950  0.95572700  1
  H  H3_0  1  0.01002400  0.45572700  0.35027950  1
  H  H3_1  1  0.01002400  0.45572700  0.85027950  1
  H  H3_2  1  0.01002400  0.95572700  0.35027950  1
  H  H3_3  1  0.01002400  0.95572700  0.85027950  1
  H  H3_4  1  0.51002400  0.45572700  0.35027950  1
  H  H3_5  1  0.51002400  0.45572700  0.85027950  1
  H  H3_6  1  0.51002400  0.95572700  0.35027950  1
  H  H3_7  1  0.51002400  0.95572700  0.85027950  1
  H  H4_0  1  0.38091500  0.38315400  0.46515950  1
  H  H4_1  1  0.38091500  0.38315400  0.96515950  1
  H  H4_2  1  0.38091500  0.88315400  0.46515950  1
  H  H4_3  1  0.38091500  0.88315400  0.96515950  1
  H  H4_4  1  0.88091500  0.38315400  0.46515950  1
  H  H4_5  1  0.88091500  0.38315400  0.96515950  1
  H  H4_6  1  0.88091500  0.88315400  0.46515950  1
  H  H4_7  1  0.88091500  0.88315400  0.96515950  1
  H  H5_0  1  0.27077200  0.46515950  0.38315350  1
  H  H5_1  1  0.27077200  0.46515950  0.88315350  1
  H  H5_2  1  0.27077200  0.96515950  0.38315350  1
  H  H5_3  1  0.27077200  0.96515950  0.88315350  1
  H  H5_4  1  0.77077200  0.46515950  0.38315350  1
  H  H5_5  1  0.77077200  0.46515950  0.88315350  1
  H  H5_6  1  0.77077200  0.96515950  0.38315350  1
  H  H5_7  1  0.77077200  0.96515950  0.88315350  1
  H  H6_0  1  0.24184600  0.24408500  0.35422800  1
  H  H6_1  1  0.24184600  0.24408500  0.85422800  1
  H  H6_2  1  0.24184600  0.74408500  0.35422800  1
  H  H6_3  1  0.24184600  0.74408500  0.85422800  1
  H  H6_4  1  0.74184600  0.24408500  0.35422800  1
  H  H6_5  1  0.74184600  0.24408500  0.85422800  1
  H  H6_6  1  0.74184600  0.74408500  0.35422800  1
  H  H6_7  1  0.74184600  0.74408500  0.85422800  1
  H  H7_0  1  0.15984050  0.35422800  0.24408500  1
  H  H7_1  1  0.15984050  0.35422800  0.74408500  1
  H  H7_2  1  0.15984050  0.85422800  0.24408500  1
  H  H7_3  1  0.15984050  0.85422800  0.74408500  1
  H  H7_4  1  0.65984050  0.35422800  0.24408500  1
  H  H7_5  1  0.65984050  0.35422800  0.74408500  1
  H  H7_6  1  0.65984050  0.85422800  0.24408500  1
  H  H7_7  1  0.65984050  0.85422800  0.74408500  1
  H  H8_0  1  0.45747400  0.33999350  0.00206850  1
  H  H8_1  1  0.45747400  0.33999350  0.50206850  1
  H  H8_2  1  0.45747400  0.83999350  0.00206850  1
  H  H8_3  1  0.45747400  0.83999350  0.50206850  1
  H  H8_4  1  0.95747400  0.33999350  0.00206850  1
  H  H8_5  1  0.95747400  0.33999350  0.50206850  1
  H  H8_6  1  0.95747400  0.83999350  0.00206850  1
  H  H8_7  1  0.95747400  0.83999350  0.50206850  1
  H  H9_0  1  0.20046400  0.00206850  0.33999350  1
  H  H9_1  1  0.20046400  0.00206850  0.83999350  1
  H  H9_2  1  0.20046400  0.50206850  0.33999350  1
  H  H9_3  1  0.20046400  0.50206850  0.83999350  1
  H  H9_4  1  0.70046400  0.00206850  0.33999350  1
  H  H9_5  1  0.70046400  0.00206850  0.83999350  1
  H  H9_6  1  0.70046400  0.50206850  0.33999350  1
  H  H9_7  1  0.70046400  0.50206850  0.83999350  1
  H  H10_0  1  0.28500650  0.16752600  0.42453600  1
  H  H10_1  1  0.28500650  0.16752600  0.92453600  1
  H  H10_2  1  0.28500650  0.66752600  0.42453600  1
  H  H10_3  1  0.28500650  0.66752600  0.92453600  1
  H  H10_4  1  0.78500650  0.16752600  0.42453600  1
  H  H10_5  1  0.78500650  0.16752600  0.92453600  1
  H  H10_6  1  0.78500650  0.66752600  0.42453600  1
  H  H10_7  1  0.78500650  0.66752600  0.92453600  1
  H  H11_0  1  0.12293150  0.42453600  0.16752600  1
  H  H11_1  1  0.12293150  0.42453600  0.66752600  1
  H  H11_2  1  0.12293150  0.92453600  0.16752600  1
  H  H11_3  1  0.12293150  0.92453600  0.66752600  1
  H  H11_4  1  0.62293150  0.42453600  0.16752600  1
  H  H11_5  1  0.62293150  0.42453600  0.66752600  1
  H  H11_6  1  0.62293150  0.92453600  0.16752600  1
  H  H11_7  1  0.62293150  0.92453600  0.66752600  1
  H  H12_0  1  0.45803400  0.40635500  0.44794700  1
  H  H12_1  1  0.45803400  0.40635500  0.94794700  1
  H  H12_2  1  0.45803400  0.90635500  0.44794700  1
  H  H12_3  1  0.45803400  0.90635500  0.94794700  1
  H  H12_4  1  0.95803400  0.40635500  0.44794700  1
  H  H12_5  1  0.95803400  0.40635500  0.94794700  1
  H  H12_6  1  0.95803400  0.90635500  0.44794700  1
  H  H12_7  1  0.95803400  0.90635500  0.94794700  1
  H  H13_0  1  0.18766400  0.44794700  0.40635500  1
  H  H13_1  1  0.18766400  0.44794700  0.90635500  1
  H  H13_2  1  0.18766400  0.94794700  0.40635500  1
  H  H13_3  1  0.18766400  0.94794700  0.90635500  1
  H  H13_4  1  0.68766400  0.44794700  0.40635500  1
  H  H13_5  1  0.68766400  0.44794700  0.90635500  1
  H  H13_6  1  0.68766400  0.94794700  0.40635500  1
  H  H13_7  1  0.68766400  0.94794700  0.90635500  1
  H  H14_0  1  0.21864500  0.16696600  0.43733600  1
  H  H14_1  1  0.21864500  0.16696600  0.93733600  1
  H  H14_2  1  0.21864500  0.66696600  0.43733600  1
  H  H14_3  1  0.21864500  0.66696600  0.93733600  1
  H  H14_4  1  0.71864500  0.16696600  0.43733600  1
  H  H14_5  1  0.71864500  0.16696600  0.93733600  1
  H  H14_6  1  0.71864500  0.66696600  0.43733600  1
  H  H14_7  1  0.71864500  0.66696600  0.93733600  1
  H  H15_0  1  0.17705300  0.43733600  0.16696600  1
  H  H15_1  1  0.17705300  0.43733600  0.66696600  1
  H  H15_2  1  0.17705300  0.93733600  0.16696600  1
  H  H15_3  1  0.17705300  0.93733600  0.66696600  1
  H  H15_4  1  0.67705300  0.43733600  0.16696600  1
  H  H15_5  1  0.67705300  0.43733600  0.66696600  1
  H  H15_6  1  0.67705300  0.93733600  0.16696600  1
  H  H15_7  1  0.67705300  0.93733600  0.66696600  1
  H  H16_0  1  0.18289550  0.17309450  0.38302000  1
  H  H16_1  1  0.18289550  0.17309450  0.88302000  1
  H  H16_2  1  0.18289550  0.67309450  0.38302000  1
  H  H16_3  1  0.18289550  0.67309450  0.88302000  1
  H  H16_4  1  0.68289550  0.17309450  0.38302000  1
  H  H16_5  1  0.68289550  0.17309450  0.88302000  1
  H  H16_6  1  0.68289550  0.67309450  0.38302000  1
  H  H16_7  1  0.68289550  0.67309450  0.88302000  1
  H  H17_0  1  0.26099000  0.38302000  0.17309450  1
  H  H17_1  1  0.26099000  0.38302000  0.67309450  1
  H  H17_2  1  0.26099000  0.88302000  0.17309450  1
  H  H17_3  1  0.26099000  0.88302000  0.67309450  1
  H  H17_4  1  0.76099000  0.38302000  0.17309450  1
  H  H17_5  1  0.76099000  0.38302000  0.67309450  1
  H  H17_6  1  0.76099000  0.88302000  0.17309450  1
  H  H17_7  1  0.76099000  0.88302000  0.67309450  1
  H  H18_0  1  0.45190550  0.44210450  0.36401000  1
  H  H18_1  1  0.45190550  0.44210450  0.86401000  1
  H  H18_2  1  0.45190550  0.94210450  0.36401000  1
  H  H18_3  1  0.45190550  0.94210450  0.86401000  1
  H  H18_4  1  0.95190550  0.44210450  0.36401000  1
  H  H18_5  1  0.95190550  0.44210450  0.86401000  1
  H  H18_6  1  0.95190550  0.94210450  0.36401000  1
  H  H18_7  1  0.95190550  0.94210450  0.86401000  1
  H  H19_0  1  0.24198000  0.36401000  0.44210450  1
  H  H19_1  1  0.24198000  0.36401000  0.94210450  1
  H  H19_2  1  0.24198000  0.86401000  0.44210450  1
  H  H19_3  1  0.24198000  0.86401000  0.94210450  1
  H  H19_4  1  0.74198000  0.36401000  0.44210450  1
  H  H19_5  1  0.74198000  0.36401000  0.94210450  1
  H  H19_6  1  0.74198000  0.86401000  0.44210450  1
  H  H19_7  1  0.74198000  0.86401000  0.94210450  1
  N  N0_0  1  0.28535950  0.40715850  0.15847800  1
  N  N0_1  1  0.28535950  0.40715850  0.65847800  1
  N  N0_2  1  0.28535950  0.90715850  0.15847800  1
  N  N0_3  1  0.28535950  0.90715850  0.65847800  1
  N  N0_4  1  0.78535950  0.40715850  0.15847800  1
  N  N0_5  1  0.78535950  0.40715850  0.65847800  1
  N  N0_6  1  0.78535950  0.90715850  0.15847800  1
  N  N0_7  1  0.78535950  0.90715850  0.65847800  1
  N  N1_0  1  0.14900400  0.15847800  0.40715850  1
  N  N1_1  1  0.14900400  0.15847800  0.90715850  1
  N  N1_2  1  0.14900400  0.65847800  0.40715850  1
  N  N1_3  1  0.14900400  0.65847800  0.90715850  1
  N  N1_4  1  0.64900400  0.15847800  0.40715850  1
  N  N1_5  1  0.64900400  0.15847800  0.90715850  1
  N  N1_6  1  0.64900400  0.65847800  0.40715850  1
  N  N1_7  1  0.64900400  0.65847800  0.90715850  1
  N  N2_0  1  0.21784150  0.33964050  0.47599600  1
  N  N2_1  1  0.21784150  0.33964050  0.97599600  1
  N  N2_2  1  0.21784150  0.83964050  0.47599600  1
  N  N2_3  1  0.21784150  0.83964050  0.97599600  1
  N  N2_4  1  0.71784150  0.33964050  0.47599600  1
  N  N2_5  1  0.71784150  0.33964050  0.97599600  1
  N  N2_6  1  0.71784150  0.83964050  0.47599600  1
  N  N2_7  1  0.71784150  0.83964050  0.97599600  1
  N  N3_0  1  0.46652200  0.47599600  0.33964050  1
  N  N3_1  1  0.46652200  0.47599600  0.83964050  1
  N  N3_2  1  0.46652200  0.97599600  0.33964050  1
  N  N3_3  1  0.46652200  0.97599600  0.83964050  1
  N  N3_4  1  0.96652200  0.47599600  0.33964050  1
  N  N3_5  1  0.96652200  0.47599600  0.83964050  1
  N  N3_6  1  0.96652200  0.97599600  0.33964050  1
  N  N3_7  1  0.96652200  0.97599600  0.83964050  1
  N  N4_0  1  0.43181250  0.38316150  0.46992650  1
  N  N4_1  1  0.43181250  0.38316150  0.96992650  1
  N  N4_2  1  0.43181250  0.88316150  0.46992650  1
  N  N4_3  1  0.43181250  0.88316150  0.96992650  1
  N  N4_4  1  0.93181250  0.38316150  0.46992650  1
  N  N4_5  1  0.93181250  0.38316150  0.96992650  1
  N  N4_6  1  0.93181250  0.88316150  0.46992650  1
  N  N4_7  1  0.93181250  0.88316150  0.96992650  1
  N  N5_0  1  0.21509950  0.46992650  0.38316150  1
  N  N5_1  1  0.21509950  0.46992650  0.88316150  1
  N  N5_2  1  0.21509950  0.96992650  0.38316150  1
  N  N5_3  1  0.21509950  0.96992650  0.88316150  1
  N  N5_4  1  0.71509950  0.46992650  0.38316150  1
  N  N5_5  1  0.71509950  0.46992650  0.88316150  1
  N  N5_6  1  0.71509950  0.96992650  0.38316150  1
  N  N5_7  1  0.71509950  0.96992650  0.88316150  1
  N  N6_0  1  0.24183850  0.19318750  0.40990050  1
  N  N6_1  1  0.24183850  0.19318750  0.90990050  1
  N  N6_2  1  0.24183850  0.69318750  0.40990050  1
  N  N6_3  1  0.24183850  0.69318750  0.90990050  1
  N  N6_4  1  0.74183850  0.19318750  0.40990050  1
  N  N6_5  1  0.74183850  0.19318750  0.90990050  1
  N  N6_6  1  0.74183850  0.69318750  0.40990050  1
  N  N6_7  1  0.74183850  0.69318750  0.90990050  1
  N  N7_0  1  0.15507350  0.40990050  0.19318750  1
  N  N7_1  1  0.15507350  0.40990050  0.69318750  1
  N  N7_2  1  0.15507350  0.90990050  0.19318750  1
  N  N7_3  1  0.15507350  0.90990050  0.69318750  1
  N  N7_4  1  0.65507350  0.40990050  0.19318750  1
  N  N7_5  1  0.65507350  0.40990050  0.69318750  1
  N  N7_6  1  0.65507350  0.90990050  0.19318750  1
  N  N7_7  1  0.65507350  0.90990050  0.69318750  1
  Cl  Cl0_0  1  0.33164450  0.10086050  0.15691700  1
  Cl  Cl0_1  1  0.33164450  0.10086050  0.65691700  1
  Cl  Cl0_2  1  0.33164450  0.60086050  0.15691700  1
  Cl  Cl0_3  1  0.33164450  0.60086050  0.65691700  1
  Cl  Cl0_4  1  0.83164450  0.10086050  0.15691700  1
  Cl  Cl0_5  1  0.83164450  0.10086050  0.65691700  1
  Cl  Cl0_6  1  0.83164450  0.60086050  0.15691700  1
  Cl  Cl0_7  1  0.83164450  0.60086050  0.65691700  1
  Cl  Cl1_0  1  0.41057800  0.15691700  0.10086050  1
  Cl  Cl1_1  1  0.41057800  0.15691700  0.60086050  1
  Cl  Cl1_2  1  0.41057800  0.65691700  0.10086050  1
  Cl  Cl1_3  1  0.41057800  0.65691700  0.60086050  1
  Cl  Cl1_4  1  0.91057800  0.15691700  0.10086050  1
  Cl  Cl1_5  1  0.91057800  0.15691700  0.60086050  1
  Cl  Cl1_6  1  0.91057800  0.65691700  0.10086050  1
  Cl  Cl1_7  1  0.91057800  0.65691700  0.60086050  1
  Cl  Cl2_0  1  0.02413950  0.29335550  0.21442200  1
  Cl  Cl2_1  1  0.02413950  0.29335550  0.71442200  1
  Cl  Cl2_2  1  0.02413950  0.79335550  0.21442200  1
  Cl  Cl2_3  1  0.02413950  0.79335550  0.71442200  1
  Cl  Cl2_4  1  0.52413950  0.29335550  0.21442200  1
  Cl  Cl2_5  1  0.52413950  0.29335550  0.71442200  1
  Cl  Cl2_6  1  0.52413950  0.79335550  0.21442200  1
  Cl  Cl2_7  1  0.52413950  0.79335550  0.71442200  1
  Cl  Cl3_0  1  0.46808300  0.21442200  0.29335550  1
  Cl  Cl3_1  1  0.46808300  0.21442200  0.79335550  1
  Cl  Cl3_2  1  0.46808300  0.71442200  0.29335550  1
  Cl  Cl3_3  1  0.46808300  0.71442200  0.79335550  1
  Cl  Cl3_4  1  0.96808300  0.21442200  0.29335550  1
  Cl  Cl3_5  1  0.96808300  0.21442200  0.79335550  1
  Cl  Cl3_6  1  0.96808300  0.71442200  0.29335550  1
  Cl  Cl3_7  1  0.96808300  0.71442200  0.79335550  1
loop_
_geom_bond_atom_site_label_1
_geom_bond_atom_site_label_2
_geom_bond_distance
_geom_bond_site_symmetry_2
H0_0 N0_0 1.074107 1_555
H0_1 N0_1 1.074107 1_555
H0_2 N0_2 1.074107 1_555
H0_3 N0_3 1.074107 1_555
H0_4 N0_4 1.074107 1_555
H0_5 N0_5 1.074107 1_555
H0_6 N0_6 1.074107 1_555
H0_7 N0_7 1.074107 1_555
H1_0 N1_0 1.074107 1_555
H1_1 N1_1 1.074107 1_555
H1_2 N1_2 1.074107 1_555
H1_3 N1_3 1.074107 1_555
H1_4 N1_4 1.074107 1_555
H1_5 N1_5 1.074107 1_555
H1_6 N1_6 1.074107 1_555
H1_7 N1_7 1.074107 1_555
H2_0 N2_0 1.074107 1_555
H2_1 N2_1 1.074107 1_555
H2_2 N2_2 1.074107 1_555
H2_3 N2_3 1.074107 1_555
H2_4 N2_4 1.074107 1_555
H2_5 N2_5 1.074107 1_555
H2_6 N2_6 1.074107 1_555
H2_7 N2_7 1.074107 1_555
H3_0 N3_4 1.074107 1_455
H3_1 N3_5 1.074107 1_455
H3_2 N3_6 1.074107 1_455
H3_3 N3_7 1.074107 1_455
H3_4 N3_0 1.074107 1_555
H3_5 N3_1 1.074107 1_555
H3_6 N3_2 1.074107 1_555
H3_7 N3_3 1.074107 1_555
H4_0 N4_0 1.461601 1_555
H4_1 N4_1 1.461601 1_555
H4_2 N4_2 1.461601 1_555
H4_3 N4_3 1.461601 1_555
H4_4 N4_4 1.461601 1_555
H4_5 N4_5 1.461601 1_555
H4_6 N4_6 1.461601 1_555
H4_7 N4_7 1.461601 1_555
H5_0 N5_0 1.461609 1_555
H5_1 N5_1 1.461609 1_555
H5_2 N5_2 1.461609 1_555
H5_3 N5_3 1.461609 1_555
H5_4 N5_4 1.461609 1_555
H5_5 N5_5 1.461609 1_555
H5_6 N5_6 1.461609 1_555
H5_7 N5_7 1.461609 1_555
H6_0 N6_0 1.461607 1_555
H6_1 N6_1 1.461607 1_555
H6_2 N6_2 1.461607 1_555
H6_3 N6_3 1.461607 1_555
H6_4 N6_4 1.461607 1_555
H6_5 N6_5 1.461607 1_555
H6_6 N6_6 1.461607 1_555
H6_7 N6_7 1.461607 1_555
H7_0 N7_0 1.461609 1_555
H7_1 N7_1 1.461609 1_555
H7_2 N7_2 1.461609 1_555
H7_3 N7_3 1.461609 1_555
H7_4 N7_4 1.461609 1_555
H7_5 N7_5 1.461609 1_555
H7_6 N7_6 1.461609 1_555
H7_7 N7_7 1.461609 1_555
H8_0 N4_1 1.083976 1_554
H8_1 N4_0 1.083976 1_555
H8_2 N4_3 1.083976 1_554
H8_3 N4_2 1.083976 1_555
H8_4 N4_5 1.083976 1_554
H8_5 N4_4 1.083976 1_555
H8_6 N4_7 1.083976 1_554
H8_7 N4_6 1.083976 1_555
H9_0 N5_2 1.083976 1_545
H9_1 N5_3 1.083976 1_545
H9_2 N5_0 1.083976 1_555
H9_3 N5_1 1.083976 1_555
H9_4 N5_6 1.083976 1_545
H9_5 N5_7 1.083976 1_545
H9_6 N5_4 1.083976 1_555
H9_7 N5_5 1.083976 1_555
H10_0 N6_0 1.083976 1_555
H10_1 N6_1 1.083976 1_555
H10_2 N6_2 1.083976 1_555
H10_3 N6_3 1.083976 1_555
H10_4 N6_4 1.083976 1_555
H10_5 N6_5 1.083976 1_555
H10_6 N6_6 1.083976 1_555
H10_7 N6_7 1.083976 1_555
H11_0 N7_0 1.083976 1_555
H11_1 N7_1 1.083976 1_555
H11_2 N7_2 1.083976 1_555
H11_3 N7_3 1.083976 1_555
H11_4 N7_4 1.083976 1_555
H11_5 N7_5 1.083976 1_555
H11_6 N7_6 1.083976 1_555
H11_7 N7_7 1.083976 1_555
H12_0 N4_0 1.055295 1_555
H12_1 N4_1 1.055295 1_555
H12_2 N4_2 1.055295 1_555
H12_3 N4_3 1.055295 1_555
H12_4 N4_4 1.055295 1_555
H12_5 N4_5 1.055295 1_555
H12_6 N4_6 1.055295 1_555
H12_7 N4_7 1.055295 1_555
H13_0 N5_0 1.055295 1_555
H13_1 N5_1 1.055295 1_555
H13_2 N5_2 1.055295 1_555
H13_3 N5_3 1.055295 1_555
H13_4 N5_4 1.055295 1_555
H13_5 N5_5 1.055295 1_555
H13_6 N5_6 1.055295 1_555
H13_7 N5_7 1.055295 1_555
H14_0 N6_0 1.055295 1_555
H14_1 N6_1 1.055295 1_555
H14_2 N6_2 1.055295 1_555
H14_3 N6_3 1.055295 1_555
H14_4 N6_4 1.055295 1_555
H14_5 N6_5 1.055295 1_555
H14_6 N6_6 1.055295 1_555
H14_7 N6_7 1.055295 1_555
H15_0 N7_0 1.055295 1_555
H15_1 N7_1 1.055295 1_555
H15_2 N7_2 1.055295 1_555
H15_3 N7_3 1.055295 1_555
H15_4 N7_4 1.055295 1_555
H15_5 N7_5 1.055295 1_555
H15_6 N7_6 1.055295 1_555
H15_7 N7_7 1.055295 1_555
H16_0 N1_0 1.047637 1_555
H16_1 N1_1 1.047637 1_555
H16_2 N1_2 1.047637 1_555
H16_3 N1_3 1.047637 1_555
H16_4 N1_4 1.047637 1_555
H16_5 N1_5 1.047637 1_555
H16_6 N1_6 1.047637 1_555
H16_7 N1_7 1.047637 1_555
H17_0 N0_0 1.047637 1_555
H17_1 N0_1 1.047637 1_555
H17_2 N0_2 1.047637 1_555
H17_3 N0_3 1.047637 1_555
H17_4 N0_4 1.047637 1_555
H17_5 N0_5 1.047637 1_555
H17_6 N0_6 1.047637 1_555
H17_7 N0_7 1.047637 1_555
H18_0 N3_0 1.047637 1_555
H18_1 N3_1 1.047637 1_555
H18_2 N3_2 1.047637 1_555
H18_3 N3_3 1.047637 1_555
H18_4 N3_4 1.047637 1_555
H18_5 N3_5 1.047637 1_555
H18_6 N3_6 1.047637 1_555
H18_7 N3_7 1.047637 1_555
H19_0 N2_0 1.047637 1_555
H19_1 N2_1 1.047637 1_555
H19_2 N2_2 1.047637 1_555
H19_3 N2_3 1.047637 1_555
H19_4 N2_4 1.047637 1_555
H19_5 N2_5 1.047637 1_555
H19_6 N2_6 1.047637 1_555
H19_7 N2_7 1.047637 1_555
Cl0_0 Cl0_7 1.822602 1_455
Cl0_0 Cl0_7 1.822602 1_544
Cl0_1 Cl0_6 1.822602 1_456
Cl0_1 Cl0_6 1.822602 1_545
Cl0_2 Cl0_5 1.822602 1_465
Cl0_2 Cl0_5 1.822602 1_554
Cl0_3 Cl0_4 1.822602 1_555
Cl0_3 Cl0_4 1.822602 1_466
Cl1_0 Cl1_7 1.822602 1_455
Cl1_0 Cl1_7 1.822602 1_544
Cl1_1 Cl1_6 1.822602 1_545
Cl1_1 Cl1_6 1.822602 1_456
Cl1_2 Cl1_5 1.822602 1_554
Cl1_2 Cl1_5 1.822602 1_465
Cl1_3 Cl1_4 1.822602 1_555
Cl1_3 Cl1_4 1.822602 1_466
Cl2_0 Cl2_7 1.822602 1_455
Cl2_0 Cl2_7 1.822602 1_544
Cl2_1 Cl2_6 1.822602 1_545
Cl2_1 Cl2_6 1.822602 1_456
Cl2_2 Cl2_5 1.822602 1_554
Cl2_2 Cl2_5 1.822602 1_465
Cl2_3 Cl2_4 1.822602 1_555
Cl2_3 Cl2_4 1.822602 1_466
Cl3_0 Cl3_7 1.822602 1_544
Cl3_0 Cl3_7 1.822602 1_455
Cl3_1 Cl3_6 1.822602 1_545
Cl3_1 Cl3_6 1.822602 1_456
Cl3_2 Cl3_5 1.822602 1_554
Cl3_2 Cl3_5 1.822602 1_465
Cl3_3 Cl3_4 1.822602 1_555
Cl3_3 Cl3_4 1.822602 1_466
