# generated using pymatgen
data_NaErF4
_symmetry_space_group_name_H-M   'P 1'
_cell_length_a   7.56696907
_cell_length_b   9.96834590
_cell_length_c   6.48864083
_cell_angle_alpha   29.26617225
_cell_angle_beta   54.30614057
_cell_angle_gamma   40.59291029
_symmetry_Int_Tables_number   1
_chemical_formula_structural   NaErF4
_chemical_formula_sum   'Na2 Er2 F8'
_cell_volume   150.81455588
_cell_formula_units_Z   2
loop_
 _symmetry_equiv_pos_site_id
 _symmetry_equiv_pos_as_xyz
  1  'x, y, z'
loop_
 _atom_site_type_symbol
 _atom_site_label
 _atom_site_symmetry_multiplicity
 _atom_site_fract_x
 _atom_site_fract_y
 _atom_site_fract_z
 _atom_site_occupancy
  Na  Na0  1  0.00007286  0.99981065  0.00025108  1
  Na  Na1  1  0.74992784  0.50019055  0.99974592  1
  Er  Er0  1  0.50000133  0.99999604  -0.00000511  1
  Er  Er1  1  0.24999875  0.50000493  0.00000373  1
  F  F0  1  0.14293290  0.98206391  0.26788052  1
  F  F1  1  0.60704226  0.01795131  0.23206138  1
  F  F2  1  0.37495700  0.01797771  0.73203209  1
  F  F3  1  0.37504457  0.48200878  0.26798263  1
  F  F4  1  0.14295981  0.48205404  0.76792714  1
  F  F5  1  0.87504233  0.98203790  0.76798026  1
  F  F6  1  0.87495737  0.51795951  0.23202489  1
  F  F7  1  0.60706196  0.51794466  0.73211449  1
loop_
_geom_bond_atom_site_label_1
_geom_bond_atom_site_label_2
_geom_bond_distance
_geom_bond_site_symmetry_2
Er0 F6 2.250227 1_555
Er0 F4 2.250293 1_564
Er0 F3 2.250355 1_564
Er0 F0 2.250495 1_555
Er0 F7 2.250651 1_555
Er0 F5 2.250654 1_554
Er0 F2 2.251445 1_564
Er0 F1 2.251476 1_565
Er1 F5 2.250225 1_454
Er1 F1 2.250297 1_555
Er1 F2 2.250403 1_555
Er1 F7 2.250487 1_554
Er1 F0 2.250662 1_554
Er1 F6 2.250667 1_455
Er1 F3 2.251421 1_555
Er1 F4 2.251485 1_554
F0 Na1 2.362123 1_464
F0 Na0 2.362129 1_555
F1 Na1 2.361001 1_545
F1 Na0 2.361752 1_645
F2 Na1 2.361339 1_545
F2 Na0 2.361793 1_546
F3 Na0 2.361377 1_555
F3 Na1 2.361835 1_554
F4 Na0 2.360976 1_555
F4 Na1 2.361772 1_455
F5 Na1 2.362656 1_564
F5 Na0 2.362671 1_656
F6 Na0 2.362632 1_646
F6 Na1 2.362678 1_554
F7 Na1 2.362111 1_555
F7 Na0 2.362162 1_646
