# generated using pymatgen
data_Ce10Te19
_symmetry_space_group_name_H-M   'P 1'
_cell_length_a   10.04035566
_cell_length_b   10.03659257
_cell_length_c   18.31710293
_cell_angle_alpha   89.99953752
_cell_angle_beta   90.01755037
_cell_angle_gamma   89.98115259
_symmetry_Int_Tables_number   1
_chemical_formula_structural   Ce10Te19
_chemical_formula_sum   'Ce20 Te38'
_cell_volume   1845.83184189
_cell_formula_units_Z   2
loop_
 _symmetry_equiv_pos_site_id
 _symmetry_equiv_pos_as_xyz
  1  'x, y, z'
loop_
 _atom_site_type_symbol
 _atom_site_label
 _atom_site_symmetry_multiplicity
 _atom_site_fract_x
 _atom_site_fract_y
 _atom_site_fract_z
 _atom_site_occupancy
  Ce  Ce0  1  0.74972676  0.24988409  0.88214995  1
  Ce  Ce1  1  0.85013192  0.95512399  0.61754410  1
  Ce  Ce2  1  0.95528189  0.64902881  0.88262337  1
  Ce  Ce3  1  0.64958511  0.54491567  0.61730598  1
  Ce  Ce4  1  0.04492310  0.35052488  0.11750384  1
  Ce  Ce5  1  0.64755553  0.54920875  0.10924953  1
  Ce  Ce6  1  0.95083796  0.64757711  0.39094382  1
  Ce  Ce7  1  0.35235973  0.45072847  0.89087931  1
  Ce  Ce8  1  0.45069401  0.14765154  0.60910341  1
  Ce  Ce9  1  0.54951292  0.85286852  0.39093159  1
  Ce  Ce10  1  0.34984006  0.45475410  0.38234157  1
  Ce  Ce11  1  0.14950624  0.04513937  0.38242818  1
  Ce  Ce12  1  0.85272974  0.95055114  0.10908252  1
  Ce  Ce13  1  0.54462898  0.85017364  0.88248912  1
  Ce  Ce14  1  0.45521335  0.14990161  0.11783359  1
  Ce  Ce15  1  0.24966427  0.74981750  0.61765033  1
  Ce  Ce16  1  0.14748968  0.04965631  0.89090914  1
  Ce  Ce17  1  0.04963183  0.35275263  0.60888619  1
  Ce  Ce18  1  0.74993511  0.25029299  0.38242423  1
  Ce  Ce19  1  0.24982163  0.75034228  0.11765165  1
  Te  Te0  1  0.34911377  0.44709046  0.56468429  1
  Te  Te1  1  0.15331455  0.04942091  0.06932370  1
  Te  Te2  1  0.05303818  0.34880496  0.93528430  1
  Te  Te3  1  0.44769939  0.15136813  0.93534340  1
  Te  Te4  1  0.83622653  0.47255286  0.24981960  1
  Te  Te5  1  0.02748681  0.83631136  0.25019210  1
  Te  Te6  1  0.16378992  0.52742870  0.75032550  1
  Te  Te7  1  0.34775973  0.45070543  0.06936999  1
  Te  Te8  1  0.84787710  0.95091434  0.93075061  1
  Te  Te9  1  0.24947217  0.24942015  0.24994137  1
  Te  Te10  1  0.33582541  0.97201736  0.75050829  1
  Te  Te11  1  0.44314105  0.63249128  0.75030141  1
  Te  Te12  1  0.94688832  0.65082118  0.06470566  1
  Te  Te13  1  0.65206836  0.54929741  0.93070588  1
  Te  Te14  1  0.25013548  0.74990635  0.43591782  1
  Te  Te15  1  0.75029480  0.24962147  0.06428636  1
  Te  Te16  1  0.45076601  0.15324725  0.43066242  1
  Te  Te17  1  0.36680512  0.94273313  0.25069452  1
  Te  Te18  1  0.55238557  0.84895816  0.06475738  1
  Te  Te19  1  0.04984657  0.34724400  0.43069455  1
  Te  Te20  1  0.55694227  0.36721676  0.24949118  1
  Te  Te21  1  0.13252749  0.55710267  0.25040620  1
  Te  Te22  1  0.54929788  0.84806149  0.56930063  1
  Te  Te23  1  0.24987599  0.74991444  0.93583920  1
  Te  Te24  1  0.47195095  0.66389409  0.25033174  1
  Te  Te25  1  0.95053730  0.65299693  0.56925342  1
  Te  Te26  1  0.86701978  0.44263280  0.74937961  1
  Te  Te27  1  0.97246083  0.16408257  0.74947688  1
  Te  Te28  1  0.52697219  0.33631138  0.74949214  1
  Te  Te29  1  0.65077371  0.55260017  0.43531443  1
  Te  Te30  1  0.66418149  0.02806753  0.24982892  1
  Te  Te31  1  0.84921328  0.94701820  0.43524312  1
  Te  Te32  1  0.63296189  0.05710450  0.74950858  1
  Te  Te33  1  0.15115534  0.05225927  0.56473668  1
  Te  Te34  1  0.94285125  0.13305237  0.24949212  1
  Te  Te35  1  0.05699564  0.86678908  0.75057509  1
  Te  Te36  1  0.75060877  0.25013136  0.56414879  1
  Te  Te37  1  0.75067029  0.74951514  0.74998069  1
loop_
_geom_bond_atom_site_label_1
_geom_bond_atom_site_label_2
_geom_bond_distance
_geom_bond_site_symmetry_2
Ce0 Te8 3.280996 1_545
Ce0 Te13 3.283545 1_555
Ce0 Te32 3.319771 1_555
Ce0 Te26 3.323700 1_555
Ce0 Te3 3.335657 1_555
Ce0 Te15 3.336216 1_556
Ce0 Te2 3.347735 1_655
Ce0 Te27 3.413306 1_555
Ce0 Te28 3.413845 1_555
Ce1 Te36 3.274023 1_565
Ce1 Te25 3.315460 1_555
Ce1 Te33 3.320328 1_665
Ce1 Te35 3.321635 1_655
Ce1 Te22 3.325561 1_555
Ce1 Te37 3.338156 1_555
Ce1 Te31 3.340227 1_555
Ce1 Te32 3.412732 1_565
Ce1 Te27 3.427384 1_565
Ce2 Te23 3.274811 1_655
Ce2 Te2 3.312212 1_655
Ce2 Te26 3.321622 1_555
Ce2 Te13 3.324071 1_555
Ce2 Te8 3.334490 1_555
Ce2 Te12 3.336359 1_556
Ce2 Te37 3.337101 1_555
Ce2 Te35 3.416558 1_655
Ce2 Te6 3.427265 1_655
Ce3 Te36 3.275525 1_555
Ce3 Te0 3.315804 1_555
Ce3 Te11 3.317442 1_555
Ce3 Te22 3.322891 1_555
Ce3 Te25 3.329517 1_555
Ce3 Te29 3.334475 1_555
Ce3 Te37 3.339575 1_555
Ce3 Te26 3.415798 1_555
Ce3 Te28 3.430016 1_555
Ce4 Te15 3.275185 1_455
Ce4 Te12 3.314435 1_455
Ce4 Te21 3.316413 1_555
Ce4 Te7 3.322218 1_555
Ce4 Te1 3.330843 1_555
Ce4 Te9 3.335862 1_555
Ce4 Te2 3.338798 1_554
Ce4 Te34 3.415011 1_455
Ce4 Te4 3.430184 1_455
Ce5 Te7 3.251471 1_555
Ce5 Te18 3.259704 1_555
Ce5 Te13 3.270730 1_554
Ce5 Te12 3.277465 1_555
Ce5 Te20 3.281067 1_555
Ce5 Te15 3.283590 1_555
Ce5 Te4 3.287277 1_555
Ce5 Te24 3.333652 1_555
Ce6 Te19 3.256077 1_655
Ce6 Te29 3.263323 1_555
Ce6 Te25 3.266571 1_555
Ce6 Te31 3.275714 1_555
Ce6 Te14 3.280902 1_655
Ce6 Te21 3.283431 1_655
Ce6 Te5 3.290814 1_655
Ce6 Te4 3.330428 1_555
Ce7 Te13 3.250644 1_555
Ce7 Te3 3.256472 1_555
Ce7 Te7 3.269773 1_556
Ce7 Te2 3.277702 1_555
Ce7 Te23 3.279082 1_555
Ce7 Te11 3.285082 1_555
Ce7 Te6 3.286562 1_555
Ce7 Te28 3.331804 1_555
Ce8 Te22 3.248296 1_545
Ce8 Te33 3.259200 1_555
Ce8 Te16 3.269004 1_555
Ce8 Te0 3.275933 1_555
Ce8 Te28 3.283962 1_555
Ce8 Te32 3.284073 1_555
Ce8 Te36 3.287421 1_555
Ce8 Te10 3.339066 1_545
Ce9 Te16 3.255766 1_565
Ce9 Te31 3.256803 1_555
Ce9 Te22 3.267561 1_555
Ce9 Te17 3.282239 1_555
Ce9 Te29 3.282412 1_555
Ce9 Te14 3.284146 1_555
Ce9 Te24 3.291836 1_555
Ce9 Te30 3.331770 1_565
Ce10 Te14 3.277082 1_555
Ce10 Te16 3.311332 1_555
Ce10 Te20 3.319526 1_555
Ce10 Te19 3.320378 1_555
Ce10 Te29 3.321961 1_555
Ce10 Te9 3.338281 1_555
Ce10 Te0 3.340886 1_555
Ce10 Te21 3.413420 1_555
Ce10 Te24 3.429216 1_555
Ce11 Te14 3.279986 1_545
Ce11 Te19 3.312868 1_555
Ce11 Te31 3.316620 1_445
Ce11 Te34 3.317923 1_455
Ce11 Te9 3.332126 1_555
Ce11 Te16 3.332803 1_555
Ce11 Te33 3.340165 1_555
Ce11 Te17 3.411850 1_545
Ce11 Te5 3.429391 1_545
Ce12 Te12 3.256194 1_555
Ce12 Te1 3.259841 1_665
Ce12 Te8 3.266874 1_554
Ce12 Te15 3.276943 1_565
Ce12 Te34 3.284546 1_565
Ce12 Te18 3.285274 1_555
Ce12 Te30 3.292045 1_565
Ce12 Te5 3.327156 1_655
Ce13 Te23 3.275581 1_555
Ce13 Te3 3.319855 1_565
Ce13 Te32 3.321999 1_565
Ce13 Te13 3.325649 1_555
Ce13 Te8 3.327836 1_555
Ce13 Te18 3.339533 1_556
Ce13 Te37 3.345620 1_555
Ce13 Te11 3.416771 1_555
Ce13 Te10 3.424927 1_555
Ce14 Te15 3.277982 1_555
Ce14 Te1 3.315864 1_555
Ce14 Te18 3.319465 1_545
Ce14 Te17 3.322088 1_545
Ce14 Te7 3.326238 1_555
Ce14 Te9 3.334991 1_555
Ce14 Te3 3.343552 1_554
Ce14 Te20 3.408262 1_555
Ce14 Te30 3.426091 1_555
Ce15 Te25 3.278799 1_455
Ce15 Te22 3.287979 1_555
Ce15 Te35 3.324166 1_555
Ce15 Te11 3.325604 1_555
Ce15 Te14 3.328818 1_555
Ce15 Te33 3.336046 1_565
Ce15 Te0 3.341928 1_555
Ce15 Te6 3.410835 1_555
Ce15 Te10 3.412360 1_555
Ce16 Te8 3.250752 1_445
Ce16 Te2 3.251653 1_555
Ce16 Te1 3.268544 1_556
Ce16 Te23 3.283578 1_545
Ce16 Te3 3.284900 1_555
Ce16 Te10 3.286152 1_545
Ce16 Te35 3.286546 1_545
Ce16 Te27 3.333829 1_455
Ce17 Te25 3.255033 1_455
Ce17 Te0 3.255281 1_555
Ce17 Te19 3.264425 1_555
Ce17 Te36 3.278213 1_455
Ce17 Te33 3.284413 1_555
Ce17 Te26 3.286312 1_455
Ce17 Te27 3.289366 1_455
Ce17 Te6 3.331501 1_555
Ce18 Te16 3.279565 1_555
Ce18 Te19 3.285779 1_655
Ce18 Te20 3.325121 1_555
Ce18 Te34 3.326665 1_555
Ce18 Te36 3.328673 1_555
Ce18 Te29 3.336830 1_555
Ce18 Te31 3.345442 1_545
Ce18 Te30 3.408063 1_555
Ce18 Te4 3.410131 1_555
Ce19 Te1 3.275733 1_565
Ce19 Te7 3.285081 1_555
Ce19 Te17 3.323662 1_555
Ce19 Te21 3.326363 1_555
Ce19 Te23 3.330280 1_554
Ce19 Te18 3.339258 1_555
Ce19 Te12 3.345076 1_455
Ce19 Te5 3.409374 1_555
Ce19 Te24 3.410082 1_555
Te10 Te35 2.992465 1_555
Te10 Te32 3.103506 1_565
Te11 Te6 2.996777 1_555
Te11 Te28 3.089272 1_555
Te11 Te37 3.303913 1_555
Te17 Te24 2.990776 1_555
Te17 Te30 3.106491 1_565
Te17 Te9 3.295495 1_565
Te20 Te4 2.997121 1_555
Te20 Te24 3.097264 1_555
Te20 Te9 3.306132 1_555
Te21 Te5 2.993869 1_555
Te21 Te4 3.093912 1_455
Te21 Te9 3.303426 1_555
Te26 Te27 2.989103 1_555
Te26 Te6 3.099149 1_655
Te26 Te37 3.293806 1_555
Te27 Te35 3.101977 1_645
Te28 Te32 2.997217 1_555
Te30 Te34 2.990107 1_555
Te32 Te37 3.305282 1_545
Te34 Te5 3.096883 1_645
Te34 Te9 3.293048 1_655
Te35 Te37 3.293523 1_455
