# generated using pymatgen
data_FeH14C3Br3NO2
_symmetry_space_group_name_H-M   'P 1'
_cell_length_a   7.64393800
_cell_length_b   8.58082000
_cell_length_c   17.46535000
_cell_angle_alpha   90.00000000
_cell_angle_beta   90.00000000
_cell_angle_gamma   90.00000000
_symmetry_Int_Tables_number   1
_chemical_formula_structural   FeH14C3Br3NO2
_chemical_formula_sum   'Fe4 H56 C12 Br12 N4 O8'
_cell_volume   1145.57424419
_cell_formula_units_Z   4
loop_
 _symmetry_equiv_pos_site_id
 _symmetry_equiv_pos_as_xyz
  1  'x, y, z'
loop_
 _atom_site_type_symbol
 _atom_site_label
 _atom_site_symmetry_multiplicity
 _atom_site_fract_x
 _atom_site_fract_y
 _atom_site_fract_z
 _atom_site_occupancy
  Fe  Fe0  1  0.00000000  0.00000000  0.00000000  1
  Fe  Fe1  1  0.00000000  0.50000000  0.50000000  1
  Fe  Fe2  1  0.50000000  0.00000000  0.00000000  1
  Fe  Fe3  1  0.50000000  0.50000000  0.50000000  1
  H  H0  1  0.59329200  0.87612600  0.76664500  1
  H  H1  1  0.60228900  0.79907100  0.51993800  1
  H  H2  1  0.40670800  0.12387400  0.23335500  1
  H  H3  1  0.60228900  0.70092900  0.01993800  1
  H  H4  1  0.25000000  0.25955900  0.63103700  1
  H  H5  1  0.25000000  0.53257900  0.22195100  1
  H  H6  1  0.41458800  0.30980500  0.28091700  1
  H  H7  1  0.09329200  0.12387400  0.23335500  1
  H  H8  1  0.97321500  0.21847700  0.69084700  1
  H  H9  1  0.39771100  0.20092900  0.48006200  1
  H  H10  1  0.75000000  0.46742100  0.77804900  1
  H  H11  1  0.47321500  0.78152300  0.30915300  1
  H  H12  1  0.90670800  0.87612600  0.76664500  1
  H  H13  1  0.43380300  0.69774000  0.96828300  1
  H  H14  1  0.47321500  0.71847700  0.80915300  1
  H  H15  1  0.13231300  0.50055500  0.13408800  1
  H  H16  1  0.75000000  0.75955900  0.86896300  1
  H  H17  1  0.86768700  0.00055500  0.36591200  1
  H  H18  1  0.52678500  0.28152300  0.19084700  1
  H  H19  1  0.13231300  0.99944500  0.63408800  1
  H  H20  1  0.02678500  0.78152300  0.30915300  1
  H  H21  1  0.25000000  0.96742100  0.72195100  1
  H  H22  1  0.97321500  0.28152300  0.19084700  1
  H  H23  1  0.25000000  0.24044100  0.13103700  1
  H  H24  1  0.09329200  0.37612600  0.73335500  1
  H  H25  1  0.10228900  0.29907100  0.98006200  1
  H  H26  1  0.63231300  0.49944500  0.86591200  1
  H  H27  1  0.63231300  0.00055500  0.36591200  1
  H  H28  1  0.41458800  0.19019500  0.78091700  1
  H  H29  1  0.40670800  0.37612600  0.73335500  1
  H  H30  1  0.56619700  0.30226000  0.03171700  1
  H  H31  1  0.90670800  0.62387400  0.26664500  1
  H  H32  1  0.89771100  0.79907100  0.51993800  1
  H  H33  1  0.75000000  0.03257900  0.27804900  1
  H  H34  1  0.91458800  0.80980500  0.21908300  1
  H  H35  1  0.58541200  0.69019500  0.71908300  1
  H  H36  1  0.75000000  0.74044100  0.36896300  1
  H  H37  1  0.06619700  0.69774000  0.96828300  1
  H  H38  1  0.36768700  0.50055500  0.13408800  1
  H  H39  1  0.59329200  0.62387400  0.26664500  1
  H  H40  1  0.08541200  0.19019500  0.78091700  1
  H  H41  1  0.93380300  0.30226000  0.03171700  1
  H  H42  1  0.56619700  0.19774000  0.53171700  1
  H  H43  1  0.52678500  0.21847700  0.69084700  1
  H  H44  1  0.08541200  0.30980500  0.28091700  1
  H  H45  1  0.91458800  0.69019500  0.71908300  1
  H  H46  1  0.06619700  0.80226000  0.46828300  1
  H  H47  1  0.43380300  0.80226000  0.46828300  1
  H  H48  1  0.86768700  0.49944500  0.86591200  1
  H  H49  1  0.10228900  0.20092900  0.48006200  1
  H  H50  1  0.89771100  0.70092900  0.01993800  1
  H  H51  1  0.93380300  0.19774000  0.53171700  1
  H  H52  1  0.39771100  0.29907100  0.98006200  1
  H  H53  1  0.36768700  0.99944500  0.63408800  1
  H  H54  1  0.58541200  0.80980500  0.21908300  1
  H  H55  1  0.02678500  0.71847700  0.80915300  1
  C  C0  1  0.75000000  0.97098300  0.33309000  1
  C  C1  1  0.58802800  0.74958700  0.77482100  1
  C  C2  1  0.25000000  0.02901700  0.66691000  1
  C  C3  1  0.75000000  0.52901700  0.83309000  1
  C  C4  1  0.91197200  0.75041300  0.27482100  1
  C  C5  1  0.91197200  0.74958700  0.77482100  1
  C  C6  1  0.41197200  0.24958700  0.72517900  1
  C  C7  1  0.41197200  0.25041300  0.22517900  1
  C  C8  1  0.08802800  0.24958700  0.72517900  1
  C  C9  1  0.25000000  0.47098300  0.16691000  1
  C  C10  1  0.08802800  0.25041300  0.22517900  1
  C  C11  1  0.58802800  0.75041300  0.27482100  1
  Br  Br0  1  0.75000000  0.50045000  0.60437100  1
  Br  Br1  1  0.75000000  0.07242700  0.89670400  1
  Br  Br2  1  0.25000000  0.00045000  0.89562900  1
  Br  Br3  1  0.75000000  0.49786500  0.08125000  1
  Br  Br4  1  0.75000000  0.99955000  0.10437100  1
  Br  Br5  1  0.25000000  0.50213500  0.91875000  1
  Br  Br6  1  0.25000000  0.92757300  0.10329600  1
  Br  Br7  1  0.25000000  0.57242700  0.60329600  1
  Br  Br8  1  0.75000000  0.42757300  0.39670400  1
  Br  Br9  1  0.75000000  0.00213500  0.58125000  1
  Br  Br10  1  0.25000000  0.99786500  0.41875000  1
  Br  Br11  1  0.25000000  0.49955000  0.39562900  1
  N  N0  1  0.75000000  0.70067500  0.81674100  1
  N  N1  1  0.75000000  0.79932500  0.31674100  1
  N  N2  1  0.25000000  0.20067500  0.68325900  1
  N  N3  1  0.25000000  0.29932500  0.18325900  1
  O  O0  1  0.45965800  0.25990800  0.52095700  1
  O  O1  1  0.54034200  0.75990800  0.97904300  1
  O  O2  1  0.54034200  0.74009200  0.47904300  1
  O  O3  1  0.95965800  0.74009200  0.47904300  1
  O  O4  1  0.95965800  0.75990800  0.97904300  1
  O  O5  1  0.45965800  0.24009200  0.02095700  1
  O  O6  1  0.04034200  0.24009200  0.02095700  1
  O  O7  1  0.04034200  0.25990800  0.52095700  1
loop_
_geom_bond_atom_site_label_1
_geom_bond_atom_site_label_2
_geom_bond_distance
_geom_bond_site_symmetry_2
Fe0 O6 2.115049 1_555
Fe0 O4 2.115049 1_444
Fe1 O7 2.115049 1_555
Fe1 O3 2.115049 1_455
Fe2 O5 2.115049 1_555
Fe2 O1 2.115049 1_544
Fe3 O2 2.115049 1_555
Fe3 O0 2.115049 1_555
H1 O2 0.995235 1_555
H3 O1 0.995235 1_554
H4 N2 1.042680 1_555
H9 O0 0.995235 1_555
H13 O1 0.991513 1_555
H16 N0 1.042680 1_555
H23 N3 1.042680 1_555
H25 O6 0.995235 1_556
H30 O5 0.991513 1_555
H32 O3 0.995235 1_555
H36 N1 1.042680 1_555
H37 O4 0.991513 1_455
H41 O6 0.991513 1_655
H42 O0 0.991513 1_555
H46 O3 0.991513 1_455
H47 O2 0.991513 1_555
H49 O7 0.995235 1_555
H50 O4 0.995235 1_554
H51 O7 0.991513 1_655
H52 O5 0.995235 1_556
C0 H17 1.096480 1_565
C0 H27 1.096480 1_565
C0 H33 1.097031 1_565
C0 N1 1.500388 1_555
C1 H0 1.095897 1_555
C1 H14 1.095915 1_555
C1 H35 1.098997 1_555
C1 N0 1.498364 1_555
C2 H19 1.096480 1_545
C2 H53 1.096480 1_545
C2 H21 1.097031 1_545
C2 N2 1.500388 1_555
C3 H48 1.096480 1_555
C3 H26 1.096480 1_555
C3 H10 1.097031 1_555
C3 N0 1.500388 1_555
C4 H31 1.095897 1_555
C4 H20 1.095915 1_655
C4 H34 1.098997 1_555
C4 N1 1.498364 1_555
C5 H12 1.095897 1_555
C5 H55 1.095915 1_655
C5 H45 1.098997 1_555
C5 N0 1.498364 1_555
C6 H29 1.095897 1_555
C6 H43 1.095915 1_555
C6 H28 1.098997 1_555
C6 N2 1.498364 1_555
C7 H2 1.095897 1_555
C7 H18 1.095915 1_555
C7 H6 1.098997 1_555
C7 N3 1.498364 1_555
C8 H24 1.095897 1_555
C8 H8 1.095915 1_455
C8 H40 1.098997 1_555
C8 N2 1.498364 1_555
C9 H38 1.096480 1_555
C9 H15 1.096480 1_555
C9 H5 1.097031 1_555
C9 N3 1.500388 1_555
C10 H7 1.095897 1_555
C10 H22 1.095915 1_455
C10 H44 1.098997 1_555
C10 N3 1.498364 1_555
C11 H39 1.095897 1_555
C11 H11 1.095915 1_555
C11 H54 1.098997 1_555
C11 N1 1.498364 1_555
Br0 Fe3 2.640976 1_555
Br0 Fe1 2.640976 1_655
Br1 Fe2 2.700534 1_556
Br1 Fe0 2.700534 1_656
Br2 Fe0 2.640976 1_556
Br2 Fe2 2.640976 1_556
Br4 Fe2 2.640976 1_565
Br4 Fe0 2.640976 1_665
Br6 Fe0 2.700534 1_565
Br6 Fe2 2.700534 1_565
Br7 Fe1 2.700534 1_555
Br7 Fe3 2.700534 1_555
Br8 Fe1 2.700534 1_655
Br8 Fe3 2.700534 1_555
Br11 Fe1 2.640976 1_555
Br11 Fe3 2.640976 1_555
