# generated using pymatgen
data_Ti10Cu7S20
_symmetry_space_group_name_H-M   'P 1'
_cell_length_a   6.66552105
_cell_length_b   6.66552105
_cell_length_c   29.64860472
_cell_angle_alpha   81.87447904
_cell_angle_beta   81.87447904
_cell_angle_gamma   29.90586182
_symmetry_Int_Tables_number   1
_chemical_formula_structural   Ti10Cu7S20
_chemical_formula_sum   'Ti10 Cu7 S20'
_cell_volume   649.69010693
_cell_formula_units_Z   1
loop_
 _symmetry_equiv_pos_site_id
 _symmetry_equiv_pos_as_xyz
  1  'x, y, z'
loop_
 _atom_site_type_symbol
 _atom_site_label
 _atom_site_symmetry_multiplicity
 _atom_site_fract_x
 _atom_site_fract_y
 _atom_site_fract_z
 _atom_site_occupancy
  Ti  Ti0  1  0.00290500  0.00290500  0.99899000  1
  Ti  Ti1  1  0.49922300  0.49922300  0.89992000  1
  Ti  Ti2  1  0.00225300  0.00225300  0.80023000  1
  Ti  Ti3  1  0.49775800  0.49775800  0.69957100  1
  Ti  Ti4  1  0.50211600  0.50211600  0.50047700  1
  Ti  Ti5  1  0.99990800  0.99990800  0.60010200  1
  Ti  Ti6  1  0.99779000  0.99779000  0.39964900  1
  Ti  Ti7  1  0.49997900  0.49997900  0.30018800  1
  Ti  Ti8  1  0.00176500  0.00176500  0.20034200  1
  Ti  Ti9  1  0.50156700  0.50156700  0.09998100  1
  Cu  Cu0  1  0.71082700  0.71082700  0.68501700  1
  Cu  Cu1  1  0.78877100  0.78877100  0.81497200  1
  Cu  Cu2  1  0.21075200  0.21075200  0.38505300  1
  Cu  Cu3  1  0.28907700  0.28907700  0.51496500  1
  Cu  Cu4  1  0.78740100  0.78740100  0.21646500  1
  Cu  Cu5  1  0.28604600  0.28604600  0.11411700  1
  Cu  Cu6  1  0.78766700  0.78766700  0.01268200  1
  S  S0  1  0.38265400  0.38265400  0.97328300  1
  S  S1  1  0.88590200  0.88590200  0.87439500  1
  S  S2  1  0.11062300  0.11062300  0.92592000  1
  S  S3  1  0.38363000  0.38363000  0.77328100  1
  S  S4  1  0.61505400  0.61505400  0.82621000  1
  S  S5  1  0.88443300  0.88443300  0.67416600  1
  S  S6  1  0.11608500  0.11608500  0.72670100  1
  S  S7  1  0.38650900  0.38650900  0.57481400  1
  S  S8  1  0.61346600  0.61346600  0.62516800  1
  S  S9  1  0.88365100  0.88365100  0.47326400  1
  S  S10  1  0.11556900  0.11556900  0.52587100  1
  S  S11  1  0.38437100  0.38437100  0.37415500  1
  S  S12  1  0.61629800  0.61629800  0.42672300  1
  S  S13  1  0.88681400  0.88681400  0.27518200  1
  S  S14  1  0.11334100  0.11334100  0.32522000  1
  S  S15  1  0.38234600  0.38234600  0.17485700  1
  S  S16  1  0.61462700  0.61462700  0.22548300  1
  S  S17  1  0.88262700  0.88262700  0.07406900  1
  S  S18  1  0.11358800  0.11358800  0.12587200  1
  S  S19  1  0.61460300  0.61460300  0.02584900  1
loop_
_geom_bond_atom_site_label_1
_geom_bond_atom_site_label_2
_geom_bond_distance
_geom_bond_site_symmetry_2
Cu0 S5 2.211930 1_555
Cu0 S8 2.317786 1_555
Cu0 S6 2.352252 1_565
Cu0 S6 2.352252 1_655
Cu1 S4 2.213345 1_555
Cu1 S1 2.305187 1_555
Cu1 S3 2.353012 1_565
Cu1 S3 2.353012 1_655
Cu2 S11 2.212093 1_555
Cu2 S14 2.317806 1_555
Cu2 S12 2.350429 1_545
Cu2 S12 2.350429 1_455
Cu3 S10 2.210678 1_555
Cu3 S7 2.318383 1_555
Cu3 S9 2.351523 1_545
Cu3 S9 2.351523 1_455
Cu4 S16 2.202091 1_555
Cu4 S13 2.307006 1_555
Cu4 S15 2.352397 1_655
Cu4 S15 2.352397 1_565
Cu5 S18 2.197423 1_555
Cu5 S15 2.331306 1_555
Cu5 S17 2.341582 1_455
Cu5 S17 2.341582 1_545
Cu6 S19 2.205955 1_555
Cu6 S0 2.324015 1_654
Cu6 S0 2.324015 1_564
Cu6 S17 2.336600 1_555
S0 Ti1 2.455546 1_555
S0 Ti0 2.506594 1_655
S0 Ti0 2.506594 1_565
S1 Ti1 2.446242 1_655
S1 Ti1 2.446242 1_565
S1 Ti2 2.473186 1_665
S2 Ti0 2.395570 1_555
S2 Ti1 2.436070 1_455
S2 Ti1 2.436070 1_545
S3 Ti3 2.448823 1_555
S3 Ti2 2.507544 1_565
S3 Ti2 2.507544 1_655
S4 Ti2 2.447334 1_565
S4 Ti2 2.447334 1_655
S4 Ti1 2.459202 1_555
S5 Ti3 2.444866 1_565
S5 Ti3 2.444866 1_655
S5 Ti5 2.465434 1_555
S6 Ti2 2.442715 1_555
S6 Ti3 2.507239 1_455
S6 Ti3 2.507239 1_545
S7 Ti5 2.444109 1_545
S7 Ti5 2.444109 1_455
S7 Ti4 2.472735 1_555
S8 Ti5 2.442838 1_545
S8 Ti5 2.442838 1_455
S8 Ti3 2.474920 1_555
S9 Ti6 2.446624 1_555
S9 Ti4 2.509413 1_565
S9 Ti4 2.509413 1_655
S10 Ti4 2.445796 1_455
S10 Ti4 2.445796 1_545
S10 Ti5 2.470540 1_445
S11 Ti6 2.446688 1_545
S11 Ti6 2.446688 1_455
S11 Ti7 2.463938 1_555
S12 Ti4 2.450199 1_555
S12 Ti6 2.508087 1_455
S12 Ti6 2.508087 1_545
S13 Ti7 2.438889 1_655
S13 Ti7 2.438889 1_565
S13 Ti8 2.480781 1_665
S14 Ti7 2.440820 1_455
S14 Ti7 2.440820 1_545
S14 Ti6 2.474586 1_445
S15 Ti8 2.496917 1_655
S15 Ti8 2.496917 1_565
S15 Ti9 2.507728 1_555
S16 Ti8 2.437955 1_565
S16 Ti8 2.437955 1_655
S16 Ti7 2.475732 1_555
S17 Ti9 2.497851 1_655
S17 Ti9 2.497851 1_565
S17 Ti0 2.519103 1_664
S18 Ti9 2.439861 1_545
S18 Ti9 2.439861 1_455
S18 Ti8 2.453329 1_555
S19 Ti0 2.448870 1_564
S19 Ti0 2.448870 1_654
S19 Ti9 2.452364 1_555
