# generated using pymatgen
data_Sr5La5Cu(NiO5)4
_symmetry_space_group_name_H-M   'P 1'
_cell_length_a   19.32603118
_cell_length_b   8.65338858
_cell_length_c   6.85316372
_cell_angle_alpha   112.30009056
_cell_angle_beta   106.43825167
_cell_angle_gamma   26.52498141
_symmetry_Int_Tables_number   1
_chemical_formula_structural   Sr5La5Cu(NiO5)4
_chemical_formula_sum   'Sr5 La5 Cu1 Ni4 O20'
_cell_volume   469.09759183
_cell_formula_units_Z   1
loop_
 _symmetry_equiv_pos_site_id
 _symmetry_equiv_pos_as_xyz
  1  'x, y, z'
loop_
 _atom_site_type_symbol
 _atom_site_label
 _atom_site_symmetry_multiplicity
 _atom_site_fract_x
 _atom_site_fract_y
 _atom_site_fract_z
 _atom_site_occupancy
  Sr  Sr0  1  0.12934200  0.35766000  0.71818400  1
  Sr  Sr1  1  0.32886700  0.35598400  0.71786400  1
  Sr  Sr2  1  0.52702800  0.36330400  0.71754300  1
  Sr  Sr3  1  0.72762700  0.35878600  0.71841800  1
  Sr  Sr4  1  0.87164000  0.64111100  0.28575100  1
  La  La0  1  0.07284700  0.63576400  0.27432600  1
  La  La1  1  0.27031500  0.64709100  0.27739400  1
  La  La2  1  0.47253500  0.63776900  0.27904800  1
  La  La3  1  0.67150100  0.64416300  0.27765400  1
  La  La4  1  0.92747100  0.36392300  0.72825600  1
  Cu  Cu0  1  0.00021200  0.99694300  0.99267400  1
  Ni  Ni0  1  0.20133200  0.99598400  0.99367700  1
  Ni  Ni1  1  0.40094800  0.99650600  0.99568700  1
  Ni  Ni2  1  0.59939000  0.99920200  0.99293700  1
  Ni  Ni3  1  0.80037400  0.99923400  0.00007100  1
  O  O0  1  0.09926900  0.00092000  0.99959600  1
  O  O1  1  0.99938300  0.50373700  0.00520100  1
  O  O2  1  0.17831100  0.14048600  0.32692300  1
  O  O3  1  0.30269800  0.00191500  0.01009700  1
  O  O4  1  0.03294000  0.83502600  0.65040300  1
  O  O5  1  0.19790500  0.50841700  0.01631700  1
  O  O6  1  0.37261400  0.14732400  0.32477800  1
  O  O7  1  0.49599100  0.00610400  0.00962600  1
  O  O8  1  0.22479700  0.84622600  0.65420400  1
  O  O9  1  0.39936900  0.50360300  0.00334300  1
  O  O10  1  0.55712400  0.17953700  0.32542700  1
  O  O11  1  0.70080200  0.00374900  0.00336400  1
  O  O12  1  0.43479900  0.82934500  0.65992000  1
  O  O13  1  0.60275600  0.49648500  0.01129200  1
  O  O14  1  0.76462600  0.16841600  0.32064200  1
  O  O15  1  0.89610600  0.00902200  0.01732000  1
  O  O16  1  0.64200000  0.81801000  0.65481500  1
  O  O17  1  0.79765600  0.50535800  0.00063500  1
  O  O18  1  0.96573700  0.16933900  0.35159700  1
  O  O19  1  0.83368900  0.83355700  0.68501400  1
loop_
_geom_bond_atom_site_label_1
_geom_bond_atom_site_label_2
_geom_bond_distance
_geom_bond_site_symmetry_2
La0 O4 2.362871 1_555
La0 O5 2.521103 1_555
La0 O15 2.524241 1_465
La0 O3 2.551590 1_555
La0 O1 2.558152 1_455
La0 O18 2.746936 1_465
La0 O14 2.766973 1_465
La0 O6 2.775646 1_555
La0 O2 2.788793 1_555
La1 O8 2.368059 1_555
La1 O5 2.560880 1_555
La1 O9 2.574724 1_555
La1 O7 2.582670 1_555
La1 O0 2.583919 1_564
La1 O10 2.654896 1_555
La1 O2 2.676293 1_565
La1 O18 2.770855 1_465
La1 O6 2.849435 1_555
La2 O12 2.392299 1_555
La2 O3 2.564303 1_565
La2 O13 2.569153 1_555
La2 O11 2.582790 1_555
La2 O9 2.584217 1_555
La2 O2 2.659438 1_565
La2 O6 2.706756 1_565
La2 O14 2.717194 1_555
La2 O10 2.749413 1_555
La3 O16 2.370090 1_555
La3 O15 2.545926 1_555
La3 O7 2.553011 1_565
La3 O13 2.574020 1_555
La3 O17 2.576765 1_555
La3 O10 2.718325 1_565
La3 O6 2.722203 1_565
La3 O18 2.759268 1_555
La3 O14 2.763300 1_555
La4 O18 2.366174 1_555
La4 O0 2.573755 1_655
La4 O17 2.588142 1_556
La4 O11 2.597940 1_566
La4 O1 2.602082 1_556
La4 O8 2.684260 1_645
La4 O16 2.695741 1_555
La4 O19 2.705114 1_555
La4 O4 2.730316 1_645
Cu0 O0 1.932237 1_565
Cu0 O5 1.939427 1_556
Cu0 O17 1.949996 1_466
Cu0 O15 1.972315 1_466
Cu0 O4 2.150545 1_555
Cu0 O18 2.254745 1_466
Ni0 O9 1.922497 1_556
Ni0 O1 1.941242 1_466
Ni0 O0 1.946104 1_565
Ni0 O3 1.975793 1_566
Ni0 O2 2.095111 1_566
Ni0 O8 2.134219 1_555
Ni1 O7 1.886145 1_566
Ni1 O3 1.887034 1_566
Ni1 O5 1.942634 1_566
Ni1 O13 1.965013 1_556
Ni1 O6 2.067819 1_566
Ni1 O12 2.108980 1_555
Ni2 O17 1.923995 1_556
Ni2 O9 1.930301 1_566
Ni2 O11 1.975963 1_566
Ni2 O7 1.980003 1_566
Ni2 O10 2.090050 1_566
Ni2 O16 2.125586 1_555
Ni3 O15 1.895556 1_565
Ni3 O11 1.895905 1_565
Ni3 O13 1.901213 1_565
Ni3 O1 1.925057 1_555
Ni3 O19 1.979288 1_554
Ni3 O14 2.013766 1_565
O0 Sr4 2.629670 1_456
O0 Sr1 2.630625 1_545
O1 Sr4 2.627682 1_555
O1 Sr0 2.646267 1_654
O2 Sr0 2.458956 1_555
O2 Sr4 2.829987 1_455
O3 Sr2 2.644294 1_544
O3 Sr0 2.669772 1_554
O4 Sr1 2.763944 1_555
O4 Sr3 2.769914 1_465
O4 Sr0 2.818712 1_555
O5 Sr0 2.677755 1_554
O5 Sr1 2.690230 1_554
O6 Sr1 2.469382 1_555
O7 Sr1 2.652691 1_554
O7 Sr3 2.664505 1_544
O8 Sr0 2.749002 1_565
O8 Sr1 2.805684 1_555
O8 Sr2 2.833892 1_555
O9 Sr2 2.639557 1_554
O9 Sr1 2.650493 1_554
O10 Sr2 2.464694 1_555
O10 Sr4 2.832636 1_545
O11 Sr4 2.635464 1_545
O11 Sr2 2.645693 1_554
O12 Sr3 2.736092 1_555
O12 Sr1 2.740154 1_565
O12 Sr2 2.746602 1_555
O12 Sr0 2.750038 1_565
O13 Sr3 2.655700 1_554
O13 Sr2 2.666975 1_554
O14 Sr3 2.498699 1_555
O14 Sr4 2.778457 1_545
O15 Sr3 2.693259 1_554
O15 Sr0 2.699328 1_644
O16 Sr2 2.761637 1_565
O16 Sr3 2.803303 1_555
O16 Sr1 2.832058 1_565
O17 Sr3 2.628617 1_554
O17 Sr4 2.631499 1_555
O18 Sr4 2.797398 1_555
O19 Sr4 2.508003 1_555
O19 Sr0 2.743496 1_655
O19 Sr2 2.746528 1_565
O19 Sr3 2.777749 1_565
