# generated using pymatgen
data_Zr3Cd2
_symmetry_space_group_name_H-M   'P 1'
_cell_length_a   5.60626900
_cell_length_b   5.60626900
_cell_length_c   5.23551600
_cell_angle_alpha   90.00000000
_cell_angle_beta   90.00000000
_cell_angle_gamma   90.00000000
_symmetry_Int_Tables_number   1
_chemical_formula_structural   Zr3Cd2
_chemical_formula_sum   'Zr3 Cd2'
_cell_volume   164.55358776
_cell_formula_units_Z   1
loop_
 _symmetry_equiv_pos_site_id
 _symmetry_equiv_pos_as_xyz
  1  'x, y, z'
loop_
 _atom_site_type_symbol
 _atom_site_label
 _atom_site_symmetry_multiplicity
 _atom_site_fract_x
 _atom_site_fract_y
 _atom_site_fract_z
 _atom_site_occupancy
  Zr  Zr0  1  0.50000000  0.50000000  0.00000000  1
  Zr  Zr1  1  0.00000000  0.50000000  0.00000000  1
  Zr  Zr2  1  0.50000000  0.00000000  0.00000000  1
  Cd  Cd0  1  0.00000000  0.00000000  0.00000000  1
  Cd  Cd1  1  0.00000000  0.00000000  0.50000000  1
loop_
_geom_bond_atom_site_label_1
_geom_bond_atom_site_label_2
_geom_bond_distance
_geom_bond_site_symmetry_2
Zr0 Zr2 2.803135 1_565
Zr0 Zr2 2.803135 1_555
Zr0 Zr1 2.803135 1_555
Zr0 Zr1 2.803135 1_655
Cd0 Cd1 2.617758 1_555
Cd0 Cd1 2.617758 1_554
Cd0 Zr2 2.803135 1_555
Cd0 Zr1 2.803135 1_555
Cd0 Zr1 2.803135 1_545
Cd0 Zr2 2.803135 1_455
