# generated using pymatgen
data_Ta5AuS
_symmetry_space_group_name_H-M   'P 1'
_cell_length_a   8.87955769
_cell_length_b   8.87954232
_cell_length_c   8.87949111
_cell_angle_alpha   59.99965225
_cell_angle_beta   59.99966015
_cell_angle_gamma   59.99963800
_symmetry_Int_Tables_number   1
_chemical_formula_structural   Ta5AuS
_chemical_formula_sum   'Ta20 Au4 S4'
_cell_volume   495.05283141
_cell_formula_units_Z   4
loop_
 _symmetry_equiv_pos_site_id
 _symmetry_equiv_pos_as_xyz
  1  'x, y, z'
loop_
 _atom_site_type_symbol
 _atom_site_label
 _atom_site_symmetry_multiplicity
 _atom_site_fract_x
 _atom_site_fract_y
 _atom_site_fract_z
 _atom_site_occupancy
  Ta  Ta0  1  0.69705978  0.30294449  0.30294545  1
  Ta  Ta1  1  0.47297754  0.02703725  0.02702289  1
  Ta  Ta2  1  0.66828625  0.66828101  0.99515381  1
  Ta  Ta3  1  0.69705877  0.69705330  0.30294700  1
  Ta  Ta4  1  0.88280778  0.88280995  0.35156859  1
  Ta  Ta5  1  0.47295728  0.02703854  0.47296068  1
  Ta  Ta6  1  0.30294333  0.69705530  0.30294981  1
  Ta  Ta7  1  0.66828104  0.99515539  0.66828608  1
  Ta  Ta8  1  0.47297022  0.47296650  0.02702372  1
  Ta  Ta9  1  0.35156678  0.88281182  0.88280751  1
  Ta  Ta10  1  0.99515163  0.66827887  0.66828926  1
  Ta  Ta11  1  0.88281084  0.35156730  0.88280785  1
  Ta  Ta12  1  0.66828304  0.66827721  0.66828225  1
  Ta  Ta13  1  0.30294284  0.69705284  0.69706275  1
  Ta  Ta14  1  0.02703453  0.47295628  0.47296620  1
  Ta  Ta15  1  0.02703206  0.47297346  0.02702648  1
  Ta  Ta16  1  0.30294128  0.30294614  0.69706294  1
  Ta  Ta17  1  0.69705612  0.30294439  0.69706079  1
  Ta  Ta18  1  0.88281079  0.88281234  0.88280997  1
  Ta  Ta19  1  0.02703091  0.02703476  0.47297806  1
  Au  Au0  1  0.10099772  0.10100544  0.10099472  1
  Au  Au1  1  0.69700712  0.10100077  0.10098978  1
  Au  Au2  1  0.10099180  0.10099818  0.69700897  1
  Au  Au3  1  0.10099757  0.69700326  0.10099359  1
  S  S0  1  0.36910801  0.36910694  0.89267736  1
  S  S1  1  0.36910938  0.89267187  0.36910933  1
  S  S2  1  0.36911162  0.36911005  0.36910776  1
  S  S3  1  0.89267396  0.36910734  0.36910941  1
loop_
_geom_bond_atom_site_label_1
_geom_bond_atom_site_label_2
_geom_bond_distance
_geom_bond_site_symmetry_2
Ta0 Ta2 3.010275 1_554
Ta0 Ta7 3.010282 1_545
Ta1 Ta7 2.849741 1_544
Ta1 Ta2 2.849864 1_544
Ta2 Ta9 2.842706 1_555
Ta2 Ta8 2.849919 1_556
Ta2 Ta7 2.902442 1_555
Ta2 Ta3 3.010297 1_556
Ta2 Ta6 3.010327 1_556
Ta4 Ta7 2.842673 1_555
Ta5 Ta7 2.849992 1_545
Ta7 Ta9 2.842659 1_555
Ta10 Ta11 2.842623 1_555
Ta10 Ta18 2.842633 1_555
Ta10 Ta4 2.842690 1_555
Ta10 Ta15 2.849740 1_656
Ta10 Ta19 2.849895 1_665
Ta10 Ta14 2.849963 1_655
Ta10 Ta2 2.902391 1_555
Ta10 Ta7 2.902474 1_555
Ta10 Ta12 2.902487 1_555
Ta10 Ta16 3.010256 1_655
Ta10 Ta6 3.010288 1_655
Ta10 Ta13 3.010313 1_655
Ta11 Ta12 2.842613 1_555
Ta11 Ta2 2.842658 1_555
Ta12 Ta4 2.842643 1_555
Ta12 Ta9 2.842660 1_555
Ta12 Ta8 2.849780 1_556
Ta12 Ta14 2.849874 1_655
Ta12 Ta5 2.849949 1_565
Ta12 Ta2 2.902484 1_555
Ta12 Ta7 2.902537 1_555
Ta12 Ta17 3.010237 1_555
Ta12 Ta3 3.010239 1_555
Ta12 Ta13 3.010292 1_555
Ta15 Ta2 2.849801 1_454
Ta16 Ta7 3.010297 1_545
Ta17 Ta7 3.010301 1_545
Ta18 Ta7 2.842626 1_555
Ta18 Ta2 2.842652 1_555
Ta19 Ta7 2.849854 1_445
Au0 Ta11 2.754922 1_454
Au0 Ta9 2.754968 1_544
Au0 Ta4 2.755007 1_445
Au0 Ta15 2.804395 1_555
Au0 Ta1 2.804486 1_555
Au0 Ta19 2.804497 1_555
Au0 Ta16 3.106050 1_554
Au0 Ta0 3.106107 1_455
Au0 Ta6 3.106194 1_545
Au1 Ta18 2.754893 1_544
Au1 Ta11 2.754916 1_554
Au1 Ta4 2.754970 1_545
Au1 Ta1 2.804348 1_555
Au1 Ta8 2.804379 1_555
Au1 Ta5 2.804427 1_555
Au1 Ta17 3.106023 1_554
Au1 Ta3 3.106176 1_545
Au1 Ta0 3.106216 1_555
Au2 Ta11 2.754896 1_455
Au2 Ta18 2.754899 1_445
Au2 Ta9 2.754936 1_545
Au2 Ta19 2.804310 1_555
Au2 Ta14 2.804341 1_555
Au2 Ta5 2.804403 1_555
Au2 Ta17 3.106090 1_455
Au2 Ta13 3.106154 1_545
Au2 Ta16 3.106220 1_555
Au3 Ta18 2.754905 1_454
Au3 Ta9 2.754963 1_554
Au3 Ta4 2.754978 1_455
Au3 Ta15 2.804361 1_555
Au3 Ta8 2.804426 1_555
Au3 Ta14 2.804430 1_555
Au3 Ta13 3.106036 1_554
Au3 Ta3 3.106119 1_455
Au3 Ta6 3.106235 1_555
S0 Ta16 2.468495 1_555
S0 Ta13 2.468509 1_555
S0 Ta17 2.468531 1_555
S0 Ta1 2.484952 1_556
S0 Ta8 2.484955 1_556
S0 Ta15 2.485002 1_556
S1 Ta6 2.468508 1_555
S1 Ta3 2.468545 1_555
S1 Ta13 2.468556 1_555
S1 Ta5 2.484951 1_565
S1 Ta19 2.485027 1_565
S1 Ta1 2.485067 1_565
S2 Ta6 2.468523 1_555
S2 Ta0 2.468549 1_555
S2 Ta16 2.468573 1_555
S2 Ta5 2.484980 1_555
S2 Ta14 2.485024 1_555
S2 Ta8 2.485052 1_555
S3 Ta0 2.468497 1_555
S3 Ta3 2.468513 1_555
S3 Ta17 2.468542 1_555
S3 Ta14 2.484951 1_655
S3 Ta19 2.484978 1_655
S3 Ta15 2.485039 1_655
