# generated using pymatgen
data_Ce3Ge5Pd14
_symmetry_space_group_name_H-M   'P 1'
_cell_length_a   9.13331600
_cell_length_b   9.12829200
_cell_length_c   18.37447500
_cell_angle_alpha   90.00000000
_cell_angle_beta   90.00000000
_cell_angle_gamma   90.00000000
_symmetry_Int_Tables_number   1
_chemical_formula_structural   Ce3Ge5Pd14
_chemical_formula_sum   'Ce12 Ge20 Pd56'
_cell_volume   1531.90892746
_cell_formula_units_Z   4
loop_
 _symmetry_equiv_pos_site_id
 _symmetry_equiv_pos_as_xyz
  1  'x, y, z'
loop_
 _atom_site_type_symbol
 _atom_site_label
 _atom_site_symmetry_multiplicity
 _atom_site_fract_x
 _atom_site_fract_y
 _atom_site_fract_z
 _atom_site_occupancy
  Ce  Ce0  1  0.62614900  0.75000000  0.29628100  1
  Ce  Ce1  1  0.37385100  0.25000000  0.70371900  1
  Ce  Ce2  1  0.87385100  0.25000000  0.79628100  1
  Ce  Ce3  1  0.11862400  0.25000000  0.02958100  1
  Ce  Ce4  1  0.62801900  0.25000000  0.04278400  1
  Ce  Ce5  1  0.38137600  0.75000000  0.52958100  1
  Ce  Ce6  1  0.12614900  0.75000000  0.20371900  1
  Ce  Ce7  1  0.88137600  0.75000000  0.97041900  1
  Ce  Ce8  1  0.87198100  0.75000000  0.54278400  1
  Ce  Ce9  1  0.12801900  0.25000000  0.45721600  1
  Ce  Ce10  1  0.37198100  0.75000000  0.95721600  1
  Ce  Ce11  1  0.61862400  0.25000000  0.47041900  1
  Ge  Ge0  1  0.86808600  0.99215500  0.39685400  1
  Ge  Ge1  1  0.63191400  0.00784500  0.89685400  1
  Ge  Ge2  1  0.37597500  0.75000000  0.76453300  1
  Ge  Ge3  1  0.88714900  0.50161900  0.10329300  1
  Ge  Ge4  1  0.61285100  0.49838100  0.60329300  1
  Ge  Ge5  1  0.11285100  0.49838100  0.89670700  1
  Ge  Ge6  1  0.63191400  0.49215500  0.89685400  1
  Ge  Ge7  1  0.62402500  0.25000000  0.23546700  1
  Ge  Ge8  1  0.88714900  0.99838100  0.10329300  1
  Ge  Ge9  1  0.36808600  0.99215500  0.10314600  1
  Ge  Ge10  1  0.86808600  0.50784500  0.39685400  1
  Ge  Ge11  1  0.87597500  0.75000000  0.73546700  1
  Ge  Ge12  1  0.11285100  0.00161900  0.89670700  1
  Ge  Ge13  1  0.61285100  0.00161900  0.60329300  1
  Ge  Ge14  1  0.38714900  0.99838100  0.39670700  1
  Ge  Ge15  1  0.36808600  0.50784500  0.10314600  1
  Ge  Ge16  1  0.38714900  0.50161900  0.39670700  1
  Ge  Ge17  1  0.13191400  0.00784500  0.60314600  1
  Ge  Ge18  1  0.12402500  0.25000000  0.26453300  1
  Ge  Ge19  1  0.13191400  0.49215500  0.60314600  1
  Pd  Pd0  1  0.12780000  0.91902900  0.03244500  1
  Pd  Pd1  1  0.12845200  0.06867000  0.16673200  1
  Pd  Pd2  1  0.21481800  0.25000000  0.85796800  1
  Pd  Pd3  1  0.37220000  0.08097100  0.53244500  1
  Pd  Pd4  1  0.12780000  0.58097100  0.03244500  1
  Pd  Pd5  1  0.12109900  0.58912500  0.47306300  1
  Pd  Pd6  1  0.37220000  0.41902900  0.53244500  1
  Pd  Pd7  1  0.87154800  0.93133000  0.83326800  1
  Pd  Pd8  1  0.71481800  0.25000000  0.64203200  1
  Pd  Pd9  1  0.62780000  0.91902900  0.46755500  1
  Pd  Pd10  1  0.37619700  0.96111800  0.24988400  1
  Pd  Pd11  1  0.12380300  0.03888200  0.74988400  1
  Pd  Pd12  1  0.62380300  0.46111800  0.75011600  1
  Pd  Pd13  1  0.46907000  0.75000000  0.14177500  1
  Pd  Pd14  1  0.62845200  0.06867000  0.33326800  1
  Pd  Pd15  1  0.87890100  0.41087500  0.52693700  1
  Pd  Pd16  1  0.12888500  0.48174900  0.33183300  1
  Pd  Pd17  1  0.37890100  0.41087500  0.97306300  1
  Pd  Pd18  1  0.62888500  0.01825100  0.16816700  1
  Pd  Pd19  1  0.61331300  0.75000000  0.83609800  1
  Pd  Pd20  1  0.37111500  0.98174900  0.83183300  1
  Pd  Pd21  1  0.38668700  0.25000000  0.16390200  1
  Pd  Pd22  1  0.62780000  0.58097100  0.46755500  1
  Pd  Pd23  1  0.37154800  0.93133000  0.66673200  1
  Pd  Pd24  1  0.96907000  0.75000000  0.35822500  1
  Pd  Pd25  1  0.62888500  0.48174900  0.16816700  1
  Pd  Pd26  1  0.37111500  0.51825100  0.83183300  1
  Pd  Pd27  1  0.87220000  0.08097100  0.96755500  1
  Pd  Pd28  1  0.28518200  0.75000000  0.35796800  1
  Pd  Pd29  1  0.87619700  0.53888200  0.25011600  1
  Pd  Pd30  1  0.13420500  0.75000000  0.82832500  1
  Pd  Pd31  1  0.62845200  0.43133000  0.33326800  1
  Pd  Pd32  1  0.86579500  0.25000000  0.17167500  1
  Pd  Pd33  1  0.87890100  0.08912500  0.52693700  1
  Pd  Pd34  1  0.03093000  0.25000000  0.64177500  1
  Pd  Pd35  1  0.78518200  0.75000000  0.14203200  1
  Pd  Pd36  1  0.87154800  0.56867000  0.83326800  1
  Pd  Pd37  1  0.87111500  0.98174900  0.66816700  1
  Pd  Pd38  1  0.37890100  0.08912500  0.97306300  1
  Pd  Pd39  1  0.12888500  0.01825100  0.33183300  1
  Pd  Pd40  1  0.87220000  0.41902900  0.96755500  1
  Pd  Pd41  1  0.37619700  0.53888200  0.24988400  1
  Pd  Pd42  1  0.12109900  0.91087500  0.47306300  1
  Pd  Pd43  1  0.62109900  0.91087500  0.02693700  1
  Pd  Pd44  1  0.87111500  0.51825100  0.66816700  1
  Pd  Pd45  1  0.11331300  0.75000000  0.66390200  1
  Pd  Pd46  1  0.12845200  0.43133000  0.16673200  1
  Pd  Pd47  1  0.36579500  0.25000000  0.32832500  1
  Pd  Pd48  1  0.62380300  0.03888200  0.75011600  1
  Pd  Pd49  1  0.53093000  0.25000000  0.85822500  1
  Pd  Pd50  1  0.88668700  0.25000000  0.33609800  1
  Pd  Pd51  1  0.37154800  0.56867000  0.66673200  1
  Pd  Pd52  1  0.12380300  0.46111800  0.74988400  1
  Pd  Pd53  1  0.63420500  0.75000000  0.67167500  1
  Pd  Pd54  1  0.87619700  0.96111800  0.25011600  1
  Pd  Pd55  1  0.62109900  0.58912500  0.02693700  1
loop_
_geom_bond_atom_site_label_1
_geom_bond_atom_site_label_2
_geom_bond_distance
_geom_bond_site_symmetry_2
Ce0 Pd14 2.987322 1_565
Ce0 Pd31 2.987322 1_555
Ce0 Pd54 3.106289 1_555
Ce0 Pd29 3.106289 1_555
Ce0 Pd10 3.106811 1_555
Ce0 Pd41 3.106811 1_555
Ce0 Pd13 3.180874 1_555
Ce0 Pd35 3.184760 1_555
Ce0 Pd28 3.314021 1_555
Ce0 Pd24 3.332407 1_555
Ce0 Pd18 3.396774 1_565
Ce0 Pd25 3.396774 1_555
Ce0 Pd9 3.504991 1_555
Ce0 Pd22 3.504991 1_555
Ce1 Pd51 2.987322 1_555
Ce1 Pd23 2.987322 1_545
Ce1 Pd52 3.106289 1_555
Ce1 Pd11 3.106289 1_555
Ce1 Pd48 3.106811 1_555
Ce1 Pd12 3.106811 1_555
Ce1 Pd49 3.180874 1_555
Ce1 Pd2 3.184760 1_555
Ce1 Pd8 3.314021 1_555
Ce1 Pd34 3.332407 1_555
Ce1 Pd20 3.396774 1_545
Ce1 Pd26 3.396774 1_555
Ce1 Pd6 3.504991 1_555
Ce1 Pd3 3.504991 1_555
Ce2 Pd36 2.987322 1_555
Ce2 Pd7 2.987322 1_545
Ce2 Pd48 3.106289 1_555
Ce2 Pd12 3.106289 1_555
Ce2 Pd52 3.106811 1_655
Ce2 Pd11 3.106811 1_655
Ce2 Pd34 3.180874 1_655
Ce2 Pd8 3.184760 1_555
Ce2 Pd2 3.314021 1_655
Ce2 Pd49 3.332407 1_555
Ce2 Pd44 3.396774 1_555
Ce2 Pd37 3.396774 1_545
Ce2 Pd27 3.504991 1_555
Ce2 Pd40 3.504991 1_555
Ce3 Pd40 2.957211 1_454
Ce3 Pd27 2.957211 1_454
Ce3 Pd17 2.980945 1_554
Ce3 Pd38 2.980945 1_554
Ce3 Pd1 3.016396 1_555
Ce3 Pd46 3.016396 1_555
Ce3 Pd4 3.022820 1_555
Ce3 Pd0 3.022820 1_545
Ce3 Pd2 3.273405 1_554
Ce3 Pd32 3.485551 1_455
Ce4 Pd17 2.995761 1_554
Ce4 Pd38 2.995761 1_554
Ce4 Pd27 3.043868 1_554
Ce4 Pd40 3.043868 1_554
Ce4 Pd43 3.109939 1_545
Ce4 Pd55 3.109939 1_555
Ce4 Pd25 3.127778 1_555
Ce4 Pd18 3.127778 1_555
Ce4 Pd21 3.132266 1_555
Ce4 Pd32 3.213265 1_555
Ce4 Pd49 3.505194 1_554
Ce5 Pd22 2.957211 1_555
Ce5 Pd9 2.957211 1_555
Ce5 Pd42 2.980945 1_555
Ce5 Pd5 2.980945 1_555
Ce5 Pd51 3.016396 1_555
Ce5 Pd23 3.016396 1_555
Ce5 Pd3 3.022820 1_565
Ce5 Pd6 3.022820 1_555
Ce5 Pd28 3.273405 1_555
Ce5 Pd53 3.485551 1_555
Ce6 Pd1 2.987322 1_565
Ce6 Pd46 2.987322 1_555
Ce6 Pd10 3.106289 1_555
Ce6 Pd41 3.106289 1_555
Ce6 Pd29 3.106811 1_455
Ce6 Pd54 3.106811 1_455
Ce6 Pd24 3.180874 1_455
Ce6 Pd28 3.184760 1_555
Ce6 Pd35 3.314021 1_455
Ce6 Pd13 3.332407 1_555
Ce6 Pd39 3.396774 1_565
Ce6 Pd16 3.396774 1_555
Ce6 Pd0 3.504991 1_555
Ce6 Pd4 3.504991 1_555
Ce7 Pd0 2.957211 1_656
Ce7 Pd4 2.957211 1_656
Ce7 Pd43 2.980945 1_556
Ce7 Pd55 2.980945 1_556
Ce7 Pd36 3.016396 1_555
Ce7 Pd7 3.016396 1_555
Ce7 Pd27 3.022820 1_565
Ce7 Pd40 3.022820 1_555
Ce7 Pd35 3.273405 1_556
Ce7 Pd30 3.485551 1_655
Ce8 Pd42 2.995761 1_655
Ce8 Pd5 2.995761 1_655
Ce8 Pd9 3.043868 1_555
Ce8 Pd22 3.043868 1_555
Ce8 Pd33 3.109939 1_565
Ce8 Pd15 3.109939 1_555
Ce8 Pd37 3.127778 1_555
Ce8 Pd44 3.127778 1_555
Ce8 Pd45 3.132266 1_655
Ce8 Pd53 3.213265 1_555
Ce8 Pd24 3.505194 1_555
Ce9 Pd33 2.995761 1_455
Ce9 Pd15 2.995761 1_455
Ce9 Pd6 3.043868 1_555
Ce9 Pd3 3.043868 1_555
Ce9 Pd42 3.109939 1_545
Ce9 Pd5 3.109939 1_555
Ce9 Pd16 3.127778 1_555
Ce9 Pd39 3.127778 1_555
Ce9 Pd50 3.132266 1_455
Ce9 Pd47 3.213265 1_555
Ce9 Pd34 3.505194 1_555
Ce10 Pd43 2.995761 1_556
Ce10 Pd55 2.995761 1_556
Ce10 Pd0 3.043868 1_556
Ce10 Pd4 3.043868 1_556
Ce10 Pd38 3.109939 1_565
Ce10 Pd17 3.109939 1_555
Ce10 Pd26 3.127778 1_555
Ce10 Pd20 3.127778 1_555
Ce10 Pd19 3.132266 1_555
Ce10 Pd30 3.213265 1_555
Ce10 Pd13 3.505194 1_556
Ce11 Pd6 2.957211 1_555
Ce11 Pd3 2.957211 1_555
Ce11 Pd33 2.980945 1_555
Ce11 Pd15 2.980945 1_555
Ce11 Pd31 3.016396 1_555
Ce11 Pd14 3.016396 1_555
Ce11 Pd22 3.022820 1_555
Ce11 Pd9 3.022820 1_545
Ce11 Pd8 3.273405 1_555
Ce11 Pd47 3.485551 1_555
Ge0 Pd24 2.498121 1_555
Ge0 Pd33 2.550759 1_565
Ge0 Pd14 2.577421 1_565
Ge0 Pd50 2.610546 1_565
Ge0 Pd9 2.636195 1_555
Ge0 Pd39 2.675416 1_665
Ge0 Pd54 2.712090 1_555
Ge0 Pd42 2.802025 1_655
Ge1 Pd49 2.498121 1_555
Ge1 Pd43 2.550759 1_546
Ge1 Pd7 2.577421 1_545
Ge1 Pd19 2.610546 1_545
Ge1 Pd27 2.636195 1_555
Ge1 Pd20 2.675416 1_545
Ge1 Pd48 2.712090 1_555
Ge1 Pd38 2.802025 1_555
Ge2 Pd23 2.443520 1_555
Ge2 Pd51 2.443520 1_555
Ge2 Pd26 2.450792 1_555
Ge2 Pd20 2.450792 1_555
Ge2 Pd30 2.499980 1_555
Ge2 Pd19 2.535349 1_555
Ge2 Pd53 2.910959 1_555
Ge3 Pd35 2.552373 1_555
Ge3 Pd46 2.574411 1_655
Ge3 Pd40 2.609142 1_554
Ge3 Pd32 2.625322 1_555
Ge3 Pd25 2.649112 1_555
Ge3 Pd4 2.655240 1_655
Ge3 Pd29 2.720994 1_555
Ge3 Pd55 2.917356 1_555
Ge4 Pd8 2.552373 1_555
Ge4 Pd51 2.574411 1_555
Ge4 Pd22 2.609142 1_555
Ge4 Pd53 2.625322 1_555
Ge4 Pd44 2.649112 1_555
Ge4 Pd6 2.655240 1_555
Ge4 Pd12 2.720994 1_555
Ge4 Pd15 2.917356 1_555
Ge5 Pd2 2.552373 1_555
Ge5 Pd36 2.574411 1_455
Ge5 Pd4 2.609142 1_556
Ge5 Pd30 2.625322 1_555
Ge5 Pd26 2.649112 1_555
Ge5 Pd40 2.655240 1_455
Ge5 Pd52 2.720994 1_555
Ge5 Pd17 2.917356 1_555
Ge6 Pd49 2.498121 1_555
Ge6 Pd55 2.550759 1_556
Ge6 Pd36 2.577421 1_555
Ge6 Pd19 2.610546 1_555
Ge6 Pd40 2.636195 1_555
Ge6 Pd26 2.675416 1_555
Ge6 Pd12 2.712090 1_555
Ge6 Pd17 2.802025 1_555
Ge7 Pd31 2.443520 1_555
Ge7 Pd14 2.443520 1_555
Ge7 Pd25 2.450792 1_555
Ge7 Pd18 2.450792 1_555
Ge7 Pd32 2.499980 1_555
Ge7 Pd21 2.535349 1_555
Ge7 Pd47 2.910959 1_555
Ge8 Pd35 2.552373 1_555
Ge8 Pd1 2.574411 1_665
Ge8 Pd27 2.609142 1_564
Ge8 Pd32 2.625322 1_565
Ge8 Pd18 2.649112 1_565
Ge8 Pd0 2.655240 1_655
Ge8 Pd54 2.720994 1_555
Ge8 Pd43 2.917356 1_555
Ge9 Pd13 2.498121 1_555
Ge9 Pd38 2.550759 1_564
Ge9 Pd1 2.577421 1_565
Ge9 Pd21 2.610546 1_565
Ge9 Pd0 2.636195 1_555
Ge9 Pd18 2.675416 1_565
Ge9 Pd10 2.712090 1_555
Ge9 Pd43 2.802025 1_555
Ge10 Pd24 2.498121 1_555
Ge10 Pd15 2.550759 1_555
Ge10 Pd31 2.577421 1_555
Ge10 Pd50 2.610546 1_555
Ge10 Pd22 2.636195 1_555
Ge10 Pd16 2.675416 1_655
Ge10 Pd29 2.712090 1_555
Ge10 Pd5 2.802025 1_655
Ge11 Pd7 2.443520 1_555
Ge11 Pd36 2.443520 1_555
Ge11 Pd37 2.450792 1_555
Ge11 Pd44 2.450792 1_555
Ge11 Pd53 2.499980 1_555
Ge11 Pd45 2.535349 1_655
Ge11 Pd30 2.910959 1_655
Ge12 Pd2 2.552373 1_555
Ge12 Pd7 2.574411 1_445
Ge12 Pd0 2.609142 1_546
Ge12 Pd30 2.625322 1_545
Ge12 Pd20 2.649112 1_545
Ge12 Pd27 2.655240 1_455
Ge12 Pd11 2.720994 1_555
Ge12 Pd38 2.917356 1_555
Ge13 Pd8 2.552373 1_555
Ge13 Pd23 2.574411 1_545
Ge13 Pd9 2.609142 1_545
Ge13 Pd53 2.625322 1_545
Ge13 Pd37 2.649112 1_545
Ge13 Pd3 2.655240 1_555
Ge13 Pd48 2.720994 1_555
Ge13 Pd33 2.917356 1_555
Ge14 Pd28 2.552373 1_555
Ge14 Pd14 2.574411 1_565
Ge14 Pd3 2.609142 1_565
Ge14 Pd47 2.625322 1_565
Ge14 Pd39 2.649112 1_565
Ge14 Pd9 2.655240 1_555
Ge14 Pd10 2.720994 1_555
Ge14 Pd42 2.917356 1_555
Ge15 Pd13 2.498121 1_555
Ge15 Pd17 2.550759 1_554
Ge15 Pd46 2.577421 1_555
Ge15 Pd21 2.610546 1_555
Ge15 Pd4 2.636195 1_555
Ge15 Pd25 2.675416 1_555
Ge15 Pd41 2.712090 1_555
Ge15 Pd55 2.802025 1_555
Ge16 Pd28 2.552373 1_555
Ge16 Pd31 2.574411 1_555
Ge16 Pd6 2.609142 1_555
Ge16 Pd47 2.625322 1_555
Ge16 Pd16 2.649112 1_555
Ge16 Pd22 2.655240 1_555
Ge16 Pd41 2.720994 1_555
Ge16 Pd5 2.917356 1_555
Ge17 Pd34 2.498121 1_555
Ge17 Pd42 2.550759 1_545
Ge17 Pd23 2.577421 1_545
Ge17 Pd45 2.610546 1_545
Ge17 Pd3 2.636195 1_555
Ge17 Pd37 2.675416 1_445
Ge17 Pd11 2.712090 1_555
Ge17 Pd33 2.802025 1_455
Ge18 Pd46 2.443520 1_555
Ge18 Pd1 2.443520 1_555
Ge18 Pd16 2.450792 1_555
Ge18 Pd39 2.450792 1_555
Ge18 Pd47 2.499980 1_555
Ge18 Pd50 2.535349 1_455
Ge18 Pd32 2.910959 1_455
Ge19 Pd34 2.498121 1_555
Ge19 Pd5 2.550759 1_555
Ge19 Pd51 2.577421 1_555
Ge19 Pd45 2.610546 1_555
Ge19 Pd6 2.636195 1_555
Ge19 Pd44 2.675416 1_455
Ge19 Pd52 2.712090 1_555
Ge19 Pd15 2.802025 1_455
Pd0 Pd38 2.976739 1_564
Pd1 Pd10 2.901418 1_545
Pd1 Pd32 2.915975 1_455
Pd1 Pd54 2.935878 1_445
Pd2 Pd26 2.874786 1_555
Pd2 Pd20 2.874786 1_545
Pd2 Pd49 2.887155 1_555
Pd2 Pd52 2.889472 1_555
Pd2 Pd38 2.979064 1_555
Pd3 Pd42 2.976739 1_545
Pd5 Pd6 2.976739 1_555
Pd10 Pd39 2.764311 1_565
Pd10 Pd18 2.802288 1_565
Pd10 Pd28 2.889472 1_555
Pd10 Pd13 2.894714 1_555
Pd10 Pd14 2.935878 1_565
Pd10 Pd47 3.006688 1_565
Pd10 Pd21 3.075540 1_565
Pd11 Pd20 2.764311 1_545
Pd11 Pd37 2.802288 1_445
Pd11 Pd2 2.889472 1_555
Pd11 Pd34 2.894714 1_555
Pd11 Pd23 2.901418 1_545
Pd11 Pd7 2.935878 1_445
Pd11 Pd30 3.006688 1_545
Pd11 Pd45 3.075540 1_545
Pd12 Pd44 2.764311 1_555
Pd12 Pd26 2.802288 1_555
Pd12 Pd8 2.889472 1_555
Pd12 Pd49 2.894714 1_555
Pd12 Pd36 2.901418 1_555
Pd12 Pd51 2.935878 1_555
Pd12 Pd53 3.006688 1_555
Pd12 Pd19 3.075540 1_555
Pd13 Pd35 2.887155 1_555
Pd13 Pd18 2.891664 1_565
Pd13 Pd25 2.891664 1_555
Pd13 Pd41 2.894714 1_555
Pd13 Pd43 2.921817 1_555
Pd13 Pd55 2.921817 1_555
Pd14 Pd54 2.901418 1_545
Pd14 Pd47 2.915975 1_555
Pd15 Pd44 2.774876 1_555
Pd15 Pd5 2.919021 1_655
Pd15 Pd34 2.921817 1_655
Pd15 Pd33 2.937028 1_555
Pd15 Pd22 2.976739 1_555
Pd15 Pd8 2.979064 1_555
Pd16 Pd41 2.764311 1_555
Pd16 Pd5 2.774876 1_555
Pd16 Pd29 2.802288 1_455
Pd16 Pd28 2.874786 1_555
Pd16 Pd24 2.891664 1_455
Pd16 Pd47 3.026763 1_555
Pd17 Pd26 2.774876 1_555
Pd17 Pd55 2.919021 1_556
Pd17 Pd49 2.921817 1_555
Pd17 Pd38 2.937028 1_555
Pd17 Pd4 2.976739 1_556
Pd17 Pd2 2.979064 1_555
Pd18 Pd54 2.764311 1_545
Pd18 Pd43 2.774876 1_545
Pd18 Pd35 2.874786 1_545
Pd18 Pd32 3.026763 1_555
Pd19 Pd53 3.027206 1_555
Pd19 Pd48 3.075540 1_565
Pd20 Pd38 2.774876 1_565
Pd20 Pd48 2.802288 1_565
Pd20 Pd49 2.891664 1_565
Pd20 Pd30 3.026763 1_555
Pd21 Pd47 3.027206 1_555
Pd21 Pd41 3.075540 1_555
Pd23 Pd53 2.915975 1_555
Pd23 Pd48 2.935878 1_565
Pd24 Pd28 2.887155 1_655
Pd24 Pd39 2.891664 1_665
Pd24 Pd29 2.894714 1_555
Pd24 Pd54 2.894714 1_555
Pd24 Pd5 2.921817 1_655
Pd24 Pd42 2.921817 1_655
Pd25 Pd29 2.764311 1_555
Pd25 Pd55 2.774876 1_555
Pd25 Pd41 2.802288 1_555
Pd25 Pd35 2.874786 1_555
Pd25 Pd32 3.026763 1_555
Pd26 Pd52 2.764311 1_555
Pd26 Pd49 2.891664 1_555
Pd26 Pd30 3.026763 1_555
Pd27 Pd43 2.976739 1_546
Pd28 Pd39 2.874786 1_565
Pd28 Pd41 2.889472 1_555
Pd28 Pd42 2.979064 1_555
Pd28 Pd5 2.979064 1_555
Pd29 Pd35 2.889472 1_555
Pd29 Pd31 2.901418 1_555
Pd29 Pd46 2.935878 1_655
Pd29 Pd32 3.006688 1_555
Pd29 Pd50 3.075540 1_555
Pd30 Pd7 2.915975 1_455
Pd30 Pd36 2.915975 1_455
Pd30 Pd52 3.006688 1_555
Pd30 Pd45 3.027206 1_555
Pd31 Pd47 2.915975 1_555
Pd31 Pd41 2.935878 1_555
Pd32 Pd46 2.915975 1_655
Pd32 Pd54 3.006688 1_545
Pd32 Pd50 3.027206 1_555
Pd33 Pd37 2.774876 1_545
Pd33 Pd42 2.919021 1_645
Pd33 Pd34 2.921817 1_655
Pd33 Pd9 2.976739 1_545
Pd33 Pd8 2.979064 1_555
Pd34 Pd8 2.887155 1_455
Pd34 Pd44 2.891664 1_455
Pd34 Pd37 2.891664 1_445
Pd34 Pd52 2.894714 1_555
Pd35 Pd54 2.889472 1_555
Pd35 Pd55 2.979064 1_555
Pd35 Pd43 2.979064 1_555
Pd36 Pd52 2.935878 1_655
Pd37 Pd48 2.764311 1_565
Pd37 Pd8 2.874786 1_565
Pd37 Pd53 3.026763 1_555
Pd38 Pd43 2.919021 1_546
Pd38 Pd49 2.921817 1_555
Pd39 Pd42 2.774876 1_545
Pd39 Pd54 2.802288 1_445
Pd39 Pd47 3.026763 1_555
Pd40 Pd55 2.976739 1_556
Pd41 Pd46 2.901418 1_555
Pd41 Pd47 3.006688 1_555
Pd42 Pd5 2.937028 1_555
Pd43 Pd55 2.937028 1_555
Pd44 Pd52 2.802288 1_655
Pd44 Pd8 2.874786 1_555
Pd44 Pd53 3.026763 1_555
Pd45 Pd52 3.075540 1_555
Pd48 Pd8 2.889472 1_555
Pd48 Pd49 2.894714 1_555
Pd48 Pd7 2.901418 1_545
Pd48 Pd53 3.006688 1_545
Pd50 Pd54 3.075540 1_545
Pd51 Pd52 2.901418 1_555
Pd51 Pd53 2.915975 1_555
