# generated using pymatgen
data_Zn(HO)2
_symmetry_space_group_name_H-M   'P 1'
_cell_length_a   3.34921600
_cell_length_b   8.13849460
_cell_length_c   12.58907105
_cell_angle_alpha   108.83808778
_cell_angle_beta   97.21723070
_cell_angle_gamma   90.10080718
_symmetry_Int_Tables_number   1
_chemical_formula_structural   Zn(HO)2
_chemical_formula_sum   'Zn6 H12 O12'
_cell_volume   321.86614880
_cell_formula_units_Z   6
loop_
 _symmetry_equiv_pos_site_id
 _symmetry_equiv_pos_as_xyz
  1  'x, y, z'
loop_
 _atom_site_type_symbol
 _atom_site_label
 _atom_site_symmetry_multiplicity
 _atom_site_fract_x
 _atom_site_fract_y
 _atom_site_fract_z
 _atom_site_occupancy
  Zn  Zn0  1  0.93246900  0.68142400  0.82433200  1
  Zn  Zn1  1  0.10425200  0.31477300  0.17762500  1
  Zn  Zn2  1  0.10690400  0.86976300  0.17348800  1
  Zn  Zn3  1  0.93195900  0.14480000  0.81874100  1
  Zn  Zn4  1  0.80012100  0.79385300  0.56224800  1
  Zn  Zn5  1  0.24076500  0.22940200  0.43594500  1
  H  H0  1  0.48628800  0.60841500  0.64725500  1
  H  H1  1  0.18760600  0.50035200  0.38371100  1
  H  H2  1  0.83833400  0.96117800  0.35115200  1
  H  H3  1  0.79894400  0.11839200  0.61391700  1
  H  H4  1  0.44917300  0.47858600  0.87195400  1
  H  H5  1  0.57705300  0.51295500  0.12780000  1
  H  H6  1  0.53708700  0.69302800  0.04024200  1
  H  H7  1  0.49823600  0.31002800  0.96784900  1
  H  H8  1  0.22320200  0.80805300  0.42001400  1
  H  H9  1  0.80077100  0.38464700  0.57844700  1
  H  H10  1  0.59767600  0.95037700  0.89240600  1
  H  H11  1  0.99020800  0.02260100  0.03447600  1
  O  O0  1  0.77673000  0.62673000  0.65413100  1
  O  O1  1  0.13556500  0.37515300  0.34193700  1
  O  O2  1  0.12239800  0.97109300  0.34415700  1
  O  O3  1  0.79518700  0.03591400  0.65738600  1
  O  O4  1  0.45087100  0.60474100  0.87697600  1
  O  O5  1  0.56952200  0.38531300  0.11324500  1
  O  O6  1  0.57585400  0.72875400  0.12408700  1
  O  O7  1  0.45577000  0.27528400  0.88255400  1
  O  O8  1  0.25015800  0.73417000  0.46973600  1
  O  O9  1  0.77815800  0.26073500  0.53054000  1
  O  O10  1  0.87724700  0.93978400  0.87921700  1
  O  O11  1  0.02345300  0.06267900  0.11773800  1
loop_
_geom_bond_atom_site_label_1
_geom_bond_atom_site_label_2
_geom_bond_distance
_geom_bond_site_symmetry_2
H0 O0 0.972604 1_555
H1 O1 0.987655 1_555
H2 O2 0.971999 1_655
H3 O3 0.994542 1_555
H4 O4 1.008036 1_555
H5 O5 0.994569 1_555
H6 O6 0.991353 1_555
H7 O7 1.009259 1_555
H8 O8 0.995280 1_555
H9 O9 0.990928 1_555
H10 O10 0.970486 1_555
H11 O11 0.983488 1_655
O0 Zn0 2.040512 1_555
O0 Zn4 2.057305 1_555
O1 Zn5 1.932636 1_555
O1 Zn1 1.954531 1_555
O2 Zn2 2.031426 1_555
O2 Zn5 2.055494 1_565
O3 Zn3 1.929675 1_555
O3 Zn4 1.948605 1_545
O4 Zn0 1.955768 1_455
O4 Zn0 1.990616 1_555
O5 Zn1 2.007337 1_555
O5 Zn1 2.033043 1_655
O6 Zn2 1.990342 1_555
O6 Zn2 2.030066 1_655
O7 Zn3 1.984755 1_455
O7 Zn3 2.023270 1_555
O8 Zn4 1.985576 1_455
O8 Zn4 2.019306 1_555
O9 Zn5 1.996585 1_555
O9 Zn5 2.037797 1_655
O10 Zn0 2.007002 1_555
O10 Zn3 2.061918 1_565
O11 Zn2 1.923437 1_545
O11 Zn1 1.949061 1_555
