# generated using pymatgen
data_Ce5AgS8
_symmetry_space_group_name_H-M   'P 1'
_cell_length_a   7.40118160
_cell_length_b   7.40118160
_cell_length_c   7.40118160
_cell_angle_alpha   109.77702987
_cell_angle_beta   109.77702987
_cell_angle_gamma   108.86131830
_symmetry_Int_Tables_number   1
_chemical_formula_structural   Ce5AgS8
_chemical_formula_sum   'Ce5 Ag1 S8'
_cell_volume   312.06454431
_cell_formula_units_Z   1
loop_
 _symmetry_equiv_pos_site_id
 _symmetry_equiv_pos_as_xyz
  1  'x, y, z'
loop_
 _atom_site_type_symbol
 _atom_site_label
 _atom_site_symmetry_multiplicity
 _atom_site_fract_x
 _atom_site_fract_y
 _atom_site_fract_z
 _atom_site_occupancy
  Ce  Ce0  1  0.75090100  0.13295500  0.11884200  1
  Ce  Ce1  1  0.36794100  0.24909900  0.38205300  1
  Ce  Ce2  1  0.01411300  0.63205900  0.88115800  1
  Ce  Ce3  1  0.50000000  0.50000000  0.00000000  1
  Ce  Ce4  1  0.86704500  0.98588700  0.61794700  1
  Ag  Ag0  1  0.25000000  0.75000000  0.50000000  1
  S  S0  1  0.27304400  0.02669200  0.89316500  1
  S  S1  1  0.62012100  0.72695600  0.75364800  1
  S  S2  1  0.11780200  0.35725300  0.60280000  1
  S  S3  1  0.48499800  0.88219800  0.23945200  1
  S  S4  1  0.64274700  0.24554600  0.76054800  1
  S  S5  1  0.97330800  0.86647300  0.24635200  1
  S  S6  1  0.13352700  0.37987900  0.10683500  1
  S  S7  1  0.75445400  0.51500200  0.39720000  1
loop_
_geom_bond_atom_site_label_1
_geom_bond_atom_site_label_2
_geom_bond_distance
_geom_bond_site_symmetry_2
Ce0 S3 2.839481 1_545
Ce0 S1 2.850355 1_544
Ce0 S7 2.865914 1_555
Ce0 S6 2.881211 1_655
Ce0 S4 2.976137 1_554
Ce0 S0 3.038372 1_554
Ce0 S2 3.072269 1_655
Ce0 S5 3.130090 1_545
Ce1 S7 2.839477 1_555
Ce1 S6 2.850350 1_555
Ce1 S4 2.865922 1_555
Ce1 S5 2.881213 1_445
Ce1 S2 2.976140 1_555
Ce1 S1 3.038374 1_555
Ce1 S3 3.072267 1_545
Ce1 S0 3.130083 1_554
Ce2 S4 2.839477 1_455
Ce2 S5 2.850355 1_456
Ce2 S2 2.865918 1_555
Ce2 S0 2.881211 1_565
Ce2 S3 2.976138 1_556
Ce2 S6 3.038372 1_556
Ce2 S7 3.072268 1_455
Ce2 S1 3.130090 1_455
Ce3 S2 2.845784 1_554
Ce3 S3 2.845786 1_555
Ce3 S7 2.845786 1_555
Ce3 S4 2.845792 1_554
Ce3 S1 3.023295 1_554
Ce3 S5 3.023295 1_555
Ce3 S0 3.023295 1_554
Ce3 S6 3.023295 1_555
Ce4 S2 2.839480 1_665
Ce4 S0 2.850352 1_665
Ce4 S3 2.865918 1_555
Ce4 S1 2.881205 1_555
Ce4 S7 2.976138 1_555
Ce4 S5 3.038378 1_555
Ce4 S4 3.072259 1_565
Ce4 S6 3.130085 1_666
Ag0 S5 2.845338 1_455
Ag0 S1 2.845338 1_555
Ag0 S0 2.845338 1_565
Ag0 S6 2.845338 1_555
Ag0 S3 3.185458 1_555
Ag0 S7 3.185458 1_455
Ag0 S4 3.185460 1_565
Ag0 S2 3.185465 1_555
