# generated using pymatgen
data_Sc20O19
_symmetry_space_group_name_H-M   'P 1'
_cell_length_a   8.38238961
_cell_length_b   8.38238961
_cell_length_c   8.38238961
_cell_angle_alpha   106.58954480
_cell_angle_beta   106.58954480
_cell_angle_gamma   115.40240302
_symmetry_Int_Tables_number   1
_chemical_formula_structural   Sc20O19
_chemical_formula_sum   'Sc20 O19'
_cell_volume   449.71862492
_cell_formula_units_Z   1
loop_
 _symmetry_equiv_pos_site_id
 _symmetry_equiv_pos_as_xyz
  1  'x, y, z'
loop_
 _atom_site_type_symbol
 _atom_site_label
 _atom_site_symmetry_multiplicity
 _atom_site_fract_x
 _atom_site_fract_y
 _atom_site_fract_z
 _atom_site_occupancy
  Sc  Sc0  1  0.04555800  0.64897400  0.19628300  1
  Sc  Sc1  1  0.39932200  0.70007200  0.09939500  1
  Sc  Sc2  1  0.10100200  0.80098500  0.90198700  1
  Sc  Sc3  1  0.74962800  0.74962800  0.00000000  1
  Sc  Sc4  1  0.80098500  0.89899800  0.69998300  1
  Sc  Sc5  1  0.45269200  0.84927500  0.80371700  1
  Sc  Sc6  1  0.50000000  0.00000000  0.50000000  1
  Sc  Sc7  1  0.15072500  0.95444200  0.60341600  1
  Sc  Sc8  1  0.19901500  0.10100200  0.30001700  1
  Sc  Sc9  1  0.84927500  0.04555800  0.39658400  1
  Sc  Sc10  1  0.89899800  0.19901500  0.09801300  1
  Sc  Sc11  1  0.54730800  0.15072500  0.19628300  1
  Sc  Sc12  1  0.60067800  0.29992800  0.90060500  1
  Sc  Sc13  1  0.25037200  0.25037200  0.00000000  1
  Sc  Sc14  1  0.29992800  0.39932200  0.69925000  1
  Sc  Sc15  1  0.95444200  0.35102600  0.80371700  1
  Sc  Sc16  1  0.00000000  0.50000000  0.50000000  1
  Sc  Sc17  1  0.64897400  0.45269200  0.60341600  1
  Sc  Sc18  1  0.70007200  0.60067800  0.30075000  1
  Sc  Sc19  1  0.35102600  0.54730800  0.39658400  1
  O  O0  1  0.90090800  0.70096700  0.60187500  1
  O  O1  1  0.54906600  0.65233000  0.69860500  1
  O  O2  1  0.59913000  0.80343100  0.40256100  1
  O  O3  1  0.25000000  0.75000000  0.50000000  1
  O  O4  1  0.29903300  0.90090800  0.19994100  1
  O  O5  1  0.95372500  0.85046100  0.30139500  1
  O  O6  1  0.00000000  0.00000000  0.00000000  1
  O  O7  1  0.65233000  0.95372500  0.10326400  1
  O  O8  1  0.70096700  0.09909200  0.80005900  1
  O  O9  1  0.34767000  0.04627500  0.89673600  1
  O  O10  1  0.04627500  0.14953900  0.69860500  1
  O  O11  1  0.75000000  0.25000000  0.50000000  1
  O  O12  1  0.40087000  0.19656900  0.59743900  1
  O  O13  1  0.45093400  0.34767000  0.30139500  1
  O  O14  1  0.09909200  0.29903300  0.39812500  1
  O  O15  1  0.14953900  0.45093400  0.10326400  1
  O  O16  1  0.19656900  0.59913000  0.79569900  1
  O  O17  1  0.80343100  0.40087000  0.20430100  1
  O  O18  1  0.85046100  0.54906600  0.89673600  1
loop_
_geom_bond_atom_site_label_1
_geom_bond_atom_site_label_2
_geom_bond_distance
_geom_bond_site_symmetry_2
O0 Sc4 2.222626 1_555
O0 Sc2 2.241526 1_655
O0 Sc16 2.245235 1_655
O0 Sc17 2.247515 1_555
O0 Sc7 2.247519 1_655
O0 Sc18 2.249391 1_555
O1 Sc5 2.207793 1_555
O1 Sc17 2.227085 1_555
O1 Sc4 2.227332 1_555
O1 Sc19 2.239140 1_555
O1 Sc14 2.252173 1_555
O1 Sc3 2.257427 1_556
O2 Sc6 2.205967 1_565
O2 Sc9 2.232782 1_565
O2 Sc19 2.232787 1_555
O2 Sc4 2.237879 1_555
O2 Sc1 2.254140 1_555
O2 Sc18 2.269501 1_555
O3 Sc6 2.239501 1_565
O3 Sc16 2.239501 1_555
O3 Sc7 2.273302 1_555
O3 Sc0 2.273302 1_555
O3 Sc5 2.273304 1_555
O3 Sc19 2.273309 1_555
O4 Sc2 2.222626 1_554
O4 Sc8 2.241526 1_565
O4 Sc6 2.245235 1_565
O4 Sc11 2.247515 1_565
O4 Sc0 2.247519 1_555
O4 Sc1 2.249388 1_555
O5 Sc0 2.207800 1_655
O5 Sc9 2.227091 1_565
O5 Sc8 2.227332 1_665
O5 Sc7 2.239142 1_655
O5 Sc18 2.252173 1_555
O5 Sc3 2.257427 1_555
O6 Sc4 2.236305 1_444
O6 Sc2 2.236305 1_544
O6 Sc10 2.236305 1_455
O6 Sc8 2.236305 1_555
O6 Sc13 2.242833 1_555
O6 Sc3 2.242833 1_445
O7 Sc9 2.207800 1_565
O7 Sc5 2.227089 1_554
O7 Sc10 2.227332 1_565
O7 Sc11 2.239149 1_565
O7 Sc1 2.252177 1_555
O7 Sc3 2.257427 1_555
O8 Sc10 2.222626 1_556
O8 Sc4 2.241526 1_545
O8 Sc6 2.245235 1_555
O8 Sc5 2.247515 1_545
O8 Sc15 2.247519 1_555
O8 Sc12 2.249388 1_555
O9 Sc7 2.207800 1_545
O9 Sc11 2.227089 1_556
O9 Sc2 2.227332 1_545
O9 Sc5 2.239149 1_545
O9 Sc12 2.252177 1_555
O9 Sc13 2.257427 1_556
O10 Sc15 2.207800 1_455
O10 Sc7 2.227091 1_545
O10 Sc4 2.227332 1_445
O10 Sc9 2.239142 1_455
O10 Sc14 2.252173 1_555
O10 Sc13 2.257427 1_556
O11 Sc16 2.239501 1_655
O11 Sc6 2.239501 1_555
O11 Sc9 2.273302 1_555
O11 Sc15 2.273302 1_555
O11 Sc11 2.273304 1_555
O11 Sc17 2.273309 1_555
O12 Sc6 2.205967 1_555
O12 Sc7 2.232782 1_545
O12 Sc17 2.232787 1_555
O12 Sc8 2.237879 1_555
O12 Sc12 2.254140 1_555
O12 Sc14 2.269501 1_555
O13 Sc11 2.207793 1_555
O13 Sc19 2.227085 1_555
O13 Sc8 2.227332 1_555
O13 Sc17 2.239140 1_555
O13 Sc18 2.252173 1_555
O13 Sc13 2.257427 1_555
O14 Sc8 2.222626 1_555
O14 Sc10 2.241526 1_455
O14 Sc16 2.245235 1_555
O14 Sc19 2.247515 1_555
O14 Sc9 2.247519 1_455
O14 Sc14 2.249391 1_555
O15 Sc19 2.207802 1_555
O15 Sc15 2.227091 1_454
O15 Sc10 2.227332 1_455
O15 Sc0 2.239142 1_555
O15 Sc1 2.252168 1_555
O15 Sc13 2.257427 1_555
O16 Sc16 2.205967 1_555
O16 Sc15 2.232782 1_455
O16 Sc5 2.232787 1_555
O16 Sc2 2.237879 1_555
O16 Sc14 2.254147 1_555
O16 Sc1 2.269508 1_556
O17 Sc16 2.205967 1_655
O17 Sc0 2.232782 1_655
O17 Sc11 2.232787 1_555
O17 Sc10 2.237879 1_555
O17 Sc18 2.254147 1_555
O17 Sc12 2.269508 1_554
O18 Sc17 2.207802 1_555
O18 Sc0 2.227091 1_656
O18 Sc2 2.227332 1_655
O18 Sc15 2.239142 1_555
O18 Sc12 2.252168 1_555
O18 Sc3 2.257427 1_556
