# generated using pymatgen
data_CsYb3F10
_symmetry_space_group_name_H-M   'P 1'
_cell_length_a   8.16426398
_cell_length_b   8.16426398
_cell_length_c   17.83951900
_cell_angle_alpha   90.00000000
_cell_angle_beta   90.00000000
_cell_angle_gamma   119.99999981
_symmetry_Int_Tables_number   1
_chemical_formula_structural   CsYb3F10
_chemical_formula_sum   'Cs4 Yb12 F40'
_cell_volume   1029.78805465
_cell_formula_units_Z   4
loop_
 _symmetry_equiv_pos_site_id
 _symmetry_equiv_pos_as_xyz
  1  'x, y, z'
loop_
 _atom_site_type_symbol
 _atom_site_label
 _atom_site_symmetry_multiplicity
 _atom_site_fract_x
 _atom_site_fract_y
 _atom_site_fract_z
 _atom_site_occupancy
  Cs  Cs0  1  0.00000000  0.00000000  0.62632200  1
  Cs  Cs1  1  0.00000000  0.00000000  0.12632200  1
  Cs  Cs2  1  0.00000000  0.00000000  0.87223600  1
  Cs  Cs3  1  0.00000000  0.00000000  0.37223600  1
  Yb  Yb0  1  0.48683100  0.97366100  0.75004400  1
  Yb  Yb1  1  0.02633900  0.51316900  0.75004400  1
  Yb  Yb2  1  0.48742700  0.51257300  0.50173700  1
  Yb  Yb3  1  0.97366100  0.48683100  0.25004400  1
  Yb  Yb4  1  0.02514500  0.51257300  0.50173700  1
  Yb  Yb5  1  0.48683100  0.51316900  0.75004400  1
  Yb  Yb6  1  0.51257300  0.02514500  0.00173700  1
  Yb  Yb7  1  0.48742700  0.97485500  0.50173700  1
  Yb  Yb8  1  0.51316900  0.48683100  0.25004400  1
  Yb  Yb9  1  0.51257300  0.48742700  0.00173700  1
  Yb  Yb10  1  0.97485500  0.48742700  0.00173700  1
  Yb  Yb11  1  0.51316900  0.02633900  0.25004400  1
  F  F0  1  0.21526100  0.78473900  0.00245900  1
  F  F1  1  0.52044400  0.47955600  0.12580500  1
  F  F2  1  0.32442100  0.16221000  0.24530300  1
  F  F3  1  0.67557900  0.83779000  0.74530300  1
  F  F4  1  0.47955600  0.95911200  0.62580500  1
  F  F5  1  0.15903900  0.31807800  0.50109900  1
  F  F6  1  0.43686500  0.21843200  0.74627700  1
  F  F7  1  0.47955600  0.52044400  0.62580500  1
  F  F8  1  0.84096100  0.68192200  0.00109900  1
  F  F9  1  0.66666700  0.33333300  0.29043300  1
  F  F10  1  0.95911200  0.47955600  0.12580500  1
  F  F11  1  0.43052300  0.21526100  0.50245900  1
  F  F12  1  0.66666700  0.33333300  0.97402700  1
  F  F13  1  0.78156800  0.56313500  0.74627700  1
  F  F14  1  0.83779000  0.67557900  0.24530300  1
  F  F15  1  0.50018200  0.00036300  0.37577000  1
  F  F16  1  0.83779000  0.16221000  0.24530300  1
  F  F17  1  0.21843200  0.43686500  0.24627700  1
  F  F18  1  0.99963700  0.49981800  0.37577000  1
  F  F19  1  0.15903900  0.84096100  0.50109900  1
  F  F20  1  0.50018200  0.49981800  0.37577000  1
  F  F21  1  0.16221000  0.83779000  0.74530300  1
  F  F22  1  0.33333300  0.66666700  0.47402700  1
  F  F23  1  0.56313500  0.78156800  0.24627700  1
  F  F24  1  0.49981800  0.99963700  0.87577000  1
  F  F25  1  0.78473900  0.56947700  0.50245900  1
  F  F26  1  0.31807800  0.15903900  0.00109900  1
  F  F27  1  0.00036300  0.50018200  0.87577000  1
  F  F28  1  0.21526100  0.43052300  0.00245900  1
  F  F29  1  0.49981800  0.50018200  0.87577000  1
  F  F30  1  0.78473900  0.21526100  0.50245900  1
  F  F31  1  0.68192200  0.84096100  0.50109900  1
  F  F32  1  0.04088800  0.52044400  0.62580500  1
  F  F33  1  0.56947700  0.78473900  0.00245900  1
  F  F34  1  0.78156800  0.21843200  0.74627700  1
  F  F35  1  0.33333300  0.66666700  0.79043300  1
  F  F36  1  0.84096100  0.15903900  0.00109900  1
  F  F37  1  0.52044400  0.04088800  0.12580500  1
  F  F38  1  0.21843200  0.78156800  0.24627700  1
  F  F39  1  0.16221000  0.32442100  0.74530300  1
loop_
_geom_bond_atom_site_label_1
_geom_bond_atom_site_label_2
_geom_bond_distance
_geom_bond_site_symmetry_2
Cs0 F21 3.125186 1_545
Cs0 F3 3.125191 1_445
Cs0 F39 3.125191 1_555
Cs0 F19 3.169890 1_545
Cs0 F31 3.169890 1_445
Cs0 F5 3.169890 1_555
Cs1 F16 3.125186 1_455
Cs1 F14 3.125191 1_445
Cs1 F2 3.125191 1_555
Cs1 F36 3.169890 1_455
Cs1 F26 3.169890 1_555
Cs1 F8 3.169890 1_445
Cs2 F36 3.215982 1_456
Cs2 F26 3.215982 1_556
Cs2 F8 3.215982 1_446
Cs2 F21 3.223217 1_545
Cs2 F39 3.223222 1_555
Cs2 F3 3.223222 1_445
Cs3 F19 3.215982 1_545
Cs3 F31 3.215982 1_445
Cs3 F5 3.215982 1_555
Cs3 F16 3.223217 1_455
Cs3 F14 3.223222 1_445
Cs3 F2 3.223222 1_555
F0 Yb6 2.231644 1_565
F0 Yb10 2.231644 1_455
F1 Yb9 2.216110 1_555
F1 Yb8 2.218750 1_555
F2 Yb11 2.306884 1_555
F2 Yb8 2.306897 1_555
F3 Yb0 2.306884 1_555
F3 Yb5 2.306897 1_555
F4 Yb7 2.216111 1_555
F4 Yb0 2.218750 1_555
F5 Yb2 2.335024 1_555
F5 Yb4 2.335030 1_555
F6 Yb0 2.231510 1_545
F6 Yb5 2.231510 1_555
F7 Yb2 2.216110 1_555
F7 Yb5 2.218750 1_555
F8 Yb9 2.335024 1_555
F8 Yb10 2.335030 1_555
F9 Yb11 2.287052 1_555
F9 Yb3 2.287052 1_555
F9 Yb8 2.287065 1_555
F10 Yb10 2.216111 1_555
F10 Yb3 2.218750 1_555
F11 Yb7 2.231633 1_545
F11 Yb2 2.231650 1_555
F12 Yb9 2.234399 1_556
F12 Yb6 2.234399 1_556
F12 Yb10 2.234399 1_556
F13 Yb1 2.231510 1_655
F13 Yb5 2.231510 1_555
F14 Yb3 2.306884 1_555
F14 Yb8 2.306897 1_555
F15 Yb11 2.250399 1_555
F15 Yb7 2.254416 1_545
F16 Yb3 2.306899 1_555
F16 Yb11 2.306899 1_555
F17 Yb3 2.231510 1_455
F17 Yb8 2.231510 1_555
F18 Yb3 2.250399 1_555
F18 Yb4 2.254416 1_655
F19 Yb4 2.335023 1_555
F19 Yb7 2.335023 1_555
F20 Yb8 2.250397 1_555
F20 Yb2 2.254418 1_555
F21 Yb1 2.306899 1_555
F21 Yb0 2.306899 1_555
F22 Yb2 2.234399 1_555
F22 Yb4 2.234399 1_555
F22 Yb7 2.234399 1_555
F23 Yb11 2.231510 1_565
F23 Yb8 2.231510 1_555
F24 Yb0 2.250399 1_555
F24 Yb6 2.254416 1_566
F25 Yb4 2.231633 1_655
F25 Yb2 2.231650 1_555
F26 Yb9 2.335024 1_555
F26 Yb6 2.335030 1_555
F27 Yb1 2.250399 1_555
F27 Yb10 2.254416 1_456
F28 Yb10 2.231633 1_455
F28 Yb9 2.231650 1_555
F29 Yb5 2.250397 1_555
F29 Yb9 2.254418 1_556
F30 Yb4 2.231644 1_655
F30 Yb7 2.231644 1_545
F31 Yb2 2.335024 1_555
F31 Yb7 2.335030 1_555
F32 Yb4 2.216111 1_555
F32 Yb1 2.218750 1_555
F33 Yb6 2.231633 1_565
F33 Yb9 2.231650 1_555
F34 Yb0 2.231510 1_545
F34 Yb1 2.231510 1_655
F35 Yb1 2.287052 1_555
F35 Yb0 2.287052 1_555
F35 Yb5 2.287065 1_555
F36 Yb10 2.335023 1_555
F36 Yb6 2.335023 1_555
F37 Yb6 2.216111 1_555
F37 Yb11 2.218750 1_555
F38 Yb11 2.231510 1_565
F38 Yb3 2.231510 1_455
F39 Yb1 2.306884 1_555
F39 Yb5 2.306897 1_555
