# generated using pymatgen
data_CsAg(BH)10
_symmetry_space_group_name_H-M   'P 1'
_cell_length_a   9.27307600
_cell_length_b   10.05732500
_cell_length_c   10.97517700
_cell_angle_alpha   90.00000000
_cell_angle_beta   90.00000000
_cell_angle_gamma   90.00000000
_symmetry_Int_Tables_number   1
_chemical_formula_structural   CsAg(BH)10
_chemical_formula_sum   'Cs4 Ag4 B40 H40'
_cell_volume   1023.57067886
_cell_formula_units_Z   4
loop_
 _symmetry_equiv_pos_site_id
 _symmetry_equiv_pos_as_xyz
  1  'x, y, z'
loop_
 _atom_site_type_symbol
 _atom_site_label
 _atom_site_symmetry_multiplicity
 _atom_site_fract_x
 _atom_site_fract_y
 _atom_site_fract_z
 _atom_site_occupancy
  Cs  Cs0  1  0.75000000  0.82114500  0.43867100  1
  Cs  Cs1  1  0.25000000  0.17885500  0.56132900  1
  Cs  Cs2  1  0.25000000  0.82114500  0.06132900  1
  Cs  Cs3  1  0.75000000  0.17885500  0.93867100  1
  Ag  Ag0  1  0.50000000  0.48930000  0.25000000  1
  Ag  Ag1  1  0.00000000  0.51070000  0.75000000  1
  Ag  Ag2  1  0.50000000  0.51070000  0.75000000  1
  Ag  Ag3  1  0.00000000  0.48930000  0.25000000  1
  B  B0  1  0.75000000  0.43111000  0.36035400  1
  B  B1  1  0.25000000  0.56889000  0.63964600  1
  B  B2  1  0.25000000  0.43111000  0.13964600  1
  B  B3  1  0.75000000  0.56889000  0.86035400  1
  B  B4  1  0.75000000  0.43065300  0.51565200  1
  B  B5  1  0.25000000  0.56934700  0.48434800  1
  B  B6  1  0.25000000  0.43065300  0.98434800  1
  B  B7  1  0.75000000  0.56934700  0.01565200  1
  B  B8  1  0.61089900  0.34599800  0.42603900  1
  B  B9  1  0.11089900  0.65400200  0.57396100  1
  B  B10  1  0.38910100  0.34599800  0.07396100  1
  B  B11  1  0.88910100  0.65400200  0.92603900  1
  B  B12  1  0.38910100  0.65400200  0.57396100  1
  B  B13  1  0.88910100  0.34599800  0.42603900  1
  B  B14  1  0.61089900  0.65400200  0.92603900  1
  B  B15  1  0.11089900  0.34599800  0.07396100  1
  B  B16  1  0.75000000  0.26149400  0.33609200  1
  B  B17  1  0.25000000  0.73850600  0.66390800  1
  B  B18  1  0.25000000  0.26149400  0.16390800  1
  B  B19  1  0.75000000  0.73850600  0.83609200  1
  B  B20  1  0.65225500  0.29348300  0.57921300  1
  B  B21  1  0.15225500  0.70651700  0.42078700  1
  B  B22  1  0.34774500  0.29348300  0.92078700  1
  B  B23  1  0.84774500  0.70651700  0.07921300  1
  B  B24  1  0.34774500  0.70651700  0.42078700  1
  B  B25  1  0.84774500  0.29348300  0.57921300  1
  B  B26  1  0.65225500  0.70651700  0.07921300  1
  B  B27  1  0.15225500  0.29348300  0.92078700  1
  B  B28  1  0.65168600  0.17377700  0.45215900  1
  B  B29  1  0.15168600  0.82622300  0.54784100  1
  B  B30  1  0.34831400  0.17377700  0.04784100  1
  B  B31  1  0.84831400  0.82622300  0.95215900  1
  B  B32  1  0.34831400  0.82622300  0.54784100  1
  B  B33  1  0.84831400  0.17377700  0.45215900  1
  B  B34  1  0.65168600  0.82622300  0.95215900  1
  B  B35  1  0.15168600  0.17377700  0.04784100  1
  B  B36  1  0.75000000  0.15061000  0.58201300  1
  B  B37  1  0.25000000  0.84939000  0.41798700  1
  B  B38  1  0.25000000  0.15061000  0.91798700  1
  B  B39  1  0.75000000  0.84939000  0.08201300  1
  H  H0  1  0.75000000  0.52719900  0.29285700  1
  H  H1  1  0.25000000  0.47280100  0.70714300  1
  H  H2  1  0.25000000  0.52719900  0.20714300  1
  H  H3  1  0.75000000  0.47280100  0.79285700  1
  H  H4  1  0.75000000  0.53388000  0.57077000  1
  H  H5  1  0.25000000  0.46612000  0.42923000  1
  H  H6  1  0.25000000  0.53388000  0.92923000  1
  H  H7  1  0.75000000  0.46612000  0.07077000  1
  H  H8  1  0.48311900  0.36922000  0.40980500  1
  H  H9  1  0.98311900  0.63078000  0.59019500  1
  H  H10  1  0.51688100  0.36922000  0.09019500  1
  H  H11  1  0.01688100  0.63078000  0.90980500  1
  H  H12  1  0.51688100  0.63078000  0.59019500  1
  H  H13  1  0.01688100  0.36922000  0.40980500  1
  H  H14  1  0.48311900  0.63078000  0.90980500  1
  H  H15  1  0.98311900  0.36922000  0.09019500  1
  H  H16  1  0.75000000  0.21771900  0.23462800  1
  H  H17  1  0.25000000  0.78228100  0.76537200  1
  H  H18  1  0.25000000  0.21771900  0.26537200  1
  H  H19  1  0.75000000  0.78228100  0.73462800  1
  H  H20  1  0.56548400  0.31440800  0.66022000  1
  H  H21  1  0.06548400  0.68559200  0.33978000  1
  H  H22  1  0.43451600  0.31440800  0.83978000  1
  H  H23  1  0.93451600  0.68559200  0.16022000  1
  H  H24  1  0.43451600  0.68559200  0.33978000  1
  H  H25  1  0.93451600  0.31440800  0.66022000  1
  H  H26  1  0.56548400  0.68559200  0.16022000  1
  H  H27  1  0.06548400  0.31440800  0.83978000  1
  H  H28  1  0.56478100  0.09156700  0.42105800  1
  H  H29  1  0.06478100  0.90843300  0.57894200  1
  H  H30  1  0.43521900  0.09156700  0.07894200  1
  H  H31  1  0.93521900  0.90843300  0.92105800  1
  H  H32  1  0.43521900  0.90843300  0.57894200  1
  H  H33  1  0.93521900  0.09156700  0.42105800  1
  H  H34  1  0.56478100  0.90843300  0.92105800  1
  H  H35  1  0.06478100  0.09156700  0.07894200  1
  H  H36  1  0.75000000  0.05874700  0.65211000  1
  H  H37  1  0.25000000  0.94125300  0.34789000  1
  H  H38  1  0.25000000  0.05874700  0.84789000  1
  H  H39  1  0.75000000  0.94125300  0.15211000  1
loop_
_geom_bond_atom_site_label_1
_geom_bond_atom_site_label_2
_geom_bond_distance
_geom_bond_site_symmetry_2
Cs0 H33 3.222457 1_565
Cs0 H28 3.222457 1_565
Cs0 H4 3.232483 1_555
Cs0 H19 3.271613 1_555
Cs0 H9 3.332297 1_555
Cs0 H12 3.332297 1_555
Cs0 H36 3.346316 1_565
Cs0 H0 3.361672 1_555
Cs0 H39 3.369060 1_555
Cs0 H21 3.405166 1_655
Cs0 H24 3.405166 1_555
Cs0 H29 3.414854 1_655
Cs0 H32 3.414854 1_555
Cs1 H32 3.222457 1_545
Cs1 H29 3.222457 1_545
Cs1 H5 3.232483 1_555
Cs1 H18 3.271613 1_555
Cs1 H8 3.332297 1_555
Cs1 H13 3.332297 1_555
Cs1 H37 3.346316 1_545
Cs1 H1 3.361672 1_555
Cs1 H38 3.369060 1_555
Cs1 H20 3.405166 1_555
Cs1 H25 3.405166 1_455
Cs1 H28 3.414854 1_555
Cs1 H33 3.414854 1_455
Cs2 H30 3.222457 1_565
Cs2 H35 3.222457 1_565
Cs2 H6 3.232483 1_554
Cs2 H17 3.271613 1_554
Cs2 H14 3.332297 1_554
Cs2 H11 3.332297 1_554
Cs2 H38 3.346316 1_564
Cs2 H2 3.361672 1_555
Cs2 H37 3.369060 1_555
Cs2 H26 3.405166 1_555
Cs2 H23 3.405166 1_455
Cs2 H34 3.414854 1_554
Cs2 H31 3.414854 1_454
Cs3 H31 3.222457 1_545
Cs3 H34 3.222457 1_545
Cs3 H7 3.232483 1_556
Cs3 H16 3.271613 1_556
Cs3 H15 3.332297 1_556
Cs3 H10 3.332297 1_556
Cs3 H39 3.346316 1_546
Cs3 H3 3.361672 1_555
Cs3 H36 3.369060 1_555
Cs3 H27 3.405166 1_655
Cs3 H22 3.405166 1_555
Cs3 H35 3.414854 1_656
Cs3 H30 3.414854 1_556
Ag0 H10 2.135211 1_555
Ag0 H8 2.135211 1_555
Ag0 H26 2.288452 1_555
Ag0 H24 2.288452 1_555
Ag0 H2 2.396017 1_555
Ag0 H0 2.396017 1_555
Ag1 H9 2.135211 1_455
Ag1 H11 2.135211 1_555
Ag1 H27 2.288452 1_555
Ag1 H25 2.288452 1_455
Ag1 H3 2.396017 1_455
Ag1 H1 2.396017 1_555
Ag2 H12 2.135211 1_555
Ag2 H14 2.135211 1_555
Ag2 H20 2.288452 1_555
Ag2 H22 2.288452 1_555
Ag2 H3 2.396017 1_555
Ag2 H1 2.396017 1_555
Ag3 H13 2.135211 1_555
Ag3 H15 2.135211 1_455
Ag3 H21 2.288452 1_555
Ag3 H23 2.288452 1_455
Ag3 H0 2.396017 1_455
Ag3 H2 2.396017 1_555
B0 H0 1.217661 1_555
B1 H1 1.217661 1_555
B2 H2 1.217661 1_555
B3 H3 1.217661 1_555
B4 H4 1.201571 1_555
B5 H5 1.201571 1_555
B6 H6 1.201571 1_555
B7 H7 1.201571 1_555
B8 H8 1.220783 1_555
B9 H9 1.220783 1_455
B10 H10 1.220783 1_555
B11 H11 1.220783 1_655
B12 H12 1.220783 1_555
B13 H13 1.220783 1_655
B14 H14 1.220783 1_555
B15 H15 1.220783 1_455
B16 H16 1.197456 1_555
B17 H17 1.197456 1_555
B18 H18 1.197456 1_555
B19 H19 1.197456 1_555
B20 H20 1.217441 1_555
B21 H21 1.217441 1_555
B22 H22 1.217441 1_555
B23 H23 1.217441 1_555
B24 H24 1.217441 1_555
B25 H25 1.217441 1_555
B26 H26 1.217441 1_555
B27 H27 1.217441 1_555
B28 H28 1.203980 1_555
B29 H29 1.203980 1_555
B30 H30 1.203980 1_555
B31 H31 1.203980 1_555
B32 H32 1.203980 1_555
B33 H33 1.203980 1_555
B34 H34 1.203980 1_555
B35 H35 1.203980 1_555
B36 H36 1.202268 1_555
B37 H37 1.202268 1_555
B38 H38 1.202268 1_555
B39 H39 1.202268 1_555
