# generated using pymatgen
data_Sb3S2XeN(O2F9)2
_symmetry_space_group_name_H-M   'P 1'
_cell_length_a   10.83638200
_cell_length_b   10.51135100
_cell_length_c   18.53788469
_cell_angle_alpha   71.74701088
_cell_angle_beta   90.00000000
_cell_angle_gamma   90.00000000
_symmetry_Int_Tables_number   1
_chemical_formula_structural   Sb3S2XeN(O2F9)2
_chemical_formula_sum   'Sb12 S8 Xe4 N4 O16 F72'
_cell_volume   2005.31031461
_cell_formula_units_Z   4
loop_
 _symmetry_equiv_pos_site_id
 _symmetry_equiv_pos_as_xyz
  1  'x, y, z'
loop_
 _atom_site_type_symbol
 _atom_site_label
 _atom_site_symmetry_multiplicity
 _atom_site_fract_x
 _atom_site_fract_y
 _atom_site_fract_z
 _atom_site_occupancy
  Sb  Sb0  1  0.73932500  0.08649700  0.45973800  1
  Sb  Sb1  1  0.28921500  0.36052700  0.61253700  1
  Sb  Sb2  1  0.71078500  0.63947300  0.38746300  1
  Sb  Sb3  1  0.26067500  0.91350300  0.54026200  1
  Sb  Sb4  1  0.21078500  0.36052700  0.11253700  1
  Sb  Sb5  1  0.42513600  0.03347200  0.19484800  1
  Sb  Sb6  1  0.92513600  0.96652800  0.30515200  1
  Sb  Sb7  1  0.57486400  0.96652800  0.80515200  1
  Sb  Sb8  1  0.23932500  0.91350300  0.04026200  1
  Sb  Sb9  1  0.78921500  0.63947300  0.88746300  1
  Sb  Sb10  1  0.76067500  0.08649700  0.95973800  1
  Sb  Sb11  1  0.07486400  0.03347200  0.69484800  1
  S  S0  1  0.74586500  0.39335400  0.66367300  1
  S  S1  1  0.36468400  0.34173800  0.34575100  1
  S  S2  1  0.75413500  0.39335400  0.16367300  1
  S  S3  1  0.24586500  0.60664600  0.83632700  1
  S  S4  1  0.25413500  0.60664600  0.33632700  1
  S  S5  1  0.63531600  0.65826200  0.65424900  1
  S  S6  1  0.13531600  0.34173800  0.84575100  1
  S  S7  1  0.86468400  0.65826200  0.15424900  1
  Xe  Xe0  1  0.06999500  0.33370300  0.38226100  1
  Xe  Xe1  1  0.56999500  0.66629700  0.11773900  1
  Xe  Xe2  1  0.93000500  0.66629700  0.61773900  1
  Xe  Xe3  1  0.43000500  0.33370300  0.88226100  1
  N  N0  1  0.74128800  0.56440200  0.14724500  1
  N  N1  1  0.75871200  0.56440200  0.64724500  1
  N  N2  1  0.25871200  0.43559800  0.85275500  1
  N  N3  1  0.24128800  0.43559800  0.35275500  1
  O  O0  1  0.05805300  0.42584700  0.78794500  1
  O  O1  1  0.27153200  0.67618900  0.75914800  1
  O  O2  1  0.14024800  0.62381100  0.87788200  1
  O  O3  1  0.22846800  0.67618900  0.25914800  1
  O  O4  1  0.35975200  0.62381100  0.37788200  1
  O  O5  1  0.55805300  0.57415300  0.71205500  1
  O  O6  1  0.72846800  0.32381100  0.24085200  1
  O  O7  1  0.44194700  0.42584700  0.28794500  1
  O  O8  1  0.77153200  0.32381100  0.74085200  1
  O  O9  1  0.85975200  0.37618900  0.12211800  1
  O  O10  1  0.67815100  0.78635100  0.65254800  1
  O  O11  1  0.64024800  0.37618900  0.62211800  1
  O  O12  1  0.17815100  0.21364900  0.84745200  1
  O  O13  1  0.32184900  0.21364900  0.34745200  1
  O  O14  1  0.82184900  0.78635100  0.15254800  1
  O  O15  1  0.94194700  0.57415300  0.21205500  1
  F  F0  1  0.72033200  0.68375700  0.97139800  1
  F  F1  1  0.40930000  0.22476600  0.62533300  1
  F  F2  1  0.14090400  0.79625400  0.11618700  1
  F  F3  1  0.80106200  0.16109300  0.03669400  1
  F  F4  1  0.13998200  0.03305800  0.48240800  1
  F  F5  1  0.66516300  0.61952000  0.29238500  1
  F  F6  1  0.59070000  0.77523400  0.37466700  1
  F  F7  1  0.11933600  0.50742300  0.05174300  1
  F  F8  1  0.17829400  0.19873400  0.68141900  1
  F  F9  1  0.82170600  0.80126600  0.31858100  1
  F  F10  1  0.79271100  0.01176700  0.37152300  1
  F  F11  1  0.50627100  0.87719400  0.18886100  1
  F  F12  1  0.68256000  0.05169600  0.72472800  1
  F  F13  1  0.36343800  0.62088100  0.88371800  1
  F  F14  1  0.42989300  0.32711900  0.42352400  1
  F  F15  1  0.90930000  0.77523400  0.87466700  1
  F  F16  1  0.31744000  0.94830400  0.27527200  1
  F  F17  1  0.12508900  0.78362900  0.57825700  1
  F  F18  1  0.30106200  0.83890700  0.46330600  1
  F  F19  1  0.49652800  0.86423500  0.89583700  1
  F  F20  1  0.99652800  0.13576500  0.60416300  1
  F  F21  1  0.87491100  0.21637100  0.42174300  1
  F  F22  1  0.18256000  0.94830400  0.77527200  1
  F  F23  1  0.13656200  0.62088100  0.38371800  1
  F  F24  1  0.88066400  0.49257700  0.94825700  1
  F  F25  1  0.35909600  0.79625400  0.61618700  1
  F  F26  1  0.16516300  0.38048000  0.20761500  1
  F  F27  1  0.37987700  0.05098900  0.51920700  1
  F  F28  1  0.85561000  0.53600000  0.38706900  1
  F  F29  1  0.27966800  0.31624300  0.02860200  1
  F  F30  1  0.38066400  0.50742300  0.55174300  1
  F  F31  1  0.20728900  0.98823300  0.62847700  1
  F  F32  1  0.12012300  0.05098900  0.01920700  1
  F  F33  1  0.61933600  0.49257700  0.44825700  1
  F  F34  1  0.96757800  0.08845000  0.75929200  1
  F  F35  1  0.64439000  0.53600000  0.88706900  1
  F  F36  1  0.63998200  0.96694200  0.01759200  1
  F  F37  1  0.86001800  0.96694200  0.51759200  1
  F  F38  1  0.46757800  0.91155000  0.74070800  1
  F  F39  1  0.00347200  0.86423500  0.39583700  1
  F  F40  1  0.22033200  0.31624300  0.52860200  1
  F  F41  1  0.19893800  0.83890700  0.96330600  1
  F  F42  1  0.53242200  0.08845000  0.25929200  1
  F  F43  1  0.92989300  0.67288100  0.07647600  1
  F  F44  1  0.14439000  0.46400000  0.61293100  1
  F  F45  1  0.57010700  0.67288100  0.57647600  1
  F  F46  1  0.77966800  0.68375700  0.47139800  1
  F  F47  1  0.09070000  0.22476600  0.12533300  1
  F  F48  1  0.64090400  0.20374600  0.38381300  1
  F  F49  1  0.62012300  0.94901100  0.48079300  1
  F  F50  1  0.86343800  0.37911900  0.61628200  1
  F  F51  1  0.49372900  0.12280600  0.81113900  1
  F  F52  1  0.50347200  0.13576500  0.10416300  1
  F  F53  1  0.85909600  0.20374600  0.88381300  1
  F  F54  1  0.69893800  0.16109300  0.53669400  1
  F  F55  1  0.87987700  0.94901100  0.98079300  1
  F  F56  1  0.36001800  0.03305800  0.98240800  1
  F  F57  1  0.63656200  0.37911900  0.11628200  1
  F  F58  1  0.83483700  0.61952000  0.79238500  1
  F  F59  1  0.81744000  0.05169600  0.22472800  1
  F  F60  1  0.67829400  0.80126600  0.81858100  1
  F  F61  1  0.07010700  0.32711900  0.92352400  1
  F  F62  1  0.70728900  0.01176700  0.87152300  1
  F  F63  1  0.99372900  0.87719400  0.68886100  1
  F  F64  1  0.03242200  0.91155000  0.24070800  1
  F  F65  1  0.29271100  0.98823300  0.12847700  1
  F  F66  1  0.35561000  0.46400000  0.11293100  1
  F  F67  1  0.00627100  0.12280600  0.31113900  1
  F  F68  1  0.32170600  0.19873400  0.18141900  1
  F  F69  1  0.62508900  0.21637100  0.92174300  1
  F  F70  1  0.37491100  0.78362900  0.07825700  1
  F  F71  1  0.33483700  0.38048000  0.70761500  1
loop_
_geom_bond_atom_site_label_1
_geom_bond_atom_site_label_2
_geom_bond_distance
_geom_bond_site_symmetry_2
N0 S7 1.690706 1_555
N0 S2 1.732552 1_555
N0 Xe1 2.127162 1_555
N1 S5 1.690706 1_555
N1 S0 1.732552 1_555
N1 Xe2 2.127162 1_555
N2 S6 1.690706 1_555
N2 S3 1.732552 1_555
N2 Xe3 2.127162 1_555
N3 S1 1.690706 1_555
N3 S4 1.732552 1_555
N3 Xe0 2.127162 1_555
O0 S6 1.427401 1_555
O1 S3 1.415472 1_555
O2 S3 1.422302 1_555
O3 S4 1.415472 1_555
O4 S4 1.422302 1_555
O5 S5 1.427401 1_555
O6 S2 1.415472 1_555
O7 S1 1.427401 1_555
O8 S0 1.415472 1_555
O9 S2 1.422302 1_555
O10 S5 1.415140 1_555
O11 S0 1.422302 1_555
O12 S6 1.415140 1_555
O13 S1 1.415140 1_555
O14 S7 1.415140 1_555
O15 S7 1.427401 1_555
F0 Sb9 1.910138 1_555
F1 Sb1 1.890499 1_555
F2 Sb8 1.884355 1_555
F3 Sb10 1.882093 1_554
F4 Sb3 1.896245 1_545
F5 Sb2 1.904345 1_555
F6 Sb2 1.890499 1_555
F7 Sb4 1.883144 1_555
F8 Sb11 2.016158 1_555
F8 Sb1 2.146438 1_555
F9 Sb6 2.016158 1_555
F9 Sb2 2.146438 1_555
F10 Sb6 2.041006 1_545
F10 Sb0 2.104914 1_555
F11 Sb5 1.896833 1_565
F12 Sb7 1.884165 1_545
F13 S3 1.581073 1_555
F14 S1 1.569328 1_555
F15 Sb9 1.890499 1_555
F16 Sb5 1.884165 1_565
F17 Sb3 1.978923 1_555
F17 Xe2 2.441377 1_455
F18 Sb3 1.882093 1_555
F19 Sb7 1.889585 1_555
F20 Sb11 1.889585 1_655
F21 Sb0 1.978923 1_555
F21 Xe0 2.441377 1_655
F22 Sb11 1.884165 1_565
F23 S4 1.581073 1_555
F24 Sb9 1.883144 1_555
F25 Sb3 1.884355 1_555
F26 Sb4 1.904345 1_555
F27 Sb3 1.885744 1_545
F28 Sb2 1.910744 1_555
F29 Sb4 1.910138 1_555
F30 Sb1 1.883144 1_555
F31 Sb11 2.041006 1_565
F31 Sb3 2.104914 1_555
F32 Sb8 1.885744 1_545
F33 Sb2 1.883144 1_555
F34 Sb11 1.882885 1_655
F35 Sb9 1.910744 1_555
F36 Sb10 1.896245 1_564
F37 Sb0 1.896245 1_565
F38 Sb7 1.882885 1_555
F39 Sb6 1.889585 1_455
F40 Sb1 1.910138 1_555
F41 Sb8 1.882093 1_556
F42 Sb5 1.882885 1_555
F43 S7 1.569328 1_555
F44 Sb1 1.910744 1_555
F45 S5 1.569328 1_555
F46 Sb2 1.910138 1_555
F47 Sb4 1.890499 1_555
F48 Sb0 1.884355 1_555
F49 Sb0 1.885744 1_565
F50 S0 1.581073 1_555
F51 Sb7 1.896833 1_545
F52 Sb5 1.889585 1_555
F53 Sb10 1.884355 1_555
F54 Sb0 1.882093 1_555
F55 Sb10 1.885744 1_565
F56 Sb8 1.896245 1_546
F57 S2 1.581073 1_555
F58 Sb9 1.904345 1_555
F59 Sb6 1.884165 1_545
F60 Sb7 2.016158 1_555
F60 Sb9 2.146438 1_555
F61 S6 1.569328 1_555
F62 Sb7 2.041006 1_545
F62 Sb10 2.104914 1_555
F63 Sb11 1.896833 1_665
F64 Sb6 1.882885 1_455
F65 Sb5 2.041006 1_565
F65 Sb8 2.104914 1_555
F66 Sb4 1.910744 1_555
F67 Sb6 1.896833 1_445
F68 Sb5 2.016158 1_555
F68 Sb4 2.146438 1_555
F69 Sb10 1.978923 1_555
F69 Xe3 2.441377 1_555
F70 Sb8 1.978923 1_555
F70 Xe1 2.441377 1_555
F71 Sb1 1.904345 1_555
