# generated using pymatgen
data_MnH9C4NO6
_symmetry_space_group_name_H-M   'P 1'
_cell_length_a   8.37085700
_cell_length_b   8.69675200
_cell_length_c   12.10755100
_cell_angle_alpha   90.00000000
_cell_angle_beta   90.00000000
_cell_angle_gamma   90.00000000
_symmetry_Int_Tables_number   1
_chemical_formula_structural   MnH9C4NO6
_chemical_formula_sum   'Mn4 H36 C16 N4 O24'
_cell_volume   881.42084228
_cell_formula_units_Z   4
loop_
 _symmetry_equiv_pos_site_id
 _symmetry_equiv_pos_as_xyz
  1  'x, y, z'
loop_
 _atom_site_type_symbol
 _atom_site_label
 _atom_site_symmetry_multiplicity
 _atom_site_fract_x
 _atom_site_fract_y
 _atom_site_fract_z
 _atom_site_occupancy
  Mn  Mn0  1  0.50000000  0.50000000  0.50000000  1
  Mn  Mn1  1  0.00000000  0.00000000  0.00000000  1
  Mn  Mn2  1  0.50000000  0.50000000  0.00000000  1
  Mn  Mn3  1  0.00000000  0.00000000  0.50000000  1
  H  H0  1  0.84671700  0.58570200  0.75000000  1
  H  H1  1  0.65328300  0.08570200  0.75000000  1
  H  H2  1  0.15328300  0.41429800  0.25000000  1
  H  H3  1  0.34671800  0.91429800  0.25000000  1
  H  H4  1  0.01258700  0.64255400  0.68039700  1
  H  H5  1  0.48741300  0.14255400  0.81960300  1
  H  H6  1  0.98741300  0.35744600  0.18039700  1
  H  H7  1  0.51258700  0.85744600  0.31960300  1
  H  H8  1  0.98741300  0.35744600  0.31960300  1
  H  H9  1  0.51258700  0.85744600  0.18039700  1
  H  H10  1  0.01258700  0.64255400  0.81960300  1
  H  H11  1  0.48741300  0.14255400  0.68039700  1
  H  H12  1  0.27740900  0.77646600  0.46661000  1
  H  H13  1  0.22259100  0.27646600  0.03339000  1
  H  H14  1  0.72259100  0.22353400  0.96661000  1
  H  H15  1  0.77740900  0.72353400  0.53339000  1
  H  H16  1  0.72259100  0.22353400  0.53339000  1
  H  H17  1  0.77740900  0.72353400  0.96661000  1
  H  H18  1  0.27740900  0.77646600  0.03339000  1
  H  H19  1  0.22259100  0.27646600  0.46661000  1
  H  H20  1  0.56882000  0.49809800  0.25000000  1
  H  H21  1  0.93118000  0.99809800  0.25000000  1
  H  H22  1  0.43118000  0.50190200  0.75000000  1
  H  H23  1  0.06882000  0.00190200  0.75000000  1
  H  H24  1  0.15403900  0.41429700  0.75000000  1
  H  H25  1  0.34596100  0.91429700  0.75000000  1
  H  H26  1  0.84596100  0.58570300  0.25000000  1
  H  H27  1  0.65403900  0.08570300  0.25000000  1
  H  H28  1  0.97683000  0.36318500  0.67612800  1
  H  H29  1  0.52317000  0.86318500  0.82387200  1
  H  H30  1  0.02317000  0.63681500  0.17612800  1
  H  H31  1  0.47683000  0.13681500  0.32387200  1
  H  H32  1  0.02317000  0.63681500  0.32387200  1
  H  H33  1  0.47683000  0.13681500  0.17612800  1
  H  H34  1  0.97683000  0.36318500  0.82387200  1
  H  H35  1  0.52317000  0.86318500  0.67612800  1
  C  C0  1  0.21447700  0.71460400  0.53378900  1
  C  C1  1  0.28552300  0.21460400  0.96621100  1
  C  C2  1  0.78552300  0.28539600  0.03378900  1
  C  C3  1  0.71447700  0.78539600  0.46621100  1
  C  C4  1  0.78552300  0.28539600  0.46621100  1
  C  C5  1  0.71447700  0.78539600  0.03378900  1
  C  C6  1  0.21447700  0.71460400  0.96621100  1
  C  C7  1  0.28552300  0.21460400  0.53378900  1
  C  C8  1  0.43800000  0.47889200  0.25000000  1
  C  C9  1  0.06200000  0.97889200  0.25000000  1
  C  C10  1  0.56200000  0.52110800  0.75000000  1
  C  C11  1  0.93800000  0.02110800  0.75000000  1
  C  C12  1  0.02373800  0.41986000  0.75000000  1
  C  C13  1  0.47626200  0.91986000  0.75000000  1
  C  C14  1  0.97626200  0.58014000  0.25000000  1
  C  C15  1  0.52373800  0.08014000  0.25000000  1
  N  N0  1  0.97073300  0.58293000  0.75000000  1
  N  N1  1  0.52926700  0.08293000  0.75000000  1
  N  N2  1  0.02926700  0.41707000  0.25000000  1
  N  N3  1  0.47073300  0.91707000  0.25000000  1
  O  O0  1  0.27903000  0.59606100  0.57428100  1
  O  O1  1  0.22097000  0.09606100  0.92571900  1
  O  O2  1  0.72097000  0.40393900  0.07428100  1
  O  O3  1  0.77903000  0.90393900  0.42571900  1
  O  O4  1  0.72097000  0.40393900  0.42571900  1
  O  O5  1  0.77903000  0.90393900  0.07428100  1
  O  O6  1  0.27903000  0.59606100  0.92571900  1
  O  O7  1  0.22097000  0.09606100  0.57428100  1
  O  O8  1  0.08024500  0.76967500  0.56536900  1
  O  O9  1  0.41975500  0.26967500  0.93463100  1
  O  O10  1  0.91975500  0.23032500  0.06536900  1
  O  O11  1  0.58024500  0.73032500  0.43463100  1
  O  O12  1  0.91975500  0.23032500  0.43463100  1
  O  O13  1  0.58024500  0.73032500  0.06536900  1
  O  O14  1  0.08024500  0.76967500  0.93463100  1
  O  O15  1  0.41975500  0.26967500  0.56536900  1
  O  O16  1  0.36716100  0.46813100  0.34255600  1
  O  O17  1  0.13283900  0.96813100  0.15744400  1
  O  O18  1  0.63283900  0.53186900  0.84255600  1
  O  O19  1  0.86716100  0.03186900  0.65744400  1
  O  O20  1  0.63283900  0.53186900  0.65744400  1
  O  O21  1  0.86716100  0.03186900  0.84255600  1
  O  O22  1  0.36716100  0.46813100  0.15744400  1
  O  O23  1  0.13283900  0.96813100  0.34255600  1
loop_
_geom_bond_atom_site_label_1
_geom_bond_atom_site_label_2
_geom_bond_distance
_geom_bond_site_symmetry_2
Mn0 O4 2.219954 1_555
Mn0 O0 2.219954 1_555
Mn0 O16 2.224217 1_555
Mn0 O20 2.224217 1_555
Mn0 O11 2.256090 1_555
Mn0 O15 2.256090 1_555
Mn1 O5 2.219954 1_445
Mn1 O1 2.219954 1_554
Mn1 O17 2.224217 1_545
Mn1 O21 2.224217 1_454
Mn1 O10 2.256090 1_455
Mn1 O14 2.256090 1_544
Mn2 O6 2.219954 1_554
Mn2 O2 2.219954 1_555
Mn2 O22 2.224217 1_555
Mn2 O18 2.224217 1_554
Mn2 O13 2.256090 1_555
Mn2 O9 2.256090 1_554
Mn3 O3 2.219954 1_445
Mn3 O7 2.219954 1_555
Mn3 O23 2.224217 1_545
Mn3 O19 2.224217 1_455
Mn3 O12 2.256090 1_455
Mn3 O8 2.256090 1_545
H0 N0 1.038400 1_555
H1 N1 1.038400 1_555
H2 N2 1.038400 1_555
H3 N3 1.038392 1_555
H4 N0 1.049670 1_455
H5 N1 1.049670 1_555
H6 N2 1.049670 1_655
H7 N3 1.049670 1_555
H8 N2 1.049670 1_655
H9 N3 1.049670 1_555
H10 N0 1.049670 1_455
H11 N1 1.049670 1_555
C0 H12 1.108391 1_555
C0 O0 1.263005 1_555
C0 O8 1.279898 1_555
C1 H13 1.108391 1_556
C1 O1 1.263005 1_555
C1 O9 1.279898 1_555
C2 H14 1.108391 1_554
C2 O2 1.263005 1_555
C2 O10 1.279898 1_555
C3 H15 1.108391 1_555
C3 O3 1.263005 1_555
C3 O11 1.279898 1_555
C4 H16 1.108391 1_555
C4 O4 1.263005 1_555
C4 O12 1.279898 1_555
C5 H17 1.108391 1_554
C5 O5 1.263005 1_555
C5 O13 1.279898 1_555
C6 H18 1.108391 1_556
C6 O6 1.263005 1_555
C6 O14 1.279898 1_555
C7 H19 1.108391 1_555
C7 O7 1.263005 1_555
C7 O15 1.279898 1_555
C8 H20 1.107741 1_555
C8 O22 1.271295 1_555
C8 O16 1.271295 1_555
C9 H21 1.107741 1_455
C9 O17 1.271295 1_555
C9 O23 1.271295 1_555
C10 H22 1.107741 1_555
C10 O18 1.271295 1_555
C10 O20 1.271295 1_555
C11 H23 1.107741 1_655
C11 O19 1.271295 1_555
C11 O21 1.271295 1_555
C12 H24 1.091803 1_555
C12 H34 1.094115 1_455
C12 H28 1.094115 1_455
C12 N0 1.485968 1_455
C13 H25 1.091803 1_555
C13 H35 1.094115 1_555
C13 H29 1.094115 1_555
C13 N1 1.485968 1_565
C14 H26 1.091803 1_555
C14 H32 1.094115 1_655
C14 H30 1.094115 1_655
C14 N2 1.485968 1_655
C15 H27 1.091803 1_555
C15 H33 1.094115 1_555
C15 H31 1.094115 1_555
C15 N3 1.485968 1_545
