# generated using pymatgen
data_Si3NCl9
_symmetry_space_group_name_H-M   'P 1'
_cell_length_a   9.40179600
_cell_length_b   10.16756636
_cell_length_c   10.90333120
_cell_angle_alpha   86.82316500
_cell_angle_beta   103.96100686
_cell_angle_gamma   115.73556114
_symmetry_Int_Tables_number   1
_chemical_formula_structural   Si3NCl9
_chemical_formula_sum   'Si6 N2 Cl18'
_cell_volume   909.71203492
_cell_formula_units_Z   2
loop_
 _symmetry_equiv_pos_site_id
 _symmetry_equiv_pos_as_xyz
  1  'x, y, z'
loop_
 _atom_site_type_symbol
 _atom_site_label
 _atom_site_symmetry_multiplicity
 _atom_site_fract_x
 _atom_site_fract_y
 _atom_site_fract_z
 _atom_site_occupancy
  Si  Si0  1  0.68322700  0.32044500  0.20111900  1
  Si  Si1  1  0.98757200  0.26890500  0.20952200  1
  Si  Si2  1  0.19363600  0.34664000  0.56058700  1
  Si  Si3  1  0.80636400  0.65336000  0.43941300  1
  Si  Si4  1  0.01242800  0.73109500  0.79047800  1
  Si  Si5  1  0.31677300  0.67955500  0.79888100  1
  N  N0  1  0.82257000  0.26301400  0.23752200  1
  N  N1  1  0.17743000  0.73698600  0.76247800  1
  Cl  Cl0  1  0.96278400  0.16494400  0.04445700  1
  Cl  Cl1  1  0.55253300  0.83091800  0.85575200  1
  Cl  Cl2  1  0.33301400  0.59402000  0.61192700  1
  Cl  Cl3  1  0.08538400  0.15615600  0.35256700  1
  Cl  Cl4  1  0.55524500  0.97140800  0.44603700  1
  Cl  Cl5  1  0.28845100  0.50022800  0.90181700  1
  Cl  Cl6  1  0.02109500  0.71624300  0.38900000  1
  Cl  Cl7  1  0.67056300  0.74335200  0.32145700  1
  Cl  Cl8  1  0.81726900  0.52871000  0.77991300  1
  Cl  Cl9  1  0.18273100  0.47129000  0.22008700  1
  Cl  Cl10  1  0.32943700  0.25664800  0.67854300  1
  Cl  Cl11  1  0.97890500  0.28375700  0.61100000  1
  Cl  Cl12  1  0.71154900  0.49977200  0.09818300  1
  Cl  Cl13  1  0.44475500  0.02859200  0.55396300  1
  Cl  Cl14  1  0.91461600  0.84384400  0.64743300  1
  Cl  Cl15  1  0.66698600  0.40598000  0.38807300  1
  Cl  Cl16  1  0.44746700  0.16908200  0.14424800  1
  Cl  Cl17  1  0.03721600  0.83505600  0.95554300  1
loop_
_geom_bond_atom_site_label_1
_geom_bond_atom_site_label_2
_geom_bond_distance
_geom_bond_site_symmetry_2
N0 Si0 1.613249 1_555
N0 Si1 1.627629 1_555
N1 Si5 1.613249 1_555
N1 Si4 1.627629 1_555
Cl0 Si1 2.050680 1_555
Cl1 Si5 2.036236 1_555
Cl2 Si2 2.301466 1_555
Cl2 Si5 2.323107 1_555
Cl3 Si1 2.148887 1_455
Cl3 Si2 2.755430 1_555
Cl5 Si5 2.037354 1_555
Cl6 Si3 2.040159 1_455
Cl7 Si3 2.052618 1_555
Cl8 Si4 2.063895 1_655
Cl9 Si1 2.063895 1_455
Cl10 Si2 2.052618 1_555
Cl11 Si2 2.040159 1_655
Cl12 Si0 2.037354 1_555
Cl13 Cl4 1.998027 1_545
Cl14 Si4 2.148887 1_655
Cl14 Si3 2.755430 1_555
Cl15 Si3 2.301466 1_555
Cl15 Si0 2.323107 1_555
Cl16 Si0 2.036236 1_555
Cl17 Si4 2.050680 1_555
