# generated using pymatgen
data_Li2Mo3S4
_symmetry_space_group_name_H-M   'P 1'
_cell_length_a   6.71076169
_cell_length_b   6.67163870
_cell_length_c   6.68355957
_cell_angle_alpha   94.73089287
_cell_angle_beta   95.92038987
_cell_angle_gamma   93.71768638
_symmetry_Int_Tables_number   1
_chemical_formula_structural   Li2Mo3S4
_chemical_formula_sum   'Li4 Mo6 S8'
_cell_volume   295.81162166
_cell_formula_units_Z   2
loop_
 _symmetry_equiv_pos_site_id
 _symmetry_equiv_pos_as_xyz
  1  'x, y, z'
loop_
 _atom_site_type_symbol
 _atom_site_label
 _atom_site_symmetry_multiplicity
 _atom_site_fract_x
 _atom_site_fract_y
 _atom_site_fract_z
 _atom_site_occupancy
  Li  Li0  1  0.12012515  0.97809866  0.89832207  1
  Li  Li1  1  0.61131623  0.03331027  0.98390838  1
  Li  Li2  1  0.96080739  0.03178097  0.38768530  1
  Li  Li3  1  0.99400794  0.52589034  0.01935213  1
  Mo  Mo0  1  0.23349081  0.41939958  0.54922117  1
  Mo  Mo1  1  0.45097377  0.76868359  0.59167165  1
  Mo  Mo2  1  0.40659831  0.55134679  0.24078143  1
  Mo  Mo3  1  0.58655343  0.45801321  0.76906870  1
  Mo  Mo4  1  0.54076642  0.24042036  0.41711363  1
  Mo  Mo5  1  0.75960486  0.59029093  0.46225121  1
  S  S0  1  0.12225440  0.71731586  0.37816279  1
  S  S1  1  0.28867293  0.63356107  0.87331978  1
  S  S2  1  0.20897316  0.22163186  0.21198801  1
  S  S3  1  0.37649848  0.13421469  0.71457949  1
  S  S4  1  0.61465489  0.87440791  0.29480616  1
  S  S5  1  0.78791138  0.78515976  0.79621144  1
  S  S6  1  0.70215530  0.37844867  0.13633775  1
  S  S7  1  0.87163413  0.29102346  0.63421791  1
loop_
_geom_bond_atom_site_label_1
_geom_bond_atom_site_label_2
_geom_bond_distance
_geom_bond_site_symmetry_2
Li0 S3 2.442825 1_565
Li0 S5 2.502402 1_455
Li0 S2 2.538688 1_566
Li0 S1 2.627503 1_555
Li1 S4 2.408096 1_546
Li1 S3 2.434939 1_555
Li1 S5 2.436722 1_545
Li1 S6 2.452458 1_556
Li2 S0 2.422073 1_645
Li2 S7 2.435578 1_555
Li2 S2 2.476284 1_655
Li2 S4 2.482444 1_545
Li3 S6 2.368085 1_555
Li3 S1 2.389231 1_654
Li3 S0 2.655044 1_655
Li3 S5 2.727520 1_554
Li3 S2 2.878693 1_655
Li3 S7 2.913293 1_554
Mo0 S1 2.475104 1_555
Mo0 S3 2.475350 1_555
Mo0 S0 2.491187 1_555
Mo0 S2 2.500584 1_555
Mo0 S7 2.654845 1_455
Mo1 S1 2.473454 1_555
Mo1 S0 2.488358 1_555
Mo1 S4 2.494145 1_555
Mo1 S5 2.509750 1_555
Mo1 S3 2.604632 1_565
Mo2 S4 2.470364 1_555
Mo2 S2 2.476678 1_555
Mo2 S0 2.485556 1_555
Mo2 S6 2.490240 1_555
Mo2 S1 2.614646 1_554
Mo3 S5 2.474720 1_555
Mo3 S3 2.481100 1_555
Mo3 S7 2.485956 1_555
Mo3 S1 2.511879 1_555
Mo3 S6 2.604704 1_556
Mo4 S6 2.473367 1_555
Mo4 S2 2.481670 1_555
Mo4 S3 2.500626 1_555
Mo4 S7 2.511348 1_555
Mo4 S4 2.605446 1_545
Mo5 S5 2.471879 1_555
Mo5 S6 2.477751 1_555
Mo5 S4 2.481152 1_555
Mo5 S7 2.503512 1_555
Mo5 S0 2.655181 1_655
