# generated using pymatgen
data_Li2CoCl4
_symmetry_space_group_name_H-M   'P 1'
_cell_length_a   5.74841200
_cell_length_b   5.74841200
_cell_length_c   7.92732700
_cell_angle_alpha   90.00000000
_cell_angle_beta   90.00000000
_cell_angle_gamma   90.00000000
_symmetry_Int_Tables_number   1
_chemical_formula_structural   Li2CoCl4
_chemical_formula_sum   'Li8 Co4 Cl16'
_cell_volume   261.95250008
_cell_formula_units_Z   4
loop_
 _symmetry_equiv_pos_site_id
 _symmetry_equiv_pos_as_xyz
  1  'x, y, z'
loop_
 _atom_site_type_symbol
 _atom_site_label
 _atom_site_symmetry_multiplicity
 _atom_site_fract_x
 _atom_site_fract_y
 _atom_site_fract_z
 _atom_site_occupancy
  Li  Li0  1  0.00000000  0.74801800  0.00000000  1
  Li  Li1  1  0.25198200  0.00000000  0.25000000  1
  Li  Li2  1  0.74801800  0.00000000  0.75000000  1
  Li  Li3  1  0.75084500  0.00000000  0.25000000  1
  Li  Li4  1  0.00000000  0.24915500  0.00000000  1
  Li  Li5  1  0.00000000  0.75084500  0.50000000  1
  Li  Li6  1  0.00000000  0.25198200  0.50000000  1
  Li  Li7  1  0.24915500  0.00000000  0.75000000  1
  Co  Co0  1  0.50000000  0.75188600  0.50000000  1
  Co  Co1  1  0.24811400  0.50000000  0.75000000  1
  Co  Co2  1  0.50000000  0.24811400  0.00000000  1
  Co  Co3  1  0.75188600  0.50000000  0.25000000  1
  Cl  Cl0  1  0.74808900  0.01506200  0.49768500  1
  Cl  Cl1  1  0.98493800  0.74808900  0.74768500  1
  Cl  Cl2  1  0.98493800  0.25191100  0.75231500  1
  Cl  Cl3  1  0.25191100  0.98493800  0.99768500  1
  Cl  Cl4  1  0.25191100  0.01506200  0.50231500  1
  Cl  Cl5  1  0.25320200  0.51103000  0.01833100  1
  Cl  Cl6  1  0.51103000  0.74679800  0.76833100  1
  Cl  Cl7  1  0.51103000  0.25320200  0.73166900  1
  Cl  Cl8  1  0.48897000  0.25320200  0.26833100  1
  Cl  Cl9  1  0.48897000  0.74679800  0.23166900  1
  Cl  Cl10  1  0.74679800  0.48897000  0.51833100  1
  Cl  Cl11  1  0.74808900  0.98493800  0.00231500  1
  Cl  Cl12  1  0.74679800  0.51103000  0.98166900  1
  Cl  Cl13  1  0.01506200  0.74808900  0.25231500  1
  Cl  Cl14  1  0.01506200  0.25191100  0.24768500  1
  Cl  Cl15  1  0.25320200  0.48897000  0.48166900  1
loop_
_geom_bond_atom_site_label_1
_geom_bond_atom_site_label_2
_geom_bond_distance
_geom_bond_site_symmetry_2
Cl0 Li3 1.965452 1_555
Cl0 Li6 1.987990 1_655
Cl0 Li2 2.002057 1_555
Cl0 Co0 2.079145 1_545
Cl0 Li5 2.098603 1_645
Cl1 Li5 1.965452 1_655
Cl1 Li2 1.987990 1_565
Cl1 Li0 2.002057 1_656
Cl1 Co1 2.079145 1_655
Cl1 Li7 2.098603 1_665
Cl2 Li4 1.965452 1_656
Cl2 Li2 1.987990 1_555
Cl2 Li6 2.002057 1_655
Cl2 Co1 2.079145 1_655
Cl2 Li7 2.098603 1_655
Cl3 Li7 1.965452 1_565
Cl3 Li0 1.987990 1_556
Cl3 Li1 2.002057 1_566
Cl3 Co2 2.079145 1_566
Cl3 Li4 2.098603 1_566
Cl4 Li7 1.965452 1_555
Cl4 Li6 1.987990 1_555
Cl4 Li1 2.002057 1_555
Cl4 Co0 2.079145 1_545
Cl4 Li5 2.098603 1_545
Cl5 Li0 1.998874 1_555
Cl5 Co2 2.077978 1_555
Cl5 Li4 2.098988 1_555
Cl5 Co1 2.128293 1_554
Cl6 Li2 1.998874 1_565
Cl6 Co1 2.077978 1_555
Cl6 Li7 2.098988 1_565
Cl6 Co0 2.128293 1_555
Cl7 Li2 1.998874 1_555
Cl7 Co1 2.077978 1_555
Cl7 Li7 2.098988 1_555
Cl7 Co2 2.128293 1_556
Cl8 Li1 1.998874 1_555
Cl8 Co3 2.077978 1_555
Cl8 Li3 2.098988 1_555
Cl8 Co2 2.128293 1_555
Cl9 Li1 1.998874 1_565
Cl9 Co3 2.077978 1_555
Cl9 Li3 2.098988 1_565
Cl9 Co0 2.128293 1_555
Cl10 Li6 1.998874 1_655
Cl10 Co0 2.077978 1_555
Cl10 Li5 2.098988 1_655
Cl10 Co3 2.128293 1_555
Cl11 Li3 1.965452 1_565
Cl11 Li0 1.987990 1_655
Cl11 Li2 2.002057 1_564
Cl11 Co2 2.079145 1_565
Cl11 Li4 2.098603 1_665
Cl12 Li0 1.998874 1_656
Cl12 Co2 2.077978 1_556
Cl12 Li4 2.098988 1_656
Cl12 Co3 2.128293 1_556
Cl13 Li5 1.965452 1_555
Cl13 Li1 1.987990 1_565
Cl13 Li0 2.002057 1_555
Cl13 Co3 2.079145 1_455
Cl13 Li3 2.098603 1_465
Cl14 Li4 1.965452 1_555
Cl14 Li1 1.987990 1_555
Cl14 Li6 2.002057 1_555
Cl14 Co3 2.079145 1_455
Cl14 Li3 2.098603 1_455
Cl15 Li6 1.998874 1_555
Cl15 Co0 2.077978 1_555
Cl15 Li5 2.098988 1_555
Cl15 Co1 2.128293 1_555
