# generated using pymatgen
data_Ba3MoN4
_symmetry_space_group_name_H-M   'P 1'
_cell_length_a   18.66712211
_cell_length_b   18.66712211
_cell_length_c   10.54457600
_cell_angle_alpha   90.00000000
_cell_angle_beta   90.00000000
_cell_angle_gamma   120.00000041
_symmetry_Int_Tables_number   1
_chemical_formula_structural   Ba3MoN4
_chemical_formula_sum   'Ba54 Mo18 N72'
_cell_volume   3182.10487032
_cell_formula_units_Z   18
loop_
 _symmetry_equiv_pos_site_id
 _symmetry_equiv_pos_as_xyz
  1  'x, y, z'
loop_
 _atom_site_type_symbol
 _atom_site_label
 _atom_site_symmetry_multiplicity
 _atom_site_fract_x
 _atom_site_fract_y
 _atom_site_fract_z
 _atom_site_occupancy
  Ba  Ba0  1  0.15240700  0.22913000  0.53243400  1
  Ba  Ba1  1  0.34738200  0.32621000  0.72378400  1
  Ba  Ba2  1  0.89875100  0.47218500  0.95871300  1
  Ba  Ba3  1  0.66666700  0.33333300  0.11686400  1
  Ba  Ba4  1  0.12159000  0.52052200  0.80418000  1
  Ba  Ba5  1  0.22131500  0.08299700  0.37916700  1
  Ba  Ba6  1  0.87841000  0.39893200  0.30418000  1
  Ba  Ba7  1  0.45091300  0.26404300  0.45518500  1
  Ba  Ba8  1  0.33117600  0.02160900  0.10246700  1
  Ba  Ba9  1  0.91700300  0.13831800  0.37916700  1
  Ba  Ba10  1  0.77868500  0.86168200  0.87916700  1
  Ba  Ba11  1  0.00000000  0.00000000  0.19276800  1
  Ba  Ba12  1  0.39893200  0.87841000  0.80418000  1
  Ba  Ba13  1  0.33333300  0.66666700  0.14124600  1
  Ba  Ba14  1  0.13831800  0.91700300  0.87916700  1
  Ba  Ba15  1  0.67379000  0.02117200  0.72378400  1
  Ba  Ba16  1  0.57343300  0.10124900  0.95871300  1
  Ba  Ba17  1  0.02160900  0.33117600  0.60246700  1
  Ba  Ba18  1  0.26404300  0.45091300  0.95518500  1
  Ba  Ba19  1  0.52052200  0.12159000  0.30418000  1
  Ba  Ba20  1  0.33333300  0.66666700  0.61686400  1
  Ba  Ba21  1  0.07672300  0.84759300  0.53243400  1
  Ba  Ba22  1  0.54908700  0.81313000  0.95518500  1
  Ba  Ba23  1  0.43617700  0.18416000  0.79803700  1
  Ba  Ba24  1  0.22913000  0.15240700  0.03243400  1
  Ba  Ba25  1  0.10124900  0.57343300  0.45871300  1
  Ba  Ba26  1  0.52781500  0.42656700  0.95871300  1
  Ba  Ba27  1  0.86168200  0.77868500  0.37916700  1
  Ba  Ba28  1  0.84759300  0.07672300  0.03243400  1
  Ba  Ba29  1  0.97839100  0.30956700  0.10246700  1
  Ba  Ba30  1  0.65261800  0.97882800  0.22378400  1
  Ba  Ba31  1  0.00000000  0.00000000  0.69276800  1
  Ba  Ba32  1  0.60106800  0.47947800  0.30418000  1
  Ba  Ba33  1  0.47218500  0.89875100  0.45871300  1
  Ba  Ba34  1  0.47947800  0.60106800  0.80418000  1
  Ba  Ba35  1  0.32621000  0.34738200  0.22378400  1
  Ba  Ba36  1  0.77087000  0.92327700  0.53243400  1
  Ba  Ba37  1  0.18687000  0.73595700  0.95518500  1
  Ba  Ba38  1  0.02117200  0.67379000  0.22378400  1
  Ba  Ba39  1  0.30956700  0.97839100  0.60246700  1
  Ba  Ba40  1  0.92327700  0.77087000  0.03243400  1
  Ba  Ba41  1  0.81584000  0.25201700  0.79803700  1
  Ba  Ba42  1  0.69043300  0.66882400  0.10246700  1
  Ba  Ba43  1  0.08299700  0.22131500  0.87916700  1
  Ba  Ba44  1  0.81313000  0.54908700  0.45518500  1
  Ba  Ba45  1  0.97882800  0.65261800  0.72378400  1
  Ba  Ba46  1  0.66666700  0.33333300  0.64124600  1
  Ba  Ba47  1  0.74798300  0.56382300  0.79803700  1
  Ba  Ba48  1  0.56382300  0.74798300  0.29803700  1
  Ba  Ba49  1  0.18416000  0.43617700  0.29803700  1
  Ba  Ba50  1  0.42656700  0.52781500  0.45871300  1
  Ba  Ba51  1  0.73595700  0.18687000  0.45518500  1
  Ba  Ba52  1  0.66882400  0.69043300  0.60246700  1
  Ba  Ba53  1  0.25201700  0.81584000  0.29803700  1
  Mo  Mo0  1  0.76464700  0.20442800  0.12019900  1
  Mo  Mo1  1  0.77320200  0.87832600  0.21309900  1
  Mo  Mo2  1  0.56021900  0.79557200  0.62019900  1
  Mo  Mo3  1  0.10512400  0.22679800  0.21309900  1
  Mo  Mo4  1  0.87832600  0.77320200  0.71309900  1
  Mo  Mo5  1  0.22679800  0.10512400  0.71309900  1
  Mo  Mo6  1  0.12167400  0.89487600  0.21309900  1
  Mo  Mo7  1  0.44195300  0.88999000  0.12422400  1
  Mo  Mo8  1  0.55196300  0.11001000  0.62422400  1
  Mo  Mo9  1  0.20442800  0.76464700  0.62019900  1
  Mo  Mo10  1  0.55804700  0.44803700  0.62422400  1
  Mo  Mo11  1  0.88999000  0.44195300  0.62422400  1
  Mo  Mo12  1  0.23535300  0.43978100  0.62019900  1
  Mo  Mo13  1  0.11001000  0.55196300  0.12422400  1
  Mo  Mo14  1  0.79557200  0.56021900  0.12019900  1
  Mo  Mo15  1  0.89487600  0.12167400  0.71309900  1
  Mo  Mo16  1  0.43978100  0.23535300  0.12019900  1
  Mo  Mo17  1  0.44803700  0.55804700  0.12422400  1
  N  N0  1  0.80163200  0.47439100  0.20618600  1
  N  N1  1  0.31176700  0.18068400  0.60308000  1
  N  N2  1  0.30885800  0.82792700  0.54360300  1
  N  N3  1  0.73075900  0.12114000  0.99624600  1
  N  N4  1  0.53234100  0.18865100  0.54409900  1
  N  N5  1  0.14780300  0.01158300  0.62193700  1
  N  N6  1  0.83682700  0.19469400  0.23555900  1
  N  N7  1  0.16099200  0.17782300  0.28896400  1
  N  N8  1  0.64213200  0.80530600  0.73555900  1
  N  N9  1  0.80530600  0.64213200  0.23555900  1
  N  N10  1  0.46765900  0.65630900  0.04409900  1
  N  N11  1  0.67275900  0.19836800  0.20618600  1
  N  N12  1  0.17207300  0.48093100  0.54360300  1
  N  N13  1  0.83900800  0.01683100  0.78896400  1
  N  N14  1  0.69114200  0.51906900  0.04360300  1
  N  N15  1  0.52047000  0.94304100  0.99441100  1
  N  N16  1  0.79756300  0.72689400  0.84189000  1
  N  N17  1  0.42257100  0.47953000  0.99441100  1
  N  N18  1  0.47439100  0.80163200  0.70618600  1
  N  N19  1  0.94304100  0.52047000  0.49441100  1
  N  N20  1  0.27310600  0.07066800  0.84189000  1
  N  N21  1  0.60962000  0.87886000  0.49624600  1
  N  N22  1  0.98316900  0.82217700  0.78896400  1
  N  N23  1  0.07066800  0.27310600  0.34189000  1
  N  N24  1  0.05695900  0.57742900  0.99441100  1
  N  N25  1  0.20243700  0.92933200  0.34189000  1
  N  N26  1  0.42308400  0.96281000  0.22697600  1
  N  N27  1  0.13622000  0.98841700  0.12193700  1
  N  N28  1  0.86378000  0.85219700  0.62193700  1
  N  N29  1  0.48080600  0.83361900  0.22605200  1
  N  N30  1  0.48093100  0.17207300  0.04360300  1
  N  N31  1  0.81931600  0.13108300  0.60308000  1
  N  N32  1  0.12114000  0.73075900  0.49624600  1
  N  N33  1  0.13108300  0.81931600  0.10308000  1
  N  N34  1  0.16317300  0.35786800  0.73555900  1
  N  N35  1  0.51919400  0.35281200  0.72605200  1
  N  N36  1  0.19836800  0.67275900  0.70618600  1
  N  N37  1  0.87886000  0.60962000  0.99624600  1
  N  N38  1  0.96281000  0.42308400  0.72697600  1
  N  N39  1  0.03719000  0.46027400  0.22697600  1
  N  N40  1  0.53972600  0.57691600  0.22697600  1
  N  N41  1  0.35281200  0.51919400  0.22605200  1
  N  N42  1  0.17782300  0.16099200  0.78896400  1
  N  N43  1  0.18068400  0.31176700  0.10308000  1
  N  N44  1  0.68823300  0.86891700  0.10308000  1
  N  N45  1  0.18865100  0.53234100  0.04409900  1
  N  N46  1  0.34369100  0.81134900  0.04409900  1
  N  N47  1  0.01683100  0.83900800  0.28896400  1
  N  N48  1  0.51906900  0.69114200  0.54360300  1
  N  N49  1  0.72689400  0.79756300  0.34189000  1
  N  N50  1  0.32724100  0.52560900  0.70618600  1
  N  N51  1  0.01158300  0.14780300  0.12193700  1
  N  N52  1  0.82792700  0.30885800  0.04360300  1
  N  N53  1  0.19469400  0.83682700  0.73555900  1
  N  N54  1  0.57742900  0.05695900  0.49441100  1
  N  N55  1  0.65630900  0.46765900  0.54409900  1
  N  N56  1  0.92933200  0.20243700  0.84189000  1
  N  N57  1  0.82217700  0.98316900  0.28896400  1
  N  N58  1  0.16638100  0.64718800  0.22605200  1
  N  N59  1  0.39038000  0.26924100  0.99624600  1
  N  N60  1  0.64718800  0.16638100  0.72605200  1
  N  N61  1  0.83361900  0.48080600  0.72605200  1
  N  N62  1  0.35786800  0.16317300  0.23555900  1
  N  N63  1  0.85219700  0.86378000  0.12193700  1
  N  N64  1  0.46027400  0.03719000  0.72697600  1
  N  N65  1  0.86891700  0.68823300  0.60308000  1
  N  N66  1  0.47953000  0.42257100  0.49441100  1
  N  N67  1  0.57691600  0.53972600  0.72697600  1
  N  N68  1  0.26924100  0.39038000  0.49624600  1
  N  N69  1  0.52560900  0.32724100  0.20618600  1
  N  N70  1  0.81134900  0.34369100  0.54409900  1
  N  N71  1  0.98841700  0.13622000  0.62193700  1
loop_
_geom_bond_atom_site_label_1
_geom_bond_atom_site_label_2
_geom_bond_distance
_geom_bond_site_symmetry_2
Ba0 N68 2.719904 1_555
Ba0 N7 2.772621 1_555
Ba0 N71 2.821440 1_455
Ba0 N23 2.879500 1_555
Ba0 N42 3.124647 1_555
Ba0 N34 3.149640 1_555
Ba1 N1 2.763251 1_555
Ba1 N35 2.990129 1_555
Ba1 N42 3.200127 1_555
Ba1 N66 3.276184 1_555
Ba1 N59 3.298916 1_555
Ba1 N68 3.326634 1_555
Ba2 N24 2.630823 1_655
Ba2 N61 2.778225 1_555
Ba2 N52 2.795316 1_556
Ba2 N37 2.798030 1_555
Ba2 N38 3.055667 1_555
Ba2 N0 3.189444 1_556
Ba3 N11 2.744806 1_555
Ba3 N0 2.744816 1_555
Ba3 N69 2.744824 1_555
Ba3 N52 3.352982 1_555
Ba3 N30 3.352993 1_555
Ba3 N14 3.353000 1_555
Ba4 N36 2.669242 1_555
Ba4 N38 2.713864 1_455
Ba4 N45 2.782030 1_556
Ba4 N24 2.808794 1_555
Ba4 N12 3.111339 1_555
Ba5 N62 2.686196 1_555
Ba5 N7 2.701724 1_555
Ba5 N25 2.737889 1_545
Ba5 N5 2.895514 1_555
Ba5 N1 2.944806 1_555
Ba5 N27 3.192629 1_545
Ba6 N0 2.669242 1_555
Ba6 N39 2.713864 1_655
Ba6 N70 2.782027 1_555
Ba6 N19 2.808794 1_555
Ba6 N52 3.111339 1_555
Ba7 N4 2.703581 1_555
Ba7 N1 2.749239 1_555
Ba7 N66 2.762761 1_555
Ba7 N69 2.929974 1_555
Ba7 N62 2.941942 1_555
Ba7 N35 3.227403 1_555
Ba8 N26 2.784787 1_545
Ba8 N62 2.807914 1_555
Ba8 N30 2.870057 1_555
Ba8 N20 3.249024 1_554
Ba8 N25 3.313087 1_545
Ba8 N27 3.378673 1_545
Ba9 N6 2.686184 1_555
Ba9 N57 2.701724 1_545
Ba9 N23 2.737897 1_655
Ba9 N71 2.895514 1_555
Ba9 N31 2.944806 1_555
Ba9 N51 3.192629 1_655
Ba10 N8 2.686198 1_555
Ba10 N13 2.701724 1_565
Ba10 N16 2.737908 1_555
Ba10 N63 2.895514 1_556
Ba10 N44 2.944806 1_556
Ba10 N28 3.192629 1_555
Ba11 N63 2.760509 1_445
Ba11 N51 2.760509 1_555
Ba11 N27 2.760509 1_545
Ba11 N7 3.332175 1_555
Ba11 N57 3.332175 1_445
Ba11 N47 3.332175 1_545
Ba12 N18 2.669242 1_555
Ba12 N64 2.713864 1_565
Ba12 N46 2.782027 1_556
Ba12 N15 2.808794 1_555
Ba12 N2 3.111339 1_555
Ba13 N46 2.803359 1_555
Ba13 N45 2.803374 1_555
Ba13 N10 2.803393 1_555
Ba13 N29 3.084044 1_555
Ba13 N58 3.084044 1_555
Ba13 N41 3.084044 1_555
Ba14 N53 2.686184 1_555
Ba14 N22 2.701724 1_455
Ba14 N20 2.737897 1_565
Ba14 N27 2.895514 1_556
Ba14 N33 2.944806 1_556
Ba14 N5 3.192629 1_565
Ba15 N31 2.763251 1_555
Ba15 N60 2.990110 1_555
Ba15 N13 3.200127 1_555
Ba15 N54 3.276184 1_555
Ba15 N3 3.298924 1_555
Ba15 N21 3.326646 1_545
Ba16 N15 2.630826 1_545
Ba16 N60 2.778235 1_555
Ba16 N30 2.795300 1_556
Ba16 N3 2.798030 1_555
Ba16 N64 3.055658 1_555
Ba16 N11 3.189450 1_556
Ba17 N38 2.784787 1_455
Ba17 N34 2.807914 1_555
Ba17 N12 2.870057 1_555
Ba17 N23 3.249024 1_555
Ba17 N56 3.313087 1_455
Ba17 N71 3.378673 1_455
Ba18 N45 2.703581 1_556
Ba18 N43 2.749239 1_556
Ba18 N17 2.762761 1_555
Ba18 N50 2.929974 1_555
Ba18 N34 2.941942 1_555
Ba18 N41 3.227403 1_556
Ba19 N11 2.669242 1_555
Ba19 N26 2.713864 1_545
Ba19 N4 2.782030 1_555
Ba19 N54 2.808794 1_555
Ba19 N30 3.111339 1_555
Ba20 N36 2.744806 1_555
Ba20 N18 2.744816 1_555
Ba20 N50 2.744824 1_555
Ba20 N2 3.352982 1_555
Ba20 N12 3.352993 1_555
Ba20 N48 3.353000 1_555
Ba21 N32 2.719918 1_555
Ba21 N47 2.772621 1_555
Ba21 N5 2.821440 1_565
Ba21 N25 2.879490 1_555
Ba21 N22 3.124647 1_455
Ba21 N53 3.149627 1_555
Ba22 N10 2.703596 1_556
Ba22 N44 2.749239 1_556
Ba22 N15 2.762761 1_555
Ba22 N18 2.929974 1_555
Ba22 N8 2.941936 1_555
Ba22 N29 3.227408 1_556
Ba23 N20 2.742159 1_555
Ba23 N30 2.764468 1_556
Ba23 N35 2.830257 1_555
Ba23 N59 2.996544 1_555
Ba23 N1 3.077826 1_555
Ba23 N64 3.086215 1_555
Ba23 N4 3.201382 1_555
Ba24 N59 2.719904 1_554
Ba24 N42 2.772621 1_554
Ba24 N27 2.821440 1_545
Ba24 N20 2.879500 1_554
Ba24 N7 3.124647 1_555
Ba24 N62 3.149640 1_555
Ba25 N19 2.630826 1_455
Ba25 N58 2.778235 1_555
Ba25 N12 2.795300 1_555
Ba25 N32 2.798030 1_555
Ba25 N39 3.055658 1_555
Ba25 N36 3.189450 1_555
Ba26 N17 2.630809 1_555
Ba26 N35 2.778242 1_555
Ba26 N14 2.795314 1_556
Ba26 N59 2.798030 1_555
Ba26 N67 3.055657 1_555
Ba26 N69 3.189455 1_556
Ba27 N9 2.686198 1_555
Ba27 N47 2.701724 1_655
Ba27 N49 2.737908 1_555
Ba27 N28 2.895514 1_555
Ba27 N65 2.944806 1_555
Ba27 N63 3.192629 1_555
Ba28 N3 2.719918 1_554
Ba28 N13 2.772621 1_554
Ba28 N51 2.821440 1_655
Ba28 N56 2.879490 1_554
Ba28 N57 3.124647 1_545
Ba28 N6 3.149627 1_555
Ba29 N39 2.784787 1_655
Ba29 N6 2.807920 1_555
Ba29 N52 2.870057 1_555
Ba29 N56 3.249033 1_554
Ba29 N23 3.313079 1_655
Ba29 N51 3.378673 1_655
Ba30 N44 2.763251 1_555
Ba30 N29 2.990122 1_555
Ba30 N57 3.200127 1_555
Ba30 N15 3.276184 1_554
Ba30 N21 3.298924 1_555
Ba30 N3 3.326645 1_564
Ba31 N28 2.760509 1_445
Ba31 N5 2.760509 1_555
Ba31 N71 2.760509 1_455
Ba31 N42 3.332175 1_555
Ba31 N22 3.332175 1_445
Ba31 N13 3.332175 1_455
Ba32 N69 2.669242 1_555
Ba32 N40 2.713864 1_555
Ba32 N55 2.782023 1_555
Ba32 N66 2.808794 1_555
Ba32 N14 3.111339 1_555
Ba33 N54 2.630823 1_565
Ba33 N29 2.778225 1_555
Ba33 N2 2.795316 1_555
Ba33 N21 2.798030 1_555
Ba33 N26 3.055667 1_555
Ba33 N18 3.189444 1_555
Ba34 N50 2.669242 1_555
Ba34 N67 2.713864 1_555
Ba34 N10 2.782023 1_556
Ba34 N17 2.808794 1_555
Ba34 N48 3.111339 1_555
Ba35 N43 2.763251 1_555
Ba35 N41 2.990129 1_555
Ba35 N7 3.200127 1_555
Ba35 N17 3.276184 1_554
Ba35 N68 3.298916 1_555
Ba35 N59 3.326634 1_554
Ba36 N21 2.719900 1_555
Ba36 N57 2.772621 1_555
Ba36 N28 2.821440 1_555
Ba36 N49 2.879487 1_555
Ba36 N13 3.124647 1_565
Ba36 N8 3.149634 1_555
Ba37 N46 2.703596 1_556
Ba37 N33 2.749239 1_556
Ba37 N24 2.762761 1_555
Ba37 N36 2.929974 1_555
Ba37 N53 2.941947 1_555
Ba37 N58 3.227400 1_556
Ba38 N33 2.763251 1_555
Ba38 N58 2.990110 1_555
Ba38 N47 3.200127 1_555
Ba38 N24 3.276184 1_554
Ba38 N32 3.298924 1_555
Ba38 N37 3.326646 1_454
Ba39 N64 2.784787 1_565
Ba39 N53 2.807920 1_555
Ba39 N2 2.870057 1_555
Ba39 N25 3.249033 1_555
Ba39 N20 3.313079 1_565
Ba39 N5 3.378673 1_565
Ba40 N37 2.719900 1_554
Ba40 N22 2.772621 1_554
Ba40 N63 2.821440 1_555
Ba40 N16 2.879487 1_554
Ba40 N47 3.124647 1_655
Ba40 N9 3.149634 1_555
Ba41 N56 2.742172 1_555
Ba41 N52 2.764468 1_556
Ba41 N60 2.830257 1_555
Ba41 N3 2.996533 1_555
Ba41 N31 3.077826 1_555
Ba41 N38 3.086215 1_555
Ba41 N70 3.201392 1_555
Ba42 N40 2.784787 1_555
Ba42 N9 2.807930 1_555
Ba42 N14 2.870057 1_555
Ba42 N16 3.249032 1_554
Ba42 N49 3.313090 1_555
Ba42 N63 3.378673 1_555
Ba43 N34 2.686196 1_555
Ba43 N42 2.701724 1_555
Ba43 N56 2.737889 1_455
Ba43 N51 2.895514 1_556
Ba43 N43 2.944806 1_556
Ba43 N71 3.192629 1_455
Ba44 N55 2.703596 1_555
Ba44 N65 2.749239 1_555
Ba44 N19 2.762761 1_555
Ba44 N0 2.929974 1_555
Ba44 N9 2.941936 1_555
Ba44 N61 3.227408 1_555
Ba45 N65 2.763251 1_555
Ba45 N61 2.990122 1_555
Ba45 N22 3.200127 1_555
Ba45 N19 3.276184 1_555
Ba45 N37 3.298924 1_555
Ba45 N32 3.326645 1_655
Ba46 N70 2.803359 1_555
Ba46 N4 2.803374 1_555
Ba46 N55 2.803393 1_555
Ba46 N61 3.084044 1_555
Ba46 N60 3.084044 1_555
Ba46 N35 3.084044 1_555
Ba47 N16 2.742155 1_555
Ba47 N14 2.764468 1_556
Ba47 N61 2.830272 1_555
Ba47 N37 2.996531 1_555
Ba47 N65 3.077826 1_555
Ba47 N67 3.086215 1_555
Ba47 N55 3.201387 1_555
Ba48 N49 2.742155 1_555
Ba48 N48 2.764468 1_555
Ba48 N29 2.830272 1_555
Ba48 N21 2.996531 1_555
Ba48 N44 3.077826 1_555
Ba48 N40 3.086215 1_555
Ba48 N10 3.201387 1_555
Ba49 N23 2.742159 1_555
Ba49 N12 2.764468 1_555
Ba49 N41 2.830257 1_555
Ba49 N68 2.996544 1_555
Ba49 N43 3.077826 1_555
Ba49 N39 3.086215 1_555
Ba49 N45 3.201382 1_555
Ba50 N66 2.630809 1_555
Ba50 N41 2.778242 1_555
Ba50 N48 2.795314 1_555
Ba50 N68 2.798030 1_555
Ba50 N40 3.055657 1_555
Ba50 N50 3.189455 1_555
Ba51 N70 2.703596 1_555
Ba51 N31 2.749239 1_555
Ba51 N54 2.762761 1_555
Ba51 N11 2.929974 1_555
Ba51 N6 2.941947 1_555
Ba51 N60 3.227400 1_555
Ba52 N67 2.784787 1_555
Ba52 N8 2.807930 1_555
Ba52 N48 2.870057 1_555
Ba52 N49 3.249032 1_555
Ba52 N16 3.313090 1_555
Ba52 N28 3.378673 1_555
Ba53 N25 2.742172 1_555
Ba53 N2 2.764468 1_555
Ba53 N58 2.830257 1_555
Ba53 N32 2.996533 1_555
Ba53 N33 3.077826 1_555
Ba53 N26 3.086215 1_555
Ba53 N46 3.201392 1_555
Mo0 N3 1.882080 1_554
Mo0 N52 1.882854 1_555
Mo0 N6 1.890237 1_555
Mo0 N11 1.892897 1_555
Mo1 N57 1.875317 1_555
Mo1 N49 1.887115 1_555
Mo1 N63 1.890142 1_555
Mo1 N44 1.901027 1_555
Mo2 N21 1.882081 1_555
Mo2 N48 1.882854 1_555
Mo2 N8 1.890223 1_555
Mo2 N18 1.892897 1_555
Mo3 N7 1.875317 1_555
Mo3 N23 1.887125 1_555
Mo3 N51 1.890142 1_555
Mo3 N43 1.901027 1_555
Mo4 N22 1.875317 1_555
Mo4 N16 1.887115 1_555
Mo4 N28 1.890142 1_555
Mo4 N65 1.901027 1_555
Mo5 N42 1.875317 1_555
Mo5 N20 1.887125 1_555
Mo5 N5 1.890142 1_555
Mo5 N1 1.901027 1_555
Mo6 N47 1.875317 1_555
Mo6 N25 1.887114 1_555
Mo6 N27 1.890142 1_555
Mo6 N33 1.901027 1_555
Mo7 N46 1.881672 1_555
Mo7 N29 1.883991 1_555
Mo7 N15 1.884448 1_554
Mo7 N26 1.903836 1_555
Mo8 N4 1.881683 1_555
Mo8 N60 1.884003 1_555
Mo8 N54 1.884448 1_555
Mo8 N64 1.903836 1_555
Mo9 N32 1.882080 1_555
Mo9 N2 1.882854 1_555
Mo9 N53 1.890237 1_555
Mo9 N36 1.892897 1_555
Mo10 N55 1.881667 1_555
Mo10 N35 1.884005 1_555
Mo10 N66 1.884448 1_555
Mo10 N67 1.903836 1_555
Mo11 N70 1.881672 1_555
Mo11 N61 1.883991 1_555
Mo11 N19 1.884448 1_555
Mo11 N38 1.903836 1_555
Mo12 N68 1.882092 1_555
Mo12 N12 1.882854 1_555
Mo12 N34 1.890229 1_555
Mo12 N50 1.892897 1_555
Mo13 N45 1.881683 1_555
Mo13 N58 1.884003 1_555
Mo13 N24 1.884448 1_554
Mo13 N39 1.903836 1_555
Mo14 N37 1.882081 1_554
Mo14 N14 1.882854 1_555
Mo14 N9 1.890223 1_555
Mo14 N0 1.892897 1_555
Mo15 N13 1.875317 1_555
Mo15 N56 1.887114 1_555
Mo15 N71 1.890142 1_555
Mo15 N31 1.901027 1_555
Mo16 N59 1.882092 1_554
Mo16 N30 1.882854 1_555
Mo16 N62 1.890229 1_555
Mo16 N69 1.892897 1_555
Mo17 N10 1.881667 1_555
Mo17 N41 1.884005 1_555
Mo17 N17 1.884448 1_554
Mo17 N40 1.903836 1_555
