# generated using pymatgen
data_KNb3F9
_symmetry_space_group_name_H-M   'P 1'
_cell_length_a   7.99393200
_cell_length_b   8.00381558
_cell_length_c   8.34360836
_cell_angle_alpha   89.15385133
_cell_angle_beta   88.99914180
_cell_angle_gamma   60.06314690
_symmetry_Int_Tables_number   1
_chemical_formula_structural   KNb3F9
_chemical_formula_sum   'K2 Nb6 F18'
_cell_volume   462.53138467
_cell_formula_units_Z   2
loop_
 _symmetry_equiv_pos_site_id
 _symmetry_equiv_pos_as_xyz
  1  'x, y, z'
loop_
 _atom_site_type_symbol
 _atom_site_label
 _atom_site_symmetry_multiplicity
 _atom_site_fract_x
 _atom_site_fract_y
 _atom_site_fract_z
 _atom_site_occupancy
  K  K0  1  0.96839600  0.51835600  0.24528700  1
  K  K1  1  0.02236400  0.49512600  0.75034500  1
  Nb  Nb0  1  0.49818000  0.99945500  0.99589700  1
  Nb  Nb1  1  0.49934600  0.50020100  0.00328000  1
  Nb  Nb2  1  0.00020300  0.99945300  0.49965700  1
  Nb  Nb3  1  0.99979000  0.99994400  0.99988900  1
  Nb  Nb4  1  0.49945700  0.50017400  0.50321100  1
  Nb  Nb5  1  0.49934600  0.99997300  0.49623100  1
  F  F0  1  0.53846500  0.51200000  0.75252600  1
  F  F1  1  0.45727900  0.05262100  0.24598700  1
  F  F2  1  0.80614800  0.30595100  0.47765700  1
  F  F3  1  0.19285300  0.11294500  0.52036900  1
  F  F4  1  0.80724200  0.30774200  0.02951100  1
  F  F5  1  0.19328600  0.11108700  0.96361000  1
  F  F6  1  0.39456900  0.30121600  0.54258000  1
  F  F7  1  0.60384800  0.69794200  0.45695500  1
  F  F8  1  0.03967200  0.97986400  0.24939300  1
  F  F9  1  0.96004200  0.01815900  0.74998800  1
  F  F10  1  0.39261100  0.30459800  0.96422500  1
  F  F11  1  0.60625800  0.69625400  0.03446200  1
  F  F12  1  0.80730600  0.88580300  0.47215500  1
  F  F13  1  0.19317700  0.69408100  0.52986600  1
  F  F14  1  0.80504900  0.88604500  0.02720900  1
  F  F15  1  0.19236600  0.69351700  0.97931500  1
  F  F16  1  0.54322300  0.94422900  0.74593200  1
  F  F17  1  0.46065400  0.48704600  0.25385500  1
loop_
_geom_bond_atom_site_label_1
_geom_bond_atom_site_label_2
_geom_bond_distance
_geom_bond_site_symmetry_2
F0 Nb1 2.117726 1_556
F0 Nb4 2.119270 1_555
F1 Nb0 2.122646 1_544
F1 Nb5 2.123027 1_545
F2 Nb2 2.157893 1_645
F2 Nb4 2.158774 1_555
F2 K0 3.216659 1_555
F3 Nb2 2.153340 1_545
F3 Nb5 2.153614 1_545
F3 K1 3.288965 1_555
F4 Nb1 2.168743 1_555
F4 Nb3 2.172413 1_544
F4 K0 3.175002 1_555
F5 Nb3 2.150481 1_445
F5 Nb0 2.157226 1_545
F5 K1 3.195754 1_555
F6 Nb4 2.157386 1_555
F6 Nb5 2.159875 1_545
F6 K1 3.091433 1_555
F7 Nb4 2.154067 1_555
F7 Nb5 2.155763 1_555
F7 K0 3.064618 1_555
F8 Nb2 2.102758 1_555
F8 Nb3 2.103182 1_454
F9 Nb2 2.103767 1_645
F9 Nb3 2.106582 1_545
F10 Nb1 2.154814 1_556
F10 Nb0 2.162975 1_545
F10 K1 3.141551 1_555
F11 Nb1 2.149131 1_555
F11 Nb0 2.152480 1_554
F11 K0 3.080899 1_555
F12 Nb2 2.162493 1_655
F12 Nb5 2.163039 1_555
F12 K0 3.192173 1_555
F13 Nb2 2.156210 1_555
F13 Nb4 2.156681 1_555
F13 K1 3.127343 1_555
F14 Nb0 2.168590 1_554
F14 Nb3 2.168965 1_554
F14 K0 3.125058 1_555
F15 Nb3 2.156229 1_455
F15 Nb1 2.162017 1_556
F15 K1 3.217463 1_555
F16 Nb5 2.122394 1_555
F16 Nb0 2.125309 1_555
F17 Nb1 2.116882 1_555
F17 Nb4 2.120705 1_555
