# generated using pymatgen
data_Cs2Ce10Os2I17
_symmetry_space_group_name_H-M   'P 1'
_cell_length_a   9.92960537
_cell_length_b   11.65109411
_cell_length_c   11.65109401
_cell_angle_alpha   107.56834719
_cell_angle_beta   93.61138139
_cell_angle_gamma   93.61138453
_symmetry_Int_Tables_number   1
_chemical_formula_structural   Cs2Ce10Os2I17
_chemical_formula_sum   'Cs2 Ce10 Os2 I17'
_cell_volume   1277.72977953
_cell_formula_units_Z   1
loop_
 _symmetry_equiv_pos_site_id
 _symmetry_equiv_pos_as_xyz
  1  'x, y, z'
loop_
 _atom_site_type_symbol
 _atom_site_label
 _atom_site_symmetry_multiplicity
 _atom_site_fract_x
 _atom_site_fract_y
 _atom_site_fract_z
 _atom_site_occupancy
  Cs  Cs0  1  0.00000000  0.82573424  0.17426576  1
  Cs  Cs1  1  0.00000000  0.17426576  0.82573424  1
  Ce  Ce0  1  0.55696224  0.83086967  0.83086967  1
  Ce  Ce1  1  0.81974794  0.29297906  0.29297906  1
  Ce  Ce2  1  0.42774213  0.79068252  0.49371492  1
  Ce  Ce3  1  0.57225787  0.50628508  0.20931748  1
  Ce  Ce4  1  0.18025206  0.70702094  0.70702094  1
  Ce  Ce5  1  0.67965880  0.56316050  0.56316050  1
  Ce  Ce6  1  0.32034120  0.43683950  0.43683950  1
  Ce  Ce7  1  0.42774213  0.49371492  0.79068252  1
  Ce  Ce8  1  0.57225787  0.20931748  0.50628508  1
  Ce  Ce9  1  0.44303776  0.16913033  0.16913033  1
  Os  Os0  1  0.57053430  0.35887669  0.35887669  1
  Os  Os1  1  0.42946570  0.64112331  0.64112331  1
  I  I0  1  0.42010372  0.97048002  0.30992358  1
  I  I1  1  0.86207478  0.11412875  0.45062695  1
  I  I2  1  0.42010372  0.30992358  0.97048002  1
  I  I3  1  0.72581157  0.74733158  0.40038226  1
  I  I4  1  0.13059999  0.21106317  0.21106317  1
  I  I5  1  0.57989628  0.69007642  0.02951998  1
  I  I6  1  0.27418843  0.59961774  0.25266842  1
  I  I7  1  0.86207478  0.45062695  0.11412875  1
  I  I8  1  0.27418843  0.25266842  0.59961774  1
  I  I9  1  0.57989628  0.02951998  0.69007642  1
  I  I10  1  0.72581157  0.40038226  0.74733158  1
  I  I11  1  0.71877358  0.06208771  0.06208771  1
  I  I12  1  0.13792522  0.54937305  0.88587125  1
  I  I13  1  0.00000000  0.50000000  0.50000000  1
  I  I14  1  0.86940001  0.78893683  0.78893683  1
  I  I15  1  0.13792522  0.88587125  0.54937305  1
  I  I16  1  0.28122642  0.93791229  0.93791229  1
loop_
_geom_bond_atom_site_label_1
_geom_bond_atom_site_label_2
_geom_bond_distance
_geom_bond_site_symmetry_2
Cs0 I3 4.150976 1_455
Cs0 I6 4.150976 1_555
Cs0 I12 4.258831 1_554
Cs0 I1 4.258831 1_465
Cs0 I7 4.329381 1_455
Cs0 I15 4.329381 1_555
Cs0 I0 4.406517 1_555
Cs0 I5 4.406517 1_455
Cs0 I16 4.446474 1_554
Cs0 I11 4.446475 1_465
Cs0 I4 4.478360 1_565
Cs0 I14 4.478360 1_454
Cs1 I8 4.150976 1_555
Cs1 I10 4.150976 1_455
Cs1 I7 4.258831 1_456
Cs1 I15 4.258831 1_545
Cs1 I12 4.329381 1_555
Cs1 I1 4.329381 1_455
Cs1 I9 4.406517 1_455
Cs1 I2 4.406517 1_555
Cs1 I11 4.446474 1_456
Cs1 I16 4.446475 1_545
Cs1 I14 4.478360 1_445
Cs1 I4 4.478360 1_556
Ce0 Os1 2.778838 1_555
Ce0 I14 3.215582 1_555
Ce0 I9 3.220606 1_565
Ce0 I5 3.220606 1_556
Ce0 I16 3.244773 1_555
Ce0 I11 3.409472 1_566
Ce1 Os0 2.724962 1_555
Ce1 I7 3.196290 1_555
Ce1 I1 3.196290 1_555
Ce1 I13 3.199892 1_655
Ce1 I11 3.229642 1_555
Ce1 I4 3.397274 1_655
Ce2 Os1 2.791617 1_555
Ce2 I15 3.183562 1_555
Ce2 I6 3.229015 1_555
Ce2 I9 3.232940 1_565
Ce2 I3 3.234148 1_555
Ce2 I0 3.418647 1_555
Ce3 Os0 2.791617 1_555
Ce3 I7 3.183562 1_555
Ce3 I3 3.229015 1_555
Ce3 I2 3.232940 1_554
Ce3 I6 3.234148 1_555
Ce3 I5 3.418647 1_555
Ce4 Os1 2.724962 1_555
Ce4 I12 3.196290 1_555
Ce4 I15 3.196290 1_555
Ce4 I13 3.199892 1_555
Ce4 I16 3.229642 1_555
Ce4 I14 3.397274 1_455
Ce5 Os1 2.809362 1_555
Ce5 Os0 2.904213 1_555
Ce5 I3 3.294496 1_555
Ce5 I10 3.294496 1_555
Ce5 I13 3.385823 1_655
Ce5 I14 3.458770 1_555
Ce6 Os0 2.809362 1_555
Ce6 Os1 2.904213 1_555
Ce6 I8 3.294496 1_555
Ce6 I6 3.294496 1_555
Ce6 I13 3.385823 1_555
Ce6 I4 3.458770 1_555
Ce7 Os1 2.791617 1_555
Ce7 I12 3.183562 1_555
Ce7 I8 3.229015 1_555
Ce7 I5 3.232940 1_556
Ce7 I10 3.234148 1_555
Ce7 I2 3.418647 1_555
Ce8 Os0 2.791617 1_555
Ce8 I1 3.183562 1_555
Ce8 I10 3.229015 1_555
Ce8 I0 3.232940 1_545
Ce8 I8 3.234148 1_555
Ce8 I9 3.418647 1_555
Ce9 Os0 2.778838 1_555
Ce9 I4 3.215582 1_555
Ce9 I0 3.220606 1_545
Ce9 I2 3.220606 1_554
Ce9 I11 3.244773 1_555
Ce9 I16 3.409472 1_544
