# generated using pymatgen
data_HfP2H4O9
_symmetry_space_group_name_H-M   'P 1'
_cell_length_a   5.29225800
_cell_length_b   9.15528100
_cell_length_c   16.69169952
_cell_angle_alpha   69.79607826
_cell_angle_beta   90.00000000
_cell_angle_gamma   90.00000000
_symmetry_Int_Tables_number   1
_chemical_formula_structural   HfP2H4O9
_chemical_formula_sum   'Hf4 P8 H16 O36'
_cell_volume   758.98528259
_cell_formula_units_Z   4
loop_
 _symmetry_equiv_pos_site_id
 _symmetry_equiv_pos_as_xyz
  1  'x, y, z'
loop_
 _atom_site_type_symbol
 _atom_site_label
 _atom_site_symmetry_multiplicity
 _atom_site_fract_x
 _atom_site_fract_y
 _atom_site_fract_z
 _atom_site_occupancy
  Hf  Hf0  1  0.75496100  0.25954100  0.98463900  1
  Hf  Hf1  1  0.25496100  0.74045900  0.51536100  1
  Hf  Hf2  1  0.24503900  0.74045900  0.01536100  1
  Hf  Hf3  1  0.74503900  0.25954100  0.48463900  1
  P  P0  1  0.25059100  0.03459200  0.10206600  1
  P  P1  1  0.75059100  0.96540800  0.39793400  1
  P  P2  1  0.74940900  0.96540800  0.89793400  1
  P  P3  1  0.24940900  0.03459200  0.60206600  1
  P  P4  1  0.74529500  0.50109800  0.11002800  1
  P  P5  1  0.24529500  0.49890200  0.38997200  1
  P  P6  1  0.25470500  0.49890200  0.88997200  1
  P  P7  1  0.75470500  0.50109800  0.61002800  1
  H  H0  1  0.25057000  0.08431100  0.22391900  1
  H  H1  1  0.75057000  0.91568900  0.27608100  1
  H  H2  1  0.74943000  0.91568900  0.77608100  1
  H  H3  1  0.24943000  0.08431100  0.72391900  1
  H  H4  1  0.59827700  0.34691300  0.23183900  1
  H  H5  1  0.09827700  0.65308700  0.26816100  1
  H  H6  1  0.40172300  0.65308700  0.76816100  1
  H  H7  1  0.90172300  0.34691300  0.73183900  1
  H  H8  1  0.59178300  0.70558400  0.25977800  1
  H  H9  1  0.09178300  0.29441600  0.24022200  1
  H  H10  1  0.40821700  0.29441600  0.74022200  1
  H  H11  1  0.90821700  0.70558400  0.75977800  1
  H  H12  1  0.74097800  0.79312500  0.17823300  1
  H  H13  1  0.24097800  0.20687500  0.32176700  1
  H  H14  1  0.25902200  0.20687500  0.82176700  1
  H  H15  1  0.75902200  0.79312500  0.67823300  1
  O  O0  1  0.30422800  0.87770900  0.09053600  1
  O  O1  1  0.80422800  0.12229100  0.40946400  1
  O  O2  1  0.69577200  0.12229100  0.90946400  1
  O  O3  1  0.19577200  0.87770900  0.59053600  1
  O  O4  1  0.98676800  0.09495500  0.06754600  1
  O  O5  1  0.48676800  0.90504500  0.43245400  1
  O  O6  1  0.01323200  0.90504500  0.93245400  1
  O  O7  1  0.51323200  0.09495500  0.56754600  1
  O  O8  1  0.44906600  0.15807400  0.05728200  1
  O  O9  1  0.94906600  0.84192600  0.44271800  1
  O  O10  1  0.55093400  0.84192600  0.94271800  1
  O  O11  1  0.05093400  0.15807400  0.55728200  1
  O  O12  1  0.26284400  0.99579200  0.20117300  1
  O  O13  1  0.76284400  0.00420800  0.29882700  1
  O  O14  1  0.73715600  0.00420800  0.79882700  1
  O  O15  1  0.23715600  0.99579200  0.70117300  1
  O  O16  1  0.94809700  0.62737400  0.09505900  1
  O  O17  1  0.44809700  0.37262600  0.40494100  1
  O  O18  1  0.05190300  0.37262600  0.90494100  1
  O  O19  1  0.55190300  0.62737400  0.59505900  1
  O  O20  1  0.47918700  0.56988100  0.09350100  1
  O  O21  1  0.97918700  0.43011900  0.40649900  1
  O  O22  1  0.52081300  0.43011900  0.90649900  1
  O  O23  1  0.02081300  0.56988100  0.59350100  1
  O  O24  1  0.80539400  0.39438100  0.05929200  1
  O  O25  1  0.30539400  0.60561900  0.44070800  1
  O  O26  1  0.19460600  0.60561900  0.94070800  1
  O  O27  1  0.69460600  0.39438100  0.55929200  1
  O  O28  1  0.76025300  0.39962900  0.20926800  1
  O  O29  1  0.26025300  0.60037100  0.29073200  1
  O  O30  1  0.23974700  0.60037100  0.79073200  1
  O  O31  1  0.73974700  0.39962900  0.70926800  1
  O  O32  1  0.75301900  0.76087700  0.24031900  1
  O  O33  1  0.25301900  0.23912300  0.25968100  1
  O  O34  1  0.24698100  0.23912300  0.75968100  1
  O  O35  1  0.74698100  0.76087700  0.74031900  1
loop_
_geom_bond_atom_site_label_1
_geom_bond_atom_site_label_2
_geom_bond_distance
_geom_bond_site_symmetry_2
Hf0 O8 2.043510 1_556
Hf0 O24 2.051947 1_556
Hf0 O4 2.061619 1_556
Hf0 O22 2.066073 1_555
Hf0 O2 2.083429 1_555
Hf0 O18 2.088025 1_655
Hf1 O9 2.043510 1_455
Hf1 O25 2.051947 1_555
Hf1 O5 2.061619 1_555
Hf1 O23 2.066073 1_555
Hf1 O3 2.083429 1_555
Hf1 O19 2.088025 1_555
Hf2 O10 2.043510 1_554
Hf2 O26 2.051947 1_554
Hf2 O6 2.061619 1_554
Hf2 O20 2.066073 1_555
Hf2 O0 2.083429 1_555
Hf2 O16 2.088025 1_455
Hf3 O11 2.043510 1_655
Hf3 O27 2.051947 1_555
Hf3 O7 2.061619 1_555
Hf3 O21 2.066073 1_555
Hf3 O1 2.083429 1_555
Hf3 O17 2.088025 1_555
H0 O12 1.008797 1_545
H1 O13 1.008797 1_565
H2 O14 1.008797 1_565
H3 O15 1.008797 1_545
H4 O28 0.992018 1_555
H5 O29 0.992018 1_555
H6 O30 0.992018 1_555
H7 O31 0.992018 1_555
H8 O32 0.988086 1_555
H9 O33 0.988086 1_555
H10 O34 0.988086 1_555
H11 O35 0.988086 1_555
H12 O32 0.976653 1_555
H13 O33 0.976653 1_555
H14 O34 0.976653 1_555
H15 O35 0.976653 1_555
O0 P0 1.539977 1_565
O1 P1 1.539977 1_545
O2 P2 1.539977 1_545
O3 P3 1.539977 1_565
O4 P0 1.538472 1_655
O5 P1 1.538472 1_555
O6 P2 1.538472 1_455
O7 P3 1.538472 1_555
O8 P0 1.535066 1_555
O9 P1 1.535066 1_555
O10 P2 1.535066 1_555
O11 P3 1.535066 1_555
O12 P0 1.568785 1_565
O13 P1 1.568785 1_545
O14 P2 1.568785 1_545
O15 P3 1.568785 1_565
O16 P4 1.533423 1_555
O17 P5 1.533423 1_555
O18 P6 1.533423 1_555
O19 P7 1.533423 1_555
O20 P4 1.528401 1_555
O21 P5 1.528401 1_655
O22 P6 1.528401 1_555
O23 P7 1.528401 1_455
O24 P4 1.531157 1_555
O25 P5 1.531157 1_555
O26 P6 1.531157 1_555
O27 P7 1.531157 1_555
O28 P4 1.596964 1_555
O29 P5 1.596964 1_555
O30 P6 1.596964 1_555
O31 P7 1.596964 1_555
