# generated using pymatgen
data_H22RuN7(ClO2)4
_symmetry_space_group_name_H-M   'P 1'
_cell_length_a   7.55535812
_cell_length_b   7.55535812
_cell_length_c   10.76549349
_cell_angle_alpha   69.00838157
_cell_angle_beta   69.00838157
_cell_angle_gamma   57.48210615
_symmetry_Int_Tables_number   1
_chemical_formula_structural   H22RuN7(ClO2)4
_chemical_formula_sum   'H22 Ru1 N7 Cl4 O8'
_cell_volume   472.96451949
_cell_formula_units_Z   1
loop_
 _symmetry_equiv_pos_site_id
 _symmetry_equiv_pos_as_xyz
  1  'x, y, z'
loop_
 _atom_site_type_symbol
 _atom_site_label
 _atom_site_symmetry_multiplicity
 _atom_site_fract_x
 _atom_site_fract_y
 _atom_site_fract_z
 _atom_site_occupancy
  H  H0  1  0.46126200  0.64259600  0.44987700  1
  H  H1  1  0.64259600  0.46126200  0.44987700  1
  H  H2  1  0.33802300  0.54210800  0.52605200  1
  H  H3  1  0.54210800  0.33802300  0.52605200  1
  H  H4  1  0.41425800  0.80751300  0.75085300  1
  H  H5  1  0.01614700  0.78592300  0.84193000  1
  H  H6  1  0.80751300  0.41425800  0.75085300  1
  H  H7  1  0.88889000  0.46783500  0.85241900  1
  H  H8  1  0.46783500  0.88889000  0.85241900  1
  H  H9  1  0.78592300  0.01614700  0.84193000  1
  H  H10  1  0.21489000  0.50222000  0.07063600  1
  H  H11  1  0.19222300  0.70123500  0.11976700  1
  H  H12  1  0.97313300  0.69051100  0.12145200  1
  H  H13  1  0.12121000  0.52047400  0.24241800  1
  H  H14  1  0.21003300  0.21003300  0.07549300  1
  H  H15  1  0.50222000  0.21489000  0.07063600  1
  H  H16  1  0.70123500  0.19222300  0.11976700  1
  H  H17  1  0.97484000  0.20761100  0.13011600  1
  H  H18  1  0.20761100  0.97484000  0.13011600  1
  H  H19  1  0.69051100  0.97313300  0.12145200  1
  H  H20  1  0.52047400  0.12121000  0.24241800  1
  H  H21  1  0.11798700  0.11798700  0.24932500  1
  Ru  Ru0  1  0.06238300  0.06238300  0.89154900  1
  N  N0  1  0.35309200  0.87108700  0.83577000  1
  N  N1  1  0.91847100  0.91847100  0.88482600  1
  N  N2  1  0.87108700  0.35309200  0.83577000  1
  N  N3  1  0.49831800  0.49831800  0.53024600  1
  N  N4  1  0.12482800  0.60258400  0.14208500  1
  N  N5  1  0.60258400  0.12482800  0.14208500  1
  N  N6  1  0.12662700  0.12662700  0.14961300  1
  Cl  Cl0  1  0.83534700  0.83534700  0.53159000  1
  Cl  Cl1  1  0.61212300  0.61212300  0.18248100  1
  Cl  Cl2  1  0.34593300  0.34593300  0.91200600  1
  Cl  Cl3  1  0.17422700  0.17422700  0.44616100  1
  O  O0  1  0.88458700  0.88458700  0.38240900  1
  O  O1  1  0.30558700  0.97701500  0.38955200  1
  O  O2  1  0.29664200  0.29664200  0.39092200  1
  O  O3  1  0.97701500  0.30558700  0.38955200  1
  O  O4  1  0.71516200  0.71516200  0.58168400  1
  O  O5  1  0.03556600  0.70731000  0.58248800  1
  O  O6  1  0.70731000  0.03556600  0.58248800  1
  O  O7  1  0.12539000  0.12539000  0.59126900  1
loop_
_geom_bond_atom_site_label_1
_geom_bond_atom_site_label_2
_geom_bond_distance
_geom_bond_site_symmetry_2
H0 N3 1.088550 1_555
H1 N3 1.088550 1_555
H2 N3 1.084396 1_555
H3 N3 1.084396 1_555
H4 N0 1.026283 1_555
H5 N1 1.026337 1_455
H6 N2 1.026283 1_555
H7 N2 1.027494 1_555
H8 N0 1.027494 1_555
H9 N1 1.026337 1_545
H10 N4 1.057265 1_555
H11 N4 1.031805 1_555
H12 N4 1.030689 1_655
H13 N4 1.034062 1_555
H14 N6 1.066458 1_555
H15 N5 1.057265 1_555
H16 N5 1.031805 1_555
H17 N6 1.029387 1_655
H18 N6 1.029387 1_565
H19 N5 1.030689 1_565
H20 N5 1.034062 1_555
H21 N6 1.031982 1_555
N0 Ru0 1.880851 1_565
N1 Ru0 1.937402 1_665
N2 Ru0 1.880851 1_655
Cl0 O4 1.457633 1_555
Cl0 O0 1.465854 1_555
Cl0 O6 1.471455 1_565
Cl0 O5 1.471455 1_655
Cl2 H14 1.936533 1_556
Cl2 H15 2.065753 1_556
Cl2 H10 2.065753 1_556
Cl3 O7 1.425855 1_555
Cl3 O2 1.481905 1_555
Cl3 O1 1.484544 1_545
Cl3 O3 1.484544 1_455
