# generated using pymatgen
data_Mg3In
_symmetry_space_group_name_H-M   'P 1'
_cell_length_a   8.35756986
_cell_length_b   8.35756986
_cell_length_c   8.35756987
_cell_angle_alpha   59.93444467
_cell_angle_beta   59.93444467
_cell_angle_gamma   59.93445069
_symmetry_Int_Tables_number   1
_chemical_formula_structural   Mg3In
_chemical_formula_sum   'Mg12 In4'
_cell_volume   412.17232620
_cell_formula_units_Z   4
loop_
 _symmetry_equiv_pos_site_id
 _symmetry_equiv_pos_as_xyz
  1  'x, y, z'
loop_
 _atom_site_type_symbol
 _atom_site_label
 _atom_site_symmetry_multiplicity
 _atom_site_fract_x
 _atom_site_fract_y
 _atom_site_fract_z
 _atom_site_occupancy
  Mg  Mg0  1  0.43034200  0.81843600  0.43034200  1
  Mg  Mg1  1  0.56965800  0.18156400  0.56965800  1
  Mg  Mg2  1  0.06328000  0.68245700  0.06328000  1
  Mg  Mg3  1  0.43034200  0.43034200  0.81843600  1
  Mg  Mg4  1  0.81843600  0.43034200  0.43034200  1
  Mg  Mg5  1  0.68245700  0.06328000  0.06328000  1
  Mg  Mg6  1  0.93672000  0.93672000  0.31754300  1
  Mg  Mg7  1  0.18156400  0.56965800  0.56965800  1
  Mg  Mg8  1  0.56965800  0.56965800  0.18156400  1
  Mg  Mg9  1  0.06328000  0.06328000  0.68245700  1
  Mg  Mg10  1  0.31754300  0.93672000  0.93672000  1
  Mg  Mg11  1  0.93672000  0.31754300  0.93672000  1
  In  In0  1  0.81642200  0.81642200  0.81642200  1
  In  In1  1  0.32622500  0.32622500  0.32622500  1
  In  In2  1  0.67377500  0.67377500  0.67377500  1
  In  In3  1  0.18357800  0.18357800  0.18357800  1
loop_
_geom_bond_atom_site_label_1
_geom_bond_atom_site_label_2
_geom_bond_distance
_geom_bond_site_symmetry_2
Mg0 Mg5 3.097041 1_565
Mg0 Mg9 3.097042 1_565
Mg1 Mg10 3.097041 1_545
Mg1 Mg6 3.097042 1_545
Mg2 Mg4 3.097041 1_455
Mg2 Mg3 3.097042 1_554
Mg2 Mg9 3.179601 1_564
Mg2 Mg5 3.179601 1_465
Mg2 Mg6 3.189133 1_455
Mg3 Mg5 3.097042 1_556
Mg4 Mg9 3.097042 1_655
Mg5 Mg9 3.179601 1_654
Mg5 Mg6 3.189133 1_545
Mg6 Mg7 3.097042 1_655
Mg10 Mg8 3.097042 1_556
Mg10 Mg6 3.179601 1_456
Mg10 Mg11 3.179601 1_465
Mg10 Mg2 3.189133 1_556
Mg10 Mg9 3.189133 1_565
Mg11 Mg7 3.097041 1_655
Mg11 Mg8 3.097042 1_556
Mg11 Mg6 3.179601 1_546
Mg11 Mg5 3.189133 1_556
Mg11 Mg9 3.189133 1_655
In0 In2 2.921684 1_555
In0 Mg9 3.066354 1_665
In0 Mg2 3.066354 1_656
In0 Mg5 3.066354 1_566
In0 Mg8 3.077151 1_556
In0 Mg1 3.077152 1_565
In0 Mg7 3.077152 1_655
In0 Mg6 3.466706 1_555
In0 Mg11 3.466706 1_555
In0 Mg10 3.466706 1_555
In1 In3 2.921684 1_555
In1 Mg8 2.993049 1_555
In1 Mg1 2.993049 1_555
In1 Mg7 2.993049 1_555
In1 Mg9 3.201598 1_555
In1 Mg2 3.201598 1_555
In1 Mg5 3.201598 1_555
In2 Mg3 2.993049 1_555
In2 Mg0 2.993049 1_555
In2 Mg4 2.993049 1_555
In2 Mg6 3.201598 1_555
In2 Mg11 3.201598 1_555
In2 Mg10 3.201598 1_555
In3 Mg6 3.066354 1_445
In3 Mg10 3.066354 1_544
In3 Mg11 3.066354 1_454
In3 Mg3 3.077151 1_554
In3 Mg4 3.077152 1_455
In3 Mg0 3.077152 1_545
In3 Mg9 3.466706 1_555
In3 Mg2 3.466706 1_555
In3 Mg5 3.466706 1_555
