# generated using pymatgen
data_K2MnSnSe4
_symmetry_space_group_name_H-M   'P 1'
_cell_length_a   10.65795946
_cell_length_b   10.65795946
_cell_length_c   8.35645084
_cell_angle_alpha   90.00000000
_cell_angle_beta   90.00000000
_cell_angle_gamma   90.00000000
_symmetry_Int_Tables_number   1
_chemical_formula_structural   K2MnSnSe4
_chemical_formula_sum   'K8 Mn4 Sn4 Se16'
_cell_volume   949.22679822
_cell_formula_units_Z   4
loop_
 _symmetry_equiv_pos_site_id
 _symmetry_equiv_pos_as_xyz
  1  'x, y, z'
loop_
 _atom_site_type_symbol
 _atom_site_label
 _atom_site_symmetry_multiplicity
 _atom_site_fract_x
 _atom_site_fract_y
 _atom_site_fract_z
 _atom_site_occupancy
  K  K0  1  0.25274913  0.75274913  0.75000000  1
  K  K1  1  0.50000000  0.50000000  0.50000000  1
  K  K2  1  0.00000000  0.00000000  0.00000000  1
  K  K3  1  0.74725087  0.24725087  0.75000000  1
  K  K4  1  0.00000000  0.50000000  0.25000000  1
  K  K5  1  0.50000000  0.00000000  0.75000000  1
  K  K6  1  0.24725087  0.25274913  0.25000000  1
  K  K7  1  0.75274913  0.74725087  0.25000000  1
  Mn  Mn0  1  0.50000000  0.50000000  0.00000000  1
  Mn  Mn1  1  0.00000000  0.00000000  0.50000000  1
  Mn  Mn2  1  0.00000000  0.50000000  0.75000000  1
  Mn  Mn3  1  0.50000000  0.00000000  0.25000000  1
  Sn  Sn0  1  0.27895976  0.77895976  0.25000000  1
  Sn  Sn1  1  0.72104024  0.22104024  0.25000000  1
  Sn  Sn2  1  0.22104024  0.27895976  0.75000000  1
  Sn  Sn3  1  0.77895976  0.72104024  0.75000000  1
  Se  Se0  1  0.28810898  0.56753863  0.10872236  1
  Se  Se1  1  0.97111230  0.69546893  0.92887784  1
  Se  Se2  1  0.47111230  0.80453107  0.42887784  1
  Se  Se3  1  0.71189102  0.43246137  0.10872236  1
  Se  Se4  1  0.02888770  0.30453107  0.92887784  1
  Se  Se5  1  0.69546893  0.02888770  0.07112216  1
  Se  Se6  1  0.52888770  0.19546893  0.42887784  1
  Se  Se7  1  0.80453107  0.52888770  0.57112216  1
  Se  Se8  1  0.21189102  0.06753863  0.60872236  1
  Se  Se9  1  0.78810898  0.93246137  0.60872236  1
  Se  Se10  1  0.19546893  0.47111230  0.57112216  1
  Se  Se11  1  0.56753863  0.71189102  0.89127764  1
  Se  Se12  1  0.43246137  0.28810898  0.89127764  1
  Se  Se13  1  0.93246137  0.21189102  0.39127764  1
  Se  Se14  1  0.30453107  0.97111230  0.07112216  1
  Se  Se15  1  0.06753863  0.78810898  0.39127764  1
loop_
_geom_bond_atom_site_label_1
_geom_bond_atom_site_label_2
_geom_bond_distance
_geom_bond_site_symmetry_2
K0 Se10 3.408390 1_555
K0 Se1 3.408390 1_455
K0 Se11 3.583227 1_555
K0 Se8 3.583227 1_565
K0 Se2 3.594690 1_555
K0 Se14 3.594690 1_556
K0 Se15 3.608940 1_555
K0 Se0 3.608940 1_556
K1 Se10 3.313979 1_555
K1 Se6 3.313979 1_555
K1 Se7 3.313979 1_555
K1 Se2 3.313979 1_555
K2 Se14 3.313979 1_545
K2 Se4 3.313979 1_554
K2 Se5 3.313979 1_455
K2 Se1 3.313979 1_444
K3 Se7 3.408390 1_555
K3 Se4 3.408390 1_655
K3 Se12 3.583227 1_555
K3 Se9 3.583227 1_545
K3 Se6 3.594690 1_555
K3 Se5 3.594690 1_556
K3 Se3 3.608940 1_556
K3 Se13 3.608940 1_555
K4 Se3 3.367615 1_455
K4 Se15 3.367615 1_555
K4 Se13 3.367615 1_455
K4 Se0 3.367615 1_555
K4 Se4 3.411127 1_554
K4 Se1 3.411127 1_454
K4 Se7 3.411127 1_455
K4 Se10 3.411127 1_555
K5 Se8 3.367615 1_555
K5 Se11 3.367615 1_545
K5 Se12 3.367615 1_555
K5 Se9 3.367615 1_545
K5 Se6 3.411127 1_555
K5 Se2 3.411127 1_545
K5 Se14 3.411127 1_546
K5 Se5 3.411127 1_556
K6 Se14 3.408390 1_545
K6 Se6 3.408390 1_555
K6 Se0 3.583227 1_555
K6 Se13 3.583227 1_455
K6 Se10 3.594690 1_555
K6 Se4 3.594690 1_554
K6 Se12 3.608940 1_554
K6 Se8 3.608940 1_555
K7 Se2 3.408390 1_555
K7 Se5 3.408390 1_565
K7 Se3 3.583227 1_555
K7 Se15 3.583227 1_655
K7 Se1 3.594690 1_554
K7 Se7 3.594690 1_555
K7 Se11 3.608940 1_554
K7 Se9 3.608940 1_555
Mn0 Se12 2.538428 1_554
Mn0 Se3 2.538428 1_555
Mn0 Se0 2.538428 1_555
Mn0 Se11 2.538428 1_554
Mn1 Se13 2.538428 1_455
Mn1 Se8 2.538428 1_555
Mn1 Se9 2.538428 1_445
Mn1 Se15 2.538428 1_545
Mn2 Se1 2.582501 1_455
Mn2 Se7 2.582501 1_455
Mn2 Se4 2.582501 1_555
Mn2 Se10 2.582501 1_555
Mn3 Se2 2.582501 1_545
Mn3 Se6 2.582501 1_555
Mn3 Se5 2.582501 1_555
Mn3 Se14 2.582501 1_545
Se0 Sn0 2.545725 1_555
Se1 Sn3 2.550053 1_555
Se2 Sn0 2.550053 1_555
Se3 Sn1 2.545725 1_555
Se4 Sn2 2.550053 1_555
Se5 Sn1 2.550053 1_555
Se6 Sn1 2.550053 1_555
Se7 Sn3 2.550053 1_555
Se8 Sn2 2.545725 1_555
Se9 Sn3 2.545725 1_555
Se10 Sn2 2.550053 1_555
Se11 Sn3 2.545725 1_555
Se12 Sn2 2.545725 1_555
Se13 Sn1 2.545725 1_555
Se14 Sn0 2.550053 1_555
Se15 Sn0 2.545725 1_555
