# generated using pymatgen
data_Yb2FeS4
_symmetry_space_group_name_H-M   'P 1'
_cell_length_a   7.69782364
_cell_length_b   7.69782364
_cell_length_c   25.87748957
_cell_angle_alpha   81.04038098
_cell_angle_beta   81.04038098
_cell_angle_gamma   59.39267469
_symmetry_Int_Tables_number   1
_chemical_formula_structural   Yb2FeS4
_chemical_formula_sum   'Yb16 Fe8 S32'
_cell_volume   1298.38590235
_cell_formula_units_Z   8
loop_
 _symmetry_equiv_pos_site_id
 _symmetry_equiv_pos_as_xyz
  1  'x, y, z'
loop_
 _atom_site_type_symbol
 _atom_site_label
 _atom_site_symmetry_multiplicity
 _atom_site_fract_x
 _atom_site_fract_y
 _atom_site_fract_z
 _atom_site_occupancy
  Yb  Yb0  1  0.00000000  0.00000000  0.50000000  1
  Yb  Yb1  1  0.50000000  0.00000000  0.50000000  1
  Yb  Yb2  1  0.25010200  0.25010200  0.74904800  1
  Yb  Yb3  1  0.00000000  0.50000000  0.50000000  1
  Yb  Yb4  1  0.12519600  0.12519600  0.62494200  1
  Yb  Yb5  1  0.74474200  0.25591000  0.74877700  1
  Yb  Yb6  1  0.84650300  0.84650300  0.87038000  1
  Yb  Yb7  1  0.50000000  0.50000000  0.00000000  1
  Yb  Yb8  1  0.25591000  0.74474200  0.74877700  1
  Yb  Yb9  1  0.37499300  0.37499300  0.87568200  1
  Yb  Yb10  1  0.15349700  0.15349700  0.12962000  1
  Yb  Yb11  1  0.74989800  0.74989800  0.25095200  1
  Yb  Yb12  1  0.62500700  0.62500700  0.12431800  1
  Yb  Yb13  1  0.25525800  0.74409000  0.25122300  1
  Yb  Yb14  1  0.74409000  0.25525800  0.25122300  1
  Yb  Yb15  1  0.87480400  0.87480400  0.37505800  1
  Fe  Fe0  1  0.53137800  0.53137800  0.40732900  1
  Fe  Fe1  1  0.78251500  0.78251500  0.65512900  1
  Fe  Fe2  1  0.04194500  0.04194500  0.91203200  1
  Fe  Fe3  1  0.46862200  0.46862200  0.59267100  1
  Fe  Fe4  1  0.00000000  0.50000000  0.00000000  1
  Fe  Fe5  1  0.50000000  0.00000000  0.00000000  1
  Fe  Fe6  1  0.95805500  0.95805500  0.08796800  1
  Fe  Fe7  1  0.21748500  0.21748500  0.34487100  1
  S  S0  1  0.20262000  0.68047800  0.43610200  1
  S  S1  1  0.68047800  0.20262000  0.43610200  1
  S  S2  1  0.81095900  0.81095900  0.56767800  1
  S  S3  1  0.67990600  0.67990600  0.43591100  1
  S  S4  1  0.45894500  0.92814700  0.68513000  1
  S  S5  1  0.32009400  0.32009400  0.56408900  1
  S  S6  1  0.92814700  0.45894500  0.68513000  1
  S  S7  1  0.31952100  0.79738000  0.56389800  1
  S  S8  1  0.05750600  0.05750600  0.82402200  1
  S  S9  1  0.18904100  0.18904100  0.43232200  1
  S  S10  1  0.92800400  0.92800400  0.68517200  1
  S  S11  1  0.79738000  0.31952200  0.56389800  1
  S  S12  1  0.55910400  0.55910400  0.81252000  1
  S  S13  1  0.70240600  0.16009700  0.94024500  1
  S  S14  1  0.55340300  0.07804000  0.80996900  1
  S  S15  1  0.29854800  0.29854800  0.03894300  1
  S  S16  1  0.16009700  0.70240600  0.94024500  1
  S  S17  1  0.43992200  0.43992200  0.67889500  1
  S  S18  1  0.19209400  0.19209400  0.94999900  1
  S  S19  1  0.07804000  0.55340300  0.80996900  1
  S  S20  1  0.92196000  0.44659700  0.19003100  1
  S  S21  1  0.80790600  0.80790600  0.05000100  1
  S  S22  1  0.44659700  0.92196000  0.19003100  1
  S  S23  1  0.83990300  0.29759400  0.05975500  1
  S  S24  1  0.56007800  0.56007800  0.32110500  1
  S  S25  1  0.70145200  0.70145200  0.96105700  1
  S  S26  1  0.44089600  0.44089600  0.18748000  1
  S  S27  1  0.29759400  0.83990300  0.05975500  1
  S  S28  1  0.07199600  0.07199600  0.31482800  1
  S  S29  1  0.07185300  0.54105500  0.31487000  1
  S  S30  1  0.94249400  0.94249400  0.17597800  1
  S  S31  1  0.54105500  0.07185300  0.31487000  1
loop_
_geom_bond_atom_site_label_1
_geom_bond_atom_site_label_2
_geom_bond_distance
_geom_bond_site_symmetry_2
Fe0 S24 2.195168 1_555
Fe0 S0 2.235562 1_555
Fe0 S1 2.235562 1_555
Fe0 S3 2.240419 1_555
Fe1 S6 2.211076 1_555
Fe1 S4 2.211076 1_555
Fe1 S10 2.220950 1_555
Fe1 S2 2.226489 1_555
Fe2 S8 2.249504 1_555
Fe2 S16 2.320230 1_545
Fe2 S13 2.320230 1_455
Fe2 S18 2.388497 1_555
Fe3 S17 2.195168 1_555
Fe3 S7 2.235561 1_555
Fe3 S11 2.235562 1_555
Fe3 S5 2.240419 1_555
Fe4 S25 2.303791 1_454
Fe4 S15 2.303791 1_555
Fe4 S18 2.503784 1_554
Fe4 S21 2.503784 1_455
Fe4 S16 2.636063 1_554
Fe4 S23 2.636063 1_455
Fe5 S25 2.303791 1_544
Fe5 S15 2.303791 1_555
Fe5 S18 2.503784 1_554
Fe5 S21 2.503784 1_545
Fe5 S13 2.636063 1_554
Fe5 S27 2.636063 1_545
Fe6 S30 2.249504 1_555
Fe6 S23 2.320230 1_565
Fe6 S27 2.320230 1_655
Fe6 S21 2.388497 1_555
Fe7 S29 2.211076 1_555
Fe7 S31 2.211076 1_555
Fe7 S28 2.220950 1_555
Fe7 S9 2.226489 1_555
S0 Yb15 2.786145 1_455
S0 Yb0 2.788108 1_565
S0 Yb3 2.790117 1_555
S1 Yb15 2.786145 1_545
S1 Yb0 2.788108 1_655
S1 Yb1 2.790117 1_555
S2 Yb0 2.805560 1_665
S2 Yb3 2.807045 1_655
S2 Yb1 2.807045 1_565
S3 Yb15 2.793172 1_555
S3 Yb3 2.796862 1_655
S3 Yb1 2.796862 1_565
S4 Yb2 2.802488 1_565
S4 Yb4 2.805234 1_565
S4 Yb8 2.805272 1_555
S5 Yb4 2.793172 1_555
S5 Yb1 2.796862 1_555
S5 Yb3 2.796862 1_555
S6 Yb2 2.802488 1_655
S6 Yb4 2.805234 1_655
S6 Yb5 2.805272 1_555
S7 Yb4 2.786145 1_565
S7 Yb0 2.788103 1_565
S7 Yb1 2.790122 1_565
S8 Yb6 2.861514 1_445
S8 Yb2 2.933693 1_555
S8 Yb5 2.951280 1_455
S8 Yb8 2.951280 1_545
S9 Yb0 2.805560 1_555
S9 Yb3 2.807045 1_555
S9 Yb1 2.807045 1_555
S10 Yb4 2.812488 1_665
S10 Yb8 2.831150 1_655
S10 Yb5 2.831150 1_565
S11 Yb4 2.786145 1_655
S11 Yb0 2.788108 1_655
S11 Yb3 2.790117 1_655
S12 Yb8 2.697939 1_555
S12 Yb5 2.697939 1_555
S12 Yb9 2.700194 1_555
S13 Yb7 2.832536 1_556
S13 Yb9 2.843452 1_555
S13 Yb6 2.886940 1_545
S14 Yb6 2.616667 1_545
S14 Yb2 2.652881 1_555
S14 Yb5 2.683923 1_555
S14 Yb9 2.699925 1_555
S15 Yb7 2.701934 1_555
S15 Yb10 2.763498 1_555
S16 Yb7 2.832536 1_556
S16 Yb9 2.843452 1_555
S16 Yb6 2.886940 1_455
S17 Yb5 2.814558 1_555
S17 Yb8 2.814558 1_555
S17 Yb2 2.843862 1_555
S18 Yb9 2.827501 1_555
S19 Yb6 2.616667 1_455
S19 Yb2 2.652881 1_555
S19 Yb8 2.683923 1_555
S19 Yb9 2.699925 1_555
S20 Yb10 2.616667 1_655
S20 Yb11 2.652881 1_555
S20 Yb14 2.683923 1_555
S20 Yb12 2.699925 1_555
S21 Yb12 2.827501 1_555
S22 Yb10 2.616667 1_565
S22 Yb11 2.652881 1_555
S22 Yb13 2.683923 1_555
S22 Yb12 2.699925 1_555
S23 Yb7 2.832536 1_555
S23 Yb12 2.843452 1_555
S23 Yb10 2.886940 1_655
S24 Yb13 2.814558 1_555
S24 Yb14 2.814558 1_555
S24 Yb11 2.843862 1_555
S25 Yb7 2.701934 1_556
S25 Yb6 2.763498 1_555
S26 Yb13 2.697939 1_555
S26 Yb14 2.697939 1_555
S26 Yb12 2.700194 1_555
S27 Yb7 2.832536 1_555
S27 Yb12 2.843452 1_555
S27 Yb10 2.886940 1_565
S28 Yb15 2.812488 1_445
S28 Yb13 2.831150 1_545
S28 Yb14 2.831150 1_455
S29 Yb11 2.802488 1_455
S29 Yb15 2.805234 1_455
S29 Yb13 2.805272 1_555
S30 Yb10 2.861514 1_665
S30 Yb11 2.933693 1_555
S30 Yb13 2.951280 1_655
S30 Yb14 2.951280 1_565
S31 Yb11 2.802488 1_545
S31 Yb15 2.805234 1_545
S31 Yb14 2.805272 1_555
