# generated using pymatgen
data_V2Ni(PO5)2
_symmetry_space_group_name_H-M   'P 1'
_cell_length_a   7.22596086
_cell_length_b   7.24906822
_cell_length_c   7.30524765
_cell_angle_alpha   119.60493100
_cell_angle_beta   90.00000000
_cell_angle_gamma   90.00000000
_symmetry_Int_Tables_number   1
_chemical_formula_structural   V2Ni(PO5)2
_chemical_formula_sum   'V4 Ni2 P4 O20'
_cell_volume   332.70440753
_cell_formula_units_Z   2
loop_
 _symmetry_equiv_pos_site_id
 _symmetry_equiv_pos_as_xyz
  1  'x, y, z'
loop_
 _atom_site_type_symbol
 _atom_site_label
 _atom_site_symmetry_multiplicity
 _atom_site_fract_x
 _atom_site_fract_y
 _atom_site_fract_z
 _atom_site_occupancy
  V  V0  1  0.27814035  0.29925043  0.04007989  1
  V  V1  1  0.77814035  0.20074957  0.45992011  1
  V  V2  1  0.72185965  0.70074957  0.95992011  1
  V  V3  1  0.22185965  0.79925043  0.54007989  1
  Ni  Ni0  1  -0.00000000  -0.00000000  -0.00000000  1
  Ni  Ni1  1  0.50000000  0.50000000  0.50000000  1
  P  P0  1  0.62531979  0.00140614  0.74888613  1
  P  P1  1  0.87468021  0.50140614  0.24888613  1
  P  P2  1  0.12531979  0.49859386  0.75111387  1
  P  P3  1  0.37468021  0.99859386  0.25111387  1
  O  O0  1  0.25254558  0.59103248  0.64706390  1
  O  O1  1  0.99804715  0.68168738  0.90490927  1
  O  O2  1  0.75254558  0.90896752  0.85293610  1
  O  O3  1  0.49080023  0.82000442  0.08723343  1
  O  O4  1  0.74915313  0.57812854  0.13488904  1
  O  O5  1  0.50195285  0.18168738  0.40490927  1
  O  O6  1  0.99080023  0.67999558  0.41276657  1
  O  O7  1  0.34302057  0.50213128  0.27310910  1
  O  O8  1  0.65697943  0.49786872  0.72689090  1
  O  O9  1  0.74745442  0.40896752  0.35293610  1
  O  O10  1  0.24745442  0.09103248  0.14706390  1
  O  O11  1  0.15697943  0.00213128  0.77310910  1
  O  O12  1  0.75084687  0.07812854  0.63488904  1
  O  O13  1  0.49804715  0.81831262  0.59509073  1
  O  O14  1  0.25084687  0.42187146  0.86511096  1
  O  O15  1  0.24915313  0.92187146  0.36511096  1
  O  O16  1  0.50919977  0.17999558  0.91276657  1
  O  O17  1  0.84302057  -0.00213128  0.22689090  1
  O  O18  1  0.00919977  0.32000442  0.58723343  1
  O  O19  1  0.00195285  0.31831262  0.09509073  1
loop_
_geom_bond_atom_site_label_1
_geom_bond_atom_site_label_2
_geom_bond_distance
_geom_bond_site_symmetry_2
Ni0 O17 2.014826 1_455
Ni0 O11 2.014826 1_554
Ni0 O2 2.021506 1_444
Ni0 O10 2.021506 1_555
Ni0 O19 2.055101 1_555
Ni0 O1 2.055101 1_444
Ni1 O7 2.014826 1_555
Ni1 O8 2.014826 1_555
Ni1 O0 2.021506 1_555
Ni1 O9 2.021506 1_555
Ni1 O5 2.055101 1_555
Ni1 O13 2.055101 1_555
O0 P2 1.541172 1_555
O0 V3 2.025774 1_555
O1 P2 1.548010 1_655
O1 V2 2.026974 1_555
O2 P0 1.541172 1_565
O2 V2 2.025774 1_555
O3 P3 1.510622 1_555
O3 V2 1.898840 1_554
O4 P1 1.511028 1_555
O4 V2 1.893506 1_554
O5 P3 1.548010 1_545
O5 V1 2.026974 1_555
O6 P1 1.510622 1_555
O6 V3 1.898840 1_655
O7 V0 1.675420 1_555
O7 V3 2.249180 1_555
O8 V2 1.675420 1_555
O8 V1 2.249180 1_555
O9 P1 1.541172 1_555
O9 V1 2.025774 1_555
O10 P3 1.541172 1_545
O10 V0 2.025774 1_555
O11 V3 1.675420 1_545
O11 V0 2.249180 1_556
O12 P0 1.511028 1_555
O12 V1 1.893506 1_555
O13 P0 1.548010 1_565
O13 V3 2.026974 1_555
O14 P2 1.511028 1_555
O14 V0 1.893506 1_556
O15 P3 1.511028 1_555
O15 V3 1.893506 1_555
O16 P0 1.510622 1_555
O16 V0 1.898840 1_556
O17 V1 1.675420 1_555
O17 V2 2.249180 1_544
O18 P2 1.510622 1_555
O18 V1 1.898840 1_455
O19 P1 1.548010 1_455
O19 V0 2.026974 1_555
