# generated using pymatgen
data_CsHo2Cu3Se5
_symmetry_space_group_name_H-M   'P 1'
_cell_length_a   4.12493900
_cell_length_b   7.64470586
_cell_length_c   17.36245685
_cell_angle_alpha   90.01584775
_cell_angle_beta   90.03408221
_cell_angle_gamma   105.59232038
_symmetry_Int_Tables_number   1
_chemical_formula_structural   CsHo2Cu3Se5
_chemical_formula_sum   'Cs2 Ho4 Cu6 Se10'
_cell_volume   527.35760389
_cell_formula_units_Z   2
loop_
 _symmetry_equiv_pos_site_id
 _symmetry_equiv_pos_as_xyz
  1  'x, y, z'
loop_
 _atom_site_type_symbol
 _atom_site_label
 _atom_site_symmetry_multiplicity
 _atom_site_fract_x
 _atom_site_fract_y
 _atom_site_fract_z
 _atom_site_occupancy
  Cs  Cs0  1  0.94667800  0.87962500  0.74939700  1
  Cs  Cs1  1  0.06021800  0.11986400  0.24964800  1
  Ho  Ho0  1  0.80815200  0.61816200  0.09103800  1
  Ho  Ho1  1  0.19020900  0.38471300  0.59096600  1
  Ho  Ho2  1  0.19388800  0.38655300  0.90880300  1
  Ho  Ho3  1  0.80120100  0.61498000  0.40893200  1
  Cu  Cu0  1  0.42103300  0.83396000  0.53383900  1
  Cu  Cu1  1  0.34837500  0.68608300  0.24908400  1
  Cu  Cu2  1  0.66781200  0.31495200  0.75081400  1
  Cu  Cu3  1  0.59120100  0.16966500  0.03243500  1
  Cu  Cu4  1  0.57712300  0.16515700  0.46643900  1
  Cu  Cu5  1  0.41836300  0.83682200  0.96715600  1
  Se  Se0  1  0.83204800  0.66398600  0.56989700  1
  Se  Se1  1  0.16351300  0.33765200  0.42944400  1
  Se  Se2  1  0.76859700  0.52723200  0.24979100  1
  Se  Se3  1  0.56190600  0.12538100  0.61114300  1
  Se  Se4  1  0.17192100  0.33874100  0.06995300  1
  Se  Se5  1  0.43217000  0.87494500  0.38884800  1
  Se  Se6  1  0.43628300  0.87827800  0.11146200  1
  Se  Se7  1  0.56426800  0.12763500  0.88820100  1
  Se  Se8  1  0.24605200  0.47518800  0.74972600  1
  Se  Se9  1  0.83305000  0.66583500  0.92983300  1
loop_
_geom_bond_atom_site_label_1
_geom_bond_atom_site_label_2
_geom_bond_distance
_geom_bond_site_symmetry_2
Cs0 Se0 3.497205 1_555
Cs0 Se9 3.506866 1_555
Cs0 Se8 3.620512 1_555
Cs0 Se8 3.624468 1_655
Cs0 Se3 3.630244 1_665
Cs0 Se7 3.645022 1_665
Cs0 Se3 3.662202 1_565
Cs0 Se7 3.674327 1_565
Cs0 Cu2 3.802232 1_565
Cs0 Cu2 3.821309 1_665
Cs1 Se1 3.508948 1_555
Cs1 Se4 3.512303 1_555
Cs1 Se6 3.621565 1_545
Cs1 Se2 3.627557 1_455
Cs1 Se6 3.636772 1_445
Cs1 Se5 3.639124 1_545
Cs1 Se2 3.653028 1_555
Cs1 Se5 3.668883 1_445
Cs1 Cu1 3.792642 1_445
Cs1 Cu1 3.811640 1_545
Ho0 Se9 2.821007 1_554
Ho0 Se6 2.832311 1_655
Ho0 Se2 2.836878 1_555
Ho0 Se6 2.841285 1_555
Ho0 Se4 2.927320 1_555
Ho0 Se4 2.944790 1_655
Ho1 Se1 2.825615 1_555
Ho1 Se3 2.830085 1_455
Ho1 Se3 2.835082 1_555
Ho1 Se8 2.835856 1_555
Ho1 Se0 2.927452 1_455
Ho1 Se0 2.943523 1_555
Ho2 Se4 2.820186 1_556
Ho2 Se7 2.829465 1_555
Ho2 Se7 2.833006 1_455
Ho2 Se8 2.838530 1_555
Ho2 Se9 2.935165 1_555
Ho2 Se9 2.935247 1_455
Ho3 Se0 2.817895 1_555
Ho3 Se5 2.830974 1_555
Ho3 Se2 2.837729 1_555
Ho3 Se5 2.840087 1_655
Ho3 Se1 2.923069 1_555
Ho3 Se1 2.925459 1_655
Cu0 Se0 2.477559 1_555
Cu0 Se0 2.507617 1_455
Cu0 Se3 2.530579 1_565
Cu0 Se5 2.535827 1_555
Cu1 Se2 2.368768 1_555
Cu1 Se2 2.373423 1_455
Cu1 Se6 2.777826 1_555
Cu1 Se5 2.796679 1_555
Cu2 Se8 2.370539 1_655
Cu2 Se8 2.381841 1_555
Cu2 Se7 2.756325 1_555
Cu2 Se3 2.797910 1_555
Cu3 Se4 2.483206 1_655
Cu3 Se4 2.507743 1_555
Cu3 Se7 2.523275 1_554
Cu3 Se6 2.547662 1_545
Cu4 Se1 2.504183 1_555
Cu4 Se1 2.507950 1_655
Cu4 Se5 2.525622 1_545
Cu4 Se3 2.529623 1_555
Cu5 Se9 2.501484 1_555
Cu5 Se9 2.501776 1_455
Cu5 Se6 2.523928 1_556
Cu5 Se7 2.543101 1_565
