# generated using pymatgen
data_La5V3S6O7
_symmetry_space_group_name_H-M   'P 1'
_cell_length_a   3.82626900
_cell_length_b   10.33267300
_cell_length_c   18.11131200
_cell_angle_alpha   90.00000000
_cell_angle_beta   90.00000000
_cell_angle_gamma   90.00000000
_symmetry_Int_Tables_number   1
_chemical_formula_structural   La5V3S6O7
_chemical_formula_sum   'La10 V6 S12 O14'
_cell_volume   716.04134016
_cell_formula_units_Z   2
loop_
 _symmetry_equiv_pos_site_id
 _symmetry_equiv_pos_as_xyz
  1  'x, y, z'
loop_
 _atom_site_type_symbol
 _atom_site_label
 _atom_site_symmetry_multiplicity
 _atom_site_fract_x
 _atom_site_fract_y
 _atom_site_fract_z
 _atom_site_occupancy
  La  La0  1  0.00000000  0.73002300  0.75172200  1
  La  La1  1  0.00000000  0.53147300  0.13466300  1
  La  La2  1  0.00000000  0.08404500  0.91287000  1
  La  La3  1  0.50000000  0.91066800  0.08491300  1
  La  La4  1  0.50000000  0.47440500  0.86423100  1
  La  La5  1  0.00000000  0.52559500  0.36423100  1
  La  La6  1  0.50000000  0.91595500  0.41287000  1
  La  La7  1  0.50000000  0.46852700  0.63466300  1
  La  La8  1  0.00000000  0.08933200  0.58491300  1
  La  La9  1  0.50000000  0.26997700  0.25172200  1
  V  V0  1  0.50000000  0.25260400  0.05697100  1
  V  V1  1  0.50000000  0.25131700  0.44316200  1
  V  V2  1  0.00000000  0.74739600  0.55697100  1
  V  V3  1  0.50000000  0.18826800  0.75009800  1
  V  V4  1  0.00000000  0.81173200  0.25009800  1
  V  V5  1  0.00000000  0.74868300  0.94316200  1
  S  S0  1  0.00000000  0.35049300  0.98771200  1
  S  S1  1  0.50000000  0.64235500  0.24967600  1
  S  S2  1  0.00000000  0.03907800  0.74927100  1
  S  S3  1  0.50000000  0.85405700  0.86913100  1
  S  S4  1  0.00000000  0.14594300  0.36913100  1
  S  S5  1  0.50000000  0.85174400  0.63078600  1
  S  S6  1  0.50000000  0.64564000  0.01558800  1
  S  S7  1  0.50000000  0.64950700  0.48771200  1
  S  S8  1  0.00000000  0.35764500  0.74967600  1
  S  S9  1  0.50000000  0.96092200  0.24927100  1
  S  S10  1  0.00000000  0.35436000  0.51558800  1
  S  S11  1  0.00000000  0.14825600  0.13078600  1
  O  O0  1  0.50000000  0.38722400  0.12624500  1
  O  O1  1  0.00000000  0.40334600  0.24827300  1
  O  O2  1  0.00000000  0.61277600  0.62624500  1
  O  O3  1  0.50000000  0.20760200  0.85140700  1
  O  O4  1  0.50000000  0.39571700  0.37020300  1
  O  O5  1  0.50000000  0.10891500  0.99893000  1
  O  O6  1  0.50000000  0.59665400  0.74827300  1
  O  O7  1  0.00000000  0.79239800  0.35140700  1
  O  O8  1  0.00000000  0.78845300  0.14938800  1
  O  O9  1  0.50000000  0.09611100  0.50488300  1
  O  O10  1  0.00000000  0.90388900  0.00488300  1
  O  O11  1  0.50000000  0.21154700  0.64938800  1
  O  O12  1  0.00000000  0.60428300  0.87020300  1
  O  O13  1  0.00000000  0.89108500  0.49893000  1
loop_
_geom_bond_atom_site_label_1
_geom_bond_atom_site_label_2
_geom_bond_distance
_geom_bond_site_symmetry_2
La0 O6 2.358608 1_455
La0 O6 2.358608 1_555
La0 O12 2.508517 1_555
La0 O2 2.575300 1_555
La0 S3 3.134374 1_555
La0 S3 3.134374 1_455
La0 S5 3.168495 1_555
La0 S5 3.168495 1_455
La0 S2 3.193673 1_565
La1 O0 2.429990 1_455
La1 O0 2.429990 1_555
La1 O1 2.446737 1_555
La1 O8 2.668649 1_555
La1 S1 3.051519 1_455
La1 S1 3.051519 1_555
La1 S6 3.114900 1_455
La1 S6 3.114900 1_555
La1 S0 3.252749 1_554
La2 O5 2.481036 1_455
La2 O5 2.481036 1_555
La2 O10 2.498459 1_546
La2 O3 2.555218 1_455
La2 O3 2.555218 1_555
La2 S2 2.999201 1_555
La2 S0 3.068715 1_555
La2 S3 3.151960 1_445
La2 S3 3.151960 1_545
La3 O10 2.401227 1_655
La3 O10 2.401227 1_555
La3 O8 2.572616 1_655
La3 O8 2.572616 1_555
La3 O5 2.573151 1_564
La3 S6 3.012564 1_555
La3 S9 3.021689 1_555
La3 S11 3.221331 1_565
La3 S11 3.221331 1_665
La4 O12 2.339383 1_555
La4 O12 2.339383 1_655
La4 O6 2.450756 1_555
La4 O3 2.766555 1_555
La4 S8 3.069225 1_655
La4 S8 3.069225 1_555
La4 S0 3.209495 1_555
La4 S0 3.209495 1_655
La4 S6 3.262677 1_556
La5 O4 2.339383 1_555
La5 O4 2.339383 1_455
La5 O1 2.450756 1_555
La5 O7 2.766555 1_555
La5 S1 3.069225 1_455
La5 S1 3.069225 1_555
La5 S7 3.209495 1_455
La5 S7 3.209495 1_555
La5 S10 3.262677 1_555
La6 O13 2.481036 1_555
La6 O13 2.481036 1_655
La6 O9 2.498459 1_565
La6 O7 2.555218 1_555
La6 O7 2.555218 1_655
La6 S9 2.999201 1_555
La6 S7 3.068715 1_555
La6 S4 3.151960 1_565
La6 S4 3.151960 1_665
La7 O2 2.429990 1_555
La7 O2 2.429990 1_655
La7 O6 2.446737 1_555
La7 O11 2.668649 1_555
La7 S8 3.051519 1_655
La7 S8 3.051519 1_555
La7 S10 3.114900 1_555
La7 S10 3.114900 1_655
La7 S7 3.252749 1_555
La8 O9 2.401227 1_455
La8 O9 2.401227 1_555
La8 O11 2.572616 1_555
La8 O11 2.572616 1_455
La8 O13 2.573151 1_545
La8 S10 3.012564 1_555
La8 S2 3.021689 1_555
La8 S5 3.221331 1_545
La8 S5 3.221331 1_445
La9 O1 2.358608 1_655
La9 O1 2.358608 1_555
La9 O4 2.508517 1_555
La9 O0 2.575300 1_555
La9 S4 3.134374 1_655
La9 S4 3.134374 1_555
La9 S11 3.168495 1_555
La9 S11 3.168495 1_655
La9 S9 3.193673 1_545
S0 V0 2.501314 1_556
S0 V0 2.501314 1_456
S1 V4 2.592885 1_555
S1 V4 2.592885 1_655
S2 V3 2.456955 1_555
S2 V3 2.456955 1_455
S3 V5 2.577460 1_555
S3 V5 2.577460 1_655
S4 V1 2.577460 1_555
S4 V1 2.577460 1_455
S5 V2 2.570963 1_655
S5 V2 2.570963 1_555
S6 V5 2.552318 1_654
S6 V5 2.552318 1_554
S7 V2 2.501314 1_555
S7 V2 2.501314 1_655
S8 V3 2.592885 1_555
S8 V3 2.592885 1_455
S9 V4 2.456955 1_655
S9 V4 2.456955 1_555
S10 V1 2.552318 1_555
S10 V1 2.552318 1_455
S11 V0 2.570963 1_455
S11 V0 2.570963 1_555
O0 V0 1.873224 1_555
O2 V2 1.873224 1_555
O3 V3 1.845682 1_555
O4 V1 1.993046 1_555
O5 V0 1.819156 1_556
O7 V4 1.845682 1_555
O8 V4 1.839782 1_555
O9 V1 1.954844 1_555
O10 V5 1.954844 1_554
O11 V3 1.839782 1_555
O12 V5 1.993046 1_555
O13 V2 1.819156 1_555
