# generated using pymatgen
data_Y6Pb8OF32
_symmetry_space_group_name_H-M   'P 1'
_cell_length_a   9.30794857
_cell_length_b   9.30794857
_cell_length_c   9.30794907
_cell_angle_alpha   72.78077328
_cell_angle_beta   72.78077328
_cell_angle_gamma   72.78076760
_symmetry_Int_Tables_number   1
_chemical_formula_structural   Y6Pb8OF32
_chemical_formula_sum   'Y6 Pb8 O1 F32'
_cell_volume   716.30220520
_cell_formula_units_Z   1
loop_
 _symmetry_equiv_pos_site_id
 _symmetry_equiv_pos_as_xyz
  1  'x, y, z'
loop_
 _atom_site_type_symbol
 _atom_site_label
 _atom_site_symmetry_multiplicity
 _atom_site_fract_x
 _atom_site_fract_y
 _atom_site_fract_z
 _atom_site_occupancy
  Y  Y0  1  0.52640600  0.83996600  0.39077000  1
  Y  Y1  1  0.47359400  0.16003400  0.60923000  1
  Y  Y2  1  0.60923000  0.47359400  0.16003400  1
  Y  Y3  1  0.83996600  0.39077000  0.52640600  1
  Y  Y4  1  0.16003400  0.60923000  0.47359400  1
  Y  Y5  1  0.39077000  0.52640600  0.83996600  1
  Pb  Pb0  1  0.90058700  0.04369700  0.29011200  1
  Pb  Pb1  1  0.29011200  0.90058700  0.04369700  1
  Pb  Pb2  1  0.70988800  0.09941300  0.95630300  1
  Pb  Pb3  1  0.09941300  0.95630300  0.70988800  1
  Pb  Pb4  1  0.26263900  0.26263900  0.26263900  1
  Pb  Pb5  1  0.95630300  0.70988800  0.09941300  1
  Pb  Pb6  1  0.73736100  0.73736100  0.73736100  1
  Pb  Pb7  1  0.04369700  0.29011200  0.90058700  1
  O  O0  1  0.00000000  0.00000000  0.00000000  1
  F  F0  1  0.82001700  0.54913200  0.97651400  1
  F  F1  1  0.26184900  0.08037500  0.78559300  1
  F  F2  1  0.30288400  0.78679500  0.40806100  1
  F  F3  1  0.49011100  0.35689000  0.04611900  1
  F  F4  1  0.08037500  0.78559300  0.26184900  1
  F  F5  1  0.26800900  0.35254900  0.54848600  1
  F  F6  1  0.45151400  0.73199100  0.64745100  1
  F  F7  1  0.64745100  0.45151400  0.73199100  1
  F  F8  1  0.35254900  0.54848600  0.26800900  1
  F  F9  1  0.85950100  0.85950100  0.85950100  1
  F  F10  1  0.17998300  0.45086800  0.02348600  1
  F  F11  1  0.78679500  0.40806100  0.30288400  1
  F  F12  1  0.35689000  0.04611900  0.49011100  1
  F  F13  1  0.54913200  0.97651400  0.82001700  1
  F  F14  1  0.21320500  0.59193900  0.69711600  1
  F  F15  1  0.21440700  0.73815100  0.91962500  1
  F  F16  1  0.97651400  0.82001700  0.54913200  1
  F  F17  1  0.04611900  0.49011100  0.35689000  1
  F  F18  1  0.73815100  0.91962500  0.21440700  1
  F  F19  1  0.64311000  0.95388100  0.50988900  1
  F  F20  1  0.40806100  0.30288400  0.78679500  1
  F  F21  1  0.95388100  0.50988900  0.64311000  1
  F  F22  1  0.50988900  0.64311000  0.95388100  1
  F  F23  1  0.73199100  0.64745100  0.45151400  1
  F  F24  1  0.59193900  0.69711600  0.21320500  1
  F  F25  1  0.54848600  0.26800900  0.35254900  1
  F  F26  1  0.45086800  0.02348600  0.17998300  1
  F  F27  1  0.02348600  0.17998300  0.45086800  1
  F  F28  1  0.78559300  0.26184900  0.08037500  1
  F  F29  1  0.14049900  0.14049900  0.14049900  1
  F  F30  1  0.69711600  0.21320500  0.59193900  1
  F  F31  1  0.91962500  0.21440700  0.73815100  1
loop_
_geom_bond_atom_site_label_1
_geom_bond_atom_site_label_2
_geom_bond_distance
_geom_bond_site_symmetry_2
O0 Pb1 2.694735 1_545
O0 Pb2 2.694735 1_454
O0 Pb7 2.694735 1_554
O0 Pb5 2.694735 1_445
O0 Pb0 2.694735 1_455
O0 Pb3 2.694735 1_544
F0 Y2 2.320150 1_556
F0 Pb6 2.554123 1_555
F1 Y1 2.314749 1_555
F1 Pb3 2.502515 1_545
F1 Pb1 2.524786 1_546
F1 Pb7 2.585220 1_555
F2 Y0 2.227930 1_555
F2 Y4 2.257360 1_555
F3 Y5 2.328253 1_554
F3 Y2 2.371633 1_555
F3 Pb4 2.615495 1_555
F4 Y4 2.314749 1_555
F4 Pb5 2.502515 1_455
F4 Pb0 2.524786 1_465
F4 Pb1 2.585220 1_555
F5 Y1 2.281008 1_555
F5 Y4 2.282819 1_555
F6 Y5 2.281009 1_555
F6 Y0 2.282819 1_555
F7 Y3 2.281009 1_555
F7 Y5 2.282819 1_555
F8 Y4 2.281009 1_555
F8 Y2 2.282819 1_555
F9 Pb6 2.484574 1_555
F9 Pb2 2.518938 1_565
F9 Pb5 2.518938 1_556
F9 Pb3 2.518938 1_655
F10 Y5 2.320150 1_554
F10 Pb4 2.554123 1_555
F11 Y3 2.227931 1_555
F11 Y2 2.257360 1_555
F12 Y0 2.328253 1_545
F12 Y1 2.371633 1_555
F12 Pb4 2.615495 1_555
F13 Y1 2.320150 1_565
F13 Pb6 2.554123 1_555
F14 Y4 2.227931 1_555
F14 Y5 2.257360 1_555
F15 Y5 2.314749 1_555
F15 Pb1 2.502515 1_556
F15 Pb5 2.524786 1_456
F15 Pb3 2.585220 1_555
F16 Y4 2.320150 1_655
F16 Pb6 2.554123 1_555
F17 Y3 2.328253 1_455
F17 Y4 2.371633 1_555
F17 Pb4 2.615495 1_555
F18 Y0 2.314749 1_555
F18 Pb0 2.502515 1_565
F18 Pb2 2.524786 1_564
F18 Pb5 2.585220 1_555
F19 Y1 2.328253 1_565
F19 Y0 2.371633 1_555
F19 Pb6 2.615495 1_555
F20 Y5 2.227930 1_555
F20 Y1 2.257360 1_555
F21 Y4 2.328253 1_655
F21 Y3 2.371633 1_555
F21 Pb6 2.615495 1_555
F22 Y2 2.328253 1_556
F22 Y5 2.371633 1_555
F22 Pb6 2.615495 1_555
F23 Y0 2.281008 1_555
F23 Y3 2.282819 1_555
F24 Y2 2.227930 1_555
F24 Y0 2.257360 1_555
F25 Y2 2.281009 1_555
F25 Y1 2.282819 1_555
F26 Y0 2.320150 1_545
F26 Pb4 2.554123 1_555
F27 Y3 2.320150 1_455
F27 Pb4 2.554123 1_555
F28 Y2 2.314749 1_555
F28 Pb2 2.502515 1_554
F28 Pb7 2.524786 1_654
F28 Pb0 2.585220 1_555
F29 Pb4 2.484574 1_555
F29 Pb1 2.518938 1_545
F29 Pb7 2.518938 1_554
F29 Pb0 2.518938 1_455
F30 Y1 2.227930 1_555
F30 Y3 2.257360 1_555
F31 Y3 2.314749 1_555
F31 Pb7 2.502515 1_655
F31 Pb3 2.524786 1_645
F31 Pb2 2.585220 1_555
