# generated using pymatgen
data_K4PH5Se3O16
_symmetry_space_group_name_H-M   'P 1'
_cell_length_a   7.78463500
_cell_length_b   7.84754464
_cell_length_c   15.18190280
_cell_angle_alpha   87.97994267
_cell_angle_beta   86.01129648
_cell_angle_gamma   71.06925501
_symmetry_Int_Tables_number   1
_chemical_formula_structural   K4PH5Se3O16
_chemical_formula_sum   'K8 P2 H10 Se6 O32'
_cell_volume   875.09713001
_cell_formula_units_Z   2
loop_
 _symmetry_equiv_pos_site_id
 _symmetry_equiv_pos_as_xyz
  1  'x, y, z'
loop_
 _atom_site_type_symbol
 _atom_site_label
 _atom_site_symmetry_multiplicity
 _atom_site_fract_x
 _atom_site_fract_y
 _atom_site_fract_z
 _atom_site_occupancy
  K  K0  1  0.73969400  0.22061100  0.01434300  1
  K  K1  1  0.80607400  0.66852800  0.16821200  1
  K  K2  1  0.18877600  0.33706500  0.32977800  1
  K  K3  1  0.25860400  0.77974300  0.48238800  1
  K  K4  1  0.74139600  0.22025700  0.51761200  1
  K  K5  1  0.81122400  0.66293500  0.67022200  1
  K  K6  1  0.19392600  0.33147200  0.83178800  1
  K  K7  1  0.26030600  0.77938900  0.98565700  1
  P  P0  1  0.27592900  0.80887800  0.23138300  1
  P  P1  1  0.72407100  0.19112200  0.76861700  1
  H  H0  1  0.42600900  0.02297200  0.13014100  1
  H  H1  1  0.99248900  0.91816300  0.18284600  1
  H  H2  1  0.46968600  0.53096700  0.25223600  1
  H  H3  1  0.06565600  0.03516600  0.31302900  1
  H  H4  1  0.57088700  0.97166100  0.37161700  1
  H  H5  1  0.42911300  0.02833900  0.62838300  1
  H  H6  1  0.93434400  0.96483400  0.68697100  1
  H  H7  1  0.53031400  0.46903300  0.74776400  1
  H  H8  1  0.00751100  0.08183700  0.81715400  1
  H  H9  1  0.57399100  0.97702800  0.86985900  1
  Se  Se0  1  0.21850400  0.27508600  0.06498700  1
  Se  Se1  1  0.72405400  0.19935400  0.26623400  1
  Se  Se2  1  0.78207100  0.72260300  0.43607700  1
  Se  Se3  1  0.21792900  0.27739700  0.56392300  1
  Se  Se4  1  0.27594600  0.80064600  0.73376600  1
  Se  Se5  1  0.78149600  0.72491400  0.93501300  1
  O  O0  1  0.13471700  0.15118200  0.00475100  1
  O  O1  1  0.27212200  0.43182900  0.00435300  1
  O  O2  1  0.43541800  0.13833100  0.09747300  1
  O  O3  1  0.09118100  0.34734600  0.15637900  1
  O  O4  1  0.11338000  0.81134800  0.17407900  1
  O  O5  1  0.42863100  0.84501100  0.17500600  1
  O  O6  1  0.79992900  0.04427500  0.18677500  1
  O  O7  1  0.64836700  0.40332500  0.21732600  1
  O  O8  1  0.34373800  0.61693300  0.27641300  1
  O  O9  1  0.19875000  0.94379400  0.30958800  1
  O  O10  1  0.55441100  0.16500000  0.33021900  1
  O  O11  1  0.89439900  0.18665500  0.33134700  1
  O  O12  1  0.90820000  0.65267100  0.34391500  1
  O  O13  1  0.56313000  0.85699000  0.40379100  1
  O  O14  1  0.13550400  0.15164200  0.50454200  1
  O  O15  1  0.27064300  0.43407200  0.50324300  1
  O  O16  1  0.72935700  0.56592800  0.49675700  1
  O  O17  1  0.86449600  0.84835800  0.49545800  1
  O  O18  1  0.43687000  0.14301000  0.59620900  1
  O  O19  1  0.09180000  0.34732900  0.65608500  1
  O  O20  1  0.10560100  0.81334500  0.66865300  1
  O  O21  1  0.44558900  0.83500000  0.66978100  1
  O  O22  1  0.80125000  0.05620600  0.69041200  1
  O  O23  1  0.65626200  0.38306700  0.72358700  1
  O  O24  1  0.35163300  0.59667500  0.78267400  1
  O  O25  1  0.20007100  0.95572500  0.81322500  1
  O  O26  1  0.57136900  0.15498900  0.82499400  1
  O  O27  1  0.88662000  0.18865200  0.82592100  1
  O  O28  1  0.90881900  0.65265400  0.84362100  1
  O  O29  1  0.56458200  0.86166900  0.90252700  1
  O  O30  1  0.72787800  0.56817100  0.99564700  1
  O  O31  1  0.86528300  0.84881800  0.99524900  1
loop_
_geom_bond_atom_site_label_1
_geom_bond_atom_site_label_2
_geom_bond_distance
_geom_bond_site_symmetry_2
K0 O30 2.704535 1_554
K0 O31 2.778843 1_544
K0 O2 2.852967 1_555
K0 O6 2.912433 1_555
K0 O0 2.937777 1_655
K0 O27 2.993899 1_554
K1 O3 2.767279 1_655
K1 O7 2.795652 1_555
K1 O5 2.808843 1_555
K1 O12 2.823218 1_555
K1 O30 2.921108 1_554
K1 O6 2.956633 1_565
K1 O4 2.960307 1_655
K1 O31 3.017022 1_554
K2 O12 2.722707 1_455
K2 O10 2.726387 1_555
K2 O3 2.781621 1_555
K2 O11 2.896689 1_455
K2 O8 2.897051 1_555
K2 O15 2.934414 1_555
K2 O14 3.048830 1_555
K2 O9 3.087489 1_545
K3 O15 2.691881 1_555
K3 O14 2.785450 1_565
K3 O13 2.810533 1_555
K3 O9 2.880908 1_555
K3 O17 2.931349 1_455
K3 O20 2.977443 1_555
K4 O16 2.691881 1_555
K4 O17 2.785450 1_545
K4 O18 2.810533 1_555
K4 O22 2.880908 1_555
K4 O14 2.931349 1_655
K4 O11 2.977443 1_555
K5 O19 2.722707 1_655
K5 O21 2.726387 1_555
K5 O28 2.781621 1_555
K5 O20 2.896689 1_655
K5 O23 2.897051 1_555
K5 O16 2.934414 1_555
K5 O17 3.048830 1_555
K5 O22 3.087489 1_565
K6 O28 2.767279 1_455
K6 O24 2.795652 1_555
K6 O26 2.808843 1_555
K6 O19 2.823218 1_555
K6 O1 2.921108 1_556
K6 O25 2.956633 1_545
K6 O27 2.960307 1_455
K6 O0 3.017022 1_556
K7 O1 2.704535 1_556
K7 O0 2.778843 1_566
K7 O29 2.852967 1_555
K7 O25 2.912433 1_555
K7 O31 2.937777 1_455
K7 O4 2.993899 1_556
H0 O2 1.037883 1_555
H0 O5 1.526798 1_545
H1 O4 1.041441 1_655
H1 O6 1.503054 1_565
H1 K1 2.813036 1_555
H2 O8 1.043723 1_555
H2 O7 1.499956 1_555
H3 O9 1.050442 1_545
H3 O11 1.487059 1_455
H3 K2 2.854111 1_555
H4 O13 1.025770 1_555
H4 O10 1.590972 1_565
H5 O18 1.025770 1_555
H5 O21 1.590972 1_545
H6 O22 1.050442 1_565
H6 O20 1.487059 1_655
H6 K5 2.854111 1_555
H7 O23 1.043723 1_555
H7 O24 1.499956 1_555
H8 O27 1.041441 1_455
H8 O25 1.503054 1_545
H8 K6 2.813036 1_555
H9 O29 1.037883 1_555
H9 O26 1.526798 1_565
O0 Se0 1.662638 1_555
O1 Se0 1.653627 1_555
O2 Se0 1.774556 1_555
O3 Se0 1.651845 1_555
O4 P0 1.579397 1_555
O5 P0 1.511990 1_555
O6 Se1 1.680225 1_555
O7 Se1 1.681002 1_555
O8 P0 1.573731 1_555
O9 P0 1.571072 1_555
O10 Se1 1.671649 1_555
O11 Se1 1.683832 1_555
O12 Se2 1.654196 1_555
O13 Se2 1.780691 1_555
O14 Se3 1.659041 1_555
O15 Se3 1.650366 1_555
O16 Se2 1.650366 1_555
O17 Se2 1.659041 1_555
O18 Se3 1.780691 1_555
O19 Se3 1.654196 1_555
O20 Se4 1.683832 1_555
O21 Se4 1.671649 1_555
O22 P1 1.571072 1_555
O23 P1 1.573731 1_555
O24 Se4 1.681002 1_555
O25 Se4 1.680225 1_555
O26 P1 1.511990 1_555
O27 P1 1.579397 1_555
O28 Se5 1.651845 1_555
O29 Se5 1.774556 1_555
O30 Se5 1.653627 1_555
O31 Se5 1.662638 1_555
