# generated using pymatgen
data_Mn3(SiTe3)2
_symmetry_space_group_name_H-M   'P 1'
_cell_length_a   7.10707432
_cell_length_b   7.10707432
_cell_length_c   14.24210700
_cell_angle_alpha   90.00000000
_cell_angle_beta   90.00000000
_cell_angle_gamma   120.00000298
_symmetry_Int_Tables_number   1
_chemical_formula_structural   Mn3(SiTe3)2
_chemical_formula_sum   'Mn6 Si4 Te12'
_cell_volume   622.99789155
_cell_formula_units_Z   2
loop_
 _symmetry_equiv_pos_site_id
 _symmetry_equiv_pos_as_xyz
  1  'x, y, z'
loop_
 _atom_site_type_symbol
 _atom_site_label
 _atom_site_symmetry_multiplicity
 _atom_site_fract_x
 _atom_site_fract_y
 _atom_site_fract_z
 _atom_site_occupancy
  Mn  Mn0  1  0.33333300  0.66666700  0.50622700  1
  Mn  Mn1  1  0.33333300  0.66666700  0.25000000  1
  Mn  Mn2  1  0.66666700  0.33333300  0.00622700  1
  Mn  Mn3  1  0.33333300  0.66666700  0.99377300  1
  Mn  Mn4  1  0.66666700  0.33333300  0.75000000  1
  Mn  Mn5  1  0.66666700  0.33333300  0.49377300  1
  Si  Si0  1  0.00000000  0.00000000  0.16616400  1
  Si  Si1  1  0.00000000  0.00000000  0.33383600  1
  Si  Si2  1  0.00000000  0.00000000  0.66616400  1
  Si  Si3  1  0.00000000  0.00000000  0.83383600  1
  Te  Te0  1  0.35330600  0.01048600  0.87800300  1
  Te  Te1  1  0.34282100  0.98951400  0.37800300  1
  Te  Te2  1  0.01048600  0.65717900  0.12199700  1
  Te  Te3  1  0.35330600  0.34282100  0.62199700  1
  Te  Te4  1  0.98951400  0.64669400  0.62199700  1
  Te  Te5  1  0.34282100  0.35330600  0.12199700  1
  Te  Te6  1  0.65717900  0.64669400  0.87800300  1
  Te  Te7  1  0.01048600  0.35330600  0.37800300  1
  Te  Te8  1  0.64669400  0.65717900  0.37800300  1
  Te  Te9  1  0.98951400  0.34282100  0.87800300  1
  Te  Te10  1  0.65717900  0.01048600  0.62199700  1
  Te  Te11  1  0.64669400  0.98951400  0.12199700  1
loop_
_geom_bond_atom_site_label_1
_geom_bond_atom_site_label_2
_geom_bond_distance
_geom_bond_site_symmetry_2
Mn0 Te10 2.891847 1_565
Mn0 Te4 2.891848 1_455
Mn0 Te3 2.891848 1_555
Mn0 Te1 2.906798 1_555
Mn0 Te7 2.906804 1_555
Mn0 Te8 2.906809 1_555
Mn1 Te2 2.904822 1_555
Mn1 Te1 2.904822 1_555
Mn1 Te7 2.904827 1_555
Mn1 Te11 2.904827 1_555
Mn1 Te8 2.904833 1_555
Mn1 Te5 2.904833 1_555
Mn2 Te2 2.891847 1_655
Mn2 Te11 2.891848 1_545
Mn2 Te5 2.891848 1_555
Mn2 Te9 2.906798 1_554
Mn2 Te0 2.906804 1_554
Mn2 Te6 2.906809 1_554
Mn3 Te9 2.891847 1_455
Mn3 Te0 2.891848 1_565
Mn3 Te6 2.891848 1_555
Mn3 Te2 2.906798 1_556
Mn3 Te11 2.906804 1_556
Mn3 Te5 2.906809 1_556
Mn4 Te9 2.904822 1_555
Mn4 Te10 2.904822 1_555
Mn4 Te0 2.904827 1_555
Mn4 Te4 2.904827 1_555
Mn4 Te3 2.904833 1_555
Mn4 Te6 2.904833 1_555
Mn5 Te1 2.891847 1_545
Mn5 Te7 2.891848 1_655
Mn5 Te8 2.891848 1_555
Mn5 Te10 2.906798 1_555
Mn5 Te4 2.906804 1_555
Mn5 Te3 2.906809 1_555
Si0 Si1 2.388003 1_555
Si0 Te11 2.553250 1_445
Si0 Te5 2.553253 1_555
Si0 Te2 2.553257 1_545
Si1 Te7 2.553250 1_555
Si1 Te8 2.553253 1_445
Si1 Te1 2.553257 1_545
Si2 Si3 2.388003 1_555
Si2 Te4 2.553250 1_445
Si2 Te3 2.553253 1_555
Si2 Te10 2.553257 1_455
Si3 Te0 2.553250 1_555
Si3 Te6 2.553253 1_445
Si3 Te9 2.553257 1_455
