# generated using pymatgen
data_K3ClO
_symmetry_space_group_name_H-M   'P 1'
_cell_length_a   5.24302534
_cell_length_b   10.08188548
_cell_length_c   7.13810156
_cell_angle_alpha   45.07325321
_cell_angle_beta   90.00000000
_cell_angle_gamma   90.00000000
_symmetry_Int_Tables_number   1
_chemical_formula_structural   K3ClO
_chemical_formula_sum   'K6 Cl2 O2'
_cell_volume   267.14434313
_cell_formula_units_Z   2
loop_
 _symmetry_equiv_pos_site_id
 _symmetry_equiv_pos_as_xyz
  1  'x, y, z'
loop_
 _atom_site_type_symbol
 _atom_site_label
 _atom_site_symmetry_multiplicity
 _atom_site_fract_x
 _atom_site_fract_y
 _atom_site_fract_z
 _atom_site_occupancy
  K  K0  1  -0.00000000  0.18590527  0.50000000  1
  K  K1  1  -0.00000000  0.68082255  0.12308926  1
  K  K2  1  -0.00000000  0.30391081  0.87691074  1
  K  K3  1  0.50000000  0.49095700  0.99983801  1
  K  K4  1  0.50000000  0.99079400  0.00016199  1
  K  K5  1  0.00000000  0.80651248  0.50000000  1
  Cl  Cl0  1  0.50000000  0.48786075  0.50000000  1
  Cl  Cl1  1  0.50000000  0.99634237  0.50000000  1
  O  O0  1  0.00000000  0.99089378  0.00280820  1
  O  O1  1  -0.00000000  0.49370098  0.99719180  1
loop_
_geom_bond_atom_site_label_1
_geom_bond_atom_site_label_2
_geom_bond_distance
_geom_bond_site_symmetry_2
K0 O1 2.603940 1_554
K0 O0 2.603942 1_546
K1 O0 2.592060 1_555
K1 O1 2.600228 1_554
K2 O1 2.592060 1_555
K2 O0 2.600208 1_546
K3 O1 2.621586 1_555
K3 O1 2.621586 1_655
K4 O0 2.621586 1_555
K4 O0 2.621586 1_655
K5 O0 2.594794 1_555
K5 O1 2.594797 1_555
Cl0 K2 3.240809 1_555
Cl0 K2 3.240809 1_655
Cl0 K1 3.240810 1_655
Cl0 K1 3.240810 1_555
Cl0 K3 3.548231 1_554
Cl0 K4 3.548238 1_546
Cl0 K4 3.590000 1_555
Cl0 K3 3.590007 1_555
Cl1 K0 3.244199 1_665
Cl1 K0 3.244199 1_565
Cl1 K5 3.245786 1_555
Cl1 K5 3.245786 1_655
Cl1 K4 3.530926 1_556
Cl1 K3 3.530933 1_564
Cl1 K3 3.607608 1_555
Cl1 K4 3.607615 1_555
