# generated using pymatgen
data_Ba(IrO3)2
_symmetry_space_group_name_H-M   'P 1'
_cell_length_a   8.20110184
_cell_length_b   8.20110159
_cell_length_c   8.20110173
_cell_angle_alpha   109.57777626
_cell_angle_beta   109.57777736
_cell_angle_gamma   109.57777859
_symmetry_Int_Tables_number   1
_chemical_formula_structural   Ba(IrO3)2
_chemical_formula_sum   'Ba3 Ir6 O18'
_cell_volume   422.93092172
_cell_formula_units_Z   3
loop_
 _symmetry_equiv_pos_site_id
 _symmetry_equiv_pos_as_xyz
  1  'x, y, z'
loop_
 _atom_site_type_symbol
 _atom_site_label
 _atom_site_symmetry_multiplicity
 _atom_site_fract_x
 _atom_site_fract_y
 _atom_site_fract_z
 _atom_site_occupancy
  Ba  Ba0  1  0.36210193  0.99702007  0.99404109  1
  Ba  Ba1  1  0.99702007  0.99404109  0.36210193  1
  Ba  Ba2  1  0.99404109  0.36210193  0.99702007  1
  Ir  Ir0  1  0.50140540  0.34550645  0.83828791  1
  Ir  Ir1  1  0.83828791  0.50140540  0.34550645  1
  Ir  Ir2  1  0.34550645  0.83828791  0.50140540  1
  Ir  Ir3  1  0.65561793  0.16190113  0.50105829  1
  Ir  Ir4  1  0.16190113  0.50105829  0.65561793  1
  Ir  Ir5  1  0.50105829  0.65561793  0.16190113  1
  O  O0  1  0.64195591  0.63938573  0.00996280  1
  O  O1  1  0.71747130  0.66754059  0.36439053  1
  O  O2  1  0.66754059  0.36439053  0.71747130  1
  O  O3  1  0.68459680  0.32850953  0.04893599  1
  O  O4  1  0.32850953  0.04893599  0.68459680  1
  O  O5  1  0.64276387  0.30199161  0.35407299  1
  O  O6  1  0.04893599  0.68459680  0.32850953  1
  O  O7  1  0.99735976  0.35907022  0.35650509  1
  O  O8  1  0.35650509  0.99735976  0.35907022  1
  O  O9  1  0.00996280  0.64195591  0.63938573  1
  O  O10  1  0.94951452  0.28384386  0.63988070  1
  O  O11  1  0.36439053  0.71747130  0.66754059  1
  O  O12  1  0.63988070  0.94951452  0.28384386  1
  O  O13  1  0.28384386  0.63988070  0.94951452  1
  O  O14  1  0.63938573  0.00996280  0.64195591  1
  O  O15  1  0.35407299  0.64276387  0.30199161  1
  O  O16  1  0.30199161  0.35407299  0.64276387  1
  O  O17  1  0.35907022  0.35650509  0.99735976  1
loop_
_geom_bond_atom_site_label_1
_geom_bond_atom_site_label_2
_geom_bond_distance
_geom_bond_site_symmetry_2
Ba0 O5 2.628647 1_566
Ba0 O13 2.643915 1_555
Ba0 O4 2.651737 1_565
Ba0 O3 2.855095 1_566
Ba0 O9 2.887577 1_555
Ba0 O11 2.893912 1_555
Ba0 O12 2.928654 1_556
Ba0 O17 2.947692 1_565
Ba0 O8 3.008419 1_556
Ba1 O16 2.628647 1_665
Ba1 O12 2.643915 1_555
Ba1 O6 2.651737 1_655
Ba1 O4 2.855095 1_665
Ba1 O0 2.887577 1_555
Ba1 O1 2.893912 1_555
Ba1 O10 2.928654 1_565
Ba1 O8 2.947692 1_655
Ba1 O7 3.008419 1_565
Ba2 O15 2.628647 1_656
Ba2 O10 2.643915 1_555
Ba2 O3 2.651737 1_556
Ba2 O6 2.855095 1_656
Ba2 O14 2.887577 1_555
Ba2 O2 2.893912 1_555
Ba2 O13 2.928654 1_655
Ba2 O7 2.947692 1_556
Ba2 O17 3.008419 1_655
Ir0 O16 1.909397 1_555
Ir0 O2 1.930872 1_555
Ir0 O3 1.955332 1_556
Ir0 O0 1.973868 1_556
Ir0 O4 1.987808 1_555
Ir0 O17 2.021110 1_555
Ir1 O5 1.909397 1_555
Ir1 O1 1.930872 1_555
Ir1 O6 1.955332 1_655
Ir1 O9 1.973868 1_655
Ir1 O3 1.987808 1_555
Ir1 O7 2.021110 1_555
Ir2 O15 1.909397 1_555
Ir2 O11 1.930872 1_555
Ir2 O4 1.955332 1_565
Ir2 O14 1.973868 1_565
Ir2 O6 1.987808 1_555
Ir2 O8 2.021110 1_555
Ir3 O5 1.925697 1_555
Ir3 O2 1.927934 1_555
Ir3 O12 1.959525 1_545
Ir3 O14 1.965318 1_555
Ir3 O10 1.971871 1_555
Ir3 O8 2.002140 1_545
Ir4 O16 1.925697 1_555
Ir4 O11 1.927934 1_555
Ir4 O10 1.959525 1_455
Ir4 O9 1.965318 1_555
Ir4 O13 1.971871 1_555
Ir4 O7 2.002140 1_455
Ir5 O15 1.925697 1_555
Ir5 O1 1.927934 1_555
Ir5 O13 1.959525 1_554
Ir5 O0 1.965318 1_555
Ir5 O12 1.971871 1_555
Ir5 O17 2.002140 1_554
