# generated using pymatgen
data_MnH2SeO5
_symmetry_space_group_name_H-M   'P 1'
_cell_length_a   5.52891719
_cell_length_b   11.05880684
_cell_length_c   8.04749828
_cell_angle_alpha   106.13852532
_cell_angle_beta   73.89783442
_cell_angle_gamma   80.37119701
_symmetry_Int_Tables_number   1
_chemical_formula_structural   MnH2SeO5
_chemical_formula_sum   'Mn4 H8 Se4 O20'
_cell_volume   437.90993353
_cell_formula_units_Z   4
loop_
 _symmetry_equiv_pos_site_id
 _symmetry_equiv_pos_as_xyz
  1  'x, y, z'
loop_
 _atom_site_type_symbol
 _atom_site_label
 _atom_site_symmetry_multiplicity
 _atom_site_fract_x
 _atom_site_fract_y
 _atom_site_fract_z
 _atom_site_occupancy
  Mn  Mn0  1  0.99944000  0.00016500  0.50008200  1
  Mn  Mn1  1  0.50000800  0.75002300  0.00013000  1
  Mn  Mn2  1  0.99953000  0.50010900  0.50033000  1
  Mn  Mn3  1  0.50021100  0.24980400  0.99995000  1
  H  H0  1  0.63002200  0.47886100  0.79057100  1
  H  H1  1  0.63020700  0.97885400  0.79041600  1
  H  H2  1  0.45771400  0.56504300  0.70952400  1
  H  H3  1  0.45762800  0.06499900  0.70950400  1
  H  H4  1  0.36985100  0.52103900  0.20961900  1
  H  H5  1  0.37004100  0.02112200  0.20953800  1
  H  H6  1  0.54226700  0.43501800  0.29065200  1
  H  H7  1  0.54216000  0.93497800  0.29063100  1
  Se  Se0  1  0.08348000  0.79187000  0.74998200  1
  Se  Se1  1  0.08348300  0.29175000  0.74998900  1
  Se  Se2  1  0.91666800  0.20828600  0.24993800  1
  Se  Se3  1  0.91660200  0.70812800  0.24985300  1
  O  O0  1  0.61347400  0.55672500  0.75005100  1
  O  O1  1  0.61346800  0.05674700  0.74995400  1
  O  O2  1  0.38645300  0.44323400  0.25023600  1
  O  O3  1  0.38649700  0.94326900  0.25003100  1
  O  O4  1  0.21022500  0.84083100  0.91403400  1
  O  O5  1  0.21023000  0.34076400  0.91405900  1
  O  O6  1  0.18145600  0.35510600  0.58597200  1
  O  O7  1  0.18148500  0.85520600  0.58599000  1
  O  O8  1  0.79015400  0.15928200  0.08576100  1
  O  O9  1  0.78985600  0.65917600  0.08579900  1
  O  O10  1  0.81869700  0.64476800  0.41385300  1
  O  O11  1  0.81865100  0.14484200  0.41384600  1
  O  O12  1  0.18038700  0.62722300  0.65975000  1
  O  O13  1  0.18041100  0.12710100  0.65974900  1
  O  O14  1  0.75428600  0.84024100  0.84006900  1
  O  O15  1  0.75425900  0.34019800  0.84007400  1
  O  O16  1  0.81950600  0.37288900  0.34022800  1
  O  O17  1  0.81960500  0.87276000  0.34018500  1
  O  O18  1  0.24580200  0.15983500  0.15987200  1
  O  O19  1  0.24578500  0.65975200  0.15977900  1
loop_
_geom_bond_atom_site_label_1
_geom_bond_atom_site_label_2
_geom_bond_distance
_geom_bond_site_symmetry_2
Mn0 O11 2.123124 1_555
Mn0 O7 2.126782 1_645
Mn0 O17 2.190889 1_545
Mn0 O13 2.191577 1_655
Mn0 O1 2.337204 1_555
Mn0 O3 2.341321 1_645
Mn1 O9 2.124170 1_555
Mn1 O4 2.125994 1_554
Mn1 O19 2.191708 1_555
Mn1 O14 2.193227 1_554
Mn1 O3 2.338236 1_555
Mn1 O0 2.339390 1_554
Mn2 O10 2.124372 1_555
Mn2 O6 2.125442 1_655
Mn2 O12 2.191149 1_655
Mn2 O16 2.191392 1_555
Mn2 O0 2.336803 1_555
Mn2 O2 2.341067 1_655
Mn3 O8 2.123765 1_556
Mn3 O5 2.126468 1_555
Mn3 O18 2.191032 1_556
Mn3 O15 2.193137 1_555
Mn3 O1 2.337499 1_555
Mn3 O2 2.340997 1_556
H0 O0 1.001227 1_555
H1 O1 1.001292 1_565
H2 O0 1.001221 1_555
H3 O1 1.001241 1_555
H4 O2 1.001089 1_555
H5 O3 1.000966 1_545
H6 O2 1.000931 1_555
H7 O3 1.001054 1_555
O4 Se0 1.664305 1_555
O5 Se1 1.664535 1_555
O6 Se1 1.664632 1_555
O7 Se0 1.664345 1_555
O8 Se2 1.664325 1_555
O9 Se3 1.664305 1_555
O10 Se3 1.664485 1_555
O11 Se2 1.664634 1_555
O12 Se0 1.688929 1_555
O13 Se1 1.688954 1_555
O14 Se0 1.688555 1_655
O15 Se1 1.688720 1_655
O16 Se2 1.688533 1_555
O17 Se3 1.688822 1_555
O18 Se2 1.688263 1_455
O19 Se3 1.688497 1_455
