# generated using pymatgen
data_KTiAsO5
_symmetry_space_group_name_H-M   'P 1'
_cell_length_a   6.68082700
_cell_length_b   10.92627800
_cell_length_c   13.34993600
_cell_angle_alpha   90.00000000
_cell_angle_beta   90.00000000
_cell_angle_gamma   90.00000000
_symmetry_Int_Tables_number   1
_chemical_formula_structural   KTiAsO5
_chemical_formula_sum   'K8 Ti8 As8 O40'
_cell_volume   974.49957873
_cell_formula_units_Z   8
loop_
 _symmetry_equiv_pos_site_id
 _symmetry_equiv_pos_as_xyz
  1  'x, y, z'
loop_
 _atom_site_type_symbol
 _atom_site_label
 _atom_site_symmetry_multiplicity
 _atom_site_fract_x
 _atom_site_fract_y
 _atom_site_fract_z
 _atom_site_occupancy
  K  K0  1  0.77906600  0.30944100  0.62473800  1
  K  K1  1  0.22093400  0.80944100  0.37526200  1
  K  K2  1  0.72093400  0.30944100  0.12473800  1
  K  K3  1  0.27906600  0.80944100  0.87526200  1
  K  K4  1  0.70215000  0.06606900  0.89191200  1
  K  K5  1  0.29785000  0.56606900  0.10808800  1
  K  K6  1  0.79785000  0.06606900  0.39191200  1
  K  K7  1  0.20215000  0.56606900  0.60808800  1
  Ti  Ti0  1  0.50675100  0.00270400  0.62746000  1
  Ti  Ti1  1  0.49324900  0.50270400  0.37254000  1
  Ti  Ti2  1  0.99324900  0.00270400  0.12746000  1
  Ti  Ti3  1  0.00675100  0.50270400  0.87254000  1
  Ti  Ti4  1  0.26743600  0.25094800  0.75432100  1
  Ti  Ti5  1  0.73256400  0.75094800  0.24567900  1
  Ti  Ti6  1  0.23256400  0.25094800  0.25432100  1
  Ti  Ti7  1  0.76743600  0.75094800  0.74567900  1
  As  As0  1  0.33182200  0.25982000  0.50210400  1
  As  As1  1  0.66817800  0.75982000  0.49789600  1
  As  As2  1  0.16817800  0.25982000  0.00210400  1
  As  As3  1  0.83182200  0.75982000  0.99789600  1
  As  As4  1  0.50904700  0.51034800  0.81938500  1
  As  As5  1  0.49095300  0.01034800  0.18061500  1
  As  As6  1  0.99095300  0.51034800  0.31938500  1
  As  As7  1  0.00904700  0.01034800  0.68061500  1
  O  O0  1  0.96841100  0.88739300  0.75868900  1
  O  O1  1  0.03158900  0.38739300  0.24131100  1
  O  O2  1  0.53158900  0.88739300  0.25868900  1
  O  O3  1  0.46841100  0.38739300  0.74131100  1
  O  O4  1  0.04042500  0.13361100  0.76094700  1
  O  O5  1  0.95957500  0.63361100  0.23905300  1
  O  O6  1  0.45957500  0.13361100  0.26094700  1
  O  O7  1  0.54042500  0.63361100  0.73905300  1
  O  O8  1  0.20996700  0.98013900  0.60515400  1
  O  O9  1  0.79003300  0.48013900  0.39484600  1
  O  O10  1  0.29003300  0.98013900  0.10515400  1
  O  O11  1  0.70996700  0.48013900  0.89484600  1
  O  O12  1  0.80645700  0.04705800  0.60755000  1
  O  O13  1  0.19354300  0.54705800  0.39245000  1
  O  O14  1  0.69354300  0.04705800  0.10755000  1
  O  O15  1  0.67540800  0.73602700  0.09958200  1
  O  O16  1  0.30645700  0.54705800  0.89245000  1
  O  O17  1  0.54793900  0.63699300  0.28083300  1
  O  O18  1  0.04793900  0.13699300  0.21916700  1
  O  O19  1  0.95206100  0.63699300  0.78083300  1
  O  O20  1  0.56280800  0.88816300  0.71701800  1
  O  O21  1  0.43719200  0.38816300  0.28298200  1
  O  O22  1  0.93719200  0.88816300  0.21701800  1
  O  O23  1  0.06280800  0.38816300  0.78298200  1
  O  O24  1  0.50254000  0.14539700  0.51359100  1
  O  O25  1  0.49746000  0.64539700  0.48640900  1
  O  O26  1  0.99746000  0.14539700  0.01359100  1
  O  O27  1  0.00254000  0.64539700  0.98640900  1
  O  O28  1  0.46477600  0.39498800  0.49314600  1
  O  O29  1  0.53522400  0.89498800  0.50685400  1
  O  O30  1  0.03522400  0.39498800  0.99314600  1
  O  O31  1  0.96477600  0.89498800  0.00685400  1
  O  O32  1  0.18232300  0.27980200  0.60651100  1
  O  O33  1  0.81767700  0.77980200  0.39348900  1
  O  O34  1  0.31767700  0.27980200  0.10651100  1
  O  O35  1  0.68232300  0.77980200  0.89348900  1
  O  O36  1  0.17540800  0.23602700  0.40041800  1
  O  O37  1  0.82459200  0.73602700  0.59958200  1
  O  O38  1  0.32459200  0.23602700  0.90041800  1
  O  O39  1  0.45206100  0.13699300  0.71916700  1
loop_
_geom_bond_atom_site_label_1
_geom_bond_atom_site_label_2
_geom_bond_distance
_geom_bond_site_symmetry_2
K0 O32 2.724373 1_655
K0 O3 2.730338 1_555
K0 O12 2.881854 1_555
K0 O28 2.892861 1_555
K0 O23 2.965824 1_655
K0 O24 2.971079 1_555
K0 O39 3.148363 1_555
K0 O4 3.169581 1_655
K1 O33 2.724373 1_455
K1 O2 2.730338 1_555
K1 O13 2.881854 1_555
K1 O29 2.892861 1_555
K1 O22 2.965824 1_455
K1 O25 2.971079 1_555
K1 O17 3.148363 1_555
K1 O5 3.169581 1_455
K2 O34 2.724373 1_555
K2 O1 2.730338 1_655
K2 O14 2.881854 1_555
K2 O30 2.892861 1_654
K2 O21 2.965824 1_555
K2 O26 2.971079 1_555
K2 O18 3.148363 1_655
K2 O6 3.169581 1_555
K3 O35 2.724373 1_555
K3 O0 2.730338 1_455
K3 O16 2.881854 1_555
K3 O31 2.892861 1_456
K3 O20 2.965824 1_555
K3 O27 2.971079 1_555
K3 O19 3.148363 1_455
K3 O7 3.169581 1_555
K4 O26 2.698586 1_556
K4 O14 2.886811 1_556
K4 O4 2.951074 1_655
K4 O39 2.951332 1_555
K4 O31 2.987854 1_546
K4 O35 3.130707 1_545
K4 O38 3.134306 1_555
K4 O20 3.177510 1_545
K4 O0 3.184140 1_545
K5 O27 2.698586 1_554
K5 O16 2.886811 1_554
K5 O5 2.951074 1_455
K5 O17 2.951332 1_555
K5 O30 2.987854 1_554
K5 O34 3.130707 1_555
K5 O15 3.134306 1_555
K5 O21 3.177510 1_555
K5 O1 3.184140 1_555
K6 O24 2.698586 1_555
K6 O12 2.886811 1_555
K6 O6 2.951074 1_555
K6 O18 2.951332 1_655
K6 O29 2.987854 1_545
K6 O33 3.130707 1_545
K6 O36 3.134306 1_655
K6 O22 3.177510 1_545
K6 O2 3.184140 1_545
K7 O25 2.698586 1_555
K7 O13 2.886811 1_555
K7 O7 2.951074 1_555
K7 O19 2.951332 1_455
K7 O28 2.987854 1_555
K7 O32 3.130707 1_555
K7 O37 3.134306 1_455
K7 O23 3.177510 1_555
K7 O3 3.184140 1_555
As0 O24 1.699231 1_555
As0 O28 1.727559 1_555
As0 O32 1.728576 1_555
As0 O36 1.732734 1_555
As1 O25 1.699231 1_555
As1 O29 1.727559 1_555
As1 O33 1.728576 1_555
As1 O37 1.732734 1_555
As2 O26 1.699231 1_455
As2 O30 1.727559 1_554
As2 O34 1.728576 1_555
As2 O38 1.732734 1_554
As3 O27 1.699231 1_655
As3 O31 1.727559 1_556
As3 O35 1.728576 1_555
As3 O15 1.732734 1_556
As4 O11 1.710439 1_555
As4 O16 1.715865 1_555
As4 O3 1.721885 1_555
As4 O7 1.734339 1_555
As5 O10 1.710439 1_545
As5 O14 1.715865 1_555
As5 O2 1.721885 1_545
As5 O6 1.734339 1_555
As6 O9 1.710439 1_555
As6 O13 1.715865 1_655
As6 O1 1.721885 1_655
As6 O5 1.734339 1_555
As7 O8 1.710439 1_545
As7 O12 1.715865 1_455
As7 O0 1.721885 1_445
As7 O4 1.734339 1_555
O0 Ti7 2.013838 1_555
O1 Ti6 2.013838 1_555
O2 Ti5 2.013838 1_555
O3 Ti4 2.013838 1_555
O4 Ti4 1.987872 1_555
O5 Ti5 1.987872 1_555
O6 Ti6 1.987872 1_555
O7 Ti7 1.987872 1_555
O8 Ti0 2.020102 1_565
O9 Ti1 2.020102 1_555
O10 Ti2 2.020102 1_465
O11 Ti3 2.020102 1_655
O12 Ti0 2.077173 1_555
O13 Ti1 2.077173 1_555
O14 Ti2 2.077173 1_555
O15 Ti5 1.994089 1_555
O16 Ti3 2.077173 1_555
O17 Ti5 1.814366 1_555
O17 Ti1 1.945578 1_555
O18 Ti6 1.814366 1_555
O18 Ti2 1.945578 1_455
O19 Ti7 1.814366 1_555
O19 Ti3 1.945578 1_655
O20 Ti0 1.770867 1_565
O20 Ti7 2.064720 1_555
O21 Ti1 1.770867 1_555
O21 Ti6 2.064720 1_555
O22 Ti2 1.770867 1_565
O22 Ti5 2.064720 1_555
O23 Ti3 1.770867 1_555
O23 Ti4 2.064720 1_555
O24 Ti0 2.177713 1_555
O25 Ti1 2.177713 1_555
O26 Ti2 2.177713 1_555
O27 Ti3 2.177713 1_555
O28 Ti1 2.003429 1_555
O29 Ti0 2.003429 1_565
O30 Ti3 2.003429 1_555
O31 Ti2 2.003429 1_565
O32 Ti4 2.077609 1_555
O33 Ti5 2.077609 1_555
O34 Ti6 2.077609 1_555
O35 Ti7 2.077609 1_555
O36 Ti6 1.994089 1_555
O37 Ti7 1.994089 1_555
O38 Ti4 1.994089 1_555
O39 Ti4 1.814366 1_555
O39 Ti0 1.945578 1_555
