# generated using pymatgen
data_Na2ThF6
_symmetry_space_group_name_H-M   'P 1'
_cell_length_a   7.86703849
_cell_length_b   11.64324175
_cell_length_c   6.72277630
_cell_angle_alpha   29.97747105
_cell_angle_beta   55.43852690
_cell_angle_gamma   60.57752341
_symmetry_Int_Tables_number   1
_chemical_formula_structural   Na2ThF6
_chemical_formula_sum   'Na4 Th2 F12'
_cell_volume   253.38506661
_cell_formula_units_Z   2
loop_
 _symmetry_equiv_pos_site_id
 _symmetry_equiv_pos_as_xyz
  1  'x, y, z'
loop_
 _atom_site_type_symbol
 _atom_site_label
 _atom_site_symmetry_multiplicity
 _atom_site_fract_x
 _atom_site_fract_y
 _atom_site_fract_z
 _atom_site_occupancy
  Na  Na0  1  0.00066800  0.00698131  0.98904164  1
  Na  Na1  1  0.99935781  0.64814860  0.02799671  1
  Na  Na2  1  0.49933200  0.32635169  0.01095836  1
  Na  Na3  1  0.50064219  0.68518540  0.97200329  1
  Th  Th0  1  0.00000673  0.35523791  0.96700289  1
  Th  Th1  1  0.49999327  0.97809509  0.03299711  1
  F  F0  1  0.13238457  0.00684145  0.24908381  1
  F  F1  1  0.12259987  0.32783163  0.24154200  1
  F  F2  1  0.62272889  0.00549590  0.22504556  1
  F  F3  1  0.12440726  0.66562283  0.25759871  1
  F  F4  1  0.37740013  0.00550137  0.75845800  1
  F  F5  1  0.63240361  0.32656017  0.26965866  1
  F  F6  1  0.36761543  0.32649155  0.75091619  1
  F  F7  1  0.62426464  0.66775678  0.25466070  1
  F  F8  1  0.86759639  0.00677283  0.73034134  1
  F  F9  1  0.37559274  0.66771117  0.74240129  1
  F  F10  1  0.87727111  0.32783710  0.77495444  1
  F  F11  1  0.87573536  0.66557722  0.74533930  1
loop_
_geom_bond_atom_site_label_1
_geom_bond_atom_site_label_2
_geom_bond_distance
_geom_bond_site_symmetry_2
F0 Th1 2.389713 1_545
F0 Th0 2.428775 1_554
F0 Na1 2.479281 1_446
F0 Na0 2.485700 1_554
F1 Th0 2.266136 1_554
F1 Na0 2.378539 1_555
F1 Na1 2.379321 1_455
F1 Na2 2.443499 1_555
F2 Th1 2.265327 1_545
F2 Na3 2.376991 1_545
F2 Na2 2.382689 1_555
F2 Na0 2.451249 1_654
F3 Th0 2.254583 1_555
F3 Na0 2.401080 1_564
F3 Na1 2.419788 1_455
F3 Na3 2.440496 1_554
F4 Th1 2.266136 1_546
F4 Na2 2.378539 1_555
F4 Na3 2.379311 1_545
F4 Na0 2.443499 1_555
F5 Th0 2.389648 1_654
F5 Th1 2.428515 1_546
F5 Na3 2.477781 1_554
F5 Na2 2.489234 1_555
F6 Th0 2.389713 1_555
F6 Th1 2.428775 1_546
F6 Na3 2.479282 1_554
F6 Na2 2.485700 1_556
F7 Th1 2.255319 1_555
F7 Na2 2.402696 1_556
F7 Na3 2.415114 1_554
F7 Na1 2.433280 1_555
F8 Th1 2.389648 1_546
F8 Th0 2.428515 1_654
F8 Na1 2.477772 1_546
F8 Na0 2.489234 1_655
F9 Th1 2.254583 1_555
F9 Na2 2.401090 1_556
F9 Na3 2.419788 1_555
F9 Na1 2.440496 1_456
F10 Th0 2.265327 1_655
F10 Na1 2.376990 1_555
F10 Na0 2.382689 1_655
F10 Na2 2.451249 1_556
F11 Th0 2.255329 1_655
F11 Na0 2.402696 1_664
F11 Na1 2.415114 1_556
F11 Na3 2.433280 1_555
