# generated using pymatgen
data_LiCr(PO4)2
_symmetry_space_group_name_H-M   'P 1'
_cell_length_a   9.02358400
_cell_length_b   4.70947800
_cell_length_c   14.01955754
_cell_angle_alpha   85.20982787
_cell_angle_beta   90.00000000
_cell_angle_gamma   90.00000000
_symmetry_Int_Tables_number   1
_chemical_formula_structural   LiCr(PO4)2
_chemical_formula_sum   'Li4 Cr4 P8 O32'
_cell_volume   593.69936636
_cell_formula_units_Z   4
loop_
 _symmetry_equiv_pos_site_id
 _symmetry_equiv_pos_as_xyz
  1  'x, y, z'
loop_
 _atom_site_type_symbol
 _atom_site_label
 _atom_site_symmetry_multiplicity
 _atom_site_fract_x
 _atom_site_fract_y
 _atom_site_fract_z
 _atom_site_occupancy
  Li  Li0  1  0.15610200  0.54268400  0.37244200  1
  Li  Li1  1  0.65610200  0.45731600  0.12755800  1
  Li  Li2  1  0.34389800  0.54268400  0.87244200  1
  Li  Li3  1  0.84389800  0.45731600  0.62755800  1
  Cr  Cr0  1  0.93285100  0.35864200  0.84912500  1
  Cr  Cr1  1  0.56714900  0.35864200  0.34912500  1
  Cr  Cr2  1  0.06714900  0.64135800  0.15087500  1
  Cr  Cr3  1  0.43285100  0.64135800  0.65087500  1
  P  P0  1  0.40112200  0.84479700  0.23678800  1
  P  P1  1  0.90112200  0.15520300  0.26321200  1
  P  P2  1  0.77563400  0.85677600  0.43148200  1
  P  P3  1  0.59887800  0.15520300  0.76321200  1
  P  P4  1  0.22436600  0.14322400  0.56851800  1
  P  P5  1  0.09887800  0.84479700  0.73678800  1
  P  P6  1  0.27563400  0.14322400  0.06851800  1
  P  P7  1  0.72436600  0.85677600  0.93148200  1
  O  O0  1  0.26045200  0.76487200  0.75743800  1
  O  O1  1  0.91524400  0.99142500  0.36803300  1
  O  O2  1  0.82951200  0.11387800  0.94123400  1
  O  O3  1  0.06129900  0.47772400  0.91261500  1
  O  O4  1  0.08475600  0.00857500  0.63196700  1
  O  O5  1  0.70989200  0.64676500  0.36450100  1
  O  O6  1  0.17048800  0.88612200  0.05876600  1
  O  O7  1  0.04125500  0.03803900  0.81053400  1
  O  O8  1  0.54125500  0.96196100  0.68946600  1
  O  O9  1  0.93870100  0.52227600  0.08738500  1
  O  O10  1  0.79010800  0.64676500  0.86450100  1
  O  O11  1  0.58475600  0.99142500  0.86803300  1
  O  O12  1  0.67048800  0.11387800  0.44123400  1
  O  O13  1  0.32951200  0.88612200  0.55876600  1
  O  O14  1  0.20989200  0.35323500  0.13549900  1
  O  O15  1  0.50492700  0.58280800  0.22956500  1
  O  O16  1  0.49507300  0.41719200  0.77043500  1
  O  O17  1  0.00492700  0.41719200  0.27043500  1
  O  O18  1  0.23954800  0.76487200  0.25743800  1
  O  O19  1  0.41524400  0.00857500  0.13196700  1
  O  O20  1  0.99507300  0.58280800  0.72956500  1
  O  O21  1  0.29010800  0.35323500  0.63549900  1
  O  O22  1  0.56129900  0.52227600  0.58738500  1
  O  O23  1  0.83656800  0.73791500  0.52470700  1
  O  O24  1  0.43870100  0.47772400  0.41261500  1
  O  O25  1  0.95874500  0.96196100  0.18946600  1
  O  O26  1  0.66343200  0.73791500  0.02470700  1
  O  O27  1  0.73954800  0.23512800  0.24256200  1
  O  O28  1  0.33656800  0.26208500  0.97529300  1
  O  O29  1  0.76045200  0.23512800  0.74256200  1
  O  O30  1  0.45874500  0.03803900  0.31053400  1
  O  O31  1  0.16343200  0.26208500  0.47529300  1
loop_
_geom_bond_atom_site_label_1
_geom_bond_atom_site_label_2
_geom_bond_distance
_geom_bond_site_symmetry_2
Li0 O31 1.873921 1_555
Li0 O18 1.994912 1_555
Li0 O17 2.096780 1_555
Li1 O26 1.873921 1_555
Li1 O27 1.994912 1_555
Li1 O15 2.096780 1_555
Li2 O28 1.873921 1_555
Li2 O0 1.994912 1_555
Li2 O16 2.096780 1_555
Li3 O23 1.873921 1_555
Li3 O29 1.994912 1_555
Li3 O20 2.096780 1_555
Cr0 O3 1.591724 1_655
Cr0 O10 1.896208 1_555
Cr0 O2 1.901893 1_555
Cr0 O7 1.914607 1_655
Cr0 O20 1.985898 1_555
Cr0 O29 2.266164 1_555
Cr1 O24 1.591724 1_555
Cr1 O5 1.896208 1_555
Cr1 O12 1.901893 1_555
Cr1 O30 1.914607 1_555
Cr1 O15 1.985898 1_555
Cr1 O27 2.266164 1_555
Cr2 O9 1.591724 1_455
Cr2 O14 1.896208 1_555
Cr2 O6 1.901893 1_555
Cr2 O25 1.914607 1_455
Cr2 O17 1.985898 1_555
Cr2 O18 2.266164 1_555
Cr3 O22 1.591724 1_555
Cr3 O21 1.896208 1_555
Cr3 O13 1.901893 1_555
Cr3 O8 1.914607 1_555
Cr3 O16 1.985898 1_555
Cr3 O0 2.266164 1_555
O0 P5 1.527413 1_555
O1 P1 1.606677 1_565
O1 P2 1.638969 1_555
O2 P7 1.553263 1_545
O4 P5 1.606677 1_545
O4 P4 1.638969 1_555
O5 P2 1.538520 1_555
O6 P6 1.553263 1_565
O7 P5 1.524682 1_545
O8 P3 1.524682 1_565
O10 P7 1.538520 1_555
O11 P3 1.606677 1_565
O11 P7 1.638969 1_555
O12 P2 1.553263 1_545
O13 P4 1.553263 1_565
O14 P6 1.538520 1_555
O15 P0 1.559120 1_555
O16 P3 1.559120 1_555
O17 P1 1.559120 1_455
O18 P0 1.527413 1_555
O19 P0 1.606677 1_545
O19 P6 1.638969 1_555
O20 P5 1.559120 1_655
O21 P4 1.538520 1_555
O23 P2 1.483800 1_555
O25 P1 1.524682 1_565
O26 P7 1.483800 1_554
O27 P1 1.527413 1_555
O28 P6 1.483800 1_556
O29 P3 1.527413 1_555
O30 P0 1.524682 1_545
O31 P4 1.483800 1_555
