# generated using pymatgen
data_AlHO2
_symmetry_space_group_name_H-M   'P 1'
_cell_length_a   2.96270900
_cell_length_b   3.73820962
_cell_length_c   6.80357062
_cell_angle_alpha   99.74745661
_cell_angle_beta   101.64447733
_cell_angle_gamma   89.63555061
_symmetry_Int_Tables_number   1
_chemical_formula_structural   AlHO2
_chemical_formula_sum   'Al2 H2 O4'
_cell_volume   72.70467185
_cell_formula_units_Z   2
loop_
 _symmetry_equiv_pos_site_id
 _symmetry_equiv_pos_as_xyz
  1  'x, y, z'
loop_
 _atom_site_type_symbol
 _atom_site_label
 _atom_site_symmetry_multiplicity
 _atom_site_fract_x
 _atom_site_fract_y
 _atom_site_fract_z
 _atom_site_occupancy
  Al  Al0  1  0.62964000  0.20455400  0.32663000  1
  Al  Al1  1  0.30034500  0.79574400  0.63707300  1
  H  H0  1  0.66192700  0.31105200  0.73339500  1
  H  H1  1  0.97019800  0.96438900  0.97214900  1
  O  O0  1  0.38252800  0.29301700  0.62212000  1
  O  O1  1  0.72674100  0.73445100  0.43985700  1
  O  O2  1  0.06904900  0.15737300  0.18994700  1
  O  O3  1  0.89642800  0.85776400  0.81801400  1
loop_
_geom_bond_atom_site_label_1
_geom_bond_atom_site_label_2
_geom_bond_distance
_geom_bond_site_symmetry_2
Al0 O2 1.726000 1_555
Al0 O2 1.738078 1_655
Al0 O1 2.000277 1_555
Al0 O1 2.031492 1_545
Al0 O0 2.247881 1_555
Al1 O3 1.869706 1_455
Al1 O0 1.881712 1_555
Al1 O0 1.898678 1_565
Al1 O3 1.928472 1_555
Al1 O1 1.929057 1_455
Al1 O1 2.006294 1_555
H0 O0 0.996676 1_555
H1 O3 1.036049 1_555
H1 O2 1.505816 1_666
