# generated using pymatgen
data_Re(SeCl6)2
_symmetry_space_group_name_H-M   'P 1'
_cell_length_a   8.86251964
_cell_length_b   8.86251947
_cell_length_c   12.50261226
_cell_angle_alpha   109.21904027
_cell_angle_beta   109.21903992
_cell_angle_gamma   94.08470589
_symmetry_Int_Tables_number   1
_chemical_formula_structural   Re(SeCl6)2
_chemical_formula_sum   'Re2 Se4 Cl24'
_cell_volume   857.65337521
_cell_formula_units_Z   2
loop_
 _symmetry_equiv_pos_site_id
 _symmetry_equiv_pos_as_xyz
  1  'x, y, z'
loop_
 _atom_site_type_symbol
 _atom_site_label
 _atom_site_symmetry_multiplicity
 _atom_site_fract_x
 _atom_site_fract_y
 _atom_site_fract_z
 _atom_site_occupancy
  Re  Re0  1  0.42010179  0.92010179  0.84020359  1
  Re  Re1  1  0.67010179  0.67010179  0.34020359  1
  Se  Se0  1  0.21753407  0.27120869  0.00506453  1
  Se  Se1  1  0.78753047  0.73385584  0.00506453  1
  Se  Se2  1  0.02120869  0.46753407  0.50506453  1
  Se  Se3  1  0.48385584  0.03753047  0.50506453  1
  Cl  Cl0  1  0.89496012  0.23319057  0.35365105  1
  Cl  Cl1  1  0.71322411  0.56027635  0.49534338  1
  Cl  Cl2  1  0.63718495  0.78790994  0.19124846  1
  Cl  Cl3  1  0.41017547  0.71162108  0.34288767  1
  Cl  Cl4  1  0.02886280  0.85515341  0.15368772  1
  Cl  Cl5  1  0.31027635  0.96322411  0.99534338  1
  Cl  Cl6  1  0.55406351  0.40333852  0.19124846  1
  Cl  Cl7  1  0.38126659  0.18271219  0.84288767  1
  Cl  Cl8  1  0.77954479  0.48050701  0.99471539  1
  Cl  Cl9  1  0.78211927  0.93506703  0.49534338  1
  Cl  Cl10  1  0.04853431  0.37482493  0.65368772  1
  Cl  Cl11  1  0.12482493  0.29853431  0.15368772  1
  Cl  Cl12  1  0.98319057  0.14496012  0.85365105  1
  Cl  Cl13  1  0.68506703  0.03211927  0.99534338  1
  Cl  Cl14  1  0.23050701  0.02954479  0.49471539  1
  Cl  Cl15  1  0.45869093  0.12046048  0.35365105  1
  Cl  Cl16  1  0.53790994  0.88718495  0.69124846  1
  Cl  Cl17  1  0.87046048  0.70869093  0.85365105  1
  Cl  Cl18  1  0.60515341  0.27886280  0.65368772  1
  Cl  Cl19  1  0.15333852  0.80406351  0.69124846  1
  Cl  Cl20  1  0.93271219  0.63126659  0.34288767  1
  Cl  Cl21  1  0.26420838  0.46517060  0.49471539  1
  Cl  Cl22  1  0.21517060  0.51420838  0.99471539  1
  Cl  Cl23  1  0.46162108  0.66017547  0.84288767  1
loop_
_geom_bond_atom_site_label_1
_geom_bond_atom_site_label_2
_geom_bond_distance
_geom_bond_site_symmetry_2
Cl0 Se2 2.198865 1_655
Cl1 Re1 2.379827 1_555
Cl2 Re1 2.368397 1_555
Cl3 Re1 2.367832 1_555
Cl3 Se3 2.807900 1_565
Cl4 Se1 2.218963 1_455
Cl5 Re0 2.379827 1_555
Cl6 Re1 2.368397 1_555
Cl7 Re0 2.367832 1_545
Cl7 Se0 2.807900 1_556
Cl8 Se1 2.200733 1_556
Cl9 Re1 2.379827 1_555
Cl10 Se2 2.218962 1_555
Cl11 Se0 2.218962 1_555
Cl12 Se0 2.198865 1_656
Cl13 Re0 2.379827 1_545
Cl14 Se3 2.200733 1_555
Cl15 Se3 2.198865 1_555
Cl16 Re0 2.368397 1_555
Cl17 Se1 2.198865 1_556
Cl18 Se3 2.218963 1_555
Cl19 Re0 2.368397 1_555
Cl20 Re1 2.367832 1_555
Cl20 Se2 2.807900 1_655
Cl21 Se2 2.200733 1_555
Cl22 Se0 2.200733 1_556
Cl23 Re0 2.367832 1_555
Cl23 Se1 2.807900 1_556
