# generated using pymatgen
data_MnCo(BiO3)2
_symmetry_space_group_name_H-M   'P 1'
_cell_length_a   5.51899000
_cell_length_b   5.52229982
_cell_length_c   9.67232359
_cell_angle_alpha   105.25483386
_cell_angle_beta   89.92732231
_cell_angle_gamma   119.88883704
_symmetry_Int_Tables_number   1
_chemical_formula_structural   MnCo(BiO3)2
_chemical_formula_sum   'Mn2 Co2 Bi4 O12'
_cell_volume   243.58534526
_cell_formula_units_Z   2
loop_
 _symmetry_equiv_pos_site_id
 _symmetry_equiv_pos_as_xyz
  1  'x, y, z'
loop_
 _atom_site_type_symbol
 _atom_site_label
 _atom_site_symmetry_multiplicity
 _atom_site_fract_x
 _atom_site_fract_y
 _atom_site_fract_z
 _atom_site_occupancy
  Mn  Mn0  1  0.24738600  0.75819700  0.74767100  1
  Mn  Mn1  1  0.74102300  0.24185700  0.25236000  1
  Co  Co0  1  0.00099800  0.99988700  0.00010100  1
  Co  Co1  1  0.47815000  0.50020600  0.49979000  1
  Bi  Bi0  1  0.59104500  0.38998000  0.87551200  1
  Bi  Bi1  1  0.32511800  0.60954900  0.12425400  1
  Bi  Bi2  1  0.15140200  0.89008700  0.37627100  1
  Bi  Bi3  1  0.88518600  0.10940100  0.62426400  1
  O  O0  1  0.93783000  0.17714000  0.13607800  1
  O  O1  1  0.87388900  0.69331200  0.62746400  1
  O  O2  1  0.62501600  0.82297200  0.86408500  1
  O  O3  1  0.42758700  0.20195600  0.09356200  1
  O  O4  1  0.14262400  0.35628000  0.83261600  1
  O  O5  1  0.37066400  0.72157300  0.59057500  1
  O  O6  1  0.35652600  0.16835000  0.66752100  1
  O  O7  1  0.52042200  0.83163000  0.33209600  1
  O  O8  1  0.55094300  0.30630800  0.37262600  1
  O  O9  1  0.05656600  0.27910300  0.40918900  1
  O  O10  1  0.95341400  0.64397300  0.16763900  1
  O  O11  1  0.13221100  0.79824000  0.90632600  1
loop_
_geom_bond_atom_site_label_1
_geom_bond_atom_site_label_2
_geom_bond_distance
_geom_bond_site_symmetry_2
Mn0 O11 1.663393 1_555
Mn0 O5 1.668964 1_555
Mn0 O1 2.186324 1_455
Mn0 O2 2.188707 1_555
Mn0 O4 2.369599 1_555
Mn0 O6 2.378462 1_565
Mn1 O8 1.652723 1_555
Mn1 O0 1.656729 1_555
Mn1 O3 2.202005 1_555
Mn1 O9 2.204897 1_655
Mn1 O10 2.310306 1_555
Mn1 O7 2.318899 1_545
Co0 O0 1.571923 1_465
Co0 O11 1.690452 1_554
Co0 O2 2.073927 1_454
Co0 O3 2.112236 1_565
Co0 O4 2.692596 1_564
Co1 O8 1.598496 1_555
Co1 O5 1.665506 1_555
Co1 O9 2.069576 1_555
Co1 O1 2.103567 1_555
Co1 O6 2.603232 1_555
Bi0 O6 2.086262 1_555
Bi0 O2 2.336024 1_555
Bi0 O4 2.415475 1_555
Bi0 O3 2.560085 1_556
Bi0 O11 2.651373 1_655
Bi1 O7 2.024326 1_555
Bi1 O10 2.182911 1_455
Bi1 O0 2.310850 1_455
Bi1 O3 2.528016 1_555
Bi1 O4 2.730339 1_554
Bi2 O10 2.048309 1_455
Bi2 O7 2.239428 1_555
Bi2 O8 2.266669 1_565
Bi2 O9 2.398044 1_565
Bi2 O6 2.752296 1_565
Bi3 O4 2.137650 1_655
Bi3 O1 2.275791 1_545
Bi3 O6 2.476896 1_655
Bi3 O9 2.497577 1_655
Bi3 O5 2.516053 1_545
