# generated using pymatgen
data_CuBi(PSe3)2
_symmetry_space_group_name_H-M   'P 1'
_cell_length_a   29.02606718
_cell_length_b   29.02606709
_cell_length_c   29.02606780
_cell_angle_alpha   13.11321869
_cell_angle_beta   13.11321937
_cell_angle_gamma   13.11321864
_symmetry_Int_Tables_number   1
_chemical_formula_structural   CuBi(PSe3)2
_chemical_formula_sum   'Cu4 Bi4 P8 Se24'
_cell_volume   1094.87336607
_cell_formula_units_Z   4
loop_
 _symmetry_equiv_pos_site_id
 _symmetry_equiv_pos_as_xyz
  1  'x, y, z'
loop_
 _atom_site_type_symbol
 _atom_site_label
 _atom_site_symmetry_multiplicity
 _atom_site_fract_x
 _atom_site_fract_y
 _atom_site_fract_z
 _atom_site_occupancy
  Cu  Cu0  1  0.86058043  0.86058043  0.86058043  1
  Cu  Cu1  1  0.04366781  0.04366781  0.04366781  1
  Cu  Cu2  1  0.13941957  0.13941957  0.13941957  1
  Cu  Cu3  1  0.95633219  0.95633219  0.95633219  1
  Bi  Bi0  1  0.54497205  0.54497205  0.54497205  1
  Bi  Bi1  1  0.29209994  0.29209994  0.29209994  1
  Bi  Bi2  1  0.45502795  0.45502795  0.45502795  1
  Bi  Bi3  1  0.70790006  0.70790006  0.70790006  1
  P  P0  1  0.38792640  0.38792640  0.38792640  1
  P  P1  1  0.77729442  0.77729442  0.77729442  1
  P  P2  1  0.63848660  0.63848660  0.63848660  1
  P  P3  1  0.61207360  0.61207360  0.61207360  1
  P  P4  1  0.22270558  0.22270558  0.22270558  1
  P  P5  1  0.19617189  0.19617189  0.19617189  1
  P  P6  1  0.36151340  0.36151340  0.36151340  1
  P  P7  1  0.80382811  0.80382811  0.80382811  1
  Se  Se0  1  0.69716960  0.31233542  0.05504967  1
  Se  Se1  1  0.36061883  0.73378233  0.09095311  1
  Se  Se2  1  0.57087306  0.93561921  0.18166439  1
  Se  Se3  1  0.49907902  0.80089255  0.13774806  1
  Se  Se4  1  0.42912694  0.06438079  0.81833561  1
  Se  Se5  1  0.13774806  0.49907902  0.80089255  1
  Se  Se6  1  0.30283040  0.68766458  0.94495033  1
  Se  Se7  1  0.18166439  0.57087306  0.93561921  1
  Se  Se8  1  0.86225194  0.50092098  0.19910745  1
  Se  Se9  1  0.09095311  0.36061883  0.73378233  1
  Se  Se10  1  0.73378233  0.09095311  0.36061883  1
  Se  Se11  1  0.06438079  0.81833561  0.42912694  1
  Se  Se12  1  0.26621767  0.90904689  0.63938117  1
  Se  Se13  1  0.31233542  0.05504967  0.69716960  1
  Se  Se14  1  0.05504967  0.69716960  0.31233542  1
  Se  Se15  1  0.80089255  0.13774806  0.49907902  1
  Se  Se16  1  0.50092098  0.19910745  0.86225194  1
  Se  Se17  1  0.94495033  0.30283040  0.68766458  1
  Se  Se18  1  0.81833561  0.42912694  0.06438079  1
  Se  Se19  1  0.90904689  0.63938117  0.26621767  1
  Se  Se20  1  0.19910745  0.86225194  0.50092098  1
  Se  Se21  1  0.68766458  0.94495033  0.30283040  1
  Se  Se22  1  0.63938117  0.26621767  0.90904689  1
  Se  Se23  1  0.93561921  0.18166439  0.57087306  1
loop_
_geom_bond_atom_site_label_1
_geom_bond_atom_site_label_2
_geom_bond_distance
_geom_bond_site_symmetry_2
Cu0 Se8 2.381269 1_556
Cu0 Se16 2.381269 1_565
Cu0 Se20 2.381269 1_655
Cu1 Se9 2.605718 1_554
Cu1 Se1 2.605718 1_545
Cu1 Se10 2.605718 1_455
Cu1 Se14 2.801681 1_545
Cu1 Se0 2.801681 1_455
Cu1 Se13 2.801682 1_554
Cu2 Se5 2.381269 1_554
Cu2 Se3 2.381269 1_545
Cu2 Se15 2.381269 1_455
Cu3 Se19 2.605718 1_556
Cu3 Se22 2.605718 1_565
Cu3 Se12 2.605718 1_655
Cu3 Se17 2.801681 1_565
Cu3 Se6 2.801681 1_655
Cu3 Se21 2.801682 1_556
Bi0 Se2 2.931403 1_555
Bi0 Se23 2.931403 1_555
Bi0 Se7 2.931403 1_555
Bi0 Se16 3.035037 1_555
Bi0 Se20 3.035037 1_555
Bi0 Se8 3.035037 1_555
Bi1 Se6 2.993024 1_554
Bi1 Se21 2.993024 1_545
Bi1 Se17 2.993024 1_455
Bi1 Se12 3.001170 1_545
Bi1 Se19 3.001170 1_455
Bi1 Se22 3.001170 1_554
Bi2 Se4 2.931403 1_555
Bi2 Se11 2.931403 1_555
Bi2 Se18 2.931403 1_555
Bi2 Se3 3.035037 1_555
Bi2 Se15 3.035037 1_555
Bi2 Se5 3.035037 1_555
Bi3 Se0 2.993024 1_556
Bi3 Se13 2.993024 1_565
Bi3 Se14 2.993024 1_655
Bi3 Se10 3.001170 1_565
Bi3 Se9 3.001170 1_655
Bi3 Se1 3.001170 1_556
P0 Se1 2.227966 1_555
P0 Se10 2.227966 1_555
P0 Se9 2.227966 1_555
P0 P6 2.279917 1_555
P1 Se18 2.200094 1_556
P1 Se4 2.200095 1_565
P1 Se11 2.200095 1_655
P1 P7 2.290335 1_555
P2 Se21 2.217990 1_555
P2 Se17 2.217990 1_555
P2 Se6 2.217990 1_555
P2 P3 2.279917 1_555
P3 Se22 2.227966 1_555
P3 Se12 2.227966 1_555
P3 Se19 2.227966 1_555
P4 Se7 2.200094 1_554
P4 Se2 2.200095 1_545
P4 Se23 2.200095 1_455
P4 P5 2.290335 1_555
P5 Se20 2.248332 1_545
P5 Se8 2.248333 1_455
P5 Se16 2.248333 1_554
P6 Se13 2.217990 1_555
P6 Se14 2.217990 1_555
P6 Se0 2.217990 1_555
P7 Se15 2.248332 1_565
P7 Se5 2.248333 1_655
P7 Se3 2.248333 1_556
