# generated using pymatgen
data_La4Mo7O27
_symmetry_space_group_name_H-M   'P 1'
_cell_length_a   7.39160800
_cell_length_b   14.34215200
_cell_length_c   23.31370800
_cell_angle_alpha   90.00000000
_cell_angle_beta   90.00000000
_cell_angle_gamma   90.00000000
_symmetry_Int_Tables_number   1
_chemical_formula_structural   La4Mo7O27
_chemical_formula_sum   'La16 Mo28 O108'
_cell_volume   2471.52268177
_cell_formula_units_Z   4
loop_
 _symmetry_equiv_pos_site_id
 _symmetry_equiv_pos_as_xyz
  1  'x, y, z'
loop_
 _atom_site_type_symbol
 _atom_site_label
 _atom_site_symmetry_multiplicity
 _atom_site_fract_x
 _atom_site_fract_y
 _atom_site_fract_z
 _atom_site_occupancy
  La  La0  1  0.01658900  0.84041900  0.11244600  1
  La  La1  1  0.99639600  0.40278400  0.84872200  1
  La  La2  1  0.01658900  0.65958100  0.61244600  1
  La  La3  1  0.50895600  0.70113900  0.10555200  1
  La  La4  1  0.98341100  0.34041900  0.11244600  1
  La  La5  1  0.48552300  0.53880000  0.84592400  1
  La  La6  1  0.50895600  0.79886100  0.60555200  1
  La  La7  1  0.00360400  0.59721600  0.34872200  1
  La  La8  1  0.98341100  0.15958100  0.61244600  1
  La  La9  1  0.51447700  0.03880000  0.84592400  1
  La  La10  1  0.49104400  0.20113900  0.10555200  1
  La  La11  1  0.49104400  0.29886100  0.60555200  1
  La  La12  1  0.00360400  0.90278400  0.84872200  1
  La  La13  1  0.99639600  0.09721600  0.34872200  1
  La  La14  1  0.48552300  0.96120000  0.34592400  1
  La  La15  1  0.51447700  0.46120000  0.34592400  1
  Mo  Mo0  1  0.98548600  0.86770000  0.28985500  1
  Mo  Mo1  1  0.51052000  0.80803300  0.79103300  1
  Mo  Mo2  1  0.32285200  0.07364400  0.50031900  1
  Mo  Mo3  1  0.67714800  0.92635600  0.00031900  1
  Mo  Mo4  1  0.32285200  0.42635600  0.00031900  1
  Mo  Mo5  1  0.78787100  0.97719700  0.48641000  1
  Mo  Mo6  1  0.50459600  0.43296800  0.17092200  1
  Mo  Mo7  1  0.67714800  0.57364400  0.50031900  1
  Mo  Mo8  1  0.81236200  0.19036800  0.96619200  1
  Mo  Mo9  1  0.51052000  0.69196700  0.29103300  1
  Mo  Mo10  1  0.18763800  0.80963200  0.46619200  1
  Mo  Mo11  1  0.01451400  0.13230000  0.78985500  1
  Mo  Mo12  1  0.48948000  0.30803300  0.79103300  1
  Mo  Mo13  1  0.99288500  0.61367000  0.16725200  1
  Mo  Mo14  1  0.48948000  0.19196700  0.29103300  1
  Mo  Mo15  1  0.49540400  0.56703200  0.67092200  1
  Mo  Mo16  1  0.99288500  0.88633000  0.66725200  1
  Mo  Mo17  1  0.00711500  0.38633000  0.66725200  1
  Mo  Mo18  1  0.50459600  0.06703200  0.67092200  1
  Mo  Mo19  1  0.21212900  0.47719700  0.48641000  1
  Mo  Mo20  1  0.00711500  0.11367000  0.16725200  1
  Mo  Mo21  1  0.81236200  0.30963200  0.46619200  1
  Mo  Mo22  1  0.18763800  0.69036800  0.96619200  1
  Mo  Mo23  1  0.49540400  0.93296800  0.17092200  1
  Mo  Mo24  1  0.98548600  0.63230000  0.78985500  1
  Mo  Mo25  1  0.21212900  0.02280300  0.98641000  1
  Mo  Mo26  1  0.01451400  0.36770000  0.28985500  1
  Mo  Mo27  1  0.78787100  0.52280300  0.98641000  1
  O  O0  1  0.76102800  0.50659100  0.90835300  1
  O  O1  1  0.14986300  0.56635600  0.83263900  1
  O  O2  1  0.51635800  0.70252400  0.83141100  1
  O  O3  1  0.34225500  0.39801700  0.52808900  1
  O  O4  1  0.94265500  0.34461800  0.21797400  1
  O  O5  1  0.52646400  0.54752700  0.14233900  1
  O  O6  1  0.71825800  0.89046700  0.16050300  1
  O  O7  1  0.24558700  0.76228500  0.53553000  1
  O  O8  1  0.56757300  0.06981700  0.48994900  1
  O  O9  1  0.62656900  0.36899400  0.43451500  1
  O  O10  1  0.32112000  0.39100600  0.81637800  1
  O  O11  1  0.20829700  0.44168500  0.29361100  1
  O  O12  1  0.20829700  0.05831500  0.79361100  1
  O  O13  1  0.98252900  0.88500200  0.47241600  1
  O  O14  1  0.73348600  0.67668900  0.54333300  1
  O  O15  1  0.37343100  0.63100600  0.93451500  1
  O  O16  1  0.85013700  0.06635600  0.83263900  1
  O  O17  1  0.47493800  0.21724200  0.21638200  1
  O  O18  1  0.19949400  0.82954200  0.64765000  1
  O  O19  1  0.47353600  0.04752700  0.14233900  1
  O  O20  1  0.06314000  0.25907400  0.32349900  1
  O  O21  1  0.05734500  0.65538200  0.71797400  1
  O  O22  1  0.80050600  0.17045800  0.14765000  1
  O  O23  1  0.71825800  0.60953300  0.66050300  1
  O  O24  1  0.67888000  0.60899400  0.31637800  1
  O  O25  1  0.24558700  0.73771500  0.03553000  1
  O  O26  1  0.06314000  0.24092600  0.82349900  1
  O  O27  1  0.05734500  0.84461800  0.21797400  1
  O  O28  1  0.87046600  0.28634600  0.92260200  1
  O  O29  1  0.77988600  0.57119200  0.42972100  1
  O  O30  1  0.03764600  0.00325100  0.13417500  1
  O  O31  1  0.26651400  0.32331100  0.04333300  1
  O  O32  1  0.52506200  0.71724200  0.21638200  1
  O  O33  1  0.32112000  0.10899400  0.31637800  1
  O  O34  1  0.91937800  0.06228000  0.52279300  1
  O  O35  1  0.26774400  0.97304100  0.53877700  1
  O  O36  1  0.56757300  0.43018300  0.98994900  1
  O  O37  1  0.65774500  0.60198300  0.02808900  1
  O  O38  1  0.97558500  0.59853600  0.24262500  1
  O  O39  1  0.48364200  0.29747600  0.33141100  1
  O  O40  1  0.26651400  0.17668900  0.54333300  1
  O  O41  1  0.87046600  0.21365400  0.42260200  1
  O  O42  1  0.51635800  0.79747600  0.33141100  1
  O  O43  1  0.19949400  0.67045800  0.14765000  1
  O  O44  1  0.12953400  0.78634600  0.92260200  1
  O  O45  1  0.94265500  0.15538200  0.71797400  1
  O  O46  1  0.47493800  0.28275800  0.71638200  1
  O  O47  1  0.96235400  0.50325100  0.13417500  1
  O  O48  1  0.43242700  0.93018300  0.98994900  1
  O  O49  1  0.12953400  0.71365400  0.42260200  1
  O  O50  1  0.23897200  0.49340900  0.40835300  1
  O  O51  1  0.31081600  0.62705200  0.30930400  1
  O  O52  1  0.02441500  0.09853600  0.24262500  1
  O  O53  1  0.31081600  0.87294800  0.80930400  1
  O  O54  1  0.03764600  0.49674900  0.63417500  1
  O  O55  1  0.52506200  0.78275800  0.71638200  1
  O  O56  1  0.16950100  0.30237900  0.63766600  1
  O  O57  1  0.14986300  0.93364400  0.33263900  1
  O  O58  1  0.34225500  0.10198300  0.02808900  1
  O  O59  1  0.23897200  0.00659100  0.90835300  1
  O  O60  1  0.83049900  0.80237900  0.63766600  1
  O  O61  1  0.35077600  0.85358900  0.12933200  1
  O  O62  1  0.43565400  0.56125700  0.74503500  1
  O  O63  1  0.16950100  0.19762100  0.13766600  1
  O  O64  1  0.98252900  0.61499800  0.97241600  1
  O  O65  1  0.75441300  0.23771500  0.03553000  1
  O  O66  1  0.64922400  0.35358900  0.12933200  1
  O  O67  1  0.85013700  0.43364400  0.33263900  1
  O  O68  1  0.68918400  0.37294800  0.80930400  1
  O  O69  1  0.75441300  0.26228500  0.53553000  1
  O  O70  1  0.68918400  0.12705200  0.30930400  1
  O  O71  1  0.64922400  0.14641100  0.62933200  1
  O  O72  1  0.65774500  0.89801700  0.52808900  1
  O  O73  1  0.77988600  0.92880800  0.92972100  1
  O  O74  1  0.43242700  0.56981700  0.48994900  1
  O  O75  1  0.91937800  0.43772000  0.02279300  1
  O  O76  1  0.37343100  0.86899400  0.43451500  1
  O  O77  1  0.80050600  0.32954200  0.64765000  1
  O  O78  1  0.28174200  0.39046700  0.16050300  1
  O  O79  1  0.62656900  0.13100600  0.93451500  1
  O  O80  1  0.56434600  0.06125700  0.74503500  1
  O  O81  1  0.93686000  0.74092600  0.82349900  1
  O  O82  1  0.01747100  0.38500200  0.47241600  1
  O  O83  1  0.96235400  0.99674900  0.63417500  1
  O  O84  1  0.35077600  0.64641100  0.62933200  1
  O  O85  1  0.73225600  0.02695900  0.03877700  1
  O  O86  1  0.08062200  0.93772000  0.02279300  1
  O  O87  1  0.83049900  0.69762100  0.13766600  1
  O  O88  1  0.47353600  0.45247300  0.64233900  1
  O  O89  1  0.97558500  0.90146400  0.74262500  1
  O  O90  1  0.93686000  0.75907400  0.32349900  1
  O  O91  1  0.48364200  0.20252400  0.83141100  1
  O  O92  1  0.43565400  0.93874300  0.24503500  1
  O  O93  1  0.22011400  0.42880800  0.92972100  1
  O  O94  1  0.67888000  0.89100600  0.81637800  1
  O  O95  1  0.73348600  0.82331100  0.04333300  1
  O  O96  1  0.01747100  0.11499800  0.97241600  1
  O  O97  1  0.79170300  0.94168500  0.29361100  1
  O  O98  1  0.02441500  0.40146400  0.74262500  1
  O  O99  1  0.79170300  0.55831500  0.79361100  1
  O  O100  1  0.73225600  0.47304100  0.53877700  1
  O  O101  1  0.08062200  0.56228000  0.52279300  1
  O  O102  1  0.52646400  0.95247300  0.64233900  1
  O  O103  1  0.26774400  0.52695900  0.03877700  1
  O  O104  1  0.56434600  0.43874300  0.24503500  1
  O  O105  1  0.76102800  0.99340900  0.40835300  1
  O  O106  1  0.22011400  0.07119200  0.42972100  1
  O  O107  1  0.28174200  0.10953300  0.66050300  1
loop_
_geom_bond_atom_site_label_1
_geom_bond_atom_site_label_2
_geom_bond_distance
_geom_bond_site_symmetry_2
La0 O30 2.394737 1_565
La0 O27 2.479356 1_555
La0 O61 2.508474 1_555
La0 O87 2.536169 1_455
La0 O86 2.557373 1_555
La0 O6 2.575493 1_455
La0 O95 2.652423 1_455
La0 O25 2.872348 1_555
La0 O43 2.905742 1_555
La1 O26 2.445004 1_655
La1 O98 2.482242 1_655
La1 O68 2.486790 1_555
La1 O10 2.521558 1_655
La1 O93 2.537681 1_655
La1 O28 2.573317 1_555
La1 O1 2.632675 1_655
La1 O0 2.678807 1_555
La1 O99 2.985936 1_555
La2 O54 2.394737 1_555
La2 O21 2.479356 1_555
La2 O84 2.508474 1_555
La2 O60 2.536169 1_455
La2 O101 2.557373 1_555
La2 O23 2.575493 1_455
La2 O14 2.652423 1_455
La2 O7 2.872348 1_555
La2 O18 2.905742 1_555
La3 O5 2.367713 1_555
La3 O87 2.492366 1_555
La3 O43 2.527685 1_555
La3 O61 2.540671 1_555
La3 O37 2.548213 1_555
La3 O25 2.594199 1_555
La3 O32 2.596889 1_555
La3 O95 2.815803 1_555
La4 O47 2.394737 1_555
La4 O4 2.479356 1_555
La4 O66 2.508474 1_555
La4 O63 2.536169 1_655
La4 O75 2.557373 1_555
La4 O78 2.575493 1_655
La4 O31 2.652423 1_655
La4 O65 2.872348 1_555
La4 O22 2.905742 1_555
La5 O2 2.383329 1_555
La5 O62 2.402493 1_555
La5 O1 2.531366 1_555
La5 O10 2.538555 1_555
La5 O0 2.545341 1_555
La5 O99 2.586057 1_555
La5 O15 2.588652 1_555
La5 O68 2.941624 1_555
La5 O93 3.186512 1_555
La6 O102 2.367713 1_555
La6 O60 2.492366 1_555
La6 O18 2.527685 1_555
La6 O84 2.540671 1_555
La6 O72 2.548213 1_555
La6 O7 2.594199 1_555
La6 O55 2.596889 1_555
La6 O14 2.815803 1_555
La7 O90 2.445004 1_455
La7 O38 2.482242 1_455
La7 O51 2.486790 1_555
La7 O24 2.521558 1_455
La7 O29 2.537681 1_455
La7 O49 2.573317 1_555
La7 O67 2.632675 1_455
La7 O50 2.678807 1_555
La7 O11 2.985936 1_555
La8 O83 2.394737 1_545
La8 O45 2.479356 1_555
La8 O71 2.508474 1_555
La8 O56 2.536169 1_655
La8 O34 2.557373 1_555
La8 O107 2.575493 1_655
La8 O40 2.652423 1_655
La8 O69 2.872348 1_555
La8 O77 2.905742 1_555
La9 O91 2.383329 1_555
La9 O80 2.402493 1_555
La9 O16 2.531366 1_555
La9 O94 2.538555 1_545
La9 O59 2.545341 1_555
La9 O12 2.586057 1_555
La9 O79 2.588652 1_555
La9 O53 2.941624 1_545
La9 O73 3.186512 1_545
La10 O19 2.367713 1_555
La10 O63 2.492366 1_555
La10 O22 2.527685 1_555
La10 O66 2.540671 1_555
La10 O58 2.548213 1_555
La10 O65 2.594199 1_555
La10 O17 2.596889 1_555
La10 O31 2.815803 1_555
La11 O88 2.367713 1_555
La11 O56 2.492366 1_555
La11 O77 2.527685 1_555
La11 O71 2.540671 1_555
La11 O3 2.548213 1_555
La11 O69 2.594199 1_555
La11 O46 2.596889 1_555
La11 O40 2.815803 1_555
La12 O81 2.445004 1_455
La12 O89 2.482242 1_455
La12 O53 2.486790 1_555
La12 O94 2.521558 1_455
La12 O73 2.537681 1_455
La12 O44 2.573317 1_555
La12 O16 2.632675 1_465
La12 O59 2.678807 1_565
La12 O12 2.985936 1_565
La13 O20 2.445004 1_655
La13 O52 2.482242 1_655
La13 O70 2.486790 1_555
La13 O33 2.521558 1_655
La13 O106 2.537681 1_655
La13 O41 2.573317 1_555
La13 O57 2.632675 1_645
La13 O105 2.678807 1_545
La13 O97 2.985936 1_545
La14 O42 2.383329 1_555
La14 O92 2.402493 1_555
La14 O57 2.531366 1_555
La14 O33 2.538555 1_565
La14 O105 2.545341 1_555
La14 O97 2.586057 1_555
La14 O76 2.588652 1_555
La14 O70 2.941624 1_565
La14 O106 3.186512 1_565
La15 O39 2.383329 1_555
La15 O104 2.402493 1_555
La15 O67 2.531366 1_555
La15 O24 2.538555 1_555
La15 O50 2.545341 1_555
La15 O11 2.586057 1_555
La15 O9 2.588652 1_555
La15 O51 2.941624 1_555
La15 O29 3.186512 1_555
Mo0 O90 1.780889 1_555
Mo0 O97 1.784737 1_555
Mo0 O27 1.788872 1_655
Mo0 O57 1.834574 1_655
Mo1 O55 1.780989 1_555
Mo1 O2 1.782660 1_555
Mo1 O53 1.796445 1_555
Mo1 O94 1.820421 1_555
Mo2 O35 1.746902 1_545
Mo2 O106 1.812985 1_555
Mo2 O8 1.825792 1_555
Mo2 O40 1.833904 1_555
Mo3 O85 1.746902 1_565
Mo3 O73 1.812985 1_554
Mo3 O48 1.825792 1_554
Mo3 O95 1.833904 1_555
Mo4 O103 1.746902 1_555
Mo4 O93 1.812985 1_554
Mo4 O36 1.825792 1_554
Mo4 O31 1.833904 1_555
Mo5 O34 1.775789 1_565
Mo5 O72 1.777340 1_555
Mo5 O105 1.845290 1_555
Mo5 O13 1.981186 1_555
Mo5 O8 2.103074 1_565
Mo6 O78 1.773131 1_555
Mo6 O5 1.780367 1_555
Mo6 O104 1.785322 1_555
Mo6 O66 1.838231 1_555
Mo7 O100 1.746902 1_555
Mo7 O29 1.812985 1_555
Mo7 O74 1.825792 1_555
Mo7 O14 1.833904 1_555
Mo8 O28 1.764099 1_555
Mo8 O79 1.776575 1_555
Mo8 O65 1.804923 1_556
Mo8 O96 1.867635 1_655
Mo9 O32 1.780989 1_555
Mo9 O42 1.782660 1_555
Mo9 O51 1.796445 1_555
Mo9 O24 1.820421 1_555
Mo10 O49 1.764099 1_555
Mo10 O76 1.776575 1_555
Mo10 O7 1.804923 1_555
Mo10 O13 1.867635 1_455
Mo11 O26 1.780889 1_555
Mo11 O12 1.784737 1_555
Mo11 O45 1.788872 1_455
Mo11 O16 1.834574 1_455
Mo12 O46 1.780989 1_555
Mo12 O91 1.782660 1_555
Mo12 O68 1.796445 1_555
Mo12 O10 1.820421 1_555
Mo13 O38 1.775190 1_555
Mo13 O47 1.775819 1_555
Mo13 O43 1.790098 1_655
Mo13 O87 1.834715 1_555
Mo14 O17 1.780989 1_555
Mo14 O39 1.782660 1_555
Mo14 O70 1.796445 1_555
Mo14 O33 1.820421 1_555
Mo15 O23 1.773131 1_555
Mo15 O88 1.780367 1_555
Mo15 O62 1.785322 1_555
Mo15 O84 1.838231 1_555
Mo16 O89 1.775190 1_555
Mo16 O83 1.775819 1_555
Mo16 O18 1.790098 1_655
Mo16 O60 1.834715 1_555
Mo17 O98 1.775190 1_555
Mo17 O54 1.775819 1_555
Mo17 O77 1.790098 1_455
Mo17 O56 1.834715 1_555
Mo18 O107 1.773131 1_555
Mo18 O102 1.780367 1_545
Mo18 O80 1.785322 1_555
Mo18 O71 1.838231 1_555
Mo19 O101 1.775789 1_555
Mo19 O3 1.777340 1_555
Mo19 O50 1.845290 1_555
Mo19 O82 1.981186 1_555
Mo19 O74 2.103074 1_555
Mo20 O52 1.775190 1_555
Mo20 O30 1.775819 1_555
Mo20 O22 1.790098 1_455
Mo20 O63 1.834715 1_555
Mo21 O41 1.764099 1_555
Mo21 O9 1.776575 1_555
Mo21 O69 1.804923 1_555
Mo21 O82 1.867635 1_655
Mo22 O44 1.764099 1_555
Mo22 O15 1.776575 1_555
Mo22 O25 1.804923 1_556
Mo22 O64 1.867635 1_455
Mo23 O6 1.773131 1_555
Mo23 O19 1.780367 1_565
Mo23 O92 1.785322 1_555
Mo23 O61 1.838231 1_555
Mo24 O81 1.780889 1_555
Mo24 O99 1.784737 1_555
Mo24 O21 1.788872 1_655
Mo24 O1 1.834574 1_655
Mo25 O86 1.775789 1_546
Mo25 O58 1.777340 1_556
Mo25 O59 1.845290 1_555
Mo25 O96 1.981186 1_555
Mo25 O48 2.103074 1_545
Mo26 O20 1.780889 1_555
Mo26 O11 1.784737 1_555
Mo26 O4 1.788872 1_455
Mo26 O67 1.834574 1_455
Mo27 O75 1.775789 1_556
Mo27 O37 1.777340 1_556
Mo27 O0 1.845290 1_555
Mo27 O64 1.981186 1_555
Mo27 O36 2.103074 1_555
