# generated using pymatgen
data_RbEuSiS4
_symmetry_space_group_name_H-M   'P 1'
_cell_length_a   6.49154900
_cell_length_b   6.67060700
_cell_length_c   17.24330700
_cell_angle_alpha   90.00000000
_cell_angle_beta   90.00000000
_cell_angle_gamma   90.00000000
_symmetry_Int_Tables_number   1
_chemical_formula_structural   RbEuSiS4
_chemical_formula_sum   'Rb4 Eu4 Si4 S16'
_cell_volume   746.67954634
_cell_formula_units_Z   4
loop_
 _symmetry_equiv_pos_site_id
 _symmetry_equiv_pos_as_xyz
  1  'x, y, z'
loop_
 _atom_site_type_symbol
 _atom_site_label
 _atom_site_symmetry_multiplicity
 _atom_site_fract_x
 _atom_site_fract_y
 _atom_site_fract_z
 _atom_site_occupancy
  Rb  Rb0  1  0.01505100  0.99533000  0.96711200  1
  Rb  Rb1  1  0.51505100  0.50467000  0.03288800  1
  Rb  Rb2  1  0.48494900  0.00467000  0.46711200  1
  Rb  Rb3  1  0.98494900  0.49533000  0.53288800  1
  Eu  Eu0  1  0.70875300  0.51997100  0.77388000  1
  Eu  Eu1  1  0.79124700  0.48002900  0.27388000  1
  Eu  Eu2  1  0.29124700  0.01997100  0.72612000  1
  Eu  Eu3  1  0.20875300  0.98002900  0.22612000  1
  Si  Si0  1  0.78981100  0.98793300  0.66264300  1
  Si  Si1  1  0.71018900  0.01206700  0.16264300  1
  Si  Si2  1  0.21018900  0.48793300  0.83735700  1
  Si  Si3  1  0.28981100  0.51206700  0.33735700  1
  S  S0  1  0.92444400  0.24644700  0.14050700  1
  S  S1  1  0.60566700  0.24837500  0.64722800  1
  S  S2  1  0.54595700  0.50894400  0.41154400  1
  S  S3  1  0.38258700  0.55587000  0.22054700  1
  S  S4  1  0.89433300  0.75162500  0.14722800  1
  S  S5  1  0.42444400  0.25355300  0.85949300  1
  S  S6  1  0.11741300  0.44413000  0.72054700  1
  S  S7  1  0.39433300  0.74837500  0.85277200  1
  S  S8  1  0.07555600  0.74644700  0.35949300  1
  S  S9  1  0.88258700  0.94413000  0.77945300  1
  S  S10  1  0.95404300  0.49105600  0.91154400  1
  S  S11  1  0.61741300  0.05587000  0.27945300  1
  S  S12  1  0.57555600  0.75355300  0.64050700  1
  S  S13  1  0.10566700  0.25162500  0.35277200  1
  S  S14  1  0.45404300  0.00894400  0.08845600  1
  S  S15  1  0.04595700  0.99105600  0.58845600  1
loop_
_geom_bond_atom_site_label_1
_geom_bond_atom_site_label_2
_geom_bond_distance
_geom_bond_site_symmetry_2
Rb0 S9 3.365541 1_455
Rb0 S10 3.465520 1_465
Rb0 S0 3.477276 1_466
Rb0 S10 3.519970 1_455
Rb0 S14 3.536562 1_566
Rb0 S7 3.558512 1_555
Rb0 S4 3.592052 1_456
Rb0 S5 3.670624 1_565
Rb1 S3 3.365541 1_555
Rb1 S14 3.465520 1_555
Rb1 S5 3.477276 1_554
Rb1 S14 3.519970 1_565
Rb1 S10 3.536562 1_554
Rb1 S4 3.558512 1_555
Rb1 S7 3.592052 1_554
Rb1 S0 3.670624 1_555
Rb2 S11 3.365541 1_555
Rb2 S2 3.465520 1_545
Rb2 S12 3.477276 1_545
Rb2 S2 3.519970 1_555
Rb2 S15 3.536562 1_545
Rb2 S13 3.558512 1_555
Rb2 S1 3.592052 1_555
Rb2 S8 3.670624 1_545
Rb3 S6 3.365541 1_655
Rb3 S15 3.465520 1_655
Rb3 S8 3.477276 1_655
Rb3 S15 3.519970 1_645
Rb3 S2 3.536562 1_555
Rb3 S1 3.558512 1_555
Rb3 S13 3.592052 1_655
Rb3 S12 3.670624 1_555
Eu0 S6 2.852931 1_655
Eu0 S10 2.864874 1_555
Eu0 S7 2.887541 1_555
Eu0 S12 2.909373 1_555
Eu0 S1 2.915394 1_555
Eu0 S5 2.957010 1_555
Eu0 S9 3.047644 1_555
Eu1 S3 2.852931 1_555
Eu1 S2 2.864874 1_555
Eu1 S13 2.887541 1_655
Eu1 S0 2.909373 1_555
Eu1 S4 2.915394 1_555
Eu1 S8 2.957010 1_655
Eu1 S11 3.047644 1_555
Eu2 S9 2.852931 1_445
Eu2 S15 2.864874 1_545
Eu2 S1 2.887541 1_555
Eu2 S5 2.909373 1_555
Eu2 S7 2.915394 1_545
Eu2 S12 2.957010 1_545
Eu2 S6 3.047644 1_555
Eu3 S11 2.852931 1_565
Eu3 S14 2.864874 1_565
Eu3 S4 2.887541 1_455
Eu3 S8 2.909373 1_555
Eu3 S13 2.915394 1_565
Eu3 S0 2.957010 1_465
Eu3 S3 3.047644 1_555
S0 Si1 2.127098 1_555
S1 Si0 2.125516 1_545
S2 Si3 2.098026 1_555
S3 Si3 2.122512 1_555
S4 Si1 2.125516 1_565
S5 Si2 2.127098 1_555
S6 Si2 2.122512 1_555
S7 Si2 2.125516 1_555
S8 Si3 2.127098 1_555
S9 Si0 2.122512 1_555
S10 Si2 2.098026 1_655
S11 Si1 2.122512 1_555
S12 Si0 2.127098 1_555
S13 Si3 2.125516 1_555
S14 Si1 2.098026 1_555
S15 Si0 2.098026 1_455
