# generated using pymatgen
data_SiO2
_symmetry_space_group_name_H-M   'P 1'
_cell_length_a   10.06922500
_cell_length_b   10.06922500
_cell_length_c   34.48404500
_cell_angle_alpha   90.00000000
_cell_angle_beta   90.00000000
_cell_angle_gamma   90.00000000
_symmetry_Int_Tables_number   1
_chemical_formula_structural   SiO2
_chemical_formula_sum   'Si60 O120'
_cell_volume   3496.31291132
_cell_formula_units_Z   60
loop_
 _symmetry_equiv_pos_site_id
 _symmetry_equiv_pos_as_xyz
  1  'x, y, z'
loop_
 _atom_site_type_symbol
 _atom_site_label
 _atom_site_symmetry_multiplicity
 _atom_site_fract_x
 _atom_site_fract_y
 _atom_site_fract_z
 _atom_site_occupancy
  Si  Si0  1  0.09931700  0.70156500  0.90322700  1
  Si  Si1  1  0.79843500  0.09931700  0.40322700  1
  Si  Si2  1  0.70156500  0.40068300  0.40322700  1
  Si  Si3  1  0.59931700  0.29843500  0.59677300  1
  Si  Si4  1  0.90068300  0.20156500  0.59677300  1
  Si  Si5  1  0.40068300  0.79843500  0.90322700  1
  Si  Si6  1  0.20156500  0.59931700  0.09677300  1
  Si  Si7  1  0.29843500  0.90068300  0.09677300  1
  Si  Si8  1  0.90068300  0.29843500  0.09677300  1
  Si  Si9  1  0.20156500  0.90068300  0.59677300  1
  Si  Si10  1  0.29843500  0.59931700  0.59677300  1
  Si  Si11  1  0.40068300  0.70156500  0.40322700  1
  Si  Si12  1  0.09931700  0.79843500  0.40322700  1
  Si  Si13  1  0.59931700  0.20156500  0.09677300  1
  Si  Si14  1  0.79843500  0.40068300  0.90322700  1
  Si  Si15  1  0.70156500  0.09931700  0.90322700  1
  Si  Si16  1  0.04586700  0.04586700  0.45724100  1
  Si  Si17  1  0.45413300  0.04586700  0.95724100  1
  Si  Si18  1  0.04586700  0.45413300  0.95724100  1
  Si  Si19  1  0.54586700  0.95413300  0.04275900  1
  Si  Si20  1  0.95413300  0.54586700  0.04275900  1
  Si  Si21  1  0.45413300  0.45413300  0.45724100  1
  Si  Si22  1  0.54586700  0.54586700  0.54275900  1
  Si  Si23  1  0.95413300  0.95413300  0.54275900  1
  Si  Si24  1  0.09511500  0.09511500  0.27218300  1
  Si  Si25  1  0.40488500  0.09511500  0.77218300  1
  Si  Si26  1  0.09511500  0.40488500  0.77218300  1
  Si  Si27  1  0.59511500  0.90488500  0.22781700  1
  Si  Si28  1  0.90488500  0.59511500  0.22781700  1
  Si  Si29  1  0.40488500  0.40488500  0.27218300  1
  Si  Si30  1  0.59511500  0.59511500  0.72781700  1
  Si  Si31  1  0.90488500  0.90488500  0.72781700  1
  Si  Si32  1  0.10862600  0.10862600  0.74588600  1
  Si  Si33  1  0.39137400  0.10862600  0.24588600  1
  Si  Si34  1  0.10862600  0.39137400  0.24588600  1
  Si  Si35  1  0.60862600  0.89137400  0.75411400  1
  Si  Si36  1  0.89137400  0.60862600  0.75411400  1
  Si  Si37  1  0.39137400  0.39137400  0.74588600  1
  Si  Si38  1  0.60862600  0.60862600  0.25411400  1
  Si  Si39  1  0.89137400  0.89137400  0.25411400  1
  Si  Si40  1  0.95513400  0.95513400  0.33649800  1
  Si  Si41  1  0.54486600  0.95513400  0.83649800  1
  Si  Si42  1  0.95513400  0.54486600  0.83649800  1
  Si  Si43  1  0.45513400  0.04486600  0.16350200  1
  Si  Si44  1  0.04486600  0.45513400  0.16350200  1
  Si  Si45  1  0.54486600  0.54486600  0.33649800  1
  Si  Si46  1  0.45513400  0.45513400  0.66350200  1
  Si  Si47  1  0.04486600  0.04486600  0.66350200  1
  Si  Si48  1  0.14408000  0.14408000  0.06518300  1
  Si  Si49  1  0.35592000  0.14408000  0.56518300  1
  Si  Si50  1  0.14408000  0.35592000  0.56518300  1
  Si  Si51  1  0.64408000  0.85592000  0.43481700  1
  Si  Si52  1  0.85592000  0.64408000  0.43481700  1
  Si  Si53  1  0.35592000  0.35592000  0.06518300  1
  Si  Si54  1  0.64408000  0.64408000  0.93481700  1
  Si  Si55  1  0.85592000  0.85592000  0.93481700  1
  Si  Si56  1  0.25000000  0.25000000  0.48979000  1
  Si  Si57  1  0.25000000  0.25000000  0.98979000  1
  Si  Si58  1  0.75000000  0.75000000  0.01021000  1
  Si  Si59  1  0.75000000  0.75000000  0.51021000  1
  O  O0  1  0.00601700  0.81974500  0.92106700  1
  O  O1  1  0.68025500  0.00601700  0.42106700  1
  O  O2  1  0.81974500  0.49398300  0.42106700  1
  O  O3  1  0.50601700  0.18025500  0.57893300  1
  O  O4  1  0.99398300  0.31974500  0.57893300  1
  O  O5  1  0.49398300  0.68025500  0.92106700  1
  O  O6  1  0.31974500  0.50601700  0.07893300  1
  O  O7  1  0.18025500  0.99398300  0.07893300  1
  O  O8  1  0.99398300  0.18025500  0.07893300  1
  O  O9  1  0.31974500  0.99398300  0.57893300  1
  O  O10  1  0.18025500  0.50601700  0.57893300  1
  O  O11  1  0.49398300  0.81974500  0.42106700  1
  O  O12  1  0.00601700  0.68025500  0.42106700  1
  O  O13  1  0.50601700  0.31974500  0.07893300  1
  O  O14  1  0.68025500  0.49398300  0.92106700  1
  O  O15  1  0.81974500  0.00601700  0.92106700  1
  O  O16  1  0.03493000  0.65250200  0.86243700  1
  O  O17  1  0.84749800  0.03493000  0.36243700  1
  O  O18  1  0.65250200  0.46507000  0.36243700  1
  O  O19  1  0.53493000  0.34749800  0.63756300  1
  O  O20  1  0.96507000  0.15250200  0.63756300  1
  O  O21  1  0.46507000  0.84749800  0.86243700  1
  O  O22  1  0.15250200  0.53493000  0.13756300  1
  O  O23  1  0.34749800  0.96507000  0.13756300  1
  O  O24  1  0.96507000  0.34749800  0.13756300  1
  O  O25  1  0.15250200  0.96507000  0.63756300  1
  O  O26  1  0.34749800  0.53493000  0.63756300  1
  O  O27  1  0.46507000  0.65250200  0.36243700  1
  O  O28  1  0.03493000  0.84749800  0.36243700  1
  O  O29  1  0.53493000  0.15250200  0.13756300  1
  O  O30  1  0.84749800  0.46507000  0.86243700  1
  O  O31  1  0.65250200  0.03493000  0.86243700  1
  O  O32  1  0.10624000  0.57957400  0.93386600  1
  O  O33  1  0.92042600  0.10624000  0.43386600  1
  O  O34  1  0.57957400  0.39376000  0.43386600  1
  O  O35  1  0.60624000  0.42042600  0.56613400  1
  O  O36  1  0.89376000  0.07957400  0.56613400  1
  O  O37  1  0.39376000  0.92042600  0.93386600  1
  O  O38  1  0.07957400  0.60624000  0.06613400  1
  O  O39  1  0.42042600  0.89376000  0.06613400  1
  O  O40  1  0.89376000  0.42042600  0.06613400  1
  O  O41  1  0.07957400  0.89376000  0.56613400  1
  O  O42  1  0.42042600  0.60624000  0.56613400  1
  O  O43  1  0.39376000  0.57957400  0.43386600  1
  O  O44  1  0.10624000  0.92042600  0.43386600  1
  O  O45  1  0.60624000  0.07957400  0.06613400  1
  O  O46  1  0.92042600  0.39376000  0.93386600  1
  O  O47  1  0.57957400  0.10624000  0.93386600  1
  O  O48  1  0.25000000  0.75000000  0.89531900  1
  O  O49  1  0.75000000  0.25000000  0.39531900  1
  O  O50  1  0.75000000  0.25000000  0.60468100  1
  O  O51  1  0.25000000  0.75000000  0.10468100  1
  O  O52  1  0.75000000  0.25000000  0.10468100  1
  O  O53  1  0.25000000  0.75000000  0.60468100  1
  O  O54  1  0.25000000  0.75000000  0.39531900  1
  O  O55  1  0.75000000  0.25000000  0.89531900  1
  O  O56  1  0.15908600  0.15908600  0.46184300  1
  O  O57  1  0.34091400  0.15908600  0.96184300  1
  O  O58  1  0.15908600  0.34091400  0.96184300  1
  O  O59  1  0.65908600  0.84091400  0.03815700  1
  O  O60  1  0.84091400  0.65908600  0.03815700  1
  O  O61  1  0.34091400  0.34091400  0.46184300  1
  O  O62  1  0.65908600  0.65908600  0.53815700  1
  O  O63  1  0.84091400  0.84091400  0.53815700  1
  O  O64  1  0.00000000  0.00000000  0.50000000  1
  O  O65  1  0.50000000  0.00000000  0.00000000  1
  O  O66  1  0.00000000  0.50000000  0.00000000  1
  O  O67  1  0.50000000  0.50000000  0.50000000  1
  O  O68  1  0.00304300  0.00304300  0.24391000  1
  O  O69  1  0.49695700  0.00304300  0.74391000  1
  O  O70  1  0.00304300  0.49695700  0.74391000  1
  O  O71  1  0.50304300  0.99695700  0.25609000  1
  O  O72  1  0.99695700  0.50304300  0.25609000  1
  O  O73  1  0.49695700  0.49695700  0.24391000  1
  O  O74  1  0.50304300  0.50304300  0.75609000  1
  O  O75  1  0.99695700  0.99695700  0.75609000  1
  O  O76  1  0.06323400  0.25035500  0.26416000  1
  O  O77  1  0.24964500  0.06323400  0.76416000  1
  O  O78  1  0.25035500  0.43676600  0.76416000  1
  O  O79  1  0.56323400  0.74964500  0.23584000  1
  O  O80  1  0.93676600  0.75035500  0.23584000  1
  O  O81  1  0.43676600  0.24964500  0.26416000  1
  O  O82  1  0.75035500  0.56323400  0.73584000  1
  O  O83  1  0.74964500  0.93676600  0.73584000  1
  O  O84  1  0.93676600  0.74964500  0.73584000  1
  O  O85  1  0.75035500  0.93676600  0.23584000  1
  O  O86  1  0.74964500  0.56323400  0.23584000  1
  O  O87  1  0.43676600  0.25035500  0.76416000  1
  O  O88  1  0.06323400  0.24964500  0.76416000  1
  O  O89  1  0.56323400  0.75035500  0.73584000  1
  O  O90  1  0.24964500  0.43676600  0.26416000  1
  O  O91  1  0.25035500  0.06323400  0.26416000  1
  O  O92  1  0.06030200  0.06030200  0.31732300  1
  O  O93  1  0.43969800  0.06030200  0.81732300  1
  O  O94  1  0.06030200  0.43969800  0.81732300  1
  O  O95  1  0.56030200  0.93969800  0.18267700  1
  O  O96  1  0.93969800  0.56030200  0.18267700  1
  O  O97  1  0.43969800  0.43969800  0.31732300  1
  O  O98  1  0.56030200  0.56030200  0.68267700  1
  O  O99  1  0.93969800  0.93969800  0.68267700  1
  O  O100  1  0.12164500  0.12164500  0.69870800  1
  O  O101  1  0.37835500  0.12164500  0.19870800  1
  O  O102  1  0.12164500  0.37835500  0.19870800  1
  O  O103  1  0.62164500  0.87835500  0.80129200  1
  O  O104  1  0.87835500  0.62164500  0.80129200  1
  O  O105  1  0.37835500  0.37835500  0.69870800  1
  O  O106  1  0.62164500  0.62164500  0.30129200  1
  O  O107  1  0.87835500  0.87835500  0.30129200  1
  O  O108  1  0.15672700  0.15672700  0.01788700  1
  O  O109  1  0.34327300  0.15672700  0.51788700  1
  O  O110  1  0.15672700  0.34327300  0.51788700  1
  O  O111  1  0.65672700  0.84327300  0.48211300  1
  O  O112  1  0.84327300  0.65672700  0.48211300  1
  O  O113  1  0.34327300  0.34327300  0.01788700  1
  O  O114  1  0.65672700  0.65672700  0.98211300  1
  O  O115  1  0.84327300  0.84327300  0.98211300  1
  O  O116  1  0.25000000  0.25000000  0.08439500  1
  O  O117  1  0.25000000  0.25000000  0.58439500  1
  O  O118  1  0.75000000  0.75000000  0.41560500  1
  O  O119  1  0.75000000  0.75000000  0.91560500  1
loop_
_geom_bond_atom_site_label_1
_geom_bond_atom_site_label_2
_geom_bond_distance
_geom_bond_site_symmetry_2
O0 Si55 1.625335 1_455
O0 Si0 1.636185 1_555
O1 Si51 1.625335 1_545
O1 Si1 1.636185 1_555
O2 Si52 1.625335 1_555
O2 Si2 1.636185 1_555
O3 Si49 1.625335 1_555
O3 Si3 1.636185 1_555
O4 Si50 1.625335 1_655
O4 Si4 1.636185 1_555
O5 Si54 1.625335 1_555
O5 Si5 1.636185 1_555
O6 Si53 1.625335 1_555
O6 Si6 1.636185 1_555
O7 Si48 1.625335 1_565
O7 Si7 1.636185 1_555
O8 Si48 1.625335 1_655
O8 Si8 1.636185 1_555
O9 Si49 1.625335 1_565
O9 Si9 1.636185 1_555
O10 Si50 1.625335 1_555
O10 Si10 1.636185 1_555
O11 Si51 1.625335 1_555
O11 Si11 1.636185 1_555
O12 Si52 1.625335 1_455
O12 Si12 1.636185 1_555
O13 Si53 1.625335 1_555
O13 Si13 1.636185 1_555
O14 Si54 1.625335 1_555
O14 Si14 1.636185 1_555
O15 Si55 1.625335 1_545
O15 Si15 1.636185 1_555
O16 Si42 1.618743 1_455
O16 Si0 1.625708 1_555
O17 Si40 1.618743 1_545
O17 Si1 1.625708 1_555
O18 Si45 1.618743 1_555
O18 Si2 1.625708 1_555
O19 Si46 1.618743 1_555
O19 Si3 1.625708 1_555
O20 Si47 1.618743 1_655
O20 Si4 1.625708 1_555
O21 Si41 1.618743 1_555
O21 Si5 1.625708 1_555
O22 Si44 1.618743 1_555
O22 Si6 1.625708 1_555
O23 Si43 1.618743 1_565
O23 Si7 1.625708 1_555
O24 Si44 1.618743 1_655
O24 Si8 1.625708 1_555
O25 Si47 1.618743 1_565
O25 Si9 1.625708 1_555
O26 Si46 1.618743 1_555
O26 Si10 1.625708 1_555
O27 Si45 1.618743 1_555
O27 Si11 1.625708 1_555
O28 Si40 1.618743 1_455
O28 Si12 1.625708 1_555
O29 Si43 1.618743 1_555
O29 Si13 1.625708 1_555
O30 Si42 1.618743 1_555
O30 Si14 1.625708 1_555
O31 Si41 1.618743 1_545
O31 Si15 1.625708 1_555
O32 Si18 1.617003 1_555
O32 Si0 1.621736 1_555
O33 Si16 1.617003 1_655
O33 Si1 1.621736 1_555
O34 Si21 1.617003 1_555
O34 Si2 1.621736 1_555
O35 Si22 1.617003 1_555
O35 Si3 1.621736 1_555
O36 Si23 1.617003 1_545
O36 Si4 1.621736 1_555
O37 Si17 1.617003 1_565
O37 Si5 1.621736 1_555
O38 Si20 1.617003 1_455
O38 Si6 1.621736 1_555
O39 Si19 1.617003 1_555
O39 Si7 1.621736 1_555
O40 Si20 1.617003 1_555
O40 Si8 1.621736 1_555
O41 Si23 1.617003 1_455
O41 Si9 1.621736 1_555
O42 Si22 1.617003 1_555
O42 Si10 1.621736 1_555
O43 Si21 1.617003 1_555
O43 Si11 1.621736 1_555
O44 Si16 1.617003 1_565
O44 Si12 1.621736 1_555
O45 Si19 1.617003 1_545
O45 Si13 1.621736 1_555
O46 Si18 1.617003 1_655
O46 Si14 1.621736 1_555
O47 Si17 1.617003 1_555
O47 Si15 1.621736 1_555
O48 Si5 1.616880 1_555
O48 Si0 1.616880 1_555
O49 Si2 1.616880 1_555
O49 Si1 1.616880 1_555
O50 Si3 1.616880 1_555
O50 Si4 1.616880 1_555
O51 Si7 1.616880 1_555
O51 Si6 1.616880 1_555
O52 Si13 1.616880 1_555
O52 Si8 1.616880 1_555
O53 Si9 1.616880 1_555
O53 Si10 1.616880 1_555
O54 Si11 1.616880 1_555
O54 Si12 1.616880 1_555
O55 Si14 1.616880 1_555
O55 Si15 1.616880 1_555
O56 Si56 1.613941 1_555
O56 Si16 1.620034 1_555
O57 Si57 1.613941 1_555
O57 Si17 1.620034 1_555
O58 Si57 1.613941 1_555
O58 Si18 1.620034 1_555
O59 Si58 1.613941 1_555
O59 Si19 1.620034 1_555
O60 Si58 1.613941 1_555
O60 Si20 1.620034 1_555
O61 Si56 1.613941 1_555
O61 Si21 1.620034 1_555
O62 Si59 1.613941 1_555
O62 Si22 1.620034 1_555
O63 Si59 1.613941 1_555
O63 Si23 1.620034 1_555
O64 Si23 1.612688 1_445
O64 Si16 1.612688 1_555
O65 Si19 1.612688 1_545
O65 Si17 1.612688 1_554
O66 Si20 1.612688 1_455
O66 Si18 1.612688 1_554
O67 Si22 1.612688 1_555
O67 Si21 1.612688 1_555
O68 Si39 1.628637 1_445
O68 Si24 1.633881 1_555
O69 Si35 1.628637 1_545
O69 Si25 1.633881 1_555
O70 Si36 1.628637 1_455
O70 Si26 1.633881 1_555
O71 Si33 1.628637 1_565
O71 Si27 1.633881 1_555
O72 Si34 1.628637 1_655
O72 Si28 1.633881 1_555
O73 Si38 1.628637 1_555
O73 Si29 1.633881 1_555
O74 Si37 1.628637 1_555
O74 Si30 1.633881 1_555
O75 Si32 1.628637 1_665
O75 Si31 1.633881 1_555
O76 Si34 1.619343 1_555
O76 Si24 1.619575 1_555
O77 Si32 1.619343 1_555
O77 Si25 1.619575 1_555
O78 Si37 1.619343 1_555
O78 Si26 1.619575 1_555
O79 Si38 1.619343 1_555
O79 Si27 1.619575 1_555
O80 Si39 1.619343 1_555
O80 Si28 1.619575 1_555
O81 Si33 1.619343 1_555
O81 Si29 1.619575 1_555
O82 Si36 1.619343 1_555
O82 Si30 1.619575 1_555
O83 Si35 1.619343 1_555
O83 Si31 1.619575 1_555
O84 Si36 1.619343 1_555
O84 Si31 1.619575 1_555
O85 Si39 1.619343 1_555
O85 Si27 1.619575 1_555
O86 Si38 1.619343 1_555
O86 Si28 1.619575 1_555
O87 Si37 1.619343 1_555
O87 Si25 1.619575 1_555
O88 Si32 1.619343 1_555
O88 Si26 1.619575 1_555
O89 Si35 1.619343 1_555
O89 Si30 1.619575 1_555
O90 Si34 1.619343 1_555
O90 Si29 1.619575 1_555
O91 Si33 1.619343 1_555
O91 Si24 1.619575 1_555
O92 Si24 1.633643 1_555
O92 Si40 1.637077 1_445
O93 Si25 1.633643 1_555
O93 Si41 1.637077 1_545
O94 Si26 1.633643 1_555
O94 Si42 1.637077 1_455
O95 Si27 1.633643 1_555
O95 Si43 1.637077 1_565
O96 Si28 1.633643 1_555
O96 Si44 1.637077 1_655
O97 Si29 1.633643 1_555
O97 Si45 1.637077 1_555
O98 Si30 1.633643 1_555
O98 Si46 1.637077 1_555
O99 Si31 1.633643 1_555
O99 Si47 1.637077 1_665
O100 Si47 1.633796 1_555
O100 Si32 1.637417 1_555
O101 Si43 1.633796 1_555
O101 Si33 1.637417 1_555
O102 Si44 1.633796 1_555
O102 Si34 1.637417 1_555
O103 Si41 1.633796 1_555
O103 Si35 1.637417 1_555
O104 Si42 1.633796 1_555
O104 Si36 1.637417 1_555
O105 Si46 1.633796 1_555
O105 Si37 1.637417 1_555
O106 Si45 1.633796 1_555
O106 Si38 1.637417 1_555
O107 Si40 1.633796 1_555
O107 Si39 1.637417 1_555
O108 Si48 1.640870 1_555
O108 Si57 1.644052 1_554
O109 Si49 1.640870 1_555
O109 Si56 1.644052 1_555
O110 Si50 1.640870 1_555
O110 Si56 1.644052 1_555
O111 Si51 1.640870 1_555
O111 Si59 1.644052 1_555
O112 Si52 1.640870 1_555
O112 Si59 1.644052 1_555
O113 Si53 1.640870 1_555
O113 Si57 1.644052 1_554
O114 Si54 1.640870 1_555
O114 Si58 1.644052 1_556
O115 Si55 1.640870 1_555
O115 Si58 1.644052 1_556
O116 Si48 1.647391 1_555
O116 Si53 1.647391 1_555
O117 Si50 1.647391 1_555
O117 Si49 1.647391 1_555
O118 Si51 1.647391 1_555
O118 Si52 1.647391 1_555
O119 Si54 1.647391 1_555
O119 Si55 1.647391 1_555
