# generated using pymatgen
data_Eu(HO)3
_symmetry_space_group_name_H-M   'P 1'
_cell_length_a   6.42764314
_cell_length_b   6.42764314
_cell_length_c   3.69077500
_cell_angle_alpha   90.00000000
_cell_angle_beta   90.00000000
_cell_angle_gamma   119.99999117
_symmetry_Int_Tables_number   1
_chemical_formula_structural   Eu(HO)3
_chemical_formula_sum   'Eu2 H6 O6'
_cell_volume   132.05405895
_cell_formula_units_Z   2
loop_
 _symmetry_equiv_pos_site_id
 _symmetry_equiv_pos_as_xyz
  1  'x, y, z'
loop_
 _atom_site_type_symbol
 _atom_site_label
 _atom_site_symmetry_multiplicity
 _atom_site_fract_x
 _atom_site_fract_y
 _atom_site_fract_z
 _atom_site_occupancy
  Eu  Eu0  1  0.33333300  0.66666700  0.25000000  1
  Eu  Eu1  1  0.66666700  0.33333300  0.75000000  1
  H  H0  1  0.85928900  0.72346500  0.25000000  1
  H  H1  1  0.86417600  0.14071100  0.25000000  1
  H  H2  1  0.27653500  0.13582400  0.25000000  1
  H  H3  1  0.14071100  0.27653500  0.75000000  1
  H  H4  1  0.13582400  0.85928900  0.75000000  1
  H  H5  1  0.72346500  0.86417600  0.75000000  1
  O  O0  1  0.91644700  0.60880200  0.25000000  1
  O  O1  1  0.69235500  0.08355300  0.25000000  1
  O  O2  1  0.39119800  0.30764500  0.25000000  1
  O  O3  1  0.08355300  0.39119800  0.75000000  1
  O  O4  1  0.30764500  0.91644700  0.75000000  1
  O  O5  1  0.60880200  0.69235500  0.75000000  1
loop_
_geom_bond_atom_site_label_1
_geom_bond_atom_site_label_2
_geom_bond_distance
_geom_bond_site_symmetry_2
Eu0 O4 2.505080 1_555
Eu0 O4 2.505080 1_554
Eu0 O3 2.505083 1_554
Eu0 O3 2.505083 1_555
Eu0 O5 2.505084 1_554
Eu0 O5 2.505084 1_555
Eu0 O0 2.514344 1_455
Eu0 O1 2.514347 1_565
Eu0 O2 2.514350 1_555
Eu1 O1 2.505080 1_555
Eu1 O1 2.505080 1_556
Eu1 O0 2.505083 1_555
Eu1 O0 2.505083 1_556
Eu1 O2 2.505084 1_556
Eu1 O2 2.505084 1_555
Eu1 O3 2.514344 1_655
Eu1 O4 2.514347 1_545
Eu1 O5 2.514350 1_555
H0 O0 0.974134 1_555
H1 O1 0.974134 1_555
H2 O2 0.974134 1_555
H3 O3 0.974134 1_555
H4 O4 0.974134 1_555
H5 O5 0.974134 1_555
