# generated using pymatgen
data_SiO2
_symmetry_space_group_name_H-M   'P 1'
_cell_length_a   13.23969777
_cell_length_b   13.23969777
_cell_length_c   29.16831500
_cell_angle_alpha   90.00000000
_cell_angle_beta   90.00000000
_cell_angle_gamma   142.55378931
_symmetry_Int_Tables_number   1
_chemical_formula_structural   SiO2
_chemical_formula_sum   'Si56 O112'
_cell_volume   3108.72817630
_cell_formula_units_Z   56
loop_
 _symmetry_equiv_pos_site_id
 _symmetry_equiv_pos_as_xyz
  1  'x, y, z'
loop_
 _atom_site_type_symbol
 _atom_site_label
 _atom_site_symmetry_multiplicity
 _atom_site_fract_x
 _atom_site_fract_y
 _atom_site_fract_z
 _atom_site_occupancy
  Si  Si0  1  0.59068600  0.04348700  0.60797100  1
  Si  Si1  1  0.17123900  0.45800500  0.53918500  1
  Si  Si2  1  0.49040400  0.14449500  0.94170700  1
  Si  Si3  1  0.09068600  0.54348700  0.89202900  1
  Si  Si4  1  0.08194300  0.53779300  0.19964900  1
  Si  Si5  1  0.03779300  0.58194300  0.69964900  1
  Si  Si6  1  0.45651300  0.90931400  0.89202900  1
  Si  Si7  1  0.38598500  0.24570700  0.60770700  1
  Si  Si8  1  0.08408200  0.29589800  0.30023000  1
  Si  Si9  1  0.95651300  0.40931400  0.60797100  1
  Si  Si10  1  0.25429300  0.11401500  0.89229300  1
  Si  Si11  1  0.46220700  0.91805700  0.19964900  1
  Si  Si12  1  0.32876100  0.04199500  0.03918500  1
  Si  Si13  1  0.91805700  0.46220700  0.80035100  1
  Si  Si14  1  0.24570700  0.38598500  0.39229300  1
  Si  Si15  1  0.79589800  0.58408200  0.80023000  1
  Si  Si16  1  0.88598500  0.74570700  0.89229300  1
  Si  Si17  1  0.29759700  0.34654400  0.94857000  1
  Si  Si18  1  0.85550500  0.50959600  0.94170700  1
  Si  Si19  1  0.00959600  0.35550500  0.44170700  1
  Si  Si20  1  0.54199500  0.82876100  0.53918500  1
  Si  Si21  1  0.75429300  0.61401500  0.60770700  1
  Si  Si22  1  0.54348700  0.09068600  0.10797100  1
  Si  Si23  1  0.61401500  0.75429300  0.39229300  1
  Si  Si24  1  0.53779300  0.08194300  0.80035100  1
  Si  Si25  1  0.04348700  0.59068600  0.39202900  1
  Si  Si26  1  0.58408200  0.79589800  0.19977000  1
  Si  Si27  1  0.35550500  0.00959600  0.55829300  1
  Si  Si28  1  0.41805700  0.96220700  0.69964900  1
  Si  Si29  1  0.79759700  0.84654400  0.55143000  1
  Si  Si30  1  0.67123900  0.95800500  0.96081500  1
  Si  Si31  1  0.82876100  0.54199500  0.46081500  1
  Si  Si32  1  0.70240300  0.65345600  0.05143000  1
  Si  Si33  1  0.14449500  0.49040400  0.05829300  1
  Si  Si34  1  0.04199500  0.32876100  0.96081500  1
  Si  Si35  1  0.90931400  0.45651300  0.10797100  1
  Si  Si36  1  0.41591800  0.20410200  0.80023000  1
  Si  Si37  1  0.65345600  0.70240300  0.94857000  1
  Si  Si38  1  0.15345600  0.20240300  0.55143000  1
  Si  Si39  1  0.99040400  0.64449500  0.55829300  1
  Si  Si40  1  0.50959600  0.85550500  0.05829300  1
  Si  Si41  1  0.40931400  0.95651300  0.39202900  1
  Si  Si42  1  0.91591800  0.70410200  0.69977000  1
  Si  Si43  1  0.45800500  0.17123900  0.46081500  1
  Si  Si44  1  0.64449500  0.99040400  0.44170700  1
  Si  Si45  1  0.20410200  0.41591800  0.19977000  1
  Si  Si46  1  0.95800500  0.67123900  0.03918500  1
  Si  Si47  1  0.20240300  0.15345600  0.44857000  1
  Si  Si48  1  0.11401500  0.25429300  0.10770700  1
  Si  Si49  1  0.74570700  0.88598500  0.10770700  1
  Si  Si50  1  0.29589800  0.08408200  0.69977000  1
  Si  Si51  1  0.84654400  0.79759700  0.44857000  1
  Si  Si52  1  0.58194300  0.03779300  0.30035100  1
  Si  Si53  1  0.70410200  0.91591800  0.30023000  1
  Si  Si54  1  0.34654400  0.29759700  0.05143000  1
  Si  Si55  1  0.96220700  0.41805700  0.30035100  1
  O  O0  1  0.58237600  0.91614400  0.18964900  1
  O  O1  1  0.46845800  0.00303500  0.33862200  1
  O  O2  1  0.17567200  0.40583900  0.08209300  1
  O  O3  1  0.80133400  0.77631000  0.91628600  1
  O  O4  1  0.09416100  0.32432800  0.41790700  1
  O  O5  1  0.17357500  0.17357500  0.50000000  1
  O  O6  1  0.91338500  0.08661500  0.10398600  1
  O  O7  1  0.48567700  0.91919600  0.41852000  1
  O  O8  1  0.32642500  0.32642500  0.00000000  1
  O  O9  1  0.97443100  0.02556900  0.57249600  1
  O  O10  1  0.49680700  0.00319300  0.75000000  1
  O  O11  1  0.67567200  0.90583900  0.41790700  1
  O  O12  1  0.04932800  0.38744100  0.49621700  1
  O  O13  1  0.88913200  0.52631200  0.41619400  1
  O  O14  1  0.45067200  0.11255900  0.99621700  1
  O  O15  1  0.52631200  0.88913200  0.58380600  1
  O  O16  1  0.49696500  0.03154200  0.16137800  1
  O  O17  1  0.41762400  0.08385600  0.81035100  1
  O  O18  1  0.19116000  0.80884000  0.56583100  1
  O  O19  1  0.02556900  0.97443100  0.42750400  1
  O  O20  1  0.59416100  0.82432800  0.08209300  1
  O  O21  1  0.08661500  0.91338500  0.89601400  1
  O  O22  1  0.86041700  0.13958300  0.97384000  1
  O  O23  1  0.41614400  0.08237600  0.68964900  1
  O  O24  1  0.38913200  0.02631200  0.08380600  1
  O  O25  1  0.01432300  0.58080400  0.91852000  1
  O  O26  1  0.80884000  0.19116000  0.43416900  1
  O  O27  1  0.99696500  0.53154200  0.33862200  1
  O  O28  1  0.26963600  0.73036400  0.19748300  1
  O  O29  1  0.63958300  0.36041700  0.47384000  1
  O  O30  1  0.80192200  0.66916900  0.66148900  1
  O  O31  1  0.08385600  0.41762400  0.18964900  1
  O  O32  1  0.53154200  0.99696500  0.66137800  1
  O  O33  1  0.51432300  0.08080400  0.58148000  1
  O  O34  1  0.30884000  0.69116000  0.06583100  1
  O  O35  1  0.38744100  0.04932800  0.50378300  1
  O  O36  1  0.91762400  0.58385600  0.68964900  1
  O  O37  1  0.33688900  0.16311100  0.75000000  1
  O  O38  1  0.66916900  0.80192200  0.33851100  1
  O  O39  1  0.16311100  0.33688900  0.25000000  1
  O  O40  1  0.27631000  0.30133400  0.41628600  1
  O  O41  1  0.41919600  0.98567700  0.91852000  1
  O  O42  1  0.69807800  0.83083100  0.16148900  1
  O  O43  1  0.58385600  0.91762400  0.31035100  1
  O  O44  1  0.67357500  0.67357500  0.00000000  1
  O  O45  1  0.73036400  0.26963600  0.80251700  1
  O  O46  1  0.98567700  0.41919600  0.08148000  1
  O  O47  1  0.76963600  0.23036400  0.30251700  1
  O  O48  1  0.66342000  0.83200500  0.94968400  1
  O  O49  1  0.89662700  0.10337300  0.30246900  1
  O  O50  1  0.36041700  0.63958300  0.52616000  1
  O  O51  1  0.33083100  0.19807800  0.66148900  1
  O  O52  1  0.29220100  0.70779900  0.89430000  1
  O  O53  1  0.61255900  0.95067200  0.49621700  1
  O  O54  1  0.60337300  0.39662700  0.80246900  1
  O  O55  1  0.70779900  0.29220100  0.10570000  1
  O  O56  1  0.03154200  0.49696500  0.83862200  1
  O  O57  1  0.10337300  0.89662700  0.69753100  1
  O  O58  1  0.83083100  0.69807800  0.83851100  1
  O  O59  1  0.83200500  0.66342000  0.05031600  1
  O  O60  1  0.50303500  0.96845800  0.83862200  1
  O  O61  1  0.40583900  0.17567200  0.91790700  1
  O  O62  1  0.39662700  0.60337300  0.19753100  1
  O  O63  1  0.16799500  0.33658000  0.94968400  1
  O  O64  1  0.99680700  0.50319300  0.75000000  1
  O  O65  1  0.33200500  0.16342000  0.44968400  1
  O  O66  1  0.69116000  0.30884000  0.93416900  1
  O  O67  1  0.19866600  0.22369000  0.08371400  1
  O  O68  1  0.22369000  0.19866600  0.91628600  1
  O  O69  1  0.83688900  0.66311100  0.75000000  1
  O  O70  1  0.58661500  0.41338500  0.60398600  1
  O  O71  1  0.20779900  0.79220100  0.39430000  1
  O  O72  1  0.72369000  0.69866600  0.58371400  1
  O  O73  1  0.54932800  0.88744100  0.00378300  1
  O  O74  1  0.66311100  0.83688900  0.25000000  1
  O  O75  1  0.95067200  0.61255900  0.50378300  1
  O  O76  1  0.61086800  0.97368800  0.91619400  1
  O  O77  1  0.11086800  0.47368800  0.58380600  1
  O  O78  1  0.32432800  0.09416100  0.58209300  1
  O  O79  1  0.23036400  0.76963600  0.69748300  1
  O  O80  1  0.50319300  0.99680700  0.25000000  1
  O  O81  1  0.16916900  0.30192200  0.16148900  1
  O  O82  1  0.88744100  0.54932800  0.99621700  1
  O  O83  1  0.91614400  0.58237600  0.81035100  1
  O  O84  1  0.30133400  0.27631000  0.58371400  1
  O  O85  1  0.19807800  0.33083100  0.33851100  1
  O  O86  1  0.02631200  0.38913200  0.91619400  1
  O  O87  1  0.91919600  0.48567700  0.58148000  1
  O  O88  1  0.47443100  0.52556900  0.92750400  1
  O  O89  1  0.13958300  0.86041700  0.02616000  1
  O  O90  1  0.47368800  0.11086800  0.41619400  1
  O  O91  1  0.96845800  0.50303500  0.16137800  1
  O  O92  1  0.77631000  0.80133400  0.08371400  1
  O  O93  1  0.08080400  0.51432300  0.41852000  1
  O  O94  1  0.97368800  0.61086800  0.08380600  1
  O  O95  1  0.69866600  0.72369000  0.41628600  1
  O  O96  1  0.30192200  0.16916900  0.83851100  1
  O  O97  1  0.83658000  0.66799500  0.44968400  1
  O  O98  1  0.90583900  0.67567200  0.58209300  1
  O  O99  1  0.11255900  0.45067200  0.00378300  1
  O  O100  1  0.52556900  0.47443100  0.07249600  1
  O  O101  1  0.16342000  0.33200500  0.55031600  1
  O  O102  1  0.79220100  0.20779900  0.60570000  1
  O  O103  1  0.58080400  0.01432300  0.08148000  1
  O  O104  1  0.82432800  0.59416100  0.91790700  1
  O  O105  1  0.41338500  0.58661500  0.39601400  1
  O  O106  1  0.82642500  0.82642500  0.50000000  1
  O  O107  1  0.08237600  0.41614400  0.31035100  1
  O  O108  1  0.33658000  0.16799500  0.05031600  1
  O  O109  1  0.66799500  0.83658000  0.55031600  1
  O  O110  1  0.00319300  0.49680700  0.25000000  1
  O  O111  1  0.00303500  0.46845800  0.66137800  1
loop_
_geom_bond_atom_site_label_1
_geom_bond_atom_site_label_2
_geom_bond_distance
_geom_bond_site_symmetry_2
O0 Si26 1.636853 1_555
O0 Si11 1.637373 1_555
O1 Si52 1.617880 1_555
O1 Si41 1.628934 1_545
O2 Si33 1.624704 1_555
O2 Si48 1.627755 1_555
O3 Si16 1.622057 1_555
O3 Si37 1.623412 1_555
O4 Si19 1.624704 1_555
O4 Si14 1.627755 1_555
O5 Si38 1.621246 1_555
O5 Si47 1.621246 1_555
O6 Si49 1.622514 1_545
O6 Si48 1.622514 1_655
O7 Si44 1.618607 1_555
O7 Si41 1.629871 1_555
O8 Si17 1.621246 1_554
O8 Si54 1.621246 1_555
O9 Si38 1.632648 1_655
O9 Si29 1.632648 1_545
O10 Si24 1.624842 1_555
O10 Si28 1.624842 1_545
O11 Si44 1.624704 1_555
O11 Si23 1.627755 1_555
O12 Si19 1.621824 1_555
O12 Si1 1.629239 1_555
O13 Si25 1.622939 1_655
O13 Si31 1.624642 1_555
O14 Si2 1.621824 1_555
O14 Si12 1.629239 1_556
O15 Si0 1.622939 1_565
O15 Si20 1.624642 1_555
O16 Si11 1.617880 1_545
O16 Si22 1.628934 1_555
O17 Si36 1.636853 1_555
O17 Si24 1.637373 1_555
O18 Si27 1.632286 1_565
O18 Si39 1.632286 1_455
O19 Si47 1.632648 1_565
O19 Si51 1.632648 1_455
O20 Si40 1.624704 1_555
O20 Si49 1.627755 1_555
O21 Si10 1.622514 1_565
O21 Si16 1.622514 1_455
O22 Si30 1.623621 1_545
O22 Si34 1.623621 1_655
O23 Si50 1.636853 1_555
O23 Si28 1.637373 1_545
O24 Si22 1.622939 1_555
O24 Si12 1.624642 1_555
O25 Si18 1.618607 1_455
O25 Si3 1.629871 1_555
O26 Si19 1.632286 1_655
O26 Si44 1.632286 1_545
O27 Si55 1.617880 1_555
O27 Si25 1.628934 1_655
O28 Si11 1.618466 1_555
O28 Si4 1.618466 1_555
O29 Si31 1.623621 1_555
O29 Si43 1.623621 1_555
O30 Si42 1.621791 1_555
O30 Si21 1.631142 1_555
O31 Si45 1.636853 1_555
O31 Si4 1.637373 1_555
O32 Si28 1.617880 1_555
O32 Si0 1.628934 1_565
O33 Si27 1.618607 1_555
O33 Si0 1.629871 1_555
O34 Si33 1.632286 1_555
O34 Si40 1.632286 1_555
O35 Si27 1.621824 1_555
O35 Si43 1.629239 1_555
O36 Si42 1.636853 1_555
O36 Si5 1.637373 1_655
O37 Si36 1.623038 1_555
O37 Si50 1.623038 1_555
O38 Si53 1.621791 1_555
O38 Si23 1.631142 1_555
O39 Si8 1.623038 1_555
O39 Si45 1.623038 1_555
O40 Si14 1.622057 1_555
O40 Si47 1.623412 1_555
O41 Si2 1.618607 1_565
O41 Si6 1.629871 1_555
O42 Si26 1.621791 1_555
O42 Si49 1.631142 1_555
O43 Si53 1.636853 1_555
O43 Si52 1.637373 1_565
O44 Si37 1.621246 1_554
O44 Si32 1.621246 1_555
O45 Si24 1.618466 1_555
O45 Si13 1.618466 1_555
O46 Si33 1.618607 1_655
O46 Si35 1.629871 1_555
O47 Si55 1.618466 1_555
O47 Si52 1.618466 1_555
O48 Si37 1.613479 1_555
O48 Si30 1.620128 1_555
O49 Si53 1.617438 1_545
O49 Si8 1.617438 1_655
O50 Si20 1.623621 1_555
O50 Si1 1.623621 1_555
O51 Si50 1.621791 1_555
O51 Si7 1.631142 1_555
O52 Si6 1.624547 1_555
O52 Si3 1.624547 1_555
O53 Si44 1.621824 1_555
O53 Si20 1.629239 1_555
O54 Si15 1.617438 1_555
O54 Si36 1.617438 1_555
O55 Si35 1.624547 1_555
O55 Si22 1.624547 1_555
O56 Si13 1.617880 1_455
O56 Si3 1.628934 1_555
O57 Si42 1.617438 1_455
O57 Si50 1.617438 1_565
O58 Si15 1.621791 1_555
O58 Si16 1.631142 1_555
O59 Si32 1.613479 1_555
O59 Si46 1.620128 1_555
O60 Si24 1.617880 1_565
O60 Si6 1.628934 1_555
O61 Si2 1.624704 1_555
O61 Si10 1.627755 1_555
O62 Si26 1.617438 1_555
O62 Si45 1.617438 1_555
O63 Si17 1.613479 1_555
O63 Si34 1.620128 1_555
O64 Si5 1.624842 1_655
O64 Si13 1.624842 1_555
O65 Si47 1.613479 1_555
O65 Si43 1.620128 1_555
O66 Si2 1.632286 1_555
O66 Si18 1.632286 1_555
O67 Si48 1.622057 1_555
O67 Si54 1.623412 1_555
O68 Si10 1.622057 1_555
O68 Si17 1.623412 1_555
O69 Si42 1.623038 1_555
O69 Si15 1.623038 1_555
O70 Si7 1.622514 1_555
O70 Si21 1.622514 1_555
O71 Si41 1.624547 1_555
O71 Si25 1.624547 1_555
O72 Si21 1.622057 1_555
O72 Si29 1.623412 1_555
O73 Si40 1.621824 1_555
O73 Si30 1.629239 1_554
O74 Si53 1.623038 1_555
O74 Si26 1.623038 1_555
O75 Si39 1.621824 1_555
O75 Si31 1.629239 1_555
O76 Si6 1.622939 1_555
O76 Si30 1.624642 1_555
O77 Si9 1.622939 1_455
O77 Si1 1.624642 1_555
O78 Si27 1.624704 1_555
O78 Si7 1.627755 1_555
O79 Si5 1.618466 1_555
O79 Si28 1.618466 1_555
O80 Si52 1.624842 1_565
O80 Si11 1.624842 1_555
O81 Si45 1.621791 1_555
O81 Si48 1.631142 1_555
O82 Si18 1.621824 1_555
O82 Si46 1.629239 1_556
O83 Si15 1.636853 1_555
O83 Si13 1.637373 1_555
O84 Si7 1.622057 1_555
O84 Si38 1.623412 1_555
O85 Si8 1.621791 1_555
O85 Si14 1.631142 1_555
O86 Si3 1.622939 1_555
O86 Si34 1.624642 1_555
O87 Si39 1.618607 1_555
O87 Si9 1.629871 1_555
O88 Si17 1.632648 1_555
O88 Si37 1.632648 1_555
O89 Si46 1.623621 1_455
O89 Si12 1.623621 1_565
O90 Si41 1.622939 1_545
O90 Si43 1.624642 1_555
O91 Si4 1.617880 1_655
O91 Si35 1.628934 1_555
O92 Si49 1.622057 1_555
O92 Si32 1.623412 1_555
O93 Si19 1.618607 1_555
O93 Si25 1.629871 1_555
O94 Si35 1.622939 1_555
O94 Si46 1.624642 1_555
O95 Si23 1.622057 1_555
O95 Si51 1.623412 1_555
O96 Si36 1.621791 1_555
O96 Si10 1.631142 1_555
O97 Si51 1.613479 1_555
O97 Si31 1.620128 1_555
O98 Si39 1.624704 1_555
O98 Si21 1.627755 1_555
O99 Si33 1.621824 1_555
O99 Si34 1.629239 1_554
O100 Si54 1.632648 1_555
O100 Si32 1.632648 1_555
O101 Si38 1.613479 1_555
O101 Si1 1.620128 1_555
O102 Si0 1.624547 1_555
O102 Si9 1.624547 1_555
O103 Si40 1.618607 1_545
O103 Si22 1.629871 1_555
O104 Si18 1.624704 1_555
O104 Si16 1.627755 1_555
O105 Si14 1.622514 1_555
O105 Si23 1.622514 1_555
O106 Si51 1.621246 1_555
O106 Si29 1.621246 1_555
O107 Si8 1.636853 1_555
O107 Si55 1.637373 1_455
O108 Si54 1.613479 1_555
O108 Si12 1.620128 1_555
O109 Si29 1.613479 1_555
O109 Si20 1.620128 1_555
O110 Si55 1.624842 1_455
O110 Si4 1.624842 1_555
O111 Si5 1.617880 1_555
O111 Si9 1.628934 1_455
