# generated using pymatgen
data_Y(Zn10Ru)2
_symmetry_space_group_name_H-M   'P 1'
_cell_length_a   10.09901360
_cell_length_b   10.09901360
_cell_length_c   10.09901360
_cell_angle_alpha   60.00000000
_cell_angle_beta   60.00000000
_cell_angle_gamma   60.00000000
_symmetry_Int_Tables_number   1
_chemical_formula_structural   Y(Zn10Ru)2
_chemical_formula_sum   'Y2 Zn40 Ru4'
_cell_volume   728.31939175
_cell_formula_units_Z   2
loop_
 _symmetry_equiv_pos_site_id
 _symmetry_equiv_pos_as_xyz
  1  'x, y, z'
loop_
 _atom_site_type_symbol
 _atom_site_label
 _atom_site_symmetry_multiplicity
 _atom_site_fract_x
 _atom_site_fract_y
 _atom_site_fract_z
 _atom_site_occupancy
  Y  Y0  1  0.50000000  0.50000000  0.50000000  1
  Y  Y1  1  0.75000000  0.75000000  0.75000000  1
  Zn  Zn0  1  0.29962500  0.29962500  0.83211500  1
  Zn  Zn1  1  0.29962500  0.56863600  0.83211500  1
  Zn  Zn2  1  0.95037500  0.68136400  0.95037500  1
  Zn  Zn3  1  0.95037500  0.41788500  0.95037500  1
  Zn  Zn4  1  0.29962500  0.29962500  0.56863600  1
  Zn  Zn5  1  0.95037500  0.95037500  0.41788500  1
  Zn  Zn6  1  0.12500000  0.62500000  0.62500000  1
  Zn  Zn7  1  0.38638400  0.11361600  0.11361600  1
  Zn  Zn8  1  0.62500000  0.12500000  0.62500000  1
  Zn  Zn9  1  0.56863600  0.29962500  0.83211500  1
  Zn  Zn10  1  0.95037500  0.41788500  0.68136400  1
  Zn  Zn11  1  0.11361600  0.38638400  0.11361600  1
  Zn  Zn12  1  0.29962500  0.83211500  0.56863600  1
  Zn  Zn13  1  0.41788500  0.68136400  0.95037500  1
  Zn  Zn14  1  0.38638400  0.38638400  0.11361600  1
  Zn  Zn15  1  0.13638400  0.86361600  0.86361600  1
  Zn  Zn16  1  0.83211500  0.56863600  0.29962500  1
  Zn  Zn17  1  0.56863600  0.29962500  0.29962500  1
  Zn  Zn18  1  0.56863600  0.83211500  0.29962500  1
  Zn  Zn19  1  0.38638400  0.11361600  0.38638400  1
  Zn  Zn20  1  0.83211500  0.29962500  0.56863600  1
  Zn  Zn21  1  0.29962500  0.56863600  0.29962500  1
  Zn  Zn22  1  0.68136400  0.95037500  0.95037500  1
  Zn  Zn23  1  0.86361600  0.86361600  0.13638400  1
  Zn  Zn24  1  0.62500000  0.62500000  0.12500000  1
  Zn  Zn25  1  0.11361600  0.11361600  0.38638400  1
  Zn  Zn26  1  0.86361600  0.13638400  0.13638400  1
  Zn  Zn27  1  0.95037500  0.95037500  0.68136400  1
  Zn  Zn28  1  0.68136400  0.41788500  0.95037500  1
  Zn  Zn29  1  0.13638400  0.13638400  0.86361600  1
  Zn  Zn30  1  0.62500000  0.62500000  0.62500000  1
  Zn  Zn31  1  0.95037500  0.68136400  0.41788500  1
  Zn  Zn32  1  0.68136400  0.95037500  0.41788500  1
  Zn  Zn33  1  0.11361600  0.38638400  0.38638400  1
  Zn  Zn34  1  0.86361600  0.13638400  0.86361600  1
  Zn  Zn35  1  0.83211500  0.29962500  0.29962500  1
  Zn  Zn36  1  0.13638400  0.86361600  0.13638400  1
  Zn  Zn37  1  0.41788500  0.95037500  0.68136400  1
  Zn  Zn38  1  0.29962500  0.83211500  0.29962500  1
  Zn  Zn39  1  0.41788500  0.95037500  0.95037500  1
  Ru  Ru0  1  0.12500000  0.62500000  0.12500000  1
  Ru  Ru1  1  0.12500000  0.12500000  0.62500000  1
  Ru  Ru2  1  0.12500000  0.12500000  0.12500000  1
  Ru  Ru3  1  0.62500000  0.12500000  0.12500000  1
loop_
_geom_bond_atom_site_label_1
_geom_bond_atom_site_label_2
_geom_bond_distance
_geom_bond_site_symmetry_2
Y0 Zn6 3.092179 1_555
Y0 Zn24 3.092179 1_555
Y0 Zn30 3.092179 1_555
Y0 Zn8 3.092179 1_555
Y0 Zn17 3.155929 1_555
Y0 Zn4 3.155929 1_555
Y0 Zn21 3.155929 1_555
Y0 Zn38 3.155933 1_555
Y0 Zn0 3.155933 1_555
Y0 Zn35 3.155933 1_555
Y0 Zn20 3.155937 1_555
Y0 Zn12 3.155937 1_555
Y0 Zn16 3.155937 1_555
Y0 Zn9 3.155937 1_555
Y0 Zn18 3.155937 1_555
Y0 Zn1 3.155937 1_555
Y1 Zn6 3.092179 1_655
Y1 Zn24 3.092179 1_556
Y1 Zn8 3.092179 1_565
Y1 Zn30 3.092179 1_555
Y1 Zn27 3.155929 1_555
Y1 Zn2 3.155929 1_555
Y1 Zn22 3.155929 1_555
Y1 Zn5 3.155933 1_555
Y1 Zn3 3.155933 1_555
Y1 Zn39 3.155933 1_555
Y1 Zn13 3.155937 1_555
Y1 Zn37 3.155937 1_555
Y1 Zn10 3.155937 1_555
Y1 Zn31 3.155937 1_555
Y1 Zn32 3.155937 1_555
Y1 Zn28 3.155937 1_555
Zn0 Zn4 2.660878 1_555
Zn0 Zn29 2.684337 1_555
Zn0 Zn9 2.716746 1_555
Zn0 Zn1 2.716746 1_555
Zn0 Zn7 2.807678 1_556
Zn0 Zn11 2.807678 1_556
Zn0 Zn39 2.880030 1_545
Zn0 Zn3 2.880030 1_455
Zn0 Zn6 3.050140 1_555
Zn0 Zn8 3.050140 1_555
Zn1 Zn12 2.660878 1_555
Zn1 Zn15 2.684329 1_555
Zn1 Zn9 2.716746 1_555
Zn1 Zn14 2.807677 1_556
Zn1 Zn11 2.807682 1_556
Zn1 Zn13 2.880013 1_555
Zn1 Zn2 2.880030 1_455
Zn1 Zn30 3.050136 1_555
Zn1 Zn6 3.050144 1_555
Zn2 Zn3 2.660878 1_555
Zn2 Zn22 2.716746 1_555
Zn2 Zn27 2.716746 1_555
Zn2 Zn23 2.807686 1_556
Zn2 Zn6 3.050135 1_655
Zn2 Zn24 3.050135 1_556
Zn3 Zn35 2.880030 1_556
Zn3 Zn6 3.050140 1_655
Zn4 Zn8 3.050135 1_555
Zn4 Zn6 3.050135 1_555
Zn5 Zn6 3.050140 1_655
Zn5 Zn8 3.050140 1_565
Zn7 Zn9 2.807682 1_554
Zn8 Zn9 3.050144 1_555
Zn10 Zn31 2.660878 1_555
Zn10 Zn33 2.684329 1_655
Zn10 Zn28 2.716746 1_555
Zn10 Zn3 2.716746 1_555
Zn10 Zn34 2.807677 1_555
Zn10 Zn29 2.807682 1_655
Zn10 Zn20 2.880013 1_555
Zn10 Zn4 2.880030 1_655
Zn10 Zn30 3.050136 1_555
Zn10 Zn6 3.050144 1_655
Zn11 Zn2 2.684332 1_454
Zn11 Zn3 2.684337 1_454
Zn11 Zn14 2.754688 1_555
Zn11 Zn33 2.754688 1_555
Zn11 Zn25 2.754688 1_555
Zn11 Zn7 2.754688 1_555
Zn11 Zn35 2.807678 1_455
Zn11 Zn16 2.807682 1_455
Zn12 Zn15 2.684329 1_555
Zn12 Zn18 2.716746 1_555
Zn12 Zn38 2.716746 1_555
Zn12 Zn19 2.807677 1_565
Zn12 Zn25 2.807682 1_565
Zn12 Zn37 2.880013 1_555
Zn12 Zn27 2.880030 1_455
Zn12 Zn30 3.050136 1_555
Zn12 Zn6 3.050144 1_555
Zn13 Zn28 2.660878 1_555
Zn13 Zn14 2.684329 1_556
Zn13 Zn37 2.716746 1_555
Zn13 Zn39 2.716746 1_555
Zn13 Zn15 2.807677 1_555
Zn13 Zn36 2.807682 1_556
Zn13 Zn21 2.880030 1_556
Zn13 Zn30 3.050136 1_555
Zn13 Zn24 3.050144 1_556
Zn14 Zn28 2.684329 1_554
Zn14 Zn33 2.754688 1_555
Zn14 Zn19 2.754688 1_555
Zn14 Zn7 2.754688 1_555
Zn14 Zn9 2.807677 1_554
Zn14 Zn21 2.807686 1_555
Zn14 Zn17 2.807686 1_555
Zn15 Zn23 2.754688 1_456
Zn15 Zn34 2.754688 1_465
Zn15 Zn36 2.754688 1_556
Zn15 Zn29 2.754688 1_565
Zn15 Zn37 2.807677 1_555
Zn15 Zn2 2.807686 1_455
Zn15 Zn27 2.807686 1_455
Zn16 Zn18 2.660878 1_555
Zn16 Zn23 2.684329 1_555
Zn16 Zn35 2.716746 1_555
Zn16 Zn20 2.716746 1_555
Zn16 Zn33 2.807677 1_655
Zn16 Zn31 2.880013 1_555
Zn16 Zn2 2.880030 1_554
Zn16 Zn30 3.050136 1_555
Zn16 Zn24 3.050144 1_555
Zn17 Zn35 2.660878 1_555
Zn17 Zn26 2.684332 1_555
Zn17 Zn4 2.716746 1_555
Zn17 Zn21 2.716746 1_555
Zn17 Zn19 2.807686 1_555
Zn17 Zn32 2.880030 1_545
Zn17 Zn28 2.880030 1_554
Zn17 Zn8 3.050135 1_555
Zn17 Zn24 3.050135 1_555
Zn18 Zn23 2.684329 1_555
Zn18 Zn38 2.716746 1_555
Zn18 Zn19 2.807677 1_565
Zn18 Zn7 2.807682 1_565
Zn18 Zn32 2.880013 1_555
Zn18 Zn22 2.880030 1_554
Zn18 Zn30 3.050136 1_555
Zn18 Zn24 3.050144 1_555
Zn19 Zn37 2.684329 1_545
Zn19 Zn32 2.684329 1_545
Zn19 Zn33 2.754688 1_555
Zn19 Zn25 2.754688 1_555
Zn19 Zn7 2.754688 1_555
Zn19 Zn4 2.807686 1_555
Zn20 Zn9 2.660878 1_555
Zn20 Zn34 2.684329 1_555
Zn20 Zn35 2.716746 1_555
Zn20 Zn33 2.807677 1_655
Zn20 Zn25 2.807682 1_655
Zn20 Zn27 2.880030 1_545
Zn20 Zn30 3.050136 1_555
Zn20 Zn8 3.050144 1_555
Zn21 Zn38 2.660878 1_555
Zn21 Zn36 2.684332 1_555
Zn21 Zn4 2.716746 1_555
Zn21 Zn33 2.807686 1_555
Zn21 Zn31 2.880030 1_455
Zn21 Zn24 3.050135 1_555
Zn21 Zn6 3.050135 1_555
Zn22 Zn39 2.660878 1_555
Zn22 Zn7 2.684332 1_566
Zn22 Zn27 2.716746 1_555
Zn22 Zn34 2.807686 1_565
Zn22 Zn23 2.807686 1_556
Zn22 Zn9 2.880030 1_565
Zn22 Zn24 3.050135 1_556
Zn22 Zn8 3.050135 1_565
Zn23 Zn34 2.754688 1_564
Zn23 Zn26 2.754688 1_565
Zn23 Zn36 2.754688 1_655
Zn23 Zn32 2.807677 1_555
Zn23 Zn31 2.807677 1_555
Zn24 Zn35 3.050140 1_555
Zn24 Zn38 3.050140 1_555
Zn24 Zn3 3.050140 1_554
Zn24 Zn39 3.050140 1_554
Zn24 Zn28 3.050144 1_554
Zn25 Zn27 2.684332 1_445
Zn25 Zn5 2.684337 1_445
Zn25 Zn33 2.754688 1_555
Zn25 Zn7 2.754688 1_555
Zn25 Zn38 2.807678 1_545
Zn25 Zn35 2.807678 1_455
Zn26 Zn35 2.684337 1_555
Zn26 Zn34 2.754688 1_554
Zn26 Zn36 2.754688 1_645
Zn26 Zn29 2.754688 1_654
Zn26 Zn3 2.807678 1_554
Zn26 Zn5 2.807678 1_545
Zn26 Zn28 2.807682 1_554
Zn26 Zn32 2.807682 1_545
Zn27 Zn5 2.660878 1_555
Zn27 Zn34 2.807686 1_565
Zn27 Zn8 3.050135 1_565
Zn27 Zn6 3.050135 1_655
Zn28 Zn3 2.716746 1_555
Zn28 Zn34 2.807677 1_555
Zn28 Zn9 2.880013 1_555
Zn28 Zn30 3.050136 1_555
Zn29 Zn4 2.684332 1_555
Zn29 Zn34 2.754688 1_455
Zn29 Zn36 2.754688 1_546
Zn29 Zn3 2.807678 1_455
Zn29 Zn39 2.807678 1_545
Zn29 Zn37 2.807682 1_545
Zn30 Zn32 3.050136 1_555
Zn30 Zn37 3.050136 1_555
Zn30 Zn31 3.050136 1_555
Zn30 Zn9 3.050136 1_555
Zn31 Zn33 2.684329 1_655
Zn31 Zn5 2.716746 1_555
Zn31 Zn32 2.716746 1_555
Zn31 Zn36 2.807682 1_655
Zn31 Zn6 3.050144 1_655
Zn32 Zn37 2.660878 1_555
Zn32 Zn5 2.716746 1_555
Zn32 Zn8 3.050144 1_565
Zn33 Zn4 2.807686 1_555
Zn34 Zn9 2.684329 1_555
Zn35 Zn5 2.880030 1_545
Zn35 Zn8 3.050140 1_555
Zn36 Zn38 2.684337 1_555
Zn36 Zn5 2.807678 1_455
Zn36 Zn39 2.807678 1_554
Zn37 Zn39 2.716746 1_555
Zn37 Zn4 2.880030 1_565
Zn37 Zn8 3.050144 1_565
Zn38 Zn7 2.807678 1_565
Zn38 Zn39 2.880030 1_554
Zn38 Zn5 2.880030 1_455
Zn38 Zn6 3.050140 1_555
Zn39 Zn7 2.684337 1_566
Zn39 Zn8 3.050140 1_565
Ru0 Zn36 2.529983 1_555
Ru0 Zn14 2.529983 1_555
Ru0 Zn11 2.529983 1_555
Ru0 Zn33 2.529983 1_555
Ru0 Zn15 2.529983 1_554
Ru0 Zn23 2.529983 1_455
Ru0 Zn31 2.765230 1_455
Ru0 Zn13 2.765230 1_554
Ru0 Zn1 2.765230 1_554
Ru0 Zn16 2.765230 1_455
Ru0 Zn21 2.765239 1_555
Ru0 Zn2 2.765239 1_454
Ru1 Zn29 2.529983 1_555
Ru1 Zn19 2.529983 1_555
Ru1 Zn33 2.529983 1_555
Ru1 Zn25 2.529983 1_555
Ru1 Zn15 2.529983 1_545
Ru1 Zn34 2.529983 1_455
Ru1 Zn37 2.765230 1_545
Ru1 Zn10 2.765230 1_455
Ru1 Zn20 2.765230 1_455
Ru1 Zn12 2.765230 1_545
Ru1 Zn4 2.765239 1_555
Ru1 Zn27 2.765239 1_445
Ru2 Zn7 2.529983 1_555
Ru2 Zn11 2.529983 1_555
Ru2 Zn25 2.529983 1_555
Ru2 Zn26 2.529983 1_455
Ru2 Zn29 2.529983 1_554
Ru2 Zn36 2.529983 1_545
Ru2 Zn39 2.765235 1_544
Ru2 Zn3 2.765235 1_454
Ru2 Zn5 2.765235 1_445
Ru2 Zn0 2.765235 1_554
Ru2 Zn35 2.765235 1_455
Ru2 Zn38 2.765235 1_545
Ru3 Zn26 2.529983 1_555
Ru3 Zn7 2.529983 1_555
Ru3 Zn19 2.529983 1_555
Ru3 Zn14 2.529983 1_555
Ru3 Zn23 2.529983 1_545
Ru3 Zn34 2.529983 1_554
Ru3 Zn28 2.765230 1_554
Ru3 Zn32 2.765230 1_545
Ru3 Zn18 2.765230 1_545
Ru3 Zn9 2.765230 1_554
Ru3 Zn17 2.765239 1_555
Ru3 Zn22 2.765239 1_544
