# generated using pymatgen
data_Sm6Br13
_symmetry_space_group_name_H-M   'P 1'
_cell_length_a   21.82331496
_cell_length_b   21.82331496
_cell_length_c   7.33248238
_cell_angle_alpha   82.27693887
_cell_angle_beta   82.27693887
_cell_angle_gamma   19.36260633
_symmetry_Int_Tables_number   1
_chemical_formula_structural   Sm6Br13
_chemical_formula_sum   'Sm12 Br26'
_cell_volume   1146.99608223
_cell_formula_units_Z   2
loop_
 _symmetry_equiv_pos_site_id
 _symmetry_equiv_pos_as_xyz
  1  'x, y, z'
loop_
 _atom_site_type_symbol
 _atom_site_label
 _atom_site_symmetry_multiplicity
 _atom_site_fract_x
 _atom_site_fract_y
 _atom_site_fract_z
 _atom_site_occupancy
  Sm  Sm0  1  0.58549700  0.15603200  0.04486000  1
  Sm  Sm1  1  0.49565000  0.90402700  0.17572800  1
  Sm  Sm2  1  0.69912800  0.22181400  0.58535300  1
  Sm  Sm3  1  0.22181400  0.69912800  0.08535300  1
  Sm  Sm4  1  0.15603200  0.58549700  0.54486000  1
  Sm  Sm5  1  0.77818600  0.30087200  0.91464700  1
  Sm  Sm6  1  0.41450300  0.84396800  0.95514000  1
  Sm  Sm7  1  0.50435000  0.09597300  0.82427200  1
  Sm  Sm8  1  0.09597300  0.50435000  0.32427200  1
  Sm  Sm9  1  0.90402700  0.49565000  0.67572800  1
  Sm  Sm10  1  0.84396800  0.41450300  0.45514000  1
  Sm  Sm11  1  0.30087200  0.77818600  0.41464700  1
  Br  Br0  1  0.46291200  0.37467000  0.31940500  1
  Br  Br1  1  0.29063300  0.22430800  0.11923600  1
  Br  Br2  1  0.77569200  0.70936700  0.38076400  1
  Br  Br3  1  0.55171400  0.44828600  0.25000000  1
  Br  Br4  1  0.17781100  0.02533600  0.28972500  1
  Br  Br5  1  0.13531800  0.22887000  0.40188200  1
  Br  Br6  1  0.90184400  0.15991500  0.54442700  1
  Br  Br7  1  0.02533600  0.17781100  0.78972500  1
  Br  Br8  1  0.77317900  0.55101400  0.07076900  1
  Br  Br9  1  0.86468200  0.77113000  0.59811800  1
  Br  Br10  1  0.44828600  0.55171400  0.75000000  1
  Br  Br11  1  0.44898600  0.22682100  0.42923100  1
  Br  Br12  1  0.84008500  0.09815600  0.95557300  1
  Br  Br13  1  0.53708800  0.62533000  0.68059500  1
  Br  Br14  1  0.22682100  0.44898600  0.92923100  1
  Br  Br15  1  0.62533000  0.53708800  0.18059500  1
  Br  Br16  1  0.22887000  0.13531800  0.90188200  1
  Br  Br17  1  0.70936700  0.77569200  0.88076400  1
  Br  Br18  1  0.97466400  0.82218900  0.21027500  1
  Br  Br19  1  0.55101400  0.77317900  0.57076900  1
  Br  Br20  1  0.09815600  0.84008500  0.45557300  1
  Br  Br21  1  0.77113000  0.86468200  0.09811800  1
  Br  Br22  1  0.15991500  0.90184400  0.04442700  1
  Br  Br23  1  0.82218900  0.97466400  0.71027500  1
  Br  Br24  1  0.22430800  0.29063300  0.61923600  1
  Br  Br25  1  0.37467000  0.46291200  0.81940500  1
loop_
_geom_bond_atom_site_label_1
_geom_bond_atom_site_label_2
_geom_bond_distance
_geom_bond_site_symmetry_2
Br0 Sm3 3.103232 1_555
Br0 Sm4 3.111459 1_555
Br0 Sm2 3.164004 1_555
Br0 Sm0 3.320346 1_555
Br1 Sm7 2.923053 1_554
Br1 Sm8 3.069534 1_555
Br1 Sm1 3.123552 1_545
Br2 Sm9 2.923053 1_555
Br2 Sm1 3.069534 1_555
Br2 Sm8 3.123552 1_655
Br3 Sm3 3.074462 1_555
Br3 Sm11 3.074462 1_555
Br3 Sm2 3.111525 1_555
Br3 Sm5 3.111525 1_554
Br4 Sm6 2.998871 1_544
Br4 Sm11 3.023966 1_545
Br4 Sm10 3.212770 1_455
Br5 Sm10 2.854264 1_455
Br5 Sm9 2.893794 1_455
Br5 Sm1 3.051334 1_545
Br6 Sm5 2.954024 1_555
Br6 Sm11 3.026183 1_645
Br6 Sm2 3.156282 1_555
Br7 Sm10 2.998871 1_455
Br7 Sm5 3.023966 1_455
Br7 Sm6 3.212770 1_545
Br8 Sm6 2.960364 1_554
Br8 Sm1 2.987453 1_555
Br8 Sm10 3.071585 1_555
Br8 Sm9 3.195608 1_554
Br9 Sm4 2.854264 1_655
Br9 Sm8 2.893794 1_655
Br9 Sm7 3.051334 1_565
Br10 Sm2 3.074462 1_555
Br10 Sm5 3.074462 1_555
Br10 Sm3 3.111525 1_556
Br10 Sm11 3.111525 1_555
Br11 Sm4 2.960364 1_555
Br11 Sm8 2.987453 1_555
Br11 Sm0 3.071585 1_555
Br11 Sm7 3.195608 1_555
Br12 Sm2 2.954024 1_555
Br12 Sm3 3.026183 1_646
Br12 Sm5 3.156282 1_555
Br13 Sm5 3.103232 1_555
Br13 Sm10 3.111459 1_555
Br13 Sm11 3.164004 1_555
Br13 Sm6 3.320346 1_555
Br14 Sm0 2.960364 1_556
Br14 Sm7 2.987453 1_555
Br14 Sm4 3.071585 1_555
Br14 Sm8 3.195608 1_556
Br15 Sm11 3.103232 1_555
Br15 Sm6 3.111459 1_554
Br15 Sm5 3.164004 1_554
Br15 Sm10 3.320346 1_555
Br16 Sm6 2.854264 1_545
Br16 Sm1 2.893794 1_546
Br16 Sm9 3.051334 1_455
Br17 Sm1 2.923053 1_556
Br17 Sm9 3.069534 1_555
Br17 Sm7 3.123552 1_565
Br18 Sm4 2.998871 1_655
Br18 Sm3 3.023966 1_655
Br18 Sm0 3.212770 1_565
Br19 Sm10 2.960364 1_555
Br19 Sm9 2.987453 1_555
Br19 Sm6 3.071585 1_555
Br19 Sm1 3.195608 1_555
Br20 Sm3 2.954024 1_555
Br20 Sm2 3.026183 1_465
Br20 Sm11 3.156282 1_555
Br21 Sm0 2.854264 1_565
Br21 Sm7 2.893794 1_564
Br21 Sm8 3.051334 1_655
Br22 Sm11 2.954024 1_555
Br22 Sm5 3.026183 1_464
Br22 Sm3 3.156282 1_555
Br23 Sm0 2.998871 1_566
Br23 Sm2 3.023966 1_565
Br23 Sm4 3.212770 1_655
Br24 Sm8 2.923053 1_555
Br24 Sm7 3.069534 1_555
Br24 Sm9 3.123552 1_455
Br25 Sm2 3.103232 1_555
Br25 Sm0 3.111459 1_556
Br25 Sm3 3.164004 1_556
Br25 Sm4 3.320346 1_555
