# generated using pymatgen
data_CuSbPbS3
_symmetry_space_group_name_H-M   'P 1'
_cell_length_a   7.88543300
_cell_length_b   8.28655300
_cell_length_c   8.81615500
_cell_angle_alpha   90.00000000
_cell_angle_beta   90.00000000
_cell_angle_gamma   90.00000000
_symmetry_Int_Tables_number   1
_chemical_formula_structural   CuSbPbS3
_chemical_formula_sum   'Cu4 Sb4 Pb4 S12'
_cell_volume   576.07453176
_cell_formula_units_Z   4
loop_
 _symmetry_equiv_pos_site_id
 _symmetry_equiv_pos_as_xyz
  1  'x, y, z'
loop_
 _atom_site_type_symbol
 _atom_site_label
 _atom_site_symmetry_multiplicity
 _atom_site_fract_x
 _atom_site_fract_y
 _atom_site_fract_z
 _atom_site_occupancy
  Cu  Cu0  1  0.24527400  0.27753300  0.43218500  1
  Cu  Cu1  1  0.74527400  0.72246700  0.93218500  1
  Cu  Cu2  1  0.75472600  0.27753300  0.43218500  1
  Cu  Cu3  1  0.25472600  0.72246700  0.93218500  1
  Sb  Sb0  1  0.50000000  0.06863900  0.05980100  1
  Sb  Sb1  1  0.00000000  0.93136100  0.55980100  1
  Sb  Sb2  1  0.50000000  0.49064500  0.65849400  1
  Sb  Sb3  1  0.00000000  0.50935500  0.15849400  1
  Pb  Pb0  1  0.50000000  0.93047300  0.51259600  1
  Pb  Pb1  1  0.00000000  0.06952700  0.01259600  1
  Pb  Pb2  1  0.50000000  0.55184900  0.17314100  1
  Pb  Pb3  1  0.00000000  0.44815100  0.67314100  1
  S  S0  1  0.00000000  0.76925000  0.79837600  1
  S  S1  1  0.00000000  0.24388200  0.29191200  1
  S  S2  1  0.26870800  0.56120000  0.47890600  1
  S  S3  1  0.50000000  0.75611800  0.79191200  1
  S  S4  1  0.23129200  0.43880000  0.97890600  1
  S  S5  1  0.76480800  0.11089800  0.64505200  1
  S  S6  1  0.73129200  0.56120000  0.47890600  1
  S  S7  1  0.23519200  0.11089800  0.64505200  1
  S  S8  1  0.76870800  0.43880000  0.97890600  1
  S  S9  1  0.26480800  0.88910200  0.14505200  1
  S  S10  1  0.50000000  0.23075000  0.29837600  1
  S  S11  1  0.73519200  0.88910200  0.14505200  1
loop_
_geom_bond_atom_site_label_1
_geom_bond_atom_site_label_2
_geom_bond_distance
_geom_bond_site_symmetry_2
Cu0 S1 2.312535 1_555
Cu0 S7 2.331286 1_555
Cu0 S10 2.361463 1_555
Cu0 S2 2.393581 1_555
Cu1 S3 2.312535 1_555
Cu1 S11 2.331286 1_556
Cu1 S0 2.361463 1_655
Cu1 S8 2.393581 1_555
Cu2 S1 2.312535 1_655
Cu2 S5 2.331286 1_555
Cu2 S10 2.361463 1_555
Cu2 S6 2.393581 1_555
Cu3 S3 2.312535 1_555
Cu3 S9 2.331286 1_556
Cu3 S0 2.361463 1_555
Cu3 S4 2.393581 1_555
Pb0 S5 2.821213 1_565
Pb0 S7 2.821213 1_565
Pb0 S3 2.855053 1_555
Pb0 S10 3.123818 1_565
Pb1 S9 2.821213 1_545
Pb1 S11 2.821213 1_445
Pb1 S1 2.855053 1_555
Pb1 S0 3.123818 1_544
Pb2 S10 2.880780 1_555
Pb2 S8 2.880894 1_554
Pb2 S4 2.880894 1_554
Pb3 S0 2.880780 1_555
Pb3 S2 2.880894 1_555
Pb3 S6 2.880894 1_455
S0 Sb1 2.495696 1_555
S1 Sb3 2.494573 1_555
S2 Sb2 2.484949 1_555
S3 Sb2 2.494573 1_555
S4 Sb3 2.484949 1_556
S5 Sb1 2.493545 1_645
S6 Sb2 2.484949 1_555
S7 Sb1 2.493545 1_545
S8 Sb3 2.484949 1_656
S9 Sb0 2.493545 1_565
S10 Sb0 2.495696 1_555
S11 Sb0 2.493545 1_565
