# generated using pymatgen
data_U2CuAs2(HO)24
_symmetry_space_group_name_H-M   'P 1'
_cell_length_a   7.22006100
_cell_length_b   7.22006100
_cell_length_c   21.13694600
_cell_angle_alpha   90.00000000
_cell_angle_beta   90.00000000
_cell_angle_gamma   90.00000000
_symmetry_Int_Tables_number   1
_chemical_formula_structural   U2CuAs2(HO)24
_chemical_formula_sum   'U4 Cu2 As4 H48 O48'
_cell_volume   1101.85379421
_cell_formula_units_Z   2
loop_
 _symmetry_equiv_pos_site_id
 _symmetry_equiv_pos_as_xyz
  1  'x, y, z'
loop_
 _atom_site_type_symbol
 _atom_site_label
 _atom_site_symmetry_multiplicity
 _atom_site_fract_x
 _atom_site_fract_y
 _atom_site_fract_z
 _atom_site_occupancy
  U  U0  1  0.50000000  0.50000000  0.29543900  1
  U  U1  1  0.50000000  0.50000000  0.70456100  1
  U  U2  1  0.00000000  0.00000000  0.20456100  1
  U  U3  1  0.00000000  0.00000000  0.79543900  1
  Cu  Cu0  1  0.50000000  0.50000000  0.50000000  1
  Cu  Cu1  1  0.00000000  0.00000000  0.00000000  1
  As  As0  1  0.00000000  0.50000000  0.25000000  1
  As  As1  1  0.00000000  0.50000000  0.75000000  1
  As  As2  1  0.50000000  0.00000000  0.25000000  1
  As  As3  1  0.50000000  0.00000000  0.75000000  1
  H  H0  1  0.84458900  0.15442500  0.41538600  1
  H  H1  1  0.15541100  0.84557500  0.41538600  1
  H  H2  1  0.15541100  0.15442500  0.58461400  1
  H  H3  1  0.84458900  0.84557500  0.58461400  1
  H  H4  1  0.65541100  0.34557500  0.08461400  1
  H  H5  1  0.34458900  0.65442500  0.08461400  1
  H  H6  1  0.34458900  0.34557500  0.91538600  1
  H  H7  1  0.65541100  0.65442500  0.91538600  1
  H  H8  1  0.15442500  0.84458900  0.58461400  1
  H  H9  1  0.84557500  0.15541100  0.58461400  1
  H  H10  1  0.15442500  0.15541100  0.41538600  1
  H  H11  1  0.84557500  0.84458900  0.41538600  1
  H  H12  1  0.34557500  0.65541100  0.91538600  1
  H  H13  1  0.65442500  0.34458900  0.91538600  1
  H  H14  1  0.34557500  0.34458900  0.08461400  1
  H  H15  1  0.65442500  0.65541100  0.08461400  1
  H  H16  1  0.89603500  0.33066000  0.37570100  1
  H  H17  1  0.10396500  0.66934000  0.37570100  1
  H  H18  1  0.10396500  0.33066000  0.62429900  1
  H  H19  1  0.89603500  0.66934000  0.62429900  1
  H  H20  1  0.60396500  0.16934000  0.12429900  1
  H  H21  1  0.39603500  0.83066000  0.12429900  1
  H  H22  1  0.39603500  0.16934000  0.87570100  1
  H  H23  1  0.60396500  0.83066000  0.87570100  1
  H  H24  1  0.33066000  0.89603500  0.62429900  1
  H  H25  1  0.66934000  0.10396500  0.62429900  1
  H  H26  1  0.33066000  0.10396500  0.37570100  1
  H  H27  1  0.66934000  0.89603500  0.37570100  1
  H  H28  1  0.16934000  0.60396500  0.87570100  1
  H  H29  1  0.83066000  0.39603500  0.87570100  1
  H  H30  1  0.16934000  0.39603500  0.12429900  1
  H  H31  1  0.83066000  0.60396500  0.12429900  1
  H  H32  1  0.84186100  0.41678400  0.47156800  1
  H  H33  1  0.15813900  0.58321600  0.47156800  1
  H  H34  1  0.15813900  0.41678400  0.52843200  1
  H  H35  1  0.84186100  0.58321600  0.52843200  1
  H  H36  1  0.65813900  0.08321600  0.02843200  1
  H  H37  1  0.34186100  0.91678400  0.02843200  1
  H  H38  1  0.34186100  0.08321600  0.97156800  1
  H  H39  1  0.65813900  0.91678400  0.97156800  1
  H  H40  1  0.41678400  0.84186100  0.52843200  1
  H  H41  1  0.58321600  0.15813900  0.52843200  1
  H  H42  1  0.41678400  0.15813900  0.47156800  1
  H  H43  1  0.58321600  0.84186100  0.47156800  1
  H  H44  1  0.08321600  0.65813900  0.97156800  1
  H  H45  1  0.91678400  0.34186100  0.97156800  1
  H  H46  1  0.08321600  0.34186100  0.02843200  1
  H  H47  1  0.91678400  0.65813900  0.02843200  1
  O  O0  1  0.50000000  0.50000000  0.38140300  1
  O  O1  1  0.50000000  0.50000000  0.61859700  1
  O  O2  1  0.00000000  0.00000000  0.11859700  1
  O  O3  1  0.00000000  0.00000000  0.88140300  1
  O  O4  1  0.50000000  0.50000000  0.20945100  1
  O  O5  1  0.50000000  0.50000000  0.79054900  1
  O  O6  1  0.00000000  0.00000000  0.29054900  1
  O  O7  1  0.00000000  0.00000000  0.70945100  1
  O  O8  1  0.76934700  0.50000000  0.50000000  1
  O  O9  1  0.23065300  0.50000000  0.50000000  1
  O  O10  1  0.73065300  0.00000000  0.00000000  1
  O  O11  1  0.26934700  0.00000000  0.00000000  1
  O  O12  1  0.50000000  0.76934700  0.50000000  1
  O  O13  1  0.50000000  0.23065300  0.50000000  1
  O  O14  1  0.00000000  0.73065300  0.00000000  1
  O  O15  1  0.00000000  0.26934700  0.00000000  1
  O  O16  1  0.81689100  0.45638100  0.30010600  1
  O  O17  1  0.18310900  0.54361900  0.30010600  1
  O  O18  1  0.18310900  0.45638100  0.69989400  1
  O  O19  1  0.81689100  0.54361900  0.69989400  1
  O  O20  1  0.68310900  0.04361900  0.19989400  1
  O  O21  1  0.31689100  0.95638100  0.19989400  1
  O  O22  1  0.31689100  0.04361900  0.80010600  1
  O  O23  1  0.68310900  0.95638100  0.80010600  1
  O  O24  1  0.45638100  0.81689100  0.69989400  1
  O  O25  1  0.54361900  0.18310900  0.69989400  1
  O  O26  1  0.45638100  0.18310900  0.30010600  1
  O  O27  1  0.54361900  0.81689100  0.30010600  1
  O  O28  1  0.04361900  0.68310900  0.80010600  1
  O  O29  1  0.95638100  0.31689100  0.80010600  1
  O  O30  1  0.04361900  0.31689100  0.19989400  1
  O  O31  1  0.95638100  0.68310900  0.19989400  1
  O  O32  1  0.92617600  0.26567900  0.41563100  1
  O  O33  1  0.07382400  0.73432100  0.41563100  1
  O  O34  1  0.07382400  0.26567900  0.58436900  1
  O  O35  1  0.92617600  0.73432100  0.58436900  1
  O  O36  1  0.57382400  0.23432100  0.08436900  1
  O  O37  1  0.42617600  0.76567900  0.08436900  1
  O  O38  1  0.42617600  0.23432100  0.91563100  1
  O  O39  1  0.57382400  0.76567900  0.91563100  1
  O  O40  1  0.26567900  0.92617600  0.58436900  1
  O  O41  1  0.73432100  0.07382400  0.58436900  1
  O  O42  1  0.26567900  0.07382400  0.41563100  1
  O  O43  1  0.73432100  0.92617600  0.41563100  1
  O  O44  1  0.23432100  0.57382400  0.91563100  1
  O  O45  1  0.76567900  0.42617600  0.91563100  1
  O  O46  1  0.23432100  0.42617600  0.08436900  1
  O  O47  1  0.76567900  0.57382400  0.08436900  1
loop_
_geom_bond_atom_site_label_1
_geom_bond_atom_site_label_2
_geom_bond_distance
_geom_bond_site_symmetry_2
Cu0 O8 1.944702 1_555
Cu0 O12 1.944702 1_555
Cu0 O9 1.944702 1_555
Cu0 O13 1.944702 1_555
Cu0 O1 2.506778 1_555
Cu0 O0 2.506778 1_555
Cu1 O11 1.944702 1_555
Cu1 O10 1.944702 1_455
Cu1 O15 1.944702 1_555
Cu1 O14 1.944702 1_545
Cu1 O3 2.506778 1_554
Cu1 O2 2.506778 1_555
As0 O16 1.722988 1_455
As0 O17 1.722988 1_555
As0 O31 1.722988 1_455
As0 O30 1.722988 1_555
As1 O19 1.722988 1_455
As1 O28 1.722988 1_555
As1 O18 1.722988 1_555
As1 O29 1.722988 1_455
As2 O27 1.722988 1_545
As2 O26 1.722988 1_555
As2 O20 1.722988 1_555
As2 O21 1.722988 1_545
As3 O23 1.722988 1_545
As3 O25 1.722988 1_555
As3 O24 1.722988 1_545
As3 O22 1.722988 1_555
H0 O32 0.996117 1_555
H1 O33 0.996117 1_555
H2 O34 0.996117 1_555
H3 O35 0.996117 1_555
H4 O36 0.996117 1_555
H5 O37 0.996117 1_555
H6 O38 0.996117 1_555
H7 O39 0.996117 1_555
H8 O40 0.996117 1_555
H9 O41 0.996117 1_555
H10 O42 0.996117 1_555
H11 O43 0.996117 1_555
H12 O44 0.996117 1_555
H13 O45 0.996117 1_555
H14 O46 0.996117 1_555
H15 O47 0.996117 1_555
H16 O32 0.989853 1_555
H17 O33 0.989853 1_555
H18 O34 0.989853 1_555
H19 O35 0.989853 1_555
H20 O36 0.989853 1_555
H21 O37 0.989853 1_555
H22 O38 0.989853 1_555
H23 O39 0.989853 1_555
H24 O40 0.989853 1_555
H25 O41 0.989853 1_555
H26 O42 0.989853 1_555
H27 O43 0.989853 1_555
H28 O44 0.989853 1_555
H29 O45 0.989853 1_555
H30 O46 0.989853 1_555
H31 O47 0.989853 1_555
H32 O8 0.998128 1_555
H33 O9 0.998128 1_555
H34 O9 0.998128 1_555
H35 O8 0.998128 1_555
H36 O10 0.998128 1_555
H37 O11 0.998128 1_565
H38 O11 0.998128 1_556
H39 O10 0.998128 1_566
H40 O12 0.998128 1_555
H41 O13 0.998128 1_555
H42 O13 0.998128 1_555
H43 O12 0.998128 1_555
H44 O14 0.998128 1_556
H45 O15 0.998128 1_656
H46 O15 0.998128 1_555
H47 O14 0.998128 1_655
O0 U0 1.817016 1_555
O1 U1 1.817016 1_555
O2 U2 1.817016 1_555
O3 U3 1.817016 1_555
O4 U0 1.817524 1_555
O5 U1 1.817524 1_555
O6 U2 1.817524 1_555
O7 U3 1.817524 1_555
O16 U0 2.311651 1_555
O17 U0 2.311651 1_555
O18 U1 2.311651 1_555
O19 U1 2.311651 1_555
O20 U2 2.311651 1_655
O21 U2 2.311651 1_565
O22 U3 2.311651 1_555
O23 U3 2.311651 1_665
O24 U1 2.311651 1_555
O25 U1 2.311651 1_555
O26 U0 2.311651 1_555
O27 U0 2.311651 1_555
O28 U3 2.311651 1_565
O29 U3 2.311651 1_655
O30 U2 2.311651 1_555
O31 U2 2.311651 1_665
