# generated using pymatgen
data_NiH16C4S4(N4Cl)2
_symmetry_space_group_name_H-M   'P 1'
_cell_length_a   8.21268178
_cell_length_b   8.21268178
_cell_length_c   8.21268178
_cell_angle_alpha   107.62749700
_cell_angle_beta   107.62749700
_cell_angle_gamma   113.22515400
_symmetry_Int_Tables_number   1
_chemical_formula_structural   NiH16C4S4(N4Cl)2
_chemical_formula_sum   'Ni1 H16 C4 S4 N8 Cl2'
_cell_volume   425.03321209
_cell_formula_units_Z   1
loop_
 _symmetry_equiv_pos_site_id
 _symmetry_equiv_pos_as_xyz
  1  'x, y, z'
loop_
 _atom_site_type_symbol
 _atom_site_label
 _atom_site_symmetry_multiplicity
 _atom_site_fract_x
 _atom_site_fract_y
 _atom_site_fract_z
 _atom_site_occupancy
  Ni  Ni0  1  0.00043200  0.00043200  0.00000000  1
  H  H0  1  0.54563500  0.88622800  0.35164400  1
  H  H1  1  0.53458400  0.19399100  0.64835600  1
  H  H2  1  0.88622800  0.53458400  0.34059300  1
  H  H3  1  0.19399100  0.54563500  0.65940700  1
  H  H4  1  0.39356500  0.62117300  0.21623600  1
  H  H5  1  0.40493700  0.17732900  0.78376400  1
  H  H6  1  0.62117300  0.40493700  0.22760800  1
  H  H7  1  0.17732900  0.39356500  0.77239200  1
  H  H8  1  0.03954300  0.45935800  0.01992100  1
  H  H9  1  0.43943800  0.01962200  0.98007900  1
  H  H10  1  0.45935800  0.43943800  0.41981500  1
  H  H11  1  0.01962200  0.03954300  0.58018500  1
  H  H12  1  0.94474300  0.61354100  0.99312600  1
  H  H13  1  0.62041500  0.95161700  0.00687400  1
  H  H14  1  0.61354100  0.62041500  0.66879900  1
  H  H15  1  0.95161700  0.94474300  0.33120100  1
  C  C0  1  0.24671600  0.76944600  0.17515200  1
  C  C1  1  0.59429400  0.07156400  0.82484800  1
  C  C2  1  0.76944600  0.59429400  0.52273000  1
  C  C3  1  0.07156400  0.24671600  0.47727000  1
  S  S0  1  0.28040700  0.00199800  0.22039200  1
  S  S1  1  0.78160600  0.06001500  0.77960800  1
  S  S2  1  0.00199800  0.78160600  0.72159100  1
  S  S3  1  0.06001500  0.28040700  0.27840900  1
  N  N0  1  0.40571800  0.75783100  0.26128000  1
  N  N1  1  0.49655100  0.14443800  0.73872000  1
  N  N2  1  0.75783100  0.49655100  0.35211200  1
  N  N3  1  0.14443800  0.40571800  0.64788800  1
  N  N4  1  0.06478700  0.60040900  0.05415600  1
  N  N5  1  0.54625300  0.01063100  0.94584400  1
  N  N6  1  0.60040900  0.54625300  0.53562200  1
  N  N7  1  0.01063100  0.06478700  0.46437800  1
  Cl  Cl0  1  0.73350000  0.73350000  0.00000000  1
  Cl  Cl1  1  0.28128100  0.28128100  0.00000000  1
loop_
_geom_bond_atom_site_label_1
_geom_bond_atom_site_label_2
_geom_bond_distance
_geom_bond_site_symmetry_2
Ni0 S1 2.450557 1_454
Ni0 S0 2.450557 1_555
Ni0 S3 2.450557 1_555
Ni0 S2 2.450557 1_544
H0 N0 1.018332 1_555
H1 N1 1.018332 1_555
H2 N2 1.018328 1_555
H3 N3 1.018335 1_555
H4 N0 1.021892 1_555
H5 N1 1.021892 1_555
H6 N2 1.021889 1_555
H7 N3 1.021885 1_555
H8 N4 1.020765 1_555
H9 N5 1.020757 1_555
H10 N6 1.020764 1_555
H11 N7 1.020765 1_555
H12 N4 1.025737 1_656
H13 N5 1.025737 1_564
H14 N6 1.025744 1_555
H15 N7 1.025742 1_665
C0 N4 1.332832 1_555
C0 N0 1.339520 1_555
C0 S0 1.718548 1_565
C1 N5 1.332832 1_555
C1 N1 1.339520 1_555
C1 S1 1.718548 1_555
C2 N6 1.332832 1_555
C2 N2 1.339527 1_555
C2 S2 1.718548 1_655
C3 N7 1.332832 1_555
C3 N3 1.339525 1_555
C3 S3 1.718548 1_555
Cl0 Ni0 2.412755 1_665
Cl1 Ni0 2.538548 1_555
