# generated using pymatgen
data_KIn(MoO4)2
_symmetry_space_group_name_H-M   'P 1'
_cell_length_a   5.98681700
_cell_length_b   8.88772600
_cell_length_c   15.06652300
_cell_angle_alpha   90.00000000
_cell_angle_beta   90.00000000
_cell_angle_gamma   90.00000000
_symmetry_Int_Tables_number   1
_chemical_formula_structural   KIn(MoO4)2
_chemical_formula_sum   'K4 In4 Mo8 O32'
_cell_volume   801.67747151
_cell_formula_units_Z   4
loop_
 _symmetry_equiv_pos_site_id
 _symmetry_equiv_pos_as_xyz
  1  'x, y, z'
loop_
 _atom_site_type_symbol
 _atom_site_label
 _atom_site_symmetry_multiplicity
 _atom_site_fract_x
 _atom_site_fract_y
 _atom_site_fract_z
 _atom_site_occupancy
  K  K0  1  0.25000000  0.54690100  0.37624600  1
  K  K1  1  0.25000000  0.95309900  0.87624600  1
  K  K2  1  0.75000000  0.45309900  0.62375400  1
  K  K3  1  0.75000000  0.04690100  0.12375400  1
  In  In0  1  0.25000000  0.69547300  0.10557300  1
  In  In1  1  0.75000000  0.19547300  0.39442700  1
  In  In2  1  0.25000000  0.80452700  0.60557300  1
  In  In3  1  0.75000000  0.30452700  0.89442700  1
  Mo  Mo0  1  0.25000000  0.99687700  0.28356100  1
  Mo  Mo1  1  0.75000000  0.00312300  0.71643900  1
  Mo  Mo2  1  0.75000000  0.49687700  0.21643900  1
  Mo  Mo3  1  0.25000000  0.21746600  0.53837100  1
  Mo  Mo4  1  0.75000000  0.71746600  0.96162900  1
  Mo  Mo5  1  0.25000000  0.28253400  0.03837100  1
  Mo  Mo6  1  0.75000000  0.78253400  0.46162900  1
  Mo  Mo7  1  0.25000000  0.50312300  0.78356100  1
  O  O0  1  0.75000000  0.09124900  0.82593200  1
  O  O1  1  0.25000000  0.59124900  0.67406800  1
  O  O2  1  0.25000000  0.28167900  0.64778000  1
  O  O3  1  0.50604900  0.79470200  0.01882300  1
  O  O4  1  0.75000000  0.40875100  0.32593200  1
  O  O5  1  0.50190400  0.10527800  0.30395700  1
  O  O6  1  0.49395100  0.29470200  0.48117700  1
  O  O7  1  0.25000000  0.65026000  0.85958000  1
  O  O8  1  0.50604900  0.70529800  0.51882300  1
  O  O9  1  0.49395100  0.20529800  0.98117700  1
  O  O10  1  0.75000000  0.71832100  0.35222000  1
  O  O11  1  0.25000000  0.90875100  0.17406800  1
  O  O12  1  0.00190400  0.89472200  0.69604300  1
  O  O13  1  0.00604900  0.20529800  0.98117700  1
  O  O14  1  0.75000000  0.15026000  0.64042000  1
  O  O15  1  0.99809600  0.10527800  0.30395700  1
  O  O16  1  0.99395100  0.79470200  0.01882300  1
  O  O17  1  0.75000000  0.51592200  0.96646700  1
  O  O18  1  0.25000000  0.84974000  0.35958000  1
  O  O19  1  0.75000000  0.98407800  0.46646700  1
  O  O20  1  0.50190400  0.39472200  0.80395700  1
  O  O21  1  0.49809600  0.89472200  0.69604300  1
  O  O22  1  0.25000000  0.48407800  0.03353300  1
  O  O23  1  0.00190400  0.60527800  0.19604300  1
  O  O24  1  0.75000000  0.78167900  0.85222000  1
  O  O25  1  0.25000000  0.01592200  0.53353300  1
  O  O26  1  0.00604900  0.29470200  0.48117700  1
  O  O27  1  0.49809600  0.60527800  0.19604300  1
  O  O28  1  0.25000000  0.21832100  0.14778000  1
  O  O29  1  0.99395100  0.70529800  0.51882300  1
  O  O30  1  0.99809600  0.39472200  0.80395700  1
  O  O31  1  0.75000000  0.34974000  0.14042000  1
loop_
_geom_bond_atom_site_label_1
_geom_bond_atom_site_label_2
_geom_bond_distance
_geom_bond_site_symmetry_2
K0 O18 2.703237 1_555
K0 O8 2.991022 1_555
K0 O29 2.991022 1_455
K0 O26 3.107512 1_555
K0 O6 3.107512 1_555
K0 O27 3.137950 1_555
K0 O23 3.137950 1_555
K0 O4 3.323061 1_555
K0 O4 3.323061 1_455
K0 O10 3.378267 1_455
K0 O10 3.378267 1_555
K1 O7 2.703237 1_555
K1 O3 2.991022 1_556
K1 O16 2.991022 1_456
K1 O13 3.107512 1_565
K1 O9 3.107512 1_565
K1 O21 3.137950 1_555
K1 O12 3.137950 1_555
K1 O0 3.323061 1_565
K1 O0 3.323061 1_465
K1 O24 3.378267 1_555
K1 O24 3.378267 1_455
K2 O14 2.703237 1_555
K2 O26 2.991022 1_655
K2 O6 2.991022 1_555
K2 O29 3.107512 1_555
K2 O8 3.107512 1_555
K2 O30 3.137950 1_555
K2 O20 3.137950 1_555
K2 O1 3.323061 1_555
K2 O1 3.323061 1_655
K2 O2 3.378267 1_555
K2 O2 3.378267 1_655
K3 O31 2.703237 1_555
K3 O13 2.991022 1_654
K3 O9 2.991022 1_554
K3 O16 3.107512 1_545
K3 O3 3.107512 1_545
K3 O15 3.137950 1_555
K3 O5 3.137950 1_555
K3 O11 3.323061 1_645
K3 O11 3.323061 1_545
K3 O28 3.378267 1_655
K3 O28 3.378267 1_555
In0 O11 2.158268 1_555
In0 O27 2.169492 1_555
In0 O23 2.169492 1_555
In0 O22 2.169803 1_555
In0 O3 2.199074 1_555
In0 O16 2.199074 1_455
In1 O4 2.158268 1_555
In1 O15 2.169492 1_555
In1 O5 2.169492 1_555
In1 O19 2.169803 1_545
In1 O26 2.199074 1_655
In1 O6 2.199074 1_555
In2 O1 2.158268 1_555
In2 O21 2.169492 1_555
In2 O12 2.169492 1_555
In2 O25 2.169803 1_565
In2 O8 2.199074 1_555
In2 O29 2.199074 1_455
In3 O0 2.158268 1_555
In3 O30 2.169492 1_555
In3 O20 2.169492 1_555
In3 O17 2.169803 1_555
In3 O9 2.199074 1_555
In3 O13 2.199074 1_655
Mo0 O18 1.738368 1_555
Mo0 O15 1.815770 1_465
Mo0 O5 1.815770 1_565
Mo0 O11 1.826172 1_555
Mo1 O14 1.738368 1_555
Mo1 O12 1.815770 1_645
Mo1 O21 1.815770 1_545
Mo1 O0 1.826172 1_555
Mo2 O31 1.738368 1_555
Mo2 O23 1.815770 1_655
Mo2 O27 1.815770 1_555
Mo2 O4 1.826172 1_555
Mo3 O2 1.744412 1_555
Mo3 O25 1.792750 1_555
Mo3 O6 1.829426 1_555
Mo3 O26 1.829426 1_555
Mo4 O24 1.744412 1_555
Mo4 O17 1.792750 1_555
Mo4 O16 1.829426 1_556
Mo4 O3 1.829426 1_556
Mo5 O28 1.744412 1_555
Mo5 O22 1.792750 1_555
Mo5 O13 1.829426 1_554
Mo5 O9 1.829426 1_554
Mo6 O10 1.744412 1_555
Mo6 O19 1.792750 1_555
Mo6 O29 1.829426 1_555
Mo6 O8 1.829426 1_555
Mo7 O7 1.738368 1_555
Mo7 O30 1.815770 1_455
Mo7 O20 1.815770 1_555
Mo7 O1 1.826172 1_555
