# generated using pymatgen
data_Sr2YAlCu2O7
_symmetry_space_group_name_H-M   'P 1'
_cell_length_a   12.03283147
_cell_length_b   12.03283147
_cell_length_c   12.03283147
_cell_angle_alpha   153.93684907
_cell_angle_beta   153.36201743
_cell_angle_gamma   37.61146437
_symmetry_Int_Tables_number   1
_chemical_formula_structural   Sr2YAlCu2O7
_chemical_formula_sum   'Sr4 Y2 Al2 Cu4 O14'
_cell_volume   342.68213700
_cell_formula_units_Z   2
loop_
 _symmetry_equiv_pos_site_id
 _symmetry_equiv_pos_as_xyz
  1  'x, y, z'
loop_
 _atom_site_type_symbol
 _atom_site_label
 _atom_site_symmetry_multiplicity
 _atom_site_fract_x
 _atom_site_fract_y
 _atom_site_fract_z
 _atom_site_occupancy
  Sr  Sr0  1  0.83129500  0.83326600  0.97289700  1
  Sr  Sr1  1  0.16870500  0.14160200  0.00197100  1
  Sr  Sr2  1  0.63963100  0.64160200  0.97289700  1
  Sr  Sr3  1  0.36036900  0.33326600  0.00197100  1
  Y  Y0  1  0.50000000  0.48585700  0.98585700  1
  Y  Y1  1  0.00000000  0.98585700  0.98585700  1
  Al  Al0  1  0.18238500  0.75476700  0.43715200  1
  Al  Al1  1  0.81761500  0.25476700  0.57238200  1
  Cu  Cu0  1  0.92700100  0.41038700  0.48311700  1
  Cu  Cu1  1  0.07299900  0.55611500  0.48338600  1
  Cu  Cu2  1  0.57273000  0.05611500  0.48311700  1
  Cu  Cu3  1  0.42727000  0.91038700  0.48338600  1
  O  O0  1  0.90841200  0.57415500  0.98256700  1
  O  O1  1  0.09158800  0.07415500  0.66574300  1
  O  O2  1  0.69419500  0.67686800  0.49230800  1
  O  O3  1  0.30580500  0.79811300  0.98267300  1
  O  O4  1  0.31543900  0.29811300  0.49230800  1
  O  O5  1  0.68456100  0.17686800  0.98267300  1
  O  O6  1  0.17770000  0.16078100  0.47506500  1
  O  O7  1  0.82230000  0.29736500  0.98308000  1
  O  O8  1  0.81428400  0.79736500  0.47506500  1
  O  O9  1  0.18571600  0.66078100  0.98308000  1
  O  O10  1  0.38155900  0.76415900  0.50812500  1
  O  O11  1  0.61844100  0.12656600  0.38259900  1
  O  O12  1  0.24396700  0.62656600  0.50812500  1
  O  O13  1  0.75603300  0.26415900  0.38259900  1
loop_
_geom_bond_atom_site_label_1
_geom_bond_atom_site_label_2
_geom_bond_distance
_geom_bond_site_symmetry_2
Al0 O12 1.755742 1_555
Al0 O10 1.755751 1_555
Al0 O1 1.804787 1_565
Al0 O0 1.807682 1_454
Al1 O11 1.755742 1_555
Al1 O13 1.755753 1_555
Al1 O0 1.804787 1_555
Al1 O1 1.807682 1_655
Cu0 O6 1.943014 1_655
Cu0 O9 1.943065 1_655
Cu0 O2 1.956234 1_555
Cu0 O5 1.962148 1_554
Cu0 O13 2.500838 1_555
Cu1 O7 1.943016 1_454
Cu1 O8 1.943072 1_455
Cu1 O3 1.956232 1_555
Cu1 O4 1.962139 1_555
Cu1 O12 2.500860 1_555
Cu2 O8 1.943009 1_545
Cu2 O7 1.943063 1_555
Cu2 O4 1.956242 1_555
Cu2 O3 1.962145 1_544
Cu2 O11 2.500860 1_555
Cu3 O9 1.943018 1_554
Cu3 O6 1.943069 1_565
Cu3 O5 1.956236 1_565
Cu3 O2 1.962147 1_555
Cu3 O10 2.500837 1_555
O0 Sr0 2.543729 1_555
O0 Sr2 2.543729 1_555
O1 Sr3 2.543729 1_556
O1 Sr1 2.543729 1_556
O2 Y1 2.360393 1_655
O2 Y0 2.401589 1_554
O2 Sr0 2.831276 1_555
O2 Sr3 2.856090 1_555
O3 Y1 2.360393 1_555
O3 Y0 2.401589 1_555
O3 Sr1 2.831276 1_566
O3 Sr2 2.856090 1_555
O4 Y0 2.360387 1_555
O4 Y1 2.401583 1_544
O4 Sr2 2.831284 1_555
O4 Sr1 2.856098 1_555
O5 Y0 2.360390 1_555
O5 Y1 2.401580 1_645
O5 Sr3 2.831287 1_556
O5 Sr0 2.856096 1_545
O6 Y1 2.454024 1_544
O6 Y0 2.518967 1_555
O6 Sr0 2.762773 1_444
O6 Sr3 2.830103 1_556
O7 Y1 2.454031 1_645
O7 Y0 2.518974 1_555
O7 Sr1 2.762766 1_656
O7 Sr2 2.830095 1_555
O8 Y0 2.454024 1_554
O8 Y1 2.518967 1_655
O8 Sr2 2.762773 1_554
O8 Sr1 2.830103 1_666
O9 Y0 2.454017 1_555
O9 Y1 2.518960 1_555
O9 Sr3 2.762782 1_556
O9 Sr0 2.830110 1_455
O10 Sr0 2.433791 1_555
O10 Sr3 2.574067 1_555
O10 Sr3 3.017216 1_566
O11 Sr1 2.433791 1_555
O11 Sr2 2.574068 1_544
O11 Sr2 3.017221 1_555
O12 Sr2 2.433791 1_555
O12 Sr1 2.574068 1_555
O12 Sr1 3.017221 1_566
O13 Sr3 2.433785 1_555
O13 Sr0 2.574068 1_544
O13 Sr0 3.017216 1_555
