# generated using pymatgen
data_AlH4NF4
_symmetry_space_group_name_H-M   'P 1'
_cell_length_a   5.01458750
_cell_length_b   5.01458750
_cell_length_c   12.61717746
_cell_angle_alpha   90.00000000
_cell_angle_beta   90.00000000
_cell_angle_gamma   90.00000000
_symmetry_Int_Tables_number   1
_chemical_formula_structural   AlH4NF4
_chemical_formula_sum   'Al4 H16 N4 F16'
_cell_volume   317.27265214
_cell_formula_units_Z   4
loop_
 _symmetry_equiv_pos_site_id
 _symmetry_equiv_pos_as_xyz
  1  'x, y, z'
loop_
 _atom_site_type_symbol
 _atom_site_label
 _atom_site_symmetry_multiplicity
 _atom_site_fract_x
 _atom_site_fract_y
 _atom_site_fract_z
 _atom_site_occupancy
  Al  Al0  1  0.00000000  0.50000000  0.50000000  1
  Al  Al1  1  0.50000000  -0.00000000  0.00000000  1
  Al  Al2  1  0.50000000  -0.00000000  0.50000000  1
  Al  Al3  1  0.00000000  0.50000000  0.00000000  1
  H  H0  1  0.66879894  0.49869912  0.70338765  1
  H  H1  1  0.49869912  0.33120106  0.20338765  1
  H  H2  1  0.83120106  0.99869912  0.70338765  1
  H  H3  1  0.99869912  0.16879894  0.20338765  1
  H  H4  1  0.66879894  0.49869912  0.29661235  1
  H  H5  1  0.49869912  0.33120106  0.79661235  1
  H  H6  1  0.83120106  0.99869912  0.29661235  1
  H  H7  1  0.99869912  0.16879894  0.79661235  1
  H  H8  1  0.33120106  0.50130088  0.29661235  1
  H  H9  1  0.50130088  0.66879894  0.79661235  1
  H  H10  1  0.16879894  0.00130088  0.29661235  1
  H  H11  1  0.00130088  0.83120106  0.79661235  1
  H  H12  1  0.33120106  0.50130088  0.70338765  1
  H  H13  1  0.50130088  0.66879894  0.20338765  1
  H  H14  1  0.16879894  0.00130088  0.70338765  1
  H  H15  1  0.00130088  0.83120106  0.20338765  1
  N  N0  1  0.50000000  0.50000000  0.75000000  1
  N  N1  1  0.50000000  0.50000000  0.25000000  1
  N  N2  1  0.00000000  -0.00000000  0.75000000  1
  N  N3  1  0.00000000  -0.00000000  0.25000000  1
  F  F0  1  0.00000000  0.50000000  0.64078048  1
  F  F1  1  0.50000000  -0.00000000  0.14078048  1
  F  F2  1  0.50000000  -0.00000000  0.64078048  1
  F  F3  1  0.00000000  0.50000000  0.14078048  1
  F  F4  1  0.00000000  0.50000000  0.35921952  1
  F  F5  1  0.50000000  -0.00000000  0.85921952  1
  F  F6  1  0.50000000  -0.00000000  0.35921952  1
  F  F7  1  0.00000000  0.50000000  0.85921952  1
  F  F8  1  0.19984956  0.19949768  0.50000000  1
  F  F9  1  0.19949768  0.80015044  0.00000000  1
  F  F10  1  0.30015044  0.69949768  0.50000000  1
  F  F11  1  0.69949768  0.69984956  0.00000000  1
  F  F12  1  0.80015044  0.80050232  0.50000000  1
  F  F13  1  0.80050232  0.19984956  0.00000000  1
  F  F14  1  0.69984956  0.30050232  0.50000000  1
  F  F15  1  0.30050232  0.30015044  0.00000000  1
loop_
_geom_bond_atom_site_label_1
_geom_bond_atom_site_label_2
_geom_bond_distance
_geom_bond_site_symmetry_2
Al0 F0 1.776252 1_555
Al0 F4 1.776252 1_555
Al0 F10 1.807267 1_555
Al0 F14 1.807267 1_455
Al0 F12 1.809714 1_455
Al0 F8 1.809714 1_555
Al1 F5 1.776252 1_554
Al1 F1 1.776252 1_555
Al1 F15 1.807267 1_555
Al1 F11 1.807267 1_545
Al1 F9 1.809714 1_545
Al1 F13 1.809714 1_555
Al2 F2 1.776252 1_555
Al2 F6 1.776252 1_555
Al2 F12 1.807267 1_545
Al2 F8 1.807267 1_555
Al2 F14 1.809714 1_555
Al2 F10 1.809714 1_545
Al3 F7 1.776252 1_554
Al3 F3 1.776252 1_555
Al3 F9 1.807267 1_555
Al3 F13 1.807267 1_455
Al3 F15 1.809714 1_555
Al3 F11 1.809714 1_455
H0 N0 1.030734 1_555
H1 N1 1.030734 1_555
H2 N2 1.030734 1_665
H3 N3 1.030734 1_655
H4 N1 1.030734 1_555
H5 N0 1.030734 1_555
H6 N3 1.030734 1_665
H7 N2 1.030734 1_655
H8 N1 1.030734 1_555
H9 N0 1.030734 1_555
H10 N3 1.030734 1_555
H11 N2 1.030734 1_565
H12 N0 1.030734 1_555
H13 N1 1.030734 1_555
H14 N2 1.030734 1_555
H15 N3 1.030734 1_565
