# generated using pymatgen
data_Sr3CuPtO6
_symmetry_space_group_name_H-M   'P 1'
_cell_length_a   6.83323541
_cell_length_b   6.83323541
_cell_length_c   6.76044239
_cell_angle_alpha   89.20068106
_cell_angle_beta   89.20068106
_cell_angle_gamma   92.12221616
_symmetry_Int_Tables_number   1
_chemical_formula_structural   Sr3CuPtO6
_chemical_formula_sum   'Sr6 Cu2 Pt2 O12'
_cell_volume   315.38578496
_cell_formula_units_Z   2
loop_
 _symmetry_equiv_pos_site_id
 _symmetry_equiv_pos_as_xyz
  1  'x, y, z'
loop_
 _atom_site_type_symbol
 _atom_site_label
 _atom_site_symmetry_multiplicity
 _atom_site_fract_x
 _atom_site_fract_y
 _atom_site_fract_z
 _atom_site_occupancy
  Sr  Sr0  1  0.09808900  0.90191100  0.75000000  1
  Sr  Sr1  1  0.90191100  0.09808900  0.25000000  1
  Sr  Sr2  1  0.75947300  0.61017400  0.12279400  1
  Sr  Sr3  1  0.38982600  0.24052700  0.37720600  1
  Sr  Sr4  1  0.24052700  0.38982600  0.87720600  1
  Sr  Sr5  1  0.61017400  0.75947300  0.62279400  1
  Cu  Cu0  1  0.69385800  0.30614200  0.75000000  1
  Cu  Cu1  1  0.30614200  0.69385800  0.25000000  1
  Pt  Pt0  1  0.00000000  0.50000000  0.50000000  1
  Pt  Pt1  1  0.50000000  0.00000000  0.00000000  1
  O  O0  1  0.28202200  0.60686100  0.53668700  1
  O  O1  1  0.39313900  0.71797800  0.96331300  1
  O  O2  1  0.71797800  0.39313900  0.46331300  1
  O  O3  1  0.60686100  0.28202200  0.03668700  1
  O  O4  1  0.07796200  0.21790300  0.56896800  1
  O  O5  1  0.78209700  0.92203800  0.93103200  1
  O  O6  1  0.92203800  0.78209700  0.43103200  1
  O  O7  1  0.21790300  0.07796200  0.06896800  1
  O  O8  1  0.10400100  0.47819300  0.21484800  1
  O  O9  1  0.52180700  0.89599900  0.28515200  1
  O  O10  1  0.47819300  0.10400100  0.71484800  1
  O  O11  1  0.89599900  0.52180700  0.78515200  1
loop_
_geom_bond_atom_site_label_1
_geom_bond_atom_site_label_2
_geom_bond_distance
_geom_bond_site_symmetry_2
Cu0 O10 2.001083 1_555
Cu0 O11 2.001083 1_555
Cu0 O3 2.022028 1_556
Cu0 O2 2.022028 1_555
Cu1 O8 2.001083 1_555
Cu1 O9 2.001083 1_555
Cu1 O0 2.022028 1_555
Cu1 O1 2.022028 1_554
O0 Pt0 2.054917 1_555
O0 Sr5 2.516868 1_555
O0 Sr4 2.726665 1_555
O0 Sr0 2.818224 1_555
O0 Sr3 2.856754 1_555
O1 Pt1 2.054917 1_566
O1 Sr4 2.516868 1_555
O1 Sr5 2.726665 1_555
O1 Sr0 2.818224 1_555
O1 Sr2 2.856754 1_556
O2 Pt0 2.054917 1_655
O2 Sr3 2.516868 1_555
O2 Sr2 2.726665 1_555
O2 Sr1 2.818224 1_555
O2 Sr5 2.856754 1_555
O3 Pt1 2.054917 1_555
O3 Sr2 2.516868 1_555
O3 Sr3 2.726665 1_555
O3 Sr1 2.818224 1_555
O3 Sr4 2.856754 1_554
O4 Pt0 2.067579 1_555
O4 Sr0 2.476298 1_545
O4 Sr3 2.477661 1_555
O4 Sr1 2.610766 1_455
O4 Sr4 2.644366 1_555
O5 Pt1 2.067579 1_566
O5 Sr0 2.476298 1_655
O5 Sr2 2.477661 1_556
O5 Sr1 2.610766 1_566
O5 Sr5 2.644366 1_555
O6 Pt0 2.067579 1_655
O6 Sr1 2.476298 1_565
O6 Sr5 2.477661 1_555
O6 Sr0 2.610766 1_655
O6 Sr2 2.644366 1_555
O7 Pt1 2.067579 1_555
O7 Sr1 2.476298 1_455
O7 Sr4 2.477661 1_554
O7 Sr0 2.610766 1_544
O7 Sr3 2.644366 1_555
O8 Pt0 2.054535 1_555
O8 Sr4 2.542835 1_554
O8 Sr2 2.631644 1_455
O8 Sr3 2.811023 1_555
O8 Sr1 2.901309 1_455
O9 Pt1 2.054535 1_565
O9 Sr5 2.542835 1_555
O9 Sr3 2.631644 1_565
O9 Sr2 2.811023 1_555
O9 Sr1 2.901309 1_565
O10 Pt1 2.054535 1_556
O10 Sr3 2.542835 1_555
O10 Sr5 2.631644 1_545
O10 Sr4 2.811023 1_555
O10 Sr0 2.901309 1_545
O11 Pt0 2.054535 1_655
O11 Sr2 2.542835 1_556
O11 Sr4 2.631644 1_655
O11 Sr5 2.811023 1_555
O11 Sr0 2.901309 1_655
