# generated using pymatgen
data_Zr4Fe2H2O
_symmetry_space_group_name_H-M   'P 1'
_cell_length_a   8.97013035
_cell_length_b   8.97013035
_cell_length_c   8.97013035
_cell_angle_alpha   60.00000000
_cell_angle_beta   60.00000000
_cell_angle_gamma   60.00000000
_symmetry_Int_Tables_number   1
_chemical_formula_structural   Zr4Fe2H2O
_chemical_formula_sum   'Zr16 Fe8 H8 O4'
_cell_volume   510.36544789
_cell_formula_units_Z   4
loop_
 _symmetry_equiv_pos_site_id
 _symmetry_equiv_pos_as_xyz
  1  'x, y, z'
loop_
 _atom_site_type_symbol
 _atom_site_label
 _atom_site_symmetry_multiplicity
 _atom_site_fract_x
 _atom_site_fract_y
 _atom_site_fract_z
 _atom_site_occupancy
  Zr  Zr0  1  0.68952700  0.68952700  0.31047300  1
  Zr  Zr1  1  0.31047300  0.31047300  0.68952700  1
  Zr  Zr2  1  0.68952700  0.31047300  0.68952700  1
  Zr  Zr3  1  0.31047300  0.68952700  0.31047300  1
  Zr  Zr4  1  0.31047300  0.68952700  0.68952700  1
  Zr  Zr5  1  0.68952700  0.31047300  0.31047300  1
  Zr  Zr6  1  0.56047300  0.56047300  0.93952700  1
  Zr  Zr7  1  0.93952700  0.93952700  0.56047300  1
  Zr  Zr8  1  0.56047300  0.93952700  0.56047300  1
  Zr  Zr9  1  0.93952700  0.56047300  0.93952700  1
  Zr  Zr10  1  0.93952700  0.56047300  0.56047300  1
  Zr  Zr11  1  0.56047300  0.93952700  0.93952700  1
  Zr  Zr12  1  0.62500000  0.12500000  0.12500000  1
  Zr  Zr13  1  0.12500000  0.62500000  0.12500000  1
  Zr  Zr14  1  0.12500000  0.12500000  0.62500000  1
  Zr  Zr15  1  0.12500000  0.12500000  0.12500000  1
  Fe  Fe0  1  0.00925400  0.33024900  0.33024900  1
  Fe  Fe1  1  0.33024900  0.00925400  0.33024900  1
  Fe  Fe2  1  0.33024900  0.33024900  0.00925400  1
  Fe  Fe3  1  0.33024900  0.33024900  0.33024900  1
  Fe  Fe4  1  0.24074600  0.91975100  0.91975100  1
  Fe  Fe5  1  0.91975100  0.24074600  0.91975100  1
  Fe  Fe6  1  0.91975100  0.91975100  0.24074600  1
  Fe  Fe7  1  0.91975100  0.91975100  0.91975100  1
  H  H0  1  0.74610700  0.41796400  0.41796400  1
  H  H1  1  0.41796400  0.74610700  0.41796400  1
  H  H2  1  0.41796400  0.41796400  0.74610700  1
  H  H3  1  0.41796400  0.41796400  0.41796400  1
  H  H4  1  0.50389300  0.83203600  0.83203600  1
  H  H5  1  0.83203600  0.50389300  0.83203600  1
  H  H6  1  0.83203600  0.83203600  0.50389300  1
  H  H7  1  0.83203600  0.83203600  0.83203600  1
  O  O0  1  0.12500000  0.62500000  0.62500000  1
  O  O1  1  0.62500000  0.12500000  0.62500000  1
  O  O2  1  0.62500000  0.62500000  0.12500000  1
  O  O3  1  0.62500000  0.62500000  0.62500000  1
loop_
_geom_bond_atom_site_label_1
_geom_bond_atom_site_label_2
_geom_bond_distance
_geom_bond_site_symmetry_2
Fe0 H0 1.927310 1_455
Fe0 Zr14 2.724685 1_555
Fe0 Zr13 2.724685 1_555
Fe0 Zr15 2.724692 1_555
Fe1 H1 1.927310 1_545
Fe1 Zr12 2.724685 1_555
Fe1 Zr14 2.724685 1_555
Fe1 Zr15 2.724692 1_555
Fe2 H2 1.927310 1_554
Fe2 Zr12 2.724685 1_555
Fe2 Zr13 2.724685 1_555
Fe2 Zr15 2.724692 1_555
Fe3 H3 1.927295 1_555
Fe3 Zr13 2.724690 1_555
Fe3 Zr12 2.724690 1_555
Fe3 Zr14 2.724690 1_555
Fe4 H4 1.927310 1_555
Fe4 Zr14 2.724685 1_565
Fe4 Zr13 2.724685 1_556
Fe4 Zr15 2.724692 1_566
Fe5 H5 1.927310 1_555
Fe5 Zr12 2.724685 1_556
Fe5 Zr14 2.724685 1_655
Fe5 Zr15 2.724692 1_656
Fe6 H6 1.927310 1_555
Fe6 Zr12 2.724685 1_565
Fe6 Zr13 2.724685 1_655
Fe6 Zr15 2.724692 1_665
Fe7 H7 1.927295 1_555
Fe7 Zr14 2.724690 1_665
Fe7 Zr12 2.724690 1_566
Fe7 Zr13 2.724690 1_656
H0 Zr5 2.006342 1_555
H0 Zr0 2.006350 1_555
H0 Zr2 2.006350 1_555
H1 Zr3 2.006342 1_555
H1 Zr0 2.006350 1_555
H1 Zr4 2.006350 1_555
H2 Zr1 2.006342 1_555
H2 Zr2 2.006350 1_555
H2 Zr4 2.006350 1_555
H3 Zr5 2.006349 1_555
H3 Zr3 2.006349 1_555
H3 Zr1 2.006349 1_555
H4 Zr11 2.006342 1_555
H4 Zr6 2.006350 1_555
H4 Zr8 2.006350 1_555
H5 Zr9 2.006342 1_555
H5 Zr6 2.006350 1_555
H5 Zr10 2.006350 1_555
H6 Zr7 2.006342 1_555
H6 Zr8 2.006350 1_555
H6 Zr10 2.006350 1_555
H7 Zr9 2.006349 1_555
H7 Zr11 2.006349 1_555
H7 Zr7 2.006349 1_555
O0 Zr9 2.387259 1_455
O0 Zr3 2.387259 1_555
O0 Zr10 2.387259 1_455
O0 Zr7 2.387259 1_455
O0 Zr1 2.387259 1_555
O0 Zr4 2.387259 1_555
O1 Zr8 2.387259 1_545
O1 Zr7 2.387259 1_545
O1 Zr5 2.387259 1_555
O1 Zr2 2.387259 1_555
O1 Zr11 2.387259 1_545
O1 Zr1 2.387259 1_555
O2 Zr11 2.387259 1_554
O2 Zr5 2.387259 1_555
O2 Zr9 2.387259 1_554
O2 Zr3 2.387259 1_555
O2 Zr6 2.387259 1_554
O2 Zr0 2.387259 1_555
O3 Zr2 2.387259 1_555
O3 Zr8 2.387259 1_555
O3 Zr0 2.387259 1_555
O3 Zr4 2.387259 1_555
O3 Zr6 2.387259 1_555
O3 Zr10 2.387259 1_555
