# generated using pymatgen
data_KCuPO4
_symmetry_space_group_name_H-M   'P 1'
_cell_length_a   6.79977300
_cell_length_b   6.84221600
_cell_length_c   18.06872600
_cell_angle_alpha   90.00000000
_cell_angle_beta   90.00000000
_cell_angle_gamma   90.00000000
_symmetry_Int_Tables_number   1
_chemical_formula_structural   KCuPO4
_chemical_formula_sum   'K8 Cu8 P8 O32'
_cell_volume   840.65679369
_cell_formula_units_Z   8
loop_
 _symmetry_equiv_pos_site_id
 _symmetry_equiv_pos_as_xyz
  1  'x, y, z'
loop_
 _atom_site_type_symbol
 _atom_site_label
 _atom_site_symmetry_multiplicity
 _atom_site_fract_x
 _atom_site_fract_y
 _atom_site_fract_z
 _atom_site_occupancy
  K  K0  1  0.02917300  0.98816000  0.67644800  1
  K  K1  1  0.97082700  0.01184000  0.32355200  1
  K  K2  1  0.02917300  0.51184000  0.17644800  1
  K  K3  1  0.97082700  0.48816000  0.82355200  1
  K  K4  1  0.47082700  0.01184000  0.17644800  1
  K  K5  1  0.52917300  0.51184000  0.32355200  1
  K  K6  1  0.47082700  0.48816000  0.67644800  1
  K  K7  1  0.52917300  0.98816000  0.82355200  1
  Cu  Cu0  1  0.70179900  0.22484600  0.99333100  1
  Cu  Cu1  1  0.20179900  0.22484600  0.50666900  1
  Cu  Cu2  1  0.29820100  0.77515400  0.00666900  1
  Cu  Cu3  1  0.20179900  0.27515400  0.00666900  1
  Cu  Cu4  1  0.79820100  0.77515400  0.49333100  1
  Cu  Cu5  1  0.29820100  0.72484600  0.50666900  1
  Cu  Cu6  1  0.70179900  0.27515400  0.49333100  1
  Cu  Cu7  1  0.79820100  0.72484600  0.99333100  1
  P  P0  1  0.46083000  0.98065100  0.39657700  1
  P  P1  1  0.03917000  0.01934900  0.89657700  1
  P  P2  1  0.03917000  0.48065100  0.39657700  1
  P  P3  1  0.96083000  0.51934900  0.60342300  1
  P  P4  1  0.53917000  0.01934900  0.60342300  1
  P  P5  1  0.53917000  0.48065100  0.10342300  1
  P  P6  1  0.46083000  0.51934900  0.89657700  1
  P  P7  1  0.96083000  0.98065100  0.10342300  1
  O  O0  1  0.88940000  0.65243100  0.40195300  1
  O  O1  1  0.75489500  0.03268600  0.07017800  1
  O  O2  1  0.38940000  0.65243100  0.09804700  1
  O  O3  1  0.46322300  0.30549300  0.05169800  1
  O  O4  1  0.53677700  0.69450700  0.94830200  1
  O  O5  1  0.61060000  0.15243100  0.40195300  1
  O  O6  1  0.11060000  0.15243100  0.09804700  1
  O  O7  1  0.74510500  0.53268600  0.07017800  1
  O  O8  1  0.05866500  0.08886000  0.81691500  1
  O  O9  1  0.96322300  0.30549300  0.44830200  1
  O  O10  1  0.25489500  0.03268600  0.42982200  1
  O  O11  1  0.11060000  0.34756900  0.59804700  1
  O  O12  1  0.88940000  0.84756900  0.90195300  1
  O  O13  1  0.55866500  0.08886000  0.68308500  1
  O  O14  1  0.44133500  0.58886000  0.81691500  1
  O  O15  1  0.55866500  0.41114000  0.18308500  1
  O  O16  1  0.75489500  0.46731400  0.57017800  1
  O  O17  1  0.46322300  0.19450700  0.55169800  1
  O  O18  1  0.44133500  0.91114000  0.31691500  1
  O  O19  1  0.94133500  0.58886000  0.68308500  1
  O  O20  1  0.25489500  0.46731400  0.92982200  1
  O  O21  1  0.24510500  0.96731400  0.92982200  1
  O  O22  1  0.38940000  0.84756900  0.59804700  1
  O  O23  1  0.53677700  0.80549300  0.44830200  1
  O  O24  1  0.24510500  0.53268600  0.42982200  1
  O  O25  1  0.05866500  0.41114000  0.31691500  1
  O  O26  1  0.94133500  0.91114000  0.18308500  1
  O  O27  1  0.96322300  0.19450700  0.94830200  1
  O  O28  1  0.03677700  0.80549300  0.05169800  1
  O  O29  1  0.61060000  0.34756900  0.90195300  1
  O  O30  1  0.03677700  0.69450700  0.55169800  1
  O  O31  1  0.74510500  0.96731400  0.57017800  1
loop_
_geom_bond_atom_site_label_1
_geom_bond_atom_site_label_2
_geom_bond_distance
_geom_bond_site_symmetry_2
K0 O8 2.637556 1_565
K0 O31 2.727351 1_455
K0 O19 2.799192 1_455
K0 O11 2.891501 1_565
K0 O22 2.988644 1_555
K0 O30 3.020026 1_555
K0 O13 3.274896 1_465
K1 O26 2.637556 1_545
K1 O10 2.727351 1_655
K1 O25 2.799192 1_655
K1 O0 2.891501 1_545
K1 O5 2.988644 1_555
K1 O9 3.020026 1_555
K1 O18 3.274896 1_645
K2 O25 2.637556 1_555
K2 O7 2.727351 1_455
K2 O26 2.799192 1_455
K2 O6 2.891501 1_555
K2 O2 2.988644 1_555
K2 O28 3.020026 1_555
K2 O15 3.274896 1_455
K3 O19 2.637556 1_555
K3 O20 2.727351 1_655
K3 O8 2.799192 1_655
K3 O12 2.891501 1_555
K3 O29 2.988644 1_555
K3 O27 3.020026 1_555
K3 O14 3.274896 1_655
K4 O18 2.637556 1_545
K4 O1 2.727351 1_555
K4 O15 2.799192 1_555
K4 O2 2.891501 1_545
K4 O6 2.988644 1_555
K4 O3 3.020026 1_555
K4 O26 3.274896 1_545
K5 O15 2.637556 1_555
K5 O24 2.727351 1_555
K5 O18 2.799192 1_555
K5 O5 2.891501 1_555
K5 O0 2.988644 1_555
K5 O23 3.020026 1_555
K5 O25 3.274896 1_555
K6 O14 2.637556 1_555
K6 O16 2.727351 1_555
K6 O13 2.799192 1_555
K6 O22 2.891501 1_555
K6 O11 2.988644 1_555
K6 O17 3.020026 1_555
K6 O19 3.274896 1_555
K7 O13 2.637556 1_565
K7 O21 2.727351 1_555
K7 O14 2.799192 1_555
K7 O29 2.891501 1_565
K7 O12 2.988644 1_555
K7 O4 3.020026 1_555
K7 O8 3.274896 1_565
Cu0 O1 1.946037 1_556
Cu0 O29 1.953390 1_555
Cu0 O27 1.965963 1_555
Cu0 O3 2.012074 1_556
Cu0 O7 2.539932 1_556
Cu1 O10 1.946037 1_555
Cu1 O11 1.953390 1_555
Cu1 O17 1.965963 1_555
Cu1 O9 2.012074 1_455
Cu1 O24 2.539932 1_555
Cu2 O21 1.946037 1_554
Cu2 O2 1.953390 1_555
Cu2 O28 1.965963 1_555
Cu2 O4 2.012074 1_554
Cu2 O20 2.539932 1_554
Cu3 O20 1.946037 1_554
Cu3 O6 1.953390 1_555
Cu3 O3 1.965963 1_555
Cu3 O27 2.012074 1_454
Cu3 O21 2.539932 1_544
Cu4 O31 1.946037 1_555
Cu4 O0 1.953390 1_555
Cu4 O23 1.965963 1_555
Cu4 O30 2.012074 1_655
Cu4 O16 2.539932 1_555
Cu5 O24 1.946037 1_555
Cu5 O22 1.953390 1_555
Cu5 O30 1.965963 1_555
Cu5 O23 2.012074 1_555
Cu5 O10 2.539932 1_565
Cu6 O16 1.946037 1_555
Cu6 O5 1.953390 1_555
Cu6 O9 1.965963 1_555
Cu6 O17 2.012074 1_555
Cu6 O31 2.539932 1_545
Cu7 O7 1.946037 1_556
Cu7 O12 1.953390 1_555
Cu7 O4 1.965963 1_555
Cu7 O28 2.012074 1_656
Cu7 O1 2.539932 1_566
O0 P2 1.558217 1_655
O1 P7 1.564758 1_545
O2 P5 1.558217 1_555
O3 P5 1.605150 1_555
O4 P6 1.605150 1_555
O5 P0 1.558217 1_545
O6 P7 1.558217 1_445
O7 P5 1.564758 1_555
O8 P1 1.521717 1_555
O9 P2 1.605150 1_655
O10 P0 1.564758 1_545
O11 P3 1.558217 1_455
O12 P1 1.558217 1_665
O13 P4 1.521717 1_555
O14 P6 1.521717 1_555
O15 P5 1.521717 1_555
O16 P3 1.564758 1_555
O17 P4 1.605150 1_555
O18 P0 1.521717 1_555
O19 P3 1.521717 1_555
O20 P6 1.564758 1_555
O21 P1 1.564758 1_565
O22 P4 1.558217 1_565
O23 P0 1.605150 1_555
O24 P2 1.564758 1_555
O25 P2 1.521717 1_555
O26 P7 1.521717 1_555
O27 P1 1.605150 1_655
O28 P7 1.605150 1_455
O29 P6 1.558217 1_555
O30 P3 1.605150 1_455
O31 P4 1.564758 1_565
