# generated using pymatgen
data_W6CCl16
_symmetry_space_group_name_H-M   'P 1'
_cell_length_a   10.10145500
_cell_length_b   13.17703700
_cell_length_c   17.15814600
_cell_angle_alpha   90.00000000
_cell_angle_beta   90.00000000
_cell_angle_gamma   90.00000000
_symmetry_Int_Tables_number   1
_chemical_formula_structural   W6CCl16
_chemical_formula_sum   'W24 C4 Cl64'
_cell_volume   2283.87356548
_cell_formula_units_Z   4
loop_
 _symmetry_equiv_pos_site_id
 _symmetry_equiv_pos_as_xyz
  1  'x, y, z'
loop_
 _atom_site_type_symbol
 _atom_site_label
 _atom_site_symmetry_multiplicity
 _atom_site_fract_x
 _atom_site_fract_y
 _atom_site_fract_z
 _atom_site_occupancy
  W  W0  1  0.88213700  0.15025300  0.72806500  1
  W  W1  1  0.38213700  0.65025300  0.77193500  1
  W  W2  1  0.15726000  0.34977600  0.65501000  1
  W  W3  1  0.34274000  0.15022400  0.15501000  1
  W  W4  1  0.34274000  0.34977600  0.15501000  1
  W  W5  1  0.38213700  0.84974700  0.77193500  1
  W  W6  1  0.28648600  0.75000000  0.89491400  1
  W  W7  1  0.65726000  0.65022400  0.84499000  1
  W  W8  1  0.15726000  0.15022400  0.65501000  1
  W  W9  1  0.11786300  0.84974700  0.27193500  1
  W  W10  1  0.61786300  0.15025300  0.22806500  1
  W  W11  1  0.84274000  0.84977600  0.34499000  1
  W  W12  1  0.21351400  0.75000000  0.39491400  1
  W  W13  1  0.61786300  0.34974700  0.22806500  1
  W  W14  1  0.84274000  0.65022400  0.34499000  1
  W  W15  1  0.56447300  0.75000000  0.96894000  1
  W  W16  1  0.43552700  0.25000000  0.03106000  1
  W  W17  1  0.71351400  0.25000000  0.10508600  1
  W  W18  1  0.93552700  0.75000000  0.46894000  1
  W  W19  1  0.78648600  0.25000000  0.60508600  1
  W  W20  1  0.11786300  0.65025300  0.27193500  1
  W  W21  1  0.06447300  0.25000000  0.53106000  1
  W  W22  1  0.65726000  0.84977600  0.84499000  1
  W  W23  1  0.88213700  0.34974700  0.72806500  1
  C  C0  1  0.98945800  0.25000000  0.65150700  1
  C  C1  1  0.01054200  0.75000000  0.34849300  1
  C  C2  1  0.48945800  0.75000000  0.84849300  1
  C  C3  1  0.51054200  0.25000000  0.15150700  1
  Cl  Cl0  1  0.90021200  0.86494200  0.20575000  1
  Cl  Cl1  1  0.88004100  0.13080200  0.50917800  1
  Cl  Cl2  1  0.61995900  0.36919800  0.00917800  1
  Cl  Cl3  1  0.11995900  0.86919800  0.49082200  1
  Cl  Cl4  1  0.74172600  0.62663400  0.97519700  1
  Cl  Cl5  1  0.92115500  0.75000000  0.60917800  1
  Cl  Cl6  1  0.77745700  0.25000000  0.82755900  1
  Cl  Cl7  1  0.09978800  0.36494200  0.79425000  1
  Cl  Cl8  1  0.57884500  0.75000000  0.10917800  1
  Cl  Cl9  1  0.24172600  0.12663400  0.52480300  1
  Cl  Cl10  1  0.67606300  0.00110300  0.32241000  1
  Cl  Cl11  1  0.59978800  0.86494200  0.70575000  1
  Cl  Cl12  1  0.48807600  0.51525200  0.85046600  1
  Cl  Cl13  1  0.66288100  0.37516600  0.67861200  1
  Cl  Cl14  1  0.85224600  0.75000000  0.82263200  1
  Cl  Cl15  1  0.33711900  0.87516600  0.32138800  1
  Cl  Cl16  1  0.16288100  0.87516600  0.82138800  1
  Cl  Cl17  1  0.59886100  0.25000000  0.51956000  1
  Cl  Cl18  1  0.88004100  0.36919800  0.50917800  1
  Cl  Cl19  1  0.33711900  0.62483400  0.32138800  1
  Cl  Cl20  1  0.01192400  0.98474800  0.35046600  1
  Cl  Cl21  1  0.83711900  0.12483400  0.17861200  1
  Cl  Cl22  1  0.25827400  0.37336600  0.02480300  1
  Cl  Cl23  1  0.40021200  0.13505800  0.29425000  1
  Cl  Cl24  1  0.17606300  0.99889700  0.17759000  1
  Cl  Cl25  1  0.61995900  0.13080200  0.00917800  1
  Cl  Cl26  1  0.38004100  0.86919800  0.99082200  1
  Cl  Cl27  1  0.75827400  0.87336600  0.47519700  1
  Cl  Cl28  1  0.24172600  0.37336600  0.52480300  1
  Cl  Cl29  1  0.51192400  0.48474800  0.14953400  1
  Cl  Cl30  1  0.98807600  0.48474800  0.64953400  1
  Cl  Cl31  1  0.74172600  0.87336600  0.97519700  1
  Cl  Cl32  1  0.42115500  0.25000000  0.89082200  1
  Cl  Cl33  1  0.90113900  0.25000000  0.01956000  1
  Cl  Cl34  1  0.25827400  0.12663400  0.02480300  1
  Cl  Cl35  1  0.14775400  0.25000000  0.17736800  1
  Cl  Cl36  1  0.82393700  0.00110300  0.82241000  1
  Cl  Cl37  1  0.16288100  0.62483400  0.82138800  1
  Cl  Cl38  1  0.75827400  0.62663400  0.47519700  1
  Cl  Cl39  1  0.40113900  0.75000000  0.48044000  1
  Cl  Cl40  1  0.51192400  0.01525200  0.14953400  1
  Cl  Cl41  1  0.83711900  0.37516600  0.17861200  1
  Cl  Cl42  1  0.48807600  0.98474800  0.85046600  1
  Cl  Cl43  1  0.22254300  0.75000000  0.17244100  1
  Cl  Cl44  1  0.66288100  0.12483400  0.67861200  1
  Cl  Cl45  1  0.40021200  0.36494200  0.29425000  1
  Cl  Cl46  1  0.59978800  0.63505800  0.70575000  1
  Cl  Cl47  1  0.09978800  0.13505800  0.79425000  1
  Cl  Cl48  1  0.64775400  0.75000000  0.32263200  1
  Cl  Cl49  1  0.07884500  0.25000000  0.39082200  1
  Cl  Cl50  1  0.82393700  0.49889700  0.82241000  1
  Cl  Cl51  1  0.27745700  0.75000000  0.67244100  1
  Cl  Cl52  1  0.35224600  0.25000000  0.67736800  1
  Cl  Cl53  1  0.38004100  0.63080200  0.99082200  1
  Cl  Cl54  1  0.32393700  0.99889700  0.67759000  1
  Cl  Cl55  1  0.17606300  0.50110300  0.17759000  1
  Cl  Cl56  1  0.11995900  0.63080200  0.49082200  1
  Cl  Cl57  1  0.01192400  0.51525200  0.35046600  1
  Cl  Cl58  1  0.09886100  0.75000000  0.98044000  1
  Cl  Cl59  1  0.72254300  0.25000000  0.32755900  1
  Cl  Cl60  1  0.67606300  0.49889700  0.32241000  1
  Cl  Cl61  1  0.90021200  0.63505800  0.20575000  1
  Cl  Cl62  1  0.32393700  0.50110300  0.67759000  1
  Cl  Cl63  1  0.98807600  0.01525200  0.64953400  1
loop_
_geom_bond_atom_site_label_1
_geom_bond_atom_site_label_2
_geom_bond_distance
_geom_bond_site_symmetry_2
C0 W2 2.146010 1_655
C0 W8 2.146010 1_655
C0 W23 2.151363 1_555
C0 W0 2.151363 1_555
C0 W19 2.199589 1_555
C0 W21 2.201189 1_655
C1 W14 2.146010 1_455
C1 W11 2.146010 1_455
C1 W9 2.151363 1_555
C1 W20 2.151363 1_555
C1 W12 2.199589 1_555
C1 W18 2.201189 1_455
C2 W7 2.146010 1_555
C2 W22 2.146010 1_555
C2 W5 2.151363 1_555
C2 W1 2.151363 1_555
C2 W6 2.199589 1_555
C2 W15 2.201189 1_555
C3 W4 2.146010 1_555
C3 W3 2.146010 1_555
C3 W13 2.151363 1_555
C3 W10 2.151363 1_555
C3 W17 2.199589 1_555
C3 W16 2.201189 1_555
Cl0 W11 2.466734 1_555
Cl0 W9 2.482642 1_655
Cl1 W19 2.463359 1_555
Cl1 W21 2.465538 1_655
Cl2 W17 2.463359 1_555
Cl2 W16 2.465538 1_555
Cl3 W12 2.463359 1_555
Cl3 W18 2.465538 1_455
Cl4 W7 2.411613 1_555
Cl4 W15 2.420751 1_555
Cl5 W18 2.410600 1_555
Cl6 W0 2.400002 1_555
Cl6 W23 2.400002 1_555
Cl7 W2 2.466734 1_555
Cl7 W23 2.482642 1_455
Cl8 W15 2.410600 1_554
Cl9 W8 2.411613 1_555
Cl9 W21 2.420751 1_555
Cl10 W10 2.613182 1_555
Cl10 W11 2.638386 1_545
Cl11 W22 2.466734 1_555
Cl11 W5 2.482642 1_555
Cl12 W7 2.468339 1_555
Cl12 W1 2.474942 1_555
Cl13 W23 2.395316 1_555
Cl13 W19 2.422970 1_555
Cl14 W7 2.399006 1_555
Cl14 W22 2.399006 1_555
Cl15 W9 2.395316 1_555
Cl15 W12 2.422970 1_555
Cl16 W5 2.395316 1_555
Cl16 W6 2.422970 1_555
Cl17 W19 2.396991 1_555
Cl18 W19 2.463359 1_555
Cl18 W21 2.465538 1_655
Cl19 W20 2.395316 1_555
Cl19 W12 2.422970 1_555
Cl20 W11 2.468339 1_455
Cl20 W9 2.474942 1_555
Cl21 W10 2.395316 1_555
Cl21 W17 2.422970 1_555
Cl22 W4 2.411613 1_555
Cl22 W16 2.420751 1_555
Cl23 W3 2.466734 1_555
Cl23 W10 2.482642 1_555
Cl24 W9 2.613182 1_555
Cl24 W3 2.638386 1_565
Cl25 W17 2.463359 1_555
Cl25 W16 2.465538 1_555
Cl26 W6 2.463359 1_555
Cl26 W15 2.465538 1_555
Cl27 W11 2.411613 1_555
Cl27 W18 2.420751 1_555
Cl28 W2 2.411613 1_555
Cl28 W21 2.420751 1_555
Cl29 W4 2.468339 1_555
Cl29 W13 2.474942 1_555
Cl30 W2 2.468339 1_655
Cl30 W23 2.474942 1_555
Cl31 W22 2.411613 1_555
Cl31 W15 2.420751 1_555
Cl32 W16 2.410600 1_556
Cl33 W17 2.396991 1_555
Cl34 W3 2.411613 1_555
Cl34 W16 2.420751 1_555
Cl35 W4 2.399006 1_555
Cl35 W3 2.399006 1_555
Cl36 W0 2.613182 1_555
Cl36 W22 2.638386 1_545
Cl37 W1 2.395316 1_555
Cl37 W6 2.422970 1_555
Cl38 W14 2.411613 1_555
Cl38 W18 2.420751 1_555
Cl39 W12 2.396991 1_555
Cl40 W3 2.468339 1_555
Cl40 W10 2.474942 1_555
Cl41 W13 2.395316 1_555
Cl41 W17 2.422970 1_555
Cl42 W22 2.468339 1_555
Cl42 W5 2.474942 1_555
Cl43 W9 2.400002 1_555
Cl43 W20 2.400002 1_555
Cl44 W0 2.395316 1_555
Cl44 W19 2.422970 1_555
Cl45 W4 2.466734 1_555
Cl45 W13 2.482642 1_555
Cl46 W7 2.466734 1_555
Cl46 W1 2.482642 1_555
Cl47 W8 2.466734 1_555
Cl47 W0 2.482642 1_455
Cl48 W14 2.399006 1_555
Cl48 W11 2.399006 1_555
Cl49 W21 2.410600 1_555
Cl50 W23 2.613182 1_555
Cl50 W7 2.638386 1_555
Cl51 W5 2.400002 1_555
Cl51 W1 2.400002 1_555
Cl52 W2 2.399006 1_555
Cl52 W8 2.399006 1_555
Cl53 W6 2.463359 1_555
Cl53 W15 2.465538 1_555
Cl54 W5 2.613182 1_555
Cl54 W8 2.638386 1_565
Cl55 W20 2.613182 1_555
Cl55 W4 2.638386 1_555
Cl56 W12 2.463359 1_555
Cl56 W18 2.465538 1_455
Cl57 W14 2.468339 1_455
Cl57 W20 2.474942 1_555
Cl58 W6 2.396991 1_555
Cl59 W13 2.400002 1_555
Cl59 W10 2.400002 1_555
Cl60 W13 2.613182 1_555
Cl60 W14 2.638386 1_555
Cl61 W14 2.466734 1_555
Cl61 W20 2.482642 1_655
Cl62 W1 2.613182 1_555
Cl62 W2 2.638386 1_555
Cl63 W8 2.468339 1_655
Cl63 W0 2.474942 1_555
