# generated using pymatgen
data_Cs2SnCl6
_symmetry_space_group_name_H-M   'P 1'
_cell_length_a   7.41973152
_cell_length_b   7.41973322
_cell_length_c   7.41973315
_cell_angle_alpha   59.99998963
_cell_angle_beta   60.00005836
_cell_angle_gamma   60.00005093
_symmetry_Int_Tables_number   1
_chemical_formula_structural   Cs2SnCl6
_chemical_formula_sum   'Cs2 Sn1 Cl6'
_cell_volume   288.83518313
_cell_formula_units_Z   1
loop_
 _symmetry_equiv_pos_site_id
 _symmetry_equiv_pos_as_xyz
  1  'x, y, z'
loop_
 _atom_site_type_symbol
 _atom_site_label
 _atom_site_symmetry_multiplicity
 _atom_site_fract_x
 _atom_site_fract_y
 _atom_site_fract_z
 _atom_site_occupancy
  Cs  Cs0  1  0.25000000  0.25000000  0.25000000  1
  Cs  Cs1  1  0.75000000  0.75000000  0.75000000  1
  Sn  Sn0  1  -0.00000000  -0.00000000  0.00000000  1
  Cl  Cl0  1  0.23384155  0.76615845  0.23384155  1
  Cl  Cl1  1  0.23384155  0.23384155  0.76615845  1
  Cl  Cl2  1  0.76615745  0.23384255  0.23384155  1
  Cl  Cl3  1  0.76615845  0.23384155  0.76615845  1
  Cl  Cl4  1  0.76615845  0.76615845  0.23384155  1
  Cl  Cl5  1  0.23384155  0.76615845  0.76615845  1
loop_
_geom_bond_atom_site_label_1
_geom_bond_atom_site_label_2
_geom_bond_distance
_geom_bond_site_symmetry_2
Cl0 Sn0 2.453719 1_565
Cl0 Cs0 3.713739 1_565
Cl0 Cs0 3.713739 1_555
Cl0 Cs1 3.713742 1_455
Cl0 Cs1 3.713742 1_554
Cl1 Sn0 2.453719 1_556
Cl1 Cs0 3.713739 1_556
Cl1 Cs0 3.713739 1_555
Cl1 Cs1 3.713741 1_455
Cl1 Cs1 3.713742 1_545
Cl2 Sn0 2.453727 1_655
Cl2 Cs0 3.713734 1_555
Cl2 Cs1 3.713735 1_554
Cl2 Cs0 3.713742 1_655
Cl2 Cs1 3.713742 1_545
Cl3 Sn0 2.453719 1_656
Cl3 Cs1 3.713739 1_545
Cl3 Cs1 3.713739 1_555
Cl3 Cs0 3.713742 1_655
Cl3 Cs0 3.713742 1_556
Cl4 Sn0 2.453719 1_665
Cl4 Cs1 3.713739 1_554
Cl4 Cs1 3.713739 1_555
Cl4 Cs0 3.713741 1_655
Cl4 Cs0 3.713742 1_565
Cl5 Sn0 2.453722 1_566
Cl5 Cs1 3.713738 1_455
Cl5 Cs1 3.713738 1_555
Cl5 Cs0 3.713739 1_556
Cl5 Cs0 3.713739 1_565
