# generated using pymatgen
data_Te(HO)6
_symmetry_space_group_name_H-M   'P 1'
_cell_length_a   5.95153404
_cell_length_b   5.95153404
_cell_length_c   5.95153404
_cell_angle_alpha   124.42487676
_cell_angle_beta   124.42487676
_cell_angle_gamma   82.49282205
_symmetry_Int_Tables_number   1
_chemical_formula_structural   Te(HO)6
_chemical_formula_sum   'Te1 H6 O6'
_cell_volume   137.79402832
_cell_formula_units_Z   1
loop_
 _symmetry_equiv_pos_site_id
 _symmetry_equiv_pos_as_xyz
  1  'x, y, z'
loop_
 _atom_site_type_symbol
 _atom_site_label
 _atom_site_symmetry_multiplicity
 _atom_site_fract_x
 _atom_site_fract_y
 _atom_site_fract_z
 _atom_site_occupancy
  Te  Te0  1  0.00000000  0.00000000  0.00000000  1
  H  H0  1  0.68430000  0.68430000  0.00000000  1
  H  H1  1  0.40131600  0.80343400  0.20475000  1
  H  H2  1  0.19656600  0.40131600  0.59788200  1
  H  H3  1  0.31570000  0.31570000  0.00000000  1
  H  H4  1  0.59868400  0.19656600  0.79525000  1
  H  H5  1  0.80343400  0.59868400  0.40211800  1
  O  O0  1  0.79123700  0.79123700  0.00000000  1
  O  O1  1  0.23494900  0.73892700  0.97387600  1
  O  O2  1  0.26107300  0.23494900  0.49602300  1
  O  O3  1  0.20876300  0.20876300  0.00000000  1
  O  O4  1  0.76505100  0.26107300  0.02612400  1
  O  O5  1  0.73892700  0.76505100  0.50397700  1
loop_
_geom_bond_atom_site_label_1
_geom_bond_atom_site_label_2
_geom_bond_distance
_geom_bond_site_symmetry_2
H0 O0 0.957053 1_555
H1 O1 0.990163 1_554
H2 O2 0.990162 1_555
H3 O3 0.957053 1_555
H4 O4 0.990163 1_556
H5 O5 0.990162 1_555
O0 Te0 1.868365 1_665
O1 Te0 1.949008 1_566
O2 Te0 1.949012 1_555
O3 Te0 1.868365 1_555
O4 Te0 1.949008 1_655
O5 Te0 1.949012 1_666
