# generated using pymatgen
data_Mo9O26
_symmetry_space_group_name_H-M   'P 1'
_cell_length_a   8.52038000
_cell_length_b   12.09150258
_cell_length_c   20.14396695
_cell_angle_alpha   95.41450339
_cell_angle_beta   92.41094380
_cell_angle_gamma   109.69235899
_symmetry_Int_Tables_number   1
_chemical_formula_structural   Mo9O26
_chemical_formula_sum   'Mo36 O104'
_cell_volume   1939.17468605
_cell_formula_units_Z   4
loop_
 _symmetry_equiv_pos_site_id
 _symmetry_equiv_pos_as_xyz
  1  'x, y, z'
loop_
 _atom_site_type_symbol
 _atom_site_label
 _atom_site_symmetry_multiplicity
 _atom_site_fract_x
 _atom_site_fract_y
 _atom_site_fract_z
 _atom_site_occupancy
  Mo  Mo0  1  0.64485300  0.19694200  0.34854000  1
  Mo  Mo1  1  0.43178600  0.01332400  0.17711500  1
  Mo  Mo2  1  0.37323000  0.99278100  0.43323600  1
  Mo  Mo3  1  0.99683500  0.35305800  0.15555200  1
  Mo  Mo4  1  0.39800500  0.51027400  0.69742000  1
  Mo  Mo5  1  0.78357700  0.17194600  0.99067600  1
  Mo  Mo6  1  0.62384500  0.69779600  0.86138300  1
  Mo  Mo7  1  0.93701000  0.92652000  0.79878400  1
  Mo  Mo8  1  0.37615500  0.30220400  0.13861700  1
  Mo  Mo9  1  0.13758300  0.80642500  0.25980300  1
  Mo  Mo10  1  0.72915500  0.93027300  0.40707900  1
  Mo  Mo11  1  0.00316500  0.64694200  0.84444800  1
  Mo  Mo12  1  0.30011300  0.56642100  0.07444000  1
  Mo  Mo13  1  0.08157000  0.38239100  0.91035200  1
  Mo  Mo14  1  0.91843000  0.61760900  0.08964800  1
  Mo  Mo15  1  0.21642300  0.82805400  0.00932400  1
  Mo  Mo16  1  0.51660000  0.75025800  0.23847600  1
  Mo  Mo17  1  0.69504600  0.72954900  0.62547400  1
  Mo  Mo18  1  0.21728300  0.54024300  0.31889200  1
  Mo  Mo19  1  0.84307100  0.88513500  0.03088100  1
  Mo  Mo20  1  0.60199500  0.48972600  0.30258000  1
  Mo  Mo21  1  0.62677000  0.00721900  0.56676400  1
  Mo  Mo22  1  0.06299000  0.07348000  0.20121600  1
  Mo  Mo23  1  0.34106900  0.62148500  0.49358100  1
  Mo  Mo24  1  0.27084500  0.06972700  0.59292100  1
  Mo  Mo25  1  0.86241700  0.19357500  0.74019700  1
  Mo  Mo26  1  0.78271700  0.45975700  0.68110800  1
  Mo  Mo27  1  0.56821400  0.98667600  0.82288500  1
  Mo  Mo28  1  0.30495400  0.27045100  0.37452600  1
  Mo  Mo29  1  0.48340000  0.24974200  0.76152400  1
  Mo  Mo30  1  0.65893100  0.37851500  0.50641900  1
  Mo  Mo31  1  0.82696200  0.67381000  0.46578700  1
  Mo  Mo32  1  0.15692900  0.11486500  0.96911900  1
  Mo  Mo33  1  0.69988700  0.43357900  0.92556000  1
  Mo  Mo34  1  0.17303800  0.32619000  0.53421300  1
  Mo  Mo35  1  0.35514700  0.80305800  0.65146000  1
  O  O0  1  0.32739800  0.42744300  0.34858800  1
  O  O1  1  0.87414500  0.04209000  0.00323000  1
  O  O2  1  0.34418000  0.14284800  0.16855800  1
  O  O3  1  0.48371400  0.60316700  0.03817300  1
  O  O4  1  0.04723000  0.22451700  0.94043400  1
  O  O5  1  0.18692800  0.68556200  0.80785100  1
  O  O6  1  0.65248400  0.35058000  0.59260500  1
  O  O7  1  0.37299200  0.94193400  0.85056900  1
  O  O8  1  0.96112800  0.77687900  0.30176800  1
  O  O9  1  0.29348000  0.20769400  0.79335400  1
  O  O10  1  0.01431700  0.00887900  0.87814400  1
  O  O11  1  0.51628600  0.39683300  0.96182700  1
  O  O12  1  0.55483000  0.33552800  0.09805900  1
  O  O13  1  0.81252300  0.52417500  0.50714100  1
  O  O14  1  0.21275600  0.98035500  0.48979600  1
  O  O15  1  0.34751600  0.64942000  0.40739500  1
  O  O16  1  0.08963900  0.73798300  0.93361600  1
  O  O17  1  0.78299100  0.52194000  0.26414100  1
  O  O18  1  0.54439400  0.62707400  0.52560000  1
  O  O19  1  0.76575400  0.80427400  0.94997000  1
  O  O20  1  0.48234500  0.89765300  0.46631100  1
  O  O21  1  0.11232900  0.95541400  0.75625100  1
  O  O22  1  0.23424600  0.19572600  0.05003000  1
  O  O23  1  0.26977400  0.41281600  0.11415700  1
  O  O24  1  0.81307200  0.31443800  0.19214900  1
  O  O25  1  0.60214100  0.84639400  0.59611800  1
  O  O26  1  0.62700800  0.05806600  0.14943100  1
  O  O27  1  0.58199500  0.12326300  0.77471500  1
  O  O28  1  0.73022600  0.58718400  0.88584300  1
  O  O29  1  0.15294800  0.75096200  0.67194300  1
  O  O30  1  0.85381000  0.74556500  0.56719100  1
  O  O31  1  0.98568300  0.99112100  0.12185600  1
  O  O32  1  0.61320900  0.34178300  0.83640200  1
  O  O33  1  0.02627900  0.71831200  0.44244800  1
  O  O34  1  0.92535500  0.00034200  0.38398500  1
  O  O35  1  0.68514600  0.57360400  0.39106200  1
  O  O36  1  0.45539900  0.38133600  0.22119300  1
  O  O37  1  0.84705200  0.24903800  0.32805700  1
  O  O38  1  0.37533800  0.93908500  0.60333800  1
  O  O39  1  0.72720100  0.28341600  0.45121400  1
  O  O40  1  0.96288500  0.49697500  0.64156500  1
  O  O41  1  0.82500800  0.03451000  0.76658700  1
  O  O42  1  0.50316700  0.38890400  0.71684900  1
  O  O43  1  0.66611300  0.85193800  0.07243900  1
  O  O44  1  0.72733100  0.08952900  0.64295800  1
  O  O45  1  0.58968900  0.12834300  0.01942000  1
  O  O46  1  0.97372100  0.28168800  0.55755200  1
  O  O47  1  0.31485400  0.42639600  0.60893800  1
  O  O48  1  0.25016800  0.19586000  0.55471100  1
  O  O49  1  0.03711500  0.50302500  0.35843500  1
  O  O50  1  0.38679100  0.65821700  0.16359800  1
  O  O51  1  0.27266900  0.91047100  0.35704200  1
  O  O52  1  0.89855000  0.76994300  0.82351700  1
  O  O53  1  0.39785900  0.15360600  0.40388200  1
  O  O54  1  0.67260200  0.57255700  0.65141200  1
  O  O55  1  0.17499200  0.96549000  0.23341300  1
  O  O56  1  0.27279900  0.71658400  0.54878600  1
  O  O57  1  0.41031100  0.87165700  0.98058000  1
  O  O58  1  0.02212000  0.50698500  0.11611700  1
  O  O59  1  0.95277000  0.77548300  0.05956600  1
  O  O60  1  0.49683300  0.61109600  0.28315100  1
  O  O61  1  0.51765500  0.10234700  0.53368900  1
  O  O62  1  0.46786700  0.88749700  0.72716800  1
  O  O63  1  0.91036100  0.26201700  0.06638400  1
  O  O64  1  0.14619000  0.25443500  0.43280900  1
  O  O65  1  0.79943500  0.30964700  0.94652300  1
  O  O66  1  0.83932300  0.53900600  0.00697100  1
  O  O67  1  0.44517000  0.66447200  0.90194100  1
  O  O68  1  0.30797600  0.92357300  0.10334000  1
  O  O69  1  0.78724400  0.01964500  0.51020400  1
  O  O70  1  0.97788000  0.49301500  0.88388300  1
  O  O71  1  0.45560600  0.37292600  0.47440000  1
  O  O72  1  0.18747700  0.47582500  0.49285900  1
  O  O73  1  0.33388700  0.14806200  0.92756100  1
  O  O74  1  0.19813100  0.18526100  0.30110300  1
  O  O75  1  0.55667800  0.32973000  0.34359400  1
  O  O76  1  0.69202400  0.07642700  0.89666000  1
  O  O77  1  0.54460100  0.61866400  0.77880700  1
  O  O78  1  0.39009400  0.15099900  0.67073500  1
  O  O79  1  0.88767100  0.04458600  0.24374900  1
  O  O80  1  0.20056500  0.69035300  0.05347700  1
  O  O81  1  0.21700900  0.47806000  0.73585900  1
  O  O82  1  0.16067700  0.46099400  0.99302900  1
  O  O83  1  0.14111700  0.45698700  0.23766400  1
  O  O84  1  0.03887200  0.22312100  0.69823200  1
  O  O85  1  0.60990600  0.84900100  0.32926500  1
  O  O86  1  0.85888300  0.54301300  0.76233600  1
  O  O87  1  0.41800500  0.87673700  0.22528500  1
  O  O88  1  0.70652000  0.79230600  0.20664600  1
  O  O89  1  0.80186900  0.81473900  0.69889700  1
  O  O90  1  0.53213300  0.11250300  0.27283200  1
  O  O91  1  0.24261400  0.69472600  0.28864500  1
  O  O92  1  0.94062700  0.27271700  0.82072700  1
  O  O93  1  0.12585500  0.95791000  0.99677000  1
  O  O94  1  0.73869900  0.58646600  0.12920900  1
  O  O95  1  0.10145000  0.23005700  0.17648300  1
  O  O96  1  0.75738600  0.30527400  0.71135500  1
  O  O97  1  0.74983200  0.80414000  0.44528900  1
  O  O98  1  0.05937300  0.72728300  0.17927300  1
  O  O99  1  0.26130100  0.41353400  0.87079100  1
  O  O100  1  0.65582000  0.85715200  0.83144200  1
  O  O101  1  0.62466200  0.06091500  0.39666200  1
  O  O102  1  0.07464500  0.99965800  0.61601500  1
  O  O103  1  0.44332200  0.67027000  0.65640600  1
loop_
_geom_bond_atom_site_label_1
_geom_bond_atom_site_label_2
_geom_bond_distance
_geom_bond_site_symmetry_2
Mo0 O37 1.706635 1_555
Mo0 O90 1.792402 1_555
Mo0 O101 1.949043 1_555
Mo0 O75 1.997291 1_555
Mo0 O39 2.199692 1_555
Mo0 O53 2.347480 1_555
Mo1 O26 1.702636 1_555
Mo1 O68 1.814195 1_545
Mo1 O87 1.965771 1_545
Mo1 O2 1.966633 1_555
Mo1 O90 2.149587 1_555
Mo1 O55 2.426433 1_545
Mo2 O51 1.762612 1_555
Mo2 O14 1.793071 1_555
Mo2 O20 1.855940 1_555
Mo2 O53 2.031658 1_565
Mo2 O101 2.206543 1_565
Mo2 O61 2.355830 1_565
Mo3 O24 1.697757 1_555
Mo3 O63 1.987431 1_555
Mo3 O95 2.040690 1_655
Mo3 O58 2.040769 1_655
Mo3 O83 2.054724 1_655
Mo3 O23 2.402077 1_655
Mo4 O81 1.697669 1_555
Mo4 O47 1.943139 1_555
Mo4 O42 2.018615 1_555
Mo4 O77 2.069926 1_555
Mo4 O103 2.097468 1_555
Mo4 O54 2.454957 1_555
Mo5 O45 1.701010 1_556
Mo5 O63 1.853086 1_556
Mo5 O65 1.928614 1_555
Mo5 O1 1.999978 1_556
Mo5 O76 2.094007 1_555
Mo5 O4 2.413526 1_655
Mo6 O67 1.703186 1_555
Mo6 O77 1.818811 1_555
Mo6 O28 1.938288 1_555
Mo6 O100 2.007514 1_555
Mo6 O19 2.154006 1_555
Mo6 O52 2.391842 1_555
Mo7 O21 1.702933 1_655
Mo7 O10 1.774845 1_665
Mo7 O52 1.927080 1_555
Mo7 O41 1.995968 1_565
Mo7 O89 2.333297 1_555
Mo7 O100 2.399752 1_555
Mo8 O12 1.703186 1_555
Mo8 O36 1.818811 1_555
Mo8 O23 1.938288 1_555
Mo8 O2 2.007514 1_555
Mo8 O22 2.154006 1_555
Mo8 O95 2.391842 1_555
Mo9 O8 1.704281 1_455
Mo9 O98 1.782596 1_555
Mo9 O55 1.969129 1_555
Mo9 O91 1.970142 1_555
Mo9 O51 2.261351 1_555
Mo9 O87 2.407777 1_555
Mo10 O34 1.707073 1_565
Mo10 O97 1.827768 1_555
Mo10 O85 1.832335 1_555
Mo10 O101 2.080070 1_565
Mo10 O69 2.203975 1_565
Mo10 O20 2.396329 1_555
Mo11 O5 1.697757 1_555
Mo11 O16 1.987431 1_555
Mo11 O52 2.040690 1_455
Mo11 O70 2.040769 1_455
Mo11 O86 2.054724 1_455
Mo11 O28 2.402077 1_455
Mo12 O3 1.693312 1_555
Mo12 O50 1.990670 1_555
Mo12 O80 2.022176 1_555
Mo12 O23 2.032436 1_555
Mo12 O82 2.036365 1_554
Mo12 O58 2.442451 1_555
Mo13 O99 1.700782 1_555
Mo13 O82 1.818357 1_555
Mo13 O70 1.935309 1_455
Mo13 O4 1.988376 1_555
Mo13 O92 2.180071 1_455
Mo13 O65 2.434462 1_455
Mo14 O94 1.700782 1_555
Mo14 O66 1.818357 1_555
Mo14 O58 1.935309 1_655
Mo14 O59 1.988376 1_555
Mo14 O98 2.180071 1_655
Mo14 O80 2.434462 1_655
Mo15 O57 1.701010 1_554
Mo15 O16 1.853086 1_554
Mo15 O80 1.928614 1_555
Mo15 O93 1.999978 1_554
Mo15 O68 2.094007 1_555
Mo15 O59 2.413526 1_455
Mo16 O88 1.697792 1_555
Mo16 O50 1.857483 1_555
Mo16 O60 1.943498 1_555
Mo16 O87 2.009697 1_555
Mo16 O85 2.056243 1_555
Mo16 O91 2.488383 1_555
Mo17 O89 1.744814 1_555
Mo17 O30 1.801597 1_555
Mo17 O25 1.960714 1_555
Mo17 O54 1.965690 1_555
Mo17 O103 2.159344 1_555
Mo17 O18 2.339002 1_555
Mo18 O49 1.702498 1_555
Mo18 O83 1.808706 1_555
Mo18 O91 1.964978 1_555
Mo18 O0 2.016817 1_555
Mo18 O15 2.134142 1_555
Mo18 O60 2.410618 1_555
Mo19 O43 1.702049 1_555
Mo19 O19 1.794784 1_554
Mo19 O1 1.963503 1_565
Mo19 O59 1.974773 1_555
Mo19 O31 2.190251 1_555
Mo19 O93 2.424114 1_654
Mo20 O17 1.697669 1_555
Mo20 O35 1.943139 1_555
Mo20 O60 2.018615 1_555
Mo20 O36 2.069926 1_555
Mo20 O75 2.097468 1_555
Mo20 O0 2.454957 1_555
Mo21 O44 1.762612 1_555
Mo21 O69 1.793071 1_555
Mo21 O61 1.855940 1_555
Mo21 O25 2.031658 1_545
Mo21 O38 2.206543 1_545
Mo21 O20 2.355830 1_545
Mo22 O79 1.702933 1_455
Mo22 O31 1.774845 1_445
Mo22 O95 1.927080 1_555
Mo22 O55 1.995968 1_545
Mo22 O74 2.333297 1_555
Mo22 O2 2.399752 1_555
Mo23 O56 1.777958 1_555
Mo23 O15 1.799289 1_555
Mo23 O18 1.800187 1_555
Mo23 O72 1.804167 1_555
Mo24 O102 1.707073 1_545
Mo24 O48 1.827768 1_555
Mo24 O78 1.832335 1_555
Mo24 O38 2.080070 1_545
Mo24 O14 2.203975 1_545
Mo24 O61 2.396329 1_555
Mo25 O84 1.704281 1_655
Mo25 O92 1.782596 1_555
Mo25 O41 1.969129 1_555
Mo25 O96 1.970142 1_555
Mo25 O44 2.261351 1_555
Mo25 O27 2.407777 1_555
Mo26 O40 1.702498 1_555
Mo26 O86 1.808706 1_555
Mo26 O96 1.964978 1_555
Mo26 O54 2.016817 1_555
Mo26 O6 2.134142 1_555
Mo26 O42 2.410618 1_555
Mo27 O7 1.702636 1_555
Mo27 O76 1.814195 1_565
Mo27 O27 1.965771 1_565
Mo27 O100 1.966633 1_555
Mo27 O62 2.149587 1_555
Mo27 O41 2.426433 1_565
Mo28 O74 1.744814 1_555
Mo28 O64 1.801597 1_555
Mo28 O53 1.960714 1_555
Mo28 O0 1.965690 1_555
Mo28 O75 2.159344 1_555
Mo28 O71 2.339002 1_555
Mo29 O9 1.697792 1_555
Mo29 O32 1.857483 1_555
Mo29 O42 1.943498 1_555
Mo29 O27 2.009697 1_555
Mo29 O78 2.056243 1_555
Mo29 O96 2.488383 1_555
Mo30 O39 1.777958 1_555
Mo30 O6 1.799289 1_555
Mo30 O71 1.800187 1_555
Mo30 O13 1.804167 1_555
Mo31 O33 1.701090 1_655
Mo31 O35 1.926142 1_555
Mo31 O97 1.970715 1_555
Mo31 O13 2.031192 1_555
Mo31 O30 2.114262 1_555
Mo32 O73 1.702049 1_555
Mo32 O22 1.794784 1_556
Mo32 O93 1.963503 1_545
Mo32 O4 1.974773 1_555
Mo32 O10 2.190251 1_555
Mo32 O1 2.424114 1_456
Mo33 O11 1.693312 1_555
Mo33 O32 1.990670 1_555
Mo33 O65 2.022176 1_555
Mo33 O28 2.032436 1_555
Mo33 O66 2.036365 1_556
Mo33 O70 2.442451 1_555
Mo34 O46 1.701090 1_455
Mo34 O47 1.926142 1_555
Mo34 O48 1.970715 1_555
Mo34 O72 2.031192 1_555
Mo34 O64 2.114262 1_555
Mo35 O29 1.706635 1_555
Mo35 O62 1.792402 1_555
Mo35 O38 1.949043 1_555
Mo35 O103 1.997291 1_555
Mo35 O56 2.199692 1_555
Mo35 O25 2.347480 1_555
