# generated using pymatgen
data_Ca3Al2O6
_symmetry_space_group_name_H-M   'P 1'
_cell_length_a   7.66780700
_cell_length_b   7.66780700
_cell_length_c   7.66780700
_cell_angle_alpha   90.00000000
_cell_angle_beta   90.00000000
_cell_angle_gamma   90.00000000
_symmetry_Int_Tables_number   1
_chemical_formula_structural   Ca3Al2O6
_chemical_formula_sum   'Ca9 Al6 O18'
_cell_volume   450.83073832
_cell_formula_units_Z   3
loop_
 _symmetry_equiv_pos_site_id
 _symmetry_equiv_pos_as_xyz
  1  'x, y, z'
loop_
 _atom_site_type_symbol
 _atom_site_label
 _atom_site_symmetry_multiplicity
 _atom_site_fract_x
 _atom_site_fract_y
 _atom_site_fract_z
 _atom_site_occupancy
  Ca  Ca0  1  0.79223900  0.79223900  0.20776100  1
  Ca  Ca1  1  0.20776100  0.20776100  0.79223900  1
  Ca  Ca2  1  0.79223900  0.79223900  0.79223900  1
  Ca  Ca3  1  0.79223900  0.20776100  0.20776100  1
  Ca  Ca4  1  0.50000000  0.50000000  0.50000000  1
  Ca  Ca5  1  0.79223900  0.20776100  0.79223900  1
  Ca  Ca6  1  0.20776100  0.79223900  0.79223900  1
  Ca  Ca7  1  0.20776100  0.79223900  0.20776100  1
  Ca  Ca8  1  0.20776100  0.20776100  0.20776100  1
  Al  Al0  1  0.50000000  0.00000000  0.00000000  1
  Al  Al1  1  0.00000000  0.50000000  0.00000000  1
  Al  Al2  1  0.50000000  0.50000000  0.00000000  1
  Al  Al3  1  0.00000000  0.00000000  0.50000000  1
  Al  Al4  1  0.00000000  0.50000000  0.50000000  1
  Al  Al5  1  0.50000000  0.00000000  0.50000000  1
  O  O0  1  0.00000000  0.00000000  0.73325200  1
  O  O1  1  0.00000000  0.26674800  0.00000000  1
  O  O2  1  0.00000000  0.50000000  0.73729500  1
  O  O3  1  0.50000000  0.73729500  0.00000000  1
  O  O4  1  0.26270500  0.00000000  0.50000000  1
  O  O5  1  0.73729500  0.00000000  0.50000000  1
  O  O6  1  0.73325200  0.00000000  0.00000000  1
  O  O7  1  0.00000000  0.00000000  0.26674800  1
  O  O8  1  0.00000000  0.50000000  0.26270500  1
  O  O9  1  0.50000000  0.26270500  0.00000000  1
  O  O10  1  0.00000000  0.73729500  0.50000000  1
  O  O11  1  0.50000000  0.00000000  0.73729500  1
  O  O12  1  0.26270500  0.50000000  0.00000000  1
  O  O13  1  0.26674800  0.00000000  0.00000000  1
  O  O14  1  0.00000000  0.73325200  0.00000000  1
  O  O15  1  0.00000000  0.26270500  0.50000000  1
  O  O16  1  0.73729500  0.50000000  0.00000000  1
  O  O17  1  0.50000000  0.00000000  0.26270500  1
loop_
_geom_bond_atom_site_label_1
_geom_bond_atom_site_label_2
_geom_bond_distance
_geom_bond_site_symmetry_2
Ca0 O14 2.297896 1_655
Ca0 O6 2.297896 1_565
Ca0 O7 2.297896 1_665
Ca0 O16 2.781492 1_555
Ca0 O3 2.781492 1_555
Ca0 O17 2.781492 1_565
Ca0 O8 2.781492 1_655
Ca0 O10 2.781492 1_655
Ca0 O5 2.781492 1_565
Ca1 O0 2.297896 1_555
Ca1 O13 2.297896 1_556
Ca1 O1 2.297896 1_556
Ca1 O15 2.781492 1_555
Ca1 O4 2.781492 1_555
Ca1 O2 2.781492 1_555
Ca1 O11 2.781492 1_555
Ca1 O12 2.781492 1_556
Ca1 O9 2.781492 1_556
Ca2 O14 2.297896 1_656
Ca2 O6 2.297896 1_566
Ca2 O0 2.297896 1_665
Ca2 O10 2.781492 1_655
Ca2 O2 2.781492 1_655
Ca2 O5 2.781492 1_565
Ca2 O3 2.781492 1_556
Ca2 O11 2.781492 1_565
Ca2 O16 2.781492 1_556
Ca3 O6 2.297896 1_555
Ca3 O7 2.297896 1_655
Ca3 O1 2.297896 1_655
Ca3 O9 2.781492 1_555
Ca3 O17 2.781492 1_555
Ca3 O5 2.781492 1_555
Ca3 O16 2.781492 1_555
Ca3 O8 2.781492 1_655
Ca3 O15 2.781492 1_655
Ca5 O6 2.297896 1_556
Ca5 O0 2.297896 1_655
Ca5 O1 2.297896 1_656
Ca5 O5 2.781492 1_555
Ca5 O11 2.781492 1_555
Ca5 O15 2.781492 1_655
Ca5 O9 2.781492 1_556
Ca5 O2 2.781492 1_655
Ca5 O16 2.781492 1_556
Ca6 O14 2.297896 1_556
Ca6 O0 2.297896 1_565
Ca6 O13 2.297896 1_566
Ca6 O10 2.781492 1_555
Ca6 O2 2.781492 1_555
Ca6 O12 2.781492 1_556
Ca6 O4 2.781492 1_565
Ca6 O11 2.781492 1_565
Ca6 O3 2.781492 1_556
Ca7 O14 2.297896 1_555
Ca7 O7 2.297896 1_565
Ca7 O13 2.297896 1_565
Ca7 O12 2.781492 1_555
Ca7 O8 2.781492 1_555
Ca7 O10 2.781492 1_555
Ca7 O3 2.781492 1_555
Ca7 O4 2.781492 1_565
Ca7 O17 2.781492 1_565
Ca8 O7 2.297896 1_555
Ca8 O1 2.297896 1_555
Ca8 O13 2.297896 1_555
Ca8 O15 2.781492 1_555
Ca8 O8 2.781492 1_555
Ca8 O17 2.781492 1_555
Ca8 O4 2.781492 1_555
Ca8 O12 2.781492 1_555
Ca8 O9 2.781492 1_555
Al0 O13 1.788531 1_555
Al0 O6 1.788531 1_555
Al0 O9 2.014371 1_555
Al0 O17 2.014371 1_555
Al0 O3 2.014371 1_545
Al0 O11 2.014371 1_554
Al1 O14 1.788531 1_555
Al1 O1 1.788531 1_555
Al1 O8 2.014371 1_555
Al1 O12 2.014371 1_555
Al1 O2 2.014371 1_554
Al1 O16 2.014371 1_455
Al2 O3 1.819532 1_555
Al2 O16 1.819532 1_555
Al2 O12 1.819532 1_555
Al2 O9 1.819532 1_555
Al3 O7 1.788531 1_555
Al3 O0 1.788531 1_555
Al3 O15 2.014371 1_555
Al3 O4 2.014371 1_555
Al3 O10 2.014371 1_545
Al3 O5 2.014371 1_455
Al4 O2 1.819532 1_555
Al4 O10 1.819532 1_555
Al4 O8 1.819532 1_555
Al4 O15 1.819532 1_555
Al5 O5 1.819532 1_555
Al5 O11 1.819532 1_555
Al5 O4 1.819532 1_555
Al5 O17 1.819532 1_555
