# generated using pymatgen
data_ScTl(MoO4)2
_symmetry_space_group_name_H-M   'P 1'
_cell_length_a   5.81030554
_cell_length_b   9.00075519
_cell_length_c   15.07540019
_cell_angle_alpha   90.00000000
_cell_angle_beta   90.00000000
_cell_angle_gamma   90.00000000
_symmetry_Int_Tables_number   1
_chemical_formula_structural   ScTl(MoO4)2
_chemical_formula_sum   'Sc4 Tl4 Mo8 O32'
_cell_volume   788.40028029
_cell_formula_units_Z   4
loop_
 _symmetry_equiv_pos_site_id
 _symmetry_equiv_pos_as_xyz
  1  'x, y, z'
loop_
 _atom_site_type_symbol
 _atom_site_label
 _atom_site_symmetry_multiplicity
 _atom_site_fract_x
 _atom_site_fract_y
 _atom_site_fract_z
 _atom_site_occupancy
  Sc  Sc0  1  0.25000000  0.31279615  0.61704809  1
  Sc  Sc1  1  0.25000000  0.18720385  0.11704809  1
  Sc  Sc2  1  0.75000000  0.81279615  0.88295191  1
  Sc  Sc3  1  0.75000000  0.68720385  0.38295191  1
  Tl  Tl0  1  0.75000000  0.57660958  0.12325610  1
  Tl  Tl1  1  0.25000000  0.42339042  0.87674390  1
  Tl  Tl2  1  0.75000000  0.92339042  0.62325610  1
  Tl  Tl3  1  0.25000000  0.07660958  0.37674390  1
  Mo  Mo0  1  0.75000000  0.50426113  0.71936311  1
  Mo  Mo1  1  0.75000000  0.28970999  0.46667828  1
  Mo  Mo2  1  0.25000000  0.71029001  0.53332172  1
  Mo  Mo3  1  0.25000000  0.78970999  0.03332172  1
  Mo  Mo4  1  0.75000000  0.99573887  0.21936311  1
  Mo  Mo5  1  0.25000000  0.49573887  0.28063689  1
  Mo  Mo6  1  0.75000000  0.21029001  0.96667828  1
  Mo  Mo7  1  0.25000000  0.00426113  0.78063689  1
  O  O0  1  0.75000000  0.18992336  0.36882029  1
  O  O1  1  0.99662651  0.23616347  0.52950980  1
  O  O2  1  0.99504984  0.60420231  0.29291886  1
  O  O3  1  0.75000000  0.01795056  0.94566258  1
  O  O4  1  0.25000000  0.68992336  0.13117971  1
  O  O5  1  0.75000000  0.48204944  0.44566258  1
  O  O6  1  0.25000000  0.51795056  0.55433742  1
  O  O7  1  0.50337349  0.26383653  0.02950980  1
  O  O8  1  0.00337349  0.76383653  0.47049020  1
  O  O9  1  0.49504984  0.10420231  0.20708114  1
  O  O10  1  0.25000000  0.39138967  0.18081428  1
  O  O11  1  0.00495016  0.10420231  0.20708114  1
  O  O12  1  0.75000000  0.60861033  0.81918572  1
  O  O13  1  0.50495016  0.89579769  0.79291886  1
  O  O14  1  0.50337349  0.23616347  0.52950980  1
  O  O15  1  0.25000000  0.81007664  0.63117971  1
  O  O16  1  0.75000000  0.63229694  0.63438613  1
  O  O17  1  0.75000000  0.31007664  0.86882029  1
  O  O18  1  0.25000000  0.10861033  0.68081428  1
  O  O19  1  0.49662651  0.73616347  0.97049020  1
  O  O20  1  0.49504984  0.39579769  0.70708114  1
  O  O21  1  0.25000000  0.98204944  0.05433742  1
  O  O22  1  0.75000000  0.89138967  0.31918572  1
  O  O23  1  0.75000000  0.86770306  0.13438513  1
  O  O24  1  0.50495016  0.60420231  0.29291886  1
  O  O25  1  0.49662651  0.76383653  0.47049020  1
  O  O26  1  0.99504984  0.89579769  0.79291886  1
  O  O27  1  0.00495016  0.39579769  0.70708114  1
  O  O28  1  0.25000000  0.13229694  0.86561387  1
  O  O29  1  0.25000000  0.36770306  0.36561487  1
  O  O30  1  0.00337349  0.73616347  0.97049020  1
  O  O31  1  0.99662651  0.26383653  0.02950980  1
loop_
_geom_bond_atom_site_label_1
_geom_bond_atom_site_label_2
_geom_bond_distance
_geom_bond_site_symmetry_2
Mo0 O16 1.723134 1_555
Mo0 O12 1.773910 1_555
Mo0 O27 1.783736 1_655
Mo0 O20 1.783736 1_555
Mo1 O0 1.727148 1_555
Mo1 O5 1.759952 1_555
Mo1 O14 1.784071 1_555
Mo1 O1 1.784071 1_555
Mo2 O15 1.727148 1_555
Mo2 O6 1.759952 1_555
Mo2 O25 1.784071 1_555
Mo2 O8 1.784071 1_555
Mo3 O4 1.727148 1_555
Mo3 O21 1.759952 1_555
Mo3 O30 1.784071 1_554
Mo3 O19 1.784071 1_554
Mo4 O23 1.723145 1_555
Mo4 O22 1.773910 1_555
Mo4 O11 1.783736 1_665
Mo4 O9 1.783736 1_565
Mo5 O29 1.723145 1_555
Mo5 O10 1.773910 1_555
Mo5 O24 1.783736 1_555
Mo5 O2 1.783736 1_455
Mo6 O17 1.727148 1_555
Mo6 O3 1.759952 1_555
Mo6 O31 1.784071 1_556
Mo6 O7 1.784071 1_556
Mo7 O28 1.723134 1_555
Mo7 O18 1.773910 1_555
Mo7 O13 1.783736 1_545
Mo7 O26 1.783736 1_445
O1 Sc0 2.093945 1_655
O2 Sc3 2.104184 1_555
O3 Sc2 2.074485 1_545
O5 Sc3 2.074485 1_555
O6 Sc0 2.074485 1_555
O7 Sc1 2.093945 1_555
O8 Sc3 2.093945 1_455
O9 Sc1 2.104184 1_555
O10 Sc1 2.074055 1_555
O11 Sc1 2.104184 1_555
O12 Sc2 2.074055 1_555
O13 Sc2 2.104184 1_555
O14 Sc0 2.093945 1_555
O16 Tl2 2.625428 1_555
O18 Sc0 2.074055 1_555
O19 Sc2 2.093945 1_555
O20 Sc0 2.104184 1_555
O21 Sc1 2.074485 1_565
O22 Sc3 2.074055 1_555
O23 Tl0 2.625427 1_555
O24 Sc3 2.104184 1_555
O25 Sc3 2.093945 1_555
O26 Sc2 2.104184 1_555
O27 Sc0 2.104184 1_555
O28 Tl1 2.625428 1_555
O29 Tl3 2.625427 1_555
O30 Sc2 2.093945 1_455
O31 Sc1 2.093945 1_655
