# generated using pymatgen
data_Ba11(Cd4Bi7)2
_symmetry_space_group_name_H-M   'P 1'
_cell_length_a   5.01776600
_cell_length_b   14.61383374
_cell_length_c   17.21519387
_cell_angle_alpha   91.43703238
_cell_angle_beta   89.99824271
_cell_angle_gamma   99.80762599
_symmetry_Int_Tables_number   1
_chemical_formula_structural   Ba11(Cd4Bi7)2
_chemical_formula_sum   'Ba11 Cd8 Bi14'
_cell_volume   1243.51749055
_cell_formula_units_Z   1
loop_
 _symmetry_equiv_pos_site_id
 _symmetry_equiv_pos_as_xyz
  1  'x, y, z'
loop_
 _atom_site_type_symbol
 _atom_site_label
 _atom_site_symmetry_multiplicity
 _atom_site_fract_x
 _atom_site_fract_y
 _atom_site_fract_z
 _atom_site_occupancy
  Ba  Ba0  1  0.74970000  0.49479100  0.70372200  1
  Ba  Ba1  1  0.38153600  0.76467900  0.84004800  1
  Ba  Ba2  1  0.14691100  0.28926900  0.53453500  1
  Ba  Ba3  1  0.65296400  0.30996700  0.90015100  1
  Ba  Ba4  1  0.99414000  0.98250900  0.63415900  1
  Ba  Ba5  1  0.50000000  0.00000000  0.00000000  1
  Ba  Ba6  1  0.25030000  0.50520900  0.29627800  1
  Ba  Ba7  1  0.34703600  0.69003300  0.09984900  1
  Ba  Ba8  1  0.85308900  0.71073100  0.46546500  1
  Ba  Ba9  1  0.61846400  0.23532100  0.15995200  1
  Ba  Ba10  1  0.00586000  0.01749100  0.36584100  1
  Cd  Cd0  1  0.80470900  0.59727000  0.95897300  1
  Cd  Cd1  1  0.36885300  0.74540400  0.61168400  1
  Cd  Cd2  1  0.19529100  0.40273000  0.04102700  1
  Cd  Cd3  1  0.59990100  0.18858200  0.68491800  1
  Cd  Cd4  1  0.63114700  0.25459600  0.38831600  1
  Cd  Cd5  1  0.94360300  0.87828400  0.15853700  1
  Cd  Cd6  1  0.05639700  0.12171600  0.84146300  1
  Cd  Cd7  1  0.40009900  0.81141800  0.31508200  1
  Bi  Bi0  1  0.56061300  0.11447500  0.51771300  1
  Bi  Bi1  1  0.90987000  0.81280600  0.98751300  1
  Bi  Bi2  1  0.15335100  0.29869500  0.73848300  1
  Bi  Bi3  1  0.09013000  0.18719400  0.01248700  1
  Bi  Bi4  1  0.84664900  0.70130500  0.26151700  1
  Bi  Bi5  1  0.86699600  0.74026100  0.69887900  1
  Bi  Bi6  1  0.26306300  0.51514000  0.88303300  1
  Bi  Bi7  1  0.43938700  0.88552500  0.48228700  1
  Bi  Bi8  1  0.72901300  0.45766300  0.46081300  1
  Bi  Bi9  1  0.49362900  0.98041000  0.20912800  1
  Bi  Bi10  1  0.27098700  0.54233700  0.53918700  1
  Bi  Bi11  1  0.13300400  0.25973900  0.30112100  1
  Bi  Bi12  1  0.50637100  0.01959000  0.79087200  1
  Bi  Bi13  1  0.73693700  0.48486000  0.11696700  1
loop_
_geom_bond_atom_site_label_1
_geom_bond_atom_site_label_2
_geom_bond_distance
_geom_bond_site_symmetry_2
Ba0 Bi5 3.538006 1_555
Ba0 Bi2 3.832625 1_555
Ba0 Bi2 3.838786 1_655
Ba0 Bi10 3.850559 1_655
Ba0 Bi10 3.865686 1_555
Ba0 Bi6 3.972485 1_555
Ba0 Bi6 3.993262 1_655
Ba0 Bi8 4.202266 1_555
Ba1 Bi5 3.495635 1_555
Ba1 Bi5 3.513172 1_455
Ba1 Bi1 3.608022 1_455
Ba1 Bi1 3.639106 1_555
Ba1 Bi6 3.687321 1_555
Ba1 Bi12 3.788080 1_565
Ba2 Bi2 3.510186 1_555
Ba2 Bi0 3.558999 1_455
Ba2 Bi0 3.561942 1_555
Ba2 Cd4 3.574957 1_455
Ba2 Cd4 3.584958 1_555
Ba2 Bi10 3.643093 1_555
Ba2 Bi8 3.729031 1_555
Ba2 Bi8 3.738786 1_455
Ba2 Cd3 3.900745 1_455
Ba2 Cd3 3.919785 1_555
Ba2 Bi11 4.029933 1_555
Ba3 Bi3 3.644996 1_656
Ba3 Bi3 3.658194 1_556
Ba3 Cd2 3.701808 1_656
Ba3 Cd2 3.726742 1_556
Ba3 Bi2 3.727537 1_555
Ba3 Bi2 3.767593 1_655
Ba3 Cd6 3.800632 1_655
Ba3 Cd6 3.821649 1_555
Ba3 Bi6 3.866197 1_555
Ba3 Bi6 3.919942 1_655
Ba4 Bi5 3.689112 1_555
Ba4 Bi12 3.691995 1_665
Ba4 Bi12 3.733690 1_565
Ba4 Bi0 3.754104 1_565
Ba4 Bi0 3.760751 1_665
Ba4 Bi7 3.837753 1_655
Ba4 Bi7 3.881168 1_555
Ba4 Cd6 4.048674 1_665
Ba5 Bi9 3.618403 1_545
Ba5 Bi12 3.618403 1_554
Ba5 Bi3 3.675458 1_655
Ba5 Bi1 3.675458 1_444
Ba5 Bi3 3.694155 1_555
Ba5 Bi1 3.694155 1_544
Ba5 Cd5 4.118061 1_445
Ba5 Cd6 4.118061 1_654
Ba5 Cd5 4.142465 1_545
Ba5 Cd6 4.142465 1_554
Ba6 Bi11 3.538006 1_555
Ba6 Bi4 3.832625 1_555
Ba6 Bi4 3.838786 1_455
Ba6 Bi8 3.850559 1_455
Ba6 Bi8 3.865686 1_555
Ba6 Bi13 3.972485 1_555
Ba6 Bi13 3.993262 1_455
Ba6 Bi10 4.202266 1_555
Ba7 Bi1 3.644996 1_454
Ba7 Bi1 3.658194 1_554
Ba7 Cd0 3.701808 1_454
Ba7 Cd0 3.726742 1_554
Ba7 Bi4 3.727537 1_555
Ba7 Bi4 3.767593 1_455
Ba7 Cd5 3.800632 1_455
Ba7 Cd5 3.821649 1_555
Ba7 Bi13 3.866197 1_555
Ba7 Bi13 3.919942 1_455
Ba8 Bi4 3.510186 1_555
Ba8 Bi7 3.558999 1_655
Ba8 Bi7 3.561942 1_555
Ba8 Cd1 3.574957 1_655
Ba8 Cd1 3.584958 1_555
Ba8 Bi8 3.643093 1_555
Ba8 Bi10 3.729031 1_555
Ba8 Bi10 3.738786 1_655
Ba8 Cd7 3.900745 1_655
Ba8 Cd7 3.919785 1_555
Ba8 Bi5 4.029933 1_555
Ba9 Bi11 3.495635 1_555
Ba9 Bi11 3.513172 1_655
Ba9 Bi3 3.608022 1_655
Ba9 Bi3 3.639106 1_555
Ba9 Bi13 3.687321 1_555
Ba9 Bi9 3.788080 1_545
Ba10 Bi11 3.689112 1_555
Ba10 Bi9 3.691995 1_445
Ba10 Bi9 3.733690 1_545
Ba10 Bi7 3.754104 1_545
Ba10 Bi7 3.760751 1_445
Ba10 Bi0 3.837753 1_455
Ba10 Bi0 3.881168 1_555
Ba10 Cd5 4.048674 1_445
Bi0 Cd4 3.043414 1_555
Bi0 Cd3 3.044378 1_555
Bi0 Bi7 3.337797 1_545
Bi1 Cd5 3.068584 1_556
Bi1 Cd0 3.130061 1_555
Bi2 Cd3 3.091156 1_455
Bi2 Cd3 3.100686 1_555
Bi2 Cd6 3.141655 1_555
Bi3 Cd6 3.068584 1_554
Bi3 Cd2 3.130061 1_555
Bi4 Cd7 3.091156 1_655
Bi4 Cd7 3.100686 1_555
Bi4 Cd5 3.141655 1_555
Bi5 Cd1 2.922528 1_655
Bi5 Cd1 2.928584 1_555
Bi6 Cd0 3.049721 1_455
Bi6 Cd0 3.057216 1_555
Bi6 Cd2 3.200908 1_556
Bi7 Cd1 3.043414 1_555
Bi7 Cd7 3.044378 1_555
Bi8 Cd4 3.150104 1_555
Bi9 Cd5 3.022363 1_455
Bi9 Cd5 3.027637 1_555
Bi9 Cd7 3.078531 1_555
Bi10 Bi8 3.085014 1_455
Bi10 Bi8 3.085216 1_555
Bi10 Cd1 3.150104 1_555
Bi11 Cd4 2.922528 1_455
Bi11 Cd4 2.928584 1_555
Bi12 Cd6 3.022363 1_655
Bi12 Cd6 3.027637 1_555
Bi12 Cd3 3.078531 1_555
Bi13 Cd2 3.049721 1_655
Bi13 Cd2 3.057216 1_555
Bi13 Cd0 3.200908 1_554
