# generated using pymatgen
data_K(MoO2)4
_symmetry_space_group_name_H-M   'P 1'
_cell_length_a   10.48770100
_cell_length_b   10.48770100
_cell_length_c   6.51987200
_cell_angle_alpha   90.00000000
_cell_angle_beta   90.00000000
_cell_angle_gamma   90.00000000
_symmetry_Int_Tables_number   1
_chemical_formula_structural   K(MoO2)4
_chemical_formula_sum   'K4 Mo16 O32'
_cell_volume   717.13292821
_cell_formula_units_Z   4
loop_
 _symmetry_equiv_pos_site_id
 _symmetry_equiv_pos_as_xyz
  1  'x, y, z'
loop_
 _atom_site_type_symbol
 _atom_site_label
 _atom_site_symmetry_multiplicity
 _atom_site_fract_x
 _atom_site_fract_y
 _atom_site_fract_z
 _atom_site_occupancy
  K  K0  1  0.00000000  0.50000000  0.86303300  1
  K  K1  1  0.50000000  0.00000000  0.13696700  1
  K  K2  1  0.00000000  0.50000000  0.36814900  1
  K  K3  1  0.50000000  0.00000000  0.63185100  1
  Mo  Mo0  1  0.15334000  0.16899600  0.37830600  1
  Mo  Mo1  1  0.84666000  0.83100400  0.37830600  1
  Mo  Mo2  1  0.34666000  0.33100400  0.62169400  1
  Mo  Mo3  1  0.65334000  0.66899600  0.62169400  1
  Mo  Mo4  1  0.35252000  0.33397400  0.12574200  1
  Mo  Mo5  1  0.64748000  0.66602600  0.12574200  1
  Mo  Mo6  1  0.14748000  0.16602600  0.87425800  1
  Mo  Mo7  1  0.85252000  0.83397400  0.87425800  1
  Mo  Mo8  1  0.16899600  0.84666000  0.62169400  1
  Mo  Mo9  1  0.83100400  0.15334000  0.62169400  1
  Mo  Mo10  1  0.33100400  0.65334000  0.37830600  1
  Mo  Mo11  1  0.66899600  0.34666000  0.37830600  1
  Mo  Mo12  1  0.16602600  0.85252000  0.12574200  1
  Mo  Mo13  1  0.83397400  0.14748000  0.12574200  1
  Mo  Mo14  1  0.33397400  0.64748000  0.87425800  1
  Mo  Mo15  1  0.66602600  0.35252000  0.87425800  1
  O  O0  1  0.16312700  0.04319000  0.12822100  1
  O  O1  1  0.83687300  0.95681000  0.12822100  1
  O  O2  1  0.33687300  0.45681000  0.87177900  1
  O  O3  1  0.66312700  0.54319000  0.87177900  1
  O  O4  1  0.33761100  0.45673100  0.36357600  1
  O  O5  1  0.66238900  0.54326900  0.36357600  1
  O  O6  1  0.16238900  0.04326900  0.63642400  1
  O  O7  1  0.83761100  0.95673100  0.63642400  1
  O  O8  1  0.15664700  0.29824600  0.12148200  1
  O  O9  1  0.84335300  0.70175400  0.12148200  1
  O  O10  1  0.34335300  0.20175400  0.87851800  1
  O  O11  1  0.65664700  0.79824600  0.87851800  1
  O  O12  1  0.35401000  0.19793500  0.37408800  1
  O  O13  1  0.64599000  0.80206500  0.37408800  1
  O  O14  1  0.14599000  0.30206500  0.62591200  1
  O  O15  1  0.85401000  0.69793500  0.62591200  1
  O  O16  1  0.54319000  0.33687300  0.12822100  1
  O  O17  1  0.45681000  0.66312700  0.12822100  1
  O  O18  1  0.95681000  0.16312700  0.87177900  1
  O  O19  1  0.04319000  0.83687300  0.87177900  1
  O  O20  1  0.80206500  0.35401000  0.62591200  1
  O  O21  1  0.19793500  0.64599000  0.62591200  1
  O  O22  1  0.69793500  0.14599000  0.37408800  1
  O  O23  1  0.30206500  0.85401000  0.37408800  1
  O  O24  1  0.79824600  0.34335300  0.12148200  1
  O  O25  1  0.20175400  0.65664700  0.12148200  1
  O  O26  1  0.70175400  0.15664700  0.87851800  1
  O  O27  1  0.29824600  0.84335300  0.87851800  1
  O  O28  1  0.54326900  0.33761100  0.63642400  1
  O  O29  1  0.45673100  0.66238900  0.63642400  1
  O  O30  1  0.95673100  0.16238900  0.36357600  1
  O  O31  1  0.04326900  0.83761100  0.36357600  1
loop_
_geom_bond_atom_site_label_1
_geom_bond_atom_site_label_2
_geom_bond_distance
_geom_bond_site_symmetry_2
K0 O15 3.007269 1_455
K0 O21 3.007269 1_555
K0 O14 3.007269 1_555
K0 O20 3.007269 1_455
K0 O8 3.164744 1_556
K0 O25 3.164744 1_556
K0 O9 3.164744 1_456
K0 O24 3.164744 1_456
K1 O22 3.007269 1_555
K1 O23 3.007269 1_545
K1 O12 3.007269 1_555
K1 O13 3.007269 1_545
K1 O26 3.164744 1_554
K1 O11 3.164744 1_544
K1 O10 3.164744 1_554
K1 O27 3.164744 1_544
K2 O15 3.078622 1_455
K2 O14 3.078622 1_555
K2 O21 3.078622 1_555
K2 O20 3.078622 1_455
K2 O8 3.124520 1_555
K2 O25 3.124520 1_555
K2 O24 3.124520 1_455
K2 O9 3.124520 1_455
K3 O12 3.078622 1_555
K3 O23 3.078622 1_545
K3 O22 3.078622 1_555
K3 O13 3.078622 1_545
K3 O26 3.124520 1_555
K3 O11 3.124520 1_545
K3 O10 3.124520 1_555
K3 O27 3.124520 1_545
Mo0 O30 2.065374 1_455
Mo0 O0 2.099999 1_555
Mo0 O12 2.126517 1_555
Mo0 O14 2.135360 1_555
Mo0 O6 2.140051 1_555
Mo0 O8 2.154645 1_555
Mo1 O31 2.065374 1_655
Mo1 O1 2.099999 1_555
Mo1 O13 2.126517 1_555
Mo1 O15 2.135360 1_555
Mo1 O7 2.140051 1_555
Mo1 O9 2.154645 1_555
Mo2 O28 2.065374 1_555
Mo2 O2 2.099999 1_555
Mo2 O14 2.126517 1_555
Mo2 O12 2.135360 1_555
Mo2 O4 2.140051 1_555
Mo2 O10 2.154645 1_555
Mo3 O29 2.065374 1_555
Mo3 O3 2.099999 1_555
Mo3 O15 2.126517 1_555
Mo3 O13 2.135360 1_555
Mo3 O5 2.140051 1_555
Mo3 O11 2.154645 1_555
Mo4 O16 1.999986 1_555
Mo4 O4 2.021498 1_555
Mo4 O8 2.088336 1_555
Mo4 O2 2.104342 1_554
Mo4 O10 2.128440 1_554
Mo4 O12 2.158142 1_555
Mo5 O17 1.999986 1_555
Mo5 O5 2.021498 1_555
Mo5 O9 2.088336 1_555
Mo5 O3 2.104342 1_554
Mo5 O11 2.128440 1_554
Mo5 O13 2.158142 1_555
Mo6 O18 1.999986 1_455
Mo6 O6 2.021498 1_555
Mo6 O10 2.088336 1_555
Mo6 O0 2.104342 1_556
Mo6 O8 2.128440 1_556
Mo6 O14 2.158142 1_555
Mo7 O19 1.999986 1_655
Mo7 O7 2.021498 1_555
Mo7 O11 2.088336 1_555
Mo7 O1 2.104342 1_556
Mo7 O9 2.128440 1_556
Mo7 O15 2.158142 1_555
Mo8 O6 2.065374 1_565
Mo8 O19 2.099999 1_555
Mo8 O21 2.126517 1_555
Mo8 O23 2.135360 1_555
Mo8 O31 2.140051 1_555
Mo8 O27 2.154645 1_555
Mo9 O7 2.065374 1_545
Mo9 O18 2.099999 1_555
Mo9 O20 2.126517 1_555
Mo9 O22 2.135360 1_555
Mo9 O30 2.140051 1_555
Mo9 O26 2.154645 1_555
Mo10 O4 2.065374 1_555
Mo10 O17 2.099999 1_555
Mo10 O23 2.126517 1_555
Mo10 O21 2.135360 1_555
Mo10 O29 2.140051 1_555
Mo10 O25 2.154645 1_555
Mo11 O5 2.065374 1_555
Mo11 O16 2.099999 1_555
Mo11 O22 2.126517 1_555
Mo11 O20 2.135360 1_555
Mo11 O28 2.140051 1_555
Mo11 O24 2.154645 1_555
Mo12 O0 1.999986 1_565
Mo12 O31 2.021498 1_555
Mo12 O25 2.088336 1_555
Mo12 O19 2.104342 1_554
Mo12 O27 2.128440 1_554
Mo12 O23 2.158142 1_555
Mo13 O1 1.999986 1_545
Mo13 O30 2.021498 1_555
Mo13 O24 2.088336 1_555
Mo13 O18 2.104342 1_554
Mo13 O26 2.128440 1_554
Mo13 O22 2.158142 1_555
Mo14 O2 1.999986 1_555
Mo14 O29 2.021498 1_555
Mo14 O27 2.088336 1_555
Mo14 O17 2.104342 1_556
Mo14 O25 2.128440 1_556
Mo14 O21 2.158142 1_555
Mo15 O3 1.999986 1_555
Mo15 O28 2.021498 1_555
Mo15 O26 2.088336 1_555
Mo15 O16 2.104342 1_556
Mo15 O24 2.128440 1_556
Mo15 O20 2.158142 1_555
