# generated using pymatgen
data_Yb7In(CoGe3)4
_symmetry_space_group_name_H-M   'P 1'
_cell_length_a   10.33705600
_cell_length_b   10.33705600
_cell_length_c   4.29756300
_cell_angle_alpha   90.00000000
_cell_angle_beta   90.00000000
_cell_angle_gamma   90.00000000
_symmetry_Int_Tables_number   1
_chemical_formula_structural   Yb7In(CoGe3)4
_chemical_formula_sum   'Yb7 In1 Co4 Ge12'
_cell_volume   459.21492004
_cell_formula_units_Z   1
loop_
 _symmetry_equiv_pos_site_id
 _symmetry_equiv_pos_as_xyz
  1  'x, y, z'
loop_
 _atom_site_type_symbol
 _atom_site_label
 _atom_site_symmetry_multiplicity
 _atom_site_fract_x
 _atom_site_fract_y
 _atom_site_fract_z
 _atom_site_occupancy
  Yb  Yb0  1  0.32551600  0.67545100  0.50000000  1
  Yb  Yb1  1  0.32454900  0.32551600  0.50000000  1
  Yb  Yb2  1  0.67448400  0.32454900  0.50000000  1
  Yb  Yb3  1  0.67545100  0.67448400  0.50000000  1
  Yb  Yb4  1  0.00000000  0.50000000  0.50000000  1
  Yb  Yb5  1  0.00000000  0.00000000  0.00000000  1
  Yb  Yb6  1  0.50000000  0.00000000  0.50000000  1
  In  In0  1  0.50000000  0.50000000  0.00000000  1
  Co  Co0  1  0.11613700  0.72153900  0.00000000  1
  Co  Co1  1  0.88386300  0.27846100  0.00000000  1
  Co  Co2  1  0.72153900  0.88386300  0.00000000  1
  Co  Co3  1  0.27846100  0.11613700  0.00000000  1
  Ge  Ge0  1  0.19302000  0.06737700  0.50000000  1
  Ge  Ge1  1  0.51345300  0.78868900  0.00000000  1
  Ge  Ge2  1  0.06737700  0.80698000  0.50000000  1
  Ge  Ge3  1  0.78868900  0.48654700  0.00000000  1
  Ge  Ge4  1  0.21131100  0.51345300  0.00000000  1
  Ge  Ge5  1  0.28496300  0.88669700  0.00000000  1
  Ge  Ge6  1  0.11330300  0.28496300  0.00000000  1
  Ge  Ge7  1  0.93262300  0.19302000  0.50000000  1
  Ge  Ge8  1  0.88669700  0.71503700  0.00000000  1
  Ge  Ge9  1  0.71503700  0.11330300  0.00000000  1
  Ge  Ge10  1  0.80698000  0.93262300  0.50000000  1
  Ge  Ge11  1  0.48654700  0.21131100  0.00000000  1
loop_
_geom_bond_atom_site_label_1
_geom_bond_atom_site_label_2
_geom_bond_distance
_geom_bond_site_symmetry_2
In0 Yb1 3.340619 1_554
In0 Yb2 3.340619 1_554
In0 Yb2 3.340619 1_555
In0 Yb3 3.340619 1_554
In0 Yb3 3.340619 1_555
In0 Yb0 3.340619 1_555
In0 Yb0 3.340619 1_554
In0 Yb1 3.340619 1_555
Co0 Ge4 2.365309 1_555
Co0 Ge8 2.372686 1_455
Co0 Ge2 2.377261 1_554
Co0 Ge2 2.377261 1_555
Co0 Ge5 2.441371 1_555
Co0 Yb0 3.086859 1_554
Co0 Yb0 3.086859 1_555
Co0 Yb5 3.118783 1_565
Co0 Yb4 3.361975 1_554
Co0 Yb4 3.361975 1_555
Co1 Ge3 2.365309 1_555
Co1 Ge6 2.372686 1_655
Co1 Ge7 2.377261 1_555
Co1 Ge7 2.377261 1_554
Co1 Ge9 2.441371 1_555
Co1 Yb2 3.086859 1_554
Co1 Yb2 3.086859 1_555
Co1 Yb5 3.118783 1_655
Co1 Yb4 3.361975 1_654
Co1 Yb4 3.361975 1_655
Co2 Ge1 2.365309 1_555
Co2 Ge9 2.372686 1_565
Co2 Ge10 2.377261 1_555
Co2 Ge10 2.377261 1_554
Co2 Ge8 2.441371 1_555
Co2 Yb3 3.086859 1_555
Co2 Yb3 3.086859 1_554
Co2 Yb5 3.118783 1_665
Co2 Yb6 3.361975 1_565
Co2 Yb6 3.361975 1_564
Co3 Ge11 2.365309 1_555
Co3 Ge5 2.372686 1_545
Co3 Ge0 2.377261 1_555
Co3 Ge0 2.377261 1_554
Co3 Ge6 2.441371 1_555
Co3 Yb1 3.086859 1_554
Co3 Yb1 3.086859 1_555
Co3 Yb5 3.118783 1_555
Co3 Yb6 3.361975 1_555
Co3 Yb6 3.361975 1_554
Ge0 Yb1 2.994815 1_555
Ge0 Yb5 3.013868 1_556
Ge0 Yb5 3.013868 1_555
Ge0 Yb6 3.248803 1_555
Ge1 Ge5 2.570027 1_555
Ge1 Yb3 2.969035 1_555
Ge1 Yb3 2.969035 1_554
Ge1 In0 2.987433 1_555
Ge1 Yb6 3.067232 1_564
Ge1 Yb6 3.067232 1_565
Ge1 Yb0 3.124354 1_554
Ge1 Yb0 3.124354 1_555
Ge2 Yb0 2.994815 1_555
Ge2 Yb5 3.013868 1_565
Ge2 Yb5 3.013868 1_566
Ge2 Yb4 3.248803 1_555
Ge3 Ge8 2.570027 1_555
Ge3 Yb2 2.969035 1_555
Ge3 Yb2 2.969035 1_554
Ge3 In0 2.987433 1_555
Ge3 Yb4 3.067232 1_655
Ge3 Yb4 3.067232 1_654
Ge3 Yb3 3.124354 1_554
Ge3 Yb3 3.124354 1_555
Ge4 Ge6 2.570027 1_555
Ge4 Yb0 2.969035 1_555
Ge4 Yb0 2.969035 1_554
Ge4 In0 2.987433 1_555
Ge4 Yb4 3.067232 1_555
Ge4 Yb4 3.067232 1_554
Ge4 Yb1 3.124354 1_555
Ge4 Yb1 3.124354 1_554
Ge5 Yb0 3.092146 1_555
Ge5 Yb0 3.092146 1_554
Ge5 Yb5 3.169981 1_565
Ge5 Yb6 3.306067 1_564
Ge5 Yb6 3.306067 1_565
Ge6 Yb1 3.092146 1_554
Ge6 Yb1 3.092146 1_555
Ge6 Yb5 3.169981 1_555
Ge6 Yb4 3.306067 1_555
Ge6 Yb4 3.306067 1_554
Ge7 Yb2 2.994815 1_555
Ge7 Yb5 3.013868 1_656
Ge7 Yb5 3.013868 1_655
Ge7 Yb4 3.248803 1_655
Ge8 Yb3 3.092146 1_554
Ge8 Yb3 3.092146 1_555
Ge8 Yb5 3.169981 1_665
Ge8 Yb4 3.306067 1_654
Ge8 Yb4 3.306067 1_655
Ge9 Yb2 3.092146 1_554
Ge9 Yb2 3.092146 1_555
Ge9 Yb5 3.169981 1_655
Ge9 Yb6 3.306067 1_555
Ge9 Yb6 3.306067 1_554
Ge10 Yb3 2.994815 1_555
Ge10 Yb5 3.013868 1_665
Ge10 Yb5 3.013868 1_666
Ge10 Yb6 3.248803 1_565
Ge11 Ge9 2.570027 1_555
Ge11 Yb1 2.969035 1_555
Ge11 Yb1 2.969035 1_554
Ge11 In0 2.987433 1_555
Ge11 Yb6 3.067232 1_554
Ge11 Yb6 3.067232 1_555
Ge11 Yb2 3.124354 1_555
Ge11 Yb2 3.124354 1_554
