# generated using pymatgen
data_K2ZnCr4(HO4)4
_symmetry_space_group_name_H-M   'P 1'
_cell_length_a   6.89690600
_cell_length_b   7.84235674
_cell_length_c   8.00459985
_cell_angle_alpha   89.32577765
_cell_angle_beta   98.31622806
_cell_angle_gamma   115.88429003
_symmetry_Int_Tables_number   1
_chemical_formula_structural   K2ZnCr4(HO4)4
_chemical_formula_sum   'K2 Zn1 Cr4 H4 O16'
_cell_volume   384.77968739
_cell_formula_units_Z   1
loop_
 _symmetry_equiv_pos_site_id
 _symmetry_equiv_pos_as_xyz
  1  'x, y, z'
loop_
 _atom_site_type_symbol
 _atom_site_label
 _atom_site_symmetry_multiplicity
 _atom_site_fract_x
 _atom_site_fract_y
 _atom_site_fract_z
 _atom_site_occupancy
  K  K0  1  0.70813400  0.26478200  0.82604500  1
  K  K1  1  0.29186600  0.73521800  0.17395500  1
  Zn  Zn0  1  0.00000000  0.00000000  0.50000000  1
  Cr  Cr0  1  0.27605500  0.50615800  0.66700100  1
  Cr  Cr1  1  0.72394500  0.49384200  0.33299900  1
  Cr  Cr2  1  0.73970600  0.79457500  0.84335900  1
  Cr  Cr3  1  0.26029400  0.20542500  0.15664100  1
  H  H0  1  0.73653600  0.14446400  0.38890300  1
  H  H1  1  0.26346400  0.85553600  0.61109700  1
  H  H2  1  0.82657900  0.09194400  0.23554000  1
  H  H3  1  0.17342100  0.90805600  0.76446000  1
  O  O0  1  0.15231500  0.53664700  0.81297900  1
  O  O1  1  0.84768500  0.46335300  0.18702100  1
  O  O2  1  0.84495600  0.71420000  0.41254400  1
  O  O3  1  0.15504400  0.28580000  0.58745600  1
  O  O4  1  0.28655400  0.65816200  0.52171200  1
  O  O5  1  0.71344600  0.34183800  0.47828800  1
  O  O6  1  0.55023500  0.55844100  0.76225400  1
  O  O7  1  0.44976500  0.44155900  0.23774600  1
  O  O8  1  0.96164800  0.78463600  0.93396300  1
  O  O9  1  0.03835200  0.21536400  0.06603700  1
  O  O10  1  0.62877100  0.86482200  0.97585200  1
  O  O11  1  0.37122900  0.13517800  0.02414800  1
  O  O12  1  0.79345200  0.94017300  0.68645500  1
  O  O13  1  0.20654800  0.05982700  0.31354500  1
  O  O14  1  0.75898700  0.04094200  0.33667400  1
  O  O15  1  0.24101300  0.95905800  0.66332600  1
loop_
_geom_bond_atom_site_label_1
_geom_bond_atom_site_label_2
_geom_bond_distance
_geom_bond_site_symmetry_2
K0 O11 2.812943 1_556
K0 O5 2.843562 1_555
K0 O0 2.885516 1_655
K0 O9 2.918054 1_656
K0 O6 2.958311 1_555
K0 O12 3.104893 1_545
K0 O1 3.113396 1_556
K0 O15 3.152732 1_545
K0 O10 3.190350 1_545
K1 O10 2.812943 1_554
K1 O4 2.843562 1_555
K1 O1 2.885516 1_455
K1 O8 2.918054 1_454
K1 O7 2.958311 1_555
K1 O13 3.104893 1_565
K1 O0 3.113396 1_554
K1 O14 3.152732 1_565
K1 O11 3.190350 1_565
Cr0 O0 1.619906 1_555
Cr0 O4 1.641696 1_555
Cr0 O3 1.643559 1_555
Cr0 O6 1.799622 1_555
Cr1 O1 1.619906 1_555
Cr1 O5 1.641696 1_555
Cr1 O2 1.643559 1_555
Cr1 O7 1.799622 1_555
Cr2 O10 1.621774 1_555
Cr2 O8 1.629985 1_555
Cr2 O12 1.658306 1_555
Cr2 O6 1.796794 1_555
Cr3 O11 1.621774 1_555
Cr3 O9 1.629985 1_555
Cr3 O13 1.658306 1_555
Cr3 O7 1.796794 1_555
H0 O14 0.997168 1_555
H1 O15 0.997168 1_555
H2 O14 0.985596 1_555
H3 O15 0.985596 1_555
O2 Zn0 2.094023 1_665
O3 Zn0 2.094023 1_555
O12 Zn0 2.119432 1_665
O13 Zn0 2.119432 1_555
O14 Zn0 2.098289 1_655
O15 Zn0 2.098289 1_565
