# generated using pymatgen
data_Na17Pd15F48
_symmetry_space_group_name_H-M   'P 1'
_cell_length_a   6.84904605
_cell_length_b   6.93360039
_cell_length_c   59.46095998
_cell_angle_alpha   116.91667275
_cell_angle_beta   107.39803680
_cell_angle_gamma   89.86238426
_symmetry_Int_Tables_number   1
_chemical_formula_structural   Na17Pd15F48
_chemical_formula_sum   'Na34 Pd30 F96'
_cell_volume   2373.10763016
_cell_formula_units_Z   2
loop_
 _symmetry_equiv_pos_site_id
 _symmetry_equiv_pos_as_xyz
  1  'x, y, z'
loop_
 _atom_site_type_symbol
 _atom_site_label
 _atom_site_symmetry_multiplicity
 _atom_site_fract_x
 _atom_site_fract_y
 _atom_site_fract_z
 _atom_site_occupancy
  Na  Na0  1  0.49758935  0.23785065  0.87429869  1
  Na  Na1  1  0.49141143  0.75650184  0.87425544  1
  Na  Na2  1  0.00023902  0.50025001  0.62506338  1
  Na  Na3  1  0.00113039  0.00166184  0.56284412  1
  Na  Na4  1  0.49940272  0.24046852  0.74983232  1
  Na  Na5  1  0.50016739  0.75933251  0.75011081  1
  Na  Na6  1  0.99888470  0.49847455  0.93708453  1
  Na  Na7  1  0.99696094  0.48964841  0.87330718  1
  Na  Na8  1  0.49983949  0.24070108  0.62495012  1
  Na  Na9  1  0.50060872  0.75989521  0.62522543  1
  Na  Na10  1  0.99893296  0.99844247  0.81221215  1
  Na  Na11  1  0.99905624  0.49973092  0.81228201  1
  Na  Na12  1  0.00076965  0.50125087  0.31281177  1
  Na  Na13  1  0.99978839  0.49971801  0.74992776  1
  Na  Na14  1  0.50874193  0.24368451  0.50071791  1
  Na  Na15  1  0.50233312  0.76179525  0.50065968  1
  Na  Na16  1  0.99995773  -0.00000372  0.68748254  1
  Na  Na17  1  -0.00001159  0.49985062  0.68748184  1
  Na  Na18  1  0.50624198  0.24170609  0.37525050  1
  Na  Na19  1  0.49471647  0.75912711  0.37496783  1
  Na  Na20  1  0.00094470  0.50052419  0.56275553  1
  Na  Na21  1  0.00297286  0.51040390  0.50170307  1
  Na  Na22  1  0.50600909  0.24228750  0.25034418  1
  Na  Na23  1  0.50066578  0.76004014  0.25031200  1
  Na  Na24  1  0.99929144  0.50606570  0.99981107  1
  Na  Na25  1  0.00104779  0.50084560  0.43781461  1
  Na  Na26  1  0.00053684  0.50085052  0.37517852  1
  Na  Na27  1  0.49385785  0.23884077  0.12442411  1
  Na  Na28  1  0.49918997  0.75830419  0.12486717  1
  Na  Na29  1  0.00049223  0.50035111  0.25085175  1
  Na  Na30  1  0.49926904  0.24005075  0.99976439  1
  Na  Na31  1  0.49983698  0.75940011  0.00001627  1
  Na  Na32  1  0.99966468  0.49320306  0.12413078  1
  Na  Na33  1  0.99949322  0.99910048  0.06230993  1
  Pd  Pd0  1  0.00097323  0.00216907  0.87530021  1
  Pd  Pd1  1  -0.00027827  -0.00025884  0.74992613  1
  Pd  Pd2  1  0.47658035  0.74116669  0.93355075  1
  Pd  Pd3  1  0.52412700  0.25949757  0.94158522  1
  Pd  Pd4  1  -0.00004379  0.00018394  0.62506359  1
  Pd  Pd5  1  0.47612504  0.73297668  0.80845043  1
  Pd  Pd6  1  0.52451363  0.26747195  0.81663367  1
  Pd  Pd7  1  -0.00058460  0.99801362  0.49973520  1
  Pd  Pd8  1  0.99940294  0.99897206  0.93731460  1
  Pd  Pd9  1  0.47658733  0.73357064  0.68352299  1
  Pd  Pd10  1  0.52389102  0.26668992  0.69154117  1
  Pd  Pd11  1  0.00018851  0.00030735  0.37507600  1
  Pd  Pd12  1  0.47578691  0.73264768  0.55845749  1
  Pd  Pd13  1  0.52351117  0.26700655  0.56648342  1
  Pd  Pd14  1  0.00026345  0.00056905  0.31259332  1
  Pd  Pd15  1  0.99840747  -0.00058886  0.24963339  1
  Pd  Pd16  1  0.47572695  0.73936274  0.43342017  1
  Pd  Pd17  1  0.52360465  0.25991041  0.44149741  1
  Pd  Pd18  1  0.00149500  0.00184383  0.12528222  1
  Pd  Pd19  1  0.47541456  0.73846110  0.30834027  1
  Pd  Pd20  1  0.52374538  0.26092537  0.31651172  1
  Pd  Pd21  1  -0.00008567  0.99833344  0.00000345  1
  Pd  Pd22  1  0.00063113  0.00128723  0.43785456  1
  Pd  Pd23  1  0.47566664  0.73369725  0.18345593  1
  Pd  Pd24  1  0.52423823  0.26643568  0.19149627  1
  Pd  Pd25  1  0.47658873  0.72682654  0.05853642  1
  Pd  Pd26  1  0.52427447  0.27330034  0.06658158  1
  Pd  Pd27  1  -0.00004903  0.50070877  0.18758925  1
  Pd  Pd28  1  0.99991338  0.99983735  0.18734122  1
  Pd  Pd29  1  -0.00027563  0.49887202  0.06225662  1
  F  F0  1  0.11684360  0.72399794  0.98320441  1
  F  F1  1  0.11631407  0.13894844  0.98218280  1
  F  F2  1  0.17320211  0.72183978  0.92863224  1
  F  F3  1  0.22357494  0.24585546  0.93894414  1
  F  F4  1  0.12189871  0.14398670  0.85878812  1
  F  F5  1  0.11911750  0.72788536  0.85897181  1
  F  F6  1  0.54525422  0.89819900  0.97298172  1
  F  F7  1  0.17634778  0.71295605  0.80343366  1
  F  F8  1  0.39368703  0.57400621  0.89423154  1
  F  F9  1  0.22870710  0.25339083  0.81359436  1
  F  F10  1  0.60909625  0.42569320  0.98116973  1
  F  F11  1  0.45518273  0.10447117  0.90235576  1
  F  F12  1  0.12280216  0.14552478  0.73387665  1
  F  F13  1  0.12053376  0.72754242  0.73376547  1
  F  F14  1  0.54851250  0.89434273  0.84808218  1
  F  F15  1  0.17621682  0.71244346  0.67828245  1
  F  F16  1  0.39433825  0.57304356  0.76913058  1
  F  F17  1  0.22873156  0.25241219  0.68837901  1
  F  F18  1  0.77714015  0.75486570  0.93624674  1
  F  F19  1  0.60851681  0.43059569  0.85627555  1
  F  F20  1  0.82814208  0.27915775  0.94662179  1
  F  F21  1  0.45035420  0.10524853  0.77724451  1
  F  F22  1  0.12292428  0.14585098  0.60895770  1
  F  F23  1  0.12064455  0.72791185  0.60882885  1
  F  F24  1  0.88186830  0.27651274  0.89166487  1
  F  F25  1  0.88255768  0.86199806  0.89310755  1
  F  F26  1  0.54977263  0.89488480  0.72282555  1
  F  F27  1  0.17541936  0.71164711  0.55311972  1
  F  F28  1  0.39399618  0.57268185  0.64408575  1
  F  F29  1  0.22776602  0.25262271  0.56338314  1
  F  F30  1  0.77190241  0.74711239  0.81152554  1
  F  F31  1  0.60587394  0.42712567  0.73086941  1
  F  F32  1  0.82534691  0.28864833  0.82196753  1
  F  F33  1  0.45035073  0.10515155  0.65218068  1
  F  F34  1  0.11814717  0.72321615  0.48331930  1
  F  F35  1  0.11782155  0.13828944  0.48194204  1
  F  F36  1  0.87715078  0.85425015  0.76606156  1
  F  F37  1  0.87948409  0.27226636  0.76619253  1
  F  F38  1  0.55016164  0.89472430  0.59779250  1
  F  F39  1  0.17176683  0.72051206  0.42838523  1
  F  F40  1  0.39192104  0.56985750  0.51885380  1
  F  F41  1  0.22285535  0.24531616  0.43876278  1
  F  F42  1  0.77126489  0.74759869  0.68662176  1
  F  F43  1  0.60534340  0.42660717  0.60577651  1
  F  F44  1  0.82331986  0.28747197  0.69669522  1
  F  F45  1  0.45031414  0.10565086  0.52687272  1
  F  F46  1  0.11664954  0.72407464  0.35855314  1
  F  F47  1  0.11676789  0.13722724  0.35684745  1
  F  F48  1  0.87705990  0.85434833  0.64109370  1
  F  F49  1  0.87926803  0.27225399  0.64120520  1
  F  F50  1  0.54522664  0.89587771  0.47266150  1
  F  F51  1  0.17123275  0.71945321  0.30330198  1
  F  F52  1  0.39083997  0.57066132  0.39381786  1
  F  F53  1  0.22340079  0.24677184  0.31385420  1
  F  F54  1  0.77154149  0.74688099  0.56149633  1
  F  F55  1  0.60645995  0.42603584  0.48079543  1
  F  F56  1  0.82311413  0.28701251  0.57154220  1
  F  F57  1  0.45491757  0.10424275  0.40199343  1
  F  F58  1  0.11264301  0.71803581  0.23190292  1
  F  F59  1  0.11535410  0.13813471  0.23171533  1
  F  F60  1  0.87819486  0.85600552  0.51627194  1
  F  F61  1  0.88102794  0.27229575  0.51605782  1
  F  F62  1  0.54474814  0.89464902  0.34778112  1
  F  F63  1  0.16902659  0.71250292  0.17818343  1
  F  F64  1  0.38926587  0.57194448  0.26867345  1
  F  F65  1  0.22291404  0.25495232  0.18892469  1
  F  F66  1  0.77634751  0.75343476  0.43608803  1
  F  F67  1  0.60841538  0.42890889  0.35605103  1
  F  F68  1  0.82699949  0.27846218  0.44638621  1
  F  F69  1  0.45428430  0.10306903  0.27698810  1
  F  F70  1  0.11291635  0.71966947  0.10682288  1
  F  F71  1  0.11835074  0.14570282  0.10850115  1
  F  F72  1  0.88342893  0.86308363  0.39321163  1
  F  F73  1  0.88339299  0.27622650  0.39151070  1
  F  F74  1  0.54317319  0.89434760  0.22296974  1
  F  F75  1  0.17256589  0.70658083  0.05345453  1
  F  F76  1  0.39030633  0.57328368  0.14374197  1
  F  F77  1  0.22376613  0.26288021  0.06394696  1
  F  F78  1  0.77584317  0.75255311  0.31096160  1
  F  F79  1  0.60963080  0.43023280  0.23125352  1
  F  F80  1  0.82771065  0.27983698  0.32153004  1
  F  F81  1  0.45684455  0.10309543  0.15204351  1
  F  F82  1  0.88409332  0.86211190  0.26794969  1
  F  F83  1  0.88410922  0.27564184  0.26662313  1
  F  F84  1  0.54560768  0.89427562  0.09798057  1
  F  F85  1  0.39130639  0.56953443  0.01893045  1
  F  F86  1  0.77711777  0.74573570  0.18605083  1
  F  F87  1  0.61086139  0.42951195  0.10630522  1
  F  F88  1  0.83095906  0.28749991  0.19679682  1
  F  F89  1  0.45528959  0.10802946  0.02723647  1
  F  F90  1  0.88451452  0.85937853  0.14283476  1
  F  F91  1  0.88747178  0.28267311  0.14342785  1
  F  F92  1  0.77710042  0.73716653  0.06119763  1
  F  F93  1  0.82841521  0.29375862  0.07166570  1
  F  F94  1  0.88057062  0.85512866  0.01665517  1
  F  F95  1  0.88609166  0.27995719  0.01793948  1
loop_
_geom_bond_atom_site_label_1
_geom_bond_atom_site_label_2
_geom_bond_distance
_geom_bond_site_symmetry_2
F0 Pd21 2.002017 1_556
F0 Na6 2.327426 1_455
F0 Na24 2.395570 1_455
F0 Na31 2.480567 1_556
F1 Pd21 2.037950 1_546
F1 Pd8 2.254488 1_445
F1 Na30 2.483817 1_555
F1 Na24 2.509444 1_455
F2 Pd2 2.005843 1_555
F2 Pd8 2.198658 1_455
F2 Na6 2.269138 1_455
F2 Na7 2.776780 1_455
F3 Pd3 2.016228 1_555
F3 Pd8 2.251766 1_445
F3 Na6 2.347145 1_455
F4 Pd0 1.995275 1_555
F4 Na10 2.340177 1_445
F4 Na7 2.404208 1_455
F4 Na0 2.437324 1_555
F5 Pd0 2.001211 1_565
F5 Na11 2.356025 1_455
F5 Na1 2.412559 1_555
F5 Na7 2.421378 1_455
F6 Pd2 1.983829 1_555
F6 Na30 2.265451 1_565
F6 Na31 2.303933 1_556
F7 Pd5 1.980264 1_555
F7 Na11 2.243197 1_455
F7 Na10 2.258202 1_455
F7 Na13 2.686880 1_455
F8 Pd2 1.971730 1_555
F8 Na1 2.302227 1_555
F8 Na0 2.310620 1_555
F8 Na7 2.569106 1_455
F9 Pd6 1.978094 1_555
F9 Na10 2.326514 1_445
F9 Na11 2.330619 1_455
F10 Pd3 1.983686 1_555
F10 Na30 2.288152 1_555
F10 Na31 2.305432 1_556
F10 Na24 2.521442 1_555
F11 Pd3 1.973103 1_555
F11 Na1 2.295560 1_545
F11 Na0 2.326106 1_555
F12 Pd1 2.000404 1_555
F12 Na16 2.330664 1_455
F12 Na4 2.442499 1_555
F12 Na13 2.449631 1_455
F13 Pd1 1.999004 1_565
F13 Na17 2.337024 1_555
F13 Na13 2.441057 1_455
F13 Na5 2.459962 1_555
F14 Pd5 1.991917 1_555
F14 Na0 2.276843 1_565
F14 Na1 2.280538 1_555
F15 Pd9 1.981817 1_555
F15 Na17 2.249939 1_555
F15 Na16 2.264425 1_465
F15 Na2 2.672731 1_555
F16 Pd5 1.970315 1_555
F16 Na4 2.289551 1_555
F16 Na5 2.300008 1_555
F16 Na13 2.549592 1_455
F17 Pd10 1.971969 1_555
F17 Na16 2.323736 1_455
F17 Na17 2.328239 1_555
F18 Pd2 2.015477 1_555
F18 Pd8 2.245739 1_555
F18 Na6 2.343348 1_555
F19 Pd6 1.986134 1_555
F19 Na1 2.282397 1_555
F19 Na0 2.302215 1_555
F19 Na7 2.507972 1_555
F20 Pd3 2.008824 1_555
F20 Pd8 2.204553 1_545
F20 Na6 2.277595 1_555
F20 Na24 2.671827 1_555
F21 Pd6 1.978596 1_555
F21 Na5 2.300803 1_545
F21 Na4 2.315424 1_555
F22 Pd4 2.002177 1_555
F22 Na3 2.316882 1_555
F22 Na8 2.444357 1_555
F22 Na2 2.449905 1_555
F23 Pd4 1.999687 1_565
F23 Na20 2.327131 1_555
F23 Na2 2.442447 1_555
F23 Na9 2.462090 1_555
F24 Pd0 2.005503 1_655
F24 Na6 2.291944 1_555
F24 Na7 2.444879 1_555
F24 Na0 2.488528 1_555
F25 Pd0 2.042680 1_665
F25 Pd8 2.222013 1_555
F25 Na1 2.537658 1_555
F25 Na7 2.540739 1_555
F26 Pd9 1.974663 1_555
F26 Na4 2.298432 1_565
F26 Na5 2.311434 1_555
F27 Pd12 1.980723 1_555
F27 Na20 2.253067 1_555
F27 Na3 2.269653 1_565
F27 Na21 2.583624 1_555
F28 Pd9 1.976026 1_555
F28 Na8 2.287470 1_555
F28 Na9 2.299576 1_555
F28 Na2 2.544142 1_555
F29 Pd13 1.976840 1_555
F29 Na3 2.317545 1_555
F29 Na20 2.319441 1_555
F30 Pd5 1.977395 1_555
F30 Na10 2.316654 1_555
F30 Na11 2.319428 1_555
F31 Pd10 1.970740 1_555
F31 Na5 2.289125 1_555
F31 Na4 2.301213 1_555
F31 Na13 2.545222 1_555
F32 Pd6 1.983931 1_555
F32 Na11 2.251761 1_555
F32 Na10 2.267808 1_545
F32 Na7 2.579349 1_555
F33 Pd10 1.977404 1_555
F33 Na9 2.295679 1_545
F33 Na8 2.308110 1_555
F34 Pd7 2.006931 1_555
F34 Na25 2.296229 1_555
F34 Na21 2.444592 1_555
F34 Na15 2.487902 1_555
F35 Pd7 2.042443 1_545
F35 Pd22 2.215746 1_555
F35 Na14 2.536187 1_555
F35 Na21 2.540560 1_555
F36 Pd1 2.001223 1_665
F36 Na10 2.318817 1_555
F36 Na5 2.444962 1_555
F36 Na13 2.450584 1_555
F37 Pd1 1.999583 1_655
F37 Na11 2.327942 1_555
F37 Na13 2.442345 1_555
F37 Na4 2.462871 1_555
F38 Pd12 1.975686 1_555
F38 Na8 2.302740 1_565
F38 Na9 2.315846 1_555
F39 Pd16 2.008461 1_555
F39 Pd22 2.207288 1_565
F39 Na25 2.274880 1_555
F39 Na26 2.670456 1_555
F40 Pd12 1.984205 1_555
F40 Na14 2.284058 1_555
F40 Na15 2.304543 1_555
F40 Na21 2.511267 1_555
F41 Pd17 2.016296 1_555
F41 Pd22 2.250072 1_555
F41 Na25 2.340172 1_555
F42 Pd9 1.969547 1_555
F42 Na16 2.324374 1_565
F42 Na17 2.329409 1_655
F43 Pd13 1.968886 1_555
F43 Na9 2.293618 1_555
F43 Na8 2.304586 1_555
F43 Na2 2.551990 1_655
F44 Pd10 1.976375 1_555
F44 Na17 2.251226 1_655
F44 Na16 2.265582 1_555
F44 Na13 2.673710 1_555
F45 Pd13 1.990281 1_555
F45 Na15 2.281241 1_545
F45 Na14 2.283934 1_555
F46 Pd11 2.006847 1_565
F46 Na12 2.307552 1_555
F46 Na26 2.422096 1_555
F46 Na19 2.448173 1_555
F47 Pd11 2.041182 1_555
F47 Pd14 2.224703 1_555
F47 Na26 2.489882 1_555
F47 Na18 2.526632 1_555
F48 Pd4 1.998994 1_665
F48 Na16 2.330307 1_565
F48 Na9 2.441470 1_555
F48 Na2 2.449559 1_655
F49 Pd4 1.997686 1_655
F49 Na17 2.336614 1_655
F49 Na2 2.441789 1_655
F49 Na8 2.458583 1_555
F50 Pd16 1.973418 1_555
F50 Na14 2.294572 1_565
F50 Na15 2.327496 1_555
F51 Pd19 2.009929 1_555
F51 Pd14 2.208285 1_565
F51 Na12 2.269278 1_555
F51 Na29 2.634354 1_555
F52 Pd16 1.985448 1_555
F52 Na19 2.297272 1_555
F52 Na18 2.297642 1_555
F52 Na26 2.521390 1_555
F53 Pd20 2.014620 1_555
F53 Pd14 2.254658 1_555
F53 Na12 2.339182 1_555
F54 Pd12 1.977757 1_555
F54 Na3 2.325848 1_665
F54 Na20 2.329065 1_655
F55 Pd17 1.970336 1_555
F55 Na14 2.298709 1_555
F55 Na15 2.308591 1_555
F55 Na21 2.567709 1_655
F56 Pd13 1.978604 1_555
F56 Na20 2.244438 1_655
F56 Na3 2.259997 1_655
F56 Na2 2.687986 1_655
F57 Pd17 1.987460 1_555
F57 Na19 2.271545 1_545
F57 Na18 2.295367 1_555
F58 Pd15 2.038027 1_465
F58 Pd27 2.236915 1_555
F58 Na29 2.490068 1_555
F58 Na23 2.514200 1_555
F59 Pd15 2.035611 1_455
F59 Pd28 2.229759 1_445
F59 Na29 2.481848 1_555
F59 Na22 2.533784 1_555
F60 Pd7 1.998590 1_655
F60 Na3 2.339897 1_665
F60 Na21 2.403401 1_655
F60 Na15 2.438318 1_555
F61 Pd7 2.002054 1_645
F61 Na20 2.356460 1_655
F61 Na14 2.412592 1_555
F61 Na21 2.420851 1_655
F62 Pd19 1.983746 1_555
F62 Na18 2.285593 1_565
F62 Na19 2.306880 1_555
F63 Pd23 2.024033 1_555
F63 Pd27 2.224707 1_555
F63 Pd28 2.234072 1_455
F63 Na32 2.709576 1_455
F64 Pd19 1.987403 1_555
F64 Na23 2.295026 1_555
F64 Na22 2.304026 1_555
F64 Na29 2.510411 1_555
F65 Pd24 2.022368 1_555
F65 Pd28 2.290570 1_445
F65 Pd27 2.297677 1_555
F66 Pd16 2.016344 1_555
F66 Pd22 2.253166 1_665
F66 Na25 2.345549 1_655
F67 Pd20 1.982161 1_555
F67 Na19 2.301616 1_555
F67 Na18 2.302500 1_555
F67 Na26 2.534021 1_655
F68 Pd17 2.006287 1_555
F68 Pd22 2.198196 1_655
F68 Na25 2.267595 1_655
F68 Na21 2.776168 1_655
F69 Pd20 1.988050 1_555
F69 Na23 2.270642 1_545
F69 Na22 2.299798 1_555
F70 Pd18 2.040686 1_565
F70 Pd29 2.251908 1_555
F70 Na32 2.464293 1_455
F70 Na28 2.503568 1_555
F71 Pd18 2.003413 1_555
F71 Na33 2.319220 1_445
F71 Na32 2.396839 1_455
F71 Na27 2.434371 1_555
F72 Pd11 2.038611 1_665
F72 Pd22 2.243978 1_665
F72 Na26 2.483439 1_655
F72 Na19 2.521585 1_555
F73 Pd11 2.005577 1_655
F73 Na25 2.335029 1_655
F73 Na26 2.419465 1_655
F73 Na18 2.442238 1_555
F74 Pd23 1.989508 1_555
F74 Na22 2.285563 1_565
F74 Na23 2.291351 1_555
F75 Pd25 2.008375 1_555
F75 Pd29 2.193296 1_555
F75 Na33 2.278341 1_455
F75 Na24 2.691580 1_454
F76 Pd23 1.988659 1_555
F76 Na27 2.295074 1_555
F76 Na28 2.295674 1_555
F76 Na32 2.526196 1_455
F77 Pd26 2.015832 1_555
F77 Pd29 2.255372 1_555
F77 Na33 2.340272 1_445
F78 Pd19 2.015724 1_555
F78 Pd14 2.258674 1_665
F78 Na12 2.341092 1_655
F79 Pd24 1.991475 1_555
F79 Na23 2.285115 1_555
F79 Na22 2.305632 1_555
F79 Na29 2.527559 1_655
F80 Pd20 2.008684 1_555
F80 Pd14 2.204865 1_655
F80 Na12 2.264334 1_655
F80 Na26 2.692619 1_655
F81 Pd24 1.987071 1_555
F81 Na28 2.278123 1_545
F81 Na27 2.301476 1_555
F82 Pd15 2.039028 1_565
F82 Pd14 2.243801 1_665
F82 Na29 2.475281 1_655
F82 Na23 2.487393 1_555
F83 Pd15 2.003894 1_555
F83 Na12 2.330713 1_655
F83 Na29 2.391273 1_655
F83 Na22 2.449035 1_555
F84 Pd25 1.986574 1_555
F84 Na28 2.283799 1_555
F84 Na27 2.287740 1_565
F85 Pd25 1.982858 1_555
F85 Na30 2.281044 1_554
F85 Na31 2.322833 1_555
F85 Na24 2.534223 1_454
F86 Pd23 2.022925 1_555
F86 Pd28 2.293241 1_555
F86 Pd27 2.295371 1_655
F87 Pd26 1.988224 1_555
F87 Na28 2.284430 1_555
F87 Na27 2.315522 1_555
F87 Na32 2.510701 1_555
F88 Pd24 2.024264 1_555
F88 Pd27 2.223677 1_655
F88 Pd28 2.235179 1_545
F88 Na29 2.709014 1_655
F89 Pd26 1.980899 1_555
F89 Na30 2.290508 1_554
F89 Na31 2.303345 1_545
F90 Pd18 2.035742 1_665
F90 Pd28 2.235168 1_555
F90 Na28 2.498458 1_555
F90 Na32 2.502673 1_555
F91 Pd18 2.039587 1_655
F91 Pd27 2.230670 1_655
F91 Na32 2.467178 1_555
F91 Na27 2.551130 1_555
F92 Pd25 2.015468 1_555
F92 Pd29 2.254647 1_655
F92 Na33 2.338188 1_555
F93 Pd26 2.009158 1_555
F93 Pd29 2.198453 1_655
F93 Na33 2.281603 1_545
F93 Na32 2.633220 1_555
F94 Pd21 2.003090 1_655
F94 Na33 2.292919 1_555
F94 Na24 2.409323 1_554
F94 Na31 2.467837 1_555
F95 Pd21 2.040212 1_645
F95 Pd29 2.238628 1_655
F95 Na24 2.501306 1_554
F95 Na30 2.506827 1_554
