# generated using pymatgen
data_KGaO2
_symmetry_space_group_name_H-M   'P 1'
_cell_length_a   5.46125015
_cell_length_b   10.94198676
_cell_length_c   16.30200988
_cell_angle_alpha   90.00000000
_cell_angle_beta   90.00000000
_cell_angle_gamma   90.00000000
_symmetry_Int_Tables_number   1
_chemical_formula_structural   KGaO2
_chemical_formula_sum   'K16 Ga16 O32'
_cell_volume   974.15801165
_cell_formula_units_Z   16
loop_
 _symmetry_equiv_pos_site_id
 _symmetry_equiv_pos_as_xyz
  1  'x, y, z'
loop_
 _atom_site_type_symbol
 _atom_site_label
 _atom_site_symmetry_multiplicity
 _atom_site_fract_x
 _atom_site_fract_y
 _atom_site_fract_z
 _atom_site_occupancy
  K  K0  1  0.74009119  0.74202546  0.68867448  1
  K  K1  1  0.74488226  0.00274280  0.56362969  1
  K  K2  1  0.24488226  0.00274280  0.93637031  1
  K  K3  1  0.25511774  0.99725720  0.43637031  1
  K  K4  1  0.25990881  0.24202546  0.81132552  1
  K  K5  1  0.74488226  0.49725720  0.06362969  1
  K  K6  1  0.24488226  0.49725720  0.43637031  1
  K  K7  1  0.25990881  0.25797454  0.31132552  1
  K  K8  1  0.24009119  0.74202546  0.81132552  1
  K  K9  1  0.75511774  0.50274280  0.56362969  1
  K  K10  1  0.24009119  0.75797454  0.31132552  1
  K  K11  1  0.74009119  0.75797454  0.18867448  1
  K  K12  1  0.25511774  0.50274280  0.93637031  1
  K  K13  1  0.75511774  0.99725720  0.06362969  1
  K  K14  1  0.75990881  0.25797454  0.18867448  1
  K  K15  1  0.75990881  0.24202546  0.68867448  1
  Ga  Ga0  1  0.79192347  0.22930181  0.93789424  1
  Ga  Ga1  1  0.71588011  0.97847089  0.81306140  1
  Ga  Ga2  1  0.28411989  0.47847089  0.68693860  1
  Ga  Ga3  1  0.21588011  0.52152911  0.18693860  1
  Ga  Ga4  1  0.28411989  0.02152911  0.18693860  1
  Ga  Ga5  1  0.71588011  0.52152911  0.31306140  1
  Ga  Ga6  1  0.29192347  0.22930181  0.56210576  1
  Ga  Ga7  1  0.21588011  0.97847089  0.68693860  1
  Ga  Ga8  1  0.20807653  0.77069819  0.06210576  1
  Ga  Ga9  1  0.79192347  0.27069819  0.43789424  1
  Ga  Ga10  1  0.70807653  0.77069819  0.43789424  1
  Ga  Ga11  1  0.78411989  0.02152911  0.31306140  1
  Ga  Ga12  1  0.29192347  0.27069819  0.06210576  1
  Ga  Ga13  1  0.78411989  0.47847089  0.81306140  1
  Ga  Ga14  1  0.70807653  0.72930181  0.93789424  1
  Ga  Ga15  1  0.20807653  0.72930181  0.56210576  1
  O  O0  1  0.73903228  0.93360426  0.40788130  1
  O  O1  1  0.27216947  0.68268124  0.15605816  1
  O  O2  1  0.72783053  0.31731876  0.84394184  1
  O  O3  1  0.89503817  0.00649151  0.71917762  1
  O  O4  1  0.89503817  0.49350849  0.21917762  1
  O  O5  1  0.22783053  0.18268124  0.15605816  1
  O  O6  1  0.11918559  0.25183665  0.46648546  1
  O  O7  1  0.38081441  0.75183665  0.46648546  1
  O  O8  1  0.23903228  0.56639574  0.59211870  1
  O  O9  1  0.72783053  0.18268124  0.34394184  1
  O  O10  1  0.61918559  0.25183665  0.03351454  1
  O  O11  1  0.38081441  0.74816335  0.96648546  1
  O  O12  1  0.39503817  0.00649151  0.78082238  1
  O  O13  1  0.73903228  0.56639574  0.90788130  1
  O  O14  1  0.27216947  0.81731876  0.65605816  1
  O  O15  1  0.76096772  0.43360426  0.40788130  1
  O  O16  1  0.61918559  0.24816335  0.53351454  1
  O  O17  1  0.60496183  0.50649151  0.71917762  1
  O  O18  1  0.26096772  0.43360426  0.09211870  1
  O  O19  1  0.11918559  0.24816335  0.96648546  1
  O  O20  1  0.10496183  0.99350849  0.28082238  1
  O  O21  1  0.10496183  0.50649151  0.78082238  1
  O  O22  1  0.88081441  0.74816335  0.53351454  1
  O  O23  1  0.26096772  0.06639574  0.59211870  1
  O  O24  1  0.23903228  0.93360426  0.09211870  1
  O  O25  1  0.22783053  0.31731876  0.65605816  1
  O  O26  1  0.39503817  0.49350849  0.28082238  1
  O  O27  1  0.60496183  0.99350849  0.21917762  1
  O  O28  1  0.88081441  0.75183665  0.03351454  1
  O  O29  1  0.77216947  0.81731876  0.84394184  1
  O  O30  1  0.76096772  0.06639574  0.90788130  1
  O  O31  1  0.77216947  0.68268124  0.34394184  1
loop_
_geom_bond_atom_site_label_1
_geom_bond_atom_site_label_2
_geom_bond_distance
_geom_bond_site_symmetry_2
K0 O22 2.644447 1_555
K0 O29 2.667631 1_555
K0 O17 2.726515 1_555
K0 O14 2.737101 1_555
K0 O3 3.055702 1_565
K0 O14 3.066791 1_655
K1 O0 2.649512 1_545
K1 O3 2.665360 1_555
K1 O23 2.772196 1_555
K1 O16 2.814882 1_555
K1 O22 2.924331 1_545
K1 O23 2.940166 1_655
K2 O24 2.649512 1_546
K2 O12 2.665360 1_555
K2 O30 2.772196 1_455
K2 O19 2.814882 1_555
K2 O11 2.924331 1_545
K2 O30 2.940166 1_555
K3 O23 2.649512 1_565
K3 O20 2.665360 1_555
K3 O0 2.772196 1_555
K3 O7 2.814882 1_555
K3 O6 2.924331 1_565
K3 O0 2.940166 1_455
K4 O19 2.644447 1_555
K4 O25 2.667631 1_555
K4 O12 2.726515 1_555
K4 O2 2.737101 1_555
K4 O21 3.055702 1_555
K4 O2 3.066791 1_455
K5 O13 2.649512 1_554
K5 O4 2.665360 1_555
K5 O18 2.772196 1_555
K5 O10 2.814882 1_555
K5 O28 2.924331 1_555
K5 O18 2.940166 1_655
K6 O8 2.649512 1_555
K6 O26 2.665360 1_555
K6 O15 2.772196 1_455
K6 O6 2.814882 1_555
K6 O7 2.924331 1_555
K6 O15 2.940166 1_555
K7 O6 2.644447 1_555
K7 O5 2.667631 1_555
K7 O26 2.726515 1_555
K7 O9 2.737101 1_555
K7 O20 3.055702 1_545
K7 O9 3.066791 1_455
K8 O11 2.644447 1_555
K8 O14 2.667631 1_555
K8 O21 2.726515 1_555
K8 O29 2.737101 1_455
K8 O12 3.055702 1_565
K8 O29 3.066791 1_555
K9 O15 2.649512 1_555
K9 O17 2.665360 1_555
K9 O8 2.772196 1_655
K9 O22 2.814882 1_555
K9 O16 2.924331 1_555
K9 O8 2.940166 1_555
K10 O7 2.644447 1_555
K10 O1 2.667631 1_555
K10 O20 2.726515 1_555
K10 O31 2.737101 1_455
K10 O26 3.055702 1_555
K10 O31 3.066791 1_555
K11 O28 2.644447 1_555
K11 O31 2.667631 1_555
K11 O27 2.726515 1_555
K11 O1 2.737101 1_555
K11 O4 3.055702 1_555
K11 O1 3.066791 1_655
K12 O18 2.649512 1_556
K12 O21 2.665360 1_555
K12 O13 2.772196 1_555
K12 O11 2.814882 1_555
K12 O19 2.924331 1_555
K12 O13 2.940166 1_455
K13 O30 2.649512 1_564
K13 O27 2.665360 1_555
K13 O24 2.772196 1_655
K13 O28 2.814882 1_555
K13 O10 2.924331 1_565
K13 O24 2.940166 1_555
K14 O10 2.644447 1_555
K14 O9 2.667631 1_555
K14 O4 2.726515 1_555
K14 O5 2.737101 1_655
K14 O27 3.055702 1_545
K14 O5 3.066791 1_555
K15 O16 2.644447 1_555
K15 O2 2.667631 1_555
K15 O3 2.726515 1_555
K15 O25 2.737101 1_655
K15 O17 3.055702 1_555
K15 O25 3.066791 1_555
Ga0 O10 1.838642 1_556
Ga0 O2 1.842792 1_555
Ga0 O30 1.856160 1_555
Ga0 O19 1.858531 1_655
Ga1 O30 1.837273 1_565
Ga1 O3 1.842210 1_565
Ga1 O12 1.854836 1_565
Ga1 O29 1.859365 1_555
Ga2 O8 1.837273 1_555
Ga2 O21 1.842210 1_555
Ga2 O17 1.854836 1_555
Ga2 O25 1.859365 1_555
Ga3 O18 1.837273 1_555
Ga3 O26 1.842210 1_555
Ga3 O4 1.854836 1_455
Ga3 O1 1.859365 1_555
Ga4 O24 1.837273 1_545
Ga4 O20 1.842210 1_545
Ga4 O27 1.854836 1_545
Ga4 O5 1.859365 1_555
Ga5 O15 1.837273 1_555
Ga5 O4 1.842210 1_555
Ga5 O26 1.854836 1_555
Ga5 O31 1.859365 1_555
Ga6 O6 1.838642 1_555
Ga6 O25 1.842792 1_555
Ga6 O23 1.856160 1_555
Ga6 O16 1.858531 1_555
Ga7 O23 1.837273 1_565
Ga7 O12 1.842210 1_565
Ga7 O3 1.854836 1_465
Ga7 O14 1.859365 1_555
Ga8 O11 1.838642 1_554
Ga8 O1 1.842792 1_555
Ga8 O24 1.856160 1_555
Ga8 O28 1.858531 1_455
Ga9 O16 1.838642 1_555
Ga9 O9 1.842792 1_555
Ga9 O15 1.856160 1_555
Ga9 O6 1.858531 1_655
Ga10 O22 1.838642 1_555
Ga10 O31 1.842792 1_555
Ga10 O0 1.856160 1_555
Ga10 O7 1.858531 1_555
Ga11 O0 1.837273 1_545
Ga11 O27 1.842210 1_545
Ga11 O20 1.854836 1_645
Ga11 O9 1.859365 1_555
Ga12 O19 1.838642 1_554
Ga12 O5 1.842792 1_555
Ga12 O18 1.856160 1_555
Ga12 O10 1.858531 1_555
Ga13 O13 1.837273 1_555
Ga13 O17 1.842210 1_555
Ga13 O21 1.854836 1_655
Ga13 O2 1.859365 1_555
Ga14 O28 1.838642 1_556
Ga14 O29 1.842792 1_555
Ga14 O13 1.856160 1_555
Ga14 O11 1.858531 1_555
Ga15 O7 1.838642 1_555
Ga15 O14 1.842792 1_555
Ga15 O8 1.856160 1_555
Ga15 O22 1.858531 1_455
