# generated using pymatgen
data_U2PbSe5
_symmetry_space_group_name_H-M   'P 1'
_cell_length_a   7.94140714
_cell_length_b   8.69728102
_cell_length_c   12.30897920
_cell_angle_alpha   89.42614158
_cell_angle_beta   90.00000000
_cell_angle_gamma   90.00000000
_symmetry_Int_Tables_number   1
_chemical_formula_structural   U2PbSe5
_chemical_formula_sum   'U8 Pb4 Se20'
_cell_volume   850.12193008
_cell_formula_units_Z   4
loop_
 _symmetry_equiv_pos_site_id
 _symmetry_equiv_pos_as_xyz
  1  'x, y, z'
loop_
 _atom_site_type_symbol
 _atom_site_label
 _atom_site_symmetry_multiplicity
 _atom_site_fract_x
 _atom_site_fract_y
 _atom_site_fract_z
 _atom_site_occupancy
  U  U0  1  0.01502965  0.49981981  0.82026694  1
  U  U1  1  0.48497035  0.49981981  0.32026694  1
  U  U2  1  0.41834818  0.74443244  0.00678089  1
  U  U3  1  0.91834818  0.25556756  0.49321911  1
  U  U4  1  0.08165182  0.74443244  0.50678089  1
  U  U5  1  0.98497035  0.50018019  0.17973306  1
  U  U6  1  0.51502965  0.50018019  0.67973306  1
  U  U7  1  0.58165182  0.25556756  0.99321911  1
  Pb  Pb0  1  -0.00967887  0.96820419  0.81308208  1
  Pb  Pb1  1  0.00967887  0.03179581  0.18691792  1
  Pb  Pb2  1  0.50967887  0.96820419  0.31308208  1
  Pb  Pb3  1  0.49032113  0.03179581  0.68691792  1
  Se  Se0  1  0.65912626  0.54862794  0.90017231  1
  Se  Se1  1  0.84087374  0.54862794  0.40017231  1
  Se  Se2  1  0.34326863  0.03739588  0.08734694  1
  Se  Se3  1  0.66319403  0.72261970  0.18199216  1
  Se  Se4  1  0.84326863  0.96260412  0.41265306  1
  Se  Se5  1  0.45811817  0.71573034  0.49910289  1
  Se  Se6  1  0.15912626  0.45137206  0.59982769  1
  Se  Se7  1  0.19959932  0.72833212  0.28063959  1
  Se  Se8  1  0.65673137  0.96260412  0.91265306  1
  Se  Se9  1  0.95811817  0.28426966  0.00089711  1
  Se  Se10  1  0.16319403  0.27738030  0.31800784  1
  Se  Se11  1  0.69959932  0.27166788  0.21936041  1
  Se  Se12  1  0.83680597  0.72261970  0.68199216  1
  Se  Se13  1  0.15673137  0.03739588  0.58734694  1
  Se  Se14  1  0.54188183  0.28426966  0.50089711  1
  Se  Se15  1  0.04188183  0.71573034  -0.00089711  1
  Se  Se16  1  0.34087374  0.45137206  0.09982769  1
  Se  Se17  1  0.33680597  0.27738030  0.81800784  1
  Se  Se18  1  0.80040068  0.27166788  0.71936041  1
  Se  Se19  1  0.30040068  0.72833212  0.78063959  1
loop_
_geom_bond_atom_site_label_1
_geom_bond_atom_site_label_2
_geom_bond_distance
_geom_bond_site_symmetry_2
Pb0 Se8 2.919148 1_455
Pb0 Se12 2.953151 1_455
Pb0 Se13 3.129782 1_565
Pb0 Se15 3.183000 1_556
Pb0 Se18 3.242001 1_465
Pb0 Se19 3.254578 1_555
Pb1 Se2 2.919148 1_555
Pb1 Se10 2.953151 1_555
Pb1 Se4 3.129782 1_445
Pb1 Se9 3.183000 1_455
Pb1 Se7 3.242001 1_545
Pb1 Se11 3.254578 1_455
Pb2 Se4 2.919148 1_555
Pb2 Se3 2.953151 1_555
Pb2 Se2 3.129782 1_565
Pb2 Se5 3.183000 1_555
Pb2 Se11 3.242001 1_565
Pb2 Se7 3.254578 1_555
Pb3 Se13 2.919148 1_555
Pb3 Se17 2.953151 1_555
Pb3 Se8 3.129782 1_545
Pb3 Se14 3.183000 1_555
Pb3 Se19 3.242001 1_545
Pb3 Se18 3.254578 1_555
Se0 U7 2.851023 1_555
Se0 U2 2.884966 1_556
Se0 U6 2.978655 1_555
Se0 U0 3.023959 1_655
Se1 U3 2.851023 1_555
Se1 U4 2.884966 1_655
Se1 U5 2.978655 1_555
Se1 U1 3.023959 1_555
Se2 U2 2.807451 1_545
Se2 U7 2.912505 1_554
Se3 U2 2.908574 1_555
Se3 U1 2.930684 1_555
Se3 U5 3.205378 1_555
Se4 U3 2.807451 1_565
Se4 U4 2.912505 1_655
Se5 U1 2.915511 1_555
Se5 U6 2.928935 1_555
Se5 U4 3.001643 1_555
Se6 U4 2.851023 1_555
Se6 U3 2.884966 1_455
Se6 U0 2.978655 1_555
Se6 U6 3.023959 1_555
Se7 U5 2.904255 1_455
Se7 U4 2.941601 1_555
Se7 U1 3.050292 1_555
Se8 U7 2.807451 1_565
Se8 U2 2.912505 1_556
Se9 U5 2.915511 1_555
Se9 U0 2.928935 1_654
Se9 U7 3.001643 1_554
Se10 U3 2.908574 1_455
Se10 U5 2.930684 1_455
Se10 U1 3.205378 1_555
Se11 U1 2.904255 1_555
Se11 U7 2.941601 1_554
Se11 U5 3.050292 1_555
Se12 U4 2.908574 1_655
Se12 U0 2.930684 1_655
Se12 U6 3.205378 1_555
Se13 U4 2.807451 1_545
Se13 U3 2.912505 1_455
Se14 U6 2.915511 1_555
Se14 U1 2.928935 1_555
Se14 U3 3.001643 1_555
Se15 U0 2.915511 1_554
Se15 U5 2.928935 1_455
Se15 U2 3.001643 1_555
Se16 U2 2.851023 1_555
Se16 U7 2.884966 1_554
Se16 U1 2.978655 1_555
Se16 U5 3.023959 1_455
Se17 U7 2.908574 1_555
Se17 U6 2.930684 1_555
Se17 U0 3.205378 1_555
Se18 U0 2.904255 1_655
Se18 U3 2.941601 1_555
Se18 U6 3.050292 1_555
Se19 U6 2.904255 1_555
Se19 U2 2.941601 1_556
Se19 U0 3.050292 1_555
