# generated using pymatgen
data_Rb2LiSn4
_symmetry_space_group_name_H-M   'P 1'
_cell_length_a   9.76477096
_cell_length_b   14.88674751
_cell_length_c   15.02158045
_cell_angle_alpha   97.35979076
_cell_angle_beta   103.60427404
_cell_angle_gamma   102.50147471
_symmetry_Int_Tables_number   1
_chemical_formula_structural   Rb2LiSn4
_chemical_formula_sum   'Rb16 Li8 Sn32'
_cell_volume   2034.83019624
_cell_formula_units_Z   8
loop_
 _symmetry_equiv_pos_site_id
 _symmetry_equiv_pos_as_xyz
  1  'x, y, z'
loop_
 _atom_site_type_symbol
 _atom_site_label
 _atom_site_symmetry_multiplicity
 _atom_site_fract_x
 _atom_site_fract_y
 _atom_site_fract_z
 _atom_site_occupancy
  Rb  Rb0  1  0.65993062  0.46566877  0.93728727  1
  Rb  Rb1  1  0.84054269  0.04138663  0.06586565  1
  Rb  Rb2  1  0.03215569  0.64953391  0.88430717  1
  Rb  Rb3  1  0.39444595  0.09116958  0.56560709  1
  Rb  Rb4  1  0.98694580  0.88417126  0.61410143  1
  Rb  Rb5  1  0.15945731  0.95861337  0.93413435  1
  Rb  Rb6  1  0.50680441  0.13259274  0.87150417  1
  Rb  Rb7  1  0.49319559  0.86740726  0.12849583  1
  Rb  Rb8  1  0.89626385  0.59406261  0.56276662  1
  Rb  Rb9  1  0.53709337  0.39710587  0.62689021  1
  Rb  Rb10  1  0.60555405  0.90883042  0.43439291  1
  Rb  Rb11  1  0.10373615  0.40593739  0.43723338  1
  Rb  Rb12  1  0.46290663  0.60289413  0.37310979  1
  Rb  Rb13  1  0.34006938  0.53433123  0.06271273  1
  Rb  Rb14  1  0.96784431  0.35046609  0.11569283  1
  Rb  Rb15  1  0.01305420  0.11582874  0.38589857  1
  Li  Li0  1  0.70378479  0.24750388  0.45508938  1
  Li  Li1  1  0.20264519  0.95210022  0.25099896  1
  Li  Li2  1  0.70902141  0.75414136  0.95299953  1
  Li  Li3  1  0.29621521  0.75249612  0.54491062  1
  Li  Li4  1  0.29097859  0.24585864  0.04700047  1
  Li  Li5  1  0.20905429  0.45618110  0.75122869  1
  Li  Li6  1  0.79094571  0.54381890  0.24877131  1
  Li  Li7  1  0.79735481  0.04789978  0.74900104  1
  Sn  Sn0  1  0.08108768  0.64894283  0.36069498  1
  Sn  Sn1  1  0.86882939  0.13970931  0.59938147  1
  Sn  Sn2  1  0.49527713  0.90303553  0.69392782  1
  Sn  Sn3  1  0.13117061  0.86029069  0.40061853  1
  Sn  Sn4  1  0.24013634  0.14761167  0.19685507  1
  Sn  Sn5  1  0.25772665  0.76606063  0.26008981  1
  Sn  Sn6  1  0.49361891  0.13324477  0.11401841  1
  Sn  Sn7  1  0.74915501  0.68878367  0.13844858  1
  Sn  Sn8  1  0.88913915  0.88488196  0.24204207  1
  Sn  Sn9  1  0.34958177  0.60148492  0.64499554  1
  Sn  Sn10  1  0.74227335  0.23393937  0.73991019  1
  Sn  Sn11  1  0.75263275  0.23847549  0.26938268  1
  Sn  Sn12  1  0.02297669  0.79953451  0.10136491  1
  Sn  Sn13  1  0.50638109  0.86675523  0.88598159  1
  Sn  Sn14  1  0.34422532  0.36067697  0.23198163  1
  Sn  Sn15  1  0.60259478  0.74200134  0.61146610  1
  Sn  Sn16  1  0.98789814  0.39215018  0.85319785  1
  Sn  Sn17  1  0.50472287  0.09696447  0.30607218  1
  Sn  Sn18  1  0.39740522  0.25799866  0.38853390  1
  Sn  Sn19  1  0.97702331  0.20046549  0.89863509  1
  Sn  Sn20  1  0.82593157  0.73601750  0.35181671  1
  Sn  Sn21  1  0.17406843  0.26398250  0.64818329  1
  Sn  Sn22  1  0.65577468  0.63932303  0.76801837  1
  Sn  Sn23  1  0.91891232  0.35105717  0.63930502  1
  Sn  Sn24  1  0.25084499  0.31121633  0.86155142  1
  Sn  Sn25  1  0.65041823  0.39851508  0.35500446  1
  Sn  Sn26  1  0.01210186  0.60784982  0.14680215  1
  Sn  Sn27  1  0.24736725  0.76152451  0.73061732  1
  Sn  Sn28  1  0.11086085  0.11511804  0.75795793  1
  Sn  Sn29  1  0.75986366  0.85238833  0.80314493  1
  Sn  Sn30  1  0.59081989  0.34743023  0.14570171  1
  Sn  Sn31  1  0.40918011  0.65256977  0.85429829  1
loop_
_geom_bond_atom_site_label_1
_geom_bond_atom_site_label_2
_geom_bond_distance
_geom_bond_site_symmetry_2
Rb0 Sn22 3.851080 1_555
Rb0 Sn30 3.904679 1_556
Rb0 Sn24 3.969086 1_555
Rb0 Sn7 3.982395 1_556
Rb0 Sn16 4.014453 1_555
Rb0 Sn26 4.032584 1_656
Rb0 Sn31 4.206292 1_555
Rb1 Sn8 3.758270 1_545
Rb1 Sn4 3.810143 1_655
Rb1 Sn13 3.884224 1_544
Rb1 Sn19 3.927784 1_554
Rb1 Sn6 4.095617 1_555
Rb1 Sn11 4.326473 1_555
Rb2 Sn22 3.640343 1_455
Rb2 Sn16 3.716952 1_455
Rb2 Sn12 3.739570 1_556
Rb2 Sn27 3.778536 1_555
Rb2 Sn31 3.804341 1_555
Rb2 Sn26 4.112041 1_556
Rb3 Sn10 3.764868 1_555
Rb3 Sn2 3.770020 1_545
Rb3 Sn18 3.865428 1_555
Rb3 Sn3 3.944574 1_545
Rb3 Sn21 3.952565 1_555
Rb4 Sn28 3.608254 1_665
Rb4 Sn27 3.687627 1_655
Rb4 Sn3 3.800383 1_655
Rb4 Sn15 3.877687 1_555
Rb4 Sn29 4.007127 1_555
Rb4 Sn20 4.027129 1_555
Rb5 Sn28 3.758270 1_565
Rb5 Sn29 3.810143 1_455
Rb5 Sn6 3.884224 1_566
Rb5 Sn12 3.927784 1_556
Rb5 Sn13 4.095617 1_555
Rb5 Sn27 4.326473 1_555
Rb6 Sn10 3.587614 1_555
Rb6 Sn6 3.674217 1_556
Rb6 Sn28 3.778066 1_555
Rb6 Sn13 3.990314 1_545
Rb6 Sn24 4.017911 1_555
Rb6 Sn2 4.020352 1_545
Rb7 Sn5 3.587614 1_555
Rb7 Sn13 3.674217 1_554
Rb7 Sn8 3.778066 1_555
Rb7 Sn6 3.990314 1_565
Rb7 Sn7 4.017911 1_555
Rb7 Sn17 4.020352 1_565
Rb8 Sn27 3.866425 1_655
Rb8 Sn25 3.885847 1_555
Rb8 Sn0 3.963917 1_655
Rb8 Sn23 3.968610 1_555
Rb8 Sn20 4.037196 1_555
Rb8 Sn15 4.113006 1_555
Rb9 Sn18 3.680877 1_555
Rb9 Sn22 3.730410 1_555
Rb9 Sn21 3.774938 1_555
Rb9 Sn10 3.789443 1_555
Rb9 Sn9 3.888146 1_555
Rb9 Sn23 3.900981 1_555
Rb10 Sn5 3.764868 1_555
Rb10 Sn17 3.770020 1_565
Rb10 Sn15 3.865428 1_555
Rb10 Sn1 3.944574 1_565
Rb10 Sn20 3.952565 1_555
Rb11 Sn11 3.866425 1_455
Rb11 Sn9 3.885847 1_555
Rb11 Sn23 3.963917 1_455
Rb11 Sn0 3.968610 1_555
Rb11 Sn21 4.037196 1_555
Rb11 Sn18 4.113006 1_555
Rb12 Sn15 3.680877 1_555
Rb12 Sn14 3.730410 1_555
Rb12 Sn20 3.774938 1_555
Rb12 Sn5 3.789443 1_555
Rb12 Sn25 3.888146 1_555
Rb12 Sn0 3.900981 1_555
Rb13 Sn14 3.851080 1_555
Rb13 Sn31 3.904679 1_554
Rb13 Sn7 3.969086 1_555
Rb13 Sn24 3.982395 1_554
Rb13 Sn26 4.014453 1_555
Rb13 Sn16 4.032584 1_454
Rb13 Sn30 4.206292 1_555
Rb14 Sn14 3.640343 1_655
Rb14 Sn26 3.716952 1_655
Rb14 Sn19 3.739570 1_554
Rb14 Sn11 3.778536 1_555
Rb14 Sn30 3.804341 1_555
Rb14 Sn16 4.112041 1_554
Rb15 Sn8 3.608254 1_445
Rb15 Sn11 3.687627 1_455
Rb15 Sn1 3.800383 1_455
Rb15 Sn18 3.877687 1_555
Rb15 Sn4 4.007127 1_555
Rb15 Sn21 4.027129 1_555
Li0 Sn11 2.930043 1_555
Li0 Sn25 2.930903 1_555
Li0 Sn17 2.931441 1_555
Li0 Sn18 2.968110 1_555
Li0 Sn23 3.035989 1_555
Li0 Sn1 3.199674 1_555
Li1 Sn12 2.898377 1_555
Li1 Sn3 2.918631 1_555
Li1 Sn5 2.947108 1_555
Li1 Sn8 2.972643 1_455
Li1 Sn4 3.090625 1_565
Li1 Sn17 3.110782 1_565
Li2 Sn29 2.916800 1_555
Li2 Sn31 2.919578 1_555
Li2 Sn22 2.938014 1_555
Li2 Sn13 2.944622 1_555
Li2 Sn7 3.034219 1_556
Li2 Sn12 3.213295 1_656
Li3 Sn27 2.930043 1_555
Li3 Sn9 2.930903 1_555
Li3 Sn2 2.931441 1_555
Li3 Sn15 2.968110 1_555
Li3 Sn0 3.035989 1_555
Li3 Sn3 3.199674 1_555
Li4 Sn4 2.916800 1_555
Li4 Sn30 2.919578 1_555
Li4 Sn14 2.938014 1_555
Li4 Sn6 2.944622 1_555
Li4 Sn24 3.034219 1_554
Li4 Sn19 3.213295 1_454
Li5 Sn23 2.910016 1_455
Li5 Sn24 2.923952 1_555
Li5 Sn21 2.982052 1_555
Li5 Sn16 2.992898 1_455
Li5 Sn31 3.115589 1_555
Li5 Sn9 3.120575 1_555
Li6 Sn0 2.910016 1_655
Li6 Sn7 2.923952 1_555
Li6 Sn20 2.982052 1_555
Li6 Sn26 2.992898 1_655
Li6 Sn30 3.115589 1_555
Li6 Sn25 3.120575 1_555
Li7 Sn19 2.898377 1_555
Li7 Sn1 2.918631 1_555
Li7 Sn10 2.947108 1_555
Li7 Sn28 2.972643 1_655
Li7 Sn29 3.090625 1_545
Li7 Sn2 3.110782 1_545
Sn0 Sn5 2.982971 1_555
Sn0 Sn20 3.031839 1_455
Sn0 Sn3 3.034862 1_555
Sn0 Sn26 3.074291 1_555
Sn1 Sn21 3.013521 1_655
Sn1 Sn10 3.028232 1_555
Sn1 Sn23 3.034862 1_555
Sn1 Sn28 3.056703 1_655
Sn2 Sn27 3.052727 1_555
Sn3 Sn5 3.028232 1_555
Sn3 Sn8 3.056703 1_455
Sn4 Sn6 3.054611 1_555
Sn7 Sn8 2.986648 1_555
Sn10 Sn16 2.967024 1_555
Sn10 Sn23 2.982971 1_555
Sn10 Sn19 3.068477 1_555
Sn11 Sn6 2.978064 1_555
Sn11 Sn30 3.013263 1_555
Sn11 Sn25 3.029015 1_555
Sn11 Sn17 3.052727 1_555
Sn12 Sn26 3.003640 1_555
Sn12 Sn8 3.019607 1_455
Sn12 Sn7 3.034024 1_455
Sn12 Sn5 3.068477 1_555
Sn13 Sn27 2.978064 1_555
Sn13 Sn2 2.983923 1_555
Sn13 Sn29 3.054611 1_555
Sn13 Sn31 3.063099 1_555
Sn14 Sn18 2.970947 1_555
Sn14 Sn25 3.012775 1_555
Sn14 Sn30 3.020772 1_555
Sn14 Sn4 3.048824 1_555
Sn15 Sn22 2.970947 1_555
Sn15 Sn29 2.994058 1_555
Sn15 Sn2 3.052367 1_555
Sn15 Sn9 3.057983 1_555
Sn16 Sn19 3.003640 1_555
Sn16 Sn24 3.047376 1_655
Sn16 Sn23 3.074291 1_555
Sn17 Sn6 2.983923 1_555
Sn17 Sn18 3.052367 1_555
Sn18 Sn4 2.994058 1_555
Sn18 Sn25 3.057983 1_555
Sn19 Sn28 3.019607 1_655
Sn19 Sn24 3.034024 1_655
Sn20 Sn8 2.972223 1_555
Sn20 Sn3 3.013521 1_655
Sn20 Sn7 3.064850 1_555
Sn21 Sn28 2.972223 1_555
Sn21 Sn23 3.031839 1_455
Sn21 Sn24 3.064850 1_555
Sn22 Sn9 3.012775 1_555
Sn22 Sn31 3.020772 1_555
Sn22 Sn29 3.048824 1_555
Sn24 Sn28 2.986648 1_555
Sn25 Sn30 3.022778 1_555
Sn26 Sn5 2.967024 1_555
Sn26 Sn7 3.047376 1_455
Sn27 Sn31 3.013263 1_555
Sn27 Sn9 3.029015 1_555
Sn30 Sn6 3.063099 1_555
Sn31 Sn9 3.022778 1_555
