# generated using pymatgen
data_K10Hf3Mo12PbO48
_symmetry_space_group_name_H-M   'P 1'
_cell_length_a   15.81019038
_cell_length_b   15.81019038
_cell_length_c   15.81019074
_cell_angle_alpha   37.85591494
_cell_angle_beta   37.85591494
_cell_angle_gamma   37.85591425
_symmetry_Int_Tables_number   1
_chemical_formula_structural   K10Hf3Mo12PbO48
_chemical_formula_sum   'K10 Hf3 Mo12 Pb1 O48'
_cell_volume   1335.61720437
_cell_formula_units_Z   1
loop_
 _symmetry_equiv_pos_site_id
 _symmetry_equiv_pos_as_xyz
  1  'x, y, z'
loop_
 _atom_site_type_symbol
 _atom_site_label
 _atom_site_symmetry_multiplicity
 _atom_site_fract_x
 _atom_site_fract_y
 _atom_site_fract_z
 _atom_site_occupancy
  K  K0  1  0.21043700  0.62316500  0.89180800  1
  K  K1  1  0.62316500  0.89180800  0.21043700  1
  K  K2  1  0.37683500  0.10819200  0.78956300  1
  K  K3  1  0.37608900  0.37608900  0.37608900  1
  K  K4  1  0.89180800  0.21043700  0.62316500  1
  K  K5  1  0.78956300  0.37683500  0.10819200  1
  K  K6  1  0.83485500  0.83485500  0.83485500  1
  K  K7  1  0.16514500  0.16514500  0.16514500  1
  K  K8  1  0.10819200  0.78956300  0.37683500  1
  K  K9  1  0.62391100  0.62391100  0.62391100  1
  Hf  Hf0  1  0.74385700  0.74385700  0.74385700  1
  Hf  Hf1  1  0.00000000  0.00000000  0.00000000  1
  Hf  Hf2  1  0.25614300  0.25614300  0.25614300  1
  Mo  Mo0  1  0.49977500  0.76819500  0.10995300  1
  Mo  Mo1  1  0.62547200  0.24340800  0.04962400  1
  Mo  Mo2  1  0.76819500  0.10995300  0.49977500  1
  Mo  Mo3  1  0.23180500  0.89004700  0.50022500  1
  Mo  Mo4  1  0.89004700  0.50022500  0.23180500  1
  Mo  Mo5  1  0.24340800  0.04962400  0.62547200  1
  Mo  Mo6  1  0.95037600  0.37452800  0.75659200  1
  Mo  Mo7  1  0.04962400  0.62547200  0.24340800  1
  Mo  Mo8  1  0.50022500  0.23180500  0.89004700  1
  Mo  Mo9  1  0.75659200  0.95037600  0.37452800  1
  Mo  Mo10  1  0.37452800  0.75659200  0.95037600  1
  Mo  Mo11  1  0.10995300  0.49977500  0.76819500  1
  Pb  Pb0  1  0.50000000  0.50000000  0.50000000  1
  O  O0  1  0.69629800  0.96205300  0.67275600  1
  O  O1  1  0.03144400  0.94963300  0.62155400  1
  O  O2  1  0.05036700  0.37844600  0.96855600  1
  O  O3  1  0.19288500  0.89613000  0.73088000  1
  O  O4  1  0.94963300  0.62155400  0.03144400  1
  O  O5  1  0.82690700  0.80883400  0.52527000  1
  O  O6  1  0.26912000  0.80711500  0.10387000  1
  O  O7  1  0.87759500  0.59495500  0.34329800  1
  O  O8  1  0.30886200  0.41544900  0.65025500  1
  O  O9  1  0.47473000  0.17309300  0.19116600  1
  O  O10  1  0.34974500  0.69113800  0.58455100  1
  O  O11  1  0.70868300  0.88041000  0.35733500  1
  O  O12  1  0.11959000  0.64266500  0.29131700  1
  O  O13  1  0.80883400  0.52527000  0.82690700  1
  O  O14  1  0.64266500  0.29131700  0.11959000  1
  O  O15  1  0.83848200  0.74607600  0.39845600  1
  O  O16  1  0.29131700  0.11959000  0.64266500  1
  O  O17  1  0.40504500  0.65670200  0.12240500  1
  O  O18  1  0.80711500  0.10387000  0.26912000  1
  O  O19  1  0.37844600  0.96855600  0.05036700  1
  O  O20  1  0.12240500  0.40504500  0.65670200  1
  O  O21  1  0.19116600  0.47473000  0.17309300  1
  O  O22  1  0.41544900  0.65025500  0.30886200  1
  O  O23  1  0.16151800  0.25392400  0.60154400  1
  O  O24  1  0.52527000  0.82690700  0.80883400  1
  O  O25  1  0.58455100  0.34974500  0.69113800  1
  O  O26  1  0.10387000  0.26912000  0.80711500  1
  O  O27  1  0.67275600  0.69629800  0.96205300  1
  O  O28  1  0.25392400  0.60154400  0.16151800  1
  O  O29  1  0.65025500  0.30886200  0.41544900  1
  O  O30  1  0.32724400  0.30370200  0.03794700  1
  O  O31  1  0.96855600  0.05036700  0.37844600  1
  O  O32  1  0.30370200  0.03794700  0.32724400  1
  O  O33  1  0.88041000  0.35733500  0.70868300  1
  O  O34  1  0.17309300  0.19116600  0.47473000  1
  O  O35  1  0.69113800  0.58455100  0.34974500  1
  O  O36  1  0.60154400  0.16151800  0.25392400  1
  O  O37  1  0.65670200  0.12240500  0.40504500  1
  O  O38  1  0.39845600  0.83848200  0.74607600  1
  O  O39  1  0.35733500  0.70868300  0.88041000  1
  O  O40  1  0.62155400  0.03144400  0.94963300  1
  O  O41  1  0.03794700  0.32724400  0.30370200  1
  O  O42  1  0.59495500  0.34329800  0.87759500  1
  O  O43  1  0.96205300  0.67275600  0.69629800  1
  O  O44  1  0.89613000  0.73088000  0.19288500  1
  O  O45  1  0.73088000  0.19288500  0.89613000  1
  O  O46  1  0.34329800  0.87759500  0.59495500  1
  O  O47  1  0.74607600  0.39845600  0.83848200  1
loop_
_geom_bond_atom_site_label_1
_geom_bond_atom_site_label_2
_geom_bond_distance
_geom_bond_site_symmetry_2
K0 O3 2.657038 1_555
K0 O4 2.752982 1_456
K0 O30 2.800000 1_556
K0 O21 2.808293 1_556
K0 O10 2.864020 1_555
K0 O39 3.341773 1_555
K1 O44 2.657038 1_555
K1 O40 2.752982 1_564
K1 O32 2.800000 1_565
K1 O9 2.808293 1_565
K1 O35 2.864020 1_555
K1 O11 3.341773 1_555
K2 O26 2.657038 1_555
K2 O19 2.752982 1_546
K2 O0 2.800000 1_545
K2 O24 2.808293 1_545
K2 O8 2.864020 1_555
K2 O16 3.341773 1_555
K3 O37 2.861454 1_555
K3 O17 2.861454 1_555
K3 O20 2.861454 1_555
K3 O36 2.885261 1_555
K3 O23 2.885261 1_555
K3 O28 2.885261 1_555
K3 O12 2.945861 1_555
K3 O16 2.945861 1_555
K3 O14 2.945861 1_555
K4 O45 2.657038 1_555
K4 O1 2.752982 1_645
K4 O41 2.800000 1_655
K4 O34 2.808293 1_655
K4 O25 2.864020 1_555
K4 O33 3.341773 1_555
K5 O18 2.657038 1_555
K5 O2 2.752982 1_654
K5 O27 2.800000 1_554
K5 O13 2.808293 1_554
K5 O29 2.864020 1_555
K5 O14 3.341773 1_555
K6 O40 2.649005 1_565
K6 O1 2.649005 1_655
K6 O4 2.649005 1_556
K6 O27 3.030055 1_555
K6 O43 3.030055 1_555
K6 O0 3.030055 1_555
K7 O19 2.649005 1_545
K7 O31 2.649005 1_455
K7 O2 2.649005 1_554
K7 O30 3.030055 1_555
K7 O41 3.030055 1_555
K7 O32 3.030055 1_555
K8 O6 2.657038 1_555
K8 O31 2.752982 1_465
K8 O43 2.800000 1_455
K8 O5 2.808293 1_455
K8 O22 2.864020 1_555
K8 O12 3.341773 1_555
K9 O46 2.861454 1_555
K9 O42 2.861454 1_555
K9 O7 2.861454 1_555
K9 O38 2.885261 1_555
K9 O15 2.885261 1_555
K9 O47 2.885261 1_555
K9 O33 2.945861 1_555
K9 O11 2.945861 1_555
K9 O39 2.945861 1_555
Hf0 O24 2.020120 1_555
Hf0 O13 2.020120 1_555
Hf0 O5 2.020120 1_555
Hf0 O43 2.201051 1_555
Hf0 O0 2.201051 1_555
Hf0 O27 2.201051 1_555
Hf1 Mo10 3.454791 1_544
Hf1 Mo1 3.454791 1_455
Hf1 Mo6 3.454791 1_454
Hf1 Mo7 3.454791 1_545
Hf1 Mo9 3.454791 1_445
Hf1 Mo5 3.454791 1_554
Hf2 O9 2.020120 1_555
Hf2 O21 2.020120 1_555
Hf2 O34 2.020120 1_555
Hf2 O41 2.201051 1_555
Hf2 O32 2.201051 1_555
Hf2 O30 2.201051 1_555
Mo0 O19 1.774111 1_555
Mo0 O22 1.785833 1_555
Mo0 O27 1.851793 1_554
Mo1 O9 1.938316 1_555
Mo1 O45 1.969048 1_554
Mo1 O14 1.998571 1_555
Mo1 O42 2.051929 1_554
Mo1 O36 2.119567 1_555
Mo1 O47 2.279495 1_554
Mo2 O31 1.774111 1_555
Mo2 O29 1.785832 1_555
Mo2 O0 1.851793 1_545
Mo3 O1 1.774111 1_555
Mo3 O10 1.785832 1_555
Mo3 O32 1.851793 1_565
Mo4 O4 1.774111 1_555
Mo4 O35 1.785833 1_555
Mo4 O41 1.851793 1_655
Mo5 O34 1.938316 1_555
Mo5 O3 1.969048 1_545
Mo5 O16 1.998571 1_555
Mo5 O46 2.051929 1_545
Mo5 O23 2.119567 1_555
Mo5 O38 2.279495 1_545
Mo6 O13 1.938316 1_555
Mo6 O26 1.969048 1_655
Mo6 O33 1.998571 1_555
Mo6 O20 2.051929 1_655
Mo6 O47 2.119567 1_555
Mo6 O23 2.279495 1_655
Mo7 O21 1.938316 1_555
Mo7 O44 1.969048 1_455
Mo7 O12 1.998571 1_555
Mo7 O7 2.051929 1_455
Mo7 O28 2.119567 1_555
Mo7 O15 2.279495 1_455
Mo8 O40 1.774111 1_555
Mo8 O25 1.785833 1_555
Mo8 O30 1.851793 1_556
Mo9 O5 1.938316 1_555
Mo9 O18 1.969048 1_565
Mo9 O11 1.998571 1_555
Mo9 O37 2.051929 1_565
Mo9 O15 2.119567 1_555
Mo9 O36 2.279495 1_565
Mo10 O24 1.938316 1_555
Mo10 O6 1.969048 1_556
Mo10 O39 1.998571 1_555
Mo10 O17 2.051929 1_556
Mo10 O38 2.119567 1_555
Mo10 O28 2.279495 1_556
Mo11 O2 1.774111 1_555
Mo11 O8 1.785833 1_555
Mo11 O43 1.851793 1_455
O3 O46 1.477588 1_555
O8 Pb0 2.567219 1_555
O10 Pb0 2.567219 1_555
O11 O15 1.479397 1_555
O12 O28 1.479397 1_555
O14 O36 1.479397 1_555
O16 O23 1.479397 1_555
O17 O6 1.477588 1_555
O18 O37 1.477588 1_555
O20 O26 1.477588 1_555
O22 Pb0 2.567219 1_555
O25 Pb0 2.567219 1_555
O29 Pb0 2.567219 1_555
O33 O47 1.479397 1_555
O35 Pb0 2.567219 1_555
O38 O39 1.479397 1_555
O42 O45 1.477588 1_555
O44 O7 1.477588 1_555
