# generated using pymatgen
data_K3H5Pt
_symmetry_space_group_name_H-M   'P 1'
_cell_length_a   7.36009709
_cell_length_b   7.36009709
_cell_length_c   5.71410507
_cell_angle_alpha   90.00000000
_cell_angle_beta   90.00000000
_cell_angle_gamma   90.00000000
_symmetry_Int_Tables_number   1
_chemical_formula_structural   K3H5Pt
_chemical_formula_sum   'K6 H10 Pt2'
_cell_volume   309.53895245
_cell_formula_units_Z   2
loop_
 _symmetry_equiv_pos_site_id
 _symmetry_equiv_pos_as_xyz
  1  'x, y, z'
loop_
 _atom_site_type_symbol
 _atom_site_label
 _atom_site_symmetry_multiplicity
 _atom_site_fract_x
 _atom_site_fract_y
 _atom_site_fract_z
 _atom_site_occupancy
  K  K0  1  0.50000000  0.50000000  0.00000000  1
  K  K1  1  -0.00000000  -0.00000000  -0.00000000  1
  K  K2  1  0.18379342  0.68379342  0.50000000  1
  K  K3  1  0.81620658  0.31620658  0.50000000  1
  K  K4  1  0.68379342  0.81620658  0.50000000  1
  K  K5  1  0.31620658  0.18379342  0.50000000  1
  H  H0  1  0.50000000  0.50000000  0.50000000  1
  H  H1  1  -0.00000000  -0.00000000  0.50000000  1
  H  H2  1  0.61313715  0.11313715  0.79857613  1
  H  H3  1  0.38686285  0.88686285  0.79857613  1
  H  H4  1  0.11313715  0.38686285  0.79857613  1
  H  H5  1  0.88686285  0.61313715  0.79857613  1
  H  H6  1  0.38686285  0.88686285  0.20142387  1
  H  H7  1  0.61313715  0.11313715  0.20142387  1
  H  H8  1  0.88686285  0.61313715  0.20142387  1
  H  H9  1  0.11313715  0.38686285  0.20142387  1
  Pt  Pt0  1  0.50000000  -0.00000000  -0.00000000  1
  Pt  Pt1  1  -0.00000000  0.50000000  -0.00000000  1
loop_
_geom_bond_atom_site_label_1
_geom_bond_atom_site_label_2
_geom_bond_distance
_geom_bond_site_symmetry_2
H0 K2 2.691891 1_555
H0 K5 2.691891 1_555
H0 K4 2.691891 1_555
H0 K3 2.691891 1_555
H0 K0 2.857053 1_555
H0 K0 2.857053 1_556
H1 K3 2.691891 1_455
H1 K4 2.691891 1_445
H1 K5 2.691891 1_555
H1 K2 2.691891 1_545
H1 K1 2.857053 1_555
H1 K1 2.857053 1_556
H2 Pt0 1.646658 1_556
H2 K3 2.716336 1_555
H2 K5 2.820875 1_555
H2 K4 2.820875 1_545
H3 Pt0 1.646658 1_566
H3 K2 2.716336 1_555
H3 K4 2.820875 1_555
H3 K5 2.820875 1_565
H4 Pt1 1.646658 1_556
H4 K5 2.716336 1_555
H4 K3 2.820875 1_455
H4 K2 2.820875 1_555
H5 Pt1 1.646658 1_656
H5 K4 2.716336 1_555
H5 K2 2.820875 1_655
H5 K3 2.820875 1_555
H6 Pt0 1.646658 1_565
H6 K2 2.716336 1_555
H6 K4 2.820875 1_555
H6 K5 2.820875 1_565
H7 Pt0 1.646658 1_555
H7 K3 2.716336 1_555
H7 K4 2.820875 1_545
H7 K5 2.820875 1_555
H8 Pt1 1.646658 1_655
H8 K4 2.716336 1_555
H8 K2 2.820875 1_655
H8 K3 2.820875 1_555
H9 Pt1 1.646658 1_555
H9 K5 2.716336 1_555
H9 K3 2.820875 1_455
H9 K2 2.820875 1_555
