# generated using pymatgen
data_SrYSi4N7
_symmetry_space_group_name_H-M   'P 1'
_cell_length_a   6.06146913
_cell_length_b   6.06146913
_cell_length_c   9.88814400
_cell_angle_alpha   90.00000000
_cell_angle_beta   90.00000000
_cell_angle_gamma   119.99999051
_symmetry_Int_Tables_number   1
_chemical_formula_structural   SrYSi4N7
_chemical_formula_sum   'Sr2 Y2 Si8 N14'
_cell_volume   314.63081198
_cell_formula_units_Z   2
loop_
 _symmetry_equiv_pos_site_id
 _symmetry_equiv_pos_as_xyz
  1  'x, y, z'
loop_
 _atom_site_type_symbol
 _atom_site_label
 _atom_site_symmetry_multiplicity
 _atom_site_fract_x
 _atom_site_fract_y
 _atom_site_fract_z
 _atom_site_occupancy
  Sr  Sr0  1  0.66666700  0.33333300  0.58140800  1
  Sr  Sr1  1  0.33333300  0.66666700  0.08140800  1
  Y  Y0  1  0.66666700  0.33333300  0.95053300  1
  Y  Y1  1  0.33333300  0.66666700  0.45053300  1
  Si  Si0  1  0.17397600  0.34795100  0.75984900  1
  Si  Si1  1  0.82602400  0.17397600  0.25984900  1
  Si  Si2  1  0.34795100  0.17397600  0.25984900  1
  Si  Si3  1  0.65204900  0.82602400  0.75984900  1
  Si  Si4  1  0.17397600  0.82602400  0.75984900  1
  Si  Si5  1  0.82602400  0.65204900  0.25984900  1
  Si  Si6  1  0.00000000  0.00000000  0.02746500  1
  Si  Si7  1  0.00000000  0.00000000  0.52746500  1
  N  N0  1  0.00000000  0.00000000  0.83670000  1
  N  N1  1  0.00000000  0.00000000  0.33670000  1
  N  N2  1  0.84710300  0.69420600  0.08728900  1
  N  N3  1  0.15289700  0.84710300  0.58728900  1
  N  N4  1  0.69420600  0.84710300  0.58728900  1
  N  N5  1  0.30579400  0.15289700  0.08728900  1
  N  N6  1  0.84710300  0.15289700  0.08728900  1
  N  N7  1  0.15289700  0.30579400  0.58728900  1
  N  N8  1  0.48844200  0.51155800  0.81176700  1
  N  N9  1  0.97688500  0.48844200  0.31176700  1
  N  N10  1  0.51155800  0.02311500  0.31176700  1
  N  N11  1  0.48844200  0.97688500  0.81176700  1
  N  N12  1  0.51155800  0.48844200  0.31176700  1
  N  N13  1  0.02311500  0.51155800  0.81176700  1
loop_
_geom_bond_atom_site_label_1
_geom_bond_atom_site_label_2
_geom_bond_distance
_geom_bond_site_symmetry_2
N0 Si6 1.886312 1_556
N0 Si0 1.978302 1_555
N0 Si3 1.978302 1_445
N0 Si4 1.978307 1_545
N1 Si7 1.886312 1_555
N1 Si2 1.978302 1_555
N1 Si5 1.978302 1_445
N1 Si1 1.978307 1_455
N2 Si6 1.710759 1_665
N2 Si5 1.720589 1_555
N2 Y0 2.327493 1_554
N2 Sr1 3.034735 1_655
N2 Sr1 3.034741 1_555
N3 Si7 1.710759 1_565
N3 Si4 1.720590 1_555
N3 Y1 2.327488 1_555
N3 Sr0 3.034738 1_455
N3 Sr0 3.034738 1_565
N4 Si7 1.710759 1_665
N4 Si3 1.720589 1_555
N4 Y1 2.327493 1_555
N4 Sr0 3.034735 1_565
N4 Sr0 3.034741 1_555
N5 Si6 1.710759 1_555
N5 Si2 1.720589 1_555
N5 Y0 2.327493 1_554
N5 Sr1 3.034735 1_545
N5 Sr1 3.034741 1_555
N6 Si6 1.710759 1_655
N6 Si1 1.720590 1_555
N6 Y0 2.327488 1_554
N6 Sr1 3.034738 1_545
N6 Sr1 3.034738 1_655
N7 Si7 1.710759 1_555
N7 Si0 1.720589 1_555
N7 Y1 2.327493 1_555
N7 Sr0 3.034735 1_455
N7 Sr0 3.034741 1_555
N8 Si0 1.729171 1_555
N8 Si3 1.729171 1_555
N8 Y0 2.320332 1_555
N8 Sr0 2.947822 1_555
N8 Sr1 3.124219 1_556
N9 Si1 1.729171 1_555
N9 Si5 1.729181 1_555
N9 Y1 2.320324 1_655
N9 Sr1 2.947816 1_655
N9 Sr0 3.124219 1_555
N10 Si1 1.729171 1_555
N10 Si2 1.729181 1_555
N10 Y1 2.320324 1_545
N10 Sr1 2.947816 1_545
N10 Sr0 3.124219 1_555
N11 Si4 1.729171 1_555
N11 Si3 1.729181 1_555
N11 Y0 2.320324 1_565
N11 Sr0 2.947816 1_565
N11 Sr1 3.124219 1_556
N12 Si5 1.729171 1_555
N12 Si2 1.729171 1_555
N12 Y1 2.320332 1_555
N12 Sr1 2.947822 1_555
N12 Sr0 3.124219 1_555
N13 Si4 1.729171 1_555
N13 Si0 1.729181 1_555
N13 Y0 2.320324 1_455
N13 Sr0 2.947816 1_455
N13 Sr1 3.124219 1_556
