# generated using pymatgen
data_NaAg(NO2)2
_symmetry_space_group_name_H-M   'P 1'
_cell_length_a   7.75557366
_cell_length_b   6.95018417
_cell_length_c   6.76678897
_cell_angle_alpha   68.84517087
_cell_angle_beta   56.69510269
_cell_angle_gamma   54.45972645
_symmetry_Int_Tables_number   1
_chemical_formula_structural   NaAg(NO2)2
_chemical_formula_sum   'Na2 Ag2 N4 O8'
_cell_volume   247.58495199
_cell_formula_units_Z   2
loop_
 _symmetry_equiv_pos_site_id
 _symmetry_equiv_pos_as_xyz
  1  'x, y, z'
loop_
 _atom_site_type_symbol
 _atom_site_label
 _atom_site_symmetry_multiplicity
 _atom_site_fract_x
 _atom_site_fract_y
 _atom_site_fract_z
 _atom_site_occupancy
  Na  Na0  1  0.75085700  0.74964900  0.74223600  1
  Na  Na1  1  0.50088400  0.49624800  0.49420400  1
  Ag  Ag0  1  0.24667700  0.24868600  0.25881900  1
  Ag  Ag1  1  0.99512300  0.99626900  0.00634800  1
  N  N0  1  0.51072400  0.98521100  0.52262500  1
  N  N1  1  0.98579300  0.52297000  0.97696400  1
  N  N2  1  0.80110000  0.20633700  0.79043000  1
  N  N3  1  0.19323400  0.80152800  0.20711300  1
  O  O0  1  0.69860500  0.11711800  0.78041700  1
  O  O1  1  0.40515400  0.91958500  0.50253500  1
  O  O2  1  0.39539600  0.77491400  0.13298300  1
  O  O3  1  0.92298300  0.39328600  0.16966700  1
  O  O4  1  0.16398900  0.51523600  0.91788100  1
  O  O5  1  0.76879000  0.40707000  0.69697600  1
  O  O6  1  0.12671900  0.70340400  0.39945700  1
  O  O7  1  0.51664500  0.17330700  0.39335800  1
loop_
_geom_bond_atom_site_label_1
_geom_bond_atom_site_label_2
_geom_bond_distance
_geom_bond_site_symmetry_2
Na0 O5 2.424215 1_555
Na0 O0 2.431428 1_565
Na0 O6 2.450380 1_655
Na0 O2 2.527732 1_556
Na1 O7 2.492659 1_555
Na1 O3 2.562674 1_555
Na1 O4 2.590264 1_555
Na1 O1 2.597221 1_555
Na1 O2 2.707788 1_555
Na1 O6 2.724802 1_555
Na1 O5 2.757509 1_555
Na1 O0 2.815366 1_555
Ag0 O1 2.386894 1_545
Ag0 O7 2.441505 1_555
Ag0 O3 2.443096 1_455
Ag0 O4 2.514860 1_554
Ag1 N3 2.141439 1_655
Ag1 N2 2.202574 1_564
N0 O1 1.223936 1_555
N0 O7 1.294833 1_565
N0 Na0 2.468966 1_555
N1 O4 1.181124 1_655
N1 O3 1.309423 1_556
N1 Na0 2.521852 1_555
N2 O5 1.240926 1_555
N2 O0 1.297493 1_555
N3 O6 1.206739 1_555
N3 O2 1.268937 1_555
