# generated using pymatgen
data_ReHgO4
_symmetry_space_group_name_H-M   'P 1'
_cell_length_a   5.07751437
_cell_length_b   5.69014119
_cell_length_c   15.15468427
_cell_angle_alpha   70.68148950
_cell_angle_beta   90.00000000
_cell_angle_gamma   90.00000000
_symmetry_Int_Tables_number   1
_chemical_formula_structural   ReHgO4
_chemical_formula_sum   'Re4 Hg4 O16'
_cell_volume   413.19242178
_cell_formula_units_Z   4
loop_
 _symmetry_equiv_pos_site_id
 _symmetry_equiv_pos_as_xyz
  1  'x, y, z'
loop_
 _atom_site_type_symbol
 _atom_site_label
 _atom_site_symmetry_multiplicity
 _atom_site_fract_x
 _atom_site_fract_y
 _atom_site_fract_z
 _atom_site_occupancy
  Re  Re0  1  0.64417043  0.14320836  0.34425640  1
  Re  Re1  1  0.35582957  0.85679164  0.65574360  1
  Re  Re2  1  0.14417043  0.85679164  0.15574360  1
  Re  Re3  1  0.85582957  0.14320836  0.84425640  1
  Hg  Hg0  1  0.32746697  0.61002898  0.93899426  1
  Hg  Hg1  1  0.17253303  0.61002898  0.43899426  1
  Hg  Hg2  1  0.82746697  0.38997102  0.56100574  1
  Hg  Hg3  1  0.67253303  0.38997102  0.06100574  1
  O  O0  1  0.51120395  0.84407389  0.36414092  1
  O  O1  1  0.48879605  0.15592611  0.63585908  1
  O  O2  1  0.07393549  0.66851213  0.26933951  1
  O  O3  1  0.01120395  0.15592611  0.13585908  1
  O  O4  1  0.51814876  0.27747182  0.42328326  1
  O  O5  1  0.51858320  0.10896497  0.86128732  1
  O  O6  1  0.98185124  0.27747182  0.92328326  1
  O  O7  1  0.57393549  0.33148787  0.23066049  1
  O  O8  1  0.98879605  0.84407389  0.86414092  1
  O  O9  1  0.98141680  0.10896497  0.36128732  1
  O  O10  1  0.48141680  0.89103503  0.13871268  1
  O  O11  1  0.92606451  0.33148787  0.73066049  1
  O  O12  1  0.01858320  0.89103503  0.63871268  1
  O  O13  1  0.42606451  0.66851213  0.76933951  1
  O  O14  1  0.01814876  0.72252818  0.07671674  1
  O  O15  1  0.48185124  0.72252818  0.57671674  1
loop_
_geom_bond_atom_site_label_1
_geom_bond_atom_site_label_2
_geom_bond_distance
_geom_bond_site_symmetry_2
Hg0 O8 2.240061 1_455
Hg0 O13 2.530939 1_555
Hg0 O6 2.648611 1_455
Hg1 O0 2.240061 1_555
Hg1 O2 2.530939 1_555
Hg1 O4 2.648611 1_555
Hg2 O1 2.240061 1_555
Hg2 O11 2.530939 1_555
Hg2 O15 2.648611 1_555
Hg3 O3 2.240061 1_655
Hg3 O7 2.530939 1_555
Hg3 O14 2.648611 1_655
O0 Re0 1.761946 1_565
O1 Re1 1.761946 1_545
O2 Re2 1.737316 1_555
O3 Re2 1.761946 1_545
O4 Re0 1.741490 1_555
O5 Re3 1.733069 1_555
O6 Re3 1.741490 1_555
O7 Re0 1.737316 1_555
O8 Re3 1.761946 1_565
O9 Re0 1.733069 1_555
O10 Re2 1.733069 1_555
O11 Re3 1.737316 1_555
O12 Re1 1.733069 1_555
O13 Re1 1.737316 1_555
O14 Re2 1.741490 1_555
O15 Re1 1.741490 1_555
