# generated using pymatgen
data_Cs3Cu2(BiS2)5
_symmetry_space_group_name_H-M   'P 1'
_cell_length_a   4.11450000
_cell_length_b   15.21054500
_cell_length_c   18.19946500
_cell_angle_alpha   90.00000000
_cell_angle_beta   90.00000000
_cell_angle_gamma   90.00000000
_symmetry_Int_Tables_number   1
_chemical_formula_structural   Cs3Cu2(BiS2)5
_chemical_formula_sum   'Cs6 Cu4 Bi10 S20'
_cell_volume   1138.99144840
_cell_formula_units_Z   2
loop_
 _symmetry_equiv_pos_site_id
 _symmetry_equiv_pos_as_xyz
  1  'x, y, z'
loop_
 _atom_site_type_symbol
 _atom_site_label
 _atom_site_symmetry_multiplicity
 _atom_site_fract_x
 _atom_site_fract_y
 _atom_site_fract_z
 _atom_site_occupancy
  Cs  Cs0  1  0.00000000  0.00000000  0.50000000  1
  Cs  Cs1  1  0.00000000  0.52244000  0.75232000  1
  Cs  Cs2  1  0.50000000  0.97756000  0.25232000  1
  Cs  Cs3  1  0.00000000  0.47756000  0.24768000  1
  Cs  Cs4  1  0.50000000  0.02244000  0.74768000  1
  Cs  Cs5  1  0.50000000  0.50000000  0.00000000  1
  Cu  Cu0  1  0.00000000  0.77950800  0.75965700  1
  Cu  Cu1  1  0.50000000  0.27950800  0.74034300  1
  Cu  Cu2  1  0.00000000  0.22049200  0.24034300  1
  Cu  Cu3  1  0.50000000  0.72049200  0.25965700  1
  Bi  Bi0  1  0.00000000  0.71131600  0.40974800  1
  Bi  Bi1  1  0.50000000  0.24424500  0.39434200  1
  Bi  Bi2  1  0.00000000  0.28868400  0.59025200  1
  Bi  Bi3  1  0.50000000  0.75575500  0.60565800  1
  Bi  Bi4  1  0.00000000  0.25575500  0.89434200  1
  Bi  Bi5  1  0.50000000  0.21131600  0.09025200  1
  Bi  Bi6  1  0.50000000  0.78868400  0.90974800  1
  Bi  Bi7  1  0.00000000  0.74424500  0.10565800  1
  Bi  Bi8  1  0.00000000  0.00000000  0.00000000  1
  Bi  Bi9  1  0.50000000  0.50000000  0.50000000  1
  S  S0  1  0.50000000  0.36139500  0.84921000  1
  S  S1  1  0.50000000  0.59686200  0.36570100  1
  S  S2  1  0.00000000  0.38556200  0.44157100  1
  S  S3  1  0.00000000  0.86139500  0.65079000  1
  S  S4  1  0.50000000  0.82199800  0.47091200  1
  S  S5  1  0.50000000  0.40313800  0.63429900  1
  S  S6  1  0.00000000  0.90313800  0.86570100  1
  S  S7  1  0.00000000  0.79280600  0.27918000  1
  S  S8  1  0.00000000  0.09686200  0.13429900  1
  S  S9  1  0.50000000  0.70719400  0.77918000  1
  S  S10  1  0.50000000  0.11443800  0.94157100  1
  S  S11  1  0.50000000  0.29280600  0.22082000  1
  S  S12  1  0.00000000  0.20719400  0.72082000  1
  S  S13  1  0.00000000  0.32199800  0.02908800  1
  S  S14  1  0.00000000  0.67800200  0.97091200  1
  S  S15  1  0.50000000  0.88556200  0.05842900  1
  S  S16  1  0.50000000  0.63860500  0.15079000  1
  S  S17  1  0.00000000  0.13860500  0.34921000  1
  S  S18  1  0.50000000  0.17800200  0.52908800  1
  S  S19  1  0.00000000  0.61443800  0.55842900  1
loop_
_geom_bond_atom_site_label_1
_geom_bond_atom_site_label_2
_geom_bond_distance
_geom_bond_site_symmetry_2
Cs0 S4 3.441384 1_545
Cs0 S18 3.441384 1_455
Cs0 S4 3.441384 1_445
Cs0 S18 3.441384 1_555
Cs0 S17 3.460624 1_555
Cs0 S3 3.460624 1_545
Cs1 S5 3.484076 1_455
Cs1 S5 3.484076 1_555
Cs1 S9 3.516890 1_555
Cs1 S9 3.516890 1_455
Cs1 S0 3.652687 1_455
Cs1 S0 3.652687 1_555
Cs1 S19 3.796046 1_555
Cs2 S8 3.484076 1_665
Cs2 S8 3.484076 1_565
Cs2 S7 3.516890 1_555
Cs2 S7 3.516890 1_655
Cs2 S17 3.652687 1_565
Cs2 S17 3.652687 1_665
Cs2 S15 3.796046 1_555
Cs3 S1 3.484076 1_555
Cs3 S1 3.484076 1_455
Cs3 S11 3.516890 1_555
Cs3 S11 3.516890 1_455
Cs3 S16 3.652687 1_455
Cs3 S16 3.652687 1_555
Cs3 S2 3.796046 1_555
Cs4 S6 3.484076 1_545
Cs4 S6 3.484076 1_645
Cs4 S12 3.516890 1_655
Cs4 S12 3.516890 1_555
Cs4 S3 3.652687 1_645
Cs4 S3 3.652687 1_545
Cs4 S10 3.796046 1_555
Cs5 S14 3.441384 1_554
Cs5 S14 3.441384 1_654
Cs5 S13 3.441384 1_555
Cs5 S13 3.441384 1_655
Cs5 S16 3.460624 1_555
Cs5 S0 3.460624 1_554
Cu0 S3 2.340303 1_555
Cu0 S9 2.359741 1_555
Cu0 S9 2.359741 1_455
Cu0 S6 2.694603 1_555
Cu1 S0 2.340303 1_555
Cu1 S12 2.359741 1_655
Cu1 S12 2.359741 1_555
Cu1 S5 2.694603 1_555
Cu2 S17 2.340303 1_555
Cu2 S11 2.359741 1_555
Cu2 S11 2.359741 1_455
Cu2 S8 2.694603 1_555
Cu3 S16 2.340303 1_555
Cu3 S7 2.359741 1_555
Cu3 S7 2.359741 1_655
Cu3 S1 2.694603 1_555
Bi0 S7 2.680117 1_555
Bi0 S1 2.811699 1_555
Bi0 S1 2.811699 1_455
Bi0 S4 2.881956 1_455
Bi0 S4 2.881956 1_555
Bi0 S19 3.081132 1_555
Bi1 S18 2.651234 1_555
Bi1 S17 2.736582 1_555
Bi1 S17 2.736582 1_655
Bi1 S2 3.097011 1_555
Bi1 S2 3.097011 1_655
Bi2 S12 2.680117 1_555
Bi2 S5 2.811699 1_555
Bi2 S5 2.811699 1_455
Bi2 S18 2.881956 1_455
Bi2 S18 2.881956 1_555
Bi2 S2 3.081132 1_555
Bi3 S4 2.651234 1_555
Bi3 S3 2.736582 1_555
Bi3 S3 2.736582 1_655
Bi3 S19 3.097011 1_555
Bi3 S19 3.097011 1_655
Bi4 S13 2.651234 1_556
Bi4 S0 2.736582 1_455
Bi4 S0 2.736582 1_555
Bi4 S10 3.097011 1_455
Bi4 S10 3.097011 1_555
Bi5 S11 2.680117 1_555
Bi5 S8 2.811699 1_555
Bi5 S8 2.811699 1_655
Bi5 S13 2.881956 1_555
Bi5 S13 2.881956 1_655
Bi5 S10 3.081132 1_554
Bi6 S9 2.680117 1_555
Bi6 S6 2.811699 1_555
Bi6 S6 2.811699 1_655
Bi6 S14 2.881956 1_555
Bi6 S14 2.881956 1_655
Bi6 S15 3.081132 1_556
Bi7 S14 2.651234 1_554
Bi7 S16 2.736582 1_455
Bi7 S16 2.736582 1_555
Bi7 S15 3.097011 1_455
Bi7 S15 3.097011 1_555
Bi8 S8 2.853883 1_555
Bi8 S6 2.853883 1_544
Bi8 S15 2.897061 1_545
Bi8 S15 2.897061 1_445
Bi8 S10 2.897061 1_454
Bi8 S10 2.897061 1_554
Bi9 S5 2.853883 1_555
Bi9 S1 2.853883 1_555
Bi9 S19 2.897061 1_555
Bi9 S19 2.897061 1_655
Bi9 S2 2.897061 1_555
Bi9 S2 2.897061 1_655
