# generated using pymatgen
data_Eu(AsPd)2
_symmetry_space_group_name_H-M   'P 1'
_cell_length_a   5.95198685
_cell_length_b   5.95198685
_cell_length_c   4.44656131
_cell_angle_alpha   69.94644357
_cell_angle_beta   69.94644357
_cell_angle_gamma   43.38087843
_symmetry_Int_Tables_number   1
_chemical_formula_structural   Eu(AsPd)2
_chemical_formula_sum   'Eu1 As2 Pd2'
_cell_volume   100.55836933
_cell_formula_units_Z   1
loop_
 _symmetry_equiv_pos_site_id
 _symmetry_equiv_pos_as_xyz
  1  'x, y, z'
loop_
 _atom_site_type_symbol
 _atom_site_label
 _atom_site_symmetry_multiplicity
 _atom_site_fract_x
 _atom_site_fract_y
 _atom_site_fract_z
 _atom_site_occupancy
  Eu  Eu0  1  0.00027300  0.00027300  0.99119700  1
  As  As0  1  0.62278900  0.62278900  0.37274100  1
  As  As1  1  0.37345300  0.37345300  0.62700400  1
  Pd  Pd0  1  0.25039900  0.25039900  0.24571700  1
  Pd  Pd1  1  0.74816200  0.74816200  0.75235200  1
loop_
_geom_bond_atom_site_label_1
_geom_bond_atom_site_label_2
_geom_bond_distance
_geom_bond_site_symmetry_2
Eu0 Pd1 3.330196 1_445
Eu0 Pd0 3.353543 1_556
Eu0 Pd1 3.366896 1_545
Eu0 Pd1 3.366896 1_455
Eu0 Pd0 3.383842 1_546
Eu0 Pd0 3.383842 1_456
Eu0 Pd0 3.445837 1_555
Eu0 Pd1 3.502219 1_446
As0 Pd1 2.549506 1_555
As0 Pd0 2.561660 1_655
As0 Pd0 2.561660 1_565
As0 As1 2.565755 1_555
As0 Pd1 2.590276 1_554
As0 Eu0 3.354220 1_564
As0 Eu0 3.354220 1_654
As0 Eu0 3.389338 1_565
As0 Eu0 3.389338 1_655
As1 Pd0 2.535792 1_555
As1 Pd1 2.549569 1_545
As1 Pd1 2.549569 1_455
As1 Pd0 2.580251 1_556
As1 Eu0 3.332565 1_655
As1 Eu0 3.332565 1_565
As1 Eu0 3.445678 1_654
As1 Eu0 3.445678 1_564
