# generated using pymatgen
data_Na3Ca2Fe5(SiO3)10
_symmetry_space_group_name_H-M   'P 1'
_cell_length_a   9.44521900
_cell_length_b   10.35727519
_cell_length_c   12.36968239
_cell_angle_alpha   109.20813622
_cell_angle_beta   94.04490426
_cell_angle_gamma   92.81400979
_symmetry_Int_Tables_number   1
_chemical_formula_structural   Na3Ca2Fe5(SiO3)10
_chemical_formula_sum   'Na6 Ca4 Fe10 Si20 O60'
_cell_volume   1136.51068866
_cell_formula_units_Z   2
loop_
 _symmetry_equiv_pos_site_id
 _symmetry_equiv_pos_as_xyz
  1  'x, y, z'
loop_
 _atom_site_type_symbol
 _atom_site_label
 _atom_site_symmetry_multiplicity
 _atom_site_fract_x
 _atom_site_fract_y
 _atom_site_fract_z
 _atom_site_occupancy
  Na  Na0  1  0.19863200  0.79569000  0.87175700  1
  Na  Na1  1  0.62083600  0.00773700  0.68779200  1
  Na  Na2  1  0.01770500  0.21156200  0.48764900  1
  Na  Na3  1  0.41332900  0.38379800  0.27347700  1
  Na  Na4  1  0.75596200  0.19043400  0.11096500  1
  Na  Na5  1  0.81802400  0.60801000  0.08724400  1
  Ca  Ca0  1  0.18646200  0.40243100  0.91421400  1
  Ca  Ca1  1  0.58625700  0.59865500  0.71063900  1
  Ca  Ca2  1  0.97387000  0.78812400  0.51380500  1
  Ca  Ca3  1  0.40459200  0.00395500  0.32272000  1
  Fe  Fe0  1  0.04917100  0.13120700  0.97153100  1
  Fe  Fe1  1  0.46581800  0.32694500  0.77058000  1
  Fe  Fe2  1  0.34332800  0.07037400  0.83613300  1
  Fe  Fe3  1  0.86499000  0.52127400  0.56635600  1
  Fe  Fe4  1  0.74393900  0.26885600  0.62832500  1
  Fe  Fe5  1  0.26220600  0.72374300  0.36898500  1
  Fe  Fe6  1  0.13883400  0.46846000  0.42811600  1
  Fe  Fe7  1  0.66798700  0.92562200  0.16808500  1
  Fe  Fe8  1  0.54491000  0.66261300  0.22774300  1
  Fe  Fe9  1  0.92944300  0.87567000  0.03069100  1
  Si  Si0  1  0.77621800  0.30011400  0.90099000  1
  Si  Si1  1  0.90567000  0.54017100  0.83705300  1
  Si  Si2  1  0.17730100  0.49521700  0.69876800  1
  Si  Si3  1  0.49973400  0.66011200  0.96249200  1
  Si  Si4  1  0.30319000  0.74495600  0.63743200  1
  Si  Si5  1  0.62535100  0.90908300  0.89886800  1
  Si  Si6  1  0.57240900  0.69353400  0.49974200  1
  Si  Si7  1  0.89630500  0.86336100  0.76431700  1
  Si  Si8  1  0.70167300  0.93765700  0.43983200  1
  Si  Si9  1  0.02544400  0.10709800  0.70037000  1
  Si  Si10  1  0.97268300  0.89195500  0.30395400  1
  Si  Si11  1  0.29650000  0.06061500  0.56573100  1
  Si  Si12  1  0.08961800  0.13916400  0.24079800  1
  Si  Si13  1  0.42948100  0.30809700  0.49969500  1
  Si  Si14  1  0.30935600  0.01469000  0.09400600  1
  Si  Si15  1  0.69926200  0.25512700  0.36199500  1
  Si  Si16  1  0.50817500  0.33690300  0.04060500  1
  Si  Si17  1  0.82737900  0.50331900  0.29687200  1
  Si  Si18  1  0.09625700  0.47139900  0.16032600  1
  Si  Si19  1  0.24238500  0.71963900  0.10272100  1
  O  O0  1  0.25766800  0.04421600  0.97649000  1
  O  O1  1  0.40611800  0.28596500  0.91172600  1
  O  O2  1  0.86293300  0.18059300  0.92552500  1
  O  O3  1  0.67125800  0.25663200  0.77924800  1
  O  O4  1  0.89875900  0.42306900  0.90361900  1
  O  O5  1  0.87028600  0.68238000  0.92642200  1
  O  O6  1  0.79850400  0.48134400  0.71884600  1
  O  O7  1  0.07811800  0.54815400  0.81173800  1
  O  O8  1  0.32838400  0.64794700  0.98721300  1
  O  O9  1  0.27102700  0.38463300  0.73383100  1
  O  O10  1  0.06995600  0.44771700  0.58373300  1
  O  O11  1  0.53078400  0.51850700  0.86413800  1
  O  O12  1  0.28750900  0.62941500  0.70509900  1
  O  O13  1  0.51782300  0.77152100  0.89155300  1
  O  O14  1  0.26611400  0.88854200  0.72806200  1
  O  O15  1  0.20249500  0.69380300  0.51560700  1
  O  O16  1  0.53083600  0.01729500  0.86336800  1
  O  O17  1  0.47251800  0.75114300  0.61134100  1
  O  O18  1  0.72458700  0.84714000  0.78615000  1
  O  O19  1  0.65902800  0.58001700  0.53258200  1
  O  O20  1  0.46810600  0.65452800  0.38001000  1
  O  O21  1  0.99504300  0.92757900  0.88482400  1
  O  O22  1  0.94098500  0.72391300  0.67470600  1
  O  O23  1  0.68733200  0.82506500  0.51002500  1
  O  O24  1  0.91372300  0.97494800  0.69161100  1
  O  O25  1  0.66201600  0.08203200  0.52852200  1
  O  O26  1  0.60001400  0.87643200  0.32002200  1
  O  O27  1  0.12927900  0.15472800  0.82234100  1
  O  O28  1  0.93465800  0.22133200  0.67202700  1
  O  O29  1  0.87253700  0.94003200  0.41577800  1
  O  O30  1  0.12676800  0.04944700  0.59093200  1
  O  O31  1  0.07118800  0.78361800  0.33739700  1
  O  O32  1  0.87798000  0.83989800  0.18281100  1
  O  O33  1  0.39325800  0.12053100  0.69021300  1
  O  O34  1  0.33471800  0.91826100  0.47149600  1
  O  O35  1  0.07634700  0.02811000  0.31191900  1
  O  O36  1  0.32164400  0.17195100  0.49572300  1
  O  O37  1  0.05731900  0.28329100  0.32714900  1
  O  O38  1  0.00107800  0.08912100  0.11330900  1
  O  O39  1  0.53293800  0.34899100  0.62210800  1
  O  O40  1  0.34587800  0.42601400  0.47618000  1
  O  O41  1  0.26027100  0.12893700  0.21191200  1
  O  O42  1  0.52653600  0.24158300  0.38863100  1
  O  O43  1  0.45218200  0.96031600  0.13042400  1
  O  O44  1  0.79043100  0.30938200  0.48827000  1
  O  O45  1  0.73920200  0.11197700  0.27692300  1
  O  O46  1  0.49629000  0.22750600  0.10381400  1
  O  O47  1  0.72237900  0.37100300  0.29716600  1
  O  O48  1  0.46282500  0.48746800  0.12127100  1
  O  O49  1  0.92986100  0.56050800  0.41619800  1
  O  O50  1  0.72971600  0.61603800  0.27194100  1
  O  O51  1  0.67483700  0.36199700  0.00583400  1
  O  O52  1  0.92796100  0.45957500  0.18594500  1
  O  O53  1  0.20140500  0.52437000  0.27870600  1
  O  O54  1  0.12876700  0.32776200  0.06358100  1
  O  O55  1  0.12028900  0.59186100  0.09238000  1
  O  O56  1  0.33741500  0.75480500  0.22568400  1
  O  O57  1  0.18811200  0.86103500  0.08162200  1
  O  O58  1  0.59696900  0.70943300  0.08477400  1
  O  O59  1  0.72635100  0.95722400  0.01616400  1
loop_
_geom_bond_atom_site_label_1
_geom_bond_atom_site_label_2
_geom_bond_distance
_geom_bond_site_symmetry_2
Na0 O14 2.390584 1_555
Na0 O21 2.397144 1_455
Na0 O12 2.443432 1_555
Na0 O57 2.468578 1_556
Na0 O0 2.485545 1_565
Na0 O7 2.600331 1_555
Na0 O8 2.694127 1_555
Na1 O16 2.361454 1_555
Na1 O25 2.387681 1_555
Na1 O3 2.456941 1_555
Na1 O33 2.493744 1_555
Na1 O23 2.526528 1_545
Na1 O18 2.555532 1_545
Na1 O17 2.777329 1_545
Na1 O24 2.802641 1_545
Na2 O10 2.350443 1_555
Na2 O37 2.383588 1_555
Na2 O44 2.417726 1_455
Na2 O28 2.436271 1_455
Na2 O35 2.489500 1_555
Na2 O30 2.628366 1_555
Na2 O29 2.895472 1_445
Na2 O36 2.919207 1_555
Na3 O46 2.399996 1_555
Na3 O48 2.514212 1_555
Na3 O53 2.524496 1_555
Na3 O40 2.532844 1_555
Na3 O42 2.581132 1_555
Na3 O20 2.682681 1_555
Na3 O41 2.790161 1_555
Na3 O47 2.926963 1_555
Na4 O59 2.304613 1_545
Na4 O45 2.455691 1_555
Na4 O47 2.496031 1_555
Na4 O46 2.500999 1_555
Na4 O2 2.544824 1_554
Na4 O38 2.590568 1_655
Na4 O51 2.636160 1_555
Na5 O32 2.321695 1_555
Na5 O58 2.385637 1_555
Na5 O5 2.429780 1_554
Na5 O50 2.464317 1_555
Na5 O52 2.478977 1_555
Na5 O4 2.633382 1_554
Na5 O51 2.667719 1_555
Na5 O55 2.865501 1_655
Ca0 O54 2.312929 1_556
Ca0 O9 2.376092 1_555
Ca0 O1 2.447595 1_555
Ca0 O27 2.454394 1_555
Ca0 O7 2.481833 1_555
Ca0 O55 2.562534 1_556
Ca0 O8 2.657472 1_555
Ca0 O4 2.733578 1_455
Ca1 O19 2.303818 1_555
Ca1 O11 2.388216 1_555
Ca1 O6 2.407717 1_555
Ca1 O39 2.463831 1_555
Ca1 O13 2.512501 1_555
Ca1 O17 2.532599 1_555
Ca1 O18 2.668145 1_555
Ca1 O12 2.853729 1_555
Ca2 O49 2.268991 1_555
Ca2 O22 2.331938 1_555
Ca2 O31 2.414304 1_655
Ca2 O15 2.415074 1_655
Ca2 O29 2.470075 1_555
Ca2 O24 2.527482 1_555
Ca2 O23 2.751153 1_555
Ca2 O30 2.836225 1_665
Ca3 O26 2.317683 1_545
Ca3 O43 2.351092 1_545
Ca3 O34 2.408043 1_545
Ca3 O36 2.478143 1_555
Ca3 O56 2.489192 1_545
Ca3 O42 2.513477 1_555
Ca3 O41 2.547485 1_555
Fe0 O2 1.954081 1_455
Fe0 O38 2.016913 1_556
Fe0 O21 2.046482 1_445
Fe0 O54 2.051774 1_556
Fe0 O27 2.124189 1_555
Fe0 O0 2.210708 1_555
Fe1 O11 1.980342 1_555
Fe1 O9 2.029118 1_555
Fe1 O1 2.037004 1_555
Fe1 O39 2.062267 1_555
Fe1 O33 2.095253 1_555
Fe1 O3 2.113735 1_555
Fe2 O16 1.919804 1_555
Fe2 O14 1.984115 1_545
Fe2 O0 2.056320 1_555
Fe2 O33 2.112644 1_555
Fe2 O1 2.151730 1_555
Fe2 O27 2.258916 1_555
Fe3 O19 2.120832 1_555
Fe3 O10 2.137377 1_655
Fe3 O22 2.140532 1_555
Fe3 O44 2.145398 1_555
Fe3 O49 2.150177 1_555
Fe3 O6 2.185920 1_555
Fe4 O28 1.975918 1_555
Fe4 O44 1.984453 1_555
Fe4 O25 2.003339 1_555
Fe4 O3 2.073714 1_555
Fe4 O6 2.132748 1_555
Fe4 O39 2.202141 1_555
Fe5 O31 1.990542 1_555
Fe5 O53 2.028959 1_555
Fe5 O34 2.048638 1_555
Fe5 O15 2.049592 1_555
Fe5 O56 2.068969 1_555
Fe5 O20 2.116235 1_555
Fe6 O37 1.993496 1_555
Fe6 O40 2.112675 1_555
Fe6 O10 2.147051 1_555
Fe6 O53 2.219228 1_555
Fe6 O49 2.250046 1_455
Fe6 O15 2.255755 1_555
Fe7 O45 2.006312 1_565
Fe7 O59 2.115568 1_555
Fe7 O43 2.132843 1_555
Fe7 O58 2.182272 1_555
Fe7 O26 2.229820 1_555
Fe7 O32 2.232452 1_555
Fe8 O50 1.923555 1_555
Fe8 O48 1.942204 1_555
Fe8 O58 2.065917 1_555
Fe8 O20 2.090787 1_555
Fe8 O26 2.148924 1_555
Fe8 O56 2.223975 1_555
Fe9 O5 2.018179 1_554
Fe9 O32 2.117625 1_555
Fe9 O59 2.153088 1_555
Fe9 O38 2.158391 1_665
Fe9 O21 2.166076 1_554
Fe9 O57 2.504213 1_655
O0 Si14 1.628485 1_556
O1 Si16 1.711385 1_556
O2 Si0 1.614638 1_555
O3 Si0 1.659124 1_555
O4 Si0 1.668879 1_555
O4 Si1 1.676367 1_555
O5 Si1 1.591305 1_555
O6 Si1 1.636525 1_555
O7 Si1 1.683354 1_455
O7 Si2 1.691723 1_555
O8 Si19 1.666576 1_556
O8 Si3 1.674477 1_555
O9 Si2 1.629688 1_555
O10 Si2 1.606753 1_555
O11 Si3 1.623472 1_555
O12 Si2 1.672243 1_555
O12 Si4 1.677433 1_555
O13 Si3 1.672931 1_555
O13 Si5 1.682192 1_555
O14 Si4 1.612626 1_555
O15 Si4 1.636798 1_555
O16 Si5 1.616385 1_545
O17 Si4 1.656055 1_555
O17 Si6 1.687857 1_555
O18 Si7 1.672323 1_555
O18 Si5 1.699704 1_555
O19 Si6 1.605777 1_555
O20 Si6 1.639706 1_555
O21 Si7 1.620098 1_555
O22 Si7 1.601623 1_555
O23 Si6 1.664814 1_555
O23 Si8 1.673157 1_555
O24 Si9 1.656232 1_665
O24 Si7 1.690492 1_555
O25 Si8 1.616603 1_545
O26 Si8 1.625277 1_555
O27 Si9 1.653943 1_555
O28 Si9 1.608791 1_655
O29 Si8 1.662017 1_555
O29 Si10 1.683334 1_555
O30 Si11 1.660327 1_555
O30 Si9 1.676898 1_555
O31 Si10 1.627719 1_455
O32 Si10 1.602573 1_555
O33 Si11 1.645705 1_555
O34 Si11 1.625935 1_565
O35 Si10 1.648164 1_445
O35 Si12 1.667300 1_555
O36 Si11 1.671898 1_555
O36 Si13 1.683616 1_555
O37 Si12 1.582353 1_555
O38 Si12 1.639661 1_555
O39 Si13 1.660033 1_555
O40 Si13 1.579798 1_555
O41 Si14 1.660093 1_555
O41 Si12 1.676329 1_555
O42 Si13 1.679065 1_555
O42 Si15 1.695166 1_555
O43 Si14 1.579793 1_565
O44 Si15 1.637759 1_555
O45 Si15 1.591293 1_555
O46 Si16 1.578153 1_555
O47 Si17 1.652877 1_555
O47 Si15 1.662340 1_555
O48 Si16 1.647113 1_555
O49 Si17 1.622749 1_555
O50 Si17 1.616011 1_555
O51 Si0 1.642608 1_554
O51 Si16 1.690982 1_555
O52 Si18 1.649156 1_655
O52 Si17 1.675606 1_555
O53 Si18 1.626128 1_555
O54 Si18 1.632435 1_555
O55 Si19 1.678005 1_555
O55 Si18 1.733108 1_555
O56 Si19 1.631736 1_555
O57 Si19 1.667909 1_555
O57 Si14 1.871761 1_565
O58 Si3 1.625385 1_554
O59 Si5 1.595563 1_554
