# generated using pymatgen
data_Ca5Cu19As10
_symmetry_space_group_name_H-M   'P 1'
_cell_length_a   39.65402459
_cell_length_b   23.06241037
_cell_length_c   30.61521616
_cell_angle_alpha   13.67561821
_cell_angle_beta   15.14812226
_cell_angle_gamma   9.99525927
_symmetry_Int_Tables_number   1
_chemical_formula_structural   Ca5Cu19As10
_chemical_formula_sum   'Ca10 Cu38 As20'
_cell_volume   1124.87227575
_cell_formula_units_Z   2
loop_
 _symmetry_equiv_pos_site_id
 _symmetry_equiv_pos_as_xyz
  1  'x, y, z'
loop_
 _atom_site_type_symbol
 _atom_site_label
 _atom_site_symmetry_multiplicity
 _atom_site_fract_x
 _atom_site_fract_y
 _atom_site_fract_z
 _atom_site_occupancy
  Ca  Ca0  1  0.99811117  0.00188042  0.00171394  1
  Ca  Ca1  1  0.20137077  0.99644745  0.00032194  1
  Ca  Ca2  1  0.40011185  0.99713469  0.00215268  1
  Ca  Ca3  1  0.60024809  0.00159631  0.99794656  1
  Ca  Ca4  1  0.79997642  0.99696856  0.00158944  1
  Ca  Ca5  1  0.99988430  0.00287000  0.49784969  1
  Ca  Ca6  1  0.19862794  0.00355935  0.49967648  1
  Ca  Ca7  1  0.40188682  0.99812910  0.49828341  1
  Ca  Ca8  1  0.60001803  0.00303819  0.49841458  1
  Ca  Ca9  1  0.79975139  0.99840733  0.50205225  1
  Cu  Cu0  1  0.14273037  0.14374311  0.07112100  1
  Cu  Cu1  1  0.02657162  0.43448735  0.21858403  1
  Cu  Cu2  1  0.35523528  0.11292992  0.07732492  1
  Cu  Cu3  1  0.22334918  0.44017678  0.21821183  1
  Cu  Cu4  1  0.14162355  0.14735462  0.56961977  1
  Cu  Cu5  1  0.54199275  0.14398284  0.07170834  1
  Cu  Cu6  1  0.17665474  0.55982239  0.28178341  1
  Cu  Cu7  1  0.02384178  0.43735588  0.71969842  1
  Cu  Cu8  1  0.42441758  0.43804926  0.21835617  1
  Cu  Cu9  1  0.34062862  0.14682307  0.57211023  1
  Cu  Cu10  1  0.04478495  0.88699631  0.42270264  1
  Cu  Cu11  1  0.74223374  0.14433275  0.07168439  1
  Cu  Cu12  1  0.37342285  0.56552285  0.28141708  1
  Cu  Cu13  1  0.22573902  0.43679862  0.71769083  1
  Cu  Cu14  1  0.54630858  0.15382372  0.55784839  1
  Cu  Cu15  1  0.25726465  0.85626039  0.42888529  1
  Cu  Cu16  1  0.92952391  0.15583546  0.07730879  1
  Cu  Cu17  1  0.17426043  0.56321893  0.78230258  1
  Cu  Cu18  1  0.57498231  0.56481284  0.28050598  1
  Cu  Cu19  1  0.42484260  0.43647619  0.71910237  1
  Cu  Cu20  1  0.82504609  0.43518784  0.21945153  1
  Cu  Cu21  1  0.05937468  0.85316918  0.92789455  1
  Cu  Cu22  1  0.74206136  0.13887633  0.57485493  1
  Cu  Cu23  1  0.47050338  0.84415394  0.42266876  1
  Cu  Cu24  1  0.37614396  0.56265647  0.78030038  1
  Cu  Cu25  1  0.62574968  0.43615888  0.71812319  1
  Cu  Cu26  1  0.25835736  0.85267136  0.93038509  1
  Cu  Cu27  1  0.94580491  0.13848630  0.57100229  1
  Cu  Cu28  1  0.65778755  0.85562441  0.42832516  1
  Cu  Cu29  1  0.57539468  0.56081731  0.78280630  1
  Cu  Cu30  1  0.97558690  0.56195117  0.28164360  1
  Cu  Cu31  1  0.82459774  0.43914244  0.71722672  1
  Cu  Cu32  1  0.45417089  0.86157316  0.92898449  1
  Cu  Cu33  1  0.85800894  0.85601106  0.42829544  1
  Cu  Cu34  1  0.77424990  0.56381000  0.78186883  1
  Cu  Cu35  1  0.65793894  0.86113055  0.92514106  1
  Cu  Cu36  1  0.97514587  0.56354348  0.78089592  1
  Cu  Cu37  1  0.85369248  0.84616800  0.94216148  1
  As  As0  1  0.08890719  0.26138639  0.13035171  1
  As  As1  1  0.29937917  0.25158544  0.12574580  1
  As  As2  1  0.09857569  0.25226442  0.62688610  1
  As  As3  1  0.50993694  0.22506514  0.13119175  1
  As  As4  1  0.10062309  0.74841749  0.37425143  1
  As  As5  1  0.30004955  0.25171425  0.62562607  1
  As  As6  1  0.69991207  0.25059774  0.12639886  1
  As  As7  1  0.31109188  0.73861728  0.36964816  1
  As  As8  1  0.50000702  0.25322459  0.62383080  1
  As  As9  1  0.89965133  0.24989528  0.12653954  1
  As  As10  1  0.09994606  0.74828392  0.87438224  1
  As  As11  1  0.50035116  0.75010738  0.37345657  1
  As  As12  1  0.70376625  0.25967537  0.61281330  1
  As  As13  1  0.30142615  0.74773819  0.87311017  1
  As  As14  1  0.70008627  0.74940427  0.37360413  1
  As  As15  1  0.89910627  0.25349943  0.62542535  1
  As  As16  1  0.50088811  0.74651305  0.87457378  1
  As  As17  1  0.89006054  0.77494293  0.36880656  1
  As  As18  1  0.69623124  0.74032440  0.88719162  1
  As  As19  1  0.89999344  0.74677653  0.87616892  1
loop_
_geom_bond_atom_site_label_1
_geom_bond_atom_site_label_2
_geom_bond_distance
_geom_bond_site_symmetry_2
Ca0 Cu16 3.186959 1_555
Ca0 Cu21 3.290057 1_644
Ca0 Cu3 3.324940 1_645
Ca0 Cu7 3.334674 1_654
Ca0 Cu30 3.358939 1_545
Ca0 Cu34 3.361329 1_554
Ca0 Cu24 3.384542 1_644
Ca1 Cu26 3.222309 1_554
Ca1 Cu0 3.265720 1_565
Ca1 Cu29 3.332698 1_554
Ca1 Cu6 3.335460 1_555
Ca1 Cu36 3.341680 1_464
Ca1 Cu8 3.347877 1_555
Ca1 Cu20 3.364258 1_465
Ca1 Cu13 3.370733 1_564
Ca2 Cu2 3.204960 1_565
Ca2 Cu32 3.244433 1_554
Ca2 Cu1 3.343182 1_565
Ca2 Cu12 3.346466 1_555
Ca2 Cu34 3.353802 1_554
Ca2 Cu19 3.355095 1_564
Ca2 Cu17 3.356618 1_564
Ca3 Cu35 3.207357 1_545
Ca3 Cu5 3.258502 1_556
Ca3 Cu24 3.328514 1_555
Ca3 Cu18 3.333956 1_546
Ca3 Cu36 3.340251 1_545
Ca3 Cu25 3.353491 1_555
Ca3 Cu20 3.359811 1_546
Ca3 Cu3 3.373939 1_556
Ca4 Cu37 3.188473 1_554
Ca4 Cu11 3.279937 1_565
Ca4 Cu29 3.326926 1_564
Ca4 Cu17 3.337490 1_654
Ca4 Cu8 3.363232 1_565
Ca4 Cu1 3.366566 1_655
Ca4 Cu31 3.378425 1_564
Ca5 Cu10 3.205061 1_645
Ca5 Cu27 3.244433 1_555
Ca5 Cu12 3.343163 1_645
Ca5 Cu1 3.346491 1_655
Ca5 Cu25 3.353185 1_555
Ca5 Cu36 3.355134 1_545
Ca5 Cu13 3.356703 1_645
Ca6 Cu4 3.222266 1_555
Ca6 Cu15 3.265697 1_545
Ca6 Cu31 3.332633 1_455
Ca6 Cu3 3.335418 1_555
Ca6 Cu19 3.341567 1_545
Ca6 Cu30 3.347767 1_455
Ca6 Cu18 3.364603 1_545
Ca6 Cu17 3.370609 1_545
Ca7 Cu23 3.186913 1_555
Ca7 Cu9 3.290090 1_565
Ca7 Cu6 3.324974 1_565
Ca7 Cu24 3.334970 1_555
Ca7 Cu8 3.359018 1_565
Ca7 Cu25 3.360599 1_555
Ca7 Cu7 3.384388 1_565
Ca8 Cu14 3.188558 1_555
Ca8 Cu28 3.279880 1_545
Ca8 Cu31 3.326832 1_545
Ca8 Cu13 3.337516 1_555
Ca8 Cu30 3.363218 1_545
Ca8 Cu12 3.366582 1_555
Ca8 Cu29 3.378790 1_545
Ca9 Cu22 3.207376 1_565
Ca9 Cu33 3.258489 1_555
Ca9 Cu7 3.328230 1_655
Ca9 Cu20 3.333988 1_565
Ca9 Cu19 3.340257 1_565
Ca9 Cu34 3.354265 1_555
Ca9 Cu18 3.359986 1_565
Ca9 Cu6 3.373988 1_655
Cu2 Cu35 2.613658 1_544
Cu10 Cu22 2.613616 1_465
Cu16 Cu35 2.613299 1_554
Cu18 Cu35 2.567517 1_554
Cu19 Cu22 2.539917 1_555
Cu20 Cu22 2.567824 1_555
Cu22 Cu7 2.537279 1_645
Cu22 Cu35 2.588088 1_545
Cu22 Cu23 2.613270 1_555
Cu24 Cu35 2.537230 1_545
Cu35 Cu36 2.539802 1_555
As0 Cu0 2.426595 1_555
As0 Cu17 2.468369 1_554
As0 Cu12 2.469509 1_545
As0 Cu37 2.656479 1_454
As0 Cu10 2.658317 1_545
As0 Cu32 2.801568 1_544
As0 Ca4 3.000378 1_455
As0 Ca5 3.003053 1_455
As0 Ca2 3.111506 1_545
As1 Cu30 2.436751 1_455
As1 Cu18 2.437339 1_545
As1 Cu24 2.450366 1_554
As1 Cu2 2.500348 1_555
As1 Cu21 2.767407 1_554
As1 Cu35 2.771357 1_544
As1 Cu15 2.771634 1_545
As1 Ca3 3.021195 1_554
As1 Ca6 3.033124 1_555
As1 Ca0 3.046527 1_465
As2 Cu34 2.445284 1_455
As2 Cu24 2.448853 1_545
As2 Cu6 2.448941 1_555
As2 Cu4 2.484427 1_555
As2 Cu33 2.770592 1_455
As2 Cu21 2.784200 1_545
As2 Cu23 2.850210 1_545
As2 Ca7 3.015330 1_545
As2 Ca9 3.021952 1_455
As2 Ca0 3.030589 1_456
As3 Cu5 2.428147 1_555
As3 Cu6 2.469221 1_555
As3 Cu29 2.470532 1_554
As3 Cu23 2.650962 1_545
As3 Cu37 2.651439 1_544
As3 Cu26 2.808612 1_554
As3 Ca7 2.993330 1_545
As3 Ca4 2.998465 1_545
As3 Ca1 3.104331 1_555
As4 Cu8 2.436795 1_555
As4 Cu20 2.437319 1_465
As4 Cu7 2.450362 1_555
As4 Cu10 2.500194 1_555
As4 Cu9 2.767456 1_555
As4 Cu22 2.771357 1_465
As4 Cu0 2.771586 1_565
As4 Ca9 3.021241 1_455
As4 Ca1 3.033122 1_555
As4 Ca7 3.046512 1_545
As5 Cu12 2.443139 1_555
As5 Cu36 2.451781 1_455
As5 Cu29 2.453282 1_545
As5 Cu9 2.463922 1_555
As5 Cu28 2.781854 1_545
As5 Cu26 2.794108 1_545
As5 Cu10 2.850870 1_555
As5 Ca1 3.007081 1_546
As5 Ca5 3.023646 1_465
As5 Ca8 3.025759 1_555
As6 Cu34 2.444652 1_554
As6 Cu30 2.445102 1_545
As6 Cu12 2.459520 1_555
As6 Cu11 2.465395 1_555
As6 Cu28 2.782854 1_545
As6 Cu32 2.790514 1_554
As6 Cu21 2.793777 1_644
As6 Ca8 3.014963 1_555
As6 Ca2 3.018130 1_555
As6 Ca0 3.018946 1_555
As7 Cu15 2.426633 1_555
As7 Cu13 2.468327 1_555
As7 Cu1 2.469532 1_565
As7 Cu14 2.656584 1_555
As7 Cu2 2.658070 1_565
As7 Cu27 2.801659 1_465
As7 Ca8 3.000360 1_555
As7 Ca2 3.003046 1_555
As7 Ca5 3.111533 1_465
As8 Cu18 2.435082 1_555
As8 Cu34 2.447195 1_545
As8 Cu17 2.455871 1_555
As8 Cu14 2.501145 1_555
As8 Cu15 2.760832 1_555
As8 Cu33 2.765529 1_545
As8 Cu32 2.781966 1_545
As8 Ca9 3.026717 1_545
As8 Ca6 3.043197 1_565
As8 Ca2 3.049340 1_546
As9 Cu18 2.433286 1_555
As9 Cu6 2.449274 1_645
As9 Cu36 2.451550 1_554
As9 Cu16 2.495235 1_555
As9 Cu33 2.757491 1_545
As9 Cu35 2.767496 1_554
As9 Cu26 2.767656 1_644
As9 Ca1 3.023325 1_645
As9 Ca3 3.033156 1_564
As9 Ca9 3.042777 1_545
As10 Cu1 2.443089 1_556
As10 Cu19 2.451731 1_555
As10 Cu31 2.453133 1_465
As10 Cu21 2.463973 1_555
As10 Cu11 2.781754 1_466
As10 Cu4 2.794111 1_565
As10 Cu2 2.851022 1_556
As10 Ca6 3.007132 1_565
As10 Ca2 3.023633 1_546
As10 Ca4 3.025740 1_456
As11 Cu20 2.433447 1_555
As11 Cu3 2.449259 1_565
As11 Cu19 2.451562 1_555
As11 Cu23 2.495319 1_555
As11 Cu5 2.757445 1_565
As11 Cu22 2.767489 1_555
As11 Cu4 2.767778 1_565
As11 Ca6 3.023332 1_565
As11 Ca9 3.033158 1_545
As11 Ca3 3.042766 1_564
As12 Cu22 2.443316 1_555
As12 Cu36 2.470257 1_545
As12 Cu24 2.474178 1_555
As12 Cu10 2.637732 1_645
As12 Cu23 2.650552 1_555
As12 Cu35 2.788658 1_545
As12 Ca7 3.011761 1_555
As12 Ca5 3.015224 1_555
As12 Ca3 3.099698 1_555
As13 Cu25 2.444926 1_555
As13 Cu7 2.448871 1_565
As13 Cu3 2.448932 1_556
As13 Cu26 2.484426 1_555
As13 Cu5 2.770635 1_556
As13 Cu9 2.784198 1_565
As13 Cu16 2.850070 1_466
As13 Ca0 3.015318 1_466
As13 Ca3 3.021944 1_555
As13 Ca7 3.030561 1_555
As14 Cu25 2.444523 1_555
As14 Cu8 2.445102 1_565
As14 Cu1 2.459495 1_655
As14 Cu28 2.465445 1_555
As14 Cu11 2.782845 1_565
As14 Cu27 2.790311 1_555
As14 Cu9 2.793762 1_565
As14 Ca4 3.014961 1_555
As14 Ca5 3.018142 1_555
As14 Ca7 3.018946 1_555
As15 Cu30 2.439631 1_555
As15 Cu29 2.447403 1_555
As15 Cu17 2.451247 1_645
As15 Cu27 2.489649 1_555
As15 Cu15 2.777649 1_645
As15 Cu28 2.778581 1_555
As15 Cu37 2.847605 1_545
As15 Ca4 3.014874 1_546
As15 Ca6 3.019870 1_655
As15 Ca8 3.032184 1_565
As16 Cu8 2.439641 1_556
As16 Cu31 2.447222 1_555
As16 Cu13 2.451272 1_565
As16 Cu32 2.489640 1_555
As16 Cu0 2.777675 1_566
As16 Cu11 2.778802 1_556
As16 Cu14 2.847604 1_565
As16 Ca8 3.014836 1_565
As16 Ca1 3.019839 1_556
As16 Ca4 3.032191 1_546
As17 Cu33 2.428152 1_555
As17 Cu3 2.469249 1_655
As17 Cu31 2.470771 1_555
As17 Cu16 2.651138 1_565
As17 Cu14 2.651485 1_565
As17 Cu4 2.808542 1_655
As17 Ca0 2.993324 1_565
As17 Ca8 2.998470 1_565
As17 Ca6 3.104324 1_655
As18 Cu35 2.443316 1_555
As18 Cu19 2.470325 1_565
As18 Cu7 2.474009 1_655
As18 Cu2 2.637618 1_566
As18 Cu16 2.650624 1_556
As18 Cu22 2.788713 1_565
As18 Ca0 3.011729 1_556
As18 Ca2 3.015238 1_556
As18 Ca9 3.099743 1_555
As19 Cu20 2.434775 1_556
As19 Cu25 2.447034 1_565
As19 Cu13 2.455931 1_655
As19 Cu37 2.501263 1_555
As19 Cu0 2.760855 1_656
As19 Cu5 2.765533 1_566
As19 Cu27 2.782045 1_565
As19 Ca3 3.026725 1_565
As19 Ca1 3.043169 1_646
As19 Ca5 3.049326 1_565
