# generated using pymatgen
data_UVAgO6
_symmetry_space_group_name_H-M   'P 1'
_cell_length_a   8.40583300
_cell_length_b   6.17337700
_cell_length_c   10.49321444
_cell_angle_alpha   83.13309084
_cell_angle_beta   90.00000000
_cell_angle_gamma   90.00000000
_symmetry_Int_Tables_number   1
_chemical_formula_structural   UVAgO6
_chemical_formula_sum   'U4 V4 Ag4 O24'
_cell_volume   540.61176454
_cell_formula_units_Z   4
loop_
 _symmetry_equiv_pos_site_id
 _symmetry_equiv_pos_as_xyz
  1  'x, y, z'
loop_
 _atom_site_type_symbol
 _atom_site_label
 _atom_site_symmetry_multiplicity
 _atom_site_fract_x
 _atom_site_fract_y
 _atom_site_fract_z
 _atom_site_occupancy
  U  U0  1  0.02034700  0.98477400  0.81703900  1
  U  U1  1  0.97965300  0.01522600  0.18296100  1
  U  U2  1  0.47965300  0.98477400  0.31703900  1
  U  U3  1  0.52034700  0.01522600  0.68296100  1
  V  V0  1  0.14976900  0.13141600  0.45908800  1
  V  V1  1  0.85023100  0.86858400  0.54091200  1
  V  V2  1  0.64976900  0.86858400  0.04091200  1
  V  V3  1  0.35023100  0.13141600  0.95908800  1
  Ag  Ag0  1  0.72444800  0.45771900  0.83382500  1
  Ag  Ag1  1  0.22444800  0.54228100  0.66617500  1
  Ag  Ag2  1  0.77555200  0.45771900  0.33382500  1
  Ag  Ag3  1  0.27555200  0.54228100  0.16617500  1
  O  O0  1  0.58571100  0.29946900  0.64824000  1
  O  O1  1  0.56306200  0.05643200  0.89786100  1
  O  O2  1  0.41428900  0.70053100  0.35176000  1
  O  O3  1  0.85846600  0.61376000  0.50813500  1
  O  O4  1  0.54860400  0.26957000  0.27724000  1
  O  O5  1  0.95139600  0.26957000  0.77724000  1
  O  O6  1  0.14153400  0.38624000  0.49186500  1
  O  O7  1  0.21019600  0.12484700  0.28922100  1
  O  O8  1  0.28980400  0.12484700  0.78922100  1
  O  O9  1  0.04860400  0.73043000  0.22276000  1
  O  O10  1  0.84959800  0.95552700  0.99194700  1
  O  O11  1  0.08571100  0.70053100  0.85176000  1
  O  O12  1  0.15040200  0.04447300  0.00805300  1
  O  O13  1  0.43693800  0.94356800  0.10213900  1
  O  O14  1  0.45139600  0.73043000  0.72276000  1
  O  O15  1  0.65040200  0.95552700  0.49194700  1
  O  O16  1  0.06306200  0.94356800  0.60213900  1
  O  O17  1  0.35846600  0.38624000  0.99186500  1
  O  O18  1  0.91428900  0.29946900  0.14824000  1
  O  O19  1  0.93693800  0.05643200  0.39786100  1
  O  O20  1  0.64153400  0.61376000  0.00813500  1
  O  O21  1  0.34959800  0.04447300  0.50805300  1
  O  O22  1  0.71019600  0.87515300  0.21077900  1
  O  O23  1  0.78980400  0.87515300  0.71077900  1
loop_
_geom_bond_atom_site_label_1
_geom_bond_atom_site_label_2
_geom_bond_distance
_geom_bond_site_symmetry_2
Ag0 O20 2.276079 1_556
Ag0 O5 2.346455 1_555
Ag0 O0 2.561574 1_555
Ag0 O23 2.795362 1_555
Ag1 O6 2.276079 1_555
Ag1 O14 2.346455 1_555
Ag1 O11 2.561574 1_555
Ag1 O8 2.795362 1_555
Ag2 O3 2.276079 1_555
Ag2 O4 2.346455 1_555
Ag2 O18 2.561574 1_555
Ag2 O22 2.795362 1_555
Ag3 O17 2.276079 1_554
Ag3 O9 2.346455 1_555
Ag3 O2 2.561574 1_555
Ag3 O7 2.795362 1_555
O0 U3 1.833264 1_555
O1 V2 1.926904 1_546
O1 V3 1.974528 1_555
O1 U3 2.327184 1_555
O2 U2 1.833264 1_555
O3 V1 1.651419 1_555
O4 U2 1.850907 1_545
O5 U0 1.850907 1_645
O6 V0 1.651419 1_555
O7 V0 1.858511 1_555
O7 U1 2.374263 1_455
O7 U2 2.429582 1_545
O8 V3 1.858511 1_555
O8 U3 2.374263 1_555
O8 U0 2.429582 1_545
O9 U1 1.850907 1_465
O10 V2 1.818686 1_556
O10 U0 2.319894 1_655
O10 U1 2.350536 1_566
O11 U0 1.833264 1_555
O12 V3 1.818686 1_554
O12 U1 2.319894 1_455
O12 U0 2.350536 1_544
O13 V3 1.926904 1_564
O13 V2 1.974528 1_555
O13 U2 2.327184 1_555
O14 U3 1.850907 1_565
O15 V1 1.818686 1_555
O15 U2 2.319894 1_555
O15 U3 2.350536 1_565
O16 V0 1.926904 1_565
O16 V1 1.974528 1_455
O16 U0 2.327184 1_555
O17 V3 1.651419 1_555
O18 U1 1.833264 1_555
O19 V1 1.926904 1_545
O19 V0 1.974528 1_655
O19 U1 2.327184 1_555
O20 V2 1.651419 1_555
O21 V0 1.818686 1_555
O21 U3 2.319894 1_555
O21 U2 2.350536 1_545
O22 V2 1.858511 1_555
O22 U2 2.374263 1_555
O22 U1 2.429582 1_565
O23 V1 1.858511 1_555
O23 U0 2.374263 1_655
O23 U3 2.429582 1_565
