# generated using pymatgen
data_Y3U2O10
_symmetry_space_group_name_H-M   'P 1'
_cell_length_a   6.42028881
_cell_length_b   6.42028881
_cell_length_c   8.29806857
_cell_angle_alpha   51.48325884
_cell_angle_beta   51.48325884
_cell_angle_gamma   48.97113501
_symmetry_Int_Tables_number   1
_chemical_formula_structural   Y3U2O10
_chemical_formula_sum   'Y3 U2 O10'
_cell_volume   188.16192712
_cell_formula_units_Z   1
loop_
 _symmetry_equiv_pos_site_id
 _symmetry_equiv_pos_as_xyz
  1  'x, y, z'
loop_
 _atom_site_type_symbol
 _atom_site_label
 _atom_site_symmetry_multiplicity
 _atom_site_fract_x
 _atom_site_fract_y
 _atom_site_fract_z
 _atom_site_occupancy
  Y  Y0  1  0.10221257  0.10221257  0.59662305  1
  Y  Y1  1  0.50000000  0.50000000  0.00000000  1
  Y  Y2  1  0.89778743  0.89778743  0.40337695  1
  U  U0  1  0.30286126  0.30286126  0.79439134  1
  U  U1  1  0.69713874  0.69713874  0.20560866  1
  O  O0  1  0.55352278  0.03806637  0.29119548  1
  O  O1  1  0.96193363  0.44647722  0.70880452  1
  O  O2  1  0.03806637  0.55352278  0.29119548  1
  O  O3  1  0.35622864  0.85391376  0.10631976  1
  O  O4  1  0.44647722  0.96193363  0.70880452  1
  O  O5  1  0.73406750  0.26593250  0.50000000  1
  O  O6  1  0.85391376  0.35622864  0.10631976  1
  O  O7  1  0.14608624  0.64377136  0.89368024  1
  O  O8  1  0.26593250  0.73406750  0.50000000  1
  O  O9  1  0.64377136  0.14608624  0.89368024  1
loop_
_geom_bond_atom_site_label_1
_geom_bond_atom_site_label_2
_geom_bond_distance
_geom_bond_site_symmetry_2
O0 U1 2.148603 1_545
O0 Y2 2.338368 1_545
O0 Y1 2.350144 1_555
O0 Y0 2.361292 1_555
O1 U0 2.148603 1_655
O1 Y0 2.338368 1_655
O1 Y1 2.350144 1_556
O1 Y2 2.361292 1_555
O2 U1 2.148603 1_455
O2 Y2 2.338368 1_455
O2 Y1 2.350144 1_555
O2 Y0 2.361292 1_555
O3 U1 2.191648 1_555
O3 Y1 2.349959 1_555
O3 Y2 2.357684 1_455
O3 U0 2.375088 1_564
O4 U0 2.148603 1_565
O4 Y0 2.338368 1_565
O4 Y1 2.350144 1_556
O4 Y2 2.361292 1_555
O5 U1 2.263767 1_555
O5 U0 2.263767 1_555
O5 Y2 2.320172 1_545
O5 Y0 2.320172 1_655
O6 U1 2.191648 1_555
O6 Y1 2.349959 1_555
O6 Y2 2.357684 1_545
O6 U0 2.375088 1_654
O7 U0 2.191648 1_555
O7 Y1 2.349959 1_556
O7 Y0 2.357684 1_565
O7 U1 2.375088 1_456
O8 U1 2.263767 1_555
O8 U0 2.263767 1_555
O8 Y2 2.320172 1_455
O8 Y0 2.320172 1_565
O9 U0 2.191648 1_555
O9 Y1 2.349959 1_556
O9 Y0 2.357684 1_655
O9 U1 2.375088 1_546
