# generated using pymatgen
data_Tm2Zr8O19
_symmetry_space_group_name_H-M   'P 1'
_cell_length_a   3.63333900
_cell_length_b   3.63333900
_cell_length_c   25.64021500
_cell_angle_alpha   90.00000000
_cell_angle_beta   90.00000000
_cell_angle_gamma   90.00000000
_symmetry_Int_Tables_number   1
_chemical_formula_structural   Tm2Zr8O19
_chemical_formula_sum   'Tm2 Zr8 O19'
_cell_volume   338.48038294
_cell_formula_units_Z   1
loop_
 _symmetry_equiv_pos_site_id
 _symmetry_equiv_pos_as_xyz
  1  'x, y, z'
loop_
 _atom_site_type_symbol
 _atom_site_label
 _atom_site_symmetry_multiplicity
 _atom_site_fract_x
 _atom_site_fract_y
 _atom_site_fract_z
 _atom_site_occupancy
  Tm  Tm0  1  0.00000000  0.50000000  0.94417800  1
  Tm  Tm1  1  0.50000000  0.00000000  0.05582200  1
  Zr  Zr0  1  0.00000000  0.50000000  0.15139800  1
  Zr  Zr1  1  0.50000000  0.00000000  0.25110200  1
  Zr  Zr2  1  0.00000000  0.50000000  0.35063300  1
  Zr  Zr3  1  0.50000000  0.00000000  0.45016500  1
  Zr  Zr4  1  0.00000000  0.50000000  0.54983500  1
  Zr  Zr5  1  0.50000000  0.00000000  0.64936700  1
  Zr  Zr6  1  0.00000000  0.50000000  0.74889800  1
  Zr  Zr7  1  0.50000000  0.00000000  0.84860200  1
  O  O0  1  0.00000000  0.00000000  0.39806200  1
  O  O1  1  0.50000000  0.50000000  0.50000000  1
  O  O2  1  0.00000000  0.00000000  0.60193800  1
  O  O3  1  0.50000000  0.50000000  0.69534900  1
  O  O4  1  0.00000000  0.00000000  0.80407100  1
  O  O5  1  0.50000000  0.50000000  0.89248900  1
  O  O6  1  0.00000000  0.00000000  0.90412300  1
  O  O7  1  0.50000000  0.50000000  0.00000000  1
  O  O8  1  0.50000000  0.50000000  0.10751100  1
  O  O9  1  0.00000000  0.00000000  0.19592900  1
  O  O10  1  0.00000000  0.00000000  0.09587700  1
  O  O11  1  0.50000000  0.50000000  0.30465100  1
  O  O12  1  0.50000000  0.50000000  0.20636300  1
  O  O13  1  0.00000000  0.00000000  0.29674700  1
  O  O14  1  0.50000000  0.50000000  0.40240300  1
  O  O15  1  0.00000000  0.00000000  0.50000000  1
  O  O16  1  0.50000000  0.50000000  0.59759700  1
  O  O17  1  0.00000000  0.00000000  0.70325300  1
  O  O18  1  0.50000000  0.50000000  0.79363700  1
loop_
_geom_bond_atom_site_label_1
_geom_bond_atom_site_label_2
_geom_bond_distance
_geom_bond_site_symmetry_2
O0 Zr2 2.186130 1_555
O0 Zr2 2.186130 1_545
O0 Zr3 2.254995 1_455
O0 Zr3 2.254995 1_555
O1 Zr4 2.221038 1_655
O1 Zr4 2.221038 1_555
O1 Zr3 2.221038 1_555
O1 Zr3 2.221038 1_565
O2 Zr5 2.186130 1_455
O2 Zr5 2.186130 1_555
O2 Zr4 2.254995 1_545
O2 Zr4 2.254995 1_555
O3 Zr5 2.165710 1_565
O3 Zr5 2.165710 1_555
O3 Zr6 2.277156 1_555
O3 Zr6 2.277156 1_655
O4 Zr7 2.145684 1_455
O4 Zr7 2.145684 1_555
O4 Zr6 2.302502 1_555
O4 Zr6 2.302502 1_545
O5 Zr7 2.136943 1_555
O5 Zr7 2.136943 1_565
O5 Tm0 2.248723 1_555
O5 Tm0 2.248723 1_655
O6 Tm0 2.086877 1_545
O6 Tm0 2.086877 1_555
O6 Zr7 2.307995 1_455
O6 Zr7 2.307995 1_555
O7 Tm1 2.312763 1_555
O7 Tm1 2.312763 1_565
O7 Tm0 2.312763 1_654
O7 Tm0 2.312763 1_554
O8 Zr0 2.136943 1_555
O8 Zr0 2.136943 1_655
O8 Tm1 2.248723 1_555
O8 Tm1 2.248723 1_565
O9 Zr0 2.145684 1_545
O9 Zr0 2.145684 1_555
O9 Zr1 2.302502 1_455
O9 Zr1 2.302502 1_555
O10 Tm1 2.086877 1_555
O10 Tm1 2.086877 1_455
O10 Zr0 2.307995 1_555
O10 Zr0 2.307995 1_545
O11 Zr2 2.165710 1_655
O11 Zr2 2.165710 1_555
O11 Zr1 2.277156 1_555
O11 Zr1 2.277156 1_565
O12 Zr1 2.148527 1_555
O12 Zr1 2.148527 1_565
O12 Zr0 2.299229 1_555
O12 Zr0 2.299229 1_655
O13 Zr1 2.161019 1_455
O13 Zr1 2.161019 1_555
O13 Zr2 2.282376 1_545
O13 Zr2 2.282376 1_555
O14 Zr3 2.190891 1_565
O14 Zr3 2.190891 1_555
O14 Zr2 2.249947 1_555
O14 Zr2 2.249947 1_655
O15 Zr4 2.221038 1_545
O15 Zr4 2.221038 1_555
O15 Zr3 2.221038 1_555
O15 Zr3 2.221038 1_455
O16 Zr4 2.190891 1_655
O16 Zr4 2.190891 1_555
O16 Zr5 2.249947 1_565
O16 Zr5 2.249947 1_555
O17 Zr6 2.161019 1_545
O17 Zr6 2.161019 1_555
O17 Zr5 2.282376 1_555
O17 Zr5 2.282376 1_455
O18 Zr6 2.148527 1_555
O18 Zr6 2.148527 1_655
O18 Zr7 2.299229 1_555
O18 Zr7 2.299229 1_565
