# generated using pymatgen
data_CaP(H2O3)2
_symmetry_space_group_name_H-M   'P 1'
_cell_length_a   8.19589392
_cell_length_b   8.19589392
_cell_length_c   5.82138476
_cell_angle_alpha   80.12384972
_cell_angle_beta   80.12384972
_cell_angle_gamma   133.19230619
_symmetry_Int_Tables_number   1
_chemical_formula_structural   CaP(H2O3)2
_chemical_formula_sum   'Ca2 P2 H8 O12'
_cell_volume   257.14142841
_cell_formula_units_Z   2
loop_
 _symmetry_equiv_pos_site_id
 _symmetry_equiv_pos_as_xyz
  1  'x, y, z'
loop_
 _atom_site_type_symbol
 _atom_site_label
 _atom_site_symmetry_multiplicity
 _atom_site_fract_x
 _atom_site_fract_y
 _atom_site_fract_z
 _atom_site_occupancy
  Ca  Ca0  1  0.83245600  0.16754400  0.75000000  1
  Ca  Ca1  1  0.16754400  0.83245600  0.25000000  1
  P  P0  1  0.32878800  0.67121200  0.75000000  1
  P  P1  1  0.67121200  0.32878800  0.25000000  1
  H  H0  1  0.73485300  0.74382800  0.08189600  1
  H  H1  1  0.25617200  0.26514700  0.41810400  1
  H  H2  1  0.26514700  0.25617200  0.91810400  1
  H  H3  1  0.74382800  0.73485300  0.58189600  1
  H  H4  1  0.64986000  0.82180700  0.25753800  1
  H  H5  1  0.17819300  0.35014000  0.24246200  1
  H  H6  1  0.35014000  0.17819300  0.74246200  1
  H  H7  1  0.82180700  0.64986000  0.75753800  1
  O  O0  1  0.18349000  0.40909100  0.92395000  1
  O  O1  1  0.59090900  0.81651000  0.57605000  1
  O  O2  1  0.81651000  0.59090900  0.07605000  1
  O  O3  1  0.40909100  0.18349000  0.42395000  1
  O  O4  1  0.18262500  0.64610100  0.59394500  1
  O  O5  1  0.35389900  0.81737500  0.90605500  1
  O  O6  1  0.81737500  0.35389900  0.40605500  1
  O  O7  1  0.64610100  0.18262500  0.09394500  1
  O  O8  1  0.70660700  0.84372200  0.07978700  1
  O  O9  1  0.15627800  0.29339300  0.42021300  1
  O  O10  1  0.29339300  0.15627800  0.92021300  1
  O  O11  1  0.84372200  0.70660700  0.57978700  1
loop_
_geom_bond_atom_site_label_1
_geom_bond_atom_site_label_2
_geom_bond_distance
_geom_bond_site_symmetry_2
Ca0 O9 2.370423 1_655
Ca0 O8 2.370423 1_546
Ca0 O7 2.377243 1_556
Ca0 O6 2.377243 1_555
Ca0 O5 2.630564 1_545
Ca0 O4 2.630564 1_655
Ca0 O0 2.666883 1_655
Ca0 O1 2.666883 1_545
Ca1 O10 2.370423 1_564
Ca1 O11 2.370423 1_455
Ca1 O4 2.377243 1_555
Ca1 O5 2.377243 1_554
Ca1 O6 2.630564 1_455
Ca1 O7 2.630564 1_565
Ca1 O3 2.666883 1_565
Ca1 O2 2.666883 1_455
H0 O8 0.990468 1_555
H1 O9 0.990468 1_555
H2 O10 0.990468 1_555
H3 O11 0.990468 1_555
H4 O8 0.987975 1_555
H5 O9 0.987975 1_555
H6 O10 0.987975 1_555
H7 O11 0.987975 1_555
O0 P0 1.548159 1_555
O1 P0 1.548159 1_555
O2 P1 1.548159 1_555
O3 P1 1.548159 1_555
O4 P0 1.550053 1_555
O5 P0 1.550053 1_555
O6 P1 1.550053 1_555
O7 P1 1.550053 1_555
