# generated using pymatgen
data_Rb2TeH6SeO10
_symmetry_space_group_name_H-M   'P 1'
_cell_length_a   6.86950400
_cell_length_b   12.47840200
_cell_length_c   13.95289978
_cell_angle_alpha   71.63325615
_cell_angle_beta   90.00000000
_cell_angle_gamma   90.00000000
_symmetry_Int_Tables_number   1
_chemical_formula_structural   Rb2TeH6SeO10
_chemical_formula_sum   'Rb8 Te4 H24 Se4 O40'
_cell_volume   1135.12076731
_cell_formula_units_Z   4
loop_
 _symmetry_equiv_pos_site_id
 _symmetry_equiv_pos_as_xyz
  1  'x, y, z'
loop_
 _atom_site_type_symbol
 _atom_site_label
 _atom_site_symmetry_multiplicity
 _atom_site_fract_x
 _atom_site_fract_y
 _atom_site_fract_z
 _atom_site_occupancy
  Rb  Rb0  1  0.47805500  0.67168000  0.65723500  1
  Rb  Rb1  1  0.02194500  0.17168000  0.65723500  1
  Rb  Rb2  1  0.02496100  0.57042400  0.16008200  1
  Rb  Rb3  1  0.97503900  0.42957600  0.83991800  1
  Rb  Rb4  1  0.97805500  0.82832000  0.34276500  1
  Rb  Rb5  1  0.47503900  0.07042400  0.16008200  1
  Rb  Rb6  1  0.52194500  0.32832000  0.34276500  1
  Rb  Rb7  1  0.52496100  0.92957600  0.83991800  1
  Te  Te0  1  0.00000000  0.00000000  0.00000000  1
  Te  Te1  1  0.50000000  0.50000000  0.00000000  1
  Te  Te2  1  0.00000000  0.50000000  0.50000000  1
  Te  Te3  1  0.50000000  0.00000000  0.50000000  1
  H  H0  1  0.67126500  0.56323100  0.52423600  1
  H  H1  1  0.50776200  0.29902300  0.01778600  1
  H  H2  1  0.77214200  0.40589400  0.64413400  1
  H  H3  1  0.75327600  0.37615700  0.11186300  1
  H  H4  1  0.56652800  0.86879700  0.40271200  1
  H  H5  1  0.72785800  0.90589400  0.64413400  1
  H  H6  1  0.93347200  0.36879700  0.40271200  1
  H  H7  1  0.99223800  0.79902300  0.01778600  1
  H  H8  1  0.70680700  0.63032400  0.86398100  1
  H  H9  1  0.29319300  0.36967600  0.13601900  1
  H  H10  1  0.32873500  0.43676900  0.47576400  1
  H  H11  1  0.20680700  0.86967600  0.13601900  1
  H  H12  1  0.74672400  0.87615700  0.11186300  1
  H  H13  1  0.17126500  0.93676900  0.47576400  1
  H  H14  1  0.24672400  0.62384300  0.88813700  1
  H  H15  1  0.22785800  0.59410600  0.35586600  1
  H  H16  1  0.82873500  0.06323100  0.52423600  1
  H  H17  1  0.49223800  0.70097700  0.98221400  1
  H  H18  1  0.25327600  0.12384300  0.88813700  1
  H  H19  1  0.43347200  0.13120300  0.59728700  1
  H  H20  1  0.79319300  0.13032400  0.86398100  1
  H  H21  1  0.06652800  0.63120300  0.59728700  1
  H  H22  1  0.27214200  0.09410600  0.35586600  1
  H  H23  1  0.00776200  0.20097700  0.98221400  1
  Se  Se0  1  0.50816800  0.26452000  0.75006600  1
  Se  Se1  1  0.49183200  0.73548000  0.24993400  1
  Se  Se2  1  0.00816800  0.23548000  0.24993400  1
  Se  Se3  1  0.99183200  0.76452000  0.75006600  1
  O  O0  1  0.88552400  0.06424500  0.86660800  1
  O  O1  1  0.11447600  0.93575500  0.13339200  1
  O  O2  1  0.65099000  0.89632600  0.44929300  1
  O  O3  1  0.61447600  0.56424500  0.86660800  1
  O  O4  1  0.75860600  0.45052700  0.05574500  1
  O  O5  1  0.07921000  0.58593300  0.36363900  1
  O  O6  1  0.94899500  0.89694000  0.67393200  1
  O  O7  1  0.15099000  0.60367400  0.55070700  1
  O  O8  1  0.27830700  0.89588000  0.51816300  1
  O  O9  1  0.27748300  0.25062600  0.79151700  1
  O  O10  1  0.45009100  0.83099100  0.31018200  1
  O  O11  1  0.72169300  0.10412000  0.48183700  1
  O  O12  1  0.44899500  0.60306000  0.32606800  1
  O  O13  1  0.44995800  0.36220900  0.96543400  1
  O  O14  1  0.55004200  0.63779100  0.03456600  1
  O  O15  1  0.77748300  0.24937400  0.20848300  1
  O  O16  1  0.72251700  0.74937400  0.20848300  1
  O  O17  1  0.94995800  0.13779100  0.03456600  1
  O  O18  1  0.05004200  0.86220900  0.96543400  1
  O  O19  1  0.24139400  0.54947300  0.94425500  1
  O  O20  1  0.83362200  0.73661100  0.84665200  1
  O  O21  1  0.34901000  0.10367400  0.55070700  1
  O  O22  1  0.74139400  0.95052700  0.05574500  1
  O  O23  1  0.22169300  0.39588000  0.51816300  1
  O  O24  1  0.42079000  0.08593300  0.36363900  1
  O  O25  1  0.55100500  0.39694000  0.67393200  1
  O  O26  1  0.84901000  0.39632600  0.44929300  1
  O  O27  1  0.22251700  0.75062600  0.79151700  1
  O  O28  1  0.54990900  0.16900900  0.68981800  1
  O  O29  1  0.38552400  0.43575500  0.13339200  1
  O  O30  1  0.57921000  0.91406700  0.63636100  1
  O  O31  1  0.05100500  0.10306000  0.32606800  1
  O  O32  1  0.33362200  0.76338900  0.15334800  1
  O  O33  1  0.77830700  0.60412000  0.48183700  1
  O  O34  1  0.16637800  0.26338900  0.15334800  1
  O  O35  1  0.04990900  0.33099100  0.31018200  1
  O  O36  1  0.66637800  0.23661100  0.84665200  1
  O  O37  1  0.25860600  0.04947300  0.94425500  1
  O  O38  1  0.92079000  0.41406700  0.63636100  1
  O  O39  1  0.95009100  0.66900900  0.68981800  1
loop_
_geom_bond_atom_site_label_1
_geom_bond_atom_site_label_2
_geom_bond_distance
_geom_bond_site_symmetry_2
H0 O33 0.980200 1_555
H0 Rb0 2.935858 1_555
H1 O13 0.974662 1_554
H1 Rb5 2.925814 1_555
H2 O38 1.028550 1_555
H2 O25 1.569631 1_555
H3 O4 1.008827 1_555
H4 O2 1.008848 1_555
H4 Rb4 3.035264 1_555
H5 O30 1.028550 1_555
H5 O6 1.569631 1_555
H6 O26 1.008848 1_555
H6 Rb6 3.035264 1_555
H7 O18 0.974662 1_654
H7 Rb2 2.925814 1_655
H8 O3 1.031742 1_555
H8 O20 1.540887 1_555
H9 O29 1.031742 1_555
H9 O34 1.540887 1_555
H10 O23 0.980200 1_555
H10 Rb6 2.935858 1_555
H11 O1 1.031742 1_555
H11 O32 1.540887 1_555
H12 O22 1.008827 1_555
H13 O8 0.980200 1_555
H13 Rb4 2.935858 1_455
H14 O19 1.008827 1_555
H15 O5 1.028550 1_555
H15 O12 1.569631 1_555
H16 O11 0.980200 1_555
H16 Rb1 2.935858 1_655
H17 O14 0.974662 1_556
H17 Rb7 2.925814 1_555
H18 O37 1.008827 1_555
H19 O21 1.008837 1_555
H19 Rb1 3.035269 1_555
H20 O0 1.031742 1_555
H20 O36 1.540887 1_555
H21 O7 1.008837 1_555
H21 Rb0 3.035269 1_555
H22 O24 1.028550 1_555
H22 O31 1.569631 1_555
H23 O17 0.974662 1_456
H23 Rb3 2.925814 1_455
O0 Te0 1.945476 1_656
O0 Rb1 2.956641 1_655
O0 Rb7 3.080904 1_545
O1 Te0 1.945476 1_565
O1 Rb4 2.956641 1_455
O1 Rb5 3.080904 1_565
O2 Te3 1.956233 1_565
O2 Rb4 2.961812 1_555
O3 Te1 1.945476 1_556
O3 Rb0 2.956641 1_555
O3 Rb3 3.080904 1_555
O4 Te1 1.959445 1_555
O4 Rb2 3.013014 1_655
O4 Rb3 3.441459 1_554
O5 Te2 1.944273 1_555
O5 Rb2 2.930788 1_555
O5 Rb4 3.026674 1_455
O6 Se3 1.685008 1_555
O6 Rb1 3.399327 1_665
O7 Te2 1.956233 1_555
O7 Rb0 2.961812 1_555
O8 Te3 1.965723 1_565
O8 Rb0 3.170795 1_555
O9 Se0 1.677086 1_555
O9 Rb1 2.953913 1_555
O9 Rb3 3.272515 1_455
O10 Se1 1.685443 1_555
O10 Rb5 3.065754 1_565
O10 Rb4 3.273079 1_455
O11 Te3 1.965723 1_555
O11 Rb6 3.170795 1_555
O12 Se1 1.685008 1_555
O12 Rb6 3.399327 1_555
O13 Te1 1.956977 1_556
O14 Te1 1.956977 1_555
O15 Se2 1.677086 1_655
O15 Rb6 2.953913 1_555
O15 Rb5 3.272515 1_555
O16 Se1 1.677086 1_555
O16 Rb4 2.953913 1_555
O16 Rb2 3.272515 1_655
O17 Te0 1.956977 1_655
O18 Te0 1.956977 1_566
O19 Te1 1.959445 1_556
O19 Rb3 3.013014 1_455
O19 Rb2 3.441459 1_556
O20 Se3 1.680141 1_555
O20 Rb7 3.187489 1_555
O21 Te3 1.956233 1_555
O21 Rb1 2.961812 1_555
O22 Te0 1.959445 1_665
O22 Rb5 3.013014 1_565
O22 Rb7 3.441459 1_554
O23 Te2 1.965723 1_555
O23 Rb1 3.170795 1_555
O24 Te3 1.944273 1_555
O24 Rb5 2.930788 1_555
O24 Rb6 3.026674 1_555
O25 Se0 1.685008 1_555
O25 Rb0 3.399327 1_555
O26 Te2 1.956233 1_655
O26 Rb6 2.961812 1_555
O27 Se3 1.677086 1_455
O27 Rb0 2.953913 1_555
O27 Rb7 3.272515 1_555
O28 Se0 1.685443 1_555
O28 Rb7 3.065754 1_545
O28 Rb1 3.273079 1_655
O29 Te1 1.945476 1_555
O29 Rb6 2.956641 1_555
O29 Rb2 3.080904 1_555
O30 Te3 1.944273 1_565
O30 Rb7 2.930788 1_555
O30 Rb0 3.026674 1_555
O31 Se2 1.685008 1_555
O31 Rb4 3.399327 1_445
O32 Se1 1.680141 1_555
O32 Rb2 3.187489 1_555
O33 Te2 1.965723 1_655
O33 Rb4 3.170795 1_555
O34 Se2 1.680141 1_555
O34 Rb5 3.187489 1_555
O35 Se2 1.685443 1_555
O35 Rb2 3.065754 1_555
O35 Rb6 3.273079 1_555
O36 Se0 1.680141 1_555
O36 Rb3 3.187489 1_555
O37 Te0 1.959445 1_556
O37 Rb7 3.013014 1_545
O37 Rb5 3.441459 1_556
O38 Te2 1.944273 1_655
O38 Rb3 2.930788 1_555
O38 Rb1 3.026674 1_655
O39 Se3 1.685443 1_555
O39 Rb3 3.065754 1_555
O39 Rb0 3.273079 1_555
