# generated using pymatgen
data_NbFeTe2
_symmetry_space_group_name_H-M   'P 1'
_cell_length_a   6.32666400
_cell_length_b   7.52804300
_cell_length_c   8.12422100
_cell_angle_alpha   90.00000000
_cell_angle_beta   90.00000000
_cell_angle_gamma   90.00000000
_symmetry_Int_Tables_number   1
_chemical_formula_structural   NbFeTe2
_chemical_formula_sum   'Nb4 Fe4 Te8'
_cell_volume   386.93551219
_cell_formula_units_Z   4
loop_
 _symmetry_equiv_pos_site_id
 _symmetry_equiv_pos_as_xyz
  1  'x, y, z'
loop_
 _atom_site_type_symbol
 _atom_site_label
 _atom_site_symmetry_multiplicity
 _atom_site_fract_x
 _atom_site_fract_y
 _atom_site_fract_z
 _atom_site_occupancy
  Nb  Nb0  1  0.50000000  0.50000000  0.70378900  1
  Nb  Nb1  1  0.00000000  0.50000000  0.20378900  1
  Nb  Nb2  1  0.00000000  0.50000000  0.79621100  1
  Nb  Nb3  1  0.50000000  0.50000000  0.29621100  1
  Fe  Fe0  1  0.14219800  0.61105600  0.50000000  1
  Fe  Fe1  1  0.64219800  0.38894400  0.00000000  1
  Fe  Fe2  1  0.85780200  0.38894400  0.50000000  1
  Fe  Fe3  1  0.35780200  0.61105600  0.00000000  1
  Te  Te0  1  0.75000000  0.18679400  0.25000000  1
  Te  Te1  1  0.24682400  0.27686800  0.00000000  1
  Te  Te2  1  0.75317600  0.72313200  0.00000000  1
  Te  Te3  1  0.25000000  0.81320600  0.25000000  1
  Te  Te4  1  0.74682400  0.72313200  0.50000000  1
  Te  Te5  1  0.25317600  0.27686800  0.50000000  1
  Te  Te6  1  0.25000000  0.81320600  0.75000000  1
  Te  Te7  1  0.75000000  0.18679400  0.75000000  1
loop_
_geom_bond_atom_site_label_1
_geom_bond_atom_site_label_2
_geom_bond_distance
_geom_bond_site_symmetry_2
Nb0 Te4 2.828632 1_555
Nb0 Te5 2.828632 1_555
Nb0 Te7 2.863908 1_555
Nb0 Te6 2.863908 1_555
Nb1 Te1 2.828632 1_555
Nb1 Te2 2.828632 1_455
Nb1 Te0 2.863908 1_455
Nb1 Te3 2.863908 1_555
Nb2 Te2 2.828632 1_456
Nb2 Te1 2.828632 1_556
Nb2 Te7 2.863908 1_455
Nb2 Te6 2.863908 1_555
Nb3 Te4 2.828632 1_555
Nb3 Te5 2.828632 1_555
Nb3 Te3 2.863908 1_555
Nb3 Te0 2.863908 1_555
Fe0 Fe2 2.456260 1_455
Fe0 Te5 2.611921 1_555
Fe0 Te6 2.627966 1_555
Fe0 Te3 2.627966 1_555
Fe0 Te4 2.639857 1_455
Fe0 Nb1 2.701753 1_555
Fe0 Nb2 2.701753 1_555
Fe0 Nb3 2.926493 1_555
Fe0 Nb0 2.926493 1_555
Fe1 Fe3 2.456260 1_555
Fe1 Te2 2.611921 1_555
Fe1 Te7 2.627966 1_554
Fe1 Te0 2.627966 1_555
Fe1 Te1 2.639857 1_555
Fe1 Nb3 2.701753 1_555
Fe1 Nb0 2.701753 1_554
Fe1 Nb1 2.926493 1_655
Fe1 Nb2 2.926493 1_654
Fe2 Te4 2.611921 1_555
Fe2 Te7 2.627966 1_555
Fe2 Te0 2.627966 1_555
Fe2 Te5 2.639857 1_655
Fe2 Nb2 2.701753 1_655
Fe2 Nb1 2.701753 1_655
Fe2 Nb3 2.926493 1_555
Fe2 Nb0 2.926493 1_555
Fe3 Te1 2.611921 1_555
Fe3 Te3 2.627966 1_555
Fe3 Te6 2.627966 1_554
Fe3 Te2 2.639857 1_555
Fe3 Nb3 2.701753 1_555
Fe3 Nb0 2.701753 1_554
Fe3 Nb1 2.926493 1_555
Fe3 Nb2 2.926493 1_554
