# generated using pymatgen
data_V17Ge31
_symmetry_space_group_name_H-M   'P 1'
_cell_length_a   5.92417615
_cell_length_b   5.92417615
_cell_length_c   84.06295818
_cell_angle_alpha   90.00000000
_cell_angle_beta   90.00000000
_cell_angle_gamma   90.00000000
_symmetry_Int_Tables_number   1
_chemical_formula_structural   V17Ge31
_chemical_formula_sum   'V68 Ge124'
_cell_volume   2950.26206839
_cell_formula_units_Z   4
loop_
 _symmetry_equiv_pos_site_id
 _symmetry_equiv_pos_as_xyz
  1  'x, y, z'
loop_
 _atom_site_type_symbol
 _atom_site_label
 _atom_site_symmetry_multiplicity
 _atom_site_fract_x
 _atom_site_fract_y
 _atom_site_fract_z
 _atom_site_occupancy
  V  V0  1  0.50000000  0.50000000  0.14642887  1
  V  V1  1  0.50000000  0.50000000  0.79322351  1
  V  V2  1  0.50000000  0.50000000  0.67675761  1
  V  V3  1  0.00000000  0.50000000  0.95490322  1
  V  V4  1  0.00000000  0.00000000  0.11665756  1
  V  V5  1  0.00000000  0.50000000  0.77854152  1
  V  V6  1  0.50000000  0.50000000  0.32324239  1
  V  V7  1  0.00000000  0.00000000  0.94033491  1
  V  V8  1  0.50000000  0.50000000  0.85357113  1
  V  V9  1  0.50000000  0.50000000  0.38334244  1
  V  V10  1  0.00000000  0.00000000  0.29322351  1
  V  V11  1  0.50000000  0.00000000  0.10219022  1
  V  V12  1  0.00000000  0.50000000  0.30815013  1
  V  V13  1  0.00000000  0.00000000  0.35357113  1
  V  V14  1  0.00000000  0.00000000  0.41198852  1
  V  V15  1  0.50000000  0.50000000  0.91198852  1
  V  V16  1  0.50000000  0.00000000  0.98481062  1
  V  V17  1  0.00000000  0.00000000  0.05966509  1
  V  V18  1  0.50000000  0.00000000  0.51518938  1
  V  V19  1  0.50000000  0.00000000  0.33842462  1
  V  V20  1  0.50000000  0.00000000  0.92610396  1
  V  V21  1  0.50000000  0.00000000  0.45490322  1
  V  V22  1  0.50000000  0.50000000  0.08801148  1
  V  V23  1  0.00000000  0.50000000  0.13139587  1
  V  V24  1  0.00000000  0.00000000  0.64642887  1
  V  V25  1  0.50000000  0.50000000  0.55966509  1
  V  V26  1  0.00000000  0.50000000  0.36860413  1
  V  V27  1  0.50000000  0.00000000  0.27854152  1
  V  V28  1  0.00000000  0.50000000  0.42610396  1
  V  V29  1  0.00000000  0.50000000  0.48481062  1
  V  V30  1  0.50000000  0.50000000  0.73584418  1
  V  V31  1  0.00000000  0.50000000  0.72145848  1
  V  V32  1  0.00000000  0.50000000  0.54509678  1
  V  V33  1  0.00000000  0.00000000  0.82324239  1
  V  V34  1  0.00000000  0.00000000  0.70677649  1
  V  V35  1  0.50000000  0.50000000  0.50000000  1
  V  V36  1  0.00000000  0.00000000  0.46976150  1
  V  V37  1  0.50000000  0.00000000  0.22145848  1
  V  V38  1  0.50000000  0.00000000  0.63139587  1
  V  V39  1  0.50000000  0.00000000  0.75000000  1
  V  V40  1  0.50000000  0.50000000  0.26415582  1
  V  V41  1  0.00000000  0.50000000  0.19184987  1
  V  V42  1  0.00000000  0.00000000  0.76415582  1
  V  V43  1  0.50000000  0.50000000  0.61665756  1
  V  V44  1  0.00000000  0.00000000  0.53023850  1
  V  V45  1  0.00000000  0.00000000  0.23584418  1
  V  V46  1  0.50000000  0.00000000  0.69184987  1
  V  V47  1  0.00000000  0.50000000  0.07389604  1
  V  V48  1  0.50000000  0.00000000  0.57389604  1
  V  V49  1  0.00000000  0.50000000  0.66157538  1
  V  V50  1  0.00000000  0.00000000  0.17675761  1
  V  V51  1  0.00000000  0.50000000  0.01518938  1
  V  V52  1  0.00000000  0.00000000  0.58801148  1
  V  V53  1  0.50000000  0.00000000  0.16157538  1
  V  V54  1  0.00000000  0.50000000  0.60219022  1
  V  V55  1  0.00000000  0.00000000  0.00000000  1
  V  V56  1  0.00000000  0.50000000  0.89780978  1
  V  V57  1  0.50000000  0.00000000  0.04509678  1
  V  V58  1  0.00000000  0.50000000  0.83842462  1
  V  V59  1  0.50000000  0.50000000  0.03023850  1
  V  V60  1  0.50000000  0.00000000  0.39780978  1
  V  V61  1  0.50000000  0.50000000  0.20677649  1
  V  V62  1  0.50000000  0.00000000  0.80815013  1
  V  V63  1  0.50000000  0.50000000  0.96976150  1
  V  V64  1  0.00000000  0.50000000  0.25000000  1
  V  V65  1  0.50000000  0.50000000  0.44033491  1
  V  V66  1  0.00000000  0.00000000  0.88334244  1
  V  V67  1  0.50000000  0.00000000  0.86860413  1
  Ge  Ge0  1  0.28104187  0.15881065  0.13663375  1
  Ge  Ge1  1  0.33752981  0.68081774  0.76578584  1
  Ge  Ge2  1  0.28967033  0.65871134  0.70223474  1
  Ge  Ge3  1  0.15847830  0.24575256  0.33053428  1
  Ge  Ge4  1  0.65953419  0.68954652  0.94300780  1
  Ge  Ge5  1  0.18081774  0.83752981  0.73421416  1
  Ge  Ge6  1  0.21895813  0.65881065  0.63663375  1
  Ge  Ge7  1  0.76329096  0.84187073  0.84698517  1
  Ge  Ge8  1  0.84118935  0.28104187  0.86336625  1
  Ge  Ge9  1  0.16478393  0.67684687  0.57285072  1
  Ge  Ge10  1  0.24138822  0.65859889  0.99177281  1
  Ge  Ge11  1  0.15859889  0.74138822  0.50822719  1
  Ge  Ge12  1  0.16645157  0.82652579  0.08862484  1
  Ge  Ge13  1  0.73670904  0.34187073  0.34698517  1
  Ge  Ge14  1  0.26329096  0.65812927  0.34698517  1
  Ge  Ge15  1  0.70127557  0.65849404  0.87959168  1
  Ge  Ge16  1  0.20127557  0.84150596  0.37959168  1
  Ge  Ge17  1  0.66247019  0.31918226  0.76578584  1
  Ge  Ge18  1  0.34162355  0.79444283  0.54095740  1
  Ge  Ge19  1  0.22294755  0.84151119  0.02469679  1
  Ge  Ge20  1  0.83752981  0.81918226  0.26578584  1
  Ge  Ge21  1  0.84162355  0.70555717  0.04095740  1
  Ge  Ge22  1  0.66478393  0.82315313  0.07285072  1
  Ge  Ge23  1  0.74138822  0.84140111  0.49177281  1
  Ge  Ge24  1  0.80534750  0.34098394  0.28167318  1
  Ge  Ge25  1  0.32315313  0.16478393  0.42714928  1
  Ge  Ge26  1  0.83354843  0.17347421  0.08862484  1
  Ge  Ge27  1  0.34118935  0.21895813  0.36336625  1
  Ge  Ge28  1  0.67684687  0.83521607  0.42714928  1
  Ge  Ge29  1  0.79872443  0.15849404  0.37959168  1
  Ge  Ge30  1  0.25861178  0.15859889  0.49177281  1
  Ge  Ge31  1  0.16988460  0.33011540  0.75000000  1
  Ge  Ge32  1  0.81045348  0.84046581  0.55699220  1
  Ge  Ge33  1  0.33354843  0.32652579  0.58862484  1
  Ge  Ge34  1  0.68614657  0.16099138  0.60441991  1
  Ge  Ge35  1  0.34128866  0.28967033  0.29776526  1
  Ge  Ge36  1  0.84151119  0.77705245  0.97530321  1
  Ge  Ge37  1  0.75424744  0.15847830  0.66946572  1
  Ge  Ge38  1  0.66099138  0.18614657  0.89558009  1
  Ge  Ge39  1  0.34152170  0.74575256  0.83053428  1
  Ge  Ge40  1  0.15881065  0.71895813  0.86336625  1
  Ge  Ge41  1  0.83900862  0.68614657  0.39558009  1
  Ge  Ge42  1  0.66645157  0.67347421  0.58862484  1
  Ge  Ge43  1  0.84105740  0.72763365  0.68591597  1
  Ge  Ge44  1  0.84098394  0.30534750  0.21832682  1
  Ge  Ge45  1  0.34046581  0.31045348  0.94300780  1
  Ge  Ge46  1  0.34105740  0.77236635  0.18591597  1
  Ge  Ge47  1  0.79444283  0.65837645  0.45904260  1
  Ge  Ge48  1  0.84187073  0.23670904  0.15301483  1
  Ge  Ge49  1  0.65837645  0.20555717  0.54095740  1
  Ge  Ge50  1  0.25424744  0.34152170  0.16946572  1
  Ge  Ge51  1  0.70555717  0.15837645  0.95904260  1
  Ge  Ge52  1  0.82652579  0.83354843  0.91137516  1
  Ge  Ge53  1  0.65812927  0.73670904  0.65301483  1
  Ge  Ge54  1  0.71895813  0.84118935  0.13663375  1
  Ge  Ge55  1  0.31385343  0.83900862  0.60441991  1
  Ge  Ge56  1  0.72294755  0.65848881  0.52469679  1
  Ge  Ge57  1  0.20555717  0.34162355  0.45904260  1
  Ge  Ge58  1  0.78967033  0.84128866  0.20223474  1
  Ge  Ge59  1  0.81918226  0.16247019  0.73421416  1
  Ge  Ge60  1  0.34151119  0.72294755  0.47530321  1
  Ge  Ge61  1  0.84046581  0.18954652  0.44300780  1
  Ge  Ge62  1  0.82315313  0.33521607  0.92714928  1
  Ge  Ge63  1  0.15848881  0.22294755  0.97530321  1
  Ge  Ge64  1  0.66988460  0.16988460  0.25000000  1
  Ge  Ge65  1  0.84128866  0.21032967  0.79776526  1
  Ge  Ge66  1  0.24575256  0.84152170  0.66946572  1
  Ge  Ge67  1  0.15871134  0.78967033  0.79776526  1
  Ge  Ge68  1  0.65859889  0.75861178  0.00822719  1
  Ge  Ge69  1  0.27236635  0.84105740  0.31408403  1
  Ge  Ge70  1  0.15837645  0.29444283  0.04095740  1
  Ge  Ge71  1  0.34140111  0.24138822  0.00822719  1
  Ge  Ge72  1  0.15812927  0.76329096  0.15301483  1
  Ge  Ge73  1  0.16247019  0.18081774  0.26578584  1
  Ge  Ge74  1  0.18954652  0.15953419  0.55699220  1
  Ge  Ge75  1  0.72763365  0.15894260  0.31408403  1
  Ge  Ge76  1  0.19465250  0.65901606  0.28167318  1
  Ge  Ge77  1  0.15901606  0.69465250  0.21832682  1
  Ge  Ge78  1  0.69465250  0.84098394  0.78167318  1
  Ge  Ge79  1  0.71032967  0.34128866  0.70223474  1
  Ge  Ge80  1  0.77705245  0.15848881  0.02469679  1
  Ge  Ge81  1  0.16099138  0.31385343  0.39558009  1
  Ge  Ge82  1  0.65901606  0.80534750  0.71832682  1
  Ge  Ge83  1  0.29872443  0.34150596  0.87959168  1
  Ge  Ge84  1  0.23670904  0.15812927  0.84698517  1
  Ge  Ge85  1  0.33011540  0.83011540  0.25000000  1
  Ge  Ge86  1  0.84140111  0.25861178  0.50822719  1
  Ge  Ge87  1  0.68954652  0.34046581  0.05699220  1
  Ge  Ge88  1  0.32652579  0.66645157  0.41137516  1
  Ge  Ge89  1  0.75861178  0.34140111  0.99177281  1
  Ge  Ge90  1  0.30534750  0.15901606  0.78167318  1
  Ge  Ge91  1  0.17347421  0.16645157  0.91137516  1
  Ge  Ge92  1  0.65848881  0.27705245  0.47530321  1
  Ge  Ge93  1  0.65849404  0.29872443  0.12040832  1
  Ge  Ge94  1  0.18614657  0.33900862  0.10441991  1
  Ge  Ge95  1  0.34098394  0.19465250  0.71832682  1
  Ge  Ge96  1  0.67347421  0.33354843  0.41137516  1
  Ge  Ge97  1  0.65894260  0.22763365  0.18591597  1
  Ge  Ge98  1  0.65871134  0.71032967  0.29776526  1
  Ge  Ge99  1  0.83521607  0.32315313  0.57285072  1
  Ge  Ge100  1  0.34150596  0.70127557  0.12040832  1
  Ge  Ge101  1  0.78104187  0.34118935  0.63663375  1
  Ge  Ge102  1  0.84150596  0.79872443  0.62040832  1
  Ge  Ge103  1  0.33521607  0.17684687  0.07285072  1
  Ge  Ge104  1  0.31918226  0.33752981  0.23421416  1
  Ge  Ge105  1  0.15849404  0.20127557  0.62040832  1
  Ge  Ge106  1  0.83011540  0.66988460  0.75000000  1
  Ge  Ge107  1  0.17684687  0.66478393  0.92714928  1
  Ge  Ge108  1  0.84152170  0.75424744  0.33053428  1
  Ge  Ge109  1  0.15894260  0.27236635  0.68591597  1
  Ge  Ge110  1  0.27705245  0.34151119  0.52469679  1
  Ge  Ge111  1  0.65881065  0.78104187  0.36336625  1
  Ge  Ge112  1  0.65847830  0.25424744  0.83053428  1
  Ge  Ge113  1  0.68081774  0.66247019  0.23421416  1
  Ge  Ge114  1  0.33900862  0.81385343  0.89558009  1
  Ge  Ge115  1  0.22763365  0.34105740  0.81408403  1
  Ge  Ge116  1  0.34187073  0.26329096  0.65301483  1
  Ge  Ge117  1  0.77236635  0.65894260  0.81408403  1
  Ge  Ge118  1  0.29444283  0.84162355  0.95904260  1
  Ge  Ge119  1  0.21032967  0.15871134  0.20223474  1
  Ge  Ge120  1  0.74575256  0.65847830  0.16946572  1
  Ge  Ge121  1  0.15953419  0.81045348  0.44300780  1
  Ge  Ge122  1  0.81385343  0.66099138  0.10441991  1
  Ge  Ge123  1  0.31045348  0.65953419  0.05699220  1
loop_
_geom_bond_atom_site_label_1
_geom_bond_atom_site_label_2
_geom_bond_distance
_geom_bond_site_symmetry_2
Ge0 V0 2.538918 1_555
Ge0 V4 2.545011 1_555
Ge0 V53 2.638892 1_555
Ge0 V23 2.655451 1_555
Ge1 V39 2.502563 1_565
Ge1 V5 2.509102 1_555
Ge1 V1 2.719150 1_555
Ge1 V42 2.755466 1_565
Ge1 V30 2.899842 1_555
Ge2 V46 2.530333 1_565
Ge2 V31 2.537788 1_555
Ge2 V2 2.650177 1_555
Ge2 V34 2.679275 1_565
Ge3 V19 2.579344 1_555
Ge3 V12 2.586661 1_555
Ge3 V6 2.595742 1_555
Ge3 V13 2.598316 1_555
Ge4 V20 2.508988 1_565
Ge4 V3 2.515761 1_655
Ge4 V63 2.685541 1_555
Ge4 V7 2.738846 1_665
Ge5 V39 2.502563 1_565
Ge5 V31 2.509102 1_555
Ge5 V34 2.719150 1_565
Ge5 V30 2.755466 1_555
Ge5 V42 2.899842 1_565
Ge6 V24 2.538918 1_565
Ge6 V43 2.545011 1_555
Ge6 V49 2.638892 1_555
Ge6 V38 2.655451 1_565
Ge7 V58 2.566354 1_655
Ge7 V67 2.571626 1_565
Ge7 V33 2.612968 1_665
Ge7 V8 2.615584 1_555
Ge8 V8 2.538918 1_555
Ge8 V66 2.545011 1_655
Ge8 V58 2.638892 1_655
Ge8 V67 2.655451 1_555
Ge9 V52 2.498443 1_565
Ge9 V25 2.503984 1_555
Ge9 V32 2.737491 1_555
Ge9 V48 2.759787 1_565
Ge9 V54 2.851939 1_555
Ge10 V55 2.571746 1_566
Ge10 V63 2.579485 1_555
Ge10 V16 2.603907 1_565
Ge10 V51 2.608184 1_556
Ge11 V35 2.571746 1_555
Ge11 V44 2.579485 1_565
Ge11 V18 2.603907 1_565
Ge11 V29 2.608184 1_555
Ge12 V47 2.499453 1_555
Ge12 V11 2.502222 1_565
Ge12 V4 2.753484 1_565
Ge12 V22 2.765705 1_555
Ge12 V17 2.820466 1_565
Ge13 V19 2.566354 1_555
Ge13 V26 2.571626 1_655
Ge13 V6 2.612968 1_555
Ge13 V13 2.615584 1_655
Ge14 V19 2.566354 1_565
Ge14 V26 2.571626 1_555
Ge14 V6 2.612968 1_555
Ge14 V13 2.615584 1_565
Ge15 V56 2.521674 1_655
Ge15 V67 2.523494 1_565
Ge15 V8 2.662326 1_555
Ge15 V66 2.706352 1_665
Ge16 V60 2.521674 1_565
Ge16 V26 2.523494 1_555
Ge16 V13 2.662326 1_565
Ge16 V9 2.706352 1_555
Ge17 V39 2.502563 1_555
Ge17 V5 2.509102 1_655
Ge17 V1 2.719150 1_555
Ge17 V42 2.755466 1_655
Ge17 V30 2.899842 1_555
Ge18 V44 2.527996 1_565
Ge18 V25 2.529061 1_555
Ge18 V18 2.656198 1_565
Ge18 V32 2.694382 1_555
Ge19 V51 2.544886 1_555
Ge19 V57 2.552700 1_565
Ge19 V55 2.633658 1_565
Ge19 V59 2.646533 1_555
Ge20 V64 2.502563 1_655
Ge20 V27 2.509102 1_565
Ge20 V10 2.719150 1_665
Ge20 V40 2.755466 1_555
Ge20 V45 2.899842 1_665
Ge21 V59 2.527996 1_555
Ge21 V17 2.529061 1_665
Ge21 V51 2.656198 1_655
Ge21 V57 2.694382 1_565
Ge22 V22 2.498443 1_555
Ge22 V17 2.503984 1_665
Ge22 V57 2.737491 1_565
Ge22 V47 2.759787 1_655
Ge22 V11 2.851939 1_565
Ge23 V35 2.571746 1_555
Ge23 V36 2.579485 1_665
Ge23 V29 2.603907 1_655
Ge23 V18 2.608184 1_565
Ge24 V40 2.515574 1_555
Ge24 V10 2.520539 1_655
Ge24 V12 2.677888 1_655
Ge24 V27 2.724360 1_555
Ge25 V14 2.498443 1_555
Ge25 V65 2.503984 1_555
Ge25 V21 2.737491 1_555
Ge25 V28 2.759787 1_555
Ge25 V60 2.851939 1_555
Ge26 V47 2.499453 1_655
Ge26 V11 2.502222 1_555
Ge26 V4 2.753484 1_655
Ge26 V22 2.765705 1_555
Ge26 V17 2.820466 1_655
Ge27 V13 2.538918 1_555
Ge27 V9 2.545011 1_555
Ge27 V19 2.638892 1_555
Ge27 V26 2.655451 1_555
Ge28 V14 2.498443 1_665
Ge28 V65 2.503984 1_555
Ge28 V21 2.737491 1_565
Ge28 V28 2.759787 1_655
Ge28 V60 2.851939 1_565
Ge29 V60 2.521674 1_555
Ge29 V26 2.523494 1_655
Ge29 V13 2.662326 1_655
Ge29 V9 2.706352 1_555
Ge30 V35 2.571746 1_555
Ge30 V36 2.579485 1_555
Ge30 V29 2.603907 1_555
Ge30 V18 2.608184 1_555
Ge31 V30 2.500712 1_555
Ge31 V42 2.500712 1_555
Ge31 V39 2.765723 1_555
Ge31 V5 2.789687 1_555
Ge31 V31 2.789687 1_555
Ge32 V48 2.508988 1_565
Ge32 V32 2.515761 1_655
Ge32 V44 2.685541 1_665
Ge32 V25 2.738846 1_555
Ge33 V48 2.499453 1_555
Ge33 V54 2.502222 1_555
Ge33 V43 2.753484 1_555
Ge33 V52 2.765705 1_555
Ge33 V25 2.820466 1_555
Ge34 V52 2.503854 1_655
Ge34 V43 2.511541 1_555
Ge34 V38 2.695938 1_555
Ge34 V54 2.743296 1_655
Ge35 V12 2.530333 1_555
Ge35 V27 2.537788 1_555
Ge35 V6 2.650177 1_555
Ge35 V10 2.679275 1_555
Ge36 V16 2.544886 1_565
Ge36 V3 2.552700 1_655
Ge36 V55 2.633658 1_666
Ge36 V63 2.646533 1_555
Ge37 V49 2.579344 1_655
Ge37 V46 2.586661 1_555
Ge37 V2 2.595742 1_555
Ge37 V24 2.598316 1_655
Ge38 V15 2.503854 1_555
Ge38 V66 2.511541 1_655
Ge38 V67 2.695938 1_555
Ge38 V56 2.743296 1_655
Ge39 V58 2.579344 1_555
Ge39 V62 2.586661 1_565
Ge39 V33 2.595742 1_565
Ge39 V8 2.598316 1_555
Ge40 V8 2.538918 1_555
Ge40 V66 2.545011 1_565
Ge40 V58 2.638892 1_555
Ge40 V67 2.655451 1_565
Ge41 V14 2.503854 1_665
Ge41 V9 2.511541 1_555
Ge41 V26 2.695938 1_655
Ge41 V60 2.743296 1_565
Ge42 V48 2.499453 1_565
Ge42 V54 2.502222 1_655
Ge42 V43 2.753484 1_555
Ge42 V52 2.765705 1_665
Ge42 V25 2.820466 1_555
Ge43 V2 2.548261 1_555
Ge43 V34 2.562275 1_665
Ge43 V49 2.625239 1_655
Ge43 V46 2.633384 1_565
Ge44 V45 2.515574 1_655
Ge44 V61 2.520539 1_555
Ge44 V41 2.677888 1_655
Ge44 V37 2.724360 1_555
Ge45 V20 2.508988 1_555
Ge45 V3 2.515761 1_555
Ge45 V63 2.685541 1_555
Ge45 V7 2.738846 1_555
Ge46 V50 2.548261 1_565
Ge46 V61 2.562275 1_555
Ge46 V53 2.625239 1_565
Ge46 V41 2.633384 1_555
Ge47 V36 2.527996 1_665
Ge47 V65 2.529061 1_555
Ge47 V29 2.656198 1_655
Ge47 V21 2.694382 1_565
Ge48 V53 2.566354 1_555
Ge48 V23 2.571626 1_655
Ge48 V50 2.612968 1_655
Ge48 V0 2.615584 1_555
Ge49 V44 2.527996 1_655
Ge49 V25 2.529061 1_555
Ge49 V18 2.656198 1_555
Ge49 V32 2.694382 1_655
Ge50 V53 2.579344 1_555
Ge50 V41 2.586661 1_555
Ge50 V50 2.595742 1_555
Ge50 V0 2.598316 1_555
Ge51 V63 2.527996 1_555
Ge51 V7 2.529061 1_655
Ge51 V16 2.656198 1_555
Ge51 V3 2.694382 1_655
Ge52 V20 2.499453 1_565
Ge52 V56 2.502222 1_655
Ge52 V66 2.753484 1_665
Ge52 V15 2.765705 1_555
Ge52 V7 2.820466 1_665
Ge53 V49 2.566354 1_655
Ge53 V38 2.571626 1_565
Ge53 V2 2.612968 1_555
Ge53 V24 2.615584 1_665
Ge54 V0 2.538918 1_555
Ge54 V4 2.545011 1_665
Ge54 V53 2.638892 1_565
Ge54 V23 2.655451 1_655
Ge55 V52 2.503854 1_565
Ge55 V43 2.511541 1_555
Ge55 V38 2.695938 1_565
Ge55 V54 2.743296 1_555
Ge56 V18 2.544886 1_565
Ge56 V32 2.552700 1_655
Ge56 V35 2.633658 1_555
Ge56 V44 2.646533 1_665
Ge57 V36 2.527996 1_555
Ge57 V65 2.529061 1_555
Ge57 V29 2.656198 1_555
Ge57 V21 2.694382 1_555
Ge58 V41 2.530333 1_655
Ge58 V37 2.537788 1_565
Ge58 V50 2.650177 1_665
Ge58 V61 2.679275 1_555
Ge59 V39 2.502563 1_555
Ge59 V31 2.509102 1_655
Ge59 V34 2.719150 1_655
Ge59 V30 2.755466 1_555
Ge59 V42 2.899842 1_655
Ge60 V29 2.544886 1_555
Ge60 V21 2.552700 1_565
Ge60 V35 2.633658 1_555
Ge60 V36 2.646533 1_565
Ge61 V28 2.508988 1_655
Ge61 V21 2.515761 1_555
Ge61 V36 2.685541 1_655
Ge61 V65 2.738846 1_555
Ge62 V15 2.498443 1_555
Ge62 V7 2.503984 1_655
Ge62 V3 2.737491 1_655
Ge62 V20 2.759787 1_555
Ge62 V56 2.851939 1_655
Ge63 V16 2.544886 1_555
Ge63 V3 2.552700 1_555
Ge63 V55 2.633658 1_556
Ge63 V63 2.646533 1_555
Ge64 V40 2.500712 1_555
Ge64 V45 2.500712 1_655
Ge64 V64 2.765723 1_655
Ge64 V37 2.789687 1_555
Ge64 V27 2.789687 1_555
Ge65 V62 2.530333 1_555
Ge65 V5 2.537788 1_655
Ge65 V33 2.650177 1_655
Ge65 V1 2.679275 1_555
Ge66 V49 2.579344 1_555
Ge66 V46 2.586661 1_565
Ge66 V2 2.595742 1_555
Ge66 V24 2.598316 1_565
Ge67 V62 2.530333 1_565
Ge67 V5 2.537788 1_555
Ge67 V33 2.650177 1_565
Ge67 V1 2.679275 1_555
Ge68 V55 2.571746 1_665
Ge68 V59 2.579485 1_555
Ge68 V51 2.603907 1_655
Ge68 V16 2.608184 1_564
Ge69 V6 2.548261 1_555
Ge69 V10 2.562275 1_565
Ge69 V19 2.625239 1_565
Ge69 V12 2.633384 1_555
Ge70 V59 2.527996 1_555
Ge70 V17 2.529061 1_555
Ge70 V51 2.656198 1_555
Ge70 V57 2.694382 1_555
Ge71 V55 2.571746 1_555
Ge71 V59 2.579485 1_555
Ge71 V51 2.603907 1_555
Ge71 V16 2.608184 1_554
Ge72 V53 2.566354 1_565
Ge72 V23 2.571626 1_555
Ge72 V50 2.612968 1_565
Ge72 V0 2.615584 1_555
Ge73 V64 2.502563 1_555
Ge73 V27 2.509102 1_555
Ge73 V10 2.719150 1_555
Ge73 V40 2.755466 1_555
Ge73 V45 2.899842 1_555
Ge74 V48 2.508988 1_555
Ge74 V32 2.515761 1_555
Ge74 V44 2.685541 1_555
Ge74 V25 2.738846 1_555
Ge75 V6 2.548261 1_555
Ge75 V10 2.562275 1_655
Ge75 V19 2.625239 1_555
Ge75 V12 2.633384 1_655
Ge76 V40 2.515574 1_555
Ge76 V10 2.520539 1_565
Ge76 V12 2.677888 1_555
Ge76 V27 2.724360 1_565
Ge77 V45 2.515574 1_565
Ge77 V61 2.520539 1_555
Ge77 V41 2.677888 1_555
Ge77 V37 2.724360 1_565
Ge78 V42 2.515574 1_665
Ge78 V1 2.520539 1_555
Ge78 V62 2.677888 1_565
Ge78 V5 2.724360 1_655
Ge79 V46 2.530333 1_555
Ge79 V31 2.537788 1_655
Ge79 V2 2.650177 1_555
Ge79 V34 2.679275 1_655
Ge80 V51 2.544886 1_655
Ge80 V57 2.552700 1_555
Ge80 V55 2.633658 1_655
Ge80 V59 2.646533 1_555
Ge81 V14 2.503854 1_555
Ge81 V9 2.511541 1_555
Ge81 V26 2.695938 1_555
Ge81 V60 2.743296 1_555
Ge82 V30 2.515574 1_555
Ge82 V34 2.520539 1_665
Ge82 V46 2.677888 1_565
Ge82 V31 2.724360 1_655
Ge83 V56 2.521674 1_555
Ge83 V67 2.523494 1_555
Ge83 V8 2.662326 1_555
Ge83 V66 2.706352 1_555
Ge84 V58 2.566354 1_555
Ge84 V67 2.571626 1_555
Ge84 V33 2.612968 1_555
Ge84 V8 2.615584 1_555
Ge85 V40 2.500712 1_555
Ge85 V45 2.500712 1_565
Ge85 V64 2.765723 1_555
Ge85 V27 2.789687 1_565
Ge85 V37 2.789687 1_565
Ge86 V35 2.571746 1_555
Ge86 V44 2.579485 1_655
Ge86 V18 2.603907 1_555
Ge86 V29 2.608184 1_655
Ge87 V47 2.508988 1_655
Ge87 V57 2.515761 1_555
Ge87 V59 2.685541 1_555
Ge87 V17 2.738846 1_655
Ge88 V28 2.499453 1_555
Ge88 V60 2.502222 1_565
Ge88 V9 2.753484 1_555
Ge88 V14 2.765705 1_565
Ge88 V65 2.820466 1_555
Ge89 V55 2.571746 1_656
Ge89 V63 2.579485 1_555
Ge89 V16 2.603907 1_555
Ge89 V51 2.608184 1_656
Ge90 V42 2.515574 1_555
Ge90 V1 2.520539 1_555
Ge90 V62 2.677888 1_555
Ge90 V5 2.724360 1_555
Ge91 V20 2.499453 1_555
Ge91 V56 2.502222 1_555
Ge91 V66 2.753484 1_555
Ge91 V15 2.765705 1_555
Ge91 V7 2.820466 1_555
Ge92 V29 2.544886 1_655
Ge92 V21 2.552700 1_555
Ge92 V35 2.633658 1_555
Ge92 V36 2.646533 1_655
Ge93 V11 2.521674 1_555
Ge93 V23 2.523494 1_655
Ge93 V0 2.662326 1_555
Ge93 V4 2.706352 1_655
Ge94 V22 2.503854 1_555
Ge94 V4 2.511541 1_555
Ge94 V23 2.695938 1_555
Ge94 V11 2.743296 1_555
Ge95 V30 2.515574 1_555
Ge95 V34 2.520539 1_555
Ge95 V46 2.677888 1_555
Ge95 V31 2.724360 1_555
Ge96 V28 2.499453 1_655
Ge96 V60 2.502222 1_555
Ge96 V9 2.753484 1_555
Ge96 V14 2.765705 1_655
Ge96 V65 2.820466 1_555
Ge97 V50 2.548261 1_655
Ge97 V61 2.562275 1_555
Ge97 V53 2.625239 1_555
Ge97 V41 2.633384 1_655
Ge98 V12 2.530333 1_655
Ge98 V27 2.537788 1_565
Ge98 V6 2.650177 1_555
Ge98 V10 2.679275 1_665
Ge99 V52 2.498443 1_655
Ge99 V25 2.503984 1_555
Ge99 V32 2.737491 1_655
Ge99 V48 2.759787 1_555
Ge99 V54 2.851939 1_655
Ge100 V11 2.521674 1_565
Ge100 V23 2.523494 1_555
Ge100 V0 2.662326 1_555
Ge100 V4 2.706352 1_565
Ge101 V24 2.538918 1_655
Ge101 V43 2.545011 1_555
Ge101 V49 2.638892 1_655
Ge101 V38 2.655451 1_555
Ge102 V54 2.521674 1_655
Ge102 V38 2.523494 1_565
Ge102 V24 2.662326 1_665
Ge102 V43 2.706352 1_555
Ge103 V22 2.498443 1_555
Ge103 V17 2.503984 1_555
Ge103 V57 2.737491 1_555
Ge103 V47 2.759787 1_555
Ge103 V11 2.851939 1_555
Ge104 V64 2.502563 1_555
Ge104 V37 2.509102 1_555
Ge104 V61 2.719150 1_555
Ge104 V45 2.755466 1_555
Ge104 V40 2.899842 1_555
Ge105 V54 2.521674 1_555
Ge105 V38 2.523494 1_555
Ge105 V24 2.662326 1_555
Ge105 V43 2.706352 1_555
Ge106 V30 2.500712 1_555
Ge106 V42 2.500712 1_665
Ge106 V39 2.765723 1_565
Ge106 V5 2.789687 1_655
Ge106 V31 2.789687 1_655
Ge107 V15 2.498443 1_555
Ge107 V7 2.503984 1_565
Ge107 V3 2.737491 1_555
Ge107 V20 2.759787 1_565
Ge107 V56 2.851939 1_555
Ge108 V19 2.579344 1_565
Ge108 V12 2.586661 1_655
Ge108 V6 2.595742 1_555
Ge108 V13 2.598316 1_665
Ge109 V2 2.548261 1_555
Ge109 V34 2.562275 1_555
Ge109 V49 2.625239 1_555
Ge109 V46 2.633384 1_555
Ge110 V18 2.544886 1_555
Ge110 V32 2.552700 1_555
Ge110 V35 2.633658 1_555
Ge110 V44 2.646533 1_555
Ge111 V13 2.538918 1_665
Ge111 V9 2.545011 1_555
Ge111 V19 2.638892 1_565
Ge111 V26 2.655451 1_655
Ge112 V58 2.579344 1_655
Ge112 V62 2.586661 1_555
Ge112 V33 2.595742 1_655
Ge112 V8 2.598316 1_555
Ge113 V64 2.502563 1_655
Ge113 V37 2.509102 1_565
Ge113 V61 2.719150 1_555
Ge113 V45 2.755466 1_665
Ge113 V40 2.899842 1_555
Ge114 V15 2.503854 1_555
Ge114 V66 2.511541 1_565
Ge114 V67 2.695938 1_565
Ge114 V56 2.743296 1_555
Ge115 V33 2.548261 1_555
Ge115 V1 2.562275 1_555
Ge115 V58 2.625239 1_555
Ge115 V62 2.633384 1_555
Ge116 V49 2.566354 1_555
Ge116 V38 2.571626 1_555
Ge116 V2 2.612968 1_555
Ge116 V24 2.615584 1_555
Ge117 V33 2.548261 1_665
Ge117 V1 2.562275 1_555
Ge117 V58 2.625239 1_655
Ge117 V62 2.633384 1_565
Ge118 V63 2.527996 1_555
Ge118 V7 2.529061 1_565
Ge118 V16 2.656198 1_565
Ge118 V3 2.694382 1_555
Ge119 V41 2.530333 1_555
Ge119 V37 2.537788 1_555
Ge119 V50 2.650177 1_555
Ge119 V61 2.679275 1_555
Ge120 V53 2.579344 1_565
Ge120 V41 2.586661 1_655
Ge120 V50 2.595742 1_665
Ge120 V0 2.598316 1_555
Ge121 V28 2.508988 1_555
Ge121 V21 2.515761 1_565
Ge121 V36 2.685541 1_565
Ge121 V65 2.738846 1_555
Ge122 V22 2.503854 1_555
Ge122 V4 2.511541 1_665
Ge122 V23 2.695938 1_655
Ge122 V11 2.743296 1_565
Ge123 V47 2.508988 1_555
Ge123 V57 2.515761 1_565
Ge123 V59 2.685541 1_555
Ge123 V17 2.738846 1_565
