# generated using pymatgen
data_Si2H2O3
_symmetry_space_group_name_H-M   'P 1'
_cell_length_a   8.59768700
_cell_length_b   9.73262364
_cell_length_c   12.40429206
_cell_angle_alpha   83.27589053
_cell_angle_beta   110.14713111
_cell_angle_gamma   115.90569100
_symmetry_Int_Tables_number   1
_chemical_formula_structural   Si2H2O3
_chemical_formula_sum   'Si20 H20 O30'
_cell_volume   875.85089882
_cell_formula_units_Z   10
loop_
 _symmetry_equiv_pos_site_id
 _symmetry_equiv_pos_as_xyz
  1  'x, y, z'
loop_
 _atom_site_type_symbol
 _atom_site_label
 _atom_site_symmetry_multiplicity
 _atom_site_fract_x
 _atom_site_fract_y
 _atom_site_fract_z
 _atom_site_occupancy
  Si  Si0  1  0.62186700  0.85713900  0.89540300  1
  Si  Si1  1  0.35548800  0.63720000  0.63306400  1
  Si  Si2  1  0.43093900  0.14481400  0.14232600  1
  Si  Si3  1  0.62749600  0.36036800  0.39720900  1
  Si  Si4  1  0.84346600  0.11170500  0.76199000  1
  Si  Si5  1  0.49244500  0.39103000  0.73393400  1
  Si  Si6  1  0.14986100  0.87911100  0.24009000  1
  Si  Si7  1  0.52370000  0.61516900  0.26037600  1
  Si  Si8  1  0.22788200  0.03222300  0.80419800  1
  Si  Si9  1  0.95455500  0.46341200  0.69131700  1
  Si  Si10  1  0.63260200  0.98459400  0.17284700  1
  Si  Si11  1  0.10460500  0.53250500  0.30403100  1
  Si  Si12  1  0.94358000  0.80423500  0.55294500  1
  Si  Si13  1  0.12205900  0.75887800  0.96160400  1
  Si  Si14  1  0.09883400  0.26084000  0.46415500  1
  Si  Si15  1  0.91612400  0.30387600  0.05210100  1
  Si  Si16  1  0.64507500  0.87939100  0.51633800  1
  Si  Si17  1  0.74156700  0.58173400  0.00284900  1
  Si  Si18  1  0.34007200  0.08211100  0.50260700  1
  Si  Si19  1  0.25155400  0.37269600  0.01723800  1
  H  H0  1  0.89440200  0.88677400  0.83921500  1
  H  H1  1  0.66304400  0.66010300  0.67023200  1
  H  H2  1  0.17202600  0.14597900  0.17042500  1
  H  H3  1  0.32719300  0.38675900  0.33894700  1
  H  H4  1  0.12574000  0.22590000  0.72807100  1
  H  H5  1  0.69504200  0.28980400  0.75744000  1
  H  H6  1  0.86405400  0.79348500  0.25573700  1
  H  H7  1  0.31223500  0.72476000  0.22848700  1
  H  H8  1  0.83677600  0.53704700  0.51503000  1
  H  H9  1  0.71402600  0.03948000  0.01175500  1
  H  H10  1  0.31304700  0.71878600  0.78629400  1
  H  H11  1  0.69207200  0.21293600  0.29278200  1
  H  H12  1  0.68376200  0.12454800  0.56774500  1
  H  H13  1  0.49104400  0.34813700  0.92622800  1
  H  H14  1  0.29972400  0.85081000  0.43545600  1
  H  H15  1  0.50142700  0.62082700  0.06634500  1
  H  H16  1  0.24865000  0.97156100  0.63344800  1
  H  H17  1  0.14201200  0.52094200  0.87012600  1
  H  H18  1  0.74386000  0.02186800  0.36600000  1
  H  H19  1  0.85539700  0.46921600  0.13349500  1
  O  O0  1  0.78715300  0.91935200  0.81833500  1
  O  O1  1  0.55059200  0.58578300  0.69095900  1
  O  O2  1  0.23714400  0.07616600  0.18947200  1
  O  O3  1  0.44722900  0.42040800  0.31766700  1
  O  O4  1  0.06137800  0.12634100  0.75832300  1
  O  O5  1  0.69083300  0.38789200  0.72902300  1
  O  O6  1  0.94642500  0.87572000  0.22203600  1
  O  O7  1  0.31342500  0.62390400  0.25642100  1
  O  O8  1  0.08616300  0.89554700  0.86978900  1
  O  O9  1  0.90930200  0.60227000  0.59367500  1
  O  O10  1  0.77258500  0.10785600  0.08778700  1
  O  O11  1  0.17821000  0.39677900  0.37129600  1
  O  O12  1  0.78002800  0.79710700  0.60688400  1
  O  O13  1  0.90219800  0.65637900  0.94062000  1
  O  O14  1  0.18953300  0.15280200  0.43914300  1
  O  O15  1  0.12198600  0.28836000  0.10629700  1
  O  O16  1  0.64547200  0.70879600  0.97045300  1
  O  O17  1  0.44577400  0.77078500  0.54504900  1
  O  O18  1  0.37747300  0.26626000  0.04696100  1
  O  O19  1  0.53021100  0.21164600  0.47164600  1
  O  O20  1  0.42951500  0.75899100  0.76803000  1
  O  O21  1  0.59856200  0.25945300  0.27050600  1
  O  O22  1  0.72391000  0.04785400  0.61405800  1
  O  O23  1  0.56341900  0.43449500  0.88736700  1
  O  O24  1  0.26765000  0.93327000  0.39273700  1
  O  O25  1  0.43134600  0.54333800  0.11224400  1
  O  O26  1  0.14602000  0.91538000  0.67538000  1
  O  O27  1  0.09761400  0.58595000  0.80875700  1
  O  O28  1  0.77463400  0.09169100  0.30096000  1
  O  O29  1  0.94366200  0.41365600  0.17548000  1
loop_
_geom_bond_atom_site_label_1
_geom_bond_atom_site_label_2
_geom_bond_distance
_geom_bond_site_symmetry_2
H0 O0 1.043834 1_555
H0 O8 1.524201 1_655
H1 O1 1.020137 1_555
H1 O12 1.591939 1_555
H2 O2 1.017162 1_555
H2 O15 1.662884 1_555
H3 O3 1.055514 1_555
H3 O11 1.511169 1_555
H4 O4 0.987578 1_555
H5 O5 0.989707 1_555
H6 O6 0.973241 1_555
H7 O7 1.005175 1_555
H8 O9 1.059983 1_555
H9 O10 1.054962 1_555
H10 O20 1.000147 1_555
H11 O21 1.031213 1_555
H11 O28 1.600287 1_555
H12 O22 0.997223 1_555
H13 O23 0.990331 1_555
H14 O24 0.997024 1_555
H15 O25 0.997336 1_555
H16 O26 1.084480 1_555
H16 Si18 2.034812 1_565
H17 O27 1.011719 1_555
H18 O28 1.021883 1_555
H19 O29 1.076980 1_555
O0 Si0 1.829864 1_555
O0 Si4 1.833674 1_565
O1 Si5 1.801619 1_555
O1 Si1 1.843761 1_555
O2 Si2 1.780900 1_555
O2 Si6 1.849485 1_545
O3 Si3 1.822090 1_555
O3 Si7 1.856826 1_555
O4 Si4 1.832076 1_455
O4 Si8 1.916980 1_555
O5 Si5 1.741124 1_555
O5 Si9 2.256972 1_555
O6 Si6 1.670922 1_655
O7 Si7 1.830378 1_555
O7 Si11 1.890846 1_555
O8 Si13 1.709810 1_555
O8 Si8 1.711518 1_565
O9 Si9 1.787812 1_555
O9 Si12 1.889368 1_555
O10 Si10 1.821450 1_545
O10 Si15 1.865457 1_555
O11 Si14 1.714241 1_555
O11 Si11 1.717621 1_555
O12 Si16 1.718329 1_555
O12 Si12 1.726784 1_555
O13 Si13 1.646297 1_655
O13 Si17 1.660510 1_556
O14 Si18 1.648524 1_555
O14 Si14 1.664184 1_555
O15 Si19 1.723810 1_555
O15 Si15 1.731340 1_455
O16 Si0 1.674345 1_555
O16 Si17 1.709107 1_556
O17 Si1 1.689500 1_555
O17 Si16 1.711698 1_555
O18 Si2 1.667479 1_555
O18 Si19 1.731070 1_555
O19 Si3 1.675842 1_555
O19 Si18 1.711022 1_555
O20 Si0 1.821236 1_555
O20 Si1 1.919487 1_555
O21 Si2 1.811578 1_555
O21 Si3 1.837205 1_555
O22 Si4 1.794302 1_555
O22 Si16 1.882912 1_545
O23 Si5 1.826621 1_555
O23 Si17 1.871616 1_556
O24 Si6 1.826212 1_555
O24 Si18 1.852885 1_565
O25 Si7 1.818310 1_555
O25 Si19 1.869963 1_555
O26 Si8 1.814741 1_565
O26 Si12 1.850600 1_455
O27 Si9 1.717015 1_455
O28 Si10 1.744125 1_545
O29 Si11 1.819014 1_655
O29 Si15 1.857989 1_555
