# generated using pymatgen
data_Ca3(HO3)2
_symmetry_space_group_name_H-M   'P 1'
_cell_length_a   6.07581946
_cell_length_b   6.07581946
_cell_length_c   6.10553941
_cell_angle_alpha   69.08314581
_cell_angle_beta   69.08314581
_cell_angle_gamma   41.81341201
_symmetry_Int_Tables_number   1
_chemical_formula_structural   Ca3(HO3)2
_chemical_formula_sum   'Ca3 H2 O6'
_cell_volume   138.86192366
_cell_formula_units_Z   1
loop_
 _symmetry_equiv_pos_site_id
 _symmetry_equiv_pos_as_xyz
  1  'x, y, z'
loop_
 _atom_site_type_symbol
 _atom_site_label
 _atom_site_symmetry_multiplicity
 _atom_site_fract_x
 _atom_site_fract_y
 _atom_site_fract_z
 _atom_site_occupancy
  Ca  Ca0  1  0.00000000  0.00000000  0.00000000  1
  Ca  Ca1  1  0.68794800  0.68794800  0.28476800  1
  Ca  Ca2  1  0.31205200  0.31205200  0.71523200  1
  H  H0  1  0.17879500  0.17879500  0.43750300  1
  H  H1  1  0.82120500  0.82120500  0.56249700  1
  O  O0  1  0.61606900  0.61606900  0.98196900  1
  O  O1  1  0.12599300  0.12599300  0.61068200  1
  O  O2  1  0.87400700  0.87400700  0.38931800  1
  O  O3  1  0.75963300  0.75963300  0.85691000  1
  O  O4  1  0.38393100  0.38393100  0.01803100  1
  O  O5  1  0.24036700  0.24036700  0.14309000  1
loop_
_geom_bond_atom_site_label_1
_geom_bond_atom_site_label_2
_geom_bond_distance
_geom_bond_site_symmetry_2
Ca0 O2 2.257686 1_445
Ca0 O1 2.257686 1_554
Ca0 O4 2.517553 1_545
Ca0 O4 2.517553 1_455
Ca0 O0 2.517553 1_544
Ca0 O0 2.517553 1_454
Ca1 O0 2.288371 1_554
Ca1 O5 2.325884 1_655
Ca1 O5 2.325884 1_565
Ca1 H0 2.346738 1_655
Ca1 H0 2.346738 1_565
Ca1 O3 2.421054 1_554
Ca1 O2 2.428745 1_555
Ca2 O4 2.288371 1_556
Ca2 O3 2.325884 1_545
Ca2 O3 2.325884 1_455
Ca2 H1 2.346738 1_455
Ca2 H1 2.346738 1_545
Ca2 O5 2.421054 1_556
Ca2 O1 2.428745 1_555
H0 O1 0.996414 1_555
H0 O5 1.661142 1_555
H1 O2 0.996414 1_555
H1 O3 1.661142 1_555
O0 O3 1.512535 1_555
O4 O5 1.512535 1_555
