# generated using pymatgen
data_Mn3Fe2(SiO4)3
_symmetry_space_group_name_H-M   'P 1'
_cell_length_a   10.36266426
_cell_length_b   10.36266426
_cell_length_c   10.36266426
_cell_angle_alpha   109.47122063
_cell_angle_beta   109.47122063
_cell_angle_gamma   109.47122063
_symmetry_Int_Tables_number   1
_chemical_formula_structural   Mn3Fe2(SiO4)3
_chemical_formula_sum   'Mn12 Fe8 Si12 O48'
_cell_volume   856.62824950
_cell_formula_units_Z   4
loop_
 _symmetry_equiv_pos_site_id
 _symmetry_equiv_pos_as_xyz
  1  'x, y, z'
loop_
 _atom_site_type_symbol
 _atom_site_label
 _atom_site_symmetry_multiplicity
 _atom_site_fract_x
 _atom_site_fract_y
 _atom_site_fract_z
 _atom_site_occupancy
  Mn  Mn0  1  0.87500000  0.62500000  0.25000000  1
  Mn  Mn1  1  0.62500000  0.87500000  0.75000000  1
  Mn  Mn2  1  0.25000000  0.87500000  0.62500000  1
  Mn  Mn3  1  0.75000000  0.62500000  0.87500000  1
  Mn  Mn4  1  0.62500000  0.25000000  0.87500000  1
  Mn  Mn5  1  0.12500000  0.25000000  0.37500000  1
  Mn  Mn6  1  0.12500000  0.37500000  0.75000000  1
  Mn  Mn7  1  0.37500000  0.12500000  0.25000000  1
  Mn  Mn8  1  0.75000000  0.12500000  0.37500000  1
  Mn  Mn9  1  0.25000000  0.37500000  0.12500000  1
  Mn  Mn10  1  0.87500000  0.75000000  0.62500000  1
  Mn  Mn11  1  0.37500000  0.75000000  0.12500000  1
  Fe  Fe0  1  0.50000000  0.00000000  0.50000000  1
  Fe  Fe1  1  0.00000000  0.50000000  0.00000000  1
  Fe  Fe2  1  0.50000000  0.50000000  0.50000000  1
  Fe  Fe3  1  0.00000000  0.00000000  0.00000000  1
  Fe  Fe4  1  0.00000000  0.50000000  0.50000000  1
  Fe  Fe5  1  0.50000000  0.50000000  0.00000000  1
  Fe  Fe6  1  0.50000000  0.00000000  0.00000000  1
  Fe  Fe7  1  0.00000000  0.00000000  0.50000000  1
  Si  Si0  1  0.12500000  0.75000000  0.87500000  1
  Si  Si1  1  0.25000000  0.62500000  0.37500000  1
  Si  Si2  1  0.62500000  0.75000000  0.37500000  1
  Si  Si3  1  0.87500000  0.12500000  0.75000000  1
  Si  Si4  1  0.37500000  0.25000000  0.62500000  1
  Si  Si5  1  0.37500000  0.62500000  0.75000000  1
  Si  Si6  1  0.62500000  0.37500000  0.25000000  1
  Si  Si7  1  0.25000000  0.12500000  0.87500000  1
  Si  Si8  1  0.12500000  0.87500000  0.25000000  1
  Si  Si9  1  0.75000000  0.37500000  0.62500000  1
  Si  Si10  1  0.87500000  0.25000000  0.12500000  1
  Si  Si11  1  0.75000000  0.87500000  0.12500000  1
  O  O0  1  0.87936800  0.39476200  0.08785900  1
  O  O1  1  0.79150900  0.87936800  0.98460600  1
  O  O2  1  0.39476200  0.80690300  0.51539400  1
  O  O3  1  0.69309700  0.08785900  0.70849100  1
  O  O4  1  0.80690300  0.51539400  0.39476200  1
  O  O5  1  0.98460600  0.79150900  0.87936800  1
  O  O6  1  0.08785900  0.70849100  0.69309700  1
  O  O7  1  0.98460600  0.69309700  0.10523800  1
  O  O8  1  0.79150900  0.41214100  0.80690300  1
  O  O9  1  0.41214100  0.80690300  0.79150900  1
  O  O10  1  0.70849100  0.51539400  0.62063200  1
  O  O11  1  0.08785900  0.87936800  0.39476200  1
  O  O12  1  0.39476200  0.08785900  0.87936800  1
  O  O13  1  0.10523800  0.98460600  0.69309700  1
  O  O14  1  0.51539400  0.62063200  0.70849100  1
  O  O15  1  0.80690300  0.79150900  0.41214100  1
  O  O16  1  0.10523800  0.62063200  0.41214100  1
  O  O17  1  0.62063200  0.70849100  0.51539400  1
  O  O18  1  0.87936800  0.98460600  0.79150900  1
  O  O19  1  0.69309700  0.10523800  0.98460600  1
  O  O20  1  0.58785900  0.89476200  0.37936800  1
  O  O21  1  0.70849100  0.69309700  0.08785900  1
  O  O22  1  0.62063200  0.41214100  0.10523800  1
  O  O23  1  0.41214100  0.10523800  0.62063200  1
  O  O24  1  0.12063200  0.60523800  0.91214100  1
  O  O25  1  0.20849100  0.12063200  0.01539400  1
  O  O26  1  0.60523800  0.19309700  0.48460600  1
  O  O27  1  0.30690300  0.91214100  0.29150900  1
  O  O28  1  0.19309700  0.48460600  0.60523800  1
  O  O29  1  0.01539400  0.20849100  0.12063200  1
  O  O30  1  0.91214100  0.29150900  0.30690300  1
  O  O31  1  0.01539400  0.30690300  0.89476200  1
  O  O32  1  0.20849100  0.58785900  0.19309700  1
  O  O33  1  0.58785900  0.19309700  0.20849100  1
  O  O34  1  0.29150900  0.48460600  0.37936800  1
  O  O35  1  0.91214100  0.12063200  0.60523800  1
  O  O36  1  0.60523800  0.91214100  0.12063200  1
  O  O37  1  0.89476200  0.01539400  0.30690300  1
  O  O38  1  0.48460600  0.37936800  0.29150900  1
  O  O39  1  0.19309700  0.20849100  0.58785900  1
  O  O40  1  0.89476200  0.37936800  0.58785900  1
  O  O41  1  0.37936800  0.29150900  0.48460600  1
  O  O42  1  0.12063200  0.01539400  0.20849100  1
  O  O43  1  0.30690300  0.89476200  0.01539400  1
  O  O44  1  0.48460600  0.60523800  0.19309700  1
  O  O45  1  0.29150900  0.30690300  0.91214100  1
  O  O46  1  0.37936800  0.58785900  0.89476200  1
  O  O47  1  0.51539400  0.39476200  0.80690300  1
loop_
_geom_bond_atom_site_label_1
_geom_bond_atom_site_label_2
_geom_bond_distance
_geom_bond_site_symmetry_2
Mn0 O11 2.312072 1_655
Mn0 O7 2.312072 1_555
Mn0 O22 2.312072 1_555
Mn0 O4 2.312072 1_555
Mn0 O0 2.442900 1_555
Mn0 O16 2.442900 1_655
Mn0 O21 2.442900 1_555
Mn0 O15 2.442900 1_555
Mn1 O3 2.312072 1_565
Mn1 O18 2.312072 1_555
Mn1 O14 2.312072 1_555
Mn1 O9 2.312072 1_555
Mn1 O2 2.442900 1_555
Mn1 O19 2.442900 1_565
Mn1 O17 2.442900 1_555
Mn1 O1 2.442900 1_555
Mn2 O12 2.312072 1_565
Mn2 O13 2.312072 1_555
Mn2 O16 2.312072 1_555
Mn2 O2 2.312072 1_555
Mn2 O11 2.442900 1_555
Mn2 O23 2.442900 1_565
Mn2 O6 2.442900 1_555
Mn2 O9 2.442900 1_555
Mn3 O1 2.312072 1_555
Mn3 O21 2.312072 1_556
Mn3 O10 2.312072 1_555
Mn3 O8 2.312072 1_555
Mn3 O47 2.442900 1_555
Mn3 O7 2.442900 1_556
Mn3 O14 2.442900 1_555
Mn3 O5 2.442900 1_555
Mn4 O0 2.312072 1_556
Mn4 O19 2.312072 1_555
Mn4 O23 2.312072 1_555
Mn4 O47 2.312072 1_555
Mn4 O12 2.442900 1_555
Mn4 O22 2.442900 1_556
Mn4 O3 2.442900 1_555
Mn4 O8 2.442900 1_555
Mn5 O30 2.312072 1_455
Mn5 O41 2.312072 1_555
Mn5 O29 2.312072 1_555
Mn5 O39 2.312072 1_555
Mn5 O28 2.442900 1_555
Mn5 O34 2.442900 1_555
Mn5 O42 2.442900 1_555
Mn5 O37 2.442900 1_455
Mn6 O31 2.312072 1_555
Mn6 O46 2.312072 1_555
Mn6 O35 2.312072 1_455
Mn6 O28 2.312072 1_555
Mn6 O45 2.442900 1_555
Mn6 O24 2.442900 1_555
Mn6 O40 2.442900 1_455
Mn6 O39 2.442900 1_555
Mn7 O27 2.312072 1_545
Mn7 O38 2.312072 1_555
Mn7 O42 2.312072 1_555
Mn7 O33 2.312072 1_555
Mn7 O26 2.442900 1_555
Mn7 O41 2.442900 1_555
Mn7 O25 2.442900 1_555
Mn7 O43 2.442900 1_545
Mn8 O37 2.312072 1_555
Mn8 O40 2.312072 1_555
Mn8 O36 2.312072 1_545
Mn8 O26 2.312072 1_555
Mn8 O30 2.442900 1_555
Mn8 O35 2.442900 1_555
Mn8 O20 2.442900 1_545
Mn8 O33 2.442900 1_555
Mn9 O45 2.312072 1_554
Mn9 O34 2.312072 1_555
Mn9 O25 2.312072 1_555
Mn9 O32 2.312072 1_555
Mn9 O44 2.442900 1_555
Mn9 O38 2.442900 1_555
Mn9 O29 2.442900 1_555
Mn9 O31 2.442900 1_554
Mn10 O6 2.312072 1_655
Mn10 O5 2.312072 1_555
Mn10 O17 2.312072 1_555
Mn10 O15 2.312072 1_555
Mn10 O4 2.442900 1_555
Mn10 O13 2.442900 1_655
Mn10 O10 2.442900 1_555
Mn10 O18 2.442900 1_555
Mn11 O43 2.312072 1_555
Mn11 O20 2.312072 1_555
Mn11 O24 2.312072 1_554
Mn11 O44 2.312072 1_555
Mn11 O27 2.442900 1_555
Mn11 O36 2.442900 1_555
Mn11 O46 2.442900 1_554
Mn11 O32 2.442900 1_555
Fe0 O26 2.023050 1_555
Fe0 O23 2.023050 1_555
Fe0 O20 2.023050 1_545
Fe0 O3 2.023050 1_555
Fe0 O27 2.023050 1_545
Fe0 O2 2.023050 1_545
Fe1 O24 2.023050 1_554
Fe1 O32 2.023050 1_555
Fe1 O0 2.023050 1_455
Fe1 O7 2.023050 1_455
Fe1 O31 2.023050 1_554
Fe1 O8 2.023050 1_454
Fe2 O14 2.023050 1_555
Fe2 O10 2.023050 1_555
Fe2 O17 2.023050 1_555
Fe2 O38 2.023050 1_555
Fe2 O41 2.023050 1_555
Fe2 O34 2.023050 1_555
Fe3 O25 2.023050 1_555
Fe3 O42 2.023050 1_555
Fe3 O29 2.023050 1_555
Fe3 O18 2.023050 1_444
Fe3 O5 2.023050 1_444
Fe3 O1 2.023050 1_444
Fe4 O28 2.023050 1_555
Fe4 O16 2.023050 1_555
Fe4 O40 2.023050 1_455
Fe4 O6 2.023050 1_555
Fe4 O30 2.023050 1_455
Fe4 O4 2.023050 1_455
Fe5 O44 2.023050 1_555
Fe5 O22 2.023050 1_555
Fe5 O46 2.023050 1_554
Fe5 O21 2.023050 1_555
Fe5 O45 2.023050 1_554
Fe5 O47 2.023050 1_554
Fe6 O36 2.023050 1_545
Fe6 O33 2.023050 1_555
Fe6 O12 2.023050 1_554
Fe6 O19 2.023050 1_554
Fe6 O43 2.023050 1_545
Fe6 O9 2.023050 1_544
Fe7 O35 2.023050 1_455
Fe7 O39 2.023050 1_555
Fe7 O11 2.023050 1_545
Fe7 O13 2.023050 1_545
Fe7 O37 2.023050 1_455
Fe7 O15 2.023050 1_445
O0 Si10 1.658854 1_555
O1 Si11 1.658854 1_556
O2 Si1 1.658854 1_555
O3 Si3 1.658854 1_555
O4 Si6 1.658854 1_555
O5 Si0 1.658854 1_655
O6 Si0 1.658854 1_555
O7 Si8 1.658854 1_655
O8 Si9 1.658854 1_555
O9 Si5 1.658854 1_555
O10 Si9 1.658854 1_555
O11 Si8 1.658854 1_555
O12 Si7 1.658854 1_555
O13 Si7 1.658854 1_565
O14 Si5 1.658854 1_555
O15 Si2 1.658854 1_555
O16 Si1 1.658854 1_555
O17 Si2 1.658854 1_555
O18 Si3 1.658854 1_565
O19 Si10 1.658854 1_556
O20 Si2 1.658854 1_555
O21 Si11 1.658854 1_555
O22 Si6 1.658854 1_555
O23 Si4 1.658854 1_555
O24 Si0 1.658854 1_555
O25 Si7 1.658854 1_554
O26 Si9 1.658854 1_555
O27 Si8 1.658854 1_555
O28 Si5 1.658854 1_555
O29 Si10 1.658854 1_455
O30 Si10 1.658854 1_555
O31 Si3 1.658854 1_455
O32 Si1 1.658854 1_555
O33 Si6 1.658854 1_555
O34 Si1 1.658854 1_555
O35 Si3 1.658854 1_555
O36 Si11 1.658854 1_555
O37 Si11 1.658854 1_545
O38 Si6 1.658854 1_555
O39 Si4 1.658854 1_555
O40 Si9 1.658854 1_555
O41 Si4 1.658854 1_555
O42 Si8 1.658854 1_545
O43 Si0 1.658854 1_554
O44 Si2 1.658854 1_555
O45 Si7 1.658854 1_555
O46 Si5 1.658854 1_555
O47 Si4 1.658854 1_555
