# generated using pymatgen
data_Pr5(Mo3Se4)12
_symmetry_space_group_name_H-M   'P 1'
_cell_length_a   6.82940018
_cell_length_b   81.85798103
_cell_length_c   9.75412810
_cell_angle_alpha   44.34774317
_cell_angle_beta   88.25790910
_cell_angle_gamma   88.72178530
_symmetry_Int_Tables_number   1
_chemical_formula_structural   Pr5(Mo3Se4)12
_chemical_formula_sum   'Pr10 Mo72 Se96'
_cell_volume   3809.91590486
_cell_formula_units_Z   2
loop_
 _symmetry_equiv_pos_site_id
 _symmetry_equiv_pos_as_xyz
  1  'x, y, z'
loop_
 _atom_site_type_symbol
 _atom_site_label
 _atom_site_symmetry_multiplicity
 _atom_site_fract_x
 _atom_site_fract_y
 _atom_site_fract_z
 _atom_site_occupancy
  Pr  Pr0  1  0.99986232  0.24983927  0.00120211  1
  Pr  Pr1  1  0.00005917  0.41668250  0.99989775  1
  Pr  Pr2  1  0.00000510  0.50000440  0.99996792  1
  Pr  Pr3  1  -0.00000327  0.58333270  -0.00000172  1
  Pr  Pr4  1  0.99995462  0.74999255  0.00005266  1
  Pr  Pr5  1  0.00025263  0.83335943  0.99979885  1
  Pr  Pr6  1  0.00011907  0.91682247  0.99883096  1
  Pr  Pr7  1  0.00000495  0.08333399  -0.00000835  1
  Pr  Pr8  1  0.99974808  0.33330892  0.00019207  1
  Pr  Pr9  1  -0.00000877  0.66666004  0.00004898  1
  Mo  Mo0  1  0.23417385  0.07197708  0.56035081  1
  Mo  Mo1  1  0.23591237  0.15531930  0.55819704  1
  Mo  Mo2  1  0.23481239  0.23835476  0.56092001  1
  Mo  Mo3  1  0.23551097  0.32178853  0.56087194  1
  Mo  Mo4  1  0.23589386  0.40518229  0.56079092  1
  Mo  Mo5  1  0.23560444  0.48849790  0.56084375  1
  Mo  Mo6  1  0.23564729  0.57183697  0.56081135  1
  Mo  Mo7  1  0.23590155  0.65517442  0.56078506  1
  Mo  Mo8  1  0.42404307  0.02676480  0.23512273  1
  Mo  Mo9  1  0.23609682  0.73850066  0.56088302  1
  Mo  Mo10  1  0.42244984  0.11046626  0.23670570  1
  Mo  Mo11  1  0.23525636  0.82180569  0.56095947  1
  Mo  Mo12  1  0.44341898  0.01547962  0.57834391  1
  Mo  Mo13  1  0.42429384  0.19343884  0.23474606  1
  Mo  Mo14  1  0.23502960  0.90538517  0.56054940  1
  Mo  Mo15  1  0.43829161  0.09916465  0.57486578  1
  Mo  Mo16  1  0.42342623  0.27702051  0.23638159  1
  Mo  Mo17  1  0.23597510  0.98870105  0.55809264  1
  Mo  Mo18  1  0.44328567  0.18211337  0.57892489  1
  Mo  Mo19  1  0.42308528  0.36037733  0.23623874  1
  Mo  Mo20  1  0.43980294  0.26560581  0.57728010  1
  Mo  Mo21  1  0.42306337  0.44373858  0.23610048  1
  Mo  Mo22  1  0.43950557  0.34887753  0.57687174  1
  Mo  Mo23  1  0.42302455  0.52709150  0.23592648  1
  Mo  Mo24  1  0.43917685  0.43225917  0.57717029  1
  Mo  Mo25  1  0.42301806  0.61039895  0.23608445  1
  Mo  Mo26  1  0.43923176  0.51561407  0.57702600  1
  Mo  Mo27  1  0.56167168  0.06750407  0.42508108  1
  Mo  Mo28  1  0.42305559  0.69370894  0.23635249  1
  Mo  Mo29  1  0.43935460  0.59893070  0.57703042  1
  Mo  Mo30  1  0.55651075  0.15116704  0.42168202  1
  Mo  Mo31  1  0.57753093  0.05619785  0.76336242  1
  Mo  Mo32  1  0.42292482  0.77706042  0.23631434  1
  Mo  Mo33  1  0.43928996  0.68224947  0.57709180  1
  Mo  Mo34  1  0.56261379  0.23421243  0.42523719  1
  Mo  Mo35  1  0.57588701  0.13988892  0.76501788  1
  Mo  Mo36  1  0.42305051  0.86042094  0.23598081  1
  Mo  Mo37  1  0.43926690  0.76558816  0.57710764  1
  Mo  Mo38  1  0.56060680  0.31777381  0.42329242  1
  Mo  Mo39  1  0.57800010  0.22282123  0.76341628  1
  Mo  Mo40  1  0.42200867  0.94384825  0.23653662  1
  Mo  Mo41  1  0.43929163  0.84890751  0.57675225  1
  Mo  Mo42  1  0.56066936  0.40105570  0.42292593  1
  Mo  Mo43  1  0.57690752  0.30626907  0.76376762  1
  Mo  Mo44  1  0.43741234  0.93245217  0.57476609  1
  Mo  Mo45  1  0.56076901  0.48439725  0.42292602  1
  Mo  Mo46  1  0.57707013  0.38959200  0.76388326  1
  Mo  Mo47  1  0.56078210  0.56774012  0.42295885  1
  Mo  Mo48  1  0.57696565  0.47292995  0.76395610  1
  Mo  Mo49  1  0.56079611  0.65107833  0.42295171  1
  Mo  Mo50  1  0.57699694  0.55625624  0.76395129  1
  Mo  Mo51  1  0.56072712  0.73441281  0.42289628  1
  Mo  Mo52  1  0.57699332  0.63960008  0.76377050  1
  Mo  Mo53  1  0.56044070  0.81776800  0.42313845  1
  Mo  Mo54  1  0.76401946  0.01134690  0.44183964  1
  Mo  Mo55  1  0.57693255  0.72295013  0.76367858  1
  Mo  Mo56  1  0.56022215  0.90106313  0.42269116  1
  Mo  Mo57  1  0.76584445  0.09469772  0.43961390  1
  Mo  Mo58  1  0.57690009  0.80627318  0.76395416  1
  Mo  Mo59  1  0.55667669  0.98455763  0.42114814  1
  Mo  Mo60  1  0.76421040  0.17795775  0.44198564  1
  Mo  Mo61  1  0.57651636  0.88964095  0.76366957  1
  Mo  Mo62  1  0.76492567  0.26128932  0.43937751  1
  Mo  Mo63  1  0.57566442  0.97324013  0.76506154  1
  Mo  Mo64  1  0.76450448  0.34484598  0.43913366  1
  Mo  Mo65  1  0.76413124  0.42816296  0.43916182  1
  Mo  Mo66  1  0.76445777  0.51150207  0.43916903  1
  Mo  Mo67  1  0.76428200  0.59483666  0.43912400  1
  Mo  Mo68  1  0.76400718  0.67815874  0.43921366  1
  Mo  Mo69  1  0.76395617  0.76147416  0.43927334  1
  Mo  Mo70  1  0.76484324  0.84488217  0.43912293  1
  Mo  Mo71  1  0.76519799  0.92832116  0.43904336  1
  Se  Se0  1  0.12210864  0.03136347  0.37891461  1
  Se  Se1  1  0.12304541  0.11453770  0.37666733  1
  Se  Se2  1  0.12222347  0.19801470  0.37907450  1
  Se  Se3  1  0.12244545  0.28150872  0.37692804  1
  Se  Se4  1  0.12175058  0.36480906  0.37611424  1
  Se  Se5  1  0.12176767  0.44815652  0.37636753  1
  Se  Se6  1  0.23746137  0.00006973  0.23742546  1
  Se  Se7  1  0.12158689  0.53150348  0.37623170  1
  Se  Se8  1  0.24218905  0.08318281  0.24268543  1
  Se  Se9  1  0.12160459  0.61482713  0.37625032  1
  Se  Se10  1  0.23704210  0.16677551  0.23730634  1
  Se  Se11  1  0.24361806  0.06196798  0.87814882  1
  Se  Se12  1  0.12164074  0.69815487  0.37626208  1
  Se  Se13  1  0.24205905  0.24990400  0.24233613  1
  Se  Se14  1  0.24988630  0.14548244  0.87651964  1
  Se  Se15  1  0.12175140  0.78148470  0.37641886  1
  Se  Se16  1  0.24114894  0.33333688  0.24210130  1
  Se  Se17  1  0.24360395  0.22873908  0.87717868  1
  Se  Se18  1  0.12161180  0.86482539  0.37610537  1
  Se  Se19  1  0.24174341  0.41665186  0.24176776  1
  Se  Se20  1  0.24542020  0.31205736  0.87823255  1
  Se  Se21  1  0.12249241  0.94787750  0.37580371  1
  Se  Se22  1  0.24164963  0.49999565  0.24175770  1
  Se  Se23  1  0.24589002  0.39546209  0.87819817  1
  Se  Se24  1  0.24164431  0.58332081  0.24184810  1
  Se  Se25  1  0.24577933  0.47878075  0.87823782  1
  Se  Se26  1  0.37779843  0.03100279  0.75053565  1
  Se  Se27  1  0.24171235  0.66664511  0.24186561  1
  Se  Se28  1  0.24586922  0.56211010  0.87830797  1
  Se  Se29  1  0.37696554  0.11390843  0.75568996  1
  Se  Se30  1  0.24179861  0.74997300  0.24180456  1
  Se  Se31  1  0.24592062  0.64543972  0.87829596  1
  Se  Se32  1  0.37689106  0.19768938  0.75075657  1
  Se  Se33  1  0.24138363  0.83329033  0.24213427  1
  Se  Se34  1  0.24589199  0.72878520  0.87826201  1
  Se  Se35  1  0.37623259  0.28054983  0.75513901  1
  Se  Se36  1  0.24191483  0.91657183  0.24238552  1
  Se  Se37  1  0.24571993  0.81205817  0.87823991  1
  Se  Se38  1  0.37627460  0.36392010  0.75429827  1
  Se  Se39  1  0.24549818  0.89538331  0.87885895  1
  Se  Se40  1  0.37624200  0.44726412  0.75440137  1
  Se  Se41  1  0.25023317  0.97882893  0.87649685  1
  Se  Se42  1  0.37618815  0.53059370  0.75444062  1
  Se  Se43  1  0.37624238  0.61393245  0.75432752  1
  Se  Se44  1  0.37622648  0.69727690  0.75428323  1
  Se  Se45  1  0.37613802  0.78059252  0.75450732  1
  Se  Se46  1  0.37697637  0.86388419  0.75440847  1
  Se  Se47  1  0.37689584  0.94728670  0.75533550  1
  Se  Se48  1  0.62304719  0.05275491  0.24432335  1
  Se  Se49  1  0.62217977  0.13566092  0.24945917  1
  Se  Se50  1  0.62310958  0.21939110  0.24460245  1
  Se  Se51  1  0.62306854  0.30278456  0.24564237  1
  Se  Se52  1  0.62377337  0.38606462  0.24553418  1
  Se  Se53  1  0.62371384  0.46940524  0.24556349  1
  Se  Se54  1  0.75009623  0.02118032  0.12350354  1
  Se  Se55  1  0.62376308  0.55274501  0.24558908  1
  Se  Se56  1  0.75640269  0.10470103  0.12185336  1
  Se  Se57  1  0.62388555  0.63607283  0.24561448  1
  Se  Se58  1  0.74980068  0.18784596  0.12343301  1
  Se  Se59  1  0.75780585  0.08348563  0.75730746  1
  Se  Se60  1  0.62382014  0.71939200  0.24571587  1
  Se  Se61  1  0.75447800  0.27128665  0.12107237  1
  Se  Se62  1  0.76256329  0.16659855  0.76260815  1
  Se  Se63  1  0.62372683  0.80274092  0.24570555  1
  Se  Se64  1  0.75425141  0.35460157  0.12181945  1
  Se  Se65  1  0.75808989  0.25009519  0.75766157  1
  Se  Se66  1  0.62378438  0.88613173  0.24476741  1
  Se  Se67  1  0.75420806  0.43788940  0.12171139  1
  Se  Se68  1  0.75855982  0.33336992  0.75782382  1
  Se  Se69  1  0.62310628  0.96897951  0.24924511  1
  Se  Se70  1  0.75416586  0.52123719  0.12166326  1
  Se  Se71  1  0.75822838  0.41668983  0.75817527  1
  Se  Se72  1  0.75406624  0.60456103  0.12163960  1
  Se  Se73  1  0.75831787  0.50002564  0.75811768  1
  Se  Se74  1  0.87699169  0.05212821  0.62332280  1
  Se  Se75  1  0.75410461  0.68787874  0.12176999  1
  Se  Se76  1  0.75831653  0.58335134  0.75815067  1
  Se  Se77  1  0.87792382  0.13529921  0.62108495  1
  Se  Se78  1  0.75414575  0.77119599  0.12184139  1
  Se  Se79  1  0.75828650  0.66667495  0.75820324  1
  Se  Se80  1  0.87752453  0.21879040  0.62418781  1
  Se  Se81  1  0.75467144  0.85460938  0.12171892  1
  Se  Se82  1  0.75829730  0.75001119  0.75824805  1
  Se  Se83  1  0.87830375  0.30184157  0.62394374  1
  Se  Se84  1  0.75634876  0.93793252  0.12279276  1
  Se  Se85  1  0.75899269  0.83332510  0.75799475  1
  Se  Se86  1  0.87828486  0.38517428  0.62359708  1
  Se  Se87  1  0.75790885  0.91676144  0.75766275  1
  Se  Se88  1  0.87842313  0.46851321  0.62363363  1
  Se  Se89  1  0.76291430  0.99988718  0.76270007  1
  Se  Se90  1  0.87836780  0.55184786  0.62366796  1
  Se  Se91  1  0.87832018  0.63517082  0.62380075  1
  Se  Se92  1  0.87821368  0.71851100  0.62370746  1
  Se  Se93  1  0.87833507  0.80184318  0.62394205  1
  Se  Se94  1  0.87754950  0.88515908  0.62305308  1
  Se  Se95  1  0.87777114  0.96865678  0.62093141  1
loop_
_geom_bond_atom_site_label_1
_geom_bond_atom_site_label_2
_geom_bond_distance
_geom_bond_site_symmetry_2
Pr0 Se13 2.919391 1_655
Pr0 Se65 2.921585 1_554
Pr0 Se50 3.149699 1_555
Pr0 Se61 3.153292 1_555
Pr0 Se2 3.153762 1_655
Pr0 Se17 3.155218 1_654
Pr0 Se35 3.157670 1_654
Pr0 Se83 3.158378 1_554
Pr1 Se19 2.918636 1_556
Pr1 Se71 2.919165 1_455
Pr1 Se88 3.149347 1_455
Pr1 Se4 3.151130 1_556
Pr1 Se40 3.152865 1_555
Pr1 Se23 3.153253 1_555
Pr1 Se67 3.153269 1_456
Pr1 Se52 3.154461 1_456
Pr2 Se22 2.918887 1_556
Pr2 Se73 2.918943 1_455
Pr2 Se90 3.149953 1_455
Pr2 Se5 3.150571 1_556
Pr2 Se42 3.153086 1_555
Pr2 Se25 3.153496 1_555
Pr2 Se53 3.154012 1_456
Pr2 Se70 3.154070 1_456
Pr3 Se76 2.919019 1_454
Pr3 Se24 2.919231 1_555
Pr3 Se7 3.149138 1_555
Pr3 Se91 3.149594 1_454
Pr3 Se55 3.153433 1_455
Pr3 Se28 3.153475 1_554
Pr3 Se72 3.153695 1_455
Pr3 Se43 3.153896 1_554
Pr4 Se82 2.918581 1_554
Pr4 Se30 2.918865 1_655
Pr4 Se12 3.149617 1_655
Pr4 Se93 3.149832 1_554
Pr4 Se78 3.152710 1_555
Pr4 Se60 3.153286 1_555
Pr4 Se45 3.153352 1_654
Pr4 Se34 3.153430 1_654
Pr5 Se33 2.918298 1_556
Pr5 Se85 2.919538 1_455
Pr5 Se94 3.151020 1_455
Pr5 Se15 3.151655 1_556
Pr5 Se46 3.154435 1_555
Pr5 Se81 3.155965 1_456
Pr5 Se63 3.156242 1_456
Pr5 Se37 3.156309 1_555
Pr6 Se87 2.919542 1_455
Pr6 Se36 2.922045 1_556
Pr6 Se47 3.150340 1_555
Pr6 Se39 3.153476 1_555
Pr6 Se95 3.154195 1_455
Pr6 Se84 3.155514 1_456
Pr6 Se66 3.156829 1_456
Pr6 Se18 3.158073 1_556
Pr7 Se59 2.921429 1_454
Pr7 Se8 2.921468 1_555
Pr7 Se29 3.155085 1_554
Pr7 Se48 3.155221 1_455
Pr7 Se11 3.156298 1_554
Pr7 Se56 3.156469 1_455
Pr7 Se77 3.161211 1_454
Pr7 Se0 3.161505 1_555
Pr8 Se68 2.919184 1_554
Pr8 Se16 2.920643 1_655
Pr8 Se3 3.151011 1_655
Pr8 Se86 3.151149 1_554
Pr8 Se51 3.154279 1_555
Pr8 Se38 3.156063 1_654
Pr8 Se64 3.156345 1_555
Pr8 Se20 3.156677 1_654
Pr9 Se27 2.919114 1_555
Pr9 Se79 2.919283 1_454
Pr9 Se9 3.149269 1_555
Pr9 Se92 3.150608 1_454
Pr9 Se57 3.152674 1_455
Pr9 Se75 3.153492 1_455
Pr9 Se31 3.153983 1_554
Pr9 Se44 3.154370 1_554
Mo0 Se8 2.524343 1_555
Mo0 Se11 2.581052 1_555
Mo0 Se26 2.591937 1_555
Mo0 Se1 2.638374 1_555
Mo0 Se74 2.761514 1_455
Mo1 Se10 2.545039 1_555
Mo1 Se14 2.595579 1_555
Mo1 Se29 2.599507 1_555
Mo1 Se2 2.664251 1_555
Mo1 Se77 2.772913 1_455
Mo2 Se13 2.518694 1_555
Mo2 Se32 2.569145 1_555
Mo2 Se17 2.583740 1_555
Mo2 Se3 2.680285 1_555
Mo2 Se80 2.751147 1_455
Mo3 Se16 2.520617 1_555
Mo3 Se20 2.589462 1_555
Mo3 Se35 2.593661 1_555
Mo3 Se4 2.671915 1_555
Mo3 Se83 2.765060 1_455
Mo4 Se19 2.526250 1_555
Mo4 Se23 2.590432 1_555
Mo4 Se38 2.595712 1_555
Mo4 Se5 2.670323 1_555
Mo4 Se86 2.770346 1_455
Mo5 Se22 2.525651 1_555
Mo5 Se25 2.590511 1_555
Mo5 Se40 2.594457 1_555
Mo5 Se7 2.671764 1_555
Mo5 Se88 2.766924 1_455
Mo6 Se24 2.525078 1_555
Mo6 Se28 2.591070 1_555
Mo6 Se42 2.594684 1_555
Mo6 Se9 2.670895 1_555
Mo6 Se90 2.767535 1_455
Mo7 Se27 2.525230 1_555
Mo7 Se31 2.590777 1_555
Mo7 Se43 2.594268 1_555
Mo7 Se12 2.670754 1_555
Mo7 Se91 2.769549 1_455
Mo8 Se6 2.540001 1_555
Mo8 Se48 2.605933 1_555
Mo8 Se54 2.621404 1_555
Mo8 Se0 2.627835 1_555
Mo8 Se11 2.774564 1_554
Mo9 Se30 2.526669 1_555
Mo9 Se34 2.590299 1_555
Mo9 Se44 2.592860 1_555
Mo9 Se15 2.671310 1_555
Mo9 Se92 2.771288 1_455
Mo10 Se8 2.537492 1_555
Mo10 Se1 2.570308 1_555
Mo10 Se49 2.575317 1_555
Mo10 Se56 2.689260 1_555
Mo10 Se14 2.765200 1_554
Mo11 Se33 2.523734 1_555
Mo11 Se37 2.588179 1_555
Mo11 Se45 2.593779 1_555
Mo11 Se18 2.671392 1_555
Mo11 Se93 2.764097 1_455
Mo12 Se89 2.540743 1_545
Mo12 Se41 2.581434 1_545
Mo12 Se0 2.608571 1_555
Mo12 Se48 2.671334 1_555
Mo12 Se26 2.760027 1_555
Mo13 Se10 2.538581 1_555
Mo13 Se50 2.606655 1_555
Mo13 Se58 2.617072 1_555
Mo13 Se2 2.630804 1_555
Mo13 Se17 2.779482 1_554
Mo14 Se36 2.529919 1_555
Mo14 Se39 2.586628 1_555
Mo14 Se46 2.614052 1_555
Mo14 Se21 2.633826 1_555
Mo14 Se94 2.778381 1_455
Mo15 Se59 2.533803 1_555
Mo15 Se1 2.570786 1_555
Mo15 Se11 2.617022 1_555
Mo15 Se49 2.634373 1_555
Mo15 Se29 2.778486 1_555
Mo16 Se13 2.529537 1_555
Mo16 Se51 2.592917 1_555
Mo16 Se3 2.599010 1_555
Mo16 Se61 2.673952 1_555
Mo16 Se20 2.771359 1_554
Mo17 Se6 2.546537 1_565
Mo17 Se41 2.594909 1_555
Mo17 Se47 2.599837 1_555
Mo17 Se0 2.662189 1_565
Mo17 Se95 2.775225 1_455
Mo18 Se62 2.537140 1_555
Mo18 Se14 2.580052 1_555
Mo18 Se2 2.608756 1_555
Mo18 Se50 2.673134 1_555
Mo18 Se32 2.761322 1_555
Mo19 Se16 2.526647 1_555
Mo19 Se52 2.591698 1_555
Mo19 Se4 2.594621 1_555
Mo19 Se64 2.671658 1_555
Mo19 Se23 2.768775 1_554
Mo20 Se65 2.519358 1_555
Mo20 Se3 2.589279 1_555
Mo20 Se17 2.603078 1_555
Mo20 Se51 2.671385 1_555
Mo20 Se35 2.767746 1_555
Mo21 Se19 2.528983 1_555
Mo21 Se53 2.591157 1_555
Mo21 Se5 2.596152 1_555
Mo21 Se67 2.674134 1_555
Mo21 Se25 2.767688 1_554
Mo22 Se68 2.525966 1_555
Mo22 Se4 2.593116 1_555
Mo22 Se20 2.598444 1_555
Mo22 Se52 2.673599 1_555
Mo22 Se38 2.770652 1_555
Mo23 Se22 2.528834 1_555
Mo23 Se55 2.591804 1_555
Mo23 Se7 2.596883 1_555
Mo23 Se70 2.673670 1_555
Mo23 Se28 2.765779 1_554
Mo24 Se71 2.526060 1_555
Mo24 Se5 2.591456 1_555
Mo24 Se23 2.594097 1_555
Mo24 Se53 2.674493 1_555
Mo24 Se40 2.765875 1_555
Mo25 Se24 2.527974 1_555
Mo25 Se57 2.592884 1_555
Mo25 Se9 2.596598 1_555
Mo25 Se72 2.673448 1_555
Mo25 Se31 2.766711 1_554
Mo26 Se73 2.526552 1_555
Mo26 Se7 2.592824 1_555
Mo26 Se25 2.596254 1_555
Mo26 Se55 2.673492 1_555
Mo26 Se42 2.765809 1_555
Mo27 Se8 2.533451 1_555
Mo27 Se74 2.571379 1_555
Mo27 Se56 2.617074 1_555
Mo27 Se26 2.634619 1_555
Mo27 Se48 2.778307 1_555
Mo28 Se27 2.528362 1_555
Mo28 Se60 2.592109 1_555
Mo28 Se12 2.595824 1_555
Mo28 Se75 2.673861 1_555
Mo28 Se34 2.768849 1_554
Mo29 Se76 2.525925 1_555
Mo29 Se9 2.593342 1_555
Mo29 Se28 2.596171 1_555
Mo29 Se57 2.673672 1_555
Mo29 Se43 2.766400 1_555
Mo30 Se10 2.540626 1_555
Mo30 Se58 2.582905 1_555
Mo30 Se77 2.609133 1_555
Mo30 Se29 2.670650 1_555
Mo30 Se49 2.759110 1_555
Mo31 Se59 2.537395 1_555
Mo31 Se74 2.570990 1_555
Mo31 Se26 2.575810 1_555
Mo31 Se11 2.688883 1_555
Mo31 Se54 2.764981 1_556
Mo32 Se30 2.529431 1_555
Mo32 Se63 2.592243 1_555
Mo32 Se15 2.594810 1_555
Mo32 Se78 2.675564 1_555
Mo32 Se37 2.768096 1_554
Mo33 Se79 2.526105 1_555
Mo33 Se12 2.592921 1_555
Mo33 Se31 2.595248 1_555
Mo33 Se60 2.673530 1_555
Mo33 Se44 2.767257 1_555
Mo34 Se13 2.541621 1_555
Mo34 Se80 2.571714 1_555
Mo34 Se61 2.606305 1_555
Mo34 Se32 2.641263 1_555
Mo34 Se50 2.781684 1_555
Mo35 Se62 2.540719 1_555
Mo35 Se29 2.605743 1_555
Mo35 Se14 2.620851 1_555
Mo35 Se77 2.628840 1_555
Mo35 Se56 2.773974 1_556
Mo36 Se33 2.530383 1_555
Mo36 Se66 2.590371 1_555
Mo36 Se18 2.595521 1_555
Mo36 Se81 2.674779 1_555
Mo36 Se39 2.763851 1_554
Mo37 Se82 2.526407 1_555
Mo37 Se15 2.591607 1_555
Mo37 Se34 2.594926 1_555
Mo37 Se63 2.673644 1_555
Mo37 Se45 2.767542 1_555
Mo38 Se16 2.529152 1_555
Mo38 Se83 2.592341 1_555
Mo38 Se64 2.597474 1_555
Mo38 Se35 2.676681 1_555
Mo38 Se51 2.768161 1_555
Mo39 Se65 2.537588 1_555
Mo39 Se80 2.565035 1_555
Mo39 Se32 2.575572 1_555
Mo39 Se17 2.691982 1_555
Mo39 Se58 2.761610 1_556
Mo40 Se36 2.537207 1_555
Mo40 Se21 2.565153 1_555
Mo40 Se69 2.575791 1_555
Mo40 Se84 2.691491 1_555
Mo40 Se41 2.761709 1_554
Mo41 Se85 2.530760 1_555
Mo41 Se18 2.592289 1_555
Mo41 Se37 2.597907 1_555
Mo41 Se66 2.677572 1_555
Mo41 Se46 2.767180 1_555
Mo42 Se19 2.525825 1_555
Mo42 Se86 2.592184 1_555
Mo42 Se67 2.596567 1_555
Mo42 Se38 2.672930 1_555
Mo42 Se52 2.766483 1_555
Mo43 Se68 2.529475 1_555
Mo43 Se35 2.589765 1_555
Mo43 Se83 2.594471 1_555
Mo43 Se20 2.674178 1_555
Mo43 Se61 2.765063 1_556
Mo44 Se87 2.541260 1_555
Mo44 Se21 2.571798 1_555
Mo44 Se39 2.606112 1_555
Mo44 Se69 2.641276 1_555
Mo44 Se47 2.782059 1_555
Mo45 Se22 2.527011 1_555
Mo45 Se88 2.592546 1_555
Mo45 Se70 2.596403 1_555
Mo45 Se40 2.673672 1_555
Mo45 Se53 2.766146 1_555
Mo46 Se71 2.528968 1_555
Mo46 Se38 2.592815 1_555
Mo46 Se86 2.595828 1_555
Mo46 Se23 2.674744 1_555
Mo46 Se64 2.767228 1_556
Mo47 Se24 2.526937 1_555
Mo47 Se90 2.592117 1_555
Mo47 Se72 2.595610 1_555
Mo47 Se42 2.674214 1_555
Mo47 Se55 2.766469 1_555
Mo48 Se73 2.528700 1_555
Mo48 Se40 2.591939 1_555
Mo48 Se88 2.597284 1_555
Mo48 Se25 2.673887 1_555
Mo48 Se67 2.766984 1_556
Mo49 Se27 2.526544 1_555
Mo49 Se91 2.592265 1_555
Mo49 Se75 2.594700 1_555
Mo49 Se43 2.673681 1_555
Mo49 Se57 2.767020 1_555
Mo50 Se76 2.528773 1_555
Mo50 Se42 2.591758 1_555
Mo50 Se90 2.596255 1_555
Mo50 Se28 2.674050 1_555
Mo50 Se70 2.766312 1_556
Mo51 Se30 2.525647 1_555
Mo51 Se92 2.591918 1_555
Mo51 Se78 2.594210 1_555
Mo51 Se44 2.673324 1_555
Mo51 Se60 2.766701 1_555
Mo52 Se79 2.528649 1_555
Mo52 Se43 2.591477 1_555
Mo52 Se91 2.595032 1_555
Mo52 Se31 2.674060 1_555
Mo52 Se72 2.767037 1_556
Mo53 Se33 2.526149 1_555
Mo53 Se93 2.594144 1_555
Mo53 Se81 2.599735 1_555
Mo53 Se45 2.673554 1_555
Mo53 Se63 2.769633 1_555
Mo54 Se89 2.544612 1_545
Mo54 Se54 2.595838 1_555
Mo54 Se48 2.599085 1_555
Mo54 Se95 2.664093 1_545
Mo54 Se0 2.773311 1_655
Mo55 Se82 2.528739 1_555
Mo55 Se44 2.591405 1_555
Mo55 Se92 2.595201 1_555
Mo55 Se34 2.674000 1_555
Mo55 Se75 2.768830 1_556
Mo56 Se36 2.519213 1_555
Mo56 Se94 2.589139 1_555
Mo56 Se84 2.602907 1_555
Mo56 Se46 2.671624 1_555
Mo56 Se66 2.767417 1_555
Mo57 Se59 2.524340 1_555
Mo57 Se56 2.580952 1_555
Mo57 Se49 2.591395 1_555
Mo57 Se74 2.638949 1_555
Mo57 Se1 2.761358 1_655
Mo58 Se85 2.527425 1_555
Mo58 Se45 2.592447 1_555
Mo58 Se93 2.595883 1_555
Mo58 Se37 2.671407 1_555
Mo58 Se78 2.768056 1_556
Mo59 Se6 2.536919 1_565
Mo59 Se54 2.580008 1_565
Mo59 Se95 2.608673 1_555
Mo59 Se47 2.672334 1_555
Mo59 Se69 2.762157 1_555
Mo60 Se62 2.546487 1_555
Mo60 Se58 2.595673 1_555
Mo60 Se50 2.601228 1_555
Mo60 Se77 2.661837 1_555
Mo60 Se2 2.774377 1_655
Mo61 Se87 2.529593 1_555
Mo61 Se46 2.592030 1_555
Mo61 Se94 2.599439 1_555
Mo61 Se39 2.673472 1_555
Mo61 Se81 2.771249 1_556
Mo62 Se65 2.530741 1_555
Mo62 Se61 2.586779 1_555
Mo62 Se51 2.613701 1_555
Mo62 Se80 2.634231 1_555
Mo62 Se3 2.778493 1_655
Mo63 Se89 2.538626 1_555
Mo63 Se47 2.605755 1_555
Mo63 Se41 2.617104 1_555
Mo63 Se95 2.630119 1_555
Mo63 Se84 2.780383 1_556
Mo64 Se68 2.522835 1_555
Mo64 Se64 2.588058 1_555
Mo64 Se52 2.593655 1_555
Mo64 Se83 2.670763 1_555
Mo64 Se4 2.766008 1_655
Mo65 Se71 2.526005 1_555
Mo65 Se67 2.590535 1_555
Mo65 Se53 2.594373 1_555
Mo65 Se86 2.671327 1_555
Mo65 Se5 2.770003 1_655
Mo66 Se73 2.525237 1_555
Mo66 Se70 2.590814 1_555
Mo66 Se55 2.595137 1_555
Mo66 Se88 2.670902 1_555
Mo66 Se7 2.766899 1_655
Mo67 Se76 2.525617 1_555
Mo67 Se72 2.591063 1_555
Mo67 Se57 2.594101 1_555
Mo67 Se90 2.670929 1_555
Mo67 Se9 2.767808 1_655
Mo68 Se79 2.525353 1_555
Mo68 Se75 2.590752 1_555
Mo68 Se60 2.593420 1_555
Mo68 Se91 2.671200 1_555
Mo68 Se12 2.769731 1_655
Mo69 Se82 2.526086 1_555
Mo69 Se78 2.590523 1_555
Mo69 Se63 2.595513 1_555
Mo69 Se92 2.669799 1_555
Mo69 Se15 2.771461 1_655
Mo70 Se85 2.521188 1_555
Mo70 Se81 2.590154 1_555
Mo70 Se66 2.595022 1_555
Mo70 Se93 2.672496 1_555
Mo70 Se18 2.762380 1_655
Mo71 Se87 2.518591 1_555
Mo71 Se69 2.568807 1_555
Mo71 Se84 2.583879 1_555
Mo71 Se94 2.680763 1_555
Mo71 Se21 2.750957 1_655
