# generated using pymatgen
data_Co(HO)2
_symmetry_space_group_name_H-M   'P 1'
_cell_length_a   3.42649996
_cell_length_b   3.42649996
_cell_length_c   4.44016500
_cell_angle_alpha   90.00000000
_cell_angle_beta   90.00000000
_cell_angle_gamma   119.99999923
_symmetry_Int_Tables_number   1
_chemical_formula_structural   Co(HO)2
_chemical_formula_sum   'Co1 H2 O2'
_cell_volume   45.14724008
_cell_formula_units_Z   1
loop_
 _symmetry_equiv_pos_site_id
 _symmetry_equiv_pos_as_xyz
  1  'x, y, z'
loop_
 _atom_site_type_symbol
 _atom_site_label
 _atom_site_symmetry_multiplicity
 _atom_site_fract_x
 _atom_site_fract_y
 _atom_site_fract_z
 _atom_site_occupancy
  Co  Co0  1  0.66666700  0.33333300  0.98575500  1
  H  H0  1  0.33333300  0.66666700  0.01918800  1
  H  H1  1  0.00000000  0.00000000  0.42523800  1
  O  O0  1  0.33333300  0.66666700  0.79550400  1
  O  O1  1  0.00000000  0.00000000  0.20451600  1
loop_
_geom_bond_atom_site_label_1
_geom_bond_atom_site_label_2
_geom_bond_distance
_geom_bond_site_symmetry_2
Co0 H0 1.983851 1_546
Co0 H0 1.983851 1_656
Co0 H0 1.983856 1_556
Co0 O0 2.151098 1_545
Co0 O0 2.151098 1_655
Co0 O0 2.151103 1_555
Co0 O1 2.203887 1_656
Co0 O1 2.203890 1_556
Co0 O1 2.203890 1_666
H0 O0 0.993194 1_554
H1 O1 0.980042 1_555
