# generated using pymatgen
data_Ba6In5N
_symmetry_space_group_name_H-M   'P 1'
_cell_length_a   15.59032381
_cell_length_b   15.59032381
_cell_length_c   15.59032426
_cell_angle_alpha   30.86662048
_cell_angle_beta   30.86662048
_cell_angle_gamma   30.86661555
_symmetry_Int_Tables_number   1
_chemical_formula_structural   Ba6In5N
_chemical_formula_sum   'Ba12 In10 N2'
_cell_volume   884.63126087
_cell_formula_units_Z   2
loop_
 _symmetry_equiv_pos_site_id
 _symmetry_equiv_pos_as_xyz
  1  'x, y, z'
loop_
 _atom_site_type_symbol
 _atom_site_label
 _atom_site_symmetry_multiplicity
 _atom_site_fract_x
 _atom_site_fract_y
 _atom_site_fract_z
 _atom_site_occupancy
  Ba  Ba0  1  0.63436693  0.21777237  0.75287314  1
  Ba  Ba1  1  0.28222763  0.86563307  0.74712686  1
  Ba  Ba2  1  0.86563307  0.74712686  0.28222763  1
  Ba  Ba3  1  0.71777237  0.13436693  0.25287314  1
  Ba  Ba4  1  0.13436693  0.25287314  0.71777237  1
  Ba  Ba5  1  0.25287314  0.71777237  0.13436693  1
  Ba  Ba6  1  0.78222763  0.24712686  0.36563307  1
  Ba  Ba7  1  0.75287314  0.63436693  0.21777237  1
  Ba  Ba8  1  0.36563307  0.78222763  0.24712686  1
  Ba  Ba9  1  0.21777237  0.75287314  0.63436693  1
  Ba  Ba10  1  0.24712686  0.36563307  0.78222763  1
  Ba  Ba11  1  0.74712686  0.28222763  0.86563307  1
  In  In0  1  0.53657189  0.96342811  0.75000000  1
  In  In1  1  0.19370028  0.19370028  0.19370028  1
  In  In2  1  0.80629972  0.80629972  0.80629972  1
  In  In3  1  0.75000000  0.53657189  0.96342811  1
  In  In4  1  0.96342811  0.75000000  0.53657189  1
  In  In5  1  0.69370028  0.69370028  0.69370028  1
  In  In6  1  0.46342811  0.03657189  0.25000000  1
  In  In7  1  0.03657189  0.25000000  0.46342811  1
  In  In8  1  0.25000000  0.46342811  0.03657189  1
  In  In9  1  0.30629972  0.30629972  0.30629972  1
  N  N0  1  0.00000000  -0.00000000  0.00000000  1
  N  N1  1  0.50000000  0.50000000  0.50000000  1
loop_
_geom_bond_atom_site_label_1
_geom_bond_atom_site_label_2
_geom_bond_distance
_geom_bond_site_symmetry_2
Ba0 N1 2.804587 1_555
Ba0 In7 3.588128 1_655
Ba0 In1 3.676167 1_556
Ba0 In2 3.764464 1_545
Ba0 In8 3.784176 1_556
Ba0 In6 3.876831 1_556
Ba1 N0 2.804587 1_566
Ba1 In8 3.588128 1_556
Ba1 In9 3.676167 1_565
Ba1 In5 3.764464 1_555
Ba1 In7 3.784176 1_565
Ba1 In6 3.876831 1_565
Ba2 N0 2.804587 1_665
Ba2 In6 3.588127 1_565
Ba2 In9 3.676166 1_655
Ba2 In5 3.764464 1_555
Ba2 In8 3.784176 1_655
Ba2 In7 3.876831 1_655
Ba3 N0 2.804587 1_655
Ba3 In3 3.588128 1_554
Ba3 In5 3.676167 1_545
Ba3 In9 3.764464 1_555
Ba3 In4 3.784176 1_545
Ba3 In0 3.876831 1_545
Ba4 N0 2.804587 1_556
Ba4 In0 3.588127 1_545
Ba4 In5 3.676166 1_455
Ba4 In9 3.764464 1_555
Ba4 In3 3.784176 1_455
Ba4 In4 3.876831 1_455
Ba5 N0 2.804587 1_565
Ba5 In4 3.588128 1_455
Ba5 In5 3.676167 1_554
Ba5 In9 3.764464 1_555
Ba5 In0 3.784176 1_554
Ba5 In3 3.876831 1_554
Ba6 N1 2.804587 1_555
Ba6 In3 3.588128 1_554
Ba6 In2 3.676167 1_545
Ba6 In1 3.764464 1_655
Ba6 In0 3.784176 1_545
Ba6 In4 3.876831 1_545
Ba7 N1 2.804587 1_555
Ba7 In6 3.588127 1_565
Ba7 In1 3.676166 1_655
Ba7 In2 3.764464 1_554
Ba7 In7 3.784176 1_655
Ba7 In8 3.876831 1_655
Ba8 N1 2.804587 1_555
Ba8 In4 3.588128 1_455
Ba8 In2 3.676167 1_554
Ba8 In1 3.764464 1_565
Ba8 In3 3.784176 1_554
Ba8 In0 3.876831 1_554
Ba9 N1 2.804587 1_555
Ba9 In8 3.588128 1_556
Ba9 In1 3.676167 1_565
Ba9 In2 3.764464 1_455
Ba9 In6 3.784176 1_565
Ba9 In7 3.876831 1_565
Ba10 N1 2.804587 1_555
Ba10 In0 3.588127 1_545
Ba10 In2 3.676166 1_455
Ba10 In1 3.764464 1_556
Ba10 In4 3.784176 1_455
Ba10 In3 3.876831 1_455
Ba11 N0 2.804587 1_656
Ba11 In7 3.588128 1_655
Ba11 In9 3.676167 1_556
Ba11 In5 3.764464 1_555
Ba11 In6 3.784176 1_556
Ba11 In8 3.876831 1_556
In0 In3 3.067392 1_555
In0 In4 3.067392 1_555
In0 In2 3.068435 1_555
In0 In5 3.068435 1_555
In1 In6 3.068435 1_555
In1 In8 3.068435 1_555
In1 In7 3.068435 1_555
In2 In3 3.068435 1_555
In2 In4 3.068435 1_555
In3 In4 3.067392 1_555
In3 In5 3.068435 1_555
In4 In5 3.068435 1_555
In6 In8 3.067392 1_555
In6 In7 3.067392 1_555
In6 In9 3.068435 1_555
In7 In8 3.067392 1_555
In7 In9 3.068435 1_555
In8 In9 3.068435 1_555
