# generated using pymatgen
data_Pu2SnPd2
_symmetry_space_group_name_H-M   'P 1'
_cell_length_a   7.56717800
_cell_length_b   7.56717800
_cell_length_c   3.82531300
_cell_angle_alpha   90.00000000
_cell_angle_beta   90.00000000
_cell_angle_gamma   90.00000000
_symmetry_Int_Tables_number   1
_chemical_formula_structural   Pu2SnPd2
_chemical_formula_sum   'Pu4 Sn2 Pd4'
_cell_volume   219.04577259
_cell_formula_units_Z   2
loop_
 _symmetry_equiv_pos_site_id
 _symmetry_equiv_pos_as_xyz
  1  'x, y, z'
loop_
 _atom_site_type_symbol
 _atom_site_label
 _atom_site_symmetry_multiplicity
 _atom_site_fract_x
 _atom_site_fract_y
 _atom_site_fract_z
 _atom_site_occupancy
  Pu  Pu0  1  0.67460300  0.17460300  0.50000000  1
  Pu  Pu1  1  0.17460300  0.32539700  0.50000000  1
  Pu  Pu2  1  0.32539700  0.82539700  0.50000000  1
  Pu  Pu3  1  0.82539700  0.67460300  0.50000000  1
  Sn  Sn0  1  0.50000000  0.50000000  0.00000000  1
  Sn  Sn1  1  0.00000000  0.00000000  0.00000000  1
  Pd  Pd0  1  0.87007500  0.37007500  0.00000000  1
  Pd  Pd1  1  0.37007500  0.12992500  0.00000000  1
  Pd  Pd2  1  0.62992500  0.87007500  0.00000000  1
  Pd  Pd3  1  0.12992500  0.62992500  0.00000000  1
loop_
_geom_bond_atom_site_label_1
_geom_bond_atom_site_label_2
_geom_bond_distance
_geom_bond_site_symmetry_2
Pu0 Sn1 3.386306 1_655
Pu0 Sn1 3.386306 1_656
Pu0 Sn0 3.386306 1_555
Pu0 Sn0 3.386306 1_556
Pu1 Sn1 3.386306 1_556
Pu1 Sn1 3.386306 1_555
Pu1 Sn0 3.386306 1_555
Pu1 Sn0 3.386306 1_556
Pu2 Sn0 3.386306 1_555
Pu2 Sn0 3.386306 1_556
Pu2 Sn1 3.386306 1_565
Pu2 Sn1 3.386306 1_566
Pu3 Sn0 3.386306 1_555
Pu3 Sn0 3.386306 1_556
Pu3 Sn1 3.386306 1_666
Pu3 Sn1 3.386306 1_665
Pd0 Pd3 2.780812 1_655
Pd0 Pu0 2.834458 1_555
Pd0 Pu0 2.834458 1_554
Pd0 Sn0 2.967994 1_555
Pd0 Sn1 2.967994 1_655
Pd0 Pu1 3.013785 1_655
Pd0 Pu1 3.013785 1_654
Pd0 Pu3 3.013785 1_554
Pd0 Pu3 3.013785 1_555
Pd1 Pd2 2.780812 1_545
Pd1 Pu1 2.834458 1_555
Pd1 Pu1 2.834458 1_554
Pd1 Sn1 2.967994 1_555
Pd1 Sn0 2.967994 1_555
Pd1 Pu0 3.013785 1_555
Pd1 Pu0 3.013785 1_554
Pd1 Pu2 3.013785 1_544
Pd1 Pu2 3.013785 1_545
Pd2 Pu3 2.834458 1_554
Pd2 Pu3 2.834458 1_555
Pd2 Sn0 2.967994 1_555
Pd2 Sn1 2.967994 1_665
Pd2 Pu0 3.013785 1_565
Pd2 Pu0 3.013785 1_564
Pd2 Pu2 3.013785 1_554
Pd2 Pu2 3.013785 1_555
Pd3 Pu2 2.834458 1_554
Pd3 Pu2 2.834458 1_555
Pd3 Sn1 2.967994 1_565
Pd3 Sn0 2.967994 1_555
Pd3 Pu1 3.013785 1_555
Pd3 Pu3 3.013785 1_455
Pd3 Pu3 3.013785 1_454
Pd3 Pu1 3.013785 1_554
