# generated using pymatgen
data_CaMg(SiO3)2
_symmetry_space_group_name_H-M   'P 1'
_cell_length_a   6.69673300
_cell_length_b   6.69673300
_cell_length_c   5.32982658
_cell_angle_alpha   77.96411420
_cell_angle_beta   77.96411420
_cell_angle_gamma   84.78447454
_symmetry_Int_Tables_number   1
_chemical_formula_structural   CaMg(SiO3)2
_chemical_formula_sum   'Ca2 Mg2 Si4 O12'
_cell_volume   228.34824046
_cell_formula_units_Z   2
loop_
 _symmetry_equiv_pos_site_id
 _symmetry_equiv_pos_as_xyz
  1  'x, y, z'
loop_
 _atom_site_type_symbol
 _atom_site_label
 _atom_site_symmetry_multiplicity
 _atom_site_fract_x
 _atom_site_fract_y
 _atom_site_fract_z
 _atom_site_occupancy
  Ca  Ca0  1  0.70109000  0.29891000  0.75000000  1
  Ca  Ca1  1  0.29891000  0.70109000  0.25000000  1
  Mg  Mg0  1  0.09242500  0.90757500  0.75000000  1
  Mg  Mg1  1  0.90757500  0.09242500  0.25000000  1
  Si  Si0  1  0.80691500  0.62061100  0.23270400  1
  Si  Si1  1  0.19308500  0.37938900  0.76729600  1
  Si  Si2  1  0.37938900  0.19308500  0.26729600  1
  Si  Si3  1  0.62061100  0.80691500  0.73270400  1
  O  O0  1  0.36494700  0.33480000  0.49789800  1
  O  O1  1  0.66520000  0.63505300  0.00210200  1
  O  O2  1  0.63505300  0.66520000  0.50210200  1
  O  O3  1  0.33480000  0.36494700  0.99789800  1
  O  O4  1  0.61189600  0.11331300  0.18013400  1
  O  O5  1  0.88668700  0.38810400  0.31986600  1
  O  O6  1  0.38810400  0.88668700  0.81986600  1
  O  O7  1  0.11331300  0.61189600  0.68013400  1
  O  O8  1  0.02771000  0.20331500  0.85716200  1
  O  O9  1  0.79668500  0.97229000  0.64283800  1
  O  O10  1  0.97229000  0.79668500  0.14283800  1
  O  O11  1  0.20331500  0.02771000  0.35716200  1
loop_
_geom_bond_atom_site_label_1
_geom_bond_atom_site_label_2
_geom_bond_distance
_geom_bond_site_symmetry_2
Ca0 O5 2.352202 1_555
Ca0 O4 2.352202 1_556
Ca0 O8 2.373650 1_655
Ca0 O9 2.373650 1_545
Ca0 O3 2.579351 1_555
Ca0 O2 2.579351 1_555
Ca0 O1 2.821142 1_556
Ca0 O0 2.821142 1_555
Ca1 O6 2.352202 1_554
Ca1 O7 2.352202 1_555
Ca1 O11 2.373650 1_565
Ca1 O10 2.373650 1_455
Ca1 O0 2.579351 1_555
Ca1 O1 2.579351 1_555
Ca1 O2 2.821142 1_555
Ca1 O3 2.821142 1_554
Mg0 O7 2.077109 1_555
Mg0 O6 2.077109 1_555
Mg0 O10 2.083314 1_456
Mg0 O11 2.083314 1_565
Mg0 O9 2.156122 1_455
Mg0 O8 2.156122 1_565
Mg1 O4 2.077109 1_555
Mg1 O5 2.077109 1_555
Mg1 O9 2.083314 1_545
Mg1 O8 2.083314 1_654
Mg1 O10 2.156122 1_545
Mg1 O11 2.156122 1_655
O0 Si2 1.685470 1_555
O0 Si1 1.703689 1_555
O1 Si0 1.685470 1_555
O1 Si3 1.703689 1_554
O2 Si3 1.685470 1_555
O2 Si0 1.703689 1_555
O3 Si1 1.685470 1_555
O3 Si2 1.703689 1_556
O4 Si2 1.605046 1_555
O5 Si0 1.605046 1_555
O6 Si3 1.605046 1_555
O7 Si1 1.605046 1_555
O8 Si1 1.620767 1_555
O9 Si3 1.620767 1_555
O10 Si0 1.620767 1_555
O11 Si2 1.620767 1_555
