# generated using pymatgen
data_KPPbS4
_symmetry_space_group_name_H-M   'P 1'
_cell_length_a   6.56846500
_cell_length_b   6.70813400
_cell_length_c   17.11370500
_cell_angle_alpha   90.00000000
_cell_angle_beta   90.00000000
_cell_angle_gamma   90.00000000
_symmetry_Int_Tables_number   1
_chemical_formula_structural   KPPbS4
_chemical_formula_sum   'K4 P4 Pb4 S16'
_cell_volume   754.06652372
_cell_formula_units_Z   4
loop_
 _symmetry_equiv_pos_site_id
 _symmetry_equiv_pos_as_xyz
  1  'x, y, z'
loop_
 _atom_site_type_symbol
 _atom_site_label
 _atom_site_symmetry_multiplicity
 _atom_site_fract_x
 _atom_site_fract_y
 _atom_site_fract_z
 _atom_site_occupancy
  K  K0  1  0.99906200  0.25000000  0.20899800  1
  K  K1  1  0.50093800  0.25000000  0.70899800  1
  K  K2  1  0.00093800  0.75000000  0.79100200  1
  K  K3  1  0.49906200  0.75000000  0.29100200  1
  P  P0  1  0.71806600  0.75000000  0.59886500  1
  P  P1  1  0.78193400  0.75000000  0.09886500  1
  P  P2  1  0.21806600  0.25000000  0.90113500  1
  P  P3  1  0.28193400  0.25000000  0.40113500  1
  Pb  Pb0  1  0.21396600  0.75000000  0.52023500  1
  Pb  Pb1  1  0.78603400  0.25000000  0.47976500  1
  Pb  Pb2  1  0.28603400  0.75000000  0.02023500  1
  Pb  Pb3  1  0.71396600  0.25000000  0.97976500  1
  S  S0  1  0.15256000  0.25000000  0.01925100  1
  S  S1  1  0.45839700  0.75000000  0.66438000  1
  S  S2  1  0.34744000  0.25000000  0.51925100  1
  S  S3  1  0.10715700  0.49502200  0.37656000  1
  S  S4  1  0.39284300  0.49502200  0.87656000  1
  S  S5  1  0.60715700  0.99502200  0.12344000  1
  S  S6  1  0.10715700  0.00497800  0.37656000  1
  S  S7  1  0.89284300  0.50497800  0.62344000  1
  S  S8  1  0.65256000  0.75000000  0.48074900  1
  S  S9  1  0.60715700  0.50497800  0.12344000  1
  S  S10  1  0.84744000  0.75000000  0.98074900  1
  S  S11  1  0.95839700  0.25000000  0.83562000  1
  S  S12  1  0.54160300  0.25000000  0.33562000  1
  S  S13  1  0.39284300  0.00497800  0.87656000  1
  S  S14  1  0.89284300  0.99502200  0.62344000  1
  S  S15  1  0.04160300  0.75000000  0.16438000  1
loop_
_geom_bond_atom_site_label_1
_geom_bond_atom_site_label_2
_geom_bond_distance
_geom_bond_site_symmetry_2
K0 S3 3.380658 1_655
K0 S6 3.380658 1_655
K0 S0 3.400199 1_655
K0 S9 3.419951 1_555
K0 S5 3.419951 1_545
K0 S15 3.451217 1_655
K0 S15 3.451217 1_645
K0 S12 3.704674 1_555
K1 S4 3.380658 1_555
K1 S13 3.380658 1_555
K1 S2 3.400199 1_555
K1 S7 3.419951 1_555
K1 S14 3.419951 1_545
K1 S1 3.451217 1_555
K1 S1 3.451217 1_545
K1 S11 3.704674 1_555
K2 S14 3.380658 1_455
K2 S7 3.380658 1_455
K2 S10 3.400199 1_455
K2 S13 3.419951 1_565
K2 S4 3.419951 1_555
K2 S11 3.451217 1_465
K2 S11 3.451217 1_455
K2 S1 3.704674 1_555
K3 S5 3.380658 1_555
K3 S9 3.380658 1_555
K3 S8 3.400199 1_555
K3 S6 3.419951 1_565
K3 S3 3.419951 1_555
K3 S12 3.451217 1_565
K3 S12 3.451217 1_555
K3 S15 3.704674 1_555
P0 S1 2.041142 1_555
P0 S14 2.048505 1_555
P0 S7 2.048505 1_555
P0 S8 2.066689 1_555
P1 S15 2.041142 1_655
P1 S5 2.048505 1_555
P1 S9 2.048505 1_555
P1 S10 2.066689 1_554
P2 S11 2.041142 1_455
P2 S4 2.048505 1_555
P2 S13 2.048505 1_555
P2 S0 2.066689 1_556
P3 S12 2.041142 1_555
P3 S3 2.048505 1_555
P3 S6 2.048505 1_555
P3 S2 2.066689 1_555
Pb0 S1 2.943318 1_555
Pb0 S8 2.959082 1_555
Pb0 S6 3.076283 1_565
Pb0 S3 3.076283 1_555
Pb0 S14 3.204711 1_455
Pb0 S7 3.204711 1_455
Pb1 S12 2.943318 1_555
Pb1 S2 2.959082 1_555
Pb1 S7 3.076283 1_555
Pb1 S14 3.076283 1_545
Pb1 S3 3.204711 1_655
Pb1 S6 3.204711 1_655
Pb2 S15 2.943318 1_555
Pb2 S10 2.959082 1_454
Pb2 S13 3.076283 1_564
Pb2 S4 3.076283 1_554
Pb2 S5 3.204711 1_555
Pb2 S9 3.204711 1_555
Pb3 S11 2.943318 1_555
Pb3 S0 2.959082 1_656
Pb3 S9 3.076283 1_556
Pb3 S5 3.076283 1_546
Pb3 S4 3.204711 1_555
Pb3 S13 3.204711 1_555
