# generated using pymatgen
data_LiCa9Mg(PO4)7
_symmetry_space_group_name_H-M   'P 1'
_cell_length_a   10.41871700
_cell_length_b   13.84241813
_cell_length_c   18.04547470
_cell_angle_alpha   102.54885161
_cell_angle_beta   90.00013335
_cell_angle_gamma   112.10623408
_symmetry_Int_Tables_number   1
_chemical_formula_structural   LiCa9Mg(PO4)7
_chemical_formula_sum   'Li4 Ca36 Mg4 P28 O112'
_cell_volume   2343.96423777
_cell_formula_units_Z   4
loop_
 _symmetry_equiv_pos_site_id
 _symmetry_equiv_pos_as_xyz
  1  'x, y, z'
loop_
 _atom_site_type_symbol
 _atom_site_label
 _atom_site_symmetry_multiplicity
 _atom_site_fract_x
 _atom_site_fract_y
 _atom_site_fract_z
 _atom_site_occupancy
  Li  Li0  1  0.76392100  0.53335800  0.92360000  1
  Li  Li1  1  0.22258800  0.44348900  0.40509800  1
  Li  Li2  1  0.96584500  0.93940200  0.65666100  1
  Li  Li3  1  0.46780600  0.93961600  0.15446700  1
  Ca  Ca0  1  0.30695000  0.20709800  0.96495400  1
  Ca  Ca1  1  0.60782300  0.20843100  0.67284800  1
  Ca  Ca2  1  0.31468000  0.02982200  0.76767400  1
  Ca  Ca3  1  0.89108300  0.20137800  0.96780500  1
  Ca  Ca4  1  0.50890700  0.03492800  0.97310800  1
  Ca  Ca5  1  0.72395700  0.02991500  0.77524400  1
  Ca  Ca6  1  0.15576200  0.70918100  0.71258700  1
  Ca  Ca7  1  0.34587400  0.70867600  0.92002900  1
  Ca  Ca8  1  0.56426000  0.70856300  0.71737500  1
  Ca  Ca9  1  0.80472500  0.20875700  0.46281700  1
  Ca  Ca10  1  0.11238500  0.20863900  0.17152000  1
  Ca  Ca11  1  0.93495100  0.31106200  0.78550800  1
  Ca  Ca12  1  0.16748900  0.31272900  0.57528600  1
  Ca  Ca13  1  0.81994400  0.02922800  0.26374500  1
  Ca  Ca14  1  0.36599600  0.31286100  0.79562700  1
  Ca  Ca15  1  0.39063400  0.20394400  0.47081200  1
  Ca  Ca16  1  0.00110400  0.02763800  0.47466100  1
  Ca  Ca17  1  0.21937800  0.02601400  0.27680000  1
  Ca  Ca18  1  0.62683400  0.81139500  0.52962900  1
  Ca  Ca19  1  0.65335200  0.70948300  0.21376200  1
  Ca  Ca20  1  0.84561700  0.70656900  0.41840700  1
  Ca  Ca21  1  0.06351300  0.70570200  0.21720000  1
  Ca  Ca22  1  0.89636400  0.81306000  0.82442200  1
  Ca  Ca23  1  0.19995800  0.81481200  0.54926000  1
  Ca  Ca24  1  0.56008700  0.52664400  0.52451800  1
  Ca  Ca25  1  0.95671900  0.52746400  0.51636900  1
  Ca  Ca26  1  0.43050100  0.31146500  0.28355300  1
  Ca  Ca27  1  0.77307300  0.53047300  0.72331300  1
  Ca  Ca28  1  0.66661700  0.31042600  0.07578400  1
  Ca  Ca29  1  0.86149500  0.30941100  0.29926900  1
  Ca  Ca30  1  0.12703500  0.80971700  0.03149800  1
  Ca  Ca31  1  0.38686800  0.80807800  0.32517600  1
  Ca  Ca32  1  0.69800800  0.81459900  0.05051700  1
  Ca  Ca33  1  0.05593000  0.52692400  0.02326800  1
  Ca  Ca34  1  0.45509800  0.52749700  0.01612000  1
  Ca  Ca35  1  0.27699500  0.52728600  0.22425200  1
  Mg  Mg0  1  0.00106900  0.00097800  0.00267500  1
  Mg  Mg1  1  0.50381400  0.00220600  0.49879500  1
  Mg  Mg2  1  0.25309300  0.49879500  0.75121000  1
  Mg  Mg3  1  0.75394000  0.50270300  0.25134500  1
  P  P0  1  0.60221400  0.20620800  0.86502600  1
  P  P1  1  0.19952000  0.91083400  0.89049000  1
  P  P2  1  0.47895400  0.91299300  0.65588000  1
  P  P3  1  0.69075000  0.91173500  0.91116400  1
  P  P4  1  0.02690200  0.59885100  0.84511100  1
  P  P5  1  0.31882300  0.59553600  0.58631100  1
  P  P6  1  0.96120500  0.41073600  0.64039800  1
  P  P7  1  0.55242900  0.59778200  0.86530000  1
  P  P8  1  0.18823000  0.41209800  0.90967200  1
  P  P9  1  0.47457700  0.40834100  0.66061800  1
  P  P10  1  0.10110300  0.20393600  0.36474700  1
  P  P11  1  0.82810500  0.10167300  0.59569500  1
  P  P12  1  0.69863000  0.91035300  0.38887100  1
  P  P13  1  0.97975200  0.91301000  0.15643100  1
  P  P14  1  0.03239200  0.09844600  0.83997400  1
  P  P15  1  0.28986900  0.10104500  0.61746300  1
  P  P16  1  0.18857400  0.91423200  0.41104200  1
  P  P17  1  0.52546600  0.60218700  0.34768800  1
  P  P18  1  0.82241400  0.60035600  0.09083200  1
  P  P19  1  0.85266900  0.70571200  0.62042000  1
  P  P20  1  0.45605100  0.40685100  0.13787300  1
  P  P21  1  0.05665300  0.60090700  0.36433300  1
  P  P22  1  0.68527900  0.40936500  0.40979900  1
  P  P23  1  0.96949400  0.41159400  0.15954500  1
  P  P24  1  0.32632400  0.09937500  0.09448200  1
  P  P25  1  0.52789700  0.10016500  0.33675100  1
  P  P26  1  0.78908000  0.09608100  0.11665400  1
  P  P27  1  0.35090700  0.70123700  0.11620000  1
  O  O0  1  0.48159200  0.24333700  0.87396700  1
  O  O1  1  0.69283200  0.24398800  0.80568500  1
  O  O2  1  0.69186500  0.24462400  0.94414100  1
  O  O3  1  0.29723500  0.03101700  0.90428100  1
  O  O4  1  0.53968500  0.07738100  0.84464200  1
  O  O5  1  0.52684200  0.03234600  0.69211700  1
  O  O6  1  0.15312000  0.87517800  0.80372300  1
  O  O7  1  0.07240800  0.89218700  0.93611300  1
  O  O8  1  0.45118700  0.89209700  0.56863800  1
  O  O9  1  0.72378100  0.03198100  0.91491500  1
  O  O10  1  0.33336800  0.85411300  0.68824500  1
  O  O11  1  0.58873700  0.87365900  0.67509300  1
  O  O12  1  0.29150200  0.85450600  0.91473300  1
  O  O13  1  0.96861800  0.66704600  0.80355600  1
  O  O14  1  0.56338800  0.87763200  0.95925900  1
  O  O15  1  0.64989700  0.84718900  0.82251300  1
  O  O16  1  0.21888600  0.64727300  0.56266500  1
  O  O17  1  0.80962600  0.88898600  0.93938400  1
  O  O18  1  0.47489400  0.66866700  0.58579200  1
  O  O19  1  0.05547300  0.64731000  0.93364900  1
  O  O20  1  0.98669400  0.53401900  0.65470400  1
  O  O21  1  0.16395200  0.60143300  0.80856900  1
  O  O22  1  0.30205500  0.59994600  0.67692300  1
  O  O23  1  0.90222400  0.48324600  0.82960600  1
  O  O24  1  0.28785400  0.48814100  0.53708700  1
  O  O25  1  0.43764600  0.60145100  0.81698900  1
  O  O26  1  0.55607600  0.67330200  0.94605500  1
  O  O27  1  0.96970200  0.37128200  0.55225000  1
  O  O28  1  0.81042500  0.35201700  0.66704400  1
  O  O29  1  0.69379200  0.64115700  0.83054300  1
  O  O30  1  0.25932700  0.53435600  0.94246800  1
  O  O31  1  0.54916500  0.53183100  0.66476500  1
  O  O32  1  0.07288000  0.39203700  0.68401000  1
  O  O33  1  0.98641400  0.24703300  0.37395700  1
  O  O34  1  0.03653400  0.37414300  0.92834200  1
  O  O35  1  0.18824200  0.38815500  0.81622800  1
  O  O36  1  0.19433300  0.24866400  0.30428200  1
  O  O37  1  0.32809700  0.38939700  0.69473100  1
  O  O38  1  0.53173300  0.48618700  0.87902300  1
  O  O39  1  0.44979900  0.34940400  0.57464400  1
  O  O40  1  0.18740300  0.24295500  0.44617500  1
  O  O41  1  0.69421100  0.10093200  0.56226000  1
  O  O42  1  0.94747300  0.16461200  0.55504800  1
  O  O43  1  0.56562300  0.37343400  0.70846500  1
  O  O44  1  0.26331900  0.34863700  0.93655500  1
  O  O45  1  0.83392400  0.14126700  0.68491700  1
  O  O46  1  0.80052900  0.03429600  0.40693000  1
  O  O47  1  0.04368100  0.08235400  0.34924000  1
  O  O48  1  0.02850600  0.03140200  0.19402100  1
  O  O49  1  0.94094600  0.16838200  0.83504900  1
  O  O50  1  0.20370400  0.14742700  0.57780000  1
  O  O51  1  0.65364000  0.87369800  0.29989800  1
  O  O52  1  0.57398500  0.89298600  0.43568300  1
  O  O53  1  0.95703700  0.89077100  0.06725300  1
  O  O54  1  0.83333000  0.98122000  0.57965000  1
  O  O55  1  0.35694200  0.16598300  0.69350400  1
  O  O56  1  0.17756700  0.14325800  0.81478500  1
  O  O57  1  0.22499200  0.02788800  0.41491700  1
  O  O58  1  0.83176300  0.84854000  0.18449800  1
  O  O59  1  0.04802900  0.10141700  0.92252400  1
  O  O60  1  0.41070900  0.09719200  0.56476800  1
  O  O61  1  0.09564700  0.87655500  0.17578500  1
  O  O62  1  0.78372800  0.84979900  0.41482700  1
  O  O63  1  0.94910400  0.98828600  0.78618600  1
  O  O64  1  0.19378800  0.98368100  0.62417900  1
  O  O65  1  0.46706700  0.66537600  0.30412800  1
  O  O66  1  0.06597000  0.87670000  0.45678500  1
  O  O67  1  0.15274900  0.84955800  0.32602900  1
  O  O68  1  0.72174400  0.64623700  0.05943900  1
  O  O69  1  0.31246600  0.89076500  0.44467300  1
  O  O70  1  0.97606600  0.66659400  0.08476700  1
  O  O71  1  0.55547500  0.64556200  0.43535700  1
  O  O72  1  0.79471600  0.74451600  0.55568500  1
  O  O73  1  0.48337300  0.53275600  0.15842400  1
  O  O74  1  0.66224000  0.60327500  0.30866300  1
  O  O75  1  0.81009800  0.60426300  0.17587100  1
  O  O76  1  0.80963400  0.74517000  0.69629200  1
  O  O77  1  0.01431900  0.74296600  0.62115400  1
  O  O78  1  0.40393600  0.48350500  0.32756000  1
  O  O79  1  0.78814300  0.48323500  0.03592200  1
  O  O80  1  0.94083900  0.60287300  0.31608100  1
  O  O81  1  0.05985700  0.67172000  0.44622500  1
  O  O82  1  0.46397400  0.37221800  0.05440300  1
  O  O83  1  0.30774300  0.34967000  0.16473600  1
  O  O84  1  0.19126400  0.64061300  0.32406800  1
  O  O85  1  0.75501500  0.53413900  0.44538400  1
  O  O86  1  0.78844600  0.57772300  0.59469000  1
  O  O87  1  0.05805500  0.53481300  0.16629300  1
  O  O88  1  0.56455900  0.39101900  0.18353000  1
  O  O89  1  0.53348400  0.37308100  0.42927400  1
  O  O90  1  0.68305100  0.38667600  0.32001900  1
  O  O91  1  0.83409200  0.39008000  0.19325800  1
  O  O92  1  0.03902100  0.48851200  0.37642500  1
  O  O93  1  0.94704400  0.35039300  0.07128600  1
  O  O94  1  0.19485400  0.10394700  0.06099800  1
  O  O95  1  0.44982900  0.16885900  0.05783900  1
  O  O96  1  0.06443900  0.37269300  0.20917700  1
  O  O97  1  0.76842000  0.35151200  0.43965600  1
  O  O98  1  0.33953500  0.14369200  0.18497400  1
  O  O99  1  0.44273500  0.16943600  0.33107100  1
  O  O100  1  0.69873600  0.14531100  0.07430100  1
  O  O101  1  0.32892300  0.98395300  0.07798600  1
  O  O102  1  0.86312500  0.17174900  0.19560400  1
  O  O103  1  0.68053000  0.14509900  0.30989800  1
  O  O104  1  0.54206700  0.10099100  0.42672600  1
  O  O105  1  0.91244800  0.10169900  0.06750700  1
  O  O106  1  0.45012700  0.98302900  0.28567900  1
  O  O107  1  0.69410200  0.98323000  0.12751100  1
  O  O108  1  0.29765800  0.74842000  0.05688700  1
  O  O109  1  0.30641800  0.74817100  0.19870700  1
  O  O110  1  0.51745800  0.74567700  0.12040500  1
  O  O111  1  0.29206900  0.57895900  0.09465700  1
loop_
_geom_bond_atom_site_label_1
_geom_bond_atom_site_label_2
_geom_bond_distance
_geom_bond_site_symmetry_2
Li0 O79 2.322995 1_556
Li0 O38 2.346991 1_555
Li0 O23 2.382332 1_555
Li1 O92 2.313256 1_555
Li1 O78 2.320257 1_555
Li1 O24 2.358251 1_555
Li2 O54 2.263532 1_555
Li2 O63 2.313659 1_555
Li2 O64 2.328052 1_655
Li3 O107 2.283901 1_555
Li3 O101 2.326298 1_555
Li3 O106 2.338045 1_555
Ca0 O44 2.326916 1_555
Ca0 O3 2.409258 1_555
Ca0 O0 2.434989 1_555
Ca0 O82 2.467502 1_556
Ca0 O94 2.495370 1_556
Ca0 O95 2.506836 1_556
Ca0 O59 2.558618 1_555
Ca0 O56 2.829176 1_555
Ca1 O28 2.312977 1_555
Ca1 O5 2.365238 1_555
Ca1 O1 2.435571 1_555
Ca1 O43 2.437450 1_555
Ca1 O55 2.501132 1_555
Ca1 O60 2.589859 1_555
Ca1 O41 2.593162 1_555
Ca1 O45 2.863111 1_555
Ca2 O6 2.394163 1_545
Ca2 O55 2.451393 1_555
Ca2 O3 2.468757 1_555
Ca2 O4 2.509814 1_555
Ca2 O56 2.517402 1_555
Ca2 O5 2.590164 1_555
Ca2 O10 2.617185 1_545
Ca2 O64 2.715764 1_545
Ca3 O9 2.323536 1_555
Ca3 O93 2.345814 1_556
Ca3 O2 2.427975 1_555
Ca3 O49 2.433257 1_555
Ca3 O59 2.543176 1_655
Ca3 O105 2.549573 1_556
Ca3 O34 2.556401 1_655
Ca3 O100 2.790899 1_556
Ca4 O95 2.404344 1_556
Ca4 O14 2.412321 1_545
Ca4 O100 2.468576 1_556
Ca4 O9 2.483219 1_555
Ca4 O4 2.504498 1_555
Ca4 O3 2.507990 1_555
Ca4 O12 2.660203 1_545
Ca4 O101 2.679654 1_546
Ca4 O2 2.971080 1_555
Ca5 O49 2.406076 1_555
Ca5 O11 2.436646 1_545
Ca5 O45 2.471438 1_555
Ca5 O4 2.505559 1_555
Ca5 O9 2.514379 1_555
Ca5 O5 2.557907 1_555
Ca5 O63 2.634459 1_545
Ca5 O15 2.681286 1_545
Ca6 O10 2.287085 1_555
Ca6 O20 2.399525 1_455
Ca6 O77 2.442686 1_555
Ca6 O22 2.517034 1_555
Ca6 O6 2.528006 1_555
Ca6 O13 2.529194 1_455
Ca6 O21 2.539715 1_555
Ca6 O16 2.811212 1_555
Ca7 O12 2.312890 1_555
Ca7 O30 2.363600 1_555
Ca7 O26 2.482669 1_555
Ca7 O108 2.504373 1_556
Ca7 O14 2.529442 1_555
Ca7 O21 2.535063 1_555
Ca7 O25 2.538403 1_555
Ca7 O19 2.844750 1_555
Ca8 O15 2.281943 1_555
Ca8 O31 2.368983 1_555
Ca8 O18 2.419338 1_555
Ca8 O76 2.458838 1_555
Ca8 O11 2.487769 1_555
Ca8 O22 2.586123 1_555
Ca8 O25 2.618380 1_555
Ca8 O29 2.939068 1_555
Ca9 O97 2.268058 1_555
Ca9 O46 2.390239 1_555
Ca9 O33 2.459604 1_555
Ca9 O27 2.476309 1_555
Ca9 O42 2.545851 1_555
Ca9 O104 2.577505 1_555
Ca9 O41 2.577619 1_555
Ca9 O103 2.854956 1_555
Ca10 O83 2.254349 1_555
Ca10 O48 2.401432 1_555
Ca10 O36 2.417173 1_555
Ca10 O96 2.459989 1_555
Ca10 O102 2.508430 1_455
Ca10 O94 2.548992 1_555
Ca10 O105 2.554464 1_455
Ca10 O98 2.857315 1_555
Ca11 O49 2.358812 1_555
Ca11 O1 2.396265 1_555
Ca11 O35 2.456339 1_655
Ca11 O45 2.492226 1_555
Ca11 O23 2.493551 1_555
Ca11 O32 2.521102 1_655
Ca11 O34 2.617739 1_655
Ca11 O28 2.766727 1_555
Ca12 O40 2.361603 1_555
Ca12 O42 2.393518 1_455
Ca12 O32 2.429953 1_555
Ca12 O50 2.464773 1_555
Ca12 O37 2.498323 1_555
Ca12 O24 2.525690 1_555
Ca12 O27 2.545518 1_455
Ca12 O39 2.790671 1_555
Ca13 O51 2.421890 1_545
Ca13 O102 2.447982 1_555
Ca13 O48 2.504583 1_655
Ca13 O103 2.559112 1_555
Ca13 O47 2.563509 1_655
Ca13 O46 2.579533 1_555
Ca13 O107 2.619094 1_545
Ca13 O58 2.644531 1_545
Ca14 O37 2.397166 1_555
Ca14 O55 2.401293 1_555
Ca14 O0 2.416343 1_555
Ca14 O35 2.436942 1_555
Ca14 O38 2.513108 1_555
Ca14 O56 2.523712 1_555
Ca14 O43 2.600643 1_555
Ca14 O44 2.776426 1_555
Ca15 O39 2.317624 1_555
Ca15 O57 2.387717 1_555
Ca15 O40 2.436716 1_555
Ca15 O104 2.520470 1_555
Ca15 O89 2.529512 1_555
Ca15 O60 2.534433 1_555
Ca15 O99 2.559981 1_555
Ca15 O50 2.764429 1_555
Ca16 O42 2.369333 1_455
Ca16 O66 2.386639 1_545
Ca16 O46 2.462365 1_455
Ca16 O47 2.526838 1_555
Ca16 O57 2.568858 1_555
Ca16 O50 2.587222 1_555
Ca16 O54 2.596422 1_445
Ca16 O62 2.646483 1_445
Ca17 O61 2.370394 1_545
Ca17 O99 2.448222 1_555
Ca17 O57 2.487338 1_555
Ca17 O47 2.509857 1_555
Ca17 O48 2.520255 1_555
Ca17 O98 2.569938 1_555
Ca17 O67 2.627543 1_545
Ca17 O106 2.697691 1_545
Ca18 O72 2.354872 1_555
Ca18 O71 2.394736 1_555
Ca18 O52 2.398516 1_555
Ca18 O18 2.439805 1_555
Ca18 O54 2.498192 1_555
Ca18 O8 2.507864 1_555
Ca18 O11 2.658046 1_555
Ca18 O62 2.659123 1_555
Ca19 O58 2.277713 1_555
Ca19 O73 2.407432 1_555
Ca19 O110 2.448345 1_555
Ca19 O51 2.458189 1_555
Ca19 O74 2.509839 1_555
Ca19 O65 2.517861 1_555
Ca19 O75 2.571654 1_555
Ca19 O68 2.905095 1_555
Ca20 O62 2.317047 1_555
Ca20 O85 2.373652 1_555
Ca20 O74 2.515950 1_555
Ca20 O72 2.517565 1_555
Ca20 O80 2.524743 1_555
Ca20 O81 2.526388 1_655
Ca20 O66 2.553113 1_655
Ca20 O71 2.852291 1_555
Ca21 O87 2.323203 1_555
Ca21 O67 2.365101 1_555
Ca21 O109 2.413956 1_555
Ca21 O70 2.429187 1_455
Ca21 O75 2.500689 1_455
Ca21 O61 2.536937 1_555
Ca21 O80 2.564756 1_455
Ca21 O84 2.821350 1_555
Ca22 O76 2.337183 1_555
Ca22 O13 2.368154 1_555
Ca22 O17 2.447941 1_555
Ca22 O7 2.480878 1_655
Ca22 O63 2.526942 1_555
Ca22 O6 2.538347 1_655
Ca22 O29 2.542273 1_555
Ca22 O15 2.781810 1_555
Ca23 O77 2.350741 1_555
Ca23 O81 2.394699 1_555
Ca23 O8 2.418233 1_555
Ca23 O69 2.444605 1_555
Ca23 O64 2.456805 1_555
Ca23 O16 2.462487 1_555
Ca23 O66 2.643619 1_555
Ca23 O10 2.712234 1_555
Ca24 O89 2.349112 1_555
Ca24 O85 2.465834 1_555
Ca24 O86 2.471605 1_555
Ca24 O18 2.498827 1_555
Ca24 O31 2.519992 1_555
Ca24 O71 2.551696 1_555
Ca24 O39 2.645828 1_555
Ca24 O24 2.700921 1_555
Ca25 O27 2.437191 1_555
Ca25 O86 2.458852 1_555
Ca25 O20 2.493516 1_555
Ca25 O81 2.495529 1_655
Ca25 O85 2.502648 1_555
Ca25 O97 2.576005 1_555
Ca25 O16 2.626334 1_655
Ca25 O92 2.675766 1_655
Ca26 O36 2.341241 1_555
Ca26 O99 2.353287 1_555
Ca26 O98 2.450377 1_555
Ca26 O78 2.460251 1_555
Ca26 O90 2.465940 1_555
Ca26 O88 2.475374 1_555
Ca26 O89 2.670227 1_555
Ca26 O83 2.741256 1_555
Ca27 O43 2.383140 1_555
Ca27 O13 2.394371 1_555
Ca27 O86 2.534090 1_555
Ca27 O20 2.536336 1_555
Ca27 O29 2.537369 1_555
Ca27 O31 2.569113 1_555
Ca27 O28 2.630258 1_555
Ca27 O23 2.669095 1_555
Ca27 O76 2.998811 1_555
Ca28 O95 2.332262 1_555
Ca28 O2 2.404625 1_554
Ca28 O100 2.426048 1_555
Ca28 O88 2.471007 1_555
Ca28 O91 2.508077 1_555
Ca28 O79 2.512134 1_555
Ca28 O82 2.615454 1_555
Ca28 O93 2.766201 1_555
Ca29 O102 2.367760 1_555
Ca29 O33 2.368014 1_555
Ca29 O103 2.393073 1_555
Ca29 O90 2.462346 1_555
Ca29 O91 2.481186 1_555
Ca29 O92 2.560210 1_655
Ca29 O96 2.665704 1_655
Ca29 O97 2.735263 1_555
Ca30 O108 2.322534 1_555
Ca30 O19 2.396075 1_554
Ca30 O70 2.409408 1_455
Ca30 O7 2.435730 1_554
Ca30 O53 2.448115 1_455
Ca30 O101 2.499522 1_555
Ca30 O61 2.631209 1_555
Ca30 O12 2.743806 1_554
Ca31 O109 2.291962 1_555
Ca31 O65 2.379215 1_555
Ca31 O84 2.439566 1_555
Ca31 O69 2.481174 1_555
Ca31 O106 2.521106 1_555
Ca31 O52 2.532903 1_555
Ca31 O51 2.652963 1_555
Ca31 O67 2.707399 1_555
Ca32 O110 2.282845 1_555
Ca32 O26 2.405545 1_554
Ca32 O107 2.458257 1_555
Ca32 O68 2.472916 1_555
Ca32 O53 2.491210 1_555
Ca32 O17 2.535853 1_554
Ca32 O14 2.643083 1_554
Ca32 O58 2.649877 1_555
Ca33 O34 2.356244 1_554
Ca33 O70 2.437280 1_455
Ca33 O111 2.548391 1_555
Ca33 O30 2.555076 1_554
Ca33 O87 2.559188 1_555
Ca33 O19 2.563099 1_554
Ca33 O93 2.615859 1_455
Ca33 O79 2.644247 1_455
Ca34 O111 2.423447 1_555
Ca34 O82 2.429145 1_555
Ca34 O30 2.477169 1_554
Ca34 O26 2.507923 1_554
Ca34 O73 2.566912 1_555
Ca34 O38 2.610359 1_554
Ca34 O44 2.629759 1_554
Ca34 O68 2.652438 1_555
Ca35 O65 2.367857 1_555
Ca35 O96 2.395377 1_555
Ca35 O73 2.440641 1_555
Ca35 O84 2.515925 1_555
Ca35 O87 2.556224 1_555
Ca35 O111 2.578312 1_555
Ca35 O78 2.585739 1_555
Ca35 O83 2.597374 1_555
Mg0 O53 2.035068 1_445
Mg0 O7 2.078325 1_544
Mg0 O94 2.097090 1_555
Mg0 O105 2.103614 1_455
Mg0 O17 2.142290 1_444
Mg0 O59 2.150856 1_554
Mg1 O104 2.020553 1_555
Mg1 O52 2.049635 1_545
Mg1 O69 2.082930 1_545
Mg1 O60 2.089699 1_555
Mg1 O41 2.096130 1_555
Mg1 O8 2.101901 1_545
Mg2 O37 2.040246 1_555
Mg2 O35 2.044671 1_555
Mg2 O22 2.072637 1_555
Mg2 O21 2.075228 1_555
Mg2 O32 2.076688 1_555
Mg2 O25 2.082302 1_555
Mg3 O74 2.072700 1_555
Mg3 O80 2.083990 1_555
Mg3 O75 2.094419 1_555
Mg3 O91 2.120438 1_555
Mg3 O90 2.152412 1_555
Mg3 O88 2.159347 1_555
O0 P0 1.523039 1_555
O1 P0 1.477596 1_555
O2 P0 1.577882 1_555
O3 P1 1.552861 1_545
O4 P0 1.606350 1_555
O5 P2 1.521910 1_545
O6 P1 1.553539 1_555
O7 P1 1.527541 1_555
O8 P2 1.544341 1_555
O9 P3 1.553534 1_545
O10 P2 1.607020 1_555
O11 P2 1.508541 1_555
O12 P1 1.558324 1_555
O13 P4 1.600379 1_655
O14 P3 1.563157 1_555
O15 P3 1.622134 1_555
O16 P5 1.572617 1_555
O17 P3 1.501895 1_555
O18 P5 1.560170 1_555
O19 P4 1.573291 1_555
O20 P6 1.586472 1_555
O21 P4 1.564225 1_555
O22 P5 1.634800 1_555
O23 P4 1.602296 1_655
O24 P5 1.472512 1_555
O25 P7 1.502568 1_555
O26 P7 1.589339 1_555
O27 P6 1.579631 1_555
O28 P6 1.602655 1_555
O29 P7 1.556009 1_555
O30 P8 1.544099 1_555
O31 P9 1.573578 1_555
O32 P6 1.534701 1_455
O33 P10 1.518146 1_655
O34 P8 1.529509 1_555
O35 P8 1.646339 1_555
O36 P10 1.535676 1_555
O37 P9 1.595536 1_555
O38 P7 1.552284 1_555
O39 P9 1.559060 1_555
O40 P10 1.596537 1_555
O41 P11 1.515490 1_555
O42 P11 1.518531 1_555
O43 P9 1.550824 1_555
O44 P8 1.523645 1_555
O45 P11 1.577298 1_555
O46 P12 1.600926 1_545
O47 P10 1.518619 1_555
O48 P13 1.514696 1_445
O49 P14 1.607608 1_655
O50 P15 1.537500 1_555
O51 P12 1.588073 1_555
O52 P12 1.520241 1_555
O53 P13 1.571745 1_555
O54 P11 1.650885 1_565
O55 P15 1.473260 1_555
O56 P14 1.515099 1_555
O57 P16 1.458407 1_545
O58 P13 1.609670 1_555
O59 P14 1.488502 1_555
O60 P15 1.587655 1_555
O61 P13 1.539420 1_455
O62 P12 1.561417 1_555
O63 P14 1.543142 1_665
O64 P15 1.586704 1_565
O65 P17 1.566048 1_555
O66 P16 1.506602 1_555
O67 P16 1.563950 1_555
O68 P18 1.575461 1_555
O69 P16 1.594126 1_555
O70 P18 1.534363 1_555
O71 P17 1.551455 1_555
O72 P19 1.592006 1_555
O73 P20 1.612996 1_555
O74 P17 1.585961 1_555
O75 P18 1.530834 1_555
O76 P19 1.494419 1_555
O77 P19 1.563949 1_455
O78 P17 1.615294 1_555
O79 P18 1.613683 1_555
O80 P21 1.499961 1_655
O81 P21 1.578511 1_555
O82 P20 1.490452 1_555
O83 P20 1.579648 1_555
O84 P21 1.546074 1_555
O85 P22 1.580165 1_555
O86 P19 1.597637 1_555
O87 P23 1.581348 1_455
O88 P20 1.506597 1_555
O89 P22 1.534860 1_555
O90 P22 1.580310 1_555
O91 P23 1.487093 1_555
O92 P21 1.560238 1_555
O93 P23 1.604233 1_555
O94 P24 1.525508 1_555
O95 P24 1.537196 1_555
O96 P23 1.637417 1_455
O97 P22 1.546464 1_555
O98 P24 1.600940 1_555
O99 P25 1.549282 1_555
O100 P26 1.625915 1_555
O101 P24 1.570969 1_565
O102 P26 1.570146 1_555
O103 P25 1.592818 1_555
O104 P25 1.627513 1_555
O105 P26 1.549012 1_555
O106 P25 1.580126 1_565
O107 P26 1.558008 1_565
O108 P27 1.567310 1_555
O109 P27 1.630955 1_555
O110 P27 1.603608 1_555
O111 P27 1.524795 1_555
