# generated using pymatgen
data_WO3
_symmetry_space_group_name_H-M   'P 1'
_cell_length_a   7.30109800
_cell_length_b   7.44900605
_cell_length_c   10.24319145
_cell_angle_alpha   90.13587686
_cell_angle_beta   93.00423330
_cell_angle_gamma   93.50203487
_symmetry_Int_Tables_number   1
_chemical_formula_structural   WO3
_chemical_formula_sum   'W7 O21'
_cell_volume   555.27226775
_cell_formula_units_Z   7
loop_
 _symmetry_equiv_pos_site_id
 _symmetry_equiv_pos_as_xyz
  1  'x, y, z'
loop_
 _atom_site_type_symbol
 _atom_site_label
 _atom_site_symmetry_multiplicity
 _atom_site_fract_x
 _atom_site_fract_y
 _atom_site_fract_z
 _atom_site_occupancy
  W  W0  1  0.74965700  0.28077500  0.26872500  1
  W  W1  1  0.50208200  0.52026400  0.49592100  1
  W  W2  1  0.00105800  0.44331800  0.97543600  1
  W  W3  1  0.75274000  0.78595200  0.78101700  1
  W  W4  1  0.25088800  0.72541600  0.73215200  1
  W  W5  1  0.50470000  0.02013900  0.50938300  1
  W  W6  1  0.24597000  0.20982300  0.22899100  1
  O  O0  1  0.71437500  0.46448800  0.38209800  1
  O  O1  1  0.78880900  0.94817300  0.90315100  1
  O  O2  1  0.68458400  0.94750500  0.63776100  1
  O  O3  1  0.69071400  0.08373800  0.38281800  1
  O  O4  1  0.51289600  0.23874400  0.18950800  1
  O  O5  1  0.51080100  0.25864500  0.56264300  1
  O  O6  1  0.98878500  0.24762500  0.88488800  1
  O  O7  1  0.99978700  0.22534400  0.29643800  1
  O  O8  1  0.33675800  0.41937800  0.36723900  1
  O  O9  1  0.82497900  0.39681700  0.11347200  1
  O  O10  1  0.18670100  0.40875600  0.11195000  1
  O  O11  1  0.81960100  0.58630600  0.89297800  1
  O  O12  1  0.17992800  0.58625300  0.88031600  1
  O  O13  1  0.66272900  0.58053700  0.63911500  1
  O  O14  1  0.00129400  0.78380800  0.71532200  1
  O  O15  1  0.48452500  0.75467600  0.81517300  1
  O  O16  1  0.49631800  0.75846300  0.44243900  1
  O  O17  1  0.31612900  0.92994000  0.62746000  1
  O  O18  1  0.31918500  0.05682200  0.37480600  1
  O  O19  1  0.19130200  0.03608600  0.11705500  1
  O  O20  1  0.28270400  0.55221000  0.61044500  1
loop_
_geom_bond_atom_site_label_1
_geom_bond_atom_site_label_2
_geom_bond_distance
_geom_bond_site_symmetry_2
O0 W0 1.831556 1_555
O0 W1 2.049434 1_555
O1 W3 1.736108 1_555
O2 W5 1.912069 1_565
O2 W3 1.963178 1_555
O3 W0 1.920657 1_555
O3 W5 1.964303 1_555
O4 W0 1.878886 1_555
O4 W6 2.009911 1_555
O5 W5 1.854514 1_555
O5 W1 2.070239 1_555
O6 W2 1.721089 1_655
O7 W0 1.903813 1_555
O7 W6 1.968886 1_655
O8 W1 1.864632 1_555
O8 W6 2.155477 1_555
O9 W0 1.902298 1_555
O9 W2 1.977453 1_654
O10 W2 1.924684 1_554
O10 W6 1.962862 1_555
O11 W2 1.913749 1_655
O11 W3 1.950203 1_555
O12 W4 1.915882 1_555
O12 W2 1.938268 1_555
O13 W1 1.865712 1_555
O13 W3 2.156949 1_555
O14 W4 1.898417 1_555
O14 W3 1.969207 1_455
O15 W4 1.866041 1_555
O15 W3 2.006975 1_555
O16 W1 1.860512 1_555
O16 W5 2.061099 1_565
O17 W4 1.915876 1_555
O17 W5 1.968551 1_565
O18 W5 1.913318 1_555
O18 W6 1.953038 1_555
O19 W6 1.740895 1_555
O20 W4 1.825412 1_555
O20 W1 2.059224 1_555
