# generated using pymatgen
data_Cr(CO)6
_symmetry_space_group_name_H-M   'P 1'
_cell_length_a   6.20407855
_cell_length_b   10.86429383
_cell_length_c   11.50555702
_cell_angle_alpha   90.00000000
_cell_angle_beta   90.00000000
_cell_angle_gamma   90.00000000
_symmetry_Int_Tables_number   1
_chemical_formula_structural   Cr(CO)6
_chemical_formula_sum   'Cr4 C24 O24'
_cell_volume   775.50828103
_cell_formula_units_Z   4
loop_
 _symmetry_equiv_pos_site_id
 _symmetry_equiv_pos_as_xyz
  1  'x, y, z'
loop_
 _atom_site_type_symbol
 _atom_site_label
 _atom_site_symmetry_multiplicity
 _atom_site_fract_x
 _atom_site_fract_y
 _atom_site_fract_z
 _atom_site_occupancy
  Cr  Cr0  1  0.06091848  0.25000000  0.12779209  1
  Cr  Cr1  1  0.56091848  0.75000000  0.37220791  1
  Cr  Cr2  1  0.93908152  0.75000000  0.87220791  1
  Cr  Cr3  1  0.43908152  0.25000000  0.62779209  1
  C  C0  1  0.05736683  0.87444958  0.77604061  1
  C  C1  1  0.94263317  0.37444958  0.22395939  1
  C  C2  1  0.94263317  0.12555042  0.22395939  1
  C  C3  1  0.82271477  0.87269368  0.97049371  1
  C  C4  1  0.67728523  0.87269368  0.47049371  1
  C  C5  1  0.80403733  0.25000000  0.03929474  1
  C  C6  1  0.32271477  0.12730632  0.52950629  1
  C  C7  1  0.17728523  0.12730632  0.02950629  1
  C  C8  1  0.67728523  0.62730632  0.47049371  1
  C  C9  1  0.30403733  0.75000000  0.46070526  1
  C  C10  1  0.17728523  0.37269368  0.02950629  1
  C  C11  1  0.44263317  0.87444958  0.27604061  1
  C  C12  1  0.18417446  0.25000000  0.71772598  1
  C  C13  1  0.69596267  0.25000000  0.53929474  1
  C  C14  1  0.55736683  0.37444958  0.72395939  1
  C  C15  1  0.55736683  0.12555042  0.72395939  1
  C  C16  1  0.19596267  0.75000000  0.96070526  1
  C  C17  1  0.82271477  0.62730632  0.97049371  1
  C  C18  1  0.32271477  0.37269368  0.52950629  1
  C  C19  1  0.44263317  0.62555042  0.27604061  1
  C  C20  1  0.05736683  0.62555042  0.77604061  1
  C  C21  1  0.31582554  0.25000000  0.21772598  1
  C  C22  1  0.68417446  0.75000000  0.78227402  1
  C  C23  1  0.81582554  0.75000000  0.28227402  1
  O  O0  1  0.63025157  0.04910971  0.78079162  1
  O  O1  1  0.86974843  0.04910971  0.28079162  1
  O  O2  1  0.36974843  0.95089029  0.21920838  1
  O  O3  1  0.35346823  0.75000000  0.01359794  1
  O  O4  1  0.25381198  0.05280281  0.46885874  1
  O  O5  1  0.14653177  0.75000000  0.51359794  1
  O  O6  1  0.52875702  0.75000000  0.72737407  1
  O  O7  1  0.64653177  0.25000000  0.98640206  1
  O  O8  1  0.24618802  0.05280281  0.96885874  1
  O  O9  1  0.97124298  0.75000000  0.22737407  1
  O  O10  1  0.13025157  0.54910971  0.71920838  1
  O  O11  1  0.36974843  0.54910971  0.21920838  1
  O  O12  1  0.75381198  0.94719719  0.03114126  1
  O  O13  1  0.25381198  0.44719719  0.46885874  1
  O  O14  1  0.75381198  0.55280281  0.03114126  1
  O  O15  1  0.24618802  0.44719719  0.96885874  1
  O  O16  1  0.13025157  0.95089029  0.71920838  1
  O  O17  1  0.74618802  0.94719719  0.53114126  1
  O  O18  1  0.74618802  0.55280281  0.53114126  1
  O  O19  1  0.63025157  0.45089029  0.78079162  1
  O  O20  1  0.02875702  0.25000000  0.77262593  1
  O  O21  1  0.47124298  0.25000000  0.27262593  1
  O  O22  1  0.86974843  0.45089029  0.28079162  1
  O  O23  1  0.85346823  0.25000000  0.48640206  1
loop_
_geom_bond_atom_site_label_1
_geom_bond_atom_site_label_2
_geom_bond_distance
_geom_bond_site_symmetry_2
C0 O16 1.149663 1_555
C0 Cr2 1.894953 1_455
C1 O22 1.149663 1_555
C1 Cr0 1.894953 1_655
C2 O1 1.149663 1_555
C2 Cr0 1.894953 1_655
C3 O12 1.151006 1_556
C3 Cr2 1.891251 1_555
C4 O17 1.151006 1_555
C4 Cr1 1.891251 1_555
C5 O7 1.151182 1_554
C5 Cr0 1.891208 1_655
C6 O4 1.151006 1_555
C6 Cr3 1.891251 1_555
C7 O8 1.151006 1_554
C7 Cr0 1.891251 1_555
C8 O18 1.151006 1_555
C8 Cr1 1.891251 1_555
C9 O5 1.151182 1_555
C9 Cr1 1.891208 1_555
C10 O15 1.151006 1_554
C10 Cr0 1.891251 1_555
C11 O2 1.149663 1_555
C11 Cr1 1.894953 1_555
C12 O20 1.152697 1_555
C12 Cr3 1.889897 1_555
C13 O23 1.151182 1_555
C13 Cr3 1.891208 1_555
C14 O19 1.149663 1_555
C14 Cr3 1.894953 1_555
C15 O0 1.149663 1_555
C15 Cr3 1.894953 1_555
C16 O3 1.151182 1_556
C16 Cr2 1.891208 1_455
C17 O14 1.151006 1_556
C17 Cr2 1.891251 1_555
C18 O13 1.151006 1_555
C18 Cr3 1.891251 1_555
C19 O11 1.149663 1_555
C19 Cr1 1.894953 1_555
C20 O10 1.149663 1_555
C20 Cr2 1.894953 1_455
C21 O21 1.152697 1_555
C21 Cr0 1.889897 1_555
C22 O6 1.152697 1_555
C22 Cr2 1.889897 1_555
C23 O9 1.152697 1_555
C23 Cr1 1.889897 1_555
