# generated using pymatgen
data_Cd2SiO4
_symmetry_space_group_name_H-M   'P 1'
_cell_length_a   7.81921730
_cell_length_b   6.73449119
_cell_length_c   5.86719985
_cell_angle_alpha   76.35890132
_cell_angle_beta   56.82253168
_cell_angle_gamma   46.81856700
_symmetry_Int_Tables_number   1
_chemical_formula_structural   Cd2SiO4
_chemical_formula_sum   'Cd4 Si2 O8'
_cell_volume   183.63281194
_cell_formula_units_Z   2
loop_
 _symmetry_equiv_pos_site_id
 _symmetry_equiv_pos_as_xyz
  1  'x, y, z'
loop_
 _atom_site_type_symbol
 _atom_site_label
 _atom_site_symmetry_multiplicity
 _atom_site_fract_x
 _atom_site_fract_y
 _atom_site_fract_z
 _atom_site_occupancy
  Cd  Cd0  1  0.56189000  0.19014600  0.56807000  1
  Cd  Cd1  1  0.19032200  0.56494500  0.19367400  1
  Cd  Cd2  1  0.44660200  0.81080400  0.43170200  1
  Cd  Cd3  1  0.80590900  0.44862300  0.80867300  1
  Si  Si0  1  0.87927600  0.87778900  0.87559200  1
  Si  Si1  1  0.12554700  0.12035200  0.13290800  1
  O  O0  1  0.68285900  0.20816400  0.86196800  1
  O  O1  1  0.74794800  0.85979800  0.20076000  1
  O  O2  1  0.85619800  0.74186900  0.69566300  1
  O  O3  1  0.19918200  0.69094200  0.75354400  1
  O  O4  1  0.30251900  0.80333700  0.14797100  1
  O  O5  1  0.24894000  0.15441700  0.78762800  1
  O  O6  1  0.79528900  0.31449800  0.25147500  1
  O  O7  1  0.14966000  0.24325900  0.30393500  1
loop_
_geom_bond_atom_site_label_1
_geom_bond_atom_site_label_2
_geom_bond_distance
_geom_bond_site_symmetry_2
Cd0 O5 2.216952 1_555
Cd0 O6 2.264972 1_555
Cd0 O3 2.421671 1_555
Cd0 O0 2.433871 1_555
Cd0 O1 2.471967 1_545
Cd0 O2 2.506260 1_545
Cd1 O4 2.210457 1_555
Cd1 O7 2.295513 1_555
Cd1 O0 2.393880 1_554
Cd1 O2 2.427568 1_455
Cd1 O3 2.498870 1_554
Cd1 O1 2.527968 1_455
Cd2 O1 2.203581 1_555
Cd2 O3 2.319517 1_555
Cd2 O6 2.400586 1_555
Cd2 O5 2.440603 1_565
Cd2 O7 2.460749 1_565
Cd2 O4 2.492533 1_555
Cd3 O2 2.157352 1_555
Cd3 O0 2.282582 1_555
Cd3 O4 2.441488 1_556
Cd3 O7 2.457564 1_655
Cd3 O5 2.488939 1_655
Cd3 O6 2.516363 1_556
O0 Si0 1.639867 1_545
O1 Si0 1.620503 1_554
O2 Si0 1.695654 1_555
O3 Si0 1.584283 1_455
O4 Si1 1.575488 1_565
O5 Si1 1.741264 1_556
O6 Si1 1.644357 1_655
O7 Si1 1.593736 1_555
