# generated using pymatgen
data_Ag3Sn
_symmetry_space_group_name_H-M   'P 1'
_cell_length_a   4.77458099
_cell_length_b   5.21544277
_cell_length_c   6.05642530
_cell_angle_alpha   90.00000000
_cell_angle_beta   90.00000000
_cell_angle_gamma   90.00000000
_symmetry_Int_Tables_number   1
_chemical_formula_structural   Ag3Sn
_chemical_formula_sum   'Ag6 Sn2'
_cell_volume   150.81440107
_cell_formula_units_Z   2
loop_
 _symmetry_equiv_pos_site_id
 _symmetry_equiv_pos_as_xyz
  1  'x, y, z'
loop_
 _atom_site_type_symbol
 _atom_site_label
 _atom_site_symmetry_multiplicity
 _atom_site_fract_x
 _atom_site_fract_y
 _atom_site_fract_z
 _atom_site_occupancy
  Ag  Ag0  1  0.75000000  0.32454198  0.25000000  1
  Ag  Ag1  1  0.25000000  0.67545802  0.75000000  1
  Ag  Ag2  1  0.25000000  0.16449661  0.50137190  1
  Ag  Ag3  1  0.75000000  0.83550339  0.49862810  1
  Ag  Ag4  1  0.25000000  0.16449661  0.99862810  1
  Ag  Ag5  1  0.75000000  0.83550339  0.00137190  1
  Sn  Sn0  1  0.25000000  0.66961496  0.25000000  1
  Sn  Sn1  1  0.75000000  0.33038504  0.75000000  1
loop_
_geom_bond_atom_site_label_1
_geom_bond_atom_site_label_2
_geom_bond_distance
_geom_bond_site_symmetry_2
Ag0 Ag2 2.951888 1_655
Ag0 Ag2 2.951888 1_555
Ag0 Ag4 2.951888 1_654
Ag0 Ag4 2.951888 1_554
Ag0 Ag3 2.961882 1_545
Ag0 Ag5 2.961882 1_545
Ag0 Sn0 2.989667 1_555
Ag0 Sn0 2.989667 1_655
Ag0 Sn1 3.028366 1_554
Ag0 Sn1 3.028366 1_555
Ag0 Ag3 3.060893 1_555
Ag0 Ag5 3.060893 1_555
Ag1 Ag5 2.951888 1_556
Ag1 Ag5 2.951888 1_456
Ag1 Ag3 2.951888 1_555
Ag1 Ag3 2.951888 1_455
Ag1 Ag4 2.961882 1_565
Ag1 Ag2 2.961882 1_565
Ag1 Sn1 2.989667 1_555
Ag1 Sn1 2.989667 1_455
Ag1 Sn0 3.028366 1_555
Ag1 Sn0 3.028366 1_556
Ag1 Ag4 3.060893 1_555
Ag1 Ag2 3.060893 1_555
Ag2 Ag3 2.939993 1_545
Ag2 Ag3 2.939993 1_445
Ag2 Sn1 2.952138 1_455
Ag2 Sn1 2.952138 1_555
Ag2 Sn0 2.996573 1_545
Ag2 Ag4 3.011595 1_555
Ag2 Sn0 3.042679 1_555
Ag2 Ag4 3.044830 1_554
Ag3 Sn0 2.952138 1_555
Ag3 Sn0 2.952138 1_655
Ag3 Sn1 2.996573 1_565
Ag3 Ag5 3.011595 1_555
Ag3 Sn1 3.042679 1_555
Ag3 Ag5 3.044830 1_556
Ag4 Ag5 2.939993 1_546
Ag4 Ag5 2.939993 1_446
Ag4 Sn1 2.952138 1_555
Ag4 Sn1 2.952138 1_455
Ag4 Sn0 2.996573 1_546
Ag4 Sn0 3.042679 1_556
Ag5 Sn0 2.952138 1_555
Ag5 Sn0 2.952138 1_655
Ag5 Sn1 2.996573 1_564
Ag5 Sn1 3.042679 1_554
