# generated using pymatgen
data_Y2AlNi2
_symmetry_space_group_name_H-M   'P 1'
_cell_length_a   5.37305831
_cell_length_b   5.37305831
_cell_length_c   5.37305831
_cell_angle_alpha   134.34056573
_cell_angle_beta   119.92975301
_cell_angle_gamma   78.58817402
_symmetry_Int_Tables_number   1
_chemical_formula_structural   Y2AlNi2
_chemical_formula_sum   'Y2 Al1 Ni2'
_cell_volume   93.25412889
_cell_formula_units_Z   1
loop_
 _symmetry_equiv_pos_site_id
 _symmetry_equiv_pos_as_xyz
  1  'x, y, z'
loop_
 _atom_site_type_symbol
 _atom_site_label
 _atom_site_symmetry_multiplicity
 _atom_site_fract_x
 _atom_site_fract_y
 _atom_site_fract_z
 _atom_site_occupancy
  Y  Y0  1  0.70320797  0.20320797  0.50000000  1
  Y  Y1  1  0.29679203  0.79679203  0.50000000  1
  Al  Al0  1  -0.00000000  0.00000000  -0.00000000  1
  Ni  Ni0  1  0.26787804  0.50000000  0.76787804  1
  Ni  Ni1  1  0.73212196  0.50000000  0.23212196  1
loop_
_geom_bond_atom_site_label_1
_geom_bond_atom_site_label_2
_geom_bond_distance
_geom_bond_site_symmetry_2
Al0 Ni0 2.534183 1_544
Al0 Ni1 2.534183 1_455
Al0 Ni0 2.534183 1_555
Al0 Ni1 2.534183 1_444
Al0 Y1 3.176285 1_444
Al0 Y1 3.176285 1_545
Al0 Y0 3.176285 1_555
Al0 Y0 3.176285 1_454
Al0 Y0 3.230845 1_444
Al0 Y1 3.230845 1_544
Al0 Y1 3.230845 1_555
Al0 Y0 3.230845 1_455
Ni0 Ni1 2.497058 1_556
Ni0 Y0 2.858039 1_455
Ni0 Y1 2.858039 1_555
Ni0 Y0 2.959876 1_555
Ni0 Y0 2.959876 1_566
Ni0 Y1 2.959876 1_545
Ni0 Y1 2.959876 1_556
Ni1 Y0 2.858039 1_555
Ni1 Y1 2.858039 1_655
Ni1 Y0 2.959876 1_565
Ni1 Y1 2.959876 1_544
Ni1 Y0 2.959876 1_554
Ni1 Y1 2.959876 1_555
