# generated using pymatgen
data_P(HO)3
_symmetry_space_group_name_H-M   'P 1'
_cell_length_a   7.53575300
_cell_length_b   6.96328100
_cell_length_c   13.99434384
_cell_angle_alpha   60.46872073
_cell_angle_beta   90.00000000
_cell_angle_gamma   90.00000000
_symmetry_Int_Tables_number   1
_chemical_formula_structural   P(HO)3
_chemical_formula_sum   'P8 H24 O24'
_cell_volume   638.93351054
_cell_formula_units_Z   8
loop_
 _symmetry_equiv_pos_site_id
 _symmetry_equiv_pos_as_xyz
  1  'x, y, z'
loop_
 _atom_site_type_symbol
 _atom_site_label
 _atom_site_symmetry_multiplicity
 _atom_site_fract_x
 _atom_site_fract_y
 _atom_site_fract_z
 _atom_site_occupancy
  P  P0  1  0.77211800  0.40285800  0.61894300  1
  P  P1  1  0.73730900  0.17167600  0.36418000  1
  P  P2  1  0.22788200  0.40285800  0.11894300  1
  P  P3  1  0.26269100  0.17167600  0.86418000  1
  P  P4  1  0.70175400  0.56796400  0.89519100  1
  P  P5  1  0.83006600  0.81891000  0.12778700  1
  P  P6  1  0.29824600  0.56796400  0.39519100  1
  P  P7  1  0.16993400  0.81891000  0.62778700  1
  H  H0  1  0.47918800  0.43636900  0.54534600  1
  H  H1  1  0.46544500  0.23598100  0.68656200  1
  H  H2  1  0.01982800  0.13279800  0.31524500  1
  H  H3  1  0.52081200  0.43636900  0.04534600  1
  H  H4  1  0.53455500  0.23598100  0.18656200  1
  H  H5  1  0.98017200  0.13279800  0.81524500  1
  H  H6  1  0.79639800  0.01854800  0.72842300  1
  H  H7  1  0.67968100  0.95565200  0.28132500  1
  H  H8  1  0.20360200  0.01854800  0.22842300  1
  H  H9  1  0.32031900  0.95565200  0.78132500  1
  H  H10  1  0.95559600  0.47900200  0.47954800  1
  H  H11  1  0.76822900  0.87598200  0.52632800  1
  H  H12  1  0.04440400  0.47900200  0.97954800  1
  H  H13  1  0.23177100  0.87598200  0.02632800  1
  H  H14  1  0.80719200  0.70509900  0.72651400  1
  H  H15  1  0.71320800  0.59229300  0.29374300  1
  H  H16  1  0.19280800  0.70509900  0.22651400  1
  H  H17  1  0.28679200  0.59229300  0.79374300  1
  H  H18  1  0.71527300  0.22309800  0.92912600  1
  H  H19  1  0.82438200  0.58542100  0.05920700  1
  H  H20  1  0.28472700  0.22309800  0.42912600  1
  H  H21  1  0.17561800  0.58542100  0.55920700  1
  H  H22  1  0.55391600  0.94635500  0.04697200  1
  H  H23  1  0.44608400  0.94635500  0.54697200  1
  O  O0  1  0.54597900  0.32786900  0.61348300  1
  O  O1  1  0.93325800  0.06880300  0.37754100  1
  O  O2  1  0.45402100  0.32786900  0.11348300  1
  O  O3  1  0.06674200  0.06880300  0.87754100  1
  O  O4  1  0.82606700  0.16747800  0.72206900  1
  O  O5  1  0.63784800  0.09415800  0.28015300  1
  O  O6  1  0.17393300  0.16747800  0.22206900  1
  O  O7  1  0.36215200  0.09415800  0.78015300  1
  O  O8  1  0.82808000  0.40226100  0.51019500  1
  O  O9  1  0.66951000  0.97720200  0.48698200  1
  O  O10  1  0.17192000  0.40226100  0.01019500  1
  O  O11  1  0.33049000  0.97720200  0.98698200  1
  O  O12  1  0.74012800  0.76932800  0.76461600  1
  O  O13  1  0.74790400  0.75010300  0.25119900  1
  O  O14  1  0.25987200  0.76932800  0.26461600  1
  O  O15  1  0.25209600  0.75010300  0.75119900  1
  O  O16  1  0.72550500  0.37365700  0.86314800  1
  O  O17  1  0.78021000  0.59335500  0.12801700  1
  O  O18  1  0.27449500  0.37365700  0.36314800  1
  O  O19  1  0.21979000  0.59335500  0.62801700  1
  O  O20  1  0.87118900  0.56416400  0.96164000  1
  O  O21  1  0.67815100  0.99536300  0.04722300  1
  O  O22  1  0.12881100  0.56416400  0.46164000  1
  O  O23  1  0.32184900  0.99536300  0.54722300  1
loop_
_geom_bond_atom_site_label_1
_geom_bond_atom_site_label_2
_geom_bond_distance
_geom_bond_site_symmetry_2
H0 O0 1.011525 1_555
H1 O0 1.085605 1_555
H1 O7 1.421799 1_555
H2 O1 1.000607 1_455
H2 O6 1.672354 1_555
H3 O2 1.011525 1_555
H4 O2 1.085605 1_555
H4 O5 1.421799 1_555
H5 O3 1.000607 1_655
H5 O4 1.672354 1_555
H6 O4 1.021002 1_555
H6 O12 1.606685 1_545
H7 O5 1.007090 1_565
H8 O6 1.021002 1_555
H8 O14 1.606685 1_545
H9 O7 1.007090 1_565
H10 O8 1.080254 1_555
H10 O22 1.404202 1_655
H11 O9 0.985292 1_555
H12 O10 1.080254 1_556
H12 O20 1.404202 1_455
H13 O11 0.985292 1_554
H14 O12 0.987340 1_555
H15 O13 0.992678 1_555
H16 O14 0.987340 1_555
H17 O15 0.992678 1_555
H18 O16 1.001663 1_555
H18 O21 1.655525 1_546
H19 O17 1.045740 1_555
H19 O20 1.486552 1_554
H20 O18 1.001663 1_555
H20 O23 1.655525 1_545
H21 O19 1.045740 1_555
H21 O22 1.486552 1_555
H22 O21 0.997060 1_555
H23 O23 0.997060 1_555
O0 P0 1.794960 1_555
O1 P1 1.611358 1_555
O2 P2 1.794960 1_555
O3 P3 1.611358 1_555
O4 P0 1.613265 1_555
O5 P1 1.691624 1_555
O6 P2 1.613265 1_555
O7 P3 1.691624 1_555
O8 P0 1.581185 1_555
O9 P1 1.659531 1_565
O10 P2 1.581185 1_555
O11 P3 1.659531 1_565
O12 P4 1.692024 1_555
O13 P5 1.667319 1_555
O14 P6 1.692024 1_555
O15 P7 1.667319 1_555
O16 P4 1.631523 1_555
O17 P5 1.613373 1_555
O18 P6 1.631523 1_555
O19 P7 1.613373 1_555
O20 P4 1.572084 1_555
O21 P5 1.650986 1_555
O22 P6 1.572084 1_555
O23 P7 1.650986 1_555
