# generated using pymatgen
data_AlP3(NCl3)3
_symmetry_space_group_name_H-M   'P 1'
_cell_length_a   11.02806000
_cell_length_b   12.03436500
_cell_length_c   12.32055700
_cell_angle_alpha   90.00000000
_cell_angle_beta   90.00000000
_cell_angle_gamma   90.00000000
_symmetry_Int_Tables_number   1
_chemical_formula_structural   AlP3(NCl3)3
_chemical_formula_sum   'Al4 P12 N12 Cl36'
_cell_volume   1635.13133780
_cell_formula_units_Z   4
loop_
 _symmetry_equiv_pos_site_id
 _symmetry_equiv_pos_as_xyz
  1  'x, y, z'
loop_
 _atom_site_type_symbol
 _atom_site_label
 _atom_site_symmetry_multiplicity
 _atom_site_fract_x
 _atom_site_fract_y
 _atom_site_fract_z
 _atom_site_occupancy
  Al  Al0  1  0.10214000  0.84538500  0.00000000  1
  Al  Al1  1  0.60214000  0.15461500  0.50000000  1
  Al  Al2  1  0.56996900  0.59601500  0.00000000  1
  Al  Al3  1  0.06996900  0.40398500  0.50000000  1
  P  P0  1  0.95941600  0.34182500  0.00000000  1
  P  P1  1  0.03324600  0.96785100  0.50000000  1
  P  P2  1  0.82336700  0.02630600  0.38401600  1
  P  P3  1  0.82336700  0.02630600  0.61598400  1
  P  P4  1  0.80075900  0.48172800  0.11628300  1
  P  P5  1  0.32336700  0.97369400  0.88401600  1
  P  P6  1  0.45941600  0.65817500  0.50000000  1
  P  P7  1  0.32336700  0.97369400  0.11598400  1
  P  P8  1  0.30075900  0.51827200  0.61628300  1
  P  P9  1  0.80075900  0.48172800  0.88371700  1
  P  P10  1  0.30075900  0.51827200  0.38371700  1
  P  P11  1  0.53324600  0.03214900  0.00000000  1
  N  N0  1  0.96265100  0.99700900  0.60931700  1
  N  N1  1  0.46265100  0.00299100  0.10931700  1
  N  N2  1  0.23168700  0.48535600  0.50000000  1
  N  N3  1  0.46265100  0.00299100  0.89068300  1
  N  N4  1  0.96265100  0.99700900  0.39068300  1
  N  N5  1  0.75716800  0.06525000  0.50000000  1
  N  N6  1  0.90153700  0.38866400  0.10938000  1
  N  N7  1  0.73168700  0.51464400  0.00000000  1
  N  N8  1  0.25716800  0.93475000  0.00000000  1
  N  N9  1  0.40153700  0.61133600  0.60938000  1
  N  N10  1  0.40153700  0.61133600  0.39062000  1
  N  N11  1  0.90153700  0.38866400  0.89062000  1
  Cl  Cl0  1  0.99957900  0.89051800  0.85976600  1
  Cl  Cl1  1  0.06354800  0.30273800  0.35814800  1
  Cl  Cl2  1  0.49957900  0.10948200  0.35976600  1
  Cl  Cl3  1  0.23046900  0.10252900  0.82246700  1
  Cl  Cl4  1  0.17476700  0.56649200  0.72141900  1
  Cl  Cl5  1  0.86899100  0.62025900  0.81857800  1
  Cl  Cl6  1  0.19502200  0.04070800  0.50000000  1
  Cl  Cl7  1  0.56354800  0.69726200  0.85814800  1
  Cl  Cl8  1  0.79929200  0.14675700  0.72337900  1
  Cl  Cl9  1  0.56354800  0.69726200  0.14185200  1
  Cl  Cl10  1  0.43741000  0.46614300  0.00000000  1
  Cl  Cl11  1  0.99957900  0.89051800  0.14023400  1
  Cl  Cl12  1  0.73046900  0.89747100  0.32246700  1
  Cl  Cl13  1  0.69502200  0.95929200  0.00000000  1
  Cl  Cl14  1  0.36899100  0.37974100  0.68142200  1
  Cl  Cl15  1  0.67476700  0.43350800  0.22141900  1
  Cl  Cl16  1  0.49957900  0.10948200  0.64023400  1
  Cl  Cl17  1  0.36899100  0.37974100  0.31857800  1
  Cl  Cl18  1  0.67476700  0.43350800  0.77858100  1
  Cl  Cl19  1  0.29929200  0.85324300  0.22337900  1
  Cl  Cl20  1  0.23046900  0.10252900  0.17753300  1
  Cl  Cl21  1  0.86899100  0.62025900  0.18142200  1
  Cl  Cl22  1  0.79929200  0.14675700  0.27662100  1
  Cl  Cl23  1  0.17476700  0.56649200  0.27858100  1
  Cl  Cl24  1  0.63904400  0.63229600  0.50000000  1
  Cl  Cl25  1  0.44896300  0.82477000  0.50000000  1
  Cl  Cl26  1  0.93741000  0.53385700  0.50000000  1
  Cl  Cl27  1  0.07563800  0.80431500  0.50000000  1
  Cl  Cl28  1  0.57563800  0.19568500  0.00000000  1
  Cl  Cl29  1  0.06354800  0.30273800  0.64185200  1
  Cl  Cl30  1  0.29929200  0.85324300  0.77662100  1
  Cl  Cl31  1  0.94896300  0.17523000  0.00000000  1
  Cl  Cl32  1  0.73046900  0.89747100  0.67753300  1
  Cl  Cl33  1  0.15635500  0.67524100  0.00000000  1
  Cl  Cl34  1  0.65635500  0.32475900  0.50000000  1
  Cl  Cl35  1  0.13904400  0.36770400  0.00000000  1
loop_
_geom_bond_atom_site_label_1
_geom_bond_atom_site_label_2
_geom_bond_distance
_geom_bond_site_symmetry_2
Al0 N8 2.019784 1_555
Al0 Cl33 2.133080 1_555
Al0 Cl11 2.135284 1_455
Al0 Cl0 2.135284 1_454
Al1 N5 2.019784 1_555
Al1 Cl34 2.133080 1_555
Al1 Cl16 2.135284 1_555
Al1 Cl2 2.135284 1_555
Al2 N7 2.034593 1_555
Al2 Cl9 2.131680 1_555
Al2 Cl7 2.131680 1_554
Al2 Cl10 2.140047 1_555
Al3 N2 2.034593 1_555
Al3 Cl29 2.131680 1_555
Al3 Cl1 2.131680 1_555
Al3 Cl26 2.140047 1_455
N0 P3 1.578116 1_565
N0 P1 1.594750 1_655
N1 P7 1.578116 1_545
N1 P11 1.594750 1_555
N2 P8 1.670238 1_555
N2 P10 1.670238 1_555
N3 P5 1.578116 1_545
N3 P11 1.594750 1_556
N4 P2 1.578116 1_565
N4 P1 1.594750 1_655
N5 P3 1.671712 1_555
N5 P2 1.671712 1_555
N6 P4 1.580106 1_555
N6 P0 1.594126 1_555
N7 P4 1.670238 1_555
N7 P9 1.670238 1_554
N8 P7 1.671712 1_555
N8 P5 1.671712 1_554
N9 P8 1.580106 1_555
N9 P6 1.594126 1_555
N10 P10 1.580106 1_555
N10 P6 1.594126 1_555
N11 P9 1.580106 1_555
N11 P0 1.594126 1_556
Cl3 P5 2.007113 1_545
Cl4 P8 1.986252 1_555
Cl5 P9 1.997404 1_555
Cl6 P1 1.987884 1_545
Cl8 P3 1.980520 1_555
Cl12 P2 2.007113 1_565
Cl13 P11 1.987884 1_565
Cl14 P8 1.997404 1_555
Cl15 P4 1.986252 1_555
Cl17 P10 1.997404 1_555
Cl18 P9 1.986252 1_555
Cl19 P7 1.980520 1_555
Cl20 P7 2.007113 1_545
Cl21 P4 1.997404 1_555
Cl22 P2 1.980520 1_555
Cl23 P10 1.986252 1_555
Cl24 P6 2.005280 1_555
Cl25 P6 2.008176 1_555
Cl27 P1 2.022816 1_555
Cl28 P11 2.022816 1_555
Cl30 P5 1.980520 1_555
Cl31 P0 2.008176 1_555
Cl32 P3 2.007113 1_565
Cl35 P0 2.005280 1_455
