# generated using pymatgen
data_BaYbAl2Si2N5O2
_symmetry_space_group_name_H-M   'P 1'
_cell_length_a   6.06950100
_cell_length_b   7.52104667
_cell_length_c   8.11251648
_cell_angle_alpha   92.36232991
_cell_angle_beta   93.58763638
_cell_angle_gamma   111.60880049
_symmetry_Int_Tables_number   1
_chemical_formula_structural   BaYbAl2Si2N5O2
_chemical_formula_sum   'Ba2 Yb2 Al4 Si4 N10 O4'
_cell_volume   342.80173609
_cell_formula_units_Z   2
loop_
 _symmetry_equiv_pos_site_id
 _symmetry_equiv_pos_as_xyz
  1  'x, y, z'
loop_
 _atom_site_type_symbol
 _atom_site_label
 _atom_site_symmetry_multiplicity
 _atom_site_fract_x
 _atom_site_fract_y
 _atom_site_fract_z
 _atom_site_occupancy
  Ba  Ba0  1  0.35018500  0.59264700  0.75202000  1
  Ba  Ba1  1  0.69662900  0.33847100  0.19350700  1
  Yb  Yb0  1  0.33467300  0.74876500  0.38886600  1
  Yb  Yb1  1  0.77079300  0.41469400  0.78704200  1
  Al  Al0  1  0.73033700  0.91639900  0.06780800  1
  Al  Al1  1  0.15238400  0.29012200  0.02902800  1
  Al  Al2  1  0.09955500  0.76308600  0.06501300  1
  Al  Al3  1  0.80033200  0.69325800  0.46799000  1
  Si  Si0  1  0.37752500  0.01914900  0.70427500  1
  Si  Si1  1  0.77143600  0.08530000  0.47160200  1
  Si  Si2  1  0.31963900  0.26999400  0.43915800  1
  Si  Si3  1  0.87708700  0.95005400  0.78288800  1
  N  N0  1  0.70091700  0.87640900  0.59016300  1
  N  N1  1  0.84251300  0.75632700  0.90177600  1
  N  N2  1  0.13175300  0.07486800  0.68852500  1
  N  N3  1  0.08393500  0.20273600  0.57610900  1
  N  N4  1  0.84618700  0.12360200  0.92309300  1
  N  N5  1  0.02576100  0.96967900  0.18771800  1
  N  N6  1  0.99372800  0.79564200  0.28686500  1
  N  N7  1  0.52013600  0.16211100  0.54363400  1
  N  N8  1  0.48606800  0.50481400  0.42651300  1
  N  N9  1  0.18640100  0.17233100  0.23827700  1
  O  O0  1  0.42972100  0.35324600  0.94150900  1
  O  O1  1  0.42499100  0.83799100  0.10814100  1
  O  O2  1  0.06389500  0.50452800  0.01855100  1
  O  O3  1  0.98342000  0.58377500  0.56112900  1
loop_
_geom_bond_atom_site_label_1
_geom_bond_atom_site_label_2
_geom_bond_distance
_geom_bond_site_symmetry_2
Ba0 O0 2.571691 1_555
Ba0 O3 2.609351 1_455
Ba0 O2 2.806070 1_556
Ba0 N0 2.836402 1_555
Ba0 N8 2.935953 1_555
Ba0 N1 2.938309 1_555
Ba0 N3 3.020557 1_555
Ba0 Si0 3.191486 1_565
Ba0 O1 3.276721 1_556
Ba1 O0 2.559864 1_554
Ba1 O2 2.652334 1_655
Ba1 N8 2.838411 1_555
Al0 O1 1.782236 1_555
Al0 N5 1.882110 1_655
Al0 N4 1.936058 1_564
Al0 N1 2.076539 1_554
Al1 O0 1.775313 1_554
Al1 O2 1.881358 1_555
Al1 N4 1.938565 1_454
Al1 N9 1.980891 1_555
Al2 O1 1.849055 1_555
Al2 O2 1.894691 1_555
Al2 N1 1.966646 1_454
Al2 N6 1.983913 1_455
Al2 N5 2.011634 1_555
Al3 O3 1.761816 1_555
Al3 N8 1.910352 1_555
Al3 N6 1.942491 1_555
Al3 N0 1.954069 1_555
N0 Si3 1.782631 1_555
N0 Si1 1.804831 1_565
N0 Yb0 2.524763 1_555
N1 Si3 1.735850 1_555
N1 Yb1 2.566356 1_555
N2 N3 1.444147 1_555
N2 Si0 1.690603 1_555
N2 Si3 1.730617 1_445
N3 Si2 1.802530 1_555
N3 Si1 1.897251 1_455
N4 Si3 1.765562 1_545
N4 Yb1 2.663565 1_555
N5 N9 1.498598 1_565
N5 N6 1.522169 1_455
N6 Yb0 2.332042 1_655
N7 Si0 1.781816 1_555
N7 Si2 1.874159 1_555
N7 Si1 1.932449 1_555
N7 Yb1 2.647400 1_555
N8 Si2 1.692310 1_555
N8 Yb0 2.357296 1_555
N9 Si2 1.774303 1_555
O0 Yb1 2.395223 1_555
O1 Yb0 2.438978 1_555
O2 Yb1 2.395949 1_454
O3 Yb1 2.433286 1_555
O3 Yb0 2.570066 1_655
