# generated using pymatgen
data_Na2La2Ti3O10
_symmetry_space_group_name_H-M   'P 1'
_cell_length_a   14.69641334
_cell_length_b   14.69641334
_cell_length_c   14.69641334
_cell_angle_alpha   164.86303529
_cell_angle_beta   164.86303529
_cell_angle_gamma   21.47009583
_symmetry_Int_Tables_number   1
_chemical_formula_structural   Na2La2Ti3O10
_chemical_formula_sum   'Na2 La2 Ti3 O10'
_cell_volume   216.40687743
_cell_formula_units_Z   1
loop_
 _symmetry_equiv_pos_site_id
 _symmetry_equiv_pos_as_xyz
  1  'x, y, z'
loop_
 _atom_site_type_symbol
 _atom_site_label
 _atom_site_symmetry_multiplicity
 _atom_site_fract_x
 _atom_site_fract_y
 _atom_site_fract_z
 _atom_site_occupancy
  Na  Na0  1  0.71177800  0.71177800  0.00000000  1
  Na  Na1  1  0.28822200  0.28822200  0.00000000  1
  La  La0  1  0.57527700  0.57527700  0.00000000  1
  La  La1  1  0.42472300  0.42472300  0.00000000  1
  Ti  Ti0  1  0.85219600  0.85219600  0.00000000  1
  Ti  Ti1  1  0.14780400  0.14780400  0.00000000  1
  Ti  Ti2  1  0.00000000  0.00000000  0.00000000  1
  O  O0  1  0.36674700  0.86674700  0.50000000  1
  O  O1  1  0.86674700  0.36674700  0.50000000  1
  O  O2  1  0.63325300  0.13325300  0.50000000  1
  O  O3  1  0.13325300  0.63325300  0.50000000  1
  O  O4  1  0.79138100  0.79138100  0.00000000  1
  O  O5  1  0.20861900  0.20861900  0.00000000  1
  O  O6  1  0.50000000  0.00000000  0.50000000  1
  O  O7  1  0.06734300  0.06734300  0.00000000  1
  O  O8  1  0.93265700  0.93265700  0.00000000  1
  O  O9  1  0.00000000  0.50000000  0.50000000  1
loop_
_geom_bond_atom_site_label_1
_geom_bond_atom_site_label_2
_geom_bond_distance
_geom_bond_site_symmetry_2
Na0 O4 2.298809 1_555
Na0 O5 2.738986 1_666
Na0 O5 2.738986 1_554
Na0 O5 2.738986 1_655
Na0 O5 2.738986 1_565
Na1 O5 2.298809 1_555
Na1 O4 2.738986 1_545
Na1 O4 2.738986 1_455
Na1 O4 2.738986 1_444
Na1 O4 2.738986 1_556
La0 O3 2.559295 1_655
La0 O2 2.559295 1_565
La0 O3 2.559295 1_554
La0 O2 2.559295 1_554
La0 O7 2.747038 1_565
La0 O7 2.747038 1_655
La0 O7 2.747038 1_666
La0 O7 2.747038 1_554
La0 O9 2.910777 1_655
La0 O6 2.910777 1_565
La0 O9 2.910777 1_554
La0 O6 2.910777 1_554
La1 O0 2.559295 1_555
La1 O1 2.559295 1_555
La1 O1 2.559295 1_454
La1 O0 2.559295 1_544
La1 O8 2.747038 1_556
La1 O8 2.747038 1_444
La1 O8 2.747038 1_545
La1 O8 2.747038 1_455
La1 O6 2.910777 1_565
La1 O9 2.910777 1_655
La1 O9 2.910777 1_554
La1 O6 2.910777 1_554
O0 Ti0 1.980767 1_556
O0 Ti0 1.980767 1_455
O1 Ti0 1.980767 1_556
O1 Ti0 1.980767 1_545
O2 Ti1 1.980767 1_656
O2 Ti1 1.980767 1_555
O3 Ti1 1.980767 1_566
O3 Ti1 1.980767 1_555
O4 Ti0 1.756241 1_555
O5 Ti1 1.756241 1_555
O6 Ti2 1.935681 1_555
O6 Ti2 1.935681 1_656
O7 Ti2 1.944760 1_555
O7 Ti1 2.323587 1_555
O8 Ti2 1.944760 1_665
O8 Ti0 2.323587 1_555
O9 Ti2 1.935681 1_555
O9 Ti2 1.935681 1_566
