# generated using pymatgen
data_Rb2Cr4O13
_symmetry_space_group_name_H-M   'P 1'
_cell_length_a   7.79620100
_cell_length_b   9.61212700
_cell_length_c   17.85599535
_cell_angle_alpha   88.04689279
_cell_angle_beta   90.00000000
_cell_angle_gamma   90.00000000
_symmetry_Int_Tables_number   1
_chemical_formula_structural   Rb2Cr4O13
_chemical_formula_sum   'Rb8 Cr16 O52'
_cell_volume   1337.31654432
_cell_formula_units_Z   4
loop_
 _symmetry_equiv_pos_site_id
 _symmetry_equiv_pos_as_xyz
  1  'x, y, z'
loop_
 _atom_site_type_symbol
 _atom_site_label
 _atom_site_symmetry_multiplicity
 _atom_site_fract_x
 _atom_site_fract_y
 _atom_site_fract_z
 _atom_site_occupancy
  Rb  Rb0  1  0.66525400  0.82184700  0.93084800  1
  Rb  Rb1  1  0.33474600  0.17815300  0.06915200  1
  Rb  Rb2  1  0.35892300  0.18400400  0.57523500  1
  Rb  Rb3  1  0.64107700  0.81599600  0.42476500  1
  Rb  Rb4  1  0.16525400  0.67815300  0.06915200  1
  Rb  Rb5  1  0.85892300  0.31599600  0.42476500  1
  Rb  Rb6  1  0.83474600  0.32184700  0.93084800  1
  Rb  Rb7  1  0.14107700  0.68400400  0.57523500  1
  Cr  Cr0  1  0.13826100  0.31923700  0.75122100  1
  Cr  Cr1  1  0.86173900  0.68076300  0.24877900  1
  Cr  Cr2  1  0.31541400  0.44043000  0.91176600  1
  Cr  Cr3  1  0.36173900  0.81923700  0.75122100  1
  Cr  Cr4  1  0.63826100  0.18076300  0.24877900  1
  Cr  Cr5  1  0.31375500  0.46034600  0.41735300  1
  Cr  Cr6  1  0.81375500  0.03965400  0.58264700  1
  Cr  Cr7  1  0.68865700  0.59239700  0.75401000  1
  Cr  Cr8  1  0.18865700  0.90760300  0.24599000  1
  Cr  Cr9  1  0.81134300  0.09239700  0.75401000  1
  Cr  Cr10  1  0.81541400  0.05957000  0.08823400  1
  Cr  Cr11  1  0.18624500  0.96034600  0.41735300  1
  Cr  Cr12  1  0.31134300  0.40760300  0.24599000  1
  Cr  Cr13  1  0.68458600  0.55957000  0.08823400  1
  Cr  Cr14  1  0.18458600  0.94043000  0.91176600  1
  Cr  Cr15  1  0.68624500  0.53965400  0.58264700  1
  O  O0  1  0.18585200  0.42455400  0.98356100  1
  O  O1  1  0.57455600  0.75171000  0.76230100  1
  O  O2  1  0.59550000  0.40604300  0.08961500  1
  O  O3  1  0.82318100  0.57936300  0.82223200  1
  O  O4  1  0.92544400  0.25171000  0.76230100  1
  O  O5  1  0.90450000  0.90604300  0.08961500  1
  O  O6  1  0.85116200  0.87330900  0.58709600  1
  O  O7  1  0.99203500  0.12733200  0.57685300  1
  O  O8  1  0.05725100  0.03568800  0.24092800  1
  O  O9  1  0.31047800  0.92193400  0.48873400  1
  O  O10  1  0.96057700  0.18057500  0.08084100  1
  O  O11  1  0.46057700  0.31942500  0.91915900  1
  O  O12  1  0.07455600  0.74829000  0.23769900  1
  O  O13  1  0.67681900  0.07936300  0.82223200  1
  O  O14  1  0.14883800  0.12669100  0.41290400  1
  O  O15  1  0.31414800  0.92455400  0.98356100  1
  O  O16  1  0.17681900  0.42063700  0.17776800  1
  O  O17  1  0.55725100  0.46431200  0.75907200  1
  O  O18  1  0.72864700  0.80681900  0.25505000  1
  O  O19  1  0.40450000  0.59395700  0.91038500  1
  O  O20  1  0.22864700  0.69318100  0.74495000  1
  O  O21  1  0.77135300  0.30681900  0.25505000  1
  O  O22  1  0.31719100  0.91822200  0.82763000  1
  O  O23  1  0.18952200  0.42193400  0.48873400  1
  O  O24  1  0.68585200  0.07544600  0.01643900  1
  O  O25  1  0.42544400  0.24829000  0.23769900  1
  O  O26  1  0.81047800  0.57806600  0.51126600  1
  O  O27  1  0.27135300  0.19318100  0.74495000  1
  O  O28  1  0.79875200  0.58783300  0.66955200  1
  O  O29  1  0.00796500  0.87266800  0.42314700  1
  O  O30  1  0.68280900  0.08177800  0.17237000  1
  O  O31  1  0.49203500  0.37266800  0.42314700  1
  O  O32  1  0.85246200  0.58861400  0.32557000  1
  O  O33  1  0.94274900  0.96431200  0.75907200  1
  O  O34  1  0.14753800  0.41138600  0.67443000  1
  O  O35  1  0.18280900  0.41822200  0.82763000  1
  O  O36  1  0.81719100  0.58177800  0.17237000  1
  O  O37  1  0.35246200  0.91138600  0.67443000  1
  O  O38  1  0.32318100  0.92063700  0.17776800  1
  O  O39  1  0.64753800  0.08861400  0.32557000  1
  O  O40  1  0.44274900  0.53568800  0.24092800  1
  O  O41  1  0.64883800  0.37330900  0.58709600  1
  O  O42  1  0.35116200  0.62669100  0.41290400  1
  O  O43  1  0.50796500  0.62733200  0.57685300  1
  O  O44  1  0.03942300  0.81942500  0.91915900  1
  O  O45  1  0.53942300  0.68057500  0.08084100  1
  O  O46  1  0.09550000  0.09395700  0.91038500  1
  O  O47  1  0.29875200  0.91216700  0.33044800  1
  O  O48  1  0.70124800  0.08783300  0.66955200  1
  O  O49  1  0.68952200  0.07806600  0.51126600  1
  O  O50  1  0.81414800  0.57544600  0.01643900  1
  O  O51  1  0.20124800  0.41216700  0.33044800  1
loop_
_geom_bond_atom_site_label_1
_geom_bond_atom_site_label_2
_geom_bond_distance
_geom_bond_site_symmetry_2
Cr0 O27 1.602049 1_555
Cr0 O34 1.608455 1_555
Cr0 O35 1.725065 1_555
Cr0 O4 1.790116 1_455
Cr1 O18 1.602049 1_555
Cr1 O32 1.608455 1_555
Cr1 O36 1.725065 1_555
Cr1 O12 1.790116 1_655
Cr2 O11 1.624989 1_555
Cr2 O19 1.630416 1_555
Cr2 O0 1.635141 1_555
Cr2 O35 1.842065 1_555
Cr3 O20 1.602049 1_555
Cr3 O37 1.608455 1_555
Cr3 O22 1.725065 1_555
Cr3 O1 1.790116 1_555
Cr4 O21 1.602049 1_555
Cr4 O39 1.608455 1_555
Cr4 O30 1.725065 1_555
Cr4 O25 1.790116 1_555
Cr5 O42 1.624585 1_555
Cr5 O31 1.626919 1_555
Cr5 O23 1.633058 1_555
Cr5 O51 1.854941 1_555
Cr6 O6 1.624585 1_545
Cr6 O7 1.626919 1_555
Cr6 O49 1.633058 1_555
Cr6 O48 1.854941 1_555
Cr7 O17 1.601841 1_555
Cr7 O3 1.609089 1_555
Cr7 O28 1.737084 1_555
Cr7 O1 1.781480 1_555
Cr8 O8 1.601841 1_565
Cr8 O38 1.609089 1_555
Cr8 O47 1.737084 1_555
Cr8 O12 1.781480 1_555
Cr9 O33 1.601841 1_545
Cr9 O13 1.609089 1_555
Cr9 O48 1.737084 1_555
Cr9 O4 1.781480 1_555
Cr10 O10 1.624989 1_555
Cr10 O5 1.630416 1_545
Cr10 O24 1.635141 1_555
Cr10 O30 1.842065 1_555
Cr11 O14 1.624585 1_565
Cr11 O29 1.626919 1_555
Cr11 O9 1.633058 1_555
Cr11 O47 1.854941 1_555
Cr12 O40 1.601841 1_555
Cr12 O16 1.609089 1_555
Cr12 O51 1.737084 1_555
Cr12 O25 1.781480 1_555
Cr13 O45 1.624989 1_555
Cr13 O2 1.630416 1_555
Cr13 O50 1.635141 1_555
Cr13 O36 1.842065 1_555
Cr14 O44 1.624989 1_555
Cr14 O46 1.630416 1_565
Cr14 O15 1.635141 1_555
Cr14 O22 1.842065 1_555
Cr15 O41 1.624585 1_555
Cr15 O43 1.626919 1_555
Cr15 O26 1.633058 1_555
Cr15 O28 1.854941 1_555
O0 Rb4 2.925318 1_556
O0 Rb1 3.007653 1_556
O0 Rb6 3.068661 1_455
O1 Rb0 3.185958 1_555
O2 Rb1 3.019774 1_555
O2 Rb6 3.511021 1_554
O3 Rb6 3.093436 1_555
O3 Rb0 3.319349 1_555
O4 Rb6 3.185958 1_555
O5 Rb4 3.019774 1_655
O5 Rb0 3.511021 1_554
O6 Rb7 2.913901 1_655
O6 Rb3 3.390680 1_555
O7 Rb2 2.911701 1_655
O7 Rb5 3.377107 1_555
O9 Rb3 3.010641 1_555
O9 Rb7 3.019855 1_555
O9 Rb2 3.023101 1_565
O10 Rb1 2.924703 1_655
O10 Rb6 3.119548 1_554
O11 Rb6 2.924703 1_555
O11 Rb1 3.119548 1_556
O12 Rb4 3.185958 1_555
O13 Rb0 3.093436 1_545
O13 Rb6 3.319349 1_555
O14 Rb5 2.913901 1_455
O14 Rb2 3.390680 1_555
O15 Rb1 2.925318 1_566
O15 Rb4 3.007653 1_556
O15 Rb0 3.068661 1_555
O16 Rb4 3.093436 1_555
O16 Rb1 3.319349 1_555
O18 Rb3 3.110564 1_555
O19 Rb0 3.019774 1_555
O19 Rb4 3.511021 1_556
O20 Rb7 3.110564 1_555
O21 Rb5 3.110564 1_555
O22 Rb0 3.391476 1_555
O23 Rb5 3.010641 1_455
O23 Rb2 3.019855 1_555
O23 Rb7 3.023101 1_555
O24 Rb0 2.925318 1_544
O24 Rb6 3.007653 1_554
O24 Rb1 3.068661 1_555
O25 Rb1 3.185958 1_555
O26 Rb7 3.010641 1_655
O26 Rb3 3.019855 1_555
O26 Rb5 3.023101 1_555
O27 Rb2 3.110564 1_555
O28 Rb7 3.272211 1_655
O29 Rb3 2.911701 1_455
O29 Rb7 3.377107 1_555
O30 Rb1 3.391476 1_555
O31 Rb5 2.911701 1_555
O31 Rb2 3.377107 1_555
O32 Rb5 3.112893 1_555
O32 Rb3 3.300602 1_555
O34 Rb7 3.112893 1_555
O34 Rb2 3.300602 1_555
O35 Rb6 3.391476 1_455
O36 Rb4 3.391476 1_655
O37 Rb2 3.112893 1_565
O37 Rb7 3.300602 1_555
O38 Rb1 3.093436 1_565
O38 Rb4 3.319349 1_555
O39 Rb3 3.112893 1_545
O39 Rb5 3.300602 1_555
O41 Rb2 2.913901 1_555
O41 Rb5 3.390680 1_555
O42 Rb3 2.913901 1_555
O42 Rb7 3.390680 1_555
O43 Rb7 2.911701 1_555
O43 Rb3 3.377107 1_555
O44 Rb0 2.924703 1_455
O44 Rb4 3.119548 1_556
O45 Rb4 2.924703 1_555
O45 Rb0 3.119548 1_554
O46 Rb6 3.019774 1_455
O46 Rb1 3.511021 1_556
O47 Rb3 3.272211 1_555
O48 Rb2 3.272211 1_555
O49 Rb2 3.010641 1_555
O49 Rb5 3.019855 1_555
O49 Rb3 3.023101 1_545
O50 Rb6 2.925318 1_554
O50 Rb0 3.007653 1_554
O50 Rb4 3.068661 1_655
O51 Rb5 3.272211 1_455
