# generated using pymatgen
data_K2Mn2(MoO4)3
_symmetry_space_group_name_H-M   'P 1'
_cell_length_a   10.89456100
_cell_length_b   12.48128800
_cell_length_c   18.35198000
_cell_angle_alpha   90.00000000
_cell_angle_beta   90.00000000
_cell_angle_gamma   90.00000000
_symmetry_Int_Tables_number   1
_chemical_formula_structural   K2Mn2(MoO4)3
_chemical_formula_sum   'K16 Mn16 Mo24 O96'
_cell_volume   2495.46835300
_cell_formula_units_Z   8
loop_
 _symmetry_equiv_pos_site_id
 _symmetry_equiv_pos_as_xyz
  1  'x, y, z'
loop_
 _atom_site_type_symbol
 _atom_site_label
 _atom_site_symmetry_multiplicity
 _atom_site_fract_x
 _atom_site_fract_y
 _atom_site_fract_z
 _atom_site_occupancy
  K  K0  1  0.25000000  0.50000000  0.94395500  1
  K  K1  1  0.00000000  0.49658000  0.75000000  1
  K  K2  1  0.27456400  0.15120100  0.46206000  1
  K  K3  1  0.27456400  0.84879900  0.96206000  1
  K  K4  1  0.77456400  0.15120100  0.53794000  1
  K  K5  1  0.22543600  0.15120100  0.96206000  1
  K  K6  1  0.75000000  0.50000000  0.55604500  1
  K  K7  1  0.25000000  0.50000000  0.44395500  1
  K  K8  1  0.00000000  0.50342000  0.25000000  1
  K  K9  1  0.50000000  0.49658000  0.25000000  1
  K  K10  1  0.72543600  0.15120100  0.03794000  1
  K  K11  1  0.50000000  0.50342000  0.75000000  1
  K  K12  1  0.22543600  0.84879900  0.46206000  1
  K  K13  1  0.75000000  0.50000000  0.05604500  1
  K  K14  1  0.72543600  0.84879900  0.53794000  1
  K  K15  1  0.77456400  0.84879900  0.03794000  1
  Mn  Mn0  1  0.00000000  0.83309600  0.25000000  1
  Mn  Mn1  1  0.50000000  0.83309600  0.75000000  1
  Mn  Mn2  1  0.75000000  0.00000000  0.71424900  1
  Mn  Mn3  1  0.08448100  0.32431200  0.09704000  1
  Mn  Mn4  1  0.00000000  0.16690400  0.75000000  1
  Mn  Mn5  1  0.25000000  0.00000000  0.78575100  1
  Mn  Mn6  1  0.41551900  0.67568800  0.09704000  1
  Mn  Mn7  1  0.50000000  0.16690400  0.25000000  1
  Mn  Mn8  1  0.08448100  0.67568800  0.59704000  1
  Mn  Mn9  1  0.58448100  0.67568800  0.40296000  1
  Mn  Mn10  1  0.58448100  0.32431200  0.90296000  1
  Mn  Mn11  1  0.75000000  0.00000000  0.21424900  1
  Mn  Mn12  1  0.25000000  0.00000000  0.28575100  1
  Mn  Mn13  1  0.41551900  0.32431200  0.59704000  1
  Mn  Mn14  1  0.91551900  0.32431200  0.40296000  1
  Mn  Mn15  1  0.91551900  0.67568800  0.90296000  1
  Mo  Mo0  1  0.21978300  0.69956700  0.79522700  1
  Mo  Mo1  1  0.42405300  0.35651500  0.08711300  1
  Mo  Mo2  1  0.78021700  0.69956700  0.70477300  1
  Mo  Mo3  1  0.54709600  0.02279600  0.88408600  1
  Mo  Mo4  1  0.28021700  0.30043300  0.79522700  1
  Mo  Mo5  1  0.54709600  0.97720400  0.38408600  1
  Mo  Mo6  1  0.07594700  0.35651500  0.58711300  1
  Mo  Mo7  1  0.92405300  0.35651500  0.91288700  1
  Mo  Mo8  1  0.07594700  0.64348500  0.08711300  1
  Mo  Mo9  1  0.42405300  0.64348500  0.58711300  1
  Mo  Mo10  1  0.95290400  0.02279600  0.38408600  1
  Mo  Mo11  1  0.04709600  0.02279600  0.11591400  1
  Mo  Mo12  1  0.57594700  0.35651500  0.41288700  1
  Mo  Mo13  1  0.04709600  0.97720400  0.61591400  1
  Mo  Mo14  1  0.57594700  0.64348500  0.91288700  1
  Mo  Mo15  1  0.21978300  0.30043300  0.29522700  1
  Mo  Mo16  1  0.71978300  0.69956700  0.20477300  1
  Mo  Mo17  1  0.28021700  0.69956700  0.29522700  1
  Mo  Mo18  1  0.92405300  0.64348500  0.41288700  1
  Mo  Mo19  1  0.95290400  0.97720400  0.88408600  1
  Mo  Mo20  1  0.45290400  0.97720400  0.11591400  1
  Mo  Mo21  1  0.45290400  0.02279600  0.61591400  1
  Mo  Mo22  1  0.71978300  0.30043300  0.70477300  1
  Mo  Mo23  1  0.78021700  0.30043300  0.20477300  1
  O  O0  1  0.05925000  0.50124400  0.10152500  1
  O  O1  1  0.77270900  0.66274400  0.45023700  1
  O  O2  1  0.80339100  0.17255400  0.70231900  1
  O  O3  1  0.39225000  0.02563000  0.20307100  1
  O  O4  1  0.03625500  0.68294500  0.47942000  1
  O  O5  1  0.39272900  0.84730600  0.09464200  1
  O  O6  1  0.61802300  0.97500300  0.12615400  1
  O  O7  1  0.93877100  0.71635500  0.32837700  1
  O  O8  1  0.46374500  0.31705500  0.47942000  1
  O  O9  1  0.67588100  0.40241600  0.18045500  1
  O  O10  1  0.60671000  0.30148400  0.63316100  1
  O  O11  1  0.80339100  0.82744600  0.20231900  1
  O  O12  1  0.89272900  0.15269400  0.40535800  1
  O  O13  1  0.82411900  0.40241600  0.68045500  1
  O  O14  1  0.64877000  0.66914300  0.29073000  1
  O  O15  1  0.55925000  0.49875600  0.39847500  1
  O  O16  1  0.08886500  0.06878400  0.54682000  1
  O  O17  1  0.53625500  0.31705500  0.02058000  1
  O  O18  1  0.96374500  0.31705500  0.52058000  1
  O  O19  1  0.56122900  0.71635500  0.82837700  1
  O  O20  1  0.41113500  0.93121600  0.54682000  1
  O  O21  1  0.32411900  0.59758400  0.81954500  1
  O  O22  1  0.39329000  0.30148400  0.86683900  1
  O  O23  1  0.58886500  0.06878400  0.45318000  1
  O  O24  1  0.96374500  0.68294500  0.02058000  1
  O  O25  1  0.03625500  0.31705500  0.97942000  1
  O  O26  1  0.85123000  0.66914300  0.79073000  1
  O  O27  1  0.91113500  0.06878400  0.95318000  1
  O  O28  1  0.60727100  0.15269400  0.90535800  1
  O  O29  1  0.17588100  0.59758400  0.31954500  1
  O  O30  1  0.22729100  0.33725600  0.54976300  1
  O  O31  1  0.64877000  0.33085700  0.79073000  1
  O  O32  1  0.32411900  0.40241600  0.31954500  1
  O  O33  1  0.88197700  0.02499700  0.12615400  1
  O  O34  1  0.19660900  0.82744600  0.29768100  1
  O  O35  1  0.38197700  0.97500300  0.37384600  1
  O  O36  1  0.17588100  0.40241600  0.81954500  1
  O  O37  1  0.19660900  0.17255400  0.79768100  1
  O  O38  1  0.06122900  0.71635500  0.17162300  1
  O  O39  1  0.89329000  0.30148400  0.13316100  1
  O  O40  1  0.10775000  0.97437000  0.20307100  1
  O  O41  1  0.72729100  0.33725600  0.45023700  1
  O  O42  1  0.53625500  0.68294500  0.52058000  1
  O  O43  1  0.10671000  0.30148400  0.36683900  1
  O  O44  1  0.88197700  0.97500300  0.62615400  1
  O  O45  1  0.89329000  0.69851600  0.63316100  1
  O  O46  1  0.06122900  0.28364500  0.67162300  1
  O  O47  1  0.35123000  0.33085700  0.70927000  1
  O  O48  1  0.10727100  0.15269400  0.09464200  1
  O  O49  1  0.91113500  0.93121600  0.45318000  1
  O  O50  1  0.94075000  0.50124400  0.39847500  1
  O  O51  1  0.60727100  0.84730600  0.40535800  1
  O  O52  1  0.58886500  0.93121600  0.95318000  1
  O  O53  1  0.14877000  0.33085700  0.20927000  1
  O  O54  1  0.72729100  0.66274400  0.95023700  1
  O  O55  1  0.39329000  0.69851600  0.36683900  1
  O  O56  1  0.41113500  0.06878400  0.04682000  1
  O  O57  1  0.77270900  0.33725600  0.95023700  1
  O  O58  1  0.93877100  0.28364500  0.82837700  1
  O  O59  1  0.30339100  0.82744600  0.79768100  1
  O  O60  1  0.10727100  0.84730600  0.59464200  1
  O  O61  1  0.89225000  0.02563000  0.79692900  1
  O  O62  1  0.30339100  0.17255400  0.29768100  1
  O  O63  1  0.11802300  0.02499700  0.37384600  1
  O  O64  1  0.14877000  0.66914300  0.70927000  1
  O  O65  1  0.43877100  0.28364500  0.17162300  1
  O  O66  1  0.46374500  0.68294500  0.97942000  1
  O  O67  1  0.27270900  0.33725600  0.04976300  1
  O  O68  1  0.60775000  0.97437000  0.79692900  1
  O  O69  1  0.08886500  0.93121600  0.04682000  1
  O  O70  1  0.39225000  0.97437000  0.70307100  1
  O  O71  1  0.44075000  0.49875600  0.10152500  1
  O  O72  1  0.44075000  0.50124400  0.60152500  1
  O  O73  1  0.55925000  0.50124400  0.89847500  1
  O  O74  1  0.60671000  0.69851600  0.13316100  1
  O  O75  1  0.39272900  0.15269400  0.59464200  1
  O  O76  1  0.60775000  0.02563000  0.29692900  1
  O  O77  1  0.69660900  0.82744600  0.70231900  1
  O  O78  1  0.94075000  0.49875600  0.89847500  1
  O  O79  1  0.11802300  0.97500300  0.87384600  1
  O  O80  1  0.10671000  0.69851600  0.86683900  1
  O  O81  1  0.27270900  0.66274400  0.54976300  1
  O  O82  1  0.85123000  0.33085700  0.29073000  1
  O  O83  1  0.69660900  0.17255400  0.20231900  1
  O  O84  1  0.05925000  0.49875600  0.60152500  1
  O  O85  1  0.82411900  0.59758400  0.18045500  1
  O  O86  1  0.10775000  0.02563000  0.70307100  1
  O  O87  1  0.38197700  0.02499700  0.87384600  1
  O  O88  1  0.89272900  0.84730600  0.90535800  1
  O  O89  1  0.22729100  0.66274400  0.04976300  1
  O  O90  1  0.35123000  0.66914300  0.20927000  1
  O  O91  1  0.67588100  0.59758400  0.68045500  1
  O  O92  1  0.43877100  0.71635500  0.67162300  1
  O  O93  1  0.56122900  0.28364500  0.32837700  1
  O  O94  1  0.61802300  0.02499700  0.62615400  1
  O  O95  1  0.89225000  0.97437000  0.29692900  1
loop_
_geom_bond_atom_site_label_1
_geom_bond_atom_site_label_2
_geom_bond_distance
_geom_bond_site_symmetry_2
K0 O21 2.710788 1_555
K0 O36 2.710788 1_555
K0 O89 2.820946 1_556
K0 O67 2.820946 1_556
K1 O36 2.584924 1_555
K1 O13 2.584924 1_455
K1 O64 2.797240 1_555
K1 O26 2.797240 1_455
K1 O78 2.800358 1_455
K1 O84 2.800358 1_555
K1 O58 3.094717 1_455
K1 O46 3.094717 1_555
K2 O16 2.751501 1_555
K2 O75 2.752783 1_555
K2 O63 2.830301 1_555
K2 O30 2.872012 1_555
K2 O8 2.938469 1_555
K2 O35 2.970965 1_545
K2 O62 3.044671 1_555
K2 O43 3.149001 1_555
K3 O69 2.751501 1_556
K3 O5 2.752783 1_556
K3 O79 2.830301 1_555
K3 O89 2.872012 1_556
K3 O66 2.938469 1_555
K3 O87 2.970965 1_565
K3 O59 3.044671 1_555
K3 O80 3.149001 1_555
K4 O23 2.751501 1_555
K4 O12 2.752783 1_555
K4 O94 2.830301 1_555
K4 O41 2.872012 1_555
K4 O18 2.938469 1_555
K4 O44 2.970965 1_545
K4 O2 3.044671 1_555
K4 O10 3.149001 1_555
K5 O56 2.751501 1_556
K5 O48 2.752783 1_556
K5 O87 2.830301 1_555
K5 O67 2.872012 1_556
K5 O25 2.938469 1_555
K5 O79 2.970965 1_545
K5 O37 3.044671 1_555
K5 O22 3.149001 1_555
K6 O13 2.710788 1_555
K6 O91 2.710788 1_555
K6 O41 2.820946 1_555
K6 O1 2.820946 1_555
K7 O32 2.710788 1_555
K7 O29 2.710788 1_555
K7 O30 2.820946 1_555
K7 O81 2.820946 1_555
K8 O29 2.584924 1_555
K8 O85 2.584924 1_455
K8 O82 2.797240 1_455
K8 O53 2.797240 1_555
K8 O50 2.800358 1_455
K8 O0 2.800358 1_555
K8 O38 3.094717 1_555
K8 O7 3.094717 1_455
K9 O32 2.584924 1_555
K9 O9 2.584924 1_555
K9 O90 2.797240 1_555
K9 O14 2.797240 1_555
K9 O15 2.800358 1_555
K9 O71 2.800358 1_555
K9 O93 3.094717 1_555
K9 O65 3.094717 1_555
K10 O27 2.751501 1_554
K10 O28 2.752783 1_554
K10 O33 2.830301 1_555
K10 O57 2.872012 1_554
K10 O17 2.938469 1_555
K10 O6 2.970965 1_545
K10 O83 3.044671 1_555
K10 O39 3.149001 1_555
K11 O21 2.584924 1_555
K11 O91 2.584924 1_555
K11 O47 2.797240 1_555
K11 O31 2.797240 1_555
K11 O73 2.800358 1_555
K11 O72 2.800358 1_555
K11 O19 3.094717 1_555
K11 O92 3.094717 1_555
K12 O20 2.751501 1_555
K12 O60 2.752783 1_555
K12 O35 2.830301 1_555
K12 O81 2.872012 1_555
K12 O4 2.938469 1_555
K12 O63 2.970965 1_565
K12 O34 3.044671 1_555
K12 O55 3.149001 1_555
K13 O85 2.710788 1_555
K13 O9 2.710788 1_555
K13 O54 2.820946 1_554
K13 O57 2.820946 1_554
K14 O49 2.751501 1_555
K14 O51 2.752783 1_555
K14 O44 2.830301 1_555
K14 O1 2.872012 1_555
K14 O42 2.938469 1_555
K14 O94 2.970965 1_565
K14 O77 3.044671 1_555
K14 O45 3.149001 1_555
K15 O52 2.751501 1_554
K15 O88 2.752783 1_554
K15 O6 2.830301 1_555
K15 O54 2.872012 1_554
K15 O24 2.938469 1_555
K15 O33 2.970965 1_565
K15 O11 3.044671 1_555
K15 O74 3.149001 1_555
Mn0 O38 2.153362 1_555
Mn0 O7 2.153362 1_455
Mn0 O95 2.286681 1_455
Mn0 O40 2.286681 1_555
Mn0 O34 2.314886 1_555
Mn0 O11 2.314886 1_455
Mn1 O19 2.153362 1_555
Mn1 O92 2.153362 1_555
Mn1 O70 2.286681 1_555
Mn1 O68 2.286681 1_555
Mn1 O77 2.314886 1_555
Mn1 O59 2.314886 1_555
Mn2 O94 2.185973 1_555
Mn2 O44 2.185973 1_545
Mn2 O68 2.192348 1_545
Mn2 O61 2.192348 1_555
Mn2 O2 2.241581 1_555
Mn2 O77 2.241581 1_545
Mn3 O48 2.156805 1_555
Mn3 O53 2.177008 1_555
Mn3 O39 2.204372 1_455
Mn3 O25 2.223428 1_554
Mn3 O0 2.226903 1_555
Mn3 O67 2.232507 1_555
Mn4 O58 2.153362 1_455
Mn4 O46 2.153362 1_555
Mn4 O61 2.286681 1_455
Mn4 O86 2.286681 1_555
Mn4 O37 2.314886 1_555
Mn4 O2 2.314886 1_455
Mn5 O87 2.185973 1_555
Mn5 O79 2.185973 1_545
Mn5 O86 2.192348 1_555
Mn5 O70 2.192348 1_545
Mn5 O37 2.241581 1_555
Mn5 O59 2.241581 1_545
Mn6 O5 2.156805 1_555
Mn6 O90 2.177008 1_555
Mn6 O74 2.204372 1_555
Mn6 O66 2.223428 1_554
Mn6 O71 2.226903 1_555
Mn6 O89 2.232507 1_555
Mn7 O93 2.153362 1_555
Mn7 O65 2.153362 1_555
Mn7 O3 2.286681 1_555
Mn7 O76 2.286681 1_555
Mn7 O83 2.314886 1_555
Mn7 O62 2.314886 1_555
Mn8 O60 2.156805 1_555
Mn8 O64 2.177008 1_555
Mn8 O45 2.204372 1_455
Mn8 O4 2.223428 1_555
Mn8 O84 2.226903 1_555
Mn8 O81 2.232507 1_555
Mn9 O51 2.156805 1_555
Mn9 O14 2.177008 1_555
Mn9 O55 2.204372 1_555
Mn9 O42 2.223428 1_555
Mn9 O15 2.226903 1_555
Mn9 O1 2.232507 1_555
Mn10 O28 2.156805 1_555
Mn10 O31 2.177008 1_555
Mn10 O22 2.204372 1_555
Mn10 O17 2.223428 1_556
Mn10 O73 2.226903 1_555
Mn10 O57 2.232507 1_555
Mn11 O33 2.185973 1_555
Mn11 O6 2.185973 1_545
Mn11 O76 2.192348 1_555
Mn11 O95 2.192348 1_545
Mn11 O83 2.241581 1_555
Mn11 O11 2.241581 1_545
Mn12 O35 2.185973 1_545
Mn12 O63 2.185973 1_555
Mn12 O40 2.192348 1_545
Mn12 O3 2.192348 1_555
Mn12 O62 2.241581 1_555
Mn12 O34 2.241581 1_545
Mn13 O75 2.156805 1_555
Mn13 O47 2.177008 1_555
Mn13 O10 2.204372 1_555
Mn13 O8 2.223428 1_555
Mn13 O72 2.226903 1_555
Mn13 O30 2.232507 1_555
Mn14 O12 2.156805 1_555
Mn14 O82 2.177008 1_555
Mn14 O43 2.204372 1_655
Mn14 O18 2.223428 1_555
Mn14 O50 2.226903 1_555
Mn14 O41 2.232507 1_555
Mn15 O88 2.156805 1_555
Mn15 O26 2.177008 1_555
Mn15 O80 2.204372 1_655
Mn15 O24 2.223428 1_556
Mn15 O78 2.226903 1_555
Mn15 O54 2.232507 1_555
Mo0 O21 1.763935 1_555
Mo0 O64 1.797550 1_555
Mo0 O80 1.801355 1_555
Mo0 O59 1.838270 1_555
Mo1 O17 1.796574 1_555
Mo1 O67 1.801734 1_555
Mo1 O71 1.804138 1_555
Mo1 O65 1.805074 1_555
Mo2 O91 1.763935 1_555
Mo2 O26 1.797550 1_555
Mo2 O45 1.801355 1_555
Mo2 O77 1.838270 1_555
Mo3 O52 1.766766 1_545
Mo3 O28 1.791865 1_555
Mo3 O87 1.808897 1_555
Mo3 O68 1.833136 1_545
Mo4 O36 1.763935 1_555
Mo4 O47 1.797550 1_555
Mo4 O22 1.801355 1_555
Mo4 O37 1.838270 1_555
Mo5 O23 1.766766 1_565
Mo5 O51 1.791865 1_555
Mo5 O35 1.808897 1_555
Mo5 O76 1.833136 1_565
Mo6 O18 1.796574 1_455
Mo6 O30 1.801734 1_555
Mo6 O84 1.804138 1_555
Mo6 O46 1.805074 1_555
Mo7 O25 1.796574 1_655
Mo7 O57 1.801734 1_555
Mo7 O78 1.804138 1_555
Mo7 O58 1.805074 1_555
Mo8 O24 1.796574 1_455
Mo8 O89 1.801734 1_555
Mo8 O0 1.804138 1_555
Mo8 O38 1.805074 1_555
Mo9 O42 1.796574 1_555
Mo9 O81 1.801734 1_555
Mo9 O72 1.804138 1_555
Mo9 O92 1.805074 1_555
Mo10 O49 1.766766 1_545
Mo10 O12 1.791865 1_555
Mo10 O63 1.808897 1_655
Mo10 O95 1.833136 1_545
Mo11 O69 1.766766 1_545
Mo11 O48 1.791865 1_555
Mo11 O33 1.808897 1_455
Mo11 O40 1.833136 1_545
Mo12 O8 1.796574 1_555
Mo12 O41 1.801734 1_555
Mo12 O15 1.804138 1_555
Mo12 O93 1.805074 1_555
Mo13 O16 1.766766 1_565
Mo13 O60 1.791865 1_555
Mo13 O44 1.808897 1_455
Mo13 O86 1.833136 1_565
Mo14 O66 1.796574 1_555
Mo14 O54 1.801734 1_555
Mo14 O73 1.804138 1_555
Mo14 O19 1.805074 1_555
Mo15 O32 1.763935 1_555
Mo15 O53 1.797550 1_555
Mo15 O43 1.801355 1_555
Mo15 O62 1.838270 1_555
Mo16 O85 1.763935 1_555
Mo16 O14 1.797550 1_555
Mo16 O74 1.801355 1_555
Mo16 O11 1.838270 1_555
Mo17 O29 1.763935 1_555
Mo17 O90 1.797550 1_555
Mo17 O55 1.801355 1_555
Mo17 O34 1.838270 1_555
Mo18 O4 1.796574 1_655
Mo18 O1 1.801734 1_555
Mo18 O50 1.804138 1_555
Mo18 O7 1.805074 1_555
Mo19 O27 1.766766 1_565
Mo19 O88 1.791865 1_555
Mo19 O79 1.808897 1_655
Mo19 O61 1.833136 1_565
Mo20 O56 1.766766 1_565
Mo20 O5 1.791865 1_555
Mo20 O6 1.808897 1_555
Mo20 O3 1.833136 1_565
Mo21 O20 1.766766 1_545
Mo21 O75 1.791865 1_555
Mo21 O94 1.808897 1_555
Mo21 O70 1.833136 1_545
Mo22 O13 1.763935 1_555
Mo22 O31 1.797550 1_555
Mo22 O10 1.801355 1_555
Mo22 O2 1.838270 1_555
Mo23 O9 1.763935 1_555
Mo23 O82 1.797550 1_555
Mo23 O39 1.801355 1_555
Mo23 O83 1.838270 1_555
