# generated using pymatgen
data_Ce5C2Br9
_symmetry_space_group_name_H-M   'P 1'
_cell_length_a   9.91549125
_cell_length_b   11.28439448
_cell_length_c   16.58025662
_cell_angle_alpha   90.00000000
_cell_angle_beta   90.00000000
_cell_angle_gamma   90.00000000
_symmetry_Int_Tables_number   1
_chemical_formula_structural   Ce5C2Br9
_chemical_formula_sum   'Ce20 C8 Br36'
_cell_volume   1855.17013148
_cell_formula_units_Z   4
loop_
 _symmetry_equiv_pos_site_id
 _symmetry_equiv_pos_as_xyz
  1  'x, y, z'
loop_
 _atom_site_type_symbol
 _atom_site_label
 _atom_site_symmetry_multiplicity
 _atom_site_fract_x
 _atom_site_fract_y
 _atom_site_fract_z
 _atom_site_occupancy
  Ce  Ce0  1  0.45242554  0.19059567  0.95047847  1
  Ce  Ce1  1  0.25000000  0.92847565  0.65918065  1
  Ce  Ce2  1  0.25000000  0.96316734  0.43586796  1
  Ce  Ce3  1  0.75000000  0.86372965  0.85060510  1
  Ce  Ce4  1  0.75000000  0.07152435  0.34081935  1
  Ce  Ce5  1  0.95242554  0.30940433  0.45047847  1
  Ce  Ce6  1  0.75000000  0.36372965  0.64939490  1
  Ce  Ce7  1  0.45242554  0.69059567  0.54952153  1
  Ce  Ce8  1  0.25000000  0.63627035  0.35060510  1
  Ce  Ce9  1  0.04757446  0.19059567  0.95047847  1
  Ce  Ce10  1  0.75000000  0.03683266  0.56413204  1
  Ce  Ce11  1  0.75000000  0.53683266  0.93586796  1
  Ce  Ce12  1  0.25000000  0.13627035  0.14939490  1
  Ce  Ce13  1  0.25000000  0.42847565  0.84081935  1
  Ce  Ce14  1  0.75000000  0.57152435  0.15918065  1
  Ce  Ce15  1  0.54757446  0.80940433  0.04952153  1
  Ce  Ce16  1  0.95242554  0.80940433  0.04952153  1
  Ce  Ce17  1  0.04757446  0.69059567  0.54952153  1
  Ce  Ce18  1  0.54757446  0.30940433  0.45047847  1
  Ce  Ce19  1  0.25000000  0.46316734  0.06413204  1
  C  C0  1  0.25000000  0.74525711  0.47081423  1
  C  C1  1  0.75000000  0.75474289  0.97081423  1
  C  C2  1  0.75000000  0.18122031  0.45711470  1
  C  C3  1  0.75000000  0.68122031  0.04288530  1
  C  C4  1  0.25000000  0.31877969  0.95711470  1
  C  C5  1  0.25000000  0.81877969  0.54288530  1
  C  C6  1  0.25000000  0.24525711  0.02918577  1
  C  C7  1  0.75000000  0.25474289  0.52918577  1
  Br  Br0  1  0.96572013  0.56847637  0.38825106  1
  Br  Br1  1  0.75000000  0.33922015  0.28877954  1
  Br  Br2  1  0.07228098  0.11388398  0.56108485  1
  Br  Br3  1  0.75000000  0.61341289  0.55910269  1
  Br  Br4  1  0.53427987  0.06847637  0.11174894  1
  Br  Br5  1  0.96572013  0.06847637  0.11174894  1
  Br  Br6  1  0.92771902  0.38611602  0.06108485  1
  Br  Br7  1  0.25000000  0.16077985  0.78877954  1
  Br  Br8  1  0.44864619  0.63517819  0.17529347  1
  Br  Br9  1  0.25000000  0.38658711  0.44089731  1
  Br  Br10  1  0.57228098  0.88611602  0.43891515  1
  Br  Br11  1  0.53427987  0.56847637  0.38825106  1
  Br  Br12  1  0.07228098  0.61388398  0.93891515  1
  Br  Br13  1  0.25000000  0.87204534  0.27175179  1
  Br  Br14  1  0.44864619  0.13517819  0.32470653  1
  Br  Br15  1  0.55135381  0.36482181  0.82470653  1
  Br  Br16  1  0.92771902  0.88611602  0.43891515  1
  Br  Br17  1  0.75000000  0.83922015  0.21122046  1
  Br  Br18  1  0.42771902  0.61388398  0.93891515  1
  Br  Br19  1  0.55135381  0.86482181  0.67529347  1
  Br  Br20  1  0.57228098  0.38611602  0.06108485  1
  Br  Br21  1  0.94864619  0.36482181  0.82470653  1
  Br  Br22  1  0.42771902  0.11388398  0.56108485  1
  Br  Br23  1  0.25000000  0.88658711  0.05910269  1
  Br  Br24  1  0.94864619  0.86482181  0.67529347  1
  Br  Br25  1  0.25000000  0.37204534  0.22824821  1
  Br  Br26  1  0.03427987  0.93152363  0.88825106  1
  Br  Br27  1  0.75000000  0.11341289  0.94089731  1
  Br  Br28  1  0.75000000  0.62795466  0.77175179  1
  Br  Br29  1  0.05135381  0.13517819  0.32470653  1
  Br  Br30  1  0.46572013  0.93152363  0.88825106  1
  Br  Br31  1  0.03427987  0.43152363  0.61174894  1
  Br  Br32  1  0.05135381  0.63517819  0.17529347  1
  Br  Br33  1  0.75000000  0.12795466  0.72824821  1
  Br  Br34  1  0.25000000  0.66077985  0.71122046  1
  Br  Br35  1  0.46572013  0.43152363  0.61174894  1
loop_
_geom_bond_atom_site_label_1
_geom_bond_atom_site_label_2
_geom_bond_distance
_geom_bond_site_symmetry_2
C0 C5 1.454735 1_555
C0 Ce8 2.342001 1_555
C0 Ce17 2.472267 1_555
C0 Ce7 2.472267 1_555
C0 Ce2 2.526328 1_555
C1 C3 1.454735 1_556
C1 Ce3 2.342001 1_555
C1 Ce15 2.472267 1_556
C1 Ce16 2.472267 1_556
C1 Ce11 2.526328 1_555
C2 C7 1.454735 1_555
C2 Ce4 2.291345 1_555
C2 Ce10 2.408965 1_555
C2 Ce5 2.476500 1_555
C2 Ce18 2.476500 1_555
C3 Ce14 2.291345 1_555
C3 Ce11 2.408965 1_554
C3 Ce15 2.476500 1_555
C3 Ce16 2.476500 1_555
C4 C6 1.454735 1_556
C4 Ce13 2.291345 1_555
C4 Ce19 2.408965 1_556
C4 Ce0 2.476500 1_555
C4 Ce9 2.476500 1_555
C5 Ce1 2.291345 1_555
C5 Ce2 2.408965 1_555
C5 Ce7 2.476500 1_555
C5 Ce17 2.476500 1_555
C6 Ce12 2.342001 1_555
C6 Ce0 2.472267 1_554
C6 Ce9 2.472267 1_554
C6 Ce19 2.526328 1_555
C7 Ce6 2.342001 1_555
C7 Ce18 2.472267 1_555
C7 Ce5 2.472267 1_555
C7 Ce10 2.526328 1_555
Br0 Ce8 2.986693 1_655
Br0 Ce5 3.102992 1_555
Br0 Ce17 3.115688 1_655
Br1 Ce4 3.141596 1_555
Br1 Ce18 3.365956 1_555
Br1 Ce5 3.365956 1_555
Br1 Ce14 3.389553 1_555
Br2 Ce5 3.105377 1_455
Br2 Ce1 3.182450 1_545
Br2 Ce2 3.210622 1_545
Br2 Ce10 3.312135 1_455
Br3 Ce7 3.080557 1_555
Br3 Ce17 3.080557 1_655
Br3 Ce6 3.190557 1_555
Br4 Ce12 2.986693 1_555
Br4 Ce15 3.102992 1_545
Br4 Ce0 3.115688 1_554
Br5 Ce12 2.986693 1_655
Br5 Ce16 3.102992 1_545
Br5 Ce9 3.115688 1_654
Br6 Ce9 3.105377 1_654
Br6 Ce14 3.182450 1_555
Br6 Ce11 3.210622 1_554
Br6 Ce19 3.312135 1_655
Br7 Ce13 3.141596 1_555
Br7 Ce9 3.365956 1_555
Br7 Ce0 3.365956 1_555
Br7 Ce1 3.389553 1_545
Br8 Ce15 3.029210 1_555
Br8 Ce14 3.084783 1_555
Br8 Ce19 3.323283 1_555
Br8 Ce8 3.511231 1_555
Br9 Ce5 3.080557 1_455
Br9 Ce18 3.080557 1_555
Br9 Ce8 3.190557 1_555
Br10 Ce7 3.105377 1_555
Br10 Ce4 3.182450 1_565
Br10 Ce10 3.210622 1_565
Br10 Ce2 3.312135 1_555
Br11 Ce8 2.986693 1_555
Br11 Ce18 3.102992 1_555
Br11 Ce7 3.115688 1_555
Br12 Ce16 3.105377 1_456
Br12 Ce13 3.182450 1_555
Br12 Ce19 3.210622 1_556
Br12 Ce11 3.312135 1_455
Br13 Ce2 2.908889 1_555
Br13 Ce8 2.964455 1_555
Br13 Ce12 3.606343 1_565
Br14 Ce18 3.029210 1_555
Br14 Ce4 3.084783 1_555
Br14 Ce2 3.323283 1_545
Br14 Ce12 3.511231 1_555
Br15 Ce0 3.029210 1_555
Br15 Ce13 3.084783 1_555
Br15 Ce11 3.323283 1_555
Br15 Ce6 3.511231 1_555
Br16 Ce17 3.105377 1_655
Br16 Ce4 3.182450 1_565
Br16 Ce10 3.210622 1_565
Br16 Ce2 3.312135 1_655
Br17 Ce14 3.141596 1_555
Br17 Ce15 3.365956 1_555
Br17 Ce16 3.365956 1_555
Br17 Ce4 3.389553 1_565
Br18 Ce15 3.105377 1_556
Br18 Ce13 3.182450 1_555
Br18 Ce19 3.210622 1_556
Br18 Ce11 3.312135 1_555
Br19 Ce7 3.029210 1_555
Br19 Ce1 3.084783 1_555
Br19 Ce10 3.323283 1_565
Br19 Ce3 3.511231 1_555
Br20 Ce0 3.105377 1_554
Br20 Ce14 3.182450 1_555
Br20 Ce11 3.210622 1_554
Br20 Ce19 3.312135 1_555
Br21 Ce9 3.029210 1_655
Br21 Ce13 3.084783 1_655
Br21 Ce11 3.323283 1_555
Br21 Ce6 3.511231 1_555
Br22 Ce18 3.105377 1_555
Br22 Ce1 3.182450 1_545
Br22 Ce2 3.210622 1_545
Br22 Ce10 3.312135 1_555
Br23 Ce16 3.080557 1_455
Br23 Ce15 3.080557 1_555
Br23 Ce12 3.190557 1_565
Br24 Ce17 3.029210 1_655
Br24 Ce1 3.084783 1_655
Br24 Ce10 3.323283 1_565
Br24 Ce3 3.511231 1_555
Br25 Ce19 2.908889 1_555
Br25 Ce12 2.964455 1_555
Br25 Ce8 3.606343 1_555
Br26 Ce3 2.986693 1_455
Br26 Ce9 3.102992 1_565
Br26 Ce16 3.115688 1_456
Br27 Ce0 3.080557 1_555
Br27 Ce9 3.080557 1_655
Br27 Ce3 3.190557 1_545
Br28 Ce11 2.908889 1_555
Br28 Ce3 2.964455 1_555
Br28 Ce6 3.606343 1_555
Br29 Ce5 3.029210 1_455
Br29 Ce4 3.084783 1_455
Br29 Ce2 3.323283 1_545
Br29 Ce12 3.511231 1_555
Br30 Ce3 2.986693 1_555
Br30 Ce0 3.102992 1_565
Br30 Ce15 3.115688 1_556
Br31 Ce6 2.986693 1_455
Br31 Ce17 3.102992 1_555
Br31 Ce5 3.115688 1_455
Br32 Ce16 3.029210 1_455
Br32 Ce14 3.084783 1_455
Br32 Ce19 3.323283 1_555
Br32 Ce8 3.511231 1_555
Br33 Ce10 2.908889 1_555
Br33 Ce6 2.964455 1_555
Br33 Ce3 3.606343 1_545
Br34 Ce1 3.141596 1_555
Br34 Ce17 3.365956 1_555
Br34 Ce7 3.365956 1_555
Br34 Ce13 3.389553 1_555
Br35 Ce6 2.986693 1_555
Br35 Ce7 3.102992 1_555
Br35 Ce18 3.115688 1_555
