# generated using pymatgen
data_Na3AlH10C6O17
_symmetry_space_group_name_H-M   'P 1'
_cell_length_a   10.72412878
_cell_length_b   10.72412878
_cell_length_c   15.36576845
_cell_angle_alpha   82.19199820
_cell_angle_beta   82.19199820
_cell_angle_gamma   71.73402274
_symmetry_Int_Tables_number   1
_chemical_formula_structural   Na3AlH10C6O17
_chemical_formula_sum   'Na12 Al4 H40 C24 O68'
_cell_volume   1654.37633892
_cell_formula_units_Z   4
loop_
 _symmetry_equiv_pos_site_id
 _symmetry_equiv_pos_as_xyz
  1  'x, y, z'
loop_
 _atom_site_type_symbol
 _atom_site_label
 _atom_site_symmetry_multiplicity
 _atom_site_fract_x
 _atom_site_fract_y
 _atom_site_fract_z
 _atom_site_occupancy
  Na  Na0  1  0.50732500  0.49267500  0.25000000  1
  Na  Na1  1  0.49267500  0.50732500  0.75000000  1
  Na  Na2  1  0.23091000  0.76909000  0.25000000  1
  Na  Na3  1  0.76909000  0.23091000  0.75000000  1
  Na  Na4  1  0.83963300  0.07187100  0.00076800  1
  Na  Na5  1  0.92812900  0.16036700  0.49923200  1
  Na  Na6  1  0.16036700  0.92812900  0.99923200  1
  Na  Na7  1  0.07187100  0.83963300  0.50076800  1
  Na  Na8  1  0.50748500  0.25809500  0.01270600  1
  Na  Na9  1  0.74190500  0.49251500  0.48729400  1
  Na  Na10  1  0.49251500  0.74190500  0.98729400  1
  Na  Na11  1  0.25809500  0.50748500  0.51270600  1
  Al  Al0  1  0.67812500  0.93726300  0.23076800  1
  Al  Al1  1  0.06273700  0.32187500  0.26923200  1
  Al  Al2  1  0.32187500  0.06273700  0.76923200  1
  Al  Al3  1  0.93726300  0.67812500  0.73076800  1
  H  H0  1  0.27184800  0.64220800  0.05584300  1
  H  H1  1  0.35779200  0.72815200  0.44415700  1
  H  H2  1  0.72815200  0.35779200  0.94415700  1
  H  H3  1  0.64220800  0.27184800  0.55584300  1
  H  H4  1  0.27896300  0.64963600  0.95079300  1
  H  H5  1  0.35036400  0.72103700  0.54920700  1
  H  H6  1  0.72103700  0.35036400  0.04920700  1
  H  H7  1  0.64963600  0.27896300  0.45079300  1
  H  H8  1  0.00743800  0.81133100  0.90640300  1
  H  H9  1  0.18866900  0.99256200  0.59359700  1
  H  H10  1  0.99256200  0.18866900  0.09359700  1
  H  H11  1  0.81133100  0.00743800  0.40640300  1
  H  H12  1  0.97591100  0.77149400  0.00522600  1
  H  H13  1  0.22850600  0.02408900  0.49477400  1
  H  H14  1  0.02408900  0.22850600  0.99477400  1
  H  H15  1  0.77149400  0.97591100  0.50522600  1
  H  H16  1  0.65520100  0.01620400  0.91620600  1
  H  H17  1  0.98379600  0.34479900  0.58379400  1
  H  H18  1  0.34479900  0.98379600  0.08379400  1
  H  H19  1  0.01620400  0.65520100  0.41620600  1
  H  H20  1  0.61835100  0.95740300  0.01175200  1
  H  H21  1  0.04259700  0.38164900  0.48824800  1
  H  H22  1  0.38164900  0.04259700  0.98824800  1
  H  H23  1  0.95740300  0.61835100  0.51175200  1
  H  H24  1  0.78705200  0.67467800  0.00084200  1
  H  H25  1  0.32532200  0.21294800  0.49915800  1
  H  H26  1  0.21294800  0.32532200  0.99915800  1
  H  H27  1  0.67467800  0.78705200  0.50084200  1
  H  H28  1  0.74697200  0.73593100  0.90620000  1
  H  H29  1  0.26406900  0.25302800  0.59380000  1
  H  H30  1  0.25302800  0.26406900  0.09380000  1
  H  H31  1  0.73593100  0.74697200  0.40620000  1
  H  H32  1  0.99727700  0.56318900  0.10507800  1
  H  H33  1  0.43681100  0.00272300  0.39492200  1
  H  H34  1  0.00272300  0.43681100  0.89492200  1
  H  H35  1  0.56318900  0.99727700  0.60507800  1
  H  H36  1  0.87103400  0.68408100  0.12101300  1
  H  H37  1  0.31591900  0.12896600  0.37898700  1
  H  H38  1  0.12896600  0.31591900  0.87898700  1
  H  H39  1  0.68408100  0.87103400  0.62101300  1
  C  C0  1  0.55502500  0.76956400  0.18783300  1
  C  C1  1  0.23043600  0.44497500  0.31216700  1
  C  C2  1  0.44497500  0.23043600  0.81216700  1
  C  C3  1  0.76956400  0.55502500  0.68783300  1
  C  C4  1  0.49952800  0.80038800  0.28386200  1
  C  C5  1  0.19961200  0.50047200  0.21613800  1
  C  C6  1  0.50047200  0.19961200  0.71613800  1
  C  C7  1  0.80038800  0.49952800  0.78386200  1
  C  C8  1  0.61436200  0.17766600  0.29519100  1
  C  C9  1  0.82233400  0.38563800  0.20480900  1
  C  C10  1  0.38563800  0.82233400  0.70480900  1
  C  C11  1  0.17766600  0.61436200  0.79519100  1
  C  C12  1  0.54692100  0.19870500  0.20894900  1
  C  C13  1  0.80129500  0.45307900  0.29105100  1
  C  C14  1  0.45307900  0.80129500  0.79105100  1
  C  C15  1  0.19870500  0.54692100  0.70894900  1
  C  C16  1  0.92698600  0.79095600  0.26850800  1
  C  C17  1  0.20904400  0.07301400  0.23149200  1
  C  C18  1  0.07301400  0.20904400  0.73149200  1
  C  C19  1  0.79095600  0.92698600  0.76850800  1
  C  C20  1  0.94503200  0.88217300  0.18363800  1
  C  C21  1  0.11782700  0.05496800  0.31636200  1
  C  C22  1  0.05496800  0.11782700  0.81636200  1
  C  C23  1  0.88217300  0.94503200  0.68363800  1
  O  O0  1  0.64577700  0.82506200  0.15606800  1
  O  O1  1  0.17493800  0.35422300  0.34393200  1
  O  O2  1  0.35422300  0.17493800  0.84393200  1
  O  O3  1  0.82506200  0.64577700  0.65606800  1
  O  O4  1  0.54103400  0.88911400  0.31017500  1
  O  O5  1  0.11088600  0.45896600  0.18982500  1
  O  O6  1  0.45896600  0.11088600  0.68982500  1
  O  O7  1  0.88911400  0.54103400  0.81017500  1
  O  O8  1  0.51079000  0.70085100  0.14916200  1
  O  O9  1  0.29914900  0.48921000  0.35083800  1
  O  O10  1  0.48921000  0.29914900  0.85083800  1
  O  O11  1  0.70085100  0.51079000  0.64916200  1
  O  O12  1  0.42192900  0.74419800  0.32668700  1
  O  O13  1  0.25580200  0.57807100  0.17331300  1
  O  O14  1  0.57807100  0.25580200  0.67331300  1
  O  O15  1  0.74419800  0.42192900  0.82668700  1
  O  O16  1  0.68750300  0.05656900  0.31152800  1
  O  O17  1  0.94343100  0.31249700  0.18847200  1
  O  O18  1  0.31249700  0.94343100  0.68847200  1
  O  O19  1  0.05656900  0.68750300  0.81152800  1
  O  O20  1  0.56885600  0.09006800  0.17270000  1
  O  O21  1  0.90993200  0.43114400  0.32730000  1
  O  O22  1  0.43114400  0.90993200  0.82730000  1
  O  O23  1  0.09006800  0.56885600  0.67270000  1
  O  O24  1  0.59775200  0.27100300  0.33970400  1
  O  O25  1  0.72899700  0.40224800  0.16029600  1
  O  O26  1  0.40224800  0.72899700  0.66029600  1
  O  O27  1  0.27100300  0.59775200  0.83970400  1
  O  O28  1  0.48230900  0.30975400  0.17879000  1
  O  O29  1  0.69024600  0.51769100  0.32121000  1
  O  O30  1  0.51769100  0.69024600  0.82121000  1
  O  O31  1  0.30975400  0.48230900  0.67879000  1
  O  O32  1  0.80458500  0.79847200  0.29259400  1
  O  O33  1  0.20152800  0.19541500  0.20740600  1
  O  O34  1  0.19541500  0.20152800  0.70740600  1
  O  O35  1  0.79847200  0.80458500  0.79259400  1
  O  O36  1  0.83315700  0.95344200  0.15498400  1
  O  O37  1  0.04655800  0.16684300  0.34501600  1
  O  O38  1  0.16684300  0.04655800  0.84501600  1
  O  O39  1  0.95344200  0.83315700  0.65498400  1
  O  O40  1  0.02395700  0.71976300  0.30570000  1
  O  O41  1  0.28023700  0.97604300  0.19430000  1
  O  O42  1  0.97604300  0.28023700  0.69430000  1
  O  O43  1  0.71976300  0.02395700  0.80570000  1
  O  O44  1  0.05700700  0.88067800  0.14974400  1
  O  O45  1  0.11932200  0.94299300  0.35025600  1
  O  O46  1  0.94299300  0.11932200  0.85025600  1
  O  O47  1  0.88067800  0.05700700  0.64974400  1
  O  O48  1  0.29589700  0.69070400  0.99992600  1
  O  O49  1  0.30929600  0.70410300  0.50007400  1
  O  O50  1  0.70410300  0.30929600  0.00007400  1
  O  O51  1  0.69070400  0.29589700  0.49992600  1
  O  O52  1  0.98077000  0.84890100  0.96337100  1
  O  O53  1  0.15109900  0.01923000  0.53662900  1
  O  O54  1  0.01923000  0.15109900  0.03662900  1
  O  O55  1  0.84890100  0.98077000  0.46337100  1
  O  O56  1  0.62928700  0.03811000  0.97811800  1
  O  O57  1  0.96189000  0.37071300  0.52188200  1
  O  O58  1  0.37071300  0.96189000  0.02188200  1
  O  O59  1  0.03811000  0.62928700  0.47811800  1
  O  O60  1  0.71110100  0.71700100  0.96703300  1
  O  O61  1  0.28299900  0.28889900  0.53296700  1
  O  O62  1  0.28889900  0.28299900  0.03296700  1
  O  O63  1  0.71700100  0.71110100  0.46703300  1
  O  O64  1  0.92850700  0.63397800  0.07485700  1
  O  O65  1  0.36602200  0.07149300  0.42514300  1
  O  O66  1  0.07149300  0.36602200  0.92514300  1
  O  O67  1  0.63397800  0.92850700  0.57485700  1
loop_
_geom_bond_atom_site_label_1
_geom_bond_atom_site_label_2
_geom_bond_distance
_geom_bond_site_symmetry_2
Na0 O28 2.471890 1_555
Na0 O29 2.471890 1_555
Na0 O8 2.546124 1_555
Na0 O9 2.546124 1_555
Na0 O24 2.553302 1_555
Na0 O25 2.553302 1_555
Na0 O13 2.919743 1_555
Na0 O12 2.919743 1_555
Na1 O31 2.471890 1_555
Na1 O30 2.471890 1_555
Na1 O10 2.546124 1_555
Na1 O11 2.546124 1_555
Na1 O27 2.553302 1_555
Na1 O26 2.553302 1_555
Na1 O15 2.919743 1_555
Na1 O14 2.919743 1_555
Na2 O12 2.425653 1_555
Na2 O13 2.425653 1_555
Na2 O41 2.456596 1_555
Na2 O40 2.456596 1_555
Na2 O45 2.482743 1_555
Na2 O44 2.482743 1_555
Na3 O15 2.425653 1_555
Na3 O14 2.425653 1_555
Na3 O42 2.456596 1_555
Na3 O43 2.456596 1_555
Na3 O46 2.482743 1_555
Na3 O47 2.482743 1_555
Na4 O56 2.469872 1_554
Na4 O46 2.484676 1_554
Na4 O54 2.485255 1_655
Na4 O52 2.491395 1_544
Na4 O50 2.504522 1_555
Na4 O36 2.534941 1_545
Na5 O57 2.469872 1_555
Na5 O47 2.484676 1_555
Na5 O55 2.485255 1_545
Na5 O53 2.491395 1_655
Na5 O51 2.504522 1_555
Na5 O37 2.534941 1_655
Na6 O58 2.469872 1_556
Na6 O44 2.484676 1_556
Na6 O52 2.485255 1_455
Na6 O54 2.491395 1_566
Na6 O48 2.504522 1_555
Na6 O38 2.534941 1_565
Na7 O59 2.469872 1_555
Na7 O45 2.484676 1_555
Na7 O53 2.485255 1_565
Na7 O55 2.491395 1_455
Na7 O49 2.504522 1_555
Na7 O39 2.534941 1_455
Na8 O62 2.257236 1_555
Na8 O50 2.317495 1_555
Na8 O56 2.403039 1_554
Na8 O10 2.489852 1_554
Na8 O28 2.644943 1_555
Na8 O20 2.866461 1_555
Na9 O63 2.257236 1_555
Na9 O51 2.317495 1_555
Na9 O57 2.403039 1_555
Na9 O11 2.489852 1_555
Na9 O29 2.644943 1_555
Na9 O21 2.866461 1_555
Na10 O60 2.257236 1_555
Na10 O48 2.317495 1_555
Na10 O58 2.403039 1_556
Na10 O8 2.489852 1_556
Na10 O30 2.644943 1_555
Na10 O22 2.866461 1_555
Na11 O61 2.257236 1_555
Na11 O49 2.317495 1_555
Na11 O59 2.403039 1_555
Na11 O9 2.489852 1_555
Na11 O31 2.644943 1_555
Na11 O23 2.866461 1_555
Al0 O20 1.880878 1_565
Al0 O0 1.905461 1_555
Al0 O32 1.912488 1_555
Al0 O16 1.932101 1_565
Al0 O4 1.932384 1_555
Al0 O36 1.936541 1_555
Al1 O21 1.880878 1_455
Al1 O1 1.905461 1_555
Al1 O33 1.912488 1_555
Al1 O17 1.932101 1_455
Al1 O5 1.932384 1_555
Al1 O37 1.936541 1_555
Al2 O22 1.880878 1_545
Al2 O2 1.905461 1_555
Al2 O34 1.912488 1_555
Al2 O18 1.932101 1_545
Al2 O6 1.932384 1_555
Al2 O38 1.936541 1_555
Al3 O23 1.880878 1_655
Al3 O3 1.905461 1_555
Al3 O35 1.912488 1_555
Al3 O19 1.932101 1_655
Al3 O7 1.932384 1_555
Al3 O39 1.936541 1_555
H0 O48 0.988783 1_554
H1 O49 0.988783 1_555
H2 O50 0.988783 1_556
H3 O51 0.988783 1_555
H4 O48 0.987246 1_555
H5 O49 0.987246 1_555
H6 O50 0.987246 1_555
H7 O51 0.987246 1_555
H8 O52 0.982827 1_455
H9 O53 0.982827 1_565
H10 O54 0.982827 1_655
H11 O55 0.982827 1_545
H12 O52 0.989136 1_554
H13 O53 0.989136 1_555
H14 O54 0.989136 1_556
H15 O55 0.989136 1_555
H16 O56 0.992676 1_555
H17 O57 0.992676 1_555
H18 O58 0.992676 1_555
H19 O59 0.992676 1_555
H20 O56 0.977540 1_564
H21 O57 0.977540 1_455
H22 O58 0.977540 1_546
H23 O59 0.977540 1_655
H24 O60 0.979016 1_554
H25 O61 0.979016 1_555
H26 O62 0.979016 1_556
H27 O63 0.979016 1_555
H28 O60 0.981141 1_555
H29 O61 0.981141 1_555
H30 O62 0.981141 1_555
H31 O63 0.981141 1_555
H32 O64 0.991040 1_555
H33 O65 0.991040 1_555
H34 O66 0.991040 1_555
H35 O67 0.991040 1_555
H36 O64 0.974042 1_555
H37 O65 0.974042 1_555
H38 O66 0.974042 1_555
H39 O67 0.974042 1_555
C0 O8 1.239280 1_555
C0 O0 1.301825 1_555
C1 O9 1.239280 1_555
C1 O1 1.301825 1_555
C2 O10 1.239280 1_555
C2 O2 1.301825 1_555
C3 O11 1.239280 1_555
C3 O3 1.301825 1_555
C4 O12 1.243572 1_555
C4 O4 1.298420 1_555
C5 O13 1.243572 1_555
C5 O5 1.298420 1_555
C6 O14 1.243572 1_555
C6 O6 1.298420 1_555
C7 O15 1.243572 1_555
C7 O7 1.298420 1_555
C8 O24 1.242022 1_555
C8 O16 1.300446 1_555
C9 O25 1.242022 1_555
C9 O17 1.300446 1_555
C10 O26 1.242022 1_555
C10 O18 1.300446 1_555
C11 O27 1.242022 1_555
C11 O19 1.300446 1_555
C12 O28 1.238204 1_555
C12 O20 1.300696 1_555
C13 O29 1.238204 1_555
C13 O21 1.300696 1_555
C14 O30 1.238204 1_555
C14 O22 1.300696 1_555
C15 O31 1.238204 1_555
C15 O23 1.300696 1_555
C16 O40 1.239425 1_655
C16 O32 1.294716 1_555
C17 O41 1.239425 1_545
C17 O33 1.294716 1_555
C18 O42 1.239425 1_455
C18 O34 1.294716 1_555
C19 O43 1.239425 1_565
C19 O35 1.294716 1_555
C20 O44 1.238456 1_655
C20 O36 1.301813 1_555
C21 O45 1.238456 1_545
C21 O37 1.301813 1_555
C22 O46 1.238456 1_455
C22 O38 1.301813 1_555
C23 O47 1.238456 1_565
C23 O39 1.301813 1_555
