# generated using pymatgen
data_Bi14MoO24
_symmetry_space_group_name_H-M   'P 1'
_cell_length_a   10.54798100
_cell_length_b   10.56131828
_cell_length_c   12.38811534
_cell_angle_alpha   90.48040474
_cell_angle_beta   89.87234361
_cell_angle_gamma   107.97763034
_symmetry_Int_Tables_number   1
_chemical_formula_structural   Bi14MoO24
_chemical_formula_sum   'Bi28 Mo2 O48'
_cell_volume   1312.61932725
_cell_formula_units_Z   2
loop_
 _symmetry_equiv_pos_site_id
 _symmetry_equiv_pos_as_xyz
  1  'x, y, z'
loop_
 _atom_site_type_symbol
 _atom_site_label
 _atom_site_symmetry_multiplicity
 _atom_site_fract_x
 _atom_site_fract_y
 _atom_site_fract_z
 _atom_site_occupancy
  Bi  Bi0  1  0.37088300  0.03665800  0.09556700  1
  Bi  Bi1  1  0.11856600  0.11758100  0.31922200  1
  Bi  Bi2  1  0.74262000  0.07697300  0.20246300  1
  Bi  Bi3  1  0.46719300  0.12870400  0.41240900  1
  Bi  Bi4  1  0.17454500  0.17642000  0.61979600  1
  Bi  Bi5  1  0.84118500  0.15801500  0.50004300  1
  Bi  Bi6  1  0.57318400  0.24359700  0.70237500  1
  Bi  Bi7  1  0.31885400  0.31871200  0.87920700  1
  Bi  Bi8  1  0.87285000  0.53356000  0.58983400  1
  Bi  Bi9  1  0.61721800  0.61636200  0.83295000  1
  Bi  Bi10  1  0.92382500  0.25897500  0.79674200  1
  Bi  Bi11  1  0.66046600  0.34005200  0.00015200  1
  Bi  Bi12  1  0.38278200  0.38363800  0.16705000  1
  Bi  Bi13  1  0.24516200  0.57325800  0.70148400  1
  Bi  Bi14  1  0.96507600  0.63206000  0.90742800  1
  Bi  Bi15  1  0.68114600  0.68128800  0.12079300  1
  Bi  Bi16  1  0.03492400  0.36794000  0.09257200  1
  Bi  Bi17  1  0.75483800  0.42674200  0.29851600  1
  Bi  Bi18  1  0.33953400  0.65994800  0.99984800  1
  Bi  Bi19  1  0.07617500  0.74102500  0.20325800  1
  Bi  Bi20  1  0.82545500  0.82358000  0.38020400  1
  Bi  Bi21  1  0.12715000  0.46644000  0.41016600  1
  Bi  Bi22  1  0.42681600  0.75640300  0.29762500  1
  Bi  Bi23  1  0.15881500  0.84198500  0.49995700  1
  Bi  Bi24  1  0.88143400  0.88241900  0.68077800  1
  Bi  Bi25  1  0.53280700  0.87129600  0.58759100  1
  Bi  Bi26  1  0.25738000  0.92302700  0.79753700  1
  Bi  Bi27  1  0.62911700  0.96334200  0.90443300  1
  Mo  Mo0  1  0.00000000  0.00000000  0.00000000  1
  Mo  Mo1  1  0.50000000  0.50000000  0.50000000  1
  O  O0  1  0.36579600  0.13505200  0.25297100  1
  O  O1  1  0.23772400  0.07306500  0.47736600  1
  O  O2  1  0.66868100  0.16632800  0.33367600  1
  O  O3  1  0.89417300  0.05698700  0.34214400  1
  O  O4  1  0.58115900  0.08467500  0.58041600  1
  O  O5  1  0.11695400  0.13054500  0.91341600  1
  O  O6  1  0.39201300  0.39278500  0.60735600  1
  O  O7  1  0.61023900  0.38650500  0.49765800  1
  O  O8  1  0.36541500  0.13239700  0.75502700  1
  O  O9  1  0.91451800  0.42306500  0.42018400  1
  O  O10  1  0.09552600  0.08011300  0.12445400  1
  O  O11  1  0.07438100  0.24071400  0.47721200  1
  O  O12  1  0.94322100  0.10684100  0.65558800  1
  O  O13  1  0.66573700  0.16669000  0.83237300  1
  O  O14  1  0.83293400  0.33091300  0.66594700  1
  O  O15  1  0.55693300  0.39282100  0.84858800  1
  O  O16  1  0.42329200  0.26360200  0.02668800  1
  O  O17  1  0.58352500  0.08890500  0.08371600  1
  O  O18  1  0.87185400  0.64125400  0.74990600  1
  O  O19  1  0.13296100  0.36618700  0.75164600  1
  O  O20  1  0.91150600  0.42009700  0.91550300  1
  O  O21  1  0.73620000  0.57603200  0.97370700  1
  O  O22  1  0.60712600  0.44321600  0.15304800  1
  O  O23  1  0.16773800  0.66760000  0.83272100  1
  O  O24  1  0.83226200  0.33240000  0.16727900  1
  O  O25  1  0.90447400  0.91988700  0.87554600  1
  O  O26  1  0.39287400  0.55678400  0.84695200  1
  O  O27  1  0.26380000  0.42396800  0.02629300  1
  O  O28  1  0.08849400  0.57990300  0.08449700  1
  O  O29  1  0.60798700  0.60721500  0.39264400  1
  O  O30  1  0.88304600  0.86945500  0.08658400  1
  O  O31  1  0.86703900  0.63381300  0.24835400  1
  O  O32  1  0.12814600  0.35874600  0.25009400  1
  O  O33  1  0.41647500  0.91109500  0.91628400  1
  O  O34  1  0.57670800  0.73639800  0.97331200  1
  O  O35  1  0.44306700  0.60717900  0.15141200  1
  O  O36  1  0.16706600  0.66908700  0.33405300  1
  O  O37  1  0.33426300  0.83331000  0.16762700  1
  O  O38  1  0.05677900  0.89315900  0.34441200  1
  O  O39  1  0.92561900  0.75928600  0.52278800  1
  O  O40  1  0.08548200  0.57693500  0.57981600  1
  O  O41  1  0.63458500  0.86760300  0.24497300  1
  O  O42  1  0.38976100  0.61349500  0.50234200  1
  O  O43  1  0.41884100  0.91532500  0.41958400  1
  O  O44  1  0.10582700  0.94301300  0.65785600  1
  O  O45  1  0.33131900  0.83367200  0.66632400  1
  O  O46  1  0.76227600  0.92693500  0.52263400  1
  O  O47  1  0.63420400  0.86494800  0.74702900  1
loop_
_geom_bond_atom_site_label_1
_geom_bond_atom_site_label_2
_geom_bond_distance
_geom_bond_site_symmetry_2
Bi0 O17 2.143066 1_555
Bi0 O0 2.210201 1_555
Bi0 O37 2.253200 1_545
Bi0 O16 2.448011 1_555
Bi0 O33 2.694829 1_544
Bi1 O3 2.270990 1_455
Bi1 O38 2.279889 1_545
Bi1 O10 2.442239 1_555
Bi1 O1 2.455618 1_555
Bi1 O11 2.463004 1_555
Bi1 O32 2.666121 1_555
Bi1 O0 2.684048 1_555
Bi2 O2 2.136348 1_555
Bi2 O41 2.219643 1_545
Bi2 O17 2.267299 1_555
Bi2 O3 2.412670 1_555
Bi2 O24 2.608573 1_555
Bi3 O43 2.154121 1_545
Bi3 O2 2.258767 1_555
Bi3 O0 2.259526 1_555
Bi3 O1 2.443893 1_555
Bi3 O4 2.522995 1_555
Bi4 O1 2.271643 1_555
Bi4 O11 2.273455 1_555
Bi4 O12 2.363055 1_455
Bi4 O44 2.395692 1_545
Bi4 O6 2.697380 1_555
Bi4 O19 2.713235 1_555
Bi4 O8 2.771628 1_555
Bi5 O46 2.341727 1_545
Bi5 O12 2.355679 1_555
Bi5 O11 2.359676 1_655
Bi5 O3 2.367556 1_555
Bi5 O14 2.756871 1_555
Bi5 O2 2.772095 1_555
Bi5 O4 2.793448 1_555
Bi5 O9 2.849459 1_555
Bi6 O13 2.173637 1_555
Bi6 O8 2.241710 1_555
Bi6 O4 2.269559 1_555
Bi6 O15 2.431357 1_555
Bi6 O14 2.646239 1_555
Bi7 O27 2.291919 1_556
Bi7 O16 2.304967 1_556
Bi7 O15 2.418739 1_555
Bi7 O26 2.427936 1_555
Bi7 O5 2.462087 1_555
Bi7 O8 2.649931 1_555
Bi7 O19 2.688356 1_555
Bi8 O40 2.149666 1_655
Bi8 O14 2.263336 1_555
Bi8 O18 2.279360 1_555
Bi8 O39 2.427960 1_555
Bi8 O9 2.498654 1_555
Bi9 O15 2.257450 1_555
Bi9 O26 2.259782 1_555
Bi9 O34 2.259946 1_555
Bi9 O21 2.269190 1_555
Bi9 O47 2.795245 1_555
Bi9 O18 2.810310 1_555
Bi10 O14 2.144517 1_555
Bi10 O19 2.218943 1_655
Bi10 O20 2.273916 1_555
Bi10 O12 2.415653 1_555
Bi10 O13 2.630539 1_555
Bi11 O22 2.330302 1_555
Bi11 O15 2.330436 1_554
Bi11 O21 2.395909 1_554
Bi11 O16 2.402588 1_555
Bi11 O20 2.728864 1_554
Bi11 O17 2.734819 1_555
Bi11 O13 2.770186 1_554
Bi11 O24 2.772485 1_555
Bi12 O35 2.257450 1_555
Bi12 O22 2.259782 1_555
Bi12 O16 2.259946 1_555
Bi12 O27 2.269190 1_555
Bi12 O0 2.795245 1_555
Bi12 O32 2.810310 1_555
Bi13 O23 2.184509 1_555
Bi13 O19 2.234133 1_555
Bi13 O40 2.272183 1_555
Bi13 O26 2.427017 1_555
Bi13 O45 2.656178 1_555
Bi14 O20 2.136196 1_555
Bi14 O18 2.203394 1_555
Bi14 O23 2.251391 1_655
Bi14 O21 2.443370 1_555
Bi14 O28 2.699158 1_656
Bi15 O21 2.291919 1_554
Bi15 O34 2.304967 1_554
Bi15 O35 2.418739 1_555
Bi15 O22 2.427936 1_555
Bi15 O30 2.462087 1_555
Bi15 O41 2.649931 1_555
Bi15 O31 2.688356 1_555
Bi16 O28 2.136196 1_555
Bi16 O32 2.203394 1_555
Bi16 O24 2.251391 1_455
Bi16 O27 2.443370 1_555
Bi16 O20 2.699158 1_454
Bi17 O24 2.184509 1_555
Bi17 O31 2.234133 1_555
Bi17 O9 2.272183 1_555
Bi17 O22 2.427017 1_555
Bi17 O2 2.656178 1_555
Bi18 O26 2.330302 1_555
Bi18 O35 2.330436 1_556
Bi18 O27 2.395909 1_556
Bi18 O34 2.402588 1_555
Bi18 O28 2.728864 1_556
Bi18 O33 2.734819 1_555
Bi18 O37 2.770186 1_556
Bi18 O23 2.772485 1_555
Bi19 O36 2.144517 1_555
Bi19 O31 2.218943 1_455
Bi19 O28 2.273916 1_555
Bi19 O38 2.415653 1_555
Bi19 O37 2.630539 1_555
Bi20 O46 2.271643 1_555
Bi20 O39 2.273455 1_555
Bi20 O38 2.363055 1_655
Bi20 O3 2.395692 1_565
Bi20 O29 2.697380 1_555
Bi20 O31 2.713235 1_555
Bi20 O41 2.771628 1_555
Bi21 O9 2.149666 1_455
Bi21 O36 2.263336 1_555
Bi21 O32 2.279360 1_555
Bi21 O11 2.427960 1_555
Bi21 O40 2.498654 1_555
Bi22 O37 2.173637 1_555
Bi22 O41 2.241710 1_555
Bi22 O43 2.269559 1_555
Bi22 O35 2.431357 1_555
Bi22 O36 2.646239 1_555
Bi23 O1 2.341727 1_565
Bi23 O38 2.355679 1_555
Bi23 O39 2.359676 1_455
Bi23 O44 2.367556 1_555
Bi23 O36 2.756871 1_555
Bi23 O45 2.772095 1_555
Bi23 O43 2.793448 1_555
Bi23 O40 2.849459 1_555
Bi24 O44 2.270990 1_655
Bi24 O12 2.279889 1_565
Bi24 O25 2.442239 1_555
Bi24 O46 2.455618 1_555
Bi24 O39 2.463004 1_555
Bi24 O18 2.666121 1_555
Bi24 O47 2.684048 1_555
Bi25 O4 2.154121 1_565
Bi25 O45 2.258767 1_555
Bi25 O47 2.259526 1_555
Bi25 O46 2.443893 1_555
Bi25 O43 2.522995 1_555
Bi26 O45 2.136348 1_555
Bi26 O8 2.219643 1_565
Bi26 O33 2.267299 1_555
Bi26 O44 2.412670 1_555
Bi26 O23 2.608573 1_555
Bi27 O33 2.143066 1_555
Bi27 O47 2.210201 1_555
Bi27 O13 2.253200 1_565
Bi27 O34 2.448011 1_555
Bi27 O17 2.694829 1_566
Mo0 O5 1.882078 1_554
Mo0 O30 1.882078 1_445
Mo0 O10 1.888633 1_555
Mo0 O25 1.888633 1_444
Mo1 O29 1.889622 1_555
Mo1 O6 1.889622 1_555
Mo1 O7 1.910331 1_555
Mo1 O42 1.910331 1_555
