# generated using pymatgen
data_PbI2
_symmetry_space_group_name_H-M   'P 1'
_cell_length_a   22.68250529
_cell_length_b   22.68250529
_cell_length_c   22.68250535
_cell_angle_alpha   11.78406209
_cell_angle_beta   11.78406209
_cell_angle_gamma   11.78406126
_symmetry_Int_Tables_number   1
_chemical_formula_structural   PbI2
_chemical_formula_sum   'Pb3 I6'
_cell_volume   423.00387357
_cell_formula_units_Z   3
loop_
 _symmetry_equiv_pos_site_id
 _symmetry_equiv_pos_as_xyz
  1  'x, y, z'
loop_
 _atom_site_type_symbol
 _atom_site_label
 _atom_site_symmetry_multiplicity
 _atom_site_fract_x
 _atom_site_fract_y
 _atom_site_fract_z
 _atom_site_occupancy
  Pb  Pb0  1  0.55551700  0.55551700  0.55551700  1
  Pb  Pb1  1  0.00000000  0.00000000  0.00000000  1
  Pb  Pb2  1  0.44448300  0.44448300  0.44448300  1
  I  I0  1  0.63876800  0.63876800  0.63876800  1
  I  I1  1  0.36123200  0.36123200  0.36123200  1
  I  I2  1  0.86095600  0.86095600  0.86095600  1
  I  I3  1  0.13904400  0.13904400  0.13904400  1
  I  I4  1  0.74988100  0.74988100  0.74988100  1
  I  I5  1  0.25011900  0.25011900  0.25011900  1
loop_
_geom_bond_atom_site_label_1
_geom_bond_atom_site_label_2
_geom_bond_distance
_geom_bond_site_symmetry_2
I0 Pb1 3.283649 1_566
I0 Pb1 3.283649 1_656
I0 Pb1 3.283649 1_665
I1 Pb1 3.283649 1_655
I1 Pb1 3.283649 1_565
I1 Pb1 3.283649 1_556
I2 Pb0 3.283480 1_565
I2 Pb0 3.283480 1_655
I2 Pb0 3.283481 1_556
I3 Pb2 3.283480 1_545
I3 Pb2 3.283480 1_455
I3 Pb2 3.283481 1_554
I4 Pb2 3.285071 1_655
I4 Pb2 3.285071 1_565
I4 Pb2 3.285072 1_556
I5 Pb0 3.285071 1_545
I5 Pb0 3.285071 1_455
I5 Pb0 3.285072 1_554
