# generated using pymatgen
data_Ba3(SnP2)2
_symmetry_space_group_name_H-M   'P 1'
_cell_length_a   19.67379265
_cell_length_b   7.80805064
_cell_length_c   7.98777568
_cell_angle_alpha   67.48098146
_cell_angle_beta   90.00000000
_cell_angle_gamma   90.00000000
_symmetry_Int_Tables_number   1
_chemical_formula_structural   Ba3(SnP2)2
_chemical_formula_sum   'Ba12 Sn8 P16'
_cell_volume   1133.47560285
_cell_formula_units_Z   4
loop_
 _symmetry_equiv_pos_site_id
 _symmetry_equiv_pos_as_xyz
  1  'x, y, z'
loop_
 _atom_site_type_symbol
 _atom_site_label
 _atom_site_symmetry_multiplicity
 _atom_site_fract_x
 _atom_site_fract_y
 _atom_site_fract_z
 _atom_site_occupancy
  Ba  Ba0  1  0.05926333  0.00852063  0.73722906  1
  Ba  Ba1  1  0.44073667  0.50852063  0.73722906  1
  Ba  Ba2  1  0.31739587  0.49289515  0.20913328  1
  Ba  Ba3  1  0.56586589  0.01221569  0.74007262  1
  Ba  Ba4  1  0.55926333  0.49147937  0.26277094  1
  Ba  Ba5  1  0.06586589  0.48778431  0.25992738  1
  Ba  Ba6  1  0.94073667  0.99147937  0.26277094  1
  Ba  Ba7  1  0.93413411  0.51221569  0.74007262  1
  Ba  Ba8  1  0.81739587  0.00710485  0.79086672  1
  Ba  Ba9  1  0.43413411  0.98778431  0.25992738  1
  Ba  Ba10  1  0.68260413  0.50710485  0.79086672  1
  Ba  Ba11  1  0.18260413  0.99289515  0.20913328  1
  Sn  Sn0  1  0.75770462  0.60669148  0.31555975  1
  Sn  Sn1  1  0.12240216  0.52231318  0.78974750  1
  Sn  Sn2  1  0.37759784  0.02231318  0.78974750  1
  Sn  Sn3  1  0.25770462  0.89330852  0.68444025  1
  Sn  Sn4  1  0.62240216  0.97768682  0.21025250  1
  Sn  Sn5  1  0.87759784  0.47768682  0.21025250  1
  Sn  Sn6  1  0.24229538  0.39330852  0.68444025  1
  Sn  Sn7  1  0.74229538  0.10669148  0.31555975  1
  P  P0  1  0.31783204  0.21342500  0.95477622  1
  P  P1  1  0.93485552  0.25862878  0.49146110  1
  P  P2  1  0.81783204  0.28657500  0.04522378  1
  P  P3  1  0.44567827  0.75479347  0.99661526  1
  P  P4  1  0.20291942  0.20841183  0.49378046  1
  P  P5  1  0.06514448  0.74137122  0.50853890  1
  P  P6  1  0.79708058  0.79158817  0.50621954  1
  P  P7  1  0.70291942  0.29158817  0.50621954  1
  P  P8  1  0.94567827  0.74520653  0.00338474  1
  P  P9  1  0.56514448  0.75862878  0.49146110  1
  P  P10  1  0.43485552  0.24137122  0.50853890  1
  P  P11  1  0.18216796  0.71342500  0.95477622  1
  P  P12  1  0.05432173  0.25479347  0.99661526  1
  P  P13  1  0.68216796  0.78657500  0.04522378  1
  P  P14  1  0.55432173  0.24520653  0.00338474  1
  P  P15  1  0.29708058  0.70841183  0.49378046  1
loop_
_geom_bond_atom_site_label_1
_geom_bond_atom_site_label_2
_geom_bond_distance
_geom_bond_site_symmetry_2
Ba0 P8 3.223729 1_446
Ba0 P5 3.258842 1_545
Ba0 P1 3.274389 1_455
Ba0 P12 3.324400 1_555
Ba0 P11 3.332934 1_545
Ba0 P4 3.446800 1_555
Ba1 P14 3.223729 1_556
Ba1 P10 3.258842 1_555
Ba1 P9 3.274389 1_555
Ba1 P3 3.324400 1_555
Ba1 P0 3.332934 1_555
Ba1 P15 3.446800 1_555
Ba2 P3 3.282368 1_554
Ba2 P15 3.330444 1_555
Ba2 P4 3.362659 1_555
Ba2 P10 3.364383 1_555
Ba2 P11 3.389863 1_554
Ba2 P0 3.505094 1_554
Ba3 P3 3.267314 1_545
Ba3 P14 3.273489 1_556
Ba3 P10 3.275745 1_555
Ba3 P9 3.297900 1_545
Ba3 P13 3.315312 1_546
Ba3 P7 3.520915 1_555
Ba4 P3 3.223729 1_554
Ba4 P9 3.258842 1_555
Ba4 P10 3.274389 1_555
Ba4 P14 3.324400 1_555
Ba4 P13 3.332934 1_555
Ba4 P7 3.446800 1_555
Ba5 P8 3.267314 1_455
Ba5 P12 3.273489 1_554
Ba5 P1 3.275745 1_455
Ba5 P5 3.297900 1_555
Ba5 P11 3.315312 1_554
Ba5 P4 3.520915 1_555
Ba6 P12 3.223729 1_664
Ba6 P1 3.258842 1_565
Ba6 P5 3.274389 1_655
Ba6 P8 3.324400 1_555
Ba6 P2 3.332934 1_565
Ba6 P6 3.446800 1_555
Ba7 P12 3.267314 1_655
Ba7 P8 3.273489 1_556
Ba7 P5 3.275745 1_655
Ba7 P1 3.297900 1_555
Ba7 P2 3.315312 1_556
Ba7 P6 3.520915 1_555
Ba8 P8 3.282368 1_546
Ba8 P6 3.330444 1_545
Ba8 P7 3.362659 1_555
Ba8 P1 3.364383 1_555
Ba8 P13 3.389863 1_546
Ba8 P2 3.505094 1_556
Ba9 P14 3.267314 1_565
Ba9 P3 3.273489 1_554
Ba9 P9 3.275745 1_555
Ba9 P10 3.297900 1_565
Ba9 P0 3.315312 1_564
Ba9 P15 3.520915 1_555
Ba10 P14 3.282368 1_556
Ba10 P7 3.330444 1_555
Ba10 P6 3.362659 1_555
Ba10 P9 3.364383 1_555
Ba10 P2 3.389863 1_556
Ba10 P13 3.505094 1_556
Ba11 P12 3.282368 1_564
Ba11 P4 3.330444 1_565
Ba11 P15 3.362659 1_555
Ba11 P5 3.364383 1_555
Ba11 P0 3.389863 1_564
Ba11 P11 3.505094 1_554
P0 Sn6 2.553618 1_555
P0 Sn2 2.617948 1_555
P1 Sn5 2.509410 1_555
P2 Sn7 2.553618 1_555
P2 Sn5 2.617948 1_555
P3 Sn2 2.498748 1_565
P4 Sn3 2.581525 1_545
P4 Sn6 2.586085 1_555
P5 Sn1 2.509410 1_555
P6 Sn7 2.581525 1_565
P6 Sn0 2.586085 1_555
P7 Sn0 2.581525 1_555
P7 Sn7 2.586085 1_555
P8 Sn5 2.498748 1_555
P9 Sn4 2.509410 1_555
P10 Sn2 2.509410 1_555
P11 Sn3 2.553618 1_555
P11 Sn1 2.617948 1_555
P12 Sn1 2.498748 1_555
P13 Sn0 2.553618 1_555
P13 Sn4 2.617948 1_555
P14 Sn4 2.498748 1_545
P15 Sn6 2.581525 1_555
P15 Sn3 2.586085 1_555
