# generated using pymatgen
data_Sr6La2Ta3Al5O24
_symmetry_space_group_name_H-M   'P 1'
_cell_length_a   18.33394309
_cell_length_b   18.33394309
_cell_length_c   18.33394375
_cell_angle_alpha   17.30348610
_cell_angle_beta   17.30348610
_cell_angle_gamma   17.30348400
_symmetry_Int_Tables_number   1
_chemical_formula_structural   Sr6La2Ta3Al5O24
_chemical_formula_sum   'Sr6 La2 Ta3 Al5 O24'
_cell_volume   475.73412979
_cell_formula_units_Z   1
loop_
 _symmetry_equiv_pos_site_id
 _symmetry_equiv_pos_as_xyz
  1  'x, y, z'
loop_
 _atom_site_type_symbol
 _atom_site_label
 _atom_site_symmetry_multiplicity
 _atom_site_fract_x
 _atom_site_fract_y
 _atom_site_fract_z
 _atom_site_occupancy
  Sr  Sr0  1  0.56272500  0.56272500  0.56272500  1
  Sr  Sr1  1  0.93982100  0.93982100  0.93982100  1
  Sr  Sr2  1  0.81251300  0.81251300  0.81251300  1
  Sr  Sr3  1  0.18748700  0.18748700  0.18748700  1
  Sr  Sr4  1  0.06017900  0.06017900  0.06017900  1
  Sr  Sr5  1  0.43727500  0.43727500  0.43727500  1
  La  La0  1  0.31473200  0.31473200  0.31473200  1
  La  La1  1  0.68526800  0.68526800  0.68526800  1
  Ta  Ta0  1  0.25027000  0.25027000  0.25027000  1
  Ta  Ta1  1  0.50000000  0.50000000  0.50000000  1
  Ta  Ta2  1  0.74973000  0.74973000  0.74973000  1
  Al  Al0  1  0.00000000  0.00000000  0.00000000  1
  Al  Al1  1  0.62610500  0.62610500  0.62610500  1
  Al  Al2  1  0.87521600  0.87521600  0.87521600  1
  Al  Al3  1  0.12478400  0.12478400  0.12478400  1
  Al  Al4  1  0.37389500  0.37389500  0.37389500  1
  O  O0  1  0.18911000  0.68118000  0.18911000  1
  O  O1  1  0.31882000  0.81089000  0.81089000  1
  O  O2  1  0.44074200  0.93477100  0.44074200  1
  O  O3  1  0.81089000  0.31882000  0.81089000  1
  O  O4  1  0.18911000  0.18911000  0.68118000  1
  O  O5  1  0.56779900  0.05953400  0.05953400  1
  O  O6  1  0.69103700  0.18170600  0.69103700  1
  O  O7  1  0.81089000  0.81089000  0.31882000  1
  O  O8  1  0.05953400  0.56779900  0.05953400  1
  O  O9  1  0.44074200  0.44074200  0.93477100  1
  O  O10  1  0.81829400  0.30896300  0.30896300  1
  O  O11  1  0.68118000  0.18911000  0.18911000  1
  O  O12  1  0.94046600  0.43220100  0.94046600  1
  O  O13  1  0.05953400  0.05953400  0.56779900  1
  O  O14  1  0.30896300  0.81829400  0.30896300  1
  O  O15  1  0.69103700  0.69103700  0.18170600  1
  O  O16  1  0.06522900  0.55925800  0.55925800  1
  O  O17  1  0.93477100  0.44074200  0.44074200  1
  O  O18  1  0.30896300  0.30896300  0.81829400  1
  O  O19  1  0.94046600  0.94046600  0.43220100  1
  O  O20  1  0.18170600  0.69103700  0.69103700  1
  O  O21  1  0.55925800  0.55925800  0.06522900  1
  O  O22  1  0.43220100  0.94046600  0.94046600  1
  O  O23  1  0.55925800  0.06522900  0.55925800  1
loop_
_geom_bond_atom_site_label_1
_geom_bond_atom_site_label_2
_geom_bond_distance
_geom_bond_site_symmetry_2
La0 O11 2.604262 1_555
La0 O0 2.604262 1_555
La0 O4 2.604262 1_555
La0 O7 2.758822 1_545
La0 O7 2.758822 1_455
La0 O3 2.758822 1_455
La0 O1 2.758822 1_545
La0 O3 2.758822 1_554
La0 O1 2.758822 1_554
La0 O2 2.816462 1_545
La0 O17 2.816462 1_455
La0 O9 2.816463 1_554
La1 O1 2.604262 1_555
La1 O3 2.604262 1_555
La1 O7 2.604262 1_555
La1 O4 2.758822 1_655
La1 O4 2.758822 1_565
La1 O0 2.758822 1_655
La1 O11 2.758822 1_565
La1 O11 2.758822 1_556
La1 O0 2.758822 1_556
La1 O23 2.816462 1_565
La1 O16 2.816462 1_655
La1 O21 2.816463 1_556
Al0 O1 1.940797 1_544
Al0 O3 1.940797 1_454
Al0 O11 1.940797 1_455
Al0 O0 1.940797 1_545
Al0 O7 1.940797 1_445
Al0 O4 1.940797 1_554
Al1 O1 1.928805 1_555
Al1 O3 1.928805 1_555
Al1 O7 1.928805 1_555
Al1 O2 1.931518 1_555
Al1 O17 1.931518 1_555
Al1 O9 1.931518 1_555
Al2 O8 1.916775 1_656
Al2 O5 1.916775 1_566
Al2 O13 1.916775 1_665
Al2 O6 1.920794 1_565
Al2 O20 1.920794 1_655
Al2 O15 1.920794 1_556
Al3 O12 1.916775 1_454
Al3 O22 1.916775 1_544
Al3 O19 1.916775 1_445
Al3 O10 1.920794 1_455
Al3 O14 1.920794 1_545
Al3 O18 1.920794 1_554
Al4 O11 1.928805 1_555
Al4 O0 1.928805 1_555
Al4 O4 1.928805 1_555
Al4 O23 1.931518 1_555
Al4 O16 1.931518 1_555
Al4 O21 1.931518 1_555
O0 Sr4 2.720319 1_565
O1 Sr1 2.720319 1_455
O2 Ta0 1.998142 1_565
O2 Sr1 2.758616 1_554
O2 Sr1 2.758616 1_455
O2 Sr0 2.796953 1_555
O3 Sr1 2.720319 1_545
O4 Sr4 2.720319 1_556
O5 Ta0 1.988168 1_555
O5 Sr0 2.758169 1_554
O5 Sr0 2.758169 1_545
O5 Sr3 2.768620 1_555
O5 Sr1 2.860730 1_544
O6 Ta1 1.989228 1_555
O6 Sr3 2.758205 1_556
O6 Sr3 2.758205 1_655
O6 Sr2 2.763499 1_545
O6 Sr0 2.770445 1_555
O7 Sr1 2.720319 1_554
O8 Ta0 1.988168 1_555
O8 Sr0 2.758169 1_554
O8 Sr0 2.758169 1_455
O8 Sr3 2.768620 1_555
O8 Sr1 2.860730 1_454
O9 Ta0 1.998142 1_556
O9 Sr1 2.758616 1_455
O9 Sr1 2.758616 1_545
O9 Sr0 2.796954 1_555
O10 Ta1 1.989228 1_555
O10 Sr2 2.758205 1_554
O10 Sr2 2.758205 1_545
O10 Sr3 2.763499 1_655
O10 Sr5 2.770445 1_555
O11 Sr4 2.720319 1_655
O12 Ta2 1.988168 1_555
O12 Sr5 2.758169 1_556
O12 Sr5 2.758169 1_655
O12 Sr2 2.768620 1_555
O12 Sr4 2.860730 1_656
O13 Ta0 1.988168 1_555
O13 Sr0 2.758169 1_545
O13 Sr0 2.758169 1_455
O13 Sr3 2.768620 1_555
O13 Sr1 2.860730 1_445
O14 Ta1 1.989228 1_555
O14 Sr2 2.758205 1_554
O14 Sr2 2.758205 1_455
O14 Sr3 2.763499 1_565
O14 Sr5 2.770445 1_555
O15 Ta1 1.989228 1_555
O15 Sr3 2.758205 1_655
O15 Sr3 2.758205 1_565
O15 Sr2 2.763500 1_554
O15 Sr0 2.770445 1_555
O16 Ta2 1.998142 1_455
O16 Sr4 2.758616 1_556
O16 Sr4 2.758616 1_565
O16 Sr5 2.796953 1_555
O17 Ta0 1.998142 1_655
O17 Sr1 2.758616 1_554
O17 Sr1 2.758616 1_545
O17 Sr0 2.796953 1_555
O18 Ta1 1.989228 1_555
O18 Sr2 2.758205 1_545
O18 Sr2 2.758205 1_455
O18 Sr3 2.763500 1_556
O18 Sr5 2.770445 1_555
O19 Ta2 1.988168 1_555
O19 Sr5 2.758169 1_565
O19 Sr5 2.758169 1_655
O19 Sr2 2.768620 1_555
O19 Sr4 2.860730 1_665
O20 Ta1 1.989228 1_555
O20 Sr3 2.758205 1_556
O20 Sr3 2.758205 1_565
O20 Sr2 2.763499 1_455
O20 Sr0 2.770445 1_555
O21 Ta2 1.998142 1_554
O21 Sr4 2.758616 1_565
O21 Sr4 2.758616 1_655
O21 Sr5 2.796954 1_555
O22 Ta2 1.988168 1_555
O22 Sr5 2.758169 1_556
O22 Sr5 2.758169 1_565
O22 Sr2 2.768620 1_555
O22 Sr4 2.860730 1_566
O23 Ta2 1.998142 1_545
O23 Sr4 2.758616 1_556
O23 Sr4 2.758616 1_655
O23 Sr5 2.796953 1_555
