# generated using pymatgen
data_TaSe2
_symmetry_space_group_name_H-M   'P 1'
_cell_length_a   3.47427758
_cell_length_b   3.47427623
_cell_length_c   26.90100796
_cell_angle_alpha   90.00000000
_cell_angle_beta   90.00000000
_cell_angle_gamma   120.00001281
_symmetry_Int_Tables_number   1
_chemical_formula_structural   TaSe2
_chemical_formula_sum   'Ta4 Se8'
_cell_volume   281.20820480
_cell_formula_units_Z   4
loop_
 _symmetry_equiv_pos_site_id
 _symmetry_equiv_pos_as_xyz
  1  'x, y, z'
loop_
 _atom_site_type_symbol
 _atom_site_label
 _atom_site_symmetry_multiplicity
 _atom_site_fract_x
 _atom_site_fract_y
 _atom_site_fract_z
 _atom_site_occupancy
  Ta  Ta0  1  0.66666700  0.33333300  0.24876120  1
  Ta  Ta1  1  0.66666700  0.33333300  0.75123880  1
  Ta  Ta2  1  0.33333300  0.66666700  -0.00000000  1
  Ta  Ta3  1  0.66666700  0.33333300  0.50000000  1
  Se  Se0  1  0.00000000  -0.00000000  0.31063865  1
  Se  Se1  1  0.00000000  -0.00000000  0.68936135  1
  Se  Se2  1  0.33333300  0.66666700  0.43805827  1
  Se  Se3  1  0.33333300  0.66666700  0.56194173  1
  Se  Se4  1  0.00000000  -0.00000000  0.18684329  1
  Se  Se5  1  0.66666700  0.33333300  0.93818728  1
  Se  Se6  1  0.00000000  -0.00000000  0.81315671  1
  Se  Se7  1  0.66666700  0.33333300  0.06181272  1
loop_
_geom_bond_atom_site_label_1
_geom_bond_atom_site_label_2
_geom_bond_distance
_geom_bond_site_symmetry_2
Se0 Ta0 2.606589 1_455
Se0 Ta0 2.606590 1_445
Se0 Ta0 2.606591 1_555
Se1 Ta1 2.606589 1_455
Se1 Ta1 2.606590 1_445
Se1 Ta1 2.606591 1_555
Se2 Ta3 2.607693 1_565
Se2 Ta3 2.607693 1_455
Se2 Ta3 2.607698 1_555
Se3 Ta3 2.607693 1_565
Se3 Ta3 2.607693 1_455
Se3 Ta3 2.607698 1_555
Se4 Ta0 2.607284 1_455
Se4 Ta0 2.607286 1_445
Se4 Ta0 2.607286 1_555
Se5 Ta2 2.605477 1_546
Se5 Ta2 2.605477 1_656
Se5 Ta2 2.605482 1_556
Se6 Ta1 2.607284 1_455
Se6 Ta1 2.607286 1_445
Se6 Ta1 2.607286 1_555
Se7 Ta2 2.605477 1_545
Se7 Ta2 2.605477 1_655
Se7 Ta2 2.605482 1_555
