# generated using pymatgen
data_Mg2CoH5
_symmetry_space_group_name_H-M   'P 1'
_cell_length_a   4.41115151
_cell_length_b   4.41115151
_cell_length_c   6.53277552
_cell_angle_alpha   90.00000000
_cell_angle_beta   90.00000000
_cell_angle_gamma   90.00000000
_symmetry_Int_Tables_number   1
_chemical_formula_structural   Mg2CoH5
_chemical_formula_sum   'Mg4 Co2 H10'
_cell_volume   127.11642920
_cell_formula_units_Z   2
loop_
 _symmetry_equiv_pos_site_id
 _symmetry_equiv_pos_as_xyz
  1  'x, y, z'
loop_
 _atom_site_type_symbol
 _atom_site_label
 _atom_site_symmetry_multiplicity
 _atom_site_fract_x
 _atom_site_fract_y
 _atom_site_fract_z
 _atom_site_occupancy
  Mg  Mg0  1  0.75000000  0.25000000  0.00000000  1
  Mg  Mg1  1  0.25000000  0.75000000  0.00000000  1
  Mg  Mg2  1  0.75000000  0.25000000  0.50000000  1
  Mg  Mg3  1  0.25000000  0.75000000  0.50000000  1
  Co  Co0  1  0.75000000  0.75000000  0.74229176  1
  Co  Co1  1  0.25000000  0.25000000  0.25770824  1
  H  H0  1  0.75000000  0.75000000  0.50563026  1
  H  H1  1  0.25000000  0.25000000  0.49436974  1
  H  H2  1  0.99111482  0.99111482  0.77053779  1
  H  H3  1  0.50888518  0.99111482  0.77053779  1
  H  H4  1  0.99111482  0.50888518  0.77053779  1
  H  H5  1  0.50888518  0.50888518  0.77053779  1
  H  H6  1  0.00888518  0.00888518  0.22946221  1
  H  H7  1  0.49111482  0.00888518  0.22946221  1
  H  H8  1  0.00888518  0.49111482  0.22946221  1
  H  H9  1  0.49111482  0.49111482  0.22946221  1
loop_
_geom_bond_atom_site_label_1
_geom_bond_atom_site_label_2
_geom_bond_distance
_geom_bond_site_symmetry_2
Co0 H5 1.515425 1_555
Co0 H3 1.515425 1_555
Co0 H4 1.515425 1_555
Co0 H2 1.515425 1_555
Co0 H0 1.546056 1_555
Co1 H7 1.515425 1_555
Co1 H6 1.515425 1_555
Co1 H8 1.515425 1_555
Co1 H9 1.515425 1_555
Co1 H1 1.546056 1_555
H0 Mg3 2.205882 1_655
H0 Mg2 2.205882 1_555
H0 Mg2 2.205882 1_565
H0 Mg3 2.205882 1_555
H1 Mg2 2.205882 1_455
H1 Mg2 2.205882 1_555
H1 Mg3 2.205882 1_545
H1 Mg3 2.205882 1_555
H2 Mg0 2.163893 1_566
H2 Mg1 2.163893 1_656
H2 Mg3 2.357737 1_655
H2 Mg2 2.357737 1_565
H3 Mg0 2.163893 1_566
H3 Mg1 2.163893 1_556
H3 Mg2 2.357737 1_565
H3 Mg3 2.357737 1_555
H4 Mg1 2.163893 1_656
H4 Mg0 2.163893 1_556
H4 Mg3 2.357737 1_655
H4 Mg2 2.357737 1_555
H5 Mg1 2.163893 1_556
H5 Mg0 2.163893 1_556
H5 Mg2 2.357737 1_555
H5 Mg3 2.357737 1_555
H6 Mg1 2.163893 1_545
H6 Mg0 2.163893 1_455
H6 Mg2 2.357737 1_455
H6 Mg3 2.357737 1_545
H7 Mg1 2.163893 1_545
H7 Mg0 2.163893 1_555
H7 Mg2 2.357737 1_555
H7 Mg3 2.357737 1_545
H8 Mg1 2.163893 1_555
H8 Mg0 2.163893 1_455
H8 Mg2 2.357737 1_455
H8 Mg3 2.357737 1_555
H9 Mg1 2.163893 1_555
H9 Mg0 2.163893 1_555
H9 Mg2 2.357737 1_555
H9 Mg3 2.357737 1_555
