# generated using pymatgen
data_K5Nb4O12F
_symmetry_space_group_name_H-M   'P 1'
_cell_length_a   11.89408151
_cell_length_b   5.13104861
_cell_length_c   12.73842783
_cell_angle_alpha   69.37629690
_cell_angle_beta   90.00000000
_cell_angle_gamma   90.00000000
_symmetry_Int_Tables_number   1
_chemical_formula_structural   K5Nb4O12F
_chemical_formula_sum   'K10 Nb8 O24 F2'
_cell_volume   727.59342725
_cell_formula_units_Z   2
loop_
 _symmetry_equiv_pos_site_id
 _symmetry_equiv_pos_as_xyz
  1  'x, y, z'
loop_
 _atom_site_type_symbol
 _atom_site_label
 _atom_site_symmetry_multiplicity
 _atom_site_fract_x
 _atom_site_fract_y
 _atom_site_fract_z
 _atom_site_occupancy
  K  K0  1  0.66916418  0.41099193  0.64854305  1
  K  K1  1  0.50000000  0.00000000  0.50000000  1
  K  K2  1  0.16916418  0.58900807  0.85145695  1
  K  K3  1  -0.00000000  0.00000000  0.00000000  1
  K  K4  1  0.83083582  0.41099193  0.14854305  1
  K  K5  1  0.33083582  0.58900807  0.35145695  1
  K  K6  1  0.14424758  0.27199179  0.17020646  1
  K  K7  1  0.64424758  0.72800821  0.32979354  1
  K  K8  1  0.35575242  0.27199179  0.67020646  1
  K  K9  1  0.85575242  0.72800821  0.82979354  1
  Nb  Nb0  1  0.01288049  0.32905038  0.64577492  1
  Nb  Nb1  1  0.51288049  0.67094962  0.85422508  1
  Nb  Nb2  1  0.98711951  0.67094962  0.35422508  1
  Nb  Nb3  1  0.48711951  0.32905038  0.14577492  1
  Nb  Nb4  1  0.14400803  0.93360897  0.52371641  1
  Nb  Nb5  1  0.64400803  0.06639103  0.97628359  1
  Nb  Nb6  1  0.85599197  0.06639103  0.47628359  1
  Nb  Nb7  1  0.35599197  0.93360897  0.02371641  1
  O  O0  1  0.37110404  0.84885507  0.88314612  1
  O  O1  1  0.62889596  0.15114493  0.11685388  1
  O  O2  1  0.02168146  0.67796699  0.21557978  1
  O  O3  1  0.52168146  0.32203301  0.28442022  1
  O  O4  1  0.97831854  0.32203301  0.78442022  1
  O  O5  1  0.47831854  0.67796699  0.71557978  1
  O  O6  1  0.21663875  0.08064708  0.00170294  1
  O  O7  1  0.71663875  0.91935292  0.49829706  1
  O  O8  1  0.78336125  0.91935292  0.99829706  1
  O  O9  1  0.28336125  0.08064708  0.50170294  1
  O  O10  1  0.10243265  0.99978624  0.67101841  1
  O  O11  1  0.60243265  0.00021376  0.82898159  1
  O  O12  1  0.87110404  0.15114493  0.61685388  1
  O  O13  1  0.39756735  0.99978624  0.17101841  1
  O  O14  1  0.16262084  0.54811325  0.62002698  1
  O  O15  1  0.66262084  0.45188675  0.87997302  1
  O  O16  1  0.83737916  0.45188675  0.37997302  1
  O  O17  1  0.33737916  0.54811325  0.12002698  1
  O  O18  1  0.45925358  0.28219556  0.96203973  1
  O  O19  1  0.95925358  0.71780444  0.53796027  1
  O  O20  1  0.54074642  0.71780444  0.03796027  1
  O  O21  1  0.04074642  0.28219556  0.46203973  1
  O  O22  1  0.89756735  0.00021376  0.32898159  1
  O  O23  1  0.12889596  0.84885507  0.38314612  1
  F  F0  1  0.50000000  0.50000000  0.50000000  1
  F  F1  1  -0.00000000  0.50000000  0.00000000  1
loop_
_geom_bond_atom_site_label_1
_geom_bond_atom_site_label_2
_geom_bond_distance
_geom_bond_site_symmetry_2
K0 O11 2.634913 1_555
K0 O7 2.696089 1_555
K0 O12 2.844085 1_555
K0 O5 2.929574 1_555
K0 O15 3.029338 1_555
K1 O7 2.611036 1_545
K1 O9 2.611036 1_555
K1 O3 2.672371 1_555
K1 O5 2.672371 1_545
K2 O10 2.634913 1_555
K2 O6 2.696089 1_556
K2 O0 2.844085 1_555
K2 O4 2.929574 1_455
K2 O14 3.029338 1_555
K3 O8 2.611036 1_444
K3 O6 2.611036 1_555
K3 O4 2.672371 1_454
K3 O2 2.672371 1_545
K4 O22 2.634913 1_555
K4 O8 2.696089 1_554
K4 O1 2.844085 1_555
K4 O2 2.929574 1_655
K4 O16 3.029338 1_555
K5 O13 2.634913 1_555
K5 O9 2.696089 1_555
K5 O23 2.844085 1_555
K5 O3 2.929574 1_555
K5 O17 3.029338 1_555
K6 O17 2.656066 1_555
K6 O2 2.765259 1_555
K6 O6 2.792348 1_555
K6 O23 2.820672 1_545
K7 O16 2.656066 1_555
K7 O3 2.765259 1_555
K7 O7 2.792348 1_555
K7 O1 2.820672 1_565
K8 O14 2.656066 1_555
K8 O5 2.765259 1_555
K8 O9 2.792348 1_555
K8 O0 2.820672 1_545
K9 O15 2.656066 1_555
K9 O4 2.765259 1_555
K9 O8 2.792348 1_555
K9 O12 2.820672 1_565
Nb0 O4 1.801299 1_455
Nb0 O10 1.926013 1_545
Nb0 O12 2.012343 1_455
Nb0 O14 2.069623 1_555
Nb0 O19 2.083760 1_455
Nb0 O21 2.458042 1_555
Nb1 O5 1.801299 1_555
Nb1 O11 1.926013 1_565
Nb1 O0 2.012343 1_555
Nb1 O15 2.069623 1_555
Nb1 O18 2.083760 1_555
Nb1 O20 2.458042 1_556
Nb2 O2 1.801299 1_655
Nb2 O22 1.926013 1_565
Nb2 O23 2.012343 1_655
Nb2 O16 2.069623 1_555
Nb2 O21 2.083760 1_655
Nb2 O19 2.458042 1_555
Nb3 O3 1.801299 1_555
Nb3 O13 1.926013 1_545
Nb3 O1 2.012343 1_555
Nb3 O17 2.069623 1_555
Nb3 O20 2.083760 1_555
Nb3 O18 2.458042 1_554
Nb4 O9 1.801677 1_565
Nb4 O14 1.938331 1_555
Nb4 O23 1.994091 1_555
Nb4 O10 2.080754 1_555
Nb4 O21 2.082055 1_565
Nb4 O19 2.438534 1_455
Nb5 O8 1.801677 1_545
Nb5 O15 1.938331 1_555
Nb5 O1 1.994091 1_556
Nb5 O11 2.080754 1_555
Nb5 O20 2.082055 1_546
Nb5 O18 2.438534 1_555
Nb6 O7 1.801677 1_545
Nb6 O16 1.938331 1_555
Nb6 O12 1.994091 1_555
Nb6 O22 2.080754 1_555
Nb6 O19 2.082055 1_545
Nb6 O21 2.438534 1_655
Nb7 O6 1.801677 1_565
Nb7 O17 1.938331 1_555
Nb7 O0 1.994091 1_554
Nb7 O13 2.080754 1_555
Nb7 O18 2.082055 1_564
Nb7 O20 2.438534 1_555
F0 K1 2.565524 1_565
F0 K1 2.565524 1_555
F0 K8 2.688184 1_555
F0 K7 2.688184 1_555
F0 K0 2.688605 1_555
F0 K5 2.688605 1_555
F1 K3 2.565524 1_565
F1 K3 2.565524 1_555
F1 K9 2.688184 1_454
F1 K6 2.688184 1_555
F1 K4 2.688605 1_455
F1 K2 2.688605 1_554
