# generated using pymatgen
data_K2TiAl(PO4)3
_symmetry_space_group_name_H-M   'P 1'
_cell_length_a   9.84358700
_cell_length_b   9.84358700
_cell_length_c   9.84358700
_cell_angle_alpha   90.00000000
_cell_angle_beta   90.00000000
_cell_angle_gamma   90.00000000
_symmetry_Int_Tables_number   1
_chemical_formula_structural   K2TiAl(PO4)3
_chemical_formula_sum   'K8 Ti4 Al4 P12 O48'
_cell_volume   953.80622415
_cell_formula_units_Z   4
loop_
 _symmetry_equiv_pos_site_id
 _symmetry_equiv_pos_as_xyz
  1  'x, y, z'
loop_
 _atom_site_type_symbol
 _atom_site_label
 _atom_site_symmetry_multiplicity
 _atom_site_fract_x
 _atom_site_fract_y
 _atom_site_fract_z
 _atom_site_occupancy
  K  K0  1  0.04031900  0.95968100  0.45968100  1
  K  K1  1  0.18108400  0.68108400  0.81891600  1
  K  K2  1  0.31891600  0.31891600  0.31891600  1
  K  K3  1  0.45968100  0.04031900  0.95968100  1
  K  K4  1  0.54031900  0.54031900  0.54031900  1
  K  K5  1  0.68108400  0.81891600  0.18108400  1
  K  K6  1  0.81891600  0.18108400  0.68108400  1
  K  K7  1  0.95968100  0.45968100  0.04031900  1
  Ti  Ti0  1  0.16374500  0.33625500  0.66374500  1
  Ti  Ti1  1  0.33625500  0.66374500  0.16374500  1
  Ti  Ti2  1  0.66374500  0.16374500  0.33625500  1
  Ti  Ti3  1  0.83625500  0.83625500  0.83625500  1
  Al  Al0  1  0.10808200  0.10808200  0.10808200  1
  Al  Al1  1  0.39191800  0.89191800  0.60808200  1
  Al  Al2  1  0.60808200  0.39191800  0.89191800  1
  Al  Al3  1  0.89191800  0.60808200  0.39191800  1
  P  P0  1  0.02137500  0.79607200  0.12799100  1
  P  P1  1  0.12799100  0.02137500  0.79607200  1
  P  P2  1  0.20392800  0.62799100  0.47862500  1
  P  P3  1  0.29607200  0.37200900  0.97862500  1
  P  P4  1  0.37200900  0.97862500  0.29607200  1
  P  P5  1  0.47862500  0.20392800  0.62799100  1
  P  P6  1  0.52137500  0.70392800  0.87200900  1
  P  P7  1  0.62799100  0.47862500  0.20392800  1
  P  P8  1  0.70392800  0.87200900  0.52137500  1
  P  P9  1  0.79607200  0.12799100  0.02137500  1
  P  P10  1  0.87200900  0.52137500  0.70392800  1
  P  P11  1  0.97862500  0.29607200  0.37200900  1
  O  O0  1  0.00979500  0.44621400  0.72825000  1
  O  O1  1  0.01724300  0.94592400  0.17064500  1
  O  O2  1  0.04970900  0.20434300  0.26834300  1
  O  O3  1  0.05378600  0.27175000  0.50979500  1
  O  O4  1  0.05407600  0.67064500  0.48275700  1
  O  O5  1  0.10237700  0.17063100  0.74983300  1
  O  O6  1  0.17064500  0.01724300  0.94592400  1
  O  O7  1  0.17063100  0.74983300  0.10237700  1
  O  O8  1  0.20434300  0.26834300  0.04970900  1
  O  O9  1  0.22825000  0.49020500  0.55378600  1
  O  O10  1  0.23165700  0.95029100  0.70434300  1
  O  O11  1  0.24983300  0.39762300  0.82936900  1
  O  O12  1  0.25016700  0.60237700  0.32936900  1
  O  O13  1  0.26834300  0.04970900  0.20434300  1
  O  O14  1  0.27175000  0.50979500  0.05378600  1
  O  O15  1  0.29565700  0.73165700  0.54970900  1
  O  O16  1  0.32936900  0.25016700  0.60237700  1
  O  O17  1  0.32935500  0.98275700  0.44592400  1
  O  O18  1  0.39762300  0.82936900  0.24983300  1
  O  O19  1  0.44592400  0.32935500  0.98275700  1
  O  O20  1  0.44621400  0.72825000  0.00979500  1
  O  O21  1  0.45029100  0.79565700  0.76834300  1
  O  O22  1  0.48275700  0.05407600  0.67064500  1
  O  O23  1  0.49020500  0.55378600  0.22825000  1
  O  O24  1  0.50979500  0.05378600  0.27175000  1
  O  O25  1  0.51724300  0.55407600  0.82935500  1
  O  O26  1  0.54970900  0.29565700  0.73165700  1
  O  O27  1  0.55378600  0.22825000  0.49020500  1
  O  O28  1  0.55407600  0.82935500  0.51724300  1
  O  O29  1  0.60237700  0.32936900  0.25016700  1
  O  O30  1  0.67064500  0.48275700  0.05407600  1
  O  O31  1  0.67063100  0.75016700  0.89762300  1
  O  O32  1  0.70434300  0.23165700  0.95029100  1
  O  O33  1  0.72825000  0.00979500  0.44621400  1
  O  O34  1  0.73165700  0.54970900  0.29565700  1
  O  O35  1  0.74983300  0.10237700  0.17063100  1
  O  O36  1  0.75016700  0.89762300  0.67063100  1
  O  O37  1  0.76834300  0.45029100  0.79565700  1
  O  O38  1  0.77175000  0.99020500  0.94621400  1
  O  O39  1  0.79565700  0.76834300  0.45029100  1
  O  O40  1  0.82936900  0.24983300  0.39762300  1
  O  O41  1  0.82935500  0.51724300  0.55407600  1
  O  O42  1  0.89762300  0.67063100  0.75016700  1
  O  O43  1  0.94592400  0.17064500  0.01724300  1
  O  O44  1  0.94621400  0.77175000  0.99020500  1
  O  O45  1  0.95029100  0.70434300  0.23165700  1
  O  O46  1  0.98275700  0.44592400  0.32935500  1
  O  O47  1  0.99020500  0.94621400  0.77175000  1
loop_
_geom_bond_atom_site_label_1
_geom_bond_atom_site_label_2
_geom_bond_distance
_geom_bond_site_symmetry_2
K0 O17 2.857415 1_555
K0 O1 2.857415 1_555
K0 O4 2.857415 1_555
K0 O10 3.058773 1_555
K0 O2 3.058773 1_565
K0 O39 3.058773 1_455
K0 O3 3.114058 1_565
K0 O33 3.114058 1_465
K0 O47 3.114058 1_455
K1 O7 2.873009 1_556
K1 O11 2.873009 1_555
K1 O42 2.873009 1_455
K1 O21 2.922684 1_555
K1 O15 2.922684 1_555
K1 O10 2.922684 1_555
K1 O0 2.997435 1_555
K1 O44 2.997435 1_455
K1 O14 2.997435 1_556
K1 O47 3.249179 1_455
K1 O9 3.249179 1_555
K1 O20 3.249179 1_556
K2 O29 2.873009 1_555
K2 O16 2.873009 1_555
K2 O12 2.873009 1_555
K2 O8 2.922684 1_555
K2 O2 2.922684 1_555
K2 O13 2.922684 1_555
K2 O23 2.997435 1_555
K2 O27 2.997435 1_555
K2 O9 2.997435 1_555
K2 O14 3.249179 1_555
K2 O24 3.249179 1_555
K2 O3 3.249179 1_555
K3 O19 2.857415 1_555
K3 O6 2.857415 1_555
K3 O22 2.857415 1_555
K3 O32 3.058773 1_555
K3 O13 3.058773 1_556
K3 O21 3.058773 1_545
K3 O24 3.114058 1_556
K3 O20 3.114058 1_546
K3 O38 3.114058 1_545
K4 O41 2.857415 1_555
K4 O28 2.857415 1_555
K4 O25 2.857415 1_555
K4 O26 3.058773 1_555
K4 O34 3.058773 1_555
K4 O15 3.058773 1_555
K4 O23 3.114058 1_555
K4 O27 3.114058 1_555
K4 O9 3.114058 1_555
K5 O35 2.873009 1_565
K5 O18 2.873009 1_555
K5 O31 2.873009 1_554
K5 O39 2.922684 1_555
K5 O34 2.922684 1_555
K5 O45 2.922684 1_555
K5 O20 2.997435 1_555
K5 O38 2.997435 1_554
K5 O24 2.997435 1_565
K5 O44 3.249179 1_554
K5 O33 3.249179 1_565
K5 O23 3.249179 1_555
K6 O5 2.873009 1_655
K6 O40 2.873009 1_555
K6 O36 2.873009 1_545
K6 O37 2.922684 1_555
K6 O26 2.922684 1_555
K6 O32 2.922684 1_555
K6 O33 2.997435 1_555
K6 O47 2.997435 1_545
K6 O3 2.997435 1_655
K6 O38 3.249179 1_545
K6 O0 3.249179 1_655
K6 O27 3.249179 1_555
K7 O46 2.857415 1_555
K7 O43 2.857415 1_555
K7 O30 2.857415 1_555
K7 O45 3.058773 1_555
K7 O8 3.058773 1_655
K7 O37 3.058773 1_554
K7 O0 3.114058 1_654
K7 O14 3.114058 1_655
K7 O44 3.114058 1_554
Al0 O13 1.927865 1_555
Al0 O8 1.927865 1_555
Al0 O2 1.927865 1_555
Al0 O1 1.930474 1_545
Al0 O43 1.930474 1_455
Al0 O6 1.930474 1_554
Al1 O10 1.927865 1_555
Al1 O15 1.927865 1_555
Al1 O21 1.927865 1_555
Al1 O22 1.930474 1_565
Al1 O17 1.930474 1_555
Al1 O28 1.930474 1_555
Al2 O32 1.927865 1_555
Al2 O26 1.927865 1_555
Al2 O37 1.927865 1_555
Al2 O30 1.930474 1_556
Al2 O19 1.930474 1_555
Al2 O25 1.930474 1_555
Al3 O45 1.927865 1_555
Al3 O34 1.927865 1_555
Al3 O39 1.927865 1_555
Al3 O4 1.930474 1_655
Al3 O46 1.930474 1_555
Al3 O41 1.930474 1_555
O0 P10 1.563418 1_455
O0 Ti0 1.967548 1_555
O1 P0 1.534213 1_555
O2 P11 1.531739 1_455
O3 P11 1.563418 1_455
O3 Ti0 1.967548 1_555
O4 P2 1.534213 1_555
O5 P1 1.558631 1_555
O5 Ti0 1.934171 1_555
O6 P1 1.534213 1_555
O7 P0 1.558631 1_555
O7 Ti1 1.934171 1_555
O8 P3 1.531739 1_554
O9 P2 1.563418 1_555
O9 Ti0 1.967548 1_555
O10 P1 1.531739 1_565
O11 P3 1.558631 1_555
O11 Ti0 1.934171 1_555
O12 P2 1.558631 1_555
O12 Ti1 1.934171 1_555
O13 P4 1.531739 1_545
O14 P3 1.563418 1_554
O14 Ti1 1.967548 1_555
O15 P2 1.531739 1_555
O16 P5 1.558631 1_555
O16 Ti0 1.934171 1_555
O17 P4 1.534213 1_555
O18 P4 1.558631 1_555
O18 Ti1 1.934171 1_555
O19 P3 1.534213 1_555
O20 P6 1.563418 1_554
O20 Ti1 1.967548 1_555
O21 P6 1.531739 1_555
O22 P5 1.534213 1_555
O23 P7 1.563418 1_555
O23 Ti1 1.967548 1_555
O24 P4 1.563418 1_545
O24 Ti2 1.967548 1_555
O25 P6 1.534213 1_555
O26 P5 1.531739 1_555
O27 P5 1.563418 1_555
O27 Ti2 1.967548 1_555
O28 P8 1.534213 1_555
O29 P7 1.558631 1_555
O29 Ti2 1.934171 1_555
O30 P7 1.534213 1_555
O31 P6 1.558631 1_555
O31 Ti3 1.934171 1_555
O32 P9 1.531739 1_556
O33 P8 1.563418 1_545
O33 Ti2 1.967548 1_555
O34 P7 1.531739 1_555
O35 P9 1.558631 1_555
O35 Ti2 1.934171 1_555
O36 P8 1.558631 1_555
O36 Ti3 1.934171 1_555
O37 P10 1.531739 1_555
O38 P9 1.563418 1_566
O38 Ti3 1.967548 1_555
O39 P8 1.531739 1_555
O40 P11 1.558631 1_555
O40 Ti2 1.934171 1_555
O41 P10 1.534213 1_555
O42 P10 1.558631 1_555
O42 Ti3 1.934171 1_555
O43 P9 1.534213 1_555
O44 P0 1.563418 1_656
O44 Ti3 1.967548 1_555
O45 P0 1.531739 1_655
O46 P11 1.534213 1_555
O47 P1 1.563418 1_665
O47 Ti3 1.967548 1_555
