# generated using pymatgen
data_Nb4IrSe10
_symmetry_space_group_name_H-M   'P 1'
_cell_length_a   6.08016700
_cell_length_b   7.62836921
_cell_length_c   9.12392085
_cell_angle_alpha   113.02410197
_cell_angle_beta   108.97991661
_cell_angle_gamma   88.88315128
_symmetry_Int_Tables_number   1
_chemical_formula_structural   Nb4IrSe10
_chemical_formula_sum   'Nb4 Ir1 Se10'
_cell_volume   365.46654245
_cell_formula_units_Z   1
loop_
 _symmetry_equiv_pos_site_id
 _symmetry_equiv_pos_as_xyz
  1  'x, y, z'
loop_
 _atom_site_type_symbol
 _atom_site_label
 _atom_site_symmetry_multiplicity
 _atom_site_fract_x
 _atom_site_fract_y
 _atom_site_fract_z
 _atom_site_occupancy
  Nb  Nb0  1  0.23813100  0.40881500  0.90918700  1
  Nb  Nb1  1  0.32746300  0.80482500  0.29550800  1
  Nb  Nb2  1  0.67253700  0.19517500  0.70449200  1
  Nb  Nb3  1  0.76186900  0.59118500  0.09081300  1
  Ir  Ir0  1  0.00000000  0.00000000  0.50000000  1
  Se  Se0  1  0.90755400  0.34714700  0.59608700  1
  Se  Se1  1  0.71306500  0.84560100  0.57967800  1
  Se  Se2  1  0.06769100  0.74480900  0.99768500  1
  Se  Se3  1  0.93230900  0.25519100  0.00231500  1
  Se  Se4  1  0.28693500  0.15439900  0.42032200  1
  Se  Se5  1  0.09244600  0.65285300  0.40391300  1
  Se  Se6  1  0.49474900  0.54543000  0.79349400  1
  Se  Se7  1  0.32280000  0.06239700  0.77954400  1
  Se  Se8  1  0.67720000  0.93760300  0.22045600  1
  Se  Se9  1  0.50525100  0.45457000  0.20650600  1
loop_
_geom_bond_atom_site_label_1
_geom_bond_atom_site_label_2
_geom_bond_distance
_geom_bond_site_symmetry_2
Nb0 Se9 2.556178 1_556
Nb0 Se7 2.558409 1_555
Nb0 Se6 2.574881 1_555
Nb0 Se2 2.667803 1_555
Nb0 Se3 2.728454 1_456
Nb0 Se0 2.769963 1_455
Nb1 Se5 2.498997 1_555
Nb1 Se4 2.500035 1_565
Nb1 Se2 2.520193 1_554
Nb1 Se8 2.755059 1_555
Nb1 Se9 2.779936 1_555
Nb1 Se1 2.785565 1_555
Nb2 Se0 2.498997 1_555
Nb2 Se1 2.500035 1_545
Nb2 Se3 2.520193 1_556
Nb2 Se7 2.755059 1_555
Nb2 Se6 2.779936 1_555
Nb2 Se4 2.785565 1_555
Nb3 Se6 2.556178 1_554
Nb3 Se8 2.558409 1_555
Nb3 Se9 2.574881 1_555
Nb3 Se3 2.667803 1_555
Nb3 Se2 2.728454 1_654
Nb3 Se5 2.769963 1_655
Ir0 Se7 2.532682 1_555
Ir0 Se8 2.532682 1_445
Ir0 Se1 2.556225 1_445
Ir0 Se4 2.556225 1_555
Ir0 Se5 2.558078 1_545
Ir0 Se0 2.558078 1_455
