# generated using pymatgen
data_Rb
_symmetry_space_group_name_H-M   'P 1'
_cell_length_a   18.26216517
_cell_length_b   18.26216517
_cell_length_c   18.26216517
_cell_angle_alpha   149.79610283
_cell_angle_beta   149.79610283
_cell_angle_gamma   43.24078410
_symmetry_Int_Tables_number   1
_chemical_formula_structural   Rb
_chemical_formula_sum   Rb16
_cell_volume   1537.35470208
_cell_formula_units_Z   16
loop_
 _symmetry_equiv_pos_site_id
 _symmetry_equiv_pos_as_xyz
  1  'x, y, z'
loop_
 _atom_site_type_symbol
 _atom_site_label
 _atom_site_symmetry_multiplicity
 _atom_site_fract_x
 _atom_site_fract_y
 _atom_site_fract_z
 _atom_site_occupancy
  Rb  Rb0_0  1  0.12500000  0.37500000  0.25000000  1
  Rb  Rb0_1  1  0.12500000  0.37500000  0.75000000  1
  Rb  Rb0_2  1  0.12500000  0.87500000  0.25000000  1
  Rb  Rb0_3  1  0.12500000  0.87500000  0.75000000  1
  Rb  Rb0_4  1  0.62500000  0.37500000  0.25000000  1
  Rb  Rb0_5  1  0.62500000  0.37500000  0.75000000  1
  Rb  Rb0_6  1  0.62500000  0.87500000  0.25000000  1
  Rb  Rb0_7  1  0.62500000  0.87500000  0.75000000  1
  Rb  Rb1_0  1  0.25000000  0.25000000  0.00000000  1
  Rb  Rb1_1  1  0.25000000  0.25000000  0.50000000  1
  Rb  Rb1_2  1  0.25000000  0.75000000  0.00000000  1
  Rb  Rb1_3  1  0.25000000  0.75000000  0.50000000  1
  Rb  Rb1_4  1  0.75000000  0.25000000  0.00000000  1
  Rb  Rb1_5  1  0.75000000  0.25000000  0.50000000  1
  Rb  Rb1_6  1  0.75000000  0.75000000  0.00000000  1
  Rb  Rb1_7  1  0.75000000  0.75000000  0.50000000  1
loop_
_geom_bond_atom_site_label_1
_geom_bond_atom_site_label_2
_geom_bond_distance
_geom_bond_site_symmetry_2
Rb0_0 Rb0_5 4.757976 1_454
Rb0_0 Rb0_3 4.757976 1_555
Rb0_0 Rb0_3 4.757976 1_544
Rb0_0 Rb0_5 4.757976 1_555
Rb0_0 Rb1_0 4.865589 1_555
Rb0_0 Rb1_1 4.865589 1_555
Rb0_0 Rb1_3 4.865589 1_555
Rb0_0 Rb1_4 4.865589 1_455
Rb0_1 Rb0_4 4.757976 1_455
Rb0_1 Rb0_2 4.757976 1_545
Rb0_1 Rb0_2 4.757976 1_556
Rb0_1 Rb0_4 4.757976 1_556
Rb0_1 Rb1_0 4.865589 1_556
Rb0_1 Rb1_2 4.865589 1_556
Rb0_1 Rb1_1 4.865589 1_555
Rb0_1 Rb1_5 4.865589 1_455
Rb0_2 Rb0_7 4.757976 1_454
Rb0_2 Rb0_7 4.757976 1_555
Rb0_2 Rb1_3 4.865589 1_555
Rb0_2 Rb1_2 4.865589 1_555
Rb0_2 Rb1_1 4.865589 1_565
Rb0_2 Rb1_6 4.865589 1_455
Rb0_3 Rb0_6 4.757976 1_556
Rb0_3 Rb0_6 4.757976 1_455
Rb0_3 Rb1_2 4.865589 1_556
Rb0_3 Rb1_3 4.865589 1_555
Rb0_3 Rb1_0 4.865589 1_566
Rb0_3 Rb1_7 4.865589 1_455
Rb0_4 Rb0_7 4.757976 1_544
Rb0_4 Rb0_7 4.757976 1_555
Rb0_4 Rb1_5 4.865589 1_555
Rb0_4 Rb1_0 4.865589 1_555
Rb0_4 Rb1_4 4.865589 1_555
Rb0_4 Rb1_7 4.865589 1_555
Rb0_5 Rb0_6 4.757976 1_556
Rb0_5 Rb0_6 4.757976 1_545
Rb0_5 Rb1_6 4.865589 1_556
Rb0_5 Rb1_4 4.865589 1_556
Rb0_5 Rb1_5 4.865589 1_555
Rb0_5 Rb1_1 4.865589 1_555
Rb0_6 Rb1_6 4.865589 1_555
Rb0_6 Rb1_5 4.865589 1_565
Rb0_6 Rb1_7 4.865589 1_555
Rb0_6 Rb1_2 4.865589 1_555
Rb0_7 Rb1_4 4.865589 1_566
Rb0_7 Rb1_7 4.865589 1_555
Rb0_7 Rb1_3 4.865589 1_555
Rb0_7 Rb1_6 4.865589 1_556
Rb1_0 Rb1_3 4.757976 1_555
Rb1_0 Rb1_3 4.757976 1_544
Rb1_0 Rb1_5 4.757976 1_555
Rb1_0 Rb1_5 4.757976 1_454
Rb1_1 Rb1_4 4.757976 1_556
Rb1_1 Rb1_2 4.757976 1_556
Rb1_1 Rb1_2 4.757976 1_545
Rb1_1 Rb1_4 4.757976 1_455
Rb1_2 Rb1_7 4.757976 1_555
Rb1_2 Rb1_7 4.757976 1_454
Rb1_3 Rb1_6 4.757976 1_455
Rb1_3 Rb1_6 4.757976 1_556
Rb1_4 Rb1_7 4.757976 1_544
Rb1_4 Rb1_7 4.757976 1_555
Rb1_5 Rb1_6 4.757976 1_545
Rb1_5 Rb1_6 4.757976 1_556
