# generated using pymatgen
data_V5N4O
_symmetry_space_group_name_H-M   'P 1'
_cell_length_a   14.64771680
_cell_length_b   7.71501641
_cell_length_c   5.10592890
_cell_angle_alpha   29.18673422
_cell_angle_beta   30.09789773
_cell_angle_gamma   19.31927662
_symmetry_Int_Tables_number   1
_chemical_formula_structural   V5N4O
_chemical_formula_sum   'V5 N4 O1'
_cell_volume   89.98895650
_cell_formula_units_Z   1
loop_
 _symmetry_equiv_pos_site_id
 _symmetry_equiv_pos_as_xyz
  1  'x, y, z'
loop_
 _atom_site_type_symbol
 _atom_site_label
 _atom_site_symmetry_multiplicity
 _atom_site_fract_x
 _atom_site_fract_y
 _atom_site_fract_z
 _atom_site_occupancy
  V  V0  1  0.03146900  0.93279500  0.03913900  1
  V  V1  1  0.23057900  0.96449400  0.94484600  1
  V  V2  1  0.36837000  0.02304900  0.07624000  1
  V  V3  1  0.56771900  0.08117500  0.95300000  1
  V  V4  1  0.80148900  0.99217400  0.00138100  1
  N  N0  1  0.97917500  0.52462600  0.52589800  1
  N  N1  1  0.21145900  0.46949200  0.53100100  1
  N  N2  1  0.39430400  0.51201600  0.48174500  1
  N  N3  1  0.62057300  0.48496800  0.46861200  1
  O  O0  1  0.80390400  0.48605500  0.51219100  1
loop_
_geom_bond_atom_site_label_1
_geom_bond_atom_site_label_2
_geom_bond_distance
_geom_bond_site_symmetry_2
N0 V2 1.993468 1_655
N0 V1 2.065407 1_645
N0 V0 2.067128 1_655
N0 V3 2.069123 1_565
N0 V0 2.069308 1_646
N0 V4 2.105238 1_555
N1 V0 2.007757 1_555
N1 V3 2.049273 1_554
N1 V1 2.057050 1_554
N1 V2 2.069808 1_556
N1 V1 2.076691 1_545
N1 V4 2.083562 1_456
N2 V3 1.991427 1_555
N2 V2 2.063086 1_565
N2 V0 2.068938 1_556
N2 V2 2.074741 1_556
N2 V1 2.078035 1_554
N2 V4 2.095194 1_545
N3 V1 2.004195 1_555
N3 V3 2.051062 1_555
N3 V2 2.057751 1_565
N3 V0 2.064699 1_645
N3 V4 2.068031 1_546
N3 V3 2.085520 1_564
O0 V4 2.041400 1_555
O0 V4 2.059662 1_546
O0 V0 2.276353 1_646
O0 V1 2.281329 1_644
O0 V2 2.305466 1_566
O0 V3 2.328986 1_564
