# generated using pymatgen
data_H5BrO2
_symmetry_space_group_name_H-M   'P 1'
_cell_length_a   4.39039900
_cell_length_b   12.43378394
_cell_length_c   6.98451585
_cell_angle_alpha   91.49197774
_cell_angle_beta   104.81983025
_cell_angle_gamma   90.67464664
_symmetry_Int_Tables_number   1
_chemical_formula_structural   H5BrO2
_chemical_formula_sum   'H20 Br4 O8'
_cell_volume   368.40433842
_cell_formula_units_Z   4
loop_
 _symmetry_equiv_pos_site_id
 _symmetry_equiv_pos_as_xyz
  1  'x, y, z'
loop_
 _atom_site_type_symbol
 _atom_site_label
 _atom_site_symmetry_multiplicity
 _atom_site_fract_x
 _atom_site_fract_y
 _atom_site_fract_z
 _atom_site_occupancy
  H  H0  1  0.71834500  0.58410700  0.30386300  1
  H  H1  1  0.48300400  0.66860100  0.39662900  1
  H  H2  1  0.41635000  0.42030500  0.35670300  1
  H  H3  1  0.59039500  0.07680000  0.84062700  1
  H  H4  1  0.53768100  0.84358200  0.89136800  1
  H  H5  1  0.29001300  0.90137200  0.79338400  1
  H  H6  1  0.58255500  0.56155900  0.64315600  1
  H  H7  1  0.27777700  0.40546500  0.69787100  1
  H  H8  1  0.42009600  0.93822300  0.14618800  1
  H  H9  1  0.74321600  0.09554500  0.18318300  1
  H  H10  1  0.25718100  0.89229600  0.38597000  1
  H  H11  1  0.21940500  0.79163600  0.50124400  1
  H  H12  1  0.73494000  0.60196100  0.89310800  1
  H  H13  1  0.75685400  0.71007200  0.00868700  1
  H  H14  1  0.50803900  0.31698400  0.60121500  1
  H  H15  1  0.88181100  0.21944400  0.55894700  1
  H  H16  1  0.57553700  0.07217000  0.51046600  1
  H  H17  1  0.27390300  0.40659800  0.10821900  1
  H  H18  1  0.23392100  0.30470100  0.99007800  1
  H  H19  1  0.46641900  0.18149900  0.09620400  1
  Br  Br0  1  0.04222800  0.65389000  0.17145500  1
  Br  Br1  1  0.97771400  0.80575700  0.65586000  1
  Br  Br2  1  0.97093900  0.34363900  0.83538600  1
  Br  Br3  1  0.06442600  0.15207300  0.32788400  1
  O  O0  1  0.58600200  0.54997500  0.37044200  1
  O  O1  1  0.42364900  0.95328000  0.85964500  1
  O  O2  1  0.40431600  0.43605900  0.62953100  1
  O  O3  1  0.58338700  0.05727500  0.12280200  1
  O  O4  1  0.36318000  0.82395300  0.43860000  1
  O  O5  1  0.67673900  0.70933500  0.93417200  1
  O  O6  1  0.65347500  0.17956300  0.56467500  1
  O  O7  1  0.35060700  0.31487000  0.05997400  1
loop_
_geom_bond_atom_site_label_1
_geom_bond_atom_site_label_2
_geom_bond_distance
_geom_bond_site_symmetry_2
H0 O0 0.936296 1_555
H1 O0 1.567625 1_555
H3 O1 1.716457 1_545
H4 O1 1.461233 1_555
H5 O1 0.900889 1_555
H6 O2 1.726793 1_555
H7 O2 0.906265 1_555
H8 O3 1.667135 1_565
H9 O3 0.852632 1_555
H10 O4 1.005915 1_555
H11 O4 0.946478 1_555
H12 O5 1.398406 1_555
H13 O5 0.548362 1_554
H14 O2 1.576461 1_555
H15 O6 1.123526 1_555
H16 O6 1.392878 1_555
H17 O7 1.254925 1_555
H18 O7 0.619746 1_556
H19 O3 1.633634 1_555
H19 O7 1.745976 1_555
Br0 H13 1.638141 1_455
Br0 H0 2.077399 1_455
Br0 H12 2.142192 1_454
Br0 H1 2.161391 1_555
Br1 H11 1.704039 1_655
Br1 H5 1.855908 1_655
Br2 H18 1.461882 1_655
Br2 H7 2.001054 1_655
Br3 H9 1.647659 1_455
Br3 H15 2.134572 1_455
