# generated using pymatgen
data_Co7(RuO6)2
_symmetry_space_group_name_H-M   'P 1'
_cell_length_a   5.96225691
_cell_length_b   17.91480525
_cell_length_c   15.78039482
_cell_angle_alpha   19.11214304
_cell_angle_beta   53.83074366
_cell_angle_gamma   57.74787971
_symmetry_Int_Tables_number   1
_chemical_formula_structural   Co7(RuO6)2
_chemical_formula_sum   'Co14 Ru4 O24'
_cell_volume   443.67901859
_cell_formula_units_Z   2
loop_
 _symmetry_equiv_pos_site_id
 _symmetry_equiv_pos_as_xyz
  1  'x, y, z'
loop_
 _atom_site_type_symbol
 _atom_site_label
 _atom_site_symmetry_multiplicity
 _atom_site_fract_x
 _atom_site_fract_y
 _atom_site_fract_z
 _atom_site_occupancy
  Co  Co0  1  0.12658700  0.29673500  0.11152700  1
  Co  Co1  1  0.50059300  0.15516500  0.01251000  1
  Co  Co2  1  0.50125400  0.51046000  0.99018400  1
  Co  Co3  1  0.11478600  0.61078900  0.14433300  1
  Co  Co4  1  0.51044600  0.17373700  0.49302900  1
  Co  Co5  1  0.50054700  0.83597700  0.99611900  1
  Co  Co6  1  0.13313700  0.96678300  0.11522900  1
  Co  Co7  1  0.49950000  0.33518200  0.49555700  1
  Co  Co8  1  0.49063000  0.49504000  0.50298500  1
  Co  Co9  1  0.89023900  0.06612900  0.84251900  1
  Co  Co10  1  0.50039600  0.83289000  0.50113600  1
  Co  Co11  1  0.87652200  0.37118500  0.88753900  1
  Co  Co12  1  0.00137200  0.83355000  0.49950500  1
  Co  Co13  1  0.86438400  0.70348600  0.88127000  1
  Ru  Ru0  1  0.47275000  0.00897900  0.50100800  1
  Ru  Ru1  1  0.02525100  0.16420700  0.49437200  1
  Ru  Ru2  1  0.53093700  0.65931200  0.49698500  1
  Ru  Ru3  1  0.97478700  0.50669000  0.50113500  1
  O  O0  1  0.26176200  0.06499600  0.25722300  1
  O  O1  1  0.27049200  0.28520700  0.21277000  1
  O  O2  1  0.71500700  0.06530400  0.28649100  1
  O  O3  1  0.27483700  0.39606200  0.26027800  1
  O  O4  1  0.70924100  0.25457900  0.25553800  1
  O  O5  1  0.29841700  0.10659700  0.71443100  1
  O  O6  1  0.24628600  0.56721000  0.27834300  1
  O  O7  1  0.25364600  0.27448800  0.71341600  1
  O  O8  1  0.73383100  0.38510500  0.28827800  1
  O  O9  1  0.23215300  0.73150300  0.26681200  1
  O  O10  1  0.71171500  0.56840900  0.26505800  1
  O  O11  1  0.75375700  0.10441900  0.71433900  1
  O  O12  1  0.29085400  0.40960700  0.75242500  1
  O  O13  1  0.29368300  0.92263400  0.24048000  1
  O  O14  1  0.74535400  0.74775700  0.24705900  1
  O  O15  1  0.28435700  0.60173100  0.71372900  1
  O  O16  1  0.73733200  0.26415400  0.74862700  1
  O  O17  1  0.72780500  0.91281800  0.25298600  1
  O  O18  1  0.73247700  0.38363600  0.78551600  1
  O  O19  1  0.27016700  0.75066500  0.75237600  1
  O  O20  1  0.73827600  0.60080400  0.74520400  1
  O  O21  1  0.27321000  0.93832400  0.73346500  1
  O  O22  1  0.70686000  0.74577500  0.75729900  1
  O  O23  1  0.75636600  0.95017700  0.71449400  1
loop_
_geom_bond_atom_site_label_1
_geom_bond_atom_site_label_2
_geom_bond_distance
_geom_bond_site_symmetry_2
Co0 O0 1.936318 1_555
Co0 O15 1.960488 1_554
Co0 O4 2.003566 1_455
Co0 O1 2.033880 1_555
Co1 O0 1.930202 1_555
Co1 O17 1.934183 1_545
Co1 O13 1.934799 1_545
Co1 O16 1.945194 1_554
Co1 O12 1.951055 1_554
Co1 O18 1.995719 1_554
Co2 O22 1.923778 1_555
Co2 O20 1.931393 1_555
Co2 O19 1.938208 1_555
Co2 O3 1.960372 1_556
Co2 O4 1.968064 1_556
Co2 O1 1.987565 1_556
Co3 O10 1.947109 1_455
Co3 O6 1.969793 1_555
Co3 O3 1.974422 1_555
Co3 O21 2.037723 1_554
Co4 O5 1.928647 1_555
Co4 O23 1.932372 1_545
Co4 O8 1.932498 1_555
Co4 O3 1.949531 1_555
Co4 O4 1.969663 1_555
Co4 O21 1.993986 1_545
Co5 O10 1.998866 1_556
Co5 O5 2.019368 1_565
Co5 O9 2.080952 1_556
Co5 O23 2.100004 1_555
Co5 O11 2.143161 1_565
Co5 O6 2.148016 1_556
Co6 O9 1.947876 1_555
Co6 O17 1.954932 1_455
Co6 O7 1.976200 1_564
Co6 O13 1.979734 1_555
Co7 O5 1.939053 1_555
Co7 O10 1.943948 1_555
Co7 O6 1.947263 1_555
Co7 O11 1.955762 1_555
Co7 O7 1.959298 1_555
Co7 O8 1.965233 1_555
Co8 O9 2.046094 1_555
Co8 O16 2.057956 1_555
Co8 O10 2.059996 1_555
Co8 O7 2.064139 1_555
Co8 O12 2.069327 1_555
Co8 O14 2.158689 1_555
Co9 O16 1.954784 1_555
Co9 O5 1.959970 1_655
Co9 O11 1.987251 1_555
Co9 O14 1.993053 1_546
Co10 O20 2.006159 1_555
Co10 O0 2.008492 1_565
Co10 O2 2.089339 1_565
Co10 O15 2.098001 1_555
Co10 O17 2.105218 1_555
Co10 O19 2.114388 1_555
Co11 O20 1.936978 1_555
Co11 O2 1.967789 1_556
Co11 O12 1.986662 1_655
Co11 O18 2.031818 1_555
Co12 O0 2.031352 1_565
Co12 O20 2.032299 1_455
Co12 O15 2.060330 1_555
Co12 O2 2.070494 1_465
Co12 O13 2.127118 1_555
Co12 O22 2.128858 1_455
Co13 O19 1.957073 1_655
Co13 O23 1.963535 1_555
Co13 O22 1.972739 1_555
Co13 O8 1.999716 1_556
O1 Ru1 2.023345 1_555
O1 Ru0 2.049599 1_555
O2 Ru0 1.973063 1_555
O3 Ru1 2.055607 1_555
O4 Ru0 2.078096 1_555
O6 Ru3 2.026978 1_455
O7 Ru3 2.036899 1_455
O8 Ru1 2.065491 1_655
O9 Ru3 2.000937 1_455
O11 Ru1 2.002192 1_655
O12 Ru2 2.063089 1_555
O13 Ru2 2.047139 1_555
O14 Ru3 2.011047 1_555
O14 Ru2 2.025075 1_555
O15 Ru2 1.984899 1_555
O16 Ru3 2.026620 1_555
O17 Ru2 2.034202 1_555
O18 Ru3 2.034004 1_555
O18 Ru2 2.048310 1_555
O19 Ru0 2.056649 1_565
O21 Ru1 2.035311 1_565
O21 Ru0 2.038445 1_565
O22 Ru0 2.034575 1_565
O23 Ru1 2.038653 1_665
