# generated using pymatgen
data_Li3ErCl6
_symmetry_space_group_name_H-M   'P 1'
_cell_length_a   11.00957629
_cell_length_b   11.00961680
_cell_length_c   6.02400620
_cell_angle_alpha   89.99894548
_cell_angle_beta   90.00079157
_cell_angle_gamma   120.00186125
_symmetry_Int_Tables_number   1
_chemical_formula_structural   Li3ErCl6
_chemical_formula_sum   'Li9 Er3 Cl18'
_cell_volume   632.34007207
_cell_formula_units_Z   3
loop_
 _symmetry_equiv_pos_site_id
 _symmetry_equiv_pos_as_xyz
  1  'x, y, z'
loop_
 _atom_site_type_symbol
 _atom_site_label
 _atom_site_symmetry_multiplicity
 _atom_site_fract_x
 _atom_site_fract_y
 _atom_site_fract_z
 _atom_site_occupancy
  Li  Li0  1  0.00004180  0.67932161  0.49999114  1
  Li  Li1  1  -0.00000653  0.66209605  -0.00002442  1
  Li  Li2  1  0.32070098  0.32070150  0.49999861  1
  Li  Li3  1  0.33788067  0.33788484  -0.00002438  1
  Li  Li4  1  0.65643058  0.65642449  0.99999216  1
  Li  Li5  1  0.34356749  0.00002580  -0.00002243  1
  Li  Li6  1  0.66209394  -0.00000782  0.00001388  1
  Li  Li7  1  0.67931637  0.00004230  0.49998314  1
  Li  Li8  1  0.00003253  0.34356950  0.00003649  1
  Er  Er0  1  0.33333848  0.66666569  0.50447595  1
  Er  Er1  1  0.99998941  -0.00000681  0.00000376  1
  Er  Er2  1  0.66666582  0.33333216  0.49553245  1
  Cl  Cl0  1  0.11403824  0.88396667  0.76771381  1
  Cl  Cl1  1  0.10720387  0.56114732  0.75145649  1
  Cl  Cl2  1  0.21407542  0.77394060  0.26076006  1
  Cl  Cl3  1  0.22606467  0.44014179  0.26075923  1
  Cl  Cl4  1  0.45394266  0.89278972  0.75144433  1
  Cl  Cl5  1  0.11603259  0.23006759  0.76771161  1
  Cl  Cl6  1  0.55984808  0.78591763  0.26076169  1
  Cl  Cl7  1  0.43885572  0.54605379  0.75144456  1
  Cl  Cl8  1  0.23007382  0.11603307  0.23229837  1
  Cl  Cl9  1  0.76992503  0.88594413  0.76771240  1
  Cl  Cl10  1  0.54605155  0.43885330  0.24856166  1
  Cl  Cl11  1  0.44013994  0.22606213  0.73924606  1
  Cl  Cl12  1  0.88594305  0.76991758  0.23229555  1
  Cl  Cl13  1  0.56113940  0.10720173  0.24855464  1
  Cl  Cl14  1  0.78591981  0.55984951  0.73923806  1
  Cl  Cl15  1  0.77393385  0.21407404  0.73924576  1
  Cl  Cl16  1  0.89278755  0.45394592  0.24855620  1
  Cl  Cl17  1  0.88397121  0.11404517  0.23228319  1
loop_
_geom_bond_atom_site_label_1
_geom_bond_atom_site_label_2
_geom_bond_distance
_geom_bond_site_symmetry_2
Cl0 Li0 2.534692 1_555
Cl0 Li1 2.536466 1_556
Cl0 Li5 2.597500 1_566
Cl0 Er1 2.602041 1_466
Cl1 Li1 2.486303 1_556
Cl1 Li8 2.558526 1_556
Cl1 Er0 2.620901 1_555
Cl1 Li0 2.629516 1_555
Cl2 Li0 2.501983 1_555
Cl2 Li1 2.576229 1_555
Cl2 Er0 2.612498 1_555
Cl2 Li5 2.673420 1_565
Cl3 Li2 2.502365 1_555
Cl3 Li3 2.576231 1_555
Cl3 Er0 2.612383 1_555
Cl3 Li8 2.672806 1_555
Cl4 Li6 2.486350 1_566
Cl4 Li5 2.558698 1_566
Cl4 Er0 2.620784 1_555
Cl4 Li7 2.629754 1_565
Cl5 Li2 2.534834 1_555
Cl5 Li3 2.536298 1_556
Cl5 Li8 2.597560 1_556
Cl5 Er1 2.601954 1_456
Cl6 Li7 2.502668 1_565
Cl6 Li6 2.576034 1_565
Cl6 Er0 2.612243 1_555
Cl6 Li4 2.673395 1_554
Cl7 Li3 2.486339 1_556
Cl7 Li4 2.558389 1_555
Cl7 Er0 2.620838 1_555
Cl7 Li2 2.629557 1_555
Cl8 Li2 2.534805 1_555
Cl8 Li3 2.536521 1_555
Cl8 Li5 2.597539 1_555
Cl8 Er1 2.602045 1_455
Cl9 Li7 2.535215 1_565
Cl9 Li6 2.536750 1_566
Cl9 Li4 2.597471 1_555
Cl9 Er1 2.601873 1_566
Cl10 Li3 2.486558 1_555
Cl10 Li4 2.558435 1_554
Cl10 Er2 2.620894 1_555
Cl10 Li2 2.629496 1_555
Cl11 Li2 2.502405 1_555
Cl11 Li3 2.576102 1_556
Cl11 Er2 2.612373 1_555
Cl11 Li5 2.672868 1_556
Cl12 Li0 2.535000 1_655
Cl12 Li1 2.536755 1_655
Cl12 Li4 2.597492 1_554
Cl12 Er1 2.601963 1_565
Cl13 Li6 2.486419 1_555
Cl13 Li5 2.558472 1_555
Cl13 Er2 2.620872 1_555
Cl13 Li7 2.629389 1_555
Cl14 Li0 2.502724 1_655
Cl14 Li1 2.575992 1_656
Cl14 Er2 2.612291 1_555
Cl14 Li4 2.673252 1_555
Cl15 Li7 2.502094 1_555
Cl15 Li6 2.576163 1_556
Cl15 Er2 2.612397 1_555
Cl15 Li8 2.673555 1_656
Cl16 Li1 2.486378 1_655
Cl16 Li8 2.558729 1_655
Cl16 Er2 2.620781 1_555
Cl16 Li0 2.629694 1_655
Cl17 Li7 2.534662 1_555
Cl17 Li6 2.536547 1_555
Cl17 Li8 2.597403 1_655
Cl17 Er1 2.601965 1_555
