# generated using pymatgen
data_Ba(HO)2
_symmetry_space_group_name_H-M   'P 1'
_cell_length_a   8.25639300
_cell_length_b   7.07440900
_cell_length_c   10.60821724
_cell_angle_alpha   58.33608493
_cell_angle_beta   90.00000000
_cell_angle_gamma   90.00000000
_symmetry_Int_Tables_number   1
_chemical_formula_structural   Ba(HO)2
_chemical_formula_sum   'Ba8 H16 O16'
_cell_volume   527.38149654
_cell_formula_units_Z   8
loop_
 _symmetry_equiv_pos_site_id
 _symmetry_equiv_pos_as_xyz
  1  'x, y, z'
loop_
 _atom_site_type_symbol
 _atom_site_label
 _atom_site_symmetry_multiplicity
 _atom_site_fract_x
 _atom_site_fract_y
 _atom_site_fract_z
 _atom_site_occupancy
  Ba  Ba0  1  0.87554700  0.35186700  0.90697200  1
  Ba  Ba1  1  0.62445300  0.35186700  0.40697200  1
  Ba  Ba2  1  0.12445300  0.64813300  0.09302800  1
  Ba  Ba3  1  0.37554700  0.64813300  0.59302800  1
  Ba  Ba4  1  0.95378500  0.92983600  0.33489900  1
  Ba  Ba5  1  0.54621500  0.92983600  0.83489900  1
  Ba  Ba6  1  0.04621500  0.07016400  0.66510100  1
  Ba  Ba7  1  0.45378500  0.07016400  0.16510100  1
  H  H0  1  0.10396100  0.66816900  0.71611400  1
  H  H1  1  0.39603900  0.66816900  0.21611400  1
  H  H2  1  0.89603900  0.33183100  0.28388600  1
  H  H3  1  0.60396100  0.33183100  0.78388600  1
  H  H4  1  0.15580800  0.19815200  0.02932000  1
  H  H5  1  0.34419200  0.19815200  0.52932000  1
  H  H6  1  0.84419200  0.80184800  0.97068000  1
  H  H7  1  0.65580800  0.80184800  0.47068000  1
  H  H8  1  0.25637500  0.17079500  0.85091400  1
  H  H9  1  0.24362500  0.17079500  0.35091400  1
  H  H10  1  0.74362500  0.82920500  0.14908600  1
  H  H11  1  0.75637500  0.82920500  0.64908600  1
  H  H12  1  0.19490400  0.55347900  0.39550200  1
  H  H13  1  0.30509600  0.55347900  0.89550200  1
  H  H14  1  0.80509600  0.44652100  0.60449800  1
  H  H15  1  0.69490400  0.44652100  0.10449800  1
  O  O0  1  0.02933800  0.69707000  0.63526200  1
  O  O1  1  0.47066200  0.69707000  0.13526200  1
  O  O2  1  0.97066200  0.30293000  0.36473800  1
  O  O3  1  0.52933800  0.30293000  0.86473800  1
  O  O4  1  0.14177700  0.25493900  0.09719500  1
  O  O5  1  0.35822300  0.25493900  0.59719500  1
  O  O6  1  0.85822300  0.74506100  0.90280500  1
  O  O7  1  0.64177700  0.74506100  0.40280500  1
  O  O8  1  0.15451600  0.10371500  0.90162500  1
  O  O9  1  0.34548400  0.10371500  0.40162500  1
  O  O10  1  0.84548400  0.89628500  0.09837500  1
  O  O11  1  0.65451600  0.89628500  0.59837500  1
  O  O12  1  0.21915300  0.71009300  0.32587700  1
  O  O13  1  0.28084700  0.71009300  0.82587700  1
  O  O14  1  0.78084700  0.28990700  0.67412300  1
  O  O15  1  0.71915300  0.28990700  0.17412300  1
loop_
_geom_bond_atom_site_label_1
_geom_bond_atom_site_label_2
_geom_bond_distance
_geom_bond_site_symmetry_2
Ba0 H4 2.596080 1_656
Ba0 H3 2.635776 1_555
Ba0 O6 2.762373 1_555
Ba0 O10 2.775147 1_546
Ba0 H0 2.811838 1_655
Ba0 O4 2.814454 1_656
Ba0 O14 2.835780 1_555
Ba0 O0 2.914463 1_655
Ba0 O8 2.914572 1_655
Ba0 H15 2.921753 1_556
Ba0 O15 2.930327 1_556
Ba0 O3 2.941784 1_555
Ba0 H14 2.970989 1_555
Ba0 H11 3.186955 1_555
Ba1 H5 2.596080 1_555
Ba1 H2 2.635776 1_555
Ba1 O7 2.762373 1_555
Ba1 O11 2.775147 1_545
Ba1 H1 2.811838 1_555
Ba1 O5 2.814454 1_555
Ba1 O15 2.835780 1_555
Ba1 O1 2.914463 1_555
Ba1 O9 2.914572 1_555
Ba1 H14 2.921753 1_555
Ba1 O14 2.930327 1_555
Ba1 O2 2.941784 1_555
Ba1 H15 2.970989 1_555
Ba1 H10 3.186955 1_555
Ba2 H6 2.596080 1_454
Ba2 H1 2.635776 1_555
Ba2 O4 2.762373 1_555
Ba2 O8 2.775147 1_564
Ba2 H2 2.811838 1_455
Ba2 O6 2.814454 1_454
Ba2 O12 2.835780 1_555
Ba2 O2 2.914463 1_455
Ba2 O10 2.914572 1_455
Ba2 H13 2.921753 1_554
Ba2 O13 2.930327 1_554
Ba2 O1 2.941784 1_555
Ba2 H12 2.970989 1_555
Ba2 H9 3.186955 1_555
Ba3 H7 2.596080 1_555
Ba3 H0 2.635776 1_555
Ba3 O5 2.762373 1_555
Ba3 O9 2.775147 1_565
Ba3 H3 2.811838 1_555
Ba3 O7 2.814454 1_555
Ba3 O13 2.835780 1_555
Ba3 O3 2.914463 1_555
Ba3 O11 2.914572 1_555
Ba3 H12 2.921753 1_555
Ba3 O12 2.930327 1_555
Ba3 O0 2.941784 1_555
Ba3 H13 2.970989 1_555
Ba3 H8 3.186955 1_555
Ba4 H2 2.644251 1_565
Ba4 O12 2.717057 1_655
Ba4 H7 2.752814 1_555
Ba4 O0 2.782944 1_655
Ba4 O10 2.788674 1_555
Ba4 O7 2.806263 1_555
Ba4 O2 2.821931 1_565
Ba4 O4 2.822861 1_665
Ba4 O15 2.930731 1_565
Ba4 H9 2.994215 1_665
Ba5 H3 2.644251 1_565
Ba5 O13 2.717057 1_555
Ba5 H6 2.752814 1_555
Ba5 O1 2.782944 1_556
Ba5 O11 2.788674 1_555
Ba5 O6 2.806263 1_555
Ba5 O3 2.821931 1_565
Ba5 O5 2.822861 1_565
Ba5 O14 2.930731 1_565
Ba5 H8 2.994215 1_565
Ba6 H0 2.644251 1_545
Ba6 O14 2.717057 1_455
Ba6 H5 2.752814 1_555
Ba6 O2 2.782944 1_455
Ba6 O8 2.788674 1_555
Ba6 O5 2.806263 1_555
Ba6 O0 2.821931 1_545
Ba6 O6 2.822861 1_445
Ba6 O13 2.930731 1_545
Ba6 H11 2.994215 1_445
Ba7 H1 2.644251 1_545
Ba7 O15 2.717057 1_555
Ba7 H4 2.752814 1_555
Ba7 O3 2.782944 1_554
Ba7 O9 2.788674 1_555
Ba7 O4 2.806263 1_555
Ba7 O1 2.821931 1_545
Ba7 O7 2.822861 1_545
Ba7 O12 2.930731 1_545
Ba7 H10 2.994215 1_545
H0 O0 0.986376 1_555
H1 O1 0.986376 1_555
H2 O2 0.986376 1_555
H3 O3 0.986376 1_555
H4 O4 0.998472 1_555
H5 O5 0.998472 1_555
H6 O6 0.998472 1_555
H7 O7 0.998472 1_555
H8 O8 0.976645 1_555
H9 O9 0.976645 1_555
H10 O10 0.976645 1_555
H11 O11 0.976645 1_555
H12 O12 0.976742 1_555
H13 O13 0.976742 1_555
H14 O14 0.976742 1_555
H15 O15 0.976742 1_555
