# generated using pymatgen
data_U2InPd2
_symmetry_space_group_name_H-M   'P 1'
_cell_length_a   7.65481600
_cell_length_b   7.65481600
_cell_length_c   3.79963700
_cell_angle_alpha   90.00000000
_cell_angle_beta   90.00000000
_cell_angle_gamma   90.00000000
_symmetry_Int_Tables_number   1
_chemical_formula_structural   U2InPd2
_chemical_formula_sum   'U4 In2 Pd4'
_cell_volume   222.64431995
_cell_formula_units_Z   2
loop_
 _symmetry_equiv_pos_site_id
 _symmetry_equiv_pos_as_xyz
  1  'x, y, z'
loop_
 _atom_site_type_symbol
 _atom_site_label
 _atom_site_symmetry_multiplicity
 _atom_site_fract_x
 _atom_site_fract_y
 _atom_site_fract_z
 _atom_site_occupancy
  U  U0  1  0.32824500  0.82824500  0.50000000  1
  U  U1  1  0.67175500  0.17175500  0.50000000  1
  U  U2  1  0.82824500  0.67175500  0.50000000  1
  U  U3  1  0.17175500  0.32824500  0.50000000  1
  In  In0  1  0.00000000  0.00000000  0.00000000  1
  In  In1  1  0.50000000  0.50000000  0.00000000  1
  Pd  Pd0  1  0.36864800  0.13135200  0.00000000  1
  Pd  Pd1  1  0.13135200  0.63135200  0.00000000  1
  Pd  Pd2  1  0.86864800  0.36864800  0.00000000  1
  Pd  Pd3  1  0.63135200  0.86864800  0.00000000  1
loop_
_geom_bond_atom_site_label_1
_geom_bond_atom_site_label_2
_geom_bond_distance
_geom_bond_site_symmetry_2
In0 Pd2 2.995711 1_455
In0 Pd3 2.995711 1_445
In0 Pd0 2.995711 1_555
In0 Pd1 2.995711 1_545
In0 U1 3.413403 1_455
In0 U0 3.413403 1_544
In0 U1 3.413403 1_454
In0 U3 3.413403 1_554
In0 U3 3.413403 1_555
In0 U2 3.413403 1_444
In0 U2 3.413403 1_445
In0 U0 3.413403 1_545
In1 Pd3 2.995711 1_555
In1 Pd1 2.995711 1_555
In1 Pd0 2.995711 1_555
In1 Pd2 2.995711 1_555
In1 U0 3.413403 1_555
In1 U1 3.413403 1_555
In1 U3 3.413403 1_555
In1 U0 3.413403 1_554
In1 U3 3.413403 1_554
In1 U2 3.413403 1_555
In1 U2 3.413403 1_554
In1 U1 3.413403 1_554
Pd0 Pd3 2.843914 1_545
Pd0 U3 2.855257 1_554
Pd0 U3 2.855257 1_555
Pd0 U0 3.014701 1_544
Pd0 U1 3.014701 1_555
Pd0 U1 3.014701 1_554
Pd0 U0 3.014701 1_545
Pd1 Pd2 2.843914 1_455
Pd1 U0 2.855257 1_555
Pd1 U0 2.855257 1_554
Pd1 U2 3.014701 1_455
Pd1 U2 3.014701 1_454
Pd1 U3 3.014701 1_554
Pd1 U3 3.014701 1_555
Pd2 U1 2.855257 1_555
Pd2 U1 2.855257 1_554
Pd2 U2 3.014701 1_555
Pd2 U2 3.014701 1_554
Pd2 U3 3.014701 1_655
Pd2 U3 3.014701 1_654
Pd3 U2 2.855257 1_555
Pd3 U2 2.855257 1_554
Pd3 U0 3.014701 1_555
Pd3 U0 3.014701 1_554
Pd3 U1 3.014701 1_565
Pd3 U1 3.014701 1_564
