# generated using pymatgen
data_Fe4H14O13
_symmetry_space_group_name_H-M   'P 1'
_cell_length_a   6.66726200
_cell_length_b   6.68027732
_cell_length_c   6.70451737
_cell_angle_alpha   108.27372586
_cell_angle_beta   109.86439868
_cell_angle_gamma   109.58396331
_symmetry_Int_Tables_number   1
_chemical_formula_structural   Fe4H14O13
_chemical_formula_sum   'Fe4 H14 O13'
_cell_volume   231.77587002
_cell_formula_units_Z   1
loop_
 _symmetry_equiv_pos_site_id
 _symmetry_equiv_pos_as_xyz
  1  'x, y, z'
loop_
 _atom_site_type_symbol
 _atom_site_label
 _atom_site_symmetry_multiplicity
 _atom_site_fract_x
 _atom_site_fract_y
 _atom_site_fract_z
 _atom_site_occupancy
  Fe  Fe0  1  0.50477500  0.50117800  0.50075100  1
  Fe  Fe1  1  0.99163200  0.49461100  0.00201400  1
  Fe  Fe2  1  0.00105300  0.99798300  0.50081900  1
  Fe  Fe3  1  0.50121500  0.00075600  0.99897100  1
  H  H0  1  0.31118800  0.36981500  0.05159900  1
  H  H1  1  0.68552700  0.64034500  0.95181800  1
  H  H2  1  0.45369700  0.25150900  0.80265300  1
  H  H3  1  0.54082200  0.73701600  0.17958800  1
  H  H4  1  0.75730100  0.44249000  0.31698200  1
  H  H5  1  0.13180100  0.68155200  0.44790100  1
  H  H6  1  0.08537300  0.43447900  0.66738900  1
  H  H7  1  0.17728100  0.06595400  0.24203300  1
  H  H8  1  0.06340400  0.82229100  0.86762800  1
  H  H9  1  0.81959400  0.94836700  0.76317000  1
  H  H10  1  0.94234100  0.18850000  0.14545100  1
  H  H11  1  0.65990800  0.14012600  0.52885500  1
  H  H12  1  0.39092800  0.94214500  0.32465800  1
  H  H13  1  0.44674200  0.84052200  0.59910500  1
  O  O0  1  0.31530500  0.50293700  0.17618800  1
  O  O1  1  0.68330900  0.50794700  0.82728800  1
  O  O2  1  0.32582900  0.13272900  0.81504800  1
  O  O3  1  0.67117600  0.86217500  0.17470600  1
  O  O4  1  0.62241500  0.32220900  0.31802900  1
  O  O5  1  0.00513300  0.68808000  0.31879000  1
  O  O6  1  0.99028300  0.30462400  0.69085900  1
  O  O7  1  0.38836900  0.71512400  0.65230500  1
  O  O8  1  0.17258000  0.18885600  0.36603800  1
  O  O9  1  0.19205100  0.81703200  0.99518500  1
  O  O10  1  0.83115300  0.82656300  0.64371700  1
  O  O11  1  0.81374200  0.18139700  0.00638400  1
  O  O12  1  0.50279700  0.01891200  0.49808800  1
loop_
_geom_bond_atom_site_label_1
_geom_bond_atom_site_label_2
_geom_bond_distance
_geom_bond_site_symmetry_2
Fe0 O4 1.976982 1_555
Fe0 O7 2.011537 1_555
Fe0 O1 2.083915 1_555
Fe0 O8 2.106007 1_555
Fe0 O10 2.117501 1_555
Fe0 O0 2.118714 1_555
Fe1 O1 2.039044 1_554
Fe1 O11 2.045470 1_555
Fe1 O0 2.046944 1_655
Fe1 O5 2.063941 1_655
Fe1 O6 2.069316 1_554
Fe1 O9 2.144945 1_654
Fe2 O10 2.017010 1_455
Fe2 O8 2.048803 1_565
Fe2 O5 2.062018 1_555
Fe2 O2 2.083593 1_565
Fe2 O6 2.085358 1_465
Fe2 O3 2.142714 1_455
Fe3 O9 2.001197 1_545
Fe3 O11 2.001711 1_556
Fe3 O3 2.002312 1_546
Fe3 O2 2.014477 1_555
Fe3 O4 2.149765 1_556
Fe3 O7 2.162638 1_545
H0 O0 0.995765 1_555
H1 O1 0.999657 1_555
H2 O2 0.999670 1_555
H3 O3 1.002414 1_555
H4 O4 0.988868 1_555
H5 O5 1.007963 1_555
H6 O6 0.981793 1_455
H7 O8 0.986493 1_555
H8 O9 1.004413 1_555
H9 O10 0.992341 1_555
H10 O11 1.004202 1_555
H11 O12 0.987564 1_555
H12 O12 0.975488 1_565
H13 O7 1.021555 1_555
H13 O12 1.548580 1_565
