# generated using pymatgen
data_Ge4Se9
_symmetry_space_group_name_H-M   'P 1'
_cell_length_a   7.09679153
_cell_length_b   12.77971063
_cell_length_c   18.01689918
_cell_angle_alpha   90.00000000
_cell_angle_beta   90.00000000
_cell_angle_gamma   90.00000000
_symmetry_Int_Tables_number   1
_chemical_formula_structural   Ge4Se9
_chemical_formula_sum   'Ge16 Se36'
_cell_volume   1634.04162894
_cell_formula_units_Z   4
loop_
 _symmetry_equiv_pos_site_id
 _symmetry_equiv_pos_as_xyz
  1  'x, y, z'
loop_
 _atom_site_type_symbol
 _atom_site_label
 _atom_site_symmetry_multiplicity
 _atom_site_fract_x
 _atom_site_fract_y
 _atom_site_fract_z
 _atom_site_occupancy
  Ge  Ge0  1  0.68193769  0.20863201  0.82928952  1
  Ge  Ge1  1  0.18337540  0.20213891  0.77547091  1
  Ge  Ge2  1  0.31806231  0.20863201  0.32928952  1
  Ge  Ge3  1  0.32014157  0.63552807  0.54100556  1
  Ge  Ge4  1  0.18172172  0.13563481  0.14581805  1
  Ge  Ge5  1  0.81662460  0.70213891  0.22452909  1
  Ge  Ge6  1  0.18337540  0.70213891  0.72452909  1
  Ge  Ge7  1  0.67985843  0.13552807  0.45899444  1
  Ge  Ge8  1  0.31806231  0.70863201  0.17071048  1
  Ge  Ge9  1  0.32014157  0.13552807  0.95899444  1
  Ge  Ge10  1  0.18172172  0.63563481  0.35418195  1
  Ge  Ge11  1  0.81827828  0.63563481  0.85418195  1
  Ge  Ge12  1  0.81662460  0.20213891  0.27547091  1
  Ge  Ge13  1  0.81827828  0.13563481  0.64581805  1
  Ge  Ge14  1  0.68193769  0.70863201  0.67071048  1
  Ge  Ge15  1  0.67985843  0.63552807  0.04100556  1
  Se  Se0  1  0.74490810  0.01034800  0.55281479  1
  Se  Se1  1  0.70098637  0.05715876  0.75537267  1
  Se  Se2  1  0.34633815  0.65599749  0.04581397  1
  Se  Se3  1  0.19796810  0.55227051  0.64807739  1
  Se  Se4  1  0.94991911  0.31929440  0.82131238  1
  Se  Se5  1  0.32544123  0.29619436  0.10956301  1
  Se  Se6  1  0.25509190  0.01034800  0.05281479  1
  Se  Se7  1  0.15312372  0.65079479  0.84967573  1
  Se  Se8  1  0.80203190  0.05227051  0.35192261  1
  Se  Se9  1  0.44129241  0.32019388  0.78343064  1
  Se  Se10  1  0.55870759  0.82019388  0.21656936  1
  Se  Se11  1  0.32544123  0.79619436  0.39043699  1
  Se  Se12  1  0.16838083  0.29441502  0.99395376  1
  Se  Se13  1  0.80203190  0.55227051  0.14807739  1
  Se  Se14  1  0.67455877  0.79619436  0.89043699  1
  Se  Se15  1  0.74490810  0.51034800  0.94718521  1
  Se  Se16  1  0.25509190  0.51034800  0.44718521  1
  Se  Se17  1  0.84687628  0.65079479  0.34967573  1
  Se  Se18  1  0.55870759  0.32019388  0.28343064  1
  Se  Se19  1  0.29901363  0.55715876  0.24462733  1
  Se  Se20  1  0.19796810  0.05227051  0.85192261  1
  Se  Se21  1  0.15312372  0.15079479  0.65032427  1
  Se  Se22  1  0.44129241  0.82019388  0.71656936  1
  Se  Se23  1  0.65366185  0.65599749  0.54581397  1
  Se  Se24  1  0.29901363  0.05715876  0.25537267  1
  Se  Se25  1  0.83161917  0.79441502  0.00604624  1
  Se  Se26  1  0.84687628  0.15079479  0.15032427  1
  Se  Se27  1  0.70098637  0.55715876  0.74462733  1
  Se  Se28  1  0.94991911  0.81929440  0.67868762  1
  Se  Se29  1  0.65366185  0.15599749  0.95418603  1
  Se  Se30  1  0.67455877  0.29619436  0.60956301  1
  Se  Se31  1  0.34633815  0.15599749  0.45418603  1
  Se  Se32  1  0.16838083  0.79441502  0.50604624  1
  Se  Se33  1  0.83161917  0.29441502  0.49395376  1
  Se  Se34  1  0.05008089  0.81929440  0.17868762  1
  Se  Se35  1  0.05008089  0.31929440  0.32131238  1
loop_
_geom_bond_atom_site_label_1
_geom_bond_atom_site_label_2
_geom_bond_distance
_geom_bond_site_symmetry_2
Ge0 Se1 2.353529 1_555
Ge0 Se29 2.357190 1_555
Ge0 Se9 2.373179 1_555
Ge0 Se4 2.374360 1_555
Ge1 Se21 2.358084 1_555
Ge1 Se20 2.361418 1_555
Ge1 Se9 2.376356 1_555
Ge1 Se4 2.380913 1_455
Ge2 Se24 2.353529 1_555
Ge2 Se31 2.357190 1_555
Ge2 Se18 2.373179 1_555
Ge2 Se35 2.374360 1_555
Ge3 Se3 2.367553 1_555
Ge3 Se16 2.372689 1_555
Ge3 Se23 2.382911 1_555
Ge3 Se32 2.383219 1_555
Ge4 Se24 2.365315 1_555
Ge4 Se6 2.375389 1_555
Ge4 Se5 2.382704 1_555
Ge4 Se26 2.385595 1_455
Ge5 Se17 2.358084 1_555
Ge5 Se13 2.361418 1_555
Ge5 Se10 2.376356 1_555
Ge5 Se34 2.380913 1_655
Ge6 Se7 2.358084 1_555
Ge6 Se3 2.361418 1_555
Ge6 Se22 2.376356 1_555
Ge6 Se28 2.380913 1_455
Ge7 Se8 2.367553 1_555
Ge7 Se0 2.372689 1_555
Ge7 Se31 2.382911 1_555
Ge7 Se33 2.383219 1_555
Ge8 Se19 2.353529 1_555
Ge8 Se2 2.357190 1_555
Ge8 Se10 2.373179 1_555
Ge8 Se34 2.374360 1_555
Ge9 Se20 2.367553 1_555
Ge9 Se6 2.372689 1_556
Ge9 Se29 2.382911 1_555
Ge9 Se12 2.383219 1_555
Ge10 Se19 2.365315 1_555
Ge10 Se16 2.375389 1_555
Ge10 Se11 2.382704 1_555
Ge10 Se17 2.385595 1_455
Ge11 Se27 2.365315 1_555
Ge11 Se15 2.375389 1_555
Ge11 Se14 2.382704 1_555
Ge11 Se7 2.385595 1_655
Ge12 Se26 2.358084 1_555
Ge12 Se8 2.361418 1_555
Ge12 Se18 2.376356 1_555
Ge12 Se35 2.380913 1_655
Ge13 Se1 2.365315 1_555
Ge13 Se0 2.375389 1_555
Ge13 Se30 2.382704 1_555
Ge13 Se21 2.385595 1_655
Ge14 Se27 2.353529 1_555
Ge14 Se23 2.357190 1_555
Ge14 Se22 2.373179 1_555
Ge14 Se28 2.374360 1_555
Ge15 Se13 2.367553 1_555
Ge15 Se15 2.372689 1_554
Ge15 Se2 2.382911 1_555
Ge15 Se25 2.383219 1_555
Se11 Se32 2.362512 1_555
Se12 Se5 2.362512 1_556
Se14 Se25 2.362512 1_556
Se30 Se33 2.362512 1_555
