# generated using pymatgen
data_CuH6(CO2)4
_symmetry_space_group_name_H-M   'P 1'
_cell_length_a   7.96385400
_cell_length_b   8.55829900
_cell_length_c   12.44731300
_cell_angle_alpha   90.00000000
_cell_angle_beta   90.00000000
_cell_angle_gamma   90.00000000
_symmetry_Int_Tables_number   1
_chemical_formula_structural   CuH6(CO2)4
_chemical_formula_sum   'Cu4 H24 C16 O32'
_cell_volume   848.37205639
_cell_formula_units_Z   4
loop_
 _symmetry_equiv_pos_site_id
 _symmetry_equiv_pos_as_xyz
  1  'x, y, z'
loop_
 _atom_site_type_symbol
 _atom_site_label
 _atom_site_symmetry_multiplicity
 _atom_site_fract_x
 _atom_site_fract_y
 _atom_site_fract_z
 _atom_site_occupancy
  Cu  Cu0  1  0.00000000  0.50000000  0.50000000  1
  Cu  Cu1  1  0.50000000  0.50000000  0.00000000  1
  Cu  Cu2  1  0.50000000  0.00000000  0.50000000  1
  Cu  Cu3  1  0.00000000  0.00000000  0.00000000  1
  H  H0  1  0.10112000  0.12208800  0.76844300  1
  H  H1  1  0.19562600  0.79583100  0.55658700  1
  H  H2  1  0.89888000  0.87791200  0.23155700  1
  H  H3  1  0.11744800  0.02388400  0.38720400  1
  H  H4  1  0.10112000  0.37791200  0.26844300  1
  H  H5  1  0.89888000  0.62208800  0.73155700  1
  H  H6  1  0.60112000  0.37791200  0.23155700  1
  H  H7  1  0.11744800  0.47611600  0.88720400  1
  H  H8  1  0.69562600  0.79583100  0.94341300  1
  H  H9  1  0.38255200  0.52388400  0.38720400  1
  H  H10  1  0.30437400  0.20416900  0.05658700  1
  H  H11  1  0.80437400  0.29583100  0.94341300  1
  H  H12  1  0.39888000  0.87791200  0.26844300  1
  H  H13  1  0.61744800  0.02388400  0.11279600  1
  H  H14  1  0.88255200  0.52388400  0.11279600  1
  H  H15  1  0.88255200  0.97611600  0.61279600  1
  H  H16  1  0.19562600  0.70416900  0.05658700  1
  H  H17  1  0.30437400  0.29583100  0.55658700  1
  H  H18  1  0.39888000  0.62208800  0.76844300  1
  H  H19  1  0.60112000  0.12208800  0.73155700  1
  H  H20  1  0.69562600  0.70416900  0.44341300  1
  H  H21  1  0.80437400  0.20416900  0.44341300  1
  H  H22  1  0.38255200  0.97611600  0.88720400  1
  H  H23  1  0.61744800  0.47611600  0.61279600  1
  C  C0  1  0.00385600  0.54674100  0.75720100  1
  C  C1  1  0.76793300  0.73722400  0.00709200  1
  C  C2  1  0.50385600  0.95325900  0.24279900  1
  C  C3  1  0.99614400  0.45325900  0.24279900  1
  C  C4  1  0.99614400  0.04674100  0.74279900  1
  C  C5  1  0.26793300  0.73722400  0.49290800  1
  C  C6  1  0.73206700  0.23722400  0.00709200  1
  C  C7  1  0.23206700  0.23722400  0.49290800  1
  C  C8  1  0.73206700  0.26277600  0.50709200  1
  C  C9  1  0.23206700  0.26277600  0.99290800  1
  C  C10  1  0.49614400  0.45325900  0.25720100  1
  C  C11  1  0.00385600  0.95325900  0.25720100  1
  C  C12  1  0.50385600  0.54674100  0.74279900  1
  C  C13  1  0.49614400  0.04674100  0.75720100  1
  C  C14  1  0.76793300  0.76277600  0.50709200  1
  C  C15  1  0.26793300  0.76277600  0.99290800  1
  O  O0  1  0.40642700  0.97698400  0.69287900  1
  O  O1  1  0.40016900  0.79974500  0.45618200  1
  O  O2  1  0.40642700  0.52301600  0.19287900  1
  O  O3  1  0.02023900  0.54357500  0.86319400  1
  O  O4  1  0.59357300  0.02301600  0.30712100  1
  O  O5  1  0.52023900  0.95642500  0.13680600  1
  O  O6  1  0.47976100  0.45642500  0.36319400  1
  O  O7  1  0.09983100  0.29974500  0.45618200  1
  O  O8  1  0.02023900  0.95642500  0.36319400  1
  O  O9  1  0.28327500  0.39393000  0.95646200  1
  O  O10  1  0.28327500  0.10607000  0.45646200  1
  O  O11  1  0.47976100  0.04357500  0.86319400  1
  O  O12  1  0.52023900  0.54357500  0.63680600  1
  O  O13  1  0.90642700  0.52301600  0.30712100  1
  O  O14  1  0.97976100  0.04357500  0.63680600  1
  O  O15  1  0.97976100  0.45642500  0.13680600  1
  O  O16  1  0.59983100  0.20025500  0.54381800  1
  O  O17  1  0.90642700  0.97698400  0.80712100  1
  O  O18  1  0.59357300  0.47698400  0.80712100  1
  O  O19  1  0.09983100  0.20025500  0.95618200  1
  O  O20  1  0.90016900  0.70025500  0.54381800  1
  O  O21  1  0.90016900  0.79974500  0.04381800  1
  O  O22  1  0.78327500  0.39393000  0.54353800  1
  O  O23  1  0.71672500  0.60607000  0.04353800  1
  O  O24  1  0.40016900  0.70025500  0.95618200  1
  O  O25  1  0.59983100  0.29974500  0.04381800  1
  O  O26  1  0.09357300  0.02301600  0.19287900  1
  O  O27  1  0.21672500  0.89393000  0.95646200  1
  O  O28  1  0.71672500  0.89393000  0.54353800  1
  O  O29  1  0.09357300  0.47698400  0.69287900  1
  O  O30  1  0.78327500  0.10607000  0.04353800  1
  O  O31  1  0.21672500  0.60607000  0.45646200  1
loop_
_geom_bond_atom_site_label_1
_geom_bond_atom_site_label_2
_geom_bond_distance
_geom_bond_site_symmetry_2
Cu0 O7 1.966424 1_555
Cu0 O20 1.966424 1_455
Cu0 O31 2.024033 1_555
Cu0 O22 2.024033 1_455
Cu0 O29 2.521525 1_555
Cu0 O13 2.521525 1_455
Cu1 O25 1.966424 1_555
Cu1 O24 1.966424 1_554
Cu1 O23 2.024033 1_555
Cu1 O9 2.024033 1_554
Cu1 O2 2.521525 1_555
Cu1 O18 2.521525 1_554
Cu2 O16 1.966424 1_555
Cu2 O1 1.966424 1_545
Cu2 O28 2.024033 1_545
Cu2 O10 2.024033 1_555
Cu2 O4 2.521525 1_555
Cu2 O0 2.521525 1_545
Cu3 O19 1.966424 1_554
Cu3 O21 1.966424 1_445
Cu3 O27 2.024033 1_544
Cu3 O30 2.024033 1_455
Cu3 O26 2.521525 1_555
Cu3 O17 2.521525 1_444
H3 O8 1.010917 1_545
H3 O10 1.726832 1_555
H7 O3 1.010917 1_555
H7 O9 1.726832 1_555
H9 O6 1.010917 1_555
H9 O31 1.726832 1_555
H13 O5 1.010917 1_545
H13 O30 1.726832 1_555
H14 O15 1.010917 1_555
H14 O23 1.726832 1_555
H15 O14 1.010917 1_565
H15 O28 1.726832 1_555
H22 O11 1.010917 1_565
H22 O27 1.726832 1_555
H23 O12 1.010917 1_555
H23 O22 1.726832 1_555
C0 H5 1.103009 1_455
C0 O29 1.227978 1_555
C0 O3 1.326041 1_555
C1 H8 1.100654 1_554
C1 O21 1.266617 1_555
C1 O23 1.277505 1_555
C2 H12 1.103009 1_555
C2 O4 1.227978 1_565
C2 O5 1.326041 1_555
C3 H4 1.103009 1_655
C3 O13 1.227978 1_555
C3 O15 1.326041 1_555
C4 H0 1.103009 1_655
C4 O17 1.227978 1_545
C4 O14 1.326041 1_555
C5 H1 1.100654 1_555
C5 O1 1.266617 1_555
C5 O31 1.277505 1_555
C6 H11 1.100654 1_554
C6 O25 1.266617 1_555
C6 O30 1.277505 1_555
C7 H17 1.100654 1_555
C7 O7 1.266617 1_555
C7 O10 1.277505 1_555
C8 H21 1.100654 1_555
C8 O16 1.266617 1_555
C8 O22 1.277505 1_555
C9 H10 1.100654 1_556
C9 O19 1.266617 1_555
C9 O9 1.277505 1_555
C10 H6 1.103009 1_555
C10 O2 1.227978 1_555
C10 O6 1.326041 1_555
C11 H2 1.103009 1_455
C11 O26 1.227978 1_565
C11 O8 1.326041 1_555
C12 H18 1.103009 1_555
C12 O18 1.227978 1_555
C12 O12 1.326041 1_555
C13 H19 1.103009 1_555
C13 O0 1.227978 1_545
C13 O11 1.326041 1_555
C14 H20 1.100654 1_555
C14 O20 1.266617 1_555
C14 O28 1.277505 1_555
C15 H16 1.100654 1_556
C15 O24 1.266617 1_555
C15 O27 1.277505 1_555
