# generated using pymatgen
data_In2PbS4
_symmetry_space_group_name_H-M   'P 1'
_cell_length_a   3.89239000
_cell_length_b   12.00549100
_cell_length_c   13.88427600
_cell_angle_alpha   90.00000000
_cell_angle_beta   90.00000000
_cell_angle_gamma   90.00000000
_symmetry_Int_Tables_number   1
_chemical_formula_structural   In2PbS4
_chemical_formula_sum   'In8 Pb4 S16'
_cell_volume   648.81295492
_cell_formula_units_Z   4
loop_
 _symmetry_equiv_pos_site_id
 _symmetry_equiv_pos_as_xyz
  1  'x, y, z'
loop_
 _atom_site_type_symbol
 _atom_site_label
 _atom_site_symmetry_multiplicity
 _atom_site_fract_x
 _atom_site_fract_y
 _atom_site_fract_z
 _atom_site_occupancy
  In  In0  1  0.25000000  0.56217900  0.38782300  1
  In  In1  1  0.25000000  0.06217900  0.11217700  1
  In  In2  1  0.75000000  0.43782100  0.61217700  1
  In  In3  1  0.75000000  0.93782100  0.88782300  1
  In  In4  1  0.25000000  0.08448300  0.59841700  1
  In  In5  1  0.25000000  0.58448300  0.90158300  1
  In  In6  1  0.75000000  0.91551700  0.40158300  1
  In  In7  1  0.75000000  0.41551700  0.09841700  1
  Pb  Pb0  1  0.25000000  0.24575900  0.33708600  1
  Pb  Pb1  1  0.25000000  0.74575900  0.16291400  1
  Pb  Pb2  1  0.75000000  0.75424100  0.66291400  1
  Pb  Pb3  1  0.75000000  0.25424100  0.83708600  1
  S  S0  1  0.25000000  0.09214300  0.92801100  1
  S  S1  1  0.25000000  0.59214300  0.57198900  1
  S  S2  1  0.75000000  0.90785700  0.07198900  1
  S  S3  1  0.75000000  0.40785700  0.42801100  1
  S  S4  1  0.25000000  0.45426300  0.21980600  1
  S  S5  1  0.25000000  0.95426300  0.28019400  1
  S  S6  1  0.75000000  0.54573700  0.78019400  1
  S  S7  1  0.75000000  0.04573700  0.71980600  1
  S  S8  1  0.25000000  0.30035300  0.66447000  1
  S  S9  1  0.25000000  0.80035300  0.83553000  1
  S  S10  1  0.75000000  0.69964700  0.33553000  1
  S  S11  1  0.75000000  0.19964700  0.16447000  1
  S  S12  1  0.25000000  0.37900600  0.96992900  1
  S  S13  1  0.25000000  0.87900600  0.53007100  1
  S  S14  1  0.75000000  0.62099400  0.03007100  1
  S  S15  1  0.75000000  0.12099400  0.46992900  1
loop_
_geom_bond_atom_site_label_1
_geom_bond_atom_site_label_2
_geom_bond_distance
_geom_bond_site_symmetry_2
In0 S1 2.582192 1_555
In0 S10 2.653026 1_455
In0 S10 2.653026 1_555
In0 S4 2.668421 1_555
In0 S3 2.744368 1_455
In0 S3 2.744368 1_555
In1 S0 2.582192 1_554
In1 S11 2.653026 1_455
In1 S11 2.653026 1_555
In1 S5 2.668421 1_545
In1 S2 2.744368 1_445
In1 S2 2.744368 1_545
In2 S3 2.582192 1_555
In2 S8 2.653026 1_655
In2 S8 2.653026 1_555
In2 S6 2.668421 1_555
In2 S1 2.744368 1_655
In2 S1 2.744368 1_555
In3 S2 2.582192 1_556
In3 S9 2.653026 1_655
In3 S9 2.653026 1_555
In3 S7 2.668421 1_565
In3 S0 2.744368 1_565
In3 S0 2.744368 1_665
In4 S7 2.616223 1_555
In4 S7 2.616223 1_455
In4 S13 2.643073 1_545
In4 S15 2.676254 1_455
In4 S15 2.676254 1_555
In4 S8 2.749107 1_555
In5 S6 2.616223 1_455
In5 S6 2.616223 1_555
In5 S12 2.643073 1_555
In5 S14 2.676254 1_456
In5 S14 2.676254 1_556
In5 S9 2.749107 1_555
In6 S5 2.616223 1_555
In6 S5 2.616223 1_655
In6 S15 2.643073 1_565
In6 S13 2.676254 1_555
In6 S13 2.676254 1_655
In6 S10 2.749107 1_555
In7 S4 2.616223 1_555
In7 S4 2.616223 1_655
In7 S14 2.643073 1_555
In7 S12 2.676254 1_554
In7 S12 2.676254 1_654
In7 S11 2.749107 1_555
Pb0 S4 2.986217 1_555
Pb0 S3 3.027965 1_455
Pb0 S3 3.027965 1_555
Pb0 S15 3.071350 1_455
Pb0 S15 3.071350 1_555
Pb0 S11 3.136569 1_555
Pb0 S11 3.136569 1_455
Pb1 S5 2.986217 1_555
Pb1 S2 3.027965 1_455
Pb1 S2 3.027965 1_555
Pb1 S14 3.071350 1_455
Pb1 S14 3.071350 1_555
Pb1 S10 3.136569 1_455
Pb1 S10 3.136569 1_555
Pb2 S6 2.986217 1_555
Pb2 S1 3.027965 1_555
Pb2 S1 3.027965 1_655
Pb2 S13 3.071350 1_555
Pb2 S13 3.071350 1_655
Pb2 S9 3.136569 1_555
Pb2 S9 3.136569 1_655
Pb3 S7 2.986217 1_555
Pb3 S0 3.027965 1_655
Pb3 S0 3.027965 1_555
Pb3 S12 3.071350 1_555
Pb3 S12 3.071350 1_655
Pb3 S8 3.136569 1_655
Pb3 S8 3.136569 1_555
