# generated using pymatgen
data_Ga6Te10Pb
_symmetry_space_group_name_H-M   'P 1'
_cell_length_a   14.86457289
_cell_length_b   14.86457289
_cell_length_c   18.09503200
_cell_angle_alpha   90.00000000
_cell_angle_beta   90.00000000
_cell_angle_gamma   120.00000398
_symmetry_Int_Tables_number   1
_chemical_formula_structural   Ga6Te10Pb
_chemical_formula_sum   'Ga36 Te60 Pb6'
_cell_volume   3462.54032456
_cell_formula_units_Z   6
loop_
 _symmetry_equiv_pos_site_id
 _symmetry_equiv_pos_as_xyz
  1  'x, y, z'
loop_
 _atom_site_type_symbol
 _atom_site_label
 _atom_site_symmetry_multiplicity
 _atom_site_fract_x
 _atom_site_fract_y
 _atom_site_fract_z
 _atom_site_occupancy
  Ga  Ga0  1  0.07277200  0.98858700  0.41380500  1
  Ga  Ga1  1  0.08418500  0.01141300  0.91952800  1
  Ga  Ga2  1  0.21925000  0.14418400  0.73576600  1
  Ga  Ga3  1  0.07506600  0.85581600  0.59756700  1
  Ga  Ga4  1  0.52164500  0.40694400  0.73110900  1
  Ga  Ga5  1  0.11470100  0.59305600  0.60222500  1
  Ga  Ga6  1  0.81202900  0.55557000  0.59205800  1
  Ga  Ga7  1  0.25645900  0.44443000  0.74127500  1
  Ga  Ga8  1  0.74767700  0.32358400  0.74823000  1
  Ga  Ga9  1  0.42409300  0.67641600  0.58510300  1
  Ga  Ga10  1  0.18797100  0.74354100  0.07460900  1
  Ga  Ga11  1  0.44443000  0.25645900  0.25872500  1
  Ga  Ga12  1  0.25241800  0.59501500  0.41580000  1
  Ga  Ga13  1  0.25232300  0.57590700  0.91843600  1
  Ga  Ga14  1  0.67641600  0.42409300  0.41489700  1
  Ga  Ga15  1  0.34259700  0.74758200  0.74913300  1
  Ga  Ga16  1  0.47835500  0.88529900  0.93555800  1
  Ga  Ga17  1  0.59305600  0.11470100  0.39777500  1
  Ga  Ga18  1  0.40498500  0.65740300  0.08246700  1
  Ga  Ga19  1  0.78075000  0.92493400  0.93090100  1
  Ga  Ga20  1  0.85581600  0.07506600  0.40243300  1
  Ga  Ga21  1  0.57590700  0.25232300  0.08156400  1
  Ga  Ga22  1  0.32358400  0.74767700  0.25177000  1
  Ga  Ga23  1  0.91581500  0.92722800  0.74713900  1
  Ga  Ga24  1  0.98858700  0.07277200  0.58619500  1
  Ga  Ga25  1  0.65740300  0.40498500  0.91753300  1
  Ga  Ga26  1  0.59501500  0.25241800  0.58420000  1
  Ga  Ga27  1  0.92722800  0.91581500  0.25286100  1
  Ga  Ga28  1  0.01141300  0.08418500  0.08047200  1
  Ga  Ga29  1  0.92493400  0.78075000  0.06909900  1
  Ga  Ga30  1  0.14418400  0.21925000  0.26423400  1
  Ga  Ga31  1  0.74758200  0.34259700  0.25086700  1
  Ga  Ga32  1  0.88529900  0.47835500  0.06444200  1
  Ga  Ga33  1  0.40694400  0.52164500  0.26889100  1
  Ga  Ga34  1  0.55557000  0.81202900  0.40794200  1
  Ga  Ga35  1  0.74354100  0.18797100  0.92539100  1
  Te  Te0  1  0.03374100  0.13522400  0.72919400  1
  Te  Te1  1  0.89851700  0.86477600  0.60414000  1
  Te  Te2  1  0.00000000  0.84479500  0.83333300  1
  Te  Te3  1  0.32948500  0.33220900  0.66909200  1
  Te  Te4  1  0.99727600  0.66779100  0.66424100  1
  Te  Te5  1  0.27518900  0.14635800  0.87646200  1
  Te  Te6  1  0.12883100  0.85364200  0.45687100  1
  Te  Te7  1  0.24662600  0.00000000  0.66666700  1
  Te  Te8  1  0.06078800  0.53942600  0.46064700  1
  Te  Te9  1  0.52136200  0.46057400  0.87268600  1
  Te  Te10  1  0.65751600  0.57511700  0.65486000  1
  Te  Te11  1  0.08239900  0.42488300  0.67847400  1
  Te  Te12  1  0.53610600  0.23524500  0.72765100  1
  Te  Te13  1  0.30086200  0.76475500  0.60568200  1
  Te  Te14  1  0.33872200  0.51146800  0.49758400  1
  Te  Te15  1  0.82725300  0.48853200  0.83574900  1
  Te  Te16  1  0.43272000  0.62991100  0.72933300  1
  Te  Te17  1  0.80280900  0.37008900  0.60400000  1
  Te  Te18  1  0.78219400  0.17428200  0.78562700  1
  Te  Te19  1  0.60791200  0.82571800  0.54770600  1
  Te  Te20  1  0.17274700  0.66127800  0.83091700  1
  Te  Te21  1  0.51146800  0.33872200  0.50241600  1
  Te  Te22  1  0.34248400  0.91760100  0.01180700  1
  Te  Te23  1  0.42488300  0.08239900  0.32152600  1
  Te  Te24  1  0.19719100  0.56728000  0.06266700  1
  Te  Te25  1  0.62991100  0.43272000  0.27066700  1
  Te  Te26  1  0.47863800  0.93921200  0.79398100  1
  Te  Te27  1  0.53942600  0.06078800  0.53935300  1
  Te  Te28  1  0.21780600  0.39208800  0.88103900  1
  Te  Te29  1  0.82571800  0.60791200  0.45229400  1
  Te  Te30  1  0.46389400  0.69913800  0.93901500  1
  Te  Te31  1  0.76475500  0.30086200  0.39431800  1
  Te  Te32  1  0.67051500  0.00272400  0.99757400  1
  Te  Te33  1  0.66779100  0.99727600  0.33575900  1
  Te  Te34  1  0.17428200  0.78219400  0.21437300  1
  Te  Te35  1  0.39208800  0.21780600  0.11896100  1
  Te  Te36  1  0.72481100  0.87116900  0.79020400  1
  Te  Te37  1  0.85364200  0.12883100  0.54312900  1
  Te  Te38  1  0.84479500  0.00000000  0.16666700  1
  Te  Te39  1  0.75337400  0.75337400  0.00000000  1
  Te  Te40  1  0.00000000  0.24662600  0.33333300  1
  Te  Te41  1  0.96625900  0.10148300  0.93747300  1
  Te  Te42  1  0.86477600  0.89851700  0.39586000  1
  Te  Te43  1  0.69913800  0.46389400  0.06098500  1
  Te  Te44  1  0.23524500  0.53610600  0.27234900  1
  Te  Te45  1  0.56728000  0.19719100  0.93733300  1
  Te  Te46  1  0.37008900  0.80280900  0.39600000  1
  Te  Te47  1  0.87116900  0.72481100  0.20979600  1
  Te  Te48  1  0.14635800  0.27518900  0.12353800  1
  Te  Te49  1  0.66127800  0.17274700  0.16908300  1
  Te  Te50  1  0.48853200  0.82725300  0.16425100  1
  Te  Te51  1  0.15520500  0.15520500  0.50000000  1
  Te  Te52  1  0.10148300  0.96625900  0.06252700  1
  Te  Te53  1  0.13522400  0.03374100  0.27080600  1
  Te  Te54  1  0.00272400  0.67051500  0.00242600  1
  Te  Te55  1  0.33220900  0.32948500  0.33090800  1
  Te  Te56  1  0.46057400  0.52136200  0.12731400  1
  Te  Te57  1  0.93921200  0.47863800  0.20601900  1
  Te  Te58  1  0.91760100  0.34248400  0.98819300  1
  Te  Te59  1  0.57511700  0.65751600  0.34514000  1
  Pb  Pb0  1  0.26322500  0.91806100  0.84616000  1
  Pb  Pb1  1  0.08193900  0.34516400  0.51282700  1
  Pb  Pb2  1  0.65483600  0.73677500  0.17949400  1
  Pb  Pb3  1  0.34516400  0.08193900  0.48717300  1
  Pb  Pb4  1  0.73677500  0.65483600  0.82050600  1
  Pb  Pb5  1  0.91806100  0.26322500  0.15384000  1
loop_
_geom_bond_atom_site_label_1
_geom_bond_atom_site_label_2
_geom_bond_distance
_geom_bond_site_symmetry_2
Ga0 Te6 2.645145 1_555
Ga0 Te51 2.652054 1_565
Ga0 Te42 2.705105 1_455
Ga0 Te53 2.717485 1_565
Ga1 Te5 2.645145 1_555
Ga1 Te2 2.652054 1_545
Ga1 Te41 2.705105 1_455
Ga1 Te52 2.717485 1_546
Ga2 Te5 2.673421 1_555
Ga2 Te7 2.682269 1_555
Ga2 Te0 2.696014 1_555
Ga2 Te3 2.715209 1_555
Ga3 Te6 2.673421 1_555
Ga3 Te7 2.682277 1_565
Ga3 Te1 2.696015 1_455
Ga3 Te4 2.715209 1_455
Ga4 Te12 2.666952 1_555
Ga4 Te10 2.680111 1_555
Ga4 Te9 2.683636 1_555
Ga4 Te3 2.734806 1_555
Ga5 Te13 2.666959 1_555
Ga5 Te11 2.680111 1_555
Ga5 Te8 2.683654 1_555
Ga5 Te4 2.734799 1_455
Ga6 Te29 2.623823 1_555
Ga6 Te17 2.699850 1_555
Ga6 Te10 2.705242 1_555
Ga6 Te4 2.734539 1_555
Ga7 Te28 2.623823 1_555
Ga7 Te16 2.699850 1_555
Ga7 Te11 2.705234 1_555
Ga7 Te3 2.734539 1_555
Ga8 Te18 2.604841 1_555
Ga8 Te15 2.649269 1_555
Ga8 Te17 2.719238 1_555
Ga8 Te12 2.761118 1_555
Ga9 Te19 2.604841 1_555
Ga9 Te14 2.649268 1_555
Ga9 Te16 2.719238 1_555
Ga9 Te13 2.761105 1_555
Ga10 Te34 2.623823 1_555
Ga10 Te24 2.699850 1_555
Ga10 Te22 2.705242 1_555
Ga10 Te54 2.734539 1_555
Ga11 Te35 2.623823 1_555
Ga11 Te25 2.699850 1_555
Ga11 Te23 2.705234 1_555
Ga11 Te55 2.734539 1_555
Ga12 Te14 2.640321 1_555
Ga12 Te8 2.664871 1_555
Ga12 Te46 2.706595 1_555
Ga12 Te44 2.710411 1_555
Ga13 Te28 2.604841 1_555
Ga13 Te20 2.649258 1_555
Ga13 Te24 2.719255 1_556
Ga13 Te30 2.761117 1_555
Ga14 Te29 2.604841 1_555
Ga14 Te21 2.649268 1_555
Ga14 Te25 2.719238 1_555
Ga14 Te31 2.761105 1_555
Ga15 Te20 2.640311 1_555
Ga15 Te26 2.664876 1_555
Ga15 Te16 2.706595 1_555
Ga15 Te13 2.710407 1_555
Ga16 Te30 2.666966 1_555
Ga16 Te22 2.680111 1_556
Ga16 Te26 2.683636 1_555
Ga16 Te32 2.734799 1_565
Ga17 Te31 2.666959 1_555
Ga17 Te23 2.680111 1_555
Ga17 Te27 2.683654 1_555
Ga17 Te33 2.734799 1_545
Ga18 Te50 2.640310 1_555
Ga18 Te56 2.664871 1_555
Ga18 Te24 2.706595 1_555
Ga18 Te30 2.710428 1_554
Ga19 Te36 2.673438 1_555
Ga19 Te39 2.682269 1_556
Ga19 Te41 2.696014 1_565
Ga19 Te32 2.715201 1_565
Ga20 Te37 2.673421 1_555
Ga20 Te40 2.682277 1_655
Ga20 Te42 2.696015 1_545
Ga20 Te33 2.715209 1_545
Ga21 Te35 2.604841 1_555
Ga21 Te49 2.649258 1_555
Ga21 Te45 2.719255 1_554
Ga21 Te43 2.761117 1_555
Ga22 Te34 2.604841 1_555
Ga22 Te50 2.649269 1_555
Ga22 Te46 2.719238 1_555
Ga22 Te44 2.761118 1_555
Ga23 Te36 2.645140 1_555
Ga23 Te2 2.652043 1_655
Ga23 Te0 2.705105 1_665
Ga23 Te1 2.717485 1_555
Ga24 Te37 2.645145 1_555
Ga24 Te51 2.652054 1_655
Ga24 Te1 2.705105 1_545
Ga24 Te0 2.717485 1_655
Ga25 Te15 2.640310 1_555
Ga25 Te9 2.664871 1_555
Ga25 Te45 2.706595 1_555
Ga25 Te43 2.710428 1_556
Ga26 Te21 2.640321 1_555
Ga26 Te27 2.664871 1_555
Ga26 Te17 2.706595 1_555
Ga26 Te12 2.710411 1_555
Ga27 Te47 2.645140 1_555
Ga27 Te38 2.652043 1_565
Ga27 Te53 2.705105 1_665
Ga27 Te42 2.717485 1_555
Ga28 Te48 2.645145 1_555
Ga28 Te38 2.652054 1_455
Ga28 Te52 2.705105 1_545
Ga28 Te41 2.717485 1_454
Ga29 Te47 2.673438 1_555
Ga29 Te39 2.682269 1_555
Ga29 Te52 2.696014 1_655
Ga29 Te54 2.715201 1_655
Ga30 Te48 2.673421 1_555
Ga30 Te40 2.682269 1_555
Ga30 Te53 2.696014 1_555
Ga30 Te55 2.715209 1_555
Ga31 Te49 2.640311 1_555
Ga31 Te57 2.664876 1_555
Ga31 Te25 2.706595 1_555
Ga31 Te31 2.710407 1_555
Ga32 Te43 2.666966 1_555
Ga32 Te58 2.680111 1_554
Ga32 Te57 2.683636 1_555
Ga32 Te54 2.734799 1_655
Ga33 Te44 2.666952 1_555
Ga33 Te59 2.680111 1_555
Ga33 Te56 2.683636 1_555
Ga33 Te55 2.734806 1_555
Ga34 Te19 2.623823 1_555
Ga34 Te46 2.699850 1_555
Ga34 Te59 2.705242 1_555
Ga34 Te33 2.734539 1_555
Ga35 Te18 2.623823 1_555
Ga35 Te45 2.699850 1_555
Ga35 Te58 2.705242 1_555
Ga35 Te32 2.734539 1_555
Pb0 Te26 3.199461 1_555
Pb0 Te22 3.221875 1_556
Pb0 Te5 3.353337 1_565
Pb0 Te20 3.364614 1_555
Pb0 Te2 3.505446 1_555
Pb0 Te7 3.520505 1_565
Pb1 Te8 3.199467 1_555
Pb1 Te11 3.221875 1_555
Pb1 Te37 3.353337 1_455
Pb1 Te14 3.364612 1_555
Pb1 Te51 3.505446 1_555
Pb1 Te40 3.520522 1_555
Pb2 Te56 3.199467 1_555
Pb2 Te59 3.221858 1_555
Pb2 Te47 3.353337 1_555
Pb2 Te50 3.364601 1_555
Pb2 Te38 3.505446 1_565
Pb2 Te39 3.520522 1_555
Pb3 Te27 3.199467 1_555
Pb3 Te23 3.221875 1_555
Pb3 Te6 3.353337 1_545
Pb3 Te21 3.364612 1_555
Pb3 Te51 3.505446 1_555
Pb3 Te7 3.520522 1_555
Pb4 Te9 3.199467 1_555
Pb4 Te10 3.221858 1_555
Pb4 Te36 3.353337 1_555
Pb4 Te15 3.364601 1_555
Pb4 Te2 3.505446 1_655
Pb4 Te39 3.520522 1_556
Pb5 Te57 3.199461 1_555
Pb5 Te58 3.221875 1_554
Pb5 Te48 3.353337 1_655
Pb5 Te49 3.364614 1_555
Pb5 Te38 3.505446 1_555
Pb5 Te40 3.520505 1_655
