# generated using pymatgen
data_Re2N2ClF9
_symmetry_space_group_name_H-M   'P 1'
_cell_length_a   8.09398200
_cell_length_b   8.84369000
_cell_length_c   14.50626000
_cell_angle_alpha   90.00000000
_cell_angle_beta   90.00000000
_cell_angle_gamma   90.00000000
_symmetry_Int_Tables_number   1
_chemical_formula_structural   Re2N2ClF9
_chemical_formula_sum   'Re8 N8 Cl4 F36'
_cell_volume   1038.36777625
_cell_formula_units_Z   4
loop_
 _symmetry_equiv_pos_site_id
 _symmetry_equiv_pos_as_xyz
  1  'x, y, z'
loop_
 _atom_site_type_symbol
 _atom_site_label
 _atom_site_symmetry_multiplicity
 _atom_site_fract_x
 _atom_site_fract_y
 _atom_site_fract_z
 _atom_site_occupancy
  Re  Re0  1  0.85408800  0.75000000  0.05827600  1
  Re  Re1  1  0.35408800  0.25000000  0.44172400  1
  Re  Re2  1  0.09104100  0.75000000  0.72145600  1
  Re  Re3  1  0.64591200  0.75000000  0.55827600  1
  Re  Re4  1  0.90895900  0.25000000  0.27854400  1
  Re  Re5  1  0.59104100  0.25000000  0.77854400  1
  Re  Re6  1  0.14591200  0.25000000  0.94172400  1
  Re  Re7  1  0.40895900  0.75000000  0.22145600  1
  N  N0  1  0.75088700  0.25000000  0.69826000  1
  N  N1  1  0.25088700  0.75000000  0.80174000  1
  N  N2  1  0.52635800  0.25000000  0.50464500  1
  N  N3  1  0.97364200  0.25000000  0.00464500  1
  N  N4  1  0.02635800  0.75000000  0.99535500  1
  N  N5  1  0.24911300  0.75000000  0.30174000  1
  N  N6  1  0.47364200  0.75000000  0.49535500  1
  N  N7  1  0.74911300  0.25000000  0.19826000  1
  Cl  Cl0  1  0.59569700  0.25000000  0.13217900  1
  Cl  Cl1  1  0.90430300  0.25000000  0.63217900  1
  Cl  Cl2  1  0.09569700  0.75000000  0.36782100  1
  Cl  Cl3  1  0.40430300  0.75000000  0.86782100  1
  F  F0  1  0.31662200  0.60188900  0.14368000  1
  F  F1  1  0.69682700  0.75000000  0.96100800  1
  F  F2  1  0.68337800  0.10188900  0.85632000  1
  F  F3  1  0.67742200  0.95966400  0.57423600  1
  F  F4  1  0.94692200  0.75000000  0.17817900  1
  F  F5  1  0.81662200  0.39811100  0.35632000  1
  F  F6  1  0.41212200  0.25000000  0.87236200  1
  F  F7  1  0.82257800  0.95966400  0.07423600  1
  F  F8  1  0.03816700  0.09845300  0.22274000  1
  F  F9  1  0.18337800  0.89811100  0.64368000  1
  F  F10  1  0.44692200  0.25000000  0.32182100  1
  F  F11  1  0.96183300  0.90154700  0.77726000  1
  F  F12  1  0.46183300  0.09845300  0.72274000  1
  F  F13  1  0.53816700  0.90154700  0.27726000  1
  F  F14  1  0.31662200  0.89811100  0.14368000  1
  F  F15  1  0.81662200  0.10188900  0.35632000  1
  F  F16  1  0.17742200  0.04033600  0.92576400  1
  F  F17  1  0.91212200  0.75000000  0.62763800  1
  F  F18  1  0.19682700  0.25000000  0.53899200  1
  F  F19  1  0.32257800  0.45966400  0.42576400  1
  F  F20  1  0.55307800  0.75000000  0.67817900  1
  F  F21  1  0.03816700  0.40154700  0.22274000  1
  F  F22  1  0.32257800  0.04033600  0.42576400  1
  F  F23  1  0.58787800  0.75000000  0.12763800  1
  F  F24  1  0.96183300  0.59845300  0.77726000  1
  F  F25  1  0.30317300  0.25000000  0.03899200  1
  F  F26  1  0.08787800  0.25000000  0.37236200  1
  F  F27  1  0.82257800  0.54033600  0.07423600  1
  F  F28  1  0.17742200  0.45966400  0.92576400  1
  F  F29  1  0.67742200  0.54033600  0.57423600  1
  F  F30  1  0.68337800  0.39811100  0.85632000  1
  F  F31  1  0.53816700  0.59845300  0.27726000  1
  F  F32  1  0.05307800  0.25000000  0.82182100  1
  F  F33  1  0.80317300  0.75000000  0.46100800  1
  F  F34  1  0.46183300  0.40154700  0.72274000  1
  F  F35  1  0.18337800  0.60188900  0.64368000  1
loop_
_geom_bond_atom_site_label_1
_geom_bond_atom_site_label_2
_geom_bond_distance
_geom_bond_site_symmetry_2
N0 Re5 1.740757 1_555
N1 Re2 1.740757 1_555
N2 Re1 1.666530 1_555
N3 Re6 1.666530 1_654
N4 Re0 1.666530 1_456
N5 Re7 1.740757 1_555
N6 Re3 1.666530 1_555
N7 Re4 1.740757 1_555
Cl0 N7 1.568702 1_555
Cl1 N0 1.568702 1_555
Cl2 N5 1.568702 1_555
Cl3 N1 1.568702 1_555
F0 Re7 1.883399 1_555
F1 Re0 1.900289 1_556
F2 Re5 1.883399 1_555
F3 Re3 1.885926 1_555
F4 Re0 1.894707 1_555
F5 Re4 1.883399 1_555
F6 Re5 1.987302 1_555
F6 Re6 2.378052 1_555
F7 Re0 1.885926 1_555
F8 Re4 1.882882 1_455
F9 Re2 1.883399 1_555
F10 Re1 1.894707 1_555
F11 Re2 1.882882 1_655
F12 Re5 1.882882 1_555
F13 Re7 1.882882 1_555
F14 Re7 1.883399 1_555
F15 Re4 1.883399 1_555
F16 Re6 1.885926 1_555
F17 Re2 1.987302 1_655
F17 Re3 2.378052 1_555
F18 Re1 1.900289 1_555
F19 Re1 1.885926 1_555
F20 Re3 1.894707 1_555
F21 Re4 1.882882 1_455
F22 Re1 1.885926 1_555
F23 Re7 1.987302 1_555
F23 Re0 2.378052 1_555
F24 Re2 1.882882 1_655
F25 Re6 1.900289 1_554
F26 Re4 1.987302 1_455
F26 Re1 2.378052 1_555
F27 Re0 1.885926 1_555
F28 Re6 1.885926 1_555
F29 Re3 1.885926 1_555
F30 Re5 1.883399 1_555
F31 Re7 1.882882 1_555
F32 Re6 1.894707 1_555
F33 Re3 1.900289 1_555
F34 Re5 1.882882 1_555
F35 Re2 1.883399 1_555
