# generated using pymatgen
data_SiO2
_symmetry_space_group_name_H-M   'P 1'
_cell_length_a   8.43751200
_cell_length_b   12.52024900
_cell_length_c   29.05548100
_cell_angle_alpha   90.00000000
_cell_angle_beta   90.00000000
_cell_angle_gamma   90.00000000
_symmetry_Int_Tables_number   1
_chemical_formula_structural   SiO2
_chemical_formula_sum   'Si56 O112'
_cell_volume   3069.41378327
_cell_formula_units_Z   56
loop_
 _symmetry_equiv_pos_site_id
 _symmetry_equiv_pos_as_xyz
  1  'x, y, z'
loop_
 _atom_site_type_symbol
 _atom_site_label
 _atom_site_symmetry_multiplicity
 _atom_site_fract_x
 _atom_site_fract_y
 _atom_site_fract_z
 _atom_site_occupancy
  Si  Si0  1  0.43496200  0.21618400  0.04146500  1
  Si  Si1  1  0.93575100  0.26755300  0.70144700  1
  Si  Si2  1  0.43140000  0.04949600  0.39340100  1
  Si  Si3  1  0.56016100  0.54495500  0.54932600  1
  Si  Si4  1  0.43694600  0.15637600  0.55649200  1
  Si  Si5  1  0.43612100  0.63318700  0.11489500  1
  Si  Si6  1  0.06860000  0.04949600  0.39340100  1
  Si  Si7  1  0.56305400  0.84362400  0.44350800  1
  Si  Si8  1  0.43140000  0.95050400  0.89340100  1
  Si  Si9  1  0.43575100  0.73244700  0.29855300  1
  Si  Si10  1  0.56860000  0.95050400  0.60659900  1
  Si  Si11  1  0.06016100  0.54495500  0.95067400  1
  Si  Si12  1  0.06503800  0.21618400  0.04146500  1
  Si  Si13  1  0.93694600  0.15637600  0.94350800  1
  Si  Si14  1  0.93140000  0.04949600  0.10659900  1
  Si  Si15  1  0.56387900  0.36681300  0.88510500  1
  Si  Si16  1  0.56305400  0.15637600  0.94350800  1
  Si  Si17  1  0.56503800  0.21618400  0.45853500  1
  Si  Si18  1  0.06860000  0.95050400  0.89340100  1
  Si  Si19  1  0.06387900  0.36681300  0.61489500  1
  Si  Si20  1  0.06016100  0.45504500  0.45067400  1
  Si  Si21  1  0.06424900  0.26755300  0.79855300  1
  Si  Si22  1  0.06387900  0.63318700  0.11489500  1
  Si  Si23  1  0.43575100  0.26755300  0.79855300  1
  Si  Si24  1  0.56387900  0.63318700  0.38510500  1
  Si  Si25  1  0.06327500  0.96531400  0.19867500  1
  Si  Si26  1  0.93496200  0.78381700  0.95853500  1
  Si  Si27  1  0.56860000  0.04949600  0.10659900  1
  Si  Si28  1  0.43496200  0.78381700  0.54146500  1
  Si  Si29  1  0.06503800  0.78381700  0.54146500  1
  Si  Si30  1  0.06327500  0.03468600  0.69867500  1
  Si  Si31  1  0.56327500  0.03468600  0.80132500  1
  Si  Si32  1  0.43983900  0.45504500  0.45067400  1
  Si  Si33  1  0.43694600  0.84362400  0.05649200  1
  Si  Si34  1  0.93672500  0.96531400  0.30132500  1
  Si  Si35  1  0.93496200  0.21618400  0.45853500  1
  Si  Si36  1  0.56503800  0.78381700  0.95853500  1
  Si  Si37  1  0.06305400  0.15637600  0.55649200  1
  Si  Si38  1  0.56016100  0.45504500  0.04932600  1
  Si  Si39  1  0.56327500  0.96531400  0.30132500  1
  Si  Si40  1  0.06305400  0.84362400  0.05649200  1
  Si  Si41  1  0.56424900  0.26755300  0.70144700  1
  Si  Si42  1  0.93983900  0.45504500  0.04932600  1
  Si  Si43  1  0.93612100  0.63318700  0.38510500  1
  Si  Si44  1  0.93140000  0.95050400  0.60659900  1
  Si  Si45  1  0.56424900  0.73244700  0.20144700  1
  Si  Si46  1  0.43612100  0.36681300  0.61489500  1
  Si  Si47  1  0.06424900  0.73244700  0.29855300  1
  Si  Si48  1  0.93983900  0.54495500  0.54932600  1
  Si  Si49  1  0.43983900  0.54495500  0.95067400  1
  Si  Si50  1  0.93694600  0.84362400  0.44350800  1
  Si  Si51  1  0.43672500  0.03468600  0.69867500  1
  Si  Si52  1  0.93575100  0.73244700  0.20144700  1
  Si  Si53  1  0.93612100  0.36681300  0.88510500  1
  Si  Si54  1  0.93672500  0.03468600  0.80132500  1
  Si  Si55  1  0.43672500  0.96531400  0.19867500  1
  O  O0  1  0.25000000  0.13077700  0.56480500  1
  O  O1  1  0.01714500  0.27099400  0.57940800  1
  O  O2  1  0.50000000  0.68387300  0.25000000  1
  O  O3  1  0.75000000  0.90990000  0.59868700  1
  O  O4  1  0.53850700  0.83798400  0.31214500  1
  O  O5  1  0.01789700  0.67060700  0.94626300  1
  O  O6  1  0.04339300  0.35695700  0.83870500  1
  O  O7  1  0.97317700  0.83957500  0.49832300  1
  O  O8  1  0.51714500  0.27099400  0.92059200  1
  O  O9  1  0.03850700  0.83798400  0.18785500  1
  O  O10  1  0.03660000  0.03481300  0.33856100  1
  O  O11  1  0.45660700  0.64304300  0.33870500  1
  O  O12  1  0.50000000  0.99298700  0.25000000  1
  O  O13  1  0.51789700  0.32939300  0.05373700  1
  O  O14  1  0.75000000  0.99425100  0.30554400  1
  O  O15  1  0.47083100  0.51900300  0.09062600  1
  O  O16  1  0.75000000  0.09010000  0.09868700  1
  O  O17  1  0.55343000  0.13801900  0.41395300  1
  O  O18  1  0.98285500  0.27099400  0.92059200  1
  O  O19  1  0.25000000  0.23458000  0.02812200  1
  O  O20  1  0.75000000  0.23466300  0.70650400  1
  O  O21  1  0.46340000  0.03481300  0.33856100  1
  O  O22  1  0.25000000  0.76542000  0.52812200  1
  O  O23  1  0.50000000  0.00701300  0.75000000  1
  O  O24  1  0.52916900  0.51900300  0.40937400  1
  O  O25  1  0.25000000  0.00574900  0.69445600  1
  O  O26  1  0.75000000  0.35842600  0.87108900  1
  O  O27  1  0.75000000  0.00574900  0.80554400  1
  O  O28  1  0.25000000  0.35842600  0.62891100  1
  O  O29  1  0.75000000  0.76542000  0.97187800  1
  O  O30  1  0.25000000  0.99425100  0.19445600  1
  O  O31  1  0.75000000  0.47178700  0.05410400  1
  O  O32  1  0.25000000  0.23466300  0.79349600  1
  O  O33  1  0.04339300  0.64304300  0.33870500  1
  O  O34  1  0.95660700  0.64304300  0.16129500  1
  O  O35  1  0.02916900  0.51900300  0.09062600  1
  O  O36  1  0.97083100  0.51900300  0.40937400  1
  O  O37  1  0.48210300  0.32939300  0.44626300  1
  O  O38  1  0.05343000  0.86198100  0.58604700  1
  O  O39  1  0.94657000  0.86198100  0.91395300  1
  O  O40  1  0.98210300  0.32939300  0.05373700  1
  O  O41  1  0.96340000  0.96518700  0.66143900  1
  O  O42  1  0.54339300  0.64304300  0.16129500  1
  O  O43  1  0.45664100  0.06398700  0.92000200  1
  O  O44  1  0.47083100  0.48099700  0.59062600  1
  O  O45  1  0.52682300  0.16042500  0.99832300  1
  O  O46  1  0.45660700  0.35695700  0.83870500  1
  O  O47  1  0.53850700  0.16201600  0.81214500  1
  O  O48  1  0.75000000  0.23458000  0.47187800  1
  O  O49  1  0.98285500  0.72900600  0.42059200  1
  O  O50  1  0.01789700  0.32939300  0.44626300  1
  O  O51  1  0.51714500  0.72900600  0.42059200  1
  O  O52  1  0.25000000  0.47178700  0.44589600  1
  O  O53  1  0.25000000  0.90990000  0.90131300  1
  O  O54  1  0.53660000  0.03481300  0.16143900  1
  O  O55  1  0.00000000  0.50000000  0.00000000  1
  O  O56  1  0.75000000  0.13077700  0.93519500  1
  O  O57  1  0.48285500  0.72900600  0.07940800  1
  O  O58  1  0.96149300  0.83798400  0.31214500  1
  O  O59  1  0.00000000  0.50000000  0.50000000  1
  O  O60  1  0.46149300  0.83798400  0.18785500  1
  O  O61  1  0.48210300  0.67060700  0.94626300  1
  O  O62  1  0.96340000  0.03481300  0.16143900  1
  O  O63  1  0.51789700  0.67060700  0.55373700  1
  O  O64  1  0.25000000  0.76533700  0.29349600  1
  O  O65  1  0.53660000  0.96518700  0.66143900  1
  O  O66  1  0.02682300  0.83957500  0.00167700  1
  O  O67  1  0.03850700  0.16201600  0.68785500  1
  O  O68  1  0.02916900  0.48099700  0.59062600  1
  O  O69  1  0.54339300  0.35695700  0.66129500  1
  O  O70  1  0.46340000  0.96518700  0.83856100  1
  O  O71  1  0.00000000  0.31612700  0.75000000  1
  O  O72  1  0.94657000  0.13801900  0.41395300  1
  O  O73  1  0.75000000  0.64157400  0.37108900  1
  O  O74  1  0.47317700  0.83957500  0.00167700  1
  O  O75  1  0.95664100  0.06398700  0.57999800  1
  O  O76  1  0.48285500  0.27099400  0.57940800  1
  O  O77  1  0.96149300  0.16201600  0.81214500  1
  O  O78  1  0.00000000  0.68387300  0.25000000  1
  O  O79  1  0.01714500  0.72900600  0.07940800  1
  O  O80  1  0.45664100  0.93601300  0.42000200  1
  O  O81  1  0.00000000  0.99298700  0.25000000  1
  O  O82  1  0.50000000  0.50000000  0.50000000  1
  O  O83  1  0.25000000  0.09010000  0.40131300  1
  O  O84  1  0.55343000  0.86198100  0.91395300  1
  O  O85  1  0.47317700  0.16042500  0.50167700  1
  O  O86  1  0.75000000  0.52821300  0.55410400  1
  O  O87  1  0.03660000  0.96518700  0.83856100  1
  O  O88  1  0.02682300  0.16042500  0.50167700  1
  O  O89  1  0.50000000  0.50000000  0.00000000  1
  O  O90  1  0.50000000  0.31612700  0.75000000  1
  O  O91  1  0.54335900  0.06398700  0.57999800  1
  O  O92  1  0.25000000  0.52821300  0.94589600  1
  O  O93  1  0.75000000  0.76533700  0.20650400  1
  O  O94  1  0.95664100  0.93601300  0.07999800  1
  O  O95  1  0.44657000  0.13801900  0.08604700  1
  O  O96  1  0.05343000  0.13801900  0.08604700  1
  O  O97  1  0.04335900  0.93601300  0.42000200  1
  O  O98  1  0.04335900  0.06398700  0.92000200  1
  O  O99  1  0.44657000  0.86198100  0.58604700  1
  O  O100  1  0.52916900  0.48099700  0.90937400  1
  O  O101  1  0.97083100  0.48099700  0.90937400  1
  O  O102  1  0.25000000  0.86922300  0.06480500  1
  O  O103  1  0.25000000  0.64157400  0.12891100  1
  O  O104  1  0.97317700  0.16042500  0.99832300  1
  O  O105  1  0.52682300  0.83957500  0.49832300  1
  O  O106  1  0.00000000  0.00701300  0.75000000  1
  O  O107  1  0.75000000  0.86922300  0.43519500  1
  O  O108  1  0.95660700  0.35695700  0.66129500  1
  O  O109  1  0.46149300  0.16201600  0.68785500  1
  O  O110  1  0.98210300  0.67060700  0.55373700  1
  O  O111  1  0.54335900  0.93601300  0.07999800  1
loop_
_geom_bond_atom_site_label_1
_geom_bond_atom_site_label_2
_geom_bond_distance
_geom_bond_site_symmetry_2
O0 Si37 1.627614 1_555
O0 Si4 1.627614 1_555
O1 Si37 1.628723 1_555
O1 Si19 1.630296 1_555
O2 Si9 1.629077 1_555
O2 Si45 1.629077 1_555
O3 Si10 1.629085 1_555
O3 Si44 1.629085 1_555
O4 Si9 1.628995 1_555
O4 Si39 1.638289 1_555
O5 Si11 1.618188 1_555
O5 Si26 1.620458 1_455
O6 Si21 1.626337 1_555
O6 Si53 1.628503 1_455
O7 Si50 1.622541 1_555
O7 Si29 1.630763 1_655
O8 Si16 1.628723 1_555
O8 Si15 1.630296 1_555
O9 Si52 1.628995 1_455
O9 Si25 1.638289 1_555
O10 Si34 1.624136 1_445
O10 Si6 1.626538 1_555
O11 Si9 1.626337 1_555
O11 Si24 1.628503 1_555
O12 Si39 1.621410 1_555
O12 Si55 1.621410 1_555
O13 Si38 1.618188 1_555
O13 Si0 1.620447 1_555
O14 Si34 1.621256 1_555
O14 Si39 1.621256 1_555
O15 Si5 1.620739 1_555
O15 Si38 1.627670 1_555
O16 Si27 1.629085 1_555
O16 Si14 1.629085 1_555
O17 Si2 1.626382 1_555
O17 Si17 1.626430 1_555
O18 Si13 1.628723 1_555
O18 Si53 1.630296 1_555
O19 Si0 1.624464 1_555
O19 Si12 1.624464 1_555
O20 Si41 1.627119 1_555
O20 Si1 1.627119 1_555
O21 Si39 1.624136 1_545
O21 Si2 1.626538 1_555
O22 Si28 1.624465 1_555
O22 Si29 1.624465 1_555
O23 Si31 1.621410 1_555
O23 Si51 1.621410 1_555
O24 Si24 1.620739 1_555
O24 Si32 1.627670 1_555
O25 Si51 1.621256 1_555
O25 Si30 1.621256 1_555
O26 Si15 1.625738 1_555
O26 Si53 1.625738 1_555
O27 Si54 1.621256 1_555
O27 Si31 1.621256 1_555
O28 Si46 1.625738 1_555
O28 Si19 1.625738 1_555
O29 Si26 1.624465 1_555
O29 Si36 1.624465 1_555
O30 Si55 1.621256 1_555
O30 Si25 1.621256 1_555
O31 Si38 1.621380 1_555
O31 Si42 1.621380 1_555
O32 Si23 1.627119 1_555
O32 Si21 1.627119 1_555
O33 Si47 1.626337 1_555
O33 Si43 1.628503 1_455
O34 Si52 1.626337 1_555
O34 Si22 1.628503 1_655
O35 Si22 1.620739 1_555
O35 Si42 1.627670 1_455
O36 Si43 1.620739 1_555
O36 Si20 1.627670 1_655
O37 Si32 1.618188 1_555
O37 Si17 1.620447 1_555
O38 Si44 1.626382 1_455
O38 Si29 1.626423 1_555
O39 Si18 1.626382 1_655
O39 Si26 1.626423 1_555
O40 Si42 1.618188 1_555
O40 Si12 1.620447 1_655
O41 Si30 1.624136 1_665
O41 Si44 1.626538 1_555
O42 Si45 1.626337 1_555
O42 Si5 1.628503 1_555
O43 Si16 1.615749 1_555
O43 Si8 1.631414 1_545
O44 Si46 1.620739 1_555
O44 Si3 1.627670 1_555
O45 Si16 1.622541 1_555
O45 Si0 1.630768 1_556
O46 Si23 1.626337 1_555
O46 Si15 1.628503 1_555
O47 Si23 1.628995 1_555
O47 Si31 1.638289 1_555
O48 Si35 1.624464 1_555
O48 Si17 1.624464 1_555
O49 Si50 1.628723 1_555
O49 Si43 1.630296 1_555
O50 Si20 1.618188 1_555
O50 Si35 1.620447 1_455
O51 Si7 1.628723 1_555
O51 Si24 1.630296 1_555
O52 Si32 1.621380 1_555
O52 Si20 1.621380 1_555
O53 Si18 1.629085 1_555
O53 Si8 1.629085 1_555
O54 Si55 1.624136 1_545
O54 Si27 1.626538 1_555
O55 Si42 1.621265 1_455
O55 Si11 1.621265 1_554
O56 Si13 1.627614 1_555
O56 Si16 1.627614 1_555
O57 Si33 1.628723 1_555
O57 Si5 1.630296 1_555
O58 Si47 1.628995 1_655
O58 Si34 1.638289 1_555
O59 Si48 1.621265 1_455
O59 Si20 1.621265 1_555
O60 Si45 1.628995 1_555
O60 Si55 1.638289 1_555
O61 Si49 1.618188 1_555
O61 Si36 1.620458 1_555
O62 Si25 1.624136 1_645
O62 Si14 1.626538 1_555
O63 Si3 1.618188 1_555
O63 Si28 1.620458 1_555
O64 Si47 1.627119 1_555
O64 Si9 1.627119 1_555
O65 Si51 1.624136 1_565
O65 Si10 1.626538 1_555
O66 Si40 1.622541 1_555
O66 Si26 1.630763 1_454
O67 Si1 1.628995 1_455
O67 Si30 1.638289 1_555
O68 Si19 1.620739 1_555
O68 Si48 1.627670 1_455
O69 Si41 1.626337 1_555
O69 Si46 1.628503 1_555
O70 Si31 1.624136 1_565
O70 Si8 1.626538 1_555
O71 Si21 1.629077 1_555
O71 Si1 1.629077 1_455
O72 Si6 1.626382 1_655
O72 Si35 1.626430 1_555
O73 Si24 1.625738 1_555
O73 Si43 1.625738 1_555
O74 Si33 1.622541 1_555
O74 Si36 1.630763 1_554
O75 Si37 1.615749 1_655
O75 Si44 1.631414 1_545
O76 Si4 1.628723 1_555
O76 Si46 1.630296 1_555
O77 Si21 1.628995 1_655
O77 Si54 1.638289 1_555
O78 Si52 1.629077 1_455
O78 Si47 1.629077 1_555
O79 Si40 1.628723 1_555
O79 Si22 1.630296 1_555
O80 Si7 1.615749 1_555
O80 Si2 1.631414 1_565
O81 Si25 1.621410 1_555
O81 Si34 1.621410 1_455
O82 Si3 1.621265 1_555
O82 Si32 1.621265 1_555
O83 Si2 1.629085 1_555
O83 Si6 1.629085 1_555
O84 Si8 1.626382 1_555
O84 Si36 1.626423 1_555
O85 Si4 1.622541 1_555
O85 Si17 1.630768 1_555
O86 Si48 1.621380 1_555
O86 Si3 1.621380 1_555
O87 Si54 1.624136 1_465
O87 Si18 1.626538 1_555
O88 Si37 1.622541 1_555
O88 Si35 1.630768 1_455
O89 Si38 1.621265 1_555
O89 Si49 1.621265 1_554
O90 Si23 1.629077 1_555
O90 Si41 1.629077 1_555
O91 Si4 1.615749 1_555
O91 Si10 1.631414 1_545
O92 Si49 1.621380 1_555
O92 Si11 1.621380 1_555
O93 Si45 1.627119 1_555
O93 Si52 1.627119 1_555
O94 Si40 1.615749 1_655
O94 Si14 1.631414 1_565
O95 Si27 1.626382 1_555
O95 Si0 1.626430 1_555
O96 Si14 1.626382 1_455
O96 Si12 1.626430 1_555
O97 Si50 1.615749 1_455
O97 Si6 1.631414 1_565
O98 Si13 1.615749 1_455
O98 Si18 1.631414 1_545
O99 Si10 1.626382 1_555
O99 Si28 1.626423 1_555
O100 Si15 1.620739 1_555
O100 Si49 1.627670 1_555
O101 Si53 1.620739 1_555
O101 Si11 1.627670 1_655
O102 Si33 1.627614 1_555
O102 Si40 1.627614 1_555
O103 Si5 1.625738 1_555
O103 Si22 1.625738 1_555
O104 Si13 1.622541 1_555
O104 Si12 1.630768 1_656
O105 Si7 1.622541 1_555
O105 Si28 1.630763 1_555
O106 Si54 1.621410 1_455
O106 Si30 1.621410 1_555
O107 Si50 1.627614 1_555
O107 Si7 1.627614 1_555
O108 Si1 1.626337 1_555
O108 Si19 1.628503 1_655
O109 Si41 1.628995 1_555
O109 Si51 1.638289 1_555
O110 Si48 1.618188 1_555
O110 Si29 1.620458 1_655
O111 Si33 1.615749 1_555
O111 Si27 1.631414 1_565
