# generated using pymatgen
data_K2Ti2(PO4)3
_symmetry_space_group_name_H-M   'P 1'
_cell_length_a   10.03274900
_cell_length_b   10.03274900
_cell_length_c   10.03274900
_cell_angle_alpha   90.00000000
_cell_angle_beta   90.00000000
_cell_angle_gamma   90.00000000
_symmetry_Int_Tables_number   1
_chemical_formula_structural   K2Ti2(PO4)3
_chemical_formula_sum   'K8 Ti8 P12 O48'
_cell_volume   1009.85691003
_cell_formula_units_Z   4
loop_
 _symmetry_equiv_pos_site_id
 _symmetry_equiv_pos_as_xyz
  1  'x, y, z'
loop_
 _atom_site_type_symbol
 _atom_site_label
 _atom_site_symmetry_multiplicity
 _atom_site_fract_x
 _atom_site_fract_y
 _atom_site_fract_z
 _atom_site_occupancy
  K  K0  1  0.93087200  0.93087200  0.93087200  1
  K  K1  1  0.43087200  0.56912800  0.06912800  1
  K  K2  1  0.56912800  0.06912800  0.43087200  1
  K  K3  1  0.06912800  0.43087200  0.56912800  1
  K  K4  1  0.70404600  0.70404600  0.70404600  1
  K  K5  1  0.79595400  0.29595400  0.20404600  1
  K  K6  1  0.29595400  0.20404600  0.79595400  1
  K  K7  1  0.20404600  0.79595400  0.29595400  1
  Ti  Ti0  1  0.41266200  0.41266200  0.41266200  1
  Ti  Ti1  1  0.58733800  0.91266200  0.08733800  1
  Ti  Ti2  1  0.91266200  0.08733800  0.58733800  1
  Ti  Ti3  1  0.08733800  0.58733800  0.91266200  1
  Ti  Ti4  1  0.85806200  0.64193800  0.35806200  1
  Ti  Ti5  1  0.64193800  0.35806200  0.85806200  1
  Ti  Ti6  1  0.35806200  0.85806200  0.64193800  1
  Ti  Ti7  1  0.14193800  0.14193800  0.14193800  1
  P  P0  1  0.37327500  0.54215200  0.72618000  1
  P  P1  1  0.87327500  0.95784800  0.27382000  1
  P  P2  1  0.62672500  0.04215200  0.77382000  1
  P  P3  1  0.95784800  0.27382000  0.87327500  1
  P  P4  1  0.77382000  0.62672500  0.04215200  1
  P  P5  1  0.27382000  0.87327500  0.95784800  1
  P  P6  1  0.54215200  0.72618000  0.37327500  1
  P  P7  1  0.72618000  0.37327500  0.54215200  1
  P  P8  1  0.04215200  0.77382000  0.62672500  1
  P  P9  1  0.45784800  0.22618000  0.12672500  1
  P  P10  1  0.22618000  0.12672500  0.45784800  1
  P  P11  1  0.12672500  0.45784800  0.22618000  1
  O  O0  1  0.24023900  0.52174900  0.80171300  1
  O  O1  1  0.74023900  0.97825100  0.19828700  1
  O  O2  1  0.75976100  0.02174900  0.69828700  1
  O  O3  1  0.97825100  0.19828700  0.74023900  1
  O  O4  1  0.69828700  0.75976100  0.02174900  1
  O  O5  1  0.19828700  0.74023900  0.97825100  1
  O  O6  1  0.52174900  0.80171300  0.24023900  1
  O  O7  1  0.80171300  0.24023900  0.52174900  1
  O  O8  1  0.02174900  0.69828700  0.75976100  1
  O  O9  1  0.47825100  0.30171300  0.25976100  1
  O  O10  1  0.30171300  0.25976100  0.47825100  1
  O  O11  1  0.25976100  0.47825100  0.30171300  1
  O  O12  1  0.35206100  0.49678700  0.58079600  1
  O  O13  1  0.85206100  0.00321300  0.41920400  1
  O  O14  1  0.64793900  0.99678700  0.91920400  1
  O  O15  1  0.00321300  0.41920400  0.85206100  1
  O  O16  1  0.91920400  0.64793900  0.99678700  1
  O  O17  1  0.41920400  0.85206100  0.00321300  1
  O  O18  1  0.70162900  0.52274500  0.95424200  1
  O  O19  1  0.49678700  0.58079600  0.35206100  1
  O  O20  1  0.99678700  0.91920400  0.64793900  1
  O  O21  1  0.50321300  0.08079600  0.14793900  1
  O  O22  1  0.08079600  0.14793900  0.50321300  1
  O  O23  1  0.14793900  0.50321300  0.08079600  1
  O  O24  1  0.47725500  0.45424200  0.79837100  1
  O  O25  1  0.97725500  0.04575800  0.20162900  1
  O  O26  1  0.52274500  0.95424200  0.70162900  1
  O  O27  1  0.04575800  0.20162900  0.97725500  1
  O  O28  1  0.08008700  0.31062700  0.23131300  1
  O  O29  1  0.23131300  0.08008700  0.31062700  1
  O  O30  1  0.31062700  0.23131300  0.08008700  1
  O  O31  1  0.18937300  0.76868700  0.58008700  1
  O  O32  1  0.73131300  0.41991300  0.68937300  1
  O  O33  1  0.68937300  0.73131300  0.41991300  1
  O  O34  1  0.26868700  0.91991300  0.81062700  1
  O  O35  1  0.76868700  0.58008700  0.18937300  1
  O  O36  1  0.81062700  0.26868700  0.91991300  1
  O  O37  1  0.58008700  0.18937300  0.76868700  1
  O  O38  1  0.91991300  0.81062700  0.26868700  1
  O  O39  1  0.41991300  0.68937300  0.73131300  1
  O  O40  1  0.02274500  0.54575800  0.29837100  1
  O  O41  1  0.29837100  0.02274500  0.54575800  1
  O  O42  1  0.54575800  0.29837100  0.02274500  1
  O  O43  1  0.95424200  0.70162900  0.52274500  1
  O  O44  1  0.79837100  0.47725500  0.45424200  1
  O  O45  1  0.45424200  0.79837100  0.47725500  1
  O  O46  1  0.20162900  0.97725500  0.04575800  1
  O  O47  1  0.58079600  0.35206100  0.49678700  1
loop_
_geom_bond_atom_site_label_1
_geom_bond_atom_site_label_2
_geom_bond_distance
_geom_bond_site_symmetry_2
K0 O14 2.916961 1_555
K0 O16 2.916961 1_555
K0 O20 2.916961 1_555
K0 O27 2.987326 1_665
K0 O46 2.987326 1_656
K0 O25 2.987326 1_566
K0 O2 3.037014 1_565
K0 O4 3.037014 1_556
K0 O8 3.037014 1_655
K1 O23 2.916961 1_555
K1 O17 2.916961 1_555
K1 O19 2.916961 1_555
K1 O24 2.987326 1_554
K1 O18 2.987326 1_554
K1 O42 2.987326 1_555
K1 O11 3.037014 1_555
K1 O5 3.037014 1_554
K1 O6 3.037014 1_555
K2 O21 2.916961 1_555
K2 O47 2.916961 1_555
K2 O13 2.916961 1_555
K2 O26 2.987326 1_545
K2 O41 2.987326 1_555
K2 O45 2.987326 1_545
K2 O9 3.037014 1_555
K2 O1 3.037014 1_545
K2 O7 3.037014 1_555
K3 O22 2.916961 1_555
K3 O12 2.916961 1_555
K3 O15 2.916961 1_555
K3 O44 2.987326 1_455
K3 O43 2.987326 1_455
K3 O40 2.987326 1_555
K3 O3 3.037014 1_455
K3 O10 3.037014 1_555
K3 O0 3.037014 1_555
K4 O33 2.867513 1_555
K4 O32 2.867513 1_555
K4 O39 2.867513 1_555
K4 O26 3.100005 1_555
K4 O43 3.100005 1_555
K4 O18 3.100005 1_555
K4 O8 3.236592 1_655
K4 O2 3.236592 1_565
K4 O4 3.236592 1_556
K5 O28 2.867513 1_655
K5 O36 2.867513 1_554
K5 O35 2.867513 1_555
K5 O44 3.100005 1_555
K5 O25 3.100005 1_555
K5 O42 3.100005 1_555
K5 O7 3.236592 1_555
K5 O1 3.236592 1_545
K5 O9 3.236592 1_555
K6 O30 2.867513 1_556
K6 O37 2.867513 1_555
K6 O34 2.867513 1_545
K6 O27 3.100005 1_555
K6 O24 3.100005 1_555
K6 O41 3.100005 1_555
K6 O0 3.236592 1_555
K6 O3 3.236592 1_455
K6 O10 3.236592 1_555
K7 O29 2.867513 1_565
K7 O31 2.867513 1_555
K7 O38 2.867513 1_455
K7 O45 3.100005 1_555
K7 O46 3.100005 1_555
K7 O40 3.100005 1_555
K7 O6 3.236592 1_555
K7 O5 3.236592 1_554
K7 O11 3.236592 1_555
O0 P0 1.548430 1_555
O0 Ti3 2.006307 1_555
O1 P1 1.548430 1_555
O1 Ti1 2.006307 1_555
O2 P2 1.548430 1_555
O2 Ti2 2.006307 1_555
O3 P3 1.548430 1_555
O3 Ti2 2.006307 1_555
O4 P4 1.548430 1_555
O4 Ti1 2.006307 1_555
O5 P5 1.548430 1_555
O5 Ti3 2.006307 1_555
O6 P6 1.548430 1_555
O6 Ti1 2.006307 1_555
O7 P7 1.548430 1_555
O7 Ti2 2.006307 1_555
O8 P8 1.548430 1_555
O8 Ti3 2.006307 1_555
O9 P9 1.548430 1_555
O9 Ti0 2.006307 1_555
O10 P10 1.548430 1_555
O10 Ti0 2.006307 1_555
O11 P11 1.548430 1_555
O11 Ti0 2.006307 1_555
O12 P0 1.542713 1_555
O12 Ti0 1.981780 1_555
O13 P1 1.542713 1_545
O13 Ti2 1.981780 1_555
O14 P2 1.542713 1_565
O14 Ti1 1.981780 1_556
O15 P3 1.542713 1_455
O15 Ti3 1.981780 1_555
O16 P4 1.542713 1_556
O16 Ti3 1.981780 1_655
O17 P5 1.542713 1_554
O17 Ti1 1.981780 1_555
O18 P4 1.546201 1_556
O18 Ti5 2.004896 1_555
O19 P6 1.542713 1_555
O19 Ti0 1.981780 1_555
O20 P8 1.542713 1_655
O20 Ti2 1.981780 1_565
O21 P9 1.542713 1_555
O21 Ti1 1.981780 1_545
O22 P10 1.542713 1_555
O22 Ti2 1.981780 1_455
O23 P11 1.542713 1_555
O23 Ti3 1.981780 1_554
O24 P0 1.546201 1_555
O24 Ti5 2.004896 1_555
O25 P1 1.546201 1_545
O25 Ti7 2.004896 1_655
O26 P2 1.546201 1_565
O26 Ti6 2.004896 1_555
O27 P3 1.546201 1_455
O27 Ti7 2.004896 1_556
O28 P11 1.550229 1_555
O28 Ti7 2.013296 1_555
O29 P10 1.550229 1_555
O29 Ti7 2.013296 1_555
O30 P9 1.550229 1_555
O30 Ti7 2.013296 1_555
O31 P8 1.550229 1_555
O31 Ti6 2.013296 1_555
O32 P7 1.550229 1_555
O32 Ti5 2.013296 1_555
O33 P6 1.550229 1_555
O33 Ti4 2.013296 1_555
O34 P5 1.550229 1_555
O34 Ti6 2.013296 1_555
O35 P4 1.550229 1_555
O35 Ti4 2.013296 1_555
O36 P3 1.550229 1_555
O36 Ti5 2.013296 1_555
O37 P2 1.550229 1_555
O37 Ti5 2.013296 1_555
O38 P1 1.550229 1_555
O38 Ti4 2.013296 1_555
O39 P0 1.550229 1_555
O39 Ti6 2.013296 1_555
O40 P11 1.546201 1_555
O40 Ti4 2.004896 1_455
O41 P10 1.546201 1_555
O41 Ti6 2.004896 1_545
O42 P9 1.546201 1_555
O42 Ti5 2.004896 1_554
O43 P8 1.546201 1_655
O43 Ti4 2.004896 1_555
O44 P7 1.546201 1_555
O44 Ti4 2.004896 1_555
O45 P6 1.546201 1_555
O45 Ti6 2.004896 1_555
O46 P5 1.546201 1_554
O46 Ti7 2.004896 1_565
O47 P7 1.542713 1_555
O47 Ti0 1.981780 1_555
