# generated using pymatgen
data_SbH12C5N3Cl4
_symmetry_space_group_name_H-M   'P 1'
_cell_length_a   10.12582200
_cell_length_b   15.60442000
_cell_length_c   17.46712265
_cell_angle_alpha   72.72129075
_cell_angle_beta   90.00000000
_cell_angle_gamma   90.00000000
_symmetry_Int_Tables_number   1
_chemical_formula_structural   SbH12C5N3Cl4
_chemical_formula_sum   'Sb8 H96 C40 N24 Cl32'
_cell_volume   2635.38518858
_cell_formula_units_Z   8
loop_
 _symmetry_equiv_pos_site_id
 _symmetry_equiv_pos_as_xyz
  1  'x, y, z'
loop_
 _atom_site_type_symbol
 _atom_site_label
 _atom_site_symmetry_multiplicity
 _atom_site_fract_x
 _atom_site_fract_y
 _atom_site_fract_z
 _atom_site_occupancy
  Sb  Sb0  1  0.53305500  0.73485600  0.66729300  1
  Sb  Sb1  1  0.14587000  0.21647800  0.83092900  1
  Sb  Sb2  1  0.03305500  0.76514400  0.33270700  1
  Sb  Sb3  1  0.64587000  0.28352200  0.16907100  1
  Sb  Sb4  1  0.35413000  0.71647800  0.83092900  1
  Sb  Sb5  1  0.46694500  0.26514400  0.33270700  1
  Sb  Sb6  1  0.85413000  0.78352200  0.16907100  1
  Sb  Sb7  1  0.96694500  0.23485600  0.66729300  1
  H  H0  1  0.81487700  0.33574900  0.35295600  1
  H  H1  1  0.34183900  0.39135900  0.51106900  1
  H  H2  1  0.62175500  0.07377600  0.84364800  1
  H  H3  1  0.37824500  0.92622400  0.15635200  1
  H  H4  1  0.45970600  0.96922400  0.58550800  1
  H  H5  1  0.00563100  0.11318600  0.41672300  1
  H  H6  1  0.92465400  0.80360400  0.66467200  1
  H  H7  1  0.66235900  0.99590000  0.79059600  1
  H  H8  1  0.18223600  0.70651200  0.17023200  1
  H  H9  1  0.04029400  0.46922400  0.58550800  1
  H  H10  1  0.09617900  0.65946600  0.73675500  1
  H  H11  1  0.83764100  0.49590000  0.79059600  1
  H  H12  1  0.21699800  0.87787500  0.97899900  1
  H  H13  1  0.79572100  0.53483100  0.51438700  1
  H  H14  1  0.64898800  0.76950900  0.93532000  1
  H  H15  1  0.98996500  0.98565400  0.20636300  1
  H  H16  1  0.48185300  0.39329300  0.68275900  1
  H  H17  1  0.84183900  0.10864100  0.48893100  1
  H  H18  1  0.57534600  0.30360400  0.66467200  1
  H  H19  1  0.81776400  0.29348800  0.82976800  1
  H  H20  1  0.29269600  0.47037100  0.01925500  1
  H  H21  1  0.59745300  0.42237000  0.83590200  1
  H  H22  1  0.85101200  0.26950900  0.93532000  1
  H  H23  1  0.90382100  0.34053400  0.26324500  1
  H  H24  1  0.31436600  0.73218900  0.09828600  1
  H  H25  1  0.64250800  0.09316100  0.97257900  1
  H  H26  1  0.48906000  0.18615400  0.64340500  1
  H  H27  1  0.31776400  0.20651200  0.17023200  1
  H  H28  1  0.67336300  0.96250600  0.39947900  1
  H  H29  1  0.59617900  0.84053400  0.26324500  1
  H  H30  1  0.71699800  0.62212500  0.02100100  1
  H  H31  1  0.01003500  0.01434600  0.79363700  1
  H  H32  1  0.34877700  0.50089300  0.52563800  1
  H  H33  1  0.35101200  0.23049100  0.06468000  1
  H  H34  1  0.16235900  0.50410000  0.20940400  1
  H  H35  1  0.84877700  0.99910700  0.47436200  1
  H  H36  1  0.42465400  0.69639600  0.33532800  1
  H  H37  1  0.68512300  0.83574900  0.35295600  1
  H  H38  1  0.15816100  0.89135900  0.51106900  1
  H  H39  1  0.60233600  0.04478500  0.31512400  1
  H  H40  1  0.68223600  0.79348800  0.82976800  1
  H  H41  1  0.18512300  0.66425100  0.64704400  1
  H  H42  1  0.63258000  0.49680300  0.73839400  1
  H  H43  1  0.65122300  0.49910700  0.47436200  1
  H  H44  1  0.79269600  0.02962900  0.98074500  1
  H  H45  1  0.49436900  0.61318600  0.41672300  1
  H  H46  1  0.65816100  0.60864100  0.48893100  1
  H  H47  1  0.17336300  0.53749400  0.60052100  1
  H  H48  1  0.40254700  0.57763000  0.16409800  1
  H  H49  1  0.14250800  0.40683900  0.02742100  1
  H  H50  1  0.31487700  0.16425100  0.64704400  1
  H  H51  1  0.89766400  0.54478500  0.31512400  1
  H  H52  1  0.17154000  0.53836900  0.10276700  1
  H  H53  1  0.48996500  0.51434600  0.79363700  1
  H  H54  1  0.70427900  0.03483100  0.51438700  1
  H  H55  1  0.54029400  0.03077600  0.41449200  1
  H  H56  1  0.32663700  0.03749400  0.60052100  1
  H  H57  1  0.01094000  0.68615400  0.64340500  1
  H  H58  1  0.10233600  0.45521500  0.68487600  1
  H  H59  1  0.86742000  0.99680300  0.73839400  1
  H  H60  1  0.68563400  0.26781100  0.90171400  1
  H  H61  1  0.33764100  0.00410000  0.20940400  1
  H  H62  1  0.29572100  0.96516900  0.48561300  1
  H  H63  1  0.39766400  0.95521500  0.68487600  1
  H  H64  1  0.78300200  0.12212500  0.02100100  1
  H  H65  1  0.35749200  0.90683900  0.02742100  1
  H  H66  1  0.20427900  0.46516900  0.48561300  1
  H  H67  1  0.82846000  0.46163100  0.89723300  1
  H  H68  1  0.18563400  0.23218900  0.09828600  1
  H  H69  1  0.14898800  0.73049100  0.06468000  1
  H  H70  1  0.99436900  0.88681400  0.58327700  1
  H  H71  1  0.32846000  0.03836900  0.10276700  1
  H  H72  1  0.50563100  0.38681400  0.58327700  1
  H  H73  1  0.98906000  0.31384600  0.35659500  1
  H  H74  1  0.98185300  0.10670700  0.31724100  1
  H  H75  1  0.40382100  0.15946600  0.73675500  1
  H  H76  1  0.07534600  0.19639600  0.33532800  1
  H  H77  1  0.20730400  0.97037100  0.01925500  1
  H  H78  1  0.51094000  0.81384600  0.35659500  1
  H  H79  1  0.36742000  0.50319700  0.26160600  1
  H  H80  1  0.67154000  0.96163100  0.89723300  1
  H  H81  1  0.95970600  0.53077600  0.41449200  1
  H  H82  1  0.51814700  0.60670700  0.31724100  1
  H  H83  1  0.90254700  0.92237000  0.83590200  1
  H  H84  1  0.87824500  0.57377600  0.84364800  1
  H  H85  1  0.09745300  0.07763000  0.16409800  1
  H  H86  1  0.15122300  0.00089300  0.52563800  1
  H  H87  1  0.28300200  0.37787500  0.97899900  1
  H  H88  1  0.01814700  0.89329300  0.68275900  1
  H  H89  1  0.85749200  0.59316100  0.97257900  1
  H  H90  1  0.82663700  0.46250600  0.39947900  1
  H  H91  1  0.81436600  0.76781100  0.90171400  1
  H  H92  1  0.51003500  0.48565400  0.20636300  1
  H  H93  1  0.13258000  0.00319700  0.26160600  1
  H  H94  1  0.12175500  0.42622400  0.15635200  1
  H  H95  1  0.70730400  0.52962900  0.98074500  1
  C  C0  1  0.18738700  0.48185600  0.15713100  1
  C  C1  1  0.24880000  0.90330500  0.02840400  1
  C  C2  1  0.74894100  0.17630700  0.34316300  1
  C  C3  1  0.78880000  0.25312100  0.88990600  1
  C  C4  1  0.31261300  0.98185600  0.15713100  1
  C  C5  1  0.28588100  0.44247900  0.52852900  1
  C  C6  1  0.86320000  0.12801000  0.84092300  1
  C  C7  1  0.25120000  0.40330500  0.02840400  1
  C  C8  1  0.21411900  0.94247900  0.52852900  1
  C  C9  1  0.21120000  0.74687900  0.11009400  1
  C  C10  1  0.87118200  0.52976800  0.37824500  1
  C  C11  1  0.39554500  0.19393400  0.67233000  1
  C  C12  1  0.24894100  0.32369300  0.65683700  1
  C  C13  1  0.51058300  0.65270400  0.35398200  1
  C  C14  1  0.37118200  0.97023200  0.62175500  1
  C  C15  1  0.89554500  0.30606600  0.32767000  1
  C  C16  1  0.98941700  0.15270400  0.35398200  1
  C  C17  1  0.62881800  0.02976800  0.37824500  1
  C  C18  1  0.75105900  0.67630700  0.34316300  1
  C  C19  1  0.12881800  0.47023200  0.62175500  1
  C  C20  1  0.68738700  0.01814400  0.84286900  1
  C  C21  1  0.75120000  0.09669500  0.97159600  1
  C  C22  1  0.90716300  0.99257900  0.79818100  1
  C  C23  1  0.01058300  0.84729600  0.64601800  1
  C  C24  1  0.81261300  0.51814400  0.84286900  1
  C  C25  1  0.25105900  0.82369300  0.65683700  1
  C  C26  1  0.74880000  0.59669500  0.97159600  1
  C  C27  1  0.59283700  0.49257900  0.79818100  1
  C  C28  1  0.60445500  0.80606600  0.32767000  1
  C  C29  1  0.48941700  0.34729600  0.64601800  1
  C  C30  1  0.09283700  0.00742100  0.20181900  1
  C  C31  1  0.13680000  0.87199000  0.15907700  1
  C  C32  1  0.28880000  0.24687900  0.11009400  1
  C  C33  1  0.71411900  0.55752100  0.47147100  1
  C  C34  1  0.71120000  0.75312100  0.88990600  1
  C  C35  1  0.40716300  0.50742100  0.20181900  1
  C  C36  1  0.63680000  0.62801000  0.84092300  1
  C  C37  1  0.10445500  0.69393400  0.67233000  1
  C  C38  1  0.78588100  0.05752100  0.47147100  1
  C  C39  1  0.36320000  0.37199000  0.15907700  1
  N  N0  1  0.27244000  0.90832200  0.60818700  1
  N  N1  1  0.62773300  0.70990500  0.34319000  1
  N  N2  1  0.17466100  0.95272000  0.16578700  1
  N  N3  1  0.15148000  0.27427800  0.70370200  1
  N  N4  1  0.53941100  0.67781400  0.79390600  1
  N  N5  1  0.19997800  0.84189100  0.10338200  1
  N  N6  1  0.67466100  0.54728000  0.83421300  1
  N  N7  1  0.30002200  0.34189100  0.10338200  1
  N  N8  1  0.77244000  0.59167800  0.39181300  1
  N  N9  1  0.34852000  0.77427800  0.70370200  1
  N  N10  1  0.37226700  0.29009500  0.65681000  1
  N  N11  1  0.12773300  0.79009500  0.65681000  1
  N  N12  1  0.84852000  0.72572200  0.29629800  1
  N  N13  1  0.65148000  0.22572200  0.29629800  1
  N  N14  1  0.87226700  0.20990500  0.34319000  1
  N  N15  1  0.80002200  0.15810900  0.89661800  1
  N  N16  1  0.82533900  0.04728000  0.83421300  1
  N  N17  1  0.69997800  0.65810900  0.89661800  1
  N  N18  1  0.32533900  0.45272000  0.16578700  1
  N  N19  1  0.46058900  0.32218600  0.20609400  1
  N  N20  1  0.03941100  0.82218600  0.20609400  1
  N  N21  1  0.96058900  0.17781400  0.79390600  1
  N  N22  1  0.22756000  0.40832200  0.60818700  1
  N  N23  1  0.72756000  0.09167800  0.39181300  1
  Cl  Cl0  1  0.57217800  0.38944000  0.36693500  1
  Cl  Cl1  1  0.49383600  0.18343400  0.47301600  1
  Cl  Cl2  1  0.40424500  0.65257900  0.97221600  1
  Cl  Cl3  1  0.25874800  0.33083000  0.35484600  1
  Cl  Cl4  1  0.42782200  0.61056000  0.63306500  1
  Cl  Cl5  1  0.33861700  0.13715000  0.32160400  1
  Cl  Cl6  1  0.91958600  0.63917500  0.15577000  1
  Cl  Cl7  1  0.23511200  0.07048800  0.83691200  1
  Cl  Cl8  1  0.08041400  0.36082500  0.84423000  1
  Cl  Cl9  1  0.90424500  0.84742100  0.02778400  1
  Cl  Cl10  1  0.76488800  0.92951200  0.16308800  1
  Cl  Cl11  1  0.58041400  0.13917500  0.15577000  1
  Cl  Cl12  1  0.92782200  0.88944000  0.36693500  1
  Cl  Cl13  1  0.13092200  0.75996200  0.85441700  1
  Cl  Cl14  1  0.09575500  0.15257900  0.97221600  1
  Cl  Cl15  1  0.74125200  0.66917000  0.64515400  1
  Cl  Cl16  1  0.73511200  0.42951200  0.16308800  1
  Cl  Cl17  1  0.07217800  0.11056000  0.63306500  1
  Cl  Cl18  1  0.50616400  0.81656600  0.52698400  1
  Cl  Cl19  1  0.41958600  0.86082500  0.84423000  1
  Cl  Cl20  1  0.66138300  0.86285000  0.67839600  1
  Cl  Cl21  1  0.75874800  0.16917000  0.64515400  1
  Cl  Cl22  1  0.16138300  0.63715000  0.32160400  1
  Cl  Cl23  1  0.63092200  0.74003800  0.14558300  1
  Cl  Cl24  1  0.83861700  0.36285000  0.67839600  1
  Cl  Cl25  1  0.99383600  0.31656600  0.52698400  1
  Cl  Cl26  1  0.24125200  0.83083000  0.35484600  1
  Cl  Cl27  1  0.59575500  0.34742100  0.02778400  1
  Cl  Cl28  1  0.00616400  0.68343400  0.47301600  1
  Cl  Cl29  1  0.26488800  0.57048800  0.83691200  1
  Cl  Cl30  1  0.36907800  0.25996200  0.85441700  1
  Cl  Cl31  1  0.86907800  0.24003800  0.14558300  1
loop_
_geom_bond_atom_site_label_1
_geom_bond_atom_site_label_2
_geom_bond_distance
_geom_bond_site_symmetry_2
C0 H94 1.096573 1_555
C0 H34 1.098477 1_555
C0 H52 1.098943 1_555
C0 N18 1.462873 1_555
C1 H77 1.094513 1_555
C1 H12 1.099679 1_554
C1 H65 1.101855 1_555
C1 N5 1.460277 1_555
C2 N14 1.354422 1_555
C2 N23 1.358789 1_555
C2 N13 1.365150 1_555
C3 H19 1.092315 1_555
C3 H22 1.100900 1_555
C3 H60 1.102019 1_555
C3 N15 1.456546 1_555
C4 H3 1.096573 1_555
C4 H61 1.098477 1_565
C4 H71 1.098943 1_565
C4 N2 1.462873 1_555
C5 H1 1.093119 1_555
C5 H32 1.100762 1_555
C5 H66 1.101079 1_555
C5 N22 1.458859 1_555
C6 N16 1.354761 1_555
C6 N15 1.359293 1_555
C6 N21 1.368127 1_555
C7 H20 1.094513 1_555
C7 H87 1.099679 1_554
C7 H49 1.101855 1_555
C7 N7 1.460277 1_555
C8 H38 1.093119 1_555
C8 H86 1.100762 1_565
C8 H62 1.101079 1_555
C8 N0 1.458859 1_555
C9 H8 1.092315 1_555
C9 H69 1.100900 1_555
C9 H24 1.102019 1_555
C9 N5 1.456546 1_555
C10 H51 1.090385 1_555
C10 H81 1.100233 1_555
C10 H90 1.100632 1_555
C10 N8 1.457790 1_555
C11 H50 1.094694 1_555
C11 H26 1.096854 1_555
C11 H75 1.096862 1_555
C11 N10 1.462537 1_555
C12 N10 1.354422 1_555
C12 N22 1.358789 1_555
C12 N3 1.365150 1_555
C13 H36 1.093670 1_555
C13 H82 1.098420 1_555
C13 H45 1.098534 1_555
C13 N1 1.462690 1_555
C14 H63 1.090385 1_555
C14 H4 1.100233 1_555
C14 H56 1.100632 1_565
C14 N0 1.457790 1_555
C15 H0 1.094694 1_555
C15 H73 1.096854 1_555
C15 H23 1.096862 1_555
C15 N14 1.462537 1_555
C16 H76 1.093670 1_655
C16 H74 1.098420 1_555
C16 H5 1.098534 1_655
C16 N14 1.462690 1_555
C17 H39 1.090385 1_555
C17 H55 1.100233 1_555
C17 H28 1.100632 1_545
C17 N23 1.457790 1_555
C18 N1 1.354422 1_555
C18 N8 1.358789 1_555
C18 N12 1.365150 1_555
C19 H58 1.090385 1_555
C19 H9 1.100233 1_555
C19 H47 1.100632 1_555
C19 N22 1.457790 1_555
C20 H2 1.096573 1_555
C20 H7 1.098477 1_545
C20 H80 1.098943 1_545
C20 N16 1.462873 1_555
C21 H44 1.094513 1_555
C21 H64 1.099679 1_556
C21 H25 1.101855 1_555
C21 N15 1.460277 1_555
C22 H31 1.091200 1_665
C22 H83 1.098987 1_555
C22 H59 1.102716 1_555
C22 N16 1.459558 1_565
C23 H6 1.093670 1_455
C23 H88 1.098420 1_555
C23 H70 1.098534 1_455
C23 N11 1.462690 1_555
C24 H84 1.096573 1_555
C24 H11 1.098477 1_555
C24 H67 1.098943 1_555
C24 N6 1.462873 1_555
C25 N11 1.354422 1_555
C25 N0 1.358789 1_555
C25 N9 1.365150 1_555
C26 H95 1.094513 1_555
C26 H30 1.099679 1_556
C26 H89 1.101855 1_555
C26 N17 1.460277 1_555
C27 H53 1.091200 1_555
C27 H21 1.098987 1_555
C27 H42 1.102716 1_555
C27 N6 1.459558 1_555
C28 H37 1.094694 1_555
C28 H78 1.096854 1_555
C28 H29 1.096862 1_555
C28 N1 1.462537 1_555
C29 H18 1.093670 1_555
C29 H16 1.098420 1_555
C29 H72 1.098534 1_555
C29 N10 1.462690 1_555
C30 H15 1.091200 1_445
C30 H85 1.098987 1_555
C30 H93 1.102716 1_555
C30 N2 1.459558 1_545
C31 N2 1.354761 1_555
C31 N5 1.359293 1_555
C31 N20 1.368127 1_555
C32 H27 1.092315 1_555
C32 H33 1.100900 1_555
C32 H68 1.102019 1_555
C32 N7 1.456546 1_555
C33 H46 1.093119 1_555
C33 H43 1.100762 1_555
C33 H13 1.101079 1_555
C33 N8 1.458859 1_555
C34 H40 1.092315 1_555
C34 H14 1.100900 1_555
C34 H91 1.102019 1_555
C34 N17 1.456546 1_555
C35 H92 1.091200 1_555
C35 H48 1.098987 1_555
C35 H79 1.102716 1_555
C35 N18 1.459558 1_555
C36 N6 1.354761 1_555
C36 N17 1.359293 1_555
C36 N4 1.368127 1_555
C37 H41 1.094694 1_555
C37 H57 1.096854 1_555
C37 H10 1.096862 1_555
C37 N11 1.462537 1_555
C38 H17 1.093119 1_555
C38 H35 1.100762 1_545
C38 H54 1.101079 1_555
C38 N23 1.458859 1_555
C39 N18 1.354761 1_555
C39 N7 1.359293 1_555
C39 N19 1.368127 1_555
N3 Sb7 2.122925 1_455
N3 Sb1 2.136496 1_555
N4 Sb0 2.125574 1_555
N4 Sb4 2.129276 1_555
N9 Sb0 2.122925 1_555
N9 Sb4 2.136496 1_555
N12 Sb2 2.122925 1_655
N12 Sb6 2.136496 1_555
N13 Sb5 2.122925 1_555
N13 Sb3 2.136496 1_555
N19 Sb5 2.125574 1_555
N19 Sb3 2.129276 1_555
N20 Sb2 2.125574 1_555
N20 Sb6 2.129276 1_455
N21 Sb7 2.125574 1_555
N21 Sb1 2.129276 1_655
Cl0 Sb5 2.437960 1_555
Cl1 Sb5 2.418671 1_555
Cl2 Sb4 2.424948 1_555
Cl3 Sb5 2.424865 1_555
Cl4 Sb0 2.437960 1_555
Cl5 Sb5 2.438302 1_555
Cl6 Sb6 2.424393 1_555
Cl7 Sb1 2.423998 1_555
Cl8 Sb1 2.424393 1_555
Cl9 Sb6 2.424948 1_555
Cl10 Sb6 2.423998 1_555
Cl11 Sb3 2.424393 1_555
Cl12 Sb2 2.437960 1_655
Cl13 Sb4 2.429497 1_555
Cl14 Sb1 2.424948 1_555
Cl15 Sb0 2.424865 1_555
Cl16 Sb3 2.423998 1_555
Cl17 Sb7 2.437960 1_455
Cl18 Sb0 2.418671 1_555
Cl19 Sb4 2.424393 1_555
Cl20 Sb0 2.438302 1_555
Cl21 Sb7 2.424865 1_555
Cl22 Sb2 2.438302 1_555
Cl23 Sb6 2.429497 1_555
Cl24 Sb7 2.438302 1_555
Cl25 Sb7 2.418671 1_555
Cl26 Sb2 2.424865 1_555
Cl27 Sb3 2.424948 1_555
Cl28 Sb2 2.418671 1_555
Cl29 Sb4 2.423998 1_555
Cl30 Sb1 2.429497 1_555
Cl31 Sb3 2.429497 1_555
