# generated using pymatgen
data_Sr4Al6MoO16
_symmetry_space_group_name_H-M   'P 1'
_cell_length_a   16.51842002
_cell_length_b   16.51842002
_cell_length_c   16.51842002
_cell_angle_alpha   109.76869778
_cell_angle_beta   109.32268715
_cell_angle_gamma   109.32268715
_symmetry_Int_Tables_number   1
_chemical_formula_structural   Sr4Al6MoO16
_chemical_formula_sum   'Sr32 Al48 Mo8 O128'
_cell_volume   3469.56348283
_cell_formula_units_Z   8
loop_
 _symmetry_equiv_pos_site_id
 _symmetry_equiv_pos_as_xyz
  1  'x, y, z'
loop_
 _atom_site_type_symbol
 _atom_site_label
 _atom_site_symmetry_multiplicity
 _atom_site_fract_x
 _atom_site_fract_y
 _atom_site_fract_z
 _atom_site_occupancy
  Sr  Sr0  1  0.50594218  0.75297109  0.50297109  1
  Sr  Sr1  1  0.75000000  0.49702891  0.00297109  1
  Sr  Sr2  1  0.00594218  0.00297109  0.25297109  1
  Sr  Sr3  1  0.25000000  0.74702891  0.75297109  1
  Sr  Sr4  1  0.49405782  0.24702891  0.49702891  1
  Sr  Sr5  1  0.25000000  0.50297109  0.99702891  1
  Sr  Sr6  1  0.99405782  0.99702891  0.74702891  1
  Sr  Sr7  1  0.75000000  0.25297109  0.24702891  1
  Sr  Sr8  1  0.00894840  0.50447420  0.25447420  1
  Sr  Sr9  1  0.75000000  0.74552580  0.75447420  1
  Sr  Sr10  1  0.50894840  0.75447420  0.00447420  1
  Sr  Sr11  1  0.25000000  0.99552580  0.50447420  1
  Sr  Sr12  1  0.99105160  0.49552580  0.74552580  1
  Sr  Sr13  1  0.25000000  0.25447420  0.24552580  1
  Sr  Sr14  1  0.49105160  0.24552580  0.99552580  1
  Sr  Sr15  1  0.75000000  0.00447420  0.49552580  1
  Sr  Sr16  1  0.24334843  0.73907122  0.24107313  1
  Sr  Sr17  1  0.50200191  0.49772469  0.74107313  1
  Sr  Sr18  1  0.74334843  0.74107313  0.23907122  1
  Sr  Sr19  1  0.49799809  0.99572278  0.73907122  1
  Sr  Sr20  1  0.75665157  0.26092878  0.75892687  1
  Sr  Sr21  1  0.49799809  0.50227531  0.25892687  1
  Sr  Sr22  1  0.25665157  0.25892687  0.76092878  1
  Sr  Sr23  1  0.50200191  0.00427722  0.26092878  1
  Sr  Sr24  1  0.99799809  0.23907122  0.49572278  1
  Sr  Sr25  1  0.25665157  0.99772469  0.99572278  1
  Sr  Sr26  1  0.00200191  0.24107313  0.99772469  1
  Sr  Sr27  1  0.75665157  0.49572278  0.49772469  1
  Sr  Sr28  1  0.00200191  0.76092878  0.50427722  1
  Sr  Sr29  1  0.74334843  0.00227531  0.00427722  1
  Sr  Sr30  1  0.99799809  0.75892687  0.00227531  1
  Sr  Sr31  1  0.24334843  0.50427722  0.50227531  1
  Al  Al0  1  0.87777758  0.50659482  0.87870872  1
  Al  Al1  1  0.37211391  0.50093114  0.37870872  1
  Al  Al2  1  0.37777758  0.37870872  0.00659482  1
  Al  Al3  1  0.62788609  0.12881723  0.50659482  1
  Al  Al4  1  0.12222242  0.49340518  0.12129128  1
  Al  Al5  1  0.62788609  0.49906886  0.62129128  1
  Al  Al6  1  0.62222242  0.62129128  0.99340518  1
  Al  Al7  1  0.37211391  0.87118277  0.49340518  1
  Al  Al8  1  0.12788609  0.00659482  0.62881723  1
  Al  Al9  1  0.62222242  0.00093114  0.12881723  1
  Al  Al10  1  0.87211391  0.87870872  0.00093114  1
  Al  Al11  1  0.12222242  0.62881723  0.50093114  1
  Al  Al12  1  0.87211391  0.99340518  0.37118277  1
  Al  Al13  1  0.37777758  0.99906886  0.87118277  1
  Al  Al14  1  0.12788609  0.12129128  0.99906886  1
  Al  Al15  1  0.87777758  0.37118277  0.49906886  1
  Al  Al16  1  0.87914233  0.37547348  0.00299011  1
  Al  Al17  1  0.62751663  0.62384778  0.50299011  1
  Al  Al18  1  0.37914233  0.50299011  0.87547348  1
  Al  Al19  1  0.37248337  0.99633115  0.37547348  1
  Al  Al20  1  0.12085767  0.62452652  0.99700989  1
  Al  Al21  1  0.37248337  0.37615222  0.49700989  1
  Al  Al22  1  0.62085767  0.49700989  0.12452652  1
  Al  Al23  1  0.62751663  0.00366885  0.62452652  1
  Al  Al24  1  0.87248337  0.87547348  0.49633115  1
  Al  Al25  1  0.62085767  0.12384778  0.99633115  1
  Al  Al26  1  0.12751663  0.00299011  0.12384778  1
  Al  Al27  1  0.12085767  0.49633115  0.62384778  1
  Al  Al28  1  0.12751663  0.12452652  0.50366885  1
  Al  Al29  1  0.37914233  0.87615222  0.00366885  1
  Al  Al30  1  0.87248337  0.99700989  0.87615222  1
  Al  Al31  1  0.87914233  0.50366885  0.37615222  1
  Al  Al32  1  0.25754220  0.62877110  0.37877110  1
  Al  Al33  1  0.75000000  0.62122890  0.87877110  1
  Al  Al34  1  0.75754220  0.87877110  0.12877110  1
  Al  Al35  1  0.25000000  0.87122890  0.62877110  1
  Al  Al36  1  0.74245780  0.37122890  0.62122890  1
  Al  Al37  1  0.25000000  0.37877110  0.12122890  1
  Al  Al38  1  0.24245780  0.12122890  0.87122890  1
  Al  Al39  1  0.75000000  0.12877110  0.37122890  1
  Al  Al40  1  0.75000000  0.87500000  0.62500000  1
  Al  Al41  1  0.75000000  0.37500000  0.12500000  1
  Al  Al42  1  0.25000000  0.12500000  0.37500000  1
  Al  Al43  1  0.25000000  0.62500000  0.87500000  1
  Al  Al44  1  0.75000000  0.12500000  0.87500000  1
  Al  Al45  1  0.75000000  0.62500000  0.37500000  1
  Al  Al46  1  0.25000000  0.37500000  0.62500000  1
  Al  Al47  1  0.25000000  0.87500000  0.12500000  1
  Mo  Mo0  1  0.50095769  0.75095769  0.25000000  1
  Mo  Mo1  1  0.49904231  0.24904231  0.75000000  1
  Mo  Mo2  1  0.00095769  0.75000000  0.25095769  1
  Mo  Mo3  1  0.50095769  0.75000000  0.75095769  1
  Mo  Mo4  1  0.99904231  0.25000000  0.74904231  1
  Mo  Mo5  1  0.49904231  0.25000000  0.24904231  1
  Mo  Mo6  1  0.00095769  0.25095769  0.25000000  1
  Mo  Mo7  1  0.99904231  0.74904231  0.75000000  1
  O  O0  1  0.99925265  0.58711709  0.91293448  1
  O  O1  1  0.32581740  0.41368183  0.41293448  1
  O  O2  1  0.49925265  0.41293448  0.08711709  1
  O  O3  1  0.67418260  0.08786443  0.58711709  1
  O  O4  1  0.00074735  0.41288291  0.08706552  1
  O  O5  1  0.67418260  0.58631817  0.58706552  1
  O  O6  1  0.50074735  0.58706552  0.91288291  1
  O  O7  1  0.32581740  0.91213557  0.41288291  1
  O  O8  1  0.17418260  0.08711709  0.58786443  1
  O  O9  1  0.50074735  0.91368183  0.08786443  1
  O  O10  1  0.82581740  0.91293448  0.91368183  1
  O  O11  1  0.00074735  0.58786443  0.41368183  1
  O  O12  1  0.82581740  0.91288291  0.41213557  1
  O  O13  1  0.49925265  0.08631817  0.91213557  1
  O  O14  1  0.17418260  0.08706552  0.08631817  1
  O  O15  1  0.99925265  0.41213557  0.58631817  1
  O  O16  1  0.85697078  0.42753320  0.92723818  1
  O  O17  1  0.49970498  0.57026740  0.42723818  1
  O  O18  1  0.35697078  0.42723818  0.92753320  1
  O  O19  1  0.50029502  0.07056241  0.42753320  1
  O  O20  1  0.14302922  0.57246680  0.07276182  1
  O  O21  1  0.50029502  0.42973260  0.57276182  1
  O  O22  1  0.64302922  0.57276182  0.07246680  1
  O  O23  1  0.49970498  0.92943759  0.57246680  1
  O  O24  1  0.00029502  0.92753320  0.57056241  1
  O  O25  1  0.64302922  0.07026740  0.07056241  1
  O  O26  1  0.99970498  0.92723818  0.07026740  1
  O  O27  1  0.14302922  0.57056241  0.57026740  1
  O  O28  1  0.99970498  0.07246680  0.42943759  1
  O  O29  1  0.35697078  0.92973260  0.92943759  1
  O  O30  1  0.00029502  0.07276182  0.92973260  1
  O  O31  1  0.85697078  0.42943759  0.42973260  1
  O  O32  1  0.83716247  0.58736042  0.92694861  1
  O  O33  1  0.33958819  0.58978614  0.42694861  1
  O  O34  1  0.33716247  0.42694861  0.08736042  1
  O  O35  1  0.66041181  0.25019795  0.58736042  1
  O  O36  1  0.16283753  0.41263958  0.07305139  1
  O  O37  1  0.66041181  0.41021386  0.57305139  1
  O  O38  1  0.66283753  0.57305139  0.91263958  1
  O  O39  1  0.33958819  0.74980205  0.41263958  1
  O  O40  1  0.16041181  0.08736042  0.75019795  1
  O  O41  1  0.66283753  0.08978614  0.25019795  1
  O  O42  1  0.83958819  0.92694861  0.08978614  1
  O  O43  1  0.16283753  0.75019795  0.58978614  1
  O  O44  1  0.83958819  0.91263958  0.24980205  1
  O  O45  1  0.33716247  0.91021386  0.74980205  1
  O  O46  1  0.16041181  0.07305139  0.91021386  1
  O  O47  1  0.83716247  0.24980205  0.41021386  1
  O  O48  1  0.83087490  0.41058638  0.08047889  1
  O  O49  1  0.66989251  0.74960399  0.58047889  1
  O  O50  1  0.33087490  0.58047889  0.91058638  1
  O  O51  1  0.33010749  0.07971148  0.41058638  1
  O  O52  1  0.16912510  0.58941362  0.91952111  1
  O  O53  1  0.33010749  0.25039601  0.41952111  1
  O  O54  1  0.66912510  0.41952111  0.08941362  1
  O  O55  1  0.66989251  0.92028852  0.58941362  1
  O  O56  1  0.83010749  0.91058638  0.57971148  1
  O  O57  1  0.66912510  0.24960399  0.07971148  1
  O  O58  1  0.16989251  0.08047889  0.24960399  1
  O  O59  1  0.16912510  0.57971148  0.74960399  1
  O  O60  1  0.16989251  0.08941362  0.42028852  1
  O  O61  1  0.33087490  0.75039601  0.92028852  1
  O  O62  1  0.83010749  0.91952111  0.75039601  1
  O  O63  1  0.83087490  0.42028852  0.25039601  1
  O  O64  1  0.16977487  0.74998959  0.08122534  1
  O  O65  1  0.33123575  0.41145048  0.58122534  1
  O  O66  1  0.66977487  0.58122534  0.24998959  1
  O  O67  1  0.66876425  0.08021472  0.74998959  1
  O  O68  1  0.83022513  0.25001041  0.91877466  1
  O  O69  1  0.66876425  0.58854952  0.41877466  1
  O  O70  1  0.33022513  0.41877466  0.75001041  1
  O  O71  1  0.33123575  0.91978528  0.25001041  1
  O  O72  1  0.16876425  0.24998959  0.58021472  1
  O  O73  1  0.33022513  0.91145048  0.08021472  1
  O  O74  1  0.83123575  0.08122534  0.91145048  1
  O  O75  1  0.83022513  0.58021472  0.41145048  1
  O  O76  1  0.83123575  0.75001041  0.41978528  1
  O  O77  1  0.66977487  0.08854952  0.91978528  1
  O  O78  1  0.16876425  0.91877466  0.08854952  1
  O  O79  1  0.16977487  0.41978528  0.58854952  1
  O  O80  1  0.17991217  0.57026372  0.25028029  1
  O  O81  1  0.68001657  0.57036812  0.75028029  1
  O  O82  1  0.67991217  0.75028029  0.07026372  1
  O  O83  1  0.31998343  0.89035155  0.57026372  1
  O  O84  1  0.82008783  0.42973628  0.74971971  1
  O  O85  1  0.31998343  0.42963188  0.24971971  1
  O  O86  1  0.32008783  0.24971971  0.92973628  1
  O  O87  1  0.68001657  0.10964845  0.42973628  1
  O  O88  1  0.81998343  0.07026372  0.39035155  1
  O  O89  1  0.32008783  0.07036812  0.89035155  1
  O  O90  1  0.18001657  0.25028029  0.07036812  1
  O  O91  1  0.82008783  0.39035155  0.57036812  1
  O  O92  1  0.18001657  0.92973628  0.60964845  1
  O  O93  1  0.67991217  0.92963188  0.10964845  1
  O  O94  1  0.81998343  0.74971971  0.92963188  1
  O  O95  1  0.17991217  0.60964845  0.42963188  1
  O  O96  1  0.55509121  0.88305297  0.32592725  1
  O  O97  1  0.44287428  0.27083604  0.82592725  1
  O  O98  1  0.05509121  0.82592725  0.38305297  1
  O  O99  1  0.55712572  0.82796176  0.88305297  1
  O  O100  1  0.44490879  0.11694703  0.67407275  1
  O  O101  1  0.55712572  0.72916396  0.17407275  1
  O  O102  1  0.94490879  0.17407275  0.61694703  1
  O  O103  1  0.44287428  0.17203824  0.11694703  1
  O  O104  1  0.05712572  0.38305297  0.32796176  1
  O  O105  1  0.94490879  0.77083604  0.82796176  1
  O  O106  1  0.94287428  0.32592725  0.77083604  1
  O  O107  1  0.44490879  0.32796176  0.27083604  1
  O  O108  1  0.94287428  0.61694703  0.67203824  1
  O  O109  1  0.05509121  0.22916396  0.17203824  1
  O  O110  1  0.05712572  0.67407275  0.22916396  1
  O  O111  1  0.55509121  0.67203824  0.72916396  1
  O  O112  1  0.36906345  0.69383787  0.17141624  1
  O  O113  1  0.47757838  0.30235279  0.67141624  1
  O  O114  1  0.86906345  0.67141624  0.19383787  1
  O  O115  1  0.52242162  0.82477441  0.69383787  1
  O  O116  1  0.63093655  0.30616213  0.82858376  1
  O  O117  1  0.52242162  0.69764721  0.32858376  1
  O  O118  1  0.13093655  0.32858376  0.80616213  1
  O  O119  1  0.47757838  0.17522559  0.30616213  1
  O  O120  1  0.02242162  0.19383787  0.32477441  1
  O  O121  1  0.13093655  0.80235279  0.82477441  1
  O  O122  1  0.97757838  0.17141624  0.80235279  1
  O  O123  1  0.63093655  0.32477441  0.30235279  1
  O  O124  1  0.97757838  0.80616213  0.67522559  1
  O  O125  1  0.86906345  0.19764721  0.17522559  1
  O  O126  1  0.02242162  0.82858376  0.19764721  1
  O  O127  1  0.36906345  0.67522559  0.69764721  1
loop_
_geom_bond_atom_site_label_1
_geom_bond_atom_site_label_2
_geom_bond_distance
_geom_bond_site_symmetry_2
Al0 O16 1.749219 1_555
Al0 O84 1.756591 1_555
Al0 O0 1.757693 1_555
Al0 O32 1.758390 1_555
Al1 O17 1.749219 1_555
Al1 O85 1.756591 1_555
Al1 O1 1.757693 1_555
Al1 O33 1.758390 1_555
Al2 O18 1.749219 1_554
Al2 O86 1.756591 1_554
Al2 O2 1.757693 1_555
Al2 O34 1.758390 1_555
Al3 O19 1.749219 1_555
Al3 O87 1.756591 1_555
Al3 O3 1.757693 1_555
Al3 O35 1.758390 1_555
Al4 O20 1.749219 1_555
Al4 O80 1.756591 1_555
Al4 O4 1.757693 1_555
Al4 O36 1.758390 1_555
Al5 O21 1.749219 1_555
Al5 O81 1.756591 1_555
Al5 O5 1.757693 1_555
Al5 O37 1.758390 1_555
Al6 O22 1.749219 1_556
Al6 O82 1.756591 1_556
Al6 O6 1.757693 1_555
Al6 O38 1.758390 1_555
Al7 O23 1.749219 1_555
Al7 O83 1.756591 1_555
Al7 O7 1.757693 1_555
Al7 O39 1.758390 1_555
Al8 O24 1.749219 1_545
Al8 O92 1.756591 1_545
Al8 O8 1.757693 1_555
Al8 O40 1.758390 1_555
Al9 O25 1.749219 1_555
Al9 O93 1.756591 1_545
Al9 O9 1.757693 1_545
Al9 O41 1.758390 1_555
Al10 O26 1.749219 1_555
Al10 O94 1.756591 1_554
Al10 O10 1.757693 1_554
Al10 O42 1.758390 1_555
Al11 O27 1.749219 1_555
Al11 O95 1.756591 1_555
Al11 O11 1.757693 1_555
Al11 O43 1.758390 1_555
Al12 O28 1.749219 1_565
Al12 O88 1.756591 1_565
Al12 O12 1.757693 1_555
Al12 O44 1.758390 1_555
Al13 O29 1.749219 1_555
Al13 O89 1.756591 1_565
Al13 O13 1.757693 1_565
Al13 O45 1.758390 1_555
Al14 O30 1.749219 1_555
Al14 O90 1.756591 1_556
Al14 O14 1.757693 1_556
Al14 O46 1.758390 1_555
Al15 O31 1.749219 1_555
Al15 O91 1.756591 1_555
Al15 O15 1.757693 1_555
Al15 O47 1.758390 1_555
Al16 O16 1.752835 1_554
Al16 O68 1.755237 1_554
Al16 O48 1.757750 1_555
Al16 O4 1.759954 1_655
Al17 O17 1.752835 1_555
Al17 O69 1.755237 1_555
Al17 O49 1.757750 1_555
Al17 O5 1.759954 1_555
Al18 O18 1.752835 1_555
Al18 O70 1.755237 1_555
Al18 O50 1.757750 1_555
Al18 O6 1.759954 1_555
Al19 O19 1.752835 1_565
Al19 O71 1.755237 1_555
Al19 O51 1.757750 1_565
Al19 O7 1.759954 1_555
Al20 O20 1.752835 1_556
Al20 O64 1.755237 1_556
Al20 O52 1.757750 1_555
Al20 O0 1.759954 1_455
Al21 O21 1.752835 1_555
Al21 O65 1.755237 1_555
Al21 O53 1.757750 1_555
Al21 O1 1.759954 1_555
Al22 O22 1.752835 1_555
Al22 O66 1.755237 1_555
Al22 O54 1.757750 1_555
Al22 O2 1.759954 1_555
Al23 O23 1.752835 1_545
Al23 O67 1.755237 1_555
Al23 O55 1.757750 1_545
Al23 O3 1.759954 1_555
Al24 O24 1.752835 1_655
Al24 O76 1.755237 1_555
Al24 O56 1.757750 1_555
Al24 O12 1.759954 1_555
Al25 O25 1.752835 1_556
Al25 O77 1.755237 1_555
Al25 O57 1.757750 1_556
Al25 O13 1.759954 1_555
Al26 O26 1.752835 1_445
Al26 O78 1.755237 1_545
Al26 O58 1.757750 1_555
Al26 O14 1.759954 1_555
Al27 O27 1.752835 1_555
Al27 O79 1.755237 1_555
Al27 O59 1.757750 1_555
Al27 O15 1.759954 1_455
Al28 O28 1.752835 1_455
Al28 O72 1.755237 1_555
Al28 O60 1.757750 1_555
Al28 O8 1.759954 1_555
Al29 O29 1.752835 1_554
Al29 O73 1.755237 1_555
Al29 O61 1.757750 1_554
Al29 O9 1.759954 1_555
Al30 O30 1.752835 1_665
Al30 O74 1.755237 1_565
Al30 O62 1.757750 1_555
Al30 O10 1.759954 1_555
Al31 O31 1.752835 1_555
Al31 O75 1.755237 1_555
Al31 O63 1.757750 1_555
Al31 O11 1.759954 1_655
Al32 O80 1.753392 1_555
Al32 O95 1.753392 1_555
Al32 O33 1.759334 1_555
Al32 O39 1.759334 1_555
Al33 O81 1.753392 1_555
Al33 O94 1.753392 1_555
Al33 O32 1.759334 1_555
Al33 O38 1.759334 1_555
Al34 O82 1.753392 1_555
Al34 O93 1.753392 1_555
Al34 O44 1.759334 1_555
Al34 O42 1.759334 1_555
Al35 O83 1.753392 1_555
Al35 O92 1.753392 1_555
Al35 O43 1.759334 1_555
Al35 O45 1.759334 1_555
Al36 O91 1.753392 1_555
Al36 O84 1.753392 1_555
Al36 O37 1.759334 1_555
Al36 O35 1.759334 1_555
Al37 O90 1.753392 1_555
Al37 O85 1.753392 1_555
Al37 O34 1.759334 1_555
Al37 O36 1.759334 1_555
Al38 O86 1.753392 1_555
Al38 O89 1.753392 1_555
Al38 O40 1.759334 1_555
Al38 O46 1.759334 1_555
Al39 O87 1.753392 1_555
Al39 O88 1.753392 1_555
Al39 O41 1.759334 1_555
Al39 O47 1.759334 1_555
Al40 O49 1.758975 1_555
Al40 O62 1.758975 1_555
Al40 O56 1.758975 1_555
Al40 O55 1.758975 1_555
Al41 O63 1.758975 1_555
Al41 O48 1.758975 1_555
Al41 O57 1.758975 1_555
Al41 O54 1.758975 1_555
Al42 O53 1.758975 1_555
Al42 O58 1.758975 1_555
Al42 O60 1.758975 1_555
Al42 O51 1.758975 1_555
Al43 O50 1.758975 1_555
Al43 O61 1.758975 1_555
Al43 O59 1.758975 1_555
Al43 O52 1.758975 1_555
Al44 O67 1.757268 1_555
Al44 O68 1.757268 1_555
Al44 O74 1.757268 1_555
Al44 O77 1.757268 1_555
Al45 O66 1.757268 1_555
Al45 O76 1.757268 1_555
Al45 O69 1.757268 1_555
Al45 O75 1.757268 1_555
Al46 O72 1.757268 1_555
Al46 O70 1.757268 1_555
Al46 O65 1.757268 1_555
Al46 O79 1.757268 1_555
Al47 O71 1.757268 1_555
Al47 O64 1.757268 1_555
Al47 O78 1.757268 1_555
Al47 O73 1.757268 1_555
Mo0 O101 1.802535 1_555
Mo0 O96 1.802535 1_555
Mo0 O117 1.805955 1_555
Mo0 O112 1.805955 1_555
Mo1 O97 1.802535 1_555
Mo1 O100 1.802535 1_555
Mo1 O113 1.805955 1_555
Mo1 O116 1.805955 1_555
Mo2 O98 1.802535 1_555
Mo2 O110 1.802535 1_555
Mo2 O126 1.805955 1_555
Mo2 O114 1.805955 1_455
Mo3 O99 1.802535 1_555
Mo3 O111 1.802535 1_555
Mo3 O115 1.805955 1_555
Mo3 O127 1.805955 1_555
Mo4 O102 1.802535 1_555
Mo4 O106 1.802535 1_555
Mo4 O122 1.805955 1_555
Mo4 O118 1.805955 1_655
Mo5 O107 1.802535 1_555
Mo5 O103 1.802535 1_555
Mo5 O119 1.805955 1_555
Mo5 O123 1.805955 1_555
Mo6 O104 1.802535 1_555
Mo6 O109 1.802535 1_555
Mo6 O120 1.805955 1_555
Mo6 O125 1.805955 1_455
Mo7 O108 1.802535 1_555
Mo7 O105 1.802535 1_555
Mo7 O124 1.805955 1_555
Mo7 O121 1.805955 1_655
O0 Sr12 2.596291 1_555
O0 Sr30 2.731068 1_556
O1 Sr13 2.596291 1_555
O1 Sr31 2.731068 1_555
O2 Sr14 2.596291 1_554
O2 Sr21 2.731068 1_555
O3 Sr15 2.596291 1_555
O3 Sr20 2.731068 1_555
O4 Sr8 2.596291 1_555
O4 Sr26 2.731068 1_554
O5 Sr9 2.596291 1_555
O5 Sr27 2.731068 1_555
O6 Sr10 2.596291 1_556
O6 Sr17 2.731068 1_555
O7 Sr11 2.596291 1_555
O7 Sr16 2.731068 1_555
O8 Sr11 2.596291 1_545
O8 Sr22 2.731068 1_555
O9 Sr10 2.596291 1_555
O9 Sr23 2.731068 1_565
O10 Sr9 2.596291 1_555
O10 Sr29 2.731068 1_566
O11 Sr8 2.596291 1_555
O11 Sr28 2.731068 1_555
O12 Sr15 2.596291 1_565
O12 Sr18 2.731068 1_555
O13 Sr14 2.596291 1_555
O13 Sr19 2.731068 1_545
O14 Sr13 2.596291 1_555
O14 Sr25 2.731068 1_544
O15 Sr12 2.596291 1_555
O15 Sr24 2.731068 1_555
O16 Sr20 2.608993 1_555
O16 Sr1 2.799787 1_556
O17 Sr21 2.608993 1_555
O17 Sr0 2.799787 1_555
O18 Sr22 2.608993 1_555
O18 Sr5 2.799787 1_555
O19 Sr23 2.608993 1_555
O19 Sr4 2.799787 1_555
O20 Sr16 2.608993 1_555
O20 Sr5 2.799787 1_554
O21 Sr17 2.608993 1_555
O21 Sr4 2.799787 1_555
O22 Sr18 2.608993 1_555
O22 Sr1 2.799787 1_555
O23 Sr19 2.608993 1_555
O23 Sr0 2.799787 1_555
O24 Sr28 2.608993 1_555
O24 Sr6 2.799787 1_455
O25 Sr29 2.608993 1_555
O25 Sr7 2.799787 1_555
O26 Sr30 2.608993 1_555
O26 Sr2 2.799787 1_665
O27 Sr31 2.608993 1_555
O27 Sr3 2.799787 1_555
O28 Sr24 2.608993 1_555
O28 Sr2 2.799787 1_655
O29 Sr25 2.608993 1_555
O29 Sr3 2.799787 1_555
O30 Sr26 2.608993 1_555
O30 Sr6 2.799787 1_445
O31 Sr27 2.608993 1_555
O31 Sr7 2.799787 1_555
O32 Sr1 2.630345 1_556
O32 Sr30 2.661289 1_556
O33 Sr0 2.630345 1_555
O33 Sr31 2.661289 1_555
O34 Sr5 2.630345 1_554
O34 Sr21 2.661289 1_555
O35 Sr4 2.630345 1_555
O35 Sr20 2.661289 1_555
O36 Sr5 2.630345 1_554
O36 Sr26 2.661289 1_554
O37 Sr4 2.630345 1_555
O37 Sr27 2.661289 1_555
O38 Sr1 2.630345 1_556
O38 Sr17 2.661289 1_555
O39 Sr0 2.630345 1_555
O39 Sr16 2.661289 1_555
O40 Sr6 2.630345 1_445
O40 Sr22 2.661289 1_555
O41 Sr7 2.630345 1_555
O41 Sr23 2.661289 1_555
O42 Sr2 2.630345 1_665
O42 Sr29 2.661289 1_565
O43 Sr3 2.630345 1_555
O43 Sr28 2.661289 1_555
O44 Sr2 2.630345 1_665
O44 Sr18 2.661289 1_555
O45 Sr3 2.630345 1_555
O45 Sr19 2.661289 1_555
O46 Sr6 2.630345 1_445
O46 Sr25 2.661289 1_545
O47 Sr7 2.630345 1_555
O47 Sr24 2.661289 1_555
O48 Sr1 2.613405 1_555
O48 Sr8 2.772948 1_655
O49 Sr0 2.613405 1_555
O49 Sr9 2.772948 1_555
O50 Sr5 2.613405 1_555
O50 Sr10 2.772948 1_556
O51 Sr4 2.613405 1_555
O51 Sr11 2.772948 1_545
O52 Sr5 2.613405 1_555
O52 Sr12 2.772948 1_455
O53 Sr4 2.613405 1_555
O53 Sr13 2.772948 1_555
O54 Sr1 2.613405 1_555
O54 Sr14 2.772948 1_554
O55 Sr0 2.613405 1_555
O55 Sr15 2.772948 1_565
O56 Sr6 2.613405 1_555
O56 Sr15 2.772948 1_565
O57 Sr7 2.613405 1_555
O57 Sr14 2.772948 1_554
O58 Sr2 2.613405 1_555
O58 Sr13 2.772948 1_555
O59 Sr3 2.613405 1_555
O59 Sr12 2.772948 1_455
O60 Sr2 2.613405 1_555
O60 Sr11 2.772948 1_545
O61 Sr3 2.613405 1_555
O61 Sr10 2.772948 1_556
O62 Sr6 2.613405 1_555
O62 Sr9 2.772948 1_555
O63 Sr7 2.613405 1_555
O63 Sr8 2.772948 1_655
O64 Sr16 2.612467 1_555
O64 Sr30 2.780725 1_455
O65 Sr17 2.612467 1_555
O65 Sr31 2.780725 1_555
O66 Sr18 2.612467 1_555
O66 Sr21 2.780725 1_555
O67 Sr19 2.612467 1_545
O67 Sr20 2.780725 1_555
O68 Sr20 2.612467 1_555
O68 Sr26 2.780725 1_655
O69 Sr21 2.612467 1_555
O69 Sr27 2.780725 1_555
O70 Sr22 2.612467 1_555
O70 Sr17 2.780725 1_555
O71 Sr23 2.612467 1_565
O71 Sr16 2.780725 1_555
O72 Sr24 2.612467 1_455
O72 Sr22 2.780725 1_555
O73 Sr25 2.612466 1_554
O73 Sr23 2.780725 1_565
O74 Sr26 2.612467 1_655
O74 Sr29 2.780725 1_556
O75 Sr27 2.612466 1_555
O75 Sr28 2.780725 1_655
O76 Sr28 2.612467 1_655
O76 Sr18 2.780725 1_555
O77 Sr29 2.612466 1_556
O77 Sr19 2.780725 1_545
O78 Sr30 2.612467 1_455
O78 Sr25 2.780725 1_554
O79 Sr31 2.612466 1_555
O79 Sr24 2.780725 1_455
O80 Sr8 2.703788 1_555
O80 Sr16 2.712048 1_555
O81 Sr9 2.703788 1_555
O81 Sr17 2.712048 1_555
O82 Sr10 2.703788 1_555
O82 Sr18 2.712048 1_555
O83 Sr11 2.703788 1_555
O83 Sr19 2.712048 1_555
O84 Sr12 2.703788 1_555
O84 Sr20 2.712048 1_555
O85 Sr13 2.703788 1_555
O85 Sr21 2.712048 1_555
O86 Sr14 2.703788 1_555
O86 Sr22 2.712048 1_555
O87 Sr15 2.703788 1_555
O87 Sr23 2.712048 1_555
O88 Sr15 2.703788 1_555
O88 Sr24 2.712048 1_555
O89 Sr14 2.703788 1_555
O89 Sr25 2.712048 1_545
O90 Sr13 2.703788 1_555
O90 Sr26 2.712048 1_554
O91 Sr12 2.703788 1_555
O91 Sr27 2.712048 1_555
O92 Sr11 2.703788 1_555
O92 Sr28 2.712048 1_555
O93 Sr10 2.703788 1_555
O93 Sr29 2.712048 1_565
O94 Sr9 2.703788 1_555
O94 Sr30 2.712048 1_556
O95 Sr8 2.703788 1_555
O95 Sr31 2.712048 1_555
O96 Sr23 2.815118 1_565
O96 Sr15 2.862445 1_565
O97 Sr22 2.815118 1_555
O97 Sr14 2.862445 1_555
O98 Sr28 2.815118 1_555
O98 Sr11 2.862445 1_555
O99 Sr29 2.815118 1_566
O99 Sr10 2.862445 1_556
O100 Sr19 2.815118 1_545
O100 Sr11 2.862445 1_545
O101 Sr18 2.815118 1_555
O101 Sr10 2.862445 1_555
O102 Sr24 2.815118 1_555
O102 Sr15 2.862445 1_555
O103 Sr25 2.815118 1_544
O103 Sr14 2.862445 1_554
O104 Sr31 2.815118 1_555
O104 Sr8 2.862445 1_555
O105 Sr30 2.815118 1_556
O105 Sr9 2.862445 1_555
O106 Sr20 2.815118 1_555
O106 Sr12 2.862445 1_555
O107 Sr21 2.815118 1_555
O107 Sr13 2.862445 1_555
O108 Sr27 2.815118 1_555
O108 Sr12 2.862445 1_555
O109 Sr26 2.815118 1_554
O109 Sr13 2.862445 1_555
O110 Sr16 2.815118 1_555
O110 Sr8 2.862445 1_555
O111 Sr17 2.815118 1_555
O111 Sr9 2.862445 1_555
O112 Sr5 2.847796 1_554
O112 Sr16 2.867236 1_555
O113 Sr4 2.847796 1_555
O113 Sr17 2.867236 1_555
O114 Sr1 2.847796 1_555
O114 Sr18 2.867236 1_555
O115 Sr0 2.847796 1_555
O115 Sr19 2.867236 1_555
O116 Sr1 2.847796 1_556
O116 Sr20 2.867236 1_555
O117 Sr0 2.847796 1_555
O117 Sr21 2.867236 1_555
O118 Sr5 2.847796 1_555
O118 Sr22 2.867236 1_555
O119 Sr4 2.847796 1_555
O119 Sr23 2.867236 1_555
O120 Sr2 2.847796 1_555
O120 Sr24 2.867236 1_455
O121 Sr3 2.847796 1_555
O121 Sr25 2.867236 1_555
O122 Sr6 2.847796 1_545
O122 Sr26 2.867236 1_655
O123 Sr7 2.847796 1_555
O123 Sr27 2.867236 1_555
O124 Sr6 2.847796 1_555
O124 Sr28 2.867236 1_655
O125 Sr7 2.847796 1_555
O125 Sr29 2.867236 1_555
O126 Sr2 2.847796 1_565
O126 Sr30 2.867236 1_455
O127 Sr3 2.847796 1_555
O127 Sr31 2.867236 1_555
