# generated using pymatgen
data_YIn2Ni9
_symmetry_space_group_name_H-M   'P 1'
_cell_length_a   8.22253500
_cell_length_b   8.22253500
_cell_length_c   4.82803900
_cell_angle_alpha   90.00000000
_cell_angle_beta   90.00000000
_cell_angle_gamma   90.00000000
_symmetry_Int_Tables_number   1
_chemical_formula_structural   YIn2Ni9
_chemical_formula_sum   'Y2 In4 Ni18'
_cell_volume   326.42411185
_cell_formula_units_Z   2
loop_
 _symmetry_equiv_pos_site_id
 _symmetry_equiv_pos_as_xyz
  1  'x, y, z'
loop_
 _atom_site_type_symbol
 _atom_site_label
 _atom_site_symmetry_multiplicity
 _atom_site_fract_x
 _atom_site_fract_y
 _atom_site_fract_z
 _atom_site_occupancy
  Y  Y0  1  0.50000000  0.50000000  0.00000000  1
  Y  Y1  1  0.00000000  0.00000000  0.00000000  1
  In  In0  1  0.62440800  0.12440800  0.00000000  1
  In  In1  1  0.37559200  0.87559200  0.00000000  1
  In  In2  1  0.12440800  0.37559200  0.00000000  1
  In  In3  1  0.87559200  0.62440800  0.00000000  1
  Ni  Ni0  1  0.50000000  0.00000000  0.50000000  1
  Ni  Ni1  1  0.00000000  0.50000000  0.50000000  1
  Ni  Ni2  1  0.70577500  0.56331400  0.50000000  1
  Ni  Ni3  1  0.29422500  0.43668600  0.50000000  1
  Ni  Ni4  1  0.20577500  0.93668600  0.50000000  1
  Ni  Ni5  1  0.79422500  0.06331400  0.50000000  1
  Ni  Ni6  1  0.43668600  0.70577500  0.50000000  1
  Ni  Ni7  1  0.56331400  0.29422500  0.50000000  1
  Ni  Ni8  1  0.06331400  0.20577500  0.50000000  1
  Ni  Ni9  1  0.93668600  0.79422500  0.50000000  1
  Ni  Ni10  1  0.82346500  0.32346500  0.75129100  1
  Ni  Ni11  1  0.17653500  0.67653500  0.75129100  1
  Ni  Ni12  1  0.32346500  0.17653500  0.75129100  1
  Ni  Ni13  1  0.67653500  0.82346500  0.75129100  1
  Ni  Ni14  1  0.17653500  0.67653500  0.24870900  1
  Ni  Ni15  1  0.82346500  0.32346500  0.24870900  1
  Ni  Ni16  1  0.67653500  0.82346500  0.24870900  1
  Ni  Ni17  1  0.32346500  0.17653500  0.24870900  1
loop_
_geom_bond_atom_site_label_1
_geom_bond_atom_site_label_2
_geom_bond_distance
_geom_bond_site_symmetry_2
In0 Ni15 2.607640 1_555
In0 Ni10 2.607640 1_554
In0 Ni16 2.783666 1_545
In0 Ni13 2.783666 1_544
In0 Ni17 2.783666 1_555
In0 Ni12 2.783666 1_554
In0 Ni0 2.814310 1_555
In0 Ni0 2.814310 1_554
In0 Ni5 2.833650 1_555
In0 Ni5 2.833650 1_554
In0 Ni7 2.833650 1_554
In0 Ni7 2.833650 1_555
In0 In1 2.893337 1_545
In0 Y1 3.253327 1_655
In0 Y0 3.253327 1_555
In1 Ni14 2.607640 1_555
In1 Ni11 2.607640 1_554
In1 Ni16 2.783666 1_555
In1 Ni13 2.783666 1_554
In1 Ni17 2.783666 1_565
In1 Ni12 2.783666 1_564
In1 Ni0 2.814310 1_564
In1 Ni0 2.814310 1_565
In1 Ni6 2.833650 1_555
In1 Ni6 2.833650 1_554
In1 Ni4 2.833650 1_554
In1 Ni4 2.833650 1_555
In1 Y0 3.253327 1_555
In1 Y1 3.253327 1_565
In2 Ni17 2.607640 1_555
In2 Ni12 2.607640 1_554
In2 Ni15 2.783666 1_455
In2 Ni10 2.783666 1_454
In2 Ni14 2.783666 1_555
In2 Ni11 2.783666 1_554
In2 Ni1 2.814310 1_554
In2 Ni1 2.814310 1_555
In2 Ni8 2.833650 1_555
In2 Ni3 2.833650 1_555
In2 Ni8 2.833650 1_554
In2 Ni3 2.833650 1_554
In2 In3 2.893337 1_455
In2 Y1 3.253327 1_555
In2 Y0 3.253327 1_555
In3 Ni16 2.607640 1_555
In3 Ni13 2.607640 1_554
In3 Ni15 2.783666 1_555
In3 Ni10 2.783666 1_554
In3 Ni14 2.783666 1_655
In3 Ni11 2.783666 1_654
In3 Ni1 2.814310 1_654
In3 Ni1 2.814310 1_655
In3 Ni2 2.833650 1_554
In3 Ni9 2.833650 1_554
In3 Ni2 2.833650 1_555
In3 Ni9 2.833650 1_555
In3 Y0 3.253327 1_555
In3 Y1 3.253327 1_665
Ni0 Ni12 2.384542 1_555
Ni0 Ni13 2.384542 1_545
Ni0 Ni16 2.384542 1_545
Ni0 Ni17 2.384542 1_555
Ni0 Ni5 2.474655 1_555
Ni0 Ni7 2.474655 1_555
Ni0 Ni6 2.474655 1_545
Ni0 Ni4 2.474655 1_545
Ni1 Ni11 2.384542 1_555
Ni1 Ni10 2.384542 1_455
Ni1 Ni14 2.384542 1_555
Ni1 Ni15 2.384542 1_455
Ni1 Ni9 2.474655 1_455
Ni1 Ni3 2.474655 1_555
Ni1 Ni2 2.474655 1_455
Ni1 Ni8 2.474655 1_555
Ni2 Ni7 2.503543 1_555
Ni2 Ni6 2.503543 1_555
Ni2 Ni9 2.685130 1_555
Ni2 Y0 2.993552 1_555
Ni2 Y0 2.993552 1_556
Ni3 Ni7 2.503543 1_555
Ni3 Ni6 2.503543 1_555
Ni3 Ni8 2.685130 1_555
Ni3 Y0 2.993552 1_556
Ni3 Y0 2.993552 1_555
Ni4 Ni8 2.503543 1_565
Ni4 Ni9 2.503543 1_455
Ni4 Ni6 2.685130 1_555
Ni4 Y1 2.993552 1_566
Ni4 Y1 2.993552 1_565
Ni5 Ni9 2.503543 1_545
Ni5 Ni8 2.503543 1_655
Ni5 Ni7 2.685130 1_555
Ni5 Y1 2.993552 1_655
Ni5 Y1 2.993552 1_656
Ni6 Y0 2.993552 1_555
Ni6 Y0 2.993552 1_556
Ni7 Y0 2.993552 1_556
Ni7 Y0 2.993552 1_555
Ni8 Y1 2.993552 1_556
Ni8 Y1 2.993552 1_555
Ni9 Y1 2.993552 1_666
Ni9 Y1 2.993552 1_665
Ni10 Ni15 2.401554 1_556
Ni10 Ni15 2.426485 1_555
Ni10 Ni7 2.470934 1_555
Ni10 Ni5 2.470934 1_555
Ni10 Ni2 2.509554 1_555
Ni10 Ni8 2.509554 1_655
Ni10 Y0 3.259283 1_556
Ni10 Y1 3.259283 1_656
Ni11 Ni14 2.401554 1_556
Ni11 Ni14 2.426485 1_555
Ni11 Ni4 2.470934 1_555
Ni11 Ni6 2.470934 1_555
Ni11 Ni9 2.509554 1_455
Ni11 Ni3 2.509554 1_555
Ni11 Y0 3.259283 1_556
Ni11 Y1 3.259283 1_566
Ni12 Ni17 2.401554 1_556
Ni12 Ni17 2.426485 1_555
Ni12 Ni3 2.470934 1_555
Ni12 Ni8 2.470934 1_555
Ni12 Ni7 2.509554 1_555
Ni12 Ni4 2.509554 1_545
Ni12 Y0 3.259283 1_556
Ni12 Y1 3.259283 1_556
Ni13 Ni16 2.401554 1_556
Ni13 Ni16 2.426485 1_555
Ni13 Ni9 2.470934 1_555
Ni13 Ni2 2.470934 1_555
Ni13 Ni5 2.509554 1_565
Ni13 Ni6 2.509554 1_555
Ni13 Y0 3.259283 1_556
Ni13 Y1 3.259283 1_666
Ni14 Ni6 2.470934 1_555
Ni14 Ni4 2.470934 1_555
Ni14 Ni3 2.509554 1_555
Ni14 Ni9 2.509554 1_455
Ni14 Y1 3.259283 1_565
Ni14 Y0 3.259283 1_555
Ni15 Ni7 2.470934 1_555
Ni15 Ni5 2.470934 1_555
Ni15 Ni2 2.509554 1_555
Ni15 Ni8 2.509554 1_655
Ni15 Y1 3.259283 1_655
Ni15 Y0 3.259283 1_555
Ni16 Ni9 2.470934 1_555
Ni16 Ni2 2.470934 1_555
Ni16 Ni5 2.509554 1_565
Ni16 Ni6 2.509554 1_555
Ni16 Y1 3.259283 1_665
Ni16 Y0 3.259283 1_555
Ni17 Ni3 2.470934 1_555
Ni17 Ni8 2.470934 1_555
Ni17 Ni7 2.509554 1_555
Ni17 Ni4 2.509554 1_545
Ni17 Y1 3.259283 1_555
Ni17 Y0 3.259283 1_555
