# generated using pymatgen
data_U17O31
_symmetry_space_group_name_H-M   'P 1'
_cell_length_a   8.61770709
_cell_length_b   8.61770709
_cell_length_c   22.09294925
_cell_angle_alpha   74.16099449
_cell_angle_beta   74.16099449
_cell_angle_gamma   25.74457610
_symmetry_Int_Tables_number   1
_chemical_formula_structural   U17O31
_chemical_formula_sum   'U17 O31'
_cell_volume   684.16681306
_cell_formula_units_Z   1
loop_
 _symmetry_equiv_pos_site_id
 _symmetry_equiv_pos_as_xyz
  1  'x, y, z'
loop_
 _atom_site_type_symbol
 _atom_site_label
 _atom_site_symmetry_multiplicity
 _atom_site_fract_x
 _atom_site_fract_y
 _atom_site_fract_z
 _atom_site_occupancy
  U  U0  1  0.00192500  0.00192500  0.99975100  1
  U  U1  1  0.70634100  0.70634100  0.93871100  1
  U  U2  1  0.11767000  0.11767000  0.82609500  1
  U  U3  1  0.41138000  0.41138000  0.88243600  1
  U  U4  1  0.82131600  0.82131600  0.76510600  1
  U  U5  1  0.23979700  0.23979700  0.64534000  1
  U  U6  1  0.52547200  0.52547200  0.70509400  1
  U  U7  1  0.94269500  0.94269500  0.58734600  1
  U  U8  1  0.64673400  0.64673400  0.52886200  1
  U  U9  1  0.35288000  0.35288000  0.47361000  1
  U  U10  1  0.05681700  0.05681700  0.41209200  1
  U  U11  1  0.47561000  0.47561000  0.29219600  1
  U  U12  1  0.75888400  0.75888400  0.35211700  1
  U  U13  1  0.17762600  0.17762600  0.23306700  1
  U  U14  1  0.88118500  0.88118500  0.17870200  1
  U  U15  1  0.58342100  0.58342100  0.11951300  1
  U  U16  1  0.29994500  0.29994500  0.05976900  1
  O  O0  1  0.27355500  0.27355500  0.96396300  1
  O  O1  1  0.98639000  0.98639000  0.89519600  1
  O  O2  1  0.69120500  0.69120500  0.83911900  1
  O  O3  1  0.43001800  0.43001800  0.98519700  1
  O  O4  1  0.13197100  0.13197100  0.92563000  1
  O  O5  1  0.39369100  0.39369100  0.77937000  1
  O  O6  1  0.83698700  0.83698700  0.86946400  1
  O  O7  1  0.55009000  0.55009000  0.79915500  1
  O  O8  1  0.81197600  0.81197600  0.66148200  1
  O  O9  1  0.24263500  0.24263500  0.74873900  1
  O  O10  1  0.51525000  0.51525000  0.60228000  1
  O  O11  1  0.96263100  0.96263100  0.69252000  1
  O  O12  1  0.22060600  0.22060600  0.54447400  1
  O  O13  1  0.65612400  0.65612400  0.64255700  1
  O  O14  1  0.92707800  0.92707800  0.48620800  1
  O  O15  1  0.62908400  0.62908400  0.42633200  1
  O  O16  1  0.36785200  0.36785200  0.57322900  1
  O  O17  1  0.07417400  0.07417400  0.51421500  1
  O  O18  1  0.04825000  0.04825000  0.30803600  1
  O  O19  1  0.78557500  0.78557500  0.44794600  1
  O  O20  1  0.74907200  0.74907200  0.24946700  1
  O  O21  1  0.47762500  0.47762500  0.39568500  1
  O  O22  1  0.45510400  0.45510400  0.19335100  1
  O  O23  1  0.19608300  0.19608300  0.33870900  1
  O  O24  1  0.16570300  0.16570300  0.12346900  1
  O  O25  1  0.89307700  0.89307700  0.28838800  1
  O  O26  1  0.60381900  0.60381900  0.21838500  1
  O  O27  1  0.86275100  0.86275100  0.07308700  1
  O  O28  1  0.30965100  0.30965100  0.16237500  1
  O  O29  1  0.58110000  0.58110000  0.01615200  1
  O  O30  1  0.01064100  0.01064100  0.10366100  1
loop_
_geom_bond_atom_site_label_1
_geom_bond_atom_site_label_2
_geom_bond_distance
_geom_bond_site_symmetry_2
O0 U16 2.280854 1_556
O0 U1 2.371761 1_545
O0 U1 2.371761 1_455
O0 U3 2.504286 1_555
O1 U2 2.304477 1_665
O1 U3 2.356408 1_565
O1 U3 2.356408 1_655
O1 U0 2.396146 1_665
O2 U1 2.284566 1_555
O2 U4 2.334827 1_555
O2 U2 2.343981 1_655
O2 U2 2.343981 1_565
O3 U0 2.338046 1_655
O3 U0 2.338046 1_565
O3 U16 2.339795 1_556
O3 U3 2.377058 1_555
O4 U2 2.278006 1_555
O4 U0 2.335066 1_555
O4 U1 2.352229 1_455
O4 U1 2.352229 1_545
O5 U4 2.340618 1_455
O5 U4 2.340618 1_545
O5 U6 2.358184 1_555
O5 U3 2.377428 1_555
O6 U1 2.297550 1_555
O6 U3 2.351795 1_655
O6 U3 2.351795 1_565
O6 U4 2.392685 1_555
O7 U6 2.229539 1_555
O7 U2 2.389103 1_565
O7 U2 2.389103 1_655
O7 U3 2.532996 1_555
O8 U4 2.338155 1_555
O8 U7 2.343584 1_555
O8 U5 2.350736 1_565
O8 U5 2.350736 1_655
O9 U5 2.298195 1_555
O9 U2 2.306549 1_555
O9 U4 2.414943 1_455
O9 U4 2.414943 1_545
O10 U6 2.325403 1_555
O10 U8 2.346304 1_555
O10 U7 2.346496 1_455
O10 U7 2.346496 1_545
O11 U6 2.245455 1_565
O11 U6 2.245455 1_655
O11 U7 2.438681 1_555
O11 U4 2.465239 1_555
O12 U9 2.332867 1_555
O12 U5 2.339277 1_555
O12 U8 2.363281 1_545
O12 U8 2.363281 1_455
O13 U6 2.242700 1_555
O13 U5 2.390506 1_655
O13 U5 2.390506 1_565
O13 U8 2.560514 1_555
O14 U7 2.321609 1_555
O14 U10 2.331206 1_665
O14 U9 2.347722 1_655
O14 U9 2.347722 1_565
O15 U12 2.332927 1_555
O15 U10 2.339459 1_565
O15 U10 2.339459 1_655
O15 U8 2.365414 1_555
O16 U9 2.284111 1_555
O16 U5 2.290888 1_555
O16 U7 2.363062 1_455
O16 U7 2.363062 1_545
O17 U7 2.343536 1_445
O17 U8 2.344737 1_545
O17 U8 2.344737 1_455
O17 U10 2.354553 1_555
O18 U13 2.335100 1_555
O18 U10 2.343283 1_555
O18 U11 2.353101 1_455
O18 U11 2.353101 1_545
O19 U12 2.283655 1_555
O19 U9 2.375961 1_655
O19 U9 2.375961 1_565
O19 U8 2.510533 1_555
O20 U12 2.319405 1_555
O20 U14 2.329914 1_555
O20 U13 2.345572 1_655
O20 U13 2.345572 1_565
O21 U11 2.296086 1_555
O21 U9 2.310101 1_555
O21 U10 2.420281 1_655
O21 U10 2.420281 1_565
O22 U11 2.304106 1_555
O22 U15 2.310880 1_555
O22 U14 2.357581 1_455
O22 U14 2.357581 1_545
O23 U12 2.249890 1_455
O23 U12 2.249890 1_545
O23 U13 2.439007 1_555
O23 U10 2.445347 1_555
O24 U16 2.300156 1_555
O24 U15 2.381693 1_545
O24 U15 2.381693 1_455
O24 U13 2.484884 1_555
O25 U12 2.299706 1_555
O25 U11 2.383537 1_565
O25 U11 2.383537 1_655
O25 U14 2.486639 1_555
O26 U15 2.303945 1_555
O26 U11 2.309281 1_555
O26 U13 2.356726 1_565
O26 U13 2.356726 1_655
O27 U16 2.249411 1_565
O27 U16 2.249411 1_655
O27 U14 2.438262 1_555
O27 U0 2.443745 1_664
O28 U16 2.317821 1_555
O28 U13 2.328131 1_555
O28 U14 2.345914 1_455
O28 U14 2.345914 1_545
O29 U15 2.294773 1_555
O29 U1 2.310722 1_554
O29 U0 2.420072 1_654
O29 U0 2.420072 1_564
O30 U14 2.336798 1_445
O30 U0 2.340905 1_554
O30 U15 2.354497 1_455
O30 U15 2.354497 1_545
