# generated using pymatgen
data_K2TaAgS4
_symmetry_space_group_name_H-M   'P 1'
_cell_length_a   13.38673219
_cell_length_b   11.93301532
_cell_length_c   7.39871058
_cell_angle_alpha   84.17101440
_cell_angle_beta   62.47348970
_cell_angle_gamma   33.35549590
_symmetry_Int_Tables_number   1
_chemical_formula_structural   K2TaAgS4
_chemical_formula_sum   'K4 Ta2 Ag2 S8'
_cell_volume   468.03869828
_cell_formula_units_Z   2
loop_
 _symmetry_equiv_pos_site_id
 _symmetry_equiv_pos_as_xyz
  1  'x, y, z'
loop_
 _atom_site_type_symbol
 _atom_site_label
 _atom_site_symmetry_multiplicity
 _atom_site_fract_x
 _atom_site_fract_y
 _atom_site_fract_z
 _atom_site_occupancy
  K  K0  1  0.81390700  0.79911800  0.43950500  1
  K  K1  1  0.20240400  0.18879300  0.54625900  1
  K  K2  1  0.44058900  0.45210600  0.80626800  1
  K  K3  1  0.56318200  0.54596600  0.19004900  1
  Ta  Ta0  1  0.36838700  0.38278100  0.38299300  1
  Ta  Ta1  1  0.61606300  0.63397300  0.63231900  1
  Ag  Ag0  1  0.88202400  0.86737000  0.87429500  1
  Ag  Ag1  1  0.12127200  0.12795400  0.13380500  1
  S  S0  1  0.12362200  0.74060600  0.42002300  1
  S  S1  1  0.20000200  0.43295800  0.75636300  1
  S  S2  1  0.43089000  0.20019300  0.11454300  1
  S  S3  1  0.74963300  0.12018500  0.20497500  1
  S  S4  1  0.88921300  0.24469700  0.56367500  1
  S  S5  1  0.25073300  0.88452100  0.80132000  1
  S  S6  1  0.56364200  0.80242700  0.88479200  1
  S  S7  1  0.78553300  0.57920400  0.25506800  1
loop_
_geom_bond_atom_site_label_1
_geom_bond_atom_site_label_2
_geom_bond_distance
_geom_bond_site_symmetry_2
K0 S2 3.405959 1_655
K0 S6 3.418030 1_555
K0 S7 3.429964 1_555
K0 S1 3.492313 1_565
K0 S0 3.511438 1_655
K0 S3 3.599000 1_565
K0 S1 3.736915 1_654
K0 S2 3.785559 1_566
K1 S2 3.339605 1_555
K1 S7 3.357111 1_545
K1 S1 3.409394 1_555
K1 S6 3.512768 1_455
K1 S4 3.589610 1_455
K1 S5 3.602170 1_545
K1 S6 3.749017 1_544
K2 S5 3.350503 1_555
K2 S0 3.382226 1_556
K2 S4 3.394468 1_555
K2 S3 3.433408 1_555
K2 S1 3.592626 1_555
K2 S2 3.638851 1_556
K2 S3 3.766120 1_466
K3 S3 3.318521 1_555
K3 S0 3.410464 1_555
K3 S4 3.453530 1_554
K3 S5 3.502530 1_555
K3 S7 3.547268 1_555
K3 S6 3.616816 1_554
K3 S5 3.750637 1_644
Ag0 S1 2.525129 1_655
Ag0 S3 2.605302 1_566
Ag0 S2 2.616893 1_566
Ag0 S0 2.618598 1_655
Ag1 S4 2.498905 1_455
Ag1 S6 2.548103 1_544
Ag1 S5 2.567882 1_544
Ag1 S7 2.612458 1_455
S0 Ta0 2.253642 1_555
S1 Ta0 2.323006 1_555
S2 Ta0 2.385313 1_555
S3 Ta0 2.347284 1_555
S4 Ta1 2.365155 1_555
S5 Ta1 2.258455 1_555
S6 Ta1 2.284093 1_555
S7 Ta1 2.324908 1_555
