# generated using pymatgen
data_SiO2
_symmetry_space_group_name_H-M   'P 1'
_cell_length_a   8.93923869
_cell_length_b   8.93923869
_cell_length_c   8.93923869
_cell_angle_alpha   90.00000000
_cell_angle_beta   90.00000000
_cell_angle_gamma   90.00000000
_symmetry_Int_Tables_number   1
_chemical_formula_structural   SiO2
_chemical_formula_sum   'Si12 O24'
_cell_volume   714.33445964
_cell_formula_units_Z   12
loop_
 _symmetry_equiv_pos_site_id
 _symmetry_equiv_pos_as_xyz
  1  'x, y, z'
loop_
 _atom_site_type_symbol
 _atom_site_label
 _atom_site_symmetry_multiplicity
 _atom_site_fract_x
 _atom_site_fract_y
 _atom_site_fract_z
 _atom_site_occupancy
  Si  Si0  1  0.25000000  0.50000000  -0.00000000  1
  Si  Si1  1  0.25000000  0.00000000  0.50000000  1
  Si  Si2  1  0.00000000  0.50000000  0.75000000  1
  Si  Si3  1  0.00000000  0.50000000  0.25000000  1
  Si  Si4  1  0.50000000  0.25000000  -0.00000000  1
  Si  Si5  1  0.50000000  0.75000000  -0.00000000  1
  Si  Si6  1  0.00000000  0.25000000  0.50000000  1
  Si  Si7  1  0.50000000  0.00000000  0.25000000  1
  Si  Si8  1  0.00000000  0.75000000  0.50000000  1
  Si  Si9  1  0.50000000  0.00000000  0.75000000  1
  Si  Si10  1  0.75000000  0.50000000  -0.00000000  1
  Si  Si11  1  0.75000000  0.00000000  0.50000000  1
  O  O0  1  0.14747606  0.50000000  0.85252394  1
  O  O1  1  0.14747606  0.14747606  0.50000000  1
  O  O2  1  0.14747606  0.85252394  0.50000000  1
  O  O3  1  0.85252394  0.50000000  0.85252394  1
  O  O4  1  0.14747606  0.50000000  0.14747606  1
  O  O5  1  0.50000000  0.14747606  0.85252394  1
  O  O6  1  0.50000000  0.85252394  0.85252394  1
  O  O7  1  0.85252394  0.14747606  0.50000000  1
  O  O8  1  0.50000000  0.85252394  0.14747606  1
  O  O9  1  0.50000000  0.14747606  0.14747606  1
  O  O10  1  0.85252394  0.85252394  0.50000000  1
  O  O11  1  0.85252394  0.50000000  0.14747606  1
  O  O12  1  0.64747606  0.00000000  0.35252394  1
  O  O13  1  0.64747606  0.64747606  -0.00000000  1
  O  O14  1  0.64747606  0.35252394  -0.00000000  1
  O  O15  1  0.35252394  0.00000000  0.35252394  1
  O  O16  1  0.64747606  0.00000000  0.64747606  1
  O  O17  1  0.00000000  0.64747606  0.35252394  1
  O  O18  1  0.00000000  0.35252394  0.35252394  1
  O  O19  1  0.35252394  0.64747606  -0.00000000  1
  O  O20  1  0.00000000  0.35252394  0.64747606  1
  O  O21  1  0.00000000  0.64747606  0.64747606  1
  O  O22  1  0.35252394  0.35252394  -0.00000000  1
  O  O23  1  0.35252394  0.00000000  0.64747606  1
loop_
_geom_bond_atom_site_label_1
_geom_bond_atom_site_label_2
_geom_bond_distance
_geom_bond_site_symmetry_2
O0 Si2 1.605591 1_555
O0 Si0 1.605591 1_556
O1 Si6 1.605591 1_555
O1 Si1 1.605591 1_555
O2 Si8 1.605591 1_555
O2 Si1 1.605591 1_565
O3 Si2 1.605591 1_655
O3 Si10 1.605591 1_556
O4 Si3 1.605591 1_555
O4 Si0 1.605591 1_555
O5 Si9 1.605591 1_555
O5 Si4 1.605591 1_556
O6 Si5 1.605591 1_556
O6 Si9 1.605591 1_565
O7 Si11 1.605591 1_555
O7 Si6 1.605591 1_655
O8 Si5 1.605591 1_555
O8 Si7 1.605591 1_565
O9 Si4 1.605591 1_555
O9 Si7 1.605591 1_555
O10 Si11 1.605591 1_565
O10 Si8 1.605591 1_655
O11 Si10 1.605591 1_555
O11 Si3 1.605591 1_655
O12 Si7 1.605591 1_555
O12 Si11 1.605591 1_555
O13 Si10 1.605591 1_555
O13 Si5 1.605591 1_555
O14 Si10 1.605591 1_555
O14 Si4 1.605591 1_555
O15 Si7 1.605591 1_555
O15 Si1 1.605591 1_555
O16 Si9 1.605591 1_555
O16 Si11 1.605591 1_555
O17 Si8 1.605591 1_555
O17 Si3 1.605591 1_555
O18 Si6 1.605591 1_555
O18 Si3 1.605591 1_555
O19 Si5 1.605591 1_555
O19 Si0 1.605591 1_555
O20 Si2 1.605591 1_555
O20 Si6 1.605591 1_555
O21 Si2 1.605591 1_555
O21 Si8 1.605591 1_555
O22 Si4 1.605591 1_555
O22 Si0 1.605591 1_555
O23 Si9 1.605591 1_555
O23 Si1 1.605591 1_555
