# generated using pymatgen
data_Zr7Ni10
_symmetry_space_group_name_H-M   'P 1'
_cell_length_a   7.67283881
_cell_length_b   7.67283881
_cell_length_c   9.11341814
_cell_angle_alpha   90.00000000
_cell_angle_beta   90.00000000
_cell_angle_gamma   107.03190925
_symmetry_Int_Tables_number   1
_chemical_formula_structural   Zr7Ni10
_chemical_formula_sum   'Zr14 Ni20'
_cell_volume   512.99808297
_cell_formula_units_Z   2
loop_
 _symmetry_equiv_pos_site_id
 _symmetry_equiv_pos_as_xyz
  1  'x, y, z'
loop_
 _atom_site_type_symbol
 _atom_site_label
 _atom_site_symmetry_multiplicity
 _atom_site_fract_x
 _atom_site_fract_y
 _atom_site_fract_z
 _atom_site_occupancy
  Zr  Zr0  1  0.19140156  0.80859844  -0.00000000  1
  Zr  Zr1  1  0.69140156  0.30859844  0.50000000  1
  Zr  Zr2  1  0.31352746  0.31352746  0.68653344  1
  Zr  Zr3  1  0.68647254  0.68647254  0.31346656  1
  Zr  Zr4  1  0.80859844  0.19140156  -0.00000000  1
  Zr  Zr5  1  0.00098729  0.50098729  0.75000000  1
  Zr  Zr6  1  0.99901271  0.49901271  0.25000000  1
  Zr  Zr7  1  0.81352746  0.81352746  0.81346656  1
  Zr  Zr8  1  0.50000000  0.50000000  -0.00000000  1
  Zr  Zr9  1  0.49901271  0.99901271  0.25000000  1
  Zr  Zr10  1  0.30859844  0.69140156  0.50000000  1
  Zr  Zr11  1  0.50098729  0.00098729  0.75000000  1
  Zr  Zr12  1  0.18647254  0.18647254  0.18653344  1
  Zr  Zr13  1  -0.00000000  -0.00000000  0.50000000  1
  Ni  Ni0  1  0.89386040  0.89386040  0.10549746  1
  Ni  Ni1  1  0.63850577  0.34740824  0.20720402  1
  Ni  Ni2  1  0.06230429  0.35292241  0.49281113  1
  Ni  Ni3  1  0.65259176  0.36149423  0.79279598  1
  Ni  Ni4  1  0.84740824  0.13850577  0.29279598  1
  Ni  Ni5  1  0.13850577  0.84740824  0.29279598  1
  Ni  Ni6  1  0.60613960  0.60613960  0.60549746  1
  Ni  Ni7  1  0.43769571  0.14707759  0.99281113  1
  Ni  Ni8  1  0.36149423  0.65259176  0.79279598  1
  Ni  Ni9  1  0.15259176  0.86149423  0.70720402  1
  Ni  Ni10  1  0.14707759  0.43769571  0.99281113  1
  Ni  Ni11  1  0.56230429  0.85292241  0.00718887  1
  Ni  Ni12  1  0.93769571  0.64707759  0.50718887  1
  Ni  Ni13  1  0.64707759  0.93769571  0.50718887  1
  Ni  Ni14  1  0.10613960  0.10613960  0.89450254  1
  Ni  Ni15  1  0.39386040  0.39386040  0.39450254  1
  Ni  Ni16  1  0.85292241  0.56230429  0.00718887  1
  Ni  Ni17  1  0.35292241  0.06230429  0.49281113  1
  Ni  Ni18  1  0.86149423  0.15259176  0.70720402  1
  Ni  Ni19  1  0.34740824  0.63850577  0.20720402  1
loop_
_geom_bond_atom_site_label_1
_geom_bond_atom_site_label_2
_geom_bond_distance
_geom_bond_site_symmetry_2
Ni0 Ni16 2.627747 1_555
Ni0 Ni11 2.627747 1_555
Ni0 Ni4 2.637456 1_565
Ni0 Ni5 2.637456 1_655
Ni0 Zr3 2.678256 1_555
Ni0 Zr0 2.727507 1_655
Ni0 Zr4 2.727507 1_565
Ni0 Ni14 2.729331 1_664
Ni0 Zr7 2.760496 1_554
Ni0 Zr12 2.770202 1_665
Ni1 Zr9 2.601443 1_545
Ni1 Zr8 2.606706 1_555
Ni1 Ni15 2.637456 1_555
Ni1 Zr6 2.696606 1_555
Ni1 Zr3 2.698263 1_555
Ni1 Zr1 2.728444 1_555
Ni1 Zr4 2.759907 1_555
Ni2 Zr6 2.589953 1_455
Ni2 Zr13 2.609080 1_555
Ni2 Zr2 2.695405 1_555
Ni2 Zr5 2.705339 1_555
Ni2 Zr10 2.728616 1_555
Ni2 Zr1 2.766223 1_455
Ni3 Zr5 2.601443 1_655
Ni3 Zr8 2.606706 1_556
Ni3 Ni6 2.637456 1_555
Ni3 Zr11 2.696606 1_555
Ni3 Zr2 2.698263 1_555
Ni3 Zr1 2.728444 1_555
Ni3 Zr4 2.759907 1_556
Ni4 Zr9 2.601443 1_545
Ni4 Zr13 2.606706 1_655
Ni4 Zr6 2.696606 1_555
Ni4 Zr12 2.698263 1_655
Ni4 Zr4 2.728444 1_555
Ni4 Zr1 2.759907 1_555
Ni5 Zr6 2.601443 1_455
Ni5 Zr13 2.606706 1_565
Ni5 Zr9 2.696606 1_555
Ni5 Zr12 2.698263 1_565
Ni5 Zr0 2.728444 1_555
Ni5 Zr10 2.759907 1_555
Ni6 Ni8 2.637456 1_555
Ni6 Zr7 2.678256 1_555
Ni6 Zr10 2.727507 1_555
Ni6 Zr1 2.727507 1_555
Ni6 Zr3 2.760496 1_555
Ni6 Zr2 2.770202 1_555
Ni7 Zr11 2.589953 1_555
Ni7 Zr8 2.609080 1_556
Ni7 Zr12 2.695405 1_556
Ni7 Zr9 2.705339 1_546
Ni7 Zr0 2.728616 1_546
Ni7 Zr4 2.766223 1_556
Ni8 Zr11 2.601443 1_565
Ni8 Zr8 2.606706 1_556
Ni8 Zr5 2.696606 1_555
Ni8 Zr2 2.698263 1_555
Ni8 Zr10 2.728444 1_555
Ni8 Zr0 2.759907 1_556
Ni9 Zr11 2.601443 1_565
Ni9 Zr13 2.606706 1_565
Ni9 Zr5 2.696606 1_555
Ni9 Zr7 2.698263 1_455
Ni9 Zr0 2.728444 1_556
Ni9 Zr10 2.759907 1_555
Ni10 Zr5 2.589953 1_555
Ni10 Zr8 2.609080 1_556
Ni10 Ni14 2.627747 1_555
Ni10 Zr12 2.695405 1_556
Ni10 Zr6 2.705339 1_456
Ni10 Zr4 2.728616 1_456
Ni10 Zr0 2.766223 1_556
Ni11 Zr9 2.589953 1_555
Ni11 Zr8 2.609080 1_555
Ni11 Zr7 2.695405 1_554
Ni11 Zr11 2.705339 1_564
Ni11 Zr4 2.728616 1_565
Ni11 Zr0 2.766223 1_555
Ni12 Zr5 2.589953 1_655
Ni12 Zr13 2.609080 1_665
Ni12 Ni6 2.627747 1_555
Ni12 Zr3 2.695405 1_555
Ni12 Zr6 2.705339 1_555
Ni12 Zr1 2.728616 1_555
Ni12 Zr10 2.766223 1_655
Ni13 Zr11 2.589953 1_565
Ni13 Zr13 2.609080 1_665
Ni13 Ni6 2.627747 1_555
Ni13 Zr3 2.695405 1_555
Ni13 Zr9 2.705339 1_555
Ni13 Zr10 2.728616 1_555
Ni13 Zr1 2.766223 1_565
Ni14 Ni7 2.627747 1_555
Ni14 Ni9 2.637456 1_545
Ni14 Ni18 2.637456 1_455
Ni14 Zr2 2.678256 1_555
Ni14 Zr0 2.727507 1_546
Ni14 Zr4 2.727507 1_456
Ni14 Zr12 2.760496 1_556
Ni14 Zr7 2.770202 1_445
Ni15 Ni2 2.627747 1_555
Ni15 Ni17 2.627747 1_555
Ni15 Ni19 2.637456 1_555
Ni15 Zr12 2.678256 1_555
Ni15 Zr1 2.727507 1_555
Ni15 Zr10 2.727507 1_555
Ni15 Ni6 2.729331 1_555
Ni15 Zr2 2.760496 1_555
Ni15 Zr3 2.770202 1_555
Ni16 Zr6 2.589953 1_555
Ni16 Zr8 2.609080 1_555
Ni16 Zr7 2.695405 1_554
Ni16 Zr5 2.705339 1_654
Ni16 Zr0 2.728616 1_655
Ni16 Zr4 2.766223 1_555
Ni17 Zr9 2.589953 1_545
Ni17 Zr13 2.609080 1_555
Ni17 Zr2 2.695405 1_555
Ni17 Zr11 2.705339 1_555
Ni17 Zr1 2.728616 1_555
Ni17 Zr10 2.766223 1_545
Ni18 Zr5 2.601443 1_655
Ni18 Zr13 2.606706 1_655
Ni18 Zr11 2.696606 1_555
Ni18 Zr7 2.698263 1_545
Ni18 Zr4 2.728444 1_556
Ni18 Zr1 2.759907 1_555
Ni19 Zr6 2.601443 1_455
Ni19 Zr8 2.606706 1_555
Ni19 Zr9 2.696606 1_555
Ni19 Zr3 2.698263 1_555
Ni19 Zr10 2.728444 1_555
Ni19 Zr0 2.759907 1_555
