# generated using pymatgen
data_Nb2Ni4O9
_symmetry_space_group_name_H-M   'P 1'
_cell_length_a   16.98823846
_cell_length_b   15.36080844
_cell_length_c   10.23681630
_cell_angle_alpha   80.45556845
_cell_angle_beta   63.08587344
_cell_angle_gamma   36.45855811
_symmetry_Int_Tables_number   1
_chemical_formula_structural   Nb2Ni4O9
_chemical_formula_sum   'Nb16 Ni32 O72'
_cell_volume   1312.66763159
_cell_formula_units_Z   8
loop_
 _symmetry_equiv_pos_site_id
 _symmetry_equiv_pos_as_xyz
  1  'x, y, z'
loop_
 _atom_site_type_symbol
 _atom_site_label
 _atom_site_symmetry_multiplicity
 _atom_site_fract_x
 _atom_site_fract_y
 _atom_site_fract_z
 _atom_site_occupancy
  Nb  Nb0  1  0.93465100  0.71011200  0.34005800  1
  Nb  Nb1  1  0.49591600  0.14967000  0.80923900  1
  Nb  Nb2  1  0.84013300  0.51501000  0.93572200  1
  Nb  Nb3  1  0.10145800  0.75276200  0.20252800  1
  Nb  Nb4  1  0.73499000  0.40986700  0.54086500  1
  Nb  Nb5  1  0.34005800  0.01517900  0.93465100  1
  Nb  Nb6  1  0.23482100  0.90994200  0.53988800  1
  Nb  Nb7  1  0.10033000  0.75408400  0.70482500  1
  Nb  Nb8  1  0.93572200  0.70913500  0.84013300  1
  Nb  Nb9  1  0.20252800  0.94325200  0.10145800  1
  Nb  Nb10  1  0.80923900  0.54517500  0.49591600  1
  Nb  Nb11  1  0.30674800  0.04747200  0.49723800  1
  Nb  Nb12  1  0.53988800  0.31534900  0.23482100  1
  Nb  Nb13  1  0.54086500  0.31427800  0.73499000  1
  Nb  Nb14  1  0.70482500  0.44076100  0.10033000  1
  Nb  Nb15  1  0.49723800  0.14854200  0.30674800  1
  Ni  Ni0  1  0.30323000  0.69902600  0.81604700  1
  Ni  Ni1  1  0.40704800  0.77919200  0.71412600  1
  Ni  Ni2  1  0.81604700  0.18169700  0.30323000  1
  Ni  Ni3  1  0.32298600  0.36459100  0.63458900  1
  Ni  Ni4  1  0.06830300  0.43395300  0.55097400  1
  Ni  Ni5  1  0.97393000  0.02607000  0.97393000  1
  Ni  Ni6  1  0.22393000  0.27607000  0.22393000  1
  Ni  Ni7  1  0.47080800  0.84295200  0.15036600  1
  Ni  Ni8  1  0.47856500  0.52143500  0.47856500  1
  Ni  Ni9  1  0.22042200  0.28291700  0.73424300  1
  Ni  Ni10  1  0.63458900  0.67783400  0.32298600  1
  Ni  Ni11  1  0.97140200  0.34305300  0.15059900  1
  Ni  Ni12  1  0.30647300  0.69352700  0.30647300  1
  Ni  Ni13  1  0.71505400  0.09940100  0.90694700  1
  Ni  Ni14  1  0.72856500  0.77143500  0.72856500  1
  Ni  Ni15  1  0.71412600  0.09963400  0.40704800  1
  Ni  Ni16  1  0.15059900  0.53494600  0.97140200  1
  Ni  Ni17  1  0.88669900  0.92749300  0.07048800  1
  Ni  Ni18  1  0.32250700  0.36330100  0.13468000  1
  Ni  Ni19  1  0.57216600  0.61541100  0.88540900  1
  Ni  Ni20  1  0.81352600  0.18647400  0.81352600  1
  Ni  Ni21  1  0.73424300  0.76241700  0.22042200  1
  Ni  Ni22  1  0.06352600  0.43647400  0.06352600  1
  Ni  Ni23  1  0.48758300  0.51575700  0.96708300  1
  Ni  Ni24  1  0.55097400  0.94677000  0.06830300  1
  Ni  Ni25  1  0.90694700  0.27859800  0.71505400  1
  Ni  Ni26  1  0.88540900  0.92701400  0.57216600  1
  Ni  Ni27  1  0.07048800  0.11532000  0.88669900  1
  Ni  Ni28  1  0.96708300  0.02957800  0.48758300  1
  Ni  Ni29  1  0.15036600  0.53587400  0.47080800  1
  Ni  Ni30  1  0.55647300  0.94352700  0.55647300  1
  Ni  Ni31  1  0.13468000  0.17951200  0.32250700  1
  O  O0  1  0.68026800  0.72268200  0.10828100  1
  O  O1  1  0.17624700  0.89658400  0.43922800  1
  O  O2  1  0.85599700  0.22620500  0.09406900  1
  O  O3  1  0.16837000  0.58347200  0.77093000  1
  O  O4  1  0.09406900  0.82372900  0.85599700  1
  O  O5  1  0.18999300  0.23844900  0.60028400  1
  O  O6  1  0.12499400  0.12544300  0.01803800  1
  O  O7  1  0.41858600  0.82956900  0.36867800  1
  O  O8  1  0.01155100  0.06000700  0.27872600  1
  O  O9  1  0.52068100  0.89074500  0.43093200  1
  O  O10  1  0.92071600  0.33017000  0.86859200  1
  O  O11  1  0.66652800  0.08163000  0.77277300  1
  O  O12  1  0.60028400  0.97127400  0.18999300  1
  O  O13  1  0.76123000  0.14171900  0.52731800  1
  O  O14  1  0.27689800  0.64629500  0.51080400  1
  O  O15  1  0.18002100  0.22630000  0.10582100  1
  O  O16  1  0.75705900  0.81637200  0.86406000  1
  O  O17  1  0.42627100  0.15593100  0.02379500  1
  O  O18  1  0.18828600  0.90746100  0.93164400  1
  O  O19  1  0.94388300  0.63987100  0.01612200  1
  O  O20  1  0.34253900  0.06171400  0.27739100  1
  O  O21  1  0.51826600  0.23268400  0.62555800  1
  O  O22  1  0.69368200  0.40209800  0.92822800  1
  O  O23  1  0.02379500  0.39400300  0.42627100  1
  O  O24  1  0.61012900  0.30611700  0.84987500  1
  O  O25  1  0.91983000  0.32928400  0.36947800  1
  O  O26  1  0.77277300  0.47907000  0.66652800  1
  O  O27  1  0.10828100  0.48877000  0.68026800  1
  O  O28  1  0.26851300  0.98072200  0.66746400  1
  O  O29  1  0.68399800  0.73919600  0.60370500  1
  O  O30  1  0.86406000  0.56250900  0.75705900  1
  O  O31  1  0.86859200  0.88052200  0.92071600  1
  O  O32  1  0.02370000  0.06997900  0.76214200  1
  O  O33  1  0.76206000  0.81077200  0.35341600  1
  O  O34  1  0.60843300  0.30641000  0.35059500  1
  O  O35  1  0.36947800  0.38140800  0.91983000  1
  O  O36  1  0.77093000  0.47722700  0.16837000  1
  O  O37  1  0.51543900  0.89940500  0.94359000  1
  O  O38  1  0.16669800  0.58253600  0.26927800  1
  O  O39  1  0.76214200  0.14417900  0.02370000  1
  O  O40  1  0.43093200  0.15764100  0.52068100  1
  O  O41  1  0.62555800  0.62349200  0.51826600  1
  O  O42  1  0.66746400  0.08330200  0.26851300  1
  O  O43  1  0.01803800  0.73152500  0.12499400  1
  O  O44  1  0.60370500  0.97310200  0.68399800  1
  O  O45  1  0.27739100  0.31835600  0.34253900  1
  O  O46  1  0.93164400  0.97260900  0.18828600  1
  O  O47  1  0.51847500  0.23196200  0.12455700  1
  O  O48  1  0.92822800  0.97599200  0.69368200  1
  O  O49  1  0.01612200  0.40012500  0.94388300  1
  O  O50  1  0.10582100  0.48785800  0.18002100  1
  O  O51  1  0.35341600  0.07375300  0.76206000  1
  O  O52  1  0.86683300  0.88132200  0.42043100  1
  O  O53  1  0.27400800  0.32177200  0.84790200  1
  O  O54  1  0.84790200  0.55631800  0.27400800  1
  O  O55  1  0.36867800  0.38316700  0.41858600  1
  O  O56  1  0.84987500  0.23387800  0.61012900  1
  O  O57  1  0.68749100  0.38594000  0.43362800  1
  O  O58  1  0.35925500  0.72931900  0.09235900  1
  O  O59  1  0.62650800  0.62444200  0.01731600  1
  O  O60  1  0.43362800  0.49294100  0.68749100  1
  O  O61  1  0.12455700  0.12500600  0.51847500  1
  O  O62  1  0.94359000  0.64156700  0.51543900  1
  O  O63  1  0.01731600  0.73173400  0.62650800  1
  O  O64  1  0.26927800  0.98148700  0.16669800  1
  O  O65  1  0.52731800  0.56973200  0.76123000  1
  O  O66  1  0.43922800  0.48794000  0.17624700  1
  O  O67  1  0.42043100  0.83141400  0.86683300  1
  O  O68  1  0.35059500  0.73456100  0.60843300  1
  O  O69  1  0.09235900  0.81906800  0.35925500  1
  O  O70  1  0.51080400  0.56600200  0.27689800  1
  O  O71  1  0.27872600  0.64971600  0.01155100  1
loop_
_geom_bond_atom_site_label_1
_geom_bond_atom_site_label_2
_geom_bond_distance
_geom_bond_site_symmetry_2
Nb0 O33 1.849549 1_555
Nb0 O62 1.928127 1_555
Nb0 O52 1.976437 1_555
Nb0 O50 2.089970 1_655
Nb0 O43 2.155875 1_655
Nb0 O38 2.315986 1_655
Nb1 O44 1.841687 1_545
Nb1 O17 1.941026 1_556
Nb1 O11 1.977242 1_555
Nb1 O53 2.078979 1_555
Nb1 O21 2.154788 1_555
Nb1 O35 2.324319 1_555
Nb2 O30 1.845020 1_555
Nb2 O49 1.936510 1_655
Nb2 O10 1.987692 1_555
Nb2 O0 2.064445 1_556
Nb2 O59 2.145272 1_556
Nb2 O36 2.344203 1_556
Nb3 O71 1.850685 1_555
Nb3 O69 1.923397 1_555
Nb3 O38 1.990952 1_555
Nb3 O46 2.072279 1_455
Nb3 O43 2.143017 1_555
Nb3 O52 2.347952 1_455
Nb4 O57 1.845020 1_555
Nb4 O56 1.936504 1_555
Nb4 O25 1.987692 1_555
Nb4 O65 2.064440 1_555
Nb4 O41 2.145272 1_555
Nb4 O26 2.344211 1_555
Nb5 O51 1.849555 1_555
Nb5 O37 1.928132 1_545
Nb5 O67 1.976437 1_545
Nb5 O15 2.089970 1_556
Nb5 O6 2.155875 1_556
Nb5 O64 2.315993 1_546
Nb6 O1 1.849563 1_555
Nb6 O68 1.928126 1_555
Nb6 O7 1.976437 1_555
Nb6 O32 2.089970 1_565
Nb6 O61 2.155875 1_565
Nb6 O28 2.316001 1_555
Nb7 O14 1.841692 1_555
Nb7 O4 1.941026 1_555
Nb7 O3 1.977238 1_555
Nb7 O48 2.078979 1_455
Nb7 O63 2.154788 1_555
Nb7 O31 2.324319 1_455
Nb8 O16 1.845020 1_555
Nb8 O19 1.936504 1_556
Nb8 O31 1.987692 1_555
Nb8 O27 2.064435 1_655
Nb8 O63 2.145272 1_655
Nb8 O3 2.344196 1_655
Nb9 O8 1.850685 1_565
Nb9 O58 1.923387 1_555
Nb9 O64 1.990940 1_555
Nb9 O18 2.072279 1_554
Nb9 O6 2.143017 1_565
Nb9 O67 2.347952 1_554
Nb10 O29 1.841699 1_555
Nb10 O23 1.941026 1_655
Nb10 O26 1.977232 1_555
Nb10 O54 2.078979 1_555
Nb10 O41 2.154788 1_555
Nb10 O25 2.324319 1_555
Nb11 O5 1.850685 1_555
Nb11 O9 1.923384 1_545
Nb11 O28 1.990946 1_545
Nb11 O20 2.072279 1_555
Nb11 O61 2.143017 1_555
Nb11 O7 2.347952 1_545
Nb12 O66 1.849554 1_555
Nb12 O34 1.928118 1_555
Nb12 O55 1.976437 1_555
Nb12 O39 2.089970 1_555
Nb12 O47 2.155875 1_555
Nb12 O42 2.315989 1_555
Nb13 O60 1.845020 1_555
Nb13 O24 1.936495 1_555
Nb13 O35 1.987692 1_555
Nb13 O13 2.064440 1_555
Nb13 O21 2.145272 1_555
Nb13 O11 2.344199 1_555
Nb14 O70 1.841696 1_555
Nb14 O2 1.941026 1_555
Nb14 O36 1.977225 1_555
Nb14 O22 2.078979 1_554
Nb14 O59 2.154788 1_555
Nb14 O10 2.324319 1_554
Nb15 O12 1.850685 1_545
Nb15 O40 1.923388 1_555
Nb15 O42 1.990956 1_555
Nb15 O45 2.072279 1_555
Nb15 O47 2.143017 1_555
Nb15 O55 2.347952 1_555
Ni0 O71 2.000655 1_556
Ni0 O60 2.030365 1_555
Ni0 O68 2.058139 1_555
Ni0 O4 2.111372 1_555
Ni0 O18 2.138253 1_555
Ni0 O65 2.241715 1_555
Ni1 O41 2.022597 1_555
Ni1 O28 2.039150 1_555
Ni1 O67 2.042019 1_555
Ni1 O65 2.135906 1_555
Ni1 O68 2.191661 1_555
Ni1 O18 2.199178 1_555
Ni2 O8 2.000655 1_655
Ni2 O57 2.030365 1_555
Ni2 O34 2.058145 1_555
Ni2 O2 2.111372 1_555
Ni2 O46 2.138253 1_545
Ni2 O13 2.241722 1_555
Ni3 O21 2.022741 1_555
Ni3 O55 2.041194 1_555
Ni3 O3 2.045262 1_555
Ni3 O53 2.156941 1_555
Ni3 O27 2.172836 1_555
Ni3 O40 2.178130 1_555
Ni4 O5 2.000655 1_555
Ni4 O30 2.030365 1_455
Ni4 O62 2.058141 1_455
Ni4 O23 2.111372 1_555
Ni4 O45 2.138253 1_555
Ni4 O27 2.241730 1_555
Ni5 O2 2.023133 1_556
Ni5 O4 2.023133 1_645
Ni5 O32 2.154777 1_655
Ni5 O39 2.154777 1_556
Ni5 O18 2.220308 1_645
Ni5 O46 2.220308 1_546
Ni6 O17 2.023133 1_555
Ni6 O23 2.023133 1_555
Ni6 O50 2.154777 1_555
Ni6 O15 2.154777 1_555
Ni6 O45 2.220308 1_555
Ni6 O20 2.220308 1_555
Ni7 O59 2.022597 1_555
Ni7 O64 2.039155 1_555
Ni7 O7 2.042019 1_555
Ni7 O0 2.135910 1_555
Ni7 O37 2.191653 1_554
Ni7 O20 2.199178 1_565
Ni8 O60 2.024224 1_555
Ni8 O57 2.024224 1_555
Ni8 O70 2.035024 1_555
Ni8 O14 2.035030 1_555
Ni8 O68 2.142344 1_555
Ni8 O34 2.142356 1_555
Ni9 O51 2.027525 1_555
Ni9 O5 2.033390 1_555
Ni9 O49 2.092749 1_555
Ni9 O40 2.125792 1_555
Ni9 O53 2.145187 1_555
Ni9 O27 2.148676 1_555
Ni10 O41 2.022741 1_555
Ni10 O7 2.041194 1_555
Ni10 O36 2.045273 1_555
Ni10 O54 2.156941 1_555
Ni10 O0 2.172842 1_555
Ni10 O9 2.178117 1_555
Ni11 O6 2.022888 1_655
Ni11 O36 2.037669 1_555
Ni11 O25 2.048526 1_555
Ni11 O15 2.136516 1_655
Ni11 O54 2.155589 1_555
Ni11 O49 2.196446 1_654
Ni12 O1 2.013471 1_555
Ni12 O66 2.013483 1_555
Ni12 O70 2.070188 1_555
Ni12 O14 2.070194 1_555
Ni12 O69 2.127102 1_555
Ni12 O58 2.127109 1_555
Ni13 O47 2.022888 1_556
Ni13 O11 2.037655 1_555
Ni13 O31 2.048526 1_545
Ni13 O39 2.136516 1_556
Ni13 O48 2.155589 1_545
Ni13 O24 2.196443 1_555
Ni14 O16 2.024224 1_555
Ni14 O30 2.024224 1_555
Ni14 O29 2.035015 1_555
Ni14 O44 2.035025 1_555
Ni14 O37 2.142348 1_555
Ni14 O62 2.142352 1_555
Ni15 O21 2.022597 1_555
Ni15 O42 2.039142 1_555
Ni15 O52 2.042019 1_545
Ni15 O13 2.135895 1_555
Ni15 O34 2.191649 1_555
Ni15 O46 2.199178 1_545
Ni16 O43 2.022888 1_556
Ni16 O3 2.037664 1_555
Ni16 O35 2.048526 1_555
Ni16 O50 2.136516 1_556
Ni16 O53 2.155589 1_555
Ni16 O19 2.196438 1_456
Ni17 O31 2.028962 1_554
Ni17 O43 2.029101 1_655
Ni17 O42 2.035700 1_565
Ni17 O46 2.116424 1_555
Ni17 O39 2.201172 1_565
Ni17 O4 2.213089 1_654
Ni18 O35 2.028962 1_554
Ni18 O47 2.029101 1_555
Ni18 O38 2.035696 1_555
Ni18 O45 2.116424 1_555
Ni18 O50 2.201172 1_555
Ni18 O17 2.213089 1_555
Ni19 O59 2.022741 1_556
Ni19 O67 2.041194 1_555
Ni19 O26 2.045268 1_555
Ni19 O22 2.156941 1_555
Ni19 O65 2.172851 1_555
Ni19 O58 2.178121 1_556
Ni20 O56 2.074451 1_555
Ni20 O24 2.074458 1_555
Ni20 O39 2.135777 1_556
Ni20 O32 2.135777 1_655
Ni20 O22 2.184602 1_555
Ni20 O48 2.184602 1_545
Ni21 O33 2.027546 1_555
Ni21 O12 2.033400 1_555
Ni21 O19 2.092758 1_555
Ni21 O9 2.125792 1_555
Ni21 O54 2.145176 1_555
Ni21 O0 2.148654 1_555
Ni22 O49 2.074443 1_554
Ni22 O19 2.074453 1_455
Ni22 O50 2.135777 1_555
Ni22 O15 2.135777 1_555
Ni22 O53 2.184602 1_554
Ni22 O54 2.184602 1_455
Ni23 O66 2.027529 1_556
Ni23 O71 2.033404 1_556
Ni23 O24 2.092766 1_555
Ni23 O58 2.125792 1_556
Ni23 O22 2.145172 1_555
Ni23 O65 2.148670 1_555
Ni24 O12 2.000655 1_555
Ni24 O16 2.030365 1_554
Ni24 O37 2.058131 1_554
Ni24 O17 2.111372 1_565
Ni24 O20 2.138253 1_565
Ni24 O0 2.241719 1_555
Ni25 O61 2.022888 1_655
Ni25 O26 2.037664 1_555
Ni25 O10 2.048526 1_555
Ni25 O32 2.136516 1_655
Ni25 O22 2.155589 1_555
Ni25 O56 2.196454 1_555
Ni26 O63 2.022741 1_655
Ni26 O52 2.041194 1_555
Ni26 O11 2.045266 1_565
Ni26 O48 2.156941 1_555
Ni26 O13 2.172840 1_565
Ni26 O69 2.178126 1_655
Ni27 O10 2.028962 1_455
Ni27 O6 2.029101 1_556
Ni27 O28 2.035702 1_545
Ni27 O18 2.116424 1_545
Ni27 O32 2.201172 1_555
Ni27 O2 2.213089 1_456
Ni28 O1 2.027517 1_645
Ni28 O8 2.033399 1_655
Ni28 O56 2.092740 1_555
Ni28 O69 2.125792 1_645
Ni28 O48 2.145179 1_545
Ni28 O13 2.148685 1_555
Ni29 O63 2.022597 1_555
Ni29 O38 2.039151 1_555
Ni29 O55 2.042019 1_555
Ni29 O27 2.135903 1_555
Ni29 O62 2.191645 1_455
Ni29 O45 2.199178 1_555
Ni30 O51 2.013475 1_565
Ni30 O33 2.013479 1_555
Ni30 O29 2.070192 1_555
Ni30 O44 2.070202 1_555
Ni30 O40 2.127106 1_565
Ni30 O9 2.127117 1_555
Ni31 O25 2.028962 1_455
Ni31 O61 2.029101 1_555
Ni31 O64 2.035707 1_545
Ni31 O20 2.116424 1_555
Ni31 O15 2.201172 1_555
Ni31 O23 2.213089 1_555
