# generated using pymatgen
data_Fe2(TeO3)3
_symmetry_space_group_name_H-M   'P 1'
_cell_length_a   5.35301200
_cell_length_b   7.93573600
_cell_length_c   18.02205000
_cell_angle_alpha   90.00000000
_cell_angle_beta   90.00000000
_cell_angle_gamma   90.00000000
_symmetry_Int_Tables_number   1
_chemical_formula_structural   Fe2(TeO3)3
_chemical_formula_sum   'Fe8 Te12 O36'
_cell_volume   765.57830665
_cell_formula_units_Z   4
loop_
 _symmetry_equiv_pos_site_id
 _symmetry_equiv_pos_as_xyz
  1  'x, y, z'
loop_
 _atom_site_type_symbol
 _atom_site_label
 _atom_site_symmetry_multiplicity
 _atom_site_fract_x
 _atom_site_fract_y
 _atom_site_fract_z
 _atom_site_occupancy
  Fe  Fe0  1  0.70802500  0.80090400  0.56475300  1
  Fe  Fe1  1  0.79197500  0.30090400  0.93524700  1
  Fe  Fe2  1  0.29197500  0.19909600  0.43524700  1
  Fe  Fe3  1  0.29197500  0.19909600  0.06475300  1
  Fe  Fe4  1  0.20802500  0.69909600  0.43524700  1
  Fe  Fe5  1  0.79197500  0.30090400  0.56475300  1
  Fe  Fe6  1  0.70802500  0.80090400  0.93524700  1
  Fe  Fe7  1  0.20802500  0.69909600  0.06475300  1
  Te  Te0  1  0.18795700  0.61836100  0.87368000  1
  Te  Te1  1  0.31204300  0.11836100  0.62632000  1
  Te  Te2  1  0.22394100  0.16215400  0.25000000  1
  Te  Te3  1  0.81204300  0.38163900  0.37368000  1
  Te  Te4  1  0.68795700  0.88163900  0.37368000  1
  Te  Te5  1  0.27605900  0.66215400  0.25000000  1
  Te  Te6  1  0.77605900  0.83784600  0.75000000  1
  Te  Te7  1  0.72394100  0.33784600  0.75000000  1
  Te  Te8  1  0.31204300  0.11836100  0.87368000  1
  Te  Te9  1  0.18795700  0.61836100  0.62632000  1
  Te  Te10  1  0.68795700  0.88163900  0.12632000  1
  Te  Te11  1  0.81204300  0.38163900  0.12632000  1
  O  O0  1  0.52431600  0.66310500  0.12327800  1
  O  O1  1  0.45903200  0.87341300  0.25000000  1
  O  O2  1  0.87710700  0.81594600  0.46398300  1
  O  O3  1  0.97568400  0.16310500  0.12327800  1
  O  O4  1  0.97568400  0.16310500  0.37672200  1
  O  O5  1  0.10975900  0.45357300  0.42881100  1
  O  O6  1  0.04096800  0.37341300  0.25000000  1
  O  O7  1  0.02431600  0.83689500  0.62327800  1
  O  O8  1  0.47568400  0.33689500  0.87672200  1
  O  O9  1  0.12289300  0.18405400  0.53601700  1
  O  O10  1  0.37710700  0.68405400  0.53601700  1
  O  O11  1  0.45202900  0.22310600  0.32940600  1
  O  O12  1  0.39024100  0.95357300  0.07118900  1
  O  O13  1  0.45202900  0.22310600  0.17059400  1
  O  O14  1  0.95202900  0.27689400  0.82940600  1
  O  O15  1  0.89024100  0.54642700  0.57118900  1
  O  O16  1  0.87710700  0.81594600  0.03601700  1
  O  O17  1  0.60975900  0.04642700  0.57118900  1
  O  O18  1  0.54096800  0.12658700  0.75000000  1
  O  O19  1  0.54797100  0.77689400  0.67059400  1
  O  O20  1  0.62289300  0.31594600  0.46398300  1
  O  O21  1  0.54797100  0.77689400  0.82940600  1
  O  O22  1  0.60975900  0.04642700  0.92881100  1
  O  O23  1  0.62289300  0.31594600  0.03601700  1
  O  O24  1  0.89024100  0.54642700  0.92881100  1
  O  O25  1  0.95202900  0.27689400  0.67059400  1
  O  O26  1  0.37710700  0.68405400  0.96398300  1
  O  O27  1  0.12289300  0.18405400  0.96398300  1
  O  O28  1  0.47568400  0.33689500  0.62327800  1
  O  O29  1  0.95903200  0.62658700  0.75000000  1
  O  O30  1  0.04797100  0.72310600  0.32940600  1
  O  O31  1  0.04797100  0.72310600  0.17059400  1
  O  O32  1  0.02431600  0.83689500  0.87672200  1
  O  O33  1  0.39024100  0.95357300  0.42881100  1
  O  O34  1  0.10975900  0.45357300  0.07118900  1
  O  O35  1  0.52431600  0.66310500  0.37672200  1
loop_
_geom_bond_atom_site_label_1
_geom_bond_atom_site_label_2
_geom_bond_distance
_geom_bond_site_symmetry_2
Fe0 O7 2.015111 1_655
Fe0 O17 2.021493 1_565
Fe0 O2 2.032635 1_555
Fe0 O10 2.065419 1_555
Fe0 O19 2.099717 1_555
Fe0 O15 2.245684 1_555
Fe1 O8 2.015111 1_555
Fe1 O24 2.021493 1_555
Fe1 O23 2.032635 1_556
Fe1 O27 2.065419 1_655
Fe1 O14 2.099717 1_555
Fe1 O22 2.245684 1_555
Fe2 O4 2.015111 1_455
Fe2 O33 2.021493 1_545
Fe2 O9 2.032635 1_555
Fe2 O20 2.065419 1_555
Fe2 O11 2.099717 1_555
Fe2 O5 2.245684 1_555
Fe3 O3 2.015111 1_455
Fe3 O12 2.021493 1_545
Fe3 O27 2.032635 1_554
Fe3 O23 2.065419 1_555
Fe3 O13 2.099717 1_555
Fe3 O34 2.245684 1_555
Fe4 O35 2.015111 1_555
Fe4 O5 2.021493 1_555
Fe4 O10 2.032635 1_555
Fe4 O2 2.065419 1_455
Fe4 O30 2.099717 1_555
Fe4 O33 2.245684 1_555
Fe5 O28 2.015111 1_555
Fe5 O15 2.021493 1_555
Fe5 O20 2.032635 1_555
Fe5 O9 2.065419 1_655
Fe5 O25 2.099717 1_555
Fe5 O17 2.245684 1_555
Fe6 O32 2.015111 1_655
Fe6 O22 2.021493 1_565
Fe6 O16 2.032635 1_556
Fe6 O26 2.065419 1_555
Fe6 O21 2.099717 1_555
Fe6 O24 2.245684 1_555
Fe7 O0 2.015111 1_555
Fe7 O34 2.021493 1_555
Fe7 O26 2.032635 1_554
Fe7 O16 2.065419 1_455
Fe7 O31 2.099717 1_555
Fe7 O12 2.245684 1_555
O0 Te10 1.943677 1_555
O0 Te5 2.642308 1_555
O0 Te11 2.713740 1_555
O1 Te5 1.941642 1_555
O1 Te10 2.544456 1_555
O1 Te4 2.544456 1_555
O1 Te2 2.614206 1_565
O2 Te4 1.986342 1_555
O3 Te11 1.943677 1_555
O3 Te2 2.642308 1_655
O3 Te10 2.713740 1_545
O4 Te3 1.943677 1_555
O4 Te2 2.642308 1_655
O4 Te4 2.713740 1_545
O5 Te3 1.962872 1_455
O6 Te2 1.941642 1_555
O6 Te11 2.544456 1_455
O6 Te3 2.544456 1_455
O6 Te5 2.614206 1_555
O7 Te9 1.943677 1_555
O7 Te6 2.642308 1_455
O7 Te1 2.713740 1_565
O8 Te8 1.943677 1_555
O8 Te7 2.642308 1_555
O8 Te0 2.713740 1_555
O9 Te1 1.986342 1_555
O10 Te9 1.986342 1_555
O11 Te2 1.942327 1_555
O11 Te3 2.435848 1_555
O12 Te10 1.962872 1_555
O13 Te2 1.942327 1_555
O13 Te11 2.435848 1_555
O14 Te7 1.942327 1_555
O14 Te8 2.435848 1_655
O15 Te9 1.962872 1_655
O16 Te10 1.986342 1_555
O17 Te1 1.962872 1_555
O18 Te7 1.941642 1_555
O18 Te1 2.544456 1_555
O18 Te8 2.544456 1_555
O18 Te6 2.614206 1_545
O19 Te6 1.942327 1_555
O19 Te9 2.435848 1_555
O20 Te3 1.986342 1_555
O21 Te6 1.942327 1_555
O21 Te0 2.435848 1_555
O22 Te8 1.962872 1_555
O23 Te11 1.986342 1_555
O24 Te0 1.962872 1_655
O25 Te7 1.942327 1_555
O25 Te1 2.435848 1_655
O26 Te0 1.986342 1_555
O27 Te8 1.986342 1_555
O28 Te1 1.943677 1_555
O28 Te7 2.642308 1_555
O28 Te9 2.713740 1_555
O29 Te6 1.941642 1_555
O29 Te9 2.544456 1_655
O29 Te0 2.544456 1_655
O29 Te7 2.614206 1_555
O30 Te5 1.942327 1_555
O30 Te4 2.435848 1_455
O31 Te5 1.942327 1_555
O31 Te10 2.435848 1_455
O32 Te0 1.943677 1_555
O32 Te6 2.642308 1_455
O32 Te8 2.713740 1_565
O33 Te4 1.962872 1_555
O34 Te11 1.962872 1_455
O35 Te4 1.943677 1_555
O35 Te5 2.642308 1_555
O35 Te3 2.713740 1_555
