# generated using pymatgen
data_LaTiAlPbO6
_symmetry_space_group_name_H-M   'P 1'
_cell_length_a   3.90594400
_cell_length_b   5.49647000
_cell_length_c   22.05656900
_cell_angle_alpha   90.00000000
_cell_angle_beta   90.00000000
_cell_angle_gamma   90.00000000
_symmetry_Int_Tables_number   1
_chemical_formula_structural   LaTiAlPbO6
_chemical_formula_sum   'La4 Ti4 Al4 Pb4 O24'
_cell_volume   473.53036282
_cell_formula_units_Z   4
loop_
 _symmetry_equiv_pos_site_id
 _symmetry_equiv_pos_as_xyz
  1  'x, y, z'
loop_
 _atom_site_type_symbol
 _atom_site_label
 _atom_site_symmetry_multiplicity
 _atom_site_fract_x
 _atom_site_fract_y
 _atom_site_fract_z
 _atom_site_occupancy
  La  La0  1  0.00000000  0.75000000  0.31823900  1
  La  La1  1  0.00000000  0.75000000  0.56197100  1
  La  La2  1  0.00000000  0.25000000  0.68176100  1
  La  La3  1  0.00000000  0.25000000  0.43802900  1
  Ti  Ti0  1  0.50000000  0.75000000  0.93530400  1
  Ti  Ti1  1  0.50000000  0.75000000  0.19268100  1
  Ti  Ti2  1  0.50000000  0.25000000  0.06469600  1
  Ti  Ti3  1  0.50000000  0.25000000  0.80731900  1
  Al  Al0  1  0.50000000  0.75000000  0.43917900  1
  Al  Al1  1  0.50000000  0.25000000  0.31716800  1
  Al  Al2  1  0.50000000  0.25000000  0.56082100  1
  Al  Al3  1  0.50000000  0.75000000  0.68283200  1
  Pb  Pb0  1  0.00000000  0.75000000  0.80699400  1
  Pb  Pb1  1  0.00000000  0.25000000  0.93803600  1
  Pb  Pb2  1  0.00000000  0.75000000  0.06196400  1
  Pb  Pb3  1  0.00000000  0.25000000  0.19300600  1
  O  O0  1  0.00000000  0.75000000  0.93773000  1
  O  O1  1  0.00000000  0.25000000  0.06227000  1
  O  O2  1  0.00000000  0.75000000  0.43763200  1
  O  O3  1  0.00000000  0.75000000  0.68049900  1
  O  O4  1  0.50000000  0.00102200  0.87206000  1
  O  O5  1  0.50000000  0.49897800  0.87206000  1
  O  O6  1  0.50000000  0.50000000  0.00000000  1
  O  O7  1  0.50000000  0.00000000  0.00000000  1
  O  O8  1  0.50000000  0.99897800  0.12794000  1
  O  O9  1  0.50000000  0.50102200  0.12794000  1
  O  O10  1  0.50000000  0.50422600  0.25742600  1
  O  O11  1  0.50000000  0.99577400  0.25742600  1
  O  O12  1  0.50000000  0.99924200  0.37790200  1
  O  O13  1  0.50000000  0.50075800  0.37790200  1
  O  O14  1  0.50000000  0.00000000  0.50000000  1
  O  O15  1  0.50000000  0.50000000  0.50000000  1
  O  O16  1  0.50000000  0.00075800  0.62209800  1
  O  O17  1  0.50000000  0.49924200  0.62209800  1
  O  O18  1  0.50000000  0.49577400  0.74257400  1
  O  O19  1  0.50000000  0.00422600  0.74257400  1
  O  O20  1  0.00000000  0.25000000  0.80422700  1
  O  O21  1  0.00000000  0.75000000  0.19577300  1
  O  O22  1  0.00000000  0.25000000  0.31950100  1
  O  O23  1  0.00000000  0.25000000  0.56236800  1
loop_
_geom_bond_atom_site_label_1
_geom_bond_atom_site_label_2
_geom_bond_distance
_geom_bond_site_symmetry_2
La0 O2 2.633400 1_555
La0 O21 2.701180 1_555
La0 O12 2.724448 1_555
La0 O12 2.724448 1_455
La0 O13 2.724448 1_455
La0 O13 2.724448 1_555
La0 O10 2.727299 1_455
La0 O10 2.727299 1_555
La0 O11 2.727299 1_455
La0 O11 2.727299 1_555
La0 O22 2.748376 1_555
La0 O22 2.748376 1_565
La1 O3 2.614321 1_555
La1 O16 2.733598 1_565
La1 O16 2.733598 1_465
La1 O17 2.733598 1_555
La1 O17 2.733598 1_455
La1 O2 2.742492 1_555
La1 O23 2.748249 1_555
La1 O23 2.748249 1_565
La1 O15 2.751477 1_555
La1 O14 2.751477 1_565
La1 O14 2.751477 1_465
La1 O15 2.751477 1_455
La2 O23 2.633400 1_555
La2 O20 2.701180 1_555
La2 O16 2.724448 1_455
La2 O16 2.724448 1_555
La2 O17 2.724448 1_455
La2 O17 2.724448 1_555
La2 O18 2.727299 1_555
La2 O19 2.727299 1_455
La2 O19 2.727299 1_555
La2 O18 2.727299 1_455
La2 O3 2.748376 1_545
La2 O3 2.748376 1_555
La3 O22 2.614321 1_555
La3 O13 2.733598 1_555
La3 O12 2.733598 1_545
La3 O12 2.733598 1_445
La3 O13 2.733598 1_455
La3 O23 2.742492 1_555
La3 O2 2.748249 1_545
La3 O2 2.748249 1_555
La3 O14 2.751477 1_555
La3 O15 2.751477 1_555
La3 O14 2.751477 1_455
La3 O15 2.751477 1_455
Al0 O15 1.920372 1_555
Al0 O14 1.920372 1_565
Al0 O12 1.924443 1_555
Al0 O13 1.924443 1_555
Al0 O2 1.953270 1_655
Al0 O2 1.953270 1_555
Al1 O10 1.920655 1_555
Al1 O11 1.920655 1_545
Al1 O13 1.922017 1_555
Al1 O12 1.922017 1_545
Al1 O22 1.953650 1_655
Al1 O22 1.953650 1_555
Al2 O15 1.920372 1_555
Al2 O14 1.920372 1_555
Al2 O16 1.924443 1_555
Al2 O17 1.924443 1_555
Al2 O23 1.953270 1_655
Al2 O23 1.953270 1_555
Al3 O18 1.920655 1_555
Al3 O19 1.920655 1_565
Al3 O17 1.922017 1_555
Al3 O16 1.922017 1_565
Al3 O3 1.953650 1_555
Al3 O3 1.953650 1_655
O0 Ti0 1.953705 1_555
O0 Ti0 1.953705 1_455
O0 Pb2 2.740176 1_556
O0 Pb1 2.748243 1_555
O0 Pb1 2.748243 1_565
O0 Pb0 2.883588 1_555
O1 Ti2 1.953705 1_455
O1 Ti2 1.953705 1_555
O1 Pb1 2.740176 1_554
O1 Pb2 2.748243 1_545
O1 Pb2 2.748243 1_555
O1 Pb3 2.883588 1_555
O3 Pb0 2.790046 1_555
O4 Ti0 1.962025 1_545
O4 Ti3 1.977846 1_555
O4 Pb0 2.788794 1_545
O4 Pb0 2.788794 1_645
O4 Pb1 2.793656 1_555
O4 Pb1 2.793656 1_655
O5 Ti0 1.962025 1_555
O5 Ti3 1.977846 1_555
O5 Pb0 2.788794 1_655
O5 Pb0 2.788794 1_555
O5 Pb1 2.793656 1_555
O5 Pb1 2.793656 1_655
O6 Ti0 1.981022 1_554
O6 Ti2 1.981022 1_555
O6 Pb1 2.751400 1_654
O6 Pb1 2.751400 1_554
O6 Pb2 2.751400 1_555
O6 Pb2 2.751400 1_655
O7 Ti0 1.981022 1_544
O7 Ti2 1.981022 1_555
O7 Pb2 2.751400 1_645
O7 Pb1 2.751400 1_654
O7 Pb1 2.751400 1_554
O7 Pb2 2.751400 1_545
O8 Ti2 1.962025 1_565
O8 Ti1 1.977846 1_555
O8 Pb3 2.788794 1_565
O8 Pb3 2.788794 1_665
O8 Pb2 2.793656 1_655
O8 Pb2 2.793656 1_555
O9 Ti2 1.962025 1_555
O9 Ti1 1.977846 1_555
O9 Pb3 2.788794 1_655
O9 Pb3 2.788794 1_555
O9 Pb2 2.793656 1_655
O9 Pb2 2.793656 1_555
O10 Ti1 1.965766 1_555
O10 Pb3 2.790266 1_655
O10 Pb3 2.790266 1_555
O11 Ti1 1.965766 1_555
O11 Pb3 2.790266 1_565
O11 Pb3 2.790266 1_665
O18 Ti3 1.965766 1_555
O18 Pb0 2.790266 1_655
O18 Pb0 2.790266 1_555
O19 Ti3 1.965766 1_555
O19 Pb0 2.790266 1_645
O19 Pb0 2.790266 1_545
O20 Ti3 1.954162 1_455
O20 Ti3 1.954162 1_555
O20 Pb0 2.748913 1_545
O20 Pb0 2.748913 1_555
O21 Ti1 1.954162 1_555
O21 Ti1 1.954162 1_455
O21 Pb3 2.748913 1_565
O21 Pb3 2.748913 1_555
O22 Pb3 2.790046 1_555
