# generated using pymatgen
data_Yb2Ce8O19
_symmetry_space_group_name_H-M   'P 1'
_cell_length_a   3.86298600
_cell_length_b   3.86298600
_cell_length_c   27.04122400
_cell_angle_alpha   90.00000000
_cell_angle_beta   90.00000000
_cell_angle_gamma   90.00000000
_symmetry_Int_Tables_number   1
_chemical_formula_structural   Yb2Ce8O19
_chemical_formula_sum   'Yb2 Ce8 O19'
_cell_volume   403.52701435
_cell_formula_units_Z   1
loop_
 _symmetry_equiv_pos_site_id
 _symmetry_equiv_pos_as_xyz
  1  'x, y, z'
loop_
 _atom_site_type_symbol
 _atom_site_label
 _atom_site_symmetry_multiplicity
 _atom_site_fract_x
 _atom_site_fract_y
 _atom_site_fract_z
 _atom_site_occupancy
  Yb  Yb0  1  0.00000000  0.50000000  0.44572800  1
  Yb  Yb1  1  0.50000000  0.00000000  0.55427200  1
  Ce  Ce0  1  0.50000000  0.00000000  0.74831400  1
  Ce  Ce1  1  0.00000000  0.50000000  0.64670800  1
  Ce  Ce2  1  0.50000000  0.00000000  0.94966200  1
  Ce  Ce3  1  0.00000000  0.50000000  0.84927400  1
  Ce  Ce4  1  0.00000000  0.50000000  0.05033800  1
  Ce  Ce5  1  0.50000000  0.00000000  0.15072600  1
  Ce  Ce6  1  0.50000000  0.00000000  0.35329200  1
  Ce  Ce7  1  0.00000000  0.50000000  0.25168600  1
  O  O0  1  0.00000000  0.00000000  0.69868900  1
  O  O1  1  0.50000000  0.50000000  0.79932100  1
  O  O2  1  0.00000000  0.00000000  0.89980300  1
  O  O3  1  0.50000000  0.50000000  0.00000000  1
  O  O4  1  0.00000000  0.00000000  0.10019700  1
  O  O5  1  0.50000000  0.50000000  0.20067900  1
  O  O6  1  0.00000000  0.00000000  0.20031900  1
  O  O7  1  0.00000000  0.00000000  0.30131100  1
  O  O8  1  0.50000000  0.50000000  0.30063100  1
  O  O9  1  0.50000000  0.50000000  0.40008600  1
  O  O10  1  0.00000000  0.00000000  0.40296300  1
  O  O11  1  0.50000000  0.50000000  0.50000000  1
  O  O12  1  0.50000000  0.50000000  0.59991400  1
  O  O13  1  0.00000000  0.00000000  0.59703700  1
  O  O14  1  0.50000000  0.50000000  0.69936900  1
  O  O15  1  0.00000000  0.00000000  0.79968100  1
  O  O16  1  0.50000000  0.50000000  0.89957900  1
  O  O17  1  0.00000000  0.00000000  0.00000000  1
  O  O18  1  0.50000000  0.50000000  0.10042100  1
loop_
_geom_bond_atom_site_label_1
_geom_bond_atom_site_label_2
_geom_bond_distance
_geom_bond_site_symmetry_2
Ce0 O14 2.341453 1_555
Ce0 O14 2.341453 1_545
Ce0 O0 2.351896 1_655
Ce0 O0 2.351896 1_555
Ce0 O1 2.373418 1_555
Ce0 O1 2.373418 1_545
Ce0 O15 2.379088 1_655
Ce0 O15 2.379088 1_555
Ce1 O12 2.309073 1_455
Ce1 O12 2.309073 1_555
Ce1 O13 2.352606 1_555
Ce1 O13 2.352606 1_565
Ce1 O0 2.388820 1_565
Ce1 O0 2.388820 1_555
Ce1 O14 2.399686 1_455
Ce1 O14 2.399686 1_555
Ce2 O2 2.355512 1_555
Ce2 O2 2.355512 1_655
Ce2 O16 2.358985 1_545
Ce2 O16 2.358985 1_555
Ce2 O17 2.362950 1_556
Ce2 O3 2.362950 1_546
Ce2 O3 2.362950 1_556
Ce2 O17 2.362950 1_656
Ce3 O15 2.351403 1_555
Ce3 O15 2.351403 1_565
Ce3 O1 2.356968 1_455
Ce3 O1 2.356968 1_555
Ce3 O16 2.362436 1_555
Ce3 O16 2.362436 1_455
Ce3 O2 2.365929 1_555
Ce3 O2 2.365929 1_565
Ce4 O4 2.355512 1_555
Ce4 O4 2.355512 1_565
Ce4 O18 2.358985 1_555
Ce4 O18 2.358985 1_455
Ce4 O3 2.362950 1_555
Ce4 O17 2.362950 1_555
Ce4 O3 2.362950 1_455
Ce4 O17 2.362950 1_565
Ce5 O6 2.351403 1_555
Ce5 O6 2.351403 1_655
Ce5 O5 2.356968 1_555
Ce5 O5 2.356968 1_545
Ce5 O18 2.362436 1_555
Ce5 O18 2.362436 1_545
Ce5 O4 2.365929 1_555
Ce5 O4 2.365929 1_655
Ce6 O9 2.309073 1_545
Ce6 O9 2.309073 1_555
Ce6 O10 2.352606 1_555
Ce6 O10 2.352606 1_655
Ce6 O7 2.388820 1_655
Ce6 O7 2.388820 1_555
Ce6 O8 2.399686 1_545
Ce6 O8 2.399686 1_555
Ce7 O8 2.341453 1_555
Ce7 O8 2.341453 1_455
Ce7 O7 2.351896 1_555
Ce7 O7 2.351896 1_565
Ce7 O5 2.373418 1_555
Ce7 O5 2.373418 1_455
Ce7 O6 2.379088 1_565
Ce7 O6 2.379088 1_555
O9 Yb0 2.292150 1_655
O9 Yb0 2.292150 1_555
O10 Yb0 2.251215 1_545
O10 Yb0 2.251215 1_555
O11 Yb1 2.425791 1_565
O11 Yb0 2.425791 1_555
O11 Yb1 2.425791 1_555
O11 Yb0 2.425791 1_655
O12 Yb1 2.292150 1_565
O12 Yb1 2.292150 1_555
O13 Yb1 2.251215 1_455
O13 Yb1 2.251215 1_555
