# generated using pymatgen
data_La10Mg(Ga3O10)3
_symmetry_space_group_name_H-M   'P 1'
_cell_length_a   7.89488900
_cell_length_b   9.55362851
_cell_length_c   9.69238924
_cell_angle_alpha   81.29427865
_cell_angle_beta   113.66213325
_cell_angle_gamma   113.28924068
_symmetry_Int_Tables_number   1
_chemical_formula_structural   La10Mg(Ga3O10)3
_chemical_formula_sum   'La10 Mg1 Ga9 O30'
_cell_volume   615.00558416
_cell_formula_units_Z   1
loop_
 _symmetry_equiv_pos_site_id
 _symmetry_equiv_pos_as_xyz
  1  'x, y, z'
loop_
 _atom_site_type_symbol
 _atom_site_label
 _atom_site_symmetry_multiplicity
 _atom_site_fract_x
 _atom_site_fract_y
 _atom_site_fract_z
 _atom_site_occupancy
  La  La0  1  0.15456500  0.10053400  0.20255800  1
  La  La1  1  0.74980100  0.50044600  0.00033200  1
  La  La2  1  0.65021800  0.10035600  0.20368300  1
  La  La3  1  0.34978200  0.89964400  0.79631700  1
  La  La4  1  0.25019900  0.49955400  0.99966800  1
  La  La5  1  0.94649200  0.29828600  0.60019200  1
  La  La6  1  0.84543500  0.89946600  0.79744200  1
  La  La7  1  0.54896100  0.70440300  0.40171000  1
  La  La8  1  0.45103900  0.29559700  0.59829000  1
  La  La9  1  0.05350800  0.70171400  0.39980800  1
  Mg  Mg0  1  0.50000000  0.00000000  0.50000000  1
  Ga  Ga0  1  0.10005200  0.39958100  0.29963500  1
  Ga  Ga1  1  0.69951900  0.79892200  0.09948400  1
  Ga  Ga2  1  0.59996400  0.40042500  0.29952800  1
  Ga  Ga3  1  0.30048100  0.20107800  0.90051600  1
  Ga  Ga4  1  0.19836300  0.79918700  0.09847400  1
  Ga  Ga5  1  0.89994800  0.60041900  0.70036500  1
  Ga  Ga6  1  0.80163700  0.20081300  0.90152600  1
  Ga  Ga7  1  0.40003600  0.59957500  0.70047200  1
  Ga  Ga8  1  0.00000000  0.00000000  0.50000000  1
  O  O0  1  0.33467500  0.41273700  0.25601200  1
  O  O1  1  0.90717800  0.26785900  0.11388200  1
  O  O2  1  0.09329700  0.58212400  0.16844800  1
  O  O3  1  0.70883900  0.61147500  0.22744300  1
  O  O4  1  0.93137800  0.80858100  0.05322100  1
  O  O5  1  0.89427100  0.92331600  0.28450500  1
  O  O6  1  0.50932600  0.66705400  0.91564800  1
  O  O7  1  0.46386800  0.78207900  0.14150400  1
  O  O8  1  0.69315100  0.98240700  0.96937000  1
  O  O9  1  0.30684900  0.01759300  0.03063000  1
  O  O10  1  0.53613200  0.21792100  0.85849600  1
  O  O11  1  0.49067400  0.33294600  0.08435200  1
  O  O12  1  0.10572900  0.07668400  0.71549500  1
  O  O13  1  0.06862200  0.19141900  0.94677900  1
  O  O14  1  0.29116100  0.38852500  0.77255700  1
  O  O15  1  0.90670300  0.41787600  0.83155200  1
  O  O16  1  0.13475900  0.61108800  0.65719500  1
  O  O17  1  0.09282200  0.73214100  0.88611800  1
  O  O18  1  0.71024600  0.46799300  0.51546200  1
  O  O19  1  0.66532500  0.58726300  0.74398800  1
  O  O20  1  0.89196000  0.78230500  0.57265600  1
  O  O21  1  0.50300600  0.80637500  0.62882100  1
  O  O22  1  0.74290600  0.01126400  0.45887000  1
  O  O23  1  0.69788200  0.12701000  0.69266500  1
  O  O24  1  0.30211800  0.87299000  0.30733500  1
  O  O25  1  0.25709400  0.98873600  0.54113000  1
  O  O26  1  0.49699400  0.19362500  0.37117900  1
  O  O27  1  0.10804000  0.21769500  0.42734400  1
  O  O28  1  0.28975400  0.53200700  0.48453800  1
  O  O29  1  0.86524100  0.38891200  0.34280500  1
loop_
_geom_bond_atom_site_label_1
_geom_bond_atom_site_label_2
_geom_bond_distance
_geom_bond_site_symmetry_2
La0 O26 2.400598 1_555
La0 O13 2.413361 1_554
La0 O5 2.423263 1_445
La0 O24 2.738364 1_545
La0 O9 2.758868 1_555
La0 O0 2.776585 1_555
La0 O1 2.795381 1_455
La0 O27 2.800047 1_555
La0 O4 2.875448 1_445
La1 O11 2.400671 1_555
La1 O2 2.404756 1_655
La1 O19 2.406115 1_554
La1 O4 2.741126 1_555
La1 O6 2.748614 1_554
La1 O15 2.760926 1_554
La1 O3 2.761286 1_555
La1 O10 2.771691 1_554
La1 O1 2.835084 1_555
La2 O22 2.404148 1_555
La2 O9 2.417454 1_555
La2 O1 2.421263 1_555
La2 O26 2.785583 1_555
La2 O29 2.808396 1_555
La2 O7 2.842385 1_545
La2 O11 2.850918 1_555
La2 O5 2.855027 1_545
La2 O8 2.870007 1_544
La3 O25 2.404148 1_555
La3 O8 2.417454 1_555
La3 O17 2.421263 1_555
La3 O21 2.785583 1_555
La3 O16 2.808396 1_555
La3 O10 2.842385 1_565
La3 O6 2.850918 1_555
La3 O12 2.855027 1_565
La3 O9 2.870007 1_566
La4 O6 2.400671 1_555
La4 O15 2.404756 1_455
La4 O0 2.406115 1_556
La4 O13 2.741126 1_555
La4 O11 2.748614 1_556
La4 O2 2.760926 1_556
La4 O14 2.761286 1_555
La4 O7 2.771691 1_556
La4 O17 2.835084 1_555
La5 O23 2.400355 1_555
La5 O14 2.422959 1_655
La5 O29 2.425988 1_555
La5 O18 2.745993 1_555
La5 O12 2.751754 1_655
La5 O16 2.788063 1_655
La5 O22 2.804184 1_555
La5 O27 2.812149 1_655
La5 O15 2.838541 1_555
La6 O21 2.400598 1_555
La6 O4 2.413361 1_556
La6 O12 2.423263 1_665
La6 O23 2.738364 1_565
La6 O8 2.758868 1_555
La6 O19 2.776585 1_555
La6 O17 2.795381 1_655
La6 O20 2.800047 1_555
La6 O13 2.875448 1_665
La7 O28 2.407942 1_555
La7 O20 2.410455 1_555
La7 O7 2.414593 1_555
La7 O21 2.737865 1_555
La7 O22 2.739915 1_565
La7 O24 2.798880 1_555
La7 O0 2.857725 1_555
La7 O3 2.878484 1_555
La7 O18 2.886435 1_555
La8 O18 2.407942 1_555
La8 O27 2.410455 1_555
La8 O10 2.414593 1_555
La8 O26 2.737865 1_555
La8 O25 2.739915 1_545
La8 O23 2.798880 1_555
La8 O19 2.857725 1_555
La8 O14 2.878484 1_555
La8 O28 2.886435 1_555
La9 O24 2.400355 1_555
La9 O3 2.422959 1_455
La9 O16 2.425988 1_555
La9 O28 2.745993 1_555
La9 O5 2.751754 1_455
La9 O29 2.788063 1_455
La9 O25 2.804184 1_555
La9 O20 2.812149 1_455
La9 O2 2.838541 1_555
Mg0 O24 2.060431 1_545
Mg0 O23 2.060431 1_555
Mg0 O22 2.070172 1_555
Mg0 O25 2.070172 1_545
Mg0 O21 2.071983 1_545
Mg0 O26 2.071983 1_555
Ga0 O27 1.982049 1_555
Ga0 O2 2.002198 1_555
Ga0 O0 2.013487 1_555
Ga0 O29 2.020485 1_455
Ga0 O28 2.022143 1_555
Ga0 O1 2.028242 1_455
Ga1 O5 1.994825 1_555
Ga1 O7 2.001159 1_555
Ga1 O8 2.003834 1_554
Ga1 O6 2.013149 1_554
Ga1 O4 2.018181 1_555
Ga1 O3 2.027103 1_555
Ga2 O26 1.953022 1_555
Ga2 O3 1.994385 1_555
Ga2 O11 2.008086 1_555
Ga2 O29 2.009307 1_555
Ga2 O0 2.012230 1_555
Ga2 O18 2.014183 1_555
Ga3 O12 1.994825 1_555
Ga3 O10 2.001159 1_555
Ga3 O9 2.003834 1_556
Ga3 O11 2.013149 1_556
Ga3 O13 2.018181 1_555
Ga3 O14 2.027103 1_555
Ga4 O24 1.977504 1_555
Ga4 O17 1.985287 1_554
Ga4 O4 2.009703 1_455
Ga4 O2 2.028308 1_555
Ga4 O7 2.035430 1_555
Ga4 O9 2.035511 1_565
Ga5 O20 1.982049 1_555
Ga5 O15 2.002198 1_555
Ga5 O19 2.013487 1_555
Ga5 O16 2.020485 1_655
Ga5 O18 2.022143 1_555
Ga5 O17 2.028242 1_655
Ga6 O23 1.977504 1_555
Ga6 O1 1.985287 1_556
Ga6 O13 2.009703 1_655
Ga6 O15 2.028308 1_555
Ga6 O10 2.035430 1_555
Ga6 O8 2.035511 1_545
Ga7 O21 1.953022 1_555
Ga7 O14 1.994385 1_555
Ga7 O6 2.008086 1_555
Ga7 O16 2.009307 1_555
Ga7 O19 2.012230 1_555
Ga7 O28 2.014183 1_555
Ga8 O25 1.949497 1_545
Ga8 O22 1.949497 1_455
Ga8 O5 2.043574 1_445
Ga8 O12 2.043574 1_555
Ga8 O20 2.045716 1_445
Ga8 O27 2.045716 1_555
