# generated using pymatgen
data_Ba3La3Ti4NbO18
_symmetry_space_group_name_H-M   'P 1'
_cell_length_a   14.17746172
_cell_length_b   14.17746172
_cell_length_c   14.17746113
_cell_angle_alpha   23.12808594
_cell_angle_beta   23.12808594
_cell_angle_gamma   23.12808292
_symmetry_Int_Tables_number   1
_chemical_formula_structural   Ba3La3Ti4NbO18
_chemical_formula_sum   'Ba3 La3 Ti4 Nb1 O18'
_cell_volume   385.91961152
_cell_formula_units_Z   1
loop_
 _symmetry_equiv_pos_site_id
 _symmetry_equiv_pos_as_xyz
  1  'x, y, z'
loop_
 _atom_site_type_symbol
 _atom_site_label
 _atom_site_symmetry_multiplicity
 _atom_site_fract_x
 _atom_site_fract_y
 _atom_site_fract_z
 _atom_site_occupancy
  Ba  Ba0  1  0.13810300  0.13810300  0.13810300  1
  Ba  Ba1  1  0.31223000  0.31223000  0.31223000  1
  Ba  Ba2  1  0.58398600  0.58398600  0.58398600  1
  La  La0  1  0.40964400  0.40964400  0.40964400  1
  La  La1  1  0.68485100  0.68485100  0.68485100  1
  La  La2  1  0.86077900  0.86077900  0.86077900  1
  Ti  Ti0  1  0.05233600  0.05233600  0.05233600  1
  Ti  Ti1  1  0.22187000  0.22187000  0.22187000  1
  Ti  Ti2  1  0.49802800  0.49802800  0.49802800  1
  Ti  Ti3  1  0.77531200  0.77531200  0.77531200  1
  Nb  Nb0  1  0.94891700  0.94891700  0.94891700  1
  O  O0  1  0.07821200  0.07821200  0.58574500  1
  O  O1  1  0.58574500  0.07821200  0.07821200  1
  O  O2  1  0.07821200  0.58574500  0.07821200  1
  O  O3  1  0.20192200  0.20192200  0.69394200  1
  O  O4  1  0.69394200  0.20192200  0.20192200  1
  O  O5  1  0.20192200  0.69394200  0.20192200  1
  O  O6  1  0.64223200  0.13700300  0.64223200  1
  O  O7  1  0.64223200  0.64223200  0.13700300  1
  O  O8  1  0.13700300  0.64223200  0.64223200  1
  O  O9  1  0.86174600  0.36000600  0.36000600  1
  O  O10  1  0.36000600  0.36000600  0.86174600  1
  O  O11  1  0.36000600  0.86174600  0.36000600  1
  O  O12  1  0.80418100  0.30868300  0.80418100  1
  O  O13  1  0.80418100  0.80418100  0.30868300  1
  O  O14  1  0.30868300  0.80418100  0.80418100  1
  O  O15  1  0.91480800  0.42410000  0.91480800  1
  O  O16  1  0.42410000  0.91480800  0.91480800  1
  O  O17  1  0.91480800  0.91480800  0.42410000  1
loop_
_geom_bond_atom_site_label_1
_geom_bond_atom_site_label_2
_geom_bond_distance
_geom_bond_site_symmetry_2
Ba0 O16 2.774798 1_544
Ba0 O15 2.774798 1_454
Ba0 O17 2.774798 1_445
Ba0 O11 2.829776 1_545
Ba0 O9 2.829776 1_455
Ba0 O10 2.829777 1_554
Ba0 O7 2.843824 1_545
Ba0 O7 2.843824 1_455
Ba0 O6 2.843824 1_455
Ba0 O8 2.843824 1_545
Ba0 O8 2.843824 1_554
Ba0 O6 2.843824 1_554
Ba1 O3 2.746639 1_555
Ba1 O4 2.746639 1_555
Ba1 O5 2.746639 1_555
Ba1 O13 2.854983 1_455
Ba1 O13 2.854983 1_545
Ba1 O14 2.854983 1_554
Ba1 O12 2.854983 1_554
Ba1 O12 2.854983 1_455
Ba1 O14 2.854983 1_545
Ba1 O2 3.157879 1_555
Ba1 O1 3.157879 1_555
Ba1 O0 3.157879 1_555
Ba2 O12 2.797974 1_555
Ba2 O14 2.797974 1_555
Ba2 O13 2.797974 1_555
Ba2 O0 2.845371 1_655
Ba2 O0 2.845371 1_565
Ba2 O2 2.845371 1_655
Ba2 O1 2.845371 1_565
Ba2 O1 2.845371 1_556
Ba2 O2 2.845371 1_556
Ba2 O11 2.867370 1_555
Ba2 O9 2.867370 1_555
Ba2 O10 2.867371 1_555
La0 O5 2.424666 1_555
La0 O4 2.424666 1_555
La0 O3 2.424666 1_555
La0 O17 2.862704 1_545
La0 O17 2.862704 1_455
La0 O15 2.862704 1_455
La0 O16 2.862704 1_545
La0 O15 2.862704 1_554
La0 O16 2.862704 1_554
La0 O8 3.130629 1_555
La0 O6 3.130629 1_555
La0 O7 3.130630 1_555
La1 O13 2.498226 1_555
La1 O14 2.498226 1_555
La1 O12 2.498226 1_555
La1 O3 2.904055 1_655
La1 O3 2.904055 1_565
La1 O4 2.904056 1_556
La1 O5 2.904056 1_556
La1 O4 2.904056 1_565
La1 O5 2.904056 1_655
La1 O15 3.184173 1_555
La1 O16 3.184173 1_555
La1 O17 3.184174 1_555
La2 O2 2.733422 1_656
La2 O1 2.733422 1_566
La2 O0 2.733423 1_665
La2 O8 2.749440 1_655
La2 O6 2.749440 1_565
La2 O7 2.749440 1_556
La2 O10 2.842075 1_565
La2 O10 2.842075 1_655
La2 O11 2.842075 1_655
La2 O9 2.842075 1_565
La2 O11 2.842075 1_556
La2 O9 2.842075 1_556
Nb0 O13 1.918622 1_556
Nb0 O12 1.918622 1_565
Nb0 O14 1.918622 1_655
Nb0 O0 2.166228 1_665
Nb0 O2 2.166228 1_656
Nb0 O1 2.166228 1_566
O0 Ti1 1.972097 1_555
O1 Ti1 1.972097 1_555
O2 Ti1 1.972097 1_555
O3 Ti0 1.856407 1_556
O4 Ti0 1.856407 1_655
O5 Ti0 1.856407 1_565
O6 Ti2 1.937052 1_555
O6 Ti3 2.091050 1_545
O7 Ti2 1.937052 1_555
O7 Ti3 2.091050 1_554
O8 Ti2 1.937052 1_555
O8 Ti3 2.091050 1_455
O9 Ti1 2.002815 1_655
O9 Ti2 2.042904 1_555
O10 Ti1 2.002815 1_556
O10 Ti2 2.042904 1_555
O11 Ti1 2.002815 1_565
O11 Ti2 2.042904 1_555
O15 Ti3 1.893537 1_555
O15 Ti0 2.138353 1_656
O16 Ti3 1.893537 1_555
O16 Ti0 2.138353 1_566
O17 Ti3 1.893537 1_555
O17 Ti0 2.138353 1_665
