# generated using pymatgen
data_MnSb2Pb5O11
_symmetry_space_group_name_H-M   'P 1'
_cell_length_a   7.44740004
_cell_length_b   7.44740004
_cell_length_c   11.14171800
_cell_angle_alpha   90.00000000
_cell_angle_beta   90.00000000
_cell_angle_gamma   103.51264292
_symmetry_Int_Tables_number   1
_chemical_formula_structural   MnSb2Pb5O11
_chemical_formula_sum   'Mn2 Sb4 Pb10 O22'
_cell_volume   600.85547812
_cell_formula_units_Z   2
loop_
 _symmetry_equiv_pos_site_id
 _symmetry_equiv_pos_as_xyz
  1  'x, y, z'
loop_
 _atom_site_type_symbol
 _atom_site_label
 _atom_site_symmetry_multiplicity
 _atom_site_fract_x
 _atom_site_fract_y
 _atom_site_fract_z
 _atom_site_occupancy
  Mn  Mn0  1  0.58772600  0.41227400  0.25000000  1
  Mn  Mn1  1  0.41227400  0.58772600  0.75000000  1
  Sb  Sb0  1  0.67532100  0.67532100  0.50000000  1
  Sb  Sb1  1  0.67532100  0.67532100  0.00000000  1
  Sb  Sb2  1  0.32467900  0.32467900  0.50000000  1
  Sb  Sb3  1  0.32467900  0.32467900  0.00000000  1
  Pb  Pb0  1  0.00132000  0.99868000  0.75000000  1
  Pb  Pb1  1  0.77980900  0.22019100  0.47536500  1
  Pb  Pb2  1  0.22019100  0.77980900  0.52463500  1
  Pb  Pb3  1  0.05922400  0.48984800  0.25000000  1
  Pb  Pb4  1  0.48984800  0.05922400  0.75000000  1
  Pb  Pb5  1  0.22019100  0.77980900  0.97536500  1
  Pb  Pb6  1  0.51015200  0.94077600  0.25000000  1
  Pb  Pb7  1  0.99868000  0.00132000  0.25000000  1
  Pb  Pb8  1  0.94077600  0.51015200  0.75000000  1
  Pb  Pb9  1  0.77980900  0.22019100  0.02463500  1
  O  O0  1  0.19953600  0.47630600  0.60801100  1
  O  O1  1  0.47630600  0.19953600  0.39198900  1
  O  O2  1  0.19953600  0.47630600  0.89198900  1
  O  O3  1  0.26146700  0.10725900  0.89260200  1
  O  O4  1  0.10725900  0.26146700  0.39260200  1
  O  O5  1  0.89274100  0.73853300  0.60739800  1
  O  O6  1  0.43846300  0.56153700  0.39829200  1
  O  O7  1  0.73853300  0.89274100  0.39260200  1
  O  O8  1  0.10725900  0.26146700  0.10739800  1
  O  O9  1  0.73853300  0.89274100  0.10739800  1
  O  O10  1  0.43846300  0.56153700  0.10170800  1
  O  O11  1  0.20161000  0.79839000  0.75000000  1
  O  O12  1  0.52369400  0.80046400  0.60801100  1
  O  O13  1  0.56153700  0.43846300  0.89829200  1
  O  O14  1  0.52369400  0.80046400  0.89198900  1
  O  O15  1  0.79839000  0.20161000  0.25000000  1
  O  O16  1  0.47630600  0.19953600  0.10801100  1
  O  O17  1  0.89274100  0.73853300  0.89260200  1
  O  O18  1  0.26146700  0.10725900  0.60739800  1
  O  O19  1  0.56153700  0.43846300  0.60170800  1
  O  O20  1  0.80046400  0.52369400  0.39198900  1
  O  O21  1  0.80046400  0.52369400  0.10801100  1
loop_
_geom_bond_atom_site_label_1
_geom_bond_atom_site_label_2
_geom_bond_distance
_geom_bond_site_symmetry_2
Mn0 O20 2.255450 1_555
Mn0 O21 2.255450 1_555
Mn0 O1 2.255450 1_555
Mn0 O16 2.255450 1_555
Mn0 O6 2.403898 1_555
Mn0 O10 2.403898 1_555
Mn0 O15 2.464380 1_555
Mn1 O14 2.255450 1_555
Mn1 O2 2.255450 1_555
Mn1 O12 2.255450 1_555
Mn1 O0 2.255450 1_555
Mn1 O13 2.403898 1_555
Mn1 O19 2.403898 1_555
Mn1 O11 2.464380 1_555
O0 Sb2 2.020846 1_555
O0 Pb2 2.415186 1_555
O0 Pb8 2.550870 1_455
O1 Sb2 2.020846 1_555
O1 Pb1 2.415186 1_555
O1 Pb6 2.550870 1_545
O2 Sb3 2.020846 1_556
O2 Pb5 2.415186 1_555
O2 Pb8 2.550870 1_455
O3 Sb3 1.979671 1_556
O3 Pb4 2.414451 1_555
O3 Pb0 2.489926 1_545
O3 Pb5 2.557636 1_545
O4 Sb2 1.979671 1_555
O4 Pb3 2.414451 1_555
O4 Pb7 2.489926 1_455
O4 Pb1 2.557636 1_455
O5 Sb0 1.979671 1_555
O5 Pb8 2.414451 1_555
O5 Pb0 2.489926 1_655
O5 Pb2 2.557636 1_655
O6 Sb0 2.101260 1_555
O6 Sb2 2.101260 1_555
O7 Sb0 1.979671 1_555
O7 Pb6 2.414451 1_555
O7 Pb7 2.489926 1_565
O7 Pb1 2.557636 1_565
O8 Sb3 1.979671 1_555
O8 Pb3 2.414451 1_555
O8 Pb7 2.489926 1_455
O8 Pb9 2.557636 1_455
O9 Sb1 1.979671 1_555
O9 Pb6 2.414451 1_555
O9 Pb7 2.489926 1_565
O9 Pb9 2.557636 1_565
O10 Sb1 2.101260 1_555
O10 Sb3 2.101260 1_555
O11 Pb0 2.343024 1_555
O11 Pb5 2.520344 1_555
O11 Pb2 2.520344 1_555
O11 Pb4 2.536289 1_565
O11 Pb8 2.536289 1_455
O12 Sb0 2.020846 1_555
O12 Pb2 2.415186 1_555
O12 Pb4 2.550870 1_565
O13 Sb1 2.101260 1_556
O13 Sb3 2.101260 1_556
O14 Sb1 2.020846 1_556
O14 Pb5 2.415186 1_555
O14 Pb4 2.550870 1_565
O15 Pb7 2.343024 1_555
O15 Pb1 2.520344 1_555
O15 Pb9 2.520344 1_555
O15 Pb3 2.536289 1_655
O15 Pb6 2.536289 1_545
O16 Sb3 2.020846 1_555
O16 Pb9 2.415186 1_555
O16 Pb6 2.550870 1_545
O17 Sb1 1.979671 1_556
O17 Pb8 2.414451 1_555
O17 Pb0 2.489926 1_655
O17 Pb5 2.557636 1_655
O18 Sb2 1.979671 1_555
O18 Pb4 2.414451 1_555
O18 Pb0 2.489926 1_545
O18 Pb2 2.557636 1_545
O19 Sb0 2.101260 1_555
O19 Sb2 2.101260 1_555
O20 Sb0 2.020846 1_555
O20 Pb1 2.415186 1_555
O20 Pb3 2.550870 1_655
O21 Sb1 2.020846 1_555
O21 Pb9 2.415186 1_555
O21 Pb3 2.550870 1_655
