# generated using pymatgen
data_CoP2H18(NF2)6
_symmetry_space_group_name_H-M   'P 1'
_cell_length_a   8.30361200
_cell_length_b   8.30806224
_cell_length_c   8.39367385
_cell_angle_alpha   118.78244890
_cell_angle_beta   118.81053817
_cell_angle_gamma   91.14752852
_symmetry_Int_Tables_number   1
_chemical_formula_structural   CoP2H18(NF2)6
_chemical_formula_sum   'Co1 P2 H18 N6 F12'
_cell_volume   420.05756460
_cell_formula_units_Z   1
loop_
 _symmetry_equiv_pos_site_id
 _symmetry_equiv_pos_as_xyz
  1  'x, y, z'
loop_
 _atom_site_type_symbol
 _atom_site_label
 _atom_site_symmetry_multiplicity
 _atom_site_fract_x
 _atom_site_fract_y
 _atom_site_fract_z
 _atom_site_occupancy
  Co  Co0  1  0.00875600  0.99845100  0.99764100  1
  P  P0  1  0.75240800  0.24930200  0.50026000  1
  P  P1  1  0.25262700  0.74827700  0.49964300  1
  H  H0  1  0.88281800  0.70342600  0.00857000  1
  H  H1  1  0.69352700  0.75461800  0.87690200  1
  H  H2  1  0.73573000  0.17711100  0.85366300  1
  H  H3  1  0.82861900  0.88626900  0.14586800  1
  H  H4  1  0.87174300  0.31312100  0.12337800  1
  H  H5  1  0.69322800  0.11662500  0.99216100  1
  H  H6  1  0.24888400  0.12689400  0.40584200  1
  H  H7  1  0.84400600  0.86694700  0.59004500  1
  H  H8  1  0.12451100  0.27815900  0.39576200  1
  H  H9  1  0.73054600  0.71145900  0.60101600  1
  H  H10  1  0.30891000  0.81793000  0.97333100  1
  H  H11  1  0.31522300  0.17399800  0.03057800  1
  H  H12  1  0.11794200  0.11503800  0.80097400  1
  H  H13  1  0.94977900  0.72316600  0.65471500  1
  H  H14  1  0.32875400  0.87997800  0.19980000  1
  H  H15  1  0.29629200  0.28010900  0.35238900  1
  H  H16  1  0.17062100  0.67296600  0.97262600  1
  H  H17  1  0.17445100  0.31090900  0.02977600  1
  N  N0  1  0.83471200  0.81624100  0.01074700  1
  N  N1  1  0.80157000  0.17217700  0.98934100  1
  N  N2  1  0.86264800  0.80562100  0.67538200  1
  N  N3  1  0.18543700  0.19014800  0.32296100  1
  N  N4  1  0.17302200  0.17000200  0.96216900  1
  N  N5  1  0.22985000  0.81526400  0.03512000  1
  F  F0  1  0.87897000  0.09938800  0.49236700  1
  F  F1  1  0.89707100  0.37880400  0.49464700  1
  F  F2  1  0.61158900  0.11594200  0.23027800  1
  F  F3  1  0.89282800  0.38283100  0.76990600  1
  F  F4  1  0.62378500  0.39661800  0.50539300  1
  F  F5  1  0.60899200  0.11947100  0.50758800  1
  F  F6  1  0.38574700  0.89744000  0.50231100  1
  F  F7  1  0.40217000  0.62154600  0.50629000  1
  F  F8  1  0.12269800  0.61052700  0.22963000  1
  F  F9  1  0.38255100  0.88291000  0.76993000  1
  F  F10  1  0.10357600  0.87440600  0.49294600  1
  F  F11  1  0.11921000  0.59910900  0.49804900  1
loop_
_geom_bond_atom_site_label_1
_geom_bond_atom_site_label_2
_geom_bond_distance
_geom_bond_site_symmetry_2
Co0 N2 1.985279 1_455
Co0 N3 2.000638 1_566
Co0 N0 2.149019 1_456
Co0 N4 2.168573 1_565
Co0 N1 2.264632 1_465
Co0 N5 2.408733 1_556
H0 N0 1.021723 1_555
H1 N0 1.025330 1_556
H2 N1 1.021411 1_555
H3 N0 1.023932 1_555
H4 N1 1.024039 1_554
H5 N1 1.018488 1_555
H6 N3 1.023515 1_555
H7 N2 1.021935 1_555
H8 N3 1.022990 1_555
H9 N2 1.019964 1_555
H10 N5 1.019356 1_556
H11 N4 1.025498 1_554
H12 N4 1.024007 1_555
H13 N2 1.024311 1_555
H14 N5 1.023094 1_555
H15 N3 1.021007 1_555
H16 N5 1.022530 1_556
H17 N4 1.022670 1_554
F0 P0 1.643215 1_555
F1 P0 1.629215 1_555
F2 P0 1.645165 1_555
F3 P0 1.643048 1_555
F4 P0 1.639037 1_555
F5 P0 1.633545 1_555
F6 P1 1.628700 1_555
F7 P1 1.641884 1_555
F8 P1 1.645113 1_555
F9 P1 1.646510 1_555
F10 P1 1.635435 1_555
F11 P1 1.636492 1_555
