# generated using pymatgen
data_ReTe7O7F32
_symmetry_space_group_name_H-M   'P 1'
_cell_length_a   10.86324800
_cell_length_b   11.57070502
_cell_length_c   12.60944238
_cell_angle_alpha   81.72919469
_cell_angle_beta   80.99446725
_cell_angle_gamma   85.33815366
_symmetry_Int_Tables_number   1
_chemical_formula_structural   ReTe7O7F32
_chemical_formula_sum   'Re2 Te14 O14 F64'
_cell_volume   1546.32877909
_cell_formula_units_Z   2
loop_
 _symmetry_equiv_pos_site_id
 _symmetry_equiv_pos_as_xyz
  1  'x, y, z'
loop_
 _atom_site_type_symbol
 _atom_site_label
 _atom_site_symmetry_multiplicity
 _atom_site_fract_x
 _atom_site_fract_y
 _atom_site_fract_z
 _atom_site_occupancy
  Re  Re0  1  0.78856500  0.62250400  0.35971500  1
  Re  Re1  1  0.21143500  0.37749600  0.64028500  1
  Te  Te0  1  0.31493000  0.16386900  0.88067800  1
  Te  Te1  1  0.84343900  0.08695100  0.14461700  1
  Te  Te2  1  0.94886200  0.79415400  0.50704800  1
  Te  Te3  1  0.15656100  0.91304900  0.85538300  1
  Te  Te4  1  0.50100700  0.22227600  0.53711400  1
  Te  Te5  1  0.60729500  0.49356100  0.19024100  1
  Te  Te6  1  0.08533100  0.56140200  0.19459400  1
  Te  Te7  1  0.68507000  0.83613100  0.11932200  1
  Te  Te8  1  0.33978600  0.07347000  0.16537000  1
  Te  Te9  1  0.49899300  0.77772400  0.46288600  1
  Te  Te10  1  0.05113800  0.20584600  0.49295200  1
  Te  Te11  1  0.66021400  0.92653000  0.83463000  1
  Te  Te12  1  0.39270500  0.50643900  0.80975900  1
  Te  Te13  1  0.91466900  0.43859800  0.80540600  1
  O  O0  1  0.32640700  0.26441800  0.57135600  1
  O  O1  1  0.78854400  0.96748700  0.07349300  1
  O  O2  1  0.21145600  0.03251300  0.92650700  1
  O  O3  1  0.33841700  0.39325600  0.73276900  1
  O  O4  1  0.67359300  0.73558200  0.42864400  1
  O  O5  1  0.90925100  0.55973900  0.25100700  1
  O  O6  1  0.66158300  0.60674400  0.26723100  1
  O  O7  1  0.92253100  0.68775100  0.40877200  1
  O  O8  1  0.39304900  0.11708400  0.01479800  1
  O  O9  1  0.09074900  0.44026100  0.74899300  1
  O  O10  1  0.23660700  0.49635600  0.54747900  1
  O  O11  1  0.07746900  0.31224900  0.59122800  1
  O  O12  1  0.76339300  0.50364400  0.45252100  1
  O  O13  1  0.60695100  0.88291600  0.98520200  1
  F  F0  1  0.82861500  0.88158900  0.84041200  1
  F  F1  1  0.25512200  0.55654000  0.13701700  1
  F  F2  1  0.20241500  0.26404900  0.95819200  1
  F  F3  1  0.18532500  0.26027500  0.38957100  1
  F  F4  1  0.91475200  0.15094400  0.59223900  1
  F  F5  1  0.54536900  0.50801900  0.71679100  1
  F  F6  1  0.75625600  0.48938600  0.09249500  1
  F  F7  1  0.09244500  0.72148400  0.20380500  1
  F  F8  1  0.69886000  0.97267000  0.68559800  1
  F  F9  1  0.30114000  0.02733000  0.31440200  1
  F  F10  1  0.53909000  0.37993500  0.50008800  1
  F  F11  1  0.95615900  0.12439500  0.01877200  1
  F  F12  1  0.72866700  0.04710900  0.26976900  1
  F  F13  1  0.89650600  0.20746800  0.20666100  1
  F  F14  1  0.17138500  0.11841100  0.15958800  1
  F  F15  1  0.81467500  0.73972500  0.61042900  1
  F  F16  1  0.54293400  0.39371000  0.11169800  1
  F  F17  1  0.86716700  0.47681000  0.66652300  1
  F  F18  1  0.04419700  0.59985600  0.05434600  1
  F  F19  1  0.62989400  0.77857600  0.80491100  1
  F  F20  1  0.45520700  0.37662500  0.90025700  1
  F  F21  1  0.45706600  0.60629000  0.88830200  1
  F  F22  1  0.72387600  0.19346700  0.08724000  1
  F  F23  1  0.32739200  0.63408100  0.72155400  1
  F  F24  1  0.08524800  0.84905600  0.40776100  1
  F  F25  1  0.08539100  0.40196900  0.18159000  1
  F  F26  1  0.04384100  0.87560500  0.98122800  1
  F  F27  1  0.53393100  0.22721900  0.67982700  1
  F  F28  1  0.49139600  0.97639800  0.82147400  1
  F  F29  1  0.50860400  0.02360200  0.17852600  1
  F  F30  1  0.33047700  0.82281700  0.50066800  1
  F  F31  1  0.46645100  0.06510800  0.58090300  1
  F  F32  1  0.96419300  0.98295400  0.20236400  1
  F  F33  1  0.27612400  0.80653300  0.91276000  1
  F  F34  1  0.01770600  0.10625300  0.39802800  1
  F  F35  1  0.10349400  0.79253200  0.79333900  1
  F  F36  1  0.54479300  0.62337500  0.09974300  1
  F  F37  1  0.31323500  0.92036300  0.14422600  1
  F  F38  1  0.47677200  0.21052200  0.39533100  1
  F  F39  1  0.27133300  0.95289100  0.73023100  1
  F  F40  1  0.74487800  0.44346000  0.86298300  1
  F  F41  1  0.52322800  0.78947800  0.60466900  1
  F  F42  1  0.67260800  0.36591900  0.27844600  1
  F  F43  1  0.46606900  0.77278100  0.32017300  1
  F  F44  1  0.05504000  0.67807800  0.57156700  1
  F  F45  1  0.79758500  0.73595100  0.04180800  1
  F  F46  1  0.91460900  0.59803100  0.81841000  1
  F  F47  1  0.95580300  0.40014400  0.94565400  1
  F  F48  1  0.53354900  0.93489200  0.41909700  1
  F  F49  1  0.46091000  0.62006500  0.49991200  1
  F  F50  1  0.80587800  0.78551400  0.23473300  1
  F  F51  1  0.24374400  0.51061400  0.90750500  1
  F  F52  1  0.66952300  0.17718300  0.49933200  1
  F  F53  1  0.45463100  0.49198100  0.28320900  1
  F  F54  1  0.94496000  0.32192200  0.42843300  1
  F  F55  1  0.13283300  0.52319000  0.33347700  1
  F  F56  1  0.37010600  0.22142400  0.19508900  1
  F  F57  1  0.68676500  0.07963700  0.85577400  1
  F  F58  1  0.15705500  0.08640100  0.55334300  1
  F  F59  1  0.90755500  0.27851600  0.79619500  1
  F  F60  1  0.19412200  0.21448600  0.76526700  1
  F  F61  1  0.03580700  0.01704600  0.79763600  1
  F  F62  1  0.84294500  0.91359900  0.44665700  1
  F  F63  1  0.98229400  0.89374700  0.60197200  1
loop_
_geom_bond_atom_site_label_1
_geom_bond_atom_site_label_2
_geom_bond_distance
_geom_bond_site_symmetry_2
O0 Te4 1.917187 1_555
O0 Re1 1.936221 1_555
O1 Te1 1.930988 1_565
O1 Te7 1.931104 1_555
O2 Te3 1.930988 1_545
O2 Te0 1.931104 1_555
O3 Te12 1.917258 1_555
O3 Re1 1.975281 1_555
O4 Te9 1.917187 1_555
O4 Re0 1.936221 1_555
O5 Re0 1.922039 1_555
O5 Te6 1.934233 1_655
O6 Te5 1.917258 1_555
O6 Re0 1.975281 1_555
O7 Re0 1.914494 1_555
O7 Te2 1.933998 1_555
O8 Te8 1.903191 1_555
O8 Te0 1.996128 1_554
O9 Re1 1.922039 1_555
O9 Te13 1.934233 1_455
O10 Re1 1.683321 1_555
O11 Re1 1.914494 1_555
O11 Te10 1.933998 1_555
O12 Re0 1.683321 1_555
O13 Te11 1.903191 1_555
O13 Te7 1.996128 1_556
F0 Te11 1.870446 1_555
F1 Te6 1.872974 1_555
F2 Te0 1.874722 1_555
F3 Te10 1.881221 1_555
F4 Te10 1.873378 1_655
F5 Te12 1.874853 1_555
F6 Te5 1.876180 1_555
F7 Te6 1.881039 1_555
F8 Te11 1.869093 1_555
F9 Te8 1.869093 1_555
F10 Te4 1.879920 1_555
F11 Te1 1.866897 1_555
F12 Te1 1.877650 1_555
F13 Te1 1.864042 1_555
F14 Te8 1.870446 1_555
F15 Te2 1.881221 1_555
F16 Te5 1.865960 1_555
F17 Te13 1.884584 1_555
F18 Te6 1.874499 1_555
F19 Te11 1.869357 1_555
F20 Te12 1.898146 1_555
F21 Te12 1.865960 1_555
F22 Te1 1.872656 1_555
F23 Te12 1.877713 1_555
F24 Te2 1.873378 1_455
F25 Te6 1.875313 1_555
F26 Te3 1.866897 1_555
F27 Te4 1.898403 1_555
F28 Te11 1.902468 1_555
F29 Te8 1.902468 1_555
F30 Te9 1.869127 1_555
F31 Te4 1.873522 1_555
F32 Te1 1.867971 1_565
F33 Te3 1.872656 1_555
F34 Te10 1.869077 1_555
F35 Te3 1.864042 1_555
F36 Te5 1.898146 1_555
F37 Te8 1.880347 1_565
F38 Te4 1.872746 1_555
F39 Te3 1.877650 1_555
F40 Te13 1.872974 1_555
F41 Te9 1.872746 1_555
F42 Te5 1.877713 1_555
F43 Te9 1.898403 1_555
F44 Te2 1.877162 1_455
F45 Te7 1.874722 1_555
F46 Te13 1.875313 1_555
F47 Te13 1.874499 1_555
F48 Te9 1.873522 1_555
F49 Te9 1.879920 1_555
F50 Te7 2.100207 1_555
F50 Re0 2.277325 1_555
F51 Te12 1.876180 1_555
F52 Te4 1.869127 1_555
F53 Te5 1.874853 1_555
F54 Te10 1.877162 1_655
F55 Te6 1.884584 1_555
F56 Te8 1.869357 1_555
F57 Te11 1.880347 1_545
F58 Te10 1.877999 1_555
F59 Te13 1.881039 1_555
F60 Te0 2.100207 1_555
F60 Re1 2.277325 1_555
F61 Te3 1.867971 1_545
F62 Te2 1.877999 1_555
F63 Te2 1.869077 1_555
