# generated using pymatgen
data_Ba11W4O23
_symmetry_space_group_name_H-M   'P 1'
_cell_length_a   12.54066751
_cell_length_b   12.51782724
_cell_length_c   12.74629283
_cell_angle_alpha   59.61575002
_cell_angle_beta   59.46039475
_cell_angle_gamma   58.04227428
_symmetry_Int_Tables_number   1
_chemical_formula_structural   Ba11W4O23
_chemical_formula_sum   'Ba22 W8 O46'
_cell_volume   1383.23713515
_cell_formula_units_Z   2
loop_
 _symmetry_equiv_pos_site_id
 _symmetry_equiv_pos_as_xyz
  1  'x, y, z'
loop_
 _atom_site_type_symbol
 _atom_site_label
 _atom_site_symmetry_multiplicity
 _atom_site_fract_x
 _atom_site_fract_y
 _atom_site_fract_z
 _atom_site_occupancy
  Ba  Ba0  1  0.23703703  0.22934025  0.23166687  1
  Ba  Ba1  1  0.12693094  0.61878883  0.15519363  1
  Ba  Ba2  1  0.13210788  0.15355602  0.61188283  1
  Ba  Ba3  1  0.21804729  0.26714915  0.78786873  1
  Ba  Ba4  1  0.13836567  0.63092433  0.56536838  1
  Ba  Ba5  1  0.26818496  0.81129914  0.20893730  1
  Ba  Ba6  1  0.59656181  0.15432184  0.15658261  1
  Ba  Ba7  1  0.34464200  0.37807704  0.37192627  1
  Ba  Ba8  1  0.12685195  0.77009399  0.77621648  1
  Ba  Ba9  1  0.62100410  0.14909183  0.56492243  1
  Ba  Ba10  1  0.62504650  0.53281379  0.17322348  1
  Ba  Ba11  1  0.35629371  0.86286570  0.43062220  1
  Ba  Ba12  1  0.36101802  0.42377320  0.86600308  1
  Ba  Ba13  1  0.99686037  0.16532510  0.17841017  1
  Ba  Ba14  1  0.37517593  0.86159017  0.83663068  1
  Ba  Ba15  1  0.71286241  0.19445802  0.79597805  1
  Ba  Ba16  1  0.84073582  0.36903673  0.44123386  1
  Ba  Ba17  1  0.73326620  0.75551370  0.20986864  1
  Ba  Ba18  1  0.61839945  0.62801650  0.62128581  1
  Ba  Ba19  1  0.83045958  0.39602440  0.86678637  1
  Ba  Ba20  1  0.84528936  0.85557853  0.38316279  1
  Ba  Ba21  1  0.75870726  0.77180642  0.77571087  1
  W  W0  1  0.97646092  0.01223288  0.00755788  1
  W  W1  1  0.98854411  0.00141313  0.50694717  1
  W  W2  1  0.98464246  0.50521771  0.50013933  1
  W  W3  1  0.46285291  0.03022765  0.98963988  1
  W  W4  1  0.48579924  0.00606980  0.50196655  1
  W  W5  1  0.47593498  0.51362422  0.99911724  1
  W  W6  1  0.48326228  0.50599496  0.51463459  1
  W  W7  1  0.95251808  0.51300762  0.03923874  1
  O  O0  1  0.10007516  0.39664156  0.37981207  1
  O  O1  1  0.40628819  0.95140669  0.17465870  1
  O  O2  1  0.12294028  0.39567789  0.58300937  1
  O  O3  1  0.08362753  0.62874295  0.38202126  1
  O  O4  1  0.36699979  0.39725969  0.11543265  1
  O  O5  1  0.35423129  0.11534207  0.40743813  1
  O  O6  1  0.36835132  0.61524918  0.12109026  1
  O  O7  1  0.36110911  0.10570222  0.62885093  1
  O  O8  1  0.59869570  0.38948843  0.09831567  1
  O  O9  1  0.56543398  0.14192830  0.38958460  1
  O  O10  1  0.39323559  0.59756474  0.38600290  1
  O  O11  1  0.38783470  0.38312283  0.61759324  1
  O  O12  1  0.33529768  0.62419395  0.62158929  1
  O  O13  1  0.62555209  0.38992695  0.41328372  1
  O  O14  1  0.10004942  0.92521095  0.88857549  1
  O  O15  1  0.50468895  0.15178320  0.00187619  1
  O  O16  1  0.57361832  0.63360643  0.42281070  1
  O  O17  1  0.57863199  0.41394010  0.64038312  1
  O  O18  1  0.87500861  0.40212263  0.05526681  1
  O  O19  1  0.87622071  0.02380960  0.42705009  1
  O  O20  1  0.34281390  0.62820756  0.90920045  1
  O  O21  1  0.39750076  0.87549238  0.61275704  1
  O  O22  1  0.80090832  0.66699187  0.99178970  1
  O  O23  1  0.83560400  0.12252768  0.59736747  1
  O  O24  1  0.85554090  0.50848503  0.21087141  1
  O  O25  1  0.60012867  0.90893293  0.37778220  1
  O  O26  1  0.58030536  0.41523772  0.87790905  1
  O  O27  1  0.03529451  0.62405480  0.00886956  1
  O  O28  1  0.10893442  0.35282079  0.06848162  1
  O  O29  1  0.10738223  0.98336577  0.57825587  1
  O  O30  1  0.03251420  0.15747867  0.36496213  1
  O  O31  1  0.35172297  0.98130471  0.97428463  1
  O  O32  1  0.58051032  0.62937940  0.88973623  1
  O  O33  1  0.61123687  0.90413559  0.59687148  1
  O  O34  1  0.89361149  0.37712149  0.62136092  1
  O  O35  1  0.86164917  0.60984870  0.40017002  1
  O  O36  1  0.82582781  0.14445819  0.95365766  1
  O  O37  1  0.86593676  0.90747289  0.12706673  1
  O  O38  1  0.58758070  0.03638910  0.82153960  1
  O  O39  1  0.86759529  0.61711942  0.60875343  1
  O  O40  1  0.03423574  0.15707773  0.93677729  1
  O  O41  1  0.04015618  0.94370309  0.14582485  1
  O  O42  1  0.00221093  0.51094900  0.78667008  1
  O  O43  1  0.96105587  0.84258427  0.65109057  1
  O  O44  1  0.14041142  0.88399408  0.40782513  1
  O  O45  1  0.06993756  0.52893511  0.84156082  1
loop_
_geom_bond_atom_site_label_1
_geom_bond_atom_site_label_2
_geom_bond_distance
_geom_bond_site_symmetry_2
Ba0 O30 2.596540 1_555
Ba0 O28 2.609852 1_555
Ba0 O5 2.666062 1_555
Ba0 O4 2.700365 1_555
Ba0 O0 2.792527 1_555
Ba0 O15 3.197435 1_555
Ba0 O1 3.210957 1_545
Ba1 O27 2.603297 1_555
Ba1 O3 2.714169 1_555
Ba1 O6 2.810182 1_555
Ba1 O0 2.828596 1_555
Ba1 O4 2.836175 1_555
Ba1 O20 2.917512 1_554
Ba1 O35 3.211539 1_455
Ba1 O37 3.355793 1_455
Ba2 O29 2.564488 1_545
Ba2 O5 2.693032 1_555
Ba2 O7 2.707782 1_555
Ba2 O2 2.807208 1_555
Ba2 O34 2.811800 1_455
Ba2 O0 2.996478 1_555
Ba2 O14 3.216838 1_545
Ba3 O11 2.596188 1_555
Ba3 O40 2.661745 1_555
Ba3 O2 2.777279 1_555
Ba3 O42 2.809050 1_555
Ba3 O7 2.832189 1_555
Ba3 O45 3.031592 1_555
Ba3 O31 3.218225 1_545
Ba4 O42 2.581107 1_555
Ba4 O43 2.716799 1_455
Ba4 O3 2.765546 1_555
Ba4 O44 2.768954 1_555
Ba4 O10 2.782777 1_555
Ba4 O12 2.852556 1_555
Ba4 O45 2.881452 1_555
Ba4 O2 2.940862 1_555
Ba4 O11 3.099570 1_555
Ba4 O39 3.237625 1_455
Ba5 O44 2.546400 1_555
Ba5 O6 2.634657 1_555
Ba5 O31 2.703512 1_554
Ba5 O41 2.746540 1_555
Ba5 O10 2.785365 1_555
Ba5 O1 2.817376 1_555
Ba5 O3 3.279614 1_555
Ba6 O8 2.658882 1_555
Ba6 O36 2.713212 1_554
Ba6 O9 2.723350 1_555
Ba6 O15 2.761891 1_555
Ba6 O4 2.909343 1_555
Ba6 O25 2.934047 1_545
Ba6 O5 3.132679 1_555
Ba6 O37 3.152127 1_545
Ba7 O2 2.714140 1_555
Ba7 O9 2.784144 1_555
Ba7 O0 2.902865 1_555
Ba7 O5 3.027658 1_555
Ba7 O4 3.028270 1_555
Ba7 O6 3.080755 1_555
Ba7 O3 3.111992 1_555
Ba7 O10 3.214745 1_555
Ba7 O8 3.319583 1_555
Ba7 O7 3.322494 1_555
Ba7 O11 3.473144 1_555
Ba8 O29 2.583679 1_555
Ba8 O27 2.594594 1_556
Ba8 O12 2.721195 1_555
Ba8 O14 2.750885 1_555
Ba8 O43 2.756613 1_455
Ba8 O45 3.073996 1_555
Ba8 O20 3.144921 1_555
Ba9 O13 2.646349 1_555
Ba9 O9 2.709280 1_555
Ba9 O38 2.725712 1_555
Ba9 O19 2.747719 1_555
Ba9 O23 2.751168 1_555
Ba9 O11 2.917145 1_555
Ba9 O33 2.943956 1_545
Ba9 O7 3.210759 1_555
Ba10 O8 2.630753 1_555
Ba10 O18 2.651985 1_555
Ba10 O13 2.652049 1_555
Ba10 O22 2.800336 1_554
Ba10 O10 2.860166 1_555
Ba10 O24 3.001379 1_555
Ba10 O6 3.135760 1_555
Ba10 O32 3.427484 1_554
Ba11 O1 2.695328 1_555
Ba11 O21 2.712648 1_555
Ba11 O16 2.721624 1_555
Ba11 O44 2.729040 1_555
Ba11 O29 2.734539 1_555
Ba11 O12 2.783008 1_555
Ba11 O5 3.008809 1_565
Ba11 O25 3.085025 1_555
Ba12 O20 2.753786 1_555
Ba12 O26 2.773748 1_555
Ba12 O17 2.785623 1_555
Ba12 O12 2.891683 1_555
Ba12 O15 2.924072 1_556
Ba12 O4 3.061429 1_556
Ba12 O28 3.131347 1_556
Ba12 O11 3.280866 1_555
Ba12 O45 3.287708 1_555
Ba13 O18 2.553671 1_555
Ba13 O30 2.580979 1_655
Ba13 O41 2.739623 1_645
Ba13 O28 2.758830 1_655
Ba13 O19 2.784973 1_555
Ba13 O40 2.918840 1_654
Ba14 O21 2.643632 1_555
Ba14 O31 2.660745 1_555
Ba14 O32 2.719511 1_555
Ba14 O20 2.774005 1_555
Ba14 O7 2.846102 1_565
Ba14 O14 2.877506 1_555
Ba14 O33 3.035646 1_555
Ba14 O6 3.363982 1_556
Ba15 O23 2.543107 1_555
Ba15 O15 2.661508 1_556
Ba15 O36 2.668430 1_555
Ba15 O17 2.701905 1_555
Ba15 O26 2.789970 1_555
Ba15 O38 2.933977 1_555
Ba15 O34 3.245208 1_555
Ba16 O24 2.511440 1_555
Ba16 O30 2.688591 1_655
Ba16 O23 2.711911 1_555
Ba16 O34 2.752205 1_555
Ba16 O13 2.759209 1_555
Ba16 O35 2.920774 1_555
Ba16 O17 2.927753 1_555
Ba16 O0 3.104527 1_655
Ba16 O16 3.242441 1_555
Ba17 O24 2.621836 1_555
Ba17 O37 2.652403 1_555
Ba17 O16 2.688089 1_555
Ba17 O35 2.861396 1_555
Ba17 O25 2.861595 1_555
Ba17 O22 3.065733 1_554
Ba18 O16 2.818408 1_555
Ba18 O17 2.849671 1_555
Ba18 O21 2.857186 1_555
Ba18 O35 2.911584 1_555
Ba18 O39 2.978879 1_555
Ba18 O26 2.994586 1_555
Ba18 O34 3.209561 1_555
Ba18 O32 3.214434 1_555
Ba18 O33 3.265480 1_555
Ba18 O25 3.298542 1_555
Ba19 O42 2.703757 1_655
Ba19 O18 2.772052 1_556
Ba19 O36 2.783340 1_555
Ba19 O40 2.792680 1_655
Ba19 O8 2.907584 1_556
Ba19 O34 2.915799 1_555
Ba19 O32 2.946780 1_555
Ba19 O26 2.950109 1_555
Ba19 O39 3.048537 1_555
Ba20 O19 2.678638 1_565
Ba20 O25 2.810240 1_555
Ba20 O3 2.830179 1_655
Ba20 O33 2.840016 1_555
Ba20 O35 2.872887 1_555
Ba20 O41 2.881901 1_655
Ba20 O37 2.884187 1_555
Ba20 O39 2.916751 1_555
Ba21 O43 2.570489 1_555
Ba21 O22 2.584166 1_555
Ba21 O39 2.925588 1_555
Ba21 O32 2.929256 1_555
Ba21 O33 2.929507 1_555
Ba21 O38 3.012488 1_565
Ba21 O42 3.069797 1_655
O0 W2 2.016118 1_455
O1 W3 1.930096 1_564
O2 W2 1.970538 1_455
O3 W2 1.994034 1_455
O4 W5 2.012382 1_554
O5 W4 2.002280 1_555
O6 W5 1.976821 1_554
O7 W4 2.005532 1_555
O8 W5 1.960027 1_554
O9 W4 1.954794 1_555
O10 W6 1.971506 1_555
O11 W6 1.957209 1_555
O12 W6 2.013504 1_555
O13 W6 1.943063 1_555
O14 W0 1.839564 1_466
O15 W3 1.945047 1_554
O16 W6 1.970429 1_555
O17 W6 1.987002 1_555
O18 W7 1.962852 1_555
O19 W1 1.962368 1_555
O20 W5 1.975997 1_555
O21 W4 1.970774 1_565
O22 W7 1.950870 1_556
O23 W1 1.936078 1_555
O24 W7 1.874017 1_555
O25 W4 1.958272 1_565
O26 W5 1.944264 1_555
O27 W7 1.932502 1_455
O28 W7 1.957212 1_455
O29 W1 1.977545 1_465
O30 W1 1.986335 1_455
O31 W3 1.912468 1_565
O32 W5 1.968027 1_555
O33 W4 1.952859 1_565
O34 W2 1.975011 1_555
O35 W2 1.971989 1_555
O36 W0 1.907566 1_556
O37 W0 1.928440 1_565
O38 W3 1.896862 1_555
O39 W2 1.937355 1_555
O40 W0 1.923010 1_456
O41 W0 1.912035 1_465
O42 O45 1.492404 1_555
O43 W1 1.958064 1_565
O44 W1 1.963092 1_465
O45 W7 2.142136 1_456
