# generated using pymatgen
data_Pr(WO3)5
_symmetry_space_group_name_H-M   'P 1'
_cell_length_a   3.84732400
_cell_length_b   7.46237300
_cell_length_c   10.23886400
_cell_angle_alpha   90.00000000
_cell_angle_beta   90.00000000
_cell_angle_gamma   90.00000000
_symmetry_Int_Tables_number   1
_chemical_formula_structural   Pr(WO3)5
_chemical_formula_sum   'Pr1 W5 O15'
_cell_volume   293.95949267
_cell_formula_units_Z   1
loop_
 _symmetry_equiv_pos_site_id
 _symmetry_equiv_pos_as_xyz
  1  'x, y, z'
loop_
 _atom_site_type_symbol
 _atom_site_label
 _atom_site_symmetry_multiplicity
 _atom_site_fract_x
 _atom_site_fract_y
 _atom_site_fract_z
 _atom_site_occupancy
  Pr  Pr0  1  0.00000000  0.00000000  0.00000000  1
  W  W0  1  0.50000000  0.75383500  0.31611200  1
  W  W1  1  0.50000000  0.24616500  0.31611200  1
  W  W2  1  0.50000000  0.75383500  0.68388800  1
  W  W3  1  0.50000000  0.24616500  0.68388800  1
  W  W4  1  0.50000000  0.50000000  0.00000000  1
  O  O0  1  0.00000000  0.23741300  0.31282800  1
  O  O1  1  0.50000000  0.00000000  0.76783200  1
  O  O2  1  0.00000000  0.76258700  0.68717200  1
  O  O3  1  0.50000000  0.50000000  0.65146100  1
  O  O4  1  0.50000000  0.00000000  0.23216800  1
  O  O5  1  0.50000000  0.69663600  0.12404100  1
  O  O6  1  0.00000000  0.50000000  0.00000000  1
  O  O7  1  0.50000000  0.69663600  0.87595900  1
  O  O8  1  0.50000000  0.19254600  0.50000000  1
  O  O9  1  0.00000000  0.23741300  0.68717200  1
  O  O10  1  0.50000000  0.30336400  0.12404100  1
  O  O11  1  0.50000000  0.80745400  0.50000000  1
  O  O12  1  0.50000000  0.50000000  0.34853900  1
  O  O13  1  0.50000000  0.30336400  0.87595900  1
  O  O14  1  0.00000000  0.76258700  0.31282800  1
loop_
_geom_bond_atom_site_label_1
_geom_bond_atom_site_label_2
_geom_bond_distance
_geom_bond_site_symmetry_2
O0 W1 1.925064 1_455
O0 W1 1.925064 1_555
O1 W2 2.028103 1_545
O1 W3 2.028103 1_555
O1 Pr0 3.057982 1_656
O1 Pr0 3.057982 1_556
O2 W2 1.925064 1_455
O2 W2 1.925064 1_555
O3 W2 1.923089 1_555
O3 W3 1.923089 1_555
O4 W1 2.028103 1_555
O4 W0 2.028103 1_545
O4 Pr0 3.057982 1_555
O4 Pr0 3.057982 1_655
O5 W4 1.940664 1_555
O5 W0 2.012378 1_555
O5 Pr0 3.230841 1_665
O5 Pr0 3.230841 1_565
O6 W4 1.923662 1_455
O6 W4 1.923662 1_555
O7 W4 1.940664 1_556
O7 W2 2.012378 1_555
O7 Pr0 3.230841 1_666
O7 Pr0 3.230841 1_566
O8 W1 1.924851 1_555
O8 W3 1.924851 1_555
O9 W3 1.925064 1_455
O9 W3 1.925064 1_555
O10 W4 1.940664 1_555
O10 W1 2.012378 1_555
O10 Pr0 3.230841 1_555
O10 Pr0 3.230841 1_655
O11 W0 1.924851 1_555
O11 W2 1.924851 1_555
O12 W0 1.923089 1_555
O12 W1 1.923089 1_555
O13 W4 1.940664 1_556
O13 W3 2.012378 1_555
O13 Pr0 3.230841 1_656
O13 Pr0 3.230841 1_556
O14 W0 1.925064 1_455
O14 W0 1.925064 1_555
