# generated using pymatgen
data_Ti5Fe11O24
_symmetry_space_group_name_H-M   'P 1'
_cell_length_a   5.16377600
_cell_length_b   5.52816301
_cell_length_c   17.21285894
_cell_angle_alpha   87.98963726
_cell_angle_beta   98.10128763
_cell_angle_gamma   117.12593669
_symmetry_Int_Tables_number   1
_chemical_formula_structural   Ti5Fe11O24
_chemical_formula_sum   'Ti5 Fe11 O24'
_cell_volume   432.71348679
_cell_formula_units_Z   1
loop_
 _symmetry_equiv_pos_site_id
 _symmetry_equiv_pos_as_xyz
  1  'x, y, z'
loop_
 _atom_site_type_symbol
 _atom_site_label
 _atom_site_symmetry_multiplicity
 _atom_site_fract_x
 _atom_site_fract_y
 _atom_site_fract_z
 _atom_site_occupancy
  Ti  Ti0  1  0.45606800  0.02487600  0.90521100  1
  Ti  Ti1  1  0.96423800  0.28807800  0.66683800  1
  Ti  Ti2  1  0.79012900  0.09537500  0.46467300  1
  Ti  Ti3  1  0.71359300  0.15690300  0.28863700  1
  Ti  Ti4  1  0.21127700  0.39797600  0.03562000  1
  Fe  Fe0  1  0.78240200  0.60902700  0.96559700  1
  Fe  Fe1  1  0.27700600  0.85093000  0.71197900  1
  Fe  Fe2  1  0.04155900  0.22633000  0.84061300  1
  Fe  Fe3  1  0.71737100  0.65057200  0.78609400  1
  Fe  Fe4  1  0.46707500  0.52013000  0.41002900  1
  Fe  Fe5  1  0.53588400  0.47610300  0.58690900  1
  Fe  Fe6  1  0.28144100  0.35449000  0.21347500  1
  Fe  Fe7  1  0.22386200  0.90066400  0.53815100  1
  Fe  Fe8  1  0.96967000  0.77544300  0.16416200  1
  Fe  Fe9  1  0.03356000  0.73222900  0.34135200  1
  Fe  Fe10  1  0.52426600  0.96958100  0.08761800  1
  O  O0  1  0.05334600  0.85395200  0.88410000  1
  O  O1  1  0.56015500  0.91732300  0.81930200  1
  O  O2  1  0.50584600  0.77810300  0.98525800  1
  O  O3  1  0.95246800  0.47851600  0.75830700  1
  O  O4  1  0.93985000  0.29776400  0.94595800  1
  O  O5  1  0.55242500  0.12771600  0.63626800  1
  O  O6  1  0.50336100  0.38167300  0.86240300  1
  O  O7  1  0.06753700  0.19430800  0.56276300  1
  O  O8  1  0.00142000  0.01762800  0.73009300  1
  O  O9  1  0.47554900  0.73741000  0.51361100  1
  O  O10  1  0.42411300  0.54938500  0.68693300  1
  O  O11  1  0.99977800  0.33975500  0.39085100  1
  O  O12  1  0.96973300  0.63423200  0.60750700  1
  O  O13  1  0.56398400  0.42392100  0.30743300  1
  O  O14  1  0.53756900  0.24558900  0.48795800  1
  O  O15  1  0.95931200  0.00321000  0.25815800  1
  O  O16  1  0.93845600  0.83032700  0.44337300  1
  O  O17  1  0.53309200  0.61252900  0.13644800  1
  O  O18  1  0.50063600  0.90825900  0.35889300  1
  O  O19  1  0.08192600  0.68561600  0.06872800  1
  O  O20  1  0.02879900  0.51514800  0.23656600  1
  O  O21  1  0.44962800  0.23373000  0.01589300  1
  O  O22  1  0.43418500  0.06125300  0.19008300  1
  O  O23  1  0.97743200  0.14394700  0.10615500  1
loop_
_geom_bond_atom_site_label_1
_geom_bond_atom_site_label_2
_geom_bond_distance
_geom_bond_site_symmetry_2
Fe0 O2 2.098367 1_555
Fe0 O19 2.098679 1_656
Fe0 O0 2.109747 1_655
Fe0 O6 2.143552 1_555
Fe0 O21 2.246989 1_556
Fe0 O4 2.264981 1_555
Fe1 O8 2.076687 1_565
Fe1 O5 2.111948 1_565
Fe1 O1 2.117093 1_555
Fe1 O3 2.190467 1_455
Fe1 O12 2.190901 1_455
Fe1 O10 2.199817 1_555
Fe2 O4 2.056108 1_455
Fe2 O3 2.103548 1_455
Fe2 O6 2.113708 1_555
Fe2 O0 2.189751 1_545
Fe2 O8 2.194962 1_555
Fe2 O1 2.268654 1_445
Fe3 O3 1.963607 1_555
Fe3 O6 1.982513 1_555
Fe3 O10 2.021245 1_555
Fe3 O1 2.107600 1_555
Fe3 O0 2.156218 1_655
Fe3 O8 2.178351 1_665
Fe4 O13 2.051735 1_555
Fe4 O14 2.111536 1_555
Fe4 O11 2.128467 1_455
Fe4 O9 2.168852 1_555
Fe4 O18 2.231582 1_555
Fe4 O16 2.250309 1_555
Fe5 O12 1.980110 1_555
Fe5 O9 1.986791 1_555
Fe5 O10 2.000925 1_555
Fe5 O5 2.110244 1_555
Fe5 O14 2.165993 1_555
Fe5 O7 2.185165 1_555
Fe6 O13 1.938925 1_555
Fe6 O20 1.968809 1_555
Fe6 O17 2.035660 1_555
Fe6 O15 2.107067 1_455
Fe6 O22 2.171016 1_555
Fe6 O23 2.213341 1_455
Fe7 O16 1.956772 1_455
Fe7 O12 1.967807 1_455
Fe7 O9 1.983202 1_555
Fe7 O14 2.113909 1_565
Fe7 O5 2.169215 1_565
Fe7 O7 2.192213 1_565
Fe8 O19 1.967012 1_655
Fe8 O20 1.970939 1_655
Fe8 O17 1.999132 1_555
Fe8 O15 2.105882 1_565
Fe8 O22 2.177352 1_665
Fe8 O23 2.223204 1_565
Fe9 O16 2.042498 1_455
Fe9 O18 2.128468 1_555
Fe9 O15 2.158753 1_465
Fe9 O20 2.192355 1_555
Fe9 O13 2.242215 1_455
Fe9 O11 2.242956 1_455
Fe10 O21 2.014383 1_565
Fe10 O22 2.023065 1_565
Fe10 O2 2.055636 1_554
Fe10 O23 2.064224 1_565
Fe10 O19 2.084242 1_555
Fe10 O17 2.135278 1_555
O0 Ti0 1.835408 1_565
O1 Ti0 1.845585 1_565
O2 Ti0 1.978287 1_565
O2 Ti4 2.193196 1_556
O3 Ti1 1.947436 1_555
O4 Ti4 1.842691 1_656
O4 Ti0 2.269853 1_555
O5 Ti1 1.892908 1_555
O6 Ti0 2.000642 1_555
O7 Ti2 1.967363 1_455
O7 Ti1 2.085446 1_455
O8 Ti1 1.883157 1_455
O9 Ti2 2.145157 1_565
O10 Ti1 2.126251 1_455
O11 Ti2 1.882909 1_555
O11 Ti3 2.081084 1_555
O12 Ti1 2.127712 1_555
O13 Ti3 2.006062 1_555
O14 Ti2 1.925956 1_555
O15 Ti3 1.951676 1_555
O16 Ti2 2.002044 1_565
O17 Ti4 2.171313 1_555
O18 Ti3 1.854959 1_565
O18 Ti2 2.138880 1_565
O19 Ti4 2.106843 1_555
O20 Ti3 2.172992 1_455
O21 Ti4 1.900807 1_555
O21 Ti0 2.273976 1_554
O22 Ti3 1.978998 1_555
O23 Ti4 1.910893 1_655
