# generated using pymatgen
data_LiMg7N5
_symmetry_space_group_name_H-M   'P 1'
_cell_length_a   8.69065300
_cell_length_b   8.70993767
_cell_length_c   14.21887400
_cell_angle_alpha   90.08493128
_cell_angle_beta   90.12315548
_cell_angle_gamma   109.74780849
_symmetry_Int_Tables_number   1
_chemical_formula_structural   LiMg7N5
_chemical_formula_sum   'Li6 Mg42 N30'
_cell_volume   1012.99494565
_cell_formula_units_Z   6
loop_
 _symmetry_equiv_pos_site_id
 _symmetry_equiv_pos_as_xyz
  1  'x, y, z'
loop_
 _atom_site_type_symbol
 _atom_site_label
 _atom_site_symmetry_multiplicity
 _atom_site_fract_x
 _atom_site_fract_y
 _atom_site_fract_z
 _atom_site_occupancy
  Li  Li0  1  0.02621600  0.71370400  0.25792600  1
  Li  Li1  1  0.13762400  0.08656000  0.63598100  1
  Li  Li2  1  0.33659900  0.88897500  0.62267900  1
  Li  Li3  1  0.48475400  0.25971000  0.25100100  1
  Li  Li4  1  0.59860900  0.60032900  0.38109600  1
  Li  Li5  1  0.84544600  0.39092300  0.11888800  1
  Mg  Mg0  1  0.15514800  0.61076700  0.87952000  1
  Mg  Mg1  1  0.47707600  0.20821800  0.75468800  1
  Mg  Mg2  1  0.39920300  0.90781900  0.86343800  1
  Mg  Mg3  1  0.36111700  0.40478300  0.86933600  1
  Mg  Mg4  1  0.36193500  0.40219800  0.63720500  1
  Mg  Mg5  1  0.49252500  0.73255100  0.72851000  1
  Mg  Mg6  1  0.53431900  0.77190600  0.50678500  1
  Mg  Mg7  1  0.65065600  0.08686300  0.37520400  1
  Mg  Mg8  1  0.65067100  0.11411200  0.61655700  1
  Mg  Mg9  1  0.74646400  0.01742200  0.97872800  1
  Mg  Mg10  1  0.76250200  0.00219900  0.77135900  1
  Mg  Mg11  1  0.93743300  0.41581900  0.36548700  1
  Mg  Mg12  1  0.52607400  0.25505400  0.98242100  1
  Mg  Mg13  1  0.65428000  0.65299500  0.88320700  1
  Mg  Mg14  1  0.85379600  0.86048800  0.61609900  1
  Mg  Mg15  1  0.97915600  0.24103500  0.52304000  1
  Mg  Mg16  1  0.87761400  0.91166200  0.38437500  1
  Mg  Mg17  1  0.73561700  0.49885800  0.73291200  1
  Mg  Mg18  1  0.90018500  0.91985900  0.11895700  1
  Mg  Mg19  1  0.99149200  0.22992800  0.22730700  1
  Mg  Mg20  1  0.76310900  0.50496600  0.53668800  1
  Mg  Mg21  1  0.03614100  0.27168700  0.00504900  1
  Mg  Mg22  1  0.14326800  0.61219200  0.11698600  1
  Mg  Mg23  1  0.96515100  0.72557900  0.99259700  1
  Mg  Mg24  1  0.84650100  0.37738900  0.88478300  1
  Mg  Mg25  1  0.25528200  0.51576700  0.47950600  1
  Mg  Mg26  1  0.00670200  0.77673700  0.76489800  1
  Mg  Mg27  1  0.12709200  0.09514500  0.86495500  1
  Mg  Mg28  1  0.26883600  0.49278300  0.27094800  1
  Mg  Mg29  1  0.03352300  0.75585700  0.48518100  1
  Mg  Mg30  1  0.16323400  0.15984200  0.38220300  1
  Mg  Mg31  1  0.34078300  0.34124300  0.11630300  1
  Mg  Mg32  1  0.47034200  0.75011400  0.01701400  1
  Mg  Mg33  1  0.23134000  0.00119200  0.22972400  1
  Mg  Mg34  1  0.11152900  0.60293300  0.63807200  1
  Mg  Mg35  1  0.25124900  0.98725400  0.01979800  1
  Mg  Mg36  1  0.01956900  0.28432200  0.74309100  1
  Mg  Mg37  1  0.43461900  0.20356300  0.51586700  1
  Mg  Mg38  1  0.33894900  0.88326400  0.38805700  1
  Mg  Mg39  1  0.63127300  0.57847500  0.11016700  1
  Mg  Mg40  1  0.60995200  0.10761200  0.13782700  1
  Mg  Mg41  1  0.47923700  0.78656400  0.24131400  1
  N  N0  1  0.25204400  0.25429500  0.75285200  1
  N  N1  1  0.14086400  0.86055900  0.88976800  1
  N  N2  1  0.59204400  0.34359300  0.62174700  1
  N  N3  1  0.49978900  0.00118000  0.00171900  1
  N  N4  1  0.51787100  0.98800000  0.73700500  1
  N  N5  1  0.40846400  0.65942900  0.87544100  1
  N  N6  1  0.26370300  0.23428300  0.98563200  1
  N  N7  1  0.09763200  0.84246500  0.12473600  1
  N  N8  1  0.61117800  0.39265000  0.86008400  1
  N  N9  1  0.74837000  0.74988300  0.74887800  1
  N  N10  1  0.99635300  0.49703900  0.49966400  1
  N  N11  1  0.02741900  0.48526100  0.23728000  1
  N  N12  1  0.76172800  0.72980600  0.48008300  1
  N  N13  1  0.90029100  0.15757000  0.37404200  1
  N  N14  1  0.88295500  0.10834300  0.64068300  1
  N  N15  1  0.98537500  0.51316400  0.76401800  1
  N  N16  1  0.08509900  0.83425400  0.62359900  1
  N  N17  1  0.23589300  0.27291200  0.50990200  1
  N  N18  1  0.10821400  0.89832600  0.36209000  1
  N  N19  1  0.24302500  0.24642400  0.24804600  1
  N  N20  1  0.90508400  0.15514400  0.87594400  1
  N  N21  1  0.39650600  0.60873300  0.14008100  1
  N  N22  1  0.36081400  0.63584000  0.60659000  1
  N  N23  1  0.48338100  0.01782800  0.26545000  1
  N  N24  1  0.58882000  0.34010400  0.12360100  1
  N  N25  1  0.73866400  0.76638900  0.01693700  1
  N  N26  1  0.50787800  0.00794700  0.49400700  1
  N  N27  1  0.40343600  0.66445500  0.37203000  1
  N  N28  1  0.85861100  0.13308000  0.10916900  1
  N  N29  1  0.00630500  0.50182600  0.99718600  1
loop_
_geom_bond_atom_site_label_1
_geom_bond_atom_site_label_2
_geom_bond_distance
_geom_bond_site_symmetry_2
Li0 N11 2.014356 1_555
Li0 N18 2.121629 1_555
Li0 N7 2.184141 1_555
Li1 N16 2.095067 1_545
Li1 N0 2.211037 1_555
Li1 N14 2.285445 1_455
Li1 N17 2.378259 1_555
Li2 N16 2.073834 1_555
Li2 N4 2.221458 1_555
Li2 N22 2.295643 1_555
Li2 N26 2.368928 1_565
Li3 N24 2.042692 1_555
Li3 N19 2.064890 1_555
Li3 N23 2.113094 1_555
Li4 N27 1.960887 1_555
Li4 N12 2.041765 1_555
Li5 N24 2.123217 1_555
Li5 N29 2.232650 1_654
Li5 N11 2.261936 1_655
Li5 N28 2.290976 1_555
Mg0 N5 2.097524 1_555
Mg0 N29 2.134801 1_555
Mg0 N15 2.175921 1_455
Mg0 N1 2.225274 1_555
Mg1 N4 2.080013 1_545
Mg1 N0 2.125230 1_555
Mg1 N8 2.214679 1_555
Mg1 N2 2.276033 1_555
Mg2 N4 2.075607 1_555
Mg2 N1 2.174807 1_555
Mg2 N3 2.190628 1_566
Mg2 N5 2.198834 1_555
Mg3 N5 2.116295 1_555
Mg3 N0 2.122975 1_555
Mg3 N6 2.195490 1_555
Mg3 N8 2.215316 1_555
Mg4 N22 2.084910 1_555
Mg4 N0 2.111209 1_555
Mg4 N17 2.212755 1_555
Mg4 N2 2.235939 1_555
Mg5 N22 2.088206 1_555
Mg5 N4 2.163652 1_555
Mg5 N9 2.195613 1_555
Mg5 N5 2.236100 1_555
Mg6 N22 2.121008 1_555
Mg6 N26 2.152376 1_565
Mg6 N12 2.162646 1_555
Mg6 N27 2.259856 1_555
Mg7 N13 2.045372 1_555
Mg7 N26 2.074072 1_555
Mg7 N23 2.075345 1_555
Mg8 N14 2.064212 1_555
Mg8 N4 2.151523 1_545
Mg8 N26 2.154511 1_555
Mg8 N2 2.224413 1_555
Mg9 N20 2.090823 1_555
Mg9 N3 2.126224 1_556
Mg9 N28 2.174379 1_556
Mg9 N25 2.232483 1_546
Mg10 N20 2.095754 1_555
Mg10 N4 2.142772 1_545
Mg10 N9 2.182272 1_545
Mg10 N14 2.182293 1_555
Mg11 N11 1.997586 1_655
Mg11 N10 2.037040 1_555
Mg11 N13 2.165369 1_555
Mg12 N8 2.102826 1_555
Mg12 N24 2.143306 1_556
Mg12 N3 2.162805 1_556
Mg12 N6 2.226145 1_555
Mg13 N9 2.138714 1_555
Mg13 N25 2.151259 1_556
Mg13 N5 2.158477 1_555
Mg13 N8 2.194000 1_555
Mg14 N16 2.100934 1_655
Mg14 N14 2.115308 1_565
Mg14 N9 2.179063 1_555
Mg14 N12 2.246664 1_555
Mg15 N14 2.047338 1_555
Mg15 N17 2.161854 1_655
Mg15 N10 2.209512 1_555
Mg15 N13 2.266966 1_555
Mg16 N18 2.071255 1_655
Mg16 N12 2.075917 1_555
Mg16 N13 2.088955 1_565
Mg17 N8 2.152291 1_555
Mg17 N9 2.163073 1_555
Mg17 N2 2.174638 1_555
Mg17 N15 2.176103 1_555
Mg18 N28 2.013174 1_565
Mg18 N7 2.046177 1_655
Mg18 N25 2.139866 1_555
Mg19 N28 2.048424 1_555
Mg19 N11 2.143157 1_655
Mg19 N19 2.161249 1_655
Mg19 N13 2.247653 1_555
Mg20 N2 2.061361 1_555
Mg20 N10 2.118930 1_555
Mg20 N12 2.122160 1_555
Mg21 N29 2.109386 1_554
Mg21 N6 2.128610 1_554
Mg21 N28 2.187712 1_455
Mg21 N20 2.213989 1_454
Mg22 N11 2.102944 1_555
Mg22 N29 2.110860 1_554
Mg22 N7 2.174672 1_555
Mg22 N21 2.234728 1_555
Mg23 N29 2.097996 1_655
Mg23 N25 2.143773 1_556
Mg23 N1 2.157167 1_655
Mg23 N7 2.255026 1_656
Mg24 N8 2.122318 1_555
Mg24 N29 2.150814 1_655
Mg24 N20 2.165094 1_555
Mg24 N15 2.203214 1_555
Mg25 N17 2.109892 1_555
Mg25 N22 2.130546 1_555
Mg25 N27 2.134915 1_555
Mg25 N10 2.219754 1_455
Mg26 N1 2.111145 1_555
Mg26 N16 2.128361 1_555
Mg26 N9 2.188548 1_455
Mg26 N15 2.239897 1_455
Mg27 N1 2.116790 1_545
Mg27 N0 2.153665 1_555
Mg27 N20 2.168521 1_455
Mg27 N6 2.198926 1_555
Mg28 N19 2.105480 1_555
Mg28 N27 2.115256 1_555
Mg28 N11 2.130275 1_555
Mg28 N21 2.229515 1_555
Mg29 N16 2.079945 1_555
Mg29 N18 2.119300 1_555
Mg29 N10 2.176728 1_455
Mg29 N12 2.296340 1_455
Mg30 N17 2.057925 1_555
Mg30 N19 2.084447 1_555
Mg30 N18 2.181793 1_545
Mg30 N13 2.281238 1_455
Mg31 N6 2.082446 1_554
Mg31 N19 2.109537 1_555
Mg31 N24 2.161246 1_555
Mg31 N21 2.238620 1_555
Mg32 N21 2.113635 1_555
Mg32 N3 2.125612 1_565
Mg32 N5 2.160757 1_554
Mg32 N25 2.287894 1_555
Mg33 N7 2.095445 1_545
Mg33 N19 2.119469 1_555
Mg33 N18 2.203591 1_545
Mg33 N23 2.203956 1_555
Mg34 N15 2.110370 1_455
Mg34 N16 2.113824 1_555
Mg34 N22 2.135644 1_555
Mg34 N10 2.255644 1_455
Mg35 N7 2.115532 1_555
Mg35 N3 2.138158 1_565
Mg35 N6 2.173267 1_564
Mg35 N1 2.197119 1_554
Mg36 N0 2.127318 1_555
Mg36 N15 2.132740 1_455
Mg36 N14 2.153015 1_455
Mg36 N20 2.254361 1_455
Mg37 N17 2.014756 1_555
Mg37 N26 2.034016 1_555
Mg37 N2 2.117530 1_555
Mg38 N18 2.085484 1_555
Mg38 N26 2.124252 1_565
Mg38 N27 2.172365 1_555
Mg38 N23 2.238249 1_565
Mg39 N24 1.991744 1_555
Mg39 N25 2.070428 1_555
Mg39 N21 2.186291 1_555
Mg40 N24 2.104185 1_555
Mg40 N23 2.132131 1_555
Mg40 N28 2.136663 1_555
Mg40 N3 2.215472 1_555
Mg41 N23 2.031092 1_565
Mg41 N21 2.055320 1_555
Mg41 N27 2.134787 1_555
