# generated using pymatgen
data_Cu3Pd
_symmetry_space_group_name_H-M   'P 1'
_cell_length_a   3.68380108
_cell_length_b   3.68379703
_cell_length_c   25.52371049
_cell_angle_alpha   90.00002485
_cell_angle_beta   89.99996611
_cell_angle_gamma   90.00003142
_symmetry_Int_Tables_number   1
_chemical_formula_structural   Cu3Pd
_chemical_formula_sum   'Cu21 Pd7'
_cell_volume   346.36633493
_cell_formula_units_Z   7
loop_
 _symmetry_equiv_pos_site_id
 _symmetry_equiv_pos_as_xyz
  1  'x, y, z'
loop_
 _atom_site_type_symbol
 _atom_site_label
 _atom_site_symmetry_multiplicity
 _atom_site_fract_x
 _atom_site_fract_y
 _atom_site_fract_z
 _atom_site_occupancy
  Cu  Cu0  1  0.50000000  0.00000000  0.14294985  1
  Cu  Cu1  1  0.49999900  0.49999900  0.92867767  1
  Cu  Cu2  1  0.00000200  0.00000000  0.64317118  1
  Cu  Cu3  1  0.50000100  0.49999900  0.78573768  1
  Cu  Cu4  1  0.49999900  0.00000100  0.28561829  1
  Cu  Cu5  1  0.99999900  0.49999900  0.71437635  1
  Cu  Cu6  1  0.50000100  -0.00000000  0.85706122  1
  Cu  Cu7  1  0.50000000  0.50000000  0.07134339  1
  Cu  Cu8  1  0.50000100  0.00000100  0.57157281  1
  Cu  Cu9  1  0.00000100  0.50000000  0.14294885  1
  Cu  Cu10  1  0.00000100  0.49999900  0.42841168  1
  Cu  Cu11  1  0.49999900  0.99999900  0.71437635  1
  Cu  Cu12  1  0.00000000  0.50000000  0.85706222  1
  Cu  Cu13  1  0.00000000  0.50000200  0.57156981  1
  Cu  Cu14  1  0.99999800  0.99999900  0.35682292  1
  Cu  Cu15  1  0.50000000  0.00000000  0.42840968  1
  Cu  Cu16  1  0.50000100  0.50000100  0.21426653  1
  Cu  Cu17  1  0.99999900  0.50000000  0.28561829  1
  Cu  Cu18  1  0.00000100  0.00000100  0.49998738  1
  Cu  Cu19  1  -0.00000000  0.50000000  0.00001074  1
  Cu  Cu20  1  0.49999900  0.99999900  0.00001074  1
  Pd  Pd0  1  0.49999900  0.50000000  0.35680504  1
  Pd  Pd1  1  0.99999900  0.00000100  0.92838962  1
  Pd  Pd2  1  0.50000100  0.50000000  0.64318589  1
  Pd  Pd3  1  0.00000100  0.99999900  0.78549754  1
  Pd  Pd4  1  0.50000000  0.50000100  0.49999374  1
  Pd  Pd5  1  -0.00000000  0.00000000  0.07162223  1
  Pd  Pd6  1  0.00000100  0.00000000  0.21450432  1
loop_
_geom_bond_atom_site_label_1
_geom_bond_atom_site_label_2
_geom_bond_distance
_geom_bond_site_symmetry_2
Cu0 Cu16 2.589585 1_545
Cu0 Cu16 2.589589 1_555
Cu0 Pd5 2.589784 1_655
Cu0 Pd5 2.589785 1_555
Cu0 Pd6 2.593855 1_555
Cu0 Pd6 2.593861 1_655
Cu0 Cu7 2.594790 1_545
Cu0 Cu7 2.594792 1_555
Cu0 Cu9 2.604836 1_545
Cu0 Cu9 2.604837 1_555
Cu0 Cu9 2.604841 1_655
Cu0 Cu9 2.604843 1_645
Cu1 Cu19 2.589879 1_556
Cu1 Cu20 2.589880 1_556
Cu1 Cu20 2.589881 1_546
Cu1 Cu19 2.589886 1_656
Cu1 Cu12 2.594952 1_555
Cu1 Cu12 2.594956 1_655
Cu1 Cu6 2.594967 1_555
Cu1 Cu6 2.594974 1_565
Cu1 Pd1 2.604844 1_455
Cu1 Pd1 2.604845 1_555
Cu1 Pd1 2.604854 1_565
Cu1 Pd1 2.604856 1_465
Cu2 Cu5 2.587584 1_455
Cu2 Cu5 2.587590 1_445
Cu2 Cu8 2.594644 1_555
Cu2 Cu8 2.594650 1_455
Cu2 Pd2 2.604836 1_555
Cu2 Pd2 2.604837 1_545
Cu2 Pd2 2.604841 1_445
Cu2 Pd2 2.604843 1_455
Cu3 Cu6 2.589708 1_555
Cu3 Cu6 2.589712 1_565
Cu3 Cu5 2.590383 1_555
Cu3 Cu5 2.590395 1_455
Cu3 Pd3 2.604846 1_655
Cu3 Pd3 2.604846 1_545
Cu3 Pd3 2.604847 1_645
Cu3 Pd3 2.604847 1_555
Cu4 Pd6 2.585949 1_555
Cu4 Pd6 2.585958 1_655
Cu4 Pd0 2.587254 1_555
Cu4 Pd0 2.587260 1_545
Cu5 Pd3 2.586081 1_655
Cu5 Pd3 2.586082 1_645
Cu5 Pd2 2.587320 1_555
Cu5 Pd2 2.587329 1_655
Cu6 Pd1 2.589794 1_555
Cu6 Pd1 2.589803 1_455
Cu6 Pd3 2.594023 1_645
Cu6 Pd3 2.594024 1_545
Cu7 Cu9 2.594771 1_555
Cu7 Cu9 2.594778 1_655
Cu7 Pd5 2.604848 1_555
Cu7 Pd5 2.604848 1_665
Cu7 Pd5 2.604850 1_565
Cu7 Pd5 2.604850 1_655
Cu8 Pd4 2.594298 1_545
Cu8 Pd4 2.594299 1_555
Cu8 Pd2 2.594907 1_555
Cu8 Pd2 2.594913 1_545
Cu9 Pd5 2.589765 1_555
Cu9 Pd5 2.589766 1_565
Cu9 Pd6 2.593874 1_565
Cu9 Pd6 2.593875 1_555
Cu10 Cu18 2.594233 1_555
Cu10 Cu18 2.594243 1_565
Cu10 Pd4 2.594352 1_555
Cu10 Pd4 2.594356 1_455
Cu10 Cu14 2.594472 1_445
Cu10 Cu14 2.594473 1_455
Cu10 Pd0 2.594790 1_555
Cu10 Pd0 2.594802 1_455
Cu10 Cu15 2.604835 1_555
Cu10 Cu15 2.604839 1_565
Cu10 Cu15 2.604839 1_455
Cu10 Cu15 2.604845 1_465
Cu11 Pd3 2.586077 1_555
Cu11 Pd3 2.586089 1_655
Cu11 Pd2 2.587320 1_555
Cu11 Pd2 2.587326 1_565
Cu11 Cu2 2.587581 1_565
Cu11 Cu2 2.587595 1_665
Cu11 Cu3 2.590387 1_565
Cu11 Cu3 2.590389 1_555
Cu11 Cu5 2.604839 1_455
Cu11 Cu5 2.604839 1_565
Cu11 Cu5 2.604840 1_555
Cu11 Cu5 2.604840 1_465
Cu12 Cu3 2.589727 1_455
Cu12 Cu3 2.589731 1_555
Cu12 Pd1 2.589777 1_455
Cu12 Pd1 2.589781 1_465
Cu12 Pd3 2.594038 1_555
Cu12 Pd3 2.594042 1_545
Cu12 Cu6 2.604836 1_455
Cu12 Cu6 2.604837 1_465
Cu12 Cu6 2.604841 1_565
Cu12 Cu6 2.604843 1_555
Cu13 Pd4 2.594245 1_555
Cu13 Pd4 2.594247 1_455
Cu13 Cu18 2.594357 1_565
Cu13 Cu18 2.594361 1_555
Cu13 Cu2 2.594694 1_565
Cu13 Cu2 2.594705 1_555
Cu13 Pd2 2.594962 1_455
Cu13 Pd2 2.594969 1_555
Cu13 Cu8 2.604835 1_465
Cu13 Cu8 2.604839 1_455
Cu13 Cu8 2.604839 1_565
Cu13 Cu8 2.604845 1_555
Cu14 Cu17 2.587574 1_555
Cu14 Cu4 2.587577 1_565
Cu14 Cu17 2.587580 1_565
Cu14 Cu4 2.587581 1_665
Cu14 Cu15 2.594432 1_565
Cu14 Cu15 2.594444 1_665
Cu14 Pd0 2.604833 1_555
Cu14 Pd0 2.604840 1_655
Cu14 Pd0 2.604840 1_565
Cu14 Pd0 2.604844 1_665
Cu15 Cu18 2.594272 1_555
Cu15 Cu18 2.594279 1_655
Cu15 Pd4 2.594386 1_545
Cu15 Pd4 2.594390 1_555
Cu15 Pd0 2.594758 1_545
Cu15 Pd0 2.594759 1_555
Cu16 Cu9 2.589605 1_655
Cu16 Cu9 2.589607 1_555
Cu16 Cu17 2.590213 1_555
Cu16 Cu4 2.590216 1_565
Cu16 Cu4 2.590217 1_555
Cu16 Cu17 2.590222 1_455
Cu16 Pd6 2.604843 1_665
Cu16 Pd6 2.604844 1_565
Cu16 Pd6 2.604848 1_555
Cu16 Pd6 2.604850 1_655
Cu17 Pd6 2.585952 1_655
Cu17 Pd6 2.585953 1_665
Cu17 Pd0 2.587257 1_555
Cu17 Pd0 2.587259 1_655
Cu17 Cu4 2.604836 1_555
Cu17 Cu4 2.604837 1_655
Cu17 Cu4 2.604841 1_665
Cu17 Cu4 2.604843 1_565
Cu18 Cu8 2.594414 1_455
Cu18 Cu8 2.594415 1_555
Cu18 Pd4 2.604836 1_555
Cu18 Pd4 2.604837 1_545
Cu18 Pd4 2.604841 1_445
Cu18 Pd4 2.604843 1_455
Cu19 Cu7 2.589874 1_455
Cu19 Cu7 2.589875 1_555
Cu19 Pd5 2.594881 1_565
Cu19 Pd5 2.594882 1_555
Cu19 Pd1 2.595051 1_454
Cu19 Pd1 2.595058 1_464
Cu19 Cu20 2.604833 1_555
Cu19 Cu20 2.604840 1_545
Cu19 Cu20 2.604840 1_455
Cu19 Cu20 2.604844 1_445
Cu20 Cu7 2.589871 1_555
Cu20 Cu7 2.589875 1_565
Cu20 Pd5 2.594880 1_565
Cu20 Pd5 2.594886 1_665
Cu20 Pd1 2.595055 1_564
Cu20 Pd1 2.595057 1_464
