# generated using pymatgen
data_Re2P2O11
_symmetry_space_group_name_H-M   'P 1'
_cell_length_a   6.33489932
_cell_length_b   7.86779814
_cell_length_c   15.43329082
_cell_angle_alpha   89.99935246
_cell_angle_beta   90.00001915
_cell_angle_gamma   89.99995532
_symmetry_Int_Tables_number   1
_chemical_formula_structural   Re2P2O11
_chemical_formula_sum   'Re8 P8 O44'
_cell_volume   769.22159128
_cell_formula_units_Z   4
loop_
 _symmetry_equiv_pos_site_id
 _symmetry_equiv_pos_as_xyz
  1  'x, y, z'
loop_
 _atom_site_type_symbol
 _atom_site_label
 _atom_site_symmetry_multiplicity
 _atom_site_fract_x
 _atom_site_fract_y
 _atom_site_fract_z
 _atom_site_occupancy
  Re  Re0  1  0.25000122  0.25852706  0.46960788  1
  Re  Re1  1  0.74999974  0.05098123  0.21404090  1
  Re  Re2  1  0.25000053  0.24147722  0.96962255  1
  Re  Re3  1  0.75000044  0.75850987  0.03039671  1
  Re  Re4  1  0.24999893  0.94900476  0.78596566  1
  Re  Re5  1  0.25000003  0.55103020  0.28596982  1
  Re  Re6  1  0.75000007  0.44898641  0.71402437  1
  Re  Re7  1  0.75000015  0.74144938  0.53036037  1
  P  P0  1  0.74999883  0.87711503  0.73876317  1
  P  P1  1  0.74999972  0.13971304  0.43311182  1
  P  P2  1  0.25000031  0.37710607  0.76120779  1
  P  P3  1  0.75000012  0.36029283  0.93311331  1
  P  P4  1  0.75000004  0.62289954  0.23879482  1
  P  P5  1  0.25000049  0.63970467  0.06690148  1
  P  P6  1  0.24999983  0.12289840  0.26123020  1
  P  P7  1  0.24999993  0.86027317  0.56687479  1
  O  O0  1  0.74999969  0.54099335  0.96720904  1
  O  O1  1  0.75000052  0.93371389  0.11031072  1
  O  O2  1  0.25000032  0.38587280  0.55766968  1
  O  O3  1  0.25000265  0.43373140  0.38969681  1
  O  O4  1  0.75000014  0.95897578  0.46717478  1
  O  O5  1  0.93954360  0.23971431  0.46537000  1
  O  O6  1  0.93955915  0.26029444  0.96538315  1
  O  O7  1  0.24999929  0.86616967  0.66540300  1
  O  O8  1  0.74999881  0.88588602  0.94233370  1
  O  O9  1  0.25000151  0.39023666  0.86002107  1
  O  O10  1  0.55940831  0.52817070  0.27667256  1
  O  O11  1  0.74999911  0.69196446  0.76758106  1
  O  O12  1  0.75000025  0.25468370  0.66767421  1
  O  O13  1  0.24999952  0.30803204  0.23242079  1
  O  O14  1  0.05941449  0.47184283  0.72332766  1
  O  O15  1  0.94057617  0.97186985  0.77663500  1
  O  O16  1  0.06045835  0.76029585  0.53459126  1
  O  O17  1  0.75000073  0.36619959  0.83458805  1
  O  O18  1  0.74999892  0.61412514  0.44228880  1
  O  O19  1  0.44057918  0.02811863  0.22337475  1
  O  O20  1  0.44058538  0.47184270  0.72332752  1
  O  O21  1  0.05942027  0.02811887  0.22337472  1
  O  O22  1  0.24999970  0.11413312  0.05769080  1
  O  O23  1  0.74999950  0.80802160  0.26762398  1
  O  O24  1  0.24999924  0.74533876  0.33232148  1
  O  O25  1  0.56044157  0.26029390  0.96538278  1
  O  O26  1  0.74999931  0.89026361  0.63994708  1
  O  O27  1  0.25000126  0.04100774  0.53278881  1
  O  O28  1  0.94059133  0.52817059  0.27667250  1
  O  O29  1  0.74999946  0.60976374  0.13998695  1
  O  O30  1  0.43956081  0.73972257  0.03464945  1
  O  O31  1  0.24999957  0.63380171  0.16542192  1
  O  O32  1  0.25000044  0.10972005  0.36004775  1
  O  O33  1  0.06043869  0.73972139  0.03464883  1
  O  O34  1  0.74999970  0.13381760  0.33458674  1
  O  O35  1  0.25000202  0.45900458  0.03282275  1
  O  O36  1  0.24999971  0.06627600  0.88970662  1
  O  O37  1  0.24999919  0.75469317  0.83229626  1
  O  O38  1  0.56045938  0.23971498  0.46536993  1
  O  O39  1  0.75000106  0.56626525  0.61028124  1
  O  O40  1  0.74999905  0.24530637  0.16772599  1
  O  O41  1  0.43954120  0.76029483  0.53459156  1
  O  O42  1  0.24999899  0.19197634  0.73238760  1
  O  O43  1  0.55942110  0.97186954  0.77663505  1
loop_
_geom_bond_atom_site_label_1
_geom_bond_atom_site_label_2
_geom_bond_distance
_geom_bond_site_symmetry_2
O0 P3 1.515977 1_555
O0 Re3 1.969733 1_556
O1 Re1 1.847746 1_565
O1 Re3 1.849685 1_555
O2 Re0 1.688491 1_555
O3 Re5 1.847809 1_555
O3 Re0 1.849636 1_555
O4 P1 1.516062 1_565
O4 Re7 1.969766 1_555
O5 P1 1.519435 1_555
O5 Re0 1.973364 1_655
O6 P3 1.519551 1_555
O6 Re2 1.973265 1_655
O7 P7 1.521323 1_555
O7 Re4 1.971523 1_555
O8 Re3 1.688630 1_556
O9 P2 1.528510 1_555
O9 Re2 2.056945 1_555
O10 P4 1.534592 1_555
O10 Re5 1.973528 1_555
O11 P0 1.523104 1_555
O11 Re6 2.082747 1_555
O12 Re6 1.687827 1_555
O13 P6 1.522939 1_555
O13 Re5 2.082846 1_555
O14 P2 1.534605 1_555
O14 Re6 1.973571 1_455
O15 P0 1.534591 1_555
O15 Re4 1.973660 1_655
O16 P7 1.519454 1_555
O16 Re7 1.973384 1_455
O17 P3 1.521278 1_555
O17 Re6 1.971399 1_555
O18 Re7 1.688512 1_555
O19 P6 1.534599 1_555
O19 Re1 1.973648 1_555
O20 P2 1.534603 1_555
O20 Re6 1.973572 1_555
O21 P6 1.534600 1_555
O21 Re1 1.973648 1_455
O22 Re2 1.688546 1_554
O23 P4 1.522950 1_555
O23 Re1 2.082759 1_565
O24 Re5 1.687878 1_555
O25 P3 1.519550 1_555
O25 Re2 1.973263 1_555
O26 P0 1.528561 1_555
O26 Re7 2.057025 1_555
O27 P7 1.516165 1_545
O27 Re0 1.969682 1_555
O28 P4 1.534588 1_555
O28 Re5 1.973531 1_655
O29 P4 1.528430 1_555
O29 Re3 2.056743 1_555
O30 P5 1.519548 1_555
O30 Re3 1.973243 1_555
O31 P5 1.521203 1_555
O31 Re5 1.971129 1_555
O32 P6 1.528599 1_555
O32 Re0 2.056655 1_555
O33 P5 1.519553 1_555
O33 Re3 1.973234 1_455
O34 P1 1.521274 1_555
O34 Re1 1.971282 1_555
O35 P5 1.515883 1_555
O35 Re2 1.969903 1_554
O36 Re4 1.847905 1_545
O36 Re2 1.849689 1_555
O37 Re4 1.687747 1_555
O38 P1 1.519419 1_555
O38 Re0 1.973367 1_555
O39 Re6 1.847946 1_555
O39 Re7 1.849618 1_555
O40 Re1 1.687741 1_555
O41 P7 1.519454 1_555
O41 Re7 1.973388 1_555
O42 P2 1.522967 1_555
O42 Re4 2.082814 1_545
O43 P0 1.534591 1_555
O43 Re4 1.973656 1_555
