# generated using pymatgen
data_LiCd2HSe2O7
_symmetry_space_group_name_H-M   'P 1'
_cell_length_a   10.46481900
_cell_length_b   5.91651600
_cell_length_c   11.70288365
_cell_angle_alpha   89.49717806
_cell_angle_beta   90.00000000
_cell_angle_gamma   90.00000000
_symmetry_Int_Tables_number   1
_chemical_formula_structural   LiCd2HSe2O7
_chemical_formula_sum   'Li4 Cd8 H4 Se8 O28'
_cell_volume   724.55928774
_cell_formula_units_Z   4
loop_
 _symmetry_equiv_pos_site_id
 _symmetry_equiv_pos_as_xyz
  1  'x, y, z'
loop_
 _atom_site_type_symbol
 _atom_site_label
 _atom_site_symmetry_multiplicity
 _atom_site_fract_x
 _atom_site_fract_y
 _atom_site_fract_z
 _atom_site_occupancy
  Li  Li0  1  0.81161600  0.62902600  0.86074700  1
  Li  Li1  1  0.31161600  0.37097400  0.63925300  1
  Li  Li2  1  0.18838400  0.37097400  0.13925300  1
  Li  Li3  1  0.68838400  0.62902600  0.36074700  1
  Cd  Cd0  1  0.89704300  0.38089900  0.60456400  1
  Cd  Cd1  1  0.39704300  0.61910100  0.89543600  1
  Cd  Cd2  1  0.10295700  0.61910100  0.39543600  1
  Cd  Cd3  1  0.60295700  0.38089900  0.10456400  1
  Cd  Cd4  1  0.11810600  0.85230400  0.70516200  1
  Cd  Cd5  1  0.61810600  0.14769600  0.79483800  1
  Cd  Cd6  1  0.88189400  0.14769600  0.29483800  1
  Cd  Cd7  1  0.38189400  0.85230400  0.20516200  1
  H  H0  1  0.91730500  0.82806100  0.54489800  1
  H  H1  1  0.41730500  0.17193900  0.95510200  1
  H  H2  1  0.08269500  0.17193900  0.45510200  1
  H  H3  1  0.58269500  0.82806100  0.04489800  1
  Se  Se0  1  0.66537200  0.10441200  0.49838300  1
  Se  Se1  1  0.16537200  0.89558800  0.00161700  1
  Se  Se2  1  0.33462800  0.89558800  0.50161700  1
  Se  Se3  1  0.83462800  0.10441200  0.99838300  1
  Se  Se4  1  0.58939900  0.62155700  0.65598200  1
  Se  Se5  1  0.08939900  0.37844300  0.84401800  1
  Se  Se6  1  0.41060100  0.37844300  0.34401800  1
  Se  Se7  1  0.91060100  0.62155700  0.15598200  1
  O  O0  1  0.74575600  0.05867500  0.62641500  1
  O  O1  1  0.24575600  0.94132500  0.87358500  1
  O  O2  1  0.25424400  0.94132500  0.37358500  1
  O  O3  1  0.75424400  0.05867500  0.12641500  1
  O  O4  1  0.72953700  0.36511800  0.46197500  1
  O  O5  1  0.22953700  0.63488200  0.03802500  1
  O  O6  1  0.27046300  0.63488200  0.53802500  1
  O  O7  1  0.77046300  0.36511800  0.96197500  1
  O  O8  1  0.74933000  0.92949300  0.40736100  1
  O  O9  1  0.24933000  0.07050700  0.09263900  1
  O  O10  1  0.25067000  0.07050700  0.59263900  1
  O  O11  1  0.75067000  0.92949300  0.90736100  1
  O  O12  1  0.49714600  0.38029800  0.66927300  1
  O  O13  1  0.99714600  0.61970200  0.83072700  1
  O  O14  1  0.50285400  0.61970200  0.33072700  1
  O  O15  1  0.00285400  0.38029800  0.16927300  1
  O  O16  1  0.72519300  0.52134900  0.72391800  1
  O  O17  1  0.22519300  0.47865100  0.77608200  1
  O  O18  1  0.27480700  0.47865100  0.27608200  1
  O  O19  1  0.77480700  0.52134900  0.22391800  1
  O  O20  1  0.51747500  0.79536800  0.75759400  1
  O  O21  1  0.01747500  0.20463200  0.74240600  1
  O  O22  1  0.48252500  0.20463200  0.24240600  1
  O  O23  1  0.98252500  0.79536800  0.25759400  1
  O  O24  1  0.98789300  0.72368500  0.56031500  1
  O  O25  1  0.48789300  0.27631500  0.93968500  1
  O  O26  1  0.01210700  0.27631500  0.43968500  1
  O  O27  1  0.51210700  0.72368500  0.06031500  1
loop_
_geom_bond_atom_site_label_1
_geom_bond_atom_site_label_2
_geom_bond_distance
_geom_bond_site_symmetry_2
Li0 O16 1.950859 1_555
Li0 O11 1.970195 1_555
Li0 O13 1.973925 1_555
Li0 O7 1.998609 1_555
Li1 O17 1.950859 1_555
Li1 O10 1.970195 1_555
Li1 O12 1.973925 1_555
Li1 O6 1.998609 1_555
Li2 O18 1.950859 1_555
Li2 O9 1.970195 1_555
Li2 O15 1.973925 1_555
Li2 O5 1.998609 1_555
Li3 O19 1.950859 1_555
Li3 O8 1.970195 1_555
Li3 O14 1.973925 1_555
Li3 O4 1.998609 1_555
Cd0 O21 2.291001 1_655
Cd0 O24 2.294950 1_555
Cd0 O26 2.361557 1_655
Cd0 O4 2.422550 1_555
Cd0 O16 2.428182 1_555
Cd0 O0 2.489549 1_555
Cd1 O20 2.291001 1_555
Cd1 O25 2.294950 1_555
Cd1 O27 2.361557 1_556
Cd1 O5 2.422550 1_556
Cd1 O17 2.428182 1_555
Cd1 O1 2.489549 1_555
Cd2 O23 2.291001 1_455
Cd2 O26 2.294950 1_555
Cd2 O24 2.361557 1_455
Cd2 O6 2.422550 1_555
Cd2 O18 2.428182 1_555
Cd2 O2 2.489549 1_555
Cd3 O22 2.291001 1_555
Cd3 O27 2.294950 1_555
Cd3 O25 2.361557 1_554
Cd3 O7 2.422550 1_554
Cd3 O19 2.428182 1_555
Cd3 O3 2.489549 1_555
Cd4 O10 2.301176 1_565
Cd4 O24 2.309115 1_455
Cd4 O13 2.370670 1_455
Cd4 O21 2.379134 1_565
Cd4 O1 2.442347 1_555
Cd4 O17 2.607641 1_555
Cd5 O11 2.301176 1_545
Cd5 O25 2.309115 1_555
Cd5 O12 2.370670 1_555
Cd5 O20 2.379134 1_545
Cd5 O0 2.442347 1_555
Cd5 O16 2.607641 1_555
Cd6 O8 2.301176 1_545
Cd6 O26 2.309115 1_655
Cd6 O15 2.370670 1_655
Cd6 O23 2.379134 1_545
Cd6 O3 2.442347 1_555
Cd6 O19 2.607641 1_555
Cd7 O9 2.301176 1_565
Cd7 O27 2.309115 1_555
Cd7 O14 2.370670 1_555
Cd7 O22 2.379134 1_565
Cd7 O2 2.442347 1_555
Cd7 O18 2.607641 1_555
H0 O24 0.978580 1_555
H1 O25 0.978580 1_555
H2 O26 0.978580 1_555
H3 O27 0.978580 1_555
O0 Se0 1.737460 1_555
O1 Se1 1.737460 1_556
O2 Se2 1.737460 1_555
O3 Se3 1.737460 1_554
O4 Se0 1.732081 1_555
O5 Se1 1.732081 1_555
O6 Se2 1.732081 1_555
O7 Se3 1.732081 1_555
O8 Se0 1.731193 1_565
O9 Se1 1.731193 1_545
O10 Se2 1.731193 1_545
O11 Se3 1.731193 1_565
O12 Se4 1.729110 1_555
O13 Se5 1.729110 1_655
O14 Se6 1.729110 1_555
O15 Se7 1.729110 1_455
O16 Se4 1.730534 1_555
O17 Se5 1.730534 1_555
O18 Se6 1.730534 1_555
O19 Se7 1.730534 1_555
O20 Se4 1.749165 1_555
O21 Se5 1.749165 1_555
O22 Se6 1.749165 1_555
O23 Se7 1.749165 1_555
