# generated using pymatgen
data_La3O2F5
_symmetry_space_group_name_H-M   'P 1'
_cell_length_a   4.13788200
_cell_length_b   4.18361239
_cell_length_c   17.60809533
_cell_angle_alpha   89.62650018
_cell_angle_beta   89.70160861
_cell_angle_gamma   88.66628713
_symmetry_Int_Tables_number   1
_chemical_formula_structural   La3O2F5
_chemical_formula_sum   'La6 O4 F10'
_cell_volume   304.72597073
_cell_formula_units_Z   2
loop_
 _symmetry_equiv_pos_site_id
 _symmetry_equiv_pos_as_xyz
  1  'x, y, z'
loop_
 _atom_site_type_symbol
 _atom_site_label
 _atom_site_symmetry_multiplicity
 _atom_site_fract_x
 _atom_site_fract_y
 _atom_site_fract_z
 _atom_site_occupancy
  La  La0  1  0.22555200  0.73004200  0.91485100  1
  La  La1  1  0.25207500  0.73411900  0.59970900  1
  La  La2  1  0.25572900  0.83510200  0.25341300  1
  La  La3  1  0.75623800  0.25658000  0.73735600  1
  La  La4  1  0.74820200  0.23312800  0.41075700  1
  La  La5  1  0.76126400  0.24235400  0.07298900  1
  O  O0  1  0.27858300  0.25435500  0.00533900  1
  O  O1  1  0.25092700  0.22298300  0.66371500  1
  O  O2  1  0.25122300  0.22280900  0.34401700  1
  O  O3  1  0.75051400  0.73657700  0.66282600  1
  F  F0  1  0.22442000  0.58517900  0.78265200  1
  F  F1  1  0.24910000  0.23326500  0.50095300  1
  F  F2  1  0.25938600  0.25025800  0.15897000  1
  F  F3  1  0.75016000  0.74432400  0.99826300  1
  F  F4  1  0.69323900  0.79877600  0.83962700  1
  F  F5  1  0.75050000  0.72285100  0.33739100  1
  F  F6  1  0.74906000  0.73149200  0.49024100  1
  F  F7  1  0.75498300  0.72903900  0.15042100  1
  F  F8  1  0.75631500  0.17407200  0.24544600  1
  F  F9  1  0.93452900  0.25869400  0.88539800  1
loop_
_geom_bond_atom_site_label_1
_geom_bond_atom_site_label_2
_geom_bond_distance
_geom_bond_site_symmetry_2
La0 O0 2.547402 1_556
La0 O0 2.733126 1_566
La1 O1 2.341509 1_565
La1 O3 2.348210 1_555
La1 O3 2.348971 1_455
La1 O1 2.410795 1_555
La2 O2 2.282211 1_565
La2 O2 3.009310 1_555
La3 O3 2.391459 1_555
La3 O1 2.419200 1_655
La3 O1 2.473330 1_555
La3 O3 2.548623 1_545
La4 O2 2.375245 1_555
La4 O2 2.384591 1_655
La5 O0 2.330214 1_555
La5 O0 2.445670 1_655
F0 La0 2.409249 1_555
F0 La3 2.536423 1_455
F0 La3 2.687720 1_555
F1 La4 2.598704 1_555
F1 La4 2.617742 1_455
F1 La1 2.708569 1_545
F1 La1 2.731938 1_555
F2 La2 2.397004 1_545
F2 La5 2.563321 1_555
F2 La5 2.564746 1_455
F2 La2 2.967047 1_555
F3 La0 2.448643 1_655
F3 La5 2.470568 1_556
F3 La5 2.472947 1_566
F3 La0 2.629324 1_555
F4 La0 2.361460 1_555
F4 La0 2.585483 1_655
F4 La3 2.636757 1_565
F4 La3 2.911533 1_555
F5 La4 2.415125 1_555
F5 La4 2.502237 1_565
F5 La2 2.564419 1_555
F5 La2 2.604234 1_655
F6 La4 2.514862 1_565
F6 La4 2.518788 1_555
F6 La1 2.811130 1_555
F6 La1 2.844449 1_655
F7 La5 2.457374 1_555
F7 La5 2.536824 1_565
F7 La2 2.771678 1_555
F7 La2 2.805598 1_655
F8 La2 2.482989 1_645
F8 La2 2.540161 1_545
F9 La0 2.395416 1_655
F9 La0 2.545226 1_645
F9 La3 2.712944 1_555
