# generated using pymatgen
data_Nd2Fe14B
_symmetry_space_group_name_H-M   'P 1'
_cell_length_a   8.62859900
_cell_length_b   8.62859900
_cell_length_c   12.75007900
_cell_angle_alpha   90.00000000
_cell_angle_beta   90.00000000
_cell_angle_gamma   90.00000000
_symmetry_Int_Tables_number   1
_chemical_formula_structural   Nd2Fe14B
_chemical_formula_sum   'Nd8 Fe56 B4'
_cell_volume   949.27807073
_cell_formula_units_Z   4
loop_
 _symmetry_equiv_pos_site_id
 _symmetry_equiv_pos_as_xyz
  1  'x, y, z'
loop_
 _atom_site_type_symbol
 _atom_site_label
 _atom_site_symmetry_multiplicity
 _atom_site_fract_x
 _atom_site_fract_y
 _atom_site_fract_z
 _atom_site_occupancy
  Nd  Nd0  1  0.23495600  0.23495600  0.00000000  1
  Nd  Nd1  1  0.69568400  0.69568400  0.50000000  1
  Nd  Nd2  1  0.26504400  0.73495600  0.50000000  1
  Nd  Nd3  1  0.19568400  0.80431600  0.00000000  1
  Nd  Nd4  1  0.80431600  0.19568400  0.00000000  1
  Nd  Nd5  1  0.73495600  0.26504400  0.50000000  1
  Nd  Nd6  1  0.30431600  0.30431600  0.50000000  1
  Nd  Nd7  1  0.76504400  0.76504400  0.00000000  1
  Fe  Fe0  1  0.19778800  0.80221200  0.24900200  1
  Fe  Fe1  1  0.19778800  0.80221200  0.75099800  1
  Fe  Fe2  1  0.52308300  0.14171200  0.32231400  1
  Fe  Fe3  1  0.24364200  0.52966000  0.88192300  1
  Fe  Fe4  1  0.47691700  0.85828800  0.67768600  1
  Fe  Fe5  1  0.50000000  0.00000000  0.50000000  1
  Fe  Fe6  1  0.25635800  0.02966000  0.38192300  1
  Fe  Fe7  1  0.97034000  0.74364200  0.61807700  1
  Fe  Fe8  1  0.00000000  0.00000000  0.09430800  1
  Fe  Fe9  1  0.97691700  0.64171200  0.82231400  1
  Fe  Fe10  1  0.00000000  0.00000000  0.90569200  1
  Fe  Fe11  1  0.35828800  0.02308300  0.17768600  1
  Fe  Fe12  1  0.47691700  0.85828800  0.32231400  1
  Fe  Fe13  1  0.02966000  0.25635800  0.38192300  1
  Fe  Fe14  1  0.85828800  0.47691700  0.32231400  1
  Fe  Fe15  1  0.14171200  0.52308300  0.67768600  1
  Fe  Fe16  1  0.74364200  0.97034000  0.38192300  1
  Fe  Fe17  1  0.09987600  0.09987600  0.76051700  1
  Fe  Fe18  1  0.75635800  0.47034000  0.11807700  1
  Fe  Fe19  1  0.69778800  0.69778800  0.74900200  1
  Fe  Fe20  1  0.50000000  0.50000000  0.40569200  1
  Fe  Fe21  1  0.47034000  0.75635800  0.11807700  1
  Fe  Fe22  1  0.35828800  0.02308300  0.82231400  1
  Fe  Fe23  1  0.30221200  0.30221200  0.74900200  1
  Fe  Fe24  1  0.90012400  0.90012400  0.76051700  1
  Fe  Fe25  1  0.14171200  0.52308300  0.32231400  1
  Fe  Fe26  1  0.59987600  0.40012400  0.73948300  1
  Fe  Fe27  1  0.64171200  0.97691700  0.82231400  1
  Fe  Fe28  1  0.25635800  0.02966000  0.61807700  1
  Fe  Fe29  1  0.74364200  0.97034000  0.61807700  1
  Fe  Fe30  1  0.40012400  0.59987600  0.73948300  1
  Fe  Fe31  1  0.90012400  0.90012400  0.23948300  1
  Fe  Fe32  1  0.97691700  0.64171200  0.17768600  1
  Fe  Fe33  1  0.47034000  0.75635800  0.88192300  1
  Fe  Fe34  1  0.80221200  0.19778800  0.75099800  1
  Fe  Fe35  1  0.97034000  0.74364200  0.38192300  1
  Fe  Fe36  1  0.52966000  0.24364200  0.11807700  1
  Fe  Fe37  1  0.09987600  0.09987600  0.23948300  1
  Fe  Fe38  1  0.02308300  0.35828800  0.17768600  1
  Fe  Fe39  1  0.50000000  0.00000000  0.00000000  1
  Fe  Fe40  1  0.24364200  0.52966000  0.11807700  1
  Fe  Fe41  1  0.52966000  0.24364200  0.88192300  1
  Fe  Fe42  1  0.85828800  0.47691700  0.67768600  1
  Fe  Fe43  1  0.50000000  0.50000000  0.59430800  1
  Fe  Fe44  1  0.69778800  0.69778800  0.25099800  1
  Fe  Fe45  1  0.52308300  0.14171200  0.67768600  1
  Fe  Fe46  1  0.02966000  0.25635800  0.61807700  1
  Fe  Fe47  1  0.64171200  0.97691700  0.17768600  1
  Fe  Fe48  1  0.59987600  0.40012400  0.26051700  1
  Fe  Fe49  1  0.30221200  0.30221200  0.25099800  1
  Fe  Fe50  1  0.75635800  0.47034000  0.88192300  1
  Fe  Fe51  1  0.02308300  0.35828800  0.82231400  1
  Fe  Fe52  1  0.80221200  0.19778800  0.24900200  1
  Fe  Fe53  1  0.40012400  0.59987600  0.26051700  1
  Fe  Fe54  1  0.00000000  0.50000000  0.50000000  1
  Fe  Fe55  1  0.00000000  0.50000000  0.00000000  1
  B  B0  1  0.57254500  0.42745500  0.00000000  1
  B  B1  1  0.07254500  0.07254500  0.50000000  1
  B  B2  1  0.92745500  0.92745500  0.50000000  1
  B  B3  1  0.42745500  0.57254500  0.00000000  1
loop_
_geom_bond_atom_site_label_1
_geom_bond_atom_site_label_2
_geom_bond_distance
_geom_bond_site_symmetry_2
Fe0 Fe53 2.473403 1_555
Fe0 Fe11 2.525237 1_565
Fe0 Fe32 2.525237 1_455
Fe0 Fe12 2.628437 1_555
Fe0 Fe25 2.628437 1_555
Fe0 Fe6 2.641823 1_565
Fe0 Fe35 2.641823 1_455
Fe0 Fe31 2.706527 1_455
Fe0 Fe37 2.706527 1_565
Fe0 Fe40 2.910981 1_555
Fe0 Fe21 2.910981 1_555
Fe0 Fe8 3.116954 1_565
Fe0 Nd3 3.174899 1_555
Fe0 Nd2 3.303804 1_555
Fe1 Fe30 2.473403 1_555
Fe1 Fe22 2.525237 1_565
Fe1 Fe9 2.525237 1_455
Fe1 Fe4 2.628437 1_555
Fe1 Fe15 2.628437 1_555
Fe1 Fe28 2.641823 1_565
Fe1 Fe7 2.641823 1_455
Fe1 Fe24 2.706527 1_455
Fe1 Fe17 2.706527 1_565
Fe1 Fe3 2.910981 1_555
Fe1 Fe33 2.910981 1_555
Fe1 Fe10 3.116954 1_565
Fe1 Nd3 3.174899 1_556
Fe1 Nd2 3.303804 1_555
Fe2 Fe48 2.455928 1_555
Fe2 Fe49 2.525237 1_555
Fe2 Fe47 2.543640 1_545
Fe2 Fe5 2.582129 1_555
Fe2 Fe6 2.609438 1_555
Fe2 Fe52 2.628437 1_555
Fe2 Fe36 2.749141 1_555
Fe2 Nd5 3.099551 1_555
Fe2 Nd6 3.265625 1_555
Fe3 Fe30 2.342747 1_555
Fe3 Fe51 2.527060 1_555
Fe3 Fe55 2.598388 1_556
Fe3 Fe9 2.609438 1_455
Fe3 Nd3 2.837984 1_556
Fe3 Nd0 2.956074 1_556
Fe4 Fe45 2.477782 1_565
Fe4 Fe5 2.582129 1_565
Fe4 Nd2 3.099551 1_555
Fe4 Nd1 3.265625 1_555
Fe5 Fe6 2.598388 1_555
Fe5 Nd2 3.056189 1_545
Fe5 Nd5 3.056189 1_555
Fe5 Nd6 3.121842 1_555
Fe5 Nd1 3.121842 1_545
Fe6 Nd6 2.837984 1_555
Fe6 Nd2 2.956074 1_545
Fe7 Fe9 2.749141 1_555
Fe7 Nd1 2.837984 1_555
Fe7 Nd2 2.956074 1_655
Fe8 Nd3 2.673531 1_545
Fe8 Nd4 2.673531 1_455
Fe8 Nd0 3.109031 1_555
Fe8 Nd7 3.109031 1_445
Fe9 Nd7 3.099551 1_556
Fe9 Nd3 3.265625 1_656
Fe10 Fe17 2.216199 1_555
Fe10 Fe24 2.216199 1_445
Fe10 Fe8 2.404869 1_556
Fe10 Nd4 2.673531 1_456
Fe10 Nd3 2.673531 1_546
Fe10 Nd0 3.109031 1_556
Fe10 Nd7 3.109031 1_446
Fe10 Fe34 3.116954 1_455
Fe11 Fe37 2.455928 1_555
Fe11 Fe47 2.477782 1_545
Fe11 Fe36 2.527060 1_555
Fe11 Fe12 2.543640 1_545
Fe11 Fe2 2.543640 1_555
Fe11 Fe39 2.582129 1_555
Fe11 Fe21 2.609438 1_545
Fe11 Fe49 2.628437 1_555
Fe11 Fe6 2.749141 1_555
Fe11 Nd0 3.099551 1_555
Fe11 Nd3 3.265625 1_545
Fe12 Fe53 2.455928 1_555
Fe12 Fe2 2.477782 1_565
Fe12 Fe44 2.525237 1_555
Fe12 Fe6 2.527060 1_565
Fe12 Fe47 2.543640 1_555
Fe12 Fe5 2.582129 1_565
Fe12 Fe16 2.609438 1_555
Fe12 Fe21 2.749141 1_555
Fe12 Nd2 3.099551 1_555
Fe12 Nd1 3.265625 1_555
Fe13 Fe37 2.342747 1_555
Fe13 Fe14 2.527060 1_455
Fe13 Fe54 2.598388 1_555
Fe13 Fe25 2.609438 1_555
Fe13 Fe52 2.641823 1_455
Fe13 Fe38 2.749141 1_555
Fe13 Nd6 2.837984 1_555
Fe13 Fe49 2.910981 1_555
Fe13 Nd5 2.956074 1_455
Fe14 Fe48 2.455928 1_555
Fe14 Fe25 2.477782 1_655
Fe14 Fe44 2.525237 1_555
Fe14 Fe38 2.543640 1_655
Fe14 Fe32 2.543640 1_555
Fe14 Fe54 2.582129 1_655
Fe14 Fe35 2.609438 1_555
Fe14 Fe52 2.628437 1_555
Fe14 Fe18 2.749141 1_555
Fe14 Nd5 3.099551 1_555
Fe14 Nd1 3.265625 1_555
Fe15 Fe30 2.455928 1_555
Fe15 Fe42 2.477782 1_455
Fe15 Fe23 2.525237 1_555
Fe15 Fe7 2.527060 1_455
Fe15 Fe9 2.543640 1_455
Fe15 Fe51 2.543640 1_555
Fe15 Fe54 2.582129 1_555
Fe15 Fe46 2.609438 1_555
Fe15 Fe3 2.749141 1_555
Fe15 Nd2 3.099551 1_555
Fe15 Nd6 3.265625 1_555
Fe16 Fe31 2.342747 1_555
Fe16 Fe2 2.527060 1_565
Fe16 Fe5 2.598388 1_565
Fe16 Fe52 2.641823 1_565
Fe16 Fe47 2.749141 1_555
Fe16 Nd1 2.837984 1_555
Fe16 Fe44 2.910981 1_555
Fe16 Nd5 2.956074 1_565
Fe17 Fe46 2.342747 1_555
Fe17 Fe28 2.342747 1_555
Fe17 Fe24 2.437510 1_445
Fe17 Fe51 2.455928 1_555
Fe17 Fe22 2.455928 1_555
Fe17 Fe23 2.473403 1_555
Fe17 Fe34 2.706527 1_455
Fe18 Fe48 2.342747 1_555
Fe18 Fe32 2.527060 1_555
Fe18 Fe55 2.598388 1_655
Fe18 Fe38 2.609438 1_655
Fe18 Fe44 2.641823 1_555
Fe18 Nd4 2.837984 1_555
Fe18 Fe52 2.910981 1_555
Fe18 Nd7 2.956074 1_555
Fe19 Fe24 2.473403 1_555
Fe19 Fe4 2.525237 1_555
Fe19 Fe42 2.525237 1_555
Fe19 Fe27 2.628437 1_555
Fe19 Fe9 2.628437 1_555
Fe19 Fe50 2.641823 1_555
Fe19 Fe33 2.641823 1_555
Fe19 Fe26 2.706527 1_555
Fe19 Fe30 2.706527 1_555
Fe19 Fe7 2.910981 1_555
Fe19 Fe29 2.910981 1_555
Fe19 Fe43 3.116954 1_555
Fe19 Nd1 3.174899 1_555
Fe19 Nd7 3.303804 1_556
Fe20 Fe48 2.216199 1_555
Fe20 Fe53 2.216199 1_555
Fe20 Fe43 2.404869 1_555
Fe20 Nd1 2.673531 1_555
Fe20 Nd6 2.673531 1_555
Fe20 Nd5 3.109031 1_555
Fe20 Nd2 3.109031 1_555
Fe20 Fe44 3.116954 1_555
Fe20 Fe49 3.116954 1_555
Fe21 Fe53 2.342747 1_555
Fe21 Fe47 2.527060 1_555
Fe21 Fe39 2.598388 1_565
Fe21 Fe44 2.641823 1_555
Fe21 Nd3 2.837984 1_555
Fe21 Nd7 2.956074 1_555
Fe22 Fe27 2.477782 1_545
Fe22 Fe41 2.527060 1_555
Fe22 Fe4 2.543640 1_545
Fe22 Fe45 2.543640 1_555
Fe22 Fe39 2.582129 1_556
Fe22 Fe33 2.609438 1_545
Fe22 Fe23 2.628437 1_555
Fe22 Fe28 2.749141 1_555
Fe22 Nd0 3.099551 1_556
Fe22 Nd3 3.265625 1_546
Fe23 Fe45 2.525237 1_555
Fe23 Fe51 2.628437 1_555
Fe23 Fe41 2.641823 1_555
Fe23 Fe3 2.641823 1_555
Fe23 Fe26 2.706527 1_555
Fe23 Fe30 2.706527 1_555
Fe23 Fe46 2.910981 1_555
Fe23 Fe28 2.910981 1_555
Fe23 Fe43 3.116954 1_555
Fe23 Nd6 3.174899 1_555
Fe23 Nd0 3.303804 1_556
Fe24 Fe29 2.342747 1_555
Fe24 Fe7 2.342747 1_555
Fe24 Fe9 2.455928 1_555
Fe24 Fe27 2.455928 1_555
Fe24 Fe34 2.706527 1_565
Fe25 Fe53 2.455928 1_555
Fe25 Fe49 2.525237 1_555
Fe25 Fe35 2.527060 1_455
Fe25 Fe32 2.543640 1_455
Fe25 Fe38 2.543640 1_555
Fe25 Fe54 2.582129 1_555
Fe25 Fe40 2.749141 1_555
Fe25 Nd2 3.099551 1_555
Fe25 Nd6 3.265625 1_555
Fe26 Fe43 2.216199 1_555
Fe26 Fe41 2.342747 1_555
Fe26 Fe50 2.342747 1_555
Fe26 Fe30 2.437510 1_555
Fe26 Fe45 2.455928 1_555
Fe26 Fe42 2.455928 1_555
Fe26 Fe34 2.473403 1_555
Fe27 Fe34 2.525237 1_565
Fe27 Fe33 2.527060 1_555
Fe27 Fe45 2.543640 1_565
Fe27 Fe4 2.543640 1_555
Fe27 Fe39 2.582129 1_566
Fe27 Fe41 2.609438 1_565
Fe27 Fe29 2.749141 1_555
Fe27 Nd7 3.099551 1_556
Fe27 Nd4 3.265625 1_566
Fe28 Fe4 2.527060 1_545
Fe28 Fe5 2.598388 1_555
Fe28 Fe45 2.609438 1_555
Fe28 Nd6 2.837984 1_555
Fe28 Nd2 2.956074 1_545
Fe29 Fe45 2.527060 1_565
Fe29 Fe5 2.598388 1_565
Fe29 Fe4 2.609438 1_555
Fe29 Fe34 2.641823 1_565
Fe29 Nd1 2.837984 1_555
Fe29 Nd5 2.956074 1_565
Fe30 Fe43 2.216199 1_555
Fe30 Fe33 2.342747 1_555
Fe30 Fe4 2.455928 1_555
Fe31 Fe8 2.216199 1_665
Fe31 Fe35 2.342747 1_555
Fe31 Fe37 2.437510 1_665
Fe31 Fe47 2.455928 1_555
Fe31 Fe32 2.455928 1_555
Fe31 Fe44 2.473403 1_555
Fe31 Fe52 2.706527 1_565
Fe32 Fe38 2.477782 1_655
Fe32 Fe55 2.582129 1_655
Fe32 Fe40 2.609438 1_655
Fe32 Fe44 2.628437 1_555
Fe32 Fe35 2.749141 1_555
Fe32 Nd7 3.099551 1_555
Fe32 Nd3 3.265625 1_655
Fe33 Fe39 2.598388 1_566
Fe33 Fe4 2.749141 1_555
Fe33 Nd3 2.837984 1_556
Fe33 Nd7 2.956074 1_556
Fe34 Fe51 2.525237 1_655
Fe34 Fe42 2.628437 1_555
Fe34 Fe45 2.628437 1_555
Fe34 Fe46 2.641823 1_655
Fe34 Fe41 2.910981 1_555
Fe34 Fe50 2.910981 1_555
Fe34 Nd4 3.174899 1_556
Fe34 Nd5 3.303804 1_555
Fe35 Fe54 2.598388 1_655
Fe35 Nd1 2.837984 1_555
Fe35 Fe44 2.910981 1_555
Fe35 Nd2 2.956074 1_655
Fe36 Fe48 2.342747 1_555
Fe36 Fe39 2.598388 1_555
Fe36 Fe47 2.609438 1_545
Fe36 Fe49 2.641823 1_555
Fe36 Nd4 2.837984 1_555
Fe36 Fe52 2.910981 1_555
Fe36 Nd0 2.956074 1_555
Fe37 Fe8 2.216199 1_555
Fe37 Fe6 2.342747 1_555
Fe37 Fe38 2.455928 1_555
Fe37 Fe49 2.473403 1_555
Fe37 Fe52 2.706527 1_455
Fe38 Fe52 2.525237 1_455
Fe38 Fe40 2.527060 1_555
Fe38 Fe55 2.582129 1_555
Fe38 Fe49 2.628437 1_555
Fe38 Nd0 3.099551 1_555
Fe38 Nd4 3.265625 1_455
Fe39 Fe47 2.582129 1_545
Fe39 Fe41 2.598388 1_554
Fe39 Nd7 3.056189 1_545
Fe39 Nd0 3.056189 1_555
Fe39 Nd4 3.121842 1_555
Fe39 Nd3 3.121842 1_545
Fe40 Fe53 2.342747 1_555
Fe40 Fe55 2.598388 1_555
Fe40 Fe49 2.641823 1_555
Fe40 Nd3 2.837984 1_555
Fe40 Nd0 2.956074 1_555
Fe41 Fe45 2.749141 1_555
Fe41 Nd4 2.837984 1_556
Fe41 Nd0 2.956074 1_556
Fe42 Fe46 2.527060 1_655
Fe42 Fe51 2.543640 1_655
Fe42 Fe9 2.543640 1_555
Fe42 Fe54 2.582129 1_655
Fe42 Fe7 2.609438 1_555
Fe42 Fe50 2.749141 1_555
Fe42 Nd5 3.099551 1_555
Fe42 Nd1 3.265625 1_555
Fe43 Nd1 2.673531 1_555
Fe43 Nd6 2.673531 1_555
Fe43 Nd5 3.109031 1_555
Fe43 Nd2 3.109031 1_555
Fe44 Fe47 2.628437 1_555
Fe44 Fe48 2.706527 1_555
Fe44 Fe53 2.706527 1_555
Fe44 Nd1 3.174899 1_555
Fe44 Nd7 3.303804 1_555
Fe45 Fe5 2.582129 1_555
Fe45 Nd5 3.099551 1_555
Fe45 Nd6 3.265625 1_555
Fe46 Fe54 2.598388 1_555
Fe46 Fe51 2.749141 1_555
Fe46 Nd6 2.837984 1_555
Fe46 Nd5 2.956074 1_455
Fe47 Fe52 2.525237 1_565
Fe47 Nd7 3.099551 1_555
Fe47 Nd4 3.265625 1_565
Fe48 Fe53 2.437510 1_555
Fe48 Fe52 2.473403 1_555
Fe48 Fe49 2.706527 1_555
Fe49 Fe53 2.706527 1_555
Fe49 Fe6 2.910981 1_555
Fe49 Nd6 3.174899 1_555
Fe49 Nd0 3.303804 1_555
Fe50 Fe9 2.527060 1_555
Fe50 Fe55 2.598388 1_656
Fe50 Fe51 2.609438 1_655
Fe50 Nd4 2.837984 1_556
Fe50 Nd7 2.956074 1_556
Fe51 Fe9 2.477782 1_455
Fe51 Fe55 2.582129 1_556
Fe51 Nd0 3.099551 1_556
Fe51 Nd4 3.265625 1_456
Fe52 Fe8 3.116954 1_655
Fe52 Nd4 3.174899 1_555
Fe52 Nd5 3.303804 1_555
Fe54 Fe7 2.598388 1_455
Fe54 Nd5 3.056189 1_455
Fe54 Nd2 3.056189 1_555
Fe54 Nd1 3.121842 1_455
Fe54 Nd6 3.121842 1_555
Fe55 Fe9 2.582129 1_454
Fe55 Nd7 3.056189 1_455
Fe55 Nd0 3.056189 1_555
Fe55 Nd4 3.121842 1_455
Fe55 Nd3 3.121842 1_555
B0 B3 1.770487 1_555
B0 Fe36 2.217878 1_555
B0 Fe41 2.217878 1_554
B0 Fe18 2.217878 1_555
B0 Fe50 2.217878 1_554
B0 Nd4 2.828228 1_555
B1 B2 1.770487 1_445
B1 Fe46 2.217878 1_555
B1 Fe28 2.217878 1_555
B1 Fe13 2.217878 1_555
B1 Fe6 2.217878 1_555
B1 Nd6 2.828228 1_555
B2 Fe35 2.217878 1_555
B2 Fe7 2.217878 1_555
B2 Fe16 2.217878 1_555
B2 Fe29 2.217878 1_555
B2 Nd1 2.828228 1_555
B3 Fe3 2.217878 1_554
B3 Fe40 2.217878 1_555
B3 Fe33 2.217878 1_554
B3 Fe21 2.217878 1_555
B3 Nd3 2.828228 1_555
