# generated using pymatgen
data_H8Pd(NCl3)2
_symmetry_space_group_name_H-M   'P 1'
_cell_length_a   6.89612524
_cell_length_b   6.87545696
_cell_length_c   10.02457160
_cell_angle_alpha   90.00000000
_cell_angle_beta   90.01204026
_cell_angle_gamma   90.00000000
_symmetry_Int_Tables_number   1
_chemical_formula_structural   H8Pd(NCl3)2
_chemical_formula_sum   'H16 Pd2 N4 Cl12'
_cell_volume   475.30515043
_cell_formula_units_Z   2
loop_
 _symmetry_equiv_pos_site_id
 _symmetry_equiv_pos_as_xyz
  1  'x, y, z'
loop_
 _atom_site_type_symbol
 _atom_site_label
 _atom_site_symmetry_multiplicity
 _atom_site_fract_x
 _atom_site_fract_y
 _atom_site_fract_z
 _atom_site_occupancy
  H  H0  1  0.85094535  0.52350885  0.25309221  1
  H  H1  1  0.35094535  0.97649115  0.75309221  1
  H  H2  1  0.14905465  0.47649115  0.74690779  1
  H  H3  1  0.64905465  0.02350885  0.24690779  1
  H  H4  1  0.06111393  0.55744343  0.33522126  1
  H  H5  1  0.56111393  0.94255657  0.83522126  1
  H  H6  1  0.93888607  0.44255657  0.66477874  1
  H  H7  1  0.43888607  0.05744343  0.16477874  1
  H  H8  1  0.02060335  0.35098064  0.24966076  1
  H  H9  1  0.52060335  0.14901936  0.74966076  1
  H  H10  1  0.97939665  0.64901936  0.75033924  1
  H  H11  1  0.47939665  0.85098064  0.25033924  1
  H  H12  1  0.05782384  0.56132118  0.16775985  1
  H  H13  1  0.55782284  0.93867882  0.66775985  1
  H  H14  1  0.94217716  0.43867882  0.83224015  1
  H  H15  1  0.44217616  0.06132118  0.33224015  1
  Pd  Pd0  1  0.50000000  0.50000000  0.50000000  1
  Pd  Pd1  1  -0.00000000  0.00000000  -0.00000000  1
  N  N0  1  0.99783212  0.49858202  0.25141656  1
  N  N1  1  0.49783212  0.00141798  0.75141656  1
  N  N2  1  0.00216788  0.50141798  0.74858344  1
  N  N3  1  0.50216788  0.99858202  0.24858344  1
  Cl  Cl0  1  0.23994794  0.71448296  0.49651074  1
  Cl  Cl1  1  0.73994794  0.78551704  0.99651074  1
  Cl  Cl2  1  0.76005206  0.28551704  0.50348926  1
  Cl  Cl3  1  0.26005206  0.21448296  0.00348926  1
  Cl  Cl4  1  0.28646605  0.23892464  0.49375081  1
  Cl  Cl5  1  0.78646605  0.26107536  0.99375081  1
  Cl  Cl6  1  0.71353395  0.76107536  0.50624919  1
  Cl  Cl7  1  0.21353395  0.73892464  0.00624919  1
  Cl  Cl8  1  0.50947622  0.50588754  0.26831797  1
  Cl  Cl9  1  0.00947622  0.99411246  0.76831797  1
  Cl  Cl10  1  0.49052378  0.49411246  0.73168203  1
  Cl  Cl11  1  0.99052378  0.00588754  0.23168203  1
loop_
_geom_bond_atom_site_label_1
_geom_bond_atom_site_label_2
_geom_bond_distance
_geom_bond_site_symmetry_2
H0 N0 1.027486 1_555
H1 N1 1.027486 1_565
H2 N2 1.027486 1_555
H3 N3 1.027486 1_545
H4 N0 1.029490 1_455
H5 N1 1.029490 1_565
H6 N2 1.029490 1_655
H7 N3 1.029490 1_545
H8 N0 1.027056 1_455
H9 N1 1.027056 1_555
H10 N2 1.027056 1_655
H11 N3 1.027056 1_555
H12 N0 1.029884 1_455
H13 N1 1.029882 1_565
H14 N2 1.029882 1_655
H15 N3 1.029884 1_545
Cl0 Pd0 2.322058 1_555
Cl1 Pd1 2.322058 1_666
Cl2 Pd0 2.322058 1_555
Cl3 Pd1 2.322058 1_555
Cl4 Pd0 2.322580 1_555
Cl5 Pd1 2.322580 1_656
Cl6 Pd0 2.322580 1_555
Cl7 Pd1 2.322580 1_565
Cl8 Pd0 2.323799 1_555
Cl9 Pd1 2.323799 1_566
Cl10 Pd0 2.323799 1_555
Cl11 Pd1 2.323799 1_655
