# generated using pymatgen
data_CrNi2Hg
_symmetry_space_group_name_H-M   'P 1'
_cell_length_a   4.32849759
_cell_length_b   4.32849759
_cell_length_c   4.32849759
_cell_angle_alpha   60.00000000
_cell_angle_beta   60.00000000
_cell_angle_gamma   60.00000000
_symmetry_Int_Tables_number   1
_chemical_formula_structural   CrNi2Hg
_chemical_formula_sum   'Cr1 Ni2 Hg1'
_cell_volume   57.34513019
_cell_formula_units_Z   1
loop_
 _symmetry_equiv_pos_site_id
 _symmetry_equiv_pos_as_xyz
  1  'x, y, z'
loop_
 _atom_site_type_symbol
 _atom_site_label
 _atom_site_symmetry_multiplicity
 _atom_site_fract_x
 _atom_site_fract_y
 _atom_site_fract_z
 _atom_site_occupancy
  Cr  Cr0  1  0.25000000  0.25000000  0.25000000  1
  Ni  Ni0  1  0.75000000  0.75000000  0.75000000  1
  Ni  Ni1  1  0.50000000  0.50000000  0.50000000  1
  Hg  Hg0  1  0.00000000  0.00000000  0.00000000  1
loop_
_geom_bond_atom_site_label_1
_geom_bond_atom_site_label_2
_geom_bond_distance
_geom_bond_site_symmetry_2
Cr0 Ni1 2.650653 1_455
Cr0 Hg0 2.650653 1_655
Cr0 Ni1 2.650653 1_545
Cr0 Ni1 2.650653 1_554
Cr0 Hg0 2.650653 1_556
Cr0 Hg0 2.650653 1_555
Cr0 Ni1 2.650653 1_555
Cr0 Hg0 2.650653 1_565
Ni0 Ni1 2.650653 1_655
Ni0 Ni1 2.650653 1_556
Ni0 Ni1 2.650653 1_555
Ni0 Ni1 2.650653 1_565
Hg0 Ni0 2.650653 1_544
Hg0 Ni0 2.650653 1_445
Hg0 Ni0 2.650653 1_444
Hg0 Ni0 2.650653 1_454
