# generated using pymatgen
data_CsRe6S8Br3
_symmetry_space_group_name_H-M   'P 1'
_cell_length_a   18.85394900
_cell_length_b   6.43187600
_cell_length_c   15.85544635
_cell_angle_alpha   73.62426791
_cell_angle_beta   90.00000000
_cell_angle_gamma   90.00000000
_symmetry_Int_Tables_number   1
_chemical_formula_structural   CsRe6S8Br3
_chemical_formula_sum   'Cs4 Re24 S32 Br12'
_cell_volume   1844.73221024
_cell_formula_units_Z   4
loop_
 _symmetry_equiv_pos_site_id
 _symmetry_equiv_pos_as_xyz
  1  'x, y, z'
loop_
 _atom_site_type_symbol
 _atom_site_label
 _atom_site_symmetry_multiplicity
 _atom_site_fract_x
 _atom_site_fract_y
 _atom_site_fract_z
 _atom_site_occupancy
  Cs  Cs0  1  0.47971700  0.53440300  0.75185300  1
  Cs  Cs1  1  0.97971700  0.46559700  0.74814700  1
  Cs  Cs2  1  0.02028300  0.53440300  0.25185300  1
  Cs  Cs3  1  0.52028300  0.46559700  0.24814700  1
  Re  Re0  1  0.66091900  0.00250800  0.04686000  1
  Re  Re1  1  0.33649700  0.07647300  0.55017100  1
  Re  Re2  1  0.73816200  0.66605700  0.04093400  1
  Re  Re3  1  0.83649700  0.92352700  0.94982900  1
  Re  Re4  1  0.70510600  0.96720100  0.60174900  1
  Re  Re5  1  0.16350300  0.07647300  0.05017100  1
  Re  Re6  1  0.79734200  0.95905200  0.39481600  1
  Re  Re7  1  0.16091900  0.99749200  0.45314000  1
  Re  Re8  1  0.33908100  0.99749200  0.95314000  1
  Re  Re9  1  0.25921700  0.74011000  0.54426900  1
  Re  Re10  1  0.24078300  0.74011000  0.04426900  1
  Re  Re11  1  0.83908100  0.00250800  0.54686000  1
  Re  Re12  1  0.23816200  0.33394300  0.45906600  1
  Re  Re13  1  0.74078300  0.25989000  0.45573100  1
  Re  Re14  1  0.75921700  0.25989000  0.95573100  1
  Re  Re15  1  0.76183800  0.66605700  0.54093400  1
  Re  Re16  1  0.66350300  0.92352700  0.44982900  1
  Re  Re17  1  0.29489400  0.03279900  0.39825100  1
  Re  Re18  1  0.26183800  0.33394300  0.95906600  1
  Re  Re19  1  0.29734200  0.04094800  0.10518400  1
  Re  Re20  1  0.20510600  0.03279900  0.89825100  1
  Re  Re21  1  0.79489400  0.96720100  0.10174900  1
  Re  Re22  1  0.20265800  0.04094800  0.60518400  1
  Re  Re23  1  0.70265800  0.95905200  0.89481600  1
  S  S0  1  0.21949800  0.73290100  0.39419700  1
  S  S1  1  0.28050200  0.73290100  0.89419700  1
  S  S2  1  0.77791600  0.65869000  0.89098600  1
  S  S3  1  0.86054800  0.65690900  0.08862900  1
  S  S4  1  0.79643100  0.19717800  0.81996500  1
  S  S5  1  0.86307100  0.26883200  0.40799300  1
  S  S6  1  0.38247400  0.27959400  0.01189000  1
  S  S7  1  0.27791600  0.34131000  0.60901400  1
  S  S8  1  0.71949800  0.26709900  0.10580300  1
  S  S9  1  0.13692900  0.73116800  0.59200700  1
  S  S10  1  0.87981900  0.20586100  0.00830800  1
  S  S11  1  0.79884800  0.72918800  0.67683200  1
  S  S12  1  0.63945200  0.65690900  0.58862900  1
  S  S13  1  0.36054800  0.34309100  0.41137100  1
  S  S14  1  0.37981900  0.79413900  0.49169200  1
  S  S15  1  0.62018100  0.20586100  0.50830800  1
  S  S16  1  0.70115200  0.72918800  0.17683200  1
  S  S17  1  0.11752600  0.27959400  0.51189000  1
  S  S18  1  0.29643100  0.80282200  0.68003500  1
  S  S19  1  0.70356900  0.19717800  0.31996500  1
  S  S20  1  0.12018100  0.79413900  0.99169200  1
  S  S21  1  0.29884800  0.27081200  0.82316800  1
  S  S22  1  0.20356900  0.80282200  0.18003500  1
  S  S23  1  0.61752600  0.72040600  0.98811000  1
  S  S24  1  0.72208400  0.65869000  0.39098600  1
  S  S25  1  0.78050200  0.26709900  0.60580300  1
  S  S26  1  0.13945200  0.34309100  0.91137100  1
  S  S27  1  0.88247400  0.72040600  0.48811000  1
  S  S28  1  0.20115200  0.27081200  0.32316800  1
  S  S29  1  0.36307100  0.73116800  0.09200700  1
  S  S30  1  0.63692900  0.26883200  0.90799300  1
  S  S31  1  0.22208400  0.34131000  0.10901400  1
  Br  Br0  1  0.13256200  0.03251100  0.75281900  1
  Br  Br1  1  0.54112900  0.05265900  0.11563500  1
  Br  Br2  1  0.86743800  0.96748900  0.24718100  1
  Br  Br3  1  0.45887100  0.94734100  0.88436500  1
  Br  Br4  1  0.36743800  0.03251100  0.25281900  1
  Br  Br5  1  0.54357300  0.87396300  0.38150900  1
  Br  Br6  1  0.63256200  0.96748900  0.74718100  1
  Br  Br7  1  0.45642700  0.12603700  0.61849100  1
  Br  Br8  1  0.04112900  0.94734100  0.38436500  1
  Br  Br9  1  0.95887100  0.05265900  0.61563500  1
  Br  Br10  1  0.04357300  0.12603700  0.11849100  1
  Br  Br11  1  0.95642700  0.87396300  0.88150900  1
loop_
_geom_bond_atom_site_label_1
_geom_bond_atom_site_label_2
_geom_bond_distance
_geom_bond_site_symmetry_2
Cs0 S21 3.834146 1_555
Cs0 S18 3.887203 1_555
Cs0 S12 3.903672 1_555
Cs0 S30 3.930375 1_555
Cs1 S11 3.834146 1_555
Cs1 S4 3.887203 1_555
Cs1 S26 3.903672 1_655
Cs1 S9 3.930375 1_655
Cs2 S28 3.834146 1_555
Cs2 S22 3.887203 1_555
Cs2 S3 3.903672 1_455
Cs2 S5 3.930375 1_455
Cs3 S16 3.834146 1_555
Cs3 S19 3.887203 1_555
Cs3 S13 3.903672 1_555
Cs3 S29 3.930375 1_555
Re0 S23 2.404639 1_544
Re0 S30 2.420753 1_554
Re0 S16 2.422770 1_545
Re0 S8 2.426151 1_555
Re1 S14 2.402897 1_545
Re1 S13 2.421068 1_555
Re1 S18 2.421716 1_545
Re1 S7 2.426527 1_555
Re2 S16 2.405818 1_555
Re2 S23 2.414909 1_554
Re2 S3 2.423761 1_555
Re2 S8 2.505615 1_555
Re2 S2 2.505996 1_554
Re3 S10 2.402897 1_566
Re3 S3 2.421068 1_556
Re3 S4 2.421716 1_565
Re3 S2 2.426527 1_555
Re4 S12 2.406797 1_555
Re4 S25 2.411519 1_565
Re4 S15 2.415097 1_565
Re4 S11 2.420101 1_555
Re5 S20 2.402897 1_544
Re5 S26 2.421068 1_554
Re5 S22 2.421716 1_545
Re5 S31 2.426527 1_555
Re6 S5 2.405004 1_565
Re6 S24 2.411504 1_555
Re6 S27 2.416634 1_555
Re6 S19 2.419736 1_565
Re7 S17 2.404639 1_565
Re7 S9 2.420753 1_555
Re7 S28 2.422770 1_565
Re7 S0 2.426151 1_555
Re8 S6 2.404639 1_566
Re8 S29 2.420753 1_556
Re8 S21 2.422770 1_565
Re8 S1 2.426151 1_555
Re9 S18 2.403829 1_555
Re9 S14 2.413013 1_555
Re9 S9 2.422295 1_555
Re9 S7 2.504545 1_555
Re9 S0 2.507384 1_555
Re10 S22 2.403829 1_555
Re10 S20 2.413013 1_554
Re10 S29 2.422295 1_555
Re10 S31 2.504545 1_555
Re10 S1 2.507384 1_554
Re11 S27 2.404639 1_545
Re11 S5 2.420753 1_555
Re11 S11 2.422770 1_545
Re11 S25 2.426151 1_555
Re12 S28 2.405818 1_555
Re12 S17 2.414909 1_555
Re12 S13 2.423761 1_555
Re12 S0 2.505615 1_555
Re12 S7 2.505996 1_555
Re13 S19 2.403829 1_555
Re13 S15 2.413013 1_555
Re13 S5 2.422295 1_555
Re13 S24 2.504545 1_555
Re13 S25 2.507384 1_555
Re14 S4 2.403829 1_555
Re14 S10 2.413013 1_556
Re14 S30 2.422295 1_555
Re14 S2 2.504545 1_555
Re14 S8 2.507384 1_556
Re15 S11 2.405818 1_555
Re15 S27 2.414909 1_555
Re15 S12 2.423761 1_555
Re15 S25 2.505615 1_555
Re15 S24 2.505996 1_555
Re16 S15 2.402897 1_565
Re16 S12 2.421068 1_555
Re16 S19 2.421716 1_565
Re16 S24 2.426527 1_555
Re17 S13 2.406797 1_555
Re17 S0 2.411519 1_545
Re17 S14 2.415097 1_545
Re17 S28 2.420101 1_555
Re18 S21 2.405818 1_555
Re18 S6 2.414909 1_556
Re18 S26 2.423761 1_555
Re18 S1 2.505615 1_555
Re18 S31 2.505996 1_556
Re19 S29 2.405004 1_545
Re19 S31 2.411504 1_555
Re19 S6 2.416634 1_555
Re19 S22 2.419736 1_545
Re20 S26 2.406797 1_555
Re20 S1 2.411519 1_545
Re20 S20 2.415097 1_545
Re20 S21 2.420101 1_555
Re21 S3 2.406797 1_555
Re21 S8 2.411519 1_565
Re21 S10 2.415097 1_565
Re21 S16 2.420101 1_555
Re22 S9 2.405004 1_545
Re22 S7 2.411504 1_555
Re22 S17 2.416634 1_555
Re22 S18 2.419736 1_545
Re23 S30 2.405004 1_565
Re23 S2 2.411504 1_555
Re23 S23 2.416634 1_555
Re23 S4 2.419736 1_565
Br0 Re22 2.675321 1_555
Br0 Re20 2.681465 1_555
Br0 Cs1 3.994100 1_455
Br1 Re0 2.567562 1_555
Br1 Cs3 3.788530 1_545
Br1 Cs3 3.843116 1_555
Br2 Re6 2.675321 1_555
Br2 Re21 2.681465 1_555
Br2 Cs2 3.994100 1_655
Br3 Re8 2.567562 1_555
Br3 Cs0 3.788530 1_565
Br3 Cs0 3.843116 1_555
Br4 Re19 2.675321 1_555
Br4 Re17 2.681465 1_555
Br4 Cs3 3.994100 1_555
Br5 Re16 2.565654 1_555
Br5 Cs3 3.821949 1_565
Br5 Cs3 3.833338 1_555
Br6 Re23 2.675321 1_555
Br6 Re4 2.681465 1_555
Br6 Cs0 3.994100 1_555
Br7 Re1 2.565654 1_555
Br7 Cs0 3.821949 1_545
Br7 Cs0 3.833338 1_555
Br8 Re7 2.567562 1_555
Br8 Cs2 3.788530 1_565
Br8 Cs2 3.843116 1_555
Br9 Re11 2.567562 1_555
Br9 Cs1 3.788530 1_545
Br9 Cs1 3.843116 1_555
Br10 Re5 2.565654 1_555
Br10 Cs2 3.821949 1_545
Br10 Cs2 3.833338 1_555
Br11 Re3 2.565654 1_555
Br11 Cs1 3.821949 1_565
Br11 Cs1 3.833338 1_555
