# generated using pymatgen
data_NbHO3
_symmetry_space_group_name_H-M   'P 1'
_cell_length_a   6.80160332
_cell_length_b   6.74508132
_cell_length_c   6.77872703
_cell_angle_alpha   109.80688916
_cell_angle_beta   108.58307604
_cell_angle_gamma   109.98730423
_symmetry_Int_Tables_number   1
_chemical_formula_structural   NbHO3
_chemical_formula_sum   'Nb4 H4 O12'
_cell_volume   239.47595717
_cell_formula_units_Z   4
loop_
 _symmetry_equiv_pos_site_id
 _symmetry_equiv_pos_as_xyz
  1  'x, y, z'
loop_
 _atom_site_type_symbol
 _atom_site_label
 _atom_site_symmetry_multiplicity
 _atom_site_fract_x
 _atom_site_fract_y
 _atom_site_fract_z
 _atom_site_occupancy
  Nb  Nb0  1  0.52019000  0.02113900  0.03217000  1
  Nb  Nb1  1  0.04207600  0.02316300  0.53644600  1
  Nb  Nb2  1  0.01351900  0.53131600  0.01461100  1
  Nb  Nb3  1  0.50610100  0.51046400  0.48450900  1
  H  H0  1  0.10707400  0.50763600  0.40670000  1
  H  H1  1  0.89392900  0.48744700  0.60186700  1
  H  H2  1  0.60192300  0.09818700  0.70182300  1
  H  H3  1  0.47985100  0.58606600  0.87919000  1
  O  O0  1  0.20219700  0.90555400  0.70401300  1
  O  O1  1  0.78979700  0.09514400  0.28541500  1
  O  O2  1  0.18208200  0.49378000  0.30577700  1
  O  O3  1  0.80649100  0.50190200  0.69069500  1
  O  O4  1  0.68855400  0.18470400  0.87747100  1
  O  O5  1  0.29013800  0.79091000  0.07802600  1
  O  O6  1  0.29153000  0.21254900  0.50062500  1
  O  O7  1  0.69650400  0.79113200  0.50061000  1
  O  O8  1  0.91180000  0.70093700  0.19628000  1
  O  O9  1  0.07777400  0.28830100  0.79674300  1
  O  O10  1  0.49017900  0.29375100  0.20363100  1
  O  O11  1  0.51097000  0.69095300  0.80930400  1
loop_
_geom_bond_atom_site_label_1
_geom_bond_atom_site_label_2
_geom_bond_distance
_geom_bond_site_symmetry_2
Nb0 O1 1.829193 1_555
Nb0 O10 1.932135 1_555
Nb0 O5 1.983063 1_545
Nb0 O4 2.077016 1_554
Nb0 O11 2.193245 1_544
Nb0 O0 2.199902 1_544
Nb1 O0 1.875756 1_545
Nb1 O6 1.886966 1_555
Nb1 O9 1.913690 1_555
Nb1 O8 2.193366 1_445
Nb1 O7 2.212845 1_445
Nb1 O1 2.311741 1_455
Nb2 O8 1.852972 1_455
Nb2 O5 1.874267 1_555
Nb2 O9 2.078338 1_554
Nb2 O2 2.090220 1_555
Nb2 O3 2.094420 1_454
Nb2 O4 2.213665 1_454
Nb3 O7 1.834895 1_555
Nb3 O10 1.909932 1_555
Nb3 O2 2.091352 1_555
Nb3 O6 2.103651 1_555
Nb3 O11 2.107162 1_555
Nb3 O3 2.108680 1_555
H0 O2 0.974046 1_555
H1 O3 0.976660 1_555
H2 O4 0.975869 1_555
H3 O11 0.978989 1_555
