# generated using pymatgen
data_Ba2H6Os
_symmetry_space_group_name_H-M   'P 1'
_cell_length_a   5.72220200
_cell_length_b   5.72220200
_cell_length_c   5.72220200
_cell_angle_alpha   60.00000000
_cell_angle_beta   60.00000000
_cell_angle_gamma   60.00000000
_symmetry_Int_Tables_number   1
_chemical_formula_structural   Ba2H6Os
_chemical_formula_sum   'Ba2 H6 Os1'
_cell_volume   132.48739391
_cell_formula_units_Z   1
loop_
 _symmetry_equiv_pos_site_id
 _symmetry_equiv_pos_as_xyz
  1  'x, y, z'
loop_
 _atom_site_type_symbol
 _atom_site_label
 _atom_site_symmetry_multiplicity
 _atom_site_fract_x
 _atom_site_fract_y
 _atom_site_fract_z
 _atom_site_occupancy
  Ba  Ba0  1  0.75000000  0.75000000  0.75000000  1
  Ba  Ba1  1  0.25000000  0.25000000  0.25000000  1
  H  H0  1  0.21408291  0.78591709  0.78591709  1
  H  H1  1  0.21408291  0.21408291  0.78591709  1
  H  H2  1  0.21408291  0.78591709  0.21408291  1
  H  H3  1  0.78591709  0.21408291  0.21408291  1
  H  H4  1  0.78591709  0.78591709  0.21408291  1
  H  H5  1  0.78591709  0.21408291  0.78591709  1
  Os  Os0  1  -0.00000000  0.00000000  0.00000000  1
loop_
_geom_bond_atom_site_label_1
_geom_bond_atom_site_label_2
_geom_bond_distance
_geom_bond_site_symmetry_2
Ba0 H5 2.875827 1_565
Ba0 H3 2.875827 1_556
Ba0 H4 2.875827 1_556
Ba0 H3 2.875827 1_565
Ba0 H0 2.875827 1_655
Ba0 H0 2.875827 1_555
Ba0 H2 2.875827 1_556
Ba0 H1 2.875827 1_565
Ba0 H2 2.875827 1_655
Ba0 H1 2.875827 1_655
Ba0 H5 2.875827 1_555
Ba0 H4 2.875827 1_555
Ba1 H4 2.875827 1_545
Ba1 H3 2.875827 1_555
Ba1 H0 2.875827 1_545
Ba1 H4 2.875827 1_455
Ba1 H3 2.875827 1_455
Ba1 H0 2.875827 1_554
Ba1 H2 2.875827 1_555
Ba1 H5 2.875827 1_554
Ba1 H2 2.875827 1_545
Ba1 H1 2.875827 1_554
Ba1 H5 2.875827 1_455
Ba1 H1 2.875827 1_555
H0 Os0 1.732448 1_566
H1 Os0 1.732448 1_556
H2 Os0 1.732448 1_565
H3 Os0 1.732448 1_655
H4 Os0 1.732448 1_665
H5 Os0 1.732448 1_656
