# generated using pymatgen
data_Ag7(SI)2
_symmetry_space_group_name_H-M   'P 1'
_cell_length_a   4.24840600
_cell_length_b   4.36484897
_cell_length_c   17.96788227
_cell_angle_alpha   93.35605272
_cell_angle_beta   91.62277467
_cell_angle_gamma   112.81003894
_symmetry_Int_Tables_number   1
_chemical_formula_structural   Ag7(SI)2
_chemical_formula_sum   'Ag7 S2 I2'
_cell_volume   306.13484771
_cell_formula_units_Z   1
loop_
 _symmetry_equiv_pos_site_id
 _symmetry_equiv_pos_as_xyz
  1  'x, y, z'
loop_
 _atom_site_type_symbol
 _atom_site_label
 _atom_site_symmetry_multiplicity
 _atom_site_fract_x
 _atom_site_fract_y
 _atom_site_fract_z
 _atom_site_occupancy
  Ag  Ag0  1  0.76102800  0.80416200  0.68896800  1
  Ag  Ag1  1  0.23496100  0.03045200  0.91816000  1
  Ag  Ag2  1  0.33547200  0.02614800  0.36720700  1
  Ag  Ag3  1  0.10410900  0.44358000  0.60956000  1
  Ag  Ag4  1  0.30663800  0.85977900  0.14835000  1
  Ag  Ag5  1  0.99665400  0.27794100  0.23943600  1
  Ag  Ag6  1  0.67488800  0.39338700  0.05308500  1
  S  S0  1  0.54440900  0.75004900  0.26317300  1
  S  S1  1  0.02478000  0.00144600  0.04161900  1
  I  I0  1  0.03086500  0.38908300  0.45288600  1
  I  I1  1  0.41019600  0.15997100  0.77755700  1
loop_
_geom_bond_atom_site_label_1
_geom_bond_atom_site_label_2
_geom_bond_distance
_geom_bond_site_symmetry_2
Ag0 Ag3 2.875907 1_655
Ag0 Ag3 2.899579 1_555
Ag0 I1 2.948348 1_665
Ag0 I1 2.967642 1_565
Ag0 Ag3 3.062608 1_665
Ag0 I1 3.173383 1_555
Ag1 S1 2.406578 1_556
Ag1 I1 2.683959 1_555
Ag2 S0 2.528652 1_545
Ag2 I0 2.823299 1_555
Ag2 I0 3.071746 1_655
Ag2 I0 3.098522 1_545
Ag3 I0 2.809411 1_555
Ag4 S0 2.424679 1_555
Ag4 S1 2.465120 1_565
Ag5 S0 2.431361 1_545
Ag5 S0 2.442622 1_655
Ag6 S1 2.513691 1_665
Ag6 S1 2.619224 1_555
Ag6 S1 2.669571 1_655
