# generated using pymatgen
data_In2Cl3
_symmetry_space_group_name_H-M   'P 1'
_cell_length_a   12.77342200
_cell_length_b   14.74335900
_cell_length_c   25.43814100
_cell_angle_alpha   90.00000000
_cell_angle_beta   90.00000000
_cell_angle_gamma   90.00000000
_symmetry_Int_Tables_number   1
_chemical_formula_structural   In2Cl3
_chemical_formula_sum   'In64 Cl96'
_cell_volume   4790.59074671
_cell_formula_units_Z   32
loop_
 _symmetry_equiv_pos_site_id
 _symmetry_equiv_pos_as_xyz
  1  'x, y, z'
loop_
 _atom_site_type_symbol
 _atom_site_label
 _atom_site_symmetry_multiplicity
 _atom_site_fract_x
 _atom_site_fract_y
 _atom_site_fract_z
 _atom_site_occupancy
  In  In0  1  0.25716400  0.07950300  0.33625400  1
  In  In1  1  0.41077800  0.36898400  0.75000000  1
  In  In2  1  0.58121400  0.64152400  0.66134900  1
  In  In3  1  0.07831500  0.37897300  0.05442200  1
  In  In4  1  0.91878600  0.14152400  0.33865100  1
  In  In5  1  0.58922200  0.63101600  0.25000000  1
  In  In6  1  0.07831500  0.37897300  0.44557800  1
  In  In7  1  0.57974800  0.17287100  0.84514300  1
  In  In8  1  0.25716400  0.07950300  0.16374600  1
  In  In9  1  0.41464400  0.36496600  0.52962100  1
  In  In10  1  0.26807900  0.10747800  0.84111400  1
  In  In11  1  0.23192100  0.60747800  0.34111400  1
  In  In12  1  0.25289800  0.11235800  0.49493200  1
  In  In13  1  0.91878600  0.14152400  0.16134900  1
  In  In14  1  0.76807900  0.39252200  0.65888600  1
  In  In15  1  0.07730400  0.37192500  0.25000000  1
  In  In16  1  0.74283600  0.92049700  0.66374600  1
  In  In17  1  0.07974800  0.32712900  0.84514300  1
  In  In18  1  0.42168500  0.87897300  0.55442200  1
  In  In19  1  0.42168500  0.87897300  0.94557800  1
  In  In20  1  0.07974800  0.32712900  0.65485700  1
  In  In21  1  0.42025200  0.82712900  0.34514300  1
  In  In22  1  0.42025200  0.82712900  0.15485700  1
  In  In23  1  0.74283600  0.92049700  0.83625400  1
  In  In24  1  0.57831500  0.12102700  0.05442200  1
  In  In25  1  0.75716400  0.42049700  0.33625400  1
  In  In26  1  0.57831500  0.12102700  0.44557800  1
  In  In27  1  0.26807900  0.10747800  0.65888600  1
  In  In28  1  0.41464400  0.36496600  0.97037900  1
  In  In29  1  0.75289800  0.38764200  0.00506800  1
  In  In30  1  0.75289800  0.38764200  0.49493200  1
  In  In31  1  0.57974800  0.17287100  0.65485700  1
  In  In32  1  0.75716400  0.42049700  0.16374600  1
  In  In33  1  0.58121400  0.64152400  0.83865100  1
  In  In34  1  0.24710200  0.61235800  0.99493200  1
  In  In35  1  0.23192100  0.60747800  0.15888600  1
  In  In36  1  0.58535600  0.63503400  0.02962100  1
  In  In37  1  0.58535600  0.63503400  0.47037900  1
  In  In38  1  0.08121400  0.85847600  0.66134900  1
  In  In39  1  0.41878600  0.35847600  0.33865100  1
  In  In40  1  0.92168500  0.62102700  0.55442200  1
  In  In41  1  0.91464400  0.13503400  0.97037900  1
  In  In42  1  0.24283600  0.57950300  0.83625400  1
  In  In43  1  0.73192100  0.89252200  0.34111400  1
  In  In44  1  0.41878600  0.35847600  0.16134900  1
  In  In45  1  0.92025200  0.67287100  0.15485700  1
  In  In46  1  0.74710200  0.88764200  0.50506800  1
  In  In47  1  0.42269600  0.87192500  0.75000000  1
  In  In48  1  0.76807900  0.39252200  0.84111400  1
  In  In49  1  0.91077800  0.13101600  0.75000000  1
  In  In50  1  0.25289800  0.11235800  0.00506800  1
  In  In51  1  0.57730400  0.12807500  0.25000000  1
  In  In52  1  0.73192100  0.89252200  0.15888600  1
  In  In53  1  0.74710200  0.88764200  0.99493200  1
  In  In54  1  0.24283600  0.57950300  0.66374600  1
  In  In55  1  0.91464400  0.13503400  0.52962100  1
  In  In56  1  0.92168500  0.62102700  0.94557800  1
  In  In57  1  0.08535600  0.86496600  0.47037900  1
  In  In58  1  0.08922200  0.86898400  0.25000000  1
  In  In59  1  0.92025200  0.67287100  0.34514300  1
  In  In60  1  0.08121400  0.85847600  0.83865100  1
  In  In61  1  0.92269600  0.62807500  0.75000000  1
  In  In62  1  0.08535600  0.86496600  0.02962100  1
  In  In63  1  0.24710200  0.61235800  0.50506800  1
  Cl  Cl0  1  0.39668100  0.35973900  0.65184300  1
  Cl  Cl1  1  0.39347000  0.66489800  0.25000000  1
  Cl  Cl2  1  0.36568700  0.76574000  0.82307300  1
  Cl  Cl3  1  0.78797700  0.59950500  0.25000000  1
  Cl  Cl4  1  0.91585900  0.37431000  0.55304000  1
  Cl  Cl5  1  0.83929700  0.27460800  0.43063600  1
  Cl  Cl6  1  0.59067500  0.40061800  0.06375200  1
  Cl  Cl7  1  0.89668100  0.14026100  0.65184300  1
  Cl  Cl8  1  0.83258700  0.75875600  0.45586200  1
  Cl  Cl9  1  0.16741300  0.24124400  0.54413800  1
  Cl  Cl10  1  0.33929700  0.22539200  0.06936400  1
  Cl  Cl11  1  0.67824200  0.50577000  0.94020900  1
  Cl  Cl12  1  0.13431300  0.26574000  0.17692700  1
  Cl  Cl13  1  0.17824200  0.99423000  0.55979100  1
  Cl  Cl14  1  0.41585900  0.12569000  0.94696000  1
  Cl  Cl15  1  0.66257200  0.01653700  0.55555000  1
  Cl  Cl16  1  0.10653000  0.16489800  0.75000000  1
  Cl  Cl17  1  0.16257200  0.48346300  0.55555000  1
  Cl  Cl18  1  0.33742800  0.98346300  0.44445000  1
  Cl  Cl19  1  0.16070300  0.72539200  0.56936400  1
  Cl  Cl20  1  0.28797700  0.90049500  0.25000000  1
  Cl  Cl21  1  0.63431300  0.23426000  0.17692700  1
  Cl  Cl22  1  0.66070300  0.77460800  0.93063600  1
  Cl  Cl23  1  0.10502700  0.70532900  0.75000000  1
  Cl  Cl24  1  0.55818000  0.45793800  0.25000000  1
  Cl  Cl25  1  0.66070300  0.77460800  0.56936400  1
  Cl  Cl26  1  0.75616600  0.04782400  0.25000000  1
  Cl  Cl27  1  0.44182000  0.54206200  0.75000000  1
  Cl  Cl28  1  0.82175800  0.00577000  0.44020900  1
  Cl  Cl29  1  0.16070300  0.72539200  0.93063600  1
  Cl  Cl30  1  0.09067500  0.09938200  0.43624800  1
  Cl  Cl31  1  0.58414100  0.87431000  0.44696000  1
  Cl  Cl32  1  0.16257200  0.48346300  0.94445000  1
  Cl  Cl33  1  0.13431300  0.26574000  0.32307300  1
  Cl  Cl34  1  0.25616600  0.45217600  0.25000000  1
  Cl  Cl35  1  0.10400600  0.69139000  0.25000000  1
  Cl  Cl36  1  0.83742800  0.51653700  0.05555000  1
  Cl  Cl37  1  0.66257200  0.01653700  0.94445000  1
  Cl  Cl38  1  0.41585900  0.12569000  0.55304000  1
  Cl  Cl39  1  0.60502800  0.79467100  0.75000000  1
  Cl  Cl40  1  0.58414100  0.87431000  0.05304000  1
  Cl  Cl41  1  0.67824200  0.50577000  0.55979100  1
  Cl  Cl42  1  0.32175800  0.49423000  0.05979100  1
  Cl  Cl43  1  0.33742800  0.98346300  0.05555000  1
  Cl  Cl44  1  0.01633600  0.48061500  0.32337000  1
  Cl  Cl45  1  0.89668100  0.14026100  0.84815700  1
  Cl  Cl46  1  0.16741300  0.24124400  0.95586200  1
  Cl  Cl47  1  0.89347000  0.83510200  0.25000000  1
  Cl  Cl48  1  0.39599400  0.19139000  0.75000000  1
  Cl  Cl49  1  0.91585900  0.37431000  0.94696000  1
  Cl  Cl50  1  0.24383400  0.95217600  0.75000000  1
  Cl  Cl51  1  0.36568700  0.76574000  0.67692700  1
  Cl  Cl52  1  0.74383400  0.54782400  0.75000000  1
  Cl  Cl53  1  0.63431300  0.23426000  0.32307300  1
  Cl  Cl54  1  0.39497300  0.20532900  0.25000000  1
  Cl  Cl55  1  0.05818000  0.04206200  0.25000000  1
  Cl  Cl56  1  0.60400600  0.80861000  0.25000000  1
  Cl  Cl57  1  0.90932500  0.90061800  0.93624800  1
  Cl  Cl58  1  0.94182000  0.95793800  0.75000000  1
  Cl  Cl59  1  0.66741300  0.25875600  0.54413800  1
  Cl  Cl60  1  0.83929700  0.27460800  0.06936400  1
  Cl  Cl61  1  0.89497200  0.29467100  0.25000000  1
  Cl  Cl62  1  0.08414100  0.62569000  0.44696000  1
  Cl  Cl63  1  0.33929700  0.22539200  0.43063600  1
  Cl  Cl64  1  0.82175800  0.00577000  0.05979100  1
  Cl  Cl65  1  0.10331900  0.85973900  0.34815700  1
  Cl  Cl66  1  0.60653000  0.33510200  0.75000000  1
  Cl  Cl67  1  0.10331900  0.85973900  0.15184300  1
  Cl  Cl68  1  0.33258700  0.74124400  0.45586200  1
  Cl  Cl69  1  0.51633600  0.01938500  0.17663000  1
  Cl  Cl70  1  0.59067500  0.40061800  0.43624800  1
  Cl  Cl71  1  0.71202300  0.09950500  0.75000000  1
  Cl  Cl72  1  0.86568700  0.73426000  0.82307300  1
  Cl  Cl73  1  0.48366400  0.98061500  0.82337000  1
  Cl  Cl74  1  0.40932500  0.59938200  0.56375200  1
  Cl  Cl75  1  0.40932500  0.59938200  0.93624800  1
  Cl  Cl76  1  0.48366400  0.98061500  0.67663000  1
  Cl  Cl77  1  0.83258700  0.75875600  0.04413800  1
  Cl  Cl78  1  0.86568700  0.73426000  0.67692700  1
  Cl  Cl79  1  0.60331900  0.64026100  0.34815700  1
  Cl  Cl80  1  0.51633600  0.01938500  0.32337000  1
  Cl  Cl81  1  0.17824200  0.99423000  0.94020900  1
  Cl  Cl82  1  0.01633600  0.48061500  0.17663000  1
  Cl  Cl83  1  0.83742800  0.51653700  0.44445000  1
  Cl  Cl84  1  0.98366400  0.51938500  0.67663000  1
  Cl  Cl85  1  0.98366400  0.51938500  0.82337000  1
  Cl  Cl86  1  0.08414100  0.62569000  0.05304000  1
  Cl  Cl87  1  0.32175800  0.49423000  0.44020900  1
  Cl  Cl88  1  0.60331900  0.64026100  0.15184300  1
  Cl  Cl89  1  0.33258700  0.74124400  0.04413800  1
  Cl  Cl90  1  0.66741300  0.25875600  0.95586200  1
  Cl  Cl91  1  0.90932500  0.90061800  0.56375200  1
  Cl  Cl92  1  0.39668100  0.35973900  0.84815700  1
  Cl  Cl93  1  0.21202300  0.40049500  0.75000000  1
  Cl  Cl94  1  0.09067500  0.09938200  0.06375200  1
  Cl  Cl95  1  0.89599400  0.30861000  0.75000000  1
loop_
_geom_bond_atom_site_label_1
_geom_bond_atom_site_label_2
_geom_bond_distance
_geom_bond_site_symmetry_2
Cl0 In1 2.507124 1_555
Cl0 In9 3.118508 1_555
Cl1 In5 2.549833 1_555
Cl2 In47 2.537012 1_555
Cl3 In5 2.580939 1_555
Cl3 In59 3.143631 1_555
Cl3 In45 3.143631 1_555
Cl4 In30 2.560571 1_555
Cl5 In30 2.582687 1_555
Cl6 In29 2.561028 1_555
Cl7 In49 2.507124 1_555
Cl7 In55 3.118508 1_555
Cl8 In46 2.523868 1_555
Cl9 In12 2.523868 1_555
Cl10 In50 2.582687 1_555
Cl11 In29 2.581609 1_556
Cl11 In36 3.195774 1_556
Cl12 In15 2.537012 1_555
Cl13 In12 2.581609 1_565
Cl13 In57 3.195774 1_555
Cl14 In50 2.560571 1_556
Cl15 In46 2.535002 1_545
Cl16 In49 2.549833 1_455
Cl17 In63 2.535002 1_555
Cl18 In12 2.535002 1_565
Cl19 In63 2.582687 1_555
Cl20 In58 2.580939 1_555
Cl20 In21 3.143631 1_555
Cl20 In22 3.143631 1_555
Cl21 In51 2.537012 1_555
Cl22 In53 2.582687 1_555
Cl23 In61 2.592582 1_455
Cl24 In5 2.582374 1_555
Cl25 In46 2.582687 1_555
Cl26 In51 2.572868 1_555
Cl27 In1 2.582374 1_555
Cl28 In46 2.581609 1_545
Cl28 In55 3.195774 1_555
Cl29 In34 2.582687 1_555
Cl30 In12 2.561028 1_555
Cl31 In46 2.560571 1_555
Cl32 In34 2.535002 1_555
Cl33 In15 2.537012 1_555
Cl34 In15 2.572868 1_555
Cl35 In58 2.625133 1_555
Cl35 In11 3.093907 1_555
Cl35 In35 3.093907 1_555
Cl36 In29 2.535002 1_555
Cl37 In53 2.535002 1_545
Cl38 In12 2.560571 1_555
Cl39 In47 2.592593 1_555
Cl40 In53 2.560571 1_554
Cl41 In30 2.581609 1_555
Cl41 In37 3.195774 1_555
Cl42 In34 2.581609 1_554
Cl42 In28 3.195774 1_554
Cl43 In50 2.535002 1_565
Cl44 In15 2.580268 1_555
Cl44 In59 3.138068 1_455
Cl45 In49 2.507124 1_555
Cl45 In41 3.118508 1_555
Cl46 In50 2.523868 1_556
Cl47 In58 2.549833 1_655
Cl48 In1 2.625133 1_555
Cl48 In27 3.093907 1_555
Cl48 In10 3.093907 1_555
Cl49 In29 2.560571 1_556
Cl50 In47 2.572868 1_555
Cl51 In47 2.537012 1_555
Cl52 In61 2.572868 1_555
Cl53 In51 2.537012 1_555
Cl54 In51 2.592582 1_555
Cl55 In58 2.582374 1_545
Cl56 In5 2.625133 1_555
Cl56 In43 3.093907 1_555
Cl56 In52 3.093907 1_555
Cl57 In53 2.561028 1_555
Cl58 In49 2.582374 1_565
Cl59 In30 2.523868 1_555
Cl60 In29 2.582687 1_555
Cl61 In15 2.592593 1_655
Cl62 In63 2.560571 1_555
Cl63 In12 2.582687 1_555
Cl64 In53 2.581609 1_544
Cl64 In41 3.195774 1_554
Cl65 In58 2.507124 1_555
Cl65 In57 3.118508 1_555
Cl66 In1 2.549833 1_555
Cl67 In58 2.507124 1_555
Cl67 In62 3.118508 1_555
Cl68 In63 2.523868 1_555
Cl69 In51 2.580268 1_555
Cl69 In22 3.138068 1_545
Cl70 In30 2.561028 1_555
Cl71 In49 2.580939 1_555
Cl71 In7 3.143631 1_555
Cl71 In31 3.143631 1_555
Cl72 In61 2.537012 1_555
Cl73 In47 2.580268 1_555
Cl73 In7 3.138068 1_565
Cl74 In63 2.561028 1_555
Cl75 In34 2.561028 1_555
Cl76 In47 2.580268 1_555
Cl76 In31 3.138068 1_565
Cl77 In53 2.523868 1_554
Cl78 In61 2.537012 1_555
Cl79 In5 2.507124 1_555
Cl79 In37 3.118508 1_555
Cl80 In51 2.580268 1_555
Cl80 In21 3.138068 1_545
Cl81 In50 2.581609 1_566
Cl81 In62 3.195774 1_556
Cl82 In15 2.580268 1_555
Cl82 In45 3.138068 1_455
Cl83 In30 2.535002 1_555
Cl84 In61 2.580268 1_555
Cl84 In20 3.138068 1_655
Cl85 In61 2.580268 1_555
Cl85 In17 3.138068 1_655
Cl86 In34 2.560571 1_554
Cl87 In63 2.581609 1_555
Cl87 In9 3.195774 1_555
Cl88 In5 2.507124 1_555
Cl88 In36 3.118508 1_555
Cl89 In34 2.523868 1_554
Cl90 In29 2.523868 1_556
Cl91 In46 2.561028 1_555
Cl92 In1 2.507124 1_555
Cl92 In28 3.118508 1_555
Cl93 In1 2.580939 1_555
Cl93 In20 3.143631 1_555
Cl93 In17 3.143631 1_555
Cl94 In50 2.561028 1_555
Cl95 In49 2.625133 1_555
Cl95 In14 3.093907 1_555
Cl95 In48 3.093907 1_555
