# generated using pymatgen
data_BaW6O19
_symmetry_space_group_name_H-M   'P 1'
_cell_length_a   7.54065865
_cell_length_b   7.54065865
_cell_length_c   7.83301367
_cell_angle_alpha   89.97645457
_cell_angle_beta   89.97645457
_cell_angle_gamma   120.24679701
_symmetry_Int_Tables_number   1
_chemical_formula_structural   BaW6O19
_chemical_formula_sum   'Ba1 W6 O19'
_cell_volume   384.76229647
_cell_formula_units_Z   1
loop_
 _symmetry_equiv_pos_site_id
 _symmetry_equiv_pos_as_xyz
  1  'x, y, z'
loop_
 _atom_site_type_symbol
 _atom_site_label
 _atom_site_symmetry_multiplicity
 _atom_site_fract_x
 _atom_site_fract_y
 _atom_site_fract_z
 _atom_site_occupancy
  Ba  Ba0  1  0.00765400  0.00765400  0.59083300  1
  W  W0  1  0.99827500  0.49721700  0.25198800  1
  W  W1  1  0.49878000  0.49878000  0.75082900  1
  W  W2  1  0.49906300  0.99835800  0.75615900  1
  W  W3  1  0.49721700  0.99827500  0.25198800  1
  W  W4  1  0.49904300  0.49904300  0.23558600  1
  W  W5  1  0.99835800  0.49906300  0.75615900  1
  O  O0  1  0.99683600  0.49896800  0.99937900  1
  O  O1  1  0.00014600  0.49674200  0.50035500  1
  O  O2  1  0.78626500  0.56872500  0.24205500  1
  O  O3  1  0.79722700  0.58493600  0.75271000  1
  O  O4  1  0.78937200  0.20820100  0.74573400  1
  O  O5  1  0.78712700  0.20803000  0.25458900  1
  O  O6  1  0.42556400  0.20927500  0.23744600  1
  O  O7  1  0.41302400  0.20081800  0.75617700  1
  O  O8  1  0.49896800  0.99683600  0.99937900  1
  O  O9  1  0.49674200  0.00014600  0.50035500  1
  O  O10  1  0.56872500  0.78626500  0.24205500  1
  O  O11  1  0.58493600  0.79722700  0.75271000  1
  O  O12  1  0.59459700  0.59459700  0.49490000  1
  O  O13  1  0.20820100  0.78937200  0.74573400  1
  O  O14  1  0.20803000  0.78712700  0.25458900  1
  O  O15  1  0.39408500  0.39408500  0.49332800  1
  O  O16  1  0.50167300  0.50167300  0.00134400  1
  O  O17  1  0.20927500  0.42556400  0.23744600  1
  O  O18  1  0.20081800  0.41302400  0.75617700  1
loop_
_geom_bond_atom_site_label_1
_geom_bond_atom_site_label_2
_geom_bond_distance
_geom_bond_site_symmetry_2
Ba0 O7 2.943127 1_555
Ba0 O18 2.943127 1_555
Ba0 O13 2.995993 1_545
Ba0 O4 2.995993 1_455
Ba0 O15 3.001245 1_555
Ba0 O3 3.030781 1_445
Ba0 O11 3.030781 1_445
Ba0 O12 3.193387 1_445
O0 W5 1.905173 1_555
O0 W0 1.978799 1_556
O1 W0 1.945534 1_455
O1 W5 2.003899 1_455
O2 W0 1.929034 1_555
O2 W4 1.955283 1_555
O3 W5 1.926066 1_555
O3 W1 2.003508 1_555
O4 W2 1.952623 1_545
O4 W5 1.954159 1_555
O5 W0 1.947513 1_555
O5 W3 1.948793 1_545
O6 W3 1.924169 1_545
O6 W4 1.965167 1_555
O7 W2 1.936379 1_545
O7 W1 2.001077 1_555
O8 W2 1.905173 1_555
O8 W3 1.978799 1_556
O9 W3 1.945534 1_545
O9 W2 2.003899 1_545
O10 W3 1.929034 1_555
O10 W4 1.955283 1_555
O11 W2 1.926066 1_555
O11 W1 2.003508 1_555
O12 O15 1.506409 1_555
O12 W1 2.129454 1_555
O12 W4 2.154885 1_555
O13 W5 1.952623 1_455
O13 W2 1.954159 1_555
O14 W3 1.947513 1_555
O14 W0 1.948793 1_455
O15 W1 2.165539 1_555
O15 W4 2.166806 1_555
O16 W4 1.834911 1_555
O16 W1 1.962426 1_554
O17 W0 1.924169 1_455
O17 W4 1.965167 1_555
O18 W5 1.936379 1_455
O18 W1 2.001077 1_555
