# generated using pymatgen
data_Fe2CoO4
_symmetry_space_group_name_H-M   'P 1'
_cell_length_a   5.97724804
_cell_length_b   5.97724804
_cell_length_c   14.64471201
_cell_angle_alpha   89.99865329
_cell_angle_beta   89.99865329
_cell_angle_gamma   60.26482554
_symmetry_Int_Tables_number   1
_chemical_formula_structural   Fe2CoO4
_chemical_formula_sum   'Fe12 Co6 O24'
_cell_volume   454.32516025
_cell_formula_units_Z   6
loop_
 _symmetry_equiv_pos_site_id
 _symmetry_equiv_pos_as_xyz
  1  'x, y, z'
loop_
 _atom_site_type_symbol
 _atom_site_label
 _atom_site_symmetry_multiplicity
 _atom_site_fract_x
 _atom_site_fract_y
 _atom_site_fract_z
 _atom_site_occupancy
  Fe  Fe0  1  0.82914900  0.50480100  0.78966800  1
  Fe  Fe1  1  0.33333000  0.50143300  0.66823200  1
  Fe  Fe2  1  0.49976600  0.16310400  0.45622200  1
  Fe  Fe3  1  0.33237100  0.00120600  0.66689500  1
  Fe  Fe4  1  0.49856700  0.66667000  0.33176800  1
  Fe  Fe5  1  0.17029600  0.83173800  0.12287800  1
  Fe  Fe6  1  0.99879400  0.66762900  0.33310500  1
  Fe  Fe7  1  0.83689600  0.50023400  0.54377800  1
  Fe  Fe8  1  0.66813800  0.83351600  0.99941600  1
  Fe  Fe9  1  0.49519900  0.17085100  0.21033200  1
  Fe  Fe10  1  0.16648400  0.33186200  0.00058400  1
  Fe  Fe11  1  0.16826200  0.82970400  0.87712200  1
  Co  Co0  1  0.50275600  0.16717900  0.83483700  1
  Co  Co1  1  0.16420900  0.83579100  0.50000000  1
  Co  Co2  1  0.99833600  0.16792200  0.33310000  1
  Co  Co3  1  0.83207800  0.00166400  0.66690000  1
  Co  Co4  1  0.83282100  0.49724400  0.16516300  1
  Co  Co5  1  0.66792100  0.33207900  0.00000000  1
  O  O0  1  0.65744100  0.33166400  0.74700600  1
  O  O1  1  0.64457500  0.85302100  0.74489900  1
  O  O2  1  0.48826200  0.16947800  0.59043600  1
  O  O3  1  0.18405300  0.31918100  0.74386800  1
  O  O4  1  0.48084100  0.68246700  0.59027800  1
  O  O5  1  0.32952000  0.98749500  0.41358000  1
  O  O6  1  0.17997100  0.82928600  0.74439800  1
  O  O7  1  0.01995600  0.15093300  0.58877800  1
  O  O8  1  0.31753300  0.51915900  0.40972200  1
  O  O9  1  0.17071400  0.82002900  0.25560200  1
  O  O10  1  0.01250500  0.67048000  0.58642000  1
  O  O11  1  0.84906700  0.98004400  0.41122200  1
  O  O12  1  0.14697900  0.35542500  0.25510100  1
  O  O13  1  0.99497800  0.65991200  0.07727900  1
  O  O14  1  0.68081900  0.81594700  0.25613200  1
  O  O15  1  0.83052200  0.51173800  0.40956400  1
  O  O16  1  0.00228200  0.17739900  0.08015500  1
  O  O17  1  0.83312000  0.49859700  0.92404400  1
  O  O18  1  0.66833600  0.34255900  0.25299400  1
  O  O19  1  0.51592700  0.66687200  0.07960800  1
  O  O20  1  0.82260100  0.99771800  0.91984500  1
  O  O21  1  0.50140300  0.16688000  0.07595600  1
  O  O22  1  0.33312800  0.48407300  0.92039200  1
  O  O23  1  0.34008800  0.00502200  0.92272100  1
loop_
_geom_bond_atom_site_label_1
_geom_bond_atom_site_label_2
_geom_bond_distance
_geom_bond_site_symmetry_2
Fe0 O0 1.889018 1_555
Fe0 O1 1.923876 1_555
Fe0 O3 1.961170 1_655
Fe0 O17 1.968168 1_555
Fe1 O6 2.035393 1_555
Fe1 O0 2.040491 1_555
Fe1 O3 2.043010 1_555
Fe1 O4 2.048886 1_555
Fe1 O10 2.052257 1_555
Fe1 O2 2.066366 1_555
Fe2 O5 1.893913 1_545
Fe2 O11 1.929889 1_545
Fe2 O2 1.966435 1_555
Fe2 O8 1.969755 1_555
Fe3 O1 1.983003 1_545
Fe3 O7 1.984698 1_555
Fe3 O3 1.999392 1_555
Fe3 O4 1.999775 1_545
Fe3 O2 2.015752 1_555
Fe3 O6 2.025462 1_545
Fe4 O9 2.035393 1_555
Fe4 O18 2.040491 1_555
Fe4 O14 2.043010 1_555
Fe4 O8 2.048886 1_555
Fe4 O5 2.052257 1_555
Fe4 O15 2.066366 1_555
Fe5 O16 1.900124 1_565
Fe5 O19 1.902923 1_555
Fe5 O13 1.914835 1_455
Fe5 O9 1.944920 1_555
Fe6 O12 1.983003 1_655
Fe6 O11 1.984698 1_555
Fe6 O14 1.999392 1_555
Fe6 O8 1.999775 1_655
Fe6 O15 2.015752 1_555
Fe6 O9 2.025462 1_655
Fe7 O10 1.893913 1_655
Fe7 O7 1.929889 1_655
Fe7 O15 1.966435 1_555
Fe7 O4 1.969755 1_555
Fe8 O20 2.018023 1_555
Fe8 O19 2.024340 1_556
Fe8 O23 2.040428 1_565
Fe8 O13 2.045158 1_556
Fe8 O17 2.059165 1_555
Fe8 O21 2.061611 1_566
Fe9 O18 1.889018 1_555
Fe9 O12 1.923876 1_555
Fe9 O14 1.961170 1_545
Fe9 O21 1.968168 1_555
Fe10 O16 2.018023 1_555
Fe10 O22 2.024340 1_554
Fe10 O13 2.040428 1_455
Fe10 O23 2.045158 1_554
Fe10 O21 2.059165 1_555
Fe10 O17 2.061611 1_454
Fe11 O20 1.900124 1_455
Fe11 O22 1.902923 1_555
Fe11 O23 1.914835 1_565
Fe11 O6 1.944920 1_555
Co0 O22 2.068963 1_555
Co0 O20 2.076020 1_545
Co0 O0 2.092266 1_555
Co0 O1 2.097746 1_545
Co0 O23 2.115663 1_555
Co0 O3 2.124226 1_555
Co1 O5 2.070993 1_555
Co1 O10 2.070993 1_555
Co1 O7 2.090681 1_565
Co1 O11 2.090681 1_455
Co1 O4 2.109315 1_555
Co1 O8 2.109315 1_555
Co2 O18 2.077053 1_555
Co2 O12 2.082771 1_655
Co2 O5 2.086423 1_645
Co2 O11 2.088034 1_545
Co2 O15 2.106801 1_555
Co2 O9 2.132712 1_645
Co3 O0 2.077053 1_555
Co3 O1 2.082771 1_545
Co3 O10 2.086423 1_645
Co3 O7 2.088034 1_655
Co3 O2 2.106801 1_555
Co3 O6 2.132712 1_645
Co4 O19 2.068963 1_555
Co4 O16 2.076020 1_655
Co4 O18 2.092266 1_555
Co4 O12 2.097746 1_655
Co4 O13 2.115663 1_555
Co4 O14 2.124226 1_555
Co5 O21 2.043979 1_555
Co5 O17 2.043979 1_554
Co5 O22 2.094208 1_554
Co5 O19 2.094208 1_555
Co5 O16 2.096199 1_655
Co5 O20 2.096199 1_544
