# generated using pymatgen
data_Li4CO4
_symmetry_space_group_name_H-M   'P 1'
_cell_length_a   4.56734784
_cell_length_b   4.56734784
_cell_length_c   4.64241281
_cell_angle_alpha   64.28779025
_cell_angle_beta   64.28779025
_cell_angle_gamma   92.58251827
_symmetry_Int_Tables_number   1
_chemical_formula_structural   Li4CO4
_chemical_formula_sum   'Li4 C1 O4'
_cell_volume   75.29904100
_cell_formula_units_Z   1
loop_
 _symmetry_equiv_pos_site_id
 _symmetry_equiv_pos_as_xyz
  1  'x, y, z'
loop_
 _atom_site_type_symbol
 _atom_site_label
 _atom_site_symmetry_multiplicity
 _atom_site_fract_x
 _atom_site_fract_y
 _atom_site_fract_z
 _atom_site_occupancy
  Li  Li0  1  0.16846400  0.16846400  0.84505400  1
  Li  Li1  1  0.58995300  0.12541700  0.11172100  1
  Li  Li2  1  0.56346400  0.56346400  0.25430100  1
  Li  Li3  1  0.12541700  0.58995300  0.11172100  1
  C  C0  1  0.87088300  0.87088300  0.59816500  1
  O  O0  1  0.82783700  0.82783700  0.33488800  1
  O  O1  1  0.15850500  0.15850500  0.41007500  1
  O  O2  1  0.92461700  0.57277900  0.82772200  1
  O  O3  1  0.57277900  0.92461700  0.82772200  1
loop_
_geom_bond_atom_site_label_1
_geom_bond_atom_site_label_2
_geom_bond_distance
_geom_bond_site_symmetry_2
Li0 O0 1.911610 1_446
Li0 O1 2.059402 1_555
Li0 O3 2.188870 1_545
Li0 O2 2.188870 1_455
Li1 O1 1.914315 1_555
Li1 O3 1.928214 1_544
Li1 O2 1.970270 1_554
Li1 O0 1.997275 1_545
Li2 O0 1.925762 1_555
Li2 O2 1.931482 1_554
Li2 O3 1.931482 1_554
Li2 O1 2.176104 1_555
Li3 O1 1.914315 1_555
Li3 O2 1.928214 1_454
Li3 O3 1.970270 1_554
Li3 O0 1.997275 1_455
C0 O0 1.408799 1_555
C0 O2 1.431004 1_555
C0 O3 1.431004 1_555
C0 O1 1.437966 1_665
