# generated using pymatgen
data_Ti14O7F60
_symmetry_space_group_name_H-M   'P 1'
_cell_length_a   7.02918400
_cell_length_b   10.44286853
_cell_length_c   17.99226164
_cell_angle_alpha   89.84252136
_cell_angle_beta   89.89876890
_cell_angle_gamma   89.73401446
_symmetry_Int_Tables_number   1
_chemical_formula_structural   Ti14O7F60
_chemical_formula_sum   'Ti14 O7 F60'
_cell_volume   1320.69791369
_cell_formula_units_Z   1
loop_
 _symmetry_equiv_pos_site_id
 _symmetry_equiv_pos_as_xyz
  1  'x, y, z'
loop_
 _atom_site_type_symbol
 _atom_site_label
 _atom_site_symmetry_multiplicity
 _atom_site_fract_x
 _atom_site_fract_y
 _atom_site_fract_z
 _atom_site_occupancy
  Ti  Ti0  1  0.14110600  0.23174300  0.88265100  1
  Ti  Ti1  1  0.14781800  0.57162800  0.67610900  1
  Ti  Ti2  1  0.14301000  0.69295300  0.94380200  1
  Ti  Ti3  1  0.15343200  0.73211500  0.37312600  1
  Ti  Ti4  1  0.84457000  0.80622400  0.55032700  1
  Ti  Ti5  1  0.84866400  0.92188200  0.81662100  1
  Ti  Ti6  1  0.50173700  0.00117300  0.99804900  1
  Ti  Ti7  1  0.16242500  0.04943100  0.17740000  1
  Ti  Ti8  1  0.15411100  0.19391800  0.44805500  1
  Ti  Ti9  1  0.84409300  0.26606500  0.62305700  1
  Ti  Ti10  1  0.83781900  0.29221500  0.06381500  1
  Ti  Ti11  1  0.84729000  0.42872800  0.32217300  1
  Ti  Ti12  1  0.49761600  0.49870100  0.49765900  1
  Ti  Ti13  1  0.84265400  0.75441100  0.12730200  1
  O  O0  1  0.62381500  0.50653500  0.99275400  1
  O  O1  1  0.64778000  0.53330600  0.67409900  1
  O  O2  1  0.36510100  0.79495100  0.57307100  1
  O  O3  1  0.63721000  0.03580200  0.31020500  1
  O  O4  1  0.38748200  0.25451400  0.74135900  1
  O  O5  1  0.38312300  0.25007900  0.25653100  1
  O  O6  1  0.35119800  0.76258400  0.11097700  1
  F  F0  1  0.33709500  0.10934500  0.93840800  1
  F  F1  1  0.00572200  0.24695000  0.97179400  1
  F  F2  1  0.71257700  0.33503900  0.70352800  1
  F  F3  1  0.99482500  0.32647800  0.82627700  1
  F  F4  1  0.31911500  0.34734900  0.90017700  1
  F  F5  1  0.70733900  0.38876700  0.96877200  1
  F  F6  1  0.02013600  0.42207500  0.63598700  1
  F  F7  1  0.31120700  0.47113100  0.72807200  1
  F  F8  1  0.33838500  0.53537100  0.58236600  1
  F  F9  1  0.98524000  0.56830200  0.92139600  1
  F  F10  1  0.98979500  0.59728800  0.75203300  1
  F  F11  1  0.34124200  0.60263900  0.43868600  1
  F  F12  1  0.65518200  0.64092600  0.52137200  1
  F  F13  1  0.98092800  0.66319300  0.60522100  1
  F  F14  1  0.31083300  0.67831300  0.87114300  1
  F  F15  1  0.28635300  0.71938500  0.68289300  1
  F  F16  1  0.01727700  0.73884400  0.47150700  1
  F  F17  1  0.71375900  0.78011600  0.81298300  1
  F  F18  1  0.71910400  0.83613800  0.19936500  1
  F  F19  1  0.68311800  0.81835300  0.62909800  1
  F  F20  1  0.98999300  0.83208400  0.32431600  1
  F  F21  1  0.01495500  0.83931100  0.89629300  1
  F  F22  1  0.34341800  0.86648800  0.97951700  1
  F  F23  1  0.31089100  0.85486000  0.40373200  1
  F  F24  1  0.71101500  0.89102000  0.48279800  1
  F  F25  1  0.01679000  0.90323400  0.74567500  1
  F  F26  1  0.02237900  0.92351400  0.13500400  1
  F  F27  1  0.01023700  0.92381700  0.57868800  1
  F  F28  1  0.65824200  0.96884700  0.91901300  1
  F  F29  1  0.32838600  0.96383900  0.23003600  1
  F  F30  1  0.68990800  0.03634200  0.77754800  1
  F  F31  1  0.33676500  0.05227800  0.08567700  1
  F  F32  1  0.98891800  0.07553300  0.42138100  1
  F  F33  1  0.00329800  0.07701000  0.86266200  1
  F  F34  1  0.00551300  0.09920600  0.24765600  1
  F  F35  1  0.28205900  0.11122600  0.51833800  1
  F  F36  1  0.68533900  0.14259800  0.59843100  1
  F  F37  1  0.66345800  0.15503600  0.02220500  1
  F  F38  1  0.98954200  0.16935300  0.10924900  1
  F  F39  1  0.00654200  0.17193400  0.67557300  1
  F  F40  1  0.31975900  0.17315200  0.37181900  1
  F  F41  1  0.29409900  0.15646700  0.78230100  1
  F  F42  1  0.29479900  0.24284800  0.18488300  1
  F  F43  1  0.97885200  0.26144400  0.52950400  1
  F  F44  1  0.71564000  0.28050700  0.31239800  1
  F  F45  1  0.66964100  0.32872500  0.13228200  1
  F  F46  1  0.02060800  0.33471100  0.39436400  1
  F  F47  1  0.34278600  0.35613200  0.47887400  1
  F  F48  1  0.66017500  0.39699600  0.56254400  1
  F  F49  1  0.00874900  0.40068400  0.24691000  1
  F  F50  1  0.99284100  0.42216400  0.07484600  1
  F  F51  1  0.66028200  0.45779400  0.41759600  1
  F  F52  1  0.68875800  0.53202100  0.27275600  1
  F  F53  1  0.98114000  0.57611400  0.36509800  1
  F  F54  1  0.27853500  0.61624800  0.01634900  1
  F  F55  1  0.68106500  0.63344800  0.10314900  1
  F  F56  1  0.01565300  0.66511000  0.17497500  1
  F  F57  1  0.28497600  0.67130900  0.29612500  1
  F  F58  1  0.96988400  0.76078300  0.03024300  1
  F  F59  1  0.65522800  0.90770600  0.06101900  1
loop_
_geom_bond_atom_site_label_1
_geom_bond_atom_site_label_2
_geom_bond_distance
_geom_bond_site_symmetry_2
F0 Ti6 1.937131 1_555
F0 Ti0 2.125922 1_555
F1 Ti0 1.870263 1_555
F1 Ti10 2.085620 1_456
F2 Ti9 1.861324 1_555
F3 Ti0 1.747431 1_655
F4 Ti0 1.772023 1_555
F5 O0 1.427827 1_555
F5 Ti10 2.183927 1_556
F6 Ti1 1.946080 1_555
F6 Ti9 2.064331 1_455
F7 Ti1 1.811558 1_555
F8 Ti12 1.927534 1_555
F8 Ti1 2.184789 1_555
F9 Ti2 1.762020 1_655
F10 Ti1 1.779209 1_655
F11 Ti12 1.870528 1_555
F11 Ti3 2.223180 1_555
F12 Ti12 1.906587 1_555
F12 Ti4 2.247679 1_555
F13 Ti1 1.976206 1_655
F13 Ti4 2.026605 1_555
F14 Ti2 1.765779 1_555
F15 Ti1 1.832877 1_555
F16 Ti4 1.992862 1_455
F16 Ti3 2.012017 1_555
F17 Ti5 1.763237 1_555
F18 Ti13 1.777343 1_555
F19 Ti4 1.818407 1_555
F20 Ti3 1.779980 1_655
F21 Ti2 1.964601 1_555
F21 Ti5 2.038249 1_455
F22 Ti6 1.829283 1_565
F22 Ti2 2.390556 1_555
F23 Ti3 1.786199 1_555
F24 Ti4 1.769765 1_555
F25 Ti5 1.748670 1_455
F26 Ti7 1.816635 1_565
F26 Ti13 2.180902 1_455
F27 Ti4 1.772930 1_455
F28 Ti6 1.827576 1_565
F28 Ti5 2.327283 1_555
F29 Ti7 1.745356 1_565
F30 Ti5 1.775951 1_545
F31 Ti6 2.026746 1_554
F31 Ti7 2.054040 1_555
F32 Ti8 1.767935 1_655
F33 Ti0 1.922923 1_555
F33 Ti5 2.125776 1_445
F34 Ti7 1.754404 1_555
F35 Ti8 1.773263 1_555
F36 Ti9 1.766987 1_555
F37 Ti6 2.021235 1_554
F37 Ti10 2.034758 1_555
F38 Ti10 1.853759 1_555
F38 Ti7 2.128695 1_655
F39 Ti9 1.775182 1_455
F40 Ti8 1.810491 1_555
F41 O4 1.422057 1_555
F41 Ti0 2.242203 1_555
F42 O5 1.434139 1_555
F42 Ti7 2.232267 1_555
F43 Ti9 1.930610 1_555
F43 Ti8 2.038060 1_655
F44 Ti11 1.816177 1_555
F45 Ti10 1.747462 1_555
F46 Ti8 1.989508 1_555
F46 Ti11 2.030449 1_455
F47 Ti12 1.880004 1_555
F47 Ti8 2.228127 1_555
F48 Ti12 1.945051 1_555
F48 Ti9 2.169470 1_555
F49 Ti11 1.789193 1_455
F50 Ti10 1.756224 1_555
F51 Ti12 1.886261 1_555
F51 Ti11 2.181496 1_555
F52 Ti11 1.784076 1_555
F53 Ti11 1.968035 1_555
F53 Ti3 2.040037 1_655
F54 Ti2 1.801240 1_554
F55 Ti13 1.758618 1_555
F56 Ti13 1.752972 1_455
F57 Ti3 1.781133 1_555
F58 Ti13 1.961693 1_555
F58 Ti2 2.095925 1_654
F59 Ti6 1.840883 1_564
F59 Ti13 2.386649 1_555
