# generated using pymatgen
data_Li13Si4
_symmetry_space_group_name_H-M   'P 1'
_cell_length_a   4.41386677
_cell_length_b   7.90356186
_cell_length_c   15.00943456
_cell_angle_alpha   90.00000000
_cell_angle_beta   90.00000000
_cell_angle_gamma   90.00000000
_symmetry_Int_Tables_number   1
_chemical_formula_structural   Li13Si4
_chemical_formula_sum   'Li26 Si8'
_cell_volume   523.60816304
_cell_formula_units_Z   2
loop_
 _symmetry_equiv_pos_site_id
 _symmetry_equiv_pos_as_xyz
  1  'x, y, z'
loop_
 _atom_site_type_symbol
 _atom_site_label
 _atom_site_symmetry_multiplicity
 _atom_site_fract_x
 _atom_site_fract_y
 _atom_site_fract_z
 _atom_site_occupancy
  Li  Li0  1  -0.00000000  0.76793958  0.15521194  1
  Li  Li1  1  0.00000000  0.34708277  0.52503682  1
  Li  Li2  1  -0.00000000  0.15291723  0.02503682  1
  Li  Li3  1  0.50000000  0.75730703  0.40434278  1
  Li  Li4  1  0.00000000  0.23206042  0.84478806  1
  Li  Li5  1  -0.00000000  0.40627359  0.69357140  1
  Li  Li6  1  -0.00000000  0.90627359  0.80642860  1
  Li  Li7  1  0.50000000  0.59158420  0.74461689  1
  Li  Li8  1  0.50000000  0.90652597  0.60672914  1
  Li  Li9  1  -0.00000000  0.73206042  0.65521194  1
  Li  Li10  1  0.50000000  0.24269297  0.59565722  1
  Li  Li11  1  0.50000000  0.25730703  0.09565722  1
  Li  Li12  1  0.50000000  0.09347403  0.39327086  1
  Li  Li13  1  0.50000000  0.74269297  0.90434278  1
  Li  Li14  1  0.50000000  0.09158420  0.75538311  1
  Li  Li15  1  -0.00000000  0.26793958  0.34478806  1
  Li  Li16  1  0.50000000  0.40841580  0.25538311  1
  Li  Li17  1  -0.00000000  0.00000000  0.50000000  1
  Li  Li18  1  0.00000000  0.09372641  0.19357140  1
  Li  Li19  1  0.50000000  0.40652597  0.89327086  1
  Li  Li20  1  0.00000000  0.65291823  0.47496318  1
  Li  Li21  1  -0.00000000  0.84708177  0.97496318  1
  Li  Li22  1  0.50000000  0.90841580  0.24461689  1
  Li  Li23  1  -0.00000000  0.50000000  -0.00000000  1
  Li  Li24  1  0.50000000  0.59347403  0.10672914  1
  Li  Li25  1  -0.00000000  0.59372641  0.30642860  1
  Si  Si0  1  0.50000000  0.92721748  0.06868355  1
  Si  Si1  1  -0.00000000  0.58384910  0.83974371  1
  Si  Si2  1  -0.00000000  0.41615090  0.16025629  1
  Si  Si3  1  0.50000000  0.57278252  0.56868355  1
  Si  Si4  1  -0.00000000  0.08384910  0.66025629  1
  Si  Si5  1  0.50000000  0.42721748  0.43131645  1
  Si  Si6  1  0.50000000  0.07278252  0.93131645  1
  Si  Si7  1  0.00000000  0.91615090  0.33974371  1
loop_
_geom_bond_atom_site_label_1
_geom_bond_atom_site_label_2
_geom_bond_distance
_geom_bond_site_symmetry_2
Li0 Li21 2.776800 1_554
Li0 Si2 2.781414 1_555
Li0 Si0 2.853423 1_455
Li0 Si0 2.853423 1_555
Li0 Si7 3.007242 1_555
Li1 Li20 2.531338 1_555
Li1 Li5 2.572504 1_555
Li1 Li10 2.583565 1_455
Li1 Li10 2.583565 1_555
Li1 Si5 2.692668 1_555
Li1 Si5 2.692668 1_455
Li1 Li17 2.768810 1_555
Li1 Li15 2.776802 1_555
Li1 Si4 2.906468 1_555
Li1 Si3 2.912350 1_455
Li1 Si3 2.912350 1_555
Li2 Li21 2.531338 1_544
Li2 Si6 2.692668 1_554
Li2 Si6 2.692668 1_454
Li2 Li23 2.768810 1_555
Li2 Li4 2.776802 1_554
Li2 Si2 2.906468 1_555
Li2 Si0 2.912350 1_445
Li2 Si0 2.912350 1_545
Li3 Si5 2.640110 1_555
Li3 Si7 2.717863 1_655
Li3 Si7 2.717863 1_555
Li3 Si3 2.865546 1_555
Li4 Si1 2.781414 1_555
Li4 Si6 2.853423 1_555
Li4 Si6 2.853423 1_455
Li4 Si4 3.007242 1_555
Li5 Si4 2.596899 1_555
Li5 Si1 2.604464 1_555
Li6 Si1 2.596899 1_555
Li6 Si4 2.604464 1_565
Li7 Si1 2.629240 1_655
Li7 Si1 2.629240 1_555
Li7 Si3 2.644838 1_555
Li8 Si3 2.698866 1_555
Li8 Si4 2.734993 1_565
Li8 Si4 2.734993 1_665
Li9 Si4 2.781414 1_565
Li9 Si3 2.853423 1_455
Li9 Si3 2.853423 1_555
Li9 Si1 3.007242 1_555
Li10 Si3 2.640110 1_555
Li10 Si4 2.717863 1_555
Li10 Si4 2.717863 1_655
Li10 Si5 2.865546 1_555
Li11 Li2 2.583565 1_555
Li11 Li2 2.583565 1_655
Li11 Si0 2.640110 1_545
Li11 Si2 2.717863 1_555
Li11 Si2 2.717863 1_655
Li11 Si6 2.865546 1_554
Li12 Si5 2.698866 1_555
Li12 Si7 2.734993 1_645
Li12 Si7 2.734993 1_545
Li13 Li21 2.583562 1_555
Li13 Li21 2.583562 1_655
Li13 Si6 2.640110 1_565
Li13 Si1 2.717863 1_555
Li13 Si1 2.717863 1_655
Li13 Si0 2.865546 1_556
Li14 Si4 2.629240 1_655
Li14 Si4 2.629240 1_555
Li14 Si6 2.644838 1_555
Li15 Si7 2.781414 1_545
Li15 Si5 2.853423 1_455
Li15 Si5 2.853423 1_555
Li15 Si2 3.007242 1_555
Li16 Si2 2.629240 1_555
Li16 Si2 2.629240 1_655
Li16 Si5 2.644838 1_555
Li17 Si4 2.494979 1_555
Li17 Si7 2.494979 1_545
Li17 Li20 2.768802 1_545
Li18 Li2 2.572504 1_555
Li18 Si2 2.596899 1_555
Li18 Si7 2.604464 1_545
Li19 Si6 2.698866 1_555
Li19 Si1 2.734993 1_655
Li19 Si1 2.734993 1_555
Li20 Li25 2.572505 1_555
Li20 Li3 2.583562 1_455
Li20 Li3 2.583562 1_555
Li20 Si3 2.692670 1_555
Li20 Si3 2.692670 1_455
Li20 Li9 2.776800 1_555
Li20 Si7 2.906463 1_555
Li20 Si5 2.912355 1_455
Li20 Si5 2.912355 1_555
Li21 Li6 2.572505 1_555
Li21 Si0 2.692670 1_456
Li21 Si0 2.692670 1_556
Li21 Li23 2.768802 1_556
Li21 Si1 2.906463 1_555
Li21 Si6 2.912355 1_565
Li21 Si6 2.912355 1_465
Li22 Si7 2.629240 1_555
Li22 Si7 2.629240 1_655
Li22 Si0 2.644838 1_555
Li23 Si1 2.494979 1_554
Li23 Si2 2.494979 1_555
Li24 Si0 2.698866 1_555
Li24 Si2 2.734993 1_555
Li24 Si2 2.734993 1_655
Li25 Si7 2.596899 1_555
Li25 Si2 2.604464 1_555
Si0 Si6 2.361067 1_564
Si3 Si5 2.361067 1_555
