# generated using pymatgen
data_Ag2SO4
_symmetry_space_group_name_H-M   'P 1'
_cell_length_a   8.46656755
_cell_length_b   6.86440369
_cell_length_c   6.38816674
_cell_angle_alpha   79.32484533
_cell_angle_beta   52.81935230
_cell_angle_gamma   47.85580237
_symmetry_Int_Tables_number   1
_chemical_formula_structural   Ag2SO4
_chemical_formula_sum   'Ag4 S2 O8'
_cell_volume   203.50841288
_cell_formula_units_Z   2
loop_
 _symmetry_equiv_pos_site_id
 _symmetry_equiv_pos_as_xyz
  1  'x, y, z'
loop_
 _atom_site_type_symbol
 _atom_site_label
 _atom_site_symmetry_multiplicity
 _atom_site_fract_x
 _atom_site_fract_y
 _atom_site_fract_z
 _atom_site_occupancy
  Ag  Ag0  1  0.82254600  0.42617400  0.83398700  1
  Ag  Ag1  1  0.42800500  0.81753100  0.41932600  1
  Ag  Ag2  1  0.17727200  0.57686200  0.17988000  1
  Ag  Ag3  1  0.57585900  0.18152800  0.57483400  1
  S  S0  1  0.12632900  0.12425500  0.13184600  1
  S  S1  1  0.87046700  0.87232800  0.87583000  1
  O  O0  1  0.27657200  0.11375200  0.82564200  1
  O  O1  1  0.29163600  0.82289600  0.11161800  1
  O  O2  1  0.83618300  0.28293700  0.26098200  1
  O  O3  1  0.12633600  0.25718900  0.27821000  1
  O  O4  1  0.74063700  0.87474600  0.16038400  1
  O  O5  1  0.70778800  0.18054400  0.88302100  1
  O  O6  1  0.88872400  0.72681800  0.70926100  1
  O  O7  1  0.16691700  0.72424000  0.74105400  1
loop_
_geom_bond_atom_site_label_1
_geom_bond_atom_site_label_2
_geom_bond_distance
_geom_bond_site_symmetry_2
Ag0 O5 2.349481 1_555
Ag0 O6 2.368714 1_555
Ag0 O1 2.548123 1_556
Ag0 O3 2.655365 1_655
Ag1 O7 2.332703 1_555
Ag1 O4 2.399804 1_555
Ag1 O2 2.561974 1_555
Ag1 O0 2.636307 1_565
Ag2 O1 2.321935 1_555
Ag2 O3 2.414057 1_555
Ag2 O5 2.527813 1_554
Ag2 O6 2.528552 1_455
Ag3 O2 2.358613 1_555
Ag3 O0 2.367113 1_555
Ag3 O7 2.589586 1_555
Ag3 O4 2.655043 1_545
O0 S0 1.539905 1_556
O1 S0 1.499957 1_565
O2 S0 1.481293 1_655
O3 S0 1.422369 1_555
O4 S1 1.443780 1_554
O5 S1 1.557020 1_545
O6 S1 1.463415 1_555
O7 S1 1.537097 1_455
