# generated using pymatgen
data_Li7(Mo3Se4)4
_symmetry_space_group_name_H-M   'P 1'
_cell_length_a   6.98984300
_cell_length_b   6.99176173
_cell_length_c   13.96287237
_cell_angle_alpha   94.91652555
_cell_angle_beta   94.89296041
_cell_angle_gamma   94.82343688
_symmetry_Int_Tables_number   1
_chemical_formula_structural   Li7(Mo3Se4)4
_chemical_formula_sum   'Li7 Mo12 Se16'
_cell_volume   674.51847775
_cell_formula_units_Z   1
loop_
 _symmetry_equiv_pos_site_id
 _symmetry_equiv_pos_as_xyz
  1  'x, y, z'
loop_
 _atom_site_type_symbol
 _atom_site_label
 _atom_site_symmetry_multiplicity
 _atom_site_fract_x
 _atom_site_fract_y
 _atom_site_fract_z
 _atom_site_occupancy
  Li  Li0  1  0.01592725  0.98034018  0.70632901  1
  Li  Li1  1  0.02581089  0.59563145  0.98724073  1
  Li  Li2  1  0.98297166  0.42576532  0.50871310  1
  Li  Li3  1  0.87366700  0.09082163  0.02130186  1
  Li  Li4  1  0.43070577  0.01338238  0.49035847  1
  Li  Li5  1  0.97557083  0.02017854  0.29803292  1
  Li  Li6  1  0.39581954  0.02464029  0.98568066  1
  Mo  Mo0  1  0.58522789  0.75233708  0.22849967  1
  Mo  Mo1  1  0.58327664  0.75507847  0.72756622  1
  Mo  Mo2  1  0.24451863  0.54557050  0.20603679  1
  Mo  Mo3  1  0.45734210  0.58514629  0.37617749  1
  Mo  Mo4  1  0.24680042  0.54145776  0.70762927  1
  Mo  Mo5  1  0.45576918  0.58510507  0.87657580  1
  Mo  Mo6  1  0.54320150  0.41710283  0.12178083  1
  Mo  Mo7  1  0.75531953  0.45752781  0.29147090  1
  Mo  Mo8  1  0.54282485  0.41529350  0.62300596  1
  Mo  Mo9  1  0.75131466  0.45655424  0.79163159  1
  Mo  Mo10  1  0.41491093  0.24870134  0.26947657  1
  Mo  Mo11  1  0.41399825  0.24489204  0.77160813  1
  Se  Se0  1  0.29120448  0.87545106  0.31165663  1
  Se  Se1  1  0.28874928  0.87527753  0.81243166  1
  Se  Se2  1  0.37614153  0.71101119  0.06187462  1
  Se  Se3  1  0.78782815  0.78210271  0.39625823  1
  Se  Se4  1  0.37181851  0.70501818  0.56285634  1
  Se  Se5  1  0.78500955  0.79302291  0.89315343  1
  Se  Se6  1  0.87343942  0.62623262  0.14500695  1
  Se  Se7  1  0.87463654  0.62790729  0.64573326  1
  Se  Se8  1  0.12516434  0.37772975  0.35234829  1
  Se  Se9  1  0.12386196  0.36873573  0.85408692  1
  Se  Se10  1  0.20858498  0.21495928  0.10500104  1
  Se  Se11  1  0.62849565  0.29256849  0.43665931  1
  Se  Se12  1  0.21027882  0.20797525  0.60384069  1
  Se  Se13  1  0.62575532  0.29065290  0.93747595  1
  Se  Se14  1  0.71051981  0.12406144  0.18525714  1
  Se  Se15  1  0.70353516  0.12576596  0.68574259  1
loop_
_geom_bond_atom_site_label_1
_geom_bond_atom_site_label_2
_geom_bond_distance
_geom_bond_site_symmetry_2
Li0 Se15 2.490152 1_465
Li0 Se1 2.512208 1_555
Li0 Se12 2.604776 1_565
Li0 Se7 2.618010 1_455
Li1 Se9 2.517479 1_555
Li1 Se6 2.527947 1_456
Li1 Se5 2.605353 1_455
Li1 Se2 2.611807 1_556
Li2 Se8 2.483561 1_655
Li2 Se7 2.488950 1_555
Li2 Se12 2.645931 1_655
Li2 Se11 2.654193 1_555
Li3 Se10 2.572401 1_655
Li3 Se13 2.581925 1_554
Li3 Se5 2.622259 1_544
Li3 Se14 2.644620 1_555
Li4 Se4 2.477588 1_545
Li4 Se11 2.501547 1_555
Li4 Se0 2.668550 1_545
Li4 Se12 2.671185 1_555
Li4 Se15 3.192163 1_555
Li5 Se0 2.502882 1_645
Li5 Se14 2.522734 1_555
Li5 Se3 2.589388 1_545
Li5 Se8 2.649194 1_655
Li6 Se2 2.516616 1_546
Li6 Se13 2.528201 1_555
Li6 Se10 2.558130 1_556
Li6 Se1 2.574726 1_545
Mo0 Se6 2.591921 1_555
Mo0 Se3 2.614685 1_555
Mo0 Se0 2.616513 1_555
Mo0 Se2 2.620311 1_555
Mo0 Se14 2.804066 1_565
Mo1 Se5 2.584606 1_555
Mo1 Se7 2.602133 1_555
Mo1 Se4 2.606050 1_555
Mo1 Se1 2.623943 1_555
Mo1 Se15 2.782378 1_565
Mo2 Se10 2.584479 1_555
Mo2 Se2 2.602372 1_555
Mo2 Se8 2.604554 1_555
Mo2 Se0 2.609479 1_555
Mo2 Se6 2.779078 1_455
Mo3 Se3 2.568971 1_555
Mo3 Se0 2.609864 1_555
Mo3 Se8 2.612303 1_555
Mo3 Se11 2.619990 1_555
Mo3 Se4 2.798148 1_555
Mo4 Se4 2.585954 1_555
Mo4 Se12 2.619049 1_555
Mo4 Se1 2.627000 1_555
Mo4 Se9 2.631970 1_555
Mo4 Se7 2.801752 1_455
Mo5 Se5 2.598433 1_555
Mo5 Se1 2.610095 1_555
Mo5 Se13 2.629133 1_555
Mo5 Se9 2.640749 1_555
Mo5 Se2 2.777862 1_556
Mo6 Se6 2.606697 1_555
Mo6 Se10 2.610899 1_555
Mo6 Se2 2.611046 1_555
Mo6 Se14 2.624624 1_555
Mo6 Se13 2.772412 1_554
Mo7 Se3 2.574833 1_555
Mo7 Se11 2.600233 1_555
Mo7 Se6 2.606338 1_555
Mo7 Se14 2.634155 1_555
Mo7 Se8 2.768727 1_655
Mo8 Se15 2.577900 1_555
Mo8 Se4 2.600979 1_555
Mo8 Se12 2.614678 1_555
Mo8 Se7 2.627451 1_555
Mo8 Se11 2.799008 1_555
Mo9 Se13 2.607918 1_555
Mo9 Se15 2.616542 1_555
Mo9 Se7 2.621573 1_555
Mo9 Se5 2.622487 1_555
Mo9 Se9 2.809240 1_655
Mo10 Se10 2.587396 1_555
Mo10 Se8 2.604356 1_555
Mo10 Se14 2.636923 1_555
Mo10 Se11 2.641563 1_555
Mo10 Se0 2.806387 1_545
Mo11 Se9 2.590685 1_555
Mo11 Se15 2.598696 1_555
Mo11 Se12 2.616716 1_555
Mo11 Se13 2.620227 1_555
Mo11 Se1 2.779729 1_545
