# generated using pymatgen
data_LiLa2RuO6
_symmetry_space_group_name_H-M   'P 1'
_cell_length_a   5.79495500
_cell_length_b   5.56670500
_cell_length_c   9.63658138
_cell_angle_alpha   54.88973010
_cell_angle_beta   90.00000000
_cell_angle_gamma   90.00000000
_symmetry_Int_Tables_number   1
_chemical_formula_structural   LiLa2RuO6
_chemical_formula_sum   'Li2 La4 Ru2 O12'
_cell_volume   254.30174038
_cell_formula_units_Z   2
loop_
 _symmetry_equiv_pos_site_id
 _symmetry_equiv_pos_as_xyz
  1  'x, y, z'
loop_
 _atom_site_type_symbol
 _atom_site_label
 _atom_site_symmetry_multiplicity
 _atom_site_fract_x
 _atom_site_fract_y
 _atom_site_fract_z
 _atom_site_occupancy
  Li  Li0  1  0.00000000  0.50000000  0.00000000  1
  Li  Li1  1  0.50000000  0.50000000  0.50000000  1
  La  La0  1  0.55953900  0.73698900  0.75133000  1
  La  La1  1  0.05953900  0.26301100  0.74867000  1
  La  La2  1  0.44046100  0.26301100  0.24867000  1
  La  La3  1  0.94046100  0.73698900  0.25133000  1
  Ru  Ru0  1  0.50000000  0.00000000  0.00000000  1
  Ru  Ru1  1  0.00000000  0.00000000  0.50000000  1
  O  O0  1  0.02718100  0.15305300  0.25756400  1
  O  O1  1  0.52718100  0.84694700  0.24243600  1
  O  O2  1  0.97281900  0.84694700  0.74243600  1
  O  O3  1  0.47281900  0.15305300  0.75756400  1
  O  O4  1  0.28507700  0.76378200  0.54912300  1
  O  O5  1  0.78507700  0.23621800  0.95087700  1
  O  O6  1  0.68983200  0.66603100  0.04474100  1
  O  O7  1  0.18983200  0.33396900  0.45525900  1
  O  O8  1  0.31016800  0.33396900  0.95525900  1
  O  O9  1  0.81016800  0.66603100  0.54474100  1
  O  O10  1  0.21492300  0.76378200  0.04912300  1
  O  O11  1  0.71492300  0.23621800  0.45087700  1
loop_
_geom_bond_atom_site_label_1
_geom_bond_atom_site_label_2
_geom_bond_distance
_geom_bond_site_symmetry_2
Li0 O2 2.097913 1_454
Li0 O0 2.097913 1_555
Li0 O6 2.174669 1_455
Li0 O8 2.174669 1_554
Li0 O10 2.175098 1_555
Li0 O5 2.175098 1_454
Li1 O3 2.097913 1_555
Li1 O1 2.097913 1_555
Li1 O9 2.174669 1_555
Li1 O7 2.174669 1_555
Li1 O4 2.175098 1_555
Li1 O11 2.175098 1_555
La0 O3 2.404278 1_565
La0 O8 2.431450 1_555
La0 O4 2.452466 1_555
La0 O2 2.461179 1_555
La0 O5 2.647772 1_555
La0 O9 2.670833 1_555
La0 O6 2.726907 1_556
La0 O11 2.767896 1_565
La1 O2 2.404278 1_445
La1 O9 2.431450 1_455
La1 O5 2.452466 1_455
La1 O3 2.461179 1_555
La1 O4 2.647772 1_555
La1 O8 2.670833 1_555
La1 O7 2.726907 1_555
La1 O10 2.767896 1_546
La2 O1 2.404278 1_545
La2 O6 2.431450 1_555
La2 O11 2.452466 1_555
La2 O0 2.461179 1_555
La2 O10 2.647772 1_555
La2 O7 2.670833 1_555
La2 O8 2.726907 1_554
La2 O4 2.767896 1_545
La3 O0 2.404278 1_665
La3 O7 2.431450 1_655
La3 O10 2.452466 1_655
La3 O1 2.461179 1_555
La3 O11 2.647772 1_555
La3 O6 2.670833 1_555
La3 O9 2.726907 1_555
La3 O5 2.767896 1_564
O0 Ru1 1.979679 1_555
O1 Ru0 1.979679 1_565
O2 Ru1 1.979679 1_665
O3 Ru0 1.979679 1_556
O4 Ru1 1.991556 1_565
O5 Ru0 1.991556 1_556
O6 Ru0 1.982495 1_565
O7 Ru1 1.982495 1_555
O8 Ru0 1.982495 1_556
O9 Ru1 1.982495 1_665
O10 Ru0 1.991556 1_565
O11 Ru1 1.991556 1_655
