# generated using pymatgen
data_Y6O5F8
_symmetry_space_group_name_H-M   'P 1'
_cell_length_a   5.51677900
_cell_length_b   5.57779660
_cell_length_c   8.72576484
_cell_angle_alpha   74.91103437
_cell_angle_beta   88.46541574
_cell_angle_gamma   89.24629249
_symmetry_Int_Tables_number   1
_chemical_formula_structural   Y6O5F8
_chemical_formula_sum   'Y6 O5 F8'
_cell_volume   259.14903019
_cell_formula_units_Z   1
loop_
 _symmetry_equiv_pos_site_id
 _symmetry_equiv_pos_as_xyz
  1  'x, y, z'
loop_
 _atom_site_type_symbol
 _atom_site_label
 _atom_site_symmetry_multiplicity
 _atom_site_fract_x
 _atom_site_fract_y
 _atom_site_fract_z
 _atom_site_occupancy
  Y  Y0  1  0.21473700  0.93289300  0.65275500  1
  Y  Y1  1  0.19245600  0.58137500  0.33903600  1
  Y  Y2  1  0.79211800  0.73044500  0.00278900  1
  Y  Y3  1  0.21854200  0.19992900  0.02269700  1
  Y  Y4  1  0.78185900  0.39787000  0.68651800  1
  Y  Y5  1  0.78586300  0.09278100  0.34529500  1
  O  O0  1  0.97041100  0.73853400  0.51810000  1
  O  O1  1  0.97583800  0.90866000  0.17914100  1
  O  O2  1  0.98643200  0.41861000  0.16641500  1
  O  O3  1  0.98227600  0.05299600  0.84213200  1
  O  O4  1  0.01126100  0.24847300  0.50524600  1
  F  F0  1  0.44233600  0.15381300  0.78980200  1
  F  F1  1  0.44067700  0.86592100  0.43266300  1
  F  F2  1  0.44713600  0.83241100  0.11101100  1
  F  F3  1  0.44332100  0.30136300  0.22503300  1
  F  F4  1  0.58139500  0.74113900  0.73900100  1
  F  F5  1  0.08277100  0.55985300  0.83777500  1
  F  F6  1  0.63539400  0.37182000  0.95888600  1
  F  F7  1  0.52311200  0.36260200  0.49511500  1
loop_
_geom_bond_atom_site_label_1
_geom_bond_atom_site_label_2
_geom_bond_distance
_geom_bond_site_symmetry_2
O0 Y0 2.271359 1_655
O0 Y1 2.300573 1_655
O0 Y4 2.317011 1_555
O0 Y5 2.385905 1_565
O1 Y5 2.218242 1_565
O1 Y3 2.258401 1_665
O1 Y2 2.299947 1_555
O1 Y1 2.326610 1_655
O2 Y2 2.225531 1_555
O2 Y1 2.283781 1_655
O2 Y3 2.317200 1_655
O2 Y5 2.333902 1_555
O3 Y2 2.227185 1_546
O3 Y0 2.294402 1_645
O3 Y4 2.330485 1_555
O3 Y3 2.379791 1_656
O4 Y0 2.204778 1_545
O4 Y5 2.236232 1_455
O4 Y1 2.262664 1_555
O4 Y4 2.312835 1_455
F0 Y0 2.326661 1_545
F0 Y4 2.347698 1_555
F0 Y3 2.418606 1_556
F1 Y5 2.300473 1_565
F1 Y0 2.369486 1_555
F1 Y1 2.419469 1_555
F2 Y2 2.234329 1_555
F2 Y3 2.355432 1_565
F2 Y1 2.518947 1_555
F3 Y5 2.332074 1_555
F3 Y3 2.372920 1_555
F3 Y1 2.454096 1_555
F4 Y0 2.325397 1_555
F4 Y4 2.339331 1_555
F4 Y2 2.592888 1_556
F5 Y3 2.352381 1_556
F5 Y0 2.386186 1_555
F5 Y4 2.468150 1_455
F5 Y2 2.469669 1_456
F6 Y2 2.314707 1_556
F6 Y4 2.458203 1_555
F6 Y3 2.495854 1_556
F7 Y4 2.274160 1_555
F7 Y1 2.425007 1_555
F7 Y5 2.634518 1_555
F7 Y0 2.965893 1_545
