# generated using pymatgen
data_U3Cu2S7
_symmetry_space_group_name_H-M   'P 1'
_cell_length_a   9.76005032
_cell_length_b   9.76001059
_cell_length_c   5.74118375
_cell_angle_alpha   90.00054959
_cell_angle_beta   89.99963539
_cell_angle_gamma   120.00092380
_symmetry_Int_Tables_number   1
_chemical_formula_structural   U3Cu2S7
_chemical_formula_sum   'U6 Cu4 S14'
_cell_volume   473.62037956
_cell_formula_units_Z   2
loop_
 _symmetry_equiv_pos_site_id
 _symmetry_equiv_pos_as_xyz
  1  'x, y, z'
loop_
 _atom_site_type_symbol
 _atom_site_label
 _atom_site_symmetry_multiplicity
 _atom_site_fract_x
 _atom_site_fract_y
 _atom_site_fract_z
 _atom_site_occupancy
  U  U0  1  0.22950684  0.84901023  0.03308331  1
  U  U1  1  0.15098849  0.38049099  0.03312119  1
  U  U2  1  0.84901292  0.61951762  0.53311373  1
  U  U3  1  0.61950248  0.77049872  0.03309177  1
  U  U4  1  0.77049473  0.15099506  0.53309342  1
  U  U5  1  0.38050454  0.22950919  0.53308580  1
  Cu  Cu0  1  0.66675265  0.33351765  0.14658396  1
  Cu  Cu1  1  0.33322291  0.66640497  0.64658280  1
  Cu  Cu2  1  0.00000597  -0.00000668  0.49527940  1
  Cu  Cu3  1  0.00000303  0.00004039  0.99527612  1
  S  S0  1  0.66666031  0.33334030  0.75318095  1
  S  S1  1  0.56899512  0.48423583  0.28461690  1
  S  S2  1  0.15126129  0.89290708  0.51170704  1
  S  S3  1  0.51585181  0.08486207  0.28452216  1
  S  S4  1  0.43101943  0.51575548  0.78462386  1
  S  S5  1  0.48413534  0.91510550  0.78451664  1
  S  S6  1  0.84872704  0.10710508  0.01170700  1
  S  S7  1  0.08477109  0.56896011  0.78459529  1
  S  S8  1  0.74166273  0.84875270  0.51170986  1
  S  S9  1  0.33334439  0.66667746  0.25318449  1
  S  S10  1  0.91522314  0.43103787  0.28459588  1
  S  S11  1  0.25834089  0.15125503  0.01171430  1
  S  S12  1  0.10709102  0.25833471  0.51171012  1
  S  S13  1  0.89292483  0.74169267  0.01170400  1
loop_
_geom_bond_atom_site_label_1
_geom_bond_atom_site_label_2
_geom_bond_distance
_geom_bond_site_symmetry_2
Cu0 S0 2.258599 1_554
Cu0 S1 2.259592 1_555
Cu0 S10 2.259763 1_555
Cu0 S3 2.260897 1_555
Cu1 S9 2.258573 1_555
Cu1 S4 2.259329 1_555
Cu1 S7 2.259688 1_555
Cu1 S5 2.261219 1_555
Cu2 S12 2.196232 1_555
Cu2 S8 2.196234 1_445
Cu2 S2 2.196265 1_545
Cu3 S11 2.196168 1_556
Cu3 S6 2.196277 1_456
Cu3 S13 2.196295 1_446
S0 U5 2.755643 1_555
S0 U2 2.755737 1_555
S0 U4 2.755815 1_555
S1 U5 2.650739 1_555
S1 U2 2.763935 1_555
S1 U3 2.959236 1_555
S2 U2 2.822332 1_455
S2 U5 2.909167 1_565
S2 U0 2.940184 1_555
S2 U0 3.170798 1_556
S3 U4 2.650636 1_555
S3 U5 2.763960 1_555
S3 U0 2.959696 1_545
S4 U3 2.650802 1_556
S4 U1 2.764030 1_556
S4 U5 2.959087 1_555
S5 U0 2.650580 1_556
S5 U3 2.763864 1_556
S5 U4 2.959847 1_565
S6 U1 2.822391 1_655
S6 U3 2.909163 1_545
S6 U4 2.940085 1_554
S6 U4 3.170779 1_555
S7 U1 2.650672 1_556
S7 U0 2.764119 1_556
S7 U2 2.959427 1_455
S8 U4 2.822405 1_565
S8 U2 2.909084 1_555
S8 U3 2.940209 1_555
S8 U3 3.170863 1_556
S9 U3 2.755662 1_555
S9 U1 2.755779 1_555
S9 U0 2.755792 1_555
S10 U2 2.650667 1_555
S10 U4 2.764111 1_555
S10 U1 2.959391 1_655
S11 U0 2.822419 1_545
S11 U1 2.909106 1_555
S11 U5 2.940274 1_554
S11 U5 3.170816 1_555
S12 U5 2.822418 1_555
S12 U4 2.909182 1_455
S12 U1 2.940053 1_555
S12 U1 3.171007 1_556
S13 U3 2.822397 1_555
S13 U0 2.909094 1_655
S13 U2 2.940097 1_554
S13 U2 3.171065 1_555
