# generated using pymatgen
data_Ba2Fe6O11
_symmetry_space_group_name_H-M   'P 1'
_cell_length_a   5.26835200
_cell_length_b   9.09608600
_cell_length_c   23.53977800
_cell_angle_alpha   90.00000000
_cell_angle_beta   90.00000000
_cell_angle_gamma   90.00000000
_symmetry_Int_Tables_number   1
_chemical_formula_structural   Ba2Fe6O11
_chemical_formula_sum   'Ba8 Fe24 O44'
_cell_volume   1128.05871422
_cell_formula_units_Z   4
loop_
 _symmetry_equiv_pos_site_id
 _symmetry_equiv_pos_as_xyz
  1  'x, y, z'
loop_
 _atom_site_type_symbol
 _atom_site_label
 _atom_site_symmetry_multiplicity
 _atom_site_fract_x
 _atom_site_fract_y
 _atom_site_fract_z
 _atom_site_occupancy
  Ba  Ba0  1  0.39333800  0.00000000  0.35971900  1
  Ba  Ba1  1  0.52323000  0.50000000  0.65355000  1
  Ba  Ba2  1  0.97677000  0.00000000  0.15355000  1
  Ba  Ba3  1  0.60666200  0.00000000  0.64028100  1
  Ba  Ba4  1  0.47677000  0.50000000  0.34645000  1
  Ba  Ba5  1  0.10666200  0.50000000  0.85971900  1
  Ba  Ba6  1  0.02323000  0.00000000  0.84645000  1
  Ba  Ba7  1  0.89333800  0.50000000  0.14028100  1
  Fe  Fe0  1  0.50000000  0.83358000  0.50000000  1
  Fe  Fe1  1  0.49453900  0.17880900  0.07296200  1
  Fe  Fe2  1  0.00000000  0.00000000  0.50000000  1
  Fe  Fe3  1  0.99453900  0.67880900  0.42703800  1
  Fe  Fe4  1  0.39087700  0.29405500  0.21417500  1
  Fe  Fe5  1  0.50000000  0.16642000  0.50000000  1
  Fe  Fe6  1  0.00000000  0.33358000  0.00000000  1
  Fe  Fe7  1  0.00546100  0.32119100  0.57296200  1
  Fe  Fe8  1  0.99453900  0.32119100  0.42703800  1
  Fe  Fe9  1  0.89087700  0.20594500  0.28582500  1
  Fe  Fe10  1  0.89087700  0.79405500  0.28582500  1
  Fe  Fe11  1  0.39087700  0.70594500  0.21417500  1
  Fe  Fe12  1  0.60912300  0.29405500  0.78582500  1
  Fe  Fe13  1  0.00000000  0.66642000  0.00000000  1
  Fe  Fe14  1  0.60912300  0.70594500  0.78582500  1
  Fe  Fe15  1  0.10912300  0.20594500  0.71417500  1
  Fe  Fe16  1  0.50000000  0.50000000  0.50000000  1
  Fe  Fe17  1  0.49453900  0.82119100  0.07296200  1
  Fe  Fe18  1  0.50546100  0.82119100  0.92703800  1
  Fe  Fe19  1  0.50546100  0.17880900  0.92703800  1
  Fe  Fe20  1  0.10912300  0.79405500  0.71417500  1
  Fe  Fe21  1  0.00000000  0.00000000  0.00000000  1
  Fe  Fe22  1  0.00546100  0.67880900  0.57296200  1
  Fe  Fe23  1  0.50000000  0.50000000  0.00000000  1
  O  O0  1  0.68057200  0.34526300  0.04930100  1
  O  O1  1  0.18057200  0.15473700  0.45069900  1
  O  O2  1  0.96878100  0.73648900  0.78574600  1
  O  O3  1  0.53121900  0.23648900  0.28574600  1
  O  O4  1  0.00865000  0.67647100  0.34658600  1
  O  O5  1  0.99135000  0.67647100  0.65341400  1
  O  O6  1  0.31942800  0.34526300  0.95069900  1
  O  O7  1  0.53121900  0.76351100  0.28574600  1
  O  O8  1  0.18294900  0.50000000  0.44481200  1
  O  O9  1  0.94775200  0.00000000  0.29651800  1
  O  O10  1  0.55224800  0.50000000  0.79651800  1
  O  O11  1  0.67182000  0.00000000  0.45529200  1
  O  O12  1  0.68057200  0.65473700  0.04930100  1
  O  O13  1  0.82818000  0.50000000  0.95529200  1
  O  O14  1  0.05224800  0.00000000  0.70348200  1
  O  O15  1  0.14898200  0.16310600  0.04931400  1
  O  O16  1  0.17182000  0.50000000  0.04470800  1
  O  O17  1  0.85101800  0.16310600  0.95068600  1
  O  O18  1  0.03121900  0.73648900  0.21425400  1
  O  O19  1  0.99135000  0.32352900  0.65341400  1
  O  O20  1  0.46878100  0.23648900  0.71425400  1
  O  O21  1  0.68294900  0.00000000  0.05518800  1
  O  O22  1  0.46878100  0.76351100  0.71425400  1
  O  O23  1  0.35101800  0.66310600  0.54931400  1
  O  O24  1  0.49135000  0.82352900  0.84658600  1
  O  O25  1  0.44775200  0.50000000  0.20348200  1
  O  O26  1  0.03121900  0.26351100  0.21425400  1
  O  O27  1  0.50865000  0.82352900  0.15341400  1
  O  O28  1  0.31705100  0.00000000  0.94481200  1
  O  O29  1  0.14898200  0.83689400  0.04931400  1
  O  O30  1  0.50865000  0.17647100  0.15341400  1
  O  O31  1  0.96878100  0.26351100  0.78574600  1
  O  O32  1  0.35101800  0.33689400  0.54931400  1
  O  O33  1  0.31942800  0.65473700  0.95069900  1
  O  O34  1  0.81942800  0.84526300  0.54930100  1
  O  O35  1  0.81705100  0.50000000  0.55518800  1
  O  O36  1  0.18057200  0.84526300  0.45069900  1
  O  O37  1  0.00865000  0.32352900  0.34658600  1
  O  O38  1  0.85101800  0.83689400  0.95068600  1
  O  O39  1  0.32818000  0.00000000  0.54470800  1
  O  O40  1  0.64898200  0.66310600  0.45068600  1
  O  O41  1  0.64898200  0.33689400  0.45068600  1
  O  O42  1  0.81942800  0.15473700  0.54930100  1
  O  O43  1  0.49135000  0.17647100  0.84658600  1
loop_
_geom_bond_atom_site_label_1
_geom_bond_atom_site_label_2
_geom_bond_distance
_geom_bond_site_symmetry_2
Ba0 O11 2.685881 1_555
Ba0 O9 2.779233 1_455
Ba0 O1 2.797176 1_555
Ba0 O36 2.797176 1_545
Ba0 O3 2.861320 1_555
Ba0 O7 2.861320 1_545
Ba0 O9 3.277913 1_555
Ba1 O35 2.785197 1_555
Ba1 O22 2.805250 1_555
Ba1 O20 2.805250 1_555
Ba1 O5 2.942602 1_555
Ba1 O19 2.942602 1_555
Ba1 O23 3.007474 1_555
Ba1 O32 3.007474 1_555
Ba1 O5 3.229334 1_455
Ba1 O19 3.229334 1_455
Ba1 O10 3.368905 1_555
Ba2 O21 2.785197 1_555
Ba2 O26 2.805250 1_655
Ba2 O18 2.805250 1_645
Ba2 O27 2.942602 1_545
Ba2 O30 2.942602 1_555
Ba2 O15 3.007474 1_655
Ba2 O29 3.007474 1_645
Ba2 O30 3.229334 1_655
Ba2 O27 3.229334 1_645
Ba2 O9 3.368905 1_555
Ba3 O39 2.685881 1_555
Ba3 O14 2.779233 1_655
Ba3 O42 2.797176 1_555
Ba3 O34 2.797176 1_545
Ba3 O20 2.861320 1_555
Ba3 O22 2.861320 1_545
Ba3 O14 3.277913 1_555
Ba4 O8 2.785197 1_555
Ba4 O7 2.805250 1_555
Ba4 O3 2.805250 1_555
Ba4 O4 2.942602 1_555
Ba4 O37 2.942602 1_555
Ba4 O40 3.007474 1_555
Ba4 O41 3.007474 1_555
Ba4 O4 3.229334 1_655
Ba4 O37 3.229334 1_655
Ba4 O25 3.368905 1_555
Ba5 O13 2.685881 1_455
Ba5 O10 2.779233 1_555
Ba5 O33 2.797176 1_555
Ba5 O6 2.797176 1_555
Ba5 O2 2.861320 1_455
Ba5 O31 2.861320 1_455
Ba5 O10 3.277913 1_455
Ba6 O28 2.785197 1_555
Ba6 O31 2.805250 1_455
Ba6 O2 2.805250 1_445
Ba6 O43 2.942602 1_555
Ba6 O24 2.942602 1_545
Ba6 O17 3.007474 1_455
Ba6 O38 3.007474 1_445
Ba6 O43 3.229334 1_455
Ba6 O24 3.229334 1_445
Ba6 O14 3.368905 1_555
Ba7 O16 2.685881 1_655
Ba7 O25 2.779233 1_555
Ba7 O0 2.797176 1_555
Ba7 O12 2.797176 1_555
Ba7 O18 2.861320 1_655
Ba7 O26 2.861320 1_655
Ba7 O25 3.277913 1_655
Fe0 O34 2.046985 1_555
Fe0 O36 2.046985 1_555
Fe0 O39 2.053895 1_565
Fe0 O11 2.053895 1_565
Fe0 O23 2.090001 1_555
Fe0 O40 2.090001 1_555
Fe1 O0 1.887652 1_555
Fe1 O30 1.895400 1_555
Fe1 O15 1.909073 1_555
Fe1 O21 1.950823 1_555
Fe2 O39 2.024082 1_555
Fe2 O11 2.024082 1_455
Fe2 O42 2.057402 1_455
Fe2 O34 2.057402 1_445
Fe2 O1 2.057402 1_555
Fe2 O36 2.057402 1_545
Fe3 O36 1.887652 1_655
Fe3 O4 1.895400 1_655
Fe3 O40 1.909073 1_555
Fe3 O8 1.950823 1_655
Fe4 O30 1.890685 1_555
Fe4 O3 1.912926 1_555
Fe4 O25 1.913732 1_555
Fe4 O26 1.915066 1_555
Fe5 O42 2.046985 1_555
Fe5 O1 2.046985 1_555
Fe5 O39 2.053895 1_555
Fe5 O11 2.053895 1_555
Fe5 O32 2.090001 1_555
Fe5 O41 2.090001 1_555
Fe6 O0 2.046985 1_455
Fe6 O6 2.046985 1_554
Fe6 O16 2.053895 1_555
Fe6 O13 2.053895 1_454
Fe6 O15 2.090001 1_555
Fe6 O17 2.090001 1_454
Fe7 O42 1.887652 1_455
Fe7 O19 1.895400 1_455
Fe7 O32 1.909073 1_555
Fe7 O35 1.950823 1_455
Fe8 O1 1.887652 1_655
Fe8 O37 1.895400 1_655
Fe8 O41 1.909073 1_555
Fe8 O8 1.950823 1_655
Fe9 O37 1.890685 1_655
Fe9 O26 1.912926 1_655
Fe9 O9 1.913732 1_555
Fe9 O3 1.915066 1_555
Fe10 O4 1.890685 1_655
Fe10 O18 1.912926 1_655
Fe10 O9 1.913732 1_565
Fe10 O7 1.915066 1_555
Fe11 O27 1.890685 1_555
Fe11 O7 1.912926 1_555
Fe11 O25 1.913732 1_555
Fe11 O18 1.915066 1_555
Fe12 O43 1.890685 1_555
Fe12 O20 1.912926 1_555
Fe12 O10 1.913732 1_555
Fe12 O31 1.915066 1_555
Fe13 O12 2.046985 1_455
Fe13 O33 2.046985 1_554
Fe13 O16 2.053895 1_555
Fe13 O13 2.053895 1_454
Fe13 O29 2.090001 1_555
Fe13 O38 2.090001 1_454
Fe14 O24 1.890685 1_555
Fe14 O22 1.912926 1_555
Fe14 O10 1.913732 1_555
Fe14 O2 1.915066 1_555
Fe15 O19 1.890685 1_455
Fe15 O31 1.912926 1_455
Fe15 O14 1.913732 1_555
Fe15 O20 1.915066 1_555
Fe16 O23 2.040772 1_555
Fe16 O40 2.040772 1_555
Fe16 O32 2.040772 1_555
Fe16 O41 2.040772 1_555
Fe16 O8 2.116062 1_555
Fe16 O35 2.116062 1_555
Fe17 O12 1.887652 1_555
Fe17 O27 1.895400 1_555
Fe17 O29 1.909073 1_555
Fe17 O21 1.950823 1_565
Fe18 O33 1.887652 1_555
Fe18 O24 1.895400 1_555
Fe18 O38 1.909073 1_555
Fe18 O28 1.950823 1_565
Fe19 O6 1.887652 1_555
Fe19 O43 1.895400 1_555
Fe19 O17 1.909073 1_555
Fe19 O28 1.950823 1_555
Fe20 O5 1.890685 1_455
Fe20 O2 1.912926 1_455
Fe20 O14 1.913732 1_565
Fe20 O22 1.915066 1_555
Fe21 O15 2.040772 1_555
Fe21 O29 2.040772 1_545
Fe21 O17 2.040772 1_454
Fe21 O38 2.040772 1_444
Fe21 O28 2.116062 1_554
Fe21 O21 2.116062 1_455
Fe22 O34 1.887652 1_455
Fe22 O5 1.895400 1_455
Fe22 O23 1.909073 1_555
Fe22 O35 1.950823 1_455
Fe23 O16 2.024082 1_555
Fe23 O13 2.024082 1_554
Fe23 O12 2.057402 1_555
Fe23 O0 2.057402 1_555
Fe23 O6 2.057402 1_554
Fe23 O33 2.057402 1_554
