# generated using pymatgen
data_Ga2CuO4
_symmetry_space_group_name_H-M   'P 1'
_cell_length_a   5.92784272
_cell_length_b   5.92784272
_cell_length_c   28.86391018
_cell_angle_alpha   89.50353169
_cell_angle_beta   89.50353169
_cell_angle_gamma   60.57187174
_symmetry_Int_Tables_number   1
_chemical_formula_structural   Ga2CuO4
_chemical_formula_sum   'Ga24 Cu12 O48'
_cell_volume   883.34669522
_cell_formula_units_Z   12
loop_
 _symmetry_equiv_pos_site_id
 _symmetry_equiv_pos_as_xyz
  1  'x, y, z'
loop_
 _atom_site_type_symbol
 _atom_site_label
 _atom_site_symmetry_multiplicity
 _atom_site_fract_x
 _atom_site_fract_y
 _atom_site_fract_z
 _atom_site_occupancy
  Ga  Ga0  1  0.99555000  0.99555000  0.00080100  1
  Ga  Ga1  1  0.66271100  0.66271100  0.16670300  1
  Ga  Ga2  1  0.17061700  0.66179400  0.10386800  1
  Ga  Ga3  1  0.66179400  0.17061700  0.10386800  1
  Ga  Ga4  1  0.33452300  0.33452300  0.02197200  1
  Ga  Ga5  1  0.32935600  0.32935600  0.33142200  1
  Ga  Ga6  1  0.83500500  0.33203200  0.27097000  1
  Ga  Ga7  1  0.33203200  0.83500500  0.27097000  1
  Ga  Ga8  1  0.00095600  0.00095600  0.18889000  1
  Ga  Ga9  1  0.00404100  0.00404100  0.37648200  1
  Ga  Ga10  1  0.99564100  0.99564100  0.49879700  1
  Ga  Ga11  1  0.49992300  0.00004800  0.43727400  1
  Ga  Ga12  1  0.00004800  0.49992300  0.43727400  1
  Ga  Ga13  1  0.67113600  0.67113600  0.54273500  1
  Ga  Ga14  1  0.66214100  0.66214100  0.66554200  1
  Ga  Ga15  1  0.16669400  0.66666300  0.60417700  1
  Ga  Ga16  1  0.66666300  0.16669400  0.60417700  1
  Ga  Ga17  1  0.33773200  0.33773200  0.70946000  1
  Ga  Ga18  1  0.32899200  0.32899200  0.83236400  1
  Ga  Ga19  1  0.83348200  0.33331900  0.77083300  1
  Ga  Ga20  1  0.33331900  0.83348200  0.77083300  1
  Ga  Ga21  1  0.00456000  0.00456000  0.87522600  1
  Ga  Ga22  1  0.50236900  0.99598700  0.93676700  1
  Ga  Ga23  1  0.99598700  0.50236900  0.93676700  1
  Cu  Cu0  1  0.67015600  0.67015600  0.04152300  1
  Cu  Cu1  1  0.33653300  0.33653300  0.20866000  1
  Cu  Cu2  1  0.17164700  0.17164700  0.10368600  1
  Cu  Cu3  1  0.83617300  0.83617300  0.27069800  1
  Cu  Cu4  1  0.66664800  0.66664800  0.35394000  1
  Cu  Cu5  1  0.50003100  0.50003100  0.43737200  1
  Cu  Cu6  1  0.33339500  0.33339500  0.52074400  1
  Cu  Cu7  1  0.16672600  0.16672600  0.60416500  1
  Cu  Cu8  1  0.00007300  0.00007300  0.68752000  1
  Cu  Cu9  1  0.83328200  0.83328200  0.77091600  1
  Cu  Cu10  1  0.66671400  0.66671400  0.85412300  1
  Cu  Cu11  1  0.50191900  0.50191900  0.93680700  1
  O  O0  1  0.48562400  0.48562400  0.06414800  1
  O  O1  1  0.02966900  0.49136900  0.06365900  1
  O  O2  1  0.33740800  0.33740800  0.14084600  1
  O  O3  1  0.49136900  0.02966900  0.06365900  1
  O  O4  1  0.15006200  0.15006200  0.23197600  1
  O  O5  1  0.83608200  0.31235400  0.14539700  1
  O  O6  1  0.99483600  0.99483600  0.06638600  1
  O  O7  1  0.31235400  0.83608200  0.14539700  1
  O  O8  1  0.69878300  0.15539500  0.23090700  1
  O  O9  1  0.00532900  0.00532900  0.31156000  1
  O  O10  1  0.15539500  0.69878300  0.23090700  1
  O  O11  1  0.84217700  0.84217700  0.14461700  1
  O  O12  1  0.82825600  0.82825600  0.39913700  1
  O  O13  1  0.50037000  0.98497300  0.31030300  1
  O  O14  1  0.66063200  0.66063200  0.23212600  1
  O  O15  1  0.98497300  0.50037000  0.31030300  1
  O  O16  1  0.34803900  0.83451800  0.39817000  1
  O  O17  1  0.67282300  0.67282300  0.47667200  1
  O  O18  1  0.83451800  0.34803900  0.39817000  1
  O  O19  1  0.50479100  0.50479100  0.30931600  1
  O  O20  1  0.49522900  0.49522900  0.56540800  1
  O  O21  1  0.16560800  0.65160600  0.47718700  1
  O  O22  1  0.32700100  0.32700100  0.39821000  1
  O  O23  1  0.65160600  0.16560800  0.47718700  1
  O  O24  1  0.33969800  0.33969800  0.64322600  1
  O  O25  1  0.01483200  0.50100400  0.56455000  1
  O  O26  1  0.17163500  0.17163500  0.47635700  1
  O  O27  1  0.50100400  0.01483200  0.56455000  1
  O  O28  1  0.16211500  0.16211500  0.73203600  1
  O  O29  1  0.83207200  0.31852600  0.64381500  1
  O  O30  1  0.31852600  0.83207200  0.64381500  1
  O  O31  1  0.99370000  0.99370000  0.56508100  1
  O  O32  1  0.00663400  0.00663400  0.80936500  1
  O  O33  1  0.68167600  0.16779300  0.73111400  1
  O  O34  1  0.16779300  0.68167600  0.73111400  1
  O  O35  1  0.83790600  0.83790600  0.64290500  1
  O  O36  1  0.83175600  0.83175600  0.89812500  1
  O  O37  1  0.49793300  0.98627000  0.81047300  1
  O  O38  1  0.66013400  0.66013400  0.73179200  1
  O  O39  1  0.98627000  0.49793300  0.81047300  1
  O  O40  1  0.67108500  0.67108500  0.97156400  1
  O  O41  1  0.34430100  0.83809900  0.89717500  1
  O  O42  1  0.50419900  0.50419900  0.80951400  1
  O  O43  1  0.83809900  0.34430100  0.89717500  1
  O  O44  1  0.16647700  0.64684800  0.97914200  1
  O  O45  1  0.64684800  0.16647700  0.97914200  1
  O  O46  1  0.32825100  0.32825100  0.89922900  1
  O  O47  1  0.17555300  0.17555300  0.97829000  1
loop_
_geom_bond_atom_site_label_1
_geom_bond_atom_site_label_2
_geom_bond_distance
_geom_bond_site_symmetry_2
Ga0 O6 1.892980 1_555
Ga0 O45 1.908794 1_564
Ga0 O44 1.908794 1_654
Ga0 O47 1.947837 1_664
Ga1 O14 1.888270 1_555
Ga1 O5 1.913507 1_555
Ga1 O7 1.913507 1_555
Ga1 O11 1.938703 1_555
Ga2 O2 1.982121 1_555
Ga2 O1 1.982988 1_555
Ga2 O0 1.989785 1_555
Ga2 O7 2.025364 1_555
Ga2 O6 2.028502 1_455
Ga2 O11 2.062451 1_455
Ga3 O2 1.982121 1_555
Ga3 O3 1.982988 1_555
Ga3 O0 1.989785 1_555
Ga3 O5 2.025364 1_555
Ga3 O6 2.028502 1_545
Ga3 O11 2.062451 1_545
Ga4 O3 1.977021 1_555
Ga4 O1 1.977021 1_555
Ga4 O0 1.978057 1_555
Ga4 O45 2.029213 1_554
Ga4 O44 2.029213 1_554
Ga4 O47 2.068708 1_554
Ga5 O15 1.882552 1_455
Ga5 O13 1.882552 1_545
Ga5 O19 1.899967 1_555
Ga5 O22 1.927672 1_555
Ga6 O4 1.980731 1_655
Ga6 O8 1.988380 1_555
Ga6 O15 1.995953 1_555
Ga6 O19 2.029206 1_555
Ga6 O14 2.030635 1_555
Ga6 O9 2.049962 1_655
Ga7 O4 1.980731 1_565
Ga7 O10 1.988380 1_555
Ga7 O13 1.995953 1_555
Ga7 O19 2.029206 1_555
Ga7 O14 2.030635 1_555
Ga7 O9 2.049962 1_565
Ga8 O10 1.971708 1_545
Ga8 O8 1.971708 1_455
Ga8 O4 1.978607 1_555
Ga8 O5 2.036388 1_455
Ga8 O7 2.036388 1_545
Ga8 O11 2.077740 1_445
Ga9 O9 1.873817 1_555
Ga9 O18 1.886130 1_455
Ga9 O16 1.886130 1_545
Ga9 O12 1.908563 1_445
Ga10 O21 1.885552 1_655
Ga10 O23 1.885552 1_565
Ga10 O26 1.908517 1_665
Ga10 O31 1.913119 1_555
Ga11 O16 1.988047 1_545
Ga11 O23 2.000886 1_555
Ga11 O12 2.017798 1_545
Ga11 O22 2.026902 1_555
Ga11 O26 2.032484 1_555
Ga11 O17 2.033369 1_545
Ga12 O18 1.988047 1_455
Ga12 O21 2.000886 1_555
Ga12 O12 2.017798 1_455
Ga12 O22 2.026902 1_555
Ga12 O26 2.032484 1_555
Ga12 O17 2.033369 1_455
Ga13 O25 1.885897 1_655
Ga13 O27 1.885897 1_565
Ga13 O17 1.906741 1_555
Ga13 O20 1.909909 1_555
Ga14 O30 1.884643 1_555
Ga14 O29 1.884643 1_555
Ga14 O35 1.908198 1_555
Ga14 O38 1.912138 1_555
Ga15 O30 1.996235 1_555
Ga15 O25 1.997238 1_555
Ga15 O24 2.026733 1_555
Ga15 O31 2.027780 1_455
Ga15 O20 2.028510 1_555
Ga15 O35 2.028888 1_455
Ga16 O29 1.996235 1_555
Ga16 O27 1.997238 1_555
Ga16 O24 2.026733 1_555
Ga16 O31 2.027780 1_545
Ga16 O20 2.028510 1_555
Ga16 O35 2.028888 1_545
Ga17 O33 1.885536 1_555
Ga17 O34 1.885536 1_555
Ga17 O28 1.906188 1_555
Ga17 O24 1.911676 1_555
Ga18 O39 1.881904 1_455
Ga18 O37 1.881904 1_545
Ga18 O42 1.904893 1_555
Ga18 O46 1.929924 1_555
Ga19 O39 1.996844 1_555
Ga19 O33 1.997985 1_555
Ga19 O32 2.017396 1_655
Ga19 O38 2.026065 1_555
Ga19 O28 2.029319 1_655
Ga19 O42 2.030163 1_555
Ga20 O37 1.996844 1_555
Ga20 O34 1.997985 1_555
Ga20 O32 2.017396 1_565
Ga20 O38 2.026065 1_555
Ga20 O28 2.029319 1_565
Ga20 O42 2.030163 1_555
Ga21 O43 1.868005 1_455
Ga21 O41 1.868005 1_545
Ga21 O36 1.882316 1_445
Ga21 O32 1.900912 1_555
Ga22 O40 1.951781 1_555
Ga22 O41 1.989662 1_555
Ga22 O46 2.025675 1_565
Ga22 O36 2.029142 1_555
Ga22 O45 2.034949 1_565
Ga22 O47 2.068363 1_565
Ga23 O40 1.951781 1_555
Ga23 O43 1.989662 1_555
Ga23 O46 2.025675 1_655
Ga23 O36 2.029142 1_555
Ga23 O44 2.034949 1_655
Ga23 O47 2.068363 1_655
Cu0 O3 1.966111 1_565
Cu0 O1 1.966111 1_655
Cu0 O0 1.992652 1_555
Cu0 O40 2.019217 1_554
Cu1 O2 1.957308 1_555
Cu1 O8 1.980563 1_555
Cu1 O10 1.980563 1_555
Cu1 O4 2.017792 1_555
Cu2 O3 2.011619 1_555
Cu2 O1 2.011619 1_555
Cu2 O2 2.016621 1_555
Cu2 O5 2.108915 1_455
Cu2 O7 2.108915 1_545
Cu2 O6 2.115366 1_445
Cu3 O10 2.006818 1_655
Cu3 O8 2.006818 1_565
Cu3 O15 2.073628 1_555
Cu3 O13 2.073628 1_555
Cu3 O9 2.105002 1_665
Cu3 O14 2.123516 1_555
Cu4 O15 2.066713 1_555
Cu4 O13 2.066713 1_555
Cu4 O18 2.078586 1_555
Cu4 O16 2.078586 1_555
Cu4 O19 2.108929 1_555
Cu4 O12 2.117192 1_555
Cu5 O18 2.060791 1_555
Cu5 O16 2.060791 1_555
Cu5 O21 2.070275 1_555
Cu5 O23 2.070275 1_555
Cu5 O22 2.110883 1_555
Cu5 O17 2.110997 1_555
Cu6 O23 2.065181 1_555
Cu6 O21 2.065181 1_555
Cu6 O25 2.070897 1_555
Cu6 O27 2.070897 1_555
Cu6 O26 2.103917 1_555
Cu6 O20 2.109457 1_555
Cu7 O27 2.066407 1_555
Cu7 O25 2.066407 1_555
Cu7 O30 2.068628 1_545
Cu7 O29 2.068628 1_455
Cu7 O24 2.108797 1_555
Cu7 O31 2.109625 1_445
Cu8 O33 2.066553 1_455
Cu8 O34 2.066553 1_545
Cu8 O30 2.068779 1_545
Cu8 O29 2.068779 1_455
Cu8 O28 2.108504 1_555
Cu8 O35 2.111283 1_445
Cu9 O39 2.069996 1_555
Cu9 O37 2.069996 1_555
Cu9 O33 2.070448 1_565
Cu9 O34 2.070448 1_655
Cu9 O32 2.102559 1_665
Cu9 O38 2.111307 1_555
Cu10 O39 2.072385 1_555
Cu10 O37 2.072385 1_555
Cu10 O41 2.074067 1_555
Cu10 O43 2.074067 1_555
Cu10 O42 2.114000 1_555
Cu10 O36 2.123915 1_555
Cu11 O40 2.010137 1_555
Cu11 O43 2.074185 1_555
Cu11 O41 2.074185 1_555
Cu11 O46 2.091950 1_555
Cu11 O44 2.117208 1_555
Cu11 O45 2.117208 1_555
