# generated using pymatgen
data_Nd(SmSb)3
_symmetry_space_group_name_H-M   'P 1'
_cell_length_a   9.41267174
_cell_length_b   9.41267174
_cell_length_c   9.41267174
_cell_angle_alpha   90.00000000
_cell_angle_beta   90.00000000
_cell_angle_gamma   90.00000000
_symmetry_Int_Tables_number   1
_chemical_formula_structural   Nd(SmSb)3
_chemical_formula_sum   'Nd4 Sm12 Sb12'
_cell_volume   833.94755503
_cell_formula_units_Z   4
loop_
 _symmetry_equiv_pos_site_id
 _symmetry_equiv_pos_as_xyz
  1  'x, y, z'
loop_
 _atom_site_type_symbol
 _atom_site_label
 _atom_site_symmetry_multiplicity
 _atom_site_fract_x
 _atom_site_fract_y
 _atom_site_fract_z
 _atom_site_occupancy
  Nd  Nd0  1  0.07079866  0.57079866  0.92920134  1
  Nd  Nd1  1  0.92920134  0.07079866  0.57079866  1
  Nd  Nd2  1  0.42920134  0.42920134  0.42920134  1
  Nd  Nd3  1  0.57079866  0.92920134  0.07079866  1
  Sm  Sm0  1  0.82016577  0.32016577  0.17983423  1
  Sm  Sm1  1  0.92843637  0.92843637  0.92843637  1
  Sm  Sm2  1  0.82049567  0.67950433  0.32049567  1
  Sm  Sm3  1  0.17983423  0.82016577  0.32016577  1
  Sm  Sm4  1  0.17950433  0.17950433  0.17950433  1
  Sm  Sm5  1  0.32049567  0.82049567  0.67950433  1
  Sm  Sm6  1  0.07156363  0.42843637  0.57156363  1
  Sm  Sm7  1  0.32016577  0.17983423  0.82016577  1
  Sm  Sm8  1  0.67950433  0.32049567  0.82049567  1
  Sm  Sm9  1  0.67983423  0.67983423  0.67983423  1
  Sm  Sm10  1  0.57156363  0.07156363  0.42843637  1
  Sm  Sm11  1  0.42843637  0.57156363  0.07156363  1
  Sb  Sb0  1  0.74805909  0.62352996  0.00037233  1
  Sb  Sb1  1  0.87647004  0.99962767  0.24805909  1
  Sb  Sb2  1  0.00037233  0.74805909  0.62352996  1
  Sb  Sb3  1  0.12352996  0.49962767  0.25194091  1
  Sb  Sb4  1  0.25194091  0.12352996  0.49962767  1
  Sb  Sb5  1  0.24805909  0.87647004  0.99962767  1
  Sb  Sb6  1  0.99962767  0.24805909  0.87647004  1
  Sb  Sb7  1  0.37647004  0.50037233  0.75194091  1
  Sb  Sb8  1  0.49962767  0.25194091  0.12352996  1
  Sb  Sb9  1  0.62352996  0.00037233  0.74805909  1
  Sb  Sb10  1  0.75194091  0.37647004  0.50037233  1
  Sb  Sb11  1  0.50037233  0.75194091  0.37647004  1
loop_
_geom_bond_atom_site_label_1
_geom_bond_atom_site_label_2
_geom_bond_distance
_geom_bond_site_symmetry_2
Nd0 Sb6 3.150177 1_455
Nd0 Sb0 3.150177 1_456
Nd0 Sb3 3.150177 1_556
Nd0 Sb2 3.391386 1_555
Nd0 Sb7 3.391386 1_555
Nd0 Sb5 3.391386 1_555
Nd1 Sb1 3.150177 1_545
Nd1 Sb2 3.150177 1_645
Nd1 Sb4 3.150177 1_655
Nd1 Sb9 3.391386 1_555
Nd1 Sb10 3.391386 1_555
Nd1 Sb6 3.391386 1_555
Nd2 Sb11 3.150177 1_555
Nd2 Sb7 3.150177 1_555
Nd2 Sb10 3.150177 1_555
Nd2 Sb8 3.391386 1_555
Nd2 Sb3 3.391386 1_555
Nd2 Sb4 3.391386 1_555
Nd3 Sb9 3.150177 1_564
Nd3 Sb5 3.150177 1_554
Nd3 Sb8 3.150177 1_565
Nd3 Sb0 3.391386 1_555
Nd3 Sb11 3.391386 1_555
Nd3 Sb1 3.391386 1_555
Sb0 Sm11 3.120799 1_555
Sb0 Sm9 3.129901 1_554
Sb0 Sm2 3.133998 1_555
Sb0 Sm8 3.379204 1_554
Sb0 Sm0 3.386414 1_555
Sb0 Sm1 3.402634 1_554
Sb1 Sm1 3.120799 1_554
Sb1 Sm0 3.129901 1_565
Sb1 Sm2 3.133998 1_555
Sb1 Sm4 3.379204 1_665
Sb1 Sm3 3.386414 1_655
Sb1 Sm10 3.402634 1_565
Sb2 Sm6 3.120799 1_555
Sb2 Sm9 3.129901 1_455
Sb2 Sm5 3.133998 1_555
Sb2 Sm2 3.379204 1_455
Sb2 Sm3 3.386414 1_555
Sb2 Sm1 3.402634 1_455
Sb3 Sm6 3.120799 1_555
Sb3 Sm3 3.129901 1_555
Sb3 Sm4 3.133998 1_555
Sb3 Sm2 3.379204 1_455
Sb3 Sm0 3.386414 1_455
Sb3 Sm11 3.402634 1_555
Sb4 Sm10 3.120799 1_555
Sb4 Sm7 3.129901 1_555
Sb4 Sm4 3.133998 1_555
Sb4 Sm5 3.379204 1_545
Sb4 Sm3 3.386414 1_545
Sb4 Sm6 3.402634 1_555
Sb5 Sm1 3.120799 1_455
Sb5 Sm3 3.129901 1_556
Sb5 Sm5 3.133998 1_555
Sb5 Sm4 3.379204 1_566
Sb5 Sm7 3.386414 1_565
Sb5 Sm11 3.402634 1_556
Sb6 Sm1 3.120799 1_545
Sb6 Sm7 3.129901 1_655
Sb6 Sm8 3.133998 1_555
Sb6 Sm4 3.379204 1_656
Sb6 Sm0 3.386414 1_556
Sb6 Sm6 3.402634 1_655
Sb7 Sm11 3.120799 1_556
Sb7 Sm7 3.129901 1_555
Sb7 Sm5 3.133998 1_555
Sb7 Sm8 3.379204 1_555
Sb7 Sm9 3.386414 1_555
Sb7 Sm6 3.402634 1_555
Sb8 Sm11 3.120799 1_555
Sb8 Sm0 3.129901 1_555
Sb8 Sm4 3.133998 1_555
Sb8 Sm8 3.379204 1_554
Sb8 Sm7 3.386414 1_554
Sb8 Sm10 3.402634 1_555
Sb9 Sm10 3.120799 1_555
Sb9 Sm9 3.129901 1_545
Sb9 Sm8 3.133998 1_555
Sb9 Sm5 3.379204 1_545
Sb9 Sm7 3.386414 1_555
Sb9 Sm1 3.402634 1_545
Sb10 Sm6 3.120799 1_655
Sb10 Sm0 3.129901 1_555
Sb10 Sm8 3.133998 1_555
Sb10 Sm2 3.379204 1_555
Sb10 Sm9 3.386414 1_555
Sb10 Sm10 3.402634 1_555
Sb11 Sm10 3.120799 1_565
Sb11 Sm3 3.129901 1_555
Sb11 Sm2 3.133998 1_555
Sb11 Sm5 3.379204 1_555
Sb11 Sm9 3.386414 1_555
Sb11 Sm11 3.402634 1_555
