# generated using pymatgen
data_NaLiGe4O9
_symmetry_space_group_name_H-M   'P 1'
_cell_length_a   4.68067905
_cell_length_b   9.34045158
_cell_length_c   15.93622022
_cell_angle_alpha   90.00000000
_cell_angle_beta   90.00000000
_cell_angle_gamma   90.00000000
_symmetry_Int_Tables_number   1
_chemical_formula_structural   NaLiGe4O9
_chemical_formula_sum   'Na4 Li4 Ge16 O36'
_cell_volume   696.72606641
_cell_formula_units_Z   4
loop_
 _symmetry_equiv_pos_site_id
 _symmetry_equiv_pos_as_xyz
  1  'x, y, z'
loop_
 _atom_site_type_symbol
 _atom_site_label
 _atom_site_symmetry_multiplicity
 _atom_site_fract_x
 _atom_site_fract_y
 _atom_site_fract_z
 _atom_site_occupancy
  Na  Na0  1  0.52437398  0.98062053  0.04588555  1
  Na  Na1  1  0.52437398  0.48062053  0.45411445  1
  Na  Na2  1  0.47562602  0.98062053  0.54588555  1
  Na  Na3  1  0.47562602  0.48062053  0.95411445  1
  Li  Li0  1  0.45902682  0.26604527  0.26416604  1
  Li  Li1  1  0.54097318  0.76604527  0.73583396  1
  Li  Li2  1  0.54097318  0.26604527  0.76416604  1
  Li  Li3  1  0.45902682  0.76604527  0.23583396  1
  Ge  Ge0  1  0.00786238  0.29053129  0.59523421  1
  Ge  Ge1  1  0.99213762  0.79053129  0.40476579  1
  Ge  Ge2  1  0.99213762  0.29053129  0.09523421  1
  Ge  Ge3  1  0.00786238  0.79053129  0.90476579  1
  Ge  Ge4  1  0.50206980  0.49949354  0.65486212  1
  Ge  Ge5  1  0.49793020  0.99949354  0.34513788  1
  Ge  Ge6  1  0.49793020  0.49949354  0.15486212  1
  Ge  Ge7  1  0.50206980  0.99949354  0.84513788  1
  Ge  Ge8  1  0.99091655  0.70781912  0.59799488  1
  Ge  Ge9  1  0.99091655  0.20781912  0.90200512  1
  Ge  Ge10  1  0.00908345  0.70781912  0.09799488  1
  Ge  Ge11  1  0.00908345  0.20781912  0.40200512  1
  Ge  Ge12  1  0.99952735  0.50086041  0.29361154  1
  Ge  Ge13  1  0.00047265  0.00086041  0.70638846  1
  Ge  Ge14  1  0.00047265  0.50086041  0.79361154  1
  Ge  Ge15  1  0.99952735  0.00086041  0.20638846  1
  O  O0  1  0.73558703  0.33752076  0.66413940  1
  O  O1  1  0.26441297  0.83752076  0.33586060  1
  O  O2  1  0.26441297  0.33752076  0.16413940  1
  O  O3  1  0.73558703  0.83752076  0.83586060  1
  O  O4  1  0.73595735  0.58855038  0.73737189  1
  O  O5  1  0.26404265  0.08855038  0.26262811  1
  O  O6  1  0.85386931  0.62202998  0.36944070  1
  O  O7  1  0.73595735  0.08855038  0.76262811  1
  O  O8  1  0.72822843  0.58437710  0.57065397  1
  O  O9  1  0.27177157  0.08437710  0.42934603  1
  O  O10  1  0.27177157  0.58437710  0.07065397  1
  O  O11  1  0.26404265  0.58855038  0.23737189  1
  O  O12  1  0.15965676  0.26251077  0.99646993  1
  O  O13  1  0.84034324  0.76251077  0.00353007  1
  O  O14  1  0.84034324  0.26251077  0.49646993  1
  O  O15  1  0.15965676  0.76251077  0.50353007  1
  O  O16  1  0.17290085  0.86542460  0.14309420  1
  O  O17  1  0.82709915  0.36542460  0.85690580  1
  O  O18  1  0.82709915  0.86542460  0.64309420  1
  O  O19  1  0.17290085  0.36542460  0.35690580  1
  O  O20  1  0.27746346  0.91355643  0.92762429  1
  O  O21  1  0.72253654  0.41355643  0.07237571  1
  O  O22  1  0.72253654  0.91355643  0.42762429  1
  O  O23  1  0.27746346  0.41355643  0.57237571  1
  O  O24  1  0.27916038  0.91588179  0.75842584  1
  O  O25  1  0.72083962  0.41588179  0.24157416  1
  O  O26  1  0.72083962  0.91588179  0.25842584  1
  O  O27  1  0.27916038  0.41588179  0.74157416  1
  O  O28  1  0.27530500  0.16377704  0.83678121  1
  O  O29  1  0.72469500  0.66377704  0.16321879  1
  O  O30  1  0.72469500  0.16377704  0.33678121  1
  O  O31  1  0.27530500  0.66377704  0.66321879  1
  O  O32  1  0.85386931  0.12202998  0.13055930  1
  O  O33  1  0.14613069  0.62202998  0.86944070  1
  O  O34  1  0.14613069  0.12202998  0.63055930  1
  O  O35  1  0.72822843  0.08437710  0.92934603  1
loop_
_geom_bond_atom_site_label_1
_geom_bond_atom_site_label_2
_geom_bond_distance
_geom_bond_site_symmetry_2
Na0 O20 2.297805 1_554
Na0 O35 2.301926 1_564
Na0 O32 2.438029 1_565
Na0 O16 2.502804 1_555
Na0 O13 2.606389 1_555
Na1 O23 2.297805 1_555
Na1 O8 2.301926 1_555
Na1 O6 2.438029 1_555
Na1 O19 2.502804 1_555
Na1 O14 2.606389 1_555
Na2 O22 2.297805 1_555
Na2 O9 2.301926 1_565
Na2 O34 2.438029 1_565
Na2 O18 2.502804 1_555
Na2 O15 2.606389 1_555
Na3 O21 2.297805 1_556
Na3 O10 2.301926 1_556
Na3 O33 2.438029 1_555
Na3 O17 2.502804 1_555
Na3 O12 2.606389 1_555
Li0 O5 1.892649 1_555
Li0 O25 1.894754 1_555
Li0 O30 1.948824 1_555
Li0 O2 1.953580 1_555
Li0 O19 2.199892 1_555
Li1 O4 1.892649 1_555
Li1 O24 1.894754 1_555
Li1 O31 1.948824 1_555
Li1 O3 1.953580 1_555
Li1 O18 2.199892 1_555
Li2 O7 1.892649 1_555
Li2 O27 1.894754 1_555
Li2 O28 1.948824 1_555
Li2 O0 1.953580 1_555
Li2 O17 2.199892 1_555
Li3 O11 1.892649 1_555
Li3 O26 1.894754 1_555
Li3 O29 1.948824 1_555
Li3 O1 1.953580 1_555
Li3 O16 2.199892 1_555
Ge0 O0 1.738567 1_455
Ge0 O23 1.745161 1_555
Ge0 O14 1.777800 1_455
Ge0 O34 1.792445 1_555
Ge1 O1 1.738567 1_655
Ge1 O22 1.745161 1_555
Ge1 O15 1.777800 1_655
Ge1 O6 1.792445 1_555
Ge2 O2 1.738567 1_655
Ge2 O21 1.745161 1_555
Ge2 O12 1.777800 1_654
Ge2 O32 1.792445 1_555
Ge3 O3 1.738567 1_455
Ge3 O20 1.745161 1_555
Ge3 O13 1.777800 1_456
Ge3 O33 1.792445 1_555
Ge4 O23 1.864815 1_555
Ge4 O31 1.870553 1_555
Ge4 O0 1.872275 1_555
Ge4 O8 1.884158 1_555
Ge4 O27 1.899493 1_555
Ge4 O4 1.902465 1_555
Ge5 O22 1.864815 1_555
Ge5 O30 1.870553 1_565
Ge5 O1 1.872275 1_555
Ge5 O9 1.884158 1_565
Ge5 O26 1.899493 1_555
Ge5 O5 1.902465 1_565
Ge6 O21 1.864815 1_555
Ge6 O29 1.870553 1_555
Ge6 O2 1.872275 1_555
Ge6 O10 1.884158 1_555
Ge6 O25 1.899493 1_555
Ge6 O11 1.902465 1_555
Ge7 O20 1.864815 1_555
Ge7 O28 1.870553 1_565
Ge7 O3 1.872275 1_555
Ge7 O35 1.884158 1_565
Ge7 O24 1.899493 1_555
Ge7 O7 1.902465 1_565
Ge8 O31 1.738257 1_655
Ge8 O8 1.740999 1_555
Ge8 O15 1.775117 1_655
Ge8 O18 1.808754 1_555
Ge9 O28 1.738257 1_655
Ge9 O35 1.740999 1_555
Ge9 O12 1.775117 1_655
Ge9 O17 1.808754 1_555
Ge10 O29 1.738257 1_455
Ge10 O10 1.740999 1_555
Ge10 O13 1.775117 1_455
Ge10 O16 1.808754 1_555
Ge11 O30 1.738257 1_455
Ge11 O9 1.740999 1_555
Ge11 O14 1.775117 1_455
Ge11 O19 1.808754 1_555
Ge12 O11 1.734083 1_655
Ge12 O25 1.737616 1_555
Ge12 O6 1.790544 1_555
Ge12 O19 1.810045 1_655
Ge13 O7 1.734083 1_455
Ge13 O24 1.737616 1_545
Ge13 O34 1.790544 1_555
Ge13 O18 1.810045 1_445
Ge14 O4 1.734083 1_455
Ge14 O27 1.737616 1_555
Ge14 O33 1.790544 1_555
Ge14 O17 1.810045 1_455
Ge15 O5 1.734083 1_655
Ge15 O26 1.737616 1_545
Ge15 O32 1.790544 1_555
Ge15 O16 1.810045 1_645
