# generated using pymatgen
data_CsUTiTe5
_symmetry_space_group_name_H-M   'P 1'
_cell_length_a   6.19136400
_cell_length_b   8.56208500
_cell_length_c   10.34225400
_cell_angle_alpha   90.00000000
_cell_angle_beta   90.00000000
_cell_angle_gamma   90.00000000
_symmetry_Int_Tables_number   1
_chemical_formula_structural   CsUTiTe5
_chemical_formula_sum   'Cs2 U2 Ti2 Te10'
_cell_volume   548.25306994
_cell_formula_units_Z   2
loop_
 _symmetry_equiv_pos_site_id
 _symmetry_equiv_pos_as_xyz
  1  'x, y, z'
loop_
 _atom_site_type_symbol
 _atom_site_label
 _atom_site_symmetry_multiplicity
 _atom_site_fract_x
 _atom_site_fract_y
 _atom_site_fract_z
 _atom_site_occupancy
  Cs  Cs0  1  0.75000000  0.50000000  0.21393700  1
  Cs  Cs1  1  0.25000000  0.50000000  0.78606300  1
  U  U0  1  0.75000000  0.00000000  0.66991100  1
  U  U1  1  0.25000000  0.00000000  0.33008900  1
  Ti  Ti0  1  0.00000000  0.00000000  0.00000000  1
  Ti  Ti1  1  0.50000000  0.00000000  0.00000000  1
  Te  Te0  1  0.00000000  0.75676600  0.50000000  1
  Te  Te1  1  0.75000000  0.23955000  0.88966700  1
  Te  Te2  1  0.75000000  0.76045000  0.88966700  1
  Te  Te3  1  0.00000000  0.24323400  0.50000000  1
  Te  Te4  1  0.25000000  0.00000000  0.77384000  1
  Te  Te5  1  0.75000000  0.00000000  0.22616000  1
  Te  Te6  1  0.50000000  0.75676600  0.50000000  1
  Te  Te7  1  0.25000000  0.76045000  0.11033300  1
  Te  Te8  1  0.25000000  0.23955000  0.11033300  1
  Te  Te9  1  0.50000000  0.24323400  0.50000000  1
loop_
_geom_bond_atom_site_label_1
_geom_bond_atom_site_label_2
_geom_bond_distance
_geom_bond_site_symmetry_2
Cs0 Te7 3.962857 1_555
Cs0 Te8 3.962857 1_655
Cs0 Te7 3.962857 1_655
Cs0 Te8 3.962857 1_555
Cs0 Te9 3.997742 1_555
Cs0 Te3 3.997742 1_655
Cs0 Te6 3.997742 1_555
Cs0 Te0 3.997742 1_655
Cs0 Te1 4.027414 1_554
Cs0 Te2 4.027414 1_554
Cs0 Te5 4.282909 1_555
Cs0 Te5 4.282909 1_565
Cs1 Te1 3.962857 1_555
Cs1 Te1 3.962857 1_455
Cs1 Te2 3.962857 1_455
Cs1 Te2 3.962857 1_555
Cs1 Te9 3.997742 1_555
Cs1 Te3 3.997742 1_555
Cs1 Te0 3.997742 1_555
Cs1 Te6 3.997742 1_555
Cs1 Te8 4.027414 1_556
Cs1 Te7 4.027414 1_556
Cs1 Te4 4.282909 1_565
Cs1 Te4 4.282909 1_555
Te0 Te6 3.095682 1_555
Te0 Te6 3.095682 1_455
Te0 U0 3.133842 1_465
Te0 U1 3.133842 1_565
Te1 Ti0 2.811530 1_656
Te1 Ti1 2.811530 1_556
Te1 U0 3.061420 1_555
Te2 Ti0 2.811530 1_666
Te2 Ti1 2.811530 1_566
Te2 U0 3.061420 1_565
Te3 Te9 3.095682 1_455
Te3 Te9 3.095682 1_555
Te3 U1 3.133842 1_555
Te3 U0 3.133842 1_455
Te4 Ti1 2.804773 1_556
Te4 Ti0 2.804773 1_556
Te4 U0 3.276976 1_555
Te4 U0 3.276976 1_455
Te5 Ti0 2.804773 1_655
Te5 Ti1 2.804773 1_555
Te5 U1 3.276976 1_655
Te5 U1 3.276976 1_555
Te6 U0 3.133842 1_565
Te6 U1 3.133842 1_565
Te7 Ti1 2.811530 1_565
Te7 Ti0 2.811530 1_565
Te7 U1 3.061420 1_565
Te8 Ti1 2.811530 1_555
Te8 Ti0 2.811530 1_555
Te8 U1 3.061420 1_555
Te9 U1 3.133842 1_555
Te9 U0 3.133842 1_555
