# generated using pymatgen
data_Na3AlF6
_symmetry_space_group_name_H-M   'P 1'
_cell_length_a   5.44895458
_cell_length_b   5.44895459
_cell_length_c   5.44895541
_cell_angle_alpha   60.89668754
_cell_angle_beta   60.89668748
_cell_angle_gamma   60.89668511
_symmetry_Int_Tables_number   1
_chemical_formula_structural   Na3AlF6
_chemical_formula_sum   'Na3 Al1 F6'
_cell_volume   116.71185956
_cell_formula_units_Z   1
loop_
 _symmetry_equiv_pos_site_id
 _symmetry_equiv_pos_as_xyz
  1  'x, y, z'
loop_
 _atom_site_type_symbol
 _atom_site_label
 _atom_site_symmetry_multiplicity
 _atom_site_fract_x
 _atom_site_fract_y
 _atom_site_fract_z
 _atom_site_occupancy
  Na  Na0  1  0.00000000  -0.00000000  -0.00000000  1
  Na  Na1  1  0.26837329  0.26837329  0.26837329  1
  Na  Na2  1  0.73162671  0.73162671  0.73162671  1
  Al  Al0  1  0.50000000  0.50000000  0.50000000  1
  F  F0  1  0.82097948  0.29312811  0.62374722  1
  F  F1  1  0.70687189  0.37625278  0.17902052  1
  F  F2  1  0.37625278  0.17902052  0.70687189  1
  F  F3  1  0.62374722  0.82097948  0.29312811  1
  F  F4  1  0.29312811  0.62374722  0.82097948  1
  F  F5  1  0.17902052  0.70687189  0.37625278  1
loop_
_geom_bond_atom_site_label_1
_geom_bond_atom_site_label_2
_geom_bond_distance
_geom_bond_site_symmetry_2
Al0 F5 1.809509 1_555
Al0 F0 1.809509 1_555
Al0 F2 1.809509 1_555
Al0 F3 1.809509 1_555
Al0 F1 1.809509 1_555
Al0 F4 1.809509 1_555
F0 Na0 2.224930 1_656
F0 Na1 2.247888 1_655
F0 Na2 2.499573 1_555
F1 Na0 2.224930 1_655
F1 Na2 2.247889 1_554
F1 Na1 2.499573 1_555
F2 Na0 2.224930 1_556
F2 Na2 2.247888 1_545
F2 Na1 2.499573 1_555
F3 Na0 2.224930 1_665
F3 Na1 2.247888 1_565
F3 Na2 2.499573 1_555
F4 Na0 2.224930 1_566
F4 Na1 2.247889 1_556
F4 Na2 2.499573 1_555
F5 Na0 2.224930 1_565
F5 Na2 2.247888 1_455
F5 Na1 2.499573 1_555
