# generated using pymatgen
data_La2ZnIrO6
_symmetry_space_group_name_H-M   'P 1'
_cell_length_a   5.82285400
_cell_length_b   5.59016200
_cell_length_c   9.72790091
_cell_angle_alpha   55.01963928
_cell_angle_beta   90.00000000
_cell_angle_gamma   90.00000000
_symmetry_Int_Tables_number   1
_chemical_formula_structural   La2ZnIrO6
_chemical_formula_sum   'La4 Zn2 Ir2 O12'
_cell_volume   259.44669886
_cell_formula_units_Z   2
loop_
 _symmetry_equiv_pos_site_id
 _symmetry_equiv_pos_as_xyz
  1  'x, y, z'
loop_
 _atom_site_type_symbol
 _atom_site_label
 _atom_site_symmetry_multiplicity
 _atom_site_fract_x
 _atom_site_fract_y
 _atom_site_fract_z
 _atom_site_occupancy
  La  La0  1  0.55951800  0.73402500  0.75102300  1
  La  La1  1  0.05951800  0.26597500  0.74897700  1
  La  La2  1  0.94048200  0.73402500  0.25102300  1
  La  La3  1  0.44048200  0.26597500  0.24897700  1
  Zn  Zn0  1  0.50000000  0.50000000  0.50000000  1
  Zn  Zn1  1  0.00000000  0.50000000  0.00000000  1
  Ir  Ir0  1  0.50000000  0.00000000  0.00000000  1
  Ir  Ir1  1  0.00000000  0.00000000  0.50000000  1
  O  O0  1  0.52806800  0.84929300  0.24652200  1
  O  O1  1  0.02806800  0.15070700  0.25347800  1
  O  O2  1  0.47193200  0.15070700  0.75347800  1
  O  O3  1  0.97193200  0.84929300  0.74652200  1
  O  O4  1  0.80218000  0.65279600  0.55019600  1
  O  O5  1  0.30218000  0.34720400  0.94980400  1
  O  O6  1  0.19782000  0.34720400  0.44980400  1
  O  O7  1  0.69782000  0.65279600  0.05019600  1
  O  O8  1  0.20891200  0.75793900  0.05187900  1
  O  O9  1  0.70891200  0.24206100  0.44812100  1
  O  O10  1  0.79108800  0.24206100  0.94812100  1
  O  O11  1  0.29108800  0.75793900  0.55187900  1
loop_
_geom_bond_atom_site_label_1
_geom_bond_atom_site_label_2
_geom_bond_distance
_geom_bond_site_symmetry_2
La0 O2 2.397954 1_565
La0 O5 2.422007 1_555
La0 O11 2.432476 1_555
La0 O3 2.480247 1_555
La0 O10 2.647978 1_555
La0 O4 2.652644 1_555
La0 O7 2.794541 1_556
La0 O9 2.812422 1_565
La1 O3 2.397954 1_445
La1 O4 2.422007 1_455
La1 O10 2.432476 1_455
La1 O2 2.480247 1_555
La1 O11 2.647978 1_555
La1 O5 2.652644 1_555
La1 O6 2.794541 1_555
La1 O8 2.812422 1_546
La2 O1 2.397954 1_665
La2 O6 2.422007 1_655
La2 O8 2.432476 1_655
La2 O0 2.480247 1_555
La2 O9 2.647978 1_555
La2 O7 2.652644 1_555
La2 O4 2.794541 1_555
La2 O10 2.812422 1_564
La3 O0 2.397954 1_545
La3 O7 2.422007 1_555
La3 O9 2.432476 1_555
La3 O1 2.480247 1_555
La3 O8 2.647978 1_555
La3 O6 2.652644 1_555
La3 O5 2.794541 1_554
La3 O11 2.812422 1_545
Ir0 O0 2.042306 1_545
Ir0 O2 2.042306 1_554
Ir0 O8 2.043435 1_545
Ir0 O10 2.043435 1_554
Ir0 O5 2.060525 1_554
Ir0 O7 2.060525 1_545
Ir1 O3 2.042306 1_445
Ir1 O1 2.042306 1_555
Ir1 O11 2.043435 1_545
Ir1 O9 2.043435 1_455
Ir1 O4 2.060525 1_445
Ir1 O6 2.060525 1_555
O0 Zn0 2.097389 1_555
O1 Zn1 2.097389 1_555
O2 Zn0 2.097389 1_555
O3 Zn1 2.097389 1_656
O4 Zn0 2.131258 1_555
O5 Zn1 2.131258 1_556
O6 Zn0 2.131258 1_555
O7 Zn1 2.131258 1_655
O8 Zn1 2.155920 1_555
O9 Zn0 2.155920 1_555
O10 Zn1 2.155920 1_656
O11 Zn0 2.155920 1_555
