# generated using pymatgen
data_Se5SO3F
_symmetry_space_group_name_H-M   'P 1'
_cell_length_a   8.86265900
_cell_length_b   13.60741800
_cell_length_c   15.51581400
_cell_angle_alpha   90.00000000
_cell_angle_beta   90.00000000
_cell_angle_gamma   90.00000000
_symmetry_Int_Tables_number   1
_chemical_formula_structural   Se5SO3F
_chemical_formula_sum   'Se40 S8 O24 F8'
_cell_volume   1871.17467215
_cell_formula_units_Z   8
loop_
 _symmetry_equiv_pos_site_id
 _symmetry_equiv_pos_as_xyz
  1  'x, y, z'
loop_
 _atom_site_type_symbol
 _atom_site_label
 _atom_site_symmetry_multiplicity
 _atom_site_fract_x
 _atom_site_fract_y
 _atom_site_fract_z
 _atom_site_occupancy
  Se  Se0  1  0.64314400  0.49953500  0.10632700  1
  Se  Se1  1  0.67714100  0.51721200  0.72963300  1
  Se  Se2  1  0.82285900  0.48278800  0.22963300  1
  Se  Se3  1  0.14314400  0.00046500  0.89367400  1
  Se  Se4  1  0.03076800  0.11953500  0.49841400  1
  Se  Se5  1  0.08631200  0.14045000  0.26363100  1
  Se  Se6  1  0.77709200  0.96728400  0.34315400  1
  Se  Se7  1  0.32285900  0.01721200  0.77036700  1
  Se  Se8  1  0.96923200  0.61953500  0.00158600  1
  Se  Se9  1  0.83934900  0.88824800  0.46955300  1
  Se  Se10  1  0.23996200  0.83842000  0.94554600  1
  Se  Se11  1  0.74906800  0.38703000  0.99863500  1
  Se  Se12  1  0.37220000  0.36440900  0.63778400  1
  Se  Se13  1  0.16065100  0.38824800  0.03044700  1
  Se  Se14  1  0.12780000  0.63559100  0.13778400  1
  Se  Se15  1  0.25093200  0.88703000  0.50136500  1
  Se  Se16  1  0.17714100  0.98278800  0.27036700  1
  Se  Se17  1  0.87220000  0.13559100  0.36221600  1
  Se  Se18  1  0.53076800  0.38046500  0.50158600  1
  Se  Se19  1  0.27709200  0.53271600  0.65684600  1
  Se  Se20  1  0.06383300  0.80049800  0.43102400  1
  Se  Se21  1  0.46923200  0.88046500  0.99841400  1
  Se  Se22  1  0.22290800  0.46728400  0.15684600  1
  Se  Se23  1  0.93616700  0.30049800  0.06897600  1
  Se  Se24  1  0.73996200  0.66158000  0.05445400  1
  Se  Se25  1  0.24906800  0.11297000  0.00136500  1
  Se  Se26  1  0.66065100  0.11175200  0.96955300  1
  Se  Se27  1  0.72290800  0.03271600  0.84315400  1
  Se  Se28  1  0.43616700  0.19950200  0.93102400  1
  Se  Se29  1  0.26003800  0.16158000  0.44554600  1
  Se  Se30  1  0.76003800  0.33842000  0.55445400  1
  Se  Se31  1  0.62780000  0.86440900  0.86221600  1
  Se  Se32  1  0.56383300  0.69950200  0.56897600  1
  Se  Se33  1  0.41368800  0.85955000  0.76363100  1
  Se  Se34  1  0.33934900  0.61175200  0.53044700  1
  Se  Se35  1  0.75093200  0.61297000  0.49863500  1
  Se  Se36  1  0.91368800  0.64045000  0.23636900  1
  Se  Se37  1  0.58631200  0.35955000  0.73636900  1
  Se  Se38  1  0.85685600  0.50046500  0.60632600  1
  Se  Se39  1  0.35685600  0.99953500  0.39367400  1
  S  S0  1  0.89546800  0.91933900  0.08616300  1
  S  S1  1  0.60453200  0.08066100  0.58616300  1
  S  S2  1  0.97731300  0.78081000  0.72579300  1
  S  S3  1  0.39546800  0.58066100  0.91383700  1
  S  S4  1  0.10453200  0.41933900  0.41383700  1
  S  S5  1  0.52268700  0.21919000  0.22579300  1
  S  S6  1  0.47731300  0.71919000  0.27420700  1
  S  S7  1  0.02268700  0.28081000  0.77420700  1
  O  O0  1  0.03849100  0.51288100  0.43948300  1
  O  O1  1  0.17440100  0.36368000  0.48410800  1
  O  O2  1  0.01593500  0.36161400  0.35358800  1
  O  O3  1  0.82559900  0.86368000  0.01589200  1
  O  O4  1  0.51593500  0.13838600  0.64641200  1
  O  O5  1  0.85871900  0.82252900  0.67318700  1
  O  O6  1  0.37822000  0.23792100  0.18447400  1
  O  O7  1  0.62178000  0.73792100  0.31552600  1
  O  O8  1  0.48406500  0.63838600  0.85358800  1
  O  O9  1  0.64128100  0.17747100  0.17318700  1
  O  O10  1  0.98406500  0.86161400  0.14641200  1
  O  O11  1  0.46150900  0.48711900  0.93948300  1
  O  O12  1  0.67440100  0.13632000  0.51589200  1
  O  O13  1  0.51700500  0.18123200  0.31396900  1
  O  O14  1  0.01700500  0.31876800  0.68603100  1
  O  O15  1  0.12178000  0.76207900  0.68447400  1
  O  O16  1  0.35871900  0.67747100  0.32681300  1
  O  O17  1  0.87822000  0.26207900  0.81552600  1
  O  O18  1  0.53849100  0.98711900  0.56051700  1
  O  O19  1  0.32559900  0.63632000  0.98410800  1
  O  O20  1  0.48299500  0.68123200  0.18603100  1
  O  O21  1  0.96150900  0.01288100  0.06051700  1
  O  O22  1  0.98299500  0.81876800  0.81396900  1
  O  O23  1  0.14128100  0.32252900  0.82681300  1
  F  F0  1  0.58521100  0.33420200  0.24132700  1
  F  F1  1  0.08521100  0.16579800  0.75867300  1
  F  F2  1  0.75147400  0.04654600  0.64263500  1
  F  F3  1  0.91478900  0.66579800  0.74132700  1
  F  F4  1  0.24852600  0.54654600  0.85736500  1
  F  F5  1  0.41478900  0.83420200  0.25867300  1
  F  F6  1  0.74852600  0.95345400  0.14263500  1
  F  F7  1  0.25147400  0.45345400  0.35736500  1
loop_
_geom_bond_atom_site_label_1
_geom_bond_atom_site_label_2
_geom_bond_distance
_geom_bond_site_symmetry_2
Se0 Se11 2.452948 1_554
Se0 Se24 2.499230 1_555
Se0 Se2 2.499820 1_555
Se1 Se37 2.293807 1_555
Se1 Se38 2.499832 1_555
Se2 Se36 2.293807 1_555
Se3 Se7 2.499832 1_555
Se6 Se9 2.303764 1_555
Se10 Se21 2.264727 1_555
Se10 Se3 2.499225 1_565
Se11 Se23 2.308075 1_556
Se12 Se37 2.438241 1_555
Se12 Se19 2.458271 1_555
Se12 Se18 2.547235 1_555
Se13 Se22 2.303764 1_555
Se13 Se23 2.396110 1_455
Se14 Se36 2.438241 1_455
Se14 Se22 2.458271 1_555
Se14 Se8 2.547235 1_455
Se15 Se20 2.308075 1_555
Se15 Se39 2.452937 1_555
Se16 Se5 2.293807 1_565
Se16 Se39 2.499832 1_555
Se17 Se5 2.438241 1_655
Se17 Se6 2.458271 1_545
Se17 Se4 2.547235 1_655
Se18 Se30 2.264727 1_555
Se19 Se34 2.303764 1_555
Se20 Se9 2.396110 1_455
Se21 Se31 2.547235 1_555
Se24 Se8 2.264727 1_555
Se25 Se28 2.308075 1_554
Se25 Se3 2.452937 1_554
Se26 Se27 2.303764 1_555
Se26 Se28 2.396110 1_555
Se27 Se31 2.458271 1_545
Se29 Se4 2.264727 1_555
Se29 Se39 2.499225 1_545
Se30 Se38 2.499225 1_555
Se31 Se33 2.438241 1_555
Se32 Se35 2.308075 1_555
Se32 Se34 2.396110 1_555
Se33 Se7 2.293807 1_565
Se35 Se38 2.452937 1_555
O0 S4 1.456399 1_555
O1 S4 1.464868 1_555
O2 S4 1.451693 1_555
O3 S0 1.464868 1_555
O4 S1 1.451693 1_555
O5 S2 1.446795 1_555
O6 S5 1.454406 1_555
O7 S6 1.454406 1_555
O8 S3 1.451693 1_555
O9 S5 1.446795 1_555
O10 S0 1.451693 1_555
O11 S3 1.456399 1_555
O12 S1 1.464868 1_555
O13 S5 1.463242 1_555
O14 S7 1.463242 1_555
O15 S2 1.454406 1_455
O16 S6 1.446795 1_555
O17 S7 1.454406 1_655
O18 S1 1.456399 1_565
O19 S3 1.464868 1_555
O20 S6 1.463242 1_555
O21 S0 1.456399 1_545
O22 S2 1.463242 1_555
O23 S7 1.446795 1_555
F0 S5 1.677625 1_555
F1 S7 1.677625 1_555
F2 S1 1.636831 1_555
F3 S2 1.677625 1_555
F4 S3 1.636831 1_555
F5 S6 1.677625 1_555
F6 S0 1.636831 1_555
F7 S4 1.636831 1_555
