# generated using pymatgen
data_NaLi2La3Ti6O18
_symmetry_space_group_name_H-M   'P 1'
_cell_length_a   9.56658562
_cell_length_b   9.56658562
_cell_length_c   5.55830841
_cell_angle_alpha   73.13269405
_cell_angle_beta   73.13269405
_cell_angle_gamma   119.67412529
_symmetry_Int_Tables_number   1
_chemical_formula_structural   NaLi2La3Ti6O18
_chemical_formula_sum   'Na1 Li2 La3 Ti6 O18'
_cell_volume   360.83875572
_cell_formula_units_Z   1
loop_
 _symmetry_equiv_pos_site_id
 _symmetry_equiv_pos_as_xyz
  1  'x, y, z'
loop_
 _atom_site_type_symbol
 _atom_site_label
 _atom_site_symmetry_multiplicity
 _atom_site_fract_x
 _atom_site_fract_y
 _atom_site_fract_z
 _atom_site_occupancy
  Na  Na0  1  0.25021600  0.74978400  0.00000000  1
  Li  Li0  1  0.83384000  0.16704100  0.75289400  1
  Li  Li1  1  0.83295900  0.16616000  0.24710600  1
  La  La0  1  0.58683100  0.41316900  0.00000000  1
  La  La1  1  0.07992000  0.92008000  0.50000000  1
  La  La2  1  0.41720600  0.58279400  0.50000000  1
  Ti  Ti0  1  0.00538200  0.50355600  0.74290900  1
  Ti  Ti1  1  0.33441500  0.16081900  0.75077700  1
  Ti  Ti2  1  0.66097800  0.83407900  0.75642300  1
  Ti  Ti3  1  0.49644400  0.99461800  0.25709100  1
  Ti  Ti4  1  0.83918100  0.66558500  0.24922300  1
  Ti  Ti5  1  0.16592100  0.33902200  0.24357700  1
  O  O0  1  0.38906400  0.07694800  0.04796600  1
  O  O1  1  0.74442700  0.25557300  0.00000000  1
  O  O2  1  0.92305200  0.61093600  0.95203400  1
  O  O3  1  0.71997800  0.72528800  0.03374700  1
  O  O4  1  0.39755100  0.06485500  0.51796800  1
  O  O5  1  0.07601400  0.92398600  0.00000000  1
  O  O6  1  0.58705900  0.41294100  0.50000000  1
  O  O7  1  0.27471200  0.28002200  0.96625300  1
  O  O8  1  0.93514500  0.60244900  0.48203200  1
  O  O9  1  0.07671600  0.41589400  0.01274800  1
  O  O10  1  0.73465900  0.71944200  0.54726400  1
  O  O11  1  0.40994100  0.59005900  0.00000000  1
  O  O12  1  0.92264200  0.07735800  0.50000000  1
  O  O13  1  0.58410600  0.92328400  0.98725200  1
  O  O14  1  0.28055800  0.26534100  0.45273600  1
  O  O15  1  0.08778600  0.40694500  0.52330100  1
  O  O16  1  0.26024100  0.73975900  0.50000000  1
  O  O17  1  0.59305500  0.91221400  0.47669900  1
loop_
_geom_bond_atom_site_label_1
_geom_bond_atom_site_label_2
_geom_bond_distance
_geom_bond_site_symmetry_2
Na0 O11 2.642257 1_555
Na0 O8 2.676913 1_455
Na0 O4 2.676913 1_564
Na0 O13 2.741131 1_554
Na0 O9 2.741131 1_555
Na0 O16 2.784098 1_554
Na0 O16 2.784098 1_555
Na0 O2 2.864398 1_454
Na0 O0 2.864398 1_565
Na0 O5 2.881744 1_555
Na0 O15 2.902907 1_555
Na0 O17 2.902907 1_554
Li0 O13 1.938430 1_545
Li0 O15 1.943827 1_655
Li0 O1 2.011483 1_556
Li0 O12 2.040156 1_555
Li1 O9 1.938430 1_655
Li1 O17 1.943827 1_545
Li1 O1 2.011483 1_555
Li1 O12 2.040156 1_555
La0 O14 2.543747 1_555
La0 O10 2.543747 1_554
La0 O1 2.607038 1_555
La0 O0 2.679664 1_555
La0 O2 2.679664 1_554
La0 O7 2.696515 1_554
La0 O3 2.696515 1_555
La0 O6 2.779157 1_555
La0 O6 2.779157 1_554
La0 O8 2.846809 1_554
La0 O4 2.846809 1_555
La0 O11 2.926210 1_555
La1 O2 2.533142 1_455
La1 O0 2.533142 1_565
La1 O12 2.601778 1_465
La1 O4 2.692757 1_565
La1 O8 2.692757 1_455
La1 O10 2.754886 1_455
La1 O14 2.754886 1_565
La1 O5 2.779905 1_556
La1 O5 2.779905 1_555
La1 O3 2.939593 1_456
La1 O7 2.939593 1_564
La1 O16 2.982967 1_555
La2 O3 2.578469 1_555
La2 O7 2.578469 1_555
La2 O16 2.596600 1_555
La2 O17 2.676893 1_555
La2 O15 2.676893 1_555
La2 O10 2.780709 1_555
La2 O14 2.780709 1_555
La2 O11 2.781752 1_556
La2 O11 2.781752 1_555
La2 O6 2.809800 1_555
La2 O13 2.846848 1_554
La2 O9 2.846848 1_556
O0 Ti1 1.947596 1_554
O0 Ti3 1.997370 1_545
O1 Ti3 2.000200 1_545
O1 Ti0 2.000200 1_654
O2 Ti4 1.947596 1_556
O2 Ti0 1.997370 1_655
O3 Ti2 1.983276 1_554
O3 Ti4 2.025243 1_555
O4 Ti1 1.914936 1_555
O4 Ti3 1.961599 1_545
O5 Ti4 1.951673 1_455
O5 Ti1 1.951673 1_564
O6 Ti4 1.980899 1_555
O6 Ti1 1.980899 1_555
O7 Ti5 1.983276 1_556
O7 Ti1 2.025243 1_555
O8 Ti4 1.914936 1_555
O8 Ti0 1.961599 1_655
O9 Ti5 1.903802 1_555
O9 Ti0 1.961946 1_554
O10 Ti4 2.013400 1_555
O10 Ti2 2.020116 1_555
O11 Ti2 1.943752 1_554
O11 Ti5 1.943752 1_555
O12 Ti2 1.987543 1_545
O12 Ti5 1.987543 1_655
O13 Ti2 1.903802 1_555
O13 Ti3 1.961946 1_556
O14 Ti1 2.013400 1_555
O14 Ti5 2.020116 1_555
O15 Ti0 1.945081 1_555
O15 Ti5 1.947078 1_555
O16 Ti3 1.933313 1_555
O16 Ti0 1.933313 1_555
O17 Ti3 1.945081 1_555
O17 Ti2 1.947078 1_555
