# generated using pymatgen
data_Cs2PtS6(O3F)6
_symmetry_space_group_name_H-M   'P 1'
_cell_length_a   9.36696642
_cell_length_b   9.36696642
_cell_length_c   7.91688400
_cell_angle_alpha   90.00000000
_cell_angle_beta   90.00000000
_cell_angle_gamma   120.00000298
_symmetry_Int_Tables_number   1
_chemical_formula_structural   Cs2PtS6(O3F)6
_chemical_formula_sum   'Cs2 Pt1 S6 O18 F6'
_cell_volume   601.56536943
_cell_formula_units_Z   1
loop_
 _symmetry_equiv_pos_site_id
 _symmetry_equiv_pos_as_xyz
  1  'x, y, z'
loop_
 _atom_site_type_symbol
 _atom_site_label
 _atom_site_symmetry_multiplicity
 _atom_site_fract_x
 _atom_site_fract_y
 _atom_site_fract_z
 _atom_site_occupancy
  Cs  Cs0  1  0.33333300  0.66666700  0.33674500  1
  Cs  Cs1  1  0.66666700  0.33333300  0.66325500  1
  Pt  Pt0  1  0.00000000  0.00000000  0.00000000  1
  S  S0  1  0.85251000  0.19754300  0.22472700  1
  S  S1  1  0.19754300  0.85251000  0.77527300  1
  S  S2  1  0.80245700  0.65496700  0.22472700  1
  S  S3  1  0.14749000  0.34503300  0.77527300  1
  S  S4  1  0.34503300  0.14749000  0.22472700  1
  S  S5  1  0.65496700  0.80245700  0.77527300  1
  O  O0  1  0.66949500  0.66103100  0.73715500  1
  O  O1  1  0.95273800  0.81352300  0.16747800  1
  O  O2  1  0.85903200  0.57645200  0.34038400  1
  O  O3  1  0.04726200  0.86078500  0.83252200  1
  O  O4  1  0.28258000  0.42354800  0.65961600  1
  O  O5  1  0.71742000  0.14096800  0.34038400  1
  O  O6  1  0.13921500  0.18647700  0.83252200  1
  O  O7  1  0.99153500  0.33050500  0.73715500  1
  O  O8  1  0.18647700  0.13921500  0.16747800  1
  O  O9  1  0.33050500  0.99153500  0.26284500  1
  O  O10  1  0.57645200  0.85903200  0.65961600  1
  O  O11  1  0.42354800  0.28258000  0.34038400  1
  O  O12  1  0.86078500  0.04726200  0.16747800  1
  O  O13  1  0.33896900  0.00846500  0.73715500  1
  O  O14  1  0.81352300  0.95273800  0.83252200  1
  O  O15  1  0.00846500  0.33896900  0.26284500  1
  O  O16  1  0.14096800  0.71742000  0.65961600  1
  O  O17  1  0.66103100  0.66949500  0.26284500  1
  F  F0  1  0.45308200  0.20990400  0.05492100  1
  F  F1  1  0.54691800  0.75682200  0.94507900  1
  F  F2  1  0.79009600  0.24317800  0.05492100  1
  F  F3  1  0.24317800  0.79009600  0.94507900  1
  F  F4  1  0.75682200  0.54691800  0.05492100  1
  F  F5  1  0.20990400  0.45308200  0.94507900  1
loop_
_geom_bond_atom_site_label_1
_geom_bond_atom_site_label_2
_geom_bond_distance
_geom_bond_site_symmetry_2
Cs0 O9 3.111852 1_555
Cs0 O15 3.111861 1_555
Cs0 O17 3.111870 1_555
Cs0 O16 3.295936 1_555
Cs0 O10 3.295940 1_555
Cs0 O4 3.295942 1_555
Cs0 F3 3.555417 1_554
Cs0 F5 3.555421 1_554
Cs0 F1 3.555421 1_554
Cs1 O7 3.111852 1_555
Cs1 O13 3.111861 1_555
Cs1 O0 3.111870 1_555
Cs1 O5 3.295936 1_555
Cs1 O2 3.295940 1_555
Cs1 O11 3.295942 1_555
Cs1 F2 3.555417 1_556
Cs1 F0 3.555421 1_556
Cs1 F4 3.555421 1_556
O0 S5 1.429957 1_555
O1 S2 1.517266 1_555
O1 Pt0 2.057127 1_665
O2 S2 1.431732 1_555
O3 S1 1.517266 1_555
O3 Pt0 2.057127 1_566
O4 S3 1.431732 1_555
O5 S0 1.431732 1_555
O6 S3 1.517266 1_555
O6 Pt0 2.057127 1_556
O7 S3 1.429966 1_655
O8 S4 1.517266 1_555
O8 Pt0 2.057127 1_555
O9 S4 1.429966 1_565
O10 S5 1.431732 1_555
O11 S4 1.431732 1_555
O12 S0 1.517266 1_555
O12 Pt0 2.057127 1_655
O13 S1 1.429962 1_545
O14 S5 1.517266 1_555
O14 Pt0 2.057127 1_666
O15 S0 1.429962 1_455
O16 S1 1.431732 1_555
O17 S2 1.429957 1_555
F0 S4 1.606754 1_555
F1 S5 1.606754 1_555
F2 S0 1.606754 1_555
F3 S1 1.606754 1_555
F4 S2 1.606754 1_555
F5 S3 1.606754 1_555
