# generated using pymatgen
data_CsZnAgC4(SN)4
_symmetry_space_group_name_H-M   'P 1'
_cell_length_a   16.87684000
_cell_length_b   9.14974400
_cell_length_c   12.01588511
_cell_angle_alpha   49.36345981
_cell_angle_beta   90.00000000
_cell_angle_gamma   90.00000000
_symmetry_Int_Tables_number   1
_chemical_formula_structural   CsZnAgC4(SN)4
_chemical_formula_sum   'Cs4 Zn4 Ag4 C16 S16 N16'
_cell_volume   1408.04095345
_cell_formula_units_Z   4
loop_
 _symmetry_equiv_pos_site_id
 _symmetry_equiv_pos_as_xyz
  1  'x, y, z'
loop_
 _atom_site_type_symbol
 _atom_site_label
 _atom_site_symmetry_multiplicity
 _atom_site_fract_x
 _atom_site_fract_y
 _atom_site_fract_z
 _atom_site_occupancy
  Cs  Cs0  1  0.87538700  0.75277000  0.85493900  1
  Cs  Cs1  1  0.62461300  0.75277000  0.35493900  1
  Cs  Cs2  1  0.12461300  0.24723000  0.14506100  1
  Cs  Cs3  1  0.37538700  0.24723000  0.64506100  1
  Zn  Zn0  1  0.55248500  0.80421100  0.78730700  1
  Zn  Zn1  1  0.94751500  0.80421100  0.28730700  1
  Zn  Zn2  1  0.05248500  0.19578900  0.71269300  1
  Zn  Zn3  1  0.44751500  0.19578900  0.21269300  1
  Ag  Ag0  1  0.73957700  0.23686000  0.84092200  1
  Ag  Ag1  1  0.23957700  0.76314000  0.65907800  1
  Ag  Ag2  1  0.26042300  0.76314000  0.15907800  1
  Ag  Ag3  1  0.76042300  0.23686000  0.34092200  1
  C  C0  1  0.18017700  0.18172600  0.52990000  1
  C  C1  1  0.41782700  0.50709400  0.24322300  1
  C  C2  1  0.62437600  0.24460300  0.11684200  1
  C  C3  1  0.37562400  0.75539700  0.88315800  1
  C  C4  1  0.31982300  0.18172600  0.02990000  1
  C  C5  1  0.81982300  0.81827400  0.47010000  1
  C  C6  1  0.87562400  0.24460300  0.61684200  1
  C  C7  1  0.08217300  0.50709400  0.74322300  1
  C  C8  1  0.59012300  0.20391500  0.47964400  1
  C  C9  1  0.12437600  0.75539700  0.38315800  1
  C  C10  1  0.68017700  0.81827400  0.97010000  1
  C  C11  1  0.91782700  0.49290600  0.25677700  1
  C  C12  1  0.58217300  0.49290600  0.75677700  1
  C  C13  1  0.90987700  0.20391500  0.97964400  1
  C  C14  1  0.09012300  0.79608500  0.02035600  1
  C  C15  1  0.40987700  0.79608500  0.52035600  1
  S  S0  1  0.25227000  0.14892300  0.95087400  1
  S  S1  1  0.90598200  0.32377000  0.24759600  1
  S  S2  1  0.37249700  0.60973500  0.67600900  1
  S  S3  1  0.21892700  0.73531500  0.41240100  1
  S  S4  1  0.74773000  0.85107700  0.04912600  1
  S  S5  1  0.24773000  0.14892300  0.45087400  1
  S  S6  1  0.12750300  0.60973500  0.17600900  1
  S  S7  1  0.75227000  0.85107700  0.54912600  1
  S  S8  1  0.87249700  0.39026500  0.82399100  1
  S  S9  1  0.40598200  0.67623000  0.25240400  1
  S  S10  1  0.09401800  0.67623000  0.75240400  1
  S  S11  1  0.71892700  0.26468500  0.08759900  1
  S  S12  1  0.78107300  0.26468500  0.58759900  1
  S  S13  1  0.59401800  0.32377000  0.74759600  1
  S  S14  1  0.62750300  0.39026500  0.32399100  1
  S  S15  1  0.28107300  0.73531500  0.91240100  1
  N  N0  1  0.06154400  0.93030900  0.90790600  1
  N  N1  1  0.56154400  0.06969100  0.59209400  1
  N  N2  1  0.57380000  0.61694200  0.76130600  1
  N  N3  1  0.55526400  0.22130100  0.14083700  1
  N  N4  1  0.92620000  0.61694200  0.26130600  1
  N  N5  1  0.93845600  0.06969100  0.09209400  1
  N  N6  1  0.94473600  0.22130100  0.64083700  1
  N  N7  1  0.42620000  0.38305800  0.23869400  1
  N  N8  1  0.86761000  0.79222800  0.41276600  1
  N  N9  1  0.44473600  0.77869900  0.85916300  1
  N  N10  1  0.05526400  0.77869900  0.35916300  1
  N  N11  1  0.36761000  0.20777200  0.08723400  1
  N  N12  1  0.63239000  0.79222800  0.91276600  1
  N  N13  1  0.07380000  0.38305800  0.73869400  1
  N  N14  1  0.13239000  0.20777200  0.58723400  1
  N  N15  1  0.43845600  0.93030900  0.40790600  1
loop_
_geom_bond_atom_site_label_1
_geom_bond_atom_site_label_2
_geom_bond_distance
_geom_bond_site_symmetry_2
Cs0 N6 3.464248 1_565
Cs0 S8 3.570513 1_555
Cs0 S4 3.691727 1_556
Cs0 S1 3.716517 1_556
Cs0 N0 3.776377 1_655
Cs0 S7 3.784715 1_555
Cs0 S12 3.897890 1_565
Cs0 S10 4.092294 1_655
Cs1 N3 3.464248 1_565
Cs1 S14 3.570513 1_555
Cs1 S7 3.691727 1_555
Cs1 S13 3.716517 1_555
Cs1 N15 3.776377 1_555
Cs1 S4 3.784715 1_555
Cs1 S11 3.897890 1_565
Cs1 S9 4.092294 1_555
Cs2 N10 3.464248 1_545
Cs2 S6 3.570513 1_555
Cs2 S0 3.691727 1_554
Cs2 S10 3.716517 1_554
Cs2 N5 3.776377 1_455
Cs2 S5 3.784715 1_555
Cs2 S3 3.897890 1_545
Cs2 S1 4.092294 1_455
Cs3 N9 3.464248 1_545
Cs3 S2 3.570513 1_555
Cs3 S5 3.691727 1_555
Cs3 S9 3.716517 1_555
Cs3 N1 3.776377 1_555
Cs3 S0 3.784715 1_555
Cs3 S15 3.897890 1_545
Cs3 S13 4.092294 1_555
Ag0 S8 2.582992 1_555
Ag0 S13 2.600603 1_555
Ag0 S4 2.689820 1_546
Ag0 S12 2.968368 1_555
Ag0 S11 3.155111 1_556
Ag1 S2 2.582992 1_555
Ag1 S10 2.600603 1_555
Ag1 S5 2.689820 1_565
Ag1 S15 2.968368 1_555
Ag1 S3 3.155111 1_555
Ag2 S6 2.582992 1_555
Ag2 S9 2.600603 1_555
Ag2 S0 2.689820 1_564
Ag2 S3 2.968368 1_555
Ag2 S15 3.155111 1_554
Ag3 S14 2.582992 1_555
Ag3 S1 2.600603 1_555
Ag3 S7 2.689820 1_545
Ag3 S11 2.968368 1_555
Ag3 S12 3.155111 1_555
C0 N14 1.181389 1_555
C0 S5 1.631799 1_555
C0 Cs3 3.769372 1_555
C1 N7 1.179562 1_555
C1 S9 1.633835 1_555
C1 Cs3 3.811387 1_555
C2 N3 1.187008 1_555
C2 S11 1.618476 1_555
C2 Cs1 3.415679 1_545
C3 N9 1.187008 1_555
C3 S15 1.618476 1_555
C3 Cs3 3.415679 1_565
C4 N11 1.181389 1_555
C4 S0 1.631799 1_554
C4 Cs2 3.769372 1_555
C5 N8 1.181389 1_555
C5 S7 1.631799 1_555
C5 Cs1 3.769372 1_555
C6 N6 1.187008 1_555
C6 S12 1.618476 1_555
C6 Cs0 3.415679 1_545
C7 N13 1.179562 1_555
C7 S10 1.633835 1_555
C7 Cs2 3.811387 1_556
C8 N1 1.185409 1_555
C8 S14 1.627743 1_555
C9 N10 1.187008 1_555
C9 S3 1.618476 1_555
C9 Cs2 3.415679 1_565
C10 N12 1.181389 1_555
C10 S4 1.631799 1_556
C10 Cs0 3.769372 1_555
C11 N4 1.179562 1_555
C11 S1 1.633835 1_555
C11 Cs0 3.811387 1_554
C12 N2 1.179562 1_555
C12 S13 1.633835 1_555
C12 Cs1 3.811387 1_555
C13 N5 1.185409 1_556
C13 S8 1.627743 1_555
C14 N0 1.185409 1_554
C14 S6 1.627743 1_555
C15 N15 1.185409 1_555
C15 S2 1.627743 1_555
N0 Zn2 2.001109 1_565
N1 Zn0 2.001109 1_545
N2 Zn0 1.964751 1_555
N3 Zn3 1.960679 1_555
N4 Zn1 1.964751 1_555
N5 Zn1 2.001109 1_545
N6 Zn2 1.960679 1_655
N7 Zn3 1.964751 1_555
N8 Zn1 1.971767 1_555
N9 Zn0 1.960679 1_555
N10 Zn1 1.960679 1_455
N11 Zn3 1.971767 1_555
N12 Zn0 1.971767 1_555
N13 Zn2 1.964751 1_555
N14 Zn2 1.971767 1_555
N15 Zn3 2.001109 1_565
