# generated using pymatgen
data_CrFe2C10(Se2O5)2
_symmetry_space_group_name_H-M   'P 1'
_cell_length_a   17.63663000
_cell_length_b   6.68423700
_cell_length_c   17.27162211
_cell_angle_alpha   83.26771601
_cell_angle_beta   90.00000000
_cell_angle_gamma   90.00000000
_symmetry_Int_Tables_number   1
_chemical_formula_structural   CrFe2C10(Se2O5)2
_chemical_formula_sum   'Cr4 Fe8 C40 Se16 O40'
_cell_volume   2022.06741900
_cell_formula_units_Z   4
loop_
 _symmetry_equiv_pos_site_id
 _symmetry_equiv_pos_as_xyz
  1  'x, y, z'
loop_
 _atom_site_type_symbol
 _atom_site_label
 _atom_site_symmetry_multiplicity
 _atom_site_fract_x
 _atom_site_fract_y
 _atom_site_fract_z
 _atom_site_occupancy
  Cr  Cr0  1  0.38387400  0.77869800  0.61883300  1
  Cr  Cr1  1  0.88387400  0.22130200  0.88116700  1
  Cr  Cr2  1  0.11612600  0.77869800  0.11883300  1
  Cr  Cr3  1  0.61612600  0.22130200  0.38116700  1
  Fe  Fe0  1  0.46234700  0.15386200  0.19748100  1
  Fe  Fe1  1  0.65041200  0.32841800  0.13542700  1
  Fe  Fe2  1  0.15041200  0.67158200  0.36457300  1
  Fe  Fe3  1  0.34958800  0.67158200  0.86457300  1
  Fe  Fe4  1  0.96234700  0.84613800  0.30251900  1
  Fe  Fe5  1  0.84958800  0.32841800  0.63542700  1
  Fe  Fe6  1  0.53765300  0.84613800  0.80251900  1
  Fe  Fe7  1  0.03765300  0.15386200  0.69748100  1
  C  C0  1  0.08728900  0.91352800  0.70390800  1
  C  C1  1  0.06669700  0.21752100  0.59780300  1
  C  C2  1  0.11136300  0.27107600  0.75078900  1
  C  C3  1  0.37465400  0.72045700  0.96176200  1
  C  C4  1  0.69250900  0.57543100  0.10287300  1
  C  C5  1  0.40309300  0.94087600  0.52435100  1
  C  C6  1  0.90309300  0.05912400  0.97564900  1
  C  C7  1  0.75846800  0.20238900  0.64589600  1
  C  C8  1  0.56669700  0.78247900  0.90219700  1
  C  C9  1  0.80749100  0.57543100  0.60287300  1
  C  C10  1  0.70026100  0.05294700  0.36482300  1
  C  C11  1  0.29973900  0.94705300  0.63517700  1
  C  C12  1  0.43330300  0.21752100  0.09780300  1
  C  C13  1  0.25846800  0.79761100  0.85410400  1
  C  C14  1  0.38863700  0.27107600  0.25078900  1
  C  C15  1  0.52959300  0.38563100  0.39900000  1
  C  C16  1  0.88863700  0.72892400  0.24921100  1
  C  C17  1  0.12534600  0.72045700  0.46176200  1
  C  C18  1  0.17833900  0.61474600  0.06603200  1
  C  C19  1  0.20026100  0.94705300  0.13517700  1
  C  C20  1  0.62534600  0.27954300  0.03823800  1
  C  C21  1  0.93330300  0.78247900  0.40219700  1
  C  C22  1  0.47040700  0.61436900  0.60100000  1
  C  C23  1  0.61136300  0.72892400  0.74921100  1
  C  C24  1  0.02959300  0.61436900  0.10100000  1
  C  C25  1  0.97040700  0.38563100  0.89900000  1
  C  C26  1  0.09690700  0.94087600  0.02435100  1
  C  C27  1  0.82166100  0.38525400  0.93396800  1
  C  C28  1  0.41271100  0.91352800  0.20390800  1
  C  C29  1  0.30749100  0.42456900  0.89712700  1
  C  C30  1  0.91271100  0.08647200  0.29609200  1
  C  C31  1  0.24153200  0.79761100  0.35410400  1
  C  C32  1  0.58728900  0.08647200  0.79609200  1
  C  C33  1  0.74153200  0.20238900  0.14589600  1
  C  C34  1  0.59690700  0.05912400  0.47564900  1
  C  C35  1  0.67833900  0.38525400  0.43396800  1
  C  C36  1  0.32166100  0.61474600  0.56603200  1
  C  C37  1  0.79973900  0.05294700  0.86482300  1
  C  C38  1  0.87465400  0.27954300  0.53823800  1
  C  C39  1  0.19250900  0.42456900  0.39712700  1
  Se  Se0  1  0.08566100  0.99678900  0.32357600  1
  Se  Se1  1  0.63928800  0.45645000  0.26302700  1
  Se  Se2  1  0.54017900  0.99872500  0.30712000  1
  Se  Se3  1  0.41433900  0.99678900  0.82357600  1
  Se  Se4  1  0.36071200  0.54355000  0.73697300  1
  Se  Se5  1  0.86071200  0.45645000  0.76302700  1
  Se  Se6  1  0.95982100  0.99872500  0.80712000  1
  Se  Se7  1  0.04017900  0.00127500  0.19288000  1
  Se  Se8  1  0.58566100  0.00321100  0.17642400  1
  Se  Se9  1  0.46705300  0.52213700  0.82332000  1
  Se  Se10  1  0.96705300  0.47786300  0.67668000  1
  Se  Se11  1  0.91433900  0.00321100  0.67642400  1
  Se  Se12  1  0.13928800  0.54355000  0.23697300  1
  Se  Se13  1  0.45982100  0.00127500  0.69288000  1
  Se  Se14  1  0.53294700  0.47786300  0.17668000  1
  Se  Se15  1  0.03294700  0.52213700  0.32332000  1
  O  O0  1  0.78182900  0.48768900  0.96643600  1
  O  O1  1  0.41277100  0.03942900  0.46483000  1
  O  O2  1  0.60896300  0.24882500  0.97598000  1
  O  O3  1  0.78199900  0.73112500  0.58313100  1
  O  O4  1  0.41601800  0.25227500  0.03315700  1
  O  O5  1  0.89103700  0.24882500  0.47598000  1
  O  O6  1  0.28182900  0.51231100  0.53356400  1
  O  O7  1  0.71817100  0.48768900  0.46643600  1
  O  O8  1  0.39103700  0.75117500  0.02402000  1
  O  O9  1  0.70047800  0.12279100  0.65189700  1
  O  O10  1  0.25163900  0.05250800  0.14312000  1
  O  O11  1  0.75163900  0.94749200  0.35688000  1
  O  O12  1  0.29952200  0.87720900  0.34810300  1
  O  O13  1  0.84123700  0.65779800  0.21560400  1
  O  O14  1  0.28199900  0.26887500  0.91686900  1
  O  O15  1  0.91277100  0.96057100  0.03517000  1
  O  O16  1  0.08398200  0.25227500  0.53315700  1
  O  O17  1  0.34123700  0.34220200  0.28439600  1
  O  O18  1  0.58398200  0.74772500  0.96684300  1
  O  O19  1  0.38034100  0.76375100  0.20565600  1
  O  O20  1  0.65876300  0.65779800  0.71560400  1
  O  O21  1  0.91601800  0.74772500  0.46684300  1
  O  O22  1  0.08722900  0.03942900  0.96483000  1
  O  O23  1  0.71800100  0.73112500  0.08313100  1
  O  O24  1  0.47816200  0.48753800  0.40958800  1
  O  O25  1  0.10896300  0.75117500  0.52402000  1
  O  O26  1  0.24836100  0.05250800  0.64312000  1
  O  O27  1  0.79952200  0.12279100  0.15189700  1
  O  O28  1  0.58722900  0.96057100  0.53517000  1
  O  O29  1  0.74836100  0.94749200  0.85688000  1
  O  O30  1  0.21817100  0.51231100  0.03356400  1
  O  O31  1  0.11965900  0.76375100  0.70565600  1
  O  O32  1  0.02183800  0.48753800  0.90958800  1
  O  O33  1  0.52183800  0.51246200  0.59041200  1
  O  O34  1  0.97816200  0.51246200  0.09041200  1
  O  O35  1  0.88034100  0.23624900  0.29434400  1
  O  O36  1  0.20047800  0.87720900  0.84810300  1
  O  O37  1  0.61965900  0.23624900  0.79434400  1
  O  O38  1  0.21800100  0.26887500  0.41686900  1
  O  O39  1  0.15876300  0.34220200  0.78439600  1
loop_
_geom_bond_atom_site_label_1
_geom_bond_atom_site_label_2
_geom_bond_distance
_geom_bond_site_symmetry_2
Cr0 Se4 2.459459 1_555
Cr0 Se13 2.467645 1_565
Cr1 Se5 2.459459 1_555
Cr1 Se6 2.467645 1_545
Cr2 Se12 2.459459 1_555
Cr2 Se7 2.467645 1_565
Cr3 Se1 2.459459 1_555
Cr3 Se2 2.467645 1_545
Fe0 Se8 2.441742 1_555
Fe0 Se2 2.466797 1_545
Fe0 Se14 2.487426 1_555
Fe1 Se14 2.442187 1_555
Fe1 Se1 2.463753 1_555
Fe1 Se8 2.483923 1_555
Fe2 Se15 2.442187 1_555
Fe2 Se12 2.463753 1_555
Fe2 Se0 2.483923 1_555
Fe3 Se9 2.442187 1_555
Fe3 Se4 2.463753 1_555
Fe3 Se3 2.483923 1_555
Fe4 Se0 2.441742 1_655
Fe4 Se7 2.466797 1_665
Fe4 Se15 2.487426 1_655
Fe5 Se10 2.442187 1_555
Fe5 Se5 2.463753 1_555
Fe5 Se11 2.483923 1_555
Fe6 Se3 2.441742 1_555
Fe6 Se13 2.466797 1_565
Fe6 Se9 2.487426 1_555
Fe7 Se11 2.441742 1_455
Fe7 Se6 2.466797 1_445
Fe7 Se10 2.487426 1_455
C0 O31 1.149800 1_555
C0 Fe7 1.821411 1_565
C1 O16 1.154447 1_555
C1 Fe7 1.798778 1_555
C2 O39 1.151740 1_555
C2 Fe7 1.822276 1_555
C3 O8 1.154848 1_556
C3 Fe3 1.802353 1_555
C4 O23 1.148149 1_555
C4 Fe1 1.837340 1_555
C5 O1 1.166680 1_565
C5 Cr0 1.881017 1_555
C6 O15 1.166680 1_546
C6 Cr1 1.881017 1_555
C7 O9 1.151914 1_555
C7 Fe5 1.813626 1_555
C8 O18 1.154447 1_555
C8 Fe6 1.798778 1_555
C9 O3 1.148149 1_555
C9 Fe5 1.837340 1_555
C10 O11 1.165950 1_545
C10 Cr3 1.903249 1_555
C11 O26 1.165950 1_565
C11 Cr0 1.903249 1_555
C12 O4 1.154447 1_555
C12 Fe0 1.798778 1_555
C13 O36 1.151914 1_555
C13 Fe3 1.813626 1_555
C14 O17 1.151740 1_555
C14 Fe0 1.822276 1_555
C15 O24 1.161644 1_555
C15 Cr3 1.926094 1_555
C16 O13 1.151740 1_555
C16 Fe4 1.822276 1_555
C17 O25 1.154848 1_555
C17 Fe2 1.802353 1_555
C18 O30 1.169109 1_555
C18 Cr2 1.863031 1_555
C19 O10 1.165950 1_565
C19 Cr2 1.903249 1_555
C20 O2 1.154848 1_554
C20 Fe1 1.802353 1_555
C21 O21 1.154447 1_555
C21 Fe4 1.798778 1_555
C22 O33 1.161644 1_555
C22 Cr0 1.926094 1_555
C23 O20 1.151740 1_555
C23 Fe6 1.822276 1_555
C24 O34 1.161644 1_455
C24 Cr2 1.926094 1_555
C25 O32 1.161644 1_655
C25 Cr1 1.926094 1_555
C26 O22 1.166680 1_564
C26 Cr2 1.881017 1_555
C27 O0 1.169109 1_555
C27 Cr1 1.863031 1_555
C28 O19 1.149800 1_555
C28 Fe0 1.821411 1_565
C29 O14 1.148149 1_555
C29 Fe3 1.837340 1_555
C30 O35 1.149800 1_555
C30 Fe4 1.821411 1_545
C31 O12 1.151914 1_555
C31 Fe2 1.813626 1_555
C32 O37 1.149800 1_555
C32 Fe6 1.821411 1_545
C33 O27 1.151914 1_555
C33 Fe1 1.813626 1_555
C34 O28 1.166680 1_545
C34 Cr3 1.881017 1_555
C35 O7 1.169109 1_555
C35 Cr3 1.863031 1_555
C36 O6 1.169109 1_555
C36 Cr0 1.863031 1_555
C37 O29 1.165950 1_545
C37 Cr1 1.903249 1_555
C38 O5 1.154848 1_555
C38 Fe5 1.802353 1_555
C39 O38 1.148149 1_555
C39 Fe2 1.837340 1_555
Se0 Se7 2.392492 1_565
Se1 Se14 2.389992 1_555
Se2 Se8 2.392492 1_565
Se4 Se9 2.389992 1_555
Se10 Se5 2.389992 1_555
Se11 Se6 2.392492 1_545
Se12 Se15 2.389992 1_555
Se13 Se3 2.392492 1_545
