# generated using pymatgen
data_ZnH8(N2Cl)2
_symmetry_space_group_name_H-M   'P 1'
_cell_length_a   6.00165571
_cell_length_b   6.00165571
_cell_length_c   4.20228719
_cell_angle_alpha   78.86897938
_cell_angle_beta   78.86897938
_cell_angle_gamma   81.85604134
_symmetry_Int_Tables_number   1
_chemical_formula_structural   ZnH8(N2Cl)2
_chemical_formula_sum   'Zn1 H8 N4 Cl2'
_cell_volume   144.86528935
_cell_formula_units_Z   1
loop_
 _symmetry_equiv_pos_site_id
 _symmetry_equiv_pos_as_xyz
  1  'x, y, z'
loop_
 _atom_site_type_symbol
 _atom_site_label
 _atom_site_symmetry_multiplicity
 _atom_site_fract_x
 _atom_site_fract_y
 _atom_site_fract_z
 _atom_site_occupancy
  Zn  Zn0  1  0.00000000  0.00000000  0.00000000  1
  H  H0  1  0.99410800  0.31984200  0.45702500  1
  H  H1  1  0.31984200  0.99410800  0.45702500  1
  H  H2  1  0.00589200  0.68015800  0.54297500  1
  H  H3  1  0.68015800  0.00589200  0.54297500  1
  H  H4  1  0.74601300  0.36944300  0.70232100  1
  H  H5  1  0.36944300  0.74601300  0.70232100  1
  H  H6  1  0.25398700  0.63055700  0.29767900  1
  H  H7  1  0.63055700  0.25398700  0.29767900  1
  N  N0  1  0.85886100  0.24380500  0.60573200  1
  N  N1  1  0.24380500  0.85886100  0.60573200  1
  N  N2  1  0.14113900  0.75619500  0.39426800  1
  N  N3  1  0.75619500  0.14113900  0.39426800  1
  Cl  Cl0  1  0.28413200  0.28413200  0.99589200  1
  Cl  Cl1  1  0.71586800  0.71586800  0.00410800  1
loop_
_geom_bond_atom_site_label_1
_geom_bond_atom_site_label_2
_geom_bond_distance
_geom_bond_site_symmetry_2
H0 N0 1.027921 1_555
H1 N1 1.027921 1_555
H2 N2 1.027921 1_555
H3 N3 1.027921 1_555
H4 N0 1.029253 1_555
H5 N1 1.029253 1_555
H6 N2 1.029253 1_555
H7 N3 1.029253 1_555
N0 Zn0 2.204160 1_656
N1 Zn0 2.204160 1_566
N2 Zn0 2.204160 1_565
N3 Zn0 2.204160 1_655
Cl0 Zn0 2.572408 1_556
Cl1 Zn0 2.572408 1_665
