# generated using pymatgen
data_Sm2Ga9Ru5
_symmetry_space_group_name_H-M   'P 1'
_cell_length_a   6.16236223
_cell_length_b   6.16180584
_cell_length_c   8.04231187
_cell_angle_alpha   112.52357158
_cell_angle_beta   112.52645012
_cell_angle_gamma   90.00209176
_symmetry_Int_Tables_number   1
_chemical_formula_structural   Sm2Ga9Ru5
_chemical_formula_sum   'Sm2 Ga9 Ru5'
_cell_volume   256.67620275
_cell_formula_units_Z   1
loop_
 _symmetry_equiv_pos_site_id
 _symmetry_equiv_pos_as_xyz
  1  'x, y, z'
loop_
 _atom_site_type_symbol
 _atom_site_label
 _atom_site_symmetry_multiplicity
 _atom_site_fract_x
 _atom_site_fract_y
 _atom_site_fract_z
 _atom_site_occupancy
  Sm  Sm0  1  0.50183260  0.99863181  0.00040871  1
  Sm  Sm1  1  0.00115871  0.50030309  0.00047114  1
  Ga  Ga0  1  0.86046355  0.44125868  0.30182768  1
  Ga  Ga1  1  0.14233723  0.14012241  0.69934758  1
  Ga  Ga2  1  0.44381035  0.85825322  0.30212132  1
  Ga  Ga3  1  0.86050131  0.85820327  0.30236062  1
  Ga  Ga4  1  0.14218677  0.55663663  0.69879995  1
  Ga  Ga5  1  0.55910760  0.13991610  0.69903922  1
  Ga  Ga6  1  0.55866982  0.55642678  0.69849488  1
  Ga  Ga7  1  0.00173959  0.00036357  0.00041472  1
  Ga  Ga8  1  0.44329978  0.44107482  0.30157725  1
  Ru  Ru0  1  0.17972935  0.17739633  0.35755749  1
  Ru  Ru1  1  0.82283980  0.82052674  0.64325206  1
  Ru  Ru2  1  0.75131836  0.24914554  0.50048395  1
  Ru  Ru3  1  0.25135730  0.74907003  0.50043487  1
  Ru  Ru4  1  0.50130386  0.49898397  0.00045255  1
loop_
_geom_bond_atom_site_label_1
_geom_bond_atom_site_label_2
_geom_bond_distance
_geom_bond_site_symmetry_2
Ga0 Ga3 2.567493 1_555
Ga0 Ru0 2.568654 1_655
Ga0 Ga8 2.569943 1_555
Ga0 Ru2 2.584263 1_555
Ga0 Ru3 2.584902 1_655
Ga0 Ru4 2.729447 1_555
Ga0 Ga4 2.779592 1_655
Ga0 Ru1 2.937087 1_555
Ga0 Sm0 3.004750 1_545
Ga0 Sm1 3.007242 1_655
Ga1 Ga4 2.568170 1_555
Ga1 Ru1 2.568369 1_445
Ga1 Ga5 2.569241 1_555
Ga1 Ru2 2.585678 1_455
Ga1 Ru3 2.585922 1_545
Ga1 Ru4 2.727592 1_556
Ga1 Ga3 2.780173 1_445
Ga1 Ru0 2.937794 1_555
Ga1 Sm0 3.006271 1_546
Ga1 Sm1 3.007327 1_556
Ga2 Ga3 2.567064 1_555
Ga2 Ru0 2.568785 1_565
Ga2 Ga8 2.568899 1_555
Ga2 Ru3 2.583433 1_555
Ga2 Ru2 2.583955 1_565
Ga2 Ru4 2.730602 1_555
Ga2 Ga5 2.779274 1_565
Ga2 Ru1 2.935133 1_555
Ga2 Sm1 3.003430 1_555
Ga2 Sm0 3.006081 1_555
Ga3 Ru0 2.568456 1_665
Ga3 Ru3 2.583030 1_655
Ga3 Ru2 2.583662 1_565
Ga3 Ru4 2.731024 1_555
Ga3 Ru1 2.932408 1_555
Ga3 Sm1 3.003320 1_655
Ga3 Sm0 3.004733 1_555
Ga4 Ga6 2.567460 1_555
Ga4 Ru1 2.568943 1_455
Ga4 Ru3 2.583621 1_555
Ga4 Ru2 2.583860 1_455
Ga4 Ru4 2.730514 1_556
Ga4 Ru0 2.935828 1_555
Ga4 Sm1 3.003767 1_556
Ga4 Sm0 3.005366 1_556
Ga5 Ga6 2.568138 1_555
Ga5 Ru1 2.568690 1_545
Ga5 Ru2 2.584272 1_555
Ga5 Ru3 2.584459 1_545
Ga5 Ru4 2.729628 1_556
Ga5 Ru0 2.937274 1_555
Ga5 Sm0 3.004793 1_546
Ga5 Sm1 3.007321 1_656
Ga6 Ru1 2.569741 1_555
Ga6 Ru2 2.582444 1_555
Ga6 Ru3 2.582642 1_555
Ga6 Ru4 2.732006 1_556
Ga6 Ga8 2.779062 1_555
Ga6 Ru0 2.934836 1_555
Ga6 Sm1 3.003728 1_656
Ga6 Sm0 3.004281 1_556
Ga7 Ru0 2.414216 1_555
Ga7 Ru1 2.414342 1_444
Ga7 Sm1 3.080359 1_555
Ga7 Sm0 3.080607 1_445
Ga7 Sm1 3.081452 1_545
Ga7 Sm0 3.081792 1_545
Ga8 Ru0 2.569248 1_555
Ga8 Ru3 2.585095 1_555
Ga8 Ru2 2.585235 1_555
Ga8 Ru4 2.728590 1_555
Ga8 Ru1 2.939517 1_555
Ga8 Sm0 3.006598 1_545
Ga8 Sm1 3.007090 1_555
Ru4 Sm0 3.078870 1_555
Ru4 Sm1 3.080240 1_655
Ru4 Sm1 3.082144 1_555
Ru4 Sm0 3.082940 1_545
