# generated using pymatgen
data_CeAlPd
_symmetry_space_group_name_H-M   'P 1'
_cell_length_a   4.24141300
_cell_length_b   7.17328100
_cell_length_c   28.69365500
_cell_angle_alpha   90.00000000
_cell_angle_beta   90.00000000
_cell_angle_gamma   90.00000000
_symmetry_Int_Tables_number   1
_chemical_formula_structural   CeAlPd
_chemical_formula_sum   'Ce14 Al14 Pd14'
_cell_volume   873.00007145
_cell_formula_units_Z   14
loop_
 _symmetry_equiv_pos_site_id
 _symmetry_equiv_pos_as_xyz
  1  'x, y, z'
loop_
 _atom_site_type_symbol
 _atom_site_label
 _atom_site_symmetry_multiplicity
 _atom_site_fract_x
 _atom_site_fract_y
 _atom_site_fract_z
 _atom_site_occupancy
  Ce  Ce0  1  0.00000000  0.48782600  0.09137900  1
  Ce  Ce1  1  0.00000000  0.85721000  0.00000000  1
  Ce  Ce2  1  0.50000000  0.00655300  0.62314400  1
  Ce  Ce3  1  0.00000000  0.99344700  0.12314400  1
  Ce  Ce4  1  0.00000000  0.48782600  0.90862100  1
  Ce  Ce5  1  0.50000000  0.14279000  0.50000000  1
  Ce  Ce6  1  0.00000000  0.99344700  0.87685600  1
  Ce  Ce7  1  0.50000000  0.64173000  0.71704800  1
  Ce  Ce8  1  0.50000000  0.51217400  0.59137900  1
  Ce  Ce9  1  0.50000000  0.51217400  0.40862100  1
  Ce  Ce10  1  0.00000000  0.35827000  0.78295200  1
  Ce  Ce11  1  0.50000000  0.64173000  0.28295200  1
  Ce  Ce12  1  0.00000000  0.35827000  0.21704800  1
  Ce  Ce13  1  0.50000000  0.00655300  0.37685600  1
  Al  Al0  1  0.50000000  0.01141100  0.78530500  1
  Al  Al1  1  0.00000000  0.98858900  0.28530500  1
  Al  Al2  1  0.50000000  0.66013800  0.16589800  1
  Al  Al3  1  0.50000000  0.51095500  0.00000000  1
  Al  Al4  1  0.00000000  0.48904500  0.50000000  1
  Al  Al5  1  0.50000000  0.66013800  0.83410200  1
  Al  Al6  1  0.00000000  0.33986200  0.66589800  1
  Al  Al7  1  0.00000000  0.83517200  0.44994500  1
  Al  Al8  1  0.00000000  0.83517200  0.55005500  1
  Al  Al9  1  0.50000000  0.01141100  0.21469500  1
  Al  Al10  1  0.50000000  0.16482800  0.05005500  1
  Al  Al11  1  0.00000000  0.98858900  0.71469500  1
  Al  Al12  1  0.00000000  0.33986200  0.33410200  1
  Al  Al13  1  0.50000000  0.16482800  0.94994500  1
  Pd  Pd0  1  0.00000000  0.79136900  0.79086400  1
  Pd  Pd1  1  0.50000000  0.27590500  0.85327800  1
  Pd  Pd2  1  0.00000000  0.72409500  0.64672200  1
  Pd  Pd3  1  0.50000000  0.20863100  0.29086400  1
  Pd  Pd4  1  0.00000000  0.22124500  0.57232300  1
  Pd  Pd5  1  0.50000000  0.77875500  0.07232300  1
  Pd  Pd6  1  0.00000000  0.22124500  0.42767700  1
  Pd  Pd7  1  0.50000000  0.77875500  0.92767700  1
  Pd  Pd8  1  0.50000000  0.20863100  0.70913600  1
  Pd  Pd9  1  0.50000000  0.27590500  0.14672200  1
  Pd  Pd10  1  0.00000000  0.79136900  0.20913600  1
  Pd  Pd11  1  0.00000000  0.72409500  0.35327800  1
  Pd  Pd12  1  0.00000000  0.27851400  0.00000000  1
  Pd  Pd13  1  0.50000000  0.72148600  0.50000000  1
loop_
_geom_bond_atom_site_label_1
_geom_bond_atom_site_label_2
_geom_bond_distance
_geom_bond_site_symmetry_2
Ce0 Pd12 3.021462 1_555
Ce0 Pd5 3.025159 1_455
Ce0 Pd5 3.025159 1_555
Ce0 Pd9 3.054510 1_455
Ce0 Pd9 3.054510 1_555
Ce0 Ce3 3.661575 1_545
Ce0 Ce12 3.723736 1_555
Ce0 Ce1 3.727701 1_555
Ce0 Ce3 3.739732 1_555
Ce1 Pd5 3.020036 1_555
Ce1 Pd5 3.020036 1_455
Ce1 Pd7 3.020036 1_454
Ce1 Pd7 3.020036 1_554
Ce1 Pd12 3.022132 1_565
Ce1 Ce3 3.666105 1_555
Ce1 Ce6 3.666105 1_554
Ce1 Ce4 3.727701 1_554
Ce2 Pd8 2.861716 1_555
Ce2 Pd4 2.999267 1_555
Ce2 Pd4 2.999267 1_655
Ce2 Pd2 3.010048 1_645
Ce2 Pd2 3.010048 1_545
Ce2 Ce8 3.661575 1_545
Ce2 Ce5 3.666105 1_555
Ce2 Ce8 3.739732 1_555
Ce3 Pd10 2.861716 1_555
Ce3 Pd5 2.999267 1_555
Ce3 Pd5 2.999267 1_455
Ce3 Pd9 3.010048 1_465
Ce3 Pd9 3.010048 1_565
Ce4 Pd12 3.021462 1_556
Ce4 Pd7 3.025159 1_555
Ce4 Pd7 3.025159 1_455
Ce4 Pd1 3.054510 1_455
Ce4 Pd1 3.054510 1_555
Ce4 Ce6 3.661575 1_545
Ce4 Ce6 3.739732 1_555
Ce5 Pd6 3.020036 1_655
Ce5 Pd4 3.020036 1_555
Ce5 Pd4 3.020036 1_655
Ce5 Pd6 3.020036 1_555
Ce5 Pd13 3.022132 1_545
Ce5 Ce8 3.727701 1_555
Ce5 Ce9 3.727701 1_555
Ce6 Pd0 2.861716 1_555
Ce6 Pd7 2.999267 1_555
Ce6 Pd7 2.999267 1_455
Ce6 Pd1 3.010048 1_465
Ce6 Pd1 3.010048 1_565
Ce7 Pd2 2.986375 1_655
Ce7 Pd2 2.986375 1_555
Ce7 Pd8 3.115025 1_555
Ce7 Pd0 3.183666 1_555
Ce7 Pd0 3.183666 1_655
Ce7 Ce8 3.723736 1_555
Ce8 Pd13 3.021462 1_555
Ce8 Pd4 3.025159 1_555
Ce8 Pd4 3.025159 1_655
Ce8 Pd2 3.054510 1_655
Ce8 Pd2 3.054510 1_555
Ce9 Pd13 3.021462 1_555
Ce9 Pd6 3.025159 1_555
Ce9 Pd6 3.025159 1_655
Ce9 Pd11 3.054510 1_655
Ce9 Pd11 3.054510 1_555
Ce10 Pd1 2.986375 1_455
Ce10 Pd1 2.986375 1_555
Ce10 Pd0 3.115025 1_555
Ce10 Pd8 3.183666 1_455
Ce10 Pd8 3.183666 1_555
Ce10 Ce7 3.493972 1_455
Ce10 Ce7 3.493972 1_555
Ce10 Ce4 3.723736 1_555
Ce11 Pd11 2.986375 1_555
Ce11 Pd11 2.986375 1_655
Ce11 Pd3 3.115025 1_555
Ce11 Pd10 3.183666 1_555
Ce11 Pd10 3.183666 1_655
Ce11 Ce12 3.493972 1_555
Ce11 Ce12 3.493972 1_655
Ce11 Ce9 3.723736 1_555
Ce12 Pd9 2.986375 1_455
Ce12 Pd9 2.986375 1_555
Ce12 Pd10 3.115025 1_555
Ce12 Pd3 3.183666 1_455
Ce12 Pd3 3.183666 1_555
Ce13 Pd3 2.861716 1_555
Ce13 Pd6 2.999267 1_555
Ce13 Pd6 2.999267 1_655
Ce13 Pd11 3.010048 1_645
Ce13 Pd11 3.010048 1_545
Ce13 Ce9 3.661575 1_545
Ce13 Ce5 3.666105 1_555
Ce13 Ce9 3.739732 1_555
Al0 Pd8 2.603482 1_555
Al0 Pd0 2.648445 1_545
Al0 Pd0 2.648445 1_645
Al0 Pd1 2.720982 1_555
Al0 Al5 2.882664 1_545
Al0 Al11 2.937535 1_545
Al0 Al11 2.937535 1_645
Al0 Ce10 3.269967 1_555
Al0 Ce10 3.269967 1_655
Al0 Ce7 3.296676 1_545
Al0 Ce6 3.378576 1_545
Al0 Ce6 3.378576 1_645
Al1 Pd10 2.603482 1_555
Al1 Pd3 2.648445 1_565
Al1 Pd3 2.648445 1_465
Al1 Pd11 2.720982 1_555
Al1 Al12 2.882664 1_565
Al1 Al9 2.937535 1_565
Al1 Al9 2.937535 1_465
Al1 Ce11 3.269967 1_455
Al1 Ce11 3.269967 1_555
Al1 Ce12 3.296676 1_565
Al1 Ce13 3.378576 1_565
Al1 Ce13 3.378576 1_465
Al2 Pd10 2.631117 1_555
Al2 Pd10 2.631117 1_655
Al2 Pd9 2.810597 1_555
Al2 Pd5 2.816604 1_555
Al2 Al9 2.882664 1_565
Al2 Ce0 3.255333 1_555
Al2 Ce0 3.255333 1_655
Al2 Ce11 3.361302 1_555
Al2 Ce12 3.367547 1_655
Al2 Ce12 3.367547 1_555
Al2 Ce3 3.423281 1_555
Al2 Ce3 3.423281 1_655
Al3 Pd12 2.697684 1_555
Al3 Pd12 2.697684 1_655
Al3 Pd5 2.827854 1_555
Al3 Pd7 2.827854 1_554
Al3 Ce1 3.265973 1_655
Al3 Ce1 3.265973 1_555
Al3 Ce4 3.376358 1_654
Al3 Ce0 3.376358 1_655
Al3 Ce4 3.376358 1_554
Al3 Ce0 3.376358 1_555
Al4 Pd13 2.697684 1_455
Al4 Pd13 2.697684 1_555
Al4 Pd6 2.827854 1_555
Al4 Pd4 2.827854 1_555
Al4 Al8 2.868357 1_555
Al4 Al7 2.868357 1_555
Al4 Ce5 3.265973 1_455
Al4 Ce5 3.265973 1_555
Al4 Ce8 3.376358 1_455
Al4 Ce8 3.376358 1_555
Al4 Ce9 3.376358 1_555
Al4 Ce9 3.376358 1_455
Al5 Pd0 2.631117 1_655
Al5 Pd0 2.631117 1_555
Al5 Pd1 2.810597 1_555
Al5 Pd7 2.816604 1_555
Al5 Ce4 3.255333 1_555
Al5 Ce4 3.255333 1_655
Al5 Ce7 3.361302 1_555
Al5 Ce10 3.367547 1_555
Al5 Ce10 3.367547 1_655
Al5 Ce6 3.423281 1_655
Al5 Ce6 3.423281 1_555
Al6 Pd8 2.631117 1_555
Al6 Pd8 2.631117 1_455
Al6 Pd2 2.810597 1_555
Al6 Pd4 2.816604 1_555
Al6 Ce8 3.255333 1_455
Al6 Ce8 3.255333 1_555
Al6 Ce10 3.361302 1_555
Al6 Ce7 3.367547 1_555
Al6 Ce7 3.367547 1_455
Al6 Ce2 3.423281 1_455
Al6 Ce2 3.423281 1_555
Al7 Pd13 2.687989 1_555
Al7 Pd13 2.687989 1_455
Al7 Pd6 2.842163 1_565
Al7 Al8 2.872522 1_555
Al7 Pd11 2.885904 1_555
Al7 Ce13 3.225979 1_465
Al7 Ce13 3.225979 1_565
Al7 Ce9 3.357328 1_455
Al7 Ce9 3.357328 1_555
Al7 Ce5 3.380748 1_565
Al7 Ce5 3.380748 1_465
Al8 Pd13 2.687989 1_455
Al8 Pd13 2.687989 1_555
Al8 Pd4 2.842163 1_565
Al8 Pd2 2.885904 1_555
Al8 Ce2 3.225979 1_565
Al8 Ce2 3.225979 1_465
Al8 Ce8 3.357328 1_455
Al8 Ce8 3.357328 1_555
Al8 Ce5 3.380748 1_565
Al8 Ce5 3.380748 1_465
Al9 Pd3 2.603482 1_555
Al9 Pd10 2.648445 1_545
Al9 Pd10 2.648445 1_645
Al9 Pd9 2.720982 1_555
Al9 Ce12 3.269967 1_555
Al9 Ce12 3.269967 1_655
Al9 Ce11 3.296676 1_545
Al9 Ce3 3.378576 1_645
Al9 Ce3 3.378576 1_545
Al10 Pd12 2.687989 1_655
Al10 Pd12 2.687989 1_555
Al10 Pd5 2.842163 1_545
Al10 Al3 2.868357 1_555
Al10 Al13 2.872522 1_554
Al10 Pd9 2.885904 1_555
Al10 Ce3 3.225979 1_545
Al10 Ce3 3.225979 1_645
Al10 Ce0 3.357328 1_555
Al10 Ce0 3.357328 1_655
Al10 Ce1 3.380748 1_645
Al10 Ce1 3.380748 1_545
Al11 Pd0 2.603482 1_555
Al11 Pd8 2.648445 1_565
Al11 Pd8 2.648445 1_465
Al11 Pd2 2.720982 1_555
Al11 Al6 2.882664 1_565
Al11 Ce7 3.269967 1_455
Al11 Ce7 3.269967 1_555
Al11 Ce10 3.296676 1_565
Al11 Ce2 3.378576 1_565
Al11 Ce2 3.378576 1_465
Al12 Pd3 2.631117 1_455
Al12 Pd3 2.631117 1_555
Al12 Pd11 2.810597 1_555
Al12 Pd6 2.816604 1_555
Al12 Ce9 3.255333 1_455
Al12 Ce9 3.255333 1_555
Al12 Ce12 3.361302 1_555
Al12 Ce11 3.367547 1_555
Al12 Ce11 3.367547 1_455
Al12 Ce13 3.423281 1_455
Al12 Ce13 3.423281 1_555
Al13 Pd12 2.687989 1_656
Al13 Pd12 2.687989 1_556
Al13 Pd7 2.842163 1_545
Al13 Al3 2.868357 1_556
Al13 Pd1 2.885904 1_555
Al13 Ce6 3.225979 1_645
Al13 Ce6 3.225979 1_545
Al13 Ce4 3.357328 1_655
Al13 Ce4 3.357328 1_555
Al13 Ce1 3.380748 1_646
Al13 Ce1 3.380748 1_546
