# generated using pymatgen
data_C2F
_symmetry_space_group_name_H-M   'P 1'
_cell_length_a   12.44841546
_cell_length_b   12.44841546
_cell_length_c   12.44841516
_cell_angle_alpha   113.42186359
_cell_angle_beta   113.42186359
_cell_angle_gamma   113.42186228
_symmetry_Int_Tables_number   1
_chemical_formula_structural   C2F
_chemical_formula_sum   'C72 F36'
_cell_volume   1220.60308262
_cell_formula_units_Z   36
loop_
 _symmetry_equiv_pos_site_id
 _symmetry_equiv_pos_as_xyz
  1  'x, y, z'
loop_
 _atom_site_type_symbol
 _atom_site_label
 _atom_site_symmetry_multiplicity
 _atom_site_fract_x
 _atom_site_fract_y
 _atom_site_fract_z
 _atom_site_occupancy
  C  C0  1  0.88474100  0.22416600  0.07105500  1
  C  C1  1  0.75929600  0.13336200  0.25108900  1
  C  C2  1  0.77797100  0.94803700  0.63554800  1
  C  C3  1  0.67748200  0.67783800  0.89607500  1
  C  C4  1  0.28609200  0.40737400  0.29167100  1
  C  C5  1  0.83786600  0.60982200  0.81174200  1
  C  C6  1  0.52102000  0.31864800  0.08910400  1
  C  C7  1  0.13336200  0.25108900  0.75929600  1
  C  C8  1  0.40737400  0.29167100  0.28609200  1
  C  C9  1  0.18825800  0.16213400  0.39017800  1
  C  C10  1  0.80119600  0.69954000  0.99747700  1
  C  C11  1  0.39017800  0.18825800  0.16213400  1
  C  C12  1  0.36477900  0.37303500  0.25005100  1
  C  C13  1  0.94972900  0.21245200  0.90012500  1
  C  C14  1  0.90012500  0.94972900  0.21245200  1
  C  C15  1  0.59262700  0.70832900  0.71390800  1
  C  C16  1  0.69954000  0.99747700  0.80119600  1
  C  C17  1  0.68135200  0.91089600  0.47898000  1
  C  C18  1  0.67154000  0.95788800  0.88599000  1
  C  C19  1  0.88599000  0.67154000  0.95788800  1
  C  C20  1  0.32216200  0.10392500  0.32251800  1
  C  C21  1  0.71390800  0.59262600  0.70832900  1
  C  C22  1  0.95788800  0.88599000  0.67154000  1
  C  C23  1  0.21245200  0.90012500  0.94972900  1
  C  C24  1  0.11401000  0.32846000  0.04211200  1
  C  C25  1  0.32251800  0.32216200  0.10392500  1
  C  C26  1  0.29167100  0.28609200  0.40737400  1
  C  C27  1  0.17593600  0.82566900  0.08996900  1
  C  C28  1  0.00252300  0.19880400  0.30046000  1
  C  C29  1  0.82566900  0.08996900  0.17593600  1
  C  C30  1  0.62696500  0.74994900  0.63522100  1
  C  C31  1  0.92894500  0.11525900  0.77583400  1
  C  C32  1  0.63554800  0.77797100  0.94803700  1
  C  C33  1  0.19880400  0.30046000  0.00252300  1
  C  C34  1  0.07105500  0.88474100  0.22416600  1
  C  C35  1  0.91089600  0.47898000  0.68135200  1
  C  C36  1  0.25005100  0.36477900  0.37303500  1
  C  C37  1  0.31864800  0.08910400  0.52102000  1
  C  C38  1  0.89607500  0.67748200  0.67783800  1
  C  C39  1  0.10392500  0.32251800  0.32216200  1
  C  C40  1  0.09987500  0.05027100  0.78754800  1
  C  C41  1  0.36445200  0.22202900  0.05196300  1
  C  C42  1  0.77583400  0.92894500  0.11525900  1
  C  C43  1  0.22202900  0.05196300  0.36445200  1
  C  C44  1  0.78754800  0.09987500  0.05027100  1
  C  C45  1  0.22416600  0.07105500  0.88474100  1
  C  C46  1  0.47898000  0.68135200  0.91089600  1
  C  C47  1  0.91003100  0.82406400  0.17433100  1
  C  C48  1  0.37303500  0.25005100  0.36477900  1
  C  C49  1  0.05027100  0.78754800  0.09987500  1
  C  C50  1  0.25108900  0.75929600  0.13336200  1
  C  C51  1  0.04211200  0.11401000  0.32846000  1
  C  C52  1  0.81174200  0.83786600  0.60982200  1
  C  C53  1  0.74891100  0.24070400  0.86663800  1
  C  C54  1  0.17433100  0.91003100  0.82406400  1
  C  C55  1  0.08910400  0.52102000  0.31864800  1
  C  C56  1  0.32846000  0.04211200  0.11401000  1
  C  C57  1  0.67783800  0.89607500  0.67748200  1
  C  C58  1  0.30046000  0.00252300  0.19880400  1
  C  C59  1  0.74994900  0.63522100  0.62696500  1
  C  C60  1  0.99747700  0.80119600  0.69954000  1
  C  C61  1  0.94803700  0.63554800  0.77797100  1
  C  C62  1  0.05196300  0.36445200  0.22202900  1
  C  C63  1  0.63522100  0.62696500  0.74994900  1
  C  C64  1  0.11525900  0.77583400  0.92894500  1
  C  C65  1  0.08996900  0.17593600  0.82566900  1
  C  C66  1  0.82406400  0.17433100  0.91003100  1
  C  C67  1  0.60982200  0.81174200  0.83786600  1
  C  C68  1  0.24070400  0.86663800  0.74891100  1
  C  C69  1  0.70832900  0.71390800  0.59262600  1
  C  C70  1  0.16213400  0.39017800  0.18825800  1
  C  C71  1  0.86663800  0.74891100  0.24070400  1
  F  F0  1  0.49635700  0.66560900  0.01642200  1
  F  F1  1  0.39770300  0.95984700  0.85566200  1
  F  F2  1  0.28206800  0.32083200  0.82114400  1
  F  F3  1  0.20594300  0.87939900  0.63891200  1
  F  F4  1  0.98357800  0.50364300  0.33439100  1
  F  F5  1  0.76753900  0.37368000  0.53567300  1
  F  F6  1  0.50364300  0.33439100  0.98357800  1
  F  F7  1  0.53567300  0.76753900  0.37368000  1
  F  F8  1  0.58543200  0.25311400  0.09457000  1
  F  F9  1  0.32083200  0.82114400  0.28206800  1
  F  F10  1  0.23246100  0.62632000  0.46432700  1
  F  F11  1  0.85566200  0.39770300  0.95984700  1
  F  F12  1  0.66560900  0.01642200  0.49635700  1
  F  F13  1  0.09457000  0.58543200  0.25311400  1
  F  F14  1  0.95984700  0.85566200  0.39770300  1
  F  F15  1  0.87939900  0.63891200  0.20594300  1
  F  F16  1  0.12060100  0.36108800  0.79405700  1
  F  F17  1  0.74688600  0.90543000  0.41456800  1
  F  F18  1  0.04015300  0.14433800  0.60229700  1
  F  F19  1  0.62632000  0.46432700  0.23246100  1
  F  F20  1  0.25311400  0.09457000  0.58543200  1
  F  F21  1  0.60229700  0.04015300  0.14433800  1
  F  F22  1  0.36108800  0.79405700  0.12060100  1
  F  F23  1  0.14433800  0.60229700  0.04015300  1
  F  F24  1  0.17885600  0.71793200  0.67916800  1
  F  F25  1  0.46432700  0.23246100  0.62632000  1
  F  F26  1  0.63891200  0.20594300  0.87939900  1
  F  F27  1  0.41456800  0.74688600  0.90543000  1
  F  F28  1  0.79405700  0.12060100  0.36108800  1
  F  F29  1  0.01642200  0.49635700  0.66560900  1
  F  F30  1  0.82114400  0.28206800  0.32083200  1
  F  F31  1  0.67916800  0.17885600  0.71793200  1
  F  F32  1  0.33439100  0.98357800  0.50364300  1
  F  F33  1  0.37368000  0.53567300  0.76753900  1
  F  F34  1  0.71793200  0.67916800  0.17885600  1
  F  F35  1  0.90543000  0.41456800  0.74688600  1
loop_
_geom_bond_atom_site_label_1
_geom_bond_atom_site_label_2
_geom_bond_distance
_geom_bond_site_symmetry_2
C0 C44 1.367251 1_555
C0 C62 1.518426 1_655
C0 C66 1.551963 1_554
C1 F30 1.353205 1_555
C1 F21 1.355924 1_555
C1 F28 1.357946 1_555
C1 C29 1.554755 1_555
C2 C31 1.518426 1_565
C2 C52 1.541558 1_555
C2 C57 1.545766 1_555
C3 C63 1.430123 1_555
C3 C32 1.545766 1_555
C4 C70 1.422405 1_555
C5 C61 1.541558 1_555
C6 F6 1.350291 1_554
C6 F8 1.354201 1_555
C6 F19 1.367220 1_555
C7 F2 1.353205 1_555
C7 F18 1.355924 1_555
C7 F16 1.357946 1_555
C10 C3 1.375055 1_555
C10 C19 1.431097 1_555
C10 C47 1.526874 1_556
C11 C56 1.383982 1_555
C11 C8 1.422405 1_555
C11 C41 1.541558 1_555
C12 C4 1.403887 1_555
C12 C25 1.430123 1_555
C12 C8 1.451692 1_555
C13 C31 1.367251 1_555
C13 C24 1.463241 1_656
C13 C66 1.515667 1_555
C14 C42 1.367251 1_555
C14 C51 1.463241 1_665
C14 C47 1.515667 1_555
C15 C30 1.403882 1_555
C15 C67 1.422413 1_555
C15 C63 1.451685 1_555
C16 C57 1.375055 1_555
C16 C18 1.431097 1_555
C16 C66 1.526874 1_565
C17 F12 1.350291 1_565
C17 F17 1.354201 1_555
C17 F7 1.367220 1_555
C17 C2 1.561079 1_555
C18 C67 1.383982 1_555
C18 C44 1.463241 1_566
C19 C5 1.383982 1_555
C19 C49 1.463241 1_656
C20 C58 1.375055 1_555
C20 C48 1.430123 1_555
C20 C43 1.545766 1_555
C21 C63 1.403887 1_555
C21 C5 1.422405 1_555
C21 C59 1.451692 1_555
C22 C52 1.383982 1_555
C22 C60 1.431097 1_555
C22 C40 1.463241 1_665
C23 C64 1.367251 1_555
C23 C56 1.463241 1_566
C23 C54 1.515667 1_555
C24 C70 1.383982 1_555
C24 C33 1.431097 1_555
C25 C33 1.375055 1_555
C25 C41 1.545766 1_555
C26 C36 1.403887 1_555
C26 C9 1.422405 1_555
C26 C48 1.451692 1_555
C27 C49 1.515667 1_555
C27 C58 1.526874 1_565
C27 C64 1.551963 1_554
C27 C50 1.554755 1_555
C28 C39 1.375055 1_555
C28 C51 1.431097 1_555
C28 C29 1.526874 1_455
C29 C44 1.515667 1_555
C29 C42 1.551963 1_545
C30 C57 1.430123 1_555
C30 C69 1.451692 1_555
C31 C65 1.551963 1_655
C32 C42 1.518426 1_556
C32 C67 1.541558 1_555
C32 C46 1.561079 1_555
C33 C65 1.526874 1_554
C34 C49 1.367251 1_555
C34 C43 1.518426 1_565
C34 C47 1.551963 1_455
C35 F29 1.350291 1_655
C35 F35 1.354201 1_555
C35 F5 1.367220 1_555
C35 C61 1.561079 1_555
C36 C39 1.430123 1_555
C36 C4 1.451692 1_555
C37 F32 1.350291 1_545
C37 F20 1.354201 1_555
C37 F25 1.367220 1_555
C37 C43 1.561079 1_555
C38 C60 1.375055 1_555
C38 C59 1.430123 1_555
C38 C61 1.545766 1_555
C39 C62 1.545766 1_555
C40 C45 1.367251 1_555
C40 C65 1.515667 1_555
C41 C45 1.518426 1_554
C41 C6 1.561079 1_555
C43 C9 1.541558 1_555
C45 C54 1.551963 1_545
C46 F0 1.350291 1_556
C46 F27 1.354201 1_555
C46 F33 1.367220 1_555
C47 C71 1.554755 1_555
C48 C8 1.403887 1_555
C50 F9 1.353204 1_555
C50 F23 1.355924 1_555
C50 F22 1.357946 1_555
C51 C9 1.383982 1_555
C52 C69 1.422405 1_555
C53 F31 1.353204 1_555
C53 F11 1.355924 1_555
C53 F26 1.357946 1_555
C53 C66 1.554755 1_555
C54 C60 1.526874 1_455
C54 C68 1.554755 1_555
C55 F4 1.350291 1_455
C55 F13 1.354201 1_555
C55 F10 1.367220 1_555
C55 C62 1.561079 1_555
C56 C58 1.431097 1_555
C59 C69 1.403887 1_555
C61 C64 1.518426 1_655
C62 C70 1.541558 1_555
C65 C7 1.554755 1_555
C68 F24 1.353205 1_555
C68 F1 1.355924 1_555
C68 F3 1.357946 1_555
C71 F34 1.353205 1_555
C71 F14 1.355924 1_555
C71 F15 1.357946 1_555
