# generated using pymatgen
data_Pr2PbSe4
_symmetry_space_group_name_H-M   'P 1'
_cell_length_a   7.88259672
_cell_length_b   7.88259672
_cell_length_c   7.88259672
_cell_angle_alpha   109.47295363
_cell_angle_beta   109.47295363
_cell_angle_gamma   109.46775470
_symmetry_Int_Tables_number   1
_chemical_formula_structural   Pr2PbSe4
_chemical_formula_sum   'Pr4 Pb2 Se8'
_cell_volume   377.03878920
_cell_formula_units_Z   2
loop_
 _symmetry_equiv_pos_site_id
 _symmetry_equiv_pos_as_xyz
  1  'x, y, z'
loop_
 _atom_site_type_symbol
 _atom_site_label
 _atom_site_symmetry_multiplicity
 _atom_site_fract_x
 _atom_site_fract_y
 _atom_site_fract_z
 _atom_site_occupancy
  Pr  Pr0  1  0.74292700  0.12500000  0.11792700  1
  Pr  Pr1  1  0.37500000  0.25707300  0.38207300  1
  Pr  Pr2  1  0.00707300  0.62500000  0.88207300  1
  Pr  Pr3  1  0.87500000  0.99292700  0.61792700  1
  Pb  Pb0  1  0.50000000  0.50000000  0.00000000  1
  Pb  Pb1  1  0.25000000  0.75000000  0.50000000  1
  Se  Se0  1  0.26786600  0.01954800  0.90172000  1
  Se  Se1  1  0.76954800  0.51786600  0.40172000  1
  Se  Se2  1  0.98045200  0.88217200  0.24831800  1
  Se  Se3  1  0.63385400  0.73213400  0.75168200  1
  Se  Se4  1  0.11614600  0.36782800  0.59828000  1
  Se  Se5  1  0.63217200  0.23045200  0.74831800  1
  Se  Se6  1  0.48213400  0.88385400  0.25168200  1
  Se  Se7  1  0.11782800  0.36614600  0.09828000  1
loop_
_geom_bond_atom_site_label_1
_geom_bond_atom_site_label_2
_geom_bond_distance
_geom_bond_site_symmetry_2
Pr0 Se6 3.021180 1_545
Pr0 Se7 3.021180 1_655
Pr0 Se1 3.045254 1_555
Pr0 Se3 3.045254 1_544
Pr0 Se5 3.216212 1_554
Pr0 Se0 3.216212 1_554
Pr0 Se4 3.262401 1_655
Pr0 Se2 3.262401 1_545
Pr1 Se1 3.021180 1_555
Pr1 Se2 3.021180 1_445
Pr1 Se5 3.045254 1_555
Pr1 Se7 3.045254 1_555
Pr1 Se3 3.216212 1_555
Pr1 Se4 3.216212 1_555
Pr1 Se6 3.262401 1_545
Pr1 Se0 3.262401 1_554
Pr2 Se0 3.021180 1_565
Pr2 Se5 3.021180 1_455
Pr2 Se4 3.045254 1_555
Pr2 Se2 3.045254 1_456
Pr2 Se7 3.216212 1_556
Pr2 Se6 3.216212 1_556
Pr2 Se3 3.262401 1_455
Pr2 Se1 3.262401 1_455
Pr3 Se3 3.021180 1_555
Pr3 Se4 3.021180 1_665
Pr3 Se0 3.045254 1_665
Pr3 Se6 3.045254 1_555
Pr3 Se1 3.216212 1_555
Pr3 Se2 3.216212 1_555
Pr3 Se7 3.262401 1_666
Pr3 Se5 3.262401 1_565
Pb0 Se5 3.095005 1_554
Pb0 Se1 3.095005 1_555
Pb0 Se4 3.095005 1_554
Pb0 Se6 3.095005 1_555
Pb0 Se2 3.281912 1_555
Pb0 Se3 3.281912 1_554
Pb0 Se0 3.281912 1_554
Pb0 Se7 3.281912 1_555
Pb1 Se7 3.095005 1_555
Pb1 Se2 3.095005 1_455
Pb1 Se0 3.095005 1_565
Pb1 Se3 3.095005 1_555
Pb1 Se1 3.281912 1_455
Pb1 Se6 3.281912 1_555
Pb1 Se5 3.281912 1_565
Pb1 Se4 3.281912 1_555
