# generated using pymatgen
data_Cs2As8S13
_symmetry_space_group_name_H-M   'P 1'
_cell_length_a   12.21050278
_cell_length_b   18.93173684
_cell_length_c   23.77544894
_cell_angle_alpha   90.00000000
_cell_angle_beta   90.00000000
_cell_angle_gamma   90.00000000
_symmetry_Int_Tables_number   1
_chemical_formula_structural   Cs2As8S13
_chemical_formula_sum   'Cs16 As64 S104'
_cell_volume   5496.07603154
_cell_formula_units_Z   8
loop_
 _symmetry_equiv_pos_site_id
 _symmetry_equiv_pos_as_xyz
  1  'x, y, z'
loop_
 _atom_site_type_symbol
 _atom_site_label
 _atom_site_symmetry_multiplicity
 _atom_site_fract_x
 _atom_site_fract_y
 _atom_site_fract_z
 _atom_site_occupancy
  Cs  Cs0  1  0.95174477  0.80347435  0.63285886  1
  Cs  Cs1  1  0.45174477  0.30347435  0.86714114  1
  Cs  Cs2  1  0.04548750  0.70289122  0.37860057  1
  Cs  Cs3  1  0.04548750  0.29710878  0.12139943  1
  Cs  Cs4  1  0.95451250  0.29710878  0.62139943  1
  Cs  Cs5  1  0.45451250  0.20289122  0.62139943  1
  Cs  Cs6  1  0.45451250  0.79710878  0.87860057  1
  Cs  Cs7  1  0.45174477  0.69652565  0.63285886  1
  Cs  Cs8  1  0.54548750  0.20289122  0.12139943  1
  Cs  Cs9  1  0.54825523  0.69652565  0.13285886  1
  Cs  Cs10  1  0.04825523  0.80347435  0.13285886  1
  Cs  Cs11  1  0.54825523  0.30347435  0.36714114  1
  Cs  Cs12  1  0.95174477  0.19652565  0.86714114  1
  Cs  Cs13  1  0.95451250  0.70289122  0.87860057  1
  Cs  Cs14  1  0.54548750  0.79710878  0.37860057  1
  Cs  Cs15  1  0.04825523  0.19652565  0.36714114  1
  As  As0  1  0.64948937  0.91708561  0.56015850  1
  As  As1  1  0.34482470  0.57923755  0.96678285  1
  As  As2  1  0.62300601  0.97086466  0.06207906  1
  As  As3  1  0.91601308  0.07052777  0.19103391  1
  As  As4  1  0.34482470  0.42076245  0.53321715  1
  As  As5  1  0.19835618  0.43848977  0.30206429  1
  As  As6  1  0.58398692  0.42947223  0.69103391  1
  As  As7  1  0.85051063  0.41708561  0.43984150  1
  As  As8  1  0.41601308  0.42947223  0.19103391  1
  As  As9  1  0.87699399  0.52913534  0.56207906  1
  As  As10  1  0.84482470  0.92076245  0.96678285  1
  As  As11  1  0.27837558  0.41630802  0.67434675  1
  As  As12  1  0.58398692  0.57052777  0.80896609  1
  As  As13  1  0.40521734  0.08870936  0.29047224  1
  As  As14  1  0.12644001  0.90934258  0.96241041  1
  As  As15  1  0.30164382  0.93848977  0.69793571  1
  As  As16  1  0.30164382  0.06151023  0.80206429  1
  As  As17  1  0.40521734  0.91129064  0.20952776  1
  As  As18  1  0.15517530  0.07923755  0.03321715  1
  As  As19  1  0.80164382  0.56151023  0.69793571  1
  As  As20  1  0.59478266  0.08870936  0.79047224  1
  As  As21  1  0.77837558  0.91630802  0.82565325  1
  As  As22  1  0.22162442  0.91630802  0.32565325  1
  As  As23  1  0.65517530  0.42076245  0.03321715  1
  As  As24  1  0.87699399  0.47086466  0.93792094  1
  As  As25  1  0.69835618  0.06151023  0.30206429  1
  As  As26  1  0.12300601  0.52913534  0.06207906  1
  As  As27  1  0.90521734  0.58870936  0.20952776  1
  As  As28  1  0.62300601  0.02913534  0.43792094  1
  As  As29  1  0.72162442  0.41630802  0.17434675  1
  As  As30  1  0.37699399  0.97086466  0.56207906  1
  As  As31  1  0.15517530  0.92076245  0.46678285  1
  As  As32  1  0.91601308  0.92947223  0.30896609  1
  As  As33  1  0.37355999  0.40934258  0.03758959  1
  As  As34  1  0.72162442  0.58369198  0.32565325  1
  As  As35  1  0.59478266  0.91129064  0.70952776  1
  As  As36  1  0.27837558  0.58369198  0.82565325  1
  As  As37  1  0.12300601  0.47086466  0.43792094  1
  As  As38  1  0.12644001  0.09065742  0.53758959  1
  As  As39  1  0.65517530  0.57923755  0.46678285  1
  As  As40  1  0.62644001  0.40934258  0.53758959  1
  As  As41  1  0.87355999  0.90934258  0.46241041  1
  As  As42  1  0.37355999  0.59065742  0.46241041  1
  As  As43  1  0.09478266  0.58870936  0.70952776  1
  As  As44  1  0.19835618  0.56151023  0.19793571  1
  As  As45  1  0.87355999  0.09065742  0.03758959  1
  As  As46  1  0.84482470  0.07923755  0.53321715  1
  As  As47  1  0.09478266  0.41129064  0.79047224  1
  As  As48  1  0.80164382  0.43848977  0.80206429  1
  As  As49  1  0.85051063  0.58291439  0.06015850  1
  As  As50  1  0.08398692  0.92947223  0.80896609  1
  As  As51  1  0.69835618  0.93848977  0.19793571  1
  As  As52  1  0.77837558  0.08369198  0.67434675  1
  As  As53  1  0.35051063  0.08291439  0.43984150  1
  As  As54  1  0.14948937  0.58291439  0.56015850  1
  As  As55  1  0.14948937  0.41708561  0.93984150  1
  As  As56  1  0.41601308  0.57052777  0.30896609  1
  As  As57  1  0.62644001  0.59065742  0.96241041  1
  As  As58  1  0.90521734  0.41129064  0.29047224  1
  As  As59  1  0.64948937  0.08291439  0.93984150  1
  As  As60  1  0.35051063  0.91708561  0.06015850  1
  As  As61  1  0.22162442  0.08369198  0.17434675  1
  As  As62  1  0.37699399  0.02913534  0.93792094  1
  As  As63  1  0.08398692  0.07052777  0.69103391  1
  S  S0  1  0.48270552  0.00612312  0.63203998  1
  S  S1  1  0.92993073  0.99345396  0.90933798  1
  S  S2  1  0.25222018  0.15054230  0.09666639  1
  S  S3  1  0.16888174  0.85967480  0.87571257  1
  S  S4  1  0.98381962  0.16099697  0.51097918  1
  S  S5  1  0.74697119  0.16550679  0.99326795  1
  S  S6  1  0.98381962  0.83900303  0.98902082  1
  S  S7  1  0.82543807  0.66517681  0.27557870  1
  S  S8  1  0.74715101  0.10120767  0.38896095  1
  S  S9  1  0.48270552  0.99387688  0.86796002  1
  S  S10  1  0.48706819  0.11628231  0.97941771  1
  S  S11  1  0.06914466  0.13398929  0.21624904  1
  S  S12  1  0.98270552  0.50612312  0.86796002  1
  S  S13  1  0.01729448  0.49387688  0.13203998  1
  S  S14  1  0.98706819  0.61628231  0.52058229  1
  S  S15  1  0.93085534  0.86601071  0.78375096  1
  S  S16  1  0.01618038  0.83900303  0.48902082  1
  S  S17  1  0.01618038  0.16099697  0.01097918  1
  S  S18  1  0.24715101  0.39879233  0.38896095  1
  S  S19  1  0.92993073  0.00654604  0.59066202  1
  S  S20  1  0.66339032  0.15757752  0.86273471  1
  S  S21  1  0.56987430  0.14183780  0.27054804  1
  S  S22  1  0.25284899  0.10120767  0.88896095  1
  S  S23  1  0.01729448  0.50612312  0.36796002  1
  S  S24  1  0.57006927  0.49345396  0.09066202  1
  S  S25  1  0.24697119  0.66550679  0.50673205  1
  S  S26  1  0.25302881  0.83449321  0.00673205  1
  S  S27  1  0.98706819  0.38371769  0.97941771  1
  S  S28  1  0.24697119  0.33449321  0.99326795  1
  S  S29  1  0.82543807  0.33482319  0.22442130  1
  S  S30  1  0.42993073  0.50654604  0.90933798  1
  S  S31  1  0.16657914  0.13485708  0.76279896  1
  S  S32  1  0.48706819  0.88371769  0.52058229  1
  S  S33  1  0.33111826  0.35967480  0.12428743  1
  S  S34  1  0.93085534  0.13398929  0.71624904  1
  S  S35  1  0.75222018  0.65054230  0.40333361  1
  S  S36  1  0.75284899  0.60120767  0.61103905  1
  S  S37  1  0.07006927  0.99345396  0.40933798  1
  S  S38  1  0.33342086  0.63485708  0.23720104  1
  S  S39  1  0.43012570  0.85816220  0.72945196  1
  S  S40  1  0.06914466  0.86601071  0.28375096  1
  S  S41  1  0.66888174  0.35967480  0.62428743  1
  S  S42  1  0.75302881  0.66550679  0.00673205  1
  S  S43  1  0.06987430  0.64183780  0.22945196  1
  S  S44  1  0.83660968  0.34242248  0.36273471  1
  S  S45  1  0.16888174  0.14032520  0.62428743  1
  S  S46  1  0.17456193  0.66517681  0.77557870  1
  S  S47  1  0.66339032  0.84242248  0.63726529  1
  S  S48  1  0.83660968  0.65757752  0.13726529  1
  S  S49  1  0.66657914  0.63485708  0.73720104  1
  S  S50  1  0.56914466  0.63398929  0.28375096  1
  S  S51  1  0.74715101  0.89879233  0.11103905  1
  S  S52  1  0.33111826  0.64032520  0.37571257  1
  S  S53  1  0.43085534  0.63398929  0.78375096  1
  S  S54  1  0.51618038  0.66099697  0.48902082  1
  S  S55  1  0.51618038  0.33900303  0.01097918  1
  S  S56  1  0.48381962  0.33900303  0.51097918  1
  S  S57  1  0.75222018  0.34945770  0.09666639  1
  S  S58  1  0.83342086  0.13485708  0.26279896  1
  S  S59  1  0.67456193  0.16517681  0.72442130  1
  S  S60  1  0.56914466  0.36601071  0.21624904  1
  S  S61  1  0.74777982  0.84945770  0.90333361  1
  S  S62  1  0.33660968  0.15757752  0.36273471  1
  S  S63  1  0.83342086  0.86514292  0.23720104  1
  S  S64  1  0.66657914  0.36514292  0.76279896  1
  S  S65  1  0.74697119  0.83449321  0.50673205  1
  S  S66  1  0.16657914  0.86514292  0.73720104  1
  S  S67  1  0.67456193  0.83482319  0.77557870  1
  S  S68  1  0.51729448  0.00612312  0.13203998  1
  S  S69  1  0.07006927  0.00654604  0.09066202  1
  S  S70  1  0.75284899  0.39879233  0.88896095  1
  S  S71  1  0.25222018  0.84945770  0.40333361  1
  S  S72  1  0.93012570  0.64183780  0.72945196  1
  S  S73  1  0.57006927  0.50654604  0.40933798  1
  S  S74  1  0.17456193  0.33482319  0.72442130  1
  S  S75  1  0.66888174  0.64032520  0.87571257  1
  S  S76  1  0.32543807  0.16517681  0.22442130  1
  S  S77  1  0.01293181  0.61628231  0.02058229  1
  S  S78  1  0.43085534  0.36601071  0.71624904  1
  S  S79  1  0.06987430  0.35816220  0.27054804  1
  S  S80  1  0.83111826  0.85967480  0.37571257  1
  S  S81  1  0.51729448  0.99387688  0.36796002  1
  S  S82  1  0.24777982  0.65054230  0.90333361  1
  S  S83  1  0.25284899  0.89879233  0.61103905  1
  S  S84  1  0.24777982  0.34945770  0.59666639  1
  S  S85  1  0.42993073  0.49345396  0.59066202  1
  S  S86  1  0.01293181  0.38371769  0.47941771  1
  S  S87  1  0.33342086  0.36514292  0.26279896  1
  S  S88  1  0.16339032  0.34242248  0.86273471  1
  S  S89  1  0.43012570  0.14183780  0.77054804  1
  S  S90  1  0.51293181  0.11628231  0.47941771  1
  S  S91  1  0.83111826  0.14032520  0.12428743  1
  S  S92  1  0.32543807  0.83482319  0.27557870  1
  S  S93  1  0.25302881  0.16550679  0.49326795  1
  S  S94  1  0.74777982  0.15054230  0.59666639  1
  S  S95  1  0.48381962  0.66099697  0.98902082  1
  S  S96  1  0.56987430  0.85816220  0.22945196  1
  S  S97  1  0.24715101  0.60120767  0.11103905  1
  S  S98  1  0.93012570  0.35816220  0.77054804  1
  S  S99  1  0.16339032  0.65757752  0.63726529  1
  S  S100  1  0.75302881  0.33449321  0.49326795  1
  S  S101  1  0.33660968  0.84242248  0.13726529  1
  S  S102  1  0.51293181  0.88371769  0.02058229  1
  S  S103  1  0.98270552  0.49387688  0.63203998  1
loop_
_geom_bond_atom_site_label_1
_geom_bond_atom_site_label_2
_geom_bond_distance
_geom_bond_site_symmetry_2
Cs0 S16 3.573036 1_655
Cs0 S47 3.598858 1_555
Cs0 S99 3.784001 1_655
Cs0 S15 3.786434 1_555
Cs0 S66 3.794560 1_655
Cs0 S72 3.835071 1_555
Cs0 S65 3.948307 1_555
Cs0 S19 3.982165 1_565
Cs0 S83 4.128330 1_655
Cs1 S55 3.573036 1_556
Cs1 S88 3.598858 1_555
Cs1 S20 3.784001 1_555
Cs1 S78 3.786434 1_555
Cs1 S64 3.794560 1_555
Cs1 S89 3.835071 1_555
Cs1 S28 3.948307 1_555
Cs1 S30 3.982165 1_555
Cs1 S70 4.128330 1_555
Cs2 S52 3.683983 1_555
Cs2 S16 3.695982 1_555
Cs2 S7 3.705242 1_455
Cs2 S43 3.741564 1_555
Cs2 S23 3.749579 1_555
Cs2 S35 3.761798 1_455
Cs2 S71 3.797001 1_555
Cs2 S14 3.820016 1_455
Cs2 S40 3.834770 1_555
Cs2 S80 3.958085 1_455
Cs2 S25 3.979200 1_555
Cs3 S33 3.683983 1_555
Cs3 S17 3.695982 1_555
Cs3 S29 3.705242 1_455
Cs3 S79 3.741564 1_555
Cs3 S13 3.749579 1_555
Cs3 S57 3.761798 1_455
Cs3 S2 3.797001 1_555
Cs3 S27 3.820016 1_454
Cs3 S11 3.834770 1_555
Cs3 S91 3.958085 1_455
Cs3 S28 3.979200 1_554
Cs4 S41 3.683983 1_555
Cs4 S4 3.695982 1_555
Cs4 S74 3.705242 1_655
Cs4 S98 3.741564 1_555
Cs4 S103 3.749579 1_555
Cs4 S84 3.761798 1_655
Cs4 S94 3.797001 1_555
Cs4 S86 3.820016 1_655
Cs4 S34 3.834770 1_555
Cs4 S45 3.958085 1_655
Cs4 S100 3.979200 1_555
Cs5 S45 3.683983 1_555
Cs5 S56 3.695982 1_555
Cs5 S59 3.705242 1_555
Cs5 S89 3.741564 1_555
Cs5 S0 3.749579 1_555
Cs5 S94 3.761798 1_555
Cs5 S84 3.797001 1_555
Cs5 S90 3.820016 1_555
Cs5 S78 3.834770 1_555
Cs5 S41 3.958085 1_555
Cs5 S93 3.979200 1_555
Cs6 S3 3.683983 1_555
Cs6 S95 3.695982 1_555
Cs6 S67 3.705242 1_555
Cs6 S39 3.741564 1_555
Cs6 S9 3.749579 1_555
Cs6 S61 3.761798 1_555
Cs6 S82 3.797001 1_555
Cs6 S102 3.820016 1_556
Cs6 S53 3.834770 1_555
Cs6 S75 3.958085 1_555
Cs6 S26 3.979200 1_556
Cs7 S54 3.573036 1_555
Cs7 S99 3.598858 1_555
Cs7 S47 3.784001 1_555
Cs7 S53 3.786434 1_555
Cs7 S49 3.794560 1_555
Cs7 S39 3.835071 1_555
Cs7 S25 3.948307 1_555
Cs7 S85 3.982165 1_555
Cs7 S36 4.128330 1_555
Cs8 S91 3.683983 1_555
Cs8 S55 3.695982 1_555
Cs8 S76 3.705242 1_555
Cs8 S21 3.741564 1_555
Cs8 S68 3.749579 1_555
Cs8 S2 3.761798 1_555
Cs8 S57 3.797001 1_555
Cs8 S10 3.820016 1_554
Cs8 S60 3.834770 1_555
Cs8 S33 3.958085 1_555
Cs8 S5 3.979200 1_554
Cs9 S95 3.573036 1_554
Cs9 S48 3.598858 1_555
Cs9 S101 3.784001 1_555
Cs9 S50 3.786434 1_555
Cs9 S38 3.794560 1_555
Cs9 S96 3.835071 1_555
Cs9 S42 3.948307 1_555
Cs9 S24 3.982165 1_555
Cs9 S97 4.128330 1_555
Cs10 S6 3.573036 1_454
Cs10 S101 3.598858 1_555
Cs10 S48 3.784001 1_455
Cs10 S40 3.786434 1_555
Cs10 S63 3.794560 1_455
Cs10 S43 3.835071 1_555
Cs10 S26 3.948307 1_555
Cs10 S69 3.982165 1_565
Cs10 S51 4.128330 1_455
Cs11 S56 3.573036 1_555
Cs11 S44 3.598858 1_555
Cs11 S62 3.784001 1_555
Cs11 S60 3.786434 1_555
Cs11 S87 3.794560 1_555
Cs11 S21 3.835071 1_555
Cs11 S100 3.948307 1_555
Cs11 S73 3.982165 1_555
Cs11 S18 4.128330 1_555
Cs12 S17 3.573036 1_656
Cs12 S20 3.598858 1_555
Cs12 S88 3.784001 1_655
Cs12 S34 3.786434 1_555
Cs12 S31 3.794560 1_655
Cs12 S98 3.835071 1_555
Cs12 S5 3.948307 1_555
Cs12 S1 3.982165 1_545
Cs12 S22 4.128330 1_655
Cs13 S75 3.683983 1_555
Cs13 S6 3.695982 1_555
Cs13 S46 3.705242 1_655
Cs13 S72 3.741564 1_555
Cs13 S12 3.749579 1_555
Cs13 S82 3.761798 1_655
Cs13 S61 3.797001 1_555
Cs13 S77 3.820016 1_656
Cs13 S15 3.834770 1_555
Cs13 S3 3.958085 1_655
Cs13 S42 3.979200 1_556
Cs14 S80 3.683983 1_555
Cs14 S54 3.695982 1_555
Cs14 S92 3.705242 1_555
Cs14 S96 3.741564 1_555
Cs14 S81 3.749579 1_555
Cs14 S71 3.761798 1_555
Cs14 S35 3.797001 1_555
Cs14 S32 3.820016 1_555
Cs14 S50 3.834770 1_555
Cs14 S52 3.958085 1_555
Cs14 S65 3.979200 1_555
Cs15 S4 3.573036 1_455
Cs15 S62 3.598858 1_555
Cs15 S44 3.784001 1_455
Cs15 S11 3.786434 1_555
Cs15 S58 3.794560 1_455
Cs15 S79 3.835071 1_555
Cs15 S93 3.948307 1_555
Cs15 S37 3.982165 1_545
Cs15 S8 4.128330 1_455
As0 S32 2.284227 1_555
As0 S47 2.321121 1_555
As0 S65 2.339919 1_555
As1 S30 2.199800 1_555
As1 S82 2.345658 1_555
As1 S95 2.357086 1_555
As2 S68 2.208720 1_565
As2 S102 2.345607 1_555
As2 S51 2.348320 1_555
As3 S11 2.301968 1_655
As3 S91 2.310619 1_555
As3 S58 2.326270 1_555
As4 S85 2.199800 1_555
As4 S84 2.345658 1_555
As4 S56 2.357086 1_555
As5 S18 2.277760 1_555
As5 S79 2.309836 1_555
As5 S87 2.349376 1_555
As6 S78 2.301968 1_555
As6 S41 2.310619 1_555
As6 S64 2.326270 1_555
As7 S86 2.284227 1_655
As7 S44 2.321121 1_555
As7 S100 2.339919 1_555
As8 S60 2.301968 1_555
As8 S33 2.310619 1_555
As8 S87 2.326270 1_555
As9 S103 2.208720 1_555
As9 S14 2.345607 1_555
As9 S36 2.348320 1_555
As10 S1 2.199800 1_555
As10 S61 2.345658 1_555
As10 S6 2.357086 1_555
As11 S84 2.269863 1_555
As11 S78 2.316403 1_555
As11 S74 2.324654 1_555
As12 S53 2.301968 1_555
As12 S75 2.310619 1_555
As12 S49 2.326270 1_555
As13 S21 2.297465 1_555
As13 S62 2.313752 1_555
As13 S76 2.347511 1_555
As13 S81 2.913794 1_545
As14 S6 2.281726 1_455
As14 S3 2.324135 1_555
As14 S26 2.346833 1_556
As15 S83 2.277760 1_555
As15 S39 2.309836 1_555
As15 S66 2.349376 1_555
As16 S22 2.277760 1_555
As16 S89 2.309836 1_555
As16 S31 2.349376 1_555
As17 S96 2.297465 1_555
As17 S101 2.313752 1_555
As17 S92 2.347511 1_555
As17 S68 2.913794 1_565
As18 S69 2.199800 1_555
As18 S2 2.345658 1_555
As18 S17 2.357086 1_555
As19 S36 2.277760 1_555
As19 S72 2.309836 1_555
As19 S49 2.349376 1_555
As20 S89 2.297465 1_555
As20 S20 2.313752 1_555
As20 S59 2.347511 1_555
As20 S9 2.913794 1_545
As21 S61 2.269863 1_555
As21 S15 2.316403 1_555
As21 S67 2.324654 1_555
As22 S71 2.269863 1_555
As22 S40 2.316403 1_555
As22 S92 2.324654 1_555
As23 S24 2.199800 1_555
As23 S57 2.345658 1_555
As23 S55 2.357086 1_555
As24 S12 2.208720 1_555
As24 S27 2.345607 1_555
As24 S70 2.348320 1_555
As25 S8 2.277760 1_555
As25 S21 2.309836 1_555
As25 S58 2.349376 1_555
As26 S13 2.208720 1_555
As26 S77 2.345607 1_555
As26 S97 2.348320 1_555
As27 S43 2.297465 1_655
As27 S48 2.313752 1_555
As27 S7 2.347511 1_555
As27 S13 2.913794 1_655
As28 S81 2.208720 1_545
As28 S90 2.345607 1_555
As28 S8 2.348320 1_555
As29 S57 2.269863 1_555
As29 S60 2.316403 1_555
As29 S29 2.324654 1_555
As30 S0 2.208720 1_565
As30 S32 2.345607 1_555
As30 S83 2.348320 1_555
As31 S37 2.199800 1_555
As31 S71 2.345658 1_555
As31 S16 2.357086 1_555
As32 S40 2.301968 1_655
As32 S80 2.310619 1_555
As32 S63 2.326270 1_555
As33 S55 2.281726 1_555
As33 S33 2.324135 1_555
As33 S28 2.346833 1_554
As34 S35 2.269863 1_555
As34 S50 2.316403 1_555
As34 S7 2.324654 1_555
As35 S39 2.297465 1_555
As35 S47 2.313752 1_555
As35 S67 2.347511 1_555
As35 S0 2.913794 1_565
As36 S82 2.269863 1_555
As36 S53 2.316403 1_555
As36 S46 2.324654 1_555
As37 S23 2.208720 1_555
As37 S86 2.345607 1_555
As37 S18 2.348320 1_555
As38 S4 2.281726 1_455
As38 S45 2.324135 1_555
As38 S93 2.346833 1_555
As39 S73 2.199800 1_555
As39 S35 2.345658 1_555
As39 S54 2.357086 1_555
As40 S56 2.281726 1_555
As40 S41 2.324135 1_555
As40 S100 2.346833 1_555
As41 S16 2.281726 1_655
As41 S80 2.324135 1_555
As41 S65 2.346833 1_555
As42 S54 2.281726 1_555
As42 S52 2.324135 1_555
As42 S25 2.346833 1_555
As43 S72 2.297465 1_455
As43 S99 2.313752 1_555
As43 S46 2.347511 1_555
As43 S103 2.913794 1_455
As44 S97 2.277760 1_555
As44 S43 2.309836 1_555
As44 S38 2.349376 1_555
As45 S17 2.281726 1_655
As45 S91 2.324135 1_555
As45 S5 2.346833 1_554
As46 S19 2.199800 1_555
As46 S94 2.345658 1_555
As46 S4 2.357086 1_555
As47 S98 2.297465 1_455
As47 S88 2.313752 1_555
As47 S74 2.347511 1_555
As47 S12 2.913794 1_455
As48 S70 2.277760 1_555
As48 S98 2.309836 1_555
As48 S64 2.349376 1_555
As49 S77 2.284227 1_655
As49 S48 2.321121 1_555
As49 S42 2.339919 1_555
As50 S15 2.301968 1_455
As50 S3 2.310619 1_555
As50 S66 2.326270 1_555
As51 S51 2.277760 1_555
As51 S96 2.309836 1_555
As51 S63 2.349376 1_555
As52 S94 2.269863 1_555
As52 S34 2.316403 1_555
As52 S59 2.324654 1_555
As53 S90 2.284227 1_555
As53 S62 2.321121 1_555
As53 S93 2.339919 1_555
As54 S14 2.284227 1_455
As54 S99 2.321121 1_555
As54 S25 2.339919 1_555
As55 S27 2.284227 1_455
As55 S88 2.321121 1_555
As55 S28 2.339919 1_555
As56 S50 2.301968 1_555
As56 S52 2.310619 1_555
As56 S38 2.326270 1_555
As57 S95 2.281726 1_555
As57 S75 2.324135 1_555
As57 S42 2.346833 1_556
As58 S79 2.297465 1_655
As58 S44 2.313752 1_555
As58 S29 2.347511 1_555
As58 S23 2.913794 1_655
As59 S10 2.284227 1_555
As59 S20 2.321121 1_555
As59 S5 2.339919 1_555
As60 S102 2.284227 1_555
As60 S101 2.321121 1_555
As60 S26 2.339919 1_555
As61 S2 2.269863 1_555
As61 S11 2.316403 1_555
As61 S76 2.324654 1_555
As62 S9 2.208720 1_545
As62 S10 2.345607 1_555
As62 S22 2.348320 1_555
As63 S34 2.301968 1_455
As63 S45 2.310619 1_555
As63 S31 2.326270 1_555
