# generated using pymatgen
data_SiO2
_symmetry_space_group_name_H-M   'P 1'
_cell_length_a   11.89767940
_cell_length_b   11.89767940
_cell_length_c   11.89767940
_cell_angle_alpha   90.00000000
_cell_angle_beta   90.00000000
_cell_angle_gamma   90.00000000
_symmetry_Int_Tables_number   1
_chemical_formula_structural   SiO2
_chemical_formula_sum   'Si24 O48'
_cell_volume   1684.17333174
_cell_formula_units_Z   24
loop_
 _symmetry_equiv_pos_site_id
 _symmetry_equiv_pos_as_xyz
  1  'x, y, z'
loop_
 _atom_site_type_symbol
 _atom_site_label
 _atom_site_symmetry_multiplicity
 _atom_site_fract_x
 _atom_site_fract_y
 _atom_site_fract_z
 _atom_site_occupancy
  Si  Si0  1  -0.00000000  0.18320024  0.36830028  1
  Si  Si1  1  -0.00000000  0.63169972  0.18320024  1
  Si  Si2  1  -0.00000000  0.36830028  0.81679976  1
  Si  Si3  1  0.36830028  0.18320024  0.00000000  1
  Si  Si4  1  0.63169972  0.18320024  0.00000000  1
  Si  Si5  1  0.81679976  0.00000000  0.36830028  1
  Si  Si6  1  0.18320024  0.00000000  0.36830028  1
  Si  Si7  1  0.36830028  0.00000000  0.18320024  1
  Si  Si8  1  0.18320024  0.36830028  0.00000000  1
  Si  Si9  1  0.81679976  0.63169972  0.00000000  1
  Si  Si10  1  0.36830028  0.00000000  0.81679976  1
  Si  Si11  1  0.81679976  0.36830028  0.00000000  1
  Si  Si12  1  0.63169972  0.00000000  0.18320024  1
  Si  Si13  1  0.63169972  0.00000000  0.81679976  1
  Si  Si14  1  0.18320024  0.63169972  0.00000000  1
  Si  Si15  1  -0.00000000  0.81679976  0.63169972  1
  Si  Si16  1  -0.00000000  0.18320024  0.63169972  1
  Si  Si17  1  -0.00000000  0.81679976  0.36830028  1
  Si  Si18  1  0.18320024  0.00000000  0.63169972  1
  Si  Si19  1  0.81679976  0.00000000  0.63169972  1
  Si  Si20  1  0.36830028  0.81679976  0.00000000  1
  Si  Si21  1  0.63169972  0.81679976  0.00000000  1
  Si  Si22  1  -0.00000000  0.36830028  0.18320024  1
  Si  Si23  1  -0.00000000  0.63169972  0.81679976  1
  O  O0  1  -0.00000000  0.21432550  0.50000000  1
  O  O1  1  -0.00000000  0.50000000  0.21432550  1
  O  O2  1  -0.00000000  0.50000000  0.78567450  1
  O  O3  1  0.50000000  0.21432550  0.00000000  1
  O  O4  1  0.78567450  0.00000000  0.50000000  1
  O  O5  1  0.21432550  0.00000000  0.50000000  1
  O  O6  1  0.50000000  0.00000000  0.21432550  1
  O  O7  1  0.21432550  0.50000000  0.00000000  1
  O  O8  1  0.78567450  0.50000000  0.00000000  1
  O  O9  1  0.50000000  0.00000000  0.78567450  1
  O  O10  1  -0.00000000  0.78567450  0.50000000  1
  O  O11  1  0.50000000  0.78567450  0.00000000  1
  O  O12  1  0.11097778  0.11097778  0.33807127  1
  O  O13  1  0.11097778  0.66192873  0.11097778  1
  O  O14  1  0.11097778  0.33807127  0.88902222  1
  O  O15  1  0.33807127  0.11097778  0.88902222  1
  O  O16  1  0.66192873  0.11097778  0.11097778  1
  O  O17  1  0.88902222  0.11097778  0.33807127  1
  O  O18  1  0.11097778  0.88902222  0.33807127  1
  O  O19  1  0.33807127  0.11097778  0.11097778  1
  O  O20  1  0.11097778  0.33807127  0.11097778  1
  O  O21  1  0.88902222  0.66192873  0.11097778  1
  O  O22  1  0.33807127  0.88902222  0.88902222  1
  O  O23  1  0.88902222  0.33807127  0.88902222  1
  O  O24  1  0.66192873  0.88902222  0.11097778  1
  O  O25  1  0.66192873  0.11097778  0.88902222  1
  O  O26  1  0.11097778  0.66192873  0.88902222  1
  O  O27  1  0.11097778  0.88902222  0.66192873  1
  O  O28  1  0.88902222  0.11097778  0.66192873  1
  O  O29  1  0.88902222  0.88902222  0.33807127  1
  O  O30  1  0.11097778  0.11097778  0.66192873  1
  O  O31  1  0.88902222  0.88902222  0.66192873  1
  O  O32  1  0.33807127  0.88902222  0.11097778  1
  O  O33  1  0.66192873  0.88902222  0.88902222  1
  O  O34  1  0.88902222  0.33807127  0.11097778  1
  O  O35  1  0.88902222  0.66192873  0.88902222  1
  O  O36  1  -0.00000000  0.29741468  0.29741468  1
  O  O37  1  -0.00000000  0.70258532  0.29741468  1
  O  O38  1  -0.00000000  0.29741468  0.70258532  1
  O  O39  1  0.29741468  0.29741468  0.00000000  1
  O  O40  1  0.70258532  0.29741468  0.00000000  1
  O  O41  1  0.70258532  0.00000000  0.29741468  1
  O  O42  1  0.29741468  0.00000000  0.29741468  1
  O  O43  1  0.70258532  0.70258532  0.00000000  1
  O  O44  1  0.29741468  0.00000000  0.70258532  1
  O  O45  1  0.70258532  0.00000000  0.70258532  1
  O  O46  1  0.29741468  0.70258532  0.00000000  1
  O  O47  1  -0.00000000  0.70258532  0.70258532  1
loop_
_geom_bond_atom_site_label_1
_geom_bond_atom_site_label_2
_geom_bond_distance
_geom_bond_site_symmetry_2
O0 Si0 1.610086 1_555
O0 Si16 1.610086 1_555
O1 Si1 1.610086 1_555
O1 Si22 1.610086 1_555
O2 Si23 1.610086 1_555
O2 Si2 1.610086 1_555
O3 Si4 1.610086 1_555
O3 Si3 1.610086 1_555
O4 Si5 1.610086 1_555
O4 Si19 1.610086 1_555
O5 Si18 1.610086 1_555
O5 Si6 1.610086 1_555
O6 Si12 1.610086 1_555
O6 Si7 1.610086 1_555
O7 Si14 1.610086 1_555
O7 Si8 1.610086 1_555
O8 Si9 1.610086 1_555
O8 Si11 1.610086 1_555
O9 Si13 1.610086 1_555
O9 Si10 1.610086 1_555
O10 Si17 1.610086 1_555
O10 Si15 1.610086 1_555
O11 Si20 1.610086 1_555
O11 Si21 1.610086 1_555
O12 Si0 1.615893 1_555
O12 Si6 1.615893 1_555
O13 Si14 1.615893 1_555
O13 Si1 1.615893 1_555
O14 Si2 1.615893 1_555
O14 Si8 1.615893 1_556
O15 Si10 1.615893 1_555
O15 Si3 1.615893 1_556
O16 Si12 1.615893 1_555
O16 Si4 1.615893 1_555
O17 Si5 1.615893 1_555
O17 Si0 1.615893 1_655
O18 Si17 1.615893 1_555
O18 Si6 1.615893 1_565
O19 Si7 1.615893 1_555
O19 Si3 1.615893 1_555
O20 Si8 1.615893 1_555
O20 Si22 1.615893 1_555
O21 Si9 1.615893 1_555
O21 Si1 1.615893 1_655
O22 Si20 1.615893 1_556
O22 Si10 1.615893 1_565
O23 Si2 1.615893 1_655
O23 Si11 1.615893 1_556
O24 Si21 1.615893 1_555
O24 Si12 1.615893 1_565
O25 Si13 1.615893 1_555
O25 Si4 1.615893 1_556
O26 Si23 1.615893 1_555
O26 Si14 1.615893 1_556
O27 Si15 1.615893 1_555
O27 Si18 1.615893 1_565
O28 Si19 1.615893 1_555
O28 Si16 1.615893 1_655
O29 Si17 1.615893 1_655
O29 Si5 1.615893 1_565
O30 Si16 1.615893 1_555
O30 Si18 1.615893 1_555
O31 Si15 1.615893 1_655
O31 Si19 1.615893 1_565
O32 Si20 1.615893 1_555
O32 Si7 1.615893 1_565
O33 Si13 1.615893 1_565
O33 Si21 1.615893 1_556
O34 Si11 1.615893 1_555
O34 Si22 1.615893 1_655
O35 Si23 1.615893 1_655
O35 Si9 1.615893 1_556
O36 Si22 1.599329 1_555
O36 Si0 1.599329 1_555
O37 Si17 1.599329 1_555
O37 Si1 1.599329 1_555
O38 Si2 1.599329 1_555
O38 Si16 1.599329 1_555
O39 Si8 1.599329 1_555
O39 Si3 1.599329 1_555
O40 Si11 1.599329 1_555
O40 Si4 1.599329 1_555
O41 Si5 1.599329 1_555
O41 Si12 1.599329 1_555
O42 Si7 1.599329 1_555
O42 Si6 1.599329 1_555
O43 Si9 1.599329 1_555
O43 Si21 1.599329 1_555
O44 Si10 1.599329 1_555
O44 Si18 1.599329 1_555
O45 Si19 1.599329 1_555
O45 Si13 1.599329 1_555
O46 Si20 1.599329 1_555
O46 Si14 1.599329 1_555
O47 Si23 1.599329 1_555
O47 Si15 1.599329 1_555
