# generated using pymatgen
data_Li5GeAs3
_symmetry_space_group_name_H-M   'P 1'
_cell_length_a   7.39085072
_cell_length_b   7.39085072
_cell_length_c   8.69264832
_cell_angle_alpha   73.09307315
_cell_angle_beta   73.09307315
_cell_angle_gamma   48.55889974
_symmetry_Int_Tables_number   1
_chemical_formula_structural   Li5GeAs3
_chemical_formula_sum   'Li10 Ge2 As6'
_cell_volume   337.35102616
_cell_formula_units_Z   2
loop_
 _symmetry_equiv_pos_site_id
 _symmetry_equiv_pos_as_xyz
  1  'x, y, z'
loop_
 _atom_site_type_symbol
 _atom_site_label
 _atom_site_symmetry_multiplicity
 _atom_site_fract_x
 _atom_site_fract_y
 _atom_site_fract_z
 _atom_site_occupancy
  Li  Li0  1  0.42009500  0.91395500  0.41847100  1
  Li  Li1  1  0.08675900  0.58145200  0.08206100  1
  Li  Li2  1  0.42362600  0.91617500  0.91003400  1
  Li  Li3  1  0.75379600  0.24581900  0.74581800  1
  Li  Li4  1  0.24432600  0.75064500  0.75679500  1
  Li  Li5  1  0.58145200  0.08675900  0.58206100  1
  Li  Li6  1  0.91617500  0.42362600  0.41003400  1
  Li  Li7  1  0.75064500  0.24432600  0.25679500  1
  Li  Li8  1  0.24581900  0.75379600  0.24581800  1
  Li  Li9  1  0.91395500  0.42009500  0.91847100  1
  Ge  Ge0  1  0.07015000  0.59583300  0.58784700  1
  Ge  Ge1  1  0.59583300  0.07015000  0.08784700  1
  As  As0  1  0.97690000  0.01278900  0.00545400  1
  As  As1  1  0.68929700  0.65540900  0.65914500  1
  As  As2  1  0.01278900  0.97690000  0.50545400  1
  As  As3  1  0.33513300  0.33327600  0.33031500  1
  As  As4  1  0.65540900  0.68929700  0.15914500  1
  As  As5  1  0.33327600  0.33513300  0.83031500  1
loop_
_geom_bond_atom_site_label_1
_geom_bond_atom_site_label_2
_geom_bond_distance
_geom_bond_site_symmetry_2
Ge0 Li5 2.977484 1_465
Ge0 Li4 3.024869 1_555
Ge0 Li9 3.027111 1_455
Ge0 Li6 3.064084 1_455
Ge0 Li5 3.101315 1_555
Ge0 Li8 3.103321 1_555
Ge1 Li1 2.977484 1_645
Ge1 Li7 3.024869 1_555
Ge1 Li0 3.027111 1_545
Ge1 Li2 3.064084 1_544
Ge1 Li1 3.101315 1_555
Ge1 Li3 3.103321 1_554
As0 Ge1 2.459208 1_555
As0 Li7 2.599973 1_555
As0 Li9 2.622438 1_554
As0 Li1 2.630419 1_645
As0 Li3 2.631242 1_554
As0 Li8 2.652002 1_645
As0 Li4 2.685961 1_644
As0 Li2 2.780265 1_644
As1 Ge0 2.450443 1_655
As1 Li6 2.584331 1_555
As1 Li3 2.632690 1_555
As1 Li9 2.633909 1_555
As1 Li5 2.636750 1_565
As1 Li0 2.655211 1_555
As1 Li2 2.696465 1_555
As1 Li4 2.773315 1_555
As2 Ge0 2.459208 1_555
As2 Li4 2.599973 1_555
As2 Li0 2.622438 1_555
As2 Li5 2.630419 1_465
As2 Li8 2.631242 1_555
As2 Li3 2.652002 1_465
As2 Li7 2.685961 1_465
As2 Li6 2.780265 1_465
As3 Li7 2.588820 1_555
As3 Li6 2.607344 1_455
As3 Li8 2.621719 1_555
As3 Li0 2.628447 1_545
As3 Li1 2.633610 1_555
As3 Ge1 2.645527 1_555
As3 Li5 2.651452 1_555
As3 Ge0 2.749306 1_555
As4 Ge1 2.450443 1_565
As4 Li2 2.584331 1_554
As4 Li8 2.632690 1_555
As4 Li0 2.633909 1_555
As4 Li1 2.636750 1_655
As4 Li9 2.655211 1_554
As4 Li6 2.696465 1_555
As4 Li7 2.773315 1_555
As5 Li4 2.588820 1_555
As5 Li2 2.607344 1_545
As5 Li3 2.621719 1_555
As5 Li9 2.628447 1_455
As5 Li5 2.633610 1_555
As5 Ge0 2.645527 1_555
As5 Li1 2.651452 1_556
As5 Ge1 2.749306 1_556
