# generated using pymatgen
data_CaU(SeO4)2
_symmetry_space_group_name_H-M   'P 1'
_cell_length_a   5.67427300
_cell_length_b   6.75244668
_cell_length_c   11.22934233
_cell_angle_alpha   103.96591598
_cell_angle_beta   93.62543851
_cell_angle_gamma   110.72598055
_symmetry_Int_Tables_number   1
_chemical_formula_structural   CaU(SeO4)2
_chemical_formula_sum   'Ca2 U2 Se4 O16'
_cell_volume   385.24217250
_cell_formula_units_Z   2
loop_
 _symmetry_equiv_pos_site_id
 _symmetry_equiv_pos_as_xyz
  1  'x, y, z'
loop_
 _atom_site_type_symbol
 _atom_site_label
 _atom_site_symmetry_multiplicity
 _atom_site_fract_x
 _atom_site_fract_y
 _atom_site_fract_z
 _atom_site_occupancy
  Ca  Ca0  1  0.23815900  0.80906400  0.43551900  1
  Ca  Ca1  1  0.76184100  0.19093600  0.56448100  1
  U  U0  1  0.99964300  0.09350600  0.16784300  1
  U  U1  1  0.00035700  0.90649400  0.83215700  1
  Se  Se0  1  0.18668400  0.68614300  0.12494200  1
  Se  Se1  1  0.38255800  0.35022000  0.35273700  1
  Se  Se2  1  0.81331600  0.31385700  0.87505800  1
  Se  Se3  1  0.61744200  0.64978000  0.64726300  1
  O  O0  1  0.07575600  0.84190000  0.02961200  1
  O  O1  1  0.95028000  0.42018400  0.16058100  1
  O  O2  1  0.64336700  0.92755200  0.25013600  1
  O  O3  1  0.92353600  0.22988800  0.74721600  1
  O  O4  1  0.48724200  0.18400200  0.43667800  1
  O  O5  1  0.90875800  0.86966300  0.65114200  1
  O  O6  1  0.35265400  0.25633900  0.09316600  1
  O  O7  1  0.64734600  0.74366100  0.90683400  1
  O  O8  1  0.51275800  0.81599800  0.56332200  1
  O  O9  1  0.35663300  0.07244800  0.74986400  1
  O  O10  1  0.09124200  0.13033700  0.34885800  1
  O  O11  1  0.04972000  0.57981600  0.83941900  1
  O  O12  1  0.78270100  0.55440900  0.54354900  1
  O  O13  1  0.92424400  0.15810000  0.97038800  1
  O  O14  1  0.21729900  0.44559100  0.45645000  1
  O  O15  1  0.07646400  0.77011200  0.25278400  1
loop_
_geom_bond_atom_site_label_1
_geom_bond_atom_site_label_2
_geom_bond_distance
_geom_bond_site_symmetry_2
Ca0 O8 2.030464 1_555
Ca0 O15 2.110034 1_555
Ca0 O4 2.420039 1_565
Ca0 O14 2.483817 1_555
Ca1 O4 2.030464 1_555
Ca1 O3 2.110034 1_555
Ca1 O8 2.420039 1_545
Ca1 O12 2.483821 1_555
O0 Se0 1.890795 1_555
O0 U0 2.193997 1_465
O0 U1 2.401787 1_554
O1 Se0 1.973434 1_655
O1 U0 2.339285 1_555
O2 U0 2.308515 1_565
O3 Se2 1.656856 1_555
O4 Se1 1.847381 1_555
O5 Se3 1.778014 1_555
O5 U1 1.998667 1_655
O6 U0 2.241226 1_455
O7 U1 2.241226 1_655
O8 Se3 1.847381 1_555
O9 U1 2.308515 1_545
O10 Se1 1.778014 1_555
O10 U0 1.998667 1_455
O11 Se2 1.973434 1_455
O11 U1 2.339285 1_555
O12 Se3 1.689365 1_555
O13 Se2 1.890795 1_555
O13 U1 2.193997 1_645
O13 U0 2.401787 1_556
O14 Se1 1.689358 1_555
O15 Se0 1.656856 1_555
