# generated using pymatgen
data_Al3NO3
_symmetry_space_group_name_H-M   'P 1'
_cell_length_a   5.66176300
_cell_length_b   5.71009600
_cell_length_c   8.06830300
_cell_angle_alpha   90.00000000
_cell_angle_beta   90.00000000
_cell_angle_gamma   90.00000000
_symmetry_Int_Tables_number   1
_chemical_formula_structural   Al3NO3
_chemical_formula_sum   'Al12 N4 O12'
_cell_volume   260.84186412
_cell_formula_units_Z   4
loop_
 _symmetry_equiv_pos_site_id
 _symmetry_equiv_pos_as_xyz
  1  'x, y, z'
loop_
 _atom_site_type_symbol
 _atom_site_label
 _atom_site_symmetry_multiplicity
 _atom_site_fract_x
 _atom_site_fract_y
 _atom_site_fract_z
 _atom_site_occupancy
  Al  Al0  1  0.25000000  0.50787100  0.11725100  1
  Al  Al1  1  0.75000000  0.99212900  0.61725100  1
  Al  Al2  1  0.25000000  0.24938100  0.74240400  1
  Al  Al3  1  0.75000000  0.49212900  0.88274900  1
  Al  Al4  1  0.50000000  0.50000000  0.50000000  1
  Al  Al5  1  0.25000000  0.74938100  0.75759600  1
  Al  Al6  1  0.75000000  0.75061900  0.25759600  1
  Al  Al7  1  0.50000000  0.00000000  0.00000000  1
  Al  Al8  1  0.00000000  0.00000000  0.00000000  1
  Al  Al9  1  0.25000000  0.00787100  0.38274900  1
  Al  Al10  1  0.75000000  0.25061900  0.24240400  1
  Al  Al11  1  0.00000000  0.50000000  0.50000000  1
  N  N0  1  0.25000000  0.27383200  0.50832700  1
  N  N1  1  0.25000000  0.77383200  0.99167300  1
  N  N2  1  0.75000000  0.22616800  0.00832700  1
  N  N3  1  0.75000000  0.72616800  0.49167300  1
  O  O0  1  0.48682500  0.50164800  0.74654800  1
  O  O1  1  0.25000000  0.74098500  0.51263300  1
  O  O2  1  0.75000000  0.75901500  0.01263300  1
  O  O3  1  0.48682500  0.00164800  0.75345200  1
  O  O4  1  0.51317500  0.99835200  0.24654800  1
  O  O5  1  0.98682500  0.99835200  0.24654800  1
  O  O6  1  0.25000000  0.24098500  0.98736700  1
  O  O7  1  0.75000000  0.25901500  0.48736700  1
  O  O8  1  0.98682500  0.49835200  0.25345200  1
  O  O9  1  0.51317500  0.49835200  0.25345200  1
  O  O10  1  0.01317500  0.50164800  0.74654800  1
  O  O11  1  0.01317500  0.00164800  0.75345200  1
loop_
_geom_bond_atom_site_label_1
_geom_bond_atom_site_label_2
_geom_bond_distance
_geom_bond_site_symmetry_2
Al0 N1 1.825627 1_554
Al0 O6 1.849484 1_554
Al0 O8 1.852232 1_455
Al0 O9 1.852232 1_555
Al1 N3 1.825627 1_555
Al1 O7 1.849484 1_565
Al1 O11 1.852232 1_665
Al1 O3 1.852232 1_565
Al2 N0 1.893758 1_555
Al2 O3 1.951115 1_555
Al2 O11 1.951115 1_555
Al2 O10 1.968232 1_555
Al2 O0 1.968232 1_555
Al2 O6 1.977017 1_555
Al3 N2 1.825627 1_556
Al3 O2 1.849484 1_556
Al3 O0 1.852232 1_555
Al3 O10 1.852232 1_655
Al4 N0 1.917239 1_555
Al4 N3 1.917239 1_555
Al4 O7 1.976706 1_555
Al4 O1 1.976706 1_555
Al4 O0 1.990644 1_555
Al4 O9 1.990644 1_555
Al5 N1 1.893758 1_555
Al5 O10 1.951115 1_555
Al5 O0 1.951115 1_555
Al5 O11 1.968232 1_565
Al5 O3 1.968232 1_565
Al5 O1 1.977017 1_555
Al6 N3 1.893758 1_555
Al6 O4 1.951115 1_555
Al6 O5 1.951115 1_555
Al6 O8 1.968232 1_555
Al6 O9 1.968232 1_555
Al6 O2 1.977017 1_555
Al7 N2 1.917239 1_555
Al7 N1 1.917239 1_544
Al7 O6 1.976706 1_554
Al7 O2 1.976706 1_545
Al7 O3 1.990644 1_554
Al7 O4 1.990644 1_545
Al8 N2 1.917239 1_455
Al8 N1 1.917239 1_544
Al8 O2 1.976706 1_445
Al8 O6 1.976706 1_554
Al8 O11 1.990644 1_554
Al8 O5 1.990644 1_445
Al9 N0 1.825627 1_555
Al9 O1 1.849484 1_545
Al9 O4 1.852232 1_545
Al9 O5 1.852232 1_445
Al10 N2 1.893758 1_555
Al10 O9 1.951115 1_555
Al10 O8 1.951115 1_555
Al10 O4 1.968232 1_545
Al10 O5 1.968232 1_545
Al10 O7 1.977017 1_555
Al11 N0 1.917239 1_555
Al11 N3 1.917239 1_455
Al11 O7 1.976706 1_455
Al11 O1 1.976706 1_555
Al11 O8 1.990644 1_455
Al11 O10 1.990644 1_555
