# generated using pymatgen
data_BaCo2P2H2O9
_symmetry_space_group_name_H-M   'P 1'
_cell_length_a   4.95937900
_cell_length_b   9.82451904
_cell_length_c   9.31985588
_cell_angle_alpha   116.59133321
_cell_angle_beta   90.00323657
_cell_angle_gamma   104.61753606
_symmetry_Int_Tables_number   1
_chemical_formula_structural   BaCo2P2H2O9
_chemical_formula_sum   'Ba2 Co4 P4 H4 O18'
_cell_volume   389.55301860
_cell_formula_units_Z   2
loop_
 _symmetry_equiv_pos_site_id
 _symmetry_equiv_pos_as_xyz
  1  'x, y, z'
loop_
 _atom_site_type_symbol
 _atom_site_label
 _atom_site_symmetry_multiplicity
 _atom_site_fract_x
 _atom_site_fract_y
 _atom_site_fract_z
 _atom_site_occupancy
  Ba  Ba0  1  0.52803500  0.49999000  0.75001300  1
  Ba  Ba1  1  0.02804600  0.50000500  0.25000600  1
  Co  Co0  1  0.25858800  0.85276800  0.09430200  1
  Co  Co1  1  0.40584200  0.14723100  0.90570200  1
  Co  Co2  1  0.75857000  0.85276300  0.59431100  1
  Co  Co3  1  0.90580900  0.14723100  0.40568700  1
  P  P0  1  0.14722300  0.76296800  0.72615200  1
  P  P1  1  0.64720700  0.76297800  0.22615600  1
  P  P2  1  0.88424300  0.23701900  0.77384000  1
  P  P3  1  0.38427500  0.23703700  0.27385000  1
  H  H0  1  0.24350400  0.06660600  0.59285100  1
  H  H1  1  0.74356200  0.06660000  0.09284800  1
  H  H2  1  0.67697200  0.93340200  0.90716100  1
  H  H3  1  0.17690400  0.93339500  0.40716100  1
  O  O0  1  0.09539900  0.00000900  0.49999600  1
  O  O1  1  0.59545600  0.00001300  0.99999100  1
  O  O2  1  0.17515500  0.06714300  0.21847700  1
  O  O3  1  0.67514700  0.06712400  0.71847200  1
  O  O4  1  0.60799100  0.93287000  0.28151600  1
  O  O5  1  0.10798700  0.93286100  0.78152200  1
  O  O6  1  0.06993400  0.71127000  0.86063400  1
  O  O7  1  0.56992600  0.71129100  0.36064800  1
  O  O8  1  0.85856700  0.28869600  0.63934500  1
  O  O9  1  0.35860400  0.28872500  0.13936400  1
  O  O10  1  0.43411300  0.65518400  0.07101700  1
  O  O11  1  0.93415800  0.65518200  0.57099600  1
  O  O12  1  0.27898600  0.34481300  0.42900500  1
  O  O13  1  0.77892600  0.34480200  0.92897800  1
  O  O14  1  0.45168700  0.75515100  0.69805300  1
  O  O15  1  0.95166700  0.75515400  0.19803500  1
  O  O16  1  0.19654300  0.24485600  0.80196400  1
  O  O17  1  0.69657600  0.24486500  0.30194500  1
loop_
_geom_bond_atom_site_label_1
_geom_bond_atom_site_label_2
_geom_bond_distance
_geom_bond_site_symmetry_2
Ba0 O12 2.786796 1_555
Ba0 O10 2.786932 1_556
Ba0 O8 2.803750 1_555
Ba0 O6 2.803982 1_655
Ba0 O16 2.868227 1_555
Ba0 O14 2.868440 1_555
Ba0 O13 3.144617 1_555
Ba0 O11 3.145263 1_555
Ba0 O6 3.316278 1_555
Ba0 O8 3.316703 1_455
Ba1 O11 2.786755 1_455
Ba1 O13 2.787047 1_454
Ba1 O9 2.803741 1_555
Ba1 O7 2.803936 1_555
Ba1 O17 2.868173 1_455
Ba1 O15 2.868436 1_455
Ba1 O10 3.144853 1_555
Ba1 O12 3.145012 1_555
Ba1 O7 3.316402 1_455
Ba1 O9 3.316554 1_455
Co0 O6 2.045362 1_554
Co0 O2 2.050402 1_565
Co0 O15 2.065109 1_455
Co0 O4 2.179093 1_555
Co0 O10 2.246945 1_555
Co0 O1 2.361148 1_564
Co1 O9 2.045471 1_556
Co1 O5 2.050489 1_545
Co1 O16 2.065096 1_555
Co1 O3 2.179312 1_555
Co1 O13 2.246878 1_555
Co1 O1 2.360650 1_555
Co2 O7 2.045290 1_555
Co2 O3 2.050252 1_565
Co2 O14 2.065040 1_555
Co2 O5 2.179132 1_655
Co2 O11 2.247026 1_555
Co2 O0 2.361071 1_665
Co3 O8 2.045382 1_555
Co3 O4 2.050343 1_545
Co3 O17 2.064989 1_555
Co3 O2 2.179307 1_655
Co3 O12 2.247110 1_655
Co3 O0 2.360739 1_655
H0 O0 0.983343 1_555
H1 O1 0.983349 1_554
H2 O1 0.983314 1_565
H3 O0 0.983321 1_565
O2 P3 1.575743 1_555
O3 P2 1.575711 1_555
O4 P1 1.575703 1_555
O5 P0 1.575738 1_555
O6 P0 1.564443 1_555
O7 P1 1.564458 1_555
O8 P2 1.564453 1_555
O9 P3 1.564445 1_555
O10 P1 1.546951 1_555
O11 P0 1.546970 1_655
O12 P3 1.547003 1_555
O13 P2 1.546998 1_555
O14 P0 1.547580 1_555
O15 P1 1.547606 1_555
O16 P2 1.547628 1_455
O17 P3 1.547618 1_555
