# generated using pymatgen
data_CaRe2Si
_symmetry_space_group_name_H-M   'P 1'
_cell_length_a   4.46594925
_cell_length_b   4.46594925
_cell_length_c   4.46594925
_cell_angle_alpha   60.00000000
_cell_angle_beta   60.00000000
_cell_angle_gamma   60.00000000
_symmetry_Int_Tables_number   1
_chemical_formula_structural   CaRe2Si
_chemical_formula_sum   'Ca1 Re2 Si1'
_cell_volume   62.98343654
_cell_formula_units_Z   1
loop_
 _symmetry_equiv_pos_site_id
 _symmetry_equiv_pos_as_xyz
  1  'x, y, z'
loop_
 _atom_site_type_symbol
 _atom_site_label
 _atom_site_symmetry_multiplicity
 _atom_site_fract_x
 _atom_site_fract_y
 _atom_site_fract_z
 _atom_site_occupancy
  Ca  Ca0  1  0.00000000  0.00000000  0.00000000  1
  Re  Re0  1  0.25000000  0.25000000  0.25000000  1
  Re  Re1  1  0.75000000  0.75000000  0.75000000  1
  Si  Si0  1  0.50000000  0.50000000  0.50000000  1
loop_
_geom_bond_atom_site_label_1
_geom_bond_atom_site_label_2
_geom_bond_distance
_geom_bond_site_symmetry_2
Ca0 Re1 2.734824 1_544
Ca0 Re0 2.734824 1_455
Ca0 Re0 2.734824 1_554
Ca0 Re0 2.734824 1_555
Ca0 Re0 2.734824 1_545
Ca0 Re1 2.734824 1_445
Ca0 Re1 2.734824 1_454
Ca0 Re1 2.734824 1_444
Ca0 Si0 3.157903 1_554
Ca0 Si0 3.157903 1_455
Ca0 Si0 3.157903 1_544
Ca0 Si0 3.157903 1_445
Ca0 Si0 3.157903 1_454
Ca0 Si0 3.157903 1_545
Re0 Si0 2.734824 1_455
Re0 Si0 2.734824 1_554
Re0 Si0 2.734824 1_555
Re0 Si0 2.734824 1_545
Re1 Si0 2.734824 1_655
Re1 Si0 2.734824 1_555
Re1 Si0 2.734824 1_565
Re1 Si0 2.734824 1_556
