# generated using pymatgen
data_BiH24C6(I2N)3
_symmetry_space_group_name_H-M   'P 1'
_cell_length_a   18.48364241
_cell_length_b   18.48364241
_cell_length_c   18.48364171
_cell_angle_alpha   117.41487746
_cell_angle_beta   117.41487746
_cell_angle_gamma   117.41487695
_symmetry_Int_Tables_number   1
_chemical_formula_structural   BiH24C6(I2N)3
_chemical_formula_sum   'Bi4 H96 C24 I24 N12'
_cell_volume   2594.41760281
_cell_formula_units_Z   4
loop_
 _symmetry_equiv_pos_site_id
 _symmetry_equiv_pos_as_xyz
  1  'x, y, z'
loop_
 _atom_site_type_symbol
 _atom_site_label
 _atom_site_symmetry_multiplicity
 _atom_site_fract_x
 _atom_site_fract_y
 _atom_site_fract_z
 _atom_site_occupancy
  Bi  Bi0  1  0.00000000  0.50000000  0.00000000  1
  Bi  Bi1  1  0.50000000  0.50000000  0.50000000  1
  Bi  Bi2  1  0.00000000  0.00000000  0.50000000  1
  Bi  Bi3  1  0.50000000  0.00000000  0.00000000  1
  H  H0  1  0.92384200  0.54275000  0.67557500  1
  H  H1  1  0.21304200  0.25506800  0.43486600  1
  H  H2  1  0.12445300  0.17837600  0.43913300  1
  H  H3  1  0.11687300  0.69817800  0.45188500  1
  H  H4  1  0.33612000  0.49715700  0.93936700  1
  H  H5  1  0.07615800  0.45725000  0.32442500  1
  H  H6  1  0.98780100  0.18168700  0.95432100  1
  H  H7  1  0.24182800  0.86448400  0.37993400  1
  H  H8  1  0.62006600  0.75817200  0.13551600  1
  H  H9  1  0.41501500  0.64790700  0.87959600  1
  H  H10  1  0.87959600  0.41501500  0.64790700  1
  H  H11  1  0.55460400  0.31634200  0.91928100  1
  H  H12  1  0.98168300  0.10472000  0.19956700  1
  H  H13  1  0.82162400  0.56086700  0.87554700  1
  H  H14  1  0.38442400  0.47929800  0.19284700  1
  H  H15  1  0.48892700  0.57925400  0.96155000  1
  H  H16  1  0.01219900  0.81831300  0.04567900  1
  H  H17  1  0.62789200  0.29537800  0.43512600  1
  H  H18  1  0.89528000  0.80043300  0.01831800  1
  H  H19  1  0.51698200  0.90328500  0.70006200  1
  H  H20  1  0.58498500  0.35209300  0.12040400  1
  H  H21  1  0.54811500  0.88312700  0.30182200  1
  H  H22  1  0.97835000  0.79735000  0.11594400  1
  H  H23  1  0.04567900  0.01219900  0.81831300  1
  H  H24  1  0.56513400  0.78695800  0.74493200  1
  H  H25  1  0.90328500  0.70006200  0.51698200  1
  H  H26  1  0.69817800  0.45188500  0.11687300  1
  H  H27  1  0.83431000  0.07196600  0.62130700  1
  H  H28  1  0.43512600  0.62789200  0.29537800  1
  H  H29  1  0.10472000  0.19956700  0.98168300  1
  H  H30  1  0.62130700  0.83431000  0.07196600  1
  H  H31  1  0.20265000  0.88405600  0.02165000  1
  H  H32  1  0.08071900  0.44539600  0.68365800  1
  H  H33  1  0.66388000  0.50284300  0.06063300  1
  H  H34  1  0.01831800  0.89528000  0.80043300  1
  H  H35  1  0.70462200  0.56487400  0.37210800  1
  H  H36  1  0.74493200  0.56513400  0.78695800  1
  H  H37  1  0.64790700  0.87959600  0.41501500  1
  H  H38  1  0.57925400  0.96155000  0.48892700  1
  H  H39  1  0.95432100  0.98780100  0.18168700  1
  H  H40  1  0.44539600  0.68365800  0.08071900  1
  H  H41  1  0.81831300  0.04567900  0.01219900  1
  H  H42  1  0.37993400  0.24182800  0.86448400  1
  H  H43  1  0.68365800  0.08071900  0.44539600  1
  H  H44  1  0.49715700  0.93936700  0.33612000  1
  H  H45  1  0.30182200  0.54811500  0.88312700  1
  H  H46  1  0.93936700  0.33612000  0.49715700  1
  H  H47  1  0.35209300  0.12040400  0.58498500  1
  H  H48  1  0.88405600  0.02165000  0.20265000  1
  H  H49  1  0.11594400  0.97835000  0.79735000  1
  H  H50  1  0.13551600  0.62006600  0.75817200  1
  H  H51  1  0.29993800  0.48301800  0.09671500  1
  H  H52  1  0.47929800  0.19284700  0.38442400  1
  H  H53  1  0.80715300  0.61557600  0.52070200  1
  H  H54  1  0.18168700  0.95432100  0.98780100  1
  H  H55  1  0.54275000  0.67557500  0.92384200  1
  H  H56  1  0.32442500  0.07615800  0.45725000  1
  H  H57  1  0.31634200  0.91928100  0.55460400  1
  H  H58  1  0.25506800  0.43486600  0.21304200  1
  H  H59  1  0.12040400  0.58498500  0.35209300  1
  H  H60  1  0.61557600  0.52070200  0.80715300  1
  H  H61  1  0.75817200  0.13551600  0.62006600  1
  H  H62  1  0.87554700  0.82162400  0.56086700  1
  H  H63  1  0.45188500  0.11687300  0.69817800  1
  H  H64  1  0.86448400  0.37993400  0.24182800  1
  H  H65  1  0.79735000  0.11594400  0.97835000  1
  H  H66  1  0.96155000  0.48892700  0.57925400  1
  H  H67  1  0.88312700  0.30182200  0.54811500  1
  H  H68  1  0.19284700  0.38442400  0.47929800  1
  H  H69  1  0.37210800  0.70462200  0.56487400  1
  H  H70  1  0.43486600  0.21304200  0.25506800  1
  H  H71  1  0.07196600  0.62130700  0.83431000  1
  H  H72  1  0.02165000  0.20265000  0.88405600  1
  H  H73  1  0.45725000  0.32442500  0.07615800  1
  H  H74  1  0.56086700  0.87554700  0.82162400  1
  H  H75  1  0.43913300  0.12445300  0.17837600  1
  H  H76  1  0.91928100  0.55460400  0.31634200  1
  H  H77  1  0.09671500  0.29993800  0.48301800  1
  H  H78  1  0.56487400  0.37210800  0.70462200  1
  H  H79  1  0.19956700  0.98168300  0.10472000  1
  H  H80  1  0.78695800  0.74493200  0.56513400  1
  H  H81  1  0.67557500  0.92384200  0.54275000  1
  H  H82  1  0.48301800  0.09671500  0.29993800  1
  H  H83  1  0.37869300  0.16569000  0.92803400  1
  H  H84  1  0.06063300  0.66388000  0.50284300  1
  H  H85  1  0.16569000  0.92803400  0.37869300  1
  H  H86  1  0.52070200  0.80715300  0.61557600  1
  H  H87  1  0.92803400  0.37869300  0.16569000  1
  H  H88  1  0.70006200  0.51698200  0.90328500  1
  H  H89  1  0.80043300  0.01831800  0.89528000  1
  H  H90  1  0.50284300  0.06063300  0.66388000  1
  H  H91  1  0.51107300  0.42074600  0.03845000  1
  H  H92  1  0.17837600  0.43913300  0.12445300  1
  H  H93  1  0.03845000  0.51107300  0.42074600  1
  H  H94  1  0.29537800  0.43512600  0.62789200  1
  H  H95  1  0.42074600  0.03845000  0.51107300  1
  C  C0  1  0.38971700  0.59250000  0.97680800  1
  C  C1  1  0.81900300  0.65777400  0.49427600  1
  C  C2  1  0.29205200  0.03094300  0.47680100  1
  C  C3  1  0.18099700  0.34222600  0.50572400  1
  C  C4  1  0.02474600  0.92850600  0.76520500  1
  C  C5  1  0.03094300  0.47680100  0.29205200  1
  C  C6  1  0.70794800  0.96905700  0.52319900  1
  C  C7  1  0.40750000  0.02319200  0.61028300  1
  C  C8  1  0.96905700  0.52319900  0.70794800  1
  C  C9  1  0.52319900  0.70794800  0.96905700  1
  C  C10  1  0.97680800  0.38971700  0.59250000  1
  C  C11  1  0.34222600  0.50572400  0.18099700  1
  C  C12  1  0.47680100  0.29205200  0.03094300  1
  C  C13  1  0.02319200  0.61028300  0.40750000  1
  C  C14  1  0.59250000  0.97680800  0.38971700  1
  C  C15  1  0.49427600  0.81900300  0.65777400  1
  C  C16  1  0.07149400  0.23479500  0.97525400  1
  C  C17  1  0.61028300  0.40750000  0.02319200  1
  C  C18  1  0.23479500  0.97525400  0.07149400  1
  C  C19  1  0.92850600  0.76520500  0.02474600  1
  C  C20  1  0.97525400  0.07149400  0.23479500  1
  C  C21  1  0.65777400  0.49427600  0.81900300  1
  C  C22  1  0.50572400  0.18099700  0.34222600  1
  C  C23  1  0.76520500  0.02474600  0.92850600  1
  I  I0  1  0.70284800  0.29512500  0.67658300  1
  I  I1  1  0.89561800  0.08563400  0.44102800  1
  I  I2  1  0.31827600  0.21903200  0.38377700  1
  I  I3  1  0.79728100  0.19759600  0.84674700  1
  I  I4  1  0.70487500  0.32341700  0.29715200  1
  I  I5  1  0.55897200  0.10438200  0.91436600  1
  I  I6  1  0.29715200  0.70487500  0.32341700  1
  I  I7  1  0.08563400  0.44102800  0.89561800  1
  I  I8  1  0.68172400  0.78096800  0.61622300  1
  I  I9  1  0.44102800  0.89561800  0.08563400  1
  I  I10  1  0.67658300  0.70284800  0.29512500  1
  I  I11  1  0.80240400  0.15325300  0.20271900  1
  I  I12  1  0.84674700  0.79728100  0.19759600  1
  I  I13  1  0.38377700  0.31827600  0.21903200  1
  I  I14  1  0.19759600  0.84674700  0.79728100  1
  I  I15  1  0.32341700  0.29715200  0.70487500  1
  I  I16  1  0.61622300  0.68172400  0.78096800  1
  I  I17  1  0.15325300  0.20271900  0.80240400  1
  I  I18  1  0.21903200  0.38377700  0.31827600  1
  I  I19  1  0.78096800  0.61622300  0.68172400  1
  I  I20  1  0.29512500  0.67658300  0.70284800  1
  I  I21  1  0.91436600  0.55897200  0.10438200  1
  I  I22  1  0.20271900  0.80240400  0.15325300  1
  I  I23  1  0.10438200  0.91436600  0.55897200  1
  N  N0  1  0.78769900  0.59241800  0.87142400  1
  N  N1  1  0.48883500  0.34009300  0.98499900  1
  N  N2  1  0.51116500  0.65990700  0.01500100  1
  N  N3  1  0.01500100  0.51116500  0.65990700  1
  N  N4  1  0.65990700  0.01500100  0.51116500  1
  N  N5  1  0.87142400  0.78769900  0.59241800  1
  N  N6  1  0.12857600  0.21230100  0.40758200  1
  N  N7  1  0.40758200  0.12857600  0.21230100  1
  N  N8  1  0.21230100  0.40758200  0.12857600  1
  N  N9  1  0.59241800  0.87142400  0.78769900  1
  N  N10  1  0.98499900  0.48883500  0.34009300  1
  N  N11  1  0.34009300  0.98499900  0.48883500  1
loop_
_geom_bond_atom_site_label_1
_geom_bond_atom_site_label_2
_geom_bond_distance
_geom_bond_site_symmetry_2
Bi0 I3 3.109034 1_454
Bi0 I22 3.109034 1_555
Bi0 I21 3.143286 1_455
Bi0 I7 3.143286 1_554
Bi0 I6 3.163667 1_555
Bi0 I0 3.163667 1_454
Bi1 I16 3.144221 1_555
Bi1 I13 3.144221 1_555
Bi1 I19 3.144221 1_555
Bi1 I18 3.144221 1_555
Bi1 I8 3.144221 1_555
Bi1 I2 3.144221 1_555
Bi2 I12 3.109034 1_445
Bi2 I17 3.109034 1_555
Bi2 I23 3.143286 1_545
Bi2 I1 3.143286 1_455
Bi2 I15 3.163667 1_555
Bi2 I10 3.163667 1_445
Bi3 I14 3.109034 1_544
Bi3 I11 3.109034 1_555
Bi3 I5 3.143286 1_554
Bi3 I9 3.143286 1_545
Bi3 I4 3.163667 1_555
Bi3 I20 3.163667 1_544
H1 N6 1.043100 1_555
H2 N6 1.035747 1_555
H7 N11 1.044655 1_555
H8 N2 1.044655 1_555
H13 N0 1.035747 1_555
H15 N2 1.035816 1_556
H24 N9 1.043100 1_555
H36 N0 1.043100 1_555
H38 N4 1.035816 1_565
H42 N1 1.044655 1_555
H50 N3 1.044655 1_555
H58 N8 1.043100 1_555
H61 N4 1.044655 1_555
H62 N5 1.035747 1_555
H64 N10 1.044655 1_555
H66 N3 1.035816 1_655
H70 N7 1.043100 1_555
H74 N9 1.035747 1_555
H75 N7 1.035747 1_555
H80 N5 1.043100 1_555
H91 N1 1.035816 1_554
H92 N8 1.035747 1_555
H93 N10 1.035816 1_455
H95 N11 1.035816 1_545
C0 H45 1.088464 1_555
C0 H40 1.090856 1_556
C0 H4 1.097238 1_555
C0 N2 1.498354 1_556
C1 H53 1.089468 1_555
C1 H25 1.090187 1_555
C1 H35 1.098857 1_555
C1 N5 1.491228 1_555
C2 H47 1.089121 1_555
C2 H85 1.092712 1_545
C2 H56 1.097190 1_555
C2 N11 1.498531 1_545
C3 H68 1.089468 1_555
C3 H77 1.090187 1_555
C3 H94 1.098857 1_555
C3 N6 1.491228 1_555
C4 H49 1.089418 1_555
C4 H34 1.089752 1_555
C4 H23 1.098670 1_565
C4 N5 1.491303 1_455
C5 H59 1.089121 1_555
C5 H87 1.092712 1_455
C5 H5 1.097190 1_555
C5 N10 1.498531 1_455
C6 H37 1.089121 1_555
C6 H27 1.092712 1_565
C6 H81 1.097190 1_555
C6 N4 1.498531 1_565
C7 H63 1.088464 1_555
C7 H57 1.090856 1_545
C7 H90 1.097238 1_555
C7 N11 1.498354 1_545
C8 H10 1.089121 1_555
C8 H71 1.092712 1_655
C8 H0 1.097190 1_555
C8 N3 1.498531 1_655
C9 H9 1.089121 1_555
C9 H30 1.092712 1_556
C9 H55 1.097190 1_555
C9 N2 1.498531 1_556
C10 H67 1.088464 1_555
C10 H32 1.090856 1_655
C10 H46 1.097237 1_555
C10 N3 1.498354 1_655
C11 H14 1.089468 1_555
C11 H51 1.090187 1_555
C11 H28 1.098857 1_555
C11 N8 1.491229 1_555
C12 H20 1.089121 1_555
C12 H83 1.092712 1_554
C12 H73 1.097190 1_555
C12 N1 1.498531 1_554
C13 H3 1.088464 1_555
C13 H76 1.090856 1_455
C13 H84 1.097237 1_555
C13 N10 1.498354 1_455
C14 H21 1.088464 1_555
C14 H43 1.090856 1_565
C14 H44 1.097238 1_555
C14 N4 1.498354 1_565
C15 H86 1.089468 1_555
C15 H19 1.090187 1_555
C15 H69 1.098857 1_555
C15 N9 1.491228 1_555
C16 H72 1.089418 1_555
C16 H29 1.089754 1_555
C16 H6 1.098670 1_455
C16 N8 1.491303 1_556
C17 H26 1.088464 1_555
C17 H11 1.090856 1_554
C17 H33 1.097238 1_555
C17 N1 1.498354 1_554
C18 H31 1.089418 1_555
C18 H79 1.089754 1_555
C18 H54 1.098670 1_554
C18 N7 1.491303 1_565
C19 H22 1.089418 1_555
C19 H18 1.089752 1_555
C19 H16 1.098670 1_655
C19 N0 1.491303 1_554
C20 H48 1.089418 1_555
C20 H12 1.089754 1_555
C20 H39 1.098670 1_545
C20 N6 1.491303 1_655
C21 H60 1.089468 1_555
C21 H88 1.090187 1_555
C21 H78 1.098857 1_555
C21 N0 1.491229 1_555
C22 H52 1.089468 1_555
C22 H82 1.090187 1_555
C22 H17 1.098857 1_555
C22 N7 1.491228 1_555
C23 H65 1.089418 1_555
C23 H89 1.089752 1_555
C23 H41 1.098670 1_556
C23 N9 1.491303 1_545
