# generated using pymatgen
data_Ho2Se3
_symmetry_space_group_name_H-M   'P 1'
_cell_length_a   14.35324729
_cell_length_b   14.35324729
_cell_length_c   14.35324729
_cell_angle_alpha   144.82636429
_cell_angle_beta   144.82636429
_cell_angle_gamma   50.59335659
_symmetry_Int_Tables_number   1
_chemical_formula_structural   Ho2Se3
_chemical_formula_sum   'Ho16 Se24'
_cell_volume   976.28664058
_cell_formula_units_Z   8
loop_
 _symmetry_equiv_pos_site_id
 _symmetry_equiv_pos_as_xyz
  1  'x, y, z'
loop_
 _atom_site_type_symbol
 _atom_site_label
 _atom_site_symmetry_multiplicity
 _atom_site_fract_x
 _atom_site_fract_y
 _atom_site_fract_z
 _atom_site_occupancy
  Ho  Ho0  1  0.71965200  0.59472600  0.39375800  1
  Ho  Ho1  1  0.20096800  0.32589400  0.60624200  1
  Ho  Ho2  1  0.41783800  0.91783800  0.50000000  1
  Ho  Ho3  1  0.99221200  0.62500000  0.86721200  1
  Ho  Ho4  1  0.33216200  0.33216200  0.00000000  1
  Ho  Ho5  1  0.03034800  0.92410600  0.37507400  1
  Ho  Ho6  1  0.54903200  0.65527400  0.62492600  1
  Ho  Ho7  1  0.75778800  0.12500000  0.13278800  1
  Ho  Ho8  1  0.34472600  0.96965200  0.89375800  1
  Ho  Ho9  1  0.66783800  0.66783800  0.00000000  1
  Ho  Ho10  1  0.37500000  0.24221200  0.36721200  1
  Ho  Ho11  1  0.87500000  0.00778800  0.63278800  1
  Ho  Ho12  1  0.07589400  0.45096800  0.10624200  1
  Ho  Ho13  1  0.08216200  0.58216200  0.50000000  1
  Ho  Ho14  1  0.67410600  0.28034800  0.87507400  1
  Ho  Ho15  1  0.40527400  0.79903200  0.12492600  1
  Se  Se0  1  0.50014600  0.25486800  0.88553900  1
  Se  Se1  1  0.71126300  0.82582400  0.74698400  1
  Se  Se2  1  0.36932900  0.61460700  0.11446100  1
  Se  Se3  1  0.24985400  0.63539300  0.25472200  1
  Se  Se4  1  0.38067100  0.99513200  0.74527800  1
  Se  Se5  1  0.67116000  0.42417600  0.38543900  1
  Se  Se6  1  0.07884000  0.96427900  0.25301600  1
  Se  Se7  1  0.84687200  0.59124800  0.90268700  1
  Se  Se8  1  0.03873700  0.28572100  0.61456100  1
  Se  Se9  1  0.05581500  0.15312800  0.74437600  1
  Se  Se10  1  0.68856100  0.94418500  0.09731300  1
  Se  Se11  1  0.57582400  0.96126300  0.24698400  1
  Se  Se12  1  0.71427900  0.32884000  0.75301600  1
  Se  Se13  1  0.00486800  0.75014600  0.38553900  1
  Se  Se14  1  0.40875200  0.31143900  0.25562400  1
  Se  Se15  1  0.17417600  0.92116000  0.88543900  1
  Se  Se16  1  0.36460700  0.61932900  0.61446100  1
  Se  Se17  1  0.38539300  0.49985400  0.75472200  1
  Se  Se18  1  0.03572100  0.28873700  0.11456100  1
  Se  Se19  1  0.90312800  0.30581500  0.24437600  1
  Se  Se20  1  0.06143900  0.65875200  0.75562400  1
  Se  Se21  1  0.34124800  0.09687200  0.40268700  1
  Se  Se22  1  0.74513200  0.63067100  0.24527800  1
  Se  Se23  1  0.69418500  0.93856100  0.59731300  1
loop_
_geom_bond_atom_site_label_1
_geom_bond_atom_site_label_2
_geom_bond_distance
_geom_bond_site_symmetry_2
Ho0 Se5 2.835604 1_555
Ho0 Se20 2.855370 1_655
Ho0 Se22 2.872823 1_555
Ho0 Se2 2.920651 1_555
Ho0 Se23 2.984751 1_555
Ho0 Se19 3.091719 1_555
Ho0 Se1 3.117600 1_555
Ho0 Se0 3.271264 1_554
Ho1 Se8 2.835604 1_555
Ho1 Se19 2.855370 1_455
Ho1 Se17 2.872823 1_555
Ho1 Se0 2.920651 1_555
Ho1 Se21 2.984751 1_555
Ho1 Se20 3.091719 1_555
Ho1 Se6 3.117600 1_545
Ho1 Se2 3.271264 1_556
Ho2 Se2 2.867815 1_555
Ho2 Se0 2.867815 1_565
Ho2 Se1 2.869286 1_555
Ho2 Se6 2.869286 1_555
Ho2 Se23 3.087689 1_555
Ho2 Se21 3.087689 1_565
Ho2 Se3 3.137401 1_555
Ho2 Se4 3.137401 1_555
Ho3 Se7 2.875529 1_555
Ho3 Se20 2.875529 1_655
Ho3 Se6 2.875931 1_656
Ho3 Se8 2.875931 1_655
Ho3 Se1 3.089584 1_555
Ho3 Se5 3.089584 1_555
Ho3 Se2 3.217449 1_656
Ho3 Se3 3.217449 1_656
Ho4 Se3 2.867815 1_555
Ho4 Se4 2.867815 1_544
Ho4 Se8 2.869286 1_554
Ho4 Se5 2.869286 1_555
Ho4 Se9 3.087689 1_554
Ho4 Se14 3.087689 1_555
Ho4 Se2 3.137401 1_555
Ho4 Se0 3.137401 1_554
Ho5 Se6 2.835604 1_555
Ho5 Se10 2.855370 1_455
Ho5 Se13 2.872823 1_555
Ho5 Se4 2.920651 1_555
Ho5 Se9 2.984751 1_565
Ho5 Se7 3.091719 1_454
Ho5 Se8 3.117600 1_565
Ho5 Se3 3.271264 1_555
Ho6 Se1 2.835604 1_555
Ho6 Se7 2.855370 1_555
Ho6 Se16 2.872823 1_555
Ho6 Se3 2.920651 1_555
Ho6 Se14 2.984751 1_555
Ho6 Se10 3.091719 1_556
Ho6 Se5 3.117600 1_555
Ho6 Se4 3.271264 1_555
Ho7 Se19 2.875529 1_555
Ho7 Se10 2.875529 1_545
Ho7 Se5 2.875931 1_555
Ho7 Se1 2.875931 1_544
Ho7 Se8 3.089584 1_655
Ho7 Se6 3.089584 1_645
Ho7 Se0 3.217449 1_554
Ho7 Se4 3.217449 1_544
Ho8 Se15 2.835604 1_555
Ho8 Se14 2.855370 1_566
Ho8 Se4 2.872823 1_555
Ho8 Se16 2.920651 1_555
Ho8 Se10 2.984751 1_556
Ho8 Se9 3.091719 1_565
Ho8 Se11 3.117600 1_556
Ho8 Se13 3.271264 1_555
Ho9 Se13 2.867815 1_655
Ho9 Se16 2.867815 1_554
Ho9 Se11 2.869286 1_555
Ho9 Se12 2.869286 1_554
Ho9 Se10 3.087689 1_555
Ho9 Se7 3.087689 1_554
Ho9 Se22 3.137401 1_555
Ho9 Se17 3.137401 1_554
Ho10 Se21 2.875529 1_555
Ho10 Se14 2.875529 1_555
Ho10 Se12 2.875931 1_555
Ho10 Se18 2.875931 1_555
Ho10 Se15 3.089584 1_544
Ho10 Se11 3.089584 1_545
Ho10 Se17 3.217449 1_555
Ho10 Se16 3.217449 1_555
Ho11 Se9 2.875529 1_655
Ho11 Se23 2.875529 1_545
Ho11 Se15 2.875931 1_645
Ho11 Se11 2.875931 1_545
Ho11 Se12 3.089584 1_555
Ho11 Se18 3.089584 1_656
Ho11 Se22 3.217449 1_545
Ho11 Se13 3.217449 1_645
Ho12 Se18 2.835604 1_555
Ho12 Se9 2.855370 1_554
Ho12 Se3 2.872823 1_555
Ho12 Se13 2.920651 1_555
Ho12 Se7 2.984751 1_454
Ho12 Se14 3.091719 1_555
Ho12 Se12 3.117600 1_454
Ho12 Se16 3.271264 1_555
Ho13 Se22 2.867815 1_455
Ho13 Se17 2.867815 1_555
Ho13 Se18 2.869286 1_555
Ho13 Se15 2.869286 1_555
Ho13 Se20 3.087689 1_555
Ho13 Se19 3.087689 1_455
Ho13 Se16 3.137401 1_555
Ho13 Se13 3.137401 1_555
Ho14 Se12 2.835604 1_555
Ho14 Se23 2.855370 1_545
Ho14 Se0 2.872823 1_555
Ho14 Se22 2.920651 1_556
Ho14 Se19 2.984751 1_556
Ho14 Se21 3.091719 1_555
Ho14 Se18 3.117600 1_656
Ho14 Se17 3.271264 1_555
Ho15 Se11 2.835604 1_555
Ho15 Se21 2.855370 1_565
Ho15 Se2 2.872823 1_555
Ho15 Se17 2.920651 1_554
Ho15 Se20 2.984751 1_554
Ho15 Se23 3.091719 1_555
Ho15 Se15 3.117600 1_554
Ho15 Se22 3.271264 1_555
