# generated using pymatgen
data_Sm(BC)2
_symmetry_space_group_name_H-M   'P 1'
_cell_length_a   3.73550848
_cell_length_b   5.36208568
_cell_length_c   5.36208568
_cell_angle_alpha   90.00000000
_cell_angle_beta   90.00000000
_cell_angle_gamma   90.00000000
_symmetry_Int_Tables_number   1
_chemical_formula_structural   Sm(BC)2
_chemical_formula_sum   'Sm2 B4 C4'
_cell_volume   107.40320100
_cell_formula_units_Z   2
loop_
 _symmetry_equiv_pos_site_id
 _symmetry_equiv_pos_as_xyz
  1  'x, y, z'
loop_
 _atom_site_type_symbol
 _atom_site_label
 _atom_site_symmetry_multiplicity
 _atom_site_fract_x
 _atom_site_fract_y
 _atom_site_fract_z
 _atom_site_occupancy
  Sm  Sm0  1  -0.00000000  0.50000000  0.50000000  1
  Sm  Sm1  1  -0.00000000  0.00000000  0.00000000  1
  B  B0  1  0.50000000  0.63715534  0.13715534  1
  B  B1  1  0.50000000  0.86284466  0.63715534  1
  B  B2  1  0.50000000  0.13715534  0.36284466  1
  B  B3  1  0.50000000  0.36284466  0.86284466  1
  C  C0  1  0.50000000  0.66150823  0.83849177  1
  C  C1  1  0.50000000  0.83849177  0.33849177  1
  C  C2  1  0.50000000  0.33849177  0.16150823  1
  C  C3  1  0.50000000  0.16150823  0.66150823  1
loop_
_geom_bond_atom_site_label_1
_geom_bond_atom_site_label_2
_geom_bond_distance
_geom_bond_site_symmetry_2
B0 C1 1.526761 1_555
B0 C2 1.606775 1_555
B0 C0 1.606775 1_554
B0 Sm0 2.795488 1_555
B0 Sm0 2.795488 1_655
B0 Sm1 2.795488 1_665
B0 Sm1 2.795488 1_565
B1 C0 1.526761 1_555
B1 C3 1.606775 1_565
B1 C1 1.606775 1_555
B1 Sm1 2.795488 1_566
B1 Sm0 2.795488 1_555
B1 Sm1 2.795488 1_666
B1 Sm0 2.795488 1_655
B2 C2 1.526761 1_555
B2 C1 1.606775 1_545
B2 C3 1.606775 1_555
B2 Sm0 2.795488 1_555
B2 Sm0 2.795488 1_655
B2 Sm1 2.795488 1_655
B2 Sm1 2.795488 1_555
B3 C3 1.526761 1_555
B3 C2 1.606775 1_556
B3 C0 1.606775 1_555
B3 Sm1 2.795488 1_556
B3 Sm1 2.795488 1_656
B3 Sm0 2.795488 1_555
B3 Sm0 2.795488 1_655
C0 Sm0 2.744595 1_555
C0 Sm1 2.744595 1_666
C0 Sm0 2.744595 1_655
C0 Sm1 2.744595 1_566
C1 Sm0 2.744595 1_555
C1 Sm0 2.744595 1_655
C1 Sm1 2.744595 1_565
C1 Sm1 2.744595 1_665
C2 Sm0 2.744595 1_555
C2 Sm0 2.744595 1_655
C2 Sm1 2.744595 1_555
C2 Sm1 2.744595 1_655
C3 Sm0 2.744595 1_555
C3 Sm0 2.744595 1_655
C3 Sm1 2.744595 1_556
C3 Sm1 2.744595 1_656
