# generated using pymatgen
data_In(HO)3
_symmetry_space_group_name_H-M   'P 1'
_cell_length_a   6.87753220
_cell_length_b   6.87753220
_cell_length_c   6.87753145
_cell_angle_alpha   109.28262868
_cell_angle_beta   109.28262863
_cell_angle_gamma   109.28261426
_symmetry_Int_Tables_number   1
_chemical_formula_structural   In(HO)3
_chemical_formula_sum   'In4 H12 O12'
_cell_volume   252.15746068
_cell_formula_units_Z   4
loop_
 _symmetry_equiv_pos_site_id
 _symmetry_equiv_pos_as_xyz
  1  'x, y, z'
loop_
 _atom_site_type_symbol
 _atom_site_label
 _atom_site_symmetry_multiplicity
 _atom_site_fract_x
 _atom_site_fract_y
 _atom_site_fract_z
 _atom_site_occupancy
  In  In0  1  0.00000000  0.00000000  0.50000000  1
  In  In1  1  0.50000000  0.50000000  0.50000000  1
  In  In2  1  0.00000000  0.50000000  0.00000000  1
  In  In3  1  0.50000000  0.00000000  0.00000000  1
  H  H0  1  0.82450718  0.54762222  0.37455625  1
  H  H1  1  0.17549282  0.45237778  0.62544375  1
  H  H2  1  0.04391384  0.68662921  0.72930505  1
  H  H3  1  0.95608616  0.31337079  0.27069495  1
  H  H4  1  0.27069495  0.95608616  0.31337079  1
  H  H5  1  0.72930505  0.04391384  0.68662921  1
  H  H6  1  0.62544375  0.17549282  0.45237778  1
  H  H7  1  0.37455625  0.82450718  0.54762222  1
  H  H8  1  0.45237778  0.62544375  0.17549282  1
  H  H9  1  0.54762222  0.37455625  0.82450718  1
  H  H10  1  0.31337079  0.27069495  0.95608616  1
  H  H11  1  0.68662921  0.72930505  0.04391384  1
  O  O0  1  0.83184174  0.67196279  0.50559209  1
  O  O1  1  0.16815826  0.32803721  0.49440791  1
  O  O2  1  0.16713572  0.67988669  0.84876237  1
  O  O3  1  0.83286428  0.32011331  0.15123763  1
  O  O4  1  0.15123763  0.83286428  0.32011331  1
  O  O5  1  0.84876237  0.16713572  0.67988669  1
  O  O6  1  0.49440791  0.16815826  0.32803721  1
  O  O7  1  0.50559209  0.83184174  0.67196279  1
  O  O8  1  0.32803721  0.49440791  0.16815826  1
  O  O9  1  0.67196279  0.50559209  0.83184174  1
  O  O10  1  0.32011331  0.15123763  0.83286428  1
  O  O11  1  0.67988669  0.84876237  0.16713572  1
loop_
_geom_bond_atom_site_label_1
_geom_bond_atom_site_label_2
_geom_bond_distance
_geom_bond_site_symmetry_2
In0 O5 2.152701 1_455
In0 O4 2.152701 1_545
In0 O11 2.180799 1_445
In0 O10 2.180799 1_555
In0 O0 2.189145 1_445
In0 O1 2.189145 1_555
In1 O8 2.176737 1_555
In1 O9 2.176737 1_555
In1 O6 2.176738 1_555
In1 O7 2.176738 1_555
In1 O1 2.176738 1_555
In1 O0 2.176738 1_555
In2 O2 2.152701 1_554
In2 O3 2.152701 1_455
In2 O5 2.180799 1_454
In2 O4 2.180799 1_555
In2 O9 2.189144 1_454
In2 O8 2.189144 1_555
In3 O10 2.152701 1_554
In3 O11 2.152701 1_545
In3 O2 2.180800 1_544
In3 O3 2.180800 1_555
In3 O7 2.189144 1_544
In3 O6 2.189144 1_555
H0 O0 0.989189 1_555
H1 O1 0.989189 1_555
H2 O2 0.993275 1_555
H3 O3 0.993275 1_555
H4 O4 0.993276 1_555
H5 O5 0.993276 1_555
H6 O6 0.989189 1_555
H7 O7 0.989189 1_555
H8 O8 0.989190 1_555
H9 O9 0.989190 1_555
H10 O10 0.993275 1_555
H11 O11 0.993275 1_555
