# generated using pymatgen
data_SrLaTa2(NO)3
_symmetry_space_group_name_H-M   'P 1'
_cell_length_a   5.72373700
_cell_length_b   5.73321335
_cell_length_c   8.23238524
_cell_angle_alpha   89.97673024
_cell_angle_beta   89.95440633
_cell_angle_gamma   88.89751145
_symmetry_Int_Tables_number   1
_chemical_formula_structural   SrLaTa2(NO)3
_chemical_formula_sum   'Sr2 La2 Ta4 N6 O6'
_cell_volume   270.09894177
_cell_formula_units_Z   2
loop_
 _symmetry_equiv_pos_site_id
 _symmetry_equiv_pos_as_xyz
  1  'x, y, z'
loop_
 _atom_site_type_symbol
 _atom_site_label
 _atom_site_symmetry_multiplicity
 _atom_site_fract_x
 _atom_site_fract_y
 _atom_site_fract_z
 _atom_site_occupancy
  Sr  Sr0  1  0.00314200  0.01650500  0.75271000  1
  Sr  Sr1  1  0.50607900  0.48621600  0.25762200  1
  La  La0  1  0.50057300  0.53028300  0.75876300  1
  La  La1  1  0.00601500  0.98049200  0.25397500  1
  Ta  Ta0  1  0.99673000  0.49048700  0.01205900  1
  Ta  Ta1  1  0.00790500  0.51035400  0.51227900  1
  Ta  Ta2  1  0.49616600  0.99453300  0.50946600  1
  Ta  Ta3  1  0.50955300  0.01134100  0.00985500  1
  N  N0  1  0.92676200  0.50668900  0.74415300  1
  N  N1  1  0.77645800  0.21967400  0.01950000  1
  N  N2  1  0.54545400  0.97328800  0.74505800  1
  N  N3  1  0.42883400  0.01880300  0.24462500  1
  N  N4  1  0.23175200  0.76886600  0.51560700  1
  N  N5  1  0.04527500  0.49466200  0.24494100  1
  O  O0  1  0.78765200  0.21093500  0.46479500  1
  O  O1  1  0.71975500  0.72387300  0.02958300  1
  O  O2  1  0.72957800  0.72606600  0.46191400  1
  O  O3  1  0.27701600  0.28176000  0.95641400  1
  O  O4  1  0.28401600  0.28118700  0.53605600  1
  O  O5  1  0.22128600  0.77398700  0.97062600  1
loop_
_geom_bond_atom_site_label_1
_geom_bond_atom_site_label_2
_geom_bond_distance
_geom_bond_site_symmetry_2
La0 N0 2.443410 1_555
La0 O3 2.525872 1_555
La0 N2 2.560146 1_555
La0 O4 2.647863 1_555
La0 O5 2.731521 1_555
La0 O1 2.799361 1_556
La0 N4 2.857829 1_555
La0 O2 2.999894 1_555
La1 N3 2.435410 1_565
La1 O0 2.500930 1_465
La1 N1 2.695436 1_465
La1 O2 2.764800 1_455
La1 N4 2.778953 1_555
La1 N5 2.791120 1_555
La1 O5 2.881431 1_554
La1 O1 2.891613 1_455
La1 N5 2.961606 1_565
N0 Ta1 1.964405 1_655
N0 Ta0 2.243451 1_556
N0 Sr0 2.836661 1_655
N0 Sr0 2.964579 1_665
N1 Ta3 1.958896 1_555
N1 Ta0 2.019678 1_555
N1 Sr0 2.793463 1_654
N1 Sr1 2.911982 1_555
N2 Ta2 1.963512 1_555
N2 Ta3 2.199950 1_566
N2 Sr0 2.636924 1_665
N3 Ta3 1.987100 1_555
N3 Ta2 2.218221 1_545
N3 Sr1 2.726544 1_555
N3 Sr1 3.078677 1_545
N4 Ta1 1.977910 1_555
N4 Ta2 2.010505 1_555
N4 Sr0 2.732146 1_565
N4 Sr1 3.082480 1_555
N5 Ta0 1.937647 1_455
N5 Ta1 2.212728 1_555
N5 Sr1 2.639181 1_555
N5 Sr1 3.089208 1_455
O0 Ta2 2.129872 1_545
O0 Ta1 2.184842 1_655
O0 Sr1 2.810944 1_555
O0 Sr0 2.886424 1_655
O1 Ta3 2.028299 1_565
O1 Ta0 2.059766 1_555
O1 Sr1 2.633433 1_555
O2 Ta1 2.040610 1_655
O2 Ta2 2.056139 1_555
O2 Sr1 2.535526 1_555
O3 Ta0 2.034946 1_456
O3 Ta3 2.071154 1_556
O3 Sr0 2.771328 1_555
O3 Sr1 3.050966 1_556
O4 Ta2 2.036275 1_545
O4 Ta1 2.045129 1_555
O4 Sr0 2.855792 1_555
O4 Sr1 2.881319 1_555
O5 Ta0 2.118820 1_456
O5 Ta3 2.183132 1_566
O5 Sr0 2.577845 1_565
O5 Sr1 3.295575 1_556
