# generated using pymatgen
data_P6N6Cl10O
_symmetry_space_group_name_H-M   'P 1'
_cell_length_a   9.52856400
_cell_length_b   11.67530200
_cell_length_c   21.94439106
_cell_angle_alpha   75.68861820
_cell_angle_beta   90.00000000
_cell_angle_gamma   90.00000000
_symmetry_Int_Tables_number   1
_chemical_formula_structural   P6N6Cl10O
_chemical_formula_sum   'P24 N24 Cl40 O4'
_cell_volume   2365.52716796
_cell_formula_units_Z   4
loop_
 _symmetry_equiv_pos_site_id
 _symmetry_equiv_pos_as_xyz
  1  'x, y, z'
loop_
 _atom_site_type_symbol
 _atom_site_label
 _atom_site_symmetry_multiplicity
 _atom_site_fract_x
 _atom_site_fract_y
 _atom_site_fract_z
 _atom_site_occupancy
  P  P0  1  0.20724500  0.60948700  0.47939000  1
  P  P1  1  0.41073200  0.66693700  0.85206900  1
  P  P2  1  0.38290500  0.76299400  0.04932000  1
  P  P3  1  0.65170000  0.17958200  0.52820500  1
  P  P4  1  0.61709500  0.23700600  0.95068000  1
  P  P5  1  0.11709500  0.76299400  0.54932000  1
  P  P6  1  0.56696500  0.87250700  0.81873000  1
  P  P7  1  0.79275500  0.39051300  0.52061000  1
  P  P8  1  0.43303500  0.12749300  0.18127000  1
  P  P9  1  0.13219600  0.31905500  0.72987600  1
  P  P10  1  0.15170000  0.82041800  0.97179500  1
  P  P11  1  0.06696500  0.12749300  0.68127000  1
  P  P12  1  0.08926800  0.66693700  0.35206900  1
  P  P13  1  0.70724500  0.39051300  0.02061000  1
  P  P14  1  0.86780400  0.68094500  0.27012400  1
  P  P15  1  0.93303500  0.87250700  0.31873000  1
  P  P16  1  0.91073200  0.33306300  0.64793100  1
  P  P17  1  0.36780400  0.31905500  0.22987600  1
  P  P18  1  0.29275500  0.60948700  0.97939000  1
  P  P19  1  0.84830000  0.17958200  0.02820500  1
  P  P20  1  0.58926800  0.33306300  0.14793100  1
  P  P21  1  0.34830000  0.82041800  0.47179500  1
  P  P22  1  0.63219600  0.68094500  0.77012400  1
  P  P23  1  0.88290500  0.23700600  0.45068000  1
  N  N0  1  0.34930700  0.18313200  0.23013200  1
  N  N1  1  0.40449400  0.64622200  0.02495200  1
  N  N2  1  0.73258000  0.14297100  0.98388400  1
  N  N3  1  0.26742000  0.85702900  0.01611600  1
  N  N4  1  0.83629000  0.30452900  0.04503600  1
  N  N5  1  0.76742000  0.14297100  0.48388400  1
  N  N6  1  0.90449400  0.35377800  0.47504800  1
  N  N7  1  0.95127200  0.20657300  0.63747400  1
  N  N8  1  0.66371000  0.30452900  0.54503600  1
  N  N9  1  0.45127200  0.79342700  0.86252600  1
  N  N10  1  0.97924400  0.60258300  0.31722500  1
  N  N11  1  0.84930700  0.81686800  0.26986800  1
  N  N12  1  0.47924400  0.39741700  0.18277500  1
  N  N13  1  0.09550600  0.64622200  0.52495200  1
  N  N14  1  0.23258000  0.85702900  0.51611600  1
  N  N15  1  0.52075600  0.60258300  0.81722500  1
  N  N16  1  0.33629000  0.69547100  0.45496400  1
  N  N17  1  0.16371000  0.69547100  0.95496400  1
  N  N18  1  0.04872800  0.79342700  0.36252600  1
  N  N19  1  0.65069300  0.81686800  0.76986800  1
  N  N20  1  0.02075600  0.39741700  0.68277500  1
  N  N21  1  0.54872800  0.20657300  0.13747400  1
  N  N22  1  0.59550600  0.35377800  0.97504800  1
  N  N23  1  0.15069300  0.18313200  0.73013200  1
  Cl  Cl0  1  0.06794900  0.15417700  0.45413800  1
  Cl  Cl1  1  0.52221700  0.97566400  0.22899800  1
  Cl  Cl2  1  0.22361800  0.67473100  0.80739800  1
  Cl  Cl3  1  0.65457300  0.28500000  0.85723800  1
  Cl  Cl4  1  0.22051600  0.44656900  0.01834600  1
  Cl  Cl5  1  0.02221700  0.02433600  0.27100200  1
  Cl  Cl6  1  0.81880100  0.59772500  0.78517700  1
  Cl  Cl7  1  0.31880100  0.40227500  0.71482300  1
  Cl  Cl8  1  0.27948400  0.44656900  0.51834600  1
  Cl  Cl9  1  0.54030600  0.83185900  0.50920500  1
  Cl  Cl10  1  0.72051600  0.55343100  0.48165400  1
  Cl  Cl11  1  0.91038900  0.67468800  0.18064500  1
  Cl  Cl12  1  0.93205100  0.84582300  0.54586200  1
  Cl  Cl13  1  0.56794900  0.84582300  0.04586200  1
  Cl  Cl14  1  0.97778300  0.97566400  0.72899800  1
  Cl  Cl15  1  0.58961100  0.67468800  0.68064500  1
  Cl  Cl16  1  0.68119900  0.59772500  0.28517700  1
  Cl  Cl17  1  0.15457300  0.71500000  0.64276200  1
  Cl  Cl18  1  0.34542700  0.71500000  0.14276200  1
  Cl  Cl19  1  0.41038900  0.32531200  0.31935500  1
  Cl  Cl20  1  0.27638200  0.67473100  0.30739800  1
  Cl  Cl21  1  0.13942900  0.94853800  0.89180000  1
  Cl  Cl22  1  0.79425000  0.92922300  0.37387900  1
  Cl  Cl23  1  0.43205100  0.15417700  0.95413800  1
  Cl  Cl24  1  0.20575000  0.07077700  0.62612100  1
  Cl  Cl25  1  0.29425000  0.07077700  0.12612100  1
  Cl  Cl26  1  0.47778300  0.02433600  0.77100200  1
  Cl  Cl27  1  0.18119900  0.40227500  0.21482300  1
  Cl  Cl28  1  0.84542700  0.28500000  0.35723800  1
  Cl  Cl29  1  0.77638200  0.32526900  0.19260200  1
  Cl  Cl30  1  0.95969400  0.83185900  0.00920500  1
  Cl  Cl31  1  0.72361800  0.32526900  0.69260200  1
  Cl  Cl32  1  0.45969400  0.16814100  0.49079500  1
  Cl  Cl33  1  0.77948400  0.55343100  0.98165400  1
  Cl  Cl34  1  0.36057100  0.94853800  0.39180000  1
  Cl  Cl35  1  0.04030600  0.16814100  0.99079500  1
  Cl  Cl36  1  0.08961100  0.32531200  0.81935500  1
  Cl  Cl37  1  0.70575000  0.92922300  0.87387900  1
  Cl  Cl38  1  0.63942900  0.05146200  0.60820000  1
  Cl  Cl39  1  0.86057100  0.05146200  0.10820000  1
  O  O0  1  0.37564700  0.58051700  0.91968500  1
  O  O1  1  0.62435300  0.41948300  0.08031500  1
  O  O2  1  0.12435300  0.58051700  0.41968500  1
  O  O3  1  0.87564700  0.41948300  0.58031500  1
loop_
_geom_bond_atom_site_label_1
_geom_bond_atom_site_label_2
_geom_bond_distance
_geom_bond_site_symmetry_2
N0 P17 1.595329 1_555
N0 P8 1.597669 1_555
N1 P18 1.590353 1_554
N1 P2 1.596060 1_555
N2 P19 1.596876 1_556
N2 P4 1.597397 1_555
N3 P10 1.596876 1_554
N3 P2 1.597397 1_555
N4 P13 1.594060 1_555
N4 P19 1.594981 1_555
N5 P3 1.596876 1_555
N5 P23 1.597397 1_555
N6 P7 1.590353 1_555
N6 P23 1.596060 1_555
N7 P16 1.596991 1_555
N7 P11 1.597714 1_655
N8 P7 1.594060 1_555
N8 P3 1.594981 1_555
N9 P1 1.596991 1_555
N9 P6 1.597714 1_555
N10 P12 1.591319 1_655
N10 P14 1.601693 1_555
N11 P14 1.595329 1_555
N11 P15 1.597669 1_555
N12 P20 1.591319 1_555
N12 P17 1.601693 1_555
N13 P0 1.590353 1_555
N13 P5 1.596060 1_555
N14 P21 1.596876 1_555
N14 P5 1.597397 1_555
N15 P1 1.591319 1_555
N15 P22 1.601693 1_555
N16 P0 1.594060 1_555
N16 P21 1.594981 1_555
N17 P18 1.594060 1_555
N17 P10 1.594981 1_555
N18 P12 1.596991 1_555
N18 P15 1.597714 1_455
N19 P22 1.595329 1_555
N19 P6 1.597669 1_555
N20 P16 1.591319 1_455
N20 P9 1.601693 1_555
N21 P20 1.596991 1_555
N21 P8 1.597714 1_555
N22 P13 1.590353 1_556
N22 P4 1.596060 1_555
N23 P9 1.595329 1_555
N23 P11 1.597669 1_555
Cl0 P23 2.003387 1_455
Cl1 P8 2.010845 1_565
Cl2 P1 2.025822 1_555
Cl3 P4 2.019438 1_555
Cl4 P18 2.004683 1_554
Cl5 P15 2.010845 1_445
Cl6 P22 2.013963 1_555
Cl7 P9 2.013963 1_555
Cl8 P0 2.004683 1_555
Cl9 P21 2.023171 1_555
Cl10 P7 2.004683 1_555
Cl11 P14 2.023977 1_555
Cl12 P5 2.003387 1_655
Cl13 P2 2.003387 1_555
Cl14 P11 2.010845 1_665
Cl15 P22 2.023977 1_555
Cl16 P14 2.013963 1_555
Cl17 P5 2.019438 1_555
Cl18 P2 2.019438 1_555
Cl19 P17 2.023977 1_555
Cl20 P12 2.025822 1_555
Cl21 P10 2.008632 1_555
Cl22 P15 2.011982 1_555
Cl23 P4 2.003387 1_555
Cl24 P11 2.011982 1_555
Cl25 P8 2.011982 1_555
Cl26 P6 2.010845 1_545
Cl27 P17 2.013963 1_555
Cl28 P23 2.019438 1_555
Cl29 P20 2.025822 1_555
Cl30 P10 2.023171 1_654
Cl31 P16 2.025822 1_555
Cl32 P3 2.023171 1_555
Cl33 P13 2.004683 1_556
Cl34 P21 2.008632 1_555
Cl35 P19 2.023171 1_456
Cl36 P9 2.023977 1_555
Cl37 P6 2.011982 1_555
Cl38 P3 2.008632 1_555
Cl39 P19 2.008632 1_555
O0 P1 1.609749 1_555
O0 P18 1.635217 1_555
O1 P20 1.609749 1_555
O1 P13 1.635217 1_555
O2 P12 1.609749 1_555
O2 P0 1.635217 1_555
O3 P16 1.609749 1_555
O3 P7 1.635217 1_555
