# generated using pymatgen
data_LiSnP2O7
_symmetry_space_group_name_H-M   'P 1'
_cell_length_a   7.37117260
_cell_length_b   7.37117260
_cell_length_c   12.49447374
_cell_angle_alpha   89.78626985
_cell_angle_beta   89.78626985
_cell_angle_gamma   122.24559332
_symmetry_Int_Tables_number   1
_chemical_formula_structural   LiSnP2O7
_chemical_formula_sum   'Li4 Sn4 P8 O28'
_cell_volume   574.15594266
_cell_formula_units_Z   4
loop_
 _symmetry_equiv_pos_site_id
 _symmetry_equiv_pos_as_xyz
  1  'x, y, z'
loop_
 _atom_site_type_symbol
 _atom_site_label
 _atom_site_symmetry_multiplicity
 _atom_site_fract_x
 _atom_site_fract_y
 _atom_site_fract_z
 _atom_site_occupancy
  Li  Li0  1  0.25832000  0.71721100  0.01052800  1
  Li  Li1  1  0.29201300  0.72005900  0.74629000  1
  Li  Li2  1  0.72005900  0.29201300  0.24629000  1
  Li  Li3  1  0.71721100  0.25832000  0.51052800  1
  Sn  Sn0  1  0.34349200  0.34213400  0.62168500  1
  Sn  Sn1  1  0.34213400  0.34349200  0.12168500  1
  Sn  Sn2  1  0.64548800  0.62605000  0.87680300  1
  Sn  Sn3  1  0.62605000  0.64548800  0.37680300  1
  P  P0  1  0.10048900  0.34208400  0.35372200  1
  P  P1  1  0.92195000  0.73267900  0.11233300  1
  P  P2  1  0.90329500  0.65988200  0.64702500  1
  P  P3  1  0.65988200  0.90329500  0.14702500  1
  P  P4  1  0.26825000  0.07071700  0.38791800  1
  P  P5  1  0.07071700  0.26825000  0.88791800  1
  P  P6  1  0.73267900  0.92195000  0.61233300  1
  P  P7  1  0.34208400  0.10048900  0.85372200  1
  O  O0  1  0.24620200  0.44371600  0.80882900  1
  O  O1  1  0.10731800  0.67122800  0.62446600  1
  O  O2  1  0.50693100  0.70736900  0.07393700  1
  O  O3  1  0.84048800  0.60509100  0.76721900  1
  O  O4  1  0.11016100  0.06820300  0.87990500  1
  O  O5  1  0.56333900  0.75625700  0.69318900  1
  O  O6  1  0.36848000  0.14157300  0.50118600  1
  O  O7  1  0.15445300  0.81253800  0.12566000  1
  O  O8  1  0.75625700  0.56333900  0.19318900  1
  O  O9  1  0.06820300  0.11016100  0.37990500  1
  O  O10  1  0.39182600  0.15470100  0.73376200  1
  O  O11  1  0.67122800  0.10731800  0.12446600  1
  O  O12  1  0.70736900  0.50693100  0.57393700  1
  O  O13  1  0.60509100  0.84048800  0.26721900  1
  O  O14  1  0.85645800  0.65383900  0.99529200  1
  O  O15  1  0.14157300  0.36848000  0.00118600  1
  O  O16  1  0.83995700  0.17136200  0.86360000  1
  O  O17  1  0.15470100  0.39182600  0.23376200  1
  O  O18  1  0.81253800  0.15445300  0.62566000  1
  O  O19  1  0.49771300  0.29896400  0.92411600  1
  O  O20  1  0.32526400  0.89325300  0.88132300  1
  O  O21  1  0.65383900  0.85645800  0.49529200  1
  O  O22  1  0.29896400  0.49771300  0.42411600  1
  O  O23  1  0.93864600  0.89616500  0.62644100  1
  O  O24  1  0.89616500  0.93864600  0.12644100  1
  O  O25  1  0.89325300  0.32526400  0.38132300  1
  O  O26  1  0.17136200  0.83995700  0.36360000  1
  O  O27  1  0.44371600  0.24620200  0.30882900  1
loop_
_geom_bond_atom_site_label_1
_geom_bond_atom_site_label_2
_geom_bond_distance
_geom_bond_site_symmetry_2
Li0 O7 1.929417 1_555
Li0 O20 1.956685 1_554
Li0 O2 2.035551 1_555
Li0 O15 2.237048 1_555
Li1 O1 1.948467 1_555
Li1 O5 1.982594 1_555
Li1 O0 2.031259 1_555
Li1 O20 2.054672 1_555
Li2 O11 1.948467 1_555
Li2 O8 1.982594 1_555
Li2 O27 2.031259 1_555
Li2 O25 2.054672 1_555
Li3 O18 1.929417 1_555
Li3 O25 1.956685 1_555
Li3 O12 2.035551 1_555
Li3 O6 2.237048 1_555
O0 P5 1.586883 1_555
O1 P2 1.486798 1_455
O2 P3 1.571871 1_555
O2 Sn1 2.351927 1_555
O3 P2 1.556758 1_555
O3 Sn2 2.046577 1_555
O4 P7 1.627053 1_555
O4 P5 1.651463 1_555
O5 P6 1.557228 1_555
O6 P4 1.556612 1_555
O6 Sn0 2.188917 1_555
O7 P1 1.495907 1_455
O8 P1 1.557228 1_555
O9 P0 1.627053 1_555
O9 P4 1.651463 1_555
O10 P7 1.541336 1_555
O10 Sn0 2.123974 1_555
O11 P3 1.486798 1_545
O12 P2 1.571871 1_555
O12 Sn0 2.351927 1_555
O13 P3 1.556758 1_555
O13 Sn3 2.046577 1_555
O14 P1 1.556125 1_556
O14 Sn2 2.081240 1_555
O15 P5 1.556612 1_554
O15 Sn1 2.188917 1_555
O16 P5 1.484871 1_655
O17 P0 1.541336 1_555
O17 Sn1 2.123974 1_555
O18 P6 1.495907 1_545
O19 P7 1.567209 1_555
O19 Sn2 2.128622 1_555
O20 P7 1.503804 1_565
O21 P6 1.556125 1_555
O21 Sn3 2.081240 1_555
O22 P0 1.567209 1_555
O22 Sn3 2.128622 1_555
O23 P2 1.636877 1_555
O23 P6 1.637637 1_555
O24 P3 1.636877 1_555
O24 P1 1.637637 1_555
O25 P0 1.503804 1_655
O26 P4 1.484871 1_565
O27 P4 1.586883 1_555
