# generated using pymatgen
data_CeAl5Pt3
_symmetry_space_group_name_H-M   'P 1'
_cell_length_a   4.15626300
_cell_length_b   7.32978300
_cell_length_c   20.76501900
_cell_angle_alpha   90.00000000
_cell_angle_beta   90.00000000
_cell_angle_gamma   90.00000000
_symmetry_Int_Tables_number   1
_chemical_formula_structural   CeAl5Pt3
_chemical_formula_sum   'Ce4 Al20 Pt12'
_cell_volume   632.59604344
_cell_formula_units_Z   4
loop_
 _symmetry_equiv_pos_site_id
 _symmetry_equiv_pos_as_xyz
  1  'x, y, z'
loop_
 _atom_site_type_symbol
 _atom_site_label
 _atom_site_symmetry_multiplicity
 _atom_site_fract_x
 _atom_site_fract_y
 _atom_site_fract_z
 _atom_site_occupancy
  Ce  Ce0  1  0.25000000  0.11809500  0.64050600  1
  Ce  Ce1  1  0.75000000  0.88190500  0.35949400  1
  Ce  Ce2  1  0.25000000  0.38190500  0.14050600  1
  Ce  Ce3  1  0.75000000  0.61809500  0.85949400  1
  Al  Al0  1  0.75000000  0.35601300  0.38280100  1
  Al  Al1  1  0.75000000  0.88631600  0.98272200  1
  Al  Al2  1  0.75000000  0.68783200  0.20063900  1
  Al  Al3  1  0.25000000  0.86863000  0.49249900  1
  Al  Al4  1  0.25000000  0.63137000  0.99249900  1
  Al  Al5  1  0.25000000  0.31216800  0.79936100  1
  Al  Al6  1  0.75000000  0.07477000  0.20811100  1
  Al  Al7  1  0.25000000  0.64398700  0.61719900  1
  Al  Al8  1  0.25000000  0.57477000  0.29188900  1
  Al  Al9  1  0.25000000  0.18783200  0.29936100  1
  Al  Al10  1  0.75000000  0.14398700  0.88280100  1
  Al  Al11  1  0.25000000  0.92523000  0.79188900  1
  Al  Al12  1  0.75000000  0.36863000  0.00750100  1
  Al  Al13  1  0.75000000  0.61368400  0.48272200  1
  Al  Al14  1  0.75000000  0.13137000  0.50750100  1
  Al  Al15  1  0.25000000  0.11368400  0.01727800  1
  Al  Al16  1  0.25000000  0.85601300  0.11719900  1
  Al  Al17  1  0.25000000  0.38631600  0.51727800  1
  Al  Al18  1  0.75000000  0.42523000  0.70811100  1
  Al  Al19  1  0.75000000  0.81216800  0.70063900  1
  Pt  Pt0  1  0.75000000  0.38292300  0.26173100  1
  Pt  Pt1  1  0.25000000  0.88292300  0.23826900  1
  Pt  Pt2  1  0.25000000  0.61707700  0.73826900  1
  Pt  Pt3  1  0.75000000  0.11707700  0.76173100  1
  Pt  Pt4  1  0.25000000  0.16086500  0.42686600  1
  Pt  Pt5  1  0.75000000  0.41983300  0.58457600  1
  Pt  Pt6  1  0.75000000  0.08016700  0.08457600  1
  Pt  Pt7  1  0.25000000  0.91983300  0.91542400  1
  Pt  Pt8  1  0.75000000  0.83913500  0.57313400  1
  Pt  Pt9  1  0.25000000  0.33913500  0.92686600  1
  Pt  Pt10  1  0.75000000  0.66086500  0.07313400  1
  Pt  Pt11  1  0.25000000  0.58016700  0.41542400  1
loop_
_geom_bond_atom_site_label_1
_geom_bond_atom_site_label_2
_geom_bond_distance
_geom_bond_site_symmetry_2
Ce0 Pt8 3.233673 1_545
Ce0 Pt8 3.233673 1_445
Ce0 Pt5 3.249454 1_455
Ce0 Pt5 3.249454 1_555
Ce0 Pt3 3.264227 1_455
Ce0 Pt3 3.264227 1_555
Ce1 Pt4 3.233673 1_565
Ce1 Pt4 3.233673 1_665
Ce1 Pt11 3.249454 1_655
Ce1 Pt11 3.249454 1_555
Ce1 Pt1 3.264227 1_555
Ce1 Pt1 3.264227 1_655
Ce2 Pt10 3.233673 1_555
Ce2 Pt10 3.233673 1_455
Ce2 Pt6 3.249454 1_455
Ce2 Pt6 3.249454 1_555
Ce2 Pt0 3.264227 1_555
Ce2 Pt0 3.264227 1_455
Ce3 Pt9 3.233673 1_555
Ce3 Pt9 3.233673 1_655
Ce3 Pt7 3.249454 1_555
Ce3 Pt7 3.249454 1_655
Ce3 Pt2 3.264227 1_655
Ce3 Pt2 3.264227 1_555
Al0 Pt0 2.521747 1_555
Al0 Pt4 2.683635 1_555
Al0 Pt4 2.683635 1_655
Al0 Pt11 2.734406 1_555
Al0 Pt11 2.734406 1_655
Al0 Ce1 3.508648 1_545
Al1 Pt10 2.501087 1_556
Al1 Pt7 2.516314 1_555
Al1 Pt7 2.516314 1_655
Al1 Pt6 2.547968 1_566
Al1 Ce3 3.226884 1_555
Al2 Pt0 2.569852 1_555
Al2 Pt1 2.640838 1_555
Al2 Pt1 2.640838 1_655
Al2 Pt10 2.655012 1_555
Al2 Ce2 3.302431 1_555
Al2 Ce2 3.302431 1_655
Al2 Ce1 3.592281 1_555
Al3 Pt4 2.538831 1_565
Al3 Pt11 2.651801 1_555
Al3 Pt8 2.677488 1_555
Al3 Pt8 2.677488 1_455
Al3 Ce1 3.457734 1_455
Al3 Ce1 3.457734 1_555
Al3 Ce0 3.576184 1_565
Al4 Pt9 2.538831 1_555
Al4 Pt7 2.651801 1_555
Al4 Pt10 2.677488 1_456
Al4 Pt10 2.677488 1_556
Al4 Ce3 3.457734 1_455
Al4 Ce3 3.457734 1_555
Al4 Ce2 3.576184 1_556
Al5 Pt2 2.569852 1_555
Al5 Pt3 2.640838 1_555
Al5 Pt3 2.640838 1_455
Al5 Pt9 2.655012 1_555
Al5 Ce3 3.302431 1_555
Al5 Ce3 3.302431 1_455
Al5 Ce0 3.592281 1_555
Al6 Pt0 2.518215 1_555
Al6 Pt6 2.565512 1_555
Al6 Pt1 2.586153 1_645
Al6 Pt1 2.586153 1_545
Al6 Ce2 3.370072 1_655
Al6 Ce2 3.370072 1_555
Al6 Ce1 3.446714 1_545
Al7 Pt2 2.521747 1_555
Al7 Pt8 2.683635 1_455
Al7 Pt8 2.683635 1_555
Al7 Pt5 2.734406 1_455
Al7 Pt5 2.734406 1_555
Al7 Ce0 3.508648 1_565
Al8 Pt1 2.518215 1_555
Al8 Pt11 2.565512 1_555
Al8 Pt0 2.586153 1_555
Al8 Pt0 2.586153 1_455
Al8 Ce1 3.370072 1_455
Al8 Ce1 3.370072 1_555
Al8 Ce2 3.446714 1_555
Al9 Pt1 2.569852 1_545
Al9 Pt0 2.640838 1_455
Al9 Pt0 2.640838 1_555
Al9 Pt4 2.655012 1_555
Al9 Ce1 3.302431 1_545
Al9 Ce1 3.302431 1_445
Al9 Ce2 3.592281 1_555
Al10 Pt3 2.521747 1_555
Al10 Pt9 2.683635 1_555
Al10 Pt9 2.683635 1_655
Al10 Pt7 2.734406 1_645
Al10 Pt7 2.734406 1_545
Al10 Ce3 3.508648 1_555
Al11 Pt2 2.518215 1_555
Al11 Pt7 2.565512 1_555
Al11 Pt3 2.586153 1_465
Al11 Pt3 2.586153 1_565
Al11 Ce3 3.370072 1_455
Al11 Ce3 3.370072 1_555
Al11 Ce0 3.446714 1_565
Al12 Pt10 2.538831 1_555
Al12 Pt6 2.651801 1_555
Al12 Pt9 2.677488 1_554
Al12 Pt9 2.677488 1_654
Al12 Ce2 3.457734 1_555
Al12 Ce2 3.457734 1_655
Al12 Ce3 3.576184 1_554
Al13 Pt8 2.501087 1_555
Al13 Pt11 2.516314 1_655
Al13 Pt11 2.516314 1_555
Al13 Pt5 2.547968 1_555
Al13 Ce1 3.226884 1_555
Al14 Pt8 2.538831 1_545
Al14 Pt5 2.651801 1_555
Al14 Pt4 2.677488 1_555
Al14 Pt4 2.677488 1_655
Al14 Ce0 3.457734 1_555
Al14 Ce0 3.457734 1_655
Al14 Ce1 3.576184 1_545
Al15 Pt9 2.501087 1_554
Al15 Pt6 2.516314 1_555
Al15 Pt6 2.516314 1_455
Al15 Pt7 2.547968 1_544
Al15 Ce2 3.226884 1_555
Al16 Pt1 2.521747 1_555
Al16 Pt10 2.683635 1_555
Al16 Pt10 2.683635 1_455
Al16 Pt6 2.734406 1_565
Al16 Pt6 2.734406 1_465
Al16 Ce2 3.508648 1_555
Al17 Pt4 2.501087 1_555
Al17 Pt5 2.516314 1_555
Al17 Pt5 2.516314 1_455
Al17 Pt11 2.547968 1_555
Al17 Ce0 3.226884 1_555
Al18 Pt3 2.518215 1_555
Al18 Pt5 2.565512 1_555
Al18 Pt2 2.586153 1_555
Al18 Pt2 2.586153 1_655
Al18 Ce0 3.370072 1_555
Al18 Ce0 3.370072 1_655
Al18 Ce3 3.446714 1_555
Al19 Pt3 2.569852 1_565
Al19 Pt2 2.640838 1_555
Al19 Pt2 2.640838 1_655
Al19 Pt8 2.655012 1_555
Al19 Ce0 3.302431 1_665
Al19 Ce0 3.302431 1_565
Al19 Ce3 3.592281 1_555
