# generated using pymatgen
data_Er(CuTe)3
_symmetry_space_group_name_H-M   'P 1'
_cell_length_a   6.94308800
_cell_length_b   7.62628100
_cell_length_c   12.79737500
_cell_angle_alpha   90.00000000
_cell_angle_beta   90.00000000
_cell_angle_gamma   90.00000000
_symmetry_Int_Tables_number   1
_chemical_formula_structural   Er(CuTe)3
_chemical_formula_sum   'Er4 Cu12 Te12'
_cell_volume   677.62023963
_cell_formula_units_Z   4
loop_
 _symmetry_equiv_pos_site_id
 _symmetry_equiv_pos_as_xyz
  1  'x, y, z'
loop_
 _atom_site_type_symbol
 _atom_site_label
 _atom_site_symmetry_multiplicity
 _atom_site_fract_x
 _atom_site_fract_y
 _atom_site_fract_z
 _atom_site_occupancy
  Er  Er0  1  0.23980700  0.74907500  0.83697100  1
  Er  Er1  1  0.73980700  0.25092500  0.33697100  1
  Er  Er2  1  0.73980700  0.25092500  0.66302900  1
  Er  Er3  1  0.23980700  0.74907500  0.16302900  1
  Cu  Cu0  1  0.36912100  0.11652200  0.83339900  1
  Cu  Cu1  1  0.62801000  0.61611300  0.00000000  1
  Cu  Cu2  1  0.86912100  0.88347800  0.66660100  1
  Cu  Cu3  1  0.61861900  0.62263100  0.67881600  1
  Cu  Cu4  1  0.87584900  0.88210100  0.00000000  1
  Cu  Cu5  1  0.12801000  0.38388700  0.50000000  1
  Cu  Cu6  1  0.61861900  0.62263100  0.32118400  1
  Cu  Cu7  1  0.37584900  0.11789900  0.50000000  1
  Cu  Cu8  1  0.86912100  0.88347800  0.33339900  1
  Cu  Cu9  1  0.36912100  0.11652200  0.16660100  1
  Cu  Cu10  1  0.11861900  0.37736900  0.82118400  1
  Cu  Cu11  1  0.11861900  0.37736900  0.17881600  1
  Te  Te0  1  0.00511500  0.56715800  0.33823100  1
  Te  Te1  1  0.50511500  0.43284200  0.16176900  1
  Te  Te2  1  0.97843500  0.06426900  0.16558600  1
  Te  Te3  1  0.00511500  0.56715800  0.66176900  1
  Te  Te4  1  0.99898600  0.55086800  0.00000000  1
  Te  Te5  1  0.50511500  0.43284200  0.83823100  1
  Te  Te6  1  0.47843500  0.93573100  0.33441400  1
  Te  Te7  1  0.47843500  0.93573100  0.66558600  1
  Te  Te8  1  0.99296100  0.05921500  0.50000000  1
  Te  Te9  1  0.49296100  0.94078500  0.00000000  1
  Te  Te10  1  0.97843500  0.06426900  0.83441400  1
  Te  Te11  1  0.49898600  0.44913200  0.50000000  1
loop_
_geom_bond_atom_site_label_1
_geom_bond_atom_site_label_2
_geom_bond_distance
_geom_bond_site_symmetry_2
Er0 Te10 3.012037 1_465
Er0 Te5 3.034739 1_555
Er0 Te4 3.071389 1_456
Er0 Te9 3.095122 1_556
Er0 Te7 3.095454 1_555
Er0 Te3 3.099532 1_555
Er1 Te6 3.012037 1_545
Er1 Te0 3.034739 1_655
Er1 Te11 3.071389 1_555
Er1 Te8 3.095122 1_555
Er1 Te2 3.095454 1_555
Er1 Te1 3.099532 1_555
Er2 Te7 3.012037 1_545
Er2 Te3 3.034739 1_655
Er2 Te11 3.071389 1_555
Er2 Te8 3.095122 1_555
Er2 Te10 3.095454 1_555
Er2 Te5 3.099532 1_555
Er3 Te2 3.012037 1_465
Er3 Te1 3.034739 1_555
Er3 Te4 3.071389 1_455
Er3 Te9 3.095122 1_555
Er3 Te6 3.095454 1_555
Er3 Te0 3.099532 1_555
Cu0 Te5 2.591290 1_555
Cu0 Cu10 2.647024 1_555
Cu0 Te9 2.661045 1_546
Cu0 Te7 2.662531 1_545
Cu0 Te10 2.741713 1_455
Cu0 Er0 2.942929 1_545
Cu0 Er2 3.525370 1_555
Cu1 Te4 2.623340 1_555
Cu1 Te1 2.639578 1_555
Cu1 Te5 2.639578 1_554
Cu1 Te9 2.647636 1_555
Cu1 Cu4 2.660047 1_555
Cu2 Te3 2.591290 1_655
Cu2 Cu3 2.647024 1_555
Cu2 Te8 2.661045 1_565
Cu2 Te10 2.662531 1_565
Cu2 Te7 2.741713 1_555
Cu2 Er2 2.942929 1_565
Cu2 Er0 3.525370 1_655
Cu3 Te7 2.584092 1_555
Cu3 Te5 2.622585 1_555
Cu3 Te3 2.725364 1_655
Cu3 Te11 2.770799 1_555
Cu3 Er2 2.963869 1_555
Cu3 Er0 3.455992 1_555
Cu4 Te2 2.632075 1_565
Cu4 Te10 2.632075 1_564
Cu4 Te4 2.666833 1_555
Cu4 Te9 2.695833 1_555
Cu4 Er3 3.430411 1_655
Cu4 Er0 3.430411 1_654
Cu5 Te11 2.623340 1_555
Cu5 Te0 2.639578 1_555
Cu5 Te3 2.639578 1_555
Cu5 Te8 2.647636 1_455
Cu5 Cu7 2.660047 1_555
Cu6 Te6 2.584092 1_555
Cu6 Te1 2.622585 1_555
Cu6 Cu8 2.647024 1_555
Cu6 Te0 2.725364 1_655
Cu6 Te11 2.770799 1_555
Cu6 Er1 2.963869 1_555
Cu6 Er3 3.455992 1_555
Cu7 Te7 2.632075 1_545
Cu7 Te6 2.632075 1_545
Cu7 Te11 2.666833 1_555
Cu7 Te8 2.695833 1_455
Cu7 Er2 3.430411 1_555
Cu7 Er1 3.430411 1_555
Cu8 Te0 2.591290 1_655
Cu8 Te8 2.661045 1_565
Cu8 Te2 2.662531 1_565
Cu8 Te6 2.741713 1_555
Cu8 Er1 2.942929 1_565
Cu8 Er3 3.525370 1_655
Cu9 Te1 2.591290 1_555
Cu9 Te9 2.661045 1_545
Cu9 Te6 2.662531 1_545
Cu9 Te2 2.741713 1_455
Cu9 Er3 2.942929 1_545
Cu9 Er1 3.525370 1_555
Cu10 Te10 2.584092 1_455
Cu10 Te3 2.622585 1_555
Cu10 Te5 2.725364 1_555
Cu10 Te4 2.770799 1_456
Cu10 Er0 2.963869 1_555
Cu10 Er2 3.455992 1_455
Cu11 Te2 2.584092 1_455
Cu11 Te0 2.622585 1_555
Cu11 Cu9 2.647024 1_555
Cu11 Te1 2.725364 1_555
Cu11 Te4 2.770799 1_455
Cu11 Er3 2.963869 1_555
Cu11 Er1 3.455992 1_455
