# generated using pymatgen
data_K2Dy4Cu4S9
_symmetry_space_group_name_H-M   'P 1'
_cell_length_a   3.95073900
_cell_length_b   7.16353593
_cell_length_c   15.18898003
_cell_angle_alpha   93.46360923
_cell_angle_beta   97.35098314
_cell_angle_gamma   105.96722707
_symmetry_Int_Tables_number   1
_chemical_formula_structural   K2Dy4Cu4S9
_chemical_formula_sum   'K2 Dy4 Cu4 S9'
_cell_volume   407.82007978
_cell_formula_units_Z   1
loop_
 _symmetry_equiv_pos_site_id
 _symmetry_equiv_pos_as_xyz
  1  'x, y, z'
loop_
 _atom_site_type_symbol
 _atom_site_label
 _atom_site_symmetry_multiplicity
 _atom_site_fract_x
 _atom_site_fract_y
 _atom_site_fract_z
 _atom_site_occupancy
  K  K0  1  0.74360900  0.70907400  0.76793700  1
  K  K1  1  0.25926300  0.28336300  0.22923600  1
  Dy  Dy0  1  0.40030700  0.74313600  0.05510000  1
  Dy  Dy1  1  0.60317700  0.25355400  0.94520900  1
  Dy  Dy2  1  0.62807200  0.86191700  0.39607800  1
  Dy  Dy3  1  0.36769700  0.13934900  0.60480600  1
  Cu  Cu0  1  0.98694700  0.73598200  0.22917400  1
  Cu  Cu1  1  0.02156500  0.26187400  0.77226500  1
  Cu  Cu2  1  0.88432000  0.32192000  0.46112800  1
  Cu  Cu3  1  0.10822500  0.68033600  0.53933800  1
  S  S0  1  0.28327000  0.15042900  0.42469900  1
  S  S1  1  0.71082500  0.85031000  0.57642800  1
  S  S2  1  0.43190100  0.07934300  0.77836100  1
  S  S3  1  0.98319400  0.59256900  0.37406200  1
  S  S4  1  0.19966900  0.49548400  0.89683600  1
  S  S5  1  0.80149000  0.50210800  0.10383100  1
  S  S6  1  0.57120000  0.92051700  0.22197900  1
  S  S7  1  0.01329100  0.40909000  0.62691300  1
  S  S8  1  0.00085800  0.99720800  0.99959100  1
loop_
_geom_bond_atom_site_label_1
_geom_bond_atom_site_label_2
_geom_bond_distance
_geom_bond_site_symmetry_2
K0 S1 3.135757 1_555
K0 S2 3.213366 1_665
K0 S2 3.220756 1_565
K0 S4 3.224380 1_655
K0 S4 3.228294 1_555
K0 S7 3.410108 1_655
K0 S7 3.461523 1_555
K1 S0 3.170070 1_555
K1 S6 3.170107 1_545
K1 S6 3.187334 1_445
K1 S5 3.198530 1_555
K1 S5 3.223777 1_455
K1 S3 3.498726 1_555
K1 S3 3.505586 1_455
Dy0 S6 2.682570 1_555
Dy0 S5 2.720481 1_555
Dy0 S5 2.735158 1_455
Dy0 S4 2.788842 1_554
Dy0 S8 2.817640 1_554
Dy0 S8 2.823876 1_654
Dy1 S2 2.674354 1_555
Dy1 S4 2.728885 1_655
Dy1 S4 2.731092 1_555
Dy1 S5 2.796426 1_556
Dy1 S8 2.821600 1_645
Dy1 S8 2.828265 1_545
Dy2 S6 2.693225 1_555
Dy2 S3 2.706509 1_455
Dy2 S3 2.708242 1_555
Dy2 S1 2.725994 1_555
Dy2 S0 2.796614 1_665
Dy2 S0 2.812133 1_565
Dy3 S2 2.687761 1_555
Dy3 S7 2.708768 1_555
Dy3 S7 2.709775 1_655
Dy3 S0 2.721874 1_555
Dy3 S1 2.803085 1_445
Dy3 S1 2.810080 1_545
Cu0 S6 2.343205 1_655
Cu0 S5 2.355962 1_555
Cu0 S6 2.371362 1_555
Cu0 S3 2.484329 1_555
Cu1 S2 2.342822 1_555
Cu1 S4 2.346181 1_555
Cu1 S2 2.353574 1_455
Cu1 S7 2.503837 1_555
Cu2 S0 2.330391 1_555
Cu2 S0 2.346464 1_655
Cu2 S3 2.384476 1_555
Cu2 S7 2.509389 1_655
Cu3 S1 2.333845 1_555
Cu3 S1 2.336696 1_455
Cu3 S7 2.392616 1_555
Cu3 S3 2.502474 1_455
