# generated using pymatgen
data_Ce3MnBi5
_symmetry_space_group_name_H-M   'P 1'
_cell_length_a   9.40881182
_cell_length_b   9.40881182
_cell_length_c   6.43370100
_cell_angle_alpha   90.00000000
_cell_angle_beta   90.00000000
_cell_angle_gamma   119.99999871
_symmetry_Int_Tables_number   1
_chemical_formula_structural   Ce3MnBi5
_chemical_formula_sum   'Ce6 Mn2 Bi10'
_cell_volume   493.24316494
_cell_formula_units_Z   2
loop_
 _symmetry_equiv_pos_site_id
 _symmetry_equiv_pos_as_xyz
  1  'x, y, z'
loop_
 _atom_site_type_symbol
 _atom_site_label
 _atom_site_symmetry_multiplicity
 _atom_site_fract_x
 _atom_site_fract_y
 _atom_site_fract_z
 _atom_site_occupancy
  Ce  Ce0  1  0.61852900  0.00000000  0.25000000  1
  Ce  Ce1  1  0.38147100  0.00000000  0.75000000  1
  Ce  Ce2  1  0.38147100  0.38147100  0.25000000  1
  Ce  Ce3  1  0.00000000  0.61852900  0.25000000  1
  Ce  Ce4  1  0.00000000  0.38147100  0.75000000  1
  Ce  Ce5  1  0.61852900  0.61852900  0.75000000  1
  Mn  Mn0  1  0.00000000  0.00000000  0.00000000  1
  Mn  Mn1  1  0.00000000  0.00000000  0.50000000  1
  Bi  Bi0  1  0.24587500  0.24587500  0.75000000  1
  Bi  Bi1  1  0.75412500  0.75412500  0.25000000  1
  Bi  Bi2  1  0.33333300  0.66666700  0.50000000  1
  Bi  Bi3  1  0.00000000  0.24587500  0.25000000  1
  Bi  Bi4  1  0.24587500  0.00000000  0.25000000  1
  Bi  Bi5  1  0.75412500  0.00000000  0.75000000  1
  Bi  Bi6  1  0.66666700  0.33333300  0.00000000  1
  Bi  Bi7  1  0.00000000  0.75412500  0.75000000  1
  Bi  Bi8  1  0.33333300  0.66666700  0.00000000  1
  Bi  Bi9  1  0.66666700  0.33333300  0.50000000  1
loop_
_geom_bond_atom_site_label_1
_geom_bond_atom_site_label_2
_geom_bond_distance
_geom_bond_site_symmetry_2
Bi0 Mn1 2.817590 1_555
Bi0 Mn0 2.817590 1_556
Bi0 Ce4 3.151326 1_555
Bi0 Ce1 3.151326 1_555
Bi0 Ce2 3.460605 1_556
Bi0 Ce2 3.460605 1_555
Bi0 Ce5 3.506231 1_555
Bi1 Mn0 2.817590 1_665
Bi1 Mn1 2.817590 1_665
Bi1 Ce0 3.151326 1_565
Bi1 Ce3 3.151326 1_655
Bi1 Ce5 3.460605 1_554
Bi1 Ce5 3.460605 1_555
Bi1 Ce2 3.506231 1_555
Bi2 Bi8 3.216851 1_556
Bi2 Bi8 3.216851 1_555
Bi2 Ce1 3.347814 1_565
Bi2 Ce3 3.347814 1_555
Bi2 Ce4 3.347817 1_555
Bi2 Ce0 3.347817 1_565
Bi2 Ce5 3.347822 1_555
Bi2 Ce2 3.347822 1_555
Bi3 Mn0 2.817590 1_555
Bi3 Mn1 2.817590 1_555
Bi3 Ce2 3.151326 1_555
Bi3 Ce0 3.151326 1_455
Bi3 Ce4 3.460605 1_554
Bi3 Ce4 3.460605 1_555
Bi3 Ce3 3.506231 1_555
Bi4 Mn0 2.817590 1_555
Bi4 Mn1 2.817590 1_555
Bi4 Ce2 3.151326 1_555
Bi4 Ce3 3.151326 1_545
Bi4 Ce1 3.460605 1_555
Bi4 Ce1 3.460605 1_554
Bi4 Ce0 3.506231 1_555
Bi5 Mn1 2.817590 1_655
Bi5 Mn0 2.817590 1_656
Bi5 Ce5 3.151326 1_545
Bi5 Ce4 3.151326 1_655
Bi5 Ce0 3.460605 1_556
Bi5 Ce0 3.460605 1_555
Bi5 Ce1 3.506231 1_555
Bi6 Bi9 3.216851 1_554
Bi6 Bi9 3.216851 1_555
Bi6 Ce0 3.347814 1_555
Bi6 Ce4 3.347814 1_654
Bi6 Ce3 3.347817 1_655
Bi6 Ce1 3.347817 1_554
Bi6 Ce2 3.347822 1_555
Bi6 Ce5 3.347822 1_554
Bi7 Mn1 2.817590 1_565
Bi7 Mn0 2.817590 1_566
Bi7 Ce5 3.151326 1_455
Bi7 Ce1 3.151326 1_565
Bi7 Ce3 3.460605 1_555
Bi7 Ce3 3.460605 1_556
Bi7 Ce4 3.506231 1_555
Bi8 Ce3 3.347814 1_555
Bi8 Ce1 3.347814 1_564
Bi8 Ce4 3.347817 1_554
Bi8 Ce0 3.347817 1_565
Bi8 Ce5 3.347822 1_554
Bi8 Ce2 3.347822 1_555
Bi9 Ce0 3.347814 1_555
Bi9 Ce4 3.347814 1_655
Bi9 Ce3 3.347817 1_655
Bi9 Ce1 3.347817 1_555
Bi9 Ce2 3.347822 1_555
Bi9 Ce5 3.347822 1_555
