# generated using pymatgen
data_Fe2Mo4C
_symmetry_space_group_name_H-M   'P 1'
_cell_length_a   8.01598733
_cell_length_b   8.01598733
_cell_length_c   8.01598733
_cell_angle_alpha   60.00000000
_cell_angle_beta   60.00000000
_cell_angle_gamma   60.00000000
_symmetry_Int_Tables_number   1
_chemical_formula_structural   Fe2Mo4C
_chemical_formula_sum   'Fe8 Mo16 C4'
_cell_volume   364.21352454
_cell_formula_units_Z   4
loop_
 _symmetry_equiv_pos_site_id
 _symmetry_equiv_pos_as_xyz
  1  'x, y, z'
loop_
 _atom_site_type_symbol
 _atom_site_label
 _atom_site_symmetry_multiplicity
 _atom_site_fract_x
 _atom_site_fract_y
 _atom_site_fract_z
 _atom_site_occupancy
  Fe  Fe0  1  0.50615500  0.83128200  0.83128200  1
  Fe  Fe1  1  0.41871800  0.41871800  0.41871800  1
  Fe  Fe2  1  0.74384500  0.41871800  0.41871800  1
  Fe  Fe3  1  0.83128200  0.83128200  0.50615500  1
  Fe  Fe4  1  0.41871800  0.74384500  0.41871800  1
  Fe  Fe5  1  0.83128200  0.50615500  0.83128200  1
  Fe  Fe6  1  0.41871800  0.41871800  0.74384500  1
  Fe  Fe7  1  0.83128200  0.83128200  0.83128200  1
  Mo  Mo0  1  0.62500000  0.62500000  0.12500000  1
  Mo  Mo1  1  0.81117000  0.81117000  0.18883000  1
  Mo  Mo2  1  0.81117000  0.18883000  0.81117000  1
  Mo  Mo3  1  0.06117000  0.06117000  0.43883000  1
  Mo  Mo4  1  0.81117000  0.18883000  0.18883000  1
  Mo  Mo5  1  0.43883000  0.43883000  0.06117000  1
  Mo  Mo6  1  0.06117000  0.43883000  0.06117000  1
  Mo  Mo7  1  0.18883000  0.81117000  0.81117000  1
  Mo  Mo8  1  0.43883000  0.06117000  0.43883000  1
  Mo  Mo9  1  0.62500000  0.62500000  0.62500000  1
  Mo  Mo10  1  0.18883000  0.81117000  0.18883000  1
  Mo  Mo11  1  0.18883000  0.18883000  0.81117000  1
  Mo  Mo12  1  0.62500000  0.12500000  0.62500000  1
  Mo  Mo13  1  0.43883000  0.06117000  0.06117000  1
  Mo  Mo14  1  0.06117000  0.43883000  0.43883000  1
  Mo  Mo15  1  0.12500000  0.62500000  0.62500000  1
  C  C0  1  0.62500000  0.12500000  0.12500000  1
  C  C1  1  0.12500000  0.12500000  0.12500000  1
  C  C2  1  0.12500000  0.12500000  0.62500000  1
  C  C3  1  0.12500000  0.62500000  0.12500000  1
loop_
_geom_bond_atom_site_label_1
_geom_bond_atom_site_label_2
_geom_bond_distance
_geom_bond_site_symmetry_2
Fe0 Mo12 2.441250 1_565
Fe0 Mo0 2.441250 1_556
Fe0 Mo9 2.441256 1_555
Fe0 Fe3 2.606214 1_555
Fe0 Fe7 2.606214 1_555
Fe0 Fe5 2.606214 1_555
Fe0 Mo11 2.714478 1_565
Fe0 Mo10 2.714478 1_556
Fe0 Mo7 2.714483 1_555
Fe0 Mo13 2.913717 1_566
Fe0 Mo5 2.913724 1_556
Fe0 Mo8 2.913724 1_565
Fe1 Mo0 2.441254 1_555
Fe1 Mo12 2.441254 1_555
Fe1 Mo15 2.441254 1_555
Fe1 Fe6 2.606214 1_555
Fe1 Fe2 2.606214 1_555
Fe1 Fe4 2.606214 1_555
Fe1 Mo5 2.714475 1_555
Fe1 Mo8 2.714475 1_555
Fe1 Mo14 2.714475 1_555
Fe1 Mo10 2.913721 1_555
Fe1 Mo11 2.913721 1_555
Fe1 Mo4 2.913721 1_555
Fe2 Mo12 2.441250 1_555
Fe2 Mo0 2.441250 1_555
Fe2 Mo9 2.441256 1_555
Fe2 Fe6 2.606214 1_555
Fe2 Fe4 2.606214 1_555
Fe2 Mo6 2.714478 1_655
Fe2 Mo3 2.714478 1_655
Fe2 Mo14 2.714483 1_655
Fe2 Mo4 2.913717 1_555
Fe2 Mo1 2.913724 1_555
Fe2 Mo2 2.913724 1_555
Fe3 Mo12 2.441250 1_565
Fe3 Mo15 2.441250 1_655
Fe3 Mo9 2.441256 1_555
Fe3 Fe7 2.606214 1_555
Fe3 Fe5 2.606214 1_555
Fe3 Mo4 2.714478 1_565
Fe3 Mo10 2.714478 1_655
Fe3 Mo1 2.714483 1_555
Fe3 Mo3 2.913717 1_665
Fe3 Mo14 2.913724 1_655
Fe3 Mo8 2.913724 1_565
Fe4 Mo15 2.441250 1_555
Fe4 Mo0 2.441250 1_555
Fe4 Mo9 2.441256 1_555
Fe4 Fe6 2.606214 1_555
Fe4 Mo3 2.714478 1_565
Fe4 Mo13 2.714478 1_565
Fe4 Mo8 2.714483 1_565
Fe4 Mo10 2.913717 1_555
Fe4 Mo7 2.913724 1_555
Fe4 Mo1 2.913724 1_555
Fe5 Mo15 2.441250 1_655
Fe5 Mo0 2.441250 1_556
Fe5 Mo9 2.441256 1_555
Fe5 Fe7 2.606214 1_555
Fe5 Mo11 2.714478 1_655
Fe5 Mo4 2.714478 1_556
Fe5 Mo2 2.714483 1_555
Fe5 Mo6 2.913717 1_656
Fe5 Mo14 2.913724 1_655
Fe5 Mo5 2.913724 1_556
Fe6 Mo15 2.441250 1_555
Fe6 Mo12 2.441250 1_555
Fe6 Mo9 2.441256 1_555
Fe6 Mo6 2.714478 1_556
Fe6 Mo13 2.714478 1_556
Fe6 Mo5 2.714483 1_556
Fe6 Mo11 2.913717 1_555
Fe6 Mo7 2.913724 1_555
Fe6 Mo2 2.913724 1_555
Fe7 Mo12 2.441254 1_565
Fe7 Mo0 2.441254 1_556
Fe7 Mo15 2.441254 1_655
Fe7 Mo2 2.714475 1_565
Fe7 Mo1 2.714475 1_556
Fe7 Mo7 2.714475 1_655
Fe7 Mo3 2.913721 1_665
Fe7 Mo6 2.913721 1_656
Fe7 Mo13 2.913721 1_566
C0 Mo13 2.130633 1_555
C0 Mo1 2.130633 1_545
C0 Mo2 2.130633 1_554
C0 Mo8 2.130633 1_555
C0 Mo5 2.130633 1_555
C0 Mo4 2.130633 1_555
C1 Mo10 2.130633 1_545
C1 Mo4 2.130633 1_455
C1 Mo11 2.130633 1_554
C1 Mo3 2.130633 1_555
C1 Mo13 2.130633 1_555
C1 Mo6 2.130633 1_555
C2 Mo7 2.130633 1_545
C2 Mo2 2.130633 1_455
C2 Mo3 2.130633 1_555
C2 Mo14 2.130633 1_555
C2 Mo8 2.130633 1_555
C2 Mo11 2.130633 1_555
C3 Mo6 2.130633 1_555
C3 Mo7 2.130633 1_554
C3 Mo1 2.130633 1_455
C3 Mo14 2.130633 1_555
C3 Mo5 2.130633 1_555
C3 Mo10 2.130633 1_555
