# generated using pymatgen
data_CaP(HO3)2
_symmetry_space_group_name_H-M   'P 1'
_cell_length_a   8.29723051
_cell_length_b   8.29723051
_cell_length_c   5.62757211
_cell_angle_alpha   78.68337325
_cell_angle_beta   78.68337325
_cell_angle_gamma   134.41111822
_symmetry_Int_Tables_number   1
_chemical_formula_structural   CaP(HO3)2
_chemical_formula_sum   'Ca2 P2 H4 O12'
_cell_volume   238.62673388
_cell_formula_units_Z   2
loop_
 _symmetry_equiv_pos_site_id
 _symmetry_equiv_pos_as_xyz
  1  'x, y, z'
loop_
 _atom_site_type_symbol
 _atom_site_label
 _atom_site_symmetry_multiplicity
 _atom_site_fract_x
 _atom_site_fract_y
 _atom_site_fract_z
 _atom_site_occupancy
  Ca  Ca0  1  0.83444100  0.17341100  0.74902800  1
  Ca  Ca1  1  0.17341100  0.83444100  0.24902800  1
  P  P0  1  0.32594200  0.67030300  0.73878200  1
  P  P1  1  0.67030300  0.32594200  0.23878200  1
  H  H0  1  0.28136600  0.29093300  0.39785100  1
  H  H1  1  0.29093300  0.28136600  0.89785100  1
  H  H2  1  0.18537400  0.35173000  0.22124600  1
  H  H3  1  0.35173000  0.18537400  0.72124600  1
  O  O0  1  0.60820300  0.84270000  0.51448300  1
  O  O1  1  0.84270000  0.60820300  0.01448300  1
  O  O2  1  0.37787700  0.81862000  0.89822100  1
  O  O3  1  0.81862000  0.37787700  0.39822100  1
  O  O4  1  0.18943500  0.40288200  0.91705300  1
  O  O5  1  0.40288200  0.18943500  0.41705300  1
  O  O6  1  0.16964500  0.63593700  0.60139300  1
  O  O7  1  0.63593700  0.16964500  0.10139300  1
  O  O8  1  0.18504500  0.32164200  0.40294200  1
  O  O9  1  0.32164200  0.18504500  0.90294200  1
  O  O10  1  0.69341100  0.80510400  0.15800000  1
  O  O11  1  0.80510400  0.69341100  0.65800000  1
loop_
_geom_bond_atom_site_label_1
_geom_bond_atom_site_label_2
_geom_bond_distance
_geom_bond_site_symmetry_2
Ca0 O7 2.295146 1_556
Ca0 O8 2.365837 1_655
Ca0 O3 2.427291 1_555
Ca0 O2 2.427996 1_545
Ca0 O6 2.460990 1_655
Ca0 O4 2.673111 1_655
Ca0 O10 2.680083 1_546
Ca0 O0 2.824886 1_545
Ca1 O6 2.295146 1_555
Ca1 O9 2.365837 1_564
Ca1 O2 2.427291 1_554
Ca1 O3 2.427996 1_455
Ca1 O7 2.460990 1_565
Ca1 O5 2.673111 1_565
Ca1 O11 2.680083 1_455
Ca1 O1 2.824886 1_455
H0 O8 0.991639 1_555
H0 O5 1.712572 1_555
H1 O9 0.991639 1_555
H1 O4 1.712572 1_555
H2 O8 1.002807 1_555
H2 O4 1.668521 1_554
H3 O9 1.002807 1_555
H3 O5 1.668521 1_555
O0 P0 1.602119 1_555
O1 P1 1.602119 1_555
O2 P0 1.532341 1_555
O3 P1 1.532341 1_555
O4 P0 1.541317 1_555
O5 P1 1.541317 1_555
O6 P0 1.524254 1_555
O7 P1 1.524254 1_555
