# generated using pymatgen
data_SbH12C2N6F5
_symmetry_space_group_name_H-M   'P 1'
_cell_length_a   9.06332753
_cell_length_b   9.06332753
_cell_length_c   9.77613287
_cell_angle_alpha   62.77214647
_cell_angle_beta   62.77214647
_cell_angle_gamma   56.01373949
_symmetry_Int_Tables_number   1
_chemical_formula_structural   SbH12C2N6F5
_chemical_formula_sum   'Sb2 H24 C4 N12 F10'
_cell_volume   569.48096057
_cell_formula_units_Z   2
loop_
 _symmetry_equiv_pos_site_id
 _symmetry_equiv_pos_as_xyz
  1  'x, y, z'
loop_
 _atom_site_type_symbol
 _atom_site_label
 _atom_site_symmetry_multiplicity
 _atom_site_fract_x
 _atom_site_fract_y
 _atom_site_fract_z
 _atom_site_occupancy
  Sb  Sb0  1  0.65431500  0.65431500  0.86211600  1
  Sb  Sb1  1  0.34568500  0.34568500  0.13788400  1
  H  H0  1  0.00382500  0.21366100  0.77019700  1
  H  H1  1  0.21366100  0.00382500  0.77019700  1
  H  H2  1  0.99617500  0.78633900  0.22980300  1
  H  H3  1  0.78633900  0.99617500  0.22980300  1
  H  H4  1  0.01089100  0.73266500  0.83018200  1
  H  H5  1  0.73266500  0.01089100  0.83018200  1
  H  H6  1  0.98910900  0.26733500  0.16981800  1
  H  H7  1  0.26733500  0.98910900  0.16981800  1
  H  H8  1  0.21388000  0.73835000  0.80563100  1
  H  H9  1  0.73835000  0.21388000  0.80563100  1
  H  H10  1  0.78612000  0.26165000  0.19436900  1
  H  H11  1  0.26165000  0.78612000  0.19436900  1
  H  H12  1  0.62555500  0.83451900  0.13666400  1
  H  H13  1  0.83451900  0.62555500  0.13666400  1
  H  H14  1  0.37444500  0.16548100  0.86333600  1
  H  H15  1  0.16548100  0.37444500  0.86333600  1
  H  H16  1  0.78629900  0.50860400  0.54830800  1
  H  H17  1  0.50860400  0.78629900  0.54830800  1
  H  H18  1  0.21370100  0.49139600  0.45169200  1
  H  H19  1  0.49139600  0.21370100  0.45169200  1
  H  H20  1  0.92173900  0.44372300  0.37004500  1
  H  H21  1  0.44372300  0.92173900  0.37004500  1
  H  H22  1  0.07826100  0.55627700  0.62995500  1
  H  H23  1  0.55627700  0.07826100  0.62995500  1
  C  C0  1  0.98566400  0.98566400  0.80155100  1
  C  C1  1  0.01433600  0.01433600  0.19844900  1
  C  C2  1  0.68044300  0.68044300  0.35406300  1
  C  C3  1  0.31955700  0.31955700  0.64593700  1
  N  N0  1  0.07542800  0.07542800  0.77951600  1
  N  N1  1  0.92457200  0.92457200  0.22048400  1
  N  N2  1  0.07680300  0.80450600  0.81278000  1
  N  N3  1  0.80450600  0.07680300  0.81278000  1
  N  N4  1  0.92319700  0.19549400  0.18722000  1
  N  N5  1  0.19549400  0.92319700  0.18722000  1
  N  N6  1  0.71583500  0.71583500  0.19627100  1
  N  N7  1  0.28416500  0.28416500  0.80372900  1
  N  N8  1  0.79920000  0.52639300  0.43291500  1
  N  N9  1  0.52639300  0.79920000  0.43291500  1
  N  N10  1  0.20080000  0.47360700  0.56708500  1
  N  N11  1  0.47360700  0.20080000  0.56708500  1
  F  F0  1  0.75946100  0.75946100  0.63660500  1
  F  F1  1  0.24053900  0.24053900  0.36339500  1
  F  F2  1  0.42952700  0.77193700  0.76871700  1
  F  F3  1  0.77193700  0.42952700  0.76871700  1
  F  F4  1  0.57047300  0.22806300  0.23128300  1
  F  F5  1  0.22806300  0.57047300  0.23128300  1
  F  F6  1  0.91973300  0.58049500  0.86717800  1
  F  F7  1  0.58049500  0.91973300  0.86717800  1
  F  F8  1  0.08026700  0.41950500  0.13282200  1
  F  F9  1  0.41950500  0.08026700  0.13282200  1
loop_
_geom_bond_atom_site_label_1
_geom_bond_atom_site_label_2
_geom_bond_distance
_geom_bond_site_symmetry_2
H0 N0 1.019686 1_555
H1 N0 1.019686 1_555
H2 N1 1.019686 1_555
H3 N1 1.019686 1_555
H4 N2 1.024824 1_555
H5 N3 1.024824 1_555
H6 N4 1.024824 1_555
H7 N5 1.024824 1_555
H8 N2 1.016844 1_555
H9 N3 1.016844 1_555
H10 N4 1.016844 1_555
H11 N5 1.016844 1_555
H12 N6 1.022192 1_555
H13 N6 1.022192 1_555
H14 N7 1.022192 1_555
H15 N7 1.022192 1_555
H16 N8 1.022846 1_555
H17 N9 1.022846 1_555
H18 N10 1.022846 1_555
H19 N11 1.022846 1_555
H20 N8 1.019346 1_555
H21 N9 1.019346 1_555
H22 N10 1.019346 1_555
H23 N11 1.019346 1_555
C0 N0 1.337686 1_665
C0 N2 1.338642 1_655
C0 N3 1.338642 1_565
C1 N1 1.337686 1_445
C1 N4 1.338642 1_455
C1 N5 1.338642 1_545
C2 N6 1.339718 1_555
C2 N8 1.340296 1_555
C2 N9 1.340296 1_555
C3 N7 1.339718 1_555
C3 N10 1.340296 1_555
C3 N11 1.340296 1_555
F0 Sb0 1.961379 1_555
F1 Sb1 1.961379 1_555
F2 Sb0 2.122324 1_555
F3 Sb0 2.122324 1_555
F4 Sb1 2.122324 1_555
F5 Sb1 2.122324 1_555
F6 Sb0 2.125119 1_555
F7 Sb0 2.125119 1_555
F8 Sb1 2.125119 1_555
F9 Sb1 2.125119 1_555
