# generated using pymatgen
data_Cu11Sb4S13
_symmetry_space_group_name_H-M   'P 1'
_cell_length_a   8.91107763
_cell_length_b   8.91107763
_cell_length_c   9.09942652
_cell_angle_alpha   69.30347459
_cell_angle_beta   69.30347459
_cell_angle_gamma   106.03879056
_symmetry_Int_Tables_number   1
_chemical_formula_structural   Cu11Sb4S13
_chemical_formula_sum   'Cu11 Sb4 S13'
_cell_volume   561.94478852
_cell_formula_units_Z   1
loop_
 _symmetry_equiv_pos_site_id
 _symmetry_equiv_pos_as_xyz
  1  'x, y, z'
loop_
 _atom_site_type_symbol
 _atom_site_label
 _atom_site_symmetry_multiplicity
 _atom_site_fract_x
 _atom_site_fract_y
 _atom_site_fract_z
 _atom_site_occupancy
  Cu  Cu0  1  0.77848300  0.99747900  0.23161300  1
  Cu  Cu1  1  0.79453700  0.79453700  0.98458500  1
  Cu  Cu2  1  0.28905700  0.28905700  0.38858600  1
  Cu  Cu3  1  0.99747900  0.77848300  0.23161300  1
  Cu  Cu4  1  0.25004400  0.74450000  0.49349300  1
  Cu  Cu5  1  0.74450000  0.25004400  0.49349300  1
  Cu  Cu6  1  0.22831700  0.22831700  0.97664200  1
  Cu  Cu7  1  0.49105900  0.74533500  0.75635200  1
  Cu  Cu8  1  0.74533500  0.49105900  0.75635200  1
  Cu  Cu9  1  0.22089100  0.99569100  0.77441000  1
  Cu  Cu10  1  0.99569100  0.22089200  0.77441000  1
  Sb  Sb0  1  0.53296300  0.99645300  0.00788200  1
  Sb  Sb1  1  0.46792900  0.46792900  0.54469200  1
  Sb  Sb2  1  0.97495700  0.97495700  0.46872400  1
  Sb  Sb3  1  0.99645300  0.53296300  0.00788200  1
  S  S0  1  0.23353300  0.74853300  0.24841800  1
  S  S1  1  0.74853300  0.23353300  0.24841800  1
  S  S2  1  0.54159500  0.54159500  0.23336600  1
  S  S3  1  0.00209400  0.00209400  0.00222800  1
  S  S4  1  0.51846000  0.77796700  0.48493600  1
  S  S5  1  0.77796700  0.51846000  0.48493600  1
  S  S6  1  0.99168800  0.23334500  0.52498300  1
  S  S7  1  0.23334500  0.99168800  0.52498300  1
  S  S8  1  0.25255900  0.47648000  0.99809300  1
  S  S9  1  0.47648000  0.25255900  0.99809300  1
  S  S10  1  0.00351000  0.48558000  0.74865900  1
  S  S11  1  0.48558000  0.00351000  0.74865900  1
  S  S12  1  0.73696100  0.73696100  0.78350000  1
loop_
_geom_bond_atom_site_label_1
_geom_bond_atom_site_label_2
_geom_bond_distance
_geom_bond_site_symmetry_2
Cu0 S1 2.242327 1_565
Cu0 S4 2.245380 1_555
Cu0 S3 2.298506 1_665
Cu1 S12 2.248591 1_555
Cu1 S2 2.294546 1_556
Cu1 S3 2.323138 1_666
Cu2 S2 2.198109 1_555
Cu2 S6 2.306857 1_455
Cu2 S7 2.306857 1_545
Cu3 S0 2.242327 1_655
Cu3 S5 2.245380 1_555
Cu3 S3 2.298506 1_665
Cu4 S0 2.274691 1_555
Cu4 S4 2.296487 1_555
Cu4 S10 2.312532 1_555
Cu4 S7 2.356544 1_555
Cu5 S1 2.274691 1_555
Cu5 S5 2.296487 1_555
Cu5 S11 2.312532 1_555
Cu5 S6 2.356544 1_555
Cu6 S8 2.246328 1_555
Cu6 S9 2.246328 1_555
Cu6 S3 2.296254 1_556
Cu7 S11 2.291457 1_565
Cu7 S8 2.291784 1_555
Cu7 S4 2.295786 1_555
Cu7 S12 2.308272 1_555
Cu8 S10 2.291457 1_655
Cu8 S9 2.291784 1_555
Cu8 S5 2.295786 1_555
Cu8 S12 2.308272 1_555
Cu9 S7 2.246384 1_555
Cu9 S11 2.264962 1_565
Cu9 S3 2.321687 1_566
Cu10 S6 2.246387 1_555
Cu10 S10 2.264953 1_655
Cu10 S3 2.321692 1_656
S0 Sb0 2.446969 1_555
S1 Sb3 2.446969 1_555
S2 Sb1 2.453582 1_555
S4 Sb1 2.491787 1_555
S5 Sb1 2.491787 1_555
S6 Sb2 2.506649 1_545
S7 Sb2 2.506649 1_455
S8 Sb3 2.447928 1_456
S9 Sb0 2.447928 1_546
S10 Sb3 2.521881 1_456
S11 Sb0 2.521881 1_546
S12 Sb2 2.475252 1_555
