# generated using pymatgen
data_Hf2InNi2
_symmetry_space_group_name_H-M   'P 1'
_cell_length_a   7.14005400
_cell_length_b   7.14005400
_cell_length_c   6.54674400
_cell_angle_alpha   90.00000000
_cell_angle_beta   90.00000000
_cell_angle_gamma   90.00000000
_symmetry_Int_Tables_number   1
_chemical_formula_structural   Hf2InNi2
_chemical_formula_sum   'Hf8 In4 Ni8'
_cell_volume   333.75543877
_cell_formula_units_Z   4
loop_
 _symmetry_equiv_pos_site_id
 _symmetry_equiv_pos_as_xyz
  1  'x, y, z'
loop_
 _atom_site_type_symbol
 _atom_site_label
 _atom_site_symmetry_multiplicity
 _atom_site_fract_x
 _atom_site_fract_y
 _atom_site_fract_z
 _atom_site_occupancy
  Hf  Hf0  1  0.17416000  0.82584000  0.50000000  1
  Hf  Hf1  1  0.32584000  0.32584000  0.00000000  1
  Hf  Hf2  1  0.65938800  0.65938800  0.50000000  1
  Hf  Hf3  1  0.82584000  0.17416000  0.50000000  1
  Hf  Hf4  1  0.15938800  0.84061200  0.00000000  1
  Hf  Hf5  1  0.34061200  0.34061200  0.50000000  1
  Hf  Hf6  1  0.67416000  0.67416000  0.00000000  1
  Hf  Hf7  1  0.84061200  0.15938800  0.00000000  1
  In  In0  1  0.50000000  0.00000000  0.75000000  1
  In  In1  1  0.00000000  0.50000000  0.25000000  1
  In  In2  1  0.00000000  0.50000000  0.75000000  1
  In  In3  1  0.50000000  0.00000000  0.25000000  1
  Ni  Ni0  1  0.12625300  0.12625300  0.26753900  1
  Ni  Ni1  1  0.87374700  0.87374700  0.73246100  1
  Ni  Ni2  1  0.87374700  0.87374700  0.26753900  1
  Ni  Ni3  1  0.12625300  0.12625300  0.73246100  1
  Ni  Ni4  1  0.37374700  0.62625300  0.23246100  1
  Ni  Ni5  1  0.62625300  0.37374700  0.76753900  1
  Ni  Ni6  1  0.37374700  0.62625300  0.76753900  1
  Ni  Ni7  1  0.62625300  0.37374700  0.23246100  1
loop_
_geom_bond_atom_site_label_1
_geom_bond_atom_site_label_2
_geom_bond_distance
_geom_bond_site_symmetry_2
Hf0 Ni3 2.652159 1_565
Hf0 Ni1 2.652159 1_455
Hf0 Ni2 2.652159 1_455
Hf0 Ni0 2.652159 1_565
Hf0 Ni6 2.670091 1_555
Hf0 Ni4 2.670091 1_555
Hf0 In0 3.104470 1_565
Hf0 In3 3.104470 1_565
Hf0 In1 3.104470 1_555
Hf0 In2 3.104470 1_555
Hf1 Ni7 2.652159 1_555
Hf1 Ni5 2.652159 1_554
Hf1 Ni6 2.652159 1_554
Hf1 Ni4 2.652159 1_555
Hf1 Ni0 2.670091 1_555
Hf1 Ni3 2.670091 1_554
Hf1 In1 3.104470 1_555
Hf1 In0 3.104470 1_554
Hf1 In3 3.104470 1_555
Hf1 In2 3.104470 1_554
Hf2 Ni2 2.645967 1_555
Hf2 Ni1 2.645967 1_555
Hf2 Ni6 2.698756 1_555
Hf2 Ni4 2.698756 1_555
Hf2 Ni7 2.698756 1_555
Hf2 Ni5 2.698756 1_555
Hf2 In0 3.144589 1_565
Hf2 In1 3.144589 1_655
Hf2 In3 3.144589 1_565
Hf2 In2 3.144589 1_655
Hf3 Ni0 2.652159 1_655
Hf3 Ni1 2.652159 1_545
Hf3 Ni3 2.652159 1_655
Hf3 Ni2 2.652159 1_545
Hf3 Ni7 2.670091 1_555
Hf3 Ni5 2.670091 1_555
Hf3 In1 3.104470 1_655
Hf3 In0 3.104470 1_555
Hf3 In2 3.104470 1_655
Hf3 In3 3.104470 1_555
Hf4 Ni4 2.645967 1_555
Hf4 Ni6 2.645967 1_554
Hf4 Ni1 2.698756 1_454
Hf4 Ni3 2.698756 1_564
Hf4 Ni2 2.698756 1_455
Hf4 Ni0 2.698756 1_565
Hf4 In0 3.144589 1_564
Hf4 In1 3.144589 1_555
Hf4 In2 3.144589 1_554
Hf4 In3 3.144589 1_565
Hf5 Ni3 2.645967 1_555
Hf5 Ni0 2.645967 1_555
Hf5 Ni4 2.698756 1_555
Hf5 Ni5 2.698756 1_555
Hf5 Ni6 2.698756 1_555
Hf5 Ni7 2.698756 1_555
Hf5 In0 3.144589 1_555
Hf5 In3 3.144589 1_555
Hf5 In1 3.144589 1_555
Hf5 In2 3.144589 1_555
Hf6 Ni7 2.652159 1_555
Hf6 Ni4 2.652159 1_555
Hf6 Ni5 2.652159 1_554
Hf6 Ni6 2.652159 1_554
Hf6 Ni2 2.670091 1_555
Hf6 Ni1 2.670091 1_554
Hf6 In2 3.104470 1_654
Hf6 In1 3.104470 1_655
Hf6 In3 3.104470 1_565
Hf6 In0 3.104470 1_564
Hf7 Ni5 2.645967 1_554
Hf7 Ni7 2.645967 1_555
Hf7 Ni3 2.698756 1_654
Hf7 Ni1 2.698756 1_544
Hf7 Ni2 2.698756 1_545
Hf7 Ni0 2.698756 1_655
Hf7 In2 3.144589 1_654
Hf7 In1 3.144589 1_655
Hf7 In0 3.144589 1_554
Hf7 In3 3.144589 1_555
In0 Ni3 2.819058 1_555
In0 Ni5 2.819058 1_555
In0 Ni1 2.819058 1_545
In0 Ni6 2.819058 1_545
In0 In3 3.273372 1_555
In0 In3 3.273372 1_556
In1 Ni4 2.819058 1_555
In1 Ni7 2.819058 1_455
In1 Ni2 2.819058 1_455
In1 Ni0 2.819058 1_555
In1 In2 3.273372 1_555
In1 In2 3.273372 1_554
In2 Ni6 2.819058 1_555
In2 Ni1 2.819058 1_455
In2 Ni3 2.819058 1_555
In2 Ni5 2.819058 1_455
In3 Ni0 2.819058 1_555
In3 Ni7 2.819058 1_555
In3 Ni4 2.819058 1_545
In3 Ni2 2.819058 1_545
Ni0 Ni2 2.549695 1_445
Ni1 Ni3 2.549695 1_665
Ni4 Ni7 2.549695 1_555
Ni5 Ni6 2.549695 1_555
