# generated using pymatgen
data_Ti5Fe11O24
_symmetry_space_group_name_H-M   'P 1'
_cell_length_a   11.06396839
_cell_length_b   14.97935246
_cell_length_c   9.82018791
_cell_angle_alpha   26.40909560
_cell_angle_beta   49.98828747
_cell_angle_gamma   37.47981252
_symmetry_Int_Tables_number   1
_chemical_formula_structural   Ti5Fe11O24
_chemical_formula_sum   'Ti5 Fe11 O24'
_cell_volume   426.41874921
_cell_formula_units_Z   1
loop_
 _symmetry_equiv_pos_site_id
 _symmetry_equiv_pos_as_xyz
  1  'x, y, z'
loop_
 _atom_site_type_symbol
 _atom_site_label
 _atom_site_symmetry_multiplicity
 _atom_site_fract_x
 _atom_site_fract_y
 _atom_site_fract_z
 _atom_site_occupancy
  Ti  Ti0  1  0.17833400  0.50956100  0.83841500  1
  Ti  Ti1  1  0.17970600  0.00578200  0.34532500  1
  Ti  Ti2  1  0.68731900  0.50495700  0.83377200  1
  Ti  Ti3  1  0.41479300  0.00805600  0.85482200  1
  Ti  Ti4  1  0.92120200  0.99090100  0.87520300  1
  Fe  Fe0  1  0.32026100  0.00487100  0.64235100  1
  Fe  Fe1  1  0.32477500  0.49984500  0.14363800  1
  Fe  Fe2  1  0.07589000  0.49514000  0.66020500  1
  Fe  Fe3  1  0.42804000  0.49712400  0.35647300  1
  Fe  Fe4  1  0.81771000  0.00098200  0.64870700  1
  Fe  Fe5  1  0.06689700  0.99582400  0.14956600  1
  Fe  Fe6  1  0.82516200  0.50005500  0.14393900  1
  Fe  Fe7  1  0.57965600  0.49403000  0.64492900  1
  Fe  Fe8  1  0.92625800  0.50085700  0.35606500  1
  Fe  Fe9  1  0.57531100  0.99954000  0.15479300  1
  Fe  Fe10  1  0.67612000  0.00147300  0.35222800  1
  O  O0  1  0.27292000  0.18118600  0.07857100  1
  O  O1  1  0.11153500  0.34923700  0.22890400  1
  O  O2  1  0.16458200  0.14533400  0.74215600  1
  O  O3  1  0.02702200  0.71078800  0.03896000  1
  O  O4  1  0.45233300  0.15168400  0.44380500  1
  O  O5  1  0.30961400  0.33194600  0.56311300  1
  O  O6  1  0.76033800  0.20559900  0.06213700  1
  O  O7  1  0.60345000  0.35521800  0.23586000  1
  O  O8  1  0.21833700  0.62031300  0.47828000  1
  O  O9  1  0.65653300  0.14995600  0.74118800  1
  O  O10  1  0.05606400  0.82747400  0.58366500  1
  O  O11  1  0.52717800  0.69374300  0.05919400  1
  O  O12  1  0.45656400  0.30718700  0.95597500  1
  O  O13  1  0.96064100  0.15190700  0.42981300  1
  O  O14  1  0.34539700  0.87036500  0.22369700  1
  O  O15  1  0.81267900  0.32528200  0.56051600  1
  O  O16  1  0.37796700  0.67778400  0.73225700  1
  O  O17  1  0.21284900  0.81038400  0.94758000  1
  O  O18  1  0.70263700  0.64459400  0.46779800  1
  O  O19  1  0.55292200  0.83306200  0.57683300  1
  O  O20  1  0.95840900  0.31083400  0.95469700  1
  O  O21  1  0.85637600  0.86072400  0.23352900  1
  O  O22  1  0.89698200  0.65817600  0.74490400  1
  O  O23  1  0.70892200  0.81321200  0.94079300  1
loop_
_geom_bond_atom_site_label_1
_geom_bond_atom_site_label_2
_geom_bond_distance
_geom_bond_site_symmetry_2
Fe0 O19 1.996371 1_545
Fe0 O1 2.015095 1_555
Fe0 O2 2.031170 1_555
Fe0 O17 2.038722 1_545
Fe0 O4 2.128160 1_555
Fe0 O11 2.158942 1_546
Fe1 O3 1.977048 1_555
Fe1 O16 1.978703 1_554
Fe1 O4 2.002436 1_555
Fe1 O7 2.120060 1_555
Fe1 O5 2.131978 1_555
Fe1 O17 2.181531 1_554
Fe2 O20 2.057885 1_455
Fe2 O8 2.064064 1_555
Fe2 O21 2.078120 1_455
Fe2 O0 2.093701 1_556
Fe2 O22 2.103170 1_455
Fe2 O5 2.131566 1_555
Fe3 O8 1.951685 1_555
Fe3 O9 1.982558 1_555
Fe3 O11 2.002009 1_555
Fe3 O17 2.149713 1_554
Fe3 O5 2.165451 1_555
Fe3 O7 2.166658 1_555
Fe4 O10 2.011691 1_645
Fe4 O23 2.017270 1_545
Fe4 O7 2.017772 1_555
Fe4 O9 2.053400 1_555
Fe4 O3 2.130717 1_646
Fe4 O13 2.197843 1_555
Fe5 O6 2.027700 1_465
Fe5 O8 2.082991 1_555
Fe5 O2 2.102792 1_564
Fe5 O14 2.190747 1_555
Fe5 O10 2.261073 1_555
Fe5 O20 2.271081 1_464
Fe6 O22 1.988570 1_554
Fe6 O11 2.000314 1_555
Fe6 O13 2.025811 1_555
Fe6 O15 2.066669 1_555
Fe6 O1 2.121582 1_655
Fe6 O23 2.144654 1_554
Fe7 O15 2.094168 1_555
Fe7 O12 2.098771 1_555
Fe7 O14 2.105652 1_555
Fe7 O6 2.136472 1_556
Fe7 O18 2.182531 1_555
Fe7 O16 2.304421 1_555
Fe8 O2 2.022076 1_655
Fe8 O18 2.060907 1_555
Fe8 O3 2.094675 1_655
Fe8 O23 2.208733 1_554
Fe8 O15 2.251563 1_555
Fe8 O1 2.306327 1_655
Fe9 O18 2.026666 1_555
Fe9 O0 2.069039 1_565
Fe9 O12 2.084970 1_564
Fe9 O9 2.123336 1_564
Fe9 O21 2.130941 1_555
Fe9 O19 2.145661 1_555
Fe10 O6 1.959217 1_555
Fe10 O4 1.980229 1_555
Fe10 O22 1.984285 1_545
Fe10 O21 2.126169 1_545
Fe10 O12 2.143149 1_554
Fe10 O19 2.170553 1_545
O0 Ti1 1.823995 1_555
O0 Ti0 2.253026 1_554
O1 Ti0 1.922209 1_554
O2 Ti3 1.986064 1_555
O3 Ti4 2.024824 1_454
O4 Ti3 2.190898 1_555
O5 Ti3 1.878594 1_555
O6 Ti2 2.087188 1_554
O7 Ti2 2.051946 1_554
O8 Ti0 2.024466 1_555
O9 Ti4 2.061353 1_545
O10 Ti0 1.885034 1_555
O10 Ti1 2.228714 1_565
O11 Ti3 2.175404 1_564
O12 Ti0 1.867787 1_555
O13 Ti1 1.897663 1_655
O13 Ti4 2.336202 1_545
O14 Ti3 1.875943 1_564
O14 Ti1 2.127058 1_565
O15 Ti4 1.891886 1_545
O16 Ti1 1.886970 1_565
O16 Ti2 2.260949 1_555
O17 Ti4 1.971609 1_455
O18 Ti2 1.906283 1_555
O19 Ti2 1.935119 1_555
O20 Ti2 1.847678 1_555
O20 Ti1 2.124085 1_656
O21 Ti4 1.839096 1_554
O22 Ti0 2.122371 1_655
O23 Ti3 1.966151 1_565
