# generated using pymatgen
data_K2Pt(NO2)4
_symmetry_space_group_name_H-M   'P 1'
_cell_length_a   12.99121100
_cell_length_b   7.87002600
_cell_length_c   9.68877438
_cell_angle_alpha   83.14638145
_cell_angle_beta   90.00000000
_cell_angle_gamma   90.00000000
_symmetry_Int_Tables_number   1
_chemical_formula_structural   K2Pt(NO2)4
_chemical_formula_sum   'K8 Pt4 N16 O32'
_cell_volume   983.51311075
_cell_formula_units_Z   4
loop_
 _symmetry_equiv_pos_site_id
 _symmetry_equiv_pos_as_xyz
  1  'x, y, z'
loop_
 _atom_site_type_symbol
 _atom_site_label
 _atom_site_symmetry_multiplicity
 _atom_site_fract_x
 _atom_site_fract_y
 _atom_site_fract_z
 _atom_site_occupancy
  K  K0  1  0.15532300  0.58349400  0.19549600  1
  K  K1  1  0.65532300  0.91650600  0.80450400  1
  K  K2  1  0.84467700  0.41650600  0.80450400  1
  K  K3  1  0.34467700  0.08349400  0.19549600  1
  K  K4  1  0.18150900  0.34724400  0.66105900  1
  K  K5  1  0.68150900  0.15275600  0.33894100  1
  K  K6  1  0.81849100  0.65275600  0.33894100  1
  K  K7  1  0.31849100  0.84724400  0.66105900  1
  Pt  Pt0  1  0.00000000  0.00000000  0.00000000  1
  Pt  Pt1  1  0.50000000  0.50000000  0.00000000  1
  Pt  Pt2  1  0.00000000  0.00000000  0.50000000  1
  Pt  Pt3  1  0.50000000  0.50000000  0.50000000  1
  N  N0  1  0.52185600  0.75183200  0.42033500  1
  N  N1  1  0.36110500  0.49071200  0.40312500  1
  N  N2  1  0.86110500  0.00928800  0.59687500  1
  N  N3  1  0.63889500  0.50928800  0.59687500  1
  N  N4  1  0.13889500  0.99071200  0.40312500  1
  N  N5  1  0.02185600  0.74816800  0.57966500  1
  N  N6  1  0.47814400  0.24816800  0.57966500  1
  N  N7  1  0.97814400  0.25183200  0.42033500  1
  N  N8  1  0.56578900  0.26484700  0.99336400  1
  N  N9  1  0.06578900  0.23515300  0.00663600  1
  N  N10  1  0.43421100  0.73515300  0.00663600  1
  N  N11  1  0.93421100  0.76484700  0.99336400  1
  N  N12  1  0.12790400  0.92712000  0.89884900  1
  N  N13  1  0.62790400  0.57288000  0.10115100  1
  N  N14  1  0.87209600  0.07288000  0.10115100  1
  N  N15  1  0.37209600  0.42712000  0.89884900  1
  O  O0  1  0.89155300  0.29935900  0.37430400  1
  O  O1  1  0.39155300  0.20064100  0.62569600  1
  O  O2  1  0.10844700  0.70064100  0.62569600  1
  O  O3  1  0.60844700  0.79935900  0.37430400  1
  O  O4  1  0.21331300  0.07476200  0.44236400  1
  O  O5  1  0.71331300  0.42523800  0.55763600  1
  O  O6  1  0.78668700  0.92523800  0.55763600  1
  O  O7  1  0.34932200  0.40000800  0.30689600  1
  O  O8  1  0.28668700  0.57476200  0.44236400  1
  O  O9  1  0.15067800  0.90000800  0.30689600  1
  O  O10  1  0.65067800  0.59999200  0.69310400  1
  O  O11  1  0.84932200  0.09999200  0.69310400  1
  O  O12  1  0.17160300  0.78839500  0.93840300  1
  O  O13  1  0.67160300  0.71160500  0.06159700  1
  O  O14  1  0.82839700  0.21160500  0.06159700  1
  O  O15  1  0.32839700  0.28839500  0.93840300  1
  O  O16  1  0.16251300  0.02213500  0.79624200  1
  O  O17  1  0.66251300  0.47786500  0.20375800  1
  O  O18  1  0.83748700  0.97786500  0.20375800  1
  O  O19  1  0.33748700  0.52213500  0.79624200  1
  O  O20  1  0.95013000  0.64761500  0.09029600  1
  O  O21  1  0.45013000  0.85238500  0.90970400  1
  O  O22  1  0.04987000  0.35238500  0.90970400  1
  O  O23  1  0.54987000  0.14761500  0.09029600  1
  O  O24  1  0.87774400  0.73952800  0.89336400  1
  O  O25  1  0.37774400  0.76047200  0.10663600  1
  O  O26  1  0.12225600  0.26047200  0.10663600  1
  O  O27  1  0.62225600  0.23952800  0.89336400  1
  O  O28  1  0.05061000  0.35696700  0.41889100  1
  O  O29  1  0.55061000  0.14303300  0.58110900  1
  O  O30  1  0.94939000  0.64303300  0.58110900  1
  O  O31  1  0.44939000  0.85696700  0.41889100  1
loop_
_geom_bond_atom_site_label_1
_geom_bond_atom_site_label_2
_geom_bond_distance
_geom_bond_site_symmetry_2
K0 O12 2.809114 1_554
K0 O26 2.812627 1_555
K0 O9 2.831116 1_555
K0 O20 2.876938 1_455
K0 O8 2.932378 1_555
K0 O28 2.965236 1_555
K0 O7 3.038098 1_555
K0 O25 3.277850 1_555
K1 O13 2.809114 1_556
K1 O27 2.812627 1_565
K1 O10 2.831116 1_555
K1 O21 2.876938 1_555
K1 O6 2.932378 1_555
K1 O29 2.965236 1_565
K1 O11 3.038098 1_565
K1 O24 3.277850 1_555
K2 O14 2.809114 1_556
K2 O24 2.812627 1_555
K2 O11 2.831116 1_555
K2 O22 2.876938 1_655
K2 O5 2.932378 1_555
K2 O30 2.965236 1_555
K2 O10 3.038098 1_555
K2 O27 3.277850 1_555
K3 O15 2.809114 1_554
K3 O25 2.812627 1_545
K3 O7 2.831116 1_555
K3 O23 2.876938 1_555
K3 O4 2.932378 1_555
K3 O31 2.965236 1_545
K3 O9 3.038098 1_545
K3 O26 3.277850 1_555
K4 O16 2.742822 1_555
K4 O19 2.854164 1_555
K4 O28 2.891367 1_555
K4 O2 2.919964 1_555
K4 O8 2.942337 1_555
K4 O22 2.958565 1_555
K4 O1 2.998144 1_555
K4 O4 3.216127 1_555
K4 O15 3.283221 1_555
K5 O17 2.742822 1_555
K5 O18 2.854164 1_545
K5 O29 2.891367 1_555
K5 O3 2.919964 1_545
K5 O6 2.942337 1_545
K5 O23 2.958565 1_555
K5 O0 2.998144 1_555
K5 O5 3.216127 1_555
K5 O14 3.283221 1_555
K6 O18 2.742822 1_555
K6 O17 2.854164 1_555
K6 O30 2.891367 1_555
K6 O0 2.919964 1_555
K6 O5 2.942337 1_555
K6 O20 2.958565 1_555
K6 O3 2.998144 1_555
K6 O6 3.216127 1_555
K6 O13 3.283221 1_555
K7 O19 2.742822 1_555
K7 O16 2.854164 1_565
K7 O31 2.891367 1_555
K7 O1 2.919964 1_565
K7 O4 2.942337 1_565
K7 O21 2.958565 1_555
K7 O2 2.998144 1_555
K7 O8 3.216127 1_555
K7 O12 3.283221 1_555
N0 O3 1.250777 1_555
N0 O31 1.252327 1_555
N0 Pt3 2.058957 1_555
N1 O7 1.249443 1_555
N1 O8 1.255694 1_555
N1 Pt3 2.039264 1_555
N2 O11 1.249443 1_555
N2 O6 1.255694 1_545
N2 Pt2 2.039264 1_655
N3 O10 1.249443 1_555
N3 O5 1.255694 1_555
N3 Pt3 2.039264 1_555
N4 O9 1.249443 1_555
N4 O4 1.255694 1_565
N4 Pt2 2.039264 1_565
N5 O2 1.250777 1_555
N5 O30 1.252327 1_455
N5 Pt2 2.058957 1_565
N6 O1 1.250777 1_555
N6 O29 1.252327 1_555
N6 Pt3 2.058957 1_555
N7 O0 1.250777 1_555
N7 O28 1.252327 1_655
N7 Pt2 2.058957 1_655
N8 O27 1.250055 1_555
N8 O23 1.252678 1_556
N8 Pt1 2.046448 1_556
N9 O26 1.250055 1_555
N9 O22 1.252678 1_554
N9 Pt0 2.046448 1_555
N10 O25 1.250055 1_555
N10 O21 1.252678 1_554
N10 Pt1 2.046448 1_555
N11 O24 1.250055 1_555
N11 O20 1.252678 1_556
N11 Pt0 2.046448 1_666
N12 O12 1.249502 1_555
N12 O16 1.253873 1_565
N12 Pt0 2.045630 1_566
N13 O13 1.249502 1_555
N13 O17 1.253873 1_555
N13 Pt1 2.045630 1_555
N14 O14 1.249502 1_555
N14 O18 1.253873 1_545
N14 Pt0 2.045630 1_655
N15 O15 1.249502 1_555
N15 O19 1.253873 1_555
N15 Pt1 2.045630 1_556
