# generated using pymatgen
data_NaTaO3
_symmetry_space_group_name_H-M   'P 1'
_cell_length_a   7.57148176
_cell_length_b   7.44413558
_cell_length_c   14.78526202
_cell_angle_alpha   59.02675537
_cell_angle_beta   60.28675963
_cell_angle_gamma   59.44014064
_symmetry_Int_Tables_number   1
_chemical_formula_structural   NaTaO3
_chemical_formula_sum   'Na8 Ta8 O24'
_cell_volume   583.54908244
_cell_formula_units_Z   8
loop_
 _symmetry_equiv_pos_site_id
 _symmetry_equiv_pos_as_xyz
  1  'x, y, z'
loop_
 _atom_site_type_symbol
 _atom_site_label
 _atom_site_symmetry_multiplicity
 _atom_site_fract_x
 _atom_site_fract_y
 _atom_site_fract_z
 _atom_site_occupancy
  Na  Na0  1  0.01173800  0.99570500  0.47663200  1
  Na  Na1  1  0.99146800  0.52176100  0.22782700  1
  Na  Na2  1  0.52948800  0.98266400  0.23710000  1
  Na  Na3  1  0.52065000  0.49533200  0.25418700  1
  Na  Na4  1  0.02980500  0.46406200  0.77265300  1
  Na  Na5  1  0.51070900  0.48553900  0.51385600  1
  Na  Na6  1  0.48748200  0.50399500  0.75288900  1
  Na  Na7  1  0.49251200  0.54148000  0.97413000  1
  Ta  Ta0  1  0.99577500  0.00225900  0.99862400  1
  Ta  Ta1  1  0.00093200  0.99307200  0.24694200  1
  Ta  Ta2  1  0.49869400  0.99686900  0.00546900  1
  Ta  Ta3  1  0.48324800  0.98757100  0.48759500  1
  Ta  Ta4  1  0.99891900  0.00396700  0.74683900  1
  Ta  Ta5  1  0.59763800  0.00296300  0.69979400  1
  Ta  Ta6  1  0.99971600  0.50198000  0.00392200  1
  Ta  Ta7  1  0.98375900  0.48493400  0.48543600  1
  O  O0  1  0.06694600  0.68246000  0.03854900  1
  O  O1  1  0.06286800  0.75604200  0.38632400  1
  O  O2  1  0.68262500  0.06213400  0.04337000  1
  O  O3  1  0.29719200  0.31397000  0.45249600  1
  O  O4  1  0.31631000  0.92281000  0.17939700  1
  O  O5  1  0.04477000  0.07251300  0.84582200  1
  O  O6  1  0.70328500  0.09048400  0.34648500  1
  O  O7  1  0.68338900  0.67344100  0.05117700  1
  O  O8  1  0.05888500  0.68357200  0.84845200  1
  O  O9  1  0.63250400  0.05408300  0.55490100  1
  O  O10  1  0.95307200  0.30739900  0.17358000  1
  O  O11  1  0.37829100  0.90454000  0.42841300  1
  O  O12  1  0.40532400  0.28473300  0.70904400  1
  O  O13  1  0.30877900  0.31019300  0.97903700  1
  O  O14  1  0.28361800  0.92509100  0.64548800  1
  O  O15  1  0.92599700  0.38772700  0.41367500  1
  O  O16  1  0.92874600  0.89607100  0.17987000  1
  O  O17  1  0.68130800  0.05263600  0.85133400  1
  O  O18  1  0.68368000  0.67836000  0.53302700  1
  O  O19  1  0.94241500  0.31821000  0.64493200  1
  O  O20  1  0.56272500  0.72962200  0.79421800  1
  O  O21  1  0.29280200  0.93239200  0.99225500  1
  O  O22  1  0.92846100  0.30914800  0.98166100  1
  O  O23  1  0.89947600  0.93821800  0.66759900  1
loop_
_geom_bond_atom_site_label_1
_geom_bond_atom_site_label_2
_geom_bond_distance
_geom_bond_site_symmetry_2
Na0 O11 2.300580 1_555
Na0 O23 2.371680 1_455
Na0 O15 2.383440 1_465
Na0 O9 2.393225 1_465
Na0 O1 2.520477 1_555
Na1 O15 2.263283 1_555
Na1 O0 2.292020 1_655
Na1 O10 2.300960 1_555
Na1 O16 2.333889 1_555
Na2 O11 2.328858 1_555
Na2 O2 2.357950 1_565
Na2 O4 2.453425 1_555
Na2 O16 2.512778 1_555
Na3 O7 2.486822 1_555
Na3 O6 2.501377 1_555
Na3 O3 2.571550 1_555
Na3 O4 2.609702 1_555
Na3 O10 2.699517 1_555
Na4 O12 2.352106 1_555
Na4 O5 2.493800 1_555
Na4 O22 2.519806 1_455
Na4 O8 2.543622 1_555
Na4 O23 2.860000 1_455
Na4 O20 2.989686 1_455
Na4 O19 3.043379 1_455
Na5 O12 2.385281 1_555
Na5 O11 2.519882 1_555
Na5 O18 2.560114 1_555
Na5 O15 2.603078 1_555
Na5 O9 2.659173 1_555
Na6 O20 2.427654 1_555
Na6 O12 2.447984 1_555
Na6 O14 2.667691 1_555
Na6 O18 2.699894 1_555
Na6 O8 2.702160 1_555
Na6 O13 2.761734 1_555
Na6 O17 2.762494 1_555
Na6 O19 2.881461 1_555
Na7 O20 2.200155 1_555
Na7 O21 2.598626 1_555
Na7 O0 2.634157 1_556
Na7 O13 2.666800 1_555
Na7 O22 2.873988 1_555
Na7 O2 2.886295 1_556
Na7 O7 2.928964 1_556
O0 Ta0 1.967392 1_464
O0 Ta6 1.997003 1_455
O1 Ta7 1.973389 1_455
O1 Ta1 1.988495 1_555
O2 Ta0 1.982906 1_554
O2 Ta2 2.057023 1_545
O3 Ta7 1.977308 1_455
O3 Ta3 2.025780 1_545
O4 Ta1 1.968878 1_555
O4 Ta2 2.149065 1_555
O5 Ta0 1.914560 1_455
O5 Ta4 1.993768 1_455
O6 Ta1 1.979763 1_645
O6 Ta3 1.980495 1_545
O7 Ta6 2.001014 1_555
O7 Ta2 2.011823 1_555
O8 Ta6 1.925769 1_456
O8 Ta4 2.009646 1_465
O9 Ta5 1.872512 1_555
O9 Ta3 2.168754 1_545
O10 Ta1 1.923026 1_645
O10 Ta6 2.101732 1_555
O11 Ta3 1.877418 1_555
O12 Ta5 1.879008 1_555
O13 Ta2 1.966974 1_546
O13 Ta6 1.984809 1_456
O14 Ta4 1.911363 1_465
O14 Ta3 2.012497 1_555
O15 Ta7 1.847345 1_555
O16 Ta1 1.865267 1_655
O16 Ta0 2.223290 1_564
O17 Ta2 1.940073 1_546
O17 Ta4 2.075647 1_555
O18 Ta7 1.965165 1_555
O18 Ta3 1.979782 1_555
O19 Ta7 1.962201 1_555
O19 Ta4 1.979631 1_555
O20 Ta5 1.848380 1_565
O21 Ta2 1.964191 1_556
O21 Ta0 1.997033 1_465
O22 Ta0 1.973497 1_555
O22 Ta6 1.977321 1_556
O23 Ta5 1.928579 1_565
O23 Ta4 2.004616 1_565
