# generated using pymatgen
data_Rb2TaCuSe4
_symmetry_space_group_name_H-M   'P 1'
_cell_length_a   14.49023747
_cell_length_b   12.93446399
_cell_length_c   7.71366873
_cell_angle_alpha   85.16063209
_cell_angle_beta   62.80432411
_cell_angle_gamma   32.03504380
_symmetry_Int_Tables_number   1
_chemical_formula_structural   Rb2TaCuSe4
_chemical_formula_sum   'Rb4 Ta2 Cu2 Se8'
_cell_volume   522.74465719
_cell_formula_units_Z   2
loop_
 _symmetry_equiv_pos_site_id
 _symmetry_equiv_pos_as_xyz
  1  'x, y, z'
loop_
 _atom_site_type_symbol
 _atom_site_label
 _atom_site_symmetry_multiplicity
 _atom_site_fract_x
 _atom_site_fract_y
 _atom_site_fract_z
 _atom_site_occupancy
  Rb  Rb0  1  0.55968600  0.54644000  0.19589400  1
  Rb  Rb1  1  0.18964300  0.20360200  0.55441400  1
  Rb  Rb2  1  0.44994400  0.44058600  0.80621800  1
  Rb  Rb3  1  0.79823000  0.80607600  0.44891900  1
  Ta  Ta0  1  0.36939000  0.38282300  0.38136100  1
  Ta  Ta1  1  0.63202000  0.62002000  0.61601400  1
  Cu  Cu0  1  0.87507800  0.87880700  0.87455500  1
  Cu  Cu1  1  0.11665000  0.13246500  0.13420300  1
  Se  Se0  1  0.76537600  0.09169800  0.17806300  1
  Se  Se1  1  0.47070300  0.17213100  0.08702400  1
  Se  Se2  1  0.17556400  0.46434300  0.77735500  1
  Se  Se3  1  0.08652100  0.77622800  0.46173700  1
  Se  Se4  1  0.90644900  0.23183600  0.54374500  1
  Se  Se5  1  0.83207100  0.53075400  0.22678700  1
  Se  Se6  1  0.54308300  0.81799500  0.90837700  1
  Se  Se7  1  0.21992000  0.92091800  0.83060100  1
loop_
_geom_bond_atom_site_label_1
_geom_bond_atom_site_label_2
_geom_bond_distance
_geom_bond_site_symmetry_2
Rb0 Se4 3.577019 1_554
Rb0 Se7 3.591426 1_644
Rb0 Se7 3.634224 1_555
Rb0 Se0 3.679344 1_555
Rb0 Se3 3.697888 1_555
Rb0 Se4 3.730205 1_465
Rb0 Se6 3.879990 1_554
Rb0 Se5 3.894870 1_555
Rb1 Se6 3.525704 1_455
Rb1 Se6 3.673688 1_544
Rb1 Se5 3.690317 1_456
Rb1 Se5 3.692483 1_545
Rb1 Se1 3.710234 1_555
Rb1 Se2 3.723492 1_555
Rb1 Se4 3.839544 1_455
Rb1 Se7 3.862704 1_545
Rb2 Se3 3.570711 1_556
Rb2 Se3 3.612142 1_645
Rb2 Se0 3.634365 1_555
Rb2 Se4 3.680339 1_555
Rb2 Se0 3.739188 1_466
Rb2 Se7 3.776117 1_555
Rb2 Se1 3.794064 1_556
Rb2 Se2 3.831115 1_555
Rb3 Se2 3.580283 1_565
Rb3 Se5 3.627527 1_555
Rb3 Se2 3.642268 1_654
Rb3 Se6 3.660892 1_555
Rb3 Se1 3.675657 1_655
Rb3 Se1 3.694661 1_566
Rb3 Se0 3.855528 1_565
Rb3 Se3 3.904649 1_655
Cu0 Se0 2.419727 1_566
Cu0 Se1 2.448266 1_566
Cu0 Se3 2.488046 1_655
Cu0 Se2 2.525603 1_655
Cu1 Se5 2.442446 1_455
Cu1 Se7 2.479227 1_544
Cu1 Se4 2.482229 1_455
Cu1 Se6 2.550408 1_544
Se0 Ta0 2.387739 1_555
Se1 Ta0 2.439453 1_555
Se2 Ta0 2.451749 1_555
Se3 Ta0 2.434180 1_555
Se4 Ta1 2.434801 1_555
Se5 Ta1 2.388579 1_555
Se6 Ta1 2.454929 1_555
Se7 Ta1 2.488813 1_555
