# generated using pymatgen
data_SrAlSi5N7O2
_symmetry_space_group_name_H-M   'P 1'
_cell_length_a   7.11004400
_cell_length_b   6.60251700
_cell_length_c   9.69953389
_cell_angle_alpha   56.90462896
_cell_angle_beta   90.00000000
_cell_angle_gamma   90.00000000
_symmetry_Int_Tables_number   1
_chemical_formula_structural   SrAlSi5N7O2
_chemical_formula_sum   'Sr2 Al2 Si10 N14 O4'
_cell_volume   381.46418661
_cell_formula_units_Z   2
loop_
 _symmetry_equiv_pos_site_id
 _symmetry_equiv_pos_as_xyz
  1  'x, y, z'
loop_
 _atom_site_type_symbol
 _atom_site_label
 _atom_site_symmetry_multiplicity
 _atom_site_fract_x
 _atom_site_fract_y
 _atom_site_fract_z
 _atom_site_occupancy
  Sr  Sr0  1  0.30484700  0.10282800  0.04806600  1
  Sr  Sr1  1  0.69515300  0.10282800  0.54806600  1
  Al  Al0  1  0.50935700  0.54187600  0.68730200  1
  Al  Al1  1  0.49064300  0.54187600  0.18730200  1
  Si  Si0  1  0.85376400  0.66793400  0.53367300  1
  Si  Si1  1  0.45641000  0.96589400  0.37020400  1
  Si  Si2  1  0.14623600  0.66793400  0.03367300  1
  Si  Si3  1  0.54359000  0.96589400  0.87020400  1
  Si  Si4  1  0.94088300  0.02760100  0.92476100  1
  Si  Si5  1  0.80761700  0.53954600  0.27437900  1
  Si  Si6  1  0.14380400  0.36484700  0.44557000  1
  Si  Si7  1  0.05911700  0.02760100  0.42476100  1
  Si  Si8  1  0.19238300  0.53954600  0.77437900  1
  Si  Si9  1  0.85619600  0.36484700  0.94557000  1
  N  N0  1  0.40044300  0.88363100  0.56903500  1
  N  N1  1  0.59955700  0.88363100  0.06903500  1
  N  N2  1  0.80199400  0.83165300  0.10668800  1
  N  N3  1  0.23961000  0.56068100  0.23707000  1
  N  N4  1  0.07254500  0.49592000  0.95088900  1
  N  N5  1  0.19800600  0.83165300  0.60668800  1
  N  N6  1  0.76039000  0.56068100  0.73707000  1
  N  N7  1  0.74988900  0.29050400  0.14203000  1
  N  N8  1  0.55131300  0.23495900  0.20063800  1
  N  N9  1  0.92745500  0.49592000  0.45088900  1
  N  N10  1  0.25011100  0.29050400  0.64203000  1
  N  N11  1  0.44868700  0.23495900  0.70063800  1
  N  N12  1  0.11277100  0.28616400  0.75895200  1
  N  N13  1  0.88722900  0.28616400  0.25895200  1
  O  O0  1  0.62254900  0.74021800  0.44430000  1
  O  O1  1  0.37745100  0.74021800  0.94430000  1
  O  O2  1  0.77076100  0.99684400  0.80644200  1
  O  O3  1  0.22923900  0.99684400  0.30644200  1
loop_
_geom_bond_atom_site_label_1
_geom_bond_atom_site_label_2
_geom_bond_distance
_geom_bond_site_symmetry_2
Al0 N6 1.870723 1_555
Al0 N11 2.005729 1_555
Al0 N0 2.044594 1_555
Al0 O0 2.132441 1_555
Al1 N3 1.870723 1_555
Al1 N8 2.005729 1_555
Al1 N1 2.044594 1_555
Al1 O1 2.132441 1_554
N0 N5 1.478503 1_555
N0 Si1 1.740344 1_555
N0 Sr1 2.491015 1_565
N1 N2 1.478503 1_555
N1 Si3 1.740344 1_554
N1 Sr0 2.491015 1_565
N2 Si5 1.714946 1_555
N2 Si4 1.808217 1_564
N3 Si2 1.818982 1_555
N3 Si6 1.835788 1_555
N4 Si9 1.779487 1_455
N4 Si8 1.789296 1_555
N4 Si2 1.790267 1_556
N5 Si8 1.714946 1_555
N5 Si7 1.808217 1_565
N6 Si0 1.818982 1_555
N6 Si9 1.835788 1_555
N7 N8 1.491106 1_555
N7 Si9 1.849857 1_554
N8 Si1 1.767910 1_545
N9 Si6 1.779487 1_655
N9 Si5 1.789296 1_555
N9 Si0 1.790267 1_555
N10 N12 1.484934 1_555
N10 N11 1.491106 1_555
N10 Si6 1.849857 1_555
N11 Si3 1.767910 1_545
N12 Si8 1.847964 1_555
N12 Si4 1.999047 1_455
N12 Sr0 2.736276 1_556
N13 N7 1.484934 1_555
N13 Si5 1.847964 1_555
N13 Si7 1.999047 1_655
N13 Sr1 2.736276 1_555
O0 Si1 1.721222 1_555
O0 Si0 1.797221 1_555
O1 Si3 1.721222 1_555
O1 Si2 1.797221 1_556
O2 Si3 1.701497 1_555
O2 Si4 1.753824 1_565
O2 Sr1 2.268077 1_565
O3 Si1 1.701497 1_555
O3 Si7 1.753824 1_565
O3 Sr0 2.268077 1_565
