# generated using pymatgen
data_Ba3CaRu2O9
_symmetry_space_group_name_H-M   'P 1'
_cell_length_a   5.97431340
_cell_length_b   5.97431340
_cell_length_c   14.91738400
_cell_angle_alpha   90.00000000
_cell_angle_beta   90.00000000
_cell_angle_gamma   119.99999334
_symmetry_Int_Tables_number   1
_chemical_formula_structural   Ba3CaRu2O9
_chemical_formula_sum   'Ba6 Ca2 Ru4 O18'
_cell_volume   461.10446978
_cell_formula_units_Z   2
loop_
 _symmetry_equiv_pos_site_id
 _symmetry_equiv_pos_as_xyz
  1  'x, y, z'
loop_
 _atom_site_type_symbol
 _atom_site_label
 _atom_site_symmetry_multiplicity
 _atom_site_fract_x
 _atom_site_fract_y
 _atom_site_fract_z
 _atom_site_occupancy
  Ba  Ba0  1  0.33333300  0.66666700  0.40059700  1
  Ba  Ba1  1  0.66666700  0.33333300  0.90059700  1
  Ba  Ba2  1  0.66666700  0.33333300  0.59940300  1
  Ba  Ba3  1  0.33333300  0.66666700  0.09940300  1
  Ba  Ba4  1  0.00000000  0.00000000  0.75000000  1
  Ba  Ba5  1  0.00000000  0.00000000  0.25000000  1
  Ca  Ca0  1  0.00000000  0.00000000  0.00000000  1
  Ca  Ca1  1  0.00000000  0.00000000  0.50000000  1
  Ru  Ru0  1  0.66666700  0.33333300  0.34267300  1
  Ru  Ru1  1  0.33333300  0.66666700  0.84267300  1
  Ru  Ru2  1  0.66666700  0.33333300  0.15732700  1
  Ru  Ru3  1  0.33333300  0.66666700  0.65732700  1
  O  O0  1  0.82389300  0.64778500  0.40939300  1
  O  O1  1  0.35221500  0.17610700  0.40939300  1
  O  O2  1  0.82389300  0.17610700  0.40939300  1
  O  O3  1  0.17610700  0.82389300  0.90939300  1
  O  O4  1  0.17610700  0.82389300  0.59060700  1
  O  O5  1  0.17610700  0.35221500  0.90939300  1
  O  O6  1  0.64778500  0.82389300  0.90939300  1
  O  O7  1  0.35221500  0.17610700  0.09060700  1
  O  O8  1  0.82389300  0.64778500  0.09060700  1
  O  O9  1  0.17610700  0.35221500  0.59060700  1
  O  O10  1  0.64778500  0.82389300  0.59060700  1
  O  O11  1  0.82389300  0.17610700  0.09060700  1
  O  O12  1  0.51602900  0.48397100  0.25000000  1
  O  O13  1  0.03205800  0.51602900  0.75000000  1
  O  O14  1  0.48397100  0.96794200  0.75000000  1
  O  O15  1  0.51602900  0.03205800  0.25000000  1
  O  O16  1  0.96794200  0.48397100  0.25000000  1
  O  O17  1  0.48397100  0.51602900  0.75000000  1
loop_
_geom_bond_atom_site_label_1
_geom_bond_atom_site_label_2
_geom_bond_distance
_geom_bond_site_symmetry_2
Ba0 O15 2.936121 1_565
Ba0 O16 2.936121 1_455
Ba0 O12 2.936125 1_555
Ba0 O1 2.991627 1_565
Ba0 O0 2.991627 1_455
Ba0 O2 2.991633 1_565
Ba0 O2 2.991633 1_455
Ba0 O0 2.991639 1_555
Ba0 O1 2.991639 1_555
Ba0 O4 3.268191 1_555
Ba0 O10 3.268191 1_555
Ba0 O9 3.268191 1_555
Ba1 O13 2.936121 1_655
Ba1 O14 2.936121 1_545
Ba1 O17 2.936125 1_555
Ba1 O5 2.991627 1_655
Ba1 O6 2.991627 1_545
Ba1 O3 2.991633 1_655
Ba1 O3 2.991633 1_545
Ba1 O6 2.991639 1_555
Ba1 O5 2.991639 1_555
Ba1 O11 3.268191 1_556
Ba1 O8 3.268191 1_556
Ba1 O7 3.268191 1_556
Ba2 O13 2.936121 1_655
Ba2 O14 2.936121 1_545
Ba2 O17 2.936125 1_555
Ba2 O9 2.991627 1_655
Ba2 O10 2.991627 1_545
Ba2 O4 2.991633 1_655
Ba2 O4 2.991633 1_545
Ba2 O10 2.991639 1_555
Ba2 O9 2.991639 1_555
Ba2 O2 3.268191 1_555
Ba2 O0 3.268191 1_555
Ba2 O1 3.268191 1_555
Ba3 O15 2.936121 1_565
Ba3 O16 2.936121 1_455
Ba3 O12 2.936125 1_555
Ba3 O7 2.991627 1_565
Ba3 O8 2.991627 1_455
Ba3 O11 2.991633 1_565
Ba3 O11 2.991633 1_455
Ba3 O8 2.991639 1_555
Ba3 O7 2.991639 1_555
Ba3 O3 3.268191 1_554
Ba3 O6 3.268191 1_554
Ba3 O5 3.268191 1_554
Ba4 O13 2.991758 1_545
Ba4 O14 2.991758 1_545
Ba4 O14 2.991758 1_445
Ba4 O13 2.991758 1_555
Ba4 O17 2.991758 1_555
Ba4 O17 2.991758 1_445
Ba4 O3 2.995737 1_545
Ba4 O4 2.995737 1_545
Ba4 O5 2.995741 1_555
Ba4 O9 2.995741 1_555
Ba4 O10 2.995741 1_445
Ba4 O6 2.995741 1_445
Ba5 O15 2.991758 1_455
Ba5 O16 2.991758 1_455
Ba5 O16 2.991758 1_445
Ba5 O15 2.991758 1_555
Ba5 O12 2.991758 1_555
Ba5 O12 2.991758 1_445
Ba5 O2 2.995737 1_455
Ba5 O11 2.995737 1_455
Ba5 O1 2.995741 1_555
Ba5 O7 2.995741 1_555
Ba5 O8 2.995741 1_445
Ba5 O0 2.995741 1_445
Ca0 O3 2.268862 1_544
Ca0 O11 2.268862 1_455
Ca0 O7 2.268866 1_555
Ca0 O5 2.268866 1_554
Ca0 O6 2.268866 1_444
Ca0 O8 2.268866 1_445
Ca1 O2 2.268862 1_455
Ca1 O4 2.268862 1_545
Ca1 O9 2.268866 1_555
Ca1 O1 2.268866 1_555
Ca1 O0 2.268866 1_445
Ca1 O10 2.268866 1_445
O0 Ru0 1.907236 1_555
O1 Ru0 1.907236 1_555
O2 Ru0 1.907236 1_555
O3 Ru1 1.907236 1_555
O4 Ru3 1.907236 1_555
O5 Ru1 1.907236 1_555
O6 Ru1 1.907236 1_555
O7 Ru2 1.907236 1_555
O8 Ru2 1.907236 1_555
O9 Ru3 1.907236 1_555
O10 Ru3 1.907236 1_555
O11 Ru2 1.907236 1_555
O12 Ru2 2.083486 1_555
O12 Ru0 2.083486 1_555
O13 Ru1 2.083482 1_555
O13 Ru3 2.083482 1_555
O14 Ru3 2.083482 1_555
O14 Ru1 2.083482 1_555
O15 Ru2 2.083482 1_555
O15 Ru0 2.083482 1_555
O16 Ru0 2.083482 1_555
O16 Ru2 2.083482 1_555
O17 Ru3 2.083486 1_555
O17 Ru1 2.083486 1_555
