# generated using pymatgen
data_La3U2O10
_symmetry_space_group_name_H-M   'P 1'
_cell_length_a   6.85099300
_cell_length_b   7.80417554
_cell_length_c   8.73028915
_cell_angle_alpha   101.67604202
_cell_angle_beta   97.78309423
_cell_angle_gamma   107.12812845
_symmetry_Int_Tables_number   1
_chemical_formula_structural   La3U2O10
_chemical_formula_sum   'La6 U4 O20'
_cell_volume   427.25367126
_cell_formula_units_Z   2
loop_
 _symmetry_equiv_pos_site_id
 _symmetry_equiv_pos_as_xyz
  1  'x, y, z'
loop_
 _atom_site_type_symbol
 _atom_site_label
 _atom_site_symmetry_multiplicity
 _atom_site_fract_x
 _atom_site_fract_y
 _atom_site_fract_z
 _atom_site_occupancy
  La  La0  1  0.60829800  0.70114000  0.70056800  1
  La  La1  1  0.39170200  0.29886000  0.29943200  1
  La  La2  1  0.19899200  0.89681700  0.89625200  1
  La  La3  1  0.00000000  0.50000000  0.50000000  1
  La  La4  1  0.80100800  0.10318300  0.10374800  1
  La  La5  1  0.00000000  0.00000000  0.50000000  1
  U  U0  1  0.40263100  0.80287300  0.30217600  1
  U  U1  1  0.19955300  0.40309400  0.90285700  1
  U  U2  1  0.80044700  0.59690600  0.09714300  1
  U  U3  1  0.59736900  0.19712700  0.69782400  1
  O  O0  1  0.44071700  0.53447100  0.13232600  1
  O  O1  1  0.55867200  0.99735400  0.83584200  1
  O  O2  1  0.27687300  0.15435300  0.74847300  1
  O  O3  1  0.36171600  0.60121400  0.43529600  1
  O  O4  1  0.05808500  0.72959400  0.32392100  1
  O  O5  1  0.44132800  0.00264600  0.16415800  1
  O  O6  1  0.15031000  0.19415100  0.02819600  1
  O  O7  1  0.55928300  0.46552900  0.86767400  1
  O  O8  1  0.85356400  0.34444800  0.94758500  1
  O  O9  1  0.25414700  0.59977700  0.76698700  1
  O  O10  1  0.95235100  0.77161800  0.65333300  1
  O  O11  1  0.36126200  0.06118500  0.45702600  1
  O  O12  1  0.63873800  0.93881500  0.54297400  1
  O  O13  1  0.04764900  0.22838200  0.34666700  1
  O  O14  1  0.74585300  0.40022300  0.23301300  1
  O  O15  1  0.14643600  0.65555200  0.05241500  1
  O  O16  1  0.84969000  0.80584900  0.97180400  1
  O  O17  1  0.94191500  0.27040600  0.67607900  1
  O  O18  1  0.63828400  0.39878600  0.56470400  1
  O  O19  1  0.72312700  0.84564700  0.25152700  1
loop_
_geom_bond_atom_site_label_1
_geom_bond_atom_site_label_2
_geom_bond_distance
_geom_bond_site_symmetry_2
La0 O10 2.370644 1_555
La0 O18 2.497122 1_555
La0 O3 2.501753 1_555
La0 O12 2.501944 1_555
La0 O9 2.507002 1_555
La0 O1 2.514153 1_555
La0 O16 2.523912 1_555
La0 O7 2.544968 1_555
La1 O13 2.370644 1_555
La1 O3 2.497122 1_555
La1 O18 2.501753 1_555
La1 O11 2.501944 1_555
La1 O14 2.507002 1_555
La1 O5 2.514153 1_555
La1 O6 2.523912 1_555
La1 O0 2.544968 1_555
La2 O10 2.350684 1_455
La2 O5 2.503536 1_566
La2 O16 2.506428 1_455
La2 O6 2.510104 1_566
La2 O15 2.511219 1_556
La2 O1 2.519233 1_555
La2 O9 2.522449 1_555
La2 O2 2.567691 1_565
La3 O13 2.401937 1_555
La3 O10 2.401937 1_455
La3 O9 2.537423 1_555
La3 O14 2.537423 1_455
La3 O3 2.547714 1_555
La3 O18 2.547714 1_455
La3 O17 2.567580 1_455
La3 O4 2.567580 1_555
La4 O13 2.350684 1_655
La4 O1 2.503536 1_544
La4 O6 2.506428 1_655
La4 O16 2.510104 1_544
La4 O8 2.511219 1_554
La4 O5 2.519233 1_555
La4 O14 2.522449 1_555
La4 O19 2.567691 1_545
La5 O10 2.411762 1_445
La5 O13 2.411762 1_555
La5 O12 2.474329 1_445
La5 O11 2.474329 1_555
La5 O19 2.497345 1_445
La5 O2 2.497345 1_555
La5 O17 2.514369 1_455
La5 O4 2.514369 1_545
O0 U1 2.251381 1_554
O0 U0 2.413300 1_555
O0 U2 2.442099 1_555
O1 U3 2.134540 1_565
O2 U3 2.240336 1_555
O2 U1 2.367615 1_555
O3 U0 2.115351 1_555
O4 U2 2.292303 1_455
O4 U0 2.303291 1_555
O5 U0 2.134540 1_545
O6 U1 2.113836 1_554
O7 U2 2.251381 1_556
O7 U3 2.413300 1_555
O7 U1 2.442099 1_555
O8 U2 2.286657 1_556
O8 U1 2.380046 1_655
O8 U3 2.432522 1_555
O9 U1 2.102843 1_555
O11 U0 2.304139 1_545
O11 U3 2.308009 1_555
O12 U3 2.304139 1_565
O12 U0 2.308009 1_555
O14 U2 2.102843 1_555
O15 U1 2.286657 1_554
O15 U2 2.380046 1_455
O15 U0 2.432522 1_555
O16 U2 2.113836 1_556
O17 U1 2.292303 1_655
O17 U3 2.303291 1_555
O18 U3 2.115351 1_555
O19 U0 2.240336 1_555
O19 U2 2.367615 1_555
