# generated using pymatgen
data_BaHBrO
_symmetry_space_group_name_H-M   'P 1'
_cell_length_a   4.41046543
_cell_length_b   7.62332357
_cell_length_c   10.50877301
_cell_angle_alpha   90.00000000
_cell_angle_beta   90.00000000
_cell_angle_gamma   90.00000000
_symmetry_Int_Tables_number   1
_chemical_formula_structural   BaHBrO
_chemical_formula_sum   'Ba4 H4 Br4 O4'
_cell_volume   353.33022290
_cell_formula_units_Z   4
loop_
 _symmetry_equiv_pos_site_id
 _symmetry_equiv_pos_as_xyz
  1  'x, y, z'
loop_
 _atom_site_type_symbol
 _atom_site_label
 _atom_site_symmetry_multiplicity
 _atom_site_fract_x
 _atom_site_fract_y
 _atom_site_fract_z
 _atom_site_occupancy
  Ba  Ba0  1  0.25000000  0.69741749  0.40786242  1
  Ba  Ba1  1  0.25000000  0.19741749  0.09213758  1
  Ba  Ba2  1  0.75000000  0.30258251  0.59213758  1
  Ba  Ba3  1  0.75000000  0.80258251  0.90786242  1
  H  H0  1  0.25000000  0.76192092  0.09826490  1
  H  H1  1  0.25000000  0.26192092  0.40173510  1
  H  H2  1  0.75000000  0.23807908  0.90173510  1
  H  H3  1  0.75000000  0.73807908  0.59826490  1
  Br  Br0  1  0.75000000  0.53568101  0.17695466  1
  Br  Br1  1  0.75000000  0.03568101  0.32304534  1
  Br  Br2  1  0.25000000  0.46431899  0.82304534  1
  Br  Br3  1  0.25000000  0.96431899  0.67695466  1
  O  O0  1  0.25000000  0.86002820  0.04000608  1
  O  O1  1  0.25000000  0.36002820  0.45999392  1
  O  O2  1  0.75000000  0.13997180  0.95999392  1
  O  O3  1  0.75000000  0.63997180  0.54000608  1
loop_
_geom_bond_atom_site_label_1
_geom_bond_atom_site_label_2
_geom_bond_distance
_geom_bond_site_symmetry_2
Ba0 O1 2.629725 1_555
Ba0 O3 2.642580 1_455
Ba0 O3 2.642580 1_555
Ba0 Br3 3.483752 1_555
Ba0 Br0 3.503062 1_455
Ba0 Br0 3.503062 1_555
Ba0 Br1 3.508157 1_565
Ba0 Br1 3.508157 1_465
Ba1 O0 2.629725 1_545
Ba1 O2 2.642580 1_454
Ba1 O2 2.642580 1_554
Ba1 Br2 3.483752 1_554
Ba1 Br1 3.503062 1_455
Ba1 Br1 3.503062 1_555
Ba1 Br0 3.508157 1_455
Ba1 Br0 3.508157 1_555
Ba2 O3 2.629725 1_555
Ba2 O1 2.642580 1_655
Ba2 O1 2.642580 1_555
Ba2 Br1 3.483752 1_555
Ba2 Br2 3.503062 1_555
Ba2 Br2 3.503062 1_655
Ba2 Br3 3.508157 1_545
Ba2 Br3 3.508157 1_645
Ba3 O2 2.629725 1_565
Ba3 O0 2.642580 1_656
Ba3 O0 2.642580 1_556
Ba3 Br0 3.483752 1_556
Ba3 Br3 3.503062 1_655
Ba3 Br3 3.503062 1_555
Ba3 Br2 3.508157 1_555
Ba3 Br2 3.508157 1_655
H0 O0 0.966532 1_555
H1 O1 0.966532 1_555
H2 O2 0.966532 1_555
H3 O3 0.966532 1_555
