# generated using pymatgen
data_K4Mn2H16S4O23
_symmetry_space_group_name_H-M   'P 1'
_cell_length_a   7.95087600
_cell_length_b   8.10461918
_cell_length_c   9.75678195
_cell_angle_alpha   86.27124951
_cell_angle_beta   86.59821961
_cell_angle_gamma   80.79851854
_symmetry_Int_Tables_number   1
_chemical_formula_structural   K4Mn2H16S4O23
_chemical_formula_sum   'K4 Mn2 H16 S4 O23'
_cell_volume   618.54673853
_cell_formula_units_Z   1
loop_
 _symmetry_equiv_pos_site_id
 _symmetry_equiv_pos_as_xyz
  1  'x, y, z'
loop_
 _atom_site_type_symbol
 _atom_site_label
 _atom_site_symmetry_multiplicity
 _atom_site_fract_x
 _atom_site_fract_y
 _atom_site_fract_z
 _atom_site_occupancy
  K  K0  1  0.39251500  0.90902300  0.74963900  1
  K  K1  1  0.90990100  0.41975200  0.72714500  1
  K  K2  1  0.08839600  0.59198100  0.25613900  1
  K  K3  1  0.58171300  0.10039000  0.22849200  1
  Mn  Mn0  1  0.99698700  0.00156800  0.99269500  1
  Mn  Mn1  1  0.50587200  0.50452100  0.50053200  1
  H  H0  1  0.97155600  0.90599300  0.69924400  1
  H  H1  1  0.92113700  0.92208800  0.28422400  1
  H  H2  1  0.33758800  0.82901700  0.38049000  1
  H  H3  1  0.44010100  0.73688600  0.25896500  1
  H  H4  1  0.34468000  0.76666900  0.03258700  1
  H  H5  1  0.22877200  0.65410600  0.96560000  1
  H  H6  1  0.16722500  0.66431000  0.62127700  1
  H  H7  1  0.26553800  0.55839100  0.73961900  1
  H  H8  1  0.73144100  0.43597100  0.25777100  1
  H  H9  1  0.82639500  0.33531800  0.37865900  1
  H  H10  1  0.77471700  0.34806900  0.02882500  1
  H  H11  1  0.65798700  0.23970800  0.95749400  1
  H  H12  1  0.55723700  0.25598100  0.74279500  1
  H  H13  1  0.66102800  0.18208500  0.61303400  1
  H  H14  1  0.06463100  0.07001300  0.70689000  1
  H  H15  1  0.05889700  0.04389000  0.30038700  1
  S  S0  1  0.73987000  0.76724800  0.61052700  1
  S  S1  1  0.73256300  0.73867000  0.11433400  1
  S  S2  1  0.26161100  0.26222800  0.88843800  1
  S  S3  1  0.24356800  0.24541300  0.39380200  1
  O  O0  1  0.99625700  0.99607000  0.76022000  1
  O  O1  1  0.82847800  0.83124800  0.00784700  1
  O  O2  1  0.77138800  0.78478800  0.25344000  1
  O  O3  1  0.93792300  0.75666400  0.60202500  1
  O  O4  1  0.54485200  0.78814800  0.09788500  1
  O  O5  1  0.68882000  0.71786100  0.75760700  1
  O  O6  1  0.22896200  0.76621800  0.99941800  1
  O  O7  1  0.71078900  0.61741900  0.52728400  1
  O  O8  1  0.37181300  0.71610000  0.34579300  1
  O  O9  1  0.28380700  0.63057400  0.65550700  1
  O  O10  1  0.78531100  0.55442000  0.10331000  1
  O  O11  1  0.21274300  0.44596400  0.90466100  1
  O  O12  1  0.71253700  0.35952800  0.33931000  1
  O  O13  1  0.63117300  0.28516400  0.66139200  1
  O  O14  1  0.77220800  0.23685100  0.99429700  1
  O  O15  1  0.34643500  0.33422900  0.47970100  1
  O  O16  1  0.28163300  0.29284700  0.24715100  1
  O  O17  1  0.45062500  0.20933300  0.90073600  1
  O  O18  1  0.05852500  0.29694400  0.43128600  1
  O  O19  1  0.21565000  0.22228500  0.75063300  1
  O  O20  1  0.17014100  0.16622700  0.99633300  1
  O  O21  1  0.29343400  0.06043100  0.42129500  1
  O  O22  1  0.99377300  0.99599600  0.23457000  1
loop_
_geom_bond_atom_site_label_1
_geom_bond_atom_site_label_2
_geom_bond_distance
_geom_bond_site_symmetry_2
K0 O5 2.606782 1_555
K0 O19 2.698743 1_565
K0 O9 2.769649 1_555
K1 O19 2.701403 1_655
K1 O13 2.746899 1_555
K1 O5 2.772846 1_555
K1 O7 2.832692 1_555
K1 O3 2.953728 1_555
K1 O11 3.090154 1_655
K1 O14 3.141300 1_555
K1 O18 3.211295 1_655
K2 O16 2.658233 1_555
K2 O2 2.745594 1_455
K2 O8 2.815718 1_555
K2 O18 2.880328 1_555
K2 O10 2.973766 1_455
K2 O6 3.038013 1_554
K3 O16 2.637007 1_555
K3 O2 2.757717 1_545
K3 O12 2.790945 1_555
K3 O14 2.921415 1_554
K3 O21 2.922946 1_555
K3 O4 2.968946 1_545
Mn0 O1 2.064890 1_546
Mn0 O20 2.068104 1_655
Mn0 O0 2.271910 1_545
Mn0 O22 2.356114 1_546
Mn0 O14 2.396066 1_555
Mn0 O6 2.432561 1_645
Mn1 O7 2.029326 1_555
Mn1 O15 2.044430 1_555
Mn1 O8 2.371837 1_555
Mn1 O9 2.398877 1_555
Mn1 O12 2.423096 1_555
Mn1 O13 2.423340 1_555
H0 O0 1.020627 1_555
H0 O3 1.648903 1_555
H1 O22 0.983217 1_555
H1 K2 2.813462 1_655
H1 K3 2.914055 1_565
H2 O8 0.987861 1_555
H3 O8 0.998479 1_555
H4 O6 0.993891 1_554
H5 O6 0.986896 1_555
H5 K2 3.025475 1_556
H6 O9 0.994637 1_555
H7 O9 0.993687 1_555
H8 O12 0.995399 1_555
H9 O12 0.989975 1_555
H10 O14 0.986112 1_554
H11 O14 0.992530 1_555
H11 K3 2.876486 1_556
H12 O13 0.998470 1_555
H13 O13 0.975415 1_555
H14 O0 0.977487 1_445
H14 K1 2.918171 1_455
H15 O22 0.983520 1_445
O1 S1 1.487134 1_555
O2 S1 1.493205 1_555
O3 S0 1.560810 1_555
O4 S1 1.497554 1_555
O5 S0 1.514063 1_555
O7 S0 1.558205 1_555
O10 S1 1.494182 1_555
O11 S2 1.493917 1_555
O15 S3 1.495853 1_555
O16 S3 1.483566 1_555
O17 S2 1.505102 1_555
O18 S3 1.494076 1_555
O19 S2 1.482855 1_555
O20 S2 1.491996 1_555
O21 S3 1.498997 1_555
