# generated using pymatgen
data_Rb2Gd4Cu4S9
_symmetry_space_group_name_H-M   'P 1'
_cell_length_a   4.00114700
_cell_length_b   7.27086280
_cell_length_c   15.51144010
_cell_angle_alpha   93.98231963
_cell_angle_beta   97.38908207
_cell_angle_gamma   105.88840718
_symmetry_Int_Tables_number   1
_chemical_formula_structural   Rb2Gd4Cu4S9
_chemical_formula_sum   'Rb2 Gd4 Cu4 S9'
_cell_volume   427.81309792
_cell_formula_units_Z   1
loop_
 _symmetry_equiv_pos_site_id
 _symmetry_equiv_pos_as_xyz
  1  'x, y, z'
loop_
 _atom_site_type_symbol
 _atom_site_label
 _atom_site_symmetry_multiplicity
 _atom_site_fract_x
 _atom_site_fract_y
 _atom_site_fract_z
 _atom_site_occupancy
  Rb  Rb0  1  0.25213300  0.28550700  0.23100700  1
  Rb  Rb1  1  0.74786700  0.71449300  0.76899300  1
  Gd  Gd0  1  0.60169000  0.25477500  0.94688800  1
  Gd  Gd1  1  0.37441500  0.14022300  0.60398700  1
  Gd  Gd2  1  0.62558500  0.85977700  0.39601300  1
  Gd  Gd3  1  0.39831000  0.74522500  0.05311200  1
  Cu  Cu0  1  0.11394700  0.67402300  0.54067400  1
  Cu  Cu1  1  0.02195800  0.26622400  0.77326400  1
  Cu  Cu2  1  0.97804200  0.73377600  0.22673600  1
  Cu  Cu3  1  0.88605300  0.32597700  0.45932600  1
  S  S0  1  0.01812400  0.40879900  0.62470900  1
  S  S1  1  0.98187600  0.59120100  0.37529100  1
  S  S2  1  0.19782000  0.49283300  0.89915700  1
  S  S3  1  0.80218000  0.50716700  0.10084300  1
  S  S4  1  0.43790300  0.09481200  0.77744700  1
  S  S5  1  0.56209700  0.90518800  0.22255300  1
  S  S6  1  0.00000000  0.00000000  0.00000000  1
  S  S7  1  0.71642300  0.84958100  0.57416900  1
  S  S8  1  0.28357700  0.15041900  0.42583100  1
loop_
_geom_bond_atom_site_label_1
_geom_bond_atom_site_label_2
_geom_bond_distance
_geom_bond_site_symmetry_2
Rb0 S8 3.239628 1_555
Rb0 S5 3.311021 1_445
Rb0 S3 3.319759 1_455
Rb0 S5 3.327330 1_545
Rb0 S3 3.342210 1_555
Rb0 S1 3.516516 1_455
Rb0 S1 3.542501 1_555
Rb1 S7 3.239628 1_555
Rb1 S4 3.311021 1_665
Rb1 S2 3.319759 1_655
Rb1 S4 3.327330 1_565
Rb1 S2 3.342210 1_555
Rb1 S0 3.516516 1_655
Rb1 S0 3.542501 1_555
Gd0 S4 2.721227 1_555
Gd0 S2 2.749021 1_555
Gd0 S2 2.757728 1_655
Gd0 S3 2.794015 1_556
Gd0 S6 2.853207 1_656
Gd0 S6 2.861185 1_556
Gd1 S4 2.721483 1_555
Gd1 S0 2.737939 1_655
Gd1 S0 2.739311 1_555
Gd1 S8 2.749391 1_555
Gd1 S7 2.848805 1_445
Gd1 S7 2.857021 1_545
Gd2 S5 2.721483 1_555
Gd2 S1 2.737939 1_455
Gd2 S1 2.739311 1_555
Gd2 S7 2.749391 1_555
Gd2 S8 2.848805 1_665
Gd2 S8 2.857021 1_565
Gd3 S5 2.721227 1_555
Gd3 S3 2.749021 1_555
Gd3 S3 2.757728 1_455
Gd3 S2 2.794015 1_554
Gd3 S6 2.853207 1_565
Gd3 S6 2.861185 1_665
Cu0 S7 2.368804 1_555
Cu0 S0 2.374394 1_555
Cu0 S7 2.379330 1_455
Cu0 S1 2.546625 1_455
Cu1 S4 2.333751 1_555
Cu1 S4 2.339683 1_455
Cu1 S2 2.363914 1_555
Cu1 S0 2.591539 1_555
Cu2 S5 2.333751 1_555
Cu2 S5 2.339683 1_655
Cu2 S3 2.363914 1_555
Cu2 S1 2.591539 1_555
Cu3 S8 2.368804 1_555
Cu3 S1 2.374394 1_555
Cu3 S8 2.379330 1_655
Cu3 S0 2.546625 1_655
