# generated using pymatgen
data_CsHO
_symmetry_space_group_name_H-M   'P 1'
_cell_length_a   6.08784280
_cell_length_b   6.08784280
_cell_length_c   4.50427281
_cell_angle_alpha   90.00000000
_cell_angle_beta   90.00000000
_cell_angle_gamma   41.58606721
_symmetry_Int_Tables_number   1
_chemical_formula_structural   CsHO
_chemical_formula_sum   'Cs2 H2 O2'
_cell_volume   110.80322011
_cell_formula_units_Z   2
loop_
 _symmetry_equiv_pos_site_id
 _symmetry_equiv_pos_as_xyz
  1  'x, y, z'
loop_
 _atom_site_type_symbol
 _atom_site_label
 _atom_site_symmetry_multiplicity
 _atom_site_fract_x
 _atom_site_fract_y
 _atom_site_fract_z
 _atom_site_occupancy
  Cs  Cs0  1  0.13837108  0.13837108  0.26331059  1
  Cs  Cs1  1  0.86162892  0.86162892  0.76331059  1
  H  H0  1  0.46698733  0.46698733  0.39239730  1
  H  H1  1  0.53301267  0.53301267  0.89239730  1
  O  O0  1  0.40834096  0.40834096  0.23457711  1
  O  O1  1  0.59165904  0.59165904  0.73457711  1
loop_
_geom_bond_atom_site_label_1
_geom_bond_atom_site_label_2
_geom_bond_distance
_geom_bond_site_symmetry_2
Cs0 H0 2.968881 1_455
Cs0 H0 2.968881 1_545
Cs0 H1 2.983284 1_454
Cs0 H1 2.983284 1_544
Cs0 O1 3.075575 1_545
Cs0 O1 3.075575 1_455
Cs0 O0 3.075702 1_555
Cs0 O1 3.259614 1_544
Cs0 O1 3.259614 1_454
Cs1 H1 2.968881 1_565
Cs1 H1 2.968881 1_655
Cs1 H0 2.983284 1_655
Cs1 H0 2.983284 1_565
Cs1 O0 3.075575 1_656
Cs1 O0 3.075575 1_566
Cs1 O1 3.075702 1_555
Cs1 O0 3.259614 1_565
Cs1 O0 3.259614 1_655
H0 O0 0.975169 1_555
H1 O1 0.975169 1_555
