# generated using pymatgen
data_La5Mn5O18
_symmetry_space_group_name_H-M   'P 1'
_cell_length_a   5.40968600
_cell_length_b   5.48369923
_cell_length_c   12.22296883
_cell_angle_alpha   102.95497498
_cell_angle_beta   101.78721976
_cell_angle_gamma   90.01659203
_symmetry_Int_Tables_number   1
_chemical_formula_structural   La5Mn5O18
_chemical_formula_sum   'La5 Mn5 O18'
_cell_volume   345.51087208
_cell_formula_units_Z   1
loop_
 _symmetry_equiv_pos_site_id
 _symmetry_equiv_pos_as_xyz
  1  'x, y, z'
loop_
 _atom_site_type_symbol
 _atom_site_label
 _atom_site_symmetry_multiplicity
 _atom_site_fract_x
 _atom_site_fract_y
 _atom_site_fract_z
 _atom_site_occupancy
  La  La0  1  0.92358700  0.42647600  0.84391500  1
  La  La1  1  0.41947600  0.92337800  0.83864000  1
  La  La2  1  0.57835700  0.07852600  0.15527100  1
  La  La3  1  0.07966400  0.58127800  0.16190100  1
  La  La4  1  0.75048300  0.24949900  0.49986000  1
  Mn  Mn0  1  0.66683100  0.67512400  0.33915100  1
  Mn  Mn1  1  0.33160100  0.32776600  0.66047600  1
  Mn  Mn2  1  0.83325600  0.82708400  0.66285000  1
  Mn  Mn3  1  0.50050100  0.50199600  0.00021700  1
  Mn  Mn4  1  0.16966600  0.17625400  0.33752400  1
  O  O0  1  0.39017300  0.88751400  0.30572500  1
  O  O1  1  0.87703300  0.93237700  0.31135900  1
  O  O2  1  0.03971700  0.53498300  0.65633400  1
  O  O3  1  0.74671800  0.80690700  0.49719400  1
  O  O4  1  0.90526600  0.86856600  0.82065800  1
  O  O5  1  0.55801900  0.59008100  0.65252800  1
  O  O6  1  0.77485200  0.72473000  0.01565300  1
  O  O7  1  0.70987600  0.22766000  0.98284700  1
  O  O8  1  0.41802300  0.46990200  0.83315600  1
  O  O9  1  0.58521800  0.53498100  0.16723300  1
  O  O10  1  0.28350500  0.76793100  0.01316700  1
  O  O11  1  0.23059700  0.27427900  0.98862800  1
  O  O12  1  0.46259400  0.38368900  0.34397900  1
  O  O13  1  0.09230000  0.13807900  0.17944200  1
  O  O14  1  0.25239300  0.19632900  0.50263800  1
  O  O15  1  0.93680500  0.43822000  0.34713400  1
  O  O16  1  0.11205500  0.08380500  0.69441900  1
  O  O17  1  0.62143500  0.12258500  0.68810300  1
loop_
_geom_bond_atom_site_label_1
_geom_bond_atom_site_label_2
_geom_bond_distance
_geom_bond_site_symmetry_2
La0 O11 2.458890 1_655
La0 O4 2.503084 1_555
La0 O17 2.525758 1_555
La0 O6 2.623022 1_556
La0 O7 2.653389 1_555
La0 O16 2.670617 1_655
La0 O2 2.684324 1_655
La0 O8 2.717653 1_655
La0 O8 2.724223 1_555
La0 O10 2.862201 1_656
La0 O4 3.008154 1_545
La0 O5 3.039769 1_555
La1 O7 2.430535 1_565
La1 O8 2.472528 1_555
La1 O16 2.479034 1_565
La1 O4 2.692900 1_555
La1 O10 2.697113 1_556
La1 O11 2.700450 1_565
La1 O17 2.737596 1_565
La1 O4 2.756210 1_455
La1 O5 2.812517 1_555
La1 O6 2.987036 1_556
La1 O8 3.012686 1_565
La1 O2 3.117904 1_555
La2 O10 2.449927 1_545
La2 O9 2.474209 1_555
La2 O1 2.513913 1_545
La2 O7 2.646085 1_554
La2 O6 2.657831 1_545
La2 O0 2.672703 1_545
La2 O12 2.715308 1_555
La2 O13 2.717054 1_555
La2 O13 2.746718 1_655
La2 O11 2.873379 1_554
La2 O9 3.016654 1_545
La2 O15 3.035820 1_555
La3 O6 2.441363 1_455
La3 O13 2.486983 1_555
La3 O0 2.490047 1_555
La3 O11 2.663644 1_554
La3 O10 2.687257 1_555
La3 O9 2.702127 1_455
La3 O9 2.735565 1_555
La3 O1 2.736433 1_455
La3 O15 2.801732 1_455
La3 O7 2.976246 1_454
La3 O13 3.012280 1_565
La3 O12 3.101163 1_555
La4 O3 2.419968 1_545
La4 O2 2.447532 1_655
La4 O12 2.452387 1_555
La4 O15 2.684417 1_555
La4 O5 2.699367 1_555
La4 O14 2.718072 1_555
La4 O14 2.724991 1_655
La4 O17 2.764011 1_555
La4 O1 2.765868 1_545
La4 O0 3.060456 1_545
La4 O16 3.062065 1_655
La4 O3 3.064157 1_555
Mn0 O3 1.863731 1_555
Mn0 O0 1.930769 1_555
Mn0 O1 1.941720 1_555
Mn0 O15 1.957015 1_555
Mn0 O12 1.961161 1_555
Mn0 O9 2.024322 1_555
Mn1 O14 1.861105 1_555
Mn1 O5 1.920704 1_555
Mn1 O2 1.944529 1_555
Mn1 O17 1.947666 1_555
Mn1 O16 1.954914 1_555
Mn1 O8 2.034698 1_555
Mn2 O4 1.849408 1_555
Mn2 O5 1.941800 1_555
Mn2 O2 1.949284 1_655
Mn2 O3 1.960484 1_555
Mn2 O16 1.980630 1_665
Mn2 O17 1.988835 1_565
Mn3 O10 1.871662 1_555
Mn3 O6 1.873863 1_555
Mn3 O11 1.883191 1_554
Mn3 O7 1.883389 1_554
Mn3 O9 1.965286 1_555
Mn3 O8 1.966298 1_554
Mn4 O13 1.854912 1_555
Mn4 O15 1.910537 1_455
Mn4 O12 1.928446 1_555
Mn4 O14 1.953667 1_555
Mn4 O0 1.998910 1_545
Mn4 O1 1.999249 1_445
