# generated using pymatgen
data_Ba2Dy(CuO2)4
_symmetry_space_group_name_H-M   'P 1'
_cell_length_a   13.87885898
_cell_length_b   13.87885898
_cell_length_c   3.88624600
_cell_angle_alpha   90.00000000
_cell_angle_beta   90.00000000
_cell_angle_gamma   163.85660266
_symmetry_Int_Tables_number   1
_chemical_formula_structural   Ba2Dy(CuO2)4
_chemical_formula_sum   'Ba2 Dy1 Cu4 O8'
_cell_volume   208.13670533
_cell_formula_units_Z   1
loop_
 _symmetry_equiv_pos_site_id
 _symmetry_equiv_pos_as_xyz
  1  'x, y, z'
loop_
 _atom_site_type_symbol
 _atom_site_label
 _atom_site_symmetry_multiplicity
 _atom_site_fract_x
 _atom_site_fract_y
 _atom_site_fract_z
 _atom_site_occupancy
  Ba  Ba0  1  0.63564400  0.36435600  0.50000000  1
  Ba  Ba1  1  0.36435600  0.63564400  0.50000000  1
  Dy  Dy0  1  0.50000000  0.50000000  0.50000000  1
  Cu  Cu0  1  0.06124300  0.93875700  0.00000000  1
  Cu  Cu1  1  0.93875700  0.06124300  0.00000000  1
  Cu  Cu2  1  0.21262900  0.78737100  0.00000000  1
  Cu  Cu3  1  0.78737100  0.21262900  0.00000000  1
  O  O0  1  0.71846200  0.28153800  0.00000000  1
  O  O1  1  0.28153800  0.71846200  0.00000000  1
  O  O2  1  0.55187100  0.44812900  0.00000000  1
  O  O3  1  0.44812900  0.55187100  0.00000000  1
  O  O4  1  0.05203500  0.94796500  0.50000000  1
  O  O5  1  0.94796500  0.05203500  0.50000000  1
  O  O6  1  0.14532600  0.85467400  0.00000000  1
  O  O7  1  0.85467400  0.14532600  0.00000000  1
loop_
_geom_bond_atom_site_label_1
_geom_bond_atom_site_label_2
_geom_bond_distance
_geom_bond_site_symmetry_2
Ba0 O6 2.764814 1_655
Ba0 O6 2.764814 1_656
Ba0 O6 2.764814 1_546
Ba0 O6 2.764814 1_545
Ba0 O0 2.992690 1_555
Ba0 O0 2.992690 1_556
Ba0 O2 3.012700 1_555
Ba0 O2 3.012700 1_556
Ba0 O4 3.012900 1_545
Ba0 O4 3.012900 1_655
Ba1 O7 2.764814 1_566
Ba1 O7 2.764814 1_565
Ba1 O7 2.764814 1_455
Ba1 O7 2.764814 1_456
Ba1 O1 2.992690 1_555
Ba1 O1 2.992690 1_556
Ba1 O3 3.012700 1_556
Ba1 O3 3.012700 1_555
Ba1 O5 3.012900 1_455
Ba1 O5 3.012900 1_565
Dy0 O2 2.409966 1_556
Dy0 O3 2.409966 1_556
Dy0 O3 2.409966 1_555
Dy0 O2 2.409966 1_555
Dy0 O5 2.417178 1_455
Dy0 O4 2.417178 1_545
Dy0 O5 2.417178 1_565
Dy0 O4 2.417178 1_655
Cu0 O4 1.959532 1_554
Cu0 O4 1.959532 1_555
Cu0 O2 1.965709 1_455
Cu0 O2 1.965709 1_565
Cu0 O6 2.310830 1_555
Cu1 O5 1.959532 1_555
Cu1 O5 1.959532 1_554
Cu1 O3 1.965709 1_545
Cu1 O3 1.965709 1_655
Cu1 O7 2.310830 1_555
Cu2 O6 1.849670 1_555
Cu2 O1 1.893807 1_555
Cu2 O0 1.955343 1_455
Cu2 O0 1.955343 1_565
Cu3 O7 1.849670 1_555
Cu3 O0 1.893807 1_555
Cu3 O1 1.955343 1_545
Cu3 O1 1.955343 1_655
