# generated using pymatgen
data_Co(Bi3O5)4
_symmetry_space_group_name_H-M   'P 1'
_cell_length_a   8.78629267
_cell_length_b   8.78625607
_cell_length_c   8.78630516
_cell_angle_alpha   109.47125727
_cell_angle_beta   109.47136900
_cell_angle_gamma   109.47120290
_symmetry_Int_Tables_number   1
_chemical_formula_structural   Co(Bi3O5)4
_chemical_formula_sum   'Co1 Bi12 O20'
_cell_volume   522.14727703
_cell_formula_units_Z   1
loop_
 _symmetry_equiv_pos_site_id
 _symmetry_equiv_pos_as_xyz
  1  'x, y, z'
loop_
 _atom_site_type_symbol
 _atom_site_label
 _atom_site_symmetry_multiplicity
 _atom_site_fract_x
 _atom_site_fract_y
 _atom_site_fract_z
 _atom_site_occupancy
  Co  Co0  1  0.00000910  0.99999509  0.00002023  1
  Bi  Bi0  1  0.85738359  0.69626340  0.19115914  1
  Bi  Bi1  1  0.33377886  0.83888361  0.14261969  1
  Bi  Bi2  1  0.49489674  0.30373787  0.16112283  1
  Bi  Bi3  1  0.83887900  0.14261522  0.33377814  1
  Bi  Bi4  1  0.66622705  0.80883958  0.50510393  1
  Bi  Bi5  1  0.16112133  0.49489299  0.30373430  1
  Bi  Bi6  1  0.80884256  0.50510746  0.66622879  1
  Bi  Bi7  1  0.30373836  0.16111688  0.49489413  1
  Bi  Bi8  1  0.19116250  0.85738528  0.69626192  1
  Bi  Bi9  1  0.50510520  0.66622831  0.80884144  1
  Bi  Bi10  1  0.69626415  0.19115959  0.85738781  1
  Bi  Bi11  1  0.14261698  0.33377440  0.83888141  1
  O  O0  1  -0.00000023  0.00000124  0.39325421  1
  O  O1  1  0.12072653  0.74112150  0.35695427  1
  O  O2  1  0.62039734  0.87927482  0.23622686  1
  O  O3  1  0.25887851  0.37960793  0.61583276  1
  O  O4  1  0.99999777  0.00000163  0.79450620  1
  O  O5  1  0.87927490  0.23623098  0.62039620  1
  O  O6  1  0.35695419  0.12072639  0.74112191  1
  O  O7  1  0.76377249  0.64304557  0.38416959  1
  O  O8  1  0.99999022  0.79450669  0.99999067  1
  O  O9  1  0.20547884  0.20548878  0.20547801  1
  O  O10  1  0.79450685  0.99999887  0.99999779  1
  O  O11  1  -0.00000139  0.39325709  -0.00000208  1
  O  O12  1  0.60674163  0.60674334  0.60674181  1
  O  O13  1  0.39325494  -0.00000056  -0.00000089  1
  O  O14  1  0.23622744  0.62039352  0.87927159  1
  O  O15  1  0.37960644  0.61583208  0.25887522  1
  O  O16  1  0.38416932  0.76377322  0.64304489  1
  O  O17  1  0.64304457  0.38416816  0.76377445  1
  O  O18  1  0.74112408  0.35695456  0.12072800  1
  O  O19  1  0.61583013  0.25887452  0.37960578  1
loop_
_geom_bond_atom_site_label_1
_geom_bond_atom_site_label_2
_geom_bond_distance
_geom_bond_site_symmetry_2
Co0 O8 1.805332 1_454
Co0 O9 1.805346 1_565
Co0 O10 1.805548 1_454
Co0 O4 1.805695 1_464
Bi0 O1 2.096019 1_655
Bi0 O7 2.230061 1_555
Bi0 O0 2.230090 1_665
Bi0 O18 2.575404 1_555
Bi0 O8 2.604794 1_554
Bi1 O14 2.096058 1_554
Bi1 O2 2.230039 1_555
Bi1 O13 2.230089 1_565
Bi1 O15 2.575406 1_555
Bi1 O8 2.604862 1_454
Bi2 O19 2.096029 1_555
Bi2 O18 2.230060 1_555
Bi2 O13 2.230098 1_555
Bi2 O7 2.575392 1_555
Bi2 O9 2.604802 1_555
Bi3 O2 2.095979 1_545
Bi3 O5 2.230020 1_555
Bi3 O0 2.230069 1_655
Bi3 O19 2.575408 1_555
Bi3 O10 2.604809 1_544
Bi4 O7 2.095986 1_555
Bi4 O15 2.230047 1_555
Bi4 O12 2.230080 1_555
Bi4 O2 2.575433 1_555
Bi4 O4 2.604733 1_565
Bi5 O15 2.096035 1_555
Bi5 O1 2.230057 1_555
Bi5 O11 2.230104 1_555
Bi5 O16 2.575425 1_555
Bi5 O9 2.604696 1_555
Bi6 O17 2.096033 1_555
Bi6 O19 2.230073 1_555
Bi6 O12 2.230104 1_555
Bi6 O5 2.575401 1_555
Bi6 O8 2.604683 1_555
Bi7 O3 2.096074 1_555
Bi7 O6 2.230042 1_555
Bi7 O0 2.230104 1_555
Bi7 O17 2.575404 1_555
Bi7 O9 2.604878 1_555
Bi8 O6 2.095986 1_565
Bi8 O16 2.230029 1_555
Bi8 O13 2.230092 1_566
Bi8 O1 2.575395 1_555
Bi8 O4 2.604812 1_465
Bi9 O16 2.096002 1_555
Bi9 O3 2.230036 1_555
Bi9 O12 2.230103 1_555
Bi9 O14 2.575411 1_555
Bi9 O10 2.604727 1_555
Bi10 O18 2.095994 1_556
Bi10 O17 2.230052 1_555
Bi10 O11 2.230084 1_656
Bi10 O6 2.575415 1_555
Bi10 O10 2.604737 1_545
Bi11 O5 2.096025 1_455
Bi11 O14 2.230037 1_555
Bi11 O11 2.230094 1_556
Bi11 O3 2.575439 1_555
Bi11 O4 2.604726 1_455
