# generated using pymatgen
data_SiO2
_symmetry_space_group_name_H-M   'P 1'
_cell_length_a   8.65590992
_cell_length_b   8.65590992
_cell_length_c   28.31547500
_cell_angle_alpha   90.00000000
_cell_angle_beta   90.00000000
_cell_angle_gamma   109.77177240
_symmetry_Int_Tables_number   1
_chemical_formula_structural   SiO2
_chemical_formula_sum   'Si32 O64'
_cell_volume   1996.46118667
_cell_formula_units_Z   32
loop_
 _symmetry_equiv_pos_site_id
 _symmetry_equiv_pos_as_xyz
  1  'x, y, z'
loop_
 _atom_site_type_symbol
 _atom_site_label
 _atom_site_symmetry_multiplicity
 _atom_site_fract_x
 _atom_site_fract_y
 _atom_site_fract_z
 _atom_site_occupancy
  Si  Si0  1  0.97595600  0.71088000  0.63383800  1
  Si  Si1  1  0.71088000  0.97595600  0.36616200  1
  Si  Si2  1  0.28912000  0.02404400  0.86616200  1
  Si  Si3  1  0.02404400  0.28912000  0.13383800  1
  Si  Si4  1  0.02404400  0.28912000  0.36616200  1
  Si  Si5  1  0.28912000  0.02404400  0.63383800  1
  Si  Si6  1  0.71088000  0.97595600  0.13383800  1
  Si  Si7  1  0.97595600  0.71088000  0.86616200  1
  Si  Si8  1  0.34836300  0.33875000  0.69530200  1
  Si  Si9  1  0.33875000  0.34836300  0.30469800  1
  Si  Si10  1  0.66125000  0.65163700  0.80469800  1
  Si  Si11  1  0.65163700  0.66125000  0.19530200  1
  Si  Si12  1  0.65163700  0.66125000  0.30469800  1
  Si  Si13  1  0.66125000  0.65163700  0.69530200  1
  Si  Si14  1  0.33875000  0.34836300  0.19530200  1
  Si  Si15  1  0.34836300  0.33875000  0.80469800  1
  Si  Si16  1  0.13510900  0.17869000  0.55403200  1
  Si  Si17  1  0.17869000  0.13510900  0.44596800  1
  Si  Si18  1  0.82131000  0.86489100  0.94596800  1
  Si  Si19  1  0.86489100  0.82131000  0.05403200  1
  Si  Si20  1  0.86489100  0.82131000  0.44596800  1
  Si  Si21  1  0.82131000  0.86489100  0.55403200  1
  Si  Si22  1  0.17869000  0.13510900  0.05403200  1
  Si  Si23  1  0.13510900  0.17869000  0.94596800  1
  Si  Si24  1  0.50749900  0.80661800  0.61603200  1
  Si  Si25  1  0.80661800  0.50749900  0.38396800  1
  Si  Si26  1  0.19338200  0.49250100  0.88396800  1
  Si  Si27  1  0.49250100  0.19338200  0.11603200  1
  Si  Si28  1  0.49250100  0.19338200  0.38396800  1
  Si  Si29  1  0.19338200  0.49250100  0.61603200  1
  Si  Si30  1  0.80661800  0.50749900  0.11603200  1
  Si  Si31  1  0.50749900  0.80661800  0.88396800  1
  O  O0  1  0.89453300  0.74791500  0.58530200  1
  O  O1  1  0.74791500  0.89453300  0.41469800  1
  O  O2  1  0.25208500  0.10546700  0.91469800  1
  O  O3  1  0.10546700  0.25208500  0.08530200  1
  O  O4  1  0.10546700  0.25208500  0.41469800  1
  O  O5  1  0.25208500  0.10546700  0.58530200  1
  O  O6  1  0.74791500  0.89453300  0.08530200  1
  O  O7  1  0.89453300  0.74791500  0.91469800  1
  O  O8  1  0.04191300  0.55915500  0.62478700  1
  O  O9  1  0.55915500  0.04191300  0.37521300  1
  O  O10  1  0.44084500  0.95808700  0.87521300  1
  O  O11  1  0.95808700  0.44084500  0.12478700  1
  O  O12  1  0.95808700  0.44084500  0.37521300  1
  O  O13  1  0.44084500  0.95808700  0.62478700  1
  O  O14  1  0.55915500  0.04191300  0.12478700  1
  O  O15  1  0.04191300  0.55915500  0.87521300  1
  O  O16  1  0.12683900  0.87316100  0.65020500  1
  O  O17  1  0.87316100  0.12683900  0.34979500  1
  O  O18  1  0.12683900  0.87316100  0.84979500  1
  O  O19  1  0.87316100  0.12683900  0.15020500  1
  O  O20  1  0.84007600  0.66136300  0.67568500  1
  O  O21  1  0.66136300  0.84007600  0.32431500  1
  O  O22  1  0.33863700  0.15992400  0.82431500  1
  O  O23  1  0.15992400  0.33863700  0.17568500  1
  O  O24  1  0.15992400  0.33863700  0.32431500  1
  O  O25  1  0.33863700  0.15992400  0.67568500  1
  O  O26  1  0.66136300  0.84007600  0.17568500  1
  O  O27  1  0.84007600  0.66136300  0.82431500  1
  O  O28  1  0.22851800  0.41012600  0.66481200  1
  O  O29  1  0.41012600  0.22851800  0.33518800  1
  O  O30  1  0.58987400  0.77148200  0.83518800  1
  O  O31  1  0.77148200  0.58987400  0.16481200  1
  O  O32  1  0.77148200  0.58987400  0.33518800  1
  O  O33  1  0.58987400  0.77148200  0.66481200  1
  O  O34  1  0.41012600  0.22851800  0.16481200  1
  O  O35  1  0.22851800  0.41012600  0.83518800  1
  O  O36  1  0.28841900  0.32213400  0.75000000  1
  O  O37  1  0.32213400  0.28841900  0.25000000  1
  O  O38  1  0.67786600  0.71158100  0.75000000  1
  O  O39  1  0.71158100  0.67786600  0.25000000  1
  O  O40  1  0.53762100  0.46237900  0.69137100  1
  O  O41  1  0.46237900  0.53762100  0.30862900  1
  O  O42  1  0.53762100  0.46237900  0.80862900  1
  O  O43  1  0.46237900  0.53762100  0.19137100  1
  O  O44  1  0.94557400  0.05442600  0.55601000  1
  O  O45  1  0.05442600  0.94557400  0.44399000  1
  O  O46  1  0.94557400  0.05442600  0.94399000  1
  O  O47  1  0.05442600  0.94557400  0.05601000  1
  O  O48  1  0.14331300  0.35646700  0.57429800  1
  O  O49  1  0.35646700  0.14331300  0.42570200  1
  O  O50  1  0.64353300  0.85668700  0.92570200  1
  O  O51  1  0.85668700  0.64353300  0.07429800  1
  O  O52  1  0.85668700  0.64353300  0.42570200  1
  O  O53  1  0.64353300  0.85668700  0.57429800  1
  O  O54  1  0.35646700  0.14331300  0.07429800  1
  O  O55  1  0.14331300  0.35646700  0.92570200  1
  O  O56  1  0.20083100  0.20083100  0.50000000  1
  O  O57  1  0.79916900  0.79916900  0.00000000  1
  O  O58  1  0.79916900  0.79916900  0.50000000  1
  O  O59  1  0.20083100  0.20083100  0.00000000  1
  O  O60  1  0.35697300  0.64302700  0.60009000  1
  O  O61  1  0.64302700  0.35697300  0.39991000  1
  O  O62  1  0.35697300  0.64302700  0.89991000  1
  O  O63  1  0.64302700  0.35697300  0.10009000  1
loop_
_geom_bond_atom_site_label_1
_geom_bond_atom_site_label_2
_geom_bond_distance
_geom_bond_site_symmetry_2
O0 Si0 1.625148 1_555
O0 Si21 1.626376 1_555
O1 Si1 1.625148 1_555
O1 Si20 1.626376 1_555
O2 Si2 1.625148 1_555
O2 Si23 1.626376 1_555
O3 Si3 1.625148 1_555
O3 Si22 1.626376 1_555
O4 Si4 1.625148 1_555
O4 Si17 1.626376 1_555
O5 Si5 1.625148 1_555
O5 Si16 1.626376 1_555
O6 Si6 1.625148 1_555
O6 Si19 1.626376 1_555
O7 Si7 1.625148 1_555
O7 Si18 1.626376 1_555
O8 Si0 1.619786 1_455
O8 Si29 1.620212 1_555
O9 Si1 1.619786 1_545
O9 Si28 1.620212 1_555
O10 Si2 1.619786 1_565
O10 Si31 1.620212 1_555
O11 Si3 1.619786 1_655
O11 Si30 1.620212 1_555
O12 Si4 1.619786 1_655
O12 Si25 1.620212 1_555
O13 Si5 1.619786 1_565
O13 Si24 1.620212 1_555
O14 Si6 1.619786 1_545
O14 Si27 1.620212 1_555
O15 Si7 1.619786 1_455
O15 Si26 1.620212 1_555
O16 Si5 1.628640 1_565
O16 Si0 1.628640 1_455
O17 Si4 1.628640 1_655
O17 Si1 1.628640 1_545
O18 Si2 1.628640 1_565
O18 Si7 1.628640 1_455
O19 Si3 1.628640 1_655
O19 Si6 1.628640 1_545
O20 Si13 1.619711 1_555
O20 Si0 1.621740 1_555
O21 Si12 1.619711 1_555
O21 Si1 1.621740 1_555
O22 Si15 1.619711 1_555
O22 Si2 1.621740 1_555
O23 Si14 1.619711 1_555
O23 Si3 1.621740 1_555
O24 Si9 1.619711 1_555
O24 Si4 1.621740 1_555
O25 Si8 1.619711 1_555
O25 Si5 1.621740 1_555
O26 Si11 1.619711 1_555
O26 Si6 1.621740 1_555
O27 Si10 1.619711 1_555
O27 Si7 1.621740 1_555
O28 Si8 1.623822 1_555
O28 Si29 1.629545 1_555
O29 Si9 1.623822 1_555
O29 Si28 1.629545 1_555
O30 Si10 1.623822 1_555
O30 Si31 1.629545 1_555
O31 Si11 1.623822 1_555
O31 Si30 1.629545 1_555
O32 Si12 1.623822 1_555
O32 Si25 1.629545 1_555
O33 Si13 1.623822 1_555
O33 Si24 1.629545 1_555
O34 Si14 1.623822 1_555
O34 Si27 1.629545 1_555
O35 Si15 1.623822 1_555
O35 Si26 1.629545 1_555
O36 Si15 1.624255 1_555
O36 Si8 1.624255 1_555
O37 Si9 1.624255 1_555
O37 Si14 1.624255 1_555
O38 Si10 1.624255 1_555
O38 Si13 1.624255 1_555
O39 Si12 1.624255 1_555
O39 Si11 1.624255 1_555
O40 Si8 1.629482 1_555
O40 Si13 1.629482 1_555
O41 Si12 1.629482 1_555
O41 Si9 1.629482 1_555
O42 Si15 1.629482 1_555
O42 Si10 1.629482 1_555
O43 Si14 1.629482 1_555
O43 Si11 1.629482 1_555
O44 Si21 1.630269 1_545
O44 Si16 1.630269 1_655
O45 Si20 1.630269 1_455
O45 Si17 1.630269 1_565
O46 Si18 1.630269 1_545
O46 Si23 1.630269 1_655
O47 Si19 1.630269 1_455
O47 Si22 1.630269 1_565
O48 Si29 1.620350 1_555
O48 Si16 1.621227 1_555
O49 Si28 1.620350 1_555
O49 Si17 1.621227 1_555
O50 Si31 1.620350 1_555
O50 Si18 1.621227 1_555
O51 Si30 1.620350 1_555
O51 Si19 1.621227 1_555
O52 Si25 1.620350 1_555
O52 Si20 1.621227 1_555
O53 Si24 1.620350 1_555
O53 Si21 1.621227 1_555
O54 Si27 1.620350 1_555
O54 Si22 1.621227 1_555
O55 Si26 1.620350 1_555
O55 Si23 1.621227 1_555
O56 Si16 1.620900 1_555
O56 Si17 1.620900 1_555
O57 Si19 1.620900 1_555
O57 Si18 1.620900 1_554
O58 Si21 1.620900 1_555
O58 Si20 1.620900 1_555
O59 Si22 1.620900 1_555
O59 Si23 1.620900 1_554
O60 Si24 1.630437 1_555
O60 Si29 1.630437 1_555
O61 Si25 1.630437 1_555
O61 Si28 1.630437 1_555
O62 Si31 1.630437 1_555
O62 Si26 1.630437 1_555
O63 Si30 1.630437 1_555
O63 Si27 1.630437 1_555
