# generated using pymatgen
data_K2GdF5
_symmetry_space_group_name_H-M   'P 1'
_cell_length_a   6.57288130
_cell_length_b   7.36192987
_cell_length_c   10.71998805
_cell_angle_alpha   90.00000000
_cell_angle_beta   90.00000000
_cell_angle_gamma   90.00000000
_symmetry_Int_Tables_number   1
_chemical_formula_structural   K2GdF5
_chemical_formula_sum   'K8 Gd4 F20'
_cell_volume   518.73047914
_cell_formula_units_Z   4
loop_
 _symmetry_equiv_pos_site_id
 _symmetry_equiv_pos_as_xyz
  1  'x, y, z'
loop_
 _atom_site_type_symbol
 _atom_site_label
 _atom_site_symmetry_multiplicity
 _atom_site_fract_x
 _atom_site_fract_y
 _atom_site_fract_z
 _atom_site_occupancy
  K  K0  1  0.46510151  0.50350075  0.67108331  1
  K  K1  1  0.03489849  0.99649925  0.17108331  1
  K  K2  1  0.53489849  0.00350075  0.32891669  1
  K  K3  1  0.96510151  0.49649925  0.82891669  1
  K  K4  1  0.53489849  0.49649925  0.32891669  1
  K  K5  1  0.96510151  0.00350075  0.82891669  1
  K  K6  1  0.46510151  0.99649925  0.67108331  1
  K  K7  1  0.03489849  0.50350075  0.17108331  1
  Gd  Gd0  1  0.93326155  0.75000000  0.50378468  1
  Gd  Gd1  1  0.56673845  0.75000000  0.00378468  1
  Gd  Gd2  1  0.06673845  0.25000000  0.49621532  1
  Gd  Gd3  1  0.43326155  0.25000000  0.99621532  1
  F  F0  1  0.59475570  0.75000000  0.51097337  1
  F  F1  1  0.90524430  0.75000000  0.01097337  1
  F  F2  1  0.40524430  0.25000000  0.48902663  1
  F  F3  1  0.09475570  0.25000000  0.98902663  1
  F  F4  1  0.15030897  0.53482941  0.42154857  1
  F  F5  1  0.34969103  0.96517059  0.92154857  1
  F  F6  1  0.84969103  0.03482941  0.57845143  1
  F  F7  1  0.65030897  0.46517059  0.07845143  1
  F  F8  1  0.84969103  0.46517059  0.57845143  1
  F  F9  1  0.65030897  0.03482941  0.07845143  1
  F  F10  1  0.15030897  0.96517059  0.42154857  1
  F  F11  1  0.34969103  0.53482941  0.92154857  1
  F  F12  1  0.13416501  0.75000000  0.67144205  1
  F  F13  1  0.36583499  0.75000000  0.17144205  1
  F  F14  1  0.86583499  0.25000000  0.32855795  1
  F  F15  1  0.63416501  0.25000000  0.82855795  1
  F  F16  1  0.83401303  0.75000000  0.30261947  1
  F  F17  1  0.66598697  0.75000000  0.80261947  1
  F  F18  1  0.16598697  0.25000000  0.69738053  1
  F  F19  1  0.33401303  0.25000000  0.19738053  1
loop_
_geom_bond_atom_site_label_1
_geom_bond_atom_site_label_2
_geom_bond_distance
_geom_bond_site_symmetry_2
F0 Gd0 2.226293 1_555
F0 K0 2.639199 1_555
F0 K6 2.639199 1_555
F0 K2 2.728849 1_565
F0 K4 2.728849 1_555
F1 Gd1 2.226293 1_555
F1 K7 2.639199 1_655
F1 K1 2.639199 1_655
F1 K5 2.728849 1_564
F1 K3 2.728849 1_554
F2 Gd2 2.226293 1_555
F2 K4 2.639199 1_555
F2 K2 2.639199 1_555
F2 K6 2.728849 1_545
F2 K0 2.728849 1_555
F3 Gd3 2.226293 1_555
F3 K3 2.639199 1_455
F3 K5 2.639199 1_455
F3 K1 2.728849 1_546
F3 K7 2.728849 1_556
F4 Gd0 2.306883 1_455
F4 Gd2 2.310709 1_555
F4 K4 2.730528 1_555
F4 K7 2.799603 1_555
F5 Gd1 2.306883 1_556
F5 Gd3 2.310709 1_565
F5 K5 2.730528 1_465
F5 K6 2.799603 1_555
F6 Gd2 2.306883 1_655
F6 Gd0 2.310709 1_545
F6 K6 2.730528 1_545
F6 K5 2.799603 1_555
F7 Gd3 2.306883 1_554
F7 Gd1 2.310709 1_555
F7 K7 2.730528 1_655
F7 K4 2.799603 1_555
F8 Gd2 2.306883 1_655
F8 Gd0 2.310709 1_555
F8 K0 2.730528 1_555
F8 K3 2.799603 1_555
F9 Gd3 2.306883 1_554
F9 Gd1 2.310709 1_545
F9 K1 2.730528 1_645
F9 K2 2.799603 1_555
F10 Gd0 2.306883 1_455
F10 Gd2 2.310709 1_565
F10 K2 2.730528 1_565
F10 K1 2.799603 1_555
F11 Gd1 2.306883 1_556
F11 Gd3 2.310709 1_555
F11 K3 2.730528 1_455
F11 K0 2.799603 1_555
F12 Gd0 2.230245 1_455
F12 K5 2.750912 1_465
F12 K3 2.750912 1_455
F12 K0 2.832792 1_555
F12 K6 2.832792 1_555
F13 Gd1 2.230245 1_555
F13 K2 2.750912 1_565
F13 K4 2.750912 1_555
F13 K7 2.832792 1_555
F13 K1 2.832792 1_555
F14 Gd2 2.230245 1_655
F14 K1 2.750912 1_645
F14 K7 2.750912 1_655
F14 K4 2.832792 1_555
F14 K2 2.832792 1_555
F15 Gd3 2.230245 1_555
F15 K6 2.750912 1_545
F15 K0 2.750912 1_555
F15 K3 2.832792 1_555
F15 K5 2.832792 1_555
F16 Gd0 2.252998 1_555
F16 K7 2.650454 1_655
F16 K1 2.650454 1_655
F16 K2 2.725382 1_565
F16 K4 2.725382 1_555
F17 Gd1 2.252998 1_556
F17 K0 2.650454 1_555
F17 K6 2.650454 1_555
F17 K5 2.725382 1_565
F17 K3 2.725382 1_555
F18 Gd2 2.252998 1_555
F18 K5 2.650454 1_455
F18 K3 2.650454 1_455
F18 K6 2.725382 1_545
F18 K0 2.725382 1_555
F19 Gd3 2.252998 1_554
F19 K4 2.650454 1_555
F19 K2 2.650454 1_555
F19 K1 2.725382 1_545
F19 K7 2.725382 1_555
