# generated using pymatgen
data_Ce6In14Pt11
_symmetry_space_group_name_H-M   'P 1'
_cell_length_a   4.48042851
_cell_length_b   11.66532814
_cell_length_c   13.99144058
_cell_angle_alpha   72.02789986
_cell_angle_beta   80.78229086
_cell_angle_gamma   78.92960122
_symmetry_Int_Tables_number   1
_chemical_formula_structural   Ce6In14Pt11
_chemical_formula_sum   'Ce6 In14 Pt11'
_cell_volume   678.64493353
_cell_formula_units_Z   1
loop_
 _symmetry_equiv_pos_site_id
 _symmetry_equiv_pos_as_xyz
  1  'x, y, z'
loop_
 _atom_site_type_symbol
 _atom_site_label
 _atom_site_symmetry_multiplicity
 _atom_site_fract_x
 _atom_site_fract_y
 _atom_site_fract_z
 _atom_site_occupancy
  Ce  Ce0  1  0.37195500  0.45959300  0.80270300  1
  Ce  Ce1  1  0.63384100  0.54868400  0.19044400  1
  Ce  Ce2  1  0.88189800  0.87649900  0.36129200  1
  Ce  Ce3  1  0.12146300  0.11855100  0.64252900  1
  Ce  Ce4  1  0.86056500  0.64814400  0.63223400  1
  Ce  Ce5  1  0.14088600  0.34934000  0.37013700  1
  In  In0  1  0.38285600  0.21133300  0.02306600  1
  In  In1  1  0.61783800  0.78996400  0.97469000  1
  In  In2  1  0.77145900  0.21375900  0.24323800  1
  In  In3  1  0.51215800  0.17936600  0.79853700  1
  In  In4  1  0.53969700  0.35725100  0.56685100  1
  In  In5  1  0.06413000  0.97404800  0.89967900  1
  In  In6  1  0.46472200  0.64209600  0.43296600  1
  In  In7  1  0.48534100  0.82531400  0.20219200  1
  In  In8  1  0.79737900  0.40280600  0.00338800  1
  In  In9  1  0.22948400  0.78530300  0.75805400  1
  In  In10  1  0.73956300  0.94187900  0.58256400  1
  In  In11  1  0.93784400  0.02637900  0.10139600  1
  In  In12  1  0.20789800  0.59570900  0.99584400  1
  In  In13  1  0.26532000  0.05368300  0.41829600  1
  Pt  Pt0  1  0.32337400  0.81165000  0.54359300  1
  Pt  Pt1  1  0.63772500  0.94508700  0.78013400  1
  Pt  Pt2  1  0.93801800  0.22319200  0.90148900  1
  Pt  Pt3  1  0.23722600  0.37073100  0.14959300  1
  Pt  Pt4  1  0.97724100  0.35552100  0.69753200  1
  Pt  Pt5  1  0.67960500  0.18465100  0.45851400  1
  Pt  Pt6  1  0.06051300  0.77873100  0.09700500  1
  Pt  Pt7  1  0.03357200  0.64608900  0.30022100  1
  Pt  Pt8  1  0.76552700  0.62768100  0.85124500  1
  Pt  Pt9  1  0.00129900  0.50065200  0.49909500  1
  Pt  Pt10  1  0.36504600  0.05830700  0.21923500  1
loop_
_geom_bond_atom_site_label_1
_geom_bond_atom_site_label_2
_geom_bond_distance
_geom_bond_site_symmetry_2
Ce0 Pt4 3.086645 1_455
Ce0 Pt4 3.090852 1_555
Ce0 Pt8 3.142145 1_455
Ce0 Pt8 3.154177 1_555
Ce0 In3 3.225094 1_555
Ce0 In12 3.453606 1_555
Ce0 Pt2 3.468795 1_555
Ce0 In8 3.469585 1_556
Ce0 Pt2 3.484421 1_455
Ce0 In8 3.484465 1_456
Ce0 Ce4 3.501151 1_555
Ce0 Ce4 3.514887 1_455
Ce0 In0 3.518415 1_556
Ce0 In9 3.600782 1_555
Ce0 In4 3.764514 1_555
Ce1 Pt7 3.076267 1_555
Ce1 Pt7 3.097989 1_655
Ce1 Pt3 3.166458 1_655
Ce1 Pt3 3.204361 1_555
Ce1 In7 3.217275 1_555
Ce1 Pt6 3.401414 1_655
Ce1 Pt6 3.431150 1_555
Ce2 Pt7 2.990995 1_655
Ce2 Pt10 3.286061 1_565
Ce2 Pt0 3.291143 1_555
Ce2 Pt0 3.292654 1_655
Ce2 In7 3.300571 1_655
Ce2 Pt10 3.304209 1_665
Ce2 In7 3.311091 1_555
Ce3 Pt4 3.019741 1_455
Ce3 Pt1 3.221300 1_545
Ce3 Pt1 3.231409 1_445
Ce3 In10 3.278953 1_545
Ce3 In10 3.280302 1_445
Ce3 Pt5 3.305992 1_555
Ce3 Pt5 3.311221 1_455
Ce3 In3 3.314907 1_555
Ce3 In3 3.320122 1_455
Ce3 In13 3.385389 1_555
Ce3 In4 3.454667 1_555
Ce3 In4 3.456340 1_455
Ce3 In5 3.461195 1_545
Ce3 In9 3.689118 1_545
Ce4 Pt9 2.830693 1_655
Ce4 Pt0 2.950016 1_555
Ce4 Pt0 2.951447 1_655
Ce4 Pt8 2.966095 1_555
Ce4 Pt4 3.209894 1_555
Ce5 Pt9 2.818184 1_555
Ce5 Pt5 2.954878 1_455
Ce5 Pt5 2.958911 1_555
Ce5 Pt3 2.984926 1_555
Ce5 Pt7 3.254702 1_555
In0 Pt10 2.772588 1_555
In0 Pt2 2.778493 1_454
In0 Pt2 2.780475 1_554
In0 Pt3 2.865752 1_555
In1 Pt1 2.763480 1_555
In1 Pt6 2.780098 1_656
In1 Pt6 2.792744 1_556
In1 Pt8 2.859247 1_555
In2 Pt5 2.895226 1_555
In2 Pt3 2.921569 1_655
In2 Pt10 2.925185 1_555
In2 Pt3 2.939388 1_555
In2 Pt10 2.951585 1_655
In3 Pt1 2.765712 1_545
In3 Pt2 2.772443 1_555
In3 Pt2 2.777726 1_455
In3 Pt4 3.060303 1_455
In3 Pt4 3.077462 1_555
In4 Pt9 2.774209 1_655
In4 Pt9 2.778551 1_555
In4 Pt5 2.799779 1_555
In4 Pt4 2.866132 1_455
In4 Pt4 2.880451 1_555
In5 Pt1 2.855618 1_555
In5 Pt2 2.859535 1_465
In5 Pt1 2.860418 1_455
In5 Pt6 2.988630 1_556
In6 Pt9 2.757787 1_655
In6 Pt9 2.765464 1_555
In6 Pt0 2.793407 1_555
In6 Pt7 2.871377 1_555
In6 Pt7 2.902276 1_655
In7 Pt10 2.744224 1_565
In7 Pt6 2.800526 1_655
In7 Pt6 2.805782 1_555
In7 Pt7 3.052131 1_555
In7 Pt7 3.102149 1_655
In8 Pt2 2.805071 1_554
In8 Pt8 2.817923 1_554
In8 Pt3 2.957066 1_655
In8 Pt3 2.977716 1_555
In9 Pt0 2.889857 1_555
In9 Pt8 2.919258 1_455
In9 Pt8 2.945676 1_555
In9 Pt1 2.959886 1_555
In9 Pt1 2.965527 1_455
In10 Pt1 2.739358 1_555
In10 Pt5 2.815817 1_565
In10 Pt0 2.824074 1_655
In10 Pt0 2.829679 1_555
In11 Pt10 2.845988 1_555
In11 Pt6 2.853160 1_645
In11 Pt10 2.860834 1_655
In11 Pt2 3.021825 1_554
In12 Pt3 2.829605 1_556
In12 Pt6 2.832246 1_556
In12 Pt8 2.948853 1_455
In12 Pt8 2.957557 1_555
In13 Pt10 2.734497 1_555
In13 Pt0 2.814625 1_545
In13 Pt5 2.837313 1_555
In13 Pt5 2.838172 1_455
Pt2 Pt4 2.789662 1_555
Pt4 Pt9 2.767648 1_655
Pt6 Pt7 2.782059 1_555
Pt7 Pt9 2.773778 1_555
