# generated using pymatgen
data_Cs4CO4
_symmetry_space_group_name_H-M   'P 1'
_cell_length_a   7.52267027
_cell_length_b   7.52267027
_cell_length_c   7.52267027
_cell_angle_alpha   99.01547472
_cell_angle_beta   99.01547472
_cell_angle_gamma   133.36137624
_symmetry_Int_Tables_number   1
_chemical_formula_structural   Cs4CO4
_chemical_formula_sum   'Cs4 C1 O4'
_cell_volume   284.22595542
_cell_formula_units_Z   1
loop_
 _symmetry_equiv_pos_site_id
 _symmetry_equiv_pos_as_xyz
  1  'x, y, z'
loop_
 _atom_site_type_symbol
 _atom_site_label
 _atom_site_symmetry_multiplicity
 _atom_site_fract_x
 _atom_site_fract_y
 _atom_site_fract_z
 _atom_site_occupancy
  Cs  Cs0  1  0.33679400  0.33679400  0.33300000  1
  Cs  Cs1  1  0.66320600  0.99620600  0.00000000  1
  Cs  Cs2  1  0.00379400  0.00379400  0.66700000  1
  Cs  Cs3  1  0.99620600  0.66320600  0.00000000  1
  C  C0  1  0.50000000  0.50000000  0.00000000  1
  O  O0  1  0.44924700  0.27713200  0.00000000  1
  O  O1  1  0.55075300  0.55075300  0.82788500  1
  O  O2  1  0.72286800  0.72286800  0.17211500  1
  O  O3  1  0.27713200  0.44924700  0.00000000  1
loop_
_geom_bond_atom_site_label_1
_geom_bond_atom_site_label_2
_geom_bond_distance
_geom_bond_site_symmetry_2
Cs0 O3 2.832929 1_555
Cs0 O0 2.832929 1_555
Cs0 O2 2.992513 1_555
Cs0 O2 3.366086 1_445
Cs0 O1 3.424559 1_555
Cs1 O1 2.832929 1_554
Cs1 O2 2.832929 1_555
Cs1 O3 2.992513 1_555
Cs1 O3 3.366086 1_665
Cs1 O0 3.424559 1_565
Cs2 O3 2.832929 1_556
Cs2 O0 2.832929 1_556
Cs2 O1 2.992513 1_555
Cs2 O1 3.366086 1_445
Cs2 O2 3.424559 1_445
Cs3 O1 2.832929 1_554
Cs3 O2 2.832929 1_555
Cs3 O0 2.992513 1_555
Cs3 O0 3.366086 1_665
Cs3 O3 3.424559 1_655
C0 O2 1.441401 1_555
C0 O0 1.441401 1_555
C0 O1 1.441401 1_554
C0 O3 1.441401 1_555
