# generated using pymatgen
data_Nd2PbS4
_symmetry_space_group_name_H-M   'P 1'
_cell_length_a   7.51691684
_cell_length_b   7.51691684
_cell_length_c   7.51691684
_cell_angle_alpha   109.41234077
_cell_angle_beta   109.41234077
_cell_angle_gamma   109.58904465
_symmetry_Int_Tables_number   1
_chemical_formula_structural   Nd2PbS4
_chemical_formula_sum   'Nd4 Pb2 S8'
_cell_volume   326.96101158
_cell_formula_units_Z   2
loop_
 _symmetry_equiv_pos_site_id
 _symmetry_equiv_pos_as_xyz
  1  'x, y, z'
loop_
 _atom_site_type_symbol
 _atom_site_label
 _atom_site_symmetry_multiplicity
 _atom_site_fract_x
 _atom_site_fract_y
 _atom_site_fract_z
 _atom_site_occupancy
  Nd  Nd0  1  0.12500000  0.50628800  0.88128800  1
  Nd  Nd1  1  0.49371200  0.37500000  0.61871200  1
  Nd  Nd2  1  0.62500000  0.24371200  0.11871200  1
  Nd  Nd3  1  0.75628800  0.87500000  0.38128800  1
  Pb  Pb0  1  0.00000000  0.00000000  0.00000000  1
  Pb  Pb1  1  0.25000000  0.75000000  0.50000000  1
  S  S0  1  0.86280900  0.61512900  0.09557600  1
  S  S1  1  0.86512900  0.61280900  0.59557600  1
  S  S2  1  0.38487100  0.48044700  0.24768000  1
  S  S3  1  0.01723300  0.26955300  0.40442400  1
  S  S4  1  0.23276700  0.13719100  0.75232000  1
  S  S5  1  0.51955300  0.76723300  0.90442400  1
  S  S6  1  0.38719100  0.98276700  0.25232000  1
  S  S7  1  0.73044700  0.13487100  0.74768000  1
loop_
_geom_bond_atom_site_label_1
_geom_bond_atom_site_label_2
_geom_bond_distance
_geom_bond_site_symmetry_2
Nd0 S5 2.864150 1_555
Nd0 S7 2.864150 1_455
Nd0 S2 2.910789 1_556
Nd0 S1 2.910789 1_455
Nd0 S0 3.076329 1_456
Nd0 S6 3.076329 1_556
Nd0 S4 3.087865 1_555
Nd0 S3 3.087865 1_555
Nd1 S4 2.864150 1_555
Nd1 S1 2.864150 1_555
Nd1 S5 2.910789 1_555
Nd1 S6 2.910789 1_545
Nd1 S3 3.076329 1_555
Nd1 S2 3.076329 1_555
Nd1 S7 3.087865 1_555
Nd1 S0 3.087865 1_556
Nd2 S0 2.864150 1_555
Nd2 S6 2.864150 1_545
Nd2 S4 2.910789 1_554
Nd2 S3 2.910789 1_655
Nd2 S7 3.076329 1_554
Nd2 S5 3.076329 1_544
Nd2 S2 3.087865 1_555
Nd2 S1 3.087865 1_555
Nd3 S3 2.864150 1_665
Nd3 S2 2.864150 1_555
Nd3 S7 2.910789 1_565
Nd3 S0 2.910789 1_555
Nd3 S1 3.076329 1_555
Nd3 S4 3.076329 1_665
Nd3 S6 3.087865 1_555
Nd3 S5 3.087865 1_554
Pb0 S1 2.971821 1_444
Pb0 S7 2.971821 1_454
Pb0 S3 2.971821 1_555
Pb0 S6 2.971821 1_545
Pb0 S5 3.134151 1_444
Pb0 S0 3.134151 1_445
Pb0 S4 3.134151 1_554
Pb0 S2 3.134151 1_555
Pb1 S5 2.971821 1_555
Pb1 S0 2.971821 1_455
Pb1 S2 2.971821 1_555
Pb1 S4 2.971821 1_565
Pb1 S7 3.134151 1_565
Pb1 S6 3.134151 1_555
Pb1 S1 3.134151 1_455
Pb1 S3 3.134151 1_555
