# generated using pymatgen
data_KFe(SeO3)2
_symmetry_space_group_name_H-M   'P 1'
_cell_length_a   5.53441700
_cell_length_b   8.26908100
_cell_length_c   13.18260700
_cell_angle_alpha   90.00000000
_cell_angle_beta   90.00000000
_cell_angle_gamma   90.00000000
_symmetry_Int_Tables_number   1
_chemical_formula_structural   KFe(SeO3)2
_chemical_formula_sum   'K4 Fe4 Se8 O24'
_cell_volume   603.29597780
_cell_formula_units_Z   4
loop_
 _symmetry_equiv_pos_site_id
 _symmetry_equiv_pos_as_xyz
  1  'x, y, z'
loop_
 _atom_site_type_symbol
 _atom_site_label
 _atom_site_symmetry_multiplicity
 _atom_site_fract_x
 _atom_site_fract_y
 _atom_site_fract_z
 _atom_site_occupancy
  K  K0  1  0.25000000  0.50648600  0.37372300  1
  K  K1  1  0.25000000  0.99351400  0.87372300  1
  K  K2  1  0.75000000  0.49351400  0.62627700  1
  K  K3  1  0.75000000  0.00648600  0.12627700  1
  Fe  Fe0  1  0.25000000  0.80251600  0.60234700  1
  Fe  Fe1  1  0.75000000  0.30251600  0.89765300  1
  Fe  Fe2  1  0.25000000  0.69748400  0.10234700  1
  Fe  Fe3  1  0.75000000  0.19748400  0.39765300  1
  Se  Se0  1  0.75000000  0.01100000  0.70296900  1
  Se  Se1  1  0.25000000  0.98900000  0.29703100  1
  Se  Se2  1  0.25000000  0.51100000  0.79703100  1
  Se  Se3  1  0.75000000  0.79345400  0.43851600  1
  Se  Se4  1  0.75000000  0.70654600  0.93851600  1
  Se  Se5  1  0.25000000  0.20654600  0.56148400  1
  Se  Se6  1  0.75000000  0.48900000  0.20296900  1
  Se  Se7  1  0.25000000  0.29345400  0.06148400  1
  O  O0  1  0.50671300  0.62059700  0.20599100  1
  O  O1  1  0.00671300  0.37940300  0.79400900  1
  O  O2  1  0.25000000  0.00732500  0.52266600  1
  O  O3  1  0.49301600  0.21226300  0.99580300  1
  O  O4  1  0.25000000  0.57334700  0.67068800  1
  O  O5  1  0.00698400  0.21226300  0.99580300  1
  O  O6  1  0.99328700  0.87940300  0.70599100  1
  O  O7  1  0.25000000  0.49267500  0.02266600  1
  O  O8  1  0.99328700  0.62059700  0.20599100  1
  O  O9  1  0.50698400  0.78773700  0.00419700  1
  O  O10  1  0.75000000  0.50732500  0.97733400  1
  O  O11  1  0.99301600  0.71226300  0.50419700  1
  O  O12  1  0.00671300  0.12059700  0.29400900  1
  O  O13  1  0.25000000  0.92665300  0.17068800  1
  O  O14  1  0.50671300  0.87940300  0.70599100  1
  O  O15  1  0.49328700  0.37940300  0.79400900  1
  O  O16  1  0.99301600  0.78773700  0.00419700  1
  O  O17  1  0.49328700  0.12059700  0.29400900  1
  O  O18  1  0.50698400  0.71226300  0.50419700  1
  O  O19  1  0.75000000  0.99267500  0.47733400  1
  O  O20  1  0.00698400  0.28773700  0.49580300  1
  O  O21  1  0.49301600  0.28773700  0.49580300  1
  O  O22  1  0.75000000  0.42665300  0.32931200  1
  O  O23  1  0.75000000  0.07334700  0.82931200  1
loop_
_geom_bond_atom_site_label_1
_geom_bond_atom_site_label_2
_geom_bond_distance
_geom_bond_site_symmetry_2
K0 O21 2.769620 1_555
K0 O20 2.769620 1_555
K0 O0 2.792504 1_555
K0 O8 2.792504 1_455
K0 O18 2.806522 1_555
K0 O11 2.806522 1_455
K0 O22 2.904478 1_555
K0 O22 2.904478 1_455
K1 O3 2.769620 1_565
K1 O5 2.769620 1_565
K1 O14 2.792504 1_555
K1 O6 2.792504 1_455
K1 O16 2.806522 1_456
K1 O9 2.806522 1_556
K1 O23 2.904478 1_565
K1 O23 2.904478 1_465
K2 O11 2.769620 1_555
K2 O18 2.769620 1_555
K2 O1 2.792504 1_655
K2 O15 2.792504 1_555
K2 O20 2.806522 1_655
K2 O21 2.806522 1_555
K2 O4 2.904478 1_655
K2 O4 2.904478 1_555
K3 O9 2.769620 1_545
K3 O16 2.769620 1_545
K3 O12 2.792504 1_655
K3 O17 2.792504 1_555
K3 O5 2.806522 1_654
K3 O3 2.806522 1_554
K3 O13 2.904478 1_545
K3 O13 2.904478 1_645
Fe0 O2 1.992879 1_565
Fe0 O11 2.062498 1_455
Fe0 O18 2.062498 1_555
Fe0 O14 2.071121 1_555
Fe0 O6 2.071121 1_455
Fe0 O4 2.098269 1_555
Fe1 O10 1.992879 1_555
Fe1 O5 2.062498 1_655
Fe1 O3 2.062498 1_555
Fe1 O1 2.071121 1_655
Fe1 O15 2.071121 1_555
Fe1 O23 2.098269 1_555
Fe2 O7 1.992879 1_555
Fe2 O16 2.062498 1_455
Fe2 O9 2.062498 1_555
Fe2 O0 2.071121 1_555
Fe2 O8 2.071121 1_455
Fe2 O13 2.098269 1_555
Fe3 O19 1.992879 1_545
Fe3 O20 2.062498 1_655
Fe3 O21 2.062498 1_555
Fe3 O12 2.071121 1_655
Fe3 O17 2.071121 1_555
Fe3 O22 2.098269 1_555
O0 Se6 1.731666 1_555
O1 Se2 1.731666 1_555
O2 Se5 1.725023 1_555
O3 Se7 1.734742 1_556
O4 Se2 1.743498 1_555
O5 Se7 1.734742 1_556
O6 Se0 1.731666 1_565
O7 Se7 1.725023 1_555
O8 Se6 1.731666 1_555
O9 Se4 1.734742 1_554
O10 Se4 1.725023 1_555
O11 Se3 1.734742 1_555
O12 Se1 1.731666 1_545
O13 Se1 1.743498 1_555
O14 Se0 1.731666 1_565
O15 Se2 1.731666 1_555
O16 Se4 1.734742 1_554
O17 Se1 1.731666 1_545
O18 Se3 1.734742 1_555
O19 Se3 1.725023 1_555
O20 Se5 1.734742 1_555
O21 Se5 1.734742 1_555
O22 Se6 1.743498 1_555
O23 Se0 1.743498 1_555
