# generated using pymatgen
data_Mn(InTe2)2
_symmetry_space_group_name_H-M   'P 1'
_cell_length_a   7.71017864
_cell_length_b   7.71017864
_cell_length_c   7.71022766
_cell_angle_alpha   132.03949302
_cell_angle_beta   132.03948448
_cell_angle_gamma   70.16692129
_symmetry_Int_Tables_number   1
_chemical_formula_structural   Mn(InTe2)2
_chemical_formula_sum   'Mn1 In2 Te4'
_cell_volume   247.81691448
_cell_formula_units_Z   1
loop_
 _symmetry_equiv_pos_site_id
 _symmetry_equiv_pos_as_xyz
  1  'x, y, z'
loop_
 _atom_site_type_symbol
 _atom_site_label
 _atom_site_symmetry_multiplicity
 _atom_site_fract_x
 _atom_site_fract_y
 _atom_site_fract_z
 _atom_site_occupancy
  Mn  Mn0  1  0.50000887  0.50000887  0.00001140  1
  In  In0  1  0.75002810  0.24998513  0.50001805  1
  In  In1  1  0.24998513  0.75002810  0.50001805  1
  Te  Te0  1  0.65352889  0.65352889  0.53138629  1
  Te  Te1  1  0.87783557  0.34647282  0.00000080  1
  Te  Te2  1  0.12213963  0.12213963  0.46856562  1
  Te  Te3  1  0.34647282  0.87783557  0.00000080  1
loop_
_geom_bond_atom_site_label_1
_geom_bond_atom_site_label_2
_geom_bond_distance
_geom_bond_site_symmetry_2
Mn0 Te1 2.747314 1_555
Mn0 Te3 2.747314 1_555
Mn0 Te0 2.747486 1_555
Mn0 Te2 2.747586 1_554
In0 Te1 2.820336 1_556
In0 Te2 2.820378 1_655
In0 Te3 2.820438 1_545
In0 Te0 2.820492 1_555
In1 Te3 2.820336 1_556
In1 Te2 2.820378 1_565
In1 Te1 2.820437 1_455
In1 Te0 2.820492 1_555
