# generated using pymatgen
data_Cs2NaAlF6
_symmetry_space_group_name_H-M   'P 1'
_cell_length_a   10.75842515
_cell_length_b   10.75842515
_cell_length_c   10.75842512
_cell_angle_alpha   33.92177672
_cell_angle_beta   33.92177672
_cell_angle_gamma   33.92177364
_symmetry_Int_Tables_number   1
_chemical_formula_structural   Cs2NaAlF6
_chemical_formula_sum   'Cs4 Na2 Al2 F12'
_cell_volume   345.63142968
_cell_formula_units_Z   2
loop_
 _symmetry_equiv_pos_site_id
 _symmetry_equiv_pos_as_xyz
  1  'x, y, z'
loop_
 _atom_site_type_symbol
 _atom_site_label
 _atom_site_symmetry_multiplicity
 _atom_site_fract_x
 _atom_site_fract_y
 _atom_site_fract_z
 _atom_site_occupancy
  Cs  Cs0  1  0.21946800  0.21946800  0.21946800  1
  Cs  Cs1  1  0.78053200  0.78053200  0.78053200  1
  Cs  Cs2  1  0.62814000  0.62814000  0.62814000  1
  Cs  Cs3  1  0.37186000  0.37186000  0.37186000  1
  Na  Na0  1  0.90210300  0.90210300  0.90210300  1
  Na  Na1  1  0.09789700  0.09789700  0.09789700  1
  Al  Al0  1  0.00000000  0.00000000  0.00000000  1
  Al  Al1  1  0.50000000  0.50000000  0.50000000  1
  F  F0  1  0.74620400  0.32470000  0.32470000  1
  F  F1  1  0.67530000  0.67530000  0.25379600  1
  F  F2  1  0.67530000  0.25379600  0.67530000  1
  F  F3  1  0.32470000  0.74620400  0.32470000  1
  F  F4  1  0.69113200  0.10017200  0.10017200  1
  F  F5  1  0.10017200  0.10017200  0.69113200  1
  F  F6  1  0.10017200  0.69113200  0.10017200  1
  F  F7  1  0.32470000  0.32470000  0.74620400  1
  F  F8  1  0.30886800  0.89982800  0.89982800  1
  F  F9  1  0.89982800  0.89982800  0.30886800  1
  F  F10  1  0.89982800  0.30886800  0.89982800  1
  F  F11  1  0.25379600  0.67530000  0.67530000  1
loop_
_geom_bond_atom_site_label_1
_geom_bond_atom_site_label_2
_geom_bond_distance
_geom_bond_site_symmetry_2
Cs0 F4 3.187565 1_555
Cs0 F6 3.187565 1_555
Cs0 F5 3.187565 1_555
Cs0 F1 3.198437 1_455
Cs0 F1 3.198437 1_545
Cs0 F2 3.198437 1_455
Cs0 F11 3.198437 1_545
Cs0 F11 3.198437 1_554
Cs0 F2 3.198437 1_554
Cs0 F3 3.388474 1_545
Cs0 F0 3.388474 1_455
Cs0 F7 3.388474 1_554
Cs1 F8 3.187565 1_555
Cs1 F10 3.187565 1_555
Cs1 F9 3.187565 1_555
Cs1 F7 3.198437 1_655
Cs1 F7 3.198437 1_565
Cs1 F0 3.198437 1_565
Cs1 F3 3.198437 1_655
Cs1 F0 3.198437 1_556
Cs1 F3 3.198437 1_556
Cs1 F11 3.388474 1_655
Cs1 F2 3.388474 1_565
Cs1 F1 3.388474 1_556
Cs2 F8 3.120877 1_555
Cs2 F10 3.120877 1_555
Cs2 F9 3.120877 1_555
Cs2 F5 3.156508 1_655
Cs2 F5 3.156508 1_565
Cs2 F6 3.156508 1_556
Cs2 F4 3.156508 1_556
Cs2 F4 3.156508 1_565
Cs2 F6 3.156508 1_655
Cs2 F2 3.221699 1_555
Cs2 F11 3.221699 1_555
Cs2 F1 3.221699 1_555
Cs3 F4 3.120877 1_555
Cs3 F6 3.120877 1_555
Cs3 F5 3.120877 1_555
Cs3 F9 3.156508 1_455
Cs3 F9 3.156508 1_545
Cs3 F8 3.156508 1_554
Cs3 F10 3.156508 1_554
Cs3 F8 3.156508 1_545
Cs3 F10 3.156508 1_455
Cs3 F0 3.221699 1_555
Cs3 F3 3.221699 1_555
Cs3 F7 3.221699 1_555
Al0 F10 1.845489 1_454
Al0 F8 1.845489 1_544
Al0 F4 1.845489 1_455
Al0 F6 1.845489 1_545
Al0 F9 1.845489 1_445
Al0 F5 1.845489 1_554
Al1 F3 1.857846 1_555
Al1 F0 1.857846 1_555
Al1 F2 1.857846 1_555
Al1 F11 1.857846 1_555
Al1 F7 1.857847 1_555
Al1 F1 1.857847 1_555
F0 Na1 2.336838 1_655
F1 Na0 2.336838 1_554
F2 Na0 2.336838 1_545
F3 Na1 2.336838 1_565
F4 Na0 2.390718 1_544
F5 Na0 2.390718 1_445
F6 Na0 2.390718 1_454
F7 Na1 2.336838 1_556
F8 Na1 2.390718 1_566
F9 Na1 2.390718 1_665
F10 Na1 2.390718 1_656
F11 Na0 2.336838 1_455
