# generated using pymatgen
data_Sb6O13
_symmetry_space_group_name_H-M   'P 1'
_cell_length_a   7.30707887
_cell_length_b   14.62667293
_cell_length_c   12.65685082
_cell_angle_alpha   30.07996737
_cell_angle_beta   53.75154003
_cell_angle_gamma   59.22571664
_symmetry_Int_Tables_number   1
_chemical_formula_structural   Sb6O13
_chemical_formula_sum   'Sb12 O26'
_cell_volume   546.78461948
_cell_formula_units_Z   2
loop_
 _symmetry_equiv_pos_site_id
 _symmetry_equiv_pos_as_xyz
  1  'x, y, z'
loop_
 _atom_site_type_symbol
 _atom_site_label
 _atom_site_symmetry_multiplicity
 _atom_site_fract_x
 _atom_site_fract_y
 _atom_site_fract_z
 _atom_site_occupancy
  Sb  Sb0  1  0.48904221  -0.00000000  0.02561107  1
  Sb  Sb1  1  -0.00000000  0.25000000  0.50000000  1
  Sb  Sb2  1  -0.00000000  0.75000000  0.00000000  1
  Sb  Sb3  1  0.51095779  0.50000000  0.97438893  1
  Sb  Sb4  1  0.50000000  0.25000000  0.50000000  1
  Sb  Sb5  1  0.48772450  0.50000000  0.50243951  1
  Sb  Sb6  1  0.00476523  -0.00000000  0.49727363  1
  Sb  Sb7  1  0.50000000  0.25000000  0.00000000  1
  Sb  Sb8  1  0.50000000  0.75000000  0.50000000  1
  Sb  Sb9  1  0.99523477  0.50000000  0.50272637  1
  Sb  Sb10  1  0.51227550  -0.00000000  0.49756049  1
  Sb  Sb11  1  0.50000000  0.75000000  0.00000000  1
  O  O0  1  0.18482501  0.19671675  0.18093237  1
  O  O1  1  0.18318756  0.50000000  0.11706416  1
  O  O2  1  0.17379061  -0.00000000  0.58370078  1
  O  O3  1  0.55755014  0.20251696  0.18009883  1
  O  O4  1  0.17081158  0.30811833  0.55766156  1
  O  O5  1  0.17081158  0.69188167  0.17389821  1
  O  O6  1  0.42487085  0.19965733  0.42524952  1
  O  O7  1  0.57233592  0.50000000  0.18080538  1
  O  O8  1  0.42766408  -0.00000000  0.81919462  1
  O  O9  1  0.17882790  0.50000000  0.56592504  1
  O  O10  1  0.57512915  0.30034267  0.57475048  1
  O  O11  1  0.57512915  0.69965733  0.17543681  1
  O  O12  1  0.82918842  0.19188167  0.44233844  1
  O  O13  1  0.18482501  0.80328325  0.57436488  1
  O  O14  1  0.44244986  0.29748304  0.81990117  1
  O  O15  1  0.44244986  0.70251696  0.41486925  1
  O  O16  1  0.55897856  -0.00000000  0.16987085  1
  O  O17  1  0.82620939  0.50000000  0.41629922  1
  O  O18  1  0.44102144  0.50000000  0.83012915  1
  O  O19  1  0.55755014  0.79748304  0.58513075  1
  O  O20  1  0.81517499  0.30328325  0.81906763  1
  O  O21  1  0.81517499  0.69671675  0.42563512  1
  O  O22  1  0.42487085  0.80034267  0.82456319  1
  O  O23  1  0.82117210  -0.00000000  0.43407496  1
  O  O24  1  0.82918842  0.80811833  0.82610179  1
  O  O25  1  0.81681244  -0.00000000  0.88293584  1
loop_
_geom_bond_atom_site_label_1
_geom_bond_atom_site_label_2
_geom_bond_distance
_geom_bond_site_symmetry_2
O0 Sb7 1.914825 1_555
O0 Sb6 1.935837 1_555
O1 Sb3 1.970420 1_554
O1 Sb2 2.306146 1_555
O1 Sb1 2.306146 1_555
O2 Sb10 2.029075 1_555
O2 Sb6 2.078402 1_555
O2 Sb2 2.498196 1_546
O2 Sb1 2.498196 1_555
O3 Sb10 1.964949 1_555
O3 Sb7 1.987483 1_555
O3 Sb3 2.398662 1_554
O4 Sb4 1.986572 1_555
O4 Sb9 1.999835 1_455
O4 Sb1 2.459625 1_555
O5 Sb11 1.986572 1_555
O5 Sb9 1.999835 1_455
O5 Sb2 2.459625 1_555
O6 Sb10 1.982635 1_555
O6 Sb4 1.993050 1_555
O6 Sb1 2.543320 1_555
O7 Sb4 1.964163 1_555
O7 Sb11 1.964163 1_555
O8 Sb4 1.964163 1_555
O8 Sb11 1.964163 1_546
O9 Sb5 1.896181 1_555
O9 Sb9 1.925757 1_455
O10 Sb5 1.982635 1_555
O10 Sb4 1.993050 1_555
O10 Sb1 2.543320 1_655
O11 Sb5 1.982627 1_555
O11 Sb11 1.993062 1_555
O11 Sb2 2.543318 1_655
O12 Sb4 1.986572 1_555
O12 Sb6 1.999835 1_655
O12 Sb1 2.459625 1_655
O13 Sb8 1.914824 1_555
O13 Sb6 1.935842 1_565
O14 Sb5 1.964949 1_555
O14 Sb7 1.987483 1_556
O14 Sb0 2.398662 1_556
O15 Sb5 1.964965 1_555
O15 Sb8 1.987458 1_555
O15 Sb0 2.398672 1_565
O16 Sb8 2.014051 1_545
O16 Sb7 2.014051 1_555
O16 Sb0 2.167580 1_555
O17 Sb5 2.029075 1_555
O17 Sb9 2.078402 1_555
O17 Sb2 2.498196 1_655
O17 Sb1 2.498196 1_655
O18 Sb7 2.014051 1_556
O18 Sb8 2.014051 1_555
O18 Sb3 2.167580 1_555
O19 Sb10 1.964965 1_565
O19 Sb8 1.987458 1_555
O19 Sb3 2.398672 1_555
O20 Sb7 1.914825 1_556
O20 Sb9 1.935837 1_555
O21 Sb8 1.914824 1_555
O21 Sb9 1.935842 1_555
O22 Sb10 1.982627 1_565
O22 Sb11 1.993062 1_556
O22 Sb2 2.543318 1_556
O23 Sb10 1.896181 1_555
O23 Sb6 1.925757 1_655
O24 Sb11 1.986572 1_556
O24 Sb6 1.999835 1_665
O24 Sb2 2.459625 1_656
O25 Sb0 1.970420 1_556
O25 Sb1 2.306146 1_655
O25 Sb2 2.306146 1_646
