# generated using pymatgen
data_CsU2H3(C2O7)2
_symmetry_space_group_name_H-M   'P 1'
_cell_length_a   13.70993200
_cell_length_b   5.57192600
_cell_length_c   9.67392809
_cell_angle_alpha   82.48715611
_cell_angle_beta   90.00000000
_cell_angle_gamma   90.00000000
_symmetry_Int_Tables_number   1
_chemical_formula_structural   CsU2H3(C2O7)2
_chemical_formula_sum   'Cs2 U4 H6 C8 O28'
_cell_volume   732.65452081
_cell_formula_units_Z   2
loop_
 _symmetry_equiv_pos_site_id
 _symmetry_equiv_pos_as_xyz
  1  'x, y, z'
loop_
 _atom_site_type_symbol
 _atom_site_label
 _atom_site_symmetry_multiplicity
 _atom_site_fract_x
 _atom_site_fract_y
 _atom_site_fract_z
 _atom_site_occupancy
  Cs  Cs0  1  0.75000000  0.45950800  0.63942700  1
  Cs  Cs1  1  0.25000000  0.54049200  0.36057300  1
  U  U0  1  0.58869900  0.78150000  0.23864000  1
  U  U1  1  0.91130100  0.78150000  0.23864000  1
  U  U2  1  0.08869900  0.21850000  0.76136000  1
  U  U3  1  0.41130100  0.21850000  0.76136000  1
  H  H0  1  0.80481300  0.85915300  0.86695700  1
  H  H1  1  0.75000000  0.06255900  0.13673700  1
  H  H2  1  0.25000000  0.93744100  0.86326300  1
  H  H3  1  0.19518700  0.14084700  0.13304300  1
  H  H4  1  0.30481300  0.14084700  0.13304300  1
  H  H5  1  0.69518700  0.85915300  0.86695700  1
  C  C0  1  0.04864200  0.48407500  0.03962800  1
  C  C1  1  0.95135800  0.51592500  0.96037200  1
  C  C2  1  0.94844300  0.03708100  0.52005200  1
  C  C3  1  0.45135800  0.48407500  0.03962800  1
  C  C4  1  0.05155700  0.96291900  0.47994800  1
  C  C5  1  0.44844300  0.96291900  0.47994800  1
  C  C6  1  0.55155700  0.03708100  0.52005200  1
  C  C7  1  0.54864200  0.51592500  0.96037200  1
  O  O0  1  0.44613700  0.57046200  0.15375000  1
  O  O1  1  0.62706600  0.49891600  0.33593900  1
  O  O2  1  0.44651400  0.93228900  0.85787900  1
  O  O3  1  0.05675100  0.83322300  0.38223700  1
  O  O4  1  0.87293400  0.49891600  0.33593900  1
  O  O5  1  0.75000000  0.90634400  0.19515900  1
  O  O6  1  0.62138200  0.96057200  0.45239000  1
  O  O7  1  0.88387300  0.62642000  0.01628700  1
  O  O8  1  0.94613700  0.42953800  0.84625000  1
  O  O9  1  0.75000000  0.94426300  0.81815000  1
  O  O10  1  0.05386300  0.57046200  0.15375000  1
  O  O11  1  0.94651400  0.06771100  0.14212100  1
  O  O12  1  0.55675100  0.16677700  0.61776300  1
  O  O13  1  0.37861800  0.03942800  0.54761000  1
  O  O14  1  0.38387300  0.37358000  0.98371300  1
  O  O15  1  0.11612700  0.37358000  0.98371300  1
  O  O16  1  0.12138200  0.03942800  0.54761000  1
  O  O17  1  0.05348600  0.93228900  0.85787900  1
  O  O18  1  0.25000000  0.09365600  0.80484100  1
  O  O19  1  0.94324900  0.16677700  0.61776300  1
  O  O20  1  0.12706600  0.50108400  0.66406100  1
  O  O21  1  0.55386300  0.42953800  0.84625000  1
  O  O22  1  0.61612700  0.62642000  0.01628700  1
  O  O23  1  0.25000000  0.05573700  0.18185000  1
  O  O24  1  0.87861800  0.96057200  0.45239000  1
  O  O25  1  0.55348600  0.06771100  0.14212100  1
  O  O26  1  0.44324900  0.83322300  0.38223700  1
  O  O27  1  0.37293400  0.50108400  0.66406100  1
loop_
_geom_bond_atom_site_label_1
_geom_bond_atom_site_label_2
_geom_bond_distance
_geom_bond_site_symmetry_2
Cs0 O12 3.132603 1_555
Cs0 O19 3.132603 1_555
Cs0 O9 3.151730 1_545
Cs0 O8 3.342833 1_555
Cs0 O21 3.342833 1_555
Cs0 O4 3.367477 1_555
Cs0 O1 3.367477 1_555
Cs0 O24 3.585656 1_555
Cs0 O6 3.585656 1_555
Cs1 O26 3.132603 1_555
Cs1 O3 3.132603 1_555
Cs1 O23 3.151730 1_565
Cs1 O0 3.342833 1_555
Cs1 O10 3.342833 1_555
Cs1 O27 3.367477 1_555
Cs1 O20 3.367477 1_555
Cs1 O13 3.585656 1_555
Cs1 O16 3.585656 1_555
H0 O9 0.976727 1_555
H1 O5 0.973862 1_545
H2 O18 0.973862 1_565
H3 O23 0.976727 1_555
H4 O23 0.976727 1_555
H5 O9 0.976727 1_555
C0 O10 1.262778 1_555
C0 O15 1.270728 1_554
C1 O8 1.262778 1_555
C1 O7 1.270728 1_556
C2 O19 1.264684 1_555
C2 O24 1.264738 1_545
C3 O0 1.262778 1_555
C3 O14 1.270728 1_554
C4 O3 1.264684 1_555
C4 O16 1.264738 1_565
C5 O26 1.264684 1_555
C5 O13 1.264738 1_565
C6 O12 1.264684 1_555
C6 O6 1.264738 1_545
C7 O21 1.262778 1_555
C7 O22 1.270728 1_556
O0 U0 2.475836 1_555
O1 U0 1.803961 1_555
O2 U3 1.805195 1_565
O3 U1 2.468593 1_455
O4 U1 1.803961 1_555
O5 U1 2.339810 1_555
O5 U0 2.339810 1_555
O6 U0 2.451869 1_555
O7 U1 2.449698 1_555
O8 U2 2.475836 1_655
O10 U1 2.475836 1_455
O11 U1 1.805195 1_545
O12 U3 2.468593 1_555
O13 U3 2.451869 1_555
O14 U3 2.449698 1_555
O15 U2 2.449698 1_555
O16 U2 2.451869 1_555
O17 U2 1.805195 1_565
O18 U3 2.339810 1_555
O18 U2 2.339810 1_555
O19 U2 2.468593 1_655
O20 U2 1.803961 1_555
O21 U3 2.475836 1_555
O22 U0 2.449698 1_555
O24 U1 2.451869 1_555
O25 U0 1.805195 1_545
O26 U0 2.468593 1_555
O27 U3 1.803961 1_555
