# generated using pymatgen
data_K2SrCl4
_symmetry_space_group_name_H-M   'P 1'
_cell_length_a   13.15463100
_cell_length_b   8.07594500
_cell_length_c   8.17544946
_cell_angle_alpha   70.15036016
_cell_angle_beta   90.00000000
_cell_angle_gamma   90.00000000
_symmetry_Int_Tables_number   1
_chemical_formula_structural   K2SrCl4
_chemical_formula_sum   'K8 Sr4 Cl16'
_cell_volume   816.92578805
_cell_formula_units_Z   4
loop_
 _symmetry_equiv_pos_site_id
 _symmetry_equiv_pos_as_xyz
  1  'x, y, z'
loop_
 _atom_site_type_symbol
 _atom_site_label
 _atom_site_symmetry_multiplicity
 _atom_site_fract_x
 _atom_site_fract_y
 _atom_site_fract_z
 _atom_site_occupancy
  K  K0  1  0.94462600  0.30937600  0.82273200  1
  K  K1  1  0.43994300  0.82040800  0.30263900  1
  K  K2  1  0.81039000  0.94265000  0.42756800  1
  K  K3  1  0.62731200  0.25724900  0.99669500  1
  K  K4  1  0.56005700  0.82040800  0.80263900  1
  K  K5  1  0.18961000  0.94265000  0.92756800  1
  K  K6  1  0.05537400  0.30937600  0.32273200  1
  K  K7  1  0.37268800  0.25724900  0.49669500  1
  Sr  Sr0  1  0.30715900  0.42158300  0.94959700  1
  Sr  Sr1  1  0.69284100  0.42158300  0.44959700  1
  Sr  Sr2  1  0.12313000  0.74586300  0.48662400  1
  Sr  Sr3  1  0.87687000  0.74586300  0.98662400  1
  Cl  Cl0  1  0.75744200  0.61793700  0.75239600  1
  Cl  Cl1  1  0.69285800  0.77850600  0.18323900  1
  Cl  Cl2  1  0.23920700  0.11074500  0.25210200  1
  Cl  Cl3  1  0.58190900  0.09949100  0.42090200  1
  Cl  Cl4  1  0.17949200  0.34938900  0.68469600  1
  Cl  Cl5  1  0.51706100  0.50203800  0.61460100  1
  Cl  Cl6  1  0.82050800  0.34938900  0.18469600  1
  Cl  Cl7  1  0.06740000  0.57155000  0.94147200  1
  Cl  Cl8  1  0.48293900  0.50203800  0.11460100  1
  Cl  Cl9  1  0.93260000  0.57155000  0.44147200  1
  Cl  Cl10  1  0.99373700  0.97321600  0.13613700  1
  Cl  Cl11  1  0.30714200  0.77850600  0.68323900  1
  Cl  Cl12  1  0.00626300  0.97321600  0.63613700  1
  Cl  Cl13  1  0.76079300  0.11074500  0.75210200  1
  Cl  Cl14  1  0.41809100  0.09949100  0.92090200  1
  Cl  Cl15  1  0.24255800  0.61793700  0.25239600  1
loop_
_geom_bond_atom_site_label_1
_geom_bond_atom_site_label_2
_geom_bond_distance
_geom_bond_site_symmetry_2
Cl0 Sr3 2.923338 1_555
Cl0 K2 3.112061 1_555
Cl0 K4 3.168674 1_555
Cl0 K3 3.384286 1_555
Cl0 K0 3.410326 1_555
Cl0 Sr1 3.468543 1_555
Cl1 Sr1 2.964456 1_555
Cl1 Sr3 2.966548 1_554
Cl1 K2 3.152123 1_555
Cl1 K4 3.483272 1_554
Cl1 K1 3.515773 1_555
Cl1 K3 3.743436 1_564
Cl2 Sr0 3.000150 1_554
Cl2 K6 3.063278 1_555
Cl2 K7 3.176218 1_555
Cl2 Sr2 3.294580 1_545
Cl2 K5 3.428422 1_544
Cl2 K1 3.461713 1_545
Cl3 Sr1 3.060251 1_555
Cl3 K7 3.180882 1_555
Cl3 K4 3.182062 1_545
Cl3 K2 3.254842 1_545
Cl3 K1 3.313933 1_545
Cl3 K3 3.317662 1_554
Cl4 Sr0 2.950937 1_555
Cl4 Sr2 3.146902 1_555
Cl4 K7 3.186154 1_555
Cl4 K5 3.212614 1_545
Cl4 K0 3.267381 1_455
Cl4 K6 3.489496 1_555
Cl5 Sr1 2.860768 1_555
Cl5 K1 3.113090 1_555
Cl5 K7 3.120622 1_555
Cl5 K3 3.402329 1_555
Cl5 K4 3.460948 1_555
Cl6 Sr1 2.950937 1_555
Cl6 Sr3 3.146902 1_554
Cl6 K3 3.186154 1_554
Cl6 K2 3.212614 1_545
Cl6 K6 3.267381 1_655
Cl6 K0 3.489496 1_554
Cl7 Sr3 2.958496 1_455
Cl7 K0 3.070754 1_455
Cl7 K6 3.121170 1_556
Cl7 K5 3.368671 1_555
Cl7 Sr0 3.371046 1_555
Cl7 Sr2 3.576602 1_555
Cl8 Sr0 2.860768 1_554
Cl8 K4 3.113090 1_554
Cl8 K3 3.120622 1_554
Cl8 K7 3.402329 1_555
Cl8 K1 3.460948 1_555
Cl9 Sr2 2.958496 1_655
Cl9 K6 3.070754 1_655
Cl9 K0 3.121170 1_555
Cl9 K2 3.368671 1_555
Cl9 Sr1 3.371046 1_555
Cl9 Sr3 3.576602 1_554
Cl10 Sr3 2.958527 1_554
Cl10 K0 3.103019 1_564
Cl10 K5 3.145371 1_654
Cl10 Sr2 3.302428 1_655
Cl10 K2 3.339954 1_555
Cl10 K6 3.628667 1_665
Cl11 Sr0 2.964456 1_555
Cl11 Sr2 2.966548 1_555
Cl11 K5 3.152123 1_555
Cl11 K1 3.483272 1_555
Cl11 K4 3.515773 1_555
Cl11 K7 3.743436 1_565
Cl12 Sr2 2.958527 1_555
Cl12 K6 3.103019 1_565
Cl12 K2 3.145371 1_455
Cl12 Sr3 3.302428 1_455
Cl12 K5 3.339954 1_555
Cl12 K0 3.628667 1_465
Cl13 Sr1 3.000150 1_555
Cl13 K0 3.063278 1_555
Cl13 K3 3.176218 1_555
Cl13 Sr3 3.294580 1_545
Cl13 K2 3.428422 1_545
Cl13 K4 3.461713 1_545
Cl14 Sr0 3.060251 1_555
Cl14 K3 3.180882 1_555
Cl14 K1 3.182062 1_546
Cl14 K5 3.254842 1_545
Cl14 K4 3.313933 1_545
Cl14 K7 3.317662 1_555
Cl15 Sr2 2.923338 1_555
Cl15 K5 3.112061 1_554
Cl15 K1 3.168674 1_555
Cl15 K7 3.384286 1_555
Cl15 K6 3.410326 1_555
Cl15 Sr0 3.468543 1_554
