# generated using pymatgen
data_Cs2GeTe4
_symmetry_space_group_name_H-M   'P 1'
_cell_length_a   7.76442812
_cell_length_b   11.68114674
_cell_length_c   12.84857871
_cell_angle_alpha   90.00000000
_cell_angle_beta   90.00000000
_cell_angle_gamma   90.00000000
_symmetry_Int_Tables_number   1
_chemical_formula_structural   Cs2GeTe4
_chemical_formula_sum   'Cs8 Ge4 Te16'
_cell_volume   1165.33299391
_cell_formula_units_Z   4
loop_
 _symmetry_equiv_pos_site_id
 _symmetry_equiv_pos_as_xyz
  1  'x, y, z'
loop_
 _atom_site_type_symbol
 _atom_site_label
 _atom_site_symmetry_multiplicity
 _atom_site_fract_x
 _atom_site_fract_y
 _atom_site_fract_z
 _atom_site_occupancy
  Cs  Cs0  1  0.09739229  0.55511302  0.14644856  1
  Cs  Cs1  1  0.59739229  0.44488698  0.35355144  1
  Cs  Cs2  1  0.40260771  0.94488698  0.64644856  1
  Cs  Cs3  1  0.40260771  0.55511302  0.64644856  1
  Cs  Cs4  1  0.59739229  0.05511302  0.35355144  1
  Cs  Cs5  1  0.09739229  0.94488698  0.14644856  1
  Cs  Cs6  1  0.90260771  0.44488698  0.85355144  1
  Cs  Cs7  1  0.90260771  0.05511302  0.85355144  1
  Ge  Ge0  1  0.50595629  0.75000000  0.93604809  1
  Ge  Ge1  1  0.00595629  0.25000000  0.56395191  1
  Ge  Ge2  1  0.49404371  0.25000000  0.06395191  1
  Ge  Ge3  1  0.99404371  0.75000000  0.43604809  1
  Te  Te0  1  0.76536723  0.75000000  0.28993716  1
  Te  Te1  1  0.08405681  0.07815371  0.43415539  1
  Te  Te2  1  0.68750292  0.25000000  0.61608501  1
  Te  Te3  1  0.81249708  0.25000000  0.11608501  1
  Te  Te4  1  0.73463277  0.75000000  0.78993716  1
  Te  Te5  1  0.58405681  0.92184629  0.06584461  1
  Te  Te6  1  0.91594319  0.57815371  0.56584461  1
  Te  Te7  1  0.23463277  0.25000000  0.71006284  1
  Te  Te8  1  0.26536723  0.25000000  0.21006284  1
  Te  Te9  1  0.31249708  0.75000000  0.38391499  1
  Te  Te10  1  0.08405681  0.42184629  0.43415539  1
  Te  Te11  1  0.91594319  0.92184629  0.56584461  1
  Te  Te12  1  0.41594319  0.42184629  0.93415539  1
  Te  Te13  1  0.41594319  0.07815371  0.93415539  1
  Te  Te14  1  0.18750292  0.75000000  0.88391499  1
  Te  Te15  1  0.58405681  0.57815371  0.06584461  1
loop_
_geom_bond_atom_site_label_1
_geom_bond_atom_site_label_2
_geom_bond_distance
_geom_bond_site_symmetry_2
Cs0 Te8 3.882226 1_555
Cs0 Te0 3.902233 1_455
Cs0 Te15 3.927259 1_555
Cs0 Te12 3.997629 1_554
Cs0 Te10 4.012367 1_555
Cs0 Te15 4.126894 1_455
Cs0 Te14 4.129207 1_554
Cs0 Te9 4.157063 1_555
Cs0 Te3 4.212832 1_455
Cs1 Te0 3.882226 1_555
Cs1 Te8 3.902233 1_555
Cs1 Te10 3.927259 1_655
Cs1 Te6 3.997629 1_555
Cs1 Te15 4.012367 1_555
Cs1 Te10 4.126894 1_555
Cs1 Te2 4.129207 1_555
Cs1 Te3 4.157063 1_555
Cs1 Te9 4.212832 1_555
Cs2 Te7 3.882226 1_565
Cs2 Te4 3.902233 1_555
Cs2 Te11 3.927259 1_455
Cs2 Te1 3.997629 1_565
Cs2 Te13 4.012367 1_565
Cs2 Te11 4.126894 1_555
Cs2 Te9 4.129207 1_555
Cs2 Te14 4.157063 1_555
Cs2 Te2 4.212832 1_565
Cs3 Te7 3.882226 1_555
Cs3 Te4 3.902233 1_555
Cs3 Te6 3.927259 1_455
Cs3 Te10 3.997629 1_555
Cs3 Te12 4.012367 1_555
Cs3 Te6 4.126894 1_555
Cs3 Te9 4.129207 1_555
Cs3 Te14 4.157063 1_555
Cs3 Te2 4.212832 1_555
Cs4 Te0 3.882226 1_545
Cs4 Te8 3.902233 1_555
Cs4 Te1 3.927259 1_655
Cs4 Te11 3.997629 1_545
Cs4 Te5 4.012367 1_545
Cs4 Te1 4.126894 1_555
Cs4 Te2 4.129207 1_555
Cs4 Te3 4.157063 1_555
Cs4 Te9 4.212832 1_545
Cs5 Te8 3.882226 1_565
Cs5 Te0 3.902233 1_455
Cs5 Te5 3.927259 1_555
Cs5 Te13 3.997629 1_564
Cs5 Te1 4.012367 1_565
Cs5 Te5 4.126894 1_455
Cs5 Te14 4.129207 1_554
Cs5 Te9 4.157063 1_555
Cs5 Te3 4.212832 1_465
Cs6 Te4 3.882226 1_555
Cs6 Te7 3.902233 1_655
Cs6 Te12 3.927259 1_555
Cs6 Te15 3.997629 1_556
Cs6 Te6 4.012367 1_555
Cs6 Te12 4.126894 1_655
Cs6 Te3 4.129207 1_556
Cs6 Te2 4.157063 1_555
Cs6 Te14 4.212832 1_655
Cs7 Te4 3.882226 1_545
Cs7 Te7 3.902233 1_655
Cs7 Te13 3.927259 1_555
Cs7 Te5 3.997629 1_546
Cs7 Te11 4.012367 1_545
Cs7 Te13 4.126894 1_655
Cs7 Te3 4.129207 1_556
Cs7 Te2 4.157063 1_555
Cs7 Te14 4.212832 1_645
Ge0 Te14 2.561732 1_555
Ge0 Te4 2.583964 1_555
Ge0 Te15 2.679264 1_556
Ge0 Te5 2.679264 1_556
Ge1 Te2 2.561732 1_455
Ge1 Te7 2.583964 1_555
Ge1 Te10 2.679264 1_555
Ge1 Te1 2.679264 1_555
Ge2 Te3 2.561732 1_555
Ge2 Te8 2.583964 1_555
Ge2 Te12 2.679264 1_554
Ge2 Te13 2.679264 1_554
Ge3 Te9 2.561732 1_655
Ge3 Te0 2.583964 1_555
Ge3 Te6 2.679264 1_555
Ge3 Te11 2.679264 1_555
Te1 Te11 2.810779 1_445
Te10 Te6 2.810779 1_455
Te12 Te15 2.810779 1_556
Te13 Te5 2.810779 1_546
