# generated using pymatgen
data_H16PtC4(NCl3)2
_symmetry_space_group_name_H-M   'P 1'
_cell_length_a   8.06498187
_cell_length_b   8.06498187
_cell_length_c   7.37880408
_cell_angle_alpha   64.11546826
_cell_angle_beta   64.11546826
_cell_angle_gamma   75.02301744
_symmetry_Int_Tables_number   1
_chemical_formula_structural   H16PtC4(NCl3)2
_chemical_formula_sum   'H16 Pt1 C4 N2 Cl6'
_cell_volume   387.10930911
_cell_formula_units_Z   1
loop_
 _symmetry_equiv_pos_site_id
 _symmetry_equiv_pos_as_xyz
  1  'x, y, z'
loop_
 _atom_site_type_symbol
 _atom_site_label
 _atom_site_symmetry_multiplicity
 _atom_site_fract_x
 _atom_site_fract_y
 _atom_site_fract_z
 _atom_site_occupancy
  H  H0  1  0.93560500  0.50405700  0.28130600  1
  H  H1  1  0.50405700  0.93560500  0.28130600  1
  H  H2  1  0.49594300  0.06439500  0.71869400  1
  H  H3  1  0.06439500  0.49594300  0.71869400  1
  H  H4  1  0.28996900  0.03170300  0.95786600  1
  H  H5  1  0.03170300  0.28996900  0.95786600  1
  H  H6  1  0.35401800  0.35401800  0.75724300  1
  H  H7  1  0.64969800  0.64969800  0.46275500  1
  H  H8  1  0.97292700  0.71391600  0.28166200  1
  H  H9  1  0.71391600  0.97292700  0.28166200  1
  H  H10  1  0.28608400  0.02707300  0.71833800  1
  H  H11  1  0.02707300  0.28608400  0.71833800  1
  H  H12  1  0.35030200  0.35030200  0.53724500  1
  H  H13  1  0.64598200  0.64598200  0.24275700  1
  H  H14  1  0.96829700  0.71003100  0.04213400  1
  H  H15  1  0.71003100  0.96829700  0.04213400  1
  Pt  Pt0  1  0.50000000  0.50000000  0.00000000  1
  C  C0  1  0.90948600  0.65568800  0.21964500  1
  C  C1  1  0.65568800  0.90948600  0.21964500  1
  C  C2  1  0.34431200  0.09051400  0.78035500  1
  C  C3  1  0.09051400  0.34431200  0.78035500  1
  N  N0  1  0.70717900  0.70717900  0.29474100  1
  N  N1  1  0.29282100  0.29282100  0.70525900  1
  Cl  Cl0  1  0.33406300  0.66405800  0.76919300  1
  Cl  Cl1  1  0.66405800  0.33406300  0.76919300  1
  Cl  Cl2  1  0.66593700  0.33594200  0.23080700  1
  Cl  Cl3  1  0.33594200  0.66593700  0.23080700  1
  Cl  Cl4  1  0.72168600  0.72168600  0.78671300  1
  Cl  Cl5  1  0.27831400  0.27831400  0.21328700  1
loop_
_geom_bond_atom_site_label_1
_geom_bond_atom_site_label_2
_geom_bond_distance
_geom_bond_site_symmetry_2
H6 N1 1.044422 1_555
H7 N0 1.036463 1_555
H12 N1 1.036463 1_555
H13 N0 1.044422 1_555
C0 H14 1.093832 1_555
C0 H8 1.099079 1_555
C0 H0 1.100729 1_555
C0 N0 1.484233 1_555
C1 H15 1.093832 1_555
C1 H9 1.099079 1_555
C1 H1 1.100729 1_555
C1 N0 1.484233 1_555
C2 H4 1.093832 1_555
C2 H10 1.099079 1_555
C2 H2 1.100729 1_555
C2 N1 1.484233 1_555
C3 H5 1.093832 1_555
C3 H11 1.099079 1_555
C3 H3 1.100729 1_555
C3 N1 1.484233 1_555
Cl0 Pt0 2.355727 1_556
Cl1 Pt0 2.355727 1_556
Cl2 Pt0 2.355727 1_555
Cl3 Pt0 2.355727 1_555
Cl4 Pt0 2.368253 1_556
Cl5 Pt0 2.368253 1_555
