# generated using pymatgen
data_Sr2Co2O5
_symmetry_space_group_name_H-M   'P 1'
_cell_length_a   5.32965933
_cell_length_b   5.40813795
_cell_length_c   16.23484467
_cell_angle_alpha   90.00000000
_cell_angle_beta   90.00000000
_cell_angle_gamma   90.00000000
_symmetry_Int_Tables_number   1
_chemical_formula_structural   Sr2Co2O5
_chemical_formula_sum   'Sr8 Co8 O20'
_cell_volume   467.94557920
_cell_formula_units_Z   4
loop_
 _symmetry_equiv_pos_site_id
 _symmetry_equiv_pos_as_xyz
  1  'x, y, z'
loop_
 _atom_site_type_symbol
 _atom_site_label
 _atom_site_symmetry_multiplicity
 _atom_site_fract_x
 _atom_site_fract_y
 _atom_site_fract_z
 _atom_site_occupancy
  Sr  Sr0  1  -0.00073002  0.50769859  0.88883994  1
  Sr  Sr1  1  0.49926998  0.99230141  0.61116006  1
  Sr  Sr2  1  0.50073002  0.00769859  0.11116006  1
  Sr  Sr3  1  -0.00073002  0.50769859  0.61116006  1
  Sr  Sr4  1  0.50073002  0.00769859  0.38883994  1
  Sr  Sr5  1  0.49926998  0.99230141  0.88883994  1
  Sr  Sr6  1  0.00073002  0.49230141  0.38883994  1
  Sr  Sr7  1  0.00073002  0.49230141  0.11116006  1
  Co  Co0  1  0.03684881  0.93787695  0.25000000  1
  Co  Co1  1  0.46315119  0.43787695  0.75000000  1
  Co  Co2  1  0.96315119  0.06212305  0.75000000  1
  Co  Co3  1  0.53684881  0.56212305  0.25000000  1
  Co  Co4  1  0.50000000  0.50000000  0.50000000  1
  Co  Co5  1  -0.00000000  0.00000000  0.00000000  1
  Co  Co6  1  0.50000000  0.50000000  0.00000000  1
  Co  Co7  1  -0.00000000  0.00000000  0.50000000  1
  O  O0  1  0.60560218  0.11230651  0.75000000  1
  O  O1  1  0.74911862  0.75110369  0.49703862  1
  O  O2  1  0.99144497  0.02436326  0.35737110  1
  O  O3  1  0.89439782  0.61230651  0.25000000  1
  O  O4  1  0.00855503  0.97563674  0.64262890  1
  O  O5  1  0.39439782  0.88769349  0.25000000  1
  O  O6  1  0.49144497  0.47563674  0.14262890  1
  O  O7  1  0.00855503  0.97563674  0.85737110  1
  O  O8  1  0.10560218  0.38769349  0.75000000  1
  O  O9  1  0.50855503  0.52436326  0.85737110  1
  O  O10  1  0.49144497  0.47563674  0.35737110  1
  O  O11  1  0.50855503  0.52436326  0.64262890  1
  O  O12  1  0.75088138  0.25110369  0.99703862  1
  O  O13  1  0.24911862  0.74889631  0.00296138  1
  O  O14  1  0.25088138  0.24889631  0.99703862  1
  O  O15  1  0.99144497  0.02436326  0.14262890  1
  O  O16  1  0.25088138  0.24889631  0.50296138  1
  O  O17  1  0.74911862  0.75110369  0.00296138  1
  O  O18  1  0.75088138  0.25110369  0.50296138  1
  O  O19  1  0.24911862  0.74889631  0.49703862  1
loop_
_geom_bond_atom_site_label_1
_geom_bond_atom_site_label_2
_geom_bond_distance
_geom_bond_site_symmetry_2
Co0 O2 1.820965 1_465
Co0 O15 1.820965 1_465
Co0 O3 1.917440 1_455
Co0 O5 1.924844 1_555
Co1 O9 1.820965 1_555
Co1 O11 1.820965 1_555
Co1 O0 1.917440 1_555
Co1 O8 1.924844 1_555
Co2 O7 1.820965 1_645
Co2 O4 1.820965 1_645
Co2 O8 1.917440 1_655
Co2 O0 1.924844 1_555
Co3 O10 1.820965 1_555
Co3 O6 1.820965 1_555
Co3 O5 1.917440 1_555
Co3 O3 1.924844 1_555
Co4 O19 1.897913 1_555
Co4 O18 1.897913 1_555
Co4 O16 1.899821 1_555
Co4 O1 1.899821 1_555
Co4 O11 2.319752 1_555
Co4 O10 2.319752 1_555
Co5 O17 1.897913 1_445
Co5 O14 1.897913 1_554
Co5 O12 1.899821 1_454
Co5 O13 1.899821 1_545
Co5 O15 2.319752 1_455
Co5 O7 2.319752 1_544
Co6 O13 1.897913 1_555
Co6 O12 1.897913 1_554
Co6 O14 1.899821 1_554
Co6 O17 1.899821 1_555
Co6 O6 2.319752 1_555
Co6 O9 2.319752 1_554
Co7 O1 1.897913 1_445
Co7 O16 1.897913 1_555
Co7 O18 1.899821 1_455
Co7 O19 1.899821 1_545
Co7 O4 2.319752 1_545
Co7 O2 2.319752 1_455
O0 Sr5 2.413108 1_545
O0 Sr1 2.413108 1_545
O1 Sr4 2.600737 1_565
O1 Sr6 2.615890 1_655
O1 Sr1 2.628189 1_555
O1 Sr3 2.634951 1_655
O2 Sr6 2.582203 1_655
O2 Sr4 2.666300 1_555
O2 Sr4 2.763448 1_655
O2 Sr6 2.922885 1_645
O3 Sr7 2.413108 1_655
O3 Sr6 2.413108 1_655
O4 Sr3 2.582203 1_555
O4 Sr1 2.666300 1_555
O4 Sr1 2.763448 1_455
O4 Sr3 2.922885 1_565
O5 Sr2 2.413108 1_565
O5 Sr4 2.413108 1_565
O6 Sr2 2.582203 1_555
O6 Sr7 2.666300 1_555
O6 Sr7 2.763448 1_655
O6 Sr2 2.922885 1_565
O7 Sr0 2.582203 1_555
O7 Sr5 2.666300 1_555
O7 Sr5 2.763448 1_455
O7 Sr0 2.922885 1_565
O8 Sr0 2.413108 1_555
O8 Sr3 2.413108 1_555
O9 Sr5 2.582203 1_555
O9 Sr0 2.666300 1_655
O9 Sr0 2.763448 1_555
O9 Sr5 2.922885 1_545
O10 Sr4 2.582203 1_555
O10 Sr6 2.666300 1_555
O10 Sr6 2.763448 1_655
O10 Sr4 2.922885 1_565
O11 Sr1 2.582203 1_555
O11 Sr3 2.666300 1_655
O11 Sr3 2.763448 1_555
O11 Sr1 2.922885 1_545
O12 Sr0 2.600737 1_655
O12 Sr5 2.615890 1_545
O12 Sr7 2.628189 1_656
O12 Sr2 2.634951 1_556
O13 Sr7 2.600737 1_555
O13 Sr2 2.615890 1_565
O13 Sr0 2.628189 1_554
O13 Sr5 2.634951 1_554
O14 Sr5 2.600737 1_545
O14 Sr0 2.615890 1_555
O14 Sr2 2.628189 1_556
O14 Sr7 2.634951 1_556
O15 Sr7 2.582203 1_655
O15 Sr2 2.666300 1_555
O15 Sr2 2.763448 1_655
O15 Sr7 2.922885 1_645
O16 Sr1 2.600737 1_545
O16 Sr3 2.615890 1_555
O16 Sr4 2.628189 1_555
O16 Sr6 2.634951 1_555
O17 Sr2 2.600737 1_565
O17 Sr7 2.615890 1_655
O17 Sr5 2.628189 1_554
O17 Sr0 2.634951 1_654
O18 Sr3 2.600737 1_655
O18 Sr1 2.615890 1_545
O18 Sr6 2.628189 1_655
O18 Sr4 2.634951 1_555
O19 Sr6 2.600737 1_555
O19 Sr4 2.615890 1_565
O19 Sr3 2.628189 1_555
O19 Sr1 2.634951 1_555
