# generated using pymatgen
data_CsEr13(CoI12)2
_symmetry_space_group_name_H-M   'P 1'
_cell_length_a   18.39898325
_cell_length_b   18.39898325
_cell_length_c   18.39898325
_cell_angle_alpha   90.00000000
_cell_angle_beta   90.00000000
_cell_angle_gamma   90.00000000
_symmetry_Int_Tables_number   1
_chemical_formula_structural   CsEr13(CoI12)2
_chemical_formula_sum   'Cs4 Er52 Co8 I96'
_cell_volume   6228.47136442
_cell_formula_units_Z   4
loop_
 _symmetry_equiv_pos_site_id
 _symmetry_equiv_pos_as_xyz
  1  'x, y, z'
loop_
 _atom_site_type_symbol
 _atom_site_label
 _atom_site_symmetry_multiplicity
 _atom_site_fract_x
 _atom_site_fract_y
 _atom_site_fract_z
 _atom_site_occupancy
  Cs  Cs0  1  0.00000000  0.00000000  0.50000000  1
  Cs  Cs1  1  0.50000000  0.00000000  0.00000000  1
  Cs  Cs2  1  0.00000000  0.50000000  0.00000000  1
  Cs  Cs3  1  0.50000000  0.50000000  0.50000000  1
  Er  Er0  1  0.18914752  0.82980848  0.66867125  1
  Er  Er1  1  0.32980848  0.83132875  0.81085248  1
  Er  Er2  1  0.31085248  0.17019152  0.16867125  1
  Er  Er3  1  0.16867125  0.18914752  0.67019152  1
  Er  Er4  1  0.32942603  0.52847759  0.17236277  1
  Er  Er5  1  0.81085248  0.17019152  0.33132875  1
  Er  Er6  1  0.17019152  0.33132875  0.81085248  1
  Er  Er7  1  0.82763723  0.82942603  0.97152241  1
  Er  Er8  1  0.17057397  0.47152241  0.67236277  1
  Er  Er9  1  0.68914752  0.82980848  0.83132875  1
  Er  Er10  1  0.83132875  0.81085248  0.32980848  1
  Er  Er11  1  0.47152241  0.67236277  0.17057397  1
  Er  Er12  1  0.97152241  0.82763723  0.82942603  1
  Er  Er13  1  0.32763723  0.82942603  0.52847759  1
  Er  Er14  1  0.17236277  0.32942603  0.52847759  1
  Er  Er15  1  0.16867125  0.31085248  0.17019152  1
  Er  Er16  1  0.32763723  0.67057397  0.02847759  1
  Er  Er17  1  0.17019152  0.16867125  0.31085248  1
  Er  Er18  1  0.17057397  0.02847759  0.17236277  1
  Er  Er19  1  0.33132875  0.81085248  0.17019152  1
  Er  Er20  1  0.68914752  0.67019152  0.33132875  1
  Er  Er21  1  0.02847759  0.32763723  0.67057397  1
  Er  Er22  1  0.67236277  0.32942603  0.97152241  1
  Er  Er23  1  0.67057397  0.47152241  0.82763723  1
  Er  Er24  1  0.67236277  0.17057397  0.47152241  1
  Er  Er25  1  0.00000000  0.50000000  0.50000000  1
  Er  Er26  1  0.31085248  0.32980848  0.66867125  1
  Er  Er27  1  0.67019152  0.16867125  0.18914752  1
  Er  Er28  1  0.17236277  0.17057397  0.02847759  1
  Er  Er29  1  0.97152241  0.67236277  0.32942603  1
  Er  Er30  1  0.81085248  0.32980848  0.83132875  1
  Er  Er31  1  0.82763723  0.67057397  0.47152241  1
  Er  Er32  1  0.82942603  0.97152241  0.82763723  1
  Er  Er33  1  0.47152241  0.82763723  0.67057397  1
  Er  Er34  1  0.50000000  0.00000000  0.50000000  1
  Er  Er35  1  0.00000000  0.00000000  0.00000000  1
  Er  Er36  1  0.18914752  0.67019152  0.16867125  1
  Er  Er37  1  0.66867125  0.18914752  0.82980848  1
  Er  Er38  1  0.02847759  0.17236277  0.17057397  1
  Er  Er39  1  0.82942603  0.52847759  0.32763723  1
  Er  Er40  1  0.82980848  0.83132875  0.68914752  1
  Er  Er41  1  0.32942603  0.97152241  0.67236277  1
  Er  Er42  1  0.32980848  0.66867125  0.31085248  1
  Er  Er43  1  0.67057397  0.02847759  0.32763723  1
  Er  Er44  1  0.52847759  0.17236277  0.32942603  1
  Er  Er45  1  0.66867125  0.31085248  0.32980848  1
  Er  Er46  1  0.52847759  0.32763723  0.82942603  1
  Er  Er47  1  0.82980848  0.66867125  0.18914752  1
  Er  Er48  1  0.67019152  0.33132875  0.68914752  1
  Er  Er49  1  0.50000000  0.50000000  0.00000000  1
  Er  Er50  1  0.33132875  0.68914752  0.67019152  1
  Er  Er51  1  0.83132875  0.68914752  0.82980848  1
  Co  Co0  1  0.66964515  0.33035485  0.83035485  1
  Co  Co1  1  0.83035485  0.66964515  0.33035485  1
  Co  Co2  1  0.83035485  0.83035485  0.83035485  1
  Co  Co3  1  0.66964515  0.16964515  0.33035485  1
  Co  Co4  1  0.33035485  0.83035485  0.66964515  1
  Co  Co5  1  0.33035485  0.66964515  0.16964515  1
  Co  Co6  1  0.16964515  0.33035485  0.66964515  1
  Co  Co7  1  0.16964515  0.16964515  0.16964515  1
  I  I0  1  0.16656314  0.16612422  0.49679233  1
  I  I1  1  0.16612422  0.00320767  0.66656314  1
  I  I2  1  0.66805143  0.65931654  0.83142295  1
  I  I3  1  0.16404940  0.00485927  0.33496185  1
  I  I4  1  0.83387578  0.50320767  0.83343686  1
  I  I5  1  0.99514073  0.83496185  0.33595060  1
  I  I6  1  0.49810469  0.83648284  0.50055135  1
  I  I7  1  0.00055135  0.00189531  0.16351716  1
  I  I8  1  0.00189531  0.33648284  0.50055135  1
  I  I9  1  0.00485927  0.16503815  0.66404940  1
  I  I10  1  0.99944865  0.99810469  0.83648284  1
  I  I11  1  0.33343686  0.83387578  0.99679233  1
  I  I12  1  0.66351716  0.49944865  0.99810469  1
  I  I13  1  0.16805143  0.65931654  0.66857705  1
  I  I14  1  0.50320767  0.83343686  0.83387578  1
  I  I15  1  0.50320767  0.66656314  0.33387578  1
  I  I16  1  0.99810469  0.83648284  0.99944865  1
  I  I17  1  0.66656314  0.16612422  0.00320767  1
  I  I18  1  0.83142295  0.66805143  0.65931654  1
  I  I19  1  0.66404940  0.00485927  0.16503815  1
  I  I20  1  0.84068346  0.33142295  0.66805143  1
  I  I21  1  0.33595060  0.99514073  0.83496185  1
  I  I22  1  0.00485927  0.33496185  0.16404940  1
  I  I23  1  0.50485927  0.16503815  0.83595060  1
  I  I24  1  0.33194857  0.15931654  0.66857705  1
  I  I25  1  0.66656314  0.33387578  0.50320767  1
  I  I26  1  0.16857705  0.16805143  0.84068346  1
  I  I27  1  0.83648284  0.50055135  0.49810469  1
  I  I28  1  0.49944865  0.99810469  0.66351716  1
  I  I29  1  0.00055135  0.49810469  0.66351716  1
  I  I30  1  0.49944865  0.50189531  0.16351716  1
  I  I31  1  0.15931654  0.66857705  0.33194857  1
  I  I32  1  0.99810469  0.66351716  0.49944865  1
  I  I33  1  0.66857705  0.33194857  0.15931654  1
  I  I34  1  0.99944865  0.50189531  0.33648284  1
  I  I35  1  0.84068346  0.16857705  0.16805143  1
  I  I36  1  0.33387578  0.50320767  0.66656314  1
  I  I37  1  0.66612422  0.49679233  0.33343686  1
  I  I38  1  0.66612422  0.00320767  0.83343686  1
  I  I39  1  0.00320767  0.66656314  0.16612422  1
  I  I40  1  0.66857705  0.16805143  0.65931654  1
  I  I41  1  0.83496185  0.33595060  0.99514073  1
  I  I42  1  0.16404940  0.49514073  0.83496185  1
  I  I43  1  0.33387578  0.99679233  0.16656314  1
  I  I44  1  0.83496185  0.16404940  0.49514073  1
  I  I45  1  0.83194857  0.15931654  0.83142295  1
  I  I46  1  0.00189531  0.16351716  0.00055135  1
  I  I47  1  0.99514073  0.66503815  0.83595060  1
  I  I48  1  0.16503815  0.83595060  0.50485927  1
  I  I49  1  0.49679233  0.16656314  0.16612422  1
  I  I50  1  0.16656314  0.33387578  0.99679233  1
  I  I51  1  0.83595060  0.50485927  0.16503815  1
  I  I52  1  0.83343686  0.83387578  0.50320767  1
  I  I53  1  0.16351716  0.49944865  0.50189531  1
  I  I54  1  0.66805143  0.84068346  0.33142295  1
  I  I55  1  0.50189531  0.16351716  0.49944865  1
  I  I56  1  0.15931654  0.83142295  0.83194857  1
  I  I57  1  0.49514073  0.83496185  0.16404940  1
  I  I58  1  0.33496185  0.16404940  0.00485927  1
  I  I59  1  0.83595060  0.99514073  0.66503815  1
  I  I60  1  0.16503815  0.66404940  0.00485927  1
  I  I61  1  0.66351716  0.00055135  0.49810469  1
  I  I62  1  0.66404940  0.49514073  0.66503815  1
  I  I63  1  0.50485927  0.33496185  0.33595060  1
  I  I64  1  0.00320767  0.83343686  0.66612422  1
  I  I65  1  0.66503815  0.83595060  0.99514073  1
  I  I66  1  0.49810469  0.66351716  0.00055135  1
  I  I67  1  0.33343686  0.66612422  0.49679233  1
  I  I68  1  0.33496185  0.33595060  0.50485927  1
  I  I69  1  0.49514073  0.66503815  0.66404940  1
  I  I70  1  0.83387578  0.99679233  0.33343686  1
  I  I71  1  0.99679233  0.33343686  0.83387578  1
  I  I72  1  0.99679233  0.16656314  0.33387578  1
  I  I73  1  0.16612422  0.49679233  0.16656314  1
  I  I74  1  0.83194857  0.34068346  0.33142295  1
  I  I75  1  0.16805143  0.84068346  0.16857705  1
  I  I76  1  0.83648284  0.99944865  0.99810469  1
  I  I77  1  0.33194857  0.34068346  0.16857705  1
  I  I78  1  0.83142295  0.83194857  0.15931654  1
  I  I79  1  0.16351716  0.00055135  0.00189531  1
  I  I80  1  0.65931654  0.66857705  0.16805143  1
  I  I81  1  0.34068346  0.33142295  0.83194857  1
  I  I82  1  0.50055135  0.49810469  0.83648284  1
  I  I83  1  0.49679233  0.33343686  0.66612422  1
  I  I84  1  0.66503815  0.66404940  0.49514073  1
  I  I85  1  0.33648284  0.50055135  0.00189531  1
  I  I86  1  0.33648284  0.99944865  0.50189531  1
  I  I87  1  0.65931654  0.83142295  0.66805143  1
  I  I88  1  0.50055135  0.00189531  0.33648284  1
  I  I89  1  0.33142295  0.83194857  0.34068346  1
  I  I90  1  0.83343686  0.66612422  0.00320767  1
  I  I91  1  0.50189531  0.33648284  0.99944865  1
  I  I92  1  0.34068346  0.16857705  0.33194857  1
  I  I93  1  0.16857705  0.33194857  0.34068346  1
  I  I94  1  0.33142295  0.66805143  0.84068346  1
  I  I95  1  0.33595060  0.50485927  0.33496185  1
loop_
_geom_bond_atom_site_label_1
_geom_bond_atom_site_label_2
_geom_bond_distance
_geom_bond_site_symmetry_2
Cs0 I44 4.282397 1_455
Cs0 I3 4.282397 1_555
Cs0 I48 4.282397 1_545
Cs0 I9 4.282397 1_555
Cs0 I5 4.282397 1_445
Cs0 I59 4.282397 1_445
Cs0 I52 4.328684 1_445
Cs0 I70 4.328684 1_445
Cs0 I72 4.328684 1_455
Cs0 I64 4.328684 1_545
Cs0 I0 4.328684 1_555
Cs0 I1 4.328684 1_555
Cs1 I58 4.282397 1_555
Cs1 I57 4.282397 1_545
Cs1 I23 4.282397 1_554
Cs1 I19 4.282397 1_555
Cs1 I65 4.282397 1_544
Cs1 I21 4.282397 1_544
Cs1 I11 4.328684 1_544
Cs1 I14 4.328684 1_544
Cs1 I43 4.328684 1_545
Cs1 I38 4.328684 1_554
Cs1 I49 4.328684 1_555
Cs1 I17 4.328684 1_555
Cs2 I42 4.282397 1_554
Cs2 I22 4.282397 1_555
Cs2 I47 4.282397 1_454
Cs2 I41 4.282397 1_454
Cs2 I60 4.282397 1_555
Cs2 I51 4.282397 1_455
Cs2 I4 4.328684 1_454
Cs2 I50 4.328684 1_554
Cs2 I71 4.328684 1_454
Cs2 I90 4.328684 1_455
Cs2 I73 4.328684 1_555
Cs2 I39 4.328684 1_555
Cs3 I63 4.282397 1_555
Cs3 I95 4.282397 1_555
Cs3 I68 4.282397 1_555
Cs3 I84 4.282397 1_555
Cs3 I62 4.282397 1_555
Cs3 I69 4.282397 1_555
Cs3 I36 4.328684 1_555
Cs3 I25 4.328684 1_555
Cs3 I83 4.328684 1_555
Cs3 I67 4.328684 1_555
Cs3 I37 4.328684 1_555
Cs3 I15 4.328684 1_555
Er0 I48 3.048537 1_555
Er0 I56 3.054008 1_555
Er0 I13 3.160802 1_555
Er0 I1 3.218602 1_565
Er0 I64 3.422076 1_555
Er1 I21 3.048537 1_555
Er1 I94 3.054008 1_555
Er1 I56 3.160802 1_555
Er1 I14 3.218602 1_555
Er1 I11 3.422076 1_555
Er2 I58 3.048537 1_555
Er2 I92 3.054008 1_555
Er2 I77 3.160802 1_555
Er2 I43 3.218602 1_545
Er2 I49 3.422076 1_555
Er3 I9 3.048537 1_555
Er3 I24 3.054008 1_555
Er3 I26 3.160802 1_555
Er3 I0 3.218602 1_555
Er3 I1 3.422076 1_555
Er4 I95 3.025436 1_555
Er4 I73 3.062481 1_555
Er4 I30 3.170426 1_555
Er4 I85 3.180887 1_555
Er4 I77 3.456235 1_555
Er5 I44 3.048537 1_555
Er5 I35 3.054008 1_555
Er5 I74 3.160802 1_555
Er5 I70 3.218602 1_545
Er5 I72 3.422076 1_555
Er6 I42 3.048537 1_555
Er6 I26 3.054008 1_555
Er6 I81 3.160802 1_555
Er6 I71 3.218602 1_455
Er6 I50 3.422076 1_555
Er7 I65 3.025436 1_555
Er7 I90 3.062481 1_556
Er7 I76 3.170426 1_555
Er7 I16 3.180887 1_555
Er7 I78 3.456235 1_556
Er8 I42 3.025436 1_555
Er8 I36 3.062481 1_555
Er8 I29 3.170426 1_555
Er8 I53 3.180887 1_555
Er8 I13 3.456235 1_555
Er9 I65 3.048537 1_555
Er9 I87 3.054008 1_555
Er9 I2 3.160802 1_555
Er9 I38 3.218602 1_565
Er9 I14 3.422076 1_555
Er10 I5 3.048537 1_555
Er10 I54 3.054008 1_555
Er10 I78 3.160802 1_555
Er10 I52 3.218602 1_555
Er10 I70 3.422076 1_555
Er11 I57 3.025436 1_555
Er11 I15 3.062481 1_555
Er11 I66 3.170426 1_555
Er11 I30 3.180887 1_555
Er11 I80 3.456235 1_555
Er12 I47 3.025436 1_555
Er12 I64 3.062481 1_655
Er12 I16 3.170426 1_555
Er12 I10 3.180887 1_555
Er12 I56 3.456235 1_655
Er13 I48 3.025436 1_555
Er13 I67 3.062481 1_555
Er13 I86 3.170426 1_555
Er13 I6 3.180887 1_555
Er13 I89 3.456235 1_555
Er14 I68 3.025436 1_555
Er14 I0 3.062481 1_555
Er14 I53 3.170426 1_555
Er14 I8 3.180887 1_555
Er14 I93 3.456235 1_555
Er15 I22 3.048537 1_555
Er15 I77 3.054008 1_555
Er15 I93 3.160802 1_555
Er15 I50 3.218602 1_554
Er15 I73 3.422076 1_555
Er16 I60 3.025436 1_555
Er16 I11 3.062481 1_554
Er16 I85 3.170426 1_555
Er16 I66 3.180887 1_555
Er16 I94 3.456235 1_554
Er17 I3 3.048537 1_555
Er17 I93 3.054008 1_555
Er17 I92 3.160802 1_555
Er17 I72 3.218602 1_455
Er17 I0 3.422076 1_555
Er18 I3 3.025436 1_555
Er18 I43 3.062481 1_545
Er18 I7 3.170426 1_555
Er18 I79 3.180887 1_555
Er18 I75 3.456235 1_545
Er19 I57 3.048537 1_555
Er19 I75 3.054008 1_555
Er19 I89 3.160802 1_555
Er19 I11 3.218602 1_554
Er19 I43 3.422076 1_555
Er20 I84 3.048537 1_555
Er20 I80 3.054008 1_555
Er20 I54 3.160802 1_555
Er20 I37 3.218602 1_555
Er20 I15 3.422076 1_555
Er21 I9 3.025436 1_555
Er21 I71 3.062481 1_455
Er21 I8 3.170426 1_555
Er21 I29 3.180887 1_555
Er21 I20 3.456235 1_455
Er22 I41 3.025436 1_555
Er22 I17 3.062481 1_556
Er22 I12 3.170426 1_555
Er22 I91 3.180887 1_555
Er22 I33 3.456235 1_556
Er23 I62 3.025436 1_555
Er23 I4 3.062481 1_555
Er23 I82 3.170426 1_555
Er23 I12 3.180887 1_555
Er23 I2 3.456235 1_555
Er24 I44 3.025436 1_555
Er24 I25 3.062481 1_555
Er24 I61 3.170426 1_555
Er24 I55 3.180887 1_555
Er24 I40 3.456235 1_555
Er25 I27 3.008769 1_455
Er25 I34 3.008769 1_455
Er25 I8 3.008769 1_555
Er25 I53 3.008769 1_555
Er25 I32 3.008769 1_455
Er25 I29 3.008769 1_555
Er26 I68 3.048537 1_555
Er26 I81 3.054008 1_555
Er26 I24 3.160802 1_555
Er26 I36 3.218602 1_555
Er26 I83 3.422076 1_555
Er27 I19 3.048537 1_555
Er27 I33 3.054008 1_555
Er27 I35 3.160802 1_555
Er27 I49 3.218602 1_555
Er27 I17 3.422076 1_555
Er28 I58 3.025436 1_555
Er28 I50 3.062481 1_554
Er28 I79 3.170426 1_555
Er28 I46 3.180887 1_555
Er28 I26 3.456235 1_554
Er29 I5 3.025436 1_555
Er29 I39 3.062481 1_655
Er29 I32 3.170426 1_555
Er29 I34 3.180887 1_555
Er29 I31 3.456235 1_655
Er30 I41 3.048537 1_555
Er30 I20 3.054008 1_555
Er30 I45 3.160802 1_555
Er30 I4 3.218602 1_555
Er30 I71 3.422076 1_555
Er31 I84 3.025436 1_555
Er31 I52 3.062481 1_555
Er31 I27 3.170426 1_555
Er31 I32 3.180887 1_555
Er31 I18 3.456235 1_555
Er32 I59 3.025436 1_555
Er32 I38 3.062481 1_565
Er32 I10 3.170426 1_555
Er32 I76 3.180887 1_555
Er32 I45 3.456235 1_565
Er33 I69 3.025436 1_555
Er33 I14 3.062481 1_555
Er33 I6 3.170426 1_555
Er33 I28 3.180887 1_555
Er33 I87 3.456235 1_555
Er34 I6 3.008769 1_545
Er34 I86 3.008769 1_545
Er34 I55 3.008769 1_555
Er34 I88 3.008769 1_555
Er34 I28 3.008769 1_545
Er34 I61 3.008769 1_555
Er35 I16 3.008769 1_444
Er35 I10 3.008769 1_444
Er35 I76 3.008769 1_444
Er35 I79 3.008769 1_555
Er35 I46 3.008769 1_555
Er35 I7 3.008769 1_555
Er36 I60 3.048537 1_555
Er36 I31 3.054008 1_555
Er36 I75 3.160802 1_555
Er36 I73 3.218602 1_555
Er36 I39 3.422076 1_555
Er37 I23 3.048537 1_555
Er37 I45 3.054008 1_555
Er37 I40 3.160802 1_555
Er37 I17 3.218602 1_556
Er37 I38 3.422076 1_555
Er38 I22 3.025436 1_555
Er38 I72 3.062481 1_455
Er38 I46 3.170426 1_555
Er38 I7 3.180887 1_555
Er38 I35 3.456235 1_455
Er39 I51 3.025436 1_555
Er39 I37 3.062481 1_555
Er39 I34 3.170426 1_555
Er39 I27 3.180887 1_555
Er39 I74 3.456235 1_555
Er40 I59 3.048537 1_555
Er40 I18 3.054008 1_555
Er40 I87 3.160802 1_555
Er40 I64 3.218602 1_655
Er40 I52 3.422076 1_555
Er41 I21 3.025436 1_555
Er41 I1 3.062481 1_565
Er41 I28 3.170426 1_555
Er41 I86 3.180887 1_555
Er41 I24 3.456235 1_565
Er42 I95 3.048537 1_555
Er42 I89 3.054008 1_555
Er42 I31 3.160802 1_555
Er42 I15 3.218602 1_555
Er42 I67 3.422076 1_555
Er43 I19 3.025436 1_555
Er43 I70 3.062481 1_545
Er43 I88 3.170426 1_555
Er43 I61 3.180887 1_555
Er43 I54 3.456235 1_545
Er44 I63 3.025436 1_555
Er44 I49 3.062481 1_555
Er44 I55 3.170426 1_555
Er44 I88 3.180887 1_555
Er44 I92 3.456235 1_555
Er45 I63 3.048537 1_555
Er45 I74 3.054008 1_555
Er45 I33 3.160802 1_555
Er45 I25 3.218602 1_555
Er45 I37 3.422076 1_555
Er46 I23 3.025436 1_555
Er46 I83 3.062481 1_555
Er46 I91 3.170426 1_555
Er46 I82 3.180887 1_555
Er46 I81 3.456235 1_555
Er47 I51 3.048537 1_555
Er47 I78 3.054008 1_555
Er47 I80 3.160802 1_555
Er47 I39 3.218602 1_655
Er47 I90 3.422076 1_555
Er48 I62 3.048537 1_555
Er48 I40 3.054008 1_555
Er48 I20 3.160802 1_555
Er48 I83 3.218602 1_555
Er48 I25 3.422076 1_555
Er49 I82 3.008769 1_554
Er49 I91 3.008769 1_554
Er49 I30 3.008769 1_555
Er49 I85 3.008769 1_555
Er49 I66 3.008769 1_555
Er49 I12 3.008769 1_554
Er50 I69 3.048537 1_555
Er50 I13 3.054008 1_555
Er50 I94 3.160802 1_555
Er50 I67 3.218602 1_555
Er50 I36 3.422076 1_555
Er51 I47 3.048537 1_555
Er51 I2 3.054008 1_555
Er51 I18 3.160802 1_555
Er51 I90 3.218602 1_556
Er51 I4 3.422076 1_555
Co0 Er46 2.597877 1_555
Co0 Er23 2.597877 1_555
Co0 Er22 2.597877 1_555
Co0 Er48 2.598153 1_555
Co0 Er30 2.598153 1_555
Co0 Er37 2.598153 1_555
Co1 Er31 2.597877 1_555
Co1 Er39 2.597877 1_555
Co1 Er29 2.597877 1_555
Co1 Er20 2.598153 1_555
Co1 Er10 2.598153 1_555
Co1 Er47 2.598153 1_555
Co2 Er12 2.597877 1_555
Co2 Er32 2.597877 1_555
Co2 Er7 2.597877 1_555
Co2 Er9 2.598153 1_555
Co2 Er40 2.598153 1_555
Co2 Er51 2.598153 1_555
Co3 Er44 2.597877 1_555
Co3 Er24 2.597877 1_555
Co3 Er43 2.597877 1_555
Co3 Er5 2.598153 1_555
Co3 Er45 2.598153 1_555
Co3 Er27 2.598153 1_555
Co4 Er33 2.597877 1_555
Co4 Er13 2.597877 1_555
Co4 Er41 2.597877 1_555
Co4 Er50 2.598153 1_555
Co4 Er1 2.598153 1_555
Co4 Er0 2.598153 1_555
Co5 Er4 2.597877 1_555
Co5 Er11 2.597877 1_555
Co5 Er16 2.597877 1_555
Co5 Er19 2.598153 1_555
Co5 Er42 2.598153 1_555
Co5 Er36 2.598153 1_555
Co6 Er8 2.597877 1_555
Co6 Er14 2.597877 1_555
Co6 Er21 2.597877 1_555
Co6 Er6 2.598153 1_555
Co6 Er26 2.598153 1_555
Co6 Er3 2.598153 1_555
Co7 Er28 2.597877 1_555
Co7 Er18 2.597877 1_555
Co7 Er38 2.597877 1_555
Co7 Er17 2.598153 1_555
Co7 Er2 2.598153 1_555
Co7 Er15 2.598153 1_555
