# generated using pymatgen
data_Zr2InPd2
_symmetry_space_group_name_H-M   'P 1'
_cell_length_a   8.01935600
_cell_length_b   8.01935600
_cell_length_c   7.25066000
_cell_angle_alpha   90.00000000
_cell_angle_beta   90.00000000
_cell_angle_gamma   90.00000000
_symmetry_Int_Tables_number   1
_chemical_formula_structural   Zr2InPd2
_chemical_formula_sum   'Zr8 In4 Pd8'
_cell_volume   466.29045689
_cell_formula_units_Z   4
loop_
 _symmetry_equiv_pos_site_id
 _symmetry_equiv_pos_as_xyz
  1  'x, y, z'
loop_
 _atom_site_type_symbol
 _atom_site_label
 _atom_site_symmetry_multiplicity
 _atom_site_fract_x
 _atom_site_fract_y
 _atom_site_fract_z
 _atom_site_occupancy
  Zr  Zr0  1  0.65742200  0.65742200  0.50000000  1
  Zr  Zr1  1  0.81448000  0.18552000  0.50000000  1
  Zr  Zr2  1  0.68552000  0.68552000  0.00000000  1
  Zr  Zr3  1  0.84257800  0.15742200  0.00000000  1
  Zr  Zr4  1  0.18552000  0.81448000  0.50000000  1
  Zr  Zr5  1  0.31448000  0.31448000  0.00000000  1
  Zr  Zr6  1  0.15742200  0.84257800  0.00000000  1
  Zr  Zr7  1  0.34257800  0.34257800  0.50000000  1
  In  In0  1  0.00000000  0.50000000  0.25000000  1
  In  In1  1  0.50000000  0.00000000  0.75000000  1
  In  In2  1  0.50000000  0.00000000  0.25000000  1
  In  In3  1  0.00000000  0.50000000  0.75000000  1
  Pd  Pd0  1  0.62801600  0.37198400  0.22053500  1
  Pd  Pd1  1  0.37198400  0.62801600  0.77946500  1
  Pd  Pd2  1  0.87198400  0.87198400  0.72053500  1
  Pd  Pd3  1  0.62801600  0.37198400  0.77946500  1
  Pd  Pd4  1  0.37198400  0.62801600  0.22053500  1
  Pd  Pd5  1  0.12801600  0.12801600  0.27946500  1
  Pd  Pd6  1  0.87198400  0.87198400  0.27946500  1
  Pd  Pd7  1  0.12801600  0.12801600  0.72053500  1
loop_
_geom_bond_atom_site_label_1
_geom_bond_atom_site_label_2
_geom_bond_distance
_geom_bond_site_symmetry_2
In0 Pd4 3.162006 1_555
In0 Pd6 3.162006 1_455
In0 Pd0 3.162006 1_455
In0 Pd5 3.162006 1_555
In0 Zr5 3.443730 1_555
In0 Zr1 3.443730 1_455
In0 Zr2 3.443730 1_455
In0 Zr4 3.443730 1_555
In0 Zr3 3.525177 1_455
In0 Zr6 3.525177 1_555
In0 Zr7 3.525177 1_555
In0 Zr0 3.525177 1_455
In1 Pd1 3.162006 1_545
In1 Pd3 3.162006 1_555
In1 Pd7 3.162006 1_555
In1 Pd2 3.162006 1_545
In1 Zr5 3.443730 1_556
In1 Zr4 3.443730 1_545
In1 Zr1 3.443730 1_555
In1 Zr2 3.443730 1_546
In1 Zr6 3.525177 1_546
In1 Zr3 3.525177 1_556
In1 Zr7 3.525177 1_555
In1 Zr0 3.525177 1_545
In2 Pd6 3.162006 1_545
In2 Pd4 3.162006 1_545
In2 Pd5 3.162006 1_555
In2 Pd0 3.162006 1_555
In2 Zr5 3.443730 1_555
In2 Zr4 3.443730 1_545
In2 Zr1 3.443730 1_555
In2 Zr2 3.443730 1_545
In2 Zr6 3.525177 1_545
In2 Zr3 3.525177 1_555
In2 Zr7 3.525177 1_555
In2 Zr0 3.525177 1_545
In3 Pd7 3.162006 1_555
In3 Pd2 3.162006 1_455
In3 Pd1 3.162006 1_555
In3 Pd3 3.162006 1_455
In3 Zr5 3.443730 1_556
In3 Zr1 3.443730 1_455
In3 Zr4 3.443730 1_555
In3 Zr2 3.443730 1_456
In3 Zr3 3.525177 1_456
In3 Zr7 3.525177 1_555
In3 Zr6 3.525177 1_556
In3 Zr0 3.525177 1_455
Pd0 Pd4 2.903680 1_555
Pd0 Zr3 2.911725 1_555
Pd0 Zr1 2.928803 1_555
Pd0 Zr5 3.015215 1_555
Pd0 Zr2 3.015215 1_555
Pd0 Zr0 3.066134 1_555
Pd0 Zr7 3.066134 1_555
Pd0 Pd3 3.198049 1_554
Pd1 Pd3 2.903680 1_555
Pd1 Zr6 2.911725 1_556
Pd1 Zr4 2.928803 1_555
Pd1 Zr5 3.015215 1_556
Pd1 Zr2 3.015215 1_556
Pd1 Zr0 3.066134 1_555
Pd1 Zr7 3.066134 1_555
Pd1 Pd4 3.198049 1_556
Pd2 Pd7 2.903680 1_665
Pd2 Zr0 2.911725 1_555
Pd2 Zr2 2.928803 1_556
Pd2 Zr4 3.015215 1_655
Pd2 Zr1 3.015215 1_565
Pd2 Zr6 3.066134 1_656
Pd2 Zr3 3.066134 1_566
Pd2 Pd6 3.198049 1_555
Pd3 Zr3 2.911725 1_556
Pd3 Zr1 2.928803 1_555
Pd3 Zr5 3.015215 1_556
Pd3 Zr2 3.015215 1_556
Pd3 Zr0 3.066134 1_555
Pd3 Zr7 3.066134 1_555
Pd4 Zr6 2.911725 1_555
Pd4 Zr4 2.928803 1_555
Pd4 Zr5 3.015215 1_555
Pd4 Zr2 3.015215 1_555
Pd4 Zr0 3.066134 1_555
Pd4 Zr7 3.066134 1_555
Pd5 Pd6 2.903680 1_445
Pd5 Zr7 2.911725 1_555
Pd5 Zr5 2.928803 1_555
Pd5 Zr4 3.015215 1_545
Pd5 Zr1 3.015215 1_455
Pd5 Zr6 3.066134 1_545
Pd5 Zr3 3.066134 1_455
Pd5 Pd7 3.198049 1_555
Pd6 Zr0 2.911725 1_555
Pd6 Zr2 2.928803 1_555
Pd6 Zr4 3.015215 1_655
Pd6 Zr1 3.015215 1_565
Pd6 Zr6 3.066134 1_655
Pd6 Zr3 3.066134 1_565
Pd7 Zr7 2.911725 1_555
Pd7 Zr5 2.928803 1_556
Pd7 Zr4 3.015215 1_545
Pd7 Zr1 3.015215 1_455
Pd7 Zr3 3.066134 1_456
Pd7 Zr6 3.066134 1_546
