# generated using pymatgen
data_Sr5La3Mn8(O2F)8
_symmetry_space_group_name_H-M   'P 1'
_cell_length_a   5.78299700
_cell_length_b   5.85185388
_cell_length_c   15.71062507
_cell_angle_alpha   90.02974199
_cell_angle_beta   90.29872623
_cell_angle_gamma   90.54720059
_symmetry_Int_Tables_number   1
_chemical_formula_structural   Sr5La3Mn8(O2F)8
_chemical_formula_sum   'Sr5 La3 Mn8 O16 F8'
_cell_volume   531.63568558
_cell_formula_units_Z   1
loop_
 _symmetry_equiv_pos_site_id
 _symmetry_equiv_pos_as_xyz
  1  'x, y, z'
loop_
 _atom_site_type_symbol
 _atom_site_label
 _atom_site_symmetry_multiplicity
 _atom_site_fract_x
 _atom_site_fract_y
 _atom_site_fract_z
 _atom_site_occupancy
  Sr  Sr0  1  0.98796600  0.50943300  0.87891200  1
  Sr  Sr1  1  0.99054700  0.49952500  0.37508400  1
  Sr  Sr2  1  0.53316900  0.00281200  0.61824700  1
  Sr  Sr3  1  0.50717500  0.00893300  0.12662100  1
  Sr  Sr4  1  0.51316300  0.99929100  0.88201300  1
  La  La0  1  0.45292200  0.01340000  0.38138800  1
  La  La1  1  0.96601800  0.49792100  0.61528300  1
  La  La2  1  0.01195600  0.49423400  0.12303000  1
  Mn  Mn0  1  0.99802800  0.00348600  0.99985900  1
  Mn  Mn1  1  0.98594200  0.01339400  0.49824800  1
  Mn  Mn2  1  0.51444500  0.51428100  0.74969800  1
  Mn  Mn3  1  0.50286000  0.49919500  0.25064500  1
  Mn  Mn4  1  0.49603100  0.50214600  0.00009200  1
  Mn  Mn5  1  0.50585100  0.49016700  0.49726100  1
  Mn  Mn6  1  0.99236600  0.98618600  0.74999300  1
  Mn  Mn7  1  0.00409200  0.99514300  0.25073500  1
  O  O0  1  0.97217400  0.09356700  0.62548700  1
  O  O1  1  0.99781200  0.08882900  0.12662800  1
  O  O2  1  0.76039600  0.27492200  0.98792300  1
  O  O3  1  0.71945200  0.23501200  0.47342400  1
  O  O4  1  0.77936600  0.74257400  0.51567400  1
  O  O5  1  0.78661400  0.72070700  0.72714400  1
  O  O6  1  0.79049600  0.70854800  0.22887400  1
  O  O7  1  0.50597500  0.57974700  0.87655700  1
  O  O8  1  0.47991200  0.59497500  0.37626100  1
  O  O9  1  0.47601100  0.42691200  0.12414100  1
  O  O10  1  0.53654300  0.42886800  0.62268600  1
  O  O11  1  0.22762800  0.25130200  0.48486900  1
  O  O12  1  0.24655600  0.25235000  0.27078900  1
  O  O13  1  0.22399300  0.72444700  0.02054000  1
  O  O14  1  0.04502100  0.92182100  0.37689000  1
  O  O15  1  0.99226000  0.93291600  0.87497300  1
  F  F0  1  0.73029500  0.23026900  0.77587600  1
  F  F1  1  0.72622400  0.21604500  0.27985200  1
  F  F2  1  0.73559400  0.76652400  0.02922000  1
  F  F3  1  0.25879700  0.23794000  0.97148000  1
  F  F4  1  0.23877900  0.26159900  0.76975400  1
  F  F5  1  0.26989600  0.75425000  0.52817400  1
  F  F6  1  0.26693700  0.76237500  0.71500700  1
  F  F7  1  0.27074100  0.76395400  0.22066700  1
loop_
_geom_bond_atom_site_label_1
_geom_bond_atom_site_label_2
_geom_bond_distance
_geom_bond_site_symmetry_2
La0 O14 2.414670 1_545
La0 O8 2.456325 1_545
La0 O3 2.466763 1_555
La0 O11 2.516558 1_555
La0 O12 2.532082 1_555
La1 O0 2.372322 1_555
La1 O4 2.382858 1_555
La1 O5 2.430432 1_555
La1 O10 2.515797 1_555
La1 O11 2.939471 1_655
La1 O3 3.047727 1_555
La2 O1 2.373712 1_455
La2 O13 2.429493 1_555
La2 O6 2.455387 1_455
La2 O9 2.716079 1_555
La2 O2 2.863256 1_454
La2 O12 3.039778 1_555
La2 O9 3.120712 1_455
Mn0 O15 2.004858 1_545
Mn0 O1 2.053040 1_556
Mn0 O2 2.118018 1_555
Mn0 O13 2.125183 1_646
Mn1 O11 1.975371 1_655
Mn1 O4 1.995338 1_545
Mn1 O14 2.012033 1_645
Mn1 O0 2.055205 1_555
Mn1 O3 2.059477 1_555
Mn2 O5 2.007991 1_555
Mn2 O7 2.030254 1_555
Mn2 O10 2.061740 1_555
Mn3 O9 2.036582 1_555
Mn3 O8 2.056572 1_555
Mn3 O12 2.085220 1_555
Mn3 O6 2.086194 1_555
Mn4 O7 1.994456 1_554
Mn4 O9 2.001915 1_555
Mn4 O2 2.045364 1_554
Mn4 O13 2.077099 1_555
Mn5 O3 1.983685 1_555
Mn5 O8 2.003099 1_555
Mn5 O10 2.010316 1_555
Mn5 O11 2.129322 1_555
Mn5 O4 2.171959 1_555
Mn6 O5 1.979342 1_555
Mn6 O15 1.988267 1_555
Mn6 O0 2.057909 1_565
Mn7 O1 2.025919 1_465
Mn7 O14 2.041146 1_555
Mn7 O12 2.070114 1_565
Mn7 O6 2.100441 1_455
O0 Sr2 2.590654 1_555
O2 Sr0 2.557299 1_555
O2 Sr4 2.709752 1_545
O2 Sr3 3.051003 1_556
O3 Sr1 2.687404 1_555
O3 Sr2 2.860852 1_555
O4 Sr2 2.646868 1_565
O4 Sr1 2.907065 1_555
O5 Sr2 2.797040 1_565
O5 Sr0 2.927669 1_555
O6 Sr1 2.848373 1_555
O6 Sr3 2.895790 1_565
O7 Sr4 2.456509 1_555
O7 Sr0 2.821499 1_555
O7 Sr0 3.020296 1_455
O8 Sr1 2.879316 1_455
O8 Sr1 3.010749 1_555
O9 Sr3 2.454613 1_555
O10 Sr2 2.494044 1_555
O11 Sr1 2.642078 1_455
O11 Sr2 3.105016 1_555
O12 Sr1 2.651904 1_455
O13 Sr0 2.886130 1_454
O14 Sr1 2.488355 1_455
O15 Sr0 2.478856 1_555
O15 Sr4 2.804126 1_555
O15 Sr4 3.035073 1_655
F0 Mn2 2.127090 1_555
F0 Mn6 2.132975 1_545
F0 Sr4 2.485138 1_545
F0 Sr0 2.726748 1_555
F0 Sr2 3.023606 1_555
F1 Mn7 2.123483 1_645
F1 Mn3 2.158717 1_555
F1 La0 2.537978 1_555
F1 Sr1 2.692966 1_555
F1 Sr3 2.967289 1_555
F2 Mn0 2.099207 1_564
F2 Mn4 2.115175 1_555
F2 Sr3 2.480601 1_565
F2 La2 2.700337 1_655
F3 Mn0 2.079282 1_455
F3 Mn4 2.104039 1_556
F3 Sr4 2.479633 1_545
F3 Sr0 2.668011 1_455
F3 La2 3.166799 1_556
F4 Mn6 2.162297 1_445
F4 Mn2 2.188106 1_555
F4 Sr0 2.685461 1_455
F4 Sr4 2.829248 1_545
F5 Mn5 2.128942 1_555
F5 Mn1 2.292924 1_465
F5 Sr2 2.523758 1_565
F5 La1 2.681034 1_455
F5 La0 2.955776 1_565
F6 Mn2 2.117995 1_555
F6 Mn6 2.141676 1_455
F6 Sr2 2.578026 1_565
F6 La1 2.792040 1_455
F7 Mn3 2.111402 1_555
F7 Mn7 2.116148 1_555
F7 Sr3 2.468512 1_565
F7 La2 2.648074 1_555
