# generated using pymatgen
data_FeHO2
_symmetry_space_group_name_H-M   'P 1'
_cell_length_a   11.24539920
_cell_length_b   5.73828598
_cell_length_c   11.81681303
_cell_angle_alpha   90.07233856
_cell_angle_beta   94.61382229
_cell_angle_gamma   89.07470234
_symmetry_Int_Tables_number   1
_chemical_formula_structural   FeHO2
_chemical_formula_sum   'Fe16 H16 O32'
_cell_volume   759.96077665
_cell_formula_units_Z   16
loop_
 _symmetry_equiv_pos_site_id
 _symmetry_equiv_pos_as_xyz
  1  'x, y, z'
loop_
 _atom_site_type_symbol
 _atom_site_label
 _atom_site_symmetry_multiplicity
 _atom_site_fract_x
 _atom_site_fract_y
 _atom_site_fract_z
 _atom_site_occupancy
  Fe  Fe0  1  0.34173300  0.02389800  0.09344400  1
  Fe  Fe1  1  0.15071700  0.99768300  0.65016800  1
  Fe  Fe2  1  0.84979500  0.20016500  0.56911300  1
  Fe  Fe3  1  0.67460300  0.25531300  0.12749300  1
  Fe  Fe4  1  0.66743100  0.03674200  0.85935900  1
  Fe  Fe5  1  0.86790900  0.97960800  0.30394000  1
  Fe  Fe6  1  0.17202700  0.21321100  0.38822100  1
  Fe  Fe7  1  0.37581800  0.22438700  0.81319200  1
  Fe  Fe8  1  0.34624900  0.51768600  0.10327700  1
  Fe  Fe9  1  0.15389000  0.47156100  0.65402300  1
  Fe  Fe10  1  0.85752600  0.74003100  0.57558100  1
  Fe  Fe11  1  0.72116600  0.76289200  0.12225100  1
  Fe  Fe12  1  0.66331000  0.51388000  0.86006300  1
  Fe  Fe13  1  0.88934500  0.50135100  0.30966400  1
  Fe  Fe14  1  0.17426800  0.70654400  0.39153100  1
  Fe  Fe15  1  0.34568000  0.76461200  0.81364200  1
  H  H0  1  0.02069400  0.97124000  0.45933200  1
  H  H1  1  0.37115000  0.96226000  0.60731200  1
  H  H2  1  0.75455700  0.43893800  0.69395600  1
  H  H3  1  0.92925700  0.22041000  0.12805700  1
  H  H4  1  0.71459200  0.89550900  0.68597800  1
  H  H5  1  0.62487100  0.98943400  0.30328800  1
  H  H6  1  0.48889300  0.28010900  0.01703300  1
  H  H7  1  0.23242500  0.32907700  0.22144100  1
  H  H8  1  0.36876300  0.47342700  0.62244300  1
  H  H9  1  0.22900700  0.46836900  0.91634000  1
  H  H10  1  0.52221900  0.79289400  0.93910900  1
  H  H11  1  0.00576400  0.47163300  0.51013500  1
  H  H12  1  0.65337100  0.45469200  0.31959700  1
  H  H13  1  0.19774200  0.77153800  0.18880000  1
  H  H14  1  0.51894700  0.70277200  0.20273600  1
  H  H15  1  0.11606900  0.83825900  0.84016300  1
  O  O0  1  0.26506800  0.95687400  0.35969200  1
  O  O1  1  0.04847600  0.96938500  0.38021900  1
  O  O2  1  0.33979900  0.99158700  0.68077300  1
  O  O3  1  0.34537800  0.00205500  0.93305600  1
  O  O4  1  0.76331300  0.27260700  0.82917200  1
  O  O5  1  0.54566100  0.26974400  0.84104300  1
  O  O6  1  0.87566100  0.23295800  0.18972100  1
  O  O7  1  0.83967400  0.22534000  0.40489900  1
  O  O8  1  0.73253300  0.95942200  0.61129400  1
  O  O9  1  0.98049900  0.97646500  0.60198200  1
  O  O10  1  0.67406600  0.00164200  0.23909000  1
  O  O11  1  0.68227000  0.02238900  0.01645200  1
  O  O12  1  0.23637900  0.28373000  0.14023700  1
  O  O13  1  0.47408200  0.28161100  0.09854900  1
  O  O14  1  0.14650700  0.23962100  0.75698600  1
  O  O15  1  0.17314200  0.22795300  0.54247000  1
  O  O16  1  0.27127400  0.45638600  0.36057700  1
  O  O17  1  0.05536000  0.47196200  0.36853700  1
  O  O18  1  0.33480300  0.48424000  0.69611300  1
  O  O19  1  0.31558100  0.49179000  0.92629000  1
  O  O20  1  0.75272000  0.76843500  0.83415200  1
  O  O21  1  0.53496500  0.76564700  0.85843100  1
  O  O22  1  0.88214100  0.75091400  0.19063600  1
  O  O23  1  0.83683200  0.75318300  0.41107400  1
  O  O24  1  0.75216300  0.47346300  0.61148900  1
  O  O25  1  0.98195900  0.47625500  0.59032700  1
  O  O26  1  0.66932500  0.49799100  0.24247500  1
  O  O27  1  0.68231100  0.49793400  0.02644800  1
  O  O28  1  0.22893700  0.75839800  0.11321700  1
  O  O29  1  0.45640100  0.75534900  0.14467700  1
  O  O30  1  0.15778000  0.77205300  0.77751100  1
  O  O31  1  0.17677200  0.72916500  0.55856000  1
loop_
_geom_bond_atom_site_label_1
_geom_bond_atom_site_label_2
_geom_bond_distance
_geom_bond_site_symmetry_2
Fe0 O3 1.902943 1_554
Fe0 O12 1.994664 1_555
Fe0 O28 2.023763 1_545
Fe0 O29 2.053436 1_545
Fe0 O13 2.112365 1_555
Fe1 O15 1.869718 1_565
Fe1 O14 1.877760 1_565
Fe1 O31 1.914180 1_555
Fe1 O9 1.958340 1_455
Fe1 O30 1.982269 1_555
Fe1 O2 2.127697 1_555
Fe2 O7 1.940092 1_555
Fe2 O9 1.951275 1_545
Fe2 O24 1.986569 1_555
Fe2 O8 2.015448 1_545
Fe2 O25 2.190160 1_555
Fe3 O27 1.842896 1_555
Fe3 O11 1.877680 1_555
Fe3 O26 1.947918 1_555
Fe3 O10 1.965795 1_555
Fe3 O13 2.256007 1_555
Fe3 O6 2.322195 1_555
Fe4 O4 1.797752 1_555
Fe4 O20 1.837433 1_545
Fe4 O11 1.852223 1_556
Fe4 O5 1.898300 1_555
Fe4 O21 2.170542 1_545
Fe5 O23 1.871630 1_555
Fe5 O7 1.885380 1_565
Fe5 O22 1.887766 1_555
Fe5 O6 1.992686 1_565
Fe5 O1 2.154269 1_655
Fe5 O10 2.253341 1_565
Fe6 O15 1.823632 1_555
Fe6 O0 1.837878 1_545
Fe6 O16 1.846508 1_555
Fe6 O17 1.966931 1_555
Fe6 O1 1.984499 1_545
Fe7 O5 1.933568 1_555
Fe7 O3 1.961566 1_555
Fe7 O18 2.056832 1_555
Fe7 O2 2.075418 1_545
Fe7 O19 2.169415 1_555
Fe7 O14 2.610701 1_555
Fe8 O29 1.894464 1_555
Fe8 O28 1.904658 1_555
Fe8 O12 1.913499 1_555
Fe8 O13 1.963308 1_555
Fe8 O19 2.097594 1_554
Fe9 O14 1.811779 1_555
Fe9 O31 1.893947 1_555
Fe9 O15 1.941678 1_555
Fe9 O25 2.017342 1_455
Fe9 O18 2.057550 1_555
Fe9 O30 2.256177 1_555
Fe10 O23 1.940570 1_555
Fe10 O8 1.943099 1_555
Fe10 O9 1.959723 1_555
Fe10 O24 2.016130 1_555
Fe10 O25 2.042666 1_555
Fe11 O22 1.922355 1_555
Fe11 O27 1.929170 1_555
Fe11 O11 1.966558 1_565
Fe11 O10 2.037928 1_565
Fe11 O26 2.199113 1_555
Fe12 O4 1.824614 1_555
Fe12 O20 1.826594 1_555
Fe12 O5 1.942854 1_555
Fe12 O27 1.962644 1_556
Fe12 O21 2.024573 1_555
Fe13 O17 1.943950 1_655
Fe13 O23 1.988701 1_555
Fe13 O22 2.004672 1_555
Fe13 O7 2.054553 1_555
Fe13 O6 2.090826 1_555
Fe14 O0 1.832522 1_555
Fe14 O16 1.843009 1_555
Fe14 O17 1.916400 1_555
Fe14 O31 1.975820 1_555
Fe14 O1 2.048152 1_555
Fe15 O3 1.960462 1_565
Fe15 O2 2.037547 1_555
Fe15 O19 2.105290 1_555
Fe15 O30 2.121537 1_555
Fe15 O18 2.122634 1_555
Fe15 O21 2.151787 1_555
H0 O1 1.009230 1_555
H1 O2 0.976279 1_555
H2 O24 0.992831 1_555
H3 O6 0.984137 1_555
H4 O8 0.992933 1_555
H5 O10 0.977424 1_565
H6 O13 0.990670 1_555
H7 O12 0.998162 1_555
H8 O18 0.979859 1_555
H9 O19 0.982586 1_555
H10 O21 0.987301 1_555
H11 O25 1.005413 1_455
H12 O26 0.976100 1_555
H13 O28 0.987849 1_555
H14 O29 0.986136 1_555
H15 O30 0.980745 1_555
