# generated using pymatgen
data_BaNa5Ca7P6(O8F)3
_symmetry_space_group_name_H-M   'P 1'
_cell_length_a   7.14595300
_cell_length_b   12.39156131
_cell_length_c   14.44894999
_cell_angle_alpha   98.33917910
_cell_angle_beta   104.15997043
_cell_angle_gamma   89.89127189
_symmetry_Int_Tables_number   1
_chemical_formula_structural   BaNa5Ca7P6(O8F)3
_chemical_formula_sum   'Ba2 Na10 Ca14 P12 O48 F6'
_cell_volume   1226.70441419
_cell_formula_units_Z   2
loop_
 _symmetry_equiv_pos_site_id
 _symmetry_equiv_pos_as_xyz
  1  'x, y, z'
loop_
 _atom_site_type_symbol
 _atom_site_label
 _atom_site_symmetry_multiplicity
 _atom_site_fract_x
 _atom_site_fract_y
 _atom_site_fract_z
 _atom_site_occupancy
  Ba  Ba0  1  0.99836400  0.99976700  0.99740100  1
  Ba  Ba1  1  0.50146500  0.50007000  0.00269900  1
  Na  Na0  1  0.71104400  0.39515800  0.41415200  1
  Na  Na1  1  0.94443400  0.15745800  0.41517000  1
  Na  Na2  1  0.02432200  0.33957200  0.58642100  1
  Na  Na3  1  0.56680900  0.34440800  0.59215300  1
  Na  Na4  1  0.80332300  0.10776400  0.59165400  1
  Na  Na5  1  0.44324200  0.66047200  0.40786700  1
  Na  Na6  1  0.20515900  0.88931400  0.41437300  1
  Na  Na7  1  0.96463700  0.66045100  0.40794100  1
  Na  Na8  1  0.53014300  0.84676300  0.58489900  1
  Na  Na9  1  0.05497200  0.84709000  0.58482100  1
  Ca  Ca0  1  0.83631300  0.28001600  0.18825400  1
  Ca  Ca1  1  0.35108700  0.28099200  0.18493500  1
  Ca  Ca2  1  0.59510000  0.03472800  0.18505300  1
  Ca  Ca3  1  0.47178900  0.15653500  0.41404300  1
  Ca  Ca4  1  0.14787500  0.22009700  0.81072200  1
  Ca  Ca5  1  0.90632500  0.46337600  0.81208200  1
  Ca  Ca6  1  0.66504700  0.22038100  0.81244800  1
  Ca  Ca7  1  0.33794200  0.77846400  0.18924700  1
  Ca  Ca8  1  0.09367400  0.53717500  0.18726500  1
  Ca  Ca9  1  0.85137100  0.77830200  0.18917700  1
  Ca  Ca10  1  0.29359600  0.60835900  0.58712000  1
  Ca  Ca11  1  0.65299700  0.72377500  0.81537400  1
  Ca  Ca12  1  0.40555700  0.96435300  0.81052600  1
  Ca  Ca13  1  0.16232100  0.72379800  0.81539000  1
  P  P0  1  0.12478500  0.04184900  0.25079700  1
  P  P1  1  0.30983400  0.10330700  0.62026900  1
  P  P2  1  0.48633200  0.16234300  0.97263600  1
  P  P3  1  0.62536100  0.54128000  0.25068000  1
  P  P4  1  0.81152000  0.60202400  0.62298400  1
  P  P5  1  0.98633400  0.66166700  0.97280200  1
  P  P6  1  0.01340500  0.33785400  0.02729500  1
  P  P7  1  0.18883500  0.39529700  0.37942700  1
  P  P8  1  0.37418200  0.45818600  0.74899700  1
  P  P9  1  0.51356800  0.83775700  0.02726800  1
  P  P10  1  0.68674400  0.89638400  0.37727200  1
  P  P11  1  0.87466800  0.95769600  0.74953100  1
  O  O0  1  0.18149400  0.06031500  0.36285600  1
  O  O1  1  0.37331200  0.12467500  0.73612000  1
  O  O2  1  0.64080000  0.09665200  0.93098700  1
  O  O3  1  0.46547100  0.27219500  0.93124500  1
  O  O4  1  0.29065600  0.09693300  0.93100900  1
  O  O5  1  0.54289900  0.18114800  0.08554400  1
  O  O6  1  0.60616900  0.41599100  0.21175900  1
  O  O7  1  0.92897800  0.09520200  0.21264900  1
  O  O8  1  0.28930300  0.09692000  0.21714200  1
  O  O9  1  0.68076300  0.56026600  0.36160100  1
  O  O10  1  0.02389000  0.34054500  0.40918700  1
  O  O11  1  0.38334800  0.33752700  0.40859700  1
  O  O12  1  0.69785700  0.02254800  0.40781800  1
  O  O13  1  0.79569500  0.47768400  0.59100800  1
  O  O14  1  0.11544300  0.15890100  0.59112500  1
  O  O15  1  0.47033800  0.15670400  0.58361500  1
  O  O16  1  0.86922100  0.62347600  0.73843600  1
  O  O17  1  0.21658000  0.40592000  0.78754300  1
  O  O18  1  0.57062200  0.40578900  0.78712000  1
  O  O19  1  0.89430900  0.08282600  0.78854700  1
  O  O20  1  0.96550200  0.77169000  0.93134200  1
  O  O21  1  0.14101400  0.59659300  0.93061200  1
  O  O22  1  0.95760600  0.31894100  0.91473300  1
  O  O23  1  0.79000000  0.59679900  0.93079700  1
  O  O24  1  0.20933700  0.40322200  0.06886500  1
  O  O25  1  0.04246100  0.68078700  0.08522600  1
  O  O26  1  0.03494900  0.22826700  0.06934100  1
  O  O27  1  0.85917600  0.40327200  0.06937900  1
  O  O28  1  0.10597800  0.91764900  0.21200400  1
  O  O29  1  0.42795000  0.59410800  0.21179200  1
  O  O30  1  0.78400700  0.59410400  0.21181000  1
  O  O31  1  0.13282100  0.38075900  0.26399700  1
  O  O32  1  0.52304800  0.84228400  0.40853200  1
  O  O33  1  0.88346900  0.84417600  0.40886100  1
  O  O34  1  0.21145900  0.51977200  0.41711200  1
  O  O35  1  0.29613300  0.97834600  0.59132700  1
  O  O36  1  0.61489300  0.65663000  0.59142600  1
  O  O37  1  0.97633500  0.65646100  0.59111300  1
  O  O38  1  0.31827500  0.43966600  0.63682500  1
  O  O39  1  0.71587200  0.90508300  0.78860700  1
  O  O40  1  0.07263500  0.90511900  0.78840700  1
  O  O41  1  0.39109300  0.58486600  0.78239200  1
  O  O42  1  0.45724200  0.81932800  0.91444400  1
  O  O43  1  0.70962000  0.90294000  0.06852300  1
  O  O44  1  0.35893500  0.90347800  0.06892800  1
  O  O45  1  0.53440100  0.72798000  0.06877000  1
  O  O46  1  0.63074600  0.87721200  0.26143700  1
  O  O47  1  0.81926700  0.93967600  0.63864800  1
  F  F0  1  0.63401800  0.21122400  0.28521400  1
  F  F1  1  0.74354400  0.24811500  0.49846400  1
  F  F2  1  0.85869100  0.28683000  0.71900900  1
  F  F3  1  0.14026300  0.71304800  0.28117100  1
  F  F4  1  0.25035300  0.74599300  0.50137600  1
  F  F5  1  0.35728300  0.77908400  0.71446000  1
loop_
_geom_bond_atom_site_label_1
_geom_bond_atom_site_label_2
_geom_bond_distance
_geom_bond_site_symmetry_2
Ba0 O2 2.830867 1_565
Ba0 O4 2.838581 1_665
Ba0 O20 2.839743 1_555
Ba0 O43 2.856139 1_556
Ba0 O44 2.859005 1_656
Ba0 O26 2.860452 1_666
Ba1 O27 2.831911 1_555
Ba1 O24 2.833861 1_555
Ba1 O45 2.837815 1_555
Ba1 O3 2.851791 1_554
Ba1 O23 2.861102 1_554
Ba1 O21 2.861311 1_554
Na0 O9 2.275481 1_555
Na0 O10 2.349382 1_655
Na0 O11 2.428530 1_555
Na0 O13 2.535690 1_555
Na0 O6 2.885513 1_555
Na1 O0 2.290175 1_655
Na1 O10 2.358560 1_655
Na1 O12 2.403924 1_555
Na1 O14 2.534586 1_655
Na1 O7 2.890928 1_555
Na2 O14 2.336187 1_555
Na2 O38 2.341068 1_555
Na2 O13 2.368964 1_455
Na2 O10 2.561869 1_555
Na2 O17 2.892440 1_555
Na3 O38 2.301322 1_555
Na3 O13 2.331169 1_555
Na3 O15 2.404522 1_555
Na3 O11 2.644575 1_555
Na3 O18 2.802882 1_555
Na4 O47 2.276815 1_545
Na4 O14 2.321931 1_655
Na4 O15 2.433720 1_555
Na4 O12 2.636024 1_555
Na4 O19 2.821512 1_555
Na5 O9 2.275074 1_555
Na5 O32 2.323134 1_555
Na5 O34 2.446986 1_555
Na5 O36 2.643086 1_555
Na5 O29 2.808490 1_555
Na6 O0 2.338222 1_565
Na6 O33 2.346481 1_455
Na6 O32 2.362523 1_555
Na6 O35 2.558961 1_555
Na6 O28 2.908335 1_555
Na7 O9 2.282200 1_555
Na7 O33 2.347269 1_555
Na7 O34 2.471501 1_655
Na7 O37 2.635118 1_555
Na7 O30 2.812735 1_555
Na8 O47 2.271997 1_555
Na8 O35 2.342064 1_555
Na8 O36 2.440842 1_555
Na8 O32 2.528902 1_555
Na8 O39 2.902158 1_555
Na9 O47 2.265591 1_455
Na9 O35 2.347575 1_555
Na9 O37 2.448736 1_455
Na9 O33 2.533047 1_455
Na9 O40 2.896750 1_555
Ca0 O31 2.392657 1_655
Ca0 O6 2.399134 1_555
Ca0 O7 2.433441 1_555
Ca0 O5 2.461617 1_555
Ca0 F0 2.474076 1_555
Ca0 O27 2.491757 1_555
Ca0 O26 2.499662 1_655
Ca1 O31 2.391831 1_555
Ca1 O6 2.397730 1_555
Ca1 F0 2.420326 1_555
Ca1 O5 2.431689 1_555
Ca1 O8 2.454874 1_555
Ca1 O24 2.456133 1_555
Ca1 O26 2.482547 1_555
Ca2 O46 2.361820 1_545
Ca2 F0 2.417088 1_555
Ca2 O7 2.422316 1_555
Ca2 O8 2.443297 1_555
Ca2 O5 2.447465 1_555
Ca2 O43 2.458262 1_545
Ca2 O44 2.478300 1_545
Ca3 F1 2.234898 1_555
Ca3 O0 2.296705 1_555
Ca3 O12 2.322080 1_555
Ca3 O11 2.336049 1_555
Ca3 O15 2.452392 1_555
Ca3 F0 2.587052 1_555
Ca3 O8 2.814107 1_555
Ca4 O1 2.372321 1_555
Ca4 F2 2.383656 1_455
Ca4 O19 2.418443 1_455
Ca4 O17 2.442085 1_555
Ca4 O22 2.463108 1_455
Ca4 O4 2.507370 1_555
Ca4 O3 2.519106 1_555
Ca5 O16 2.368703 1_555
Ca5 F2 2.373985 1_555
Ca5 O17 2.419378 1_655
Ca5 O18 2.429532 1_555
Ca5 O22 2.457449 1_555
Ca5 O23 2.497301 1_555
Ca5 O21 2.501183 1_655
Ca6 O1 2.339649 1_555
Ca6 F2 2.378321 1_555
Ca6 O19 2.409177 1_555
Ca6 O18 2.446404 1_555
Ca6 O22 2.453757 1_555
Ca6 O2 2.494431 1_555
Ca6 O3 2.503411 1_555
Ca7 O46 2.352652 1_555
Ca7 F3 2.377241 1_555
Ca7 O29 2.417919 1_555
Ca7 O28 2.433464 1_555
Ca7 O25 2.472188 1_555
Ca7 O45 2.503792 1_555
Ca7 O44 2.520765 1_555
Ca8 O31 2.352394 1_555
Ca8 F3 2.371793 1_555
Ca8 O30 2.413642 1_455
Ca8 O29 2.418468 1_555
Ca8 O25 2.443184 1_555
Ca8 O24 2.495587 1_555
Ca8 O27 2.501352 1_455
Ca9 O46 2.346220 1_555
Ca9 F3 2.375986 1_655
Ca9 O30 2.417889 1_555
Ca9 O28 2.440030 1_655
Ca9 O25 2.459978 1_655
Ca9 O45 2.511719 1_555
Ca9 O43 2.522236 1_555
Ca10 F4 2.227714 1_555
Ca10 O38 2.299704 1_555
Ca10 O37 2.355291 1_455
Ca10 O36 2.357473 1_555
Ca10 O34 2.469508 1_555
Ca10 F5 2.555955 1_555
Ca10 O41 2.794029 1_555
Ca11 O16 2.366489 1_555
Ca11 O39 2.395821 1_555
Ca11 F5 2.416214 1_555
Ca11 O42 2.426853 1_555
Ca11 O41 2.455729 1_555
Ca11 O20 2.456186 1_555
Ca11 O23 2.484349 1_555
Ca12 O1 2.377443 1_565
Ca12 O39 2.413910 1_555
Ca12 O40 2.422259 1_555
Ca12 O42 2.475742 1_555
Ca12 F5 2.482067 1_555
Ca12 O4 2.503677 1_565
Ca12 O2 2.508824 1_565
Ca13 O16 2.374469 1_455
Ca13 O40 2.395300 1_555
Ca13 F5 2.413402 1_555
Ca13 O42 2.435879 1_555
Ca13 O41 2.448736 1_555
Ca13 O20 2.449191 1_455
Ca13 O21 2.483066 1_555
O0 P0 1.552430 1_555
O1 P1 1.605705 1_555
O2 P2 1.556496 1_555
O3 P2 1.557117 1_555
O4 P2 1.557355 1_555
O5 P2 1.564166 1_554
O6 P3 1.566915 1_555
O7 P0 1.556790 1_655
O8 P0 1.569487 1_555
O9 P3 1.536637 1_555
O10 P7 1.539531 1_555
O11 P7 1.555396 1_555
O12 P10 1.558333 1_545
O13 P4 1.539098 1_555
O14 P1 1.541378 1_555
O15 P1 1.560617 1_555
O16 P4 1.599593 1_555
O17 P8 1.553158 1_555
O18 P8 1.554822 1_555
O19 P11 1.565341 1_545
O20 P5 1.559573 1_555
O21 P5 1.557984 1_455
O22 P6 1.559361 1_656
O23 P5 1.558534 1_555
O24 P6 1.558510 1_555
O25 P5 1.557455 1_454
O26 P6 1.558707 1_555
O27 P6 1.556611 1_655
O28 P0 1.553887 1_565
O29 P3 1.565142 1_555
O30 P3 1.565275 1_555
O31 P7 1.600270 1_555
O32 P10 1.539831 1_555
O33 P10 1.539924 1_555
O34 P7 1.554350 1_555
O35 P1 1.541075 1_565
O36 P4 1.553213 1_555
O37 P4 1.553283 1_555
O38 P8 1.553968 1_555
O39 P11 1.566693 1_555
O40 P11 1.566887 1_455
O41 P8 1.569735 1_555
O42 P9 1.563012 1_556
O43 P9 1.557731 1_555
O44 P9 1.557692 1_555
O45 P9 1.557036 1_555
O46 P10 1.604732 1_555
O47 P11 1.536129 1_555
F0 Na1 2.685076 1_555
F0 Na0 2.690734 1_555
F1 Na3 2.283315 1_555
F1 Na1 2.284346 1_555
F1 Na2 2.295327 1_655
F1 Na0 2.315567 1_555
F1 Na4 2.327074 1_555
F2 Na3 2.592754 1_555
F2 Na4 2.632295 1_555
F2 Na2 2.640767 1_655
F3 Na7 2.613246 1_455
F3 Na5 2.620042 1_555
F3 Na6 2.652889 1_555
F4 Na6 2.299013 1_555
F4 Na5 2.310575 1_555
F4 Na9 2.313276 1_555
F4 Na7 2.315020 1_455
F4 Na8 2.324857 1_555
F5 Na8 2.706350 1_555
F5 Na9 2.712354 1_555
