# generated using pymatgen
data_LiCr4(PO4)3
_symmetry_space_group_name_H-M   'P 1'
_cell_length_a   8.89522520
_cell_length_b   8.89522520
_cell_length_c   7.35476496
_cell_angle_alpha   68.52523817
_cell_angle_beta   68.52523817
_cell_angle_gamma   90.13795901
_symmetry_Int_Tables_number   1
_chemical_formula_structural   LiCr4(PO4)3
_chemical_formula_sum   'Li2 Cr8 P6 O24'
_cell_volume   497.65844872
_cell_formula_units_Z   2
loop_
 _symmetry_equiv_pos_site_id
 _symmetry_equiv_pos_as_xyz
  1  'x, y, z'
loop_
 _atom_site_type_symbol
 _atom_site_label
 _atom_site_symmetry_multiplicity
 _atom_site_fract_x
 _atom_site_fract_y
 _atom_site_fract_z
 _atom_site_occupancy
  Li  Li0  1  0.99376800  0.00623200  0.25000000  1
  Li  Li1  1  0.00623200  0.99376800  0.75000000  1
  Cr  Cr0  1  0.38607100  0.06091300  0.84899900  1
  Cr  Cr1  1  0.26685200  0.73314800  0.75000000  1
  Cr  Cr2  1  0.06091300  0.38607100  0.34899900  1
  Cr  Cr3  1  0.50693000  0.49307000  0.75000000  1
  Cr  Cr4  1  0.49307000  0.50693000  0.25000000  1
  Cr  Cr5  1  0.61392900  0.93908700  0.15100100  1
  Cr  Cr6  1  0.73314800  0.26685200  0.25000000  1
  Cr  Cr7  1  0.93908700  0.61392900  0.65100100  1
  P  P0  1  0.11630000  0.33674300  0.89063800  1
  P  P1  1  0.33674300  0.11630000  0.39063800  1
  P  P2  1  0.27801400  0.72198600  0.25000000  1
  P  P3  1  0.88370000  0.66325700  0.10936200  1
  P  P4  1  0.72198600  0.27801400  0.75000000  1
  P  P5  1  0.66325700  0.88370000  0.60936200  1
  O  O0  1  0.40503900  0.04835600  0.21858400  1
  O  O1  1  0.83291500  0.25418000  0.55180700  1
  O  O2  1  0.74038300  0.52678800  0.15827000  1
  O  O3  1  0.47321200  0.25961700  0.34173000  1
  O  O4  1  0.73294000  0.45930000  0.74164200  1
  O  O5  1  0.70020900  0.01475100  0.38164200  1
  O  O6  1  0.01475100  0.70020900  0.88164200  1
  O  O7  1  0.98524900  0.29979100  0.11835800  1
  O  O8  1  0.45930000  0.73294000  0.24164200  1
  O  O9  1  0.26706000  0.54070000  0.25835800  1
  O  O10  1  0.52678800  0.74038300  0.65827000  1
  O  O11  1  0.82296800  0.82836200  0.09632700  1
  O  O12  1  0.17703200  0.17163800  0.90367300  1
  O  O13  1  0.04835600  0.40503900  0.71858400  1
  O  O14  1  0.95164400  0.59496100  0.28141600  1
  O  O15  1  0.82836200  0.82296800  0.59632700  1
  O  O16  1  0.29979100  0.98524900  0.61835800  1
  O  O17  1  0.16708500  0.74582000  0.44819300  1
  O  O18  1  0.54070000  0.26706000  0.75835800  1
  O  O19  1  0.17163800  0.17703200  0.40367300  1
  O  O20  1  0.74582000  0.16708500  0.94819300  1
  O  O21  1  0.25418000  0.83291500  0.05180700  1
  O  O22  1  0.25961700  0.47321200  0.84173000  1
  O  O23  1  0.59496100  0.95164400  0.78141600  1
loop_
_geom_bond_atom_site_label_1
_geom_bond_atom_site_label_2
_geom_bond_distance
_geom_bond_site_symmetry_2
Li0 O15 2.348290 1_545
Li0 O12 2.348290 1_654
Li0 O7 2.442426 1_555
Li0 O5 2.442426 1_555
Li1 O11 2.348290 1_456
Li1 O19 2.348290 1_565
Li1 O16 2.442426 1_555
Li1 O6 2.442426 1_555
Cr0 O18 2.029848 1_555
Cr0 O21 2.051041 1_546
Cr0 O23 2.081013 1_545
Cr0 O12 2.083426 1_555
Cr0 O16 2.388755 1_545
Cr1 O6 2.061909 1_555
Cr1 O16 2.061909 1_555
Cr1 O22 2.151943 1_555
Cr1 O10 2.151943 1_555
Cr1 O17 2.643299 1_555
Cr1 O21 2.643299 1_556
Cr2 O9 2.029848 1_555
Cr2 O1 2.051041 1_455
Cr2 O14 2.081013 1_455
Cr2 O19 2.083426 1_555
Cr2 O7 2.388755 1_455
Cr3 O18 2.015367 1_555
Cr3 O4 2.015367 1_555
Cr3 O10 2.037186 1_555
Cr3 O22 2.037186 1_555
Cr4 O9 2.015367 1_555
Cr4 O8 2.015367 1_555
Cr4 O2 2.037186 1_555
Cr4 O3 2.037186 1_555
Cr5 O8 2.029848 1_555
Cr5 O20 2.051041 1_564
Cr5 O0 2.081013 1_565
Cr5 O11 2.083426 1_555
Cr5 O5 2.388755 1_565
Cr6 O5 2.061909 1_555
Cr6 O7 2.061909 1_555
Cr6 O2 2.151943 1_555
Cr6 O3 2.151943 1_555
Cr6 O1 2.643299 1_555
Cr6 O20 2.643299 1_554
Cr7 O4 2.029848 1_555
Cr7 O17 2.051041 1_655
Cr7 O13 2.081013 1_655
Cr7 O15 2.083426 1_555
Cr7 O6 2.388755 1_655
O0 P1 1.527902 1_555
O1 P4 1.522347 1_555
O2 P3 1.601651 1_555
O3 P1 1.601651 1_555
O4 P4 1.592471 1_555
O5 P5 1.561276 1_545
O6 P3 1.561276 1_456
O7 P0 1.561276 1_654
O8 P2 1.592471 1_555
O9 P2 1.592471 1_555
O10 P5 1.601651 1_555
O11 P3 1.548098 1_555
O12 P0 1.548098 1_555
O13 P0 1.527902 1_555
O14 P3 1.527902 1_555
O15 P5 1.548098 1_555
O16 P1 1.561276 1_565
O17 P2 1.522347 1_555
O18 P4 1.592471 1_555
O19 P1 1.548098 1_555
O20 P4 1.522347 1_555
O21 P2 1.522347 1_555
O22 P0 1.601651 1_555
O23 P5 1.527902 1_555
