# generated using pymatgen
data_Cu2SnTe3
_symmetry_space_group_name_H-M   'P 1'
_cell_length_a   7.54392993
_cell_length_b   7.54392993
_cell_length_c   7.56374850
_cell_angle_alpha   80.31709408
_cell_angle_beta   80.31709408
_cell_angle_gamma   119.91863318
_symmetry_Int_Tables_number   1
_chemical_formula_structural   Cu2SnTe3
_chemical_formula_sum   'Cu4 Sn2 Te6'
_cell_volume   351.40624645
_cell_formula_units_Z   2
loop_
 _symmetry_equiv_pos_site_id
 _symmetry_equiv_pos_as_xyz
  1  'x, y, z'
loop_
 _atom_site_type_symbol
 _atom_site_label
 _atom_site_symmetry_multiplicity
 _atom_site_fract_x
 _atom_site_fract_y
 _atom_site_fract_z
 _atom_site_occupancy
  Cu  Cu0  1  0.98943500  0.15442200  0.00341600  1
  Cu  Cu1  1  0.33407200  0.83611000  0.00203800  1
  Cu  Cu2  1  0.15442200  0.98943500  0.50341600  1
  Cu  Cu3  1  0.83611000  0.33407200  0.50203800  1
  Sn  Sn0  1  0.68061800  0.50108900  0.98849400  1
  Sn  Sn1  1  0.50108900  0.68061800  0.48849400  1
  Te  Te0  1  0.34053300  0.53185400  0.89109300  1
  Te  Te1  1  0.07172600  0.90233500  0.86733500  1
  Te  Te2  1  0.90233500  0.07172600  0.36733500  1
  Te  Te3  1  0.71001300  0.18149300  0.86421900  1
  Te  Te4  1  0.53185400  0.34053300  0.39109300  1
  Te  Te5  1  0.18149300  0.71001300  0.36421900  1
loop_
_geom_bond_atom_site_label_1
_geom_bond_atom_site_label_2
_geom_bond_distance
_geom_bond_site_symmetry_2
Cu0 Te1 2.585066 1_644
Cu0 Te3 2.587910 1_554
Cu0 Te0 2.598209 1_654
Cu0 Te2 2.608203 1_555
Cu1 Te3 2.576689 1_564
Cu1 Te1 2.588049 1_554
Cu1 Te5 2.589361 1_555
Cu1 Te0 2.592426 1_554
Cu2 Te2 2.585066 1_465
Cu2 Te5 2.587910 1_555
Cu2 Te4 2.598209 1_565
Cu2 Te1 2.608203 1_555
Cu3 Te5 2.576689 1_655
Cu3 Te2 2.588049 1_555
Cu3 Te3 2.589361 1_555
Cu3 Te4 2.592426 1_555
Sn0 Te1 2.820639 1_655
Sn0 Te3 2.823349 1_555
Sn0 Te4 2.872842 1_556
Sn0 Te0 2.889823 1_555
Sn1 Te2 2.820639 1_565
Sn1 Te5 2.823349 1_555
Sn1 Te0 2.872842 1_555
Sn1 Te4 2.889823 1_555
