# generated using pymatgen
data_CuBi5PbS9
_symmetry_space_group_name_H-M   'P 1'
_cell_length_a   4.03917800
_cell_length_b   11.68887800
_cell_length_c   33.57033500
_cell_angle_alpha   90.00000000
_cell_angle_beta   90.00000000
_cell_angle_gamma   90.00000000
_symmetry_Int_Tables_number   1
_chemical_formula_structural   CuBi5PbS9
_chemical_formula_sum   'Cu4 Bi20 Pb4 S36'
_cell_volume   1584.97163052
_cell_formula_units_Z   4
loop_
 _symmetry_equiv_pos_site_id
 _symmetry_equiv_pos_as_xyz
  1  'x, y, z'
loop_
 _atom_site_type_symbol
 _atom_site_label
 _atom_site_symmetry_multiplicity
 _atom_site_fract_x
 _atom_site_fract_y
 _atom_site_fract_z
 _atom_site_occupancy
  Cu  Cu0  1  0.75000000  0.77884400  0.73797400  1
  Cu  Cu1  1  0.75000000  0.27884400  0.76202600  1
  Cu  Cu2  1  0.25000000  0.22115600  0.26202600  1
  Cu  Cu3  1  0.25000000  0.72115600  0.23797400  1
  Bi  Bi0  1  0.75000000  0.14958600  0.34532100  1
  Bi  Bi1  1  0.25000000  0.84247500  0.98723400  1
  Bi  Bi2  1  0.75000000  0.64958600  0.15467900  1
  Bi  Bi3  1  0.25000000  0.34247500  0.51276600  1
  Bi  Bi4  1  0.25000000  0.50476300  0.39210900  1
  Bi  Bi5  1  0.25000000  0.51981400  0.05627300  1
  Bi  Bi6  1  0.25000000  0.00476300  0.10789100  1
  Bi  Bi7  1  0.75000000  0.98018600  0.55627300  1
  Bi  Bi8  1  0.25000000  0.35041400  0.84532100  1
  Bi  Bi9  1  0.25000000  0.52336200  0.72905300  1
  Bi  Bi10  1  0.75000000  0.48018600  0.94372700  1
  Bi  Bi11  1  0.75000000  0.97663800  0.22905300  1
  Bi  Bi12  1  0.25000000  0.01981400  0.44372700  1
  Bi  Bi13  1  0.25000000  0.02336200  0.77094700  1
  Bi  Bi14  1  0.75000000  0.47663800  0.27094700  1
  Bi  Bi15  1  0.75000000  0.65752500  0.48723400  1
  Bi  Bi16  1  0.75000000  0.49523700  0.60789100  1
  Bi  Bi17  1  0.75000000  0.15752500  0.01276600  1
  Bi  Bi18  1  0.25000000  0.85041400  0.65467900  1
  Bi  Bi19  1  0.75000000  0.99523700  0.89210900  1
  Pb  Pb0  1  0.75000000  0.68323000  0.83459300  1
  Pb  Pb1  1  0.75000000  0.18323000  0.66540700  1
  Pb  Pb2  1  0.25000000  0.31677000  0.16540700  1
  Pb  Pb3  1  0.25000000  0.81677000  0.33459300  1
  S  S0  1  0.25000000  0.55042400  0.88202000  1
  S  S1  1  0.75000000  0.46022700  0.79120600  1
  S  S2  1  0.25000000  0.21277100  0.39703100  1
  S  S3  1  0.75000000  0.27376900  0.23167000  1
  S  S4  1  0.75000000  0.62706800  0.01686100  1
  S  S5  1  0.25000000  0.55180000  0.54234500  1
  S  S6  1  0.75000000  0.94820000  0.04234500  1
  S  S7  1  0.75000000  0.44957600  0.11798000  1
  S  S8  1  0.25000000  0.37293200  0.98313900  1
  S  S9  1  0.75000000  0.44820000  0.45765500  1
  S  S10  1  0.75000000  0.78722900  0.60296900  1
  S  S11  1  0.25000000  0.87092400  0.18733400  1
  S  S12  1  0.75000000  0.12706800  0.48313900  1
  S  S13  1  0.75000000  0.79344100  0.93367200  1
  S  S14  1  0.25000000  0.89386200  0.85114300  1
  S  S15  1  0.25000000  0.72623100  0.76833000  1
  S  S16  1  0.75000000  0.10613800  0.14885700  1
  S  S17  1  0.25000000  0.71277100  0.10296900  1
  S  S18  1  0.75000000  0.96022700  0.70879400  1
  S  S19  1  0.75000000  0.60613800  0.35114300  1
  S  S20  1  0.25000000  0.03977300  0.29120600  1
  S  S21  1  0.75000000  0.77376900  0.26833000  1
  S  S22  1  0.25000000  0.20655900  0.06632800  1
  S  S23  1  0.25000000  0.53977300  0.20879400  1
  S  S24  1  0.25000000  0.05042400  0.61798000  1
  S  S25  1  0.25000000  0.87293200  0.51686100  1
  S  S26  1  0.25000000  0.39386200  0.64885700  1
  S  S27  1  0.25000000  0.22623100  0.73167000  1
  S  S28  1  0.75000000  0.94957600  0.38202000  1
  S  S29  1  0.75000000  0.29344100  0.56632800  1
  S  S30  1  0.75000000  0.12907600  0.81266600  1
  S  S31  1  0.25000000  0.70655900  0.43367200  1
  S  S32  1  0.25000000  0.37092400  0.31266600  1
  S  S33  1  0.75000000  0.62907600  0.68733400  1
  S  S34  1  0.75000000  0.28722900  0.89703100  1
  S  S35  1  0.25000000  0.05180000  0.95765500  1
loop_
_geom_bond_atom_site_label_1
_geom_bond_atom_site_label_2
_geom_bond_distance
_geom_bond_site_symmetry_2
Cu0 S18 2.335525 1_555
Cu0 S15 2.344234 1_655
Cu0 S15 2.344234 1_555
Cu0 S33 2.440220 1_555
Cu1 S1 2.335525 1_555
Cu1 S27 2.344234 1_555
Cu1 S27 2.344234 1_655
Cu1 S30 2.440220 1_555
Cu2 S20 2.335525 1_555
Cu2 S3 2.344234 1_555
Cu2 S3 2.344234 1_455
Cu2 S32 2.440220 1_555
Cu3 S23 2.335525 1_555
Cu3 S21 2.344234 1_455
Cu3 S21 2.344234 1_555
Cu3 S11 2.440220 1_555
Bi0 S28 2.642643 1_545
Bi0 S2 2.763628 1_555
Bi0 S2 2.763628 1_655
Bi0 S20 3.004429 1_655
Bi0 S20 3.004429 1_555
Bi1 S35 2.640589 1_565
Bi1 S13 2.764125 1_455
Bi1 S13 2.764125 1_555
Bi1 S6 3.004798 1_456
Bi1 S6 3.004798 1_556
Bi2 S7 2.642643 1_555
Bi2 S17 2.763628 1_655
Bi2 S17 2.763628 1_555
Bi2 S23 3.004429 1_555
Bi2 S23 3.004429 1_655
Bi3 S5 2.640589 1_555
Bi3 S29 2.764125 1_455
Bi3 S29 2.764125 1_555
Bi3 S9 3.004798 1_555
Bi3 S9 3.004798 1_455
Bi4 S19 2.715541 1_455
Bi4 S19 2.715541 1_555
Bi4 S31 2.740549 1_555
Bi4 S9 3.059025 1_555
Bi4 S9 3.059025 1_455
Bi4 S32 3.091915 1_555
Bi5 S4 2.720473 1_455
Bi5 S4 2.720473 1_555
Bi5 S17 2.746712 1_555
Bi5 S8 2.995893 1_554
Bi5 S7 3.007325 1_455
Bi5 S7 3.007325 1_555
Bi6 S16 2.715541 1_455
Bi6 S16 2.715541 1_555
Bi6 S22 2.740549 1_555
Bi6 S6 3.059025 1_445
Bi6 S6 3.059025 1_545
Bi6 S11 3.091915 1_545
Bi7 S25 2.720473 1_555
Bi7 S25 2.720473 1_655
Bi7 S10 2.746712 1_555
Bi7 S12 2.995893 1_565
Bi7 S24 3.007325 1_565
Bi7 S24 3.007325 1_665
Bi8 S0 2.642643 1_555
Bi8 S34 2.763628 1_555
Bi8 S34 2.763628 1_455
Bi8 S1 3.004429 1_555
Bi8 S1 3.004429 1_455
Bi9 S15 2.713240 1_555
Bi9 S33 2.750836 1_455
Bi9 S33 2.750836 1_555
Bi9 S1 2.996134 1_555
Bi9 S1 2.996134 1_455
Bi9 S26 3.088575 1_555
Bi10 S8 2.720473 1_555
Bi10 S8 2.720473 1_655
Bi10 S34 2.746712 1_555
Bi10 S4 2.995893 1_556
Bi10 S0 3.007325 1_655
Bi10 S0 3.007325 1_555
Bi11 S21 2.713240 1_555
Bi11 S11 2.750836 1_555
Bi11 S11 2.750836 1_655
Bi11 S20 2.996134 1_565
Bi11 S20 2.996134 1_665
Bi11 S16 3.088575 1_565
Bi12 S12 2.720473 1_455
Bi12 S12 2.720473 1_555
Bi12 S2 2.746712 1_555
Bi12 S25 2.995893 1_545
Bi12 S28 3.007325 1_445
Bi12 S28 3.007325 1_545
Bi13 S27 2.713240 1_555
Bi13 S30 2.750836 1_455
Bi13 S30 2.750836 1_555
Bi13 S18 2.996134 1_545
Bi13 S18 2.996134 1_445
Bi13 S14 3.088575 1_545
Bi14 S3 2.713240 1_555
Bi14 S32 2.750836 1_555
Bi14 S32 2.750836 1_655
Bi14 S23 2.996134 1_555
Bi14 S23 2.996134 1_655
Bi14 S19 3.088575 1_555
Bi15 S9 2.640589 1_555
Bi15 S31 2.764125 1_555
Bi15 S31 2.764125 1_655
Bi15 S5 3.004798 1_655
Bi15 S5 3.004798 1_555
Bi16 S26 2.715541 1_655
Bi16 S26 2.715541 1_555
Bi16 S29 2.740549 1_555
Bi16 S5 3.059025 1_655
Bi16 S5 3.059025 1_555
Bi16 S33 3.091915 1_555
Bi17 S6 2.640589 1_545
Bi17 S22 2.764125 1_555
Bi17 S22 2.764125 1_655
Bi17 S35 3.004798 1_554
Bi17 S35 3.004798 1_654
Bi18 S24 2.642643 1_565
Bi18 S10 2.763628 1_455
Bi18 S10 2.763628 1_555
Bi18 S18 3.004429 1_455
Bi18 S18 3.004429 1_555
Bi19 S14 2.715541 1_655
Bi19 S14 2.715541 1_555
Bi19 S13 2.740549 1_555
Bi19 S35 3.059025 1_565
Bi19 S35 3.059025 1_665
Bi19 S30 3.091915 1_565
Pb0 S1 2.985982 1_555
Pb0 S0 3.003906 1_655
Pb0 S0 3.003906 1_555
Pb0 S15 3.046252 1_655
Pb0 S15 3.046252 1_555
Pb1 S18 2.985982 1_545
Pb1 S24 3.003906 1_555
Pb1 S24 3.003906 1_655
Pb1 S27 3.046252 1_555
Pb1 S27 3.046252 1_655
Pb2 S23 2.985982 1_555
Pb2 S7 3.003906 1_555
Pb2 S7 3.003906 1_455
Pb2 S3 3.046252 1_555
Pb2 S3 3.046252 1_455
Pb3 S20 2.985982 1_565
Pb3 S28 3.003906 1_555
Pb3 S28 3.003906 1_455
Pb3 S21 3.046252 1_455
Pb3 S21 3.046252 1_555
