# generated using pymatgen
data_Yb29S30
_symmetry_space_group_name_H-M   'P 1'
_cell_length_a   8.01581997
_cell_length_b   8.02644088
_cell_length_c   64.26491511
_cell_angle_alpha   59.76663139
_cell_angle_beta   59.86257738
_cell_angle_gamma   60.26875504
_symmetry_Int_Tables_number   1
_chemical_formula_structural   Yb29S30
_chemical_formula_sum   'Yb58 S60'
_cell_volume   2921.29849523
_cell_formula_units_Z   2
loop_
 _symmetry_equiv_pos_site_id
 _symmetry_equiv_pos_as_xyz
  1  'x, y, z'
loop_
 _atom_site_type_symbol
 _atom_site_label
 _atom_site_symmetry_multiplicity
 _atom_site_fract_x
 _atom_site_fract_y
 _atom_site_fract_z
 _atom_site_occupancy
  Yb  Yb0  1  0.98413899  0.01013319  0.06481633  1
  Yb  Yb1  1  0.98918476  0.51101537  0.00126602  1
  Yb  Yb2  1  0.52923164  0.00410833  0.99940028  1
  Yb  Yb3  1  0.97221398  0.49875497  0.06313560  1
  Yb  Yb4  1  0.51416900  0.48334234  0.99861773  1
  Yb  Yb5  1  0.98490968  0.50772850  0.12740914  1
  Yb  Yb6  1  0.51350723  0.49705066  0.06284795  1
  Yb  Yb7  1  0.50515174  0.98154413  0.12815002  1
  Yb  Yb8  1  0.97971082  0.51642378  0.18614383  1
  Yb  Yb9  1  0.49475015  0.49906270  0.12658283  1
  Yb  Yb10  1  0.51149286  0.98628688  0.06112355  1
  Yb  Yb11  1  0.99879766  0.99883274  0.31261157  1
  Yb  Yb12  1  0.99673340  0.99758264  0.18834643  1
  Yb  Yb13  1  0.98072382  0.51861196  0.25323624  1
  Yb  Yb14  1  0.51041651  0.50979517  0.18649425  1
  Yb  Yb15  1  0.51837924  0.98102699  0.25321760  1
  Yb  Yb16  1  0.00087835  0.50018992  0.31304899  1
  Yb  Yb17  1  0.49741632  0.49749183  0.25076472  1
  Yb  Yb18  1  0.50010915  0.00093176  0.31304298  1
  Yb  Yb19  1  0.51692187  0.97969931  0.18610165  1
  Yb  Yb20  1  0.00138221  0.49954811  0.37491824  1
  Yb  Yb21  1  0.49876424  0.49880252  0.31253911  1
  Yb  Yb22  1  0.99993795  0.50007015  0.43749409  1
  Yb  Yb23  1  0.00001646  0.00000885  0.56254158  1
  Yb  Yb24  1  0.49955778  0.49955246  0.37494931  1
  Yb  Yb25  1  0.99976115  0.49998523  0.50002962  1
  Yb  Yb26  1  0.99994339  0.99993846  0.43749840  1
  Yb  Yb27  1  0.49989849  0.49989222  0.43753592  1
  Yb  Yb28  1  0.49999064  0.99975468  0.50002924  1
  Yb  Yb29  1  0.49954142  0.00139136  0.37491945  1
  Yb  Yb30  1  0.00001016  0.49966288  0.56254213  1
  Yb  Yb31  1  0.49967299  0.00000382  0.56254195  1
  Yb  Yb32  1  0.50000020  0.50000018  0.50002808  1
  Yb  Yb33  1  0.50007324  0.99993301  0.43749405  1
  Yb  Yb34  1  0.99783986  0.50086161  0.62508076  1
  Yb  Yb35  1  0.49991033  0.49990607  0.56253642  1
  Yb  Yb36  1  0.50087589  0.99780222  0.62507897  1
  Yb  Yb37  1  0.00178941  0.50912512  0.68582879  1
  Yb  Yb38  1  0.50068453  0.50070485  0.62508875  1
  Yb  Yb39  1  0.00304800  0.50235300  0.74895262  1
  Yb  Yb40  1  0.00198658  0.00180501  0.68580281  1
  Yb  Yb41  1  0.50052851  0.50036872  0.68728593  1
  Yb  Yb42  1  0.00277236  0.00262926  0.74892012  1
  Yb  Yb43  1  0.00208191  0.50240792  0.81153142  1
  Yb  Yb44  1  0.50249682  0.50236070  0.74895807  1
  Yb  Yb45  1  0.50932616  0.00164763  0.68581596  1
  Yb  Yb46  1  0.00246544  0.00230847  0.81156518  1
  Yb  Yb47  1  0.00261117  0.50027539  0.87406806  1
  Yb  Yb48  1  0.50257595  0.50249363  0.81156276  1
  Yb  Yb49  1  0.99037906  0.50655671  0.93629181  1
  Yb  Yb50  1  0.00286746  0.00344393  0.87416213  1
  Yb  Yb51  1  0.50248650  0.00292320  0.74895196  1
  Yb  Yb52  1  0.50432496  0.98855245  0.93666002  1
  Yb  Yb53  1  0.50196758  0.50133029  0.87440699  1
  Yb  Yb54  1  0.50252030  0.00193579  0.81153419  1
  Yb  Yb55  1  0.00313998  0.99828034  0.93803223  1
  Yb  Yb56  1  0.50813181  0.51201299  0.93573704  1
  Yb  Yb57  1  0.50067752  0.00282457  0.87402987  1
  S  S0  1  0.24861966  0.24817979  0.03115421  1
  S  S1  1  0.25145427  0.25126118  0.15545590  1
  S  S2  1  0.25763376  0.74291590  0.09093718  1
  S  S3  1  0.73810622  0.25917365  0.03231595  1
  S  S4  1  0.73997311  0.25402610  0.09349401  1
  S  S5  1  0.74798044  0.74823191  0.03120741  1
  S  S6  1  0.25859676  0.74096466  0.15662925  1
  S  S7  1  0.75387706  0.75134718  0.09247385  1
  S  S8  1  0.25157677  0.25134551  0.27981442  1
  S  S9  1  0.25974881  0.74458447  0.21666342  1
  S  S10  1  0.74005816  0.25954869  0.15665592  1
  S  S11  1  0.25469423  0.25464325  0.34299928  1
  S  S12  1  0.74503373  0.25950077  0.21670056  1
  S  S13  1  0.75528966  0.75416090  0.15502961  1
  S  S14  1  0.26029599  0.75075264  0.28059879  1
  S  S15  1  0.75159847  0.75108512  0.21778001  1
  S  S16  1  0.24984346  0.24983900  0.40627735  1
  S  S17  1  0.25634975  0.74447533  0.34286577  1
  S  S18  1  0.75064124  0.26038905  0.28062505  1
  S  S19  1  0.74465984  0.25617269  0.34288657  1
  S  S20  1  0.25578532  0.25579807  0.46802247  1
  S  S21  1  0.74602999  0.74593293  0.28300834  1
  S  S22  1  0.25695955  0.74279880  0.40716700  1
  S  S23  1  0.75036126  0.75033162  0.34358802  1
  S  S24  1  0.25010515  0.25008098  0.53121519  1
  S  S25  1  0.25686426  0.74313538  0.46788488  1
  S  S26  1  0.74262006  0.25714417  0.40719053  1
  S  S27  1  0.25633443  0.25634145  0.59295276  1
  S  S28  1  0.74331395  0.25669290  0.46790627  1
  S  S29  1  0.74377240  0.74376387  0.40704061  1
  S  S30  1  0.25680388  0.74346596  0.53202869  1
  S  S31  1  0.74997005  0.74998426  0.46875657  1
  S  S32  1  0.24913527  0.24917141  0.65659567  1
  S  S33  1  0.25745397  0.74257969  0.59281833  1
  S  S34  1  0.74330512  0.25698255  0.53204854  1
  S  S35  1  0.74277070  0.25726556  0.59284022  1
  S  S36  1  0.24698836  0.24712380  0.71962242  1
  S  S37  1  0.74441911  0.74438648  0.53191416  1
  S  S38  1  0.25687156  0.74268324  0.65726420  1
  S  S39  1  0.75002909  0.75003728  0.59374081  1
  S  S40  1  0.74246476  0.25711349  0.65728488  1
  S  S41  1  0.24775331  0.24793640  0.78216322  1
  S  S42  1  0.24705966  0.74967956  0.71960274  1
  S  S43  1  0.74952984  0.24718156  0.71960655  1
  S  S44  1  0.24770426  0.24759575  0.84475761  1
  S  S45  1  0.74354914  0.74358425  0.65714191  1
  S  S46  1  0.24785376  0.74743941  0.78219462  1
  S  S47  1  0.74822815  0.74836185  0.71945794  1
  S  S48  1  0.74732357  0.24802245  0.78218993  1
  S  S49  1  0.24710034  0.24822111  0.90769244  1
  S  S50  1  0.24712986  0.74752181  0.84474507  1
  S  S51  1  0.74723801  0.24720044  0.84475006  1
  S  S52  1  0.74754021  0.74762952  0.78219366  1
  S  S53  1  0.24394297  0.74370950  0.90783034  1
  S  S54  1  0.74743759  0.74792359  0.84476147  1
  S  S55  1  0.25700631  0.73622879  0.96902119  1
  S  S56  1  0.74340263  0.24498929  0.90780484  1
  S  S57  1  0.74488615  0.25709484  0.96749162  1
  S  S58  1  0.75119501  0.75108462  0.90625140  1
  S  S59  1  0.74085403  0.75011660  0.97008655  1
loop_
_geom_bond_atom_site_label_1
_geom_bond_atom_site_label_2
_geom_bond_distance
_geom_bond_site_symmetry_2
S0 Yb4 2.829667 1_554
S0 Yb1 2.836087 1_455
S0 Yb0 2.841652 1_455
S0 Yb2 2.847390 1_554
S0 Yb10 2.858829 1_545
S0 Yb3 2.889370 1_455
S1 Yb9 2.774774 1_555
S1 Yb7 2.788760 1_545
S1 Yb5 2.796303 1_455
S1 Yb12 2.870243 1_445
S1 Yb19 2.905617 1_545
S1 Yb8 2.911849 1_455
S2 Yb6 2.686022 1_555
S2 Yb0 2.762249 1_465
S2 Yb10 2.808222 1_555
S2 Yb5 2.885911 1_455
S2 Yb9 2.976251 1_555
S3 Yb6 2.748228 1_555
S3 Yb4 2.815219 1_554
S3 Yb10 2.830263 1_545
S3 Yb1 2.838810 1_555
S3 Yb0 2.875611 1_555
S4 Yb6 2.681078 1_555
S4 Yb3 2.692771 1_555
S4 Yb0 2.696344 1_555
S4 Yb7 2.873125 1_545
S4 Yb9 2.904088 1_555
S5 Yb2 2.696362 1_564
S5 Yb1 2.714461 1_555
S5 Yb10 2.718044 1_555
S5 Yb3 2.728799 1_555
S5 Yb6 2.743029 1_555
S6 Yb9 2.746150 1_555
S6 Yb7 2.752895 1_555
S6 Yb14 2.791053 1_555
S6 Yb8 2.852918 1_455
S6 Yb12 2.906293 1_455
S7 Yb0 2.769635 1_565
S7 Yb3 2.782955 1_555
S7 Yb10 2.803688 1_555
S7 Yb9 2.889570 1_555
S7 Yb5 2.907909 1_555
S7 Yb7 2.944082 1_555
S8 Yb13 2.765369 1_455
S8 Yb15 2.768476 1_545
S8 Yb17 2.779378 1_555
S8 Yb11 2.852858 1_445
S8 Yb18 2.923466 1_555
S8 Yb16 2.931623 1_555
S9 Yb14 2.712862 1_555
S9 Yb19 2.780072 1_555
S9 Yb12 2.786547 1_455
S9 Yb13 2.875468 1_455
S9 Yb17 2.904018 1_555
S10 Yb9 2.760874 1_555
S10 Yb5 2.784968 1_555
S10 Yb14 2.786917 1_555
S10 Yb19 2.851520 1_545
S10 Yb12 2.899352 1_545
S11 Yb21 2.755722 1_555
S11 Yb16 2.804148 1_555
S11 Yb18 2.809745 1_555
S11 Yb29 2.842271 1_555
S11 Yb20 2.848506 1_555
S12 Yb14 2.707809 1_555
S12 Yb8 2.776268 1_555
S12 Yb12 2.787392 1_545
S12 Yb15 2.875448 1_545
S12 Yb17 2.910028 1_555
S13 Yb7 2.647373 1_555
S13 Yb5 2.663624 1_555
S13 Yb8 2.690783 1_555
S13 Yb19 2.700663 1_555
S13 Yb14 2.761830 1_555
S14 Yb15 2.766611 1_555
S14 Yb17 2.802524 1_555
S14 Yb21 2.807555 1_555
S14 Yb11 2.871646 1_455
S14 Yb16 2.878817 1_555
S15 Yb12 2.776412 1_555
S15 Yb19 2.776702 1_555
S15 Yb8 2.780621 1_555
S15 Yb17 2.866923 1_555
S15 Yb13 2.927180 1_555
S15 Yb15 2.936513 1_555
S16 Yb24 2.818905 1_555
S16 Yb26 2.821024 1_445
S16 Yb20 2.836985 1_555
S16 Yb33 2.840580 1_545
S16 Yb29 2.842826 1_555
S16 Yb22 2.846575 1_455
S17 Yb21 2.780174 1_555
S17 Yb20 2.822156 1_555
S17 Yb18 2.825638 1_565
S17 Yb11 2.839563 1_455
S17 Yb24 2.840694 1_555
S18 Yb13 2.766438 1_555
S18 Yb17 2.797577 1_555
S18 Yb21 2.811913 1_555
S18 Yb11 2.864913 1_545
S18 Yb18 2.878876 1_555
S19 Yb21 2.776532 1_555
S19 Yb29 2.822170 1_555
S19 Yb16 2.825639 1_655
S19 Yb11 2.845228 1_545
S19 Yb24 2.846658 1_555
S20 Yb27 2.755591 1_555
S20 Yb22 2.842073 1_455
S20 Yb28 2.842921 1_545
S20 Yb33 2.848195 1_545
S20 Yb25 2.848786 1_455
S21 Yb15 2.647750 1_555
S21 Yb13 2.650580 1_555
S21 Yb21 2.792160 1_555
S21 Yb16 2.814168 1_655
S21 Yb18 2.820718 1_565
S22 Yb27 2.760616 1_555
S22 Yb22 2.822072 1_455
S22 Yb29 2.829981 1_565
S22 Yb26 2.846957 1_455
S22 Yb24 2.853480 1_555
S23 Yb11 2.804881 1_555
S23 Yb18 2.810484 1_565
S23 Yb16 2.815497 1_655
S23 Yb24 2.831077 1_555
S23 Yb20 2.850233 1_655
S23 Yb29 2.856516 1_565
S24 Yb32 2.821110 1_555
S24 Yb23 2.823045 1_555
S24 Yb25 2.839820 1_455
S24 Yb31 2.841805 1_555
S24 Yb28 2.845721 1_545
S24 Yb30 2.847880 1_555
S25 Yb27 2.767263 1_555
S25 Yb33 2.823439 1_555
S25 Yb25 2.824516 1_455
S25 Yb26 2.842127 1_455
S25 Yb32 2.843296 1_555
S26 Yb27 2.764274 1_555
S26 Yb33 2.822233 1_545
S26 Yb20 2.829953 1_655
S26 Yb26 2.841024 1_545
S26 Yb24 2.847573 1_555
S27 Yb35 2.749570 1_555
S27 Yb30 2.839643 1_555
S27 Yb31 2.845744 1_555
S27 Yb36 2.850584 1_545
S27 Yb34 2.856498 1_455
S28 Yb27 2.763395 1_555
S28 Yb22 2.823306 1_555
S28 Yb28 2.824549 1_545
S28 Yb26 2.848075 1_545
S28 Yb32 2.849230 1_555
S29 Yb27 2.752977 1_555
S29 Yb22 2.840607 1_555
S29 Yb33 2.846644 1_555
S29 Yb29 2.848481 1_565
S29 Yb20 2.854406 1_655
S30 Yb35 2.767868 1_555
S30 Yb28 2.819999 1_555
S30 Yb30 2.826560 1_555
S30 Yb32 2.844502 1_555
S30 Yb23 2.851537 1_565
S31 Yb26 2.821735 1_555
S31 Yb32 2.821882 1_555
S31 Yb25 2.840638 1_555
S31 Yb33 2.840762 1_555
S31 Yb28 2.846487 1_555
S31 Yb22 2.846844 1_555
S32 Yb40 2.793644 1_555
S32 Yb45 2.808754 1_555
S32 Yb37 2.813874 1_555
S32 Yb38 2.839537 1_555
S32 Yb34 2.860174 1_455
S32 Yb36 2.866701 1_545
S33 Yb35 2.760965 1_555
S33 Yb31 2.821663 1_565
S33 Yb34 2.831015 1_455
S33 Yb23 2.840345 1_565
S33 Yb38 2.849998 1_555
S34 Yb35 2.771753 1_555
S34 Yb25 2.819915 1_555
S34 Yb31 2.826738 1_555
S34 Yb32 2.838561 1_555
S34 Yb23 2.845661 1_655
S35 Yb35 2.757216 1_555
S35 Yb30 2.821511 1_655
S35 Yb36 2.831146 1_545
S35 Yb23 2.846218 1_655
S35 Yb38 2.856121 1_555
S36 Yb42 2.759823 1_555
S36 Yb51 2.786243 1_555
S36 Yb39 2.790605 1_555
S36 Yb41 2.860636 1_555
S36 Yb37 2.930743 1_555
S36 Yb45 2.939014 1_555
S37 Yb35 2.759990 1_555
S37 Yb28 2.838551 1_555
S37 Yb25 2.844324 1_555
S37 Yb30 2.845042 1_655
S37 Yb31 2.851208 1_565
S38 Yb41 2.748997 1_555
S38 Yb37 2.762638 1_555
S38 Yb40 2.779849 1_565
S38 Yb36 2.818101 1_555
S38 Yb38 2.844093 1_555
S39 Yb38 2.814669 1_555
S39 Yb23 2.821925 1_665
S39 Yb34 2.832419 1_555
S39 Yb36 2.838041 1_555
S39 Yb31 2.840491 1_565
S39 Yb30 2.846574 1_655
S40 Yb41 2.751555 1_555
S40 Yb45 2.762722 1_555
S40 Yb40 2.775551 1_655
S40 Yb34 2.818128 1_555
S40 Yb38 2.837996 1_555
S41 Yb46 2.772335 1_555
S41 Yb54 2.783854 1_555
S41 Yb43 2.787891 1_555
S41 Yb44 2.875005 1_555
S41 Yb39 2.900776 1_555
S41 Yb51 2.908601 1_555
S42 Yb39 2.774924 1_555
S42 Yb42 2.776770 1_565
S42 Yb44 2.787099 1_555
S42 Yb41 2.891544 1_555
S42 Yb45 2.904395 1_565
S42 Yb40 2.930467 1_565
S43 Yb42 2.772444 1_655
S43 Yb51 2.774702 1_555
S43 Yb44 2.791307 1_555
S43 Yb41 2.883908 1_555
S43 Yb37 2.904192 1_655
S43 Yb40 2.938452 1_655
S44 Yb50 2.761214 1_555
S44 Yb57 2.769060 1_555
S44 Yb47 2.774918 1_555
S44 Yb48 2.878316 1_555
S44 Yb43 2.906614 1_555
S44 Yb54 2.912787 1_555
S45 Yb41 2.744551 1_555
S45 Yb37 2.774802 1_655
S45 Yb45 2.779122 1_565
S45 Yb36 2.836732 1_555
S45 Yb34 2.842873 1_555
S46 Yb43 2.771824 1_555
S46 Yb48 2.783447 1_555
S46 Yb46 2.790299 1_565
S46 Yb51 2.880322 1_565
S46 Yb42 2.905825 1_565
S46 Yb44 2.910143 1_555
S47 Yb44 2.776845 1_555
S47 Yb39 2.789646 1_655
S47 Yb51 2.794009 1_565
S47 Yb40 2.865184 1_665
S47 Yb45 2.888618 1_565
S47 Yb37 2.895899 1_655
S48 Yb54 2.772315 1_555
S48 Yb46 2.786208 1_655
S48 Yb48 2.788082 1_555
S48 Yb39 2.879973 1_655
S48 Yb44 2.902440 1_555
S48 Yb42 2.913435 1_655
S49 Yb49 2.778469 1_455
S49 Yb52 2.783051 1_545
S49 Yb55 2.788143 1_545
S49 Yb53 2.868587 1_555
S49 Yb47 2.918973 1_555
S49 Yb57 2.931832 1_555
S50 Yb47 2.777441 1_555
S50 Yb53 2.797185 1_555
S50 Yb50 2.798512 1_565
S50 Yb54 2.878538 1_565
S50 Yb46 2.899122 1_565
S50 Yb48 2.907340 1_555
S51 Yb57 2.772730 1_555
S51 Yb50 2.790689 1_655
S51 Yb53 2.798767 1_555
S51 Yb43 2.879917 1_655
S51 Yb48 2.899453 1_555
S51 Yb46 2.906697 1_655
S52 Yb48 2.767695 1_555
S52 Yb43 2.781057 1_655
S52 Yb54 2.785689 1_565
S52 Yb42 2.881012 1_665
S52 Yb51 2.904152 1_565
S52 Yb39 2.911449 1_655
S53 Yb49 2.774551 1_455
S53 Yb56 2.776361 1_555
S53 Yb55 2.826293 1_555
S53 Yb50 2.902084 1_565
S53 Yb53 2.903856 1_555
S53 Yb57 2.913058 1_565
S54 Yb53 2.778476 1_555
S54 Yb47 2.783447 1_655
S54 Yb57 2.786001 1_565
S54 Yb46 2.876345 1_665
S54 Yb54 2.902742 1_565
S54 Yb43 2.912289 1_655
S55 Yb1 2.789312 1_456
S55 Yb56 2.797486 1_555
S55 Yb4 2.808202 1_555
S55 Yb52 2.820934 1_555
S55 Yb55 2.852520 1_555
S56 Yb56 2.799701 1_555
S56 Yb52 2.801430 1_545
S56 Yb55 2.850911 1_645
S56 Yb53 2.891315 1_555
S56 Yb47 2.905477 1_655
S56 Yb50 2.909513 1_655
S57 Yb2 2.654302 1_555
S57 Yb4 2.707675 1_555
S57 Yb56 2.790178 1_555
S57 Yb49 2.793723 1_555
S57 Yb55 2.818651 1_645
S58 Yb56 2.721791 1_555
S58 Yb49 2.724631 1_555
S58 Yb52 2.737612 1_555
S58 Yb50 2.845045 1_665
S58 Yb57 2.887992 1_565
S58 Yb47 2.893996 1_655
S59 Yb4 2.794360 1_555
S59 Yb2 2.794831 1_565
S59 Yb1 2.829129 1_556
S59 Yb52 2.867501 1_555
S59 Yb55 2.881656 1_655
S59 Yb49 2.928212 1_555
