# generated using pymatgen
data_Sb2RuC6(OF2)6
_symmetry_space_group_name_H-M   'P 1'
_cell_length_a   8.44958800
_cell_length_b   8.44958800
_cell_length_c   12.67142300
_cell_angle_alpha   90.00000000
_cell_angle_beta   90.00000000
_cell_angle_gamma   90.00000000
_symmetry_Int_Tables_number   1
_chemical_formula_structural   Sb2RuC6(OF2)6
_chemical_formula_sum   'Sb4 Ru2 C12 O12 F24'
_cell_volume   904.68305432
_cell_formula_units_Z   2
loop_
 _symmetry_equiv_pos_site_id
 _symmetry_equiv_pos_as_xyz
  1  'x, y, z'
loop_
 _atom_site_type_symbol
 _atom_site_label
 _atom_site_symmetry_multiplicity
 _atom_site_fract_x
 _atom_site_fract_y
 _atom_site_fract_z
 _atom_site_occupancy
  Sb  Sb0  1  0.50000000  0.00000000  0.75000000  1
  Sb  Sb1  1  0.00000000  0.50000000  0.75000000  1
  Sb  Sb2  1  0.50000000  0.00000000  0.25000000  1
  Sb  Sb3  1  0.00000000  0.50000000  0.25000000  1
  Ru  Ru0  1  0.50000000  0.50000000  0.50000000  1
  Ru  Ru1  1  0.00000000  0.00000000  0.00000000  1
  C  C0  1  0.62895800  0.70078300  0.50000000  1
  C  C1  1  0.37104200  0.29921700  0.50000000  1
  C  C2  1  0.00000000  0.00000000  0.15868400  1
  C  C3  1  0.50000000  0.50000000  0.34131600  1
  C  C4  1  0.00000000  0.00000000  0.84131600  1
  C  C5  1  0.50000000  0.50000000  0.65868400  1
  C  C6  1  0.20078300  0.12895800  0.00000000  1
  C  C7  1  0.87104200  0.20078300  0.00000000  1
  C  C8  1  0.12895800  0.79921700  0.00000000  1
  C  C9  1  0.70078300  0.37104200  0.50000000  1
  C  C10  1  0.29921700  0.62895800  0.50000000  1
  C  C11  1  0.79921700  0.87104200  0.00000000  1
  O  O0  1  0.70024800  0.81470800  0.50000000  1
  O  O1  1  0.29975200  0.18529200  0.50000000  1
  O  O2  1  0.00000000  0.00000000  0.24836000  1
  O  O3  1  0.50000000  0.50000000  0.25164000  1
  O  O4  1  0.00000000  0.00000000  0.75164000  1
  O  O5  1  0.50000000  0.50000000  0.74836000  1
  O  O6  1  0.31470800  0.20024800  0.00000000  1
  O  O7  1  0.79975200  0.31470800  0.00000000  1
  O  O8  1  0.20024800  0.68529200  0.00000000  1
  O  O9  1  0.81470800  0.29975200  0.50000000  1
  O  O10  1  0.18529200  0.70024800  0.50000000  1
  O  O11  1  0.68529200  0.79975200  0.00000000  1
  F  F0  1  0.33967500  0.16032500  0.75000000  1
  F  F1  1  0.16032500  0.66032500  0.25000000  1
  F  F2  1  0.83967500  0.33967500  0.75000000  1
  F  F3  1  0.39304800  0.88098300  0.35811600  1
  F  F4  1  0.16032500  0.66032500  0.75000000  1
  F  F5  1  0.66032500  0.83967500  0.75000000  1
  F  F6  1  0.61901700  0.10695200  0.14188400  1
  F  F7  1  0.89304800  0.61901700  0.14188400  1
  F  F8  1  0.10695200  0.38098300  0.14188400  1
  F  F9  1  0.11901700  0.39304800  0.35811600  1
  F  F10  1  0.88098300  0.60695200  0.35811600  1
  F  F11  1  0.38098300  0.89304800  0.14188400  1
  F  F12  1  0.60695200  0.11901700  0.35811600  1
  F  F13  1  0.83967500  0.33967500  0.25000000  1
  F  F14  1  0.38098300  0.89304800  0.85811600  1
  F  F15  1  0.10695200  0.38098300  0.85811600  1
  F  F16  1  0.89304800  0.61901700  0.85811600  1
  F  F17  1  0.88098300  0.60695200  0.64188400  1
  F  F18  1  0.11901700  0.39304800  0.64188400  1
  F  F19  1  0.61901700  0.10695200  0.85811600  1
  F  F20  1  0.39304800  0.88098300  0.64188400  1
  F  F21  1  0.60695200  0.11901700  0.64188400  1
  F  F22  1  0.33967500  0.16032500  0.25000000  1
  F  F23  1  0.66032500  0.83967500  0.25000000  1
loop_
_geom_bond_atom_site_label_1
_geom_bond_atom_site_label_2
_geom_bond_distance
_geom_bond_site_symmetry_2
C0 O0 1.135556 1_555
C0 Ru0 2.016320 1_555
C1 O1 1.135556 1_555
C1 Ru0 2.016320 1_555
C2 O2 1.136323 1_555
C2 Ru1 2.010752 1_555
C3 O3 1.136323 1_555
C3 Ru0 2.010752 1_555
C4 O4 1.136323 1_555
C4 Ru1 2.010752 1_556
C5 O5 1.136323 1_555
C5 Ru0 2.010752 1_555
C6 O6 1.135556 1_555
C6 Ru1 2.016320 1_555
C7 O7 1.135556 1_555
C7 Ru1 2.016320 1_655
C8 O8 1.135556 1_555
C8 Ru1 2.016320 1_565
C9 O9 1.135556 1_555
C9 Ru0 2.016320 1_555
C10 O10 1.135556 1_555
C10 Ru0 2.016320 1_555
C11 O11 1.135556 1_555
C11 Ru1 2.016320 1_665
F0 Sb0 1.915807 1_555
F1 Sb3 1.915807 1_555
F2 Sb1 1.915807 1_655
F3 Sb2 1.924799 1_565
F4 Sb1 1.915807 1_555
F5 Sb0 1.915807 1_565
F6 Sb2 1.924799 1_555
F7 Sb3 1.924799 1_655
F8 Sb3 1.924799 1_555
F9 Sb3 1.924799 1_555
F10 Sb3 1.924799 1_655
F11 Sb2 1.924799 1_565
F12 Sb2 1.924799 1_555
F13 Sb3 1.915807 1_655
F14 Sb0 1.924799 1_565
F15 Sb1 1.924799 1_555
F16 Sb1 1.924799 1_655
F17 Sb1 1.924799 1_655
F18 Sb1 1.924799 1_555
F19 Sb0 1.924799 1_555
F20 Sb0 1.924799 1_565
F21 Sb0 1.924799 1_555
F22 Sb2 1.915807 1_555
F23 Sb2 1.915807 1_565
