# generated using pymatgen
data_Ta8Pb6O25
_symmetry_space_group_name_H-M   'P 1'
_cell_length_a   7.48362635
_cell_length_b   7.48362635
_cell_length_c   10.51284809
_cell_angle_alpha   89.89316306
_cell_angle_beta   89.89316306
_cell_angle_gamma   90.27154007
_symmetry_Int_Tables_number   1
_chemical_formula_structural   Ta8Pb6O25
_chemical_formula_sum   'Ta8 Pb6 O25'
_cell_volume   588.75984974
_cell_formula_units_Z   1
loop_
 _symmetry_equiv_pos_site_id
 _symmetry_equiv_pos_as_xyz
  1  'x, y, z'
loop_
 _atom_site_type_symbol
 _atom_site_label
 _atom_site_symmetry_multiplicity
 _atom_site_fract_x
 _atom_site_fract_y
 _atom_site_fract_z
 _atom_site_occupancy
  Ta  Ta0  1  0.74806785  0.99926415  0.12633812  1
  Ta  Ta1  1  0.49236310  0.24900846  0.37813321  1
  Ta  Ta2  1  0.24727024  0.99760570  0.12646422  1
  Ta  Ta3  1  0.24611150  0.50324831  0.62307484  1
  Ta  Ta4  1  0.00073585  0.25193215  0.87366188  1
  Ta  Ta5  1  0.00239430  0.75272976  0.87353578  1
  Ta  Ta6  1  0.75099154  0.50763690  0.62186679  1
  Ta  Ta7  1  0.49675169  0.75388850  0.37692516  1
  Pb  Pb0  1  0.98816446  0.22694386  0.38981455  1
  Pb  Pb1  1  0.77305614  0.01183554  0.61018545  1
  Pb  Pb2  1  0.75088397  0.50520114  0.13380583  1
  Pb  Pb3  1  0.49479886  0.24911603  0.86619417  1
  Pb  Pb4  1  0.49914344  0.75212159  0.86578625  1
  Pb  Pb5  1  0.24787841  0.50085656  0.13421375  1
  O  O0  1  0.30989252  0.31338110  0.49872041  1
  O  O1  1  0.99942398  0.00634209  0.18390320  1
  O  O2  1  0.99365791  0.00057602  0.81609680  1
  O  O3  1  0.81227903  0.31095075  0.74870475  1
  O  O4  1  0.80688707  0.19311293  -0.00000000  1
  O  O5  1  0.80767313  0.80735330  0.99969282  1
  O  O6  1  0.68491676  0.31508324  0.50000000  1
  O  O7  1  0.50182139  0.49953602  0.69607720  1
  O  O8  1  0.49870526  0.00280196  0.05768920  1
  O  O9  1  0.50046398  0.49817861  0.30392280  1
  O  O10  1  0.49845670  0.50154330  -0.00000000  1
  O  O11  1  0.31268180  0.18682031  0.24948083  1
  O  O12  1  0.31474941  0.80970362  0.24669244  1
  O  O13  1  0.32087012  0.67912988  0.50000000  1
  O  O14  1  0.19264670  0.19232687  0.00030718  1
  O  O15  1  0.19320505  0.31748952  0.75642772  1
  O  O16  1  0.19245734  0.80754266  -0.00000000  1
  O  O17  1  0.99976201  0.48991926  0.56562596  1
  O  O18  1  0.99719804  0.50129474  0.94231080  1
  O  O19  1  0.81317969  0.68731820  0.75051917  1
  O  O20  1  0.68904925  0.18772097  0.25129525  1
  O  O21  1  0.68251048  0.80679495  0.24357228  1
  O  O22  1  0.68661890  0.69010748  0.50127959  1
  O  O23  1  0.51008074  0.00023799  0.43437404  1
  O  O24  1  0.19029638  0.68525059  0.75330756  1
loop_
_geom_bond_atom_site_label_1
_geom_bond_atom_site_label_2
_geom_bond_distance
_geom_bond_site_symmetry_2
O0 Ta1 1.925081 1_555
O0 Ta3 1.991704 1_555
O0 Pb0 2.743085 1_455
O1 Ta2 1.950966 1_645
O1 Ta0 1.977582 1_545
O1 Pb0 2.726267 1_555
O2 Ta5 1.950966 1_645
O2 Ta4 1.977582 1_655
O2 Pb1 2.726267 1_555
O3 Ta4 1.980019 1_655
O3 Ta6 2.038705 1_555
O3 Pb1 2.687941 1_555
O3 Pb3 2.713143 1_555
O4 Ta0 2.011689 1_545
O4 Ta4 2.011689 1_654
O4 Pb3 2.761980 1_554
O4 Pb2 2.761980 1_555
O5 Ta0 2.011277 1_556
O5 Ta5 2.012473 1_655
O5 Pb2 2.694110 1_556
O5 Pb4 2.736592 1_555
O6 Ta6 1.991199 1_555
O6 Ta1 1.991199 1_555
O6 Pb0 2.633298 1_555
O6 Pb1 2.633298 1_555
O7 Ta6 2.020581 1_555
O7 Ta3 2.063415 1_555
O7 Pb3 2.588332 1_555
O7 Pb4 2.601802 1_555
O8 Ta0 2.002356 1_545
O8 Ta2 2.014694 1_545
O8 Pb3 2.727341 1_554
O8 Pb4 2.757466 1_544
O9 Ta1 2.020581 1_555
O9 Ta7 2.063415 1_555
O9 Pb2 2.588332 1_555
O9 Pb5 2.601802 1_555
O10 Pb5 2.344649 1_555
O10 Pb4 2.344649 1_554
O10 Pb2 2.357468 1_555
O10 Pb3 2.357468 1_554
O11 Ta1 1.963972 1_555
O11 Ta2 1.979859 1_545
O11 Pb5 2.688698 1_555
O12 Ta2 1.957654 1_555
O12 Ta7 1.978462 1_555
O12 Pb5 2.644277 1_555
O13 Ta3 1.924456 1_555
O13 Ta7 1.924456 1_555
O14 Ta4 2.011277 1_554
O14 Ta2 2.012473 1_545
O14 Pb3 2.694110 1_554
O14 Pb5 2.736592 1_555
O15 Ta4 1.954162 1_555
O15 Ta3 2.010000 1_555
O15 Pb3 2.589597 1_555
O16 Ta2 1.990602 1_555
O16 Ta5 1.990602 1_554
O16 Pb4 2.725725 1_554
O16 Pb5 2.725725 1_555
O17 Ta3 1.943233 1_655
O17 Ta6 1.957456 1_555
O17 Pb0 2.703567 1_555
O18 Ta4 2.002356 1_655
O18 Ta5 2.014694 1_655
O18 Pb2 2.727341 1_556
O18 Pb5 2.757466 1_656
O19 Ta6 1.963972 1_555
O19 Ta5 1.979859 1_655
O19 Pb4 2.688698 1_555
O20 Ta0 1.980019 1_545
O20 Ta1 2.038705 1_555
O20 Pb0 2.687941 1_555
O20 Pb2 2.713143 1_555
O21 Ta0 1.954162 1_555
O21 Ta7 2.010000 1_555
O21 Pb2 2.589597 1_555
O22 Ta6 1.925081 1_555
O22 Ta7 1.991704 1_555
O22 Pb1 2.743085 1_565
O23 Ta7 1.943233 1_545
O23 Ta1 1.957456 1_555
O23 Pb1 2.703567 1_555
O24 Ta5 1.957654 1_555
O24 Ta3 1.978462 1_555
O24 Pb4 2.644277 1_555
