# generated using pymatgen
data_SiO2
_symmetry_space_group_name_H-M   'P 1'
_cell_length_a   9.74869800
_cell_length_b   20.48621800
_cell_length_c   20.59819600
_cell_angle_alpha   90.00000000
_cell_angle_beta   90.00000000
_cell_angle_gamma   90.00000000
_symmetry_Int_Tables_number   1
_chemical_formula_structural   SiO2
_chemical_formula_sum   'Si64 O128'
_cell_volume   4113.74713638
_cell_formula_units_Z   64
loop_
 _symmetry_equiv_pos_site_id
 _symmetry_equiv_pos_as_xyz
  1  'x, y, z'
loop_
 _atom_site_type_symbol
 _atom_site_label
 _atom_site_symmetry_multiplicity
 _atom_site_fract_x
 _atom_site_fract_y
 _atom_site_fract_z
 _atom_site_occupancy
  Si  Si0  1  0.50000000  0.42243400  0.32269100  1
  Si  Si1  1  0.16349400  0.42725100  0.10411900  1
  Si  Si2  1  0.35258000  0.39258300  0.20801900  1
  Si  Si3  1  0.64602000  0.31236600  0.90161700  1
  Si  Si4  1  0.83650600  0.42725100  0.89588100  1
  Si  Si5  1  0.83650600  0.42725100  0.10411900  1
  Si  Si6  1  0.35398000  0.68763400  0.09838300  1
  Si  Si7  1  0.64602000  0.68763400  0.09838300  1
  Si  Si8  1  0.64719800  0.20980100  0.60595800  1
  Si  Si9  1  0.50000000  0.92510200  0.18829400  1
  Si  Si10  1  0.50000000  0.32585600  0.42299200  1
  Si  Si11  1  0.16349400  0.57274900  0.10411900  1
  Si  Si12  1  0.50000000  0.67414400  0.42299200  1
  Si  Si13  1  0.35258000  0.60741700  0.79198100  1
  Si  Si14  1  0.50000000  0.81294600  0.07388000  1
  Si  Si15  1  0.50000000  0.42243400  0.67730900  1
  Si  Si16  1  0.35280200  0.20980100  0.60595800  1
  Si  Si17  1  0.64602000  0.10006300  0.68682500  1
  Si  Si18  1  0.50000000  0.32585600  0.57700800  1
  Si  Si19  1  0.64602000  0.89993700  0.68682500  1
  Si  Si20  1  0.35280200  0.20980100  0.39404200  1
  Si  Si21  1  0.35258000  0.39258300  0.79198100  1
  Si  Si22  1  0.83650500  0.89496500  0.57240700  1
  Si  Si23  1  0.64719800  0.79019900  0.39404200  1
  Si  Si24  1  0.83650500  0.10503500  0.57240700  1
  Si  Si25  1  0.16349500  0.89496500  0.42759300  1
  Si  Si26  1  0.16349500  0.10503500  0.57240700  1
  Si  Si27  1  0.35398000  0.10006300  0.68682500  1
  Si  Si28  1  0.50000000  0.57756600  0.67730900  1
  Si  Si29  1  0.64742000  0.39258300  0.79198100  1
  Si  Si30  1  0.50000000  0.67414400  0.57700800  1
  Si  Si31  1  0.50000000  0.07489800  0.81170600  1
  Si  Si32  1  0.50000000  0.92510200  0.81170600  1
  Si  Si33  1  0.35398000  0.89993700  0.68682500  1
  Si  Si34  1  0.50000000  0.18705400  0.07388000  1
  Si  Si35  1  0.16349400  0.57274900  0.89588100  1
  Si  Si36  1  0.50000000  0.81294600  0.92612000  1
  Si  Si37  1  0.64602000  0.31236600  0.09838300  1
  Si  Si38  1  0.64719800  0.79019900  0.60595800  1
  Si  Si39  1  0.50000000  0.18705400  0.92612000  1
  Si  Si40  1  0.50000000  0.07489800  0.18829400  1
  Si  Si41  1  0.64742000  0.60741700  0.79198100  1
  Si  Si42  1  0.35280200  0.79019900  0.60595800  1
  Si  Si43  1  0.35398000  0.31236600  0.09838300  1
  Si  Si44  1  0.35280200  0.79019900  0.39404200  1
  Si  Si45  1  0.35398000  0.68763400  0.90161700  1
  Si  Si46  1  0.64742000  0.39258300  0.20801900  1
  Si  Si47  1  0.64742000  0.60741700  0.20801900  1
  Si  Si48  1  0.16349400  0.42725100  0.89588100  1
  Si  Si49  1  0.83650500  0.10503500  0.42759300  1
  Si  Si50  1  0.35258000  0.60741700  0.20801900  1
  Si  Si51  1  0.64602000  0.89993700  0.31317500  1
  Si  Si52  1  0.35398000  0.10006300  0.31317500  1
  Si  Si53  1  0.64719800  0.20980100  0.39404200  1
  Si  Si54  1  0.83650500  0.89496500  0.42759300  1
  Si  Si55  1  0.35398000  0.89993700  0.31317500  1
  Si  Si56  1  0.16349500  0.10503500  0.42759300  1
  Si  Si57  1  0.16349500  0.89496500  0.57240700  1
  Si  Si58  1  0.64602000  0.10006300  0.31317500  1
  Si  Si59  1  0.35398000  0.31236600  0.90161700  1
  Si  Si60  1  0.64602000  0.68763400  0.90161700  1
  Si  Si61  1  0.83650600  0.57274900  0.10411900  1
  Si  Si62  1  0.83650600  0.57274900  0.89588100  1
  Si  Si63  1  0.50000000  0.57756600  0.32269100  1
  O  O0  1  0.36027400  0.08309200  0.23484600  1
  O  O1  1  0.65516700  0.18014700  0.68019000  1
  O  O2  1  0.23600600  0.63722300  0.06984500  1
  O  O3  1  0.22003300  0.43104200  0.82086800  1
  O  O4  1  0.50000000  0.84321000  0.00000000  1
  O  O5  1  0.22003300  0.43104200  0.17913200  1
  O  O6  1  0.36018800  0.23383900  0.08100700  1
  O  O7  1  0.50000000  0.42516600  0.81611500  1
  O  O8  1  0.77996700  0.56895800  0.17913200  1
  O  O9  1  0.23578200  0.92900200  0.63691000  1
  O  O10  1  0.35990000  0.60519600  0.28689300  1
  O  O11  1  0.50000000  0.07299100  0.65793000  1
  O  O12  1  0.50000000  0.65805100  0.92802400  1
  O  O13  1  0.50000000  0.59988800  0.60260800  1
  O  O14  1  0.34404800  0.68182900  0.82189100  1
  O  O15  1  0.63972600  0.08309200  0.23484600  1
  O  O16  1  0.00000000  0.10391900  0.41407000  1
  O  O17  1  0.76421800  0.92900200  0.36309000  1
  O  O18  1  0.50000000  0.59988800  0.39739200  1
  O  O19  1  0.50000000  0.12795000  0.12813900  1
  O  O20  1  0.50000000  0.32888300  0.50000000  1
  O  O21  1  0.36018800  0.76616100  0.91899300  1
  O  O22  1  0.35990000  0.39480400  0.28689300  1
  O  O23  1  0.65595200  0.68182900  0.17810900  1
  O  O24  1  0.50000000  0.15679000  0.00000000  1
  O  O25  1  0.77974400  0.81965800  0.43193800  1
  O  O26  1  0.22003300  0.56895800  0.17913200  1
  O  O27  1  0.76399400  0.63722300  0.06984500  1
  O  O28  1  0.50000000  0.81493600  0.57389000  1
  O  O29  1  0.50000000  0.92700900  0.65793000  1
  O  O30  1  0.64010000  0.60519600  0.71310700  1
  O  O31  1  0.76421800  0.92900200  0.63691000  1
  O  O32  1  0.50000000  0.57483400  0.81611500  1
  O  O33  1  0.35990000  0.60519600  0.71310700  1
  O  O34  1  0.34404800  0.31817100  0.82189100  1
  O  O35  1  0.34483300  0.18014700  0.68019000  1
  O  O36  1  0.23600600  0.36277700  0.06984500  1
  O  O37  1  0.65516700  0.81985300  0.68019000  1
  O  O38  1  0.50000000  0.18506400  0.42611000  1
  O  O39  1  0.00000000  0.58609300  0.10295500  1
  O  O40  1  0.50000000  0.50000000  0.67817900  1
  O  O41  1  0.34483300  0.81985300  0.31981000  1
  O  O42  1  0.50000000  0.00000000  0.84031300  1
  O  O43  1  0.65516700  0.81985300  0.31981000  1
  O  O44  1  0.77974400  0.18034200  0.56806200  1
  O  O45  1  0.35992100  0.71098200  0.60315100  1
  O  O46  1  0.63981200  0.76616100  0.91899300  1
  O  O47  1  0.50000000  0.67111700  0.50000000  1
  O  O48  1  0.00000000  0.41390700  0.10295500  1
  O  O49  1  0.34404800  0.68182900  0.17810900  1
  O  O50  1  0.22025600  0.81965800  0.43193800  1
  O  O51  1  0.00000000  0.58609300  0.89704500  1
  O  O52  1  0.76399400  0.36277700  0.06984500  1
  O  O53  1  0.36018800  0.76616100  0.08100700  1
  O  O54  1  0.35990000  0.39480400  0.71310700  1
  O  O55  1  0.50000000  0.40011200  0.39739200  1
  O  O56  1  0.65516700  0.18014700  0.31981000  1
  O  O57  1  0.76421800  0.07099800  0.36309000  1
  O  O58  1  0.63981200  0.76616100  0.08100700  1
  O  O59  1  0.63981200  0.23383900  0.08100700  1
  O  O60  1  0.35992100  0.71098200  0.39684900  1
  O  O61  1  0.64007900  0.71098200  0.39684900  1
  O  O62  1  0.00000000  0.41390700  0.89704500  1
  O  O63  1  0.22025600  0.18034200  0.43193800  1
  O  O64  1  0.36027400  0.91690800  0.23484600  1
  O  O65  1  0.64007900  0.28901800  0.39684900  1
  O  O66  1  0.50000000  0.34194900  0.92802400  1
  O  O67  1  0.64010000  0.60519600  0.28689300  1
  O  O68  1  0.77974400  0.81965800  0.56806200  1
  O  O69  1  0.65595200  0.31817100  0.82189100  1
  O  O70  1  0.76421800  0.07099800  0.63691000  1
  O  O71  1  0.63972600  0.91690800  0.23484600  1
  O  O72  1  0.19303300  0.50000000  0.07201000  1
  O  O73  1  0.63981200  0.23383900  0.91899300  1
  O  O74  1  0.22025600  0.81965800  0.56806200  1
  O  O75  1  0.80696700  0.50000000  0.92799000  1
  O  O76  1  0.23600600  0.63722300  0.93015500  1
  O  O77  1  0.77996700  0.56895800  0.82086800  1
  O  O78  1  0.80695900  0.92728900  0.50000000  1
  O  O79  1  0.00000000  0.10391900  0.58593000  1
  O  O80  1  0.36027400  0.08309200  0.76515400  1
  O  O81  1  0.36018800  0.23383900  0.91899300  1
  O  O82  1  0.50000000  0.57483400  0.18388500  1
  O  O83  1  0.77974400  0.18034200  0.43193800  1
  O  O84  1  0.50000000  0.07299100  0.34207000  1
  O  O85  1  0.50000000  0.92700900  0.34207000  1
  O  O86  1  0.50000000  0.00000000  0.15968700  1
  O  O87  1  0.65595200  0.31817100  0.17810900  1
  O  O88  1  0.65595200  0.68182900  0.82189100  1
  O  O89  1  0.50000000  0.50000000  0.32182100  1
  O  O90  1  0.34404800  0.31817100  0.17810900  1
  O  O91  1  0.34483300  0.81985300  0.68019000  1
  O  O92  1  0.19303300  0.50000000  0.92799000  1
  O  O93  1  0.50000000  0.81493600  0.42611000  1
  O  O94  1  0.76399400  0.63722300  0.93015500  1
  O  O95  1  0.80695900  0.07271100  0.50000000  1
  O  O96  1  0.50000000  0.87205000  0.87186100  1
  O  O97  1  0.34483300  0.18014700  0.31981000  1
  O  O98  1  0.22025600  0.18034200  0.56806200  1
  O  O99  1  0.64007900  0.28901800  0.60315100  1
  O  O100  1  0.23578200  0.07099800  0.36309000  1
  O  O101  1  0.64010000  0.39480400  0.71310700  1
  O  O102  1  0.50000000  0.18506400  0.57389000  1
  O  O103  1  0.80696700  0.50000000  0.07201000  1
  O  O104  1  0.77996700  0.43104200  0.17913200  1
  O  O105  1  0.50000000  0.42516600  0.18388500  1
  O  O106  1  0.00000000  0.89608100  0.58593000  1
  O  O107  1  0.64007900  0.71098200  0.60315100  1
  O  O108  1  0.23600600  0.36277700  0.93015500  1
  O  O109  1  0.19304100  0.07271100  0.50000000  1
  O  O110  1  0.00000000  0.89608100  0.41407000  1
  O  O111  1  0.50000000  0.40011200  0.60260800  1
  O  O112  1  0.22003300  0.56895800  0.82086800  1
  O  O113  1  0.50000000  0.34194900  0.07197600  1
  O  O114  1  0.77996700  0.43104200  0.82086800  1
  O  O115  1  0.23578200  0.07099800  0.63691000  1
  O  O116  1  0.35992100  0.28901800  0.39684900  1
  O  O117  1  0.63972600  0.08309200  0.76515400  1
  O  O118  1  0.50000000  0.65805100  0.07197600  1
  O  O119  1  0.35992100  0.28901800  0.60315100  1
  O  O120  1  0.76399400  0.36277700  0.93015500  1
  O  O121  1  0.63972600  0.91690800  0.76515400  1
  O  O122  1  0.23578200  0.92900200  0.36309000  1
  O  O123  1  0.36027400  0.91690800  0.76515400  1
  O  O124  1  0.19304100  0.92728900  0.50000000  1
  O  O125  1  0.50000000  0.12795000  0.87186100  1
  O  O126  1  0.64010000  0.39480400  0.28689300  1
  O  O127  1  0.50000000  0.87205000  0.12813900  1
loop_
_geom_bond_atom_site_label_1
_geom_bond_atom_site_label_2
_geom_bond_distance
_geom_bond_site_symmetry_2
O0 Si52 1.651610 1_555
O0 Si40 1.674242 1_555
O1 Si8 1.647140 1_555
O1 Si17 1.648714 1_555
O2 Si6 1.653721 1_555
O2 Si11 1.656111 1_555
O3 Si21 1.626186 1_555
O3 Si48 1.642336 1_555
O4 Si36 1.643245 1_554
O4 Si14 1.643245 1_555
O5 Si2 1.626186 1_555
O5 Si1 1.642336 1_555
O6 Si43 1.649166 1_555
O6 Si34 1.672693 1_555
O7 Si21 1.660751 1_555
O7 Si29 1.660751 1_555
O8 Si47 1.626186 1_555
O8 Si61 1.642336 1_555
O9 Si33 1.655111 1_555
O9 Si57 1.657745 1_555
O10 Si50 1.626865 1_555
O10 Si63 1.652121 1_555
O11 Si27 1.639572 1_555
O11 Si17 1.639572 1_555
O12 Si45 1.639976 1_555
O12 Si60 1.639976 1_555
O13 Si28 1.605221 1_555
O13 Si30 1.610026 1_555
O14 Si13 1.646313 1_555
O14 Si45 1.649357 1_555
O15 Si58 1.651610 1_555
O15 Si40 1.674242 1_555
O16 Si49 1.618182 1_455
O16 Si56 1.618182 1_555
O17 Si51 1.655111 1_555
O17 Si54 1.657745 1_555
O18 Si63 1.605221 1_555
O18 Si12 1.610026 1_555
O19 Si34 1.647784 1_555
O19 Si40 1.648193 1_555
O20 Si18 1.587438 1_555
O20 Si10 1.587438 1_555
O21 Si45 1.649166 1_555
O21 Si36 1.672693 1_555
O22 Si2 1.626865 1_555
O22 Si0 1.652121 1_555
O23 Si47 1.646313 1_555
O23 Si7 1.649357 1_555
O24 Si39 1.643245 1_554
O24 Si34 1.643245 1_555
O25 Si23 1.625789 1_555
O25 Si54 1.641431 1_555
O26 Si50 1.626186 1_555
O26 Si11 1.642336 1_555
O27 Si7 1.653721 1_555
O27 Si61 1.656111 1_555
O28 Si42 1.659013 1_555
O28 Si38 1.659013 1_555
O29 Si33 1.639572 1_555
O29 Si19 1.639572 1_555
O30 Si41 1.626865 1_555
O30 Si28 1.652121 1_555
O31 Si19 1.655111 1_555
O31 Si22 1.657745 1_555
O32 Si13 1.660751 1_555
O32 Si41 1.660751 1_555
O33 Si13 1.626865 1_555
O33 Si28 1.652121 1_555
O34 Si21 1.646313 1_555
O34 Si59 1.649357 1_555
O35 Si16 1.647140 1_555
O35 Si27 1.648714 1_555
O36 Si43 1.653721 1_555
O36 Si1 1.656111 1_555
O37 Si38 1.647140 1_555
O37 Si19 1.648714 1_555
O38 Si20 1.659013 1_555
O38 Si53 1.659013 1_555
O39 Si11 1.617305 1_555
O39 Si61 1.617305 1_455
O40 Si15 1.589135 1_555
O40 Si28 1.589135 1_555
O41 Si44 1.647140 1_555
O41 Si55 1.648714 1_555
O42 Si31 1.643633 1_555
O42 Si32 1.643633 1_545
O43 Si23 1.647140 1_555
O43 Si51 1.648714 1_555
O44 Si8 1.625789 1_555
O44 Si24 1.641431 1_555
O45 Si42 1.625369 1_555
O45 Si30 1.650557 1_555
O46 Si60 1.649166 1_555
O46 Si36 1.672693 1_555
O47 Si30 1.587438 1_555
O47 Si12 1.587438 1_555
O48 Si1 1.617305 1_555
O48 Si5 1.617305 1_455
O49 Si50 1.646313 1_555
O49 Si6 1.649357 1_555
O50 Si44 1.625789 1_555
O50 Si25 1.641431 1_555
O51 Si35 1.617305 1_555
O51 Si62 1.617305 1_455
O52 Si37 1.653721 1_555
O52 Si5 1.656111 1_555
O53 Si6 1.649166 1_555
O53 Si14 1.672693 1_555
O54 Si21 1.626865 1_555
O54 Si15 1.652121 1_555
O55 Si0 1.605221 1_555
O55 Si10 1.610026 1_555
O56 Si53 1.647140 1_555
O56 Si58 1.648714 1_555
O57 Si58 1.655111 1_555
O57 Si49 1.657745 1_555
O58 Si7 1.649166 1_555
O58 Si14 1.672693 1_555
O59 Si37 1.649166 1_555
O59 Si34 1.672693 1_555
O60 Si44 1.625369 1_555
O60 Si12 1.650557 1_555
O61 Si23 1.625369 1_555
O61 Si12 1.650557 1_555
O62 Si48 1.617305 1_555
O62 Si4 1.617305 1_455
O63 Si20 1.625789 1_555
O63 Si56 1.641431 1_555
O64 Si55 1.651610 1_555
O64 Si9 1.674242 1_555
O65 Si53 1.625369 1_555
O65 Si10 1.650557 1_555
O66 Si59 1.639976 1_555
O66 Si3 1.639976 1_555
O67 Si47 1.626865 1_555
O67 Si63 1.652121 1_555
O68 Si38 1.625789 1_555
O68 Si22 1.641431 1_555
O69 Si29 1.646313 1_555
O69 Si3 1.649357 1_555
O70 Si17 1.655111 1_555
O70 Si24 1.657745 1_555
O71 Si51 1.651610 1_555
O71 Si9 1.674242 1_555
O72 Si11 1.655750 1_555
O72 Si1 1.655750 1_555
O73 Si3 1.649166 1_555
O73 Si39 1.672693 1_555
O74 Si42 1.625789 1_555
O74 Si57 1.641431 1_555
O75 Si62 1.655750 1_555
O75 Si4 1.655750 1_555
O76 Si45 1.653721 1_555
O76 Si35 1.656111 1_555
O77 Si41 1.626186 1_555
O77 Si62 1.642336 1_555
O78 Si54 1.657076 1_555
O78 Si22 1.657076 1_555
O79 Si24 1.618182 1_455
O79 Si26 1.618182 1_555
O80 Si27 1.651610 1_555
O80 Si31 1.674242 1_555
O81 Si59 1.649166 1_555
O81 Si39 1.672693 1_555
O82 Si50 1.660751 1_555
O82 Si47 1.660751 1_555
O83 Si53 1.625789 1_555
O83 Si49 1.641431 1_555
O84 Si52 1.639572 1_555
O84 Si58 1.639572 1_555
O85 Si55 1.639572 1_555
O85 Si51 1.639572 1_555
O86 Si9 1.643633 1_545
O86 Si40 1.643633 1_555
O87 Si46 1.646313 1_555
O87 Si37 1.649357 1_555
O88 Si41 1.646313 1_555
O88 Si60 1.649357 1_555
O89 Si0 1.589135 1_555
O89 Si63 1.589135 1_555
O90 Si2 1.646313 1_555
O90 Si43 1.649357 1_555
O91 Si42 1.647140 1_555
O91 Si33 1.648714 1_555
O92 Si35 1.655750 1_555
O92 Si48 1.655750 1_555
O93 Si44 1.659013 1_555
O93 Si23 1.659013 1_555
O94 Si60 1.653721 1_555
O94 Si62 1.656111 1_555
O95 Si24 1.657076 1_555
O95 Si49 1.657076 1_555
O96 Si36 1.647784 1_555
O96 Si32 1.648193 1_555
O97 Si20 1.647140 1_555
O97 Si52 1.648714 1_555
O98 Si16 1.625789 1_555
O98 Si26 1.641431 1_555
O99 Si8 1.625369 1_555
O99 Si18 1.650557 1_555
O100 Si52 1.655111 1_555
O100 Si56 1.657745 1_555
O101 Si29 1.626865 1_555
O101 Si15 1.652121 1_555
O102 Si16 1.659013 1_555
O102 Si8 1.659013 1_555
O103 Si61 1.655750 1_555
O103 Si5 1.655750 1_555
O104 Si46 1.626186 1_555
O104 Si5 1.642336 1_555
O105 Si2 1.660751 1_555
O105 Si46 1.660751 1_555
O106 Si22 1.618182 1_455
O106 Si57 1.618182 1_555
O107 Si38 1.625369 1_555
O107 Si30 1.650557 1_555
O108 Si59 1.653721 1_555
O108 Si48 1.656111 1_555
O109 Si26 1.657076 1_555
O109 Si56 1.657076 1_555
O110 Si54 1.618182 1_455
O110 Si25 1.618182 1_555
O111 Si15 1.605221 1_555
O111 Si18 1.610026 1_555
O112 Si13 1.626186 1_555
O112 Si35 1.642336 1_555
O113 Si43 1.639976 1_555
O113 Si37 1.639976 1_555
O114 Si29 1.626186 1_555
O114 Si4 1.642336 1_555
O115 Si27 1.655111 1_555
O115 Si26 1.657745 1_555
O116 Si20 1.625369 1_555
O116 Si10 1.650557 1_555
O117 Si17 1.651610 1_555
O117 Si31 1.674242 1_555
O118 Si6 1.639976 1_555
O118 Si7 1.639976 1_555
O119 Si16 1.625369 1_555
O119 Si18 1.650557 1_555
O120 Si3 1.653721 1_555
O120 Si4 1.656111 1_555
O121 Si19 1.651610 1_555
O121 Si32 1.674242 1_555
O122 Si55 1.655111 1_555
O122 Si25 1.657745 1_555
O123 Si33 1.651610 1_555
O123 Si32 1.674242 1_555
O124 Si25 1.657076 1_555
O124 Si57 1.657076 1_555
O125 Si39 1.647784 1_555
O125 Si31 1.648193 1_555
O126 Si46 1.626865 1_555
O126 Si0 1.652121 1_555
O127 Si14 1.647784 1_555
O127 Si9 1.648193 1_555
