# generated using pymatgen
data_BaAlH5
_symmetry_space_group_name_H-M   'P 1'
_cell_length_a   5.10199353
_cell_length_b   7.06127914
_cell_length_c   9.23165635
_cell_angle_alpha   90.00000000
_cell_angle_beta   90.00000000
_cell_angle_gamma   90.00000000
_symmetry_Int_Tables_number   1
_chemical_formula_structural   BaAlH5
_chemical_formula_sum   'Ba4 Al4 H20'
_cell_volume   332.58519514
_cell_formula_units_Z   4
loop_
 _symmetry_equiv_pos_site_id
 _symmetry_equiv_pos_as_xyz
  1  'x, y, z'
loop_
 _atom_site_type_symbol
 _atom_site_label
 _atom_site_symmetry_multiplicity
 _atom_site_fract_x
 _atom_site_fract_y
 _atom_site_fract_z
 _atom_site_occupancy
  Ba  Ba0  1  0.25413010  0.34496129  0.18647781  1
  Ba  Ba1  1  0.75413010  0.65503871  0.81352219  1
  Ba  Ba2  1  0.75413010  0.84496129  0.31352219  1
  Ba  Ba3  1  0.25413010  0.15503871  0.68647781  1
  Al  Al0  1  0.22884416  0.65322120  0.54018390  1
  Al  Al1  1  0.72884416  0.34677880  0.45981610  1
  Al  Al2  1  0.72884416  0.15322120  0.95981610  1
  Al  Al3  1  0.22884416  0.84677880  0.04018390  1
  H  H0  1  0.91054090  0.55073230  0.50689090  1
  H  H1  1  0.41054090  0.44926770  0.49310910  1
  H  H2  1  0.41054090  0.05073230  0.99310910  1
  H  H3  1  0.91054090  0.94926770  0.00689090  1
  H  H4  1  0.02524587  0.65823826  0.08259408  1
  H  H5  1  0.52524587  0.34176174  0.91740592  1
  H  H6  1  0.52524587  0.15823826  0.41740592  1
  H  H7  1  0.02524587  0.84176174  0.58259408  1
  H  H8  1  0.50029109  0.71341675  0.07735693  1
  H  H9  1  0.00029109  0.28658325  0.92264307  1
  H  H10  1  0.00029109  0.21341675  0.42264307  1
  H  H11  1  0.50029109  0.78658325  0.57735693  1
  H  H12  1  0.23353658  0.80550773  0.85956017  1
  H  H13  1  0.73353658  0.19449227  0.14043983  1
  H  H14  1  0.73353658  0.30550773  0.64043983  1
  H  H15  1  0.23353658  0.69449227  0.35956017  1
  H  H16  1  0.21441231  0.95476139  0.20494834  1
  H  H17  1  0.71441231  0.04523861  0.79505166  1
  H  H18  1  0.71441231  0.45476139  0.29505166  1
  H  H19  1  0.21441231  0.54523861  0.70494834  1
loop_
_geom_bond_atom_site_label_1
_geom_bond_atom_site_label_2
_geom_bond_distance
_geom_bond_site_symmetry_2
Ba0 H18 2.668437 1_555
Ba0 H4 2.678981 1_555
Ba0 H13 2.700391 1_555
Ba0 H10 2.700612 1_555
Ba0 H16 2.768009 1_545
Ba0 H9 2.789171 1_554
Ba0 H5 2.843236 1_554
Ba0 H2 2.853069 1_554
Ba0 H6 2.862963 1_555
Ba0 H13 2.892097 1_455
Ba0 H15 2.942077 1_555
Ba0 H18 3.031219 1_455
Ba0 H1 3.031872 1_555
Ba0 H8 3.059623 1_555
Ba1 H19 2.668437 1_655
Ba1 H5 2.678981 1_555
Ba1 H12 2.700391 1_655
Ba1 H11 2.700612 1_555
Ba1 H17 2.768009 1_565
Ba1 H8 2.789171 1_556
Ba1 H4 2.843236 1_656
Ba1 H3 2.853069 1_556
Ba1 H7 2.862963 1_655
Ba1 H12 2.892097 1_555
Ba1 H14 2.942077 1_555
Ba1 H19 3.031219 1_555
Ba1 H0 3.031872 1_555
Ba1 H9 3.059623 1_655
Ba2 H16 2.668437 1_655
Ba2 H6 2.678981 1_565
Ba2 H15 2.700391 1_655
Ba2 H8 2.700612 1_555
Ba2 H18 2.768009 1_555
Ba2 H11 2.789171 1_555
Ba2 H7 2.843236 1_655
Ba2 H0 2.853069 1_555
Ba2 H4 2.862963 1_655
Ba2 H15 2.892097 1_555
Ba2 H13 2.942077 1_565
Ba2 H16 3.031219 1_555
Ba2 H3 3.031872 1_555
Ba2 H10 3.059623 1_665
Ba3 H17 2.668437 1_555
Ba3 H7 2.678981 1_545
Ba3 H14 2.700391 1_555
Ba3 H9 2.700612 1_555
Ba3 H19 2.768009 1_555
Ba3 H10 2.789171 1_555
Ba3 H6 2.843236 1_555
Ba3 H1 2.853069 1_555
Ba3 H5 2.862963 1_555
Ba3 H14 2.892097 1_455
Ba3 H12 2.942077 1_545
Ba3 H17 3.031219 1_455
Ba3 H2 3.031872 1_555
Ba3 H11 3.059623 1_545
Al0 H15 1.692901 1_555
Al0 H19 1.703059 1_555
Al0 H11 1.709556 1_555
Al0 H7 1.733425 1_555
Al0 H1 1.767007 1_555
Al0 H0 1.804307 1_455
Al1 H14 1.692901 1_555
Al1 H18 1.703059 1_555
Al1 H10 1.709556 1_655
Al1 H6 1.733425 1_555
Al1 H0 1.767007 1_555
Al1 H1 1.804307 1_555
Al2 H13 1.692901 1_556
Al2 H17 1.703059 1_555
Al2 H9 1.709556 1_655
Al2 H5 1.733425 1_555
Al2 H3 1.767007 1_546
Al2 H2 1.804307 1_555
Al3 H12 1.692901 1_554
Al3 H16 1.703059 1_555
Al3 H8 1.709556 1_555
Al3 H4 1.733425 1_555
Al3 H2 1.767007 1_564
Al3 H3 1.804307 1_455
