# generated using pymatgen
data_InSiIr
_symmetry_space_group_name_H-M   'P 1'
_cell_length_a   4.39377769
_cell_length_b   4.39377769
_cell_length_c   4.39377769
_cell_angle_alpha   60.00000000
_cell_angle_beta   60.00000000
_cell_angle_gamma   60.00000000
_symmetry_Int_Tables_number   1
_chemical_formula_structural   InSiIr
_chemical_formula_sum   'In1 Si1 Ir1'
_cell_volume   59.97900271
_cell_formula_units_Z   1
loop_
 _symmetry_equiv_pos_site_id
 _symmetry_equiv_pos_as_xyz
  1  'x, y, z'
loop_
 _atom_site_type_symbol
 _atom_site_label
 _atom_site_symmetry_multiplicity
 _atom_site_fract_x
 _atom_site_fract_y
 _atom_site_fract_z
 _atom_site_occupancy
  In  In0  1  0.75000000  0.75000000  0.75000000  1
  Si  Si0  1  0.50000000  0.50000000  0.50000000  1
  Ir  Ir0  1  0.00000000  0.00000000  0.00000000  1
loop_
_geom_bond_atom_site_label_1
_geom_bond_atom_site_label_2
_geom_bond_distance
_geom_bond_site_symmetry_2
In0 Ir0 2.690628 1_566
In0 Si0 2.690628 1_565
In0 Si0 2.690628 1_655
In0 Ir0 2.690628 1_656
In0 Ir0 2.690628 1_665
In0 Ir0 2.690628 1_666
In0 Si0 2.690628 1_556
In0 Si0 2.690628 1_555
Ir0 Si0 3.106870 1_544
Ir0 Si0 3.106870 1_454
Ir0 Si0 3.106870 1_545
Ir0 Si0 3.106870 1_445
Ir0 Si0 3.106870 1_554
Ir0 Si0 3.106870 1_455
