# generated using pymatgen
data_LiAlPHO5
_symmetry_space_group_name_H-M   'P 1'
_cell_length_a   5.09262500
_cell_length_b   5.26167953
_cell_length_c   7.11300460
_cell_angle_alpha   106.74779175
_cell_angle_beta   109.21955959
_cell_angle_gamma   97.91435618
_symmetry_Int_Tables_number   1
_chemical_formula_structural   LiAlPHO5
_chemical_formula_sum   'Li2 Al2 P2 H2 O10'
_cell_volume   166.54379559
_cell_formula_units_Z   2
loop_
 _symmetry_equiv_pos_site_id
 _symmetry_equiv_pos_as_xyz
  1  'x, y, z'
loop_
 _atom_site_type_symbol
 _atom_site_label
 _atom_site_symmetry_multiplicity
 _atom_site_fract_x
 _atom_site_fract_y
 _atom_site_fract_z
 _atom_site_occupancy
  Li  Li0  1  0.74995000  0.39396600  0.31320400  1
  Li  Li1  1  0.25005000  0.60603400  0.68679600  1
  Al  Al0  1  0.00000000  0.00000000  0.00000000  1
  Al  Al1  1  0.00000000  0.00000000  0.50000000  1
  P  P0  1  0.32716000  0.64313900  0.26524700  1
  P  P1  1  0.67284000  0.35686100  0.73475300  1
  H  H0  1  0.33785200  0.07085000  0.84747300  1
  H  H1  1  0.66214800  0.92915000  0.15252700  1
  O  O0  1  0.69746900  0.66566000  0.84145800  1
  O  O1  1  0.30253100  0.33434000  0.15854200  1
  O  O2  1  0.35511400  0.24022700  0.57737300  1
  O  O3  1  0.64488600  0.75977300  0.42262700  1
  O  O4  1  0.87456700  0.32357000  0.61013500  1
  O  O5  1  0.12543300  0.67643000  0.38986500  1
  O  O6  1  0.26392000  0.79251700  0.10376500  1
  O  O7  1  0.73608000  0.20748300  0.89623500  1
  O  O8  1  0.13604400  0.95771300  0.77436000  1
  O  O9  1  0.86395600  0.04228700  0.22564000  1
loop_
_geom_bond_atom_site_label_1
_geom_bond_atom_site_label_2
_geom_bond_distance
_geom_bond_site_symmetry_2
Li0 O9 2.004694 1_555
Li0 O5 2.055852 1_655
Li0 O3 2.071515 1_555
Li0 O1 2.110525 1_555
Li0 O4 2.152653 1_555
Li1 O8 2.004694 1_555
Li1 O4 2.055852 1_455
Li1 O2 2.071515 1_555
Li1 O0 2.110525 1_555
Li1 O5 2.152653 1_555
Al0 O8 1.916820 1_544
Al0 O9 1.916820 1_455
Al0 O0 1.925241 1_444
Al0 O1 1.925241 1_555
Al0 O6 1.938656 1_545
Al0 O7 1.938656 1_454
Al1 O2 1.866928 1_555
Al1 O3 1.866928 1_445
Al1 O9 1.934034 1_455
Al1 O8 1.934034 1_545
Al1 O5 1.944382 1_545
Al1 O4 1.944382 1_455
H0 O8 0.991098 1_545
H1 O9 0.991098 1_565
O0 P1 1.549923 1_555
O1 P0 1.549923 1_555
O2 P1 1.544658 1_555
O3 P0 1.544658 1_555
O4 P1 1.559294 1_555
O5 P0 1.559294 1_555
O6 P0 1.545080 1_555
O7 P1 1.545080 1_555
