# generated using pymatgen
data_ZnCuHg4As7S12
_symmetry_space_group_name_H-M   'P 1'
_cell_length_a   9.33204626
_cell_length_b   9.55941448
_cell_length_c   28.23683249
_cell_angle_alpha   111.99308138
_cell_angle_beta   107.23525615
_cell_angle_gamma   107.87526739
_symmetry_Int_Tables_number   1
_chemical_formula_structural   ZnCuHg4As7S12
_chemical_formula_sum   'Zn3 Cu3 Hg12 As21 S36'
_cell_volume   1966.78482325
_cell_formula_units_Z   3
loop_
 _symmetry_equiv_pos_site_id
 _symmetry_equiv_pos_as_xyz
  1  'x, y, z'
loop_
 _atom_site_type_symbol
 _atom_site_label
 _atom_site_symmetry_multiplicity
 _atom_site_fract_x
 _atom_site_fract_y
 _atom_site_fract_z
 _atom_site_occupancy
  Zn  Zn0  1  0.22935632  0.73135626  0.83304177  1
  Zn  Zn1  1  0.25190422  0.75051290  0.49997577  1
  Zn  Zn2  1  0.22125297  0.73297199  0.16224495  1
  Cu  Cu0  1  0.77088736  0.51048158  0.75914212  1
  Cu  Cu1  1  0.76968242  0.50785469  0.41701895  1
  Cu  Cu2  1  0.73968335  0.49009547  0.08160612  1
  Hg  Hg0  1  0.22578393  0.47219504  0.91380737  1
  Hg  Hg1  1  0.50823757  0.75962376  0.75429932  1
  Hg  Hg2  1  0.25314492  0.51149580  0.58735980  1
  Hg  Hg3  1  0.51559816  0.30428652  0.92358157  1
  Hg  Hg4  1  0.75623935  0.23821554  0.83249606  1
  Hg  Hg5  1  0.50406457  0.72418358  0.40720251  1
  Hg  Hg6  1  0.24559887  0.54940836  0.25279993  1
  Hg  Hg7  1  0.51537568  0.26184269  0.58888176  1
  Hg  Hg8  1  0.76520380  0.25091681  0.49852954  1
  Hg  Hg9  1  0.49222425  0.74061788  0.10016518  1
  Hg  Hg10  1  0.51249598  0.26542470  0.25093922  1
  Hg  Hg11  1  0.74885129  0.25181097  0.16395930  1
  As  As0  1  0.99431619  0.88502645  0.69305373  1
  As  As1  1  0.00907740  0.98120186  0.83305371  1
  As  As2  1  0.00155108  0.46754815  0.67136362  1
  As  As3  1  0.98677460  0.93180236  0.37933815  1
  As  As4  1  0.16772382  0.17478343  0.71601441  1
  As  As5  1  0.54030911  0.53582922  0.84626798  1
  As  As6  1  0.01609593  0.99969281  0.49247044  1
  As  As7  1  0.00888820  0.47614788  0.33542304  1
  As  As8  1  0.16631301  0.19913192  0.38542409  1
  As  As9  1  0.46760981  0.01266857  0.67077902  1
  As  As10  1  0.55105913  0.54633608  0.51523759  1
  As  As11  1  0.99008084  0.96351928  0.15712678  1
  As  As12  1  0.99833833  0.48863707  0.00440388  1
  As  As13  1  0.02348783  0.93683584  0.61630495  1
  As  As14  1  0.17811569  0.01859759  0.29736592  1
  As  As15  1  0.45986206  0.00301602  0.32863630  1
  As  As16  1  0.50010995  0.51135265  0.16906752  1
  As  As17  1  0.85784652  0.03729055  0.66124078  1
  As  As18  1  0.49134885  0.03035671  0.00925561  1
  As  As19  1  0.84646088  0.05333775  0.33450612  1
  As  As20  1  0.69697304  0.88550907  0.94949606  1
  S  S0  1  0.99889150  0.54465614  0.93193984  1
  S  S1  1  0.22722735  0.21429670  0.92618417  1
  S  S2  1  0.99466906  0.53256696  0.59869617  1
  S  S3  1  0.22092891  0.74320979  0.75095224  1
  S  S4  1  0.99977454  0.75608287  0.49596882  1
  S  S5  1  0.26594306  0.49714059  0.83154118  1
  S  S6  1  0.52242674  0.50140368  0.75974608  1
  S  S7  1  0.22186784  0.22817248  0.58591693  1
  S  S8  1  0.47082586  0.24481049  0.82430318  1
  S  S9  1  0.96988294  0.73257691  0.16591776  1
  S  S10  1  0.23229342  0.74416015  0.41129199  1
  S  S11  1  0.98316676  0.53487680  0.25988863  1
  S  S12  1  0.79353684  0.00597892  0.85503657  1
  S  S13  1  0.27054780  0.50394656  0.49624262  1
  S  S14  1  0.50953949  0.98802851  0.92241482  1
  S  S15  1  0.53212283  0.79407307  0.67071213  1
  S  S16  1  0.49699262  0.98249725  0.58790271  1
  S  S17  1  0.52459444  0.48061314  0.42525913  1
  S  S18  1  0.19918582  0.18193243  0.25466244  1
  S  S19  1  0.00226142  0.75684580  0.84736125  1
  S  S20  1  0.48859221  0.26801526  0.49505782  1
  S  S21  1  0.21766994  0.76311730  0.08050355  1
  S  S22  1  0.22307013  0.47093278  0.14823963  1
  S  S23  1  0.78315216  0.51955152  0.67988061  1
  S  S24  1  0.74265150  0.23991392  0.74126685  1
  S  S25  1  0.54348092  0.69354496  0.32100728  1
  S  S26  1  0.44621958  0.23808909  0.15065283  1
  S  S27  1  0.47958022  0.45541220  0.07903202  1
  S  S28  1  0.78354324  0.52488044  0.33890784  1
  S  S29  1  0.78171520  0.99485368  0.50458022  1
  S  S30  1  0.74469438  0.23653811  0.39733773  1
  S  S31  1  0.47635458  0.97487602  0.24665668  1
  S  S32  1  0.55725241  0.80478534  0.99887775  1
  S  S33  1  0.77480883  0.99851426  0.17822844  1
  S  S34  1  0.78247005  0.55002063  0.01224829  1
  S  S35  1  0.76013719  0.24717046  0.07270488  1
loop_
_geom_bond_atom_site_label_1
_geom_bond_atom_site_label_2
_geom_bond_distance
_geom_bond_site_symmetry_2
Cu0 S6 2.298904 1_555
Cu0 S23 2.306671 1_555
Cu0 S24 2.353510 1_555
Cu0 S19 2.389721 1_655
Cu1 S4 2.298795 1_555
Cu1 S28 2.309317 1_555
Cu1 S17 2.312621 1_555
Cu1 S30 2.358489 1_555
Cu2 S35 2.314237 1_555
Cu2 S27 2.321707 1_555
Cu2 S9 2.331271 1_555
Cu2 S34 2.342299 1_555
Hg0 S5 2.543476 1_555
Hg0 S0 2.549979 1_455
Hg0 S1 2.619776 1_555
Hg0 S32 3.047311 1_555
Hg1 S15 2.564705 1_555
Hg1 S6 2.570463 1_555
Hg1 S3 2.608205 1_555
Hg1 S12 2.715039 1_565
Hg2 S2 2.582409 1_455
Hg2 S13 2.601333 1_555
Hg2 S7 2.616738 1_555
Hg2 S15 2.627548 1_555
Hg3 S34 2.509472 1_556
Hg3 S8 2.514493 1_555
Hg3 S1 2.594374 1_555
Hg3 S14 2.993932 1_545
Hg4 S24 2.547796 1_555
Hg4 S12 2.618445 1_555
Hg4 S8 2.626890 1_555
Hg4 S0 2.755473 1_555
Hg5 S25 2.491507 1_555
Hg5 S17 2.612125 1_555
Hg5 S10 2.633698 1_555
Hg5 S29 2.702345 1_555
Hg6 S25 2.413248 1_555
Hg6 S11 2.481848 1_455
Hg6 S22 2.683351 1_555
Hg7 S23 2.567210 1_555
Hg7 S20 2.611213 1_555
Hg7 S16 2.611855 1_545
Hg7 S7 2.629755 1_555
Hg8 S29 2.563963 1_545
Hg8 S20 2.611660 1_555
Hg8 S2 2.646162 1_555
Hg8 S30 2.754180 1_555
Hg9 S27 2.519027 1_555
Hg9 S33 2.526850 1_555
Hg9 S21 2.550277 1_555
Hg10 S28 2.555525 1_555
Hg10 S26 2.603537 1_555
Hg10 S31 2.644228 1_545
Hg10 S18 2.830061 1_555
Hg11 S35 2.594360 1_555
Hg11 S11 2.609338 1_555
Hg11 S33 2.667771 1_545
Hg11 S26 2.690944 1_555
As0 As17 2.446804 1_565
As0 As4 2.448052 1_665
As0 As13 2.467113 1_655
As1 S19 2.312468 1_555
As1 S12 2.325833 1_465
As1 S1 2.383037 1_565
As2 S23 2.298207 1_455
As2 S2 2.345710 1_455
As2 S3 2.389971 1_555
As3 As8 2.497865 1_665
As3 As6 2.919087 1_655
As5 S6 2.286352 1_555
As5 S5 2.353272 1_555
As5 S8 2.430316 1_555
As6 S29 2.301320 1_455
As6 S4 2.328001 1_455
As6 S7 2.350831 1_565
As7 S28 2.310565 1_455
As7 S10 2.337371 1_555
As7 S11 2.366021 1_455
As8 S13 2.975807 1_555
As9 S15 2.345014 1_545
As9 S16 2.357544 1_545
As9 S24 2.362170 1_555
As10 S17 2.290904 1_555
As10 S20 2.336398 1_555
As10 S13 2.378753 1_555
As11 S9 2.270175 1_555
As11 S33 2.339945 1_555
As11 S18 2.399882 1_665
As12 S0 2.301913 1_554
As12 S34 2.311777 1_555
As12 S21 2.359085 1_655
As13 As4 2.447592 1_565
As13 As17 2.466263 1_465
As14 S18 2.300597 1_555
As14 As8 2.497612 1_555
As15 S31 2.285761 1_545
As15 S30 2.422825 1_555
As16 S26 2.316958 1_555
As16 S27 2.327284 1_555
As16 S22 2.344084 1_555
As17 As4 2.444544 1_655
As18 S35 2.271903 1_555
As18 S32 2.358289 1_544
As18 S14 2.398139 1_544
As19 As3 2.391672 1_545
As19 As8 2.514214 1_655
As19 S30 2.609385 1_555
As20 S14 2.329314 1_555
As20 S32 2.346383 1_555
S3 Zn0 2.342238 1_555
S4 Zn1 2.339952 1_655
S5 Zn0 2.353325 1_555
S9 Zn2 2.377510 1_655
S10 Zn1 2.432210 1_555
S13 Zn1 2.381909 1_555
S14 Zn0 2.595989 1_555
S16 Zn1 2.389689 1_555
S19 Zn0 2.337761 1_555
S21 Zn2 2.422794 1_555
S22 Zn2 2.391548 1_555
S31 Zn2 2.413643 1_555
