# generated using pymatgen
data_LiMnP2O7
_symmetry_space_group_name_H-M   'P 1'
_cell_length_a   13.35484400
_cell_length_b   5.04960000
_cell_length_c   9.61579636
_cell_angle_alpha   60.99132423
_cell_angle_beta   90.00000000
_cell_angle_gamma   90.00000000
_symmetry_Int_Tables_number   1
_chemical_formula_structural   LiMnP2O7
_chemical_formula_sum   'Li4 Mn4 P8 O28'
_cell_volume   567.10549320
_cell_formula_units_Z   4
loop_
 _symmetry_equiv_pos_site_id
 _symmetry_equiv_pos_as_xyz
  1  'x, y, z'
loop_
 _atom_site_type_symbol
 _atom_site_label
 _atom_site_symmetry_multiplicity
 _atom_site_fract_x
 _atom_site_fract_y
 _atom_site_fract_z
 _atom_site_occupancy
  Li  Li0  1  0.62456400  0.99256400  0.65830200  1
  Li  Li1  1  0.37543600  0.00743600  0.34169800  1
  Li  Li2  1  0.87543600  0.99256400  0.15830200  1
  Li  Li3  1  0.12456400  0.00743600  0.84169800  1
  Mn  Mn0  1  0.83642300  0.04529400  0.75381000  1
  Mn  Mn1  1  0.16357700  0.95470600  0.24619000  1
  Mn  Mn2  1  0.33642300  0.95470600  0.74619000  1
  Mn  Mn3  1  0.66357700  0.04529400  0.25381000  1
  P  P0  1  0.32402700  0.26919100  0.96189800  1
  P  P1  1  0.02955600  0.48288000  0.22483100  1
  P  P2  1  0.17597300  0.26919100  0.46189800  1
  P  P3  1  0.67597300  0.73080900  0.03810200  1
  P  P4  1  0.82402700  0.73080900  0.53810200  1
  P  P5  1  0.47044400  0.48288000  0.72483100  1
  P  P6  1  0.97044400  0.51712000  0.77516900  1
  P  P7  1  0.52955600  0.51712000  0.27516900  1
  O  O0  1  0.68875900  0.95352400  0.86321400  1
  O  O1  1  0.05785400  0.31771600  0.41690100  1
  O  O2  1  0.72270200  0.84693700  0.14586200  1
  O  O3  1  0.18875900  0.04647600  0.63678600  1
  O  O4  1  0.42528500  0.40132300  0.29571400  1
  O  O5  1  0.88988800  0.26119900  0.85810500  1
  O  O6  1  0.38988800  0.73880100  0.64189500  1
  O  O7  1  0.04657200  0.23123300  0.17812000  1
  O  O8  1  0.61011200  0.26119900  0.35810500  1
  O  O9  1  0.77729800  0.84693700  0.64586200  1
  O  O10  1  0.57471500  0.59867700  0.70428600  1
  O  O11  1  0.28220800  0.58237700  0.92024900  1
  O  O12  1  0.95342800  0.76876700  0.82188000  1
  O  O13  1  0.92528500  0.59867700  0.20428600  1
  O  O14  1  0.22270200  0.15306300  0.35413800  1
  O  O15  1  0.11011200  0.73880100  0.14189500  1
  O  O16  1  0.27729800  0.15306300  0.85413800  1
  O  O17  1  0.81124100  0.95352400  0.36321400  1
  O  O18  1  0.54657200  0.76876700  0.32188000  1
  O  O19  1  0.31124100  0.04647600  0.13678600  1
  O  O20  1  0.45342800  0.23123300  0.67812000  1
  O  O21  1  0.94214600  0.68228400  0.58309900  1
  O  O22  1  0.07471500  0.40132300  0.79571400  1
  O  O23  1  0.71779200  0.41762300  0.07975100  1
  O  O24  1  0.21779200  0.58237700  0.42024900  1
  O  O25  1  0.78220800  0.41762300  0.57975100  1
  O  O26  1  0.55785400  0.68228400  0.08309900  1
  O  O27  1  0.44214600  0.31771600  0.91690100  1
loop_
_geom_bond_atom_site_label_1
_geom_bond_atom_site_label_2
_geom_bond_distance
_geom_bond_site_symmetry_2
Li0 O10 1.934356 1_555
Li0 O0 2.068709 1_555
Li0 O9 2.191098 1_555
Li0 O8 2.532233 1_565
Li0 O20 2.633442 1_565
Li1 O4 1.934356 1_555
Li1 O19 2.068709 1_555
Li1 O14 2.191098 1_555
Li1 O6 2.532233 1_545
Li1 O18 2.633442 1_545
Li2 O13 1.934356 1_555
Li2 O17 2.068709 1_555
Li2 O2 2.191098 1_555
Li2 O5 2.532233 1_564
Li2 O7 2.633442 1_665
Li3 O22 1.934356 1_555
Li3 O3 2.068709 1_555
Li3 O16 2.191098 1_555
Li3 O15 2.532233 1_546
Li3 O12 2.633442 1_445
Mn0 O9 1.926801 1_545
Mn0 O5 1.940269 1_555
Mn0 O25 1.951503 1_555
Mn0 O12 1.983291 1_545
Mn0 O0 2.176589 1_545
Mn1 O14 1.926801 1_565
Mn1 O15 1.940269 1_555
Mn1 O24 1.951503 1_555
Mn1 O7 1.983291 1_565
Mn1 O19 2.176589 1_565
Mn2 O16 1.926801 1_565
Mn2 O6 1.940269 1_555
Mn2 O11 1.951503 1_555
Mn2 O20 1.983291 1_565
Mn2 O3 2.176589 1_565
Mn3 O2 1.926801 1_545
Mn3 O8 1.940269 1_555
Mn3 O23 1.951503 1_555
Mn3 O18 1.983291 1_545
Mn3 O17 2.176589 1_545
O0 P3 1.512514 1_556
O1 P2 1.622593 1_555
O1 P1 1.659971 1_555
O2 P3 1.548014 1_555
O3 P2 1.512514 1_555
O4 P7 1.485940 1_555
O5 P6 1.569663 1_555
O6 P5 1.569663 1_555
O7 P1 1.556175 1_555
O8 P7 1.569663 1_555
O9 P4 1.548014 1_555
O10 P5 1.485940 1_555
O11 P0 1.535917 1_555
O12 P6 1.556175 1_555
O13 P1 1.485940 1_655
O14 P2 1.548014 1_555
O15 P1 1.569663 1_555
O16 P0 1.548014 1_555
O17 P4 1.512514 1_555
O18 P7 1.556175 1_555
O19 P0 1.512514 1_554
O20 P5 1.556175 1_555
O21 P4 1.622593 1_555
O21 P6 1.659971 1_555
O22 P6 1.485940 1_455
O23 P3 1.535917 1_555
O24 P2 1.535917 1_555
O25 P4 1.535917 1_555
O26 P3 1.622593 1_555
O26 P7 1.659971 1_555
O27 P0 1.622593 1_555
O27 P5 1.659971 1_555
