# generated using pymatgen
data_CaB12(H3O2)4
_symmetry_space_group_name_H-M   'P 1'
_cell_length_a   11.12011100
_cell_length_b   11.47022300
_cell_length_c   11.49732200
_cell_angle_alpha   90.00000000
_cell_angle_beta   90.00000000
_cell_angle_gamma   90.00000000
_symmetry_Int_Tables_number   1
_chemical_formula_structural   CaB12(H3O2)4
_chemical_formula_sum   'Ca4 B48 H48 O32'
_cell_volume   1466.48517967
_cell_formula_units_Z   4
loop_
 _symmetry_equiv_pos_site_id
 _symmetry_equiv_pos_as_xyz
  1  'x, y, z'
loop_
 _atom_site_type_symbol
 _atom_site_label
 _atom_site_symmetry_multiplicity
 _atom_site_fract_x
 _atom_site_fract_y
 _atom_site_fract_z
 _atom_site_occupancy
  Ca  Ca0  1  0.99639600  0.00582100  0.07547100  1
  Ca  Ca1  1  0.50360400  0.99417900  0.57547100  1
  Ca  Ca2  1  0.00360400  0.50582100  0.42452900  1
  Ca  Ca3  1  0.49639600  0.49417900  0.92452900  1
  B  B0  1  0.89129200  0.27177700  0.11740000  1
  B  B1  1  0.60870800  0.72822300  0.61740000  1
  B  B2  1  0.10870800  0.77177700  0.38260000  1
  B  B3  1  0.39129200  0.22822300  0.88260000  1
  B  B4  1  0.80008300  0.34987900  0.01932400  1
  B  B5  1  0.69991700  0.65012100  0.51932400  1
  B  B6  1  0.19991700  0.84987900  0.48067600  1
  B  B7  1  0.30008300  0.15012100  0.98067600  1
  B  B8  1  0.71925100  0.63301700  0.67500400  1
  B  B9  1  0.78074900  0.36698300  0.17500400  1
  B  B10  1  0.28074900  0.13301700  0.82499600  1
  B  B11  1  0.21925100  0.86698300  0.32499600  1
  B  B12  1  0.07526000  0.86448600  0.26183400  1
  B  B13  1  0.42474000  0.13551400  0.76183400  1
  B  B14  1  0.92474000  0.36448600  0.23816600  1
  B  B15  1  0.57526000  0.63551400  0.73816600  1
  B  B16  1  0.53221900  0.15651500  0.87452400  1
  B  B17  1  0.96778100  0.84348500  0.37452400  1
  B  B18  1  0.46778100  0.65651500  0.62547600  1
  B  B19  1  0.03221900  0.34348500  0.12547600  1
  B  B20  1  0.95516500  0.33686400  0.98985900  1
  B  B21  1  0.54483500  0.66313600  0.48985900  1
  B  B22  1  0.04483500  0.83686400  0.51014100  1
  B  B23  1  0.45516500  0.16313600  0.01014100  1
  B  B24  1  0.11926900  0.97429400  0.53245700  1
  B  B25  1  0.38073100  0.02570600  0.03245700  1
  B  B26  1  0.88073100  0.47429400  0.96754300  1
  B  B27  1  0.61926900  0.52570600  0.46754300  1
  B  B28  1  0.27162600  0.01102100  0.92095000  1
  B  B29  1  0.22837400  0.98897900  0.42095000  1
  B  B30  1  0.72837400  0.51102100  0.57905000  1
  B  B31  1  0.77162600  0.48897900  0.07905000  1
  B  B32  1  0.14792600  0.00098600  0.28487500  1
  B  B33  1  0.35207400  0.99901400  0.78487500  1
  B  B34  1  0.85207400  0.50098600  0.21512500  1
  B  B35  1  0.64792600  0.49901400  0.71512500  1
  B  B36  1  0.99320100  0.98503400  0.31650100  1
  B  B37  1  0.50679900  0.01496600  0.81650100  1
  B  B38  1  0.00679900  0.48503400  0.18349900  1
  B  B39  1  0.49320100  0.51496600  0.68349900  1
  B  B40  1  0.52556500  0.03168000  0.96826200  1
  B  B41  1  0.97443500  0.96832000  0.46826200  1
  B  B42  1  0.47443500  0.53168000  0.53173800  1
  B  B43  1  0.02556500  0.46832000  0.03173800  1
  B  B44  1  0.08599300  0.06683200  0.41295300  1
  B  B45  1  0.41400700  0.93316800  0.91295300  1
  B  B46  1  0.91400700  0.56683200  0.08704700  1
  B  B47  1  0.58599300  0.43316800  0.58704700  1
  H  H0  1  0.87480700  0.16748600  0.12845700  1
  H  H1  1  0.62519300  0.83251400  0.62845700  1
  H  H2  1  0.12519300  0.66748600  0.37154300  1
  H  H3  1  0.37480700  0.33251400  0.87154300  1
  H  H4  1  0.72286500  0.30574900  0.96269800  1
  H  H5  1  0.77713500  0.69425100  0.46269800  1
  H  H6  1  0.27713500  0.80574900  0.53730200  1
  H  H7  1  0.22286500  0.19425100  0.03730200  1
  H  H8  1  0.81027700  0.66349800  0.72121200  1
  H  H9  1  0.68972300  0.33650200  0.22121200  1
  H  H10  1  0.18972300  0.16349800  0.77878800  1
  H  H11  1  0.31027700  0.83650200  0.27878800  1
  H  H12  1  0.06011000  0.82550500  0.16484200  1
  H  H13  1  0.43989000  0.17449500  0.66484200  1
  H  H14  1  0.93989000  0.32550500  0.33515800  1
  H  H15  1  0.56011000  0.67449500  0.83515800  1
  H  H16  1  0.62216900  0.20945800  0.85551300  1
  H  H17  1  0.87783100  0.79054200  0.35551300  1
  H  H18  1  0.37783100  0.70945800  0.64448700  1
  H  H19  1  0.12216900  0.29054200  0.14448700  1
  H  H20  1  0.98937400  0.27758200  0.91027300  1
  H  H21  1  0.51062600  0.72241800  0.41027300  1
  H  H22  1  0.01062600  0.77758200  0.58972700  1
  H  H23  1  0.48937400  0.22241800  0.08972700  1
  H  H24  1  0.13386700  0.01622700  0.62661400  1
  H  H25  1  0.36613300  0.98377300  0.12661400  1
  H  H26  1  0.86613300  0.51622700  0.87338600  1
  H  H27  1  0.63386700  0.48377300  0.37338600  1
  H  H28  1  0.10252800  0.99682600  0.86754800  1
  H  H29  1  0.39747200  0.00317400  0.36754800  1
  H  H30  1  0.89747200  0.49682600  0.63245200  1
  H  H31  1  0.60252800  0.50317400  0.13245200  1
  H  H32  1  0.18170900  0.06187400  0.20518000  1
  H  H33  1  0.31829100  0.93812600  0.70518000  1
  H  H34  1  0.81829100  0.56187400  0.29482000  1
  H  H35  1  0.68170900  0.43812600  0.79482000  1
  H  H36  1  0.91642800  0.03438000  0.25995000  1
  H  H37  1  0.58357200  0.96562000  0.75995000  1
  H  H38  1  0.08357200  0.53438000  0.24005000  1
  H  H39  1  0.41642800  0.46562000  0.74005000  1
  H  H40  1  0.61274900  0.99572500  0.01641800  1
  H  H41  1  0.88725100  0.00427500  0.51641800  1
  H  H42  1  0.38725100  0.49572500  0.48358200  1
  H  H43  1  0.11274900  0.50427500  0.98358200  1
  H  H44  1  0.07532600  0.17053400  0.42077000  1
  H  H45  1  0.42467400  0.82946600  0.92077000  1
  H  H46  1  0.92467400  0.67053400  0.07923000  1
  H  H47  1  0.57532600  0.32946600  0.57923000  1
  O  O0  1  0.05073300  0.75898200  0.88275400  1
  O  O1  1  0.44926700  0.24101800  0.38275400  1
  O  O2  1  0.94926700  0.25898200  0.61724600  1
  O  O3  1  0.55073300  0.74101800  0.11724600  1
  O  O4  1  0.84097600  0.00541200  0.91337100  1
  O  O5  1  0.65902400  0.99458800  0.41337100  1
  O  O6  1  0.15902400  0.50541200  0.58662900  1
  O  O7  1  0.34097600  0.49458800  0.08662900  1
  O  O8  1  0.94730000  0.95871400  0.75518100  1
  O  O9  1  0.55270000  0.04128600  0.25518100  1
  O  O10  1  0.05270000  0.45871400  0.74481900  1
  O  O11  1  0.44730000  0.54128600  0.24481900  1
  O  O12  1  0.84332900  0.97804200  0.80030000  1
  O  O13  1  0.65667100  0.02195800  0.30030000  1
  O  O14  1  0.15667100  0.47804200  0.69970000  1
  O  O15  1  0.34332900  0.52195800  0.19970000  1
  O  O16  1  0.75380200  0.82027400  0.07898100  1
  O  O17  1  0.74619800  0.17972600  0.57898100  1
  O  O18  1  0.24619800  0.32027400  0.42101900  1
  O  O19  1  0.25380200  0.67972600  0.92101900  1
  O  O20  1  0.14585700  0.97408900  0.93845000  1
  O  O21  1  0.35414300  0.02591100  0.43845000  1
  O  O22  1  0.85414300  0.47408900  0.56155000  1
  O  O23  1  0.64585700  0.52591100  0.06155000  1
  O  O24  1  0.69618200  0.77603400  0.99867800  1
  O  O25  1  0.80381800  0.22396600  0.49867800  1
  O  O26  1  0.30381800  0.27603400  0.50132200  1
  O  O27  1  0.19618200  0.72396600  0.00132200  1
  O  O28  1  0.60917700  0.78218500  0.19712300  1
  O  O29  1  0.89082300  0.21781500  0.69712300  1
  O  O30  1  0.39082300  0.28218500  0.30287700  1
  O  O31  1  0.10917700  0.71781500  0.80287700  1
loop_
_geom_bond_atom_site_label_1
_geom_bond_atom_site_label_2
_geom_bond_distance
_geom_bond_site_symmetry_2
Ca0 O20 2.318750 1_644
Ca0 H36 2.323097 1_555
Ca0 H0 2.374406 1_555
Ca0 H12 2.415681 1_645
Ca0 O4 2.541739 1_554
Ca0 H32 2.623710 1_655
Ca1 O21 2.318750 1_565
Ca1 H37 2.323097 1_555
Ca1 H1 2.374406 1_555
Ca1 H13 2.415681 1_565
Ca1 O5 2.541739 1_555
Ca1 H33 2.623710 1_555
Ca2 O22 2.318750 1_455
Ca2 H38 2.323097 1_555
Ca2 H2 2.374406 1_555
Ca2 H14 2.415681 1_455
Ca2 O6 2.541739 1_555
Ca2 H34 2.623710 1_455
Ca3 O23 2.318750 1_556
Ca3 H39 2.323097 1_555
Ca3 H3 2.374406 1_555
Ca3 H15 2.415681 1_555
Ca3 O7 2.541739 1_556
Ca3 H35 2.623710 1_555
B0 H0 1.216864 1_555
B1 H1 1.216864 1_555
B2 H2 1.216864 1_555
B3 H3 1.216864 1_555
B4 H4 1.190546 1_554
B5 H5 1.190546 1_555
B6 H6 1.190546 1_555
B7 H7 1.190546 1_556
B8 H8 1.195437 1_555
B9 H9 1.195437 1_555
B10 H10 1.195437 1_555
B11 H11 1.195437 1_555
B12 H12 1.213200 1_555
B13 H13 1.213200 1_555
B14 H14 1.213200 1_555
B15 H15 1.213200 1_555
B16 H16 1.190402 1_555
B17 H17 1.190402 1_555
B18 H18 1.190402 1_555
B19 H19 1.190402 1_555
B20 H20 1.201812 1_555
B21 H21 1.201812 1_555
B22 H22 1.201812 1_555
B23 H23 1.201812 1_555
B24 H24 1.195665 1_565
B25 H25 1.195665 1_545
B26 H26 1.195665 1_555
B27 H27 1.195665 1_555
B28 O20 1.475100 1_545
B29 O21 1.475100 1_565
B30 O22 1.475100 1_555
B31 O23 1.475100 1_555
B32 H32 1.211799 1_555
B33 H33 1.211799 1_555
B34 H34 1.211799 1_555
B35 H35 1.211799 1_555
B36 H36 1.213241 1_565
B37 H37 1.213241 1_545
B38 H38 1.213241 1_555
B39 H39 1.213241 1_555
B40 H40 1.190189 1_546
B41 H41 1.190189 1_565
B42 H42 1.190189 1_555
B43 H43 1.190189 1_554
B44 H44 1.198759 1_555
B45 H45 1.198759 1_555
B46 H46 1.198759 1_555
B47 H47 1.198759 1_555
H28 O20 0.982188 1_555
H29 O21 0.982188 1_555
H30 O22 0.982188 1_555
H31 O23 0.982188 1_555
O0 O31 1.220143 1_555
O1 O30 1.220143 1_555
O2 O29 1.220143 1_555
O10 O14 1.286458 1_555
O11 O15 1.286458 1_555
O12 O8 1.286458 1_555
O12 O4 1.337639 1_565
O13 O9 1.286458 1_555
O13 O5 1.337639 1_545
O14 O6 1.337639 1_555
O15 O7 1.337639 1_555
O16 O24 1.233075 1_554
O17 O25 1.233075 1_555
O18 O26 1.233075 1_555
O19 O27 1.233075 1_556
O28 O3 1.220143 1_555
