# generated using pymatgen
data_P2CN3Cl5
_symmetry_space_group_name_H-M   'P 1'
_cell_length_a   7.93950100
_cell_length_b   17.14337700
_cell_length_c   29.86245200
_cell_angle_alpha   90.00000000
_cell_angle_beta   90.00000000
_cell_angle_gamma   90.00000000
_symmetry_Int_Tables_number   1
_chemical_formula_structural   P2CN3Cl5
_chemical_formula_sum   'P32 C16 N48 Cl80'
_cell_volume   4064.57412618
_cell_formula_units_Z   16
loop_
 _symmetry_equiv_pos_site_id
 _symmetry_equiv_pos_as_xyz
  1  'x, y, z'
loop_
 _atom_site_type_symbol
 _atom_site_label
 _atom_site_symmetry_multiplicity
 _atom_site_fract_x
 _atom_site_fract_y
 _atom_site_fract_z
 _atom_site_occupancy
  P  P0  1  0.73436500  0.61329400  0.77350700  1
  P  P1  1  0.25868300  0.33519200  0.53973200  1
  P  P2  1  0.23363700  0.52794400  0.68544600  1
  P  P3  1  0.23436500  0.38670600  0.72649300  1
  P  P4  1  0.76563500  0.61329400  0.27350700  1
  P  P5  1  0.75868300  0.66480800  0.96026800  1
  P  P6  1  0.71987200  0.66646500  0.55084000  1
  P  P7  1  0.24131700  0.33519200  0.03973200  1
  P  P8  1  0.73363700  0.97205600  0.68544600  1
  P  P9  1  0.76636300  0.97205600  0.18544600  1
  P  P10  1  0.78012800  0.66646500  0.05084000  1
  P  P11  1  0.25868300  0.83519200  0.96026800  1
  P  P12  1  0.21987200  0.33353500  0.94916000  1
  P  P13  1  0.26636300  0.02794400  0.31455400  1
  P  P14  1  0.26636300  0.52794400  0.18544600  1
  P  P15  1  0.75868300  0.16480800  0.53973200  1
  P  P16  1  0.26563500  0.38670600  0.22649300  1
  P  P17  1  0.73363700  0.47205600  0.81455400  1
  P  P18  1  0.28012800  0.33353500  0.44916000  1
  P  P19  1  0.71987200  0.16646500  0.94916000  1
  P  P20  1  0.24131700  0.83519200  0.46026800  1
  P  P21  1  0.76563500  0.11329400  0.22649300  1
  P  P22  1  0.78012800  0.16646500  0.44916000  1
  P  P23  1  0.73436500  0.11329400  0.72649300  1
  P  P24  1  0.28012800  0.83353500  0.05084000  1
  P  P25  1  0.74131700  0.66480800  0.46026800  1
  P  P26  1  0.26563500  0.88670600  0.27350700  1
  P  P27  1  0.23363700  0.02794400  0.81455400  1
  P  P28  1  0.74131700  0.16480800  0.03973200  1
  P  P29  1  0.23436500  0.88670600  0.77350700  1
  P  P30  1  0.76636300  0.47205600  0.31455400  1
  P  P31  1  0.21987200  0.83353500  0.55084000  1
  C  C0  1  0.48392100  0.06505400  0.68123800  1
  C  C1  1  0.98473300  0.88626000  0.50169600  1
  C  C2  1  0.98392100  0.93494600  0.81876200  1
  C  C3  1  0.48473300  0.11374000  0.99830400  1
  C  C4  1  0.51526700  0.38626000  0.49830400  1
  C  C5  1  0.98473300  0.38626000  0.99830400  1
  C  C6  1  0.98392100  0.43494600  0.68123800  1
  C  C7  1  0.01607900  0.06505400  0.18123800  1
  C  C8  1  0.01526700  0.61374000  0.00169600  1
  C  C9  1  0.48392100  0.56505400  0.81876200  1
  C  C10  1  0.51607900  0.93494600  0.31876200  1
  C  C11  1  0.51607900  0.43494600  0.18123800  1
  C  C12  1  0.01526700  0.11374000  0.49830400  1
  C  C13  1  0.48473300  0.61374000  0.50169600  1
  C  C14  1  0.51526700  0.88626000  0.00169600  1
  C  C15  1  0.01607900  0.56505400  0.31876200  1
  N  N0  1  0.03668700  0.87290200  0.54307400  1
  N  N1  1  0.55613200  0.62536000  0.46186400  1
  N  N2  1  0.44386800  0.87464000  0.96186400  1
  N  N3  1  0.82879900  0.53205300  0.78201400  1
  N  N4  1  0.53668700  0.12709800  0.95692600  1
  N  N5  1  0.46331300  0.37290200  0.45692600  1
  N  N6  1  0.03668700  0.37290200  0.95692600  1
  N  N7  1  0.05613200  0.87464000  0.46186400  1
  N  N8  1  0.55613200  0.12536000  0.03813600  1
  N  N9  1  0.95435000  0.49622500  0.33070600  1
  N  N10  1  0.45435000  0.00377500  0.33070600  1
  N  N11  1  0.96331300  0.12709800  0.45692600  1
  N  N12  1  0.04565000  0.00377500  0.83070600  1
  N  N13  1  0.95174500  0.62353600  0.29514600  1
  N  N14  1  0.32879900  0.96794700  0.78201400  1
  N  N15  1  0.82879900  0.03205300  0.71798600  1
  N  N16  1  0.45174500  0.87646400  0.29514600  1
  N  N17  1  0.32200000  0.30789000  0.99316400  1
  N  N18  1  0.32879900  0.46794700  0.71798600  1
  N  N19  1  0.67800000  0.69211000  0.00683600  1
  N  N20  1  0.82200000  0.69211000  0.50683600  1
  N  N21  1  0.94386800  0.12536000  0.53813600  1
  N  N22  1  0.96331300  0.62709800  0.04307400  1
  N  N23  1  0.95435000  0.99622500  0.16929400  1
  N  N24  1  0.67800000  0.19211000  0.49316400  1
  N  N25  1  0.54825500  0.12353600  0.70485400  1
  N  N26  1  0.05613200  0.37464000  0.03813600  1
  N  N27  1  0.82200000  0.19211000  0.99316400  1
  N  N28  1  0.94386800  0.62536000  0.96186400  1
  N  N29  1  0.04825500  0.37646400  0.70485400  1
  N  N30  1  0.17120100  0.96794700  0.28201400  1
  N  N31  1  0.45174500  0.37646400  0.20485400  1
  N  N32  1  0.54825500  0.62353600  0.79514600  1
  N  N33  1  0.04565000  0.50377500  0.66929400  1
  N  N34  1  0.46331300  0.87290200  0.04307400  1
  N  N35  1  0.53668700  0.62709800  0.54307400  1
  N  N36  1  0.67120100  0.03205300  0.21798600  1
  N  N37  1  0.04825500  0.87646400  0.79514600  1
  N  N38  1  0.17800000  0.30789000  0.49316400  1
  N  N39  1  0.44386800  0.37464000  0.53813600  1
  N  N40  1  0.95174500  0.12353600  0.20485400  1
  N  N41  1  0.67120100  0.53205300  0.28201400  1
  N  N42  1  0.32200000  0.80789000  0.50683600  1
  N  N43  1  0.17800000  0.80789000  0.00683600  1
  N  N44  1  0.54565000  0.99622500  0.66929400  1
  N  N45  1  0.17120100  0.46794700  0.21798600  1
  N  N46  1  0.54565000  0.49622500  0.83070600  1
  N  N47  1  0.45435000  0.50377500  0.16929400  1
  Cl  Cl0  1  0.28259200  0.57304500  0.49866700  1
  Cl  Cl1  1  0.71916700  0.36659900  0.78557100  1
  Cl  Cl2  1  0.85732700  0.09348300  0.91111300  1
  Cl  Cl3  1  0.72122400  0.91770800  0.33836000  1
  Cl  Cl4  1  0.37551100  0.79635800  0.79420200  1
  Cl  Cl5  1  0.21916700  0.63340100  0.71442900  1
  Cl  Cl6  1  0.21729900  0.86661600  0.70739000  1
  Cl  Cl7  1  0.64267300  0.09348300  0.41111300  1
  Cl  Cl8  1  0.37279500  0.05026200  0.86917900  1
  Cl  Cl9  1  0.87551100  0.70364200  0.79420200  1
  Cl  Cl10  1  0.28270100  0.36661600  0.29261000  1
  Cl  Cl11  1  0.60103600  0.58999500  0.92951700  1
  Cl  Cl12  1  0.72122400  0.41770800  0.16164000  1
  Cl  Cl13  1  0.69310400  0.25857600  0.90834200  1
  Cl  Cl14  1  0.10103600  0.41000500  0.57048300  1
  Cl  Cl15  1  0.78270100  0.13338400  0.29261000  1
  Cl  Cl16  1  0.39896400  0.41000500  0.07048300  1
  Cl  Cl17  1  0.22122400  0.58229200  0.33836000  1
  Cl  Cl18  1  0.28083300  0.63340100  0.21442900  1
  Cl  Cl19  1  0.77877600  0.91770800  0.83836000  1
  Cl  Cl20  1  0.76540000  0.75443600  0.91732500  1
  Cl  Cl21  1  0.71916700  0.86659900  0.71442900  1
  Cl  Cl22  1  0.89896400  0.08999500  0.07048300  1
  Cl  Cl23  1  0.87279500  0.94973800  0.63082100  1
  Cl  Cl24  1  0.71729900  0.63338400  0.70739000  1
  Cl  Cl25  1  0.21916700  0.13340100  0.78557100  1
  Cl  Cl26  1  0.35732700  0.90651700  0.58888700  1
  Cl  Cl27  1  0.78259200  0.92695500  0.49866700  1
  Cl  Cl28  1  0.77877600  0.41770800  0.66164000  1
  Cl  Cl29  1  0.78083300  0.86659900  0.21442900  1
  Cl  Cl30  1  0.60103600  0.08999500  0.57048300  1
  Cl  Cl31  1  0.30689600  0.24142400  0.40834200  1
  Cl  Cl32  1  0.64267300  0.59348300  0.08888700  1
  Cl  Cl33  1  0.37551100  0.29635800  0.70579800  1
  Cl  Cl34  1  0.78259200  0.42695500  0.00133300  1
  Cl  Cl35  1  0.12448900  0.29635800  0.20579800  1
  Cl  Cl36  1  0.37279500  0.55026200  0.63082100  1
  Cl  Cl37  1  0.23460000  0.74556400  0.41732500  1
  Cl  Cl38  1  0.39896400  0.91000500  0.42951700  1
  Cl  Cl39  1  0.73460000  0.75443600  0.41732500  1
  Cl  Cl40  1  0.87551100  0.20364200  0.70579800  1
  Cl  Cl41  1  0.62720500  0.44973800  0.36917900  1
  Cl  Cl42  1  0.23460000  0.24556400  0.08267500  1
  Cl  Cl43  1  0.14267300  0.90651700  0.08888700  1
  Cl  Cl44  1  0.62448900  0.20364200  0.20579800  1
  Cl  Cl45  1  0.21729900  0.36661600  0.79261000  1
  Cl  Cl46  1  0.35732700  0.40651700  0.91111300  1
  Cl  Cl47  1  0.28259200  0.07304500  0.00133300  1
  Cl  Cl48  1  0.73460000  0.25443600  0.08267500  1
  Cl  Cl49  1  0.28270100  0.86661600  0.20739000  1
  Cl  Cl50  1  0.14267300  0.40651700  0.41111300  1
  Cl  Cl51  1  0.80689600  0.75857600  0.09165800  1
  Cl  Cl52  1  0.71729900  0.13338400  0.79261000  1
  Cl  Cl53  1  0.21740800  0.07304500  0.50133300  1
  Cl  Cl54  1  0.19310400  0.74142400  0.59165800  1
  Cl  Cl55  1  0.87279500  0.44973800  0.86917900  1
  Cl  Cl56  1  0.21740800  0.57304500  0.99866700  1
  Cl  Cl57  1  0.12448900  0.79635800  0.29420200  1
  Cl  Cl58  1  0.80689600  0.25857600  0.40834200  1
  Cl  Cl59  1  0.27877600  0.08229200  0.66164000  1
  Cl  Cl60  1  0.22122400  0.08229200  0.16164000  1
  Cl  Cl61  1  0.27877600  0.58229200  0.83836000  1
  Cl  Cl62  1  0.85732700  0.59348300  0.58888700  1
  Cl  Cl63  1  0.76540000  0.25443600  0.58267500  1
  Cl  Cl64  1  0.78083300  0.36659900  0.28557100  1
  Cl  Cl65  1  0.89896400  0.58999500  0.42951700  1
  Cl  Cl66  1  0.69310400  0.75857600  0.59165800  1
  Cl  Cl67  1  0.26540000  0.74556400  0.91732500  1
  Cl  Cl68  1  0.26540000  0.24556400  0.58267500  1
  Cl  Cl69  1  0.30689600  0.74142400  0.09165800  1
  Cl  Cl70  1  0.19310400  0.24142400  0.90834200  1
  Cl  Cl71  1  0.62720500  0.94973800  0.13082100  1
  Cl  Cl72  1  0.12720500  0.05026200  0.36917900  1
  Cl  Cl73  1  0.28083300  0.13340100  0.28557100  1
  Cl  Cl74  1  0.62448900  0.70364200  0.29420200  1
  Cl  Cl75  1  0.78270100  0.63338400  0.20739000  1
  Cl  Cl76  1  0.12720500  0.55026200  0.13082100  1
  Cl  Cl77  1  0.10103600  0.91000500  0.92951700  1
  Cl  Cl78  1  0.71740800  0.42695500  0.50133300  1
  Cl  Cl79  1  0.71740800  0.92695500  0.99866700  1
loop_
_geom_bond_atom_site_label_1
_geom_bond_atom_site_label_2
_geom_bond_distance
_geom_bond_site_symmetry_2
C0 N44 1.326546 1_545
C0 N25 1.327935 1_555
C0 Cl59 1.755752 1_555
C1 N0 1.322655 1_655
C1 N7 1.332626 1_655
C1 Cl27 1.752312 1_555
C2 N12 1.326546 1_665
C2 N37 1.327935 1_655
C2 Cl19 1.755752 1_555
C3 N4 1.322655 1_555
C3 N8 1.332626 1_556
C3 Cl47 1.752312 1_556
C4 N5 1.322655 1_555
C4 N39 1.332626 1_555
C4 Cl78 1.752312 1_555
C5 N6 1.322655 1_655
C5 N26 1.332626 1_656
C5 Cl34 1.752312 1_556
C6 N33 1.326546 1_655
C6 N29 1.327935 1_655
C6 Cl28 1.755752 1_555
C7 N23 1.326546 1_445
C7 N40 1.327935 1_455
C7 Cl60 1.755752 1_555
C8 N22 1.322655 1_455
C8 N28 1.332626 1_454
C8 Cl56 1.752312 1_554
C9 N46 1.326546 1_555
C9 N32 1.327935 1_555
C9 Cl61 1.755752 1_555
C10 N10 1.326546 1_565
C10 N16 1.327935 1_555
C10 Cl3 1.755752 1_555
C11 N47 1.326546 1_555
C11 N31 1.327935 1_555
C11 Cl12 1.755752 1_555
C12 N11 1.322655 1_455
C12 N21 1.332626 1_455
C12 Cl53 1.752312 1_555
C13 N35 1.322655 1_555
C13 N1 1.332626 1_555
C13 Cl0 1.752312 1_555
C14 N34 1.322655 1_555
C14 N2 1.332626 1_554
C14 Cl79 1.752312 1_554
C15 N9 1.326546 1_455
C15 N13 1.327935 1_455
C15 Cl17 1.755752 1_555
N0 P31 1.620038 1_555
N1 P25 1.619052 1_555
N2 P11 1.619052 1_555
N3 P0 1.602003 1_555
N3 P17 1.604059 1_555
N4 P19 1.620038 1_555
N5 P18 1.620038 1_555
N6 P12 1.620038 1_555
N7 P20 1.619052 1_555
N8 P28 1.619052 1_555
N9 P30 1.622329 1_555
N10 P13 1.622329 1_555
N11 P22 1.620038 1_555
N12 P27 1.622329 1_555
N13 P4 1.622269 1_555
N14 P29 1.602003 1_555
N14 P27 1.604059 1_565
N15 P23 1.602003 1_555
N15 P8 1.604059 1_545
N16 P26 1.622269 1_555
N17 P7 1.601025 1_556
N17 P12 1.605468 1_555
N18 P3 1.602003 1_555
N18 P2 1.604059 1_555
N19 P5 1.601025 1_554
N19 P10 1.605468 1_555
N20 P25 1.601025 1_555
N20 P6 1.605468 1_555
N21 P15 1.619052 1_555
N22 P10 1.620038 1_555
N23 P9 1.622329 1_555
N24 P15 1.601025 1_555
N24 P22 1.605468 1_555
N25 P23 1.622269 1_555
N26 P7 1.619052 1_555
N27 P28 1.601025 1_556
N27 P19 1.605468 1_555
N28 P5 1.619052 1_555
N29 P3 1.622269 1_555
N30 P26 1.602003 1_555
N30 P13 1.604059 1_565
N31 P16 1.622269 1_555
N32 P0 1.622269 1_555
N33 P2 1.622329 1_555
N34 P24 1.620038 1_555
N35 P6 1.620038 1_555
N36 P21 1.602003 1_555
N36 P9 1.604059 1_545
N37 P29 1.622269 1_555
N38 P1 1.601025 1_555
N38 P18 1.605468 1_555
N39 P1 1.619052 1_555
N40 P21 1.622269 1_555
N41 P4 1.602003 1_555
N41 P30 1.604059 1_555
N42 P20 1.601025 1_555
N42 P31 1.605468 1_555
N43 P11 1.601025 1_554
N43 P24 1.605468 1_555
N44 P8 1.622329 1_555
N45 P16 1.602003 1_555
N45 P14 1.604059 1_555
N46 P17 1.622329 1_555
N47 P14 1.622329 1_555
Cl1 P17 2.007675 1_555
Cl2 P19 2.011786 1_555
Cl4 P29 2.009163 1_555
Cl5 P2 2.007675 1_555
Cl6 P29 2.008804 1_555
Cl7 P22 2.011786 1_555
Cl8 P27 2.006988 1_555
Cl9 P0 2.009163 1_555
Cl10 P16 2.008804 1_555
Cl11 P5 2.013654 1_555
Cl13 P19 2.006111 1_555
Cl14 P1 2.013654 1_555
Cl15 P21 2.008804 1_555
Cl16 P7 2.013654 1_555
Cl18 P14 2.007675 1_555
Cl20 P5 2.002065 1_555
Cl21 P8 2.007675 1_555
Cl22 P28 2.013654 1_555
Cl23 P8 2.006988 1_555
Cl24 P0 2.008804 1_555
Cl25 P27 2.007675 1_555
Cl26 P31 2.011786 1_555
Cl29 P9 2.007675 1_555
Cl30 P15 2.013654 1_555
Cl31 P18 2.006111 1_555
Cl32 P10 2.011786 1_555
Cl33 P3 2.009163 1_555
Cl35 P16 2.009163 1_555
Cl36 P2 2.006988 1_555
Cl37 P20 2.002065 1_555
Cl38 P20 2.013654 1_555
Cl39 P25 2.002065 1_555
Cl40 P23 2.009163 1_555
Cl41 P30 2.006988 1_555
Cl42 P7 2.002065 1_555
Cl43 P24 2.011786 1_555
Cl44 P21 2.009163 1_555
Cl45 P3 2.008804 1_555
Cl46 P12 2.011786 1_555
Cl48 P28 2.002065 1_555
Cl49 P26 2.008804 1_555
Cl50 P18 2.011786 1_555
Cl51 P10 2.006111 1_555
Cl52 P23 2.008804 1_555
Cl54 P31 2.006111 1_555
Cl55 P17 2.006988 1_555
Cl57 P26 2.009163 1_555
Cl58 P22 2.006111 1_555
Cl62 P6 2.011786 1_555
Cl63 P15 2.002065 1_555
Cl64 P30 2.007675 1_555
Cl65 P25 2.013654 1_555
Cl66 P6 2.006111 1_555
Cl67 P11 2.002065 1_555
Cl68 P1 2.002065 1_555
Cl69 P24 2.006111 1_555
Cl70 P12 2.006111 1_555
Cl71 P9 2.006988 1_555
Cl72 P13 2.006988 1_555
Cl73 P13 2.007675 1_555
Cl74 P4 2.009163 1_555
Cl75 P4 2.008804 1_555
Cl76 P14 2.006988 1_555
Cl77 P11 2.013654 1_555
