# generated using pymatgen
data_Be(HO)2
_symmetry_space_group_name_H-M   'P 1'
_cell_length_a   5.03926000
_cell_length_b   5.31738500
_cell_length_c   5.41645700
_cell_angle_alpha   90.00000000
_cell_angle_beta   90.00000000
_cell_angle_gamma   90.00000000
_symmetry_Int_Tables_number   1
_chemical_formula_structural   Be(HO)2
_chemical_formula_sum   'Be4 H8 O8'
_cell_volume   145.13767849
_cell_formula_units_Z   4
loop_
 _symmetry_equiv_pos_site_id
 _symmetry_equiv_pos_as_xyz
  1  'x, y, z'
loop_
 _atom_site_type_symbol
 _atom_site_label
 _atom_site_symmetry_multiplicity
 _atom_site_fract_x
 _atom_site_fract_y
 _atom_site_fract_z
 _atom_site_occupancy
  Be  Be0  1  0.57456000  0.21056100  0.87445800  1
  Be  Be1  1  0.07456000  0.28943900  0.12554200  1
  Be  Be2  1  0.92544000  0.78943900  0.37445800  1
  Be  Be3  1  0.42544000  0.71056100  0.62554200  1
  H  H0  1  0.45750100  0.33619500  0.27349500  1
  H  H1  1  0.95750100  0.16380500  0.72650500  1
  H  H2  1  0.04249900  0.66380500  0.77349500  1
  H  H3  1  0.54249900  0.83619500  0.22650500  1
  H  H4  1  0.75968300  0.86072900  0.81823600  1
  H  H5  1  0.25968300  0.63927100  0.18176400  1
  H  H6  1  0.74031700  0.13927100  0.31823600  1
  H  H7  1  0.24031700  0.36072900  0.68176400  1
  O  O0  1  0.40123400  0.22522800  0.13852800  1
  O  O1  1  0.90123400  0.27477200  0.86147200  1
  O  O2  1  0.09876600  0.77477200  0.63852800  1
  O  O3  1  0.59876600  0.72522800  0.36147200  1
  O  O4  1  0.57081000  0.90082700  0.81896400  1
  O  O5  1  0.07081000  0.59917300  0.18103600  1
  O  O6  1  0.92919000  0.09917300  0.31896400  1
  O  O7  1  0.42919000  0.40082700  0.68103600  1
loop_
_geom_bond_atom_site_label_1
_geom_bond_atom_site_label_2
_geom_bond_distance
_geom_bond_site_symmetry_2
Be0 O7 1.630279 1_555
Be0 O4 1.674286 1_545
Be0 O0 1.677736 1_556
Be0 O1 1.682701 1_555
Be1 O6 1.630279 1_455
Be1 O5 1.674286 1_555
Be1 O1 1.677736 1_454
Be1 O0 1.682701 1_555
Be2 O5 1.630279 1_655
Be2 O6 1.674286 1_565
Be2 O2 1.677736 1_655
Be2 O3 1.682701 1_555
Be3 O4 1.630279 1_555
Be3 O7 1.674286 1_555
Be3 O3 1.677736 1_555
Be3 O2 1.682701 1_555
H0 O0 0.981318 1_555
H1 O1 0.981318 1_555
H2 O2 0.981318 1_555
H3 O3 0.981318 1_555
H4 O4 0.975378 1_555
H5 O5 0.975378 1_555
H6 O6 0.975378 1_555
H7 O7 0.975378 1_555
