# generated using pymatgen
data_Nd6In22Pt13
_symmetry_space_group_name_H-M   'P 1'
_cell_length_a   14.51855920
_cell_length_b   14.51855920
_cell_length_c   15.14148840
_cell_angle_alpha   67.88961902
_cell_angle_beta   67.88961902
_cell_angle_gamma   17.84248726
_symmetry_Int_Tables_number   1
_chemical_formula_structural   Nd6In22Pt13
_chemical_formula_sum   'Nd6 In22 Pt13'
_cell_volume   904.16579101
_cell_formula_units_Z   1
loop_
 _symmetry_equiv_pos_site_id
 _symmetry_equiv_pos_as_xyz
  1  'x, y, z'
loop_
 _atom_site_type_symbol
 _atom_site_label
 _atom_site_symmetry_multiplicity
 _atom_site_fract_x
 _atom_site_fract_y
 _atom_site_fract_z
 _atom_site_occupancy
  Nd  Nd0  1  0.45361200  0.45361200  0.69880900  1
  Nd  Nd1  1  0.83722100  0.83722100  0.53004200  1
  Nd  Nd2  1  0.54638800  0.54638800  0.30119100  1
  Nd  Nd3  1  0.16277900  0.16277900  0.46995800  1
  Nd  Nd4  1  0.82175600  0.82175600  0.08006500  1
  Nd  Nd5  1  0.17824400  0.17824400  0.91993500  1
  In  In0  1  0.32605900  0.32605900  0.71969000  1
  In  In1  1  0.87591300  0.87591300  0.83106300  1
  In  In2  1  0.67394100  0.67394100  0.28031000  1
  In  In3  1  0.43534200  0.43534200  0.50240400  1
  In  In4  1  0.85740400  0.85740400  0.28191900  1
  In  In5  1  0.72797300  0.72797300  0.75172400  1
  In  In6  1  0.23741300  0.23741300  0.08381300  1
  In  In7  1  0.40828300  0.40828300  0.95252400  1
  In  In8  1  0.05552200  0.05552200  0.93624400  1
  In  In9  1  0.95690700  0.95690700  0.33973400  1
  In  In10  1  0.76258700  0.76258700  0.91618700  1
  In  In11  1  0.71280100  0.71280100  0.56529800  1
  In  In12  1  0.56465800  0.56465800  0.49759600  1
  In  In13  1  0.28719900  0.28719900  0.43470200  1
  In  In14  1  0.27202700  0.27202700  0.24827600  1
  In  In15  1  0.94447800  0.94447800  0.06375600  1
  In  In16  1  0.59171700  0.59171700  0.04747600  1
  In  In17  1  0.52948700  0.52948700  0.82098000  1
  In  In18  1  0.12408700  0.12408700  0.16893700  1
  In  In19  1  0.47051300  0.47051300  0.17902000  1
  In  In20  1  0.14259600  0.14259600  0.71808100  1
  In  In21  1  0.04309300  0.04309300  0.66026600  1
  Pt  Pt0  1  0.61930000  0.61930000  0.84851400  1
  Pt  Pt1  1  0.90109800  0.90109800  0.63571300  1
  Pt  Pt2  1  0.03279300  0.03279300  0.13914900  1
  Pt  Pt3  1  0.39271400  0.39271400  0.36295200  1
  Pt  Pt4  1  0.09890200  0.09890200  0.36428700  1
  Pt  Pt5  1  0.25165900  0.25165900  0.63615800  1
  Pt  Pt6  1  0.00000000  0.00000000  0.50000000  1
  Pt  Pt7  1  0.32054900  0.32054900  0.91207300  1
  Pt  Pt8  1  0.67945100  0.67945100  0.08792700  1
  Pt  Pt9  1  0.38070000  0.38070000  0.15148600  1
  Pt  Pt10  1  0.96720700  0.96720700  0.86085100  1
  Pt  Pt11  1  0.74834100  0.74834100  0.36384200  1
  Pt  Pt12  1  0.60728600  0.60728600  0.63704800  1
loop_
_geom_bond_atom_site_label_1
_geom_bond_atom_site_label_2
_geom_bond_distance
_geom_bond_site_symmetry_2
Nd0 Pt1 3.057426 1_545
Nd0 Pt1 3.057426 1_455
Nd0 Pt10 3.459820 1_455
Nd0 Pt10 3.459820 1_545
Nd0 Pt6 3.584586 1_655
Nd0 Pt6 3.584586 1_565
Nd1 Pt1 2.855112 1_555
Nd1 Pt5 3.266491 1_655
Nd1 Pt5 3.266491 1_565
Nd1 Pt3 3.306842 1_655
Nd1 Pt3 3.306842 1_565
Nd2 Pt4 3.057426 1_655
Nd2 Pt4 3.057426 1_565
Nd2 Pt2 3.459820 1_655
Nd2 Pt2 3.459820 1_565
Nd2 Pt6 3.584586 1_655
Nd2 Pt6 3.584586 1_565
Nd3 Pt4 2.855112 1_555
Nd3 Pt11 3.266491 1_455
Nd3 Pt11 3.266491 1_545
Nd3 Pt12 3.306842 1_545
Nd3 Pt12 3.306842 1_455
Nd4 Pt9 3.238985 1_565
Nd4 Pt9 3.238985 1_655
Nd4 Pt7 3.407003 1_564
Nd4 Pt7 3.407003 1_654
Nd5 Pt0 3.238985 1_455
Nd5 Pt0 3.238985 1_545
Nd5 Pt8 3.407003 1_546
Nd5 Pt8 3.407003 1_456
In0 Pt7 2.856485 1_555
In0 Pt5 2.865583 1_555
In0 Pt1 3.038728 1_455
In0 Pt1 3.038728 1_545
In0 Nd0 3.550558 1_555
In1 Pt7 2.758916 1_655
In1 Pt7 2.758916 1_565
In1 Pt1 2.764543 1_555
In1 Pt10 2.821675 1_555
In1 Nd0 3.262828 1_655
In1 Nd0 3.262828 1_565
In1 Nd4 3.487852 1_556
In2 Pt8 2.856485 1_555
In2 Pt11 2.865583 1_555
In2 Pt4 3.038728 1_565
In2 Pt4 3.038728 1_655
In2 Nd2 3.550558 1_555
In3 Pt3 2.814473 1_555
In3 Pt6 2.908480 1_565
In3 Pt6 2.908480 1_655
In3 Pt1 2.932163 1_545
In3 Pt1 2.932163 1_455
In3 Nd0 3.210323 1_555
In3 In9 3.218312 1_545
In3 In9 3.218312 1_455
In3 Nd2 3.469008 1_555
In3 Nd1 3.502745 1_455
In3 Nd1 3.502745 1_545
In4 Pt11 2.892996 1_555
In4 Pt9 2.900091 1_655
In4 Pt9 2.900091 1_565
In4 Pt3 2.923629 1_565
In4 Pt3 2.923629 1_655
In4 Nd4 3.573328 1_555
In5 Pt5 2.772514 1_655
In5 Pt5 2.772514 1_565
In5 Pt0 2.895605 1_555
In5 Nd5 3.289774 1_565
In5 Nd5 3.289774 1_655
In6 Pt7 2.779193 1_554
In6 Pt8 2.785444 1_545
In6 Pt8 2.785444 1_455
In6 Nd4 3.289611 1_455
In6 Nd4 3.289611 1_545
In6 Nd5 3.499611 1_554
In7 Pt7 2.807782 1_555
In7 Pt9 2.808084 1_556
In7 Pt10 2.839923 1_545
In7 Pt10 2.839923 1_455
In7 Nd4 3.362570 1_546
In7 Nd4 3.362570 1_456
In7 Nd0 3.555621 1_555
In8 Pt0 2.886008 1_455
In8 Pt0 2.886008 1_545
In8 Pt2 2.887497 1_556
In8 Pt10 3.150390 1_445
In8 Nd5 3.433897 1_555
In9 Pt3 2.844358 1_565
In9 Pt3 2.844358 1_655
In9 Pt2 2.987485 1_665
In9 Pt6 3.114901 1_665
In9 Nd2 3.294991 1_655
In9 Nd2 3.294991 1_565
In10 Pt8 2.779193 1_556
In10 Pt7 2.785444 1_565
In10 Pt7 2.785444 1_655
In10 Nd5 3.289611 1_655
In10 Nd5 3.289611 1_565
In10 Nd4 3.499611 1_556
In11 Pt12 2.799287 1_555
In11 Pt11 2.823877 1_555
In11 Pt5 2.893822 1_655
In11 Pt5 2.893822 1_565
In11 In5 3.015555 1_555
In11 In13 3.212212 1_565
In11 In13 3.212212 1_655
In11 Nd3 3.284906 1_655
In11 Nd3 3.284906 1_565
In11 In20 3.305532 1_655
In11 In20 3.305532 1_565
In11 Nd1 3.401700 1_555
In12 Pt12 2.814473 1_555
In12 Pt6 2.908480 1_655
In12 Pt6 2.908480 1_565
In12 Pt4 2.932163 1_655
In12 Pt4 2.932163 1_565
In12 Nd2 3.210323 1_555
In12 In21 3.218312 1_565
In12 In21 3.218312 1_655
In12 Nd0 3.469008 1_555
In12 Nd3 3.502745 1_565
In12 Nd3 3.502745 1_655
In13 Pt3 2.799287 1_555
In13 Pt5 2.823877 1_555
In13 Pt11 2.893822 1_545
In13 Pt11 2.893822 1_455
In13 In14 3.015555 1_555
In13 Nd1 3.284906 1_545
In13 Nd1 3.284906 1_455
In13 In4 3.305532 1_455
In13 In4 3.305532 1_545
In13 Nd3 3.401700 1_555
In14 Pt11 2.772514 1_545
In14 Pt11 2.772514 1_455
In14 Pt9 2.895605 1_555
In14 Nd4 3.289774 1_545
In14 Nd4 3.289774 1_455
In15 Pt9 2.886008 1_565
In15 Pt9 2.886008 1_655
In15 Pt10 2.887497 1_554
In15 In8 3.031172 1_664
In15 In19 3.109043 1_655
In15 In19 3.109043 1_565
In15 Pt2 3.150390 1_665
In15 In7 3.211906 1_564
In15 In7 3.211906 1_654
In15 In4 3.295992 1_555
In15 Nd4 3.433897 1_555
In16 Pt8 2.807782 1_555
In16 Pt0 2.808084 1_554
In16 Pt2 2.839923 1_565
In16 Pt2 2.839923 1_655
In16 In8 3.211906 1_564
In16 In8 3.211906 1_654
In16 Nd5 3.362570 1_654
In16 Nd5 3.362570 1_564
In16 Nd2 3.555621 1_555
In17 Pt0 2.762230 1_555
In17 Pt10 2.793489 1_545
In17 Pt10 2.793489 1_455
In17 Pt12 2.828557 1_555
In17 In8 3.109043 1_655
In17 In8 3.109043 1_565
In17 Nd0 3.350716 1_555
In18 Pt8 2.758916 1_545
In18 Pt8 2.758916 1_455
In18 Pt4 2.764543 1_555
In18 Pt2 2.821675 1_555
In18 Nd2 3.262828 1_455
In18 Nd2 3.262828 1_545
In18 Nd5 3.487852 1_554
In19 Pt9 2.762230 1_555
In19 Pt2 2.793489 1_565
In19 Pt2 2.793489 1_655
In19 Pt3 2.828557 1_555
In19 Nd2 3.350716 1_555
In20 Pt5 2.892996 1_555
In20 Pt0 2.900091 1_455
In20 Pt0 2.900091 1_545
In20 Pt12 2.923629 1_545
In20 Pt12 2.923629 1_455
In20 In8 3.295992 1_555
In20 Nd5 3.573328 1_555
In21 Pt12 2.844358 1_545
In21 Pt12 2.844358 1_455
In21 Pt10 2.987485 1_445
In21 Pt6 3.114901 1_555
In21 Nd0 3.294991 1_455
In21 Nd0 3.294991 1_545
Pt1 Pt6 2.798079 1_665
Pt4 Pt6 2.798079 1_555
