# generated using pymatgen
data_Ba2HoCu3O7
_symmetry_space_group_name_H-M   'P 1'
_cell_length_a   3.83672900
_cell_length_b   3.91933500
_cell_length_c   11.79118600
_cell_angle_alpha   90.00000000
_cell_angle_beta   90.00000000
_cell_angle_gamma   90.00000000
_symmetry_Int_Tables_number   1
_chemical_formula_structural   Ba2HoCu3O7
_chemical_formula_sum   'Ba2 Ho1 Cu3 O7'
_cell_volume   177.30908994
_cell_formula_units_Z   1
loop_
 _symmetry_equiv_pos_site_id
 _symmetry_equiv_pos_as_xyz
  1  'x, y, z'
loop_
 _atom_site_type_symbol
 _atom_site_label
 _atom_site_symmetry_multiplicity
 _atom_site_fract_x
 _atom_site_fract_y
 _atom_site_fract_z
 _atom_site_occupancy
  Ba  Ba0  1  0.50000000  0.50000000  0.81865900  1
  Ba  Ba1  1  0.50000000  0.50000000  0.18134100  1
  Ho  Ho0  1  0.50000000  0.50000000  0.50000000  1
  Cu  Cu0  1  0.00000000  0.00000000  0.64535700  1
  Cu  Cu1  1  0.00000000  0.00000000  0.35464300  1
  Cu  Cu2  1  0.00000000  0.00000000  0.00000000  1
  O  O0  1  0.00000000  0.50000000  0.00000000  1
  O  O1  1  0.50000000  0.00000000  0.61918700  1
  O  O2  1  0.50000000  0.00000000  0.38081300  1
  O  O3  1  0.00000000  0.50000000  0.62036300  1
  O  O4  1  0.00000000  0.50000000  0.37963700  1
  O  O5  1  0.00000000  0.00000000  0.84031800  1
  O  O6  1  0.00000000  0.00000000  0.15968200  1
loop_
_geom_bond_atom_site_label_1
_geom_bond_atom_site_label_2
_geom_bond_distance
_geom_bond_site_symmetry_2
Ba0 O5 2.754204 1_555
Ba0 O5 2.754204 1_655
Ba0 O5 2.754204 1_565
Ba0 O5 2.754204 1_665
Ba0 O0 2.872652 1_556
Ba0 O0 2.872652 1_656
Ba0 O3 3.024408 1_555
Ba0 O3 3.024408 1_655
Ba0 O1 3.061414 1_555
Ba0 O1 3.061414 1_565
Ba1 O6 2.754204 1_565
Ba1 O6 2.754204 1_655
Ba1 O6 2.754204 1_665
Ba1 O6 2.754204 1_555
Ba1 O0 2.872652 1_655
Ba1 O0 2.872652 1_555
Ba1 O4 3.024408 1_555
Ba1 O4 3.024408 1_655
Ba1 O2 3.061414 1_565
Ba1 O2 3.061414 1_555
Ho0 O3 2.386276 1_555
Ho0 O3 2.386276 1_655
Ho0 O4 2.386276 1_555
Ho0 O4 2.386276 1_655
Ho0 O2 2.411498 1_565
Ho0 O2 2.411498 1_555
Ho0 O1 2.411498 1_565
Ho0 O1 2.411498 1_555
Cu0 O1 1.943024 1_455
Cu0 O1 1.943024 1_555
Cu0 O3 1.981704 1_545
Cu0 O3 1.981704 1_555
Cu0 O5 2.298821 1_555
Cu1 O2 1.943024 1_455
Cu1 O2 1.943024 1_555
Cu1 O4 1.981704 1_555
Cu1 O4 1.981704 1_545
Cu1 O6 2.298821 1_555
Cu2 O6 1.882840 1_555
Cu2 O5 1.882840 1_554
Cu2 O0 1.959667 1_555
Cu2 O0 1.959667 1_545
