# generated using pymatgen
data_Ba3CeRu2O9
_symmetry_space_group_name_H-M   'P 1'
_cell_length_a   5.96724409
_cell_length_b   5.96724409
_cell_length_c   14.81953600
_cell_angle_alpha   90.00000000
_cell_angle_beta   90.00000000
_cell_angle_gamma   120.00000101
_symmetry_Int_Tables_number   1
_chemical_formula_structural   Ba3CeRu2O9
_chemical_formula_sum   'Ba6 Ce2 Ru4 O18'
_cell_volume   456.99646382
_cell_formula_units_Z   2
loop_
 _symmetry_equiv_pos_site_id
 _symmetry_equiv_pos_as_xyz
  1  'x, y, z'
loop_
 _atom_site_type_symbol
 _atom_site_label
 _atom_site_symmetry_multiplicity
 _atom_site_fract_x
 _atom_site_fract_y
 _atom_site_fract_z
 _atom_site_occupancy
  Ba  Ba0  1  0.33333300  0.66666700  0.59772800  1
  Ba  Ba1  1  0.00000000  0.00000000  0.25000000  1
  Ba  Ba2  1  0.66666700  0.33333300  0.40227200  1
  Ba  Ba3  1  0.66666700  0.33333300  0.09772800  1
  Ba  Ba4  1  0.33333300  0.66666700  0.90227200  1
  Ba  Ba5  1  0.00000000  0.00000000  0.75000000  1
  Ce  Ce0  1  0.00000000  0.00000000  0.50000000  1
  Ce  Ce1  1  0.00000000  0.00000000  0.00000000  1
  Ru  Ru0  1  0.33333300  0.66666700  0.33454600  1
  Ru  Ru1  1  0.66666700  0.33333300  0.83454600  1
  Ru  Ru2  1  0.66666700  0.33333300  0.66545400  1
  Ru  Ru3  1  0.33333300  0.66666700  0.16545400  1
  O  O0  1  0.17530700  0.82469300  0.08766300  1
  O  O1  1  0.17530700  0.35061300  0.08766300  1
  O  O2  1  0.64938700  0.82469300  0.08766300  1
  O  O3  1  0.35061300  0.17530700  0.58766300  1
  O  O4  1  0.82469300  0.64938700  0.91233700  1
  O  O5  1  0.82469300  0.17530700  0.58766300  1
  O  O6  1  0.82469300  0.64938700  0.58766300  1
  O  O7  1  0.17530700  0.82469300  0.41233700  1
  O  O8  1  0.64938700  0.82469300  0.41233700  1
  O  O9  1  0.35061300  0.17530700  0.91233700  1
  O  O10  1  0.82469300  0.17530700  0.91233700  1
  O  O11  1  0.17530700  0.35061300  0.41233700  1
  O  O12  1  0.48940000  0.97880100  0.25000000  1
  O  O13  1  0.51060000  0.48940000  0.75000000  1
  O  O14  1  0.97880100  0.48940000  0.75000000  1
  O  O15  1  0.02119900  0.51060000  0.25000000  1
  O  O16  1  0.48940000  0.51060000  0.25000000  1
  O  O17  1  0.51060000  0.02119900  0.75000000  1
loop_
_geom_bond_atom_site_label_1
_geom_bond_atom_site_label_2
_geom_bond_distance
_geom_bond_site_symmetry_2
Ba0 O14 2.906717 1_455
Ba0 O17 2.906717 1_565
Ba0 O13 2.906723 1_555
Ba0 O5 2.988682 1_455
Ba0 O5 2.988682 1_565
Ba0 O6 2.988683 1_455
Ba0 O3 2.988683 1_565
Ba0 O3 2.988683 1_555
Ba0 O6 2.988683 1_555
Ba0 O7 3.196230 1_555
Ba0 O8 3.196235 1_555
Ba0 O11 3.196235 1_555
Ba1 O15 2.985630 1_545
Ba1 O12 2.985630 1_545
Ba1 O16 2.985633 1_445
Ba1 O16 2.985633 1_555
Ba1 O12 2.985636 1_445
Ba1 O15 2.985636 1_555
Ba1 O1 3.011749 1_555
Ba1 O2 3.011749 1_445
Ba1 O8 3.011749 1_445
Ba1 O11 3.011749 1_555
Ba1 O7 3.011752 1_545
Ba1 O0 3.011752 1_545
Ba2 O12 2.906717 1_545
Ba2 O15 2.906717 1_655
Ba2 O16 2.906723 1_555
Ba2 O7 2.988682 1_545
Ba2 O7 2.988682 1_655
Ba2 O8 2.988683 1_545
Ba2 O11 2.988683 1_655
Ba2 O8 2.988683 1_555
Ba2 O11 2.988683 1_555
Ba2 O5 3.196230 1_555
Ba2 O3 3.196235 1_555
Ba2 O6 3.196235 1_555
Ba3 O12 2.906717 1_545
Ba3 O15 2.906717 1_655
Ba3 O16 2.906723 1_555
Ba3 O0 2.988682 1_545
Ba3 O0 2.988682 1_655
Ba3 O2 2.988683 1_545
Ba3 O1 2.988683 1_655
Ba3 O2 2.988683 1_555
Ba3 O1 2.988683 1_555
Ba3 O10 3.196230 1_554
Ba3 O9 3.196235 1_554
Ba3 O4 3.196235 1_554
Ba4 O14 2.906717 1_455
Ba4 O17 2.906717 1_565
Ba4 O13 2.906723 1_555
Ba4 O10 2.988682 1_455
Ba4 O10 2.988682 1_565
Ba4 O4 2.988683 1_455
Ba4 O9 2.988683 1_565
Ba4 O9 2.988683 1_555
Ba4 O4 2.988683 1_555
Ba4 O0 3.196230 1_556
Ba4 O1 3.196235 1_556
Ba4 O2 3.196235 1_556
Ba5 O17 2.985630 1_455
Ba5 O14 2.985630 1_455
Ba5 O13 2.985633 1_445
Ba5 O13 2.985633 1_555
Ba5 O14 2.985636 1_445
Ba5 O17 2.985636 1_555
Ba5 O6 3.011749 1_445
Ba5 O4 3.011749 1_445
Ba5 O9 3.011749 1_555
Ba5 O3 3.011749 1_555
Ba5 O10 3.011752 1_455
Ba5 O5 3.011752 1_455
Ce0 O8 2.229502 1_445
Ce0 O6 2.229502 1_445
Ce0 O11 2.229502 1_555
Ce0 O3 2.229502 1_555
Ce0 O7 2.229507 1_545
Ce0 O5 2.229507 1_455
Ce1 O2 2.229502 1_445
Ce1 O4 2.229502 1_444
Ce1 O1 2.229502 1_555
Ce1 O9 2.229502 1_554
Ce1 O0 2.229507 1_545
Ce1 O10 2.229507 1_454
O0 Ru3 1.999160 1_555
O1 Ru3 1.999169 1_555
O2 Ru3 1.999169 1_555
O3 Ru2 1.999169 1_555
O4 Ru1 1.999169 1_555
O5 Ru2 1.999160 1_555
O6 Ru2 1.999169 1_555
O7 Ru0 1.999160 1_555
O8 Ru0 1.999169 1_555
O9 Ru1 1.999169 1_555
O10 Ru1 1.999160 1_555
O11 Ru0 1.999169 1_555
O12 Ru3 2.042484 1_555
O12 Ru0 2.042484 1_555
O13 Ru2 2.042484 1_555
O13 Ru1 2.042484 1_555
O14 Ru1 2.042484 1_555
O14 Ru2 2.042484 1_555
O15 Ru3 2.042484 1_555
O15 Ru0 2.042484 1_555
O16 Ru3 2.042484 1_555
O16 Ru0 2.042484 1_555
O17 Ru1 2.042484 1_555
O17 Ru2 2.042484 1_555
