# generated using pymatgen
data_Rb4Pb9
_symmetry_space_group_name_H-M   'P 1'
_cell_length_a   9.93390828
_cell_length_b   13.49453100
_cell_length_c   16.40528878
_cell_angle_alpha   90.00000000
_cell_angle_beta   103.00469736
_cell_angle_gamma   90.00000000
_symmetry_Int_Tables_number   1
_chemical_formula_structural   Rb4Pb9
_chemical_formula_sum   'Rb16 Pb36'
_cell_volume   2142.77974212
_cell_formula_units_Z   4
loop_
 _symmetry_equiv_pos_site_id
 _symmetry_equiv_pos_as_xyz
  1  'x, y, z'
loop_
 _atom_site_type_symbol
 _atom_site_label
 _atom_site_symmetry_multiplicity
 _atom_site_fract_x
 _atom_site_fract_y
 _atom_site_fract_z
 _atom_site_occupancy
  Rb  Rb0  1  0.12056566  0.25000000  0.20600701  1
  Rb  Rb1  1  0.61890892  0.07484976  0.78531310  1
  Rb  Rb2  1  0.38109108  0.92515024  0.21468690  1
  Rb  Rb3  1  0.94986736  0.50098100  0.63180921  1
  Rb  Rb4  1  0.05013264  0.00098100  0.36819079  1
  Rb  Rb5  1  0.94986736  0.99901900  0.63180921  1
  Rb  Rb6  1  0.61890892  0.42515024  0.78531310  1
  Rb  Rb7  1  0.73698101  0.75000000  0.43310592  1
  Rb  Rb8  1  0.32440580  0.59891414  0.90772717  1
  Rb  Rb9  1  0.26301899  0.25000000  0.56689408  1
  Rb  Rb10  1  0.38109108  0.57484976  0.21468690  1
  Rb  Rb11  1  0.32440580  0.90108586  0.90772717  1
  Rb  Rb12  1  0.67559420  0.40108586  0.09227283  1
  Rb  Rb13  1  0.05013264  0.49901900  0.36819079  1
  Rb  Rb14  1  0.87943434  0.75000000  0.79399299  1
  Rb  Rb15  1  0.67559420  0.09891414  0.09227283  1
  Pb  Pb0  1  0.76933055  0.86456805  0.21659299  1
  Pb  Pb1  1  0.50635385  0.25000000  0.24584919  1
  Pb  Pb2  1  0.75856335  0.86532446  0.97685563  1
  Pb  Pb3  1  0.56982588  0.75000000  0.07446245  1
  Pb  Pb4  1  0.24143665  0.13467554  0.02314437  1
  Pb  Pb5  1  0.94074008  0.25000000  0.75724026  1
  Pb  Pb6  1  0.00422975  0.06240313  0.87626483  1
  Pb  Pb7  1  0.82278123  0.25000000  0.30951024  1
  Pb  Pb8  1  0.38705057  0.63334163  0.45506047  1
  Pb  Pb9  1  0.68865026  0.06712999  0.37611164  1
  Pb  Pb10  1  0.75856335  0.63467554  0.97685563  1
  Pb  Pb11  1  0.43017412  0.25000000  0.92553755  1
  Pb  Pb12  1  0.99577025  0.56240313  0.12373517  1
  Pb  Pb13  1  0.61294943  0.13334163  0.54493953  1
  Pb  Pb14  1  0.23066945  0.13543195  0.78340701  1
  Pb  Pb15  1  0.99577025  0.93759687  0.12373517  1
  Pb  Pb16  1  0.24143665  0.36532446  0.02314437  1
  Pb  Pb17  1  0.00422975  0.43759687  0.87626483  1
  Pb  Pb18  1  0.60950835  0.63197867  0.62082473  1
  Pb  Pb19  1  0.05925992  0.75000000  0.24275974  1
  Pb  Pb20  1  0.76933055  0.63543195  0.21659299  1
  Pb  Pb21  1  0.39049165  0.13197867  0.37917527  1
  Pb  Pb22  1  0.38705057  0.86665837  0.45506047  1
  Pb  Pb23  1  0.31134974  0.93287001  0.62388836  1
  Pb  Pb24  1  0.61294943  0.36665837  0.54493953  1
  Pb  Pb25  1  0.94334197  0.25000000  0.96962809  1
  Pb  Pb26  1  0.17721877  0.75000000  0.69048976  1
  Pb  Pb27  1  0.49364615  0.75000000  0.75415081  1
  Pb  Pb28  1  0.13919260  0.75000000  0.49780291  1
  Pb  Pb29  1  0.86080740  0.25000000  0.50219709  1
  Pb  Pb30  1  0.60950835  0.86802133  0.62082473  1
  Pb  Pb31  1  0.23066945  0.36456805  0.78340701  1
  Pb  Pb32  1  0.39049165  0.36802133  0.37917527  1
  Pb  Pb33  1  0.31134974  0.56712999  0.62388836  1
  Pb  Pb34  1  0.05665803  0.75000000  0.03037191  1
  Pb  Pb35  1  0.68865026  0.43287001  0.37611164  1
loop_
_geom_bond_atom_site_label_1
_geom_bond_atom_site_label_2
_geom_bond_distance
_geom_bond_site_symmetry_2
Rb0 Rb15 4.844108 1_455
Rb0 Rb12 4.844108 1_455
Rb1 Rb11 4.553522 1_545
Rb1 Rb15 4.950275 1_556
Rb6 Rb8 4.553522 1_555
Rb10 Rb12 4.553522 1_555
Rb10 Rb8 4.950275 1_554
Rb11 Rb8 4.077666 1_555
Rb11 Rb14 4.844108 1_455
Rb11 Rb15 4.869285 1_566
Rb11 Rb2 4.950275 1_556
Rb12 Rb15 4.077666 1_555
Rb12 Rb8 4.869285 1_554
Rb12 Rb6 4.950275 1_554
Rb14 Rb8 4.844108 1_655
Rb15 Rb2 4.553522 1_545
Pb0 Pb20 3.092084 1_555
Pb0 Pb3 3.110472 1_555
Pb0 Pb15 3.145469 1_555
Pb0 Pb19 3.211423 1_655
Pb0 Rb15 3.764659 1_565
Pb0 Rb4 3.772623 1_665
Pb0 Rb2 3.935665 1_555
Pb0 Rb7 3.952675 1_555
Pb1 Pb7 3.081226 1_555
Pb1 Pb21 3.127029 1_555
Pb1 Pb32 3.127029 1_555
Pb1 Pb35 3.492022 1_555
Pb1 Pb9 3.492022 1_555
Pb1 Rb0 3.739922 1_555
Pb1 Rb15 3.903510 1_555
Pb1 Rb12 3.903510 1_555
Pb2 Pb3 3.138855 1_556
Pb2 Pb34 3.285057 1_656
Pb2 Rb14 3.805822 1_555
Pb2 Rb15 3.860454 1_566
Pb2 Rb1 4.222703 1_565
Pb2 Rb11 4.233042 1_555
Pb3 Rb11 3.818553 1_554
Pb3 Rb8 3.818553 1_554
Pb3 Rb10 4.041619 1_555
Pb3 Rb2 4.041619 1_555
Pb4 Pb6 3.123219 1_554
Pb4 Rb0 3.805822 1_555
Pb4 Rb11 3.860454 1_544
Pb4 Rb2 4.222703 1_545
Pb4 Rb15 4.233042 1_555
Pb5 Pb6 3.172530 1_655
Pb5 Rb3 3.974588 1_555
Pb5 Rb5 3.974588 1_545
Pb5 Rb1 4.084397 1_555
Pb5 Rb6 4.084397 1_555
Pb6 Rb1 3.786251 1_455
Pb6 Rb11 3.792449 1_545
Pb6 Rb5 4.016411 1_445
Pb7 Pb9 3.116762 1_555
Pb7 Rb0 3.727543 1_655
Pb7 Rb13 4.042430 1_655
Pb7 Rb4 4.042430 1_655
Pb7 Rb15 4.080499 1_555
Pb7 Rb12 4.080499 1_555
Pb8 Rb13 3.791003 1_555
Pb8 Rb7 3.905800 1_555
Pb8 Rb10 4.008971 1_555
Pb9 Rb4 3.730753 1_655
Pb9 Rb2 4.046865 1_545
Pb10 Pb2 3.112499 1_555
Pb10 Pb12 3.123219 1_556
Pb10 Pb3 3.138855 1_556
Pb10 Pb34 3.285057 1_656
Pb10 Rb14 3.805822 1_555
Pb10 Rb12 3.860454 1_556
Pb10 Rb6 4.222703 1_555
Pb10 Rb8 4.233042 1_555
Pb11 Pb14 3.110472 1_555
Pb11 Pb31 3.110472 1_555
Pb11 Pb4 3.138855 1_556
Pb11 Pb16 3.138855 1_556
Pb11 Rb15 3.818553 1_556
Pb11 Rb12 3.818553 1_556
Pb11 Rb1 4.041619 1_555
Pb11 Rb6 4.041619 1_555
Pb12 Pb34 3.088269 1_655
Pb12 Pb20 3.145469 1_555
Pb12 Pb19 3.172530 1_655
Pb12 Rb10 3.786251 1_655
Pb12 Rb12 3.792449 1_555
Pb12 Rb13 4.016411 1_655
Pb13 Pb21 3.094254 1_555
Pb13 Pb29 3.131996 1_555
Pb13 Pb24 3.148500 1_555
Pb13 Pb9 3.157896 1_555
Pb13 Rb5 3.791003 1_545
Pb13 Rb9 3.905800 1_555
Pb13 Rb1 4.008971 1_555
Pb14 Pb31 3.092084 1_555
Pb14 Pb6 3.145469 1_555
Pb14 Pb5 3.211423 1_455
Pb14 Rb11 3.764659 1_545
Pb14 Rb5 3.772623 1_445
Pb14 Rb1 3.935665 1_555
Pb14 Rb9 3.952675 1_555
Pb15 Pb34 3.088269 1_655
Pb15 Pb2 3.123219 1_554
Pb15 Pb19 3.172530 1_655
Pb15 Rb2 3.786251 1_655
Pb15 Rb15 3.792449 1_565
Pb15 Rb4 4.016411 1_665
Pb16 Pb4 3.112499 1_555
Pb16 Pb17 3.123219 1_554
Pb16 Pb25 3.285057 1_454
Pb16 Rb0 3.805822 1_555
Pb16 Rb8 3.860454 1_554
Pb16 Rb10 4.222703 1_555
Pb16 Rb12 4.233042 1_555
Pb17 Pb25 3.088269 1_455
Pb17 Pb31 3.145469 1_555
Pb17 Pb5 3.172530 1_455
Pb17 Rb6 3.786251 1_455
Pb17 Rb8 3.792449 1_555
Pb17 Rb3 4.016411 1_455
Pb18 Pb8 3.094254 1_555
Pb18 Pb33 3.099688 1_555
Pb18 Pb27 3.127029 1_555
Pb18 Pb30 3.185285 1_555
Pb18 Rb3 3.783518 1_555
Pb18 Rb14 3.790609 1_555
Pb18 Rb6 3.868730 1_555
Pb18 Rb7 3.921600 1_555
Pb19 Pb20 3.211423 1_455
Pb19 Pb34 3.478558 1_555
Pb19 Rb4 3.974588 1_565
Pb19 Rb13 3.974588 1_555
Pb19 Rb2 4.084397 1_555
Pb19 Rb10 4.084397 1_555
Pb20 Pb3 3.110472 1_555
Pb20 Rb12 3.764659 1_555
Pb20 Rb13 3.772623 1_655
Pb20 Rb10 3.935665 1_555
Pb20 Rb7 3.952675 1_555
Pb21 Pb9 3.099688 1_555
Pb21 Pb32 3.185285 1_555
Pb21 Rb4 3.783518 1_555
Pb21 Rb0 3.790609 1_555
Pb21 Rb2 3.868730 1_545
Pb21 Rb9 3.921600 1_555
Pb22 Pb30 3.094254 1_555
Pb22 Pb28 3.131996 1_555
Pb22 Pb8 3.148500 1_555
Pb22 Pb23 3.157896 1_555
Pb22 Rb4 3.791003 1_565
Pb22 Rb7 3.905800 1_555
Pb22 Rb2 4.008971 1_555
Pb23 Pb30 3.099688 1_555
Pb23 Pb26 3.116762 1_555
Pb23 Pb28 3.420673 1_555
Pb23 Pb27 3.492022 1_555
Pb23 Rb5 3.730753 1_455
Pb23 Rb1 4.046865 1_565
Pb24 Pb32 3.094254 1_555
Pb24 Pb29 3.131996 1_555
Pb24 Pb35 3.157896 1_555
Pb24 Rb3 3.791003 1_555
Pb24 Rb9 3.905800 1_555
Pb24 Rb6 4.008971 1_555
Pb25 Pb6 3.088269 1_655
Pb25 Pb4 3.285057 1_656
Pb25 Pb5 3.478558 1_555
Pb25 Rb0 3.881323 1_656
Pb25 Rb12 4.205715 1_556
Pb25 Rb15 4.205715 1_556
Pb26 Pb27 3.081226 1_555
Pb26 Pb28 3.098020 1_555
Pb26 Pb33 3.116762 1_555
Pb26 Rb14 3.727543 1_455
Pb26 Rb5 4.042430 1_455
Pb26 Rb3 4.042430 1_455
Pb26 Rb11 4.080499 1_555
Pb26 Rb8 4.080499 1_555
Pb27 Pb30 3.127029 1_555
Pb27 Pb33 3.492022 1_555
Pb27 Rb14 3.739922 1_555
Pb27 Rb11 3.903510 1_555
Pb27 Rb8 3.903510 1_555
Pb28 Pb8 3.131996 1_555
Pb28 Pb33 3.420673 1_555
Pb28 Rb7 3.896434 1_455
Pb28 Rb4 3.991017 1_565
Pb28 Rb13 3.991017 1_555
Pb29 Pb7 3.098020 1_555
Pb29 Pb9 3.420673 1_555
Pb29 Pb35 3.420673 1_555
Pb29 Rb9 3.896434 1_655
Pb29 Rb3 3.991017 1_555
Pb29 Rb5 3.991017 1_545
Pb30 Rb5 3.783518 1_555
Pb30 Rb14 3.790609 1_555
Pb30 Rb1 3.868730 1_565
Pb30 Rb7 3.921600 1_555
Pb31 Pb5 3.211423 1_455
Pb31 Rb8 3.764659 1_555
Pb31 Rb3 3.772623 1_455
Pb31 Rb6 3.935665 1_555
Pb31 Rb9 3.952675 1_555
Pb32 Pb35 3.099688 1_555
Pb32 Rb13 3.783518 1_555
Pb32 Rb0 3.790609 1_555
Pb32 Rb10 3.868730 1_555
Pb32 Rb9 3.921600 1_555
Pb33 Pb8 3.157896 1_555
Pb33 Rb3 3.730753 1_455
Pb33 Rb6 4.046865 1_555
Pb34 Rb14 3.881323 1_454
Pb34 Rb8 4.205715 1_554
Pb34 Rb11 4.205715 1_554
Pb35 Pb7 3.116762 1_555
Pb35 Rb13 3.730753 1_655
Pb35 Rb10 4.046865 1_555
