# generated using pymatgen
data_Ba2TbNbO6
_symmetry_space_group_name_H-M   'P 1'
_cell_length_a   6.06618386
_cell_length_b   6.06618386
_cell_length_c   6.06618386
_cell_angle_alpha   120.27453788
_cell_angle_beta   120.27453788
_cell_angle_gamma   89.52514056
_symmetry_Int_Tables_number   1
_chemical_formula_structural   Ba2TbNbO6
_chemical_formula_sum   'Ba2 Tb1 Nb1 O6'
_cell_volume   157.18446771
_cell_formula_units_Z   1
loop_
 _symmetry_equiv_pos_site_id
 _symmetry_equiv_pos_as_xyz
  1  'x, y, z'
loop_
 _atom_site_type_symbol
 _atom_site_label
 _atom_site_symmetry_multiplicity
 _atom_site_fract_x
 _atom_site_fract_y
 _atom_site_fract_z
 _atom_site_occupancy
  Ba  Ba0  1  0.25000000  0.75000000  0.50000000  1
  Ba  Ba1  1  0.75000000  0.25000000  0.50000000  1
  Tb  Tb0  1  0.00000000  0.00000000  0.00000000  1
  Nb  Nb0  1  0.50000000  0.50000000  0.00000000  1
  O  O0  1  0.70287800  0.76825100  0.47112800  1
  O  O1  1  0.76825100  0.29712200  0.06537300  1
  O  O2  1  0.23174900  0.70287800  0.93462700  1
  O  O3  1  0.29712200  0.23174900  0.52887200  1
  O  O4  1  0.26392300  0.26392300  0.00000000  1
  O  O5  1  0.73607700  0.73607700  0.00000000  1
loop_
_geom_bond_atom_site_label_1
_geom_bond_atom_site_label_2
_geom_bond_distance
_geom_bond_site_symmetry_2
Ba0 O3 2.846045 1_565
Ba0 O2 2.846048 1_555
Ba0 O1 2.846048 1_455
Ba0 O0 2.846051 1_555
Ba0 O5 3.022877 1_556
Ba0 O4 3.022877 1_555
Ba0 O5 3.022877 1_455
Ba0 O4 3.022877 1_566
Ba0 O0 3.238158 1_455
Ba0 O1 3.238161 1_566
Ba0 O2 3.238161 1_554
Ba0 O3 3.238164 1_555
Ba1 O0 2.846045 1_545
Ba1 O1 2.846048 1_555
Ba1 O2 2.846048 1_655
Ba1 O3 2.846051 1_555
Ba1 O5 3.022877 1_556
Ba1 O5 3.022877 1_545
Ba1 O4 3.022877 1_555
Ba1 O4 3.022877 1_656
Ba1 O3 3.238158 1_655
Ba1 O1 3.238161 1_556
Ba1 O2 3.238161 1_544
Ba1 O0 3.238164 1_555
Nb0 O0 2.031765 1_555
Nb0 O3 2.031765 1_554
Nb0 O1 2.031769 1_555
Nb0 O2 2.031769 1_554
Nb0 O5 2.033651 1_555
Nb0 O4 2.033651 1_555
O0 Tb0 2.276338 1_666
O1 Tb0 2.276333 1_655
O2 Tb0 2.276333 1_566
O3 Tb0 2.276338 1_555
O4 Tb0 2.273527 1_555
O5 Tb0 2.273527 1_665
