# generated using pymatgen
data_Ba3Si3N5ClO
_symmetry_space_group_name_H-M   'P 1'
_cell_length_a   9.58713006
_cell_length_b   9.58713006
_cell_length_c   5.59977294
_cell_angle_alpha   88.96227063
_cell_angle_beta   88.96227063
_cell_angle_gamma   120.86507874
_symmetry_Int_Tables_number   1
_chemical_formula_structural   Ba3Si3N5ClO
_chemical_formula_sum   'Ba6 Si6 N10 Cl2 O2'
_cell_volume   441.50272957
_cell_formula_units_Z   2
loop_
 _symmetry_equiv_pos_site_id
 _symmetry_equiv_pos_as_xyz
  1  'x, y, z'
loop_
 _atom_site_type_symbol
 _atom_site_label
 _atom_site_symmetry_multiplicity
 _atom_site_fract_x
 _atom_site_fract_y
 _atom_site_fract_z
 _atom_site_occupancy
  Ba  Ba0  1  0.36639100  0.21285700  0.76365400  1
  Ba  Ba1  1  0.80323100  0.15211200  0.75925300  1
  Ba  Ba2  1  0.83518800  0.63904700  0.74847700  1
  Ba  Ba3  1  0.21285700  0.36639100  0.26365400  1
  Ba  Ba4  1  0.15211200  0.80323100  0.25925300  1
  Ba  Ba5  1  0.63904700  0.83518800  0.24847700  1
  Si  Si0  1  0.53315200  0.12396600  0.24692500  1
  Si  Si1  1  0.59195500  0.46876300  0.25315500  1
  Si  Si2  1  0.87401300  0.40593200  0.26471200  1
  Si  Si3  1  0.12396600  0.53315200  0.74692500  1
  Si  Si4  1  0.46876300  0.59195500  0.75315500  1
  Si  Si5  1  0.40593200  0.87401300  0.76471200  1
  N  N0  1  0.46511200  0.25778500  0.26270400  1
  N  N1  1  0.73895600  0.19919700  0.26407000  1
  N  N2  1  0.79939900  0.53450300  0.23930200  1
  N  N3  1  0.00075200  0.45463900  0.50377200  1
  N  N4  1  0.25778500  0.46511200  0.76270400  1
  N  N5  1  0.19919700  0.73895600  0.76407000  1
  N  N6  1  0.54770200  0.54525700  0.50482200  1
  N  N7  1  0.54525700  0.54770200  0.00482200  1
  N  N8  1  0.53450300  0.79939900  0.73930200  1
  N  N9  1  0.45463900  0.00075200  0.00377200  1
  Cl  Cl0  1  0.00591300  0.00375300  0.53081700  1
  Cl  Cl1  1  0.00375300  0.00591300  0.03081700  1
  O  O0  1  0.99638400  0.44404200  0.00433900  1
  O  O1  1  0.44404200  0.99638400  0.50433900  1
loop_
_geom_bond_atom_site_label_1
_geom_bond_atom_site_label_2
_geom_bond_distance
_geom_bond_site_symmetry_2
Ba0 N9 2.892433 1_556
Ba0 N0 2.896941 1_555
Ba0 N0 2.934625 1_556
Ba0 O1 2.936859 1_545
Ba0 N6 3.055413 1_555
Ba0 N4 3.084837 1_555
Ba0 N7 3.108454 1_556
Ba0 Cl0 3.288124 1_555
Ba0 Cl1 3.299756 1_556
Ba1 O0 2.838891 1_556
Ba1 N3 2.856756 1_655
Ba1 N1 2.928223 1_555
Ba1 N1 2.973745 1_556
Ba1 N8 3.028192 1_545
Ba1 N9 3.152129 1_556
Ba1 Cl0 3.201060 1_655
Ba1 Cl1 3.281188 1_656
Ba1 O1 3.332436 1_545
Ba2 N7 2.804651 1_556
Ba2 N6 2.811483 1_555
Ba2 N2 2.861782 1_556
Ba2 N2 3.006342 1_555
Ba2 N5 3.112581 1_655
Ba2 Cl0 3.208027 1_665
Ba2 N3 3.226616 1_655
Ba2 O0 3.299073 1_556
Ba2 Cl1 3.456004 1_666
Ba3 N3 2.892433 1_555
Ba3 N4 2.896941 1_554
Ba3 N4 2.934625 1_555
Ba3 O0 2.936859 1_455
Ba3 N7 3.055413 1_555
Ba3 N0 3.084837 1_555
Ba3 N6 3.108454 1_555
Ba3 Cl1 3.288124 1_555
Ba3 Cl0 3.299756 1_555
Ba4 O1 2.838891 1_555
Ba4 N9 2.856756 1_565
Ba4 N5 2.928223 1_554
Ba4 N5 2.973745 1_555
Ba4 N2 3.028192 1_455
Ba4 N3 3.152129 1_555
Ba4 Cl1 3.201060 1_565
Ba4 Cl0 3.281188 1_565
Ba4 O0 3.332436 1_455
Ba5 N6 2.804651 1_555
Ba5 N7 2.811483 1_555
Ba5 N8 2.861782 1_555
Ba5 N8 3.006342 1_554
Ba5 N1 3.112581 1_565
Ba5 Cl1 3.208027 1_665
Ba5 N9 3.226616 1_565
Ba5 O1 3.299073 1_555
Ba5 Cl0 3.456004 1_665
N0 Si0 1.714622 1_555
N0 Si1 1.744380 1_555
N1 Si0 1.723852 1_555
N1 Si2 1.723993 1_555
N2 Si2 1.718531 1_555
N2 Si1 1.750740 1_555
N3 Si2 1.727976 1_455
N3 Si3 1.731764 1_555
N4 Si3 1.714622 1_555
N4 Si4 1.744380 1_555
N5 Si3 1.723852 1_555
N5 Si5 1.723993 1_555
N6 Si1 1.743241 1_555
N6 Si4 1.743285 1_555
N7 Si4 1.743241 1_554
N7 Si1 1.743285 1_555
N8 Si5 1.718531 1_555
N8 Si4 1.750740 1_555
N9 Si5 1.727976 1_544
N9 Si0 1.731764 1_555
O0 Si2 1.764838 1_555
O0 Si3 1.767234 1_654
O1 Si5 1.764838 1_555
O1 Si0 1.767234 1_565
