# generated using pymatgen
data_NaRuO2
_symmetry_space_group_name_H-M   'P 1'
_cell_length_a   3.25726000
_cell_length_b   5.06100559
_cell_length_c   5.69188916
_cell_angle_alpha   103.97647197
_cell_angle_beta   91.46610286
_cell_angle_gamma   90.02763463
_symmetry_Int_Tables_number   1
_chemical_formula_structural   NaRuO2
_chemical_formula_sum   'Na2 Ru2 O4'
_cell_volume   91.02103836
_cell_formula_units_Z   2
loop_
 _symmetry_equiv_pos_site_id
 _symmetry_equiv_pos_as_xyz
  1  'x, y, z'
loop_
 _atom_site_type_symbol
 _atom_site_label
 _atom_site_symmetry_multiplicity
 _atom_site_fract_x
 _atom_site_fract_y
 _atom_site_fract_z
 _atom_site_occupancy
  Na  Na0  1  0.59768400  0.85916700  0.99045800  1
  Na  Na1  1  0.09434600  0.36046200  0.98434200  1
  Ru  Ru0  1  0.07661900  0.54084200  0.50019300  1
  Ru  Ru1  1  0.57597100  0.01455300  0.50805900  1
  O  O0  1  0.58476000  0.43129900  0.69014200  1
  O  O1  1  0.08514700  0.94001700  0.71597500  1
  O  O2  1  0.06782800  0.12420900  0.31837200  1
  O  O3  1  0.56889600  0.61289800  0.29155500  1
loop_
_geom_bond_atom_site_label_1
_geom_bond_atom_site_label_2
_geom_bond_distance
_geom_bond_site_symmetry_2
Na0 O3 2.353570 1_556
Na0 O1 2.358918 1_655
Na0 O1 2.360382 1_555
Na0 O0 2.412687 1_555
Na0 O2 2.504088 1_666
Na0 O2 2.686875 1_566
Na1 O1 2.299907 1_545
Na1 O0 2.415804 1_455
Na1 O3 2.420710 1_556
Na1 O0 2.431189 1_555
Na1 O2 2.481595 1_556
Na1 O3 2.587536 1_456
O0 Ru0 2.101106 1_555
O0 Ru0 2.102466 1_655
O0 Ru1 2.113289 1_555
O1 Ru0 2.095285 1_555
O1 Ru1 2.099837 1_465
O1 Ru1 2.100160 1_565
O2 Ru1 2.100502 1_555
O2 Ru1 2.101792 1_455
O2 Ru0 2.112415 1_555
O3 Ru0 2.094644 1_655
O3 Ru0 2.102486 1_555
O3 Ru1 2.107078 1_565
