# generated using pymatgen
data_Sr4La4Mn7CuO24
_symmetry_space_group_name_H-M   'P 1'
_cell_length_a   5.45798827
_cell_length_b   21.83733767
_cell_length_c   5.55202953
_cell_angle_alpha   119.55908965
_cell_angle_beta   119.41839053
_cell_angle_gamma   90.03543921
_symmetry_Int_Tables_number   1
_chemical_formula_structural   Sr4La4Mn7CuO24
_chemical_formula_sum   'Sr4 La4 Mn7 Cu1 O24'
_cell_volume   474.91791541
_cell_formula_units_Z   1
loop_
 _symmetry_equiv_pos_site_id
 _symmetry_equiv_pos_as_xyz
  1  'x, y, z'
loop_
 _atom_site_type_symbol
 _atom_site_label
 _atom_site_symmetry_multiplicity
 _atom_site_fract_x
 _atom_site_fract_y
 _atom_site_fract_z
 _atom_site_occupancy
  Sr  Sr0  1  0.24650700  0.43644200  0.49763200  1
  Sr  Sr1  1  0.24839200  0.68787400  0.50001300  1
  Sr  Sr2  1  0.75349300  0.31355800  0.50236800  1
  Sr  Sr3  1  0.75160800  0.06212600  0.49998700  1
  La  La0  1  0.25825300  0.18996100  0.50752600  1
  La  La1  1  0.24911400  0.93606400  0.49660300  1
  La  La2  1  0.75088600  0.81393600  0.50339700  1
  La  La3  1  0.74174700  0.56003900  0.49247400  1
  Mn  Mn0  1  0.99977700  0.00041700  0.00248500  1
  Mn  Mn1  1  0.00181300  0.25060400  0.00290100  1
  Mn  Mn2  1  0.99818700  0.49939600  0.99709900  1
  Mn  Mn3  1  0.00022300  0.74958300  0.99751500  1
  Mn  Mn4  1  0.50207200  0.12537900  0.00229700  1
  Mn  Mn5  1  0.50000000  0.37500000  0.00000000  1
  Mn  Mn6  1  0.49792800  0.62462100  0.99770300  1
  Cu  Cu0  1  0.50000000  0.87500000  0.00000000  1
  O  O0  1  0.25415600  0.06213900  0.50336700  1
  O  O1  1  0.24856600  0.30904900  0.49582100  1
  O  O2  1  0.25153700  0.56405100  0.50699800  1
  O  O3  1  0.23087000  0.81164200  0.47066000  1
  O  O4  1  0.21735400  0.17774100  0.01024200  1
  O  O5  1  0.22341900  0.43157500  0.00703300  1
  O  O6  1  0.19678800  0.67479900  0.98397600  1
  O  O7  1  0.20264400  0.92647900  0.00382400  1
  O  O8  1  0.28867200  0.05015500  0.98836100  1
  O  O9  1  0.27987800  0.30065500  0.98618500  1
  O  O10  1  0.29891700  0.55508300  0.01455200  1
  O  O11  1  0.29809100  0.80416000  0.01780900  1
  O  O12  1  0.74846300  0.18594900  0.49300200  1
  O  O13  1  0.75143400  0.44095100  0.50417900  1
  O  O14  1  0.74584400  0.68786100  0.49663300  1
  O  O15  1  0.76913000  0.93835800  0.52934000  1
  O  O16  1  0.70108300  0.19491700  0.98544800  1
  O  O17  1  0.72012200  0.44934500  0.01381500  1
  O  O18  1  0.71132800  0.69984500  0.01163900  1
  O  O19  1  0.70190900  0.94584000  0.98219100  1
  O  O20  1  0.77658100  0.31842500  0.99296700  1
  O  O21  1  0.80321200  0.07520100  0.01602400  1
  O  O22  1  0.79735600  0.82352100  0.99617700  1
  O  O23  1  0.78264600  0.57225900  0.98975800  1
loop_
_geom_bond_atom_site_label_1
_geom_bond_atom_site_label_2
_geom_bond_distance
_geom_bond_site_symmetry_2
La0 O9 2.504581 1_555
La0 O16 2.512034 1_555
La0 O4 2.532067 1_555
La0 O21 2.546046 1_455
La0 O1 2.633153 1_555
La0 O12 2.716260 1_555
La0 O12 2.743793 1_455
La0 O0 2.779958 1_555
La0 O20 2.859587 1_555
La0 O4 3.042711 1_556
La0 O16 3.051565 1_454
La0 O8 3.073265 1_554
La1 O19 2.511528 1_555
La1 O7 2.519258 1_555
La1 O22 2.522826 1_454
La1 O8 2.533187 1_565
La1 O3 2.648103 1_555
La1 O15 2.712482 1_455
La1 O0 2.734747 1_565
La1 O15 2.752313 1_555
La1 O11 2.929011 1_555
La1 O7 3.053155 1_556
La1 O19 3.057013 1_454
La1 O21 3.077373 1_566
La2 O11 2.511528 1_555
La2 O22 2.519263 1_555
La2 O7 2.522827 1_656
La2 O18 2.533187 1_555
La2 O15 2.648103 1_555
La2 O3 2.712482 1_655
La2 O14 2.734747 1_555
La2 O3 2.752313 1_555
La2 O19 2.929011 1_555
La2 O22 3.053150 1_554
La2 O11 3.057013 1_656
La2 O6 3.077373 1_554
La3 O17 2.504581 1_555
La3 O10 2.512034 1_555
La3 O23 2.532067 1_555
La3 O6 2.546046 1_655
La3 O13 2.633153 1_555
La3 O2 2.716260 1_555
La3 O2 2.743793 1_655
La3 O14 2.779958 1_555
La3 O5 2.859587 1_555
La3 O23 3.042711 1_554
La3 O10 3.051565 1_656
La3 O18 3.073265 1_556
Mn0 O15 1.886484 1_544
Mn0 O19 1.939428 1_544
Mn0 O21 1.945223 1_555
Mn0 O7 1.959331 1_645
Mn0 O8 1.968628 1_654
Mn0 O0 1.996094 1_655
Mn1 O20 1.929752 1_454
Mn1 O9 1.934672 1_554
Mn1 O1 1.965514 1_555
Mn1 O16 1.976699 1_454
Mn1 O4 1.984069 1_555
Mn1 O12 2.031821 1_454
Mn2 O5 1.929752 1_656
Mn2 O17 1.934672 1_556
Mn2 O13 1.965514 1_555
Mn2 O10 1.976699 1_656
Mn2 O23 1.984069 1_555
Mn2 O2 2.031821 1_656
Mn3 O3 1.886484 1_556
Mn3 O11 1.939428 1_556
Mn3 O6 1.945223 1_555
Mn3 O22 1.959331 1_455
Mn3 O18 1.968628 1_456
Mn3 O14 1.996094 1_455
Mn4 O16 1.931950 1_554
Mn4 O4 1.934959 1_555
Mn4 O12 1.955404 1_555
Mn4 O8 1.960799 1_554
Mn4 O21 1.967113 1_555
Mn4 O0 1.988108 1_554
Mn5 O20 1.954300 1_554
Mn5 O5 1.954300 1_555
Mn5 O9 1.967039 1_554
Mn5 O17 1.967039 1_555
Mn5 O1 2.009812 1_554
Mn5 O13 2.009812 1_555
Mn6 O10 1.931950 1_556
Mn6 O23 1.934959 1_555
Mn6 O2 1.955404 1_555
Mn6 O18 1.960799 1_556
Mn6 O6 1.967113 1_555
Mn6 O14 1.988108 1_556
Cu0 O11 1.968030 1_555
Cu0 O19 1.968030 1_554
Cu0 O22 1.977566 1_554
Cu0 O7 1.977567 1_555
Cu0 O3 2.110427 1_554
Cu0 O15 2.110427 1_555
O0 Sr3 2.724353 1_555
O0 Sr3 2.733731 1_455
O1 Sr2 2.721334 1_455
O1 Sr2 2.739279 1_555
O1 Sr0 2.777027 1_555
O2 Sr1 2.723250 1_555
O2 Sr0 2.761224 1_555
O3 Sr1 2.785718 1_555
O4 Sr3 2.592778 1_454
O4 Sr2 2.994036 1_555
O5 Sr0 2.612191 1_555
O5 Sr2 2.622691 1_454
O5 Sr0 2.944930 1_554
O6 Sr1 2.601816 1_556
O6 Sr1 2.980100 1_555
O7 Sr3 3.028234 1_565
O8 Sr3 2.595610 1_556
O8 Sr3 2.984158 1_455
O9 Sr2 2.626692 1_556
O9 Sr2 2.952205 1_455
O9 Sr0 3.014987 1_556
O10 Sr0 2.624341 1_554
O10 Sr1 2.961291 1_555
O11 Sr1 2.610929 1_554
O12 Sr3 2.723250 1_555
O12 Sr2 2.761224 1_555
O13 Sr0 2.721334 1_655
O13 Sr0 2.739279 1_555
O13 Sr2 2.777027 1_555
O14 Sr1 2.724353 1_555
O14 Sr1 2.733731 1_655
O15 Sr3 2.785718 1_565
O16 Sr2 2.624341 1_556
O16 Sr3 2.961291 1_555
O17 Sr0 2.626692 1_554
O17 Sr0 2.952205 1_655
O17 Sr2 3.014987 1_554
O18 Sr1 2.595610 1_554
O18 Sr1 2.984158 1_655
O19 Sr3 2.610929 1_566
O20 Sr2 2.612191 1_555
O20 Sr0 2.622691 1_656
O20 Sr2 2.944930 1_556
O21 Sr3 2.601816 1_554
O21 Sr3 2.980100 1_555
O22 Sr1 3.028233 1_555
O23 Sr1 2.592778 1_656
O23 Sr0 2.994036 1_555
