# generated using pymatgen
data_TeMo3Se7I6
_symmetry_space_group_name_H-M   'P 1'
_cell_length_a   13.27321100
_cell_length_b   11.22700700
_cell_length_c   18.55480148
_cell_angle_alpha   67.18525663
_cell_angle_beta   90.00000000
_cell_angle_gamma   90.00000000
_symmetry_Int_Tables_number   1
_chemical_formula_structural   TeMo3Se7I6
_chemical_formula_sum   'Te4 Mo12 Se28 I24'
_cell_volume   2548.68267187
_cell_formula_units_Z   4
loop_
 _symmetry_equiv_pos_site_id
 _symmetry_equiv_pos_as_xyz
  1  'x, y, z'
loop_
 _atom_site_type_symbol
 _atom_site_label
 _atom_site_symmetry_multiplicity
 _atom_site_fract_x
 _atom_site_fract_y
 _atom_site_fract_z
 _atom_site_occupancy
  Te  Te0  1  0.26904500  0.44904400  0.33626100  1
  Te  Te1  1  0.76904500  0.55095600  0.16373900  1
  Te  Te2  1  0.23095500  0.44904400  0.83626100  1
  Te  Te3  1  0.73095500  0.55095600  0.66373900  1
  Mo  Mo0  1  0.86139300  0.06972800  0.26879000  1
  Mo  Mo1  1  0.72033000  0.29460600  0.77394400  1
  Mo  Mo2  1  0.36139300  0.93027200  0.23121000  1
  Mo  Mo3  1  0.84723700  0.09691500  0.77610300  1
  Mo  Mo4  1  0.63860700  0.06972800  0.76879000  1
  Mo  Mo5  1  0.65276300  0.09691500  0.27610300  1
  Mo  Mo6  1  0.77967000  0.29460600  0.27394400  1
  Mo  Mo7  1  0.34723700  0.90308500  0.72389700  1
  Mo  Mo8  1  0.13860700  0.93027200  0.73121000  1
  Mo  Mo9  1  0.22033000  0.70539400  0.72605600  1
  Mo  Mo10  1  0.27967000  0.70539400  0.22605600  1
  Mo  Mo11  1  0.15276300  0.90308500  0.22389700  1
  Se  Se0  1  0.52859200  0.27578800  0.74735700  1
  Se  Se1  1  0.75887200  0.22794800  0.16061900  1
  Se  Se2  1  0.26541400  0.09766300  0.74826800  1
  Se  Se3  1  0.97140800  0.27578800  0.24735700  1
  Se  Se4  1  0.59276400  0.15486100  0.87481800  1
  Se  Se5  1  0.74865300  0.91096900  0.87675500  1
  Se  Se6  1  0.90723600  0.15486100  0.37481800  1
  Se  Se7  1  0.25887200  0.77205200  0.33938100  1
  Se  Se8  1  0.75134700  0.91096900  0.37675500  1
  Se  Se9  1  0.41726500  0.67729200  0.73468000  1
  Se  Se10  1  0.65508400  0.18408100  0.38599800  1
  Se  Se11  1  0.84491600  0.18408100  0.88599800  1
  Se  Se12  1  0.25134700  0.08903100  0.12324500  1
  Se  Se13  1  0.23458600  0.09766300  0.24826800  1
  Se  Se14  1  0.24112800  0.77205200  0.83938100  1
  Se  Se15  1  0.24865300  0.08903100  0.62324500  1
  Se  Se16  1  0.76541400  0.90233700  0.75173200  1
  Se  Se17  1  0.47140800  0.72421200  0.25264300  1
  Se  Se18  1  0.74112800  0.22794800  0.66061900  1
  Se  Se19  1  0.15508400  0.81591900  0.11400200  1
  Se  Se20  1  0.40723600  0.84513900  0.12518200  1
  Se  Se21  1  0.08273500  0.67729200  0.23468000  1
  Se  Se22  1  0.91726500  0.32270800  0.76532000  1
  Se  Se23  1  0.58273500  0.32270800  0.26532000  1
  Se  Se24  1  0.02859200  0.72421200  0.75264300  1
  Se  Se25  1  0.34491600  0.81591900  0.61400200  1
  Se  Se26  1  0.73458600  0.90233700  0.25173200  1
  Se  Se27  1  0.09276400  0.84513900  0.62518200  1
  I  I0  1  0.47554400  0.95054000  0.35799600  1
  I  I1  1  0.57400700  0.58502500  0.55718600  1
  I  I2  1  0.51443700  0.12106500  0.15386500  1
  I  I3  1  0.97554400  0.04946000  0.14200400  1
  I  I4  1  0.42599300  0.41497500  0.44281400  1
  I  I5  1  0.60775000  0.55850800  0.06109100  1
  I  I6  1  0.89225000  0.55850800  0.56109100  1
  I  I7  1  0.71736900  0.98564200  0.02205100  1
  I  I8  1  0.81408400  0.49097700  0.33710200  1
  I  I9  1  0.31408400  0.50902300  0.16289800  1
  I  I10  1  0.01443700  0.87893500  0.34613500  1
  I  I11  1  0.10775000  0.44149200  0.43890900  1
  I  I12  1  0.18591600  0.50902300  0.66289800  1
  I  I13  1  0.02445600  0.95054000  0.85799600  1
  I  I14  1  0.52445600  0.04946000  0.64200400  1
  I  I15  1  0.21736900  0.01435800  0.47794900  1
  I  I16  1  0.78263100  0.98564200  0.52205100  1
  I  I17  1  0.48556300  0.87893500  0.84613500  1
  I  I18  1  0.92599300  0.58502500  0.05718600  1
  I  I19  1  0.98556300  0.12106500  0.65386500  1
  I  I20  1  0.07400700  0.41497500  0.94281400  1
  I  I21  1  0.39225000  0.44149200  0.93890900  1
  I  I22  1  0.68591600  0.49097700  0.83710200  1
  I  I23  1  0.28263100  0.01435800  0.97794900  1
loop_
_geom_bond_atom_site_label_1
_geom_bond_atom_site_label_2
_geom_bond_distance
_geom_bond_site_symmetry_2
Mo0 Se1 2.504123 1_555
Mo0 Se8 2.560178 1_545
Mo0 Se6 2.571456 1_555
Mo0 Se26 2.631762 1_545
Mo0 Se3 2.632300 1_555
Mo1 Se18 2.505605 1_555
Mo1 Se4 2.560159 1_555
Mo1 Se11 2.568345 1_555
Mo1 Se0 2.616436 1_555
Mo1 Se22 2.630357 1_555
Mo1 Te3 2.814324 1_555
Mo2 Se7 2.504123 1_555
Mo2 Se12 2.560178 1_565
Mo2 Se20 2.571456 1_555
Mo2 Se13 2.631762 1_565
Mo2 Se17 2.632300 1_555
Mo3 Se18 2.508922 1_555
Mo3 Se5 2.556306 1_545
Mo3 Se11 2.581468 1_555
Mo3 Se16 2.631015 1_545
Mo3 Se22 2.633778 1_555
Mo4 Se18 2.504123 1_555
Mo4 Se5 2.560178 1_545
Mo4 Se4 2.571456 1_555
Mo4 Se16 2.631762 1_545
Mo4 Se0 2.632300 1_555
Mo5 Se1 2.508922 1_555
Mo5 Se8 2.556306 1_545
Mo5 Se10 2.581468 1_555
Mo5 Se26 2.631015 1_545
Mo5 Se23 2.633778 1_555
Mo6 Se1 2.505605 1_555
Mo6 Se6 2.560159 1_555
Mo6 Se10 2.568345 1_555
Mo6 Se3 2.616436 1_555
Mo6 Se23 2.630357 1_555
Mo6 Te1 2.814324 1_555
Mo7 Se14 2.508922 1_555
Mo7 Se15 2.556306 1_565
Mo7 Se25 2.581468 1_555
Mo7 Se2 2.631015 1_565
Mo7 Se9 2.633778 1_555
Mo8 Se14 2.504123 1_555
Mo8 Se15 2.560178 1_565
Mo8 Se27 2.571456 1_555
Mo8 Se2 2.631762 1_565
Mo8 Se24 2.632300 1_555
Mo9 Se14 2.505605 1_555
Mo9 Se27 2.560159 1_555
Mo9 Se25 2.568345 1_555
Mo9 Se24 2.616436 1_555
Mo9 Se9 2.630357 1_555
Mo9 Te2 2.814324 1_555
Mo10 Se7 2.505605 1_555
Mo10 Se20 2.560159 1_555
Mo10 Se19 2.568345 1_555
Mo10 Se17 2.616436 1_555
Mo10 Se21 2.630357 1_555
Mo10 Te0 2.814324 1_555
Mo11 Se7 2.508922 1_555
Mo11 Se12 2.556306 1_565
Mo11 Se19 2.581468 1_555
Mo11 Se13 2.631015 1_565
Mo11 Se21 2.633778 1_555
Se0 Se4 2.381590 1_555
Se3 Se6 2.381590 1_555
Se10 Se23 2.378168 1_555
Se11 Se22 2.378168 1_555
Se12 Se13 2.369514 1_555
Se15 Se2 2.369514 1_555
Se16 Se5 2.369514 1_555
Se17 Se20 2.381590 1_555
Se19 Se21 2.378168 1_555
Se24 Se27 2.381590 1_555
Se25 Se9 2.378168 1_555
Se26 Se8 2.369514 1_555
I0 Mo2 2.880416 1_555
I0 Mo5 2.933626 1_565
I1 Te3 2.794351 1_555
I2 Mo5 2.848140 1_555
I2 Mo2 2.896626 1_545
I3 Mo0 2.880416 1_555
I3 Mo11 2.933626 1_645
I4 Te0 2.794351 1_555
I5 Te1 2.844815 1_555
I6 Te3 2.844815 1_555
I7 Se4 3.127773 1_564
I7 Se11 3.137001 1_564
I7 Se5 3.145808 1_554
I8 Mo6 2.906215 1_555
I8 Te1 3.078681 1_555
I9 Mo10 2.906215 1_555
I9 Te0 3.078681 1_555
I10 Mo11 2.848140 1_555
I10 Mo0 2.896626 1_465
I11 Te0 2.844815 1_555
I12 Mo9 2.906215 1_555
I12 Te2 3.078681 1_555
I13 Mo8 2.880416 1_555
I13 Mo3 2.933626 1_465
I14 Mo4 2.880416 1_555
I14 Mo7 2.933626 1_545
I15 Se27 3.127773 1_545
I15 Se25 3.137001 1_545
I15 Se15 3.145808 1_555
I16 Se6 3.127773 1_565
I16 Se10 3.137001 1_565
I16 Se8 3.145808 1_555
I17 Mo7 2.848140 1_555
I17 Mo4 2.896626 1_565
I18 Te1 2.794351 1_555
I19 Mo3 2.848140 1_555
I19 Mo8 2.896626 1_645
I20 Te2 2.794351 1_555
I21 Te2 2.844815 1_555
I22 Mo1 2.906215 1_555
I22 Te3 3.078681 1_555
I23 Se20 3.127773 1_546
I23 Se19 3.137001 1_546
I23 Se12 3.145808 1_556
