# generated using pymatgen
data_PbCl2
_symmetry_space_group_name_H-M   'P 1'
_cell_length_a   4.24402000
_cell_length_b   10.06897700
_cell_length_c   15.62558041
_cell_angle_alpha   89.82082183
_cell_angle_beta   90.00000000
_cell_angle_gamma   90.00000000
_symmetry_Int_Tables_number   1
_chemical_formula_structural   PbCl2
_chemical_formula_sum   'Pb8 Cl16'
_cell_volume   667.72372127
_cell_formula_units_Z   8
loop_
 _symmetry_equiv_pos_site_id
 _symmetry_equiv_pos_as_xyz
  1  'x, y, z'
loop_
 _atom_site_type_symbol
 _atom_site_label
 _atom_site_symmetry_multiplicity
 _atom_site_fract_x
 _atom_site_fract_y
 _atom_site_fract_z
 _atom_site_occupancy
  Pb  Pb0  1  0.78172900  0.65484100  0.15558500  1
  Pb  Pb1  1  0.25367500  0.15393100  0.59474100  1
  Pb  Pb2  1  0.21827100  0.34515900  0.84441500  1
  Pb  Pb3  1  0.28172900  0.34515900  0.34441500  1
  Pb  Pb4  1  0.75367500  0.84606900  0.90525900  1
  Pb  Pb5  1  0.24632500  0.15393100  0.09474100  1
  Pb  Pb6  1  0.71827100  0.65484100  0.65558500  1
  Pb  Pb7  1  0.74632500  0.84606900  0.40525900  1
  Cl  Cl0  1  0.75681100  0.30603100  0.00240000  1
  Cl  Cl1  1  0.74723700  0.19220300  0.75190300  1
  Cl  Cl2  1  0.74318900  0.30603100  0.50240000  1
  Cl  Cl3  1  0.75276300  0.19220300  0.25190300  1
  Cl  Cl4  1  0.24723700  0.80779700  0.74809700  1
  Cl  Cl5  1  0.25024500  0.05270800  0.91677800  1
  Cl  Cl6  1  0.75024500  0.94729200  0.58322200  1
  Cl  Cl7  1  0.76375500  0.55236200  0.33346200  1
  Cl  Cl8  1  0.23624500  0.44763800  0.66653800  1
  Cl  Cl9  1  0.24975500  0.05270800  0.41677800  1
  Cl  Cl10  1  0.73624500  0.55236200  0.83346200  1
  Cl  Cl11  1  0.74975500  0.94729200  0.08322200  1
  Cl  Cl12  1  0.25681100  0.69396900  0.49760000  1
  Cl  Cl13  1  0.24318900  0.69396900  0.99760000  1
  Cl  Cl14  1  0.25276300  0.80779700  0.24809700  1
  Cl  Cl15  1  0.26375500  0.44763800  0.16653800  1
loop_
_geom_bond_atom_site_label_1
_geom_bond_atom_site_label_2
_geom_bond_distance
_geom_bond_site_symmetry_2
Cl0 Pb5 2.954588 1_655
Cl0 Pb5 3.017835 1_555
Cl0 Pb2 3.174692 1_654
Cl1 Pb2 2.910636 1_655
Cl1 Pb2 3.084681 1_555
Cl2 Pb1 2.954588 1_555
Cl2 Pb1 3.017835 1_655
Cl2 Pb3 3.174692 1_555
Cl3 Pb3 2.910636 1_555
Cl3 Pb3 3.084681 1_655
Cl4 Pb6 2.910636 1_555
Cl4 Pb6 3.084681 1_455
Cl5 Pb5 2.964710 1_556
Cl5 Pb4 2.967351 1_445
Cl5 Pb4 2.988099 1_545
Cl5 Pb2 3.153927 1_555
Cl6 Pb7 2.964710 1_555
Cl6 Pb1 2.967351 1_565
Cl6 Pb1 2.988099 1_665
Cl6 Pb6 3.153927 1_555
Cl7 Pb3 2.926568 1_555
Cl7 Pb0 2.962744 1_555
Cl7 Pb3 3.035175 1_655
Cl7 Pb7 3.167114 1_555
Cl8 Pb6 2.926568 1_555
Cl8 Pb2 2.962744 1_555
Cl8 Pb6 3.035175 1_455
Cl8 Pb1 3.167114 1_555
Cl9 Pb1 2.964710 1_555
Cl9 Pb7 2.967351 1_545
Cl9 Pb7 2.988099 1_445
Cl9 Pb3 3.153927 1_555
Cl10 Pb2 2.926568 1_655
Cl10 Pb6 2.962744 1_555
Cl10 Pb2 3.035175 1_555
Cl10 Pb4 3.167114 1_555
Cl11 Pb4 2.964710 1_554
Cl11 Pb5 2.967351 1_665
Cl11 Pb5 2.988099 1_565
Cl11 Pb0 3.153927 1_555
Cl12 Pb7 2.954588 1_555
Cl12 Pb7 3.017835 1_455
Cl12 Pb6 3.174692 1_555
Cl13 Pb4 2.954588 1_455
Cl13 Pb4 3.017835 1_555
Cl13 Pb0 3.174692 1_456
Cl14 Pb0 2.910636 1_455
Cl14 Pb0 3.084681 1_555
Cl15 Pb0 2.926568 1_455
Cl15 Pb3 2.962744 1_555
Cl15 Pb0 3.035175 1_555
Cl15 Pb5 3.167114 1_555
