# generated using pymatgen
data_VPO5
_symmetry_space_group_name_H-M   'P 1'
_cell_length_a   5.01671132
_cell_length_b   10.40957489
_cell_length_c   7.32995625
_cell_angle_alpha   66.21020921
_cell_angle_beta   69.96091705
_cell_angle_gamma   76.08526151
_symmetry_Int_Tables_number   1
_chemical_formula_structural   VPO5
_chemical_formula_sum   'V4 P4 O20'
_cell_volume   326.71795940
_cell_formula_units_Z   4
loop_
 _symmetry_equiv_pos_site_id
 _symmetry_equiv_pos_as_xyz
  1  'x, y, z'
loop_
 _atom_site_type_symbol
 _atom_site_label
 _atom_site_symmetry_multiplicity
 _atom_site_fract_x
 _atom_site_fract_y
 _atom_site_fract_z
 _atom_site_occupancy
  V  V0  1  -0.01257448  0.52610855  0.01014055  1
  V  V1  1  0.00709585  0.75993020  0.27372347  1
  V  V2  1  0.46050208  0.25987049  0.77359622  1
  V  V3  1  0.97739022  0.02629672  0.50967209  1
  P  P0  1  0.61704784  0.05553549  0.18636722  1
  P  P1  1  0.35817657  0.44130176  0.31211732  1
  P  P2  1  0.38874372  0.94126151  0.81193095  1
  P  P3  1  0.64272204  0.55542331  0.68697348  1
  O  O0  1  0.29306109  0.06647092  0.27474011  1
  O  O1  1  0.16486209  0.40773628  0.21767502  1
  O  O2  1  0.07920031  0.82408089  0.41368568  1
  O  O3  1  0.29583218  0.82727589  0.02214130  1
  O  O4  1  0.25125420  0.58643997  0.33303271  1
  O  O5  1  0.33013130  0.08635150  0.83296908  1
  O  O6  1  0.35577156  0.32744198  0.52223679  1
  O  O7  1  0.18452788  0.32372913  0.91417493  1
  O  O8  1  0.74915111  0.08391862  0.32247625  1
  O  O9  1  0.23425997  0.93618920  0.66795021  1
  O  O10  1  0.66139508  0.43624622  0.16729474  1
  O  O11  1  0.34644934  0.58338885  0.82399111  1
  O  O12  1  0.87173550  0.16531692  0.57071777  1
  O  O13  1  0.68044597  0.16474209  0.96651582  1
  O  O14  1  0.68052034  0.40885170  0.66926322  1
  O  O15  1  0.74277108  0.90877008  0.16927026  1
  O  O16  1  0.68916142  0.66491967  0.46733754  1
  O  O17  1  0.89277034  0.66518732  0.07105172  1
  O  O18  1  0.70982792  0.90791606  0.71639620  1
  O  O19  1  0.86839250  0.56630669  0.77449621  1
loop_
_geom_bond_atom_site_label_1
_geom_bond_atom_site_label_2
_geom_bond_distance
_geom_bond_site_symmetry_2
O0 P0 1.524231 1_555
O0 V3 1.875313 1_455
O1 P1 1.536237 1_555
O1 V0 1.874306 1_555
O2 V1 1.597652 1_555
O2 V3 2.370296 1_465
O3 P2 1.515958 1_554
O3 V1 1.898709 1_555
O4 P1 1.527928 1_555
O4 V1 1.902214 1_555
O5 P2 1.527925 1_545
O5 V2 1.902276 1_555
O6 P1 1.516069 1_555
O6 V2 1.898835 1_555
O7 V2 1.597734 1_555
O7 V0 2.372265 1_556
O8 P0 1.518866 1_555
O8 V3 1.906828 1_555
O9 P2 1.530489 1_555
O9 V3 1.857879 1_465
O10 P1 1.530848 1_555
O10 V0 1.858084 1_655
O11 P3 1.518986 1_555
O11 V0 1.907159 1_556
O12 V3 1.601981 1_555
O12 V2 2.353308 1_555
O13 P0 1.528098 1_556
O13 V2 1.900478 1_555
O14 P3 1.544179 1_555
O14 V2 1.869811 1_555
O15 P0 1.544159 1_565
O15 V1 1.869688 1_655
O16 P3 1.528250 1_555
O16 V1 1.900331 1_655
O17 V0 1.601984 1_655
O17 V1 2.355103 1_655
O18 P2 1.536116 1_555
O18 V3 1.873909 1_565
O19 P3 1.524527 1_555
O19 V0 1.875824 1_656
