# generated using pymatgen
data_Nb2NiO6
_symmetry_space_group_name_H-M   'P 1'
_cell_length_a   5.64998711
_cell_length_b   5.64998711
_cell_length_c   6.77605369
_cell_angle_alpha   88.35719593
_cell_angle_beta   88.35719593
_cell_angle_gamma   71.38183627
_symmetry_Int_Tables_number   1
_chemical_formula_structural   Nb2NiO6
_chemical_formula_sum   'Nb4 Ni2 O12'
_cell_volume   204.85987121
_cell_formula_units_Z   2
loop_
 _symmetry_equiv_pos_site_id
 _symmetry_equiv_pos_as_xyz
  1  'x, y, z'
loop_
 _atom_site_type_symbol
 _atom_site_label
 _atom_site_symmetry_multiplicity
 _atom_site_fract_x
 _atom_site_fract_y
 _atom_site_fract_z
 _atom_site_occupancy
  Nb  Nb0  1  0.00000000  0.00000000  0.50000000  1
  Nb  Nb1  1  0.00000000  0.00000000  0.00000000  1
  Nb  Nb2  1  0.38763100  0.38763100  0.28372300  1
  Nb  Nb3  1  0.61236900  0.61236900  0.71627700  1
  Ni  Ni0  1  0.24356000  0.24356000  0.65921300  1
  Ni  Ni1  1  0.75644000  0.75644000  0.34078700  1
  O  O0  1  0.83883000  0.83883000  0.73237900  1
  O  O1  1  0.68585800  0.31414200  0.50000000  1
  O  O2  1  0.31414200  0.68585800  0.50000000  1
  O  O3  1  0.16117000  0.16117000  0.26762100  1
  O  O4  1  0.40876800  0.40876800  0.82843400  1
  O  O5  1  0.71283200  0.09301400  0.19220600  1
  O  O6  1  0.09301400  0.71283200  0.19220600  1
  O  O7  1  0.67775600  0.67775600  0.99818200  1
  O  O8  1  0.32224400  0.32224400  0.00181800  1
  O  O9  1  0.28716800  0.90698600  0.80779400  1
  O  O10  1  0.90698600  0.28716800  0.80779400  1
  O  O11  1  0.59123200  0.59123200  0.17156600  1
loop_
_geom_bond_atom_site_label_1
_geom_bond_atom_site_label_2
_geom_bond_distance
_geom_bond_site_symmetry_2
Nb0 O2 2.070996 1_545
Nb0 O1 2.070996 1_455
Nb0 O3 2.121994 1_555
Nb0 O0 2.121994 1_445
Nb1 O9 1.994631 1_544
Nb1 O6 1.994631 1_545
Nb1 O10 1.994631 1_454
Nb1 O5 1.994631 1_455
Nb1 O3 2.380276 1_555
Nb1 O0 2.380276 1_444
Nb2 O11 1.992196 1_555
Nb2 O8 2.022354 1_555
Nb2 O3 2.085066 1_555
Nb2 O5 2.138298 1_555
Nb2 O6 2.138298 1_555
Nb2 O1 2.195274 1_555
Nb2 O2 2.195274 1_555
Nb3 O4 1.992196 1_555
Nb3 O7 2.022354 1_555
Nb3 O0 2.085066 1_555
Nb3 O10 2.138298 1_555
Nb3 O9 2.138298 1_555
Nb3 O1 2.195274 1_555
Nb3 O2 2.195274 1_555
Ni0 O4 1.932985 1_555
Ni0 O10 2.072643 1_455
Ni0 O9 2.072643 1_545
Ni1 O11 1.932985 1_555
Ni1 O5 2.072643 1_565
Ni1 O6 2.072643 1_655
O4 O8 1.394631 1_556
O11 O7 1.394631 1_554
