# generated using pymatgen
data_Eu(ErS2)2
_symmetry_space_group_name_H-M   'P 1'
_cell_length_a   7.27790159
_cell_length_b   7.27790159
_cell_length_c   7.27790159
_cell_angle_alpha   109.30173250
_cell_angle_beta   109.30173250
_cell_angle_gamma   109.81073129
_symmetry_Int_Tables_number   1
_chemical_formula_structural   Eu(ErS2)2
_chemical_formula_sum   'Eu2 Er4 S8'
_cell_volume   296.74622372
_cell_formula_units_Z   2
loop_
 _symmetry_equiv_pos_site_id
 _symmetry_equiv_pos_as_xyz
  1  'x, y, z'
loop_
 _atom_site_type_symbol
 _atom_site_label
 _atom_site_symmetry_multiplicity
 _atom_site_fract_x
 _atom_site_fract_y
 _atom_site_fract_z
 _atom_site_occupancy
  Eu  Eu0  1  0.75000000  0.25000000  0.50000000  1
  Eu  Eu1  1  0.50000000  0.50000000  0.00000000  1
  Er  Er0  1  0.00203600  0.37500000  0.12703600  1
  Er  Er1  1  0.24796400  0.87500000  0.87296400  1
  Er  Er2  1  0.62500000  0.75203600  0.62703600  1
  Er  Er3  1  0.12500000  0.99796400  0.37296400  1
  S  S0  1  0.88907600  0.63666000  0.40248900  1
  S  S1  1  0.36092400  0.26341300  0.24758500  1
  S  S2  1  0.23417200  0.48658700  0.59751100  1
  S  S3  1  0.88666000  0.63907600  0.90248900  1
  S  S4  1  0.36334000  0.76582800  0.25241500  1
  S  S5  1  0.51341300  0.11092400  0.74758500  1
  S  S6  1  0.73658700  0.98417200  0.09751100  1
  S  S7  1  0.01582800  0.11334000  0.75241500  1
loop_
_geom_bond_atom_site_label_1
_geom_bond_atom_site_label_2
_geom_bond_distance
_geom_bond_site_symmetry_2
Eu0 S7 2.875683 1_655
Eu0 S6 2.875689 1_545
Eu0 S1 2.875689 1_555
Eu0 S3 2.875691 1_555
Eu0 S0 3.051488 1_555
Eu0 S4 3.051492 1_545
Eu0 S5 3.051494 1_555
Eu0 S2 3.051494 1_655
Eu1 S4 2.875683 1_555
Eu1 S2 2.875689 1_554
Eu1 S5 2.875689 1_554
Eu1 S0 2.875691 1_555
Eu1 S3 3.051488 1_554
Eu1 S7 3.051492 1_554
Eu1 S6 3.051494 1_555
Eu1 S1 3.051494 1_555
Er0 S6 2.732371 1_445
Er0 S4 2.732375 1_555
Er0 S0 2.819254 1_455
Er0 S7 2.819255 1_554
Er0 S1 2.940320 1_555
Er0 S2 2.940320 1_555
Er0 S5 3.054939 1_454
Er0 S3 3.054942 1_454
Er1 S5 2.732371 1_565
Er1 S3 2.732377 1_455
Er1 S2 2.819258 1_555
Er1 S1 2.819258 1_566
Er1 S0 2.940319 1_455
Er1 S7 2.940326 1_565
Er1 S6 3.054939 1_556
Er1 S4 3.054940 1_556
Er2 S2 2.732371 1_555
Er2 S7 2.732375 1_665
Er2 S3 2.819254 1_555
Er2 S4 2.819255 1_555
Er2 S6 2.940320 1_556
Er2 S5 2.940320 1_565
Er2 S1 3.054939 1_555
Er2 S0 3.054942 1_555
Er3 S1 2.732371 1_565
Er3 S0 2.732377 1_455
Er3 S6 2.819258 1_455
Er3 S5 2.819258 1_565
Er3 S3 2.940319 1_454
Er3 S4 2.940326 1_555
Er3 S2 3.054939 1_565
Er3 S7 3.054940 1_565
