# generated using pymatgen
data_K11(In2Bi3)3
_symmetry_space_group_name_H-M   'P 1'
_cell_length_a   12.20046549
_cell_length_b   13.39258931
_cell_length_c   13.79962027
_cell_angle_alpha   76.49217411
_cell_angle_beta   63.55822156
_cell_angle_gamma   76.11129244
_symmetry_Int_Tables_number   1
_chemical_formula_structural   K11(In2Bi3)3
_chemical_formula_sum   'K22 In12 Bi18'
_cell_volume   1938.96346604
_cell_formula_units_Z   2
loop_
 _symmetry_equiv_pos_site_id
 _symmetry_equiv_pos_as_xyz
  1  'x, y, z'
loop_
 _atom_site_type_symbol
 _atom_site_label
 _atom_site_symmetry_multiplicity
 _atom_site_fract_x
 _atom_site_fract_y
 _atom_site_fract_z
 _atom_site_occupancy
  K  K0  1  0.45199990  0.25885905  0.70424778  1
  K  K1  1  0.54800010  0.74114095  0.29575222  1
  K  K2  1  0.69889860  0.68928128  0.51141553  1
  K  K3  1  0.20492783  0.45605216  0.19490705  1
  K  K4  1  0.79507217  0.54394784  0.80509295  1
  K  K5  1  0.94987553  0.01214616  0.36958010  1
  K  K6  1  0.94882535  0.28046351  0.21530095  1
  K  K7  1  0.96010138  0.25097533  0.71452194  1
  K  K8  1  0.61668868  0.98540297  0.06896890  1
  K  K9  1  0.38331132  0.01459703  0.93103110  1
  K  K10  1  0.59560117  0.97884721  0.59383237  1
  K  K11  1  0.30110140  0.31071872  0.48858447  1
  K  K12  1  0.37646332  0.54474491  0.80742269  1
  K  K13  1  0.40773453  0.72201084  0.06923970  1
  K  K14  1  0.05012447  0.98785384  0.63041990  1
  K  K15  1  0.62353668  0.45525509  0.19257731  1
  K  K16  1  0.05117465  0.71953649  0.78469905  1
  K  K17  1  0.40439883  0.02115279  0.40616763  1
  K  K18  1  0.00000000  0.50000000  0.00000000  1
  K  K19  1  0.59226547  0.27798916  0.93076030  1
  K  K20  1  0.03989862  0.74902467  0.28547806  1
  K  K21  1  0.00000000  -0.00000000  0.00000000  1
  In  In0  1  0.70559216  0.15070809  0.19960113  1
  In  In1  1  0.12750700  0.24256926  0.88412740  1
  In  In2  1  0.29440784  0.84929191  0.80039887  1
  In  In3  1  0.62853734  0.44774079  0.45992388  1
  In  In4  1  0.20353721  0.79394645  0.45239758  1
  In  In5  1  0.79646279  0.20605355  0.54760242  1
  In  In6  1  0.06108412  0.55455248  0.53637860  1
  In  In7  1  0.27126000  0.15626464  0.20089827  1
  In  In8  1  0.72874000  0.84373536  0.79910173  1
  In  In9  1  0.37146266  0.55225921  0.54007612  1
  In  In10  1  0.87249300  0.75743074  0.11587260  1
  In  In11  1  0.93891588  0.44544752  0.46362140  1
  Bi  Bi0  1  0.64290063  0.22788798  0.41882257  1
  Bi  Bi1  1  0.14893304  0.71692071  0.00506063  1
  Bi  Bi2  1  0.45480328  0.25728283  0.21587272  1
  Bi  Bi3  1  0.28201056  0.93041686  0.23235618  1
  Bi  Bi4  1  0.69779878  0.40290279  0.65220070  1
  Bi  Bi5  1  0.26870201  0.28787314  0.99341707  1
  Bi  Bi6  1  0.30220122  0.59709721  0.34779930  1
  Bi  Bi7  1  0.35709937  0.77211202  0.58117743  1
  Bi  Bi8  1  0.07112028  0.22492122  0.42427914  1
  Bi  Bi9  1  0.14910331  0.45397178  0.72127180  1
  Bi  Bi10  1  0.71798944  0.06958314  0.76764382  1
  Bi  Bi11  1  0.85089669  0.54602822  0.27872820  1
  Bi  Bi12  1  0.92887972  0.77507878  0.57572086  1
  Bi  Bi13  1  0.75532168  0.92259457  0.27255306  1
  Bi  Bi14  1  0.54519672  0.74271717  0.78412728  1
  Bi  Bi15  1  0.24467832  0.07740543  0.72744694  1
  Bi  Bi16  1  0.85106696  0.28307929  0.99493937  1
  Bi  Bi17  1  0.73129799  0.71212686  0.00658293  1
loop_
_geom_bond_atom_site_label_1
_geom_bond_atom_site_label_2
_geom_bond_distance
_geom_bond_site_symmetry_2
K0 K9 3.923710 1_555
K0 K11 4.003602 1_555
K0 K10 4.073331 1_545
K0 K12 4.149687 1_555
K0 K19 4.255960 1_555
K1 K8 3.923710 1_555
K1 K2 4.003602 1_555
K1 K17 4.073331 1_565
K1 K15 4.149687 1_555
K1 K13 4.255960 1_555
K2 K20 4.068223 1_655
K3 K6 4.219863 1_455
K4 K7 4.155520 1_555
K5 K6 3.724781 1_555
K8 K9 3.978440 1_564
K10 K2 4.044575 1_555
K10 K17 4.065645 1_565
K10 K5 4.101985 1_565
K10 K9 4.278101 1_565
K11 K17 4.044575 1_555
K11 K7 4.068223 1_455
K12 K16 4.199277 1_555
K12 K18 4.268998 1_556
K12 K19 4.384829 1_555
K13 K9 3.941466 1_564
K13 K20 4.119946 1_555
K13 K15 4.384829 1_555
K13 K3 4.397806 1_555
K14 K16 3.724781 1_555
K14 K7 3.726694 1_465
K14 K17 4.101985 1_565
K14 K5 4.211978 1_465
K15 K6 4.199277 1_555
K15 K18 4.268998 1_655
K16 K18 3.606948 1_556
K16 K4 4.219863 1_455
K17 K8 4.278101 1_545
K18 K6 3.606948 1_455
K18 K3 4.286552 1_555
K18 K4 4.286552 1_454
K19 K8 3.941466 1_546
K19 K7 4.119946 1_555
K19 K4 4.397806 1_555
K20 K5 3.726694 1_465
K20 K3 4.155520 1_555
K21 K9 4.382067 1_554
K21 K8 4.382067 1_445
In0 K8 3.753109 1_545
In0 K21 3.855922 1_655
In0 K6 3.885524 1_555
In0 K15 3.948251 1_555
In0 K17 4.007643 1_555
In1 K0 3.645878 1_555
In1 K21 3.648921 1_556
In1 K7 3.699433 1_455
In1 K18 3.827333 1_556
In1 K9 3.972679 1_555
In1 K6 4.192285 1_456
In2 K9 3.753109 1_565
In2 K21 3.855922 1_566
In2 K16 3.885524 1_555
In2 K12 3.948251 1_555
In2 K10 4.007643 1_555
In3 In9 2.923363 1_555
In3 K15 3.694416 1_555
In3 K0 3.817019 1_555
In3 K2 3.828348 1_555
In3 K1 4.184301 1_555
In4 K14 3.582491 1_555
In4 K1 3.745878 1_555
In4 K20 3.869509 1_555
In4 K16 4.079177 1_555
In4 K5 4.083069 1_465
In4 K17 4.117314 1_565
In5 K5 3.582491 1_555
In5 K0 3.745878 1_555
In5 K7 3.869509 1_555
In5 K6 4.079177 1_555
In5 K14 4.083069 1_645
In5 K10 4.117314 1_545
In6 K4 3.682539 1_455
In6 K11 3.790693 1_555
In6 K20 3.885754 1_555
In7 K17 3.772114 1_555
In7 K6 3.820767 1_455
In7 K3 3.889229 1_555
In7 K8 4.098199 1_545
In7 K9 4.105955 1_554
In8 K10 3.772114 1_555
In8 K16 3.820767 1_655
In8 K4 3.889229 1_555
In8 K9 4.098199 1_565
In8 K8 4.105955 1_556
In9 K12 3.694416 1_555
In9 K1 3.817019 1_555
In9 K11 3.828348 1_555
In9 K0 4.184301 1_555
In10 K1 3.645878 1_555
In10 K21 3.648921 1_665
In10 K20 3.699433 1_655
In10 K18 3.827333 1_655
In10 K8 3.972679 1_555
In10 K16 4.192285 1_654
In11 In6 2.903179 1_655
In11 K3 3.682539 1_655
In11 K2 3.790693 1_555
In11 K7 3.885754 1_555
Bi0 In5 3.035314 1_555
Bi0 In3 3.076658 1_555
Bi0 In0 3.134591 1_555
Bi0 K10 3.634515 1_545
Bi0 K0 3.638687 1_555
Bi0 K6 3.649229 1_555
Bi0 K11 3.774920 1_555
Bi0 K15 3.865988 1_555
Bi0 K5 4.036403 1_555
Bi1 In10 2.987278 1_455
Bi1 In2 2.996122 1_554
Bi1 K20 3.584265 1_555
Bi1 K13 3.657976 1_555
Bi1 K12 3.685621 1_554
Bi1 K16 3.719013 1_554
Bi1 K21 3.789685 1_565
Bi1 K18 3.806353 1_555
Bi1 K3 3.963378 1_555
Bi2 In7 2.980715 1_555
Bi2 In0 2.981767 1_555
Bi2 K19 3.493788 1_554
Bi2 K11 3.538391 1_555
Bi2 K17 3.590367 1_555
Bi2 K3 3.604687 1_555
Bi2 K15 3.606075 1_555
Bi2 K8 4.206983 1_545
Bi3 In7 2.932787 1_565
Bi3 In4 3.022540 1_555
Bi3 K13 3.607568 1_555
Bi3 K5 3.634486 1_465
Bi3 K9 3.740458 1_564
Bi3 K8 3.842857 1_555
Bi3 K17 3.857661 1_565
Bi3 K1 3.907113 1_555
Bi3 K20 3.981071 1_555
Bi4 In11 3.007473 1_555
Bi4 In3 3.020557 1_555
Bi4 In5 3.031409 1_555
Bi4 K19 3.585390 1_555
Bi4 K0 3.666383 1_555
Bi4 K7 3.691694 1_555
Bi4 K12 3.796514 1_555
Bi4 K4 3.820482 1_555
Bi4 K2 3.873639 1_555
Bi5 In1 2.975423 1_555
Bi5 In7 3.000166 1_556
Bi5 K19 3.621007 1_555
Bi5 K0 3.665436 1_555
Bi5 K3 3.683367 1_556
Bi5 K6 3.744032 1_456
Bi5 K9 3.746210 1_555
Bi5 K18 3.769687 1_556
Bi5 K12 3.897731 1_555
Bi6 In6 3.007473 1_555
Bi6 In9 3.020557 1_555
Bi6 In4 3.031409 1_555
Bi6 K13 3.585390 1_555
Bi6 K1 3.666383 1_555
Bi6 K20 3.691694 1_555
Bi6 K15 3.796514 1_555
Bi6 K3 3.820482 1_555
Bi6 K11 3.873639 1_555
Bi7 In4 3.035314 1_555
Bi7 In9 3.076658 1_555
Bi7 In2 3.134591 1_555
Bi7 K17 3.634515 1_565
Bi7 K1 3.638687 1_555
Bi7 K16 3.649229 1_555
Bi7 K2 3.774920 1_555
Bi7 K12 3.865988 1_555
Bi7 K14 4.036403 1_555
Bi8 In11 3.049803 1_455
Bi8 In5 3.052181 1_455
Bi8 In7 3.138939 1_555
Bi8 K6 3.659647 1_455
Bi8 K7 3.686856 1_455
Bi8 K14 3.709489 1_545
Bi8 K11 3.771248 1_555
Bi8 K5 3.860188 1_455
Bi8 K3 3.938607 1_555
Bi8 K17 4.257920 1_555
Bi9 In9 3.079005 1_555
Bi9 In6 3.101250 1_555
Bi9 In1 3.161363 1_555
Bi9 K18 3.580715 1_556
Bi9 K11 3.646510 1_555
Bi9 K16 3.650469 1_555
Bi9 K4 3.892260 1_455
Bi9 K0 3.926530 1_555
Bi9 K12 3.977025 1_555
Bi9 K7 4.004509 1_455
Bi10 In8 2.932787 1_545
Bi10 In5 3.022540 1_555
Bi10 K19 3.607568 1_555
Bi10 K14 3.634486 1_645
Bi10 K8 3.740458 1_546
Bi10 K9 3.842857 1_555
Bi10 K10 3.857661 1_545
Bi10 K0 3.907113 1_555
Bi10 K7 3.981071 1_555
Bi11 In3 3.079005 1_555
Bi11 In11 3.101250 1_555
Bi11 In10 3.161363 1_555
Bi11 K18 3.580715 1_655
Bi11 K2 3.646510 1_555
Bi11 K6 3.650469 1_555
Bi11 K3 3.892260 1_655
Bi11 K1 3.926530 1_555
Bi11 K15 3.977025 1_555
Bi11 K20 4.004509 1_655
Bi12 In6 3.049803 1_655
Bi12 In4 3.052181 1_655
Bi12 In8 3.138939 1_555
Bi12 K16 3.659647 1_655
Bi12 K20 3.686856 1_655
Bi12 K5 3.709489 1_565
Bi12 K2 3.771248 1_555
Bi12 K14 3.860188 1_655
Bi12 K4 3.938607 1_555
Bi12 K10 4.257920 1_555
Bi13 In0 2.988670 1_565
Bi13 In10 3.094307 1_555
Bi13 K21 3.714458 1_665
Bi13 K5 3.716527 1_565
Bi13 K8 3.729049 1_555
Bi13 K20 3.738072 1_655
Bi13 K1 3.777874 1_555
Bi13 K17 3.855655 1_565
Bi13 K2 3.911877 1_555
Bi13 K10 4.145181 1_555
Bi14 In8 2.980715 1_555
Bi14 In2 2.981767 1_555
Bi14 K13 3.493788 1_556
Bi14 K2 3.538391 1_555
Bi14 K10 3.590367 1_555
Bi14 K4 3.604687 1_555
Bi14 K12 3.606075 1_555
Bi14 K9 4.206983 1_565
Bi15 In2 2.988670 1_545
Bi15 In1 3.094307 1_555
Bi15 K21 3.714458 1_556
Bi15 K14 3.716527 1_545
Bi15 K9 3.729049 1_555
Bi15 K7 3.738072 1_455
Bi15 K0 3.777874 1_555
Bi15 K10 3.855655 1_545
Bi15 K11 3.911877 1_555
Bi15 K17 4.145181 1_555
Bi16 In1 2.987278 1_655
Bi16 In0 2.996122 1_556
Bi16 K7 3.584265 1_555
Bi16 K19 3.657976 1_555
Bi16 K15 3.685621 1_556
Bi16 K6 3.719013 1_556
Bi16 K21 3.789685 1_656
Bi16 K18 3.806353 1_656
Bi16 K4 3.963378 1_555
Bi17 In10 2.975423 1_555
Bi17 In8 3.000166 1_554
Bi17 K13 3.621007 1_555
Bi17 K1 3.665436 1_555
Bi17 K4 3.683367 1_554
Bi17 K16 3.744032 1_654
Bi17 K8 3.746210 1_555
Bi17 K18 3.769687 1_655
Bi17 K15 3.897731 1_555
