# generated using pymatgen
data_Li7Mn10O24
_symmetry_space_group_name_H-M   'P 1'
_cell_length_a   5.83612586
_cell_length_b   5.83612586
_cell_length_c   13.04297448
_cell_angle_alpha   77.26962095
_cell_angle_beta   77.26962095
_cell_angle_gamma   89.91353076
_symmetry_Int_Tables_number   1
_chemical_formula_structural   Li7Mn10O24
_chemical_formula_sum   'Li7 Mn10 O24'
_cell_volume   422.15860286
_cell_formula_units_Z   1
loop_
 _symmetry_equiv_pos_site_id
 _symmetry_equiv_pos_as_xyz
  1  'x, y, z'
loop_
 _atom_site_type_symbol
 _atom_site_label
 _atom_site_symmetry_multiplicity
 _atom_site_fract_x
 _atom_site_fract_y
 _atom_site_fract_z
 _atom_site_occupancy
  Li  Li0  1  0.05032300  0.62546700  0.33004000  1
  Li  Li1  1  0.37453300  0.94967700  0.66996000  1
  Li  Li2  1  0.83161300  0.16858800  0.75146600  1
  Li  Li3  1  0.29175600  0.38231800  0.83333300  1
  Li  Li4  1  0.83141200  0.16838700  0.24853400  1
  Li  Li5  1  0.61768200  0.70824400  0.16666700  1
  Li  Li6  1  0.95406500  0.04593500  0.50000000  1
  Mn  Mn0  1  0.16631500  0.49717400  0.08433400  1
  Mn  Mn1  1  0.50300500  0.83553100  0.41444700  1
  Mn  Mn2  1  0.50302900  0.33013000  0.41457200  1
  Mn  Mn3  1  0.16446900  0.49699500  0.58555300  1
  Mn  Mn4  1  0.99650000  0.83725000  0.91516200  1
  Mn  Mn5  1  0.83318600  0.66685500  0.75157500  1
  Mn  Mn6  1  0.66987000  0.49697100  0.58542800  1
  Mn  Mn7  1  0.50282600  0.83368500  0.91566600  1
  Mn  Mn8  1  0.33314500  0.16681400  0.24842500  1
  Mn  Mn9  1  0.16275000  0.00350000  0.08483800  1
  O  O0  1  0.10800400  0.40392300  0.23690400  1
  O  O1  1  0.71831600  0.57808700  0.42404900  1
  O  O2  1  0.42166600  0.72594300  0.57345300  1
  O  O3  1  0.56040600  0.39177300  0.26466800  1
  O  O4  1  0.27405700  0.57833400  0.42654700  1
  O  O5  1  0.07232900  0.44054300  0.73665800  1
  O  O6  1  0.05755800  0.89398200  0.76331600  1
  O  O7  1  0.75668300  0.61598900  0.90693700  1
  O  O8  1  0.74985700  0.04182300  0.91806000  1
  O  O9  1  0.91251000  0.72008900  0.59144500  1
  O  O10  1  0.60822700  0.43959400  0.73533200  1
  O  O11  1  0.59607700  0.89199600  0.76309600  1
  O  O12  1  0.39531900  0.75577300  0.07345000  1
  O  O13  1  0.38401100  0.24331700  0.09306300  1
  O  O14  1  0.10601800  0.94244200  0.23668400  1
  O  O15  1  0.24422700  0.60468100  0.92655000  1
  O  O16  1  0.24706200  0.05268900  0.92432900  1
  O  O17  1  0.94731100  0.75293800  0.07567100  1
  O  O18  1  0.95817700  0.25014300  0.08194000  1
  O  O19  1  0.71065300  0.08103100  0.41905800  1
  O  O20  1  0.55945700  0.92767100  0.26334200  1
  O  O21  1  0.42191300  0.28168400  0.57595100  1
  O  O22  1  0.27991100  0.08749000  0.40855500  1
  O  O23  1  0.91896900  0.28934700  0.58094200  1
loop_
_geom_bond_atom_site_label_1
_geom_bond_atom_site_label_2
_geom_bond_distance
_geom_bond_site_symmetry_2
Li0 O0 1.942014 1_555
Li0 O14 1.960890 1_555
Li0 O4 1.983868 1_555
Li0 O1 2.034561 1_455
Li1 O11 1.942014 1_555
Li1 O6 1.960890 1_555
Li1 O2 1.983868 1_555
Li1 O21 2.034561 1_565
Li2 O10 2.052676 1_555
Li2 O5 2.069308 1_655
Li2 O6 2.074952 1_645
Li2 O11 2.079709 1_545
Li2 O8 2.081359 1_555
Li2 O23 2.124597 1_555
Li3 O15 1.945500 1_555
Li3 O5 1.966436 1_555
Li3 O10 1.982408 1_555
Li3 O16 2.009056 1_555
Li4 O3 2.052676 1_555
Li4 O20 2.069308 1_545
Li4 O14 2.074952 1_645
Li4 O0 2.079709 1_655
Li4 O18 2.081359 1_555
Li4 O19 2.124597 1_555
Li5 O12 1.945500 1_555
Li5 O20 1.966436 1_555
Li5 O3 1.982408 1_555
Li5 O17 2.009056 1_555
Li6 O23 1.933743 1_555
Li6 O19 1.933743 1_555
Li6 O22 1.992996 1_655
Li6 O9 1.992996 1_545
Mn0 O0 1.896511 1_555
Mn0 O18 1.896542 1_455
Mn0 O13 1.950854 1_555
Mn0 O15 1.963424 1_554
Mn0 O17 1.964184 1_455
Mn0 O12 1.977916 1_555
Mn1 O20 1.878635 1_555
Mn1 O19 1.897469 1_565
Mn1 O1 1.957765 1_555
Mn1 O22 1.962627 1_565
Mn1 O4 1.967757 1_555
Mn1 O2 1.979379 1_555
Mn2 O3 1.861759 1_555
Mn2 O19 1.890393 1_555
Mn2 O22 1.951051 1_555
Mn2 O1 1.959801 1_555
Mn2 O4 1.977447 1_555
Mn2 O21 2.008345 1_555
Mn3 O5 1.878635 1_555
Mn3 O23 1.897469 1_455
Mn3 O21 1.957765 1_555
Mn3 O9 1.962627 1_455
Mn3 O2 1.967757 1_555
Mn3 O4 1.979379 1_555
Mn4 O8 1.868038 1_565
Mn4 O6 1.886635 1_655
Mn4 O7 1.941791 1_555
Mn4 O16 1.970378 1_665
Mn4 O15 1.988577 1_655
Mn4 O17 1.997219 1_556
Mn5 O11 1.911500 1_555
Mn5 O6 1.917886 1_655
Mn5 O5 1.928272 1_655
Mn5 O7 1.931381 1_555
Mn5 O10 1.944062 1_555
Mn5 O9 1.990299 1_555
Mn6 O10 1.861759 1_555
Mn6 O23 1.890393 1_555
Mn6 O9 1.951051 1_555
Mn6 O21 1.959801 1_555
Mn6 O2 1.977447 1_555
Mn6 O1 2.008345 1_555
Mn7 O11 1.896511 1_555
Mn7 O8 1.896542 1_565
Mn7 O7 1.950854 1_555
Mn7 O12 1.963424 1_556
Mn7 O16 1.964184 1_565
Mn7 O15 1.977916 1_555
Mn8 O0 1.911500 1_555
Mn8 O14 1.917886 1_545
Mn8 O20 1.928272 1_545
Mn8 O13 1.931381 1_555
Mn8 O3 1.944062 1_555
Mn8 O22 1.990299 1_555
Mn9 O18 1.868038 1_455
Mn9 O14 1.886635 1_545
Mn9 O13 1.941791 1_555
Mn9 O17 1.970378 1_445
Mn9 O12 1.988577 1_545
Mn9 O16 1.997219 1_554
