# generated using pymatgen
data_Cu(Mo3S4)2
_symmetry_space_group_name_H-M   'P 1'
_cell_length_a   6.47256500
_cell_length_b   6.48808177
_cell_length_c   12.99815900
_cell_angle_alpha   94.03849022
_cell_angle_beta   94.66392467
_cell_angle_gamma   93.65097677
_symmetry_Int_Tables_number   1
_chemical_formula_structural   Cu(Mo3S4)2
_chemical_formula_sum   'Cu2 Mo12 S16'
_cell_volume   541.36931437
_cell_formula_units_Z   2
loop_
 _symmetry_equiv_pos_site_id
 _symmetry_equiv_pos_as_xyz
  1  'x, y, z'
loop_
 _atom_site_type_symbol
 _atom_site_label
 _atom_site_symmetry_multiplicity
 _atom_site_fract_x
 _atom_site_fract_y
 _atom_site_fract_z
 _atom_site_occupancy
  Cu  Cu0  1  0.10342300  0.93492400  0.98157100  1
  Cu  Cu1  1  0.96127100  0.10308200  0.46774500  1
  Mo  Mo0  1  0.59272100  0.78795700  0.22631600  1
  Mo  Mo1  1  0.59710700  0.78570000  0.72875100  1
  Mo  Mo2  1  0.45630700  0.59494300  0.39423900  1
  Mo  Mo3  1  0.21780200  0.54149700  0.20260600  1
  Mo  Mo4  1  0.45668100  0.59654600  0.89346300  1
  Mo  Mo5  1  0.21364200  0.54818300  0.70277100  1
  Mo  Mo6  1  0.78249900  0.45735000  0.29713400  1
  Mo  Mo7  1  0.54637800  0.40461200  0.10673000  1
  Mo  Mo8  1  0.78612000  0.45349700  0.79775300  1
  Mo  Mo9  1  0.54279100  0.40493200  0.60734400  1
  Mo  Mo10  1  0.40837200  0.21114400  0.27246400  1
  Mo  Mo11  1  0.40334800  0.21641200  0.77237000  1
  S  S0  1  0.27522500  0.86150600  0.31035300  1
  S  S1  1  0.27124500  0.86960300  0.81151500  1
  S  S2  1  0.37189500  0.72600000  0.06672900  1
  S  S3  1  0.79222300  0.80026500  0.39474700  1
  S  S4  1  0.37913600  0.72646700  0.56855800  1
  S  S5  1  0.79998300  0.78988200  0.89783000  1
  S  S6  1  0.86445600  0.62290500  0.13833500  1
  S  S7  1  0.86288900  0.62052600  0.63850700  1
  S  S8  1  0.13696700  0.37226500  0.36361100  1
  S  S9  1  0.13680600  0.38151900  0.86211800  1
  S  S10  1  0.21282300  0.20010400  0.10212900  1
  S  S11  1  0.62407700  0.27109800  0.43469500  1
  S  S12  1  0.20208300  0.21340800  0.60100500  1
  S  S13  1  0.62187400  0.27595100  0.93211400  1
  S  S14  1  0.72616000  0.13664900  0.18949300  1
  S  S15  1  0.72279700  0.13347300  0.69035600  1
loop_
_geom_bond_atom_site_label_1
_geom_bond_atom_site_label_2
_geom_bond_distance
_geom_bond_site_symmetry_2
Cu0 S5 2.280453 1_455
Cu0 S10 2.280743 1_566
Cu0 S2 2.506149 1_556
Cu0 S1 2.561758 1_555
Cu1 S12 2.277353 1_655
Cu1 S3 2.291806 1_545
Cu1 S11 2.520458 1_555
Cu1 S8 2.550661 1_655
Mo0 S2 2.415495 1_555
Mo0 S6 2.437723 1_555
Mo0 S3 2.443219 1_555
Mo0 S0 2.461805 1_555
Mo0 S14 2.462547 1_565
Mo1 S4 2.411278 1_555
Mo1 S7 2.422745 1_555
Mo1 S15 2.448063 1_565
Mo1 S5 2.464295 1_555
Mo1 S1 2.516930 1_555
Mo2 S0 2.422744 1_555
Mo2 S8 2.433707 1_555
Mo2 S4 2.465287 1_555
Mo2 S3 2.475786 1_555
Mo2 S11 2.494757 1_555
Mo3 S0 2.412025 1_555
Mo3 S2 2.445246 1_555
Mo3 S6 2.472405 1_455
Mo3 S10 2.487867 1_555
Mo3 S8 2.507503 1_555
Mo4 S9 2.411190 1_555
Mo4 S1 2.458152 1_555
Mo4 S13 2.462785 1_555
Mo4 S2 2.464142 1_556
Mo4 S5 2.475611 1_555
Mo5 S1 2.426086 1_555
Mo5 S7 2.440231 1_455
Mo5 S4 2.441124 1_555
Mo5 S12 2.455938 1_555
Mo5 S9 2.474073 1_555
Mo6 S14 2.414612 1_555
Mo6 S6 2.472536 1_555
Mo6 S3 2.476966 1_555
Mo6 S11 2.480623 1_555
Mo6 S8 2.494267 1_655
Mo7 S6 2.412966 1_555
Mo7 S14 2.418984 1_555
Mo7 S10 2.455246 1_555
Mo7 S13 2.460190 1_554
Mo7 S2 2.500186 1_555
Mo8 S15 2.412096 1_555
Mo8 S13 2.436498 1_555
Mo8 S9 2.439551 1_655
Mo8 S5 2.453497 1_555
Mo8 S7 2.473953 1_555
Mo9 S7 2.414104 1_555
Mo9 S15 2.438909 1_555
Mo9 S12 2.453790 1_555
Mo9 S11 2.458168 1_555
Mo9 S4 2.463928 1_555
Mo10 S11 2.425643 1_555
Mo10 S8 2.445452 1_555
Mo10 S10 2.453470 1_555
Mo10 S14 2.457946 1_555
Mo10 S0 2.471568 1_545
Mo11 S13 2.408526 1_555
Mo11 S9 2.423092 1_555
Mo11 S1 2.457649 1_545
Mo11 S15 2.473972 1_555
Mo11 S12 2.485483 1_555
