# generated using pymatgen
data_Ce6In14Pt11
_symmetry_space_group_name_H-M   'P 1'
_cell_length_a   11.66538439
_cell_length_b   11.66538439
_cell_length_c   15.20260537
_cell_angle_alpha   61.09448206
_cell_angle_beta   61.09448206
_cell_angle_gamma   22.14365629
_symmetry_Int_Tables_number   1
_chemical_formula_structural   Ce6In14Pt11
_chemical_formula_sum   'Ce6 In14 Pt11'
_cell_volume   678.64480022
_cell_formula_units_Z   1
loop_
 _symmetry_equiv_pos_site_id
 _symmetry_equiv_pos_as_xyz
  1  'x, y, z'
loop_
 _atom_site_type_symbol
 _atom_site_label
 _atom_site_symmetry_multiplicity
 _atom_site_fract_x
 _atom_site_fract_y
 _atom_site_fract_z
 _atom_site_occupancy
  Ce  Ce0  1  0.63425100  0.63425100  0.19729700  1
  Ce  Ce1  1  0.37266700  0.37266700  0.80955600  1
  Ce  Ce2  1  0.12199900  0.12199900  0.63870800  1
  Ce  Ce3  1  0.88364300  0.88364300  0.35747100  1
  Ce  Ce4  1  0.14329200  0.14329200  0.36776600  1
  Ce  Ce5  1  0.86284200  0.86284200  0.62986300  1
  In  In0  1  0.62030200  0.62030200  0.97693400  1
  In  In1  1  0.38543000  0.38543000  0.02531000  1
  In  In2  1  0.23160200  0.23160200  0.75676200  1
  In  In3  1  0.49205400  0.49205400  0.20146300  1
  In  In4  1  0.46515400  0.46515400  0.43314900  1
  In  In5  1  0.93996700  0.93996700  0.10032100  1
  In  In6  1  0.54063400  0.54063400  0.56703400  1
  In  In7  1  0.51685600  0.51685600  0.79780800  1
  In  In8  1  0.20620000  0.20620000  0.99661200  1
  In  In9  1  0.77478100  0.77478100  0.24194600  1
  In  In10  1  0.26532400  0.26532400  0.41743600  1
  In  In11  1  0.06699100  0.06699100  0.89860400  1
  In  In12  1  0.79888000  0.79888000  0.00415600  1
  In  In13  1  0.73909200  0.73909200  0.58170400  1
  Pt  Pt0  1  0.68072400  0.68072400  0.45640700  1
  Pt  Pt1  1  0.36571300  0.36571300  0.21986600  1
  Pt  Pt2  1  0.06544400  0.06544400  0.09851100  1
  Pt  Pt3  1  0.76326500  0.76326500  0.85040700  1
  Pt  Pt4  1  0.02962900  0.02962900  0.30246800  1
  Pt  Pt5  1  0.32468600  0.32468600  0.54148600  1
  Pt  Pt6  1  0.94097100  0.94097100  0.90299500  1
  Pt  Pt7  1  0.97625800  0.97625800  0.69977900  1
  Pt  Pt8  1  0.24256600  0.24256600  0.14875500  1
  Pt  Pt9  1  0.00297600  0.00297600  0.50090500  1
  Pt  Pt10  1  0.64187400  0.64187400  0.78076500  1
loop_
_geom_bond_atom_site_label_1
_geom_bond_atom_site_label_2
_geom_bond_distance
_geom_bond_site_symmetry_2
Ce0 Pt4 3.088753 1_565
Ce0 Pt4 3.088753 1_655
Ce0 Pt8 3.148155 1_655
Ce0 Pt8 3.148155 1_565
Ce0 In3 3.225093 1_555
Ce0 In12 3.453612 1_555
Ce0 Pt2 3.476588 1_565
Ce0 Pt2 3.476588 1_655
Ce0 In8 3.477013 1_564
Ce0 In8 3.477013 1_654
Ce0 Ce4 3.508009 1_655
Ce0 Ce4 3.508009 1_565
Ce0 In0 3.518396 1_554
Ce0 In9 3.600759 1_555
Ce0 In4 3.764509 1_555
Ce1 Pt7 3.087111 1_545
Ce1 Pt7 3.087111 1_455
Ce1 Pt3 3.185352 1_545
Ce1 Pt3 3.185352 1_455
Ce1 In7 3.217216 1_555
Ce1 Pt6 3.416239 1_455
Ce1 Pt6 3.416239 1_545
Ce1 In12 3.420762 1_456
Ce1 In12 3.420762 1_546
Ce1 In1 3.433388 1_556
Ce1 In8 3.455052 1_555
Ce1 Ce5 3.624537 1_455
Ce1 Ce5 3.624537 1_545
Ce1 In2 3.691889 1_555
Ce1 In6 3.796910 1_555
Ce2 Pt7 2.990887 1_445
Ce2 In13 3.266304 1_545
Ce2 In13 3.266304 1_455
Ce2 Pt0 3.291898 1_545
Ce2 Pt0 3.291898 1_455
Ce2 Pt10 3.295115 1_455
Ce2 Pt10 3.295115 1_545
Ce2 In7 3.305830 1_455
Ce2 In7 3.305830 1_545
Ce2 In10 3.348247 1_555
Ce2 In6 3.417042 1_545
Ce2 In6 3.417042 1_455
Ce2 In11 3.506482 1_555
Ce2 In2 3.735699 1_555
Ce2 Ce4 3.902034 1_555
Ce3 Pt4 3.019720 1_665
Ce3 Pt1 3.226355 1_565
Ce3 Pt1 3.226355 1_655
Ce3 In10 3.279635 1_565
Ce3 In10 3.279635 1_655
Ce3 Pt5 3.308605 1_655
Ce3 Pt5 3.308605 1_565
Ce3 In3 3.317508 1_565
Ce3 In3 3.317508 1_655
Ce3 In13 3.385393 1_555
Ce3 In4 3.455503 1_565
Ce3 In4 3.455503 1_655
Ce3 In5 3.461190 1_555
Ce3 In9 3.689126 1_555
Ce3 Ce5 3.928417 1_555
Ce4 Pt9 2.830701 1_555
Ce4 Pt0 2.950725 1_455
Ce4 Pt0 2.950725 1_545
Ce4 Pt8 2.966033 1_555
Ce4 Pt4 3.209876 1_555
Ce4 In10 3.233512 1_555
Ce5 Pt9 2.818165 1_665
Ce5 Pt5 2.956894 1_565
Ce5 Pt5 2.956894 1_655
Ce5 Pt3 2.984892 1_555
Ce5 Pt7 3.254577 1_555
Ce5 In13 3.256984 1_555
In0 Pt10 2.772531 1_555
In0 Pt2 2.779481 1_566
In0 Pt2 2.779481 1_656
In0 Pt3 2.865737 1_555
In0 In11 3.059153 1_565
In0 In11 3.059153 1_655
In0 In8 3.091246 1_655
In0 In8 3.091246 1_565
In0 In3 3.224978 1_556
In1 Pt1 2.763476 1_555
In1 Pt6 2.786416 1_454
In1 Pt6 2.786416 1_544
In1 Pt8 2.859165 1_555
In1 In5 3.046469 1_455
In1 In5 3.046469 1_545
In1 In12 3.110769 1_455
In1 In12 3.110769 1_545
In1 In7 3.281016 1_554
In2 Pt5 2.895220 1_555
In2 Pt3 2.930463 1_455
In2 Pt3 2.930463 1_545
In2 Pt10 2.938371 1_455
In2 Pt10 2.938371 1_545
In2 In8 3.397793 1_555
In3 Pt1 2.765710 1_555
In3 Pt2 2.775091 1_565
In3 Pt2 2.775091 1_655
In3 Pt4 3.068872 1_655
In3 Pt4 3.068872 1_565
In3 In5 3.257540 1_455
In3 In5 3.257540 1_545
In3 In4 3.263197 1_555
In4 Pt9 2.776374 1_565
In4 Pt9 2.776374 1_655
In4 Pt5 2.799768 1_555
In4 Pt4 2.873284 1_565
In4 Pt4 2.873284 1_655
In5 Pt1 2.858024 1_655
In5 Pt1 2.858024 1_565
In5 Pt2 2.859534 1_665
In5 Pt6 2.988614 1_554
In5 In9 3.304378 1_555
In6 Pt9 2.761630 1_655
In6 Pt9 2.761630 1_565
In6 Pt0 2.793391 1_555
In6 Pt7 2.886799 1_545
In6 Pt7 2.886799 1_455
In6 In7 3.274674 1_555
In7 Pt10 2.744142 1_555
In7 Pt6 2.803153 1_545
In7 Pt6 2.803153 1_455
In7 Pt7 3.077050 1_545
In7 Pt7 3.077050 1_455
In8 Pt2 2.805060 1_556
In8 Pt8 2.817852 1_556
In8 Pt3 2.967377 1_545
In8 Pt3 2.967377 1_455
In9 Pt0 2.889857 1_555
In9 Pt8 2.932440 1_655
In9 Pt8 2.932440 1_565
In9 Pt1 2.962705 1_565
In9 Pt1 2.962705 1_655
In10 Pt1 2.739351 1_555
In10 Pt5 2.815834 1_555
In10 Pt0 2.826876 1_455
In10 Pt0 2.826876 1_545
In10 In13 3.184067 1_545
In10 In13 3.184067 1_455
In10 In9 3.407947 1_455
In10 In9 3.407947 1_545
In11 Pt6 2.853132 1_445
In11 Pt10 2.853402 1_455
In11 Pt10 2.853402 1_545
In11 In5 3.012839 1_446
In11 Pt2 3.021818 1_556
In11 In7 3.227563 1_455
In11 In7 3.227563 1_545
In11 In2 3.293841 1_555
In12 Pt3 2.829475 1_554
In12 Pt6 2.832137 1_554
In12 Pt8 2.953203 1_565
In12 Pt8 2.953203 1_655
In12 In8 3.126427 1_564
In12 In8 3.126427 1_654
In12 In9 3.377567 1_555
In13 Pt10 2.734472 1_555
In13 Pt0 2.814625 1_555
In13 Pt5 2.837756 1_655
In13 Pt5 2.837756 1_565
In13 In2 3.417762 1_565
In13 In2 3.417762 1_655
Pt2 Pt4 2.789616 1_555
Pt4 Pt9 2.767623 1_555
Pt6 Pt7 2.781804 1_555
Pt7 Pt9 2.773672 1_665
