# generated using pymatgen
data_Na4Al3Ge3NO15
_symmetry_space_group_name_H-M   'P 1'
_cell_length_a   9.21317200
_cell_length_b   9.23742100
_cell_length_c   9.27341307
_cell_angle_alpha   89.94630265
_cell_angle_beta   90.00000000
_cell_angle_gamma   90.00000000
_symmetry_Int_Tables_number   1
_chemical_formula_structural   Na4Al3Ge3NO15
_chemical_formula_sum   'Na8 Al6 Ge6 N2 O30'
_cell_volume   789.22226886
_cell_formula_units_Z   2
loop_
 _symmetry_equiv_pos_site_id
 _symmetry_equiv_pos_as_xyz
  1  'x, y, z'
loop_
 _atom_site_type_symbol
 _atom_site_label
 _atom_site_symmetry_multiplicity
 _atom_site_fract_x
 _atom_site_fract_y
 _atom_site_fract_z
 _atom_site_occupancy
  Na  Na0  1  0.18395300  0.81330900  0.18794900  1
  Na  Na1  1  0.18395300  0.18669100  0.81205100  1
  Na  Na2  1  0.31651400  0.68257800  0.68558200  1
  Na  Na3  1  0.31651400  0.31742200  0.31441800  1
  Na  Na4  1  0.68624400  0.68102400  0.31514600  1
  Na  Na5  1  0.68624400  0.31897600  0.68485400  1
  Na  Na6  1  0.80901200  0.81065700  0.81269900  1
  Na  Na7  1  0.80901200  0.18934300  0.18730100  1
  Al  Al0  1  0.99992000  0.74945900  0.50012500  1
  Al  Al1  1  0.99992000  0.25054100  0.49987500  1
  Al  Al2  1  0.24933700  0.50000000  0.00000000  1
  Al  Al3  1  0.49982000  0.00045200  0.75006300  1
  Al  Al4  1  0.49982000  0.99954800  0.24993700  1
  Al  Al5  1  0.74991000  0.50000000  0.00000000  1
  Ge  Ge0  1  0.00001500  0.49991800  0.25038000  1
  Ge  Ge1  1  0.00001500  0.50008200  0.74962000  1
  Ge  Ge2  1  0.25016200  0.00000000  0.50000000  1
  Ge  Ge3  1  0.49948400  0.24986600  0.99981900  1
  Ge  Ge4  1  0.49948400  0.75013400  0.00018100  1
  Ge  Ge5  1  0.74942400  0.00000000  0.50000000  1
  N  N0  1  0.00875100  0.00000000  0.00000000  1
  N  N1  1  0.46136400  0.50000000  0.50000000  1
  O  O0  1  0.06752600  0.64541200  0.64560000  1
  O  O1  1  0.06752600  0.35458800  0.35440000  1
  O  O2  1  0.14771000  0.85281100  0.43531800  1
  O  O3  1  0.14771000  0.14718900  0.56468200  1
  O  O4  1  0.14685500  0.56557000  0.14729600  1
  O  O5  1  0.14685500  0.43443000  0.85270400  1
  O  O6  1  0.35339600  0.64664200  0.93396300  1
  O  O7  1  0.35339600  0.35335800  0.06603700  1
  O  O8  1  0.35436800  0.93256000  0.64539100  1
  O  O9  1  0.35436800  0.06744000  0.35460900  1
  O  O10  1  0.43176600  0.85423000  0.14535600  1
  O  O11  1  0.43176600  0.14577000  0.85464400  1
  O  O12  1  0.53466000  0.53989800  0.60984100  1
  O  O13  1  0.53466000  0.46010200  0.39015900  1
  O  O14  1  0.56676100  0.85567600  0.85591700  1
  O  O15  1  0.56676100  0.14432400  0.14408300  1
  O  O16  1  0.64355400  0.93090800  0.35662800  1
  O  O17  1  0.64355400  0.06909200  0.64337200  1
  O  O18  1  0.64453000  0.64527800  0.06699100  1
  O  O19  1  0.64453000  0.35472200  0.93300900  1
  O  O20  1  0.85436500  0.43401800  0.14587500  1
  O  O21  1  0.85436500  0.56598200  0.85412500  1
  O  O22  1  0.85327600  0.85392900  0.56588900  1
  O  O23  1  0.85327600  0.14607100  0.43411100  1
  O  O24  1  0.93268500  0.64445300  0.35529200  1
  O  O25  1  0.93268500  0.35554700  0.64470800  1
  O  O26  1  0.97836300  0.98435900  0.15782300  1
  O  O27  1  0.97836300  0.01564100  0.84217700  1
  O  O28  1  0.97614600  0.15478900  0.98146000  1
  O  O29  1  0.97614600  0.84521100  0.01854000  1
loop_
_geom_bond_atom_site_label_1
_geom_bond_atom_site_label_2
_geom_bond_distance
_geom_bond_site_symmetry_2
Na0 O4 2.344707 1_555
Na0 O2 2.347008 1_555
Na0 O10 2.347630 1_555
Na0 O26 2.482250 1_455
Na0 O29 2.493905 1_455
Na1 O5 2.344707 1_555
Na1 O3 2.347008 1_555
Na1 O11 2.347630 1_555
Na1 O27 2.482250 1_455
Na1 O28 2.493905 1_455
Na2 O0 2.349015 1_555
Na2 O6 2.351510 1_555
Na2 O8 2.364589 1_555
Na2 O12 2.504305 1_555
Na3 O1 2.349015 1_555
Na3 O7 2.351510 1_555
Na3 O9 2.364589 1_555
Na3 O13 2.504305 1_555
Na4 O24 2.325440 1_555
Na4 O18 2.356667 1_555
Na4 O16 2.373291 1_555
Na4 O13 2.568326 1_555
Na5 O25 2.325440 1_555
Na5 O19 2.356667 1_555
Na5 O17 2.373291 1_555
Na5 O12 2.568326 1_555
Na6 O14 2.305483 1_555
Na6 O21 2.329999 1_555
Na6 O22 2.358569 1_555
Na6 O27 2.468915 1_565
Na6 O29 2.473422 1_556
Na7 O15 2.305483 1_555
Na7 O20 2.329999 1_555
Na7 O23 2.358569 1_555
Na7 O26 2.468915 1_545
Na7 O28 2.473422 1_554
Al0 O2 1.767926 1_655
Al0 O0 1.768963 1_655
Al0 O22 1.769088 1_555
Al0 O24 1.769445 1_555
Al1 O3 1.767926 1_655
Al1 O1 1.768963 1_655
Al1 O23 1.769088 1_555
Al1 O25 1.769445 1_555
Al2 O5 1.767961 1_554
Al2 O4 1.767961 1_555
Al2 O7 1.768480 1_555
Al2 O6 1.768480 1_554
Al3 O14 1.769187 1_545
Al3 O8 1.769872 1_545
Al3 O17 1.770133 1_555
Al3 O11 1.771456 1_555
Al4 O15 1.769187 1_565
Al4 O9 1.769872 1_565
Al4 O16 1.770133 1_555
Al4 O10 1.771456 1_555
Al5 O21 1.768063 1_554
Al5 O20 1.768063 1_555
Al5 O19 1.769480 1_554
Al5 O18 1.769480 1_555
Ge0 O4 1.763735 1_555
Ge0 O20 1.763961 1_455
Ge0 O24 1.765313 1_455
Ge0 O1 1.765552 1_555
Ge1 O5 1.763735 1_555
Ge1 O21 1.763961 1_455
Ge1 O25 1.765313 1_455
Ge1 O0 1.765552 1_555
Ge2 O3 1.760942 1_555
Ge2 O2 1.760942 1_545
Ge2 O9 1.768073 1_555
Ge2 O8 1.768073 1_545
Ge3 O7 1.761718 1_556
Ge3 O19 1.762583 1_555
Ge3 O15 1.766922 1_556
Ge3 O11 1.768826 1_555
Ge4 O6 1.761718 1_554
Ge4 O18 1.762583 1_555
Ge4 O14 1.766922 1_554
Ge4 O10 1.768826 1_555
Ge5 O22 1.762934 1_545
Ge5 O23 1.762934 1_555
Ge5 O16 1.768624 1_545
Ge5 O17 1.768624 1_555
N0 O29 1.470990 1_445
N0 O28 1.470990 1_454
N0 O26 1.496951 1_445
N0 O27 1.496951 1_454
N1 O12 1.276753 1_555
N1 O13 1.276753 1_555
N1 Na2 2.755471 1_555
N1 Na3 2.755471 1_555
