# generated using pymatgen
data_Ba2(CuO2)3
_symmetry_space_group_name_H-M   'P 1'
_cell_length_a   7.59311200
_cell_length_b   8.27177800
_cell_length_c   12.17324163
_cell_angle_alpha   70.44196759
_cell_angle_beta   90.00000000
_cell_angle_gamma   90.00000000
_symmetry_Int_Tables_number   1
_chemical_formula_structural   Ba2(CuO2)3
_chemical_formula_sum   'Ba8 Cu12 O24'
_cell_volume   720.46925134
_cell_formula_units_Z   4
loop_
 _symmetry_equiv_pos_site_id
 _symmetry_equiv_pos_as_xyz
  1  'x, y, z'
loop_
 _atom_site_type_symbol
 _atom_site_label
 _atom_site_symmetry_multiplicity
 _atom_site_fract_x
 _atom_site_fract_y
 _atom_site_fract_z
 _atom_site_occupancy
  Ba  Ba0  1  0.50000000  0.43538900  0.75767900  1
  Ba  Ba1  1  0.50000000  0.09187500  0.25833800  1
  Ba  Ba2  1  0.00000000  0.82472000  0.25123600  1
  Ba  Ba3  1  0.00000000  0.31836900  0.24781700  1
  Ba  Ba4  1  0.00000000  0.17528000  0.74876400  1
  Ba  Ba5  1  0.50000000  0.90812500  0.74166200  1
  Ba  Ba6  1  0.00000000  0.68163100  0.75218300  1
  Ba  Ba7  1  0.50000000  0.56461100  0.24232100  1
  Cu  Cu0  1  0.24926400  0.66550300  0.50027700  1
  Cu  Cu1  1  0.74710100  0.66798000  0.99852900  1
  Cu  Cu2  1  0.24926400  0.33449700  0.49972300  1
  Cu  Cu3  1  0.25289900  0.33202000  0.00147100  1
  Cu  Cu4  1  0.75073600  0.33449700  0.49972300  1
  Cu  Cu5  1  0.24701600  0.00000000  0.00000000  1
  Cu  Cu6  1  0.25289900  0.66798000  0.99852900  1
  Cu  Cu7  1  0.75298400  0.00000000  0.00000000  1
  Cu  Cu8  1  0.75073600  0.66550300  0.50027700  1
  Cu  Cu9  1  0.74710100  0.33202000  0.00147100  1
  Cu  Cu10  1  0.74600200  0.00000000  0.50000000  1
  Cu  Cu11  1  0.25399800  0.00000000  0.50000000  1
  O  O0  1  0.76667200  0.11108500  0.11248900  1
  O  O1  1  0.74789200  0.77874200  0.10950900  1
  O  O2  1  0.23434200  0.55513900  0.38840700  1
  O  O3  1  0.74900700  0.88730900  0.38978000  1
  O  O4  1  0.76565800  0.44486100  0.61159300  1
  O  O5  1  0.74789200  0.22125800  0.89049100  1
  O  O6  1  0.25210800  0.77874200  0.10950900  1
  O  O7  1  0.23332800  0.88891500  0.88751100  1
  O  O8  1  0.26822200  0.44683500  0.11068800  1
  O  O9  1  0.23332800  0.11108500  0.11248900  1
  O  O10  1  0.26924500  0.77815500  0.61089800  1
  O  O11  1  0.73075500  0.77815500  0.61089800  1
  O  O12  1  0.76667200  0.88891500  0.88751100  1
  O  O13  1  0.26924500  0.22184500  0.38910200  1
  O  O14  1  0.73177800  0.44683500  0.11068800  1
  O  O15  1  0.74900700  0.11269100  0.61022000  1
  O  O16  1  0.26822200  0.55316500  0.88931200  1
  O  O17  1  0.73177800  0.55316500  0.88931200  1
  O  O18  1  0.25099300  0.11269100  0.61022000  1
  O  O19  1  0.25210800  0.22125800  0.89049100  1
  O  O20  1  0.73075500  0.22184500  0.38910200  1
  O  O21  1  0.76565800  0.55513900  0.38840700  1
  O  O22  1  0.25099300  0.88730900  0.38978000  1
  O  O23  1  0.23434200  0.44486100  0.61159300  1
loop_
_geom_bond_atom_site_label_1
_geom_bond_atom_site_label_2
_geom_bond_distance
_geom_bond_site_symmetry_2
Ba0 O4 2.672887 1_555
Ba0 O23 2.672887 1_555
Ba0 O5 2.716036 1_555
Ba0 O19 2.716036 1_555
Ba0 O17 2.767539 1_555
Ba0 O16 2.767539 1_555
Ba1 O0 2.662462 1_555
Ba1 O9 2.662462 1_555
Ba1 O3 2.680609 1_545
Ba1 O22 2.680609 1_545
Ba1 O20 2.811673 1_555
Ba1 O13 2.811673 1_555
Ba2 O1 2.687940 1_455
Ba2 O6 2.687940 1_555
Ba2 O22 2.707242 1_555
Ba2 O3 2.707242 1_455
Ba2 O2 2.904137 1_555
Ba2 O21 2.904137 1_455
Ba2 O9 2.987293 1_565
Ba2 O0 2.987293 1_465
Ba3 O13 2.618346 1_555
Ba3 O20 2.618346 1_455
Ba3 O8 2.622220 1_555
Ba3 O14 2.622220 1_455
Ba3 O9 3.268601 1_555
Ba3 O0 3.268601 1_455
Ba4 O19 2.687940 1_555
Ba4 O5 2.687940 1_455
Ba4 O18 2.707242 1_555
Ba4 O15 2.707242 1_455
Ba4 O23 2.904137 1_555
Ba4 O4 2.904137 1_455
Ba4 O7 2.987293 1_545
Ba4 O12 2.987293 1_445
Ba5 O12 2.662462 1_555
Ba5 O7 2.662462 1_555
Ba5 O15 2.680609 1_565
Ba5 O18 2.680609 1_565
Ba5 O11 2.811673 1_555
Ba5 O10 2.811673 1_555
Ba6 O10 2.618346 1_555
Ba6 O11 2.618346 1_455
Ba6 O16 2.622220 1_555
Ba6 O17 2.622220 1_455
Ba6 O7 3.268601 1_555
Ba6 O12 3.268601 1_455
Ba7 O21 2.672887 1_555
Ba7 O2 2.672887 1_555
Ba7 O1 2.716036 1_555
Ba7 O6 2.716036 1_555
Ba7 O14 2.767539 1_555
Ba7 O8 2.767539 1_555
Cu0 O22 1.877072 1_555
Cu0 O23 1.877294 1_555
Cu0 O2 1.879668 1_555
Cu0 O10 1.882773 1_555
Cu1 O1 1.869047 1_556
Cu1 O17 1.878442 1_555
Cu1 O12 1.880094 1_555
Cu1 O14 1.884599 1_556
Cu2 O18 1.877072 1_555
Cu2 O2 1.877294 1_555
Cu2 O23 1.879668 1_555
Cu2 O13 1.882773 1_555
Cu3 O19 1.869047 1_554
Cu3 O8 1.878442 1_555
Cu3 O9 1.880094 1_555
Cu3 O16 1.884599 1_554
Cu4 O15 1.877072 1_555
Cu4 O21 1.877294 1_555
Cu4 O4 1.879668 1_555
Cu4 O20 1.882773 1_555
Cu5 O19 1.869416 1_554
Cu5 O6 1.869416 1_545
Cu5 O9 1.890157 1_555
Cu5 O7 1.890157 1_544
Cu6 O6 1.869047 1_556
Cu6 O16 1.878442 1_555
Cu6 O7 1.880094 1_555
Cu6 O8 1.884599 1_556
Cu7 O5 1.869416 1_554
Cu7 O1 1.869416 1_545
Cu7 O0 1.890157 1_555
Cu7 O12 1.890157 1_544
Cu8 O3 1.877072 1_555
Cu8 O4 1.877294 1_555
Cu8 O21 1.879668 1_555
Cu8 O11 1.882773 1_555
Cu9 O5 1.869047 1_554
Cu9 O14 1.878442 1_555
Cu9 O0 1.880094 1_555
Cu9 O17 1.884599 1_554
Cu10 O3 1.872715 1_545
Cu10 O15 1.872715 1_555
Cu10 O20 1.882732 1_555
Cu10 O11 1.882732 1_545
Cu11 O22 1.872715 1_545
Cu11 O18 1.872715 1_555
Cu11 O13 1.882732 1_555
Cu11 O10 1.882732 1_545
