# generated using pymatgen
data_Na11Ti20O40
_symmetry_space_group_name_H-M   'P 1'
_cell_length_a   5.87769082
_cell_length_b   5.87768386
_cell_length_c   117.23882125
_cell_angle_alpha   29.50981113
_cell_angle_beta   29.50974480
_cell_angle_gamma   29.70738042
_symmetry_Int_Tables_number   1
_chemical_formula_structural   Na11Ti20O40
_chemical_formula_sum   'Na11 Ti20 O40'
_cell_volume   873.42983734
_cell_formula_units_Z   1
loop_
 _symmetry_equiv_pos_site_id
 _symmetry_equiv_pos_as_xyz
  1  'x, y, z'
loop_
 _atom_site_type_symbol
 _atom_site_label
 _atom_site_symmetry_multiplicity
 _atom_site_fract_x
 _atom_site_fract_y
 _atom_site_fract_z
 _atom_site_occupancy
  Na  Na0  1  0.99744200  0.99744200  0.05028700  1
  Na  Na1  1  0.00268500  0.00268400  0.44970500  1
  Na  Na2  1  0.03656600  0.03656800  0.54626900  1
  Na  Na3  1  0.99979200  0.99979200  0.70000700  1
  Na  Na4  1  0.00515400  0.00515300  0.59951400  1
  Na  Na5  1  0.00012000  0.00011800  0.64998600  1
  Na  Na6  1  0.99971400  0.99971500  0.85003100  1
  Na  Na7  1  0.99950700  0.99950800  0.75005000  1
  Na  Na8  1  0.99996900  0.99996800  0.80000900  1
  Na  Na9  1  0.99426200  0.99426200  0.90056200  1
  Na  Na10  1  0.96304300  0.96304200  0.95376700  1
  Ti  Ti0  1  0.50305500  0.50304700  0.02402500  1
  Ti  Ti1  1  0.49958200  0.49958000  0.07566200  1
  Ti  Ti2  1  0.48978000  0.48978300  0.12594400  1
  Ti  Ti3  1  0.49191600  0.49191800  0.17576100  1
  Ti  Ti4  1  0.49755400  0.49755500  0.22525700  1
  Ti  Ti5  1  0.50261800  0.50261900  0.27472600  1
  Ti  Ti6  1  0.50844800  0.50844500  0.32420100  1
  Ti  Ti7  1  0.51208300  0.51208400  0.37387300  1
  Ti  Ti8  1  0.50300800  0.50300600  0.42409000  1
  Ti  Ti9  1  0.49625900  0.49626200  0.47603400  1
  Ti  Ti10  1  0.49713300  0.49713600  0.52482700  1
  Ti  Ti11  1  0.49745600  0.49745700  0.57539500  1
  Ti  Ti12  1  0.49363600  0.49363400  0.62562700  1
  Ti  Ti13  1  0.50093900  0.50093700  0.67492300  1
  Ti  Ti14  1  0.50201400  0.50201200  0.72480000  1
  Ti  Ti15  1  0.49686100  0.49686200  0.77532300  1
  Ti  Ti16  1  0.50037600  0.50037500  0.82495300  1
  Ti  Ti17  1  0.50626400  0.50626800  0.87437300  1
  Ti  Ti18  1  0.50109300  0.50109600  0.92475100  1
  Ti  Ti19  1  0.50138500  0.50138600  0.97533800  1
  O  O0  1  0.21501000  0.21501000  0.01256700  1
  O  O1  1  0.23838900  0.23839200  0.06069900  1
  O  O2  1  0.76212200  0.76212100  0.03919400  1
  O  O3  1  0.22848900  0.22849300  0.11081800  1
  O  O4  1  0.79131100  0.79131100  0.08712800  1
  O  O5  1  0.22844400  0.22844500  0.16073300  1
  O  O6  1  0.78315500  0.78315100  0.13799200  1
  O  O7  1  0.22537000  0.22536900  0.21108000  1
  O  O8  1  0.77974000  0.77973700  0.18839800  1
  O  O9  1  0.22259500  0.22259600  0.26135900  1
  O  O10  1  0.77708900  0.77708500  0.23867300  1
  O  O11  1  0.22031000  0.22031500  0.31160200  1
  O  O12  1  0.77470600  0.77470400  0.28890500  1
  O  O13  1  0.21780600  0.21781200  0.36191400  1
  O  O14  1  0.77244200  0.77244000  0.33916600  1
  O  O15  1  0.20962900  0.20963200  0.41277500  1
  O  O16  1  0.77273800  0.77273700  0.38904700  1
  O  O17  1  0.23838900  0.23838800  0.46076100  1
  O  O18  1  0.76179800  0.76179900  0.43928100  1
  O  O19  1  0.21858600  0.21858500  0.51237000  1
  O  O20  1  0.78549900  0.78550100  0.48742100  1
  O  O21  1  0.23378100  0.23378300  0.56177900  1
  O  O22  1  0.76158500  0.76158700  0.53902400  1
  O  O23  1  0.23269200  0.23268600  0.61204100  1
  O  O24  1  0.76618400  0.76618400  0.58821200  1
  O  O25  1  0.23324300  0.23324200  0.66208200  1
  O  O26  1  0.76600200  0.76600500  0.63799400  1
  O  O27  1  0.23313700  0.23313800  0.71205900  1
  O  O28  1  0.76448300  0.76448300  0.68818100  1
  O  O29  1  0.23437900  0.23437900  0.76185700  1
  O  O30  1  0.76479600  0.76479600  0.73823700  1
  O  O31  1  0.23533500  0.23533500  0.81184400  1
  O  O32  1  0.76547400  0.76547100  0.78807200  1
  O  O33  1  0.23394300  0.23394100  0.86203800  1
  O  O34  1  0.76522100  0.76522100  0.83804500  1
  O  O35  1  0.23345900  0.23345400  0.91181000  1
  O  O36  1  0.76655300  0.76655500  0.88806800  1
  O  O37  1  0.23861000  0.23861400  0.96090800  1
  O  O38  1  0.76646900  0.76648000  0.93822100  1
  O  O39  1  0.78132000  0.78131300  0.98757300  1
loop_
_geom_bond_atom_site_label_1
_geom_bond_atom_site_label_2
_geom_bond_distance
_geom_bond_site_symmetry_2
Na0 O4 2.434055 1_555
Na0 O1 2.440154 1_655
Na0 O1 2.440164 1_565
Na0 O2 2.441980 1_565
Na0 O2 2.441986 1_655
Na0 O0 2.445732 1_665
Na1 O15 2.437648 1_555
Na1 O18 2.439872 1_455
Na1 O18 2.439872 1_545
Na1 O17 2.441204 1_545
Na1 O17 2.441208 1_455
Na1 O20 2.448003 1_445
Na2 O19 2.295905 1_555
Na2 O22 2.370292 1_455
Na2 O22 2.370297 1_545
Na2 O21 2.479518 1_545
Na2 O21 2.479521 1_455
Na2 O24 2.532794 1_445
Na3 O25 2.359598 1_665
Na3 O30 2.380735 1_555
Na3 O28 2.393586 1_565
Na3 O28 2.393589 1_655
Na3 O27 2.395382 1_655
Na3 O27 2.395388 1_565
Na4 O21 2.371776 1_555
Na4 O26 2.379374 1_445
Na4 O24 2.397118 1_455
Na4 O24 2.397120 1_545
Na4 O23 2.413360 1_455
Na4 O23 2.413366 1_545
Na5 O23 2.367388 1_555
Na5 O28 2.372997 1_445
Na5 O26 2.392826 1_545
Na5 O26 2.392832 1_455
Na5 O25 2.394403 1_545
Na5 O25 2.394409 1_455
Na6 O31 2.372280 1_665
Na6 O36 2.372954 1_555
Na6 O34 2.390063 1_565
Na6 O34 2.390068 1_655
Na6 O33 2.390929 1_565
Na6 O33 2.390931 1_655
Na7 O27 2.365180 1_665
Na7 O32 2.365715 1_555
Na7 O29 2.398475 1_655
Na7 O29 2.398477 1_565
Na7 O30 2.399423 1_565
Na7 O30 2.399428 1_655
Na8 O34 2.362519 1_555
Na8 O29 2.376569 1_665
Na8 O31 2.392522 1_655
Na8 O31 2.392528 1_565
Na8 O32 2.393197 1_565
Na8 O32 2.393204 1_655
Na9 O38 2.369527 1_555
Na9 O33 2.380449 1_665
Na9 O35 2.398781 1_565
Na9 O35 2.398787 1_655
Na9 O36 2.414038 1_655
Na9 O36 2.414038 1_565
Na10 O39 2.288061 1_555
Na10 O37 2.372713 1_655
Na10 O37 2.372727 1_565
Na10 O38 2.482680 1_655
Na10 O38 2.482699 1_565
Na10 O35 2.534000 1_665
O0 Ti0 2.012310 1_455
O0 Ti0 2.012325 1_545
O0 Ti19 2.015945 1_554
O1 Ti1 2.034464 1_455
O1 Ti1 2.034474 1_545
O1 Ti0 2.060825 1_555
O2 Ti0 2.039732 1_565
O2 Ti0 2.039749 1_655
O2 Ti1 2.052277 1_555
O3 Ti1 1.901189 1_555
O3 Ti2 2.027452 1_455
O3 Ti2 2.027453 1_545
O4 Ti1 1.987254 1_565
O4 Ti1 1.987261 1_655
O4 Ti2 2.090895 1_555
O5 Ti2 1.908881 1_555
O5 Ti3 2.017631 1_545
O5 Ti3 2.017635 1_455
O6 Ti2 1.950900 1_655
O6 Ti2 1.950915 1_565
O6 Ti3 2.042508 1_555
O7 Ti3 1.932864 1_555
O7 Ti4 1.996506 1_545
O7 Ti4 1.996512 1_455
O8 Ti3 1.961065 1_655
O8 Ti3 1.961075 1_565
O8 Ti4 2.001086 1_555
O9 Ti4 1.965603 1_555
O9 Ti5 1.979954 1_545
O9 Ti5 1.979956 1_455
O10 Ti5 1.963401 1_555
O10 Ti4 1.981033 1_655
O10 Ti4 1.981043 1_565
O11 Ti6 1.960678 1_455
O11 Ti6 1.960695 1_545
O11 Ti5 2.002041 1_555
O12 Ti6 1.932080 1_555
O12 Ti5 1.997041 1_655
O12 Ti5 1.997046 1_565
O13 Ti7 1.948999 1_455
O13 Ti7 1.949009 1_545
O13 Ti6 2.040109 1_555
O14 Ti7 1.905906 1_555
O14 Ti6 2.016805 1_565
O14 Ti6 2.016808 1_655
O15 Ti8 1.983387 1_455
O15 Ti8 1.983397 1_545
O15 Ti7 2.094598 1_555
O16 Ti8 1.896926 1_555
O16 Ti7 2.029576 1_655
O16 Ti7 2.029580 1_565
O17 Ti9 2.043225 1_545
O17 Ti9 2.043235 1_455
O17 Ti8 2.060754 1_555
O18 Ti8 2.040635 1_565
O18 Ti8 2.040643 1_655
O18 Ti9 2.063803 1_555
O19 Ti9 1.974662 1_555
O19 Ti10 2.029124 1_545
O19 Ti10 2.029135 1_455
O20 Ti9 2.007624 1_565
O20 Ti9 2.007624 1_655
O20 Ti10 2.023147 1_555
O21 Ti11 2.076133 1_455
O21 Ti11 2.076134 1_545
O21 Ti10 2.092514 1_555
O22 Ti11 2.035984 1_555
O22 Ti10 2.045042 1_655
O22 Ti10 2.045042 1_565
O23 Ti11 2.057782 1_555
O23 Ti12 2.096339 1_545
O23 Ti12 2.096350 1_455
O24 Ti11 2.079253 1_565
O24 Ti11 2.079253 1_655
O24 Ti12 2.090524 1_555
O25 Ti12 2.061508 1_555
O25 Ti13 2.085286 1_545
O25 Ti13 2.085286 1_455
O26 Ti12 2.075918 1_565
O26 Ti12 2.075931 1_655
O26 Ti13 2.082044 1_555
O27 Ti14 2.081931 1_455
O27 Ti14 2.081935 1_545
O27 Ti13 2.087712 1_555
O28 Ti14 2.066362 1_555
O28 Ti13 2.093994 1_565
O28 Ti13 2.094001 1_655
O29 Ti14 2.081350 1_555
O29 Ti15 2.091396 1_545
O29 Ti15 2.091401 1_455
O30 Ti15 2.082547 1_555
O30 Ti14 2.090694 1_565
O30 Ti14 2.090700 1_655
O31 Ti15 2.062004 1_555
O31 Ti16 2.090777 1_545
O31 Ti16 2.090777 1_455
O32 Ti16 2.077523 1_555
O32 Ti15 2.083388 1_655
O32 Ti15 2.083394 1_565
O33 Ti17 2.077821 1_545
O33 Ti17 2.077836 1_455
O33 Ti16 2.089640 1_555
O34 Ti17 2.056933 1_555
O34 Ti16 2.092966 1_565
O34 Ti16 2.092971 1_655
O35 Ti18 2.080806 1_545
O35 Ti18 2.080826 1_455
O35 Ti17 2.091289 1_555
O36 Ti18 2.057848 1_555
O36 Ti17 2.095729 1_655
O36 Ti17 2.095731 1_565
O37 Ti18 2.024439 1_555
O37 Ti19 2.046107 1_455
O37 Ti19 2.046112 1_545
O38 Ti18 2.071258 1_565
O38 Ti18 2.071278 1_655
O38 Ti19 2.099101 1_555
O39 Ti0 1.982127 1_556
O39 Ti19 2.030198 1_655
O39 Ti19 2.030213 1_565
