# generated using pymatgen
data_Fe8H10O17
_symmetry_space_group_name_H-M   'P 1'
_cell_length_a   10.85349026
_cell_length_b   5.91661728
_cell_length_c   10.85244632
_cell_angle_alpha   90.61866992
_cell_angle_beta   90.88141244
_cell_angle_gamma   88.79874723
_symmetry_Int_Tables_number   1
_chemical_formula_structural   Fe8H10O17
_chemical_formula_sum   'Fe16 H20 O34'
_cell_volume   696.62627709
_cell_formula_units_Z   2
loop_
 _symmetry_equiv_pos_site_id
 _symmetry_equiv_pos_as_xyz
  1  'x, y, z'
loop_
 _atom_site_type_symbol
 _atom_site_label
 _atom_site_symmetry_multiplicity
 _atom_site_fract_x
 _atom_site_fract_y
 _atom_site_fract_z
 _atom_site_occupancy
  Fe  Fe0  1  0.33150000  0.01494300  0.07706600  1
  Fe  Fe1  1  0.14831100  0.03557000  0.63022700  1
  Fe  Fe2  1  0.83883700  0.28873900  0.58782400  1
  Fe  Fe3  1  0.71253400  0.23289300  0.07385200  1
  Fe  Fe4  1  0.68852600  0.99476500  0.79691700  1
  Fe  Fe5  1  0.88451900  0.99565500  0.24816800  1
  Fe  Fe6  1  0.15348700  0.26578700  0.34097000  1
  Fe  Fe7  1  0.33747000  0.27446500  0.78999800  1
  Fe  Fe8  1  0.33138600  0.48565800  0.07416000  1
  Fe  Fe9  1  0.14118100  0.53715800  0.62759600  1
  Fe  Fe10  1  0.81007100  0.78971800  0.52725200  1
  Fe  Fe11  1  0.88843500  0.69467200  0.95537600  1
  Fe  Fe12  1  0.68384800  0.46784100  0.80474600  1
  Fe  Fe13  1  0.87303500  0.50393800  0.25855800  1
  Fe  Fe14  1  0.16148600  0.77321600  0.34022000  1
  Fe  Fe15  1  0.35378000  0.77453300  0.78726000  1
  H  H0  1  0.31464300  0.07657500  0.27369700  1
  H  H1  1  0.38680500  0.04013300  0.57916500  1
  H  H2  1  0.54037200  0.22161100  0.89994000  1
  H  H3  1  0.73323800  0.26365800  0.36332200  1
  H  H4  1  0.63590200  0.12043200  0.58224000  1
  H  H5  1  0.97941600  0.02946700  0.48214500  1
  H  H6  1  0.66719300  0.89004900  0.20734000  1
  H  H7  1  0.50985600  0.25327900  0.18191000  1
  H  H8  1  0.08547800  0.32173600  0.82760800  1
  H  H9  1  0.31257700  0.49490100  0.27761800  1
  H  H10  1  0.38304100  0.52533300  0.57918800  1
  H  H11  1  0.55346500  0.74236100  0.90663100  1
  H  H12  1  0.74725500  0.62425300  0.67256500  1
  H  H13  1  0.98113400  0.52907600  0.47472200  1
  H  H14  1  0.13472500  0.76106700  0.07679700  1
  H  H15  1  0.52680900  0.72246500  0.12577200  1
  H  H16  1  0.09763700  0.85369100  0.83106600  1
  H  H17  1  0.00631300  0.37903900  0.01783900  1
  H  H18  1  0.98946500  0.07313900  0.95871200  1
  H  H19  1  0.70379900  0.60140400  0.13215400  1
  O  O0  1  0.28158100  0.03611200  0.35399200  1
  O  O1  1  0.04047800  0.02715800  0.32109800  1
  O  O2  1  0.35073900  0.03022600  0.66041200  1
  O  O3  1  0.34528600  0.02199500  0.90150500  1
  O  O4  1  0.79292900  0.23370900  0.76533600  1
  O  O5  1  0.55815000  0.23639100  0.81152200  1
  O  O6  1  0.89843200  0.24976100  0.15412900  1
  O  O7  1  0.81725800  0.29591100  0.39133500  1
  O  O8  1  0.67564900  0.98109300  0.61109200  1
  O  O9  1  0.94272700  0.01900600  0.56546400  1
  O  O10  1  0.70180900  0.04012000  0.21656700  1
  O  O11  1  0.71098200  0.01088700  0.96339400  1
  O  O12  1  0.23421600  0.25719200  0.15515700  1
  O  O13  1  0.47815200  0.24469400  0.09734200  1
  O  O14  1  0.14304400  0.28746600  0.75539300  1
  O  O15  1  0.14778500  0.26887700  0.51493500  1
  O  O16  1  0.27352200  0.50532000  0.35802200  1
  O  O17  1  0.03645400  0.50286200  0.32154400  1
  O  O18  1  0.34089400  0.52455500  0.65773600  1
  O  O19  1  0.34226400  0.52486300  0.90003100  1
  O  O20  1  0.79403700  0.72609800  0.79482800  1
  O  O21  1  0.56265500  0.73984500  0.81697500  1
  O  O22  1  0.89495600  0.71905300  0.13522800  1
  O  O23  1  0.83547000  0.76295800  0.35995900  1
  O  O24  1  0.70487500  0.53099200  0.60395300  1
  O  O25  1  0.95411000  0.54574100  0.56257500  1
  O  O26  1  0.70978700  0.47097400  0.96901500  1
  O  O27  1  0.21126000  0.75588600  0.12646700  1
  O  O28  1  0.43799900  0.74336100  0.13183400  1
  O  O29  1  0.15116500  0.80636700  0.75538500  1
  O  O30  1  0.15930500  0.80115000  0.51860200  1
  O  O31  1  0.99834500  0.43882200  0.93394500  1
  O  O32  1  0.01293900  0.91792600  0.93476700  1
  O  O33  1  0.70018700  0.48875200  0.19782500  1
loop_
_geom_bond_atom_site_label_1
_geom_bond_atom_site_label_2
_geom_bond_distance
_geom_bond_site_symmetry_2
Fe0 O3 1.914398 1_554
Fe0 O12 1.955828 1_555
Fe0 O28 2.047660 1_545
Fe0 O27 2.112569 1_545
Fe0 O13 2.122074 1_555
Fe0 H0 2.170830 1_555
Fe1 O30 1.834845 1_545
Fe1 O15 1.872900 1_555
Fe1 O29 1.929146 1_545
Fe1 O14 2.006168 1_555
Fe1 O2 2.215967 1_555
Fe1 O9 2.332753 1_455
Fe2 O9 1.949826 1_555
Fe2 O25 2.012921 1_555
Fe2 O24 2.028314 1_555
Fe2 O4 2.028626 1_555
Fe2 O7 2.142405 1_555
Fe3 O11 1.768873 1_554
Fe3 O26 1.819723 1_554
Fe3 O10 1.939717 1_555
Fe3 O33 2.018117 1_555
Fe3 O6 2.189136 1_555
Fe4 O11 1.821074 1_565
Fe4 O4 1.868075 1_565
Fe4 O20 1.939700 1_555
Fe4 O5 1.997101 1_565
Fe4 O8 2.020212 1_555
Fe4 O21 2.071525 1_555
Fe5 O6 1.836323 1_565
Fe5 O1 1.869551 1_665
Fe5 O23 1.933251 1_555
Fe5 O10 2.019512 1_565
Fe5 O22 2.036316 1_555
Fe5 O7 2.454345 1_565
Fe6 O17 1.883840 1_555
Fe6 O15 1.889790 1_555
Fe6 O1 1.897948 1_555
Fe6 O0 1.928292 1_555
Fe6 O16 1.950485 1_555
Fe6 O12 2.210645 1_555
Fe7 O19 1.893841 1_555
Fe7 O3 1.932228 1_555
Fe7 O2 2.010058 1_555
Fe7 O18 2.073872 1_555
Fe7 O14 2.137601 1_555
Fe7 O5 2.409013 1_555
Fe8 O19 1.912142 1_554
Fe8 O12 1.956040 1_555
Fe8 O28 2.021528 1_555
Fe8 O27 2.119939 1_555
Fe8 O13 2.129200 1_555
Fe8 H9 2.220540 1_555
Fe9 O30 1.984295 1_555
Fe9 O15 1.993889 1_555
Fe9 O14 2.036804 1_555
Fe9 O29 2.104035 1_555
Fe9 O25 2.138993 1_455
Fe9 O18 2.186985 1_555
Fe10 O23 1.845156 1_555
Fe10 H12 2.001144 1_555
Fe10 O9 2.033889 1_565
Fe10 O8 2.046413 1_555
Fe10 O24 2.114188 1_555
Fe10 O25 2.138592 1_555
Fe11 O31 1.921933 1_555
Fe11 O32 1.926489 1_655
Fe11 O22 1.955907 1_556
Fe11 O20 2.015962 1_555
Fe11 O26 2.377785 1_555
Fe11 O11 2.658552 1_565
Fe12 O26 1.800488 1_555
Fe12 O4 1.854065 1_555
Fe12 H12 1.863738 1_555
Fe12 O5 1.955881 1_555
Fe12 O20 1.964888 1_555
Fe12 O21 2.061502 1_555
Fe13 O22 1.878081 1_555
Fe13 O17 1.890899 1_655
Fe13 O6 1.891406 1_555
Fe13 O23 1.917557 1_555
Fe13 O33 1.982329 1_555
Fe13 O7 2.013484 1_555
Fe14 O30 1.941610 1_555
Fe14 O1 1.985202 1_565
Fe14 O16 1.986669 1_555
Fe14 O0 2.052987 1_565
Fe14 O17 2.125283 1_555
Fe14 O27 2.390535 1_555
Fe15 O3 1.909987 1_565
Fe15 O19 1.935723 1_555
Fe15 O18 2.034861 1_555
Fe15 O2 2.055799 1_565
Fe15 O29 2.225247 1_555
Fe15 O21 2.290183 1_555
H0 O0 0.981397 1_555
H1 O2 0.973039 1_555
H2 O5 0.986830 1_555
H3 O7 0.978740 1_555
H4 O8 0.974838 1_545
H5 O9 0.996655 1_555
H6 O10 0.974925 1_565
H7 O13 0.976369 1_555
H8 O14 1.025670 1_555
H8 O31 1.641599 1_455
H9 O16 0.976727 1_555
H10 O18 0.973702 1_555
H11 O21 0.979533 1_555
H12 O24 1.030397 1_555
H12 O20 1.535018 1_555
H13 O25 1.005047 1_555
H14 O27 0.983379 1_555
H15 O28 0.972364 1_555
H16 O29 1.045651 1_555
H16 O32 1.504655 1_555
H17 O31 0.982227 1_454
H18 O32 0.981251 1_645
H19 O33 0.982815 1_555
