# generated using pymatgen
data_CdH12C2(NCl2)2
_symmetry_space_group_name_H-M   'P 1'
_cell_length_a   10.57383394
_cell_length_b   10.57383394
_cell_length_c   7.53712200
_cell_angle_alpha   90.00000000
_cell_angle_beta   90.00000000
_cell_angle_gamma   138.15224099
_symmetry_Int_Tables_number   1
_chemical_formula_structural   CdH12C2(NCl2)2
_chemical_formula_sum   'Cd2 H24 C4 N4 Cl8'
_cell_volume   562.20715752
_cell_formula_units_Z   2
loop_
 _symmetry_equiv_pos_site_id
 _symmetry_equiv_pos_as_xyz
  1  'x, y, z'
loop_
 _atom_site_type_symbol
 _atom_site_label
 _atom_site_symmetry_multiplicity
 _atom_site_fract_x
 _atom_site_fract_y
 _atom_site_fract_z
 _atom_site_occupancy
  Cd  Cd0  1  0.50000000  0.50000000  0.50000000  1
  Cd  Cd1  1  0.00000000  0.00000000  0.00000000  1
  H  H0  1  0.97902000  0.80140800  0.52940400  1
  H  H1  1  0.80140800  0.97902000  0.47059600  1
  H  H2  1  0.30140800  0.47902000  0.02940400  1
  H  H3  1  0.47902000  0.30140800  0.97059600  1
  H  H4  1  0.02098000  0.19859200  0.47059600  1
  H  H5  1  0.19859200  0.02098000  0.52940400  1
  H  H6  1  0.69859200  0.52098000  0.97059600  1
  H  H7  1  0.52098000  0.69859200  0.02940400  1
  H  H8  1  0.11026400  0.88973600  0.34025100  1
  H  H9  1  0.88973600  0.11026400  0.65974900  1
  H  H10  1  0.38973600  0.61026400  0.84025100  1
  H  H11  1  0.61026400  0.38973600  0.15974900  1
  H  H12  1  0.09159600  0.67115700  0.48260600  1
  H  H13  1  0.67115700  0.09159600  0.51739400  1
  H  H14  1  0.17115700  0.59159600  0.98260600  1
  H  H15  1  0.59159600  0.17115700  0.01739400  1
  H  H16  1  0.90840400  0.32884300  0.51739400  1
  H  H17  1  0.32884300  0.90840400  0.48260600  1
  H  H18  1  0.82884300  0.40840400  0.01739400  1
  H  H19  1  0.40840400  0.82884300  0.98260600  1
  H  H20  1  0.18702700  0.81297300  0.68120400  1
  H  H21  1  0.81297300  0.18702700  0.31879600  1
  H  H22  1  0.31297300  0.68702700  0.18120400  1
  H  H23  1  0.68702700  0.31297300  0.81879600  1
  C  C0  1  0.18575800  0.81424200  0.53582900  1
  C  C1  1  0.81424200  0.18575800  0.46417100  1
  C  C2  1  0.31424200  0.68575800  0.03582900  1
  C  C3  1  0.68575800  0.31424200  0.96417100  1
  N  N0  1  0.11373200  0.88626800  0.47954000  1
  N  N1  1  0.88626800  0.11373200  0.52046000  1
  N  N2  1  0.38626800  0.61373200  0.97954000  1
  N  N3  1  0.61373200  0.38626800  0.02046000  1
  Cl  Cl0  1  0.26927900  0.23072100  0.75000000  1
  Cl  Cl1  1  0.23072100  0.26927900  0.25000000  1
  Cl  Cl2  1  0.73072100  0.76927900  0.25000000  1
  Cl  Cl3  1  0.76927900  0.73072100  0.75000000  1
  Cl  Cl4  1  0.62874200  0.37125800  0.44229300  1
  Cl  Cl5  1  0.37125800  0.62874200  0.55770700  1
  Cl  Cl6  1  0.87125800  0.12874200  0.94229300  1
  Cl  Cl7  1  0.12874200  0.87125800  0.05770700  1
loop_
_geom_bond_atom_site_label_1
_geom_bond_atom_site_label_2
_geom_bond_distance
_geom_bond_site_symmetry_2
Cd0 Cl4 2.579980 1_555
Cd0 Cl5 2.579980 1_555
Cd0 Cl0 2.694526 1_555
Cd0 Cl3 2.694526 1_555
Cd0 Cl1 2.694526 1_555
Cd0 Cl2 2.694526 1_555
Cd1 Cl6 2.579980 1_454
Cd1 Cl7 2.579980 1_545
Cd1 Cl1 2.694526 1_555
Cd1 Cl3 2.694526 1_444
Cd1 Cl2 2.694526 1_445
Cd1 Cl0 2.694526 1_554
H0 N0 1.034969 1_655
H1 N1 1.034969 1_565
H2 N2 1.034969 1_554
H3 N3 1.034969 1_556
H4 N1 1.034969 1_455
H5 N0 1.034969 1_545
H6 N3 1.034969 1_556
H7 N2 1.034969 1_554
H8 N0 1.052071 1_555
H9 N1 1.052071 1_555
H10 N2 1.052071 1_555
H11 N3 1.052071 1_555
C0 H17 1.094083 1_555
C0 H12 1.094083 1_555
C0 H20 1.095996 1_555
C0 N0 1.484646 1_555
C1 H16 1.094083 1_555
C1 H13 1.094083 1_555
C1 H21 1.095996 1_555
C1 N1 1.484646 1_555
C2 H14 1.094083 1_554
C2 H19 1.094083 1_554
C2 H22 1.095996 1_555
C2 N2 1.484646 1_554
C3 H15 1.094083 1_556
C3 H18 1.094083 1_556
C3 H23 1.095996 1_555
C3 N3 1.484646 1_556
