# generated using pymatgen
data_K2Ca(CO3)2
_symmetry_space_group_name_H-M   'P 1'
_cell_length_a   6.73169622
_cell_length_b   6.73169622
_cell_length_c   6.73169630
_cell_angle_alpha   47.20949245
_cell_angle_beta   47.20949245
_cell_angle_gamma   47.20949120
_symmetry_Int_Tables_number   1
_chemical_formula_structural   K2Ca(CO3)2
_chemical_formula_sum   'K2 Ca1 C2 O6'
_cell_volume   150.23687544
_cell_formula_units_Z   1
loop_
 _symmetry_equiv_pos_site_id
 _symmetry_equiv_pos_as_xyz
  1  'x, y, z'
loop_
 _atom_site_type_symbol
 _atom_site_label
 _atom_site_symmetry_multiplicity
 _atom_site_fract_x
 _atom_site_fract_y
 _atom_site_fract_z
 _atom_site_occupancy
  K  K0  1  0.20918015  0.20918015  0.20918015  1
  K  K1  1  0.79081985  0.79081985  0.79081985  1
  Ca  Ca0  1  -0.00000000  0.00000000  -0.00000000  1
  C  C0  1  0.58737900  0.58737900  0.58737900  1
  C  C1  1  0.41262100  0.41262100  0.41262100  1
  O  O0  1  0.27462029  0.68987006  0.27462029  1
  O  O1  1  0.27462029  0.27462029  0.68987006  1
  O  O2  1  0.68987006  0.27462029  0.27462029  1
  O  O3  1  0.31012994  0.72537971  0.72537971  1
  O  O4  1  0.72537971  0.72537971  0.31012994  1
  O  O5  1  0.72537971  0.31012994  0.72537971  1
loop_
_geom_bond_atom_site_label_1
_geom_bond_atom_site_label_2
_geom_bond_distance
_geom_bond_site_symmetry_2
K0 O4 2.822950 1_545
K0 O4 2.822950 1_455
K0 O5 2.822950 1_455
K0 O3 2.822950 1_545
K0 O3 2.822950 1_554
K0 O5 2.822950 1_554
K0 O2 2.947551 1_455
K0 O0 2.947551 1_545
K0 O1 2.947551 1_554
K1 O1 2.822950 1_655
K1 O1 2.822950 1_565
K1 O2 2.822950 1_565
K1 O0 2.822950 1_655
K1 O0 2.822950 1_556
K1 O2 2.822950 1_556
K1 O5 2.947551 1_565
K1 O3 2.947551 1_655
K1 O4 2.947551 1_556
Ca0 O3 2.312919 1_544
Ca0 O2 2.312919 1_455
Ca0 O0 2.312919 1_545
Ca0 O5 2.312919 1_454
Ca0 O1 2.312919 1_554
Ca0 O4 2.312919 1_445
C0 O3 1.292503 1_555
C0 O5 1.292503 1_555
C0 O4 1.292503 1_555
C1 O0 1.292503 1_555
C1 O2 1.292503 1_555
C1 O1 1.292503 1_555
