# generated using pymatgen
data_NaCa2Al4H8C4ClO20
_symmetry_space_group_name_H-M   'P 1'
_cell_length_a   11.32833500
_cell_length_b   11.32833500
_cell_length_c   6.61888900
_cell_angle_alpha   90.00000000
_cell_angle_beta   90.00000000
_cell_angle_gamma   90.00000000
_symmetry_Int_Tables_number   1
_chemical_formula_structural   NaCa2Al4H8C4ClO20
_chemical_formula_sum   'Na2 Ca4 Al8 H16 C8 Cl2 O40'
_cell_volume   849.40979510
_cell_formula_units_Z   2
loop_
 _symmetry_equiv_pos_site_id
 _symmetry_equiv_pos_as_xyz
  1  'x, y, z'
loop_
 _atom_site_type_symbol
 _atom_site_label
 _atom_site_symmetry_multiplicity
 _atom_site_fract_x
 _atom_site_fract_y
 _atom_site_fract_z
 _atom_site_occupancy
  Na  Na0  1  0.00000000  0.50000000  0.06741700  1
  Na  Na1  1  0.50000000  0.00000000  0.93258300  1
  Ca  Ca0  1  0.75000000  0.25000000  0.00000000  1
  Ca  Ca1  1  0.25000000  0.25000000  0.00000000  1
  Ca  Ca2  1  0.75000000  0.75000000  0.00000000  1
  Ca  Ca3  1  0.25000000  0.75000000  0.00000000  1
  Al  Al0  1  0.34507100  0.65492900  0.50000000  1
  Al  Al1  1  0.65492900  0.65492900  0.50000000  1
  Al  Al2  1  0.34507100  0.34507100  0.50000000  1
  Al  Al3  1  0.65492900  0.34507100  0.50000000  1
  Al  Al4  1  0.15492900  0.84507100  0.50000000  1
  Al  Al5  1  0.84507100  0.84507100  0.50000000  1
  Al  Al6  1  0.15492900  0.15492900  0.50000000  1
  Al  Al7  1  0.84507100  0.15492900  0.50000000  1
  H  H0  1  0.68955300  0.50000000  0.26199100  1
  H  H1  1  0.31044700  0.50000000  0.26199100  1
  H  H2  1  0.00000000  0.18955300  0.26199100  1
  H  H3  1  0.00000000  0.81044700  0.26199100  1
  H  H4  1  0.81044700  0.00000000  0.73800900  1
  H  H5  1  0.18955300  0.00000000  0.73800900  1
  H  H6  1  0.50000000  0.31044700  0.73800900  1
  H  H7  1  0.50000000  0.68955300  0.73800900  1
  H  H8  1  0.12862400  0.62862400  0.42120700  1
  H  H9  1  0.87137600  0.62862400  0.42120700  1
  H  H10  1  0.12862400  0.37137600  0.42120700  1
  H  H11  1  0.87137600  0.37137600  0.42120700  1
  H  H12  1  0.37137600  0.87137600  0.57879300  1
  H  H13  1  0.62862400  0.87137600  0.57879300  1
  H  H14  1  0.37137600  0.12862400  0.57879300  1
  H  H15  1  0.62862400  0.12862400  0.57879300  1
  C  C0  1  0.26438100  0.50000000  0.84396000  1
  C  C1  1  0.73561900  0.50000000  0.84396000  1
  C  C2  1  0.00000000  0.76438100  0.84396000  1
  C  C3  1  0.00000000  0.23561900  0.84396000  1
  C  C4  1  0.23561900  0.00000000  0.15604000  1
  C  C5  1  0.76438100  0.00000000  0.15604000  1
  C  C6  1  0.50000000  0.73561900  0.15604000  1
  C  C7  1  0.50000000  0.26438100  0.15604000  1
  Cl  Cl0  1  0.00000000  0.50000000  0.52229900  1
  Cl  Cl1  1  0.50000000  0.00000000  0.47770100  1
  O  O0  1  0.65776900  0.50000000  0.40003000  1
  O  O1  1  0.34223100  0.50000000  0.40003000  1
  O  O2  1  0.00000000  0.15776900  0.40003000  1
  O  O3  1  0.00000000  0.84223100  0.40003000  1
  O  O4  1  0.84223100  0.00000000  0.59997000  1
  O  O5  1  0.15776900  0.00000000  0.59997000  1
  O  O6  1  0.50000000  0.34223100  0.59997000  1
  O  O7  1  0.50000000  0.65776900  0.59997000  1
  O  O8  1  0.18889500  0.68889500  0.39194700  1
  O  O9  1  0.81110500  0.68889500  0.39194700  1
  O  O10  1  0.18889500  0.31110500  0.39194700  1
  O  O11  1  0.81110500  0.31110500  0.39194700  1
  O  O12  1  0.31110500  0.81110500  0.60805300  1
  O  O13  1  0.68889500  0.81110500  0.60805300  1
  O  O14  1  0.31110500  0.18889500  0.60805300  1
  O  O15  1  0.68889500  0.18889500  0.60805300  1
  O  O16  1  0.39981500  0.71085000  0.24081300  1
  O  O17  1  0.60018500  0.71085000  0.24081300  1
  O  O18  1  0.39981500  0.28915000  0.24081300  1
  O  O19  1  0.60018500  0.28915000  0.24081300  1
  O  O20  1  0.21085000  0.89981500  0.24081300  1
  O  O21  1  0.78915000  0.89981500  0.24081300  1
  O  O22  1  0.21085000  0.10018500  0.24081300  1
  O  O23  1  0.78915000  0.10018500  0.24081300  1
  O  O24  1  0.10018500  0.78915000  0.75918700  1
  O  O25  1  0.89981500  0.78915000  0.75918700  1
  O  O26  1  0.10018500  0.21085000  0.75918700  1
  O  O27  1  0.89981500  0.21085000  0.75918700  1
  O  O28  1  0.28915000  0.60018500  0.75918700  1
  O  O29  1  0.71085000  0.60018500  0.75918700  1
  O  O30  1  0.28915000  0.39981500  0.75918700  1
  O  O31  1  0.71085000  0.39981500  0.75918700  1
  O  O32  1  0.21598100  0.50000000  0.01944600  1
  O  O33  1  0.78401900  0.50000000  0.01944600  1
  O  O34  1  0.00000000  0.71598100  0.01944600  1
  O  O35  1  0.00000000  0.28401900  0.01944600  1
  O  O36  1  0.28401900  0.00000000  0.98055400  1
  O  O37  1  0.71598100  0.00000000  0.98055400  1
  O  O38  1  0.50000000  0.78401900  0.98055400  1
  O  O39  1  0.50000000  0.21598100  0.98055400  1
loop_
_geom_bond_atom_site_label_1
_geom_bond_atom_site_label_2
_geom_bond_distance
_geom_bond_site_symmetry_2
Na0 O35 2.467221 1_555
Na0 O33 2.467221 1_455
Na0 O34 2.467221 1_555
Na0 O32 2.467221 1_555
Na1 O37 2.467221 1_555
Na1 O38 2.467221 1_545
Na1 O36 2.467221 1_555
Na1 O39 2.467221 1_555
Ca0 O31 2.370146 1_554
Ca0 O23 2.370146 1_555
Ca0 O19 2.370146 1_555
Ca0 O27 2.370146 1_554
Ca0 O11 2.772811 1_555
Ca0 O15 2.772811 1_554
Ca0 O33 2.861080 1_555
Ca0 O37 2.861080 1_554
Ca0 O35 2.861080 1_655
Ca0 O39 2.861080 1_554
Ca1 O22 2.370146 1_555
Ca1 O26 2.370146 1_554
Ca1 O30 2.370146 1_554
Ca1 O18 2.370146 1_555
Ca1 O14 2.772811 1_554
Ca1 O10 2.772811 1_555
Ca1 O35 2.861080 1_555
Ca1 O36 2.861080 1_554
Ca1 O32 2.861080 1_555
Ca1 O39 2.861080 1_554
Ca2 O25 2.370146 1_554
Ca2 O29 2.370146 1_554
Ca2 O21 2.370146 1_555
Ca2 O17 2.370146 1_555
Ca2 O9 2.772811 1_555
Ca2 O13 2.772811 1_554
Ca2 O33 2.861080 1_555
Ca2 O34 2.861080 1_655
Ca2 O38 2.861080 1_554
Ca2 O37 2.861080 1_564
Ca3 O16 2.370146 1_555
Ca3 O20 2.370146 1_555
Ca3 O24 2.370146 1_554
Ca3 O28 2.370146 1_554
Ca3 O8 2.772811 1_555
Ca3 O12 2.772811 1_554
Ca3 O36 2.861080 1_564
Ca3 O34 2.861080 1_555
Ca3 O38 2.861080 1_554
Ca3 O32 2.861080 1_555
Al0 O7 1.875954 1_555
Al0 O1 1.875954 1_555
Al0 O16 1.931049 1_555
Al0 O28 1.931049 1_555
Al0 O12 1.946708 1_555
Al0 O8 1.946708 1_555
Al1 O7 1.875954 1_555
Al1 O0 1.875954 1_555
Al1 O29 1.931049 1_555
Al1 O17 1.931049 1_555
Al1 O9 1.946708 1_555
Al1 O13 1.946708 1_555
Al2 O6 1.875954 1_555
Al2 O1 1.875954 1_555
Al2 O30 1.931049 1_555
Al2 O18 1.931049 1_555
Al2 O14 1.946708 1_555
Al2 O10 1.946708 1_555
Al3 O6 1.875954 1_555
Al3 O0 1.875954 1_555
Al3 O31 1.931049 1_555
Al3 O19 1.931049 1_555
Al3 O11 1.946708 1_555
Al3 O15 1.946708 1_555
Al4 O5 1.875954 1_565
Al4 O3 1.875954 1_555
Al4 O24 1.931049 1_555
Al4 O20 1.931049 1_555
Al4 O8 1.946708 1_555
Al4 O12 1.946708 1_555
Al5 O4 1.875954 1_565
Al5 O3 1.875954 1_655
Al5 O25 1.931049 1_555
Al5 O21 1.931049 1_555
Al5 O9 1.946708 1_555
Al5 O13 1.946708 1_555
Al6 O5 1.875954 1_555
Al6 O2 1.875954 1_555
Al6 O26 1.931049 1_555
Al6 O22 1.931049 1_555
Al6 O14 1.946708 1_555
Al6 O10 1.946708 1_555
Al7 O2 1.875954 1_655
Al7 O4 1.875954 1_555
Al7 O27 1.931049 1_555
Al7 O23 1.931049 1_555
Al7 O15 1.946708 1_555
Al7 O11 1.946708 1_555
H0 O0 0.982052 1_555
H1 O1 0.982052 1_555
H2 O2 0.982052 1_555
H3 O3 0.982052 1_555
H4 O4 0.982052 1_555
H5 O5 0.982052 1_555
H6 O6 0.982052 1_555
H7 O7 0.982052 1_555
H8 O8 0.984813 1_555
H9 O9 0.984813 1_555
H10 O10 0.984813 1_555
H11 O11 0.984813 1_555
H12 O12 0.984813 1_555
H13 O13 0.984813 1_555
H14 O14 0.984813 1_555
H15 O15 0.984813 1_555
C0 O32 1.284429 1_556
C0 O28 1.296778 1_555
C0 O30 1.296778 1_555
C1 O33 1.284429 1_556
C1 O29 1.296778 1_555
C1 O31 1.296778 1_555
C2 O34 1.284429 1_556
C2 O25 1.296778 1_455
C2 O24 1.296778 1_555
C3 O35 1.284429 1_556
C3 O27 1.296778 1_455
C3 O26 1.296778 1_555
C4 O36 1.284429 1_554
C4 O20 1.296778 1_545
C4 O22 1.296778 1_555
C5 O37 1.284429 1_554
C5 O21 1.296778 1_545
C5 O23 1.296778 1_555
C6 O38 1.284429 1_554
C6 O17 1.296778 1_555
C6 O16 1.296778 1_555
C7 O39 1.284429 1_554
C7 O19 1.296778 1_555
C7 O18 1.296778 1_555
