# generated using pymatgen
data_Sr2Co2O5
_symmetry_space_group_name_H-M   'P 1'
_cell_length_a   5.61614700
_cell_length_b   5.64496100
_cell_length_c   5.66487719
_cell_angle_alpha   117.73189217
_cell_angle_beta   119.26227321
_cell_angle_gamma   91.57069048
_symmetry_Int_Tables_number   1
_chemical_formula_structural   Sr2Co2O5
_chemical_formula_sum   'Sr2 Co2 O5'
_cell_volume   130.90723280
_cell_formula_units_Z   1
loop_
 _symmetry_equiv_pos_site_id
 _symmetry_equiv_pos_as_xyz
  1  'x, y, z'
loop_
 _atom_site_type_symbol
 _atom_site_label
 _atom_site_symmetry_multiplicity
 _atom_site_fract_x
 _atom_site_fract_y
 _atom_site_fract_z
 _atom_site_occupancy
  Sr  Sr0  1  0.34700000  0.89114400  0.61006200  1
  Sr  Sr1  1  0.83864100  0.39105900  0.60935400  1
  Co  Co0  1  0.09805100  0.08912800  0.07097000  1
  Co  Co1  1  0.62901000  0.68852800  0.16204900  1
  O  O0  1  0.34821800  0.41694000  0.24718700  1
  O  O1  1  0.83367700  0.89163100  0.61604200  1
  O  O2  1  0.69106400  0.37900000  0.95310700  1
  O  O3  1  0.30992600  0.80990300  0.00849300  1
  O  O4  1  0.92171100  0.99432700  0.23172200  1
loop_
_geom_bond_atom_site_label_1
_geom_bond_atom_site_label_2
_geom_bond_distance
_geom_bond_site_symmetry_2
Co0 O0 1.778182 1_555
Co0 O4 1.844613 1_445
Co0 O1 1.893018 1_444
Co0 O3 2.005238 1_545
Co1 O2 1.757074 1_554
Co1 O3 1.880297 1_555
Co1 O1 1.882425 1_555
Co1 O4 2.100938 1_555
Co1 O0 2.523688 1_555
O0 Sr0 2.506968 1_555
O0 Sr1 2.567753 1_555
O1 Sr0 2.716761 1_555
O1 Sr1 2.809371 1_555
O1 Sr1 2.836639 1_565
O1 Sr0 2.899668 1_655
O2 Sr0 2.480112 1_545
O2 Sr1 2.486309 1_555
O3 Sr1 2.557175 1_454
O3 Sr0 2.601063 1_554
O3 Sr0 3.116646 1_555
O4 Sr1 2.526606 1_565
O4 Sr0 2.621296 1_655
O4 Sr0 3.167753 1_554
