# generated using pymatgen
data_Ba2NdSbO6
_symmetry_space_group_name_H-M   'P 1'
_cell_length_a   6.11480625
_cell_length_b   6.11480625
_cell_length_c   6.11480610
_cell_angle_alpha   60.29661560
_cell_angle_beta   60.29661560
_cell_angle_gamma   60.29661012
_symmetry_Int_Tables_number   1
_chemical_formula_structural   Ba2NdSbO6
_chemical_formula_sum   'Ba2 Nd1 Sb1 O6'
_cell_volume   162.75654477
_cell_formula_units_Z   1
loop_
 _symmetry_equiv_pos_site_id
 _symmetry_equiv_pos_as_xyz
  1  'x, y, z'
loop_
 _atom_site_type_symbol
 _atom_site_label
 _atom_site_symmetry_multiplicity
 _atom_site_fract_x
 _atom_site_fract_y
 _atom_site_fract_z
 _atom_site_occupancy
  Ba  Ba0  1  0.74906000  0.74906000  0.74906000  1
  Ba  Ba1  1  0.25094000  0.25094000  0.25094000  1
  Nd  Nd0  1  0.00000000  0.00000000  0.00000000  1
  Sb  Sb0  1  0.50000000  0.50000000  0.50000000  1
  O  O0  1  0.27011800  0.69268400  0.77101500  1
  O  O1  1  0.77101500  0.27011800  0.69268400  1
  O  O2  1  0.69268400  0.77101500  0.27011800  1
  O  O3  1  0.72988200  0.30731600  0.22898500  1
  O  O4  1  0.30731600  0.22898500  0.72988200  1
  O  O5  1  0.22898500  0.72988200  0.30731600  1
loop_
_geom_bond_atom_site_label_1
_geom_bond_atom_site_label_2
_geom_bond_distance
_geom_bond_site_symmetry_2
Ba0 O4 2.835370 1_565
Ba0 O5 2.835370 1_655
Ba0 O3 2.835370 1_556
Ba0 O2 3.046111 1_555
Ba0 O1 3.046111 1_555
Ba0 O0 3.046111 1_555
Ba0 O2 3.094846 1_556
Ba0 O0 3.094846 1_655
Ba0 O1 3.094846 1_565
Ba0 O4 3.315793 1_655
Ba0 O3 3.315794 1_565
Ba0 O5 3.315794 1_556
Ba1 O2 2.835370 1_545
Ba1 O1 2.835370 1_455
Ba1 O0 2.835370 1_554
Ba1 O4 3.046111 1_555
Ba1 O5 3.046111 1_555
Ba1 O3 3.046111 1_555
Ba1 O4 3.094846 1_554
Ba1 O3 3.094846 1_455
Ba1 O5 3.094846 1_545
Ba1 O2 3.315793 1_455
Ba1 O0 3.315794 1_545
Ba1 O1 3.315794 1_554
Nd0 O3 2.336593 1_455
Nd0 O0 2.336593 1_544
Nd0 O1 2.336593 1_454
Nd0 O5 2.336593 1_545
Nd0 O2 2.336593 1_445
Nd0 O4 2.336593 1_554
O0 Sb0 2.023756 1_555
O1 Sb0 2.023756 1_555
O2 Sb0 2.023756 1_555
O3 Sb0 2.023756 1_555
O4 Sb0 2.023756 1_555
O5 Sb0 2.023756 1_555
