# generated using pymatgen
data_Sr5La3Mn4(WO6)4
_symmetry_space_group_name_H-M   'P 1'
_cell_length_a   8.17417100
_cell_length_b   8.20516734
_cell_length_c   9.94502649
_cell_angle_alpha   114.09060705
_cell_angle_beta   114.06846434
_cell_angle_gamma   90.17286170
_symmetry_Int_Tables_number   1
_chemical_formula_structural   Sr5La3Mn4(WO6)4
_chemical_formula_sum   'Sr5 La3 Mn4 W4 O24'
_cell_volume   544.36590313
_cell_formula_units_Z   1
loop_
 _symmetry_equiv_pos_site_id
 _symmetry_equiv_pos_as_xyz
  1  'x, y, z'
loop_
 _atom_site_type_symbol
 _atom_site_label
 _atom_site_symmetry_multiplicity
 _atom_site_fract_x
 _atom_site_fract_y
 _atom_site_fract_z
 _atom_site_occupancy
  Sr  Sr0  1  0.37905800  0.39080600  0.74778800  1
  Sr  Sr1  1  0.10932500  0.62374100  0.25002700  1
  Sr  Sr2  1  0.87529900  0.88648000  0.74988200  1
  Sr  Sr3  1  0.89136800  0.37599200  0.74620300  1
  Sr  Sr4  1  0.61049500  0.12157900  0.25376000  1
  La  La0  1  0.39989100  0.87250100  0.75002600  1
  La  La1  1  0.12028200  0.10406200  0.25431200  1
  La  La2  1  0.62679600  0.61076300  0.25506600  1
  Mn  Mn0  1  0.24939500  0.74885800  0.99988000  1
  Mn  Mn1  1  0.00009500  0.00068400  0.50316900  1
  Mn  Mn2  1  0.75147400  0.25211700  0.99972200  1
  Mn  Mn3  1  0.49964200  0.49638400  0.49938400  1
  W  W0  1  0.00113300  0.50067500  0.50035000  1
  W  W1  1  0.25045200  0.25090500  0.00120500  1
  W  W2  1  0.50041500  0.99958700  0.50177000  1
  W  W3  1  0.74770000  0.75066300  0.99981900  1
  O  O0  1  0.04194000  0.27612800  0.53792700  1
  O  O1  1  0.99479600  0.23951400  0.95367300  1
  O  O2  1  0.24368800  0.45769900  0.95126500  1
  O  O3  1  0.83104300  0.91756100  0.23329100  1
  O  O4  1  0.23279200  0.95772800  0.44318700  1
  O  O5  1  0.07139200  0.65537100  0.73216800  1
  O  O6  1  0.43333700  0.83055600  0.26192500  1
  O  O7  1  0.27118000  0.55639600  0.55571300  1
  O  O8  1  0.53469500  0.78074800  0.54969900  1
  O  O9  1  0.47868100  0.74777700  0.94829100  1
  O  O10  1  0.73123800  0.96753600  0.94549300  1
  O  O11  1  0.33068200  0.41610000  0.23253500  1
  O  O12  1  0.67300500  0.58541700  0.76919600  1
  O  O13  1  0.25475400  0.04350700  0.05349600  1
  O  O14  1  0.51067200  0.26593900  0.05191100  1
  O  O15  1  0.44514700  0.21230800  0.44352500  1
  O  O16  1  0.72946600  0.45987600  0.44195000  1
  O  O17  1  0.57029200  0.15606000  0.73821700  1
  O  O18  1  0.94062800  0.33922100  0.26496700  1
  O  O19  1  0.76247900  0.04209600  0.55084100  1
  O  O20  1  0.18447100  0.07888000  0.77046000  1
  O  O21  1  0.75134600  0.53725100  0.05817500  1
  O  O22  1  0.01959400  0.77418500  0.05364700  1
  O  O23  1  0.94986200  0.71634900  0.44608400  1
loop_
_geom_bond_atom_site_label_1
_geom_bond_atom_site_label_2
_geom_bond_distance
_geom_bond_site_symmetry_2
La0 O7 2.408729 1_555
La0 O9 2.442413 1_555
La0 O20 2.457326 1_565
La0 O10 2.485575 1_555
La0 O8 2.514210 1_555
La0 O17 2.775637 1_565
La1 O18 2.422383 1_455
La1 O15 2.434553 1_555
La1 O22 2.494665 1_545
La1 O4 2.500908 1_545
La1 O13 2.535226 1_555
La1 O3 2.699844 1_445
La1 O0 2.930315 1_555
La2 O6 2.400527 1_555
La2 O23 2.425678 1_555
La2 O21 2.428988 1_555
La2 O16 2.510745 1_555
La2 O14 2.596354 1_555
La2 O11 2.775295 1_555
Mn0 O9 2.134647 1_555
Mn0 O22 2.142083 1_556
Mn0 O6 2.207553 1_556
Mn0 O5 2.227149 1_555
Mn0 O2 2.231881 1_555
Mn0 O13 2.249258 1_566
Mn1 O0 2.146043 1_555
Mn1 O23 2.157937 1_445
Mn1 O19 2.176322 1_455
Mn1 O4 2.203624 1_545
Mn1 O3 2.247900 1_445
Mn1 O20 2.254616 1_555
Mn2 O10 2.160431 1_545
Mn2 O21 2.168354 1_556
Mn2 O17 2.180852 1_555
Mn2 O1 2.209500 1_555
Mn2 O14 2.223343 1_556
Mn2 O18 2.233231 1_556
Mn3 O15 2.162153 1_555
Mn3 O7 2.162742 1_555
Mn3 O16 2.164288 1_555
Mn3 O8 2.168515 1_555
Mn3 O11 2.227548 1_555
Mn3 O12 2.243626 1_555
O0 W0 2.027227 1_555
O0 Sr0 2.554414 1_555
O0 Sr3 2.678909 1_455
O1 W1 1.938132 1_656
O1 Sr3 2.587485 1_555
O1 Sr2 2.651052 1_545
O1 Sr1 3.106159 1_656
O2 W1 1.948053 1_556
O2 Sr0 2.558108 1_555
O2 Sr3 2.642742 1_455
O3 W3 1.959339 1_554
O3 Sr4 2.476520 1_565
O4 W2 2.008860 1_555
O4 Sr1 2.514565 1_555
O5 W0 1.944924 1_555
O5 Sr2 2.484385 1_455
O5 Sr3 2.801462 1_455
O6 W2 2.035109 1_555
O6 Sr4 2.835315 1_565
O6 Sr1 3.075987 1_555
O7 W0 2.044975 1_555
O7 Sr0 2.650385 1_555
O7 Sr1 3.064774 1_555
O8 W2 2.030454 1_555
O8 Sr2 2.553823 1_555
O9 W3 2.041919 1_555
O9 Sr0 2.666742 1_555
O9 Sr4 3.082310 1_566
O10 W3 2.050256 1_555
O10 Sr2 2.535834 1_555
O11 W1 1.943798 1_555
O11 Sr1 2.498060 1_555
O12 W3 1.945676 1_555
O12 Sr3 2.494337 1_555
O12 Sr0 2.765958 1_555
O12 Sr2 3.081437 1_555
O13 W1 1.968622 1_555
O13 Sr4 2.656345 1_555
O13 Sr2 3.091726 1_444
O14 W1 1.966399 1_555
O14 Sr4 2.590249 1_555
O15 W2 2.050063 1_545
O15 Sr4 2.623400 1_555
O15 Sr0 3.051751 1_555
O16 W0 2.040954 1_655
O16 Sr4 2.532107 1_555
O16 Sr3 3.133704 1_555
O17 W2 1.984809 1_545
O17 Sr0 2.480409 1_555
O17 Sr3 3.136140 1_555
O18 W0 1.999862 1_655
O18 Sr1 2.793655 1_655
O18 Sr4 3.169673 1_555
O19 W2 1.988088 1_545
O19 Sr3 2.521545 1_555
O19 Sr2 2.642085 1_545
O19 Sr4 3.046591 1_555
O20 W1 1.972516 1_556
O20 Sr2 2.865535 1_445
O20 Sr0 3.141723 1_555
O21 W3 2.054218 1_554
O21 Sr1 2.652311 1_655
O21 Sr0 3.085607 1_554
O22 W3 2.050853 1_454
O22 Sr1 2.584793 1_555
O22 Sr3 3.214368 1_454
O23 W0 2.048944 1_655
O23 Sr1 2.635832 1_655
O23 Sr2 3.084210 1_555
