# generated using pymatgen
data_Nd3CuSiSe7
_symmetry_space_group_name_H-M   'P 1'
_cell_length_a   10.61917944
_cell_length_b   10.61917944
_cell_length_c   6.08215000
_cell_angle_alpha   90.00000000
_cell_angle_beta   90.00000000
_cell_angle_gamma   119.99999651
_symmetry_Int_Tables_number   1
_chemical_formula_structural   Nd3CuSiSe7
_chemical_formula_sum   'Nd6 Cu2 Si2 Se14'
_cell_volume   593.97708746
_cell_formula_units_Z   2
loop_
 _symmetry_equiv_pos_site_id
 _symmetry_equiv_pos_as_xyz
  1  'x, y, z'
loop_
 _atom_site_type_symbol
 _atom_site_label
 _atom_site_symmetry_multiplicity
 _atom_site_fract_x
 _atom_site_fract_y
 _atom_site_fract_z
 _atom_site_occupancy
  Nd  Nd0  1  0.77122400  0.12708100  0.24869400  1
  Nd  Nd1  1  0.35585600  0.22877600  0.24869400  1
  Nd  Nd2  1  0.87291900  0.64414400  0.24869400  1
  Nd  Nd3  1  0.12708100  0.35585600  0.74869400  1
  Nd  Nd4  1  0.22877600  0.87291900  0.74869400  1
  Nd  Nd5  1  0.64414400  0.77122400  0.74869400  1
  Cu  Cu0  1  0.00000000  0.00000000  0.72043400  1
  Cu  Cu1  1  0.00000000  0.00000000  0.22043400  1
  Si  Si0  1  0.66666700  0.33333300  0.83564800  1
  Si  Si1  1  0.33333300  0.66666700  0.33564800  1
  Se  Se0  1  0.66666700  0.33333300  0.46229400  1
  Se  Se1  1  0.83453800  0.09071500  0.73441100  1
  Se  Se2  1  0.90928500  0.74382300  0.73441100  1
  Se  Se3  1  0.58413900  0.47874700  0.98290400  1
  Se  Se4  1  0.47874700  0.89460800  0.48290400  1
  Se  Se5  1  0.52125300  0.10539200  0.98290400  1
  Se  Se6  1  0.33333300  0.66666700  0.96229400  1
  Se  Se7  1  0.74382300  0.83453800  0.23441100  1
  Se  Se8  1  0.25617700  0.16546200  0.73441100  1
  Se  Se9  1  0.10539200  0.58413900  0.48290400  1
  Se  Se10  1  0.16546200  0.90928500  0.23441100  1
  Se  Se11  1  0.41586100  0.52125300  0.48290400  1
  Se  Se12  1  0.89460800  0.41586100  0.98290400  1
  Se  Se13  1  0.09071500  0.25617700  0.23441100  1
loop_
_geom_bond_atom_site_label_1
_geom_bond_atom_site_label_2
_geom_bond_distance
_geom_bond_site_symmetry_2
Nd0 Se13 2.957440 1_655
Nd0 Se7 2.973051 1_545
Nd0 Se5 3.016833 1_554
Nd0 Se1 3.096472 1_555
Nd0 Se12 3.117071 1_554
Nd0 Se4 3.178456 1_545
Nd0 Se0 3.185827 1_555
Nd0 Se1 3.262648 1_554
Nd1 Se10 2.957439 1_545
Nd1 Se13 2.973041 1_555
Nd1 Se3 3.016837 1_554
Nd1 Se8 3.096470 1_555
Nd1 Se5 3.117079 1_554
Nd1 Se11 3.178453 1_555
Nd1 Se0 3.185846 1_555
Nd1 Se8 3.262645 1_554
Nd2 Se7 2.957431 1_555
Nd2 Se10 2.973047 1_655
Nd2 Se12 3.016842 1_554
Nd2 Se2 3.096469 1_555
Nd2 Se3 3.117072 1_554
Nd2 Se9 3.178462 1_655
Nd2 Se0 3.185842 1_555
Nd2 Se2 3.262645 1_554
Nd3 Se8 2.957431 1_555
Nd3 Se1 2.973047 1_455
Nd3 Se9 3.016842 1_555
Nd3 Se13 3.096469 1_556
Nd3 Se11 3.117072 1_555
Nd3 Se12 3.178462 1_455
Nd3 Se6 3.185842 1_555
Nd3 Se13 3.262645 1_555
Nd4 Se2 2.957440 1_455
Nd4 Se8 2.973051 1_565
Nd4 Se4 3.016833 1_555
Nd4 Se10 3.096472 1_556
Nd4 Se9 3.117071 1_555
Nd4 Se5 3.178456 1_565
Nd4 Se6 3.185827 1_555
Nd4 Se10 3.262648 1_555
Nd5 Se1 2.957439 1_565
Nd5 Se2 2.973041 1_555
Nd5 Se11 3.016837 1_555
Nd5 Se7 3.096470 1_556
Nd5 Se4 3.117079 1_555
Nd5 Se3 3.178453 1_555
Nd5 Se6 3.185846 1_555
Nd5 Se7 3.262645 1_555
Cu0 Se1 2.390633 1_455
Cu0 Se2 2.390633 1_445
Cu0 Se8 2.390633 1_555
Cu1 Se10 2.390633 1_545
Cu1 Se13 2.390633 1_555
Cu1 Se7 2.390633 1_445
Se0 Si0 2.270795 1_555
Se3 Si0 2.303903 1_555
Se4 Si1 2.303896 1_555
Se5 Si0 2.303896 1_555
Se6 Si1 2.270795 1_556
Se9 Si1 2.303894 1_555
Se11 Si1 2.303903 1_555
Se12 Si0 2.303894 1_555
