# generated using pymatgen
data_Bi15Ru16O55
_symmetry_space_group_name_H-M   'P 1'
_cell_length_a   7.32747843
_cell_length_b   7.35641458
_cell_length_c   58.68007409
_cell_angle_alpha   59.90660470
_cell_angle_beta   59.77240856
_cell_angle_gamma   59.87410461
_symmetry_Int_Tables_number   1
_chemical_formula_structural   Bi15Ru16O55
_chemical_formula_sum   'Bi30 Ru32 O110'
_cell_volume   2229.07404730
_cell_formula_units_Z   2
loop_
 _symmetry_equiv_pos_site_id
 _symmetry_equiv_pos_as_xyz
  1  'x, y, z'
loop_
 _atom_site_type_symbol
 _atom_site_label
 _atom_site_symmetry_multiplicity
 _atom_site_fract_x
 _atom_site_fract_y
 _atom_site_fract_z
 _atom_site_occupancy
  Bi  Bi0  1  0.46137471  0.50109171  0.00456164  1
  Bi  Bi1  1  0.47438995  0.51121438  0.06433260  1
  Bi  Bi2  1  0.47445146  0.99970528  0.06433383  1
  Bi  Bi3  1  0.50106867  0.50173574  0.12442019  1
  Bi  Bi4  1  0.50756434  0.50532691  0.18591149  1
  Bi  Bi5  1  0.50757908  -0.00015634  0.18590598  1
  Bi  Bi6  1  0.52314997  0.50002854  0.24709017  1
  Bi  Bi7  1  0.50199836  0.50080189  0.31170139  1
  Bi  Bi8  1  0.50248671  0.50116099  0.37439204  1
  Bi  Bi9  1  0.50204088  0.00350912  0.31170485  1
  Bi  Bi10  1  0.00502304  0.50721295  0.31006368  1
  Bi  Bi11  1  0.50112284  0.50017658  0.43724970  1
  Bi  Bi12  1  0.00012163  0.50019682  0.56243474  1
  Bi  Bi13  1  0.50009543  0.50027160  0.49991701  1
  Bi  Bi14  1  0.50113180  0.00061632  0.43725384  1
  Bi  Bi15  1  0.50029693  0.00013223  0.56242810  1
  Bi  Bi16  1  0.00078026  0.50120951  0.43708909  1
  Bi  Bi17  1  0.50030327  0.50013824  0.56242954  1
  Bi  Bi18  1  0.00004892  0.49993026  0.68751323  1
  Bi  Bi19  1  0.50005219  0.50008694  0.62497314  1
  Bi  Bi20  1  0.49981388  0.00002326  0.68752749  1
  Bi  Bi21  1  0.49979178  0.49994537  0.68752726  1
  Bi  Bi22  1  0.99892711  0.49845425  0.81303234  1
  Bi  Bi23  1  0.49992555  0.49987235  0.75004316  1
  Bi  Bi24  1  0.49833663  0.99912957  0.81290577  1
  Bi  Bi25  1  0.49836414  0.49935380  0.81291102  1
  Bi  Bi26  1  0.49634906  0.49833319  0.87587831  1
  Bi  Bi27  1  0.49377775  0.99405828  0.93944132  1
  Bi  Bi28  1  0.49374936  0.49667321  0.93944522  1
  Bi  Bi29  1  0.99181684  0.48962603  0.94111944  1
  Ru  Ru0  1  0.99430146  0.99820493  0.00114634  1
  Ru  Ru1  1  0.50171094  0.99793166  0.00030050  1
  Ru  Ru2  1  0.99949320  0.99853727  0.12546139  1
  Ru  Ru3  1  0.99610930  0.00325547  0.06218108  1
  Ru  Ru4  1  0.50316220  0.99952389  0.12471273  1
  Ru  Ru5  1  0.00574948  0.00234919  0.24896974  1
  Ru  Ru6  1  0.99429303  0.49837623  0.00114410  1
  Ru  Ru7  1  0.00164861  0.99956529  0.31240021  1
  Ru  Ru8  1  0.50326720  0.00044148  0.24946935  1
  Ru  Ru9  1  0.99951572  0.49828384  0.12545835  1
  Ru  Ru10  1  0.00001495  0.00028362  0.49994908  1
  Ru  Ru11  1  0.99948768  -0.00010982  0.18759464  1
  Ru  Ru12  1  0.00575461  0.50012637  0.24896950  1
  Ru  Ru13  1  0.50000637  0.00003909  0.49998741  1
  Ru  Ru14  1  -0.00015318  -0.00005932  0.62504721  1
  Ru  Ru15  1  0.50003768  0.00101103  0.37474192  1
  Ru  Ru16  1  0.00079293  0.00006584  0.43737895  1
  Ru  Ru17  1  0.00042529  0.50043772  0.37470357  1
  Ru  Ru18  1  0.99974811  0.99988201  0.68756546  1
  Ru  Ru19  1  0.49981246  -0.00010872  0.62505084  1
  Ru  Ru20  1  0.00044706  0.00150686  0.37470307  1
  Ru  Ru21  1  0.00009265  0.00002184  0.56248149  1
  Ru  Ru22  1  0.00000956  0.50008606  0.49994851  1
  Ru  Ru23  1  -0.00015285  0.49983953  0.62504760  1
  Ru  Ru24  1  0.49999639  0.99975763  0.75006004  1
  Ru  Ru25  1  0.50040192  0.99869070  0.87528152  1
  Ru  Ru26  1  0.99976197  0.49998545  0.75007655  1
  Ru  Ru27  1  0.99923092  0.99990828  0.81262503  1
  Ru  Ru28  1  0.99975109  0.99967807  0.75007730  1
  Ru  Ru29  1  0.99906247  0.99846562  0.87531660  1
  Ru  Ru30  1  0.99903584  0.49997507  0.87531778  1
  Ru  Ru31  1  0.99891487  0.00102198  0.93738074  1
  O  O0  1  0.09428106  0.05878067  0.08409283  1
  O  O1  1  0.08861601  0.68426078  0.00535927  1
  O  O2  1  0.66963512  0.07453435  0.00999114  1
  O  O3  1  0.09427675  0.67418099  0.08409162  1
  O  O4  1  0.33650532  0.33102370  0.11448442  1
  O  O5  1  0.08596229  0.05047447  0.21003847  1
  O  O6  1  0.33738921  0.91392660  0.04184182  1
  O  O7  1  0.08417810  0.68268028  0.13130249  1
  O  O8  1  0.66962555  0.67592170  0.00998954  1
  O  O9  1  0.67510844  0.07324721  0.08479615  1
  O  O10  1  0.67209025  0.07702608  0.13448615  1
  O  O11  1  0.92164867  0.31352980  0.03937098  1
  O  O12  1  0.60093532  0.63335010  0.07904485  1
  O  O13  1  0.33649492  0.91656957  0.11448544  1
  O  O14  1  0.08596723  0.68324843  0.21004163  1
  O  O15  1  0.33212090  0.92189001  0.16551361  1
  O  O16  1  0.33830314  0.33071308  0.23886776  1
  O  O17  1  0.07828537  0.07416474  0.33407965  1
  O  O18  1  0.08728977  0.66546822  0.26021928  1
  O  O19  1  0.91370557  0.32209547  0.11776078  1
  O  O20  1  0.67133174  0.07770490  0.20915328  1
  O  O21  1  0.67212205  0.67498503  0.13448266  1
  O  O22  1  0.92164285  0.94983434  0.03937120  1
  O  O23  1  0.90975498  0.32210970  0.16530747  1
  O  O24  1  0.62531144  0.64429047  0.19827064  1
  O  O25  1  0.38488253  0.38253913  0.29375597  1
  O  O26  1  0.07830685  0.67490650  0.33407816  1
  O  O27  1  0.67434743  0.07944003  0.25922183  1
  O  O28  1  0.33828281  0.92005105  0.23886717  1
  O  O29  1  0.32967911  0.32871182  0.36485057  1
  O  O30  1  0.07803013  0.07772785  0.45893827  1
  O  O31  1  0.08019668  0.67030558  0.38490086  1
  O  O32  1  0.32916928  0.92349592  0.29048070  1
  O  O33  1  0.66922697  0.08186981  0.33337633  1
  O  O34  1  0.92640873  0.30948697  0.24432559  1
  O  O35  1  0.90972169  0.94567494  0.16531035  1
  O  O36  1  0.67435904  0.67243636  0.25922037  1
  O  O37  1  0.62683005  0.62830549  0.32707056  1
  O  O38  1  0.67006898  0.07994882  0.38476676  1
  O  O39  1  0.37700076  0.37614620  0.42133250  1
  O  O40  1  0.92086298  0.33432995  0.29127083  1
  O  O41  1  0.32964594  0.92284619  0.36485272  1
  O  O42  1  0.07804608  0.67271396  0.45893776  1
  O  O43  1  0.07863279  0.07900780  0.58387716  1
  O  O44  1  0.32905474  0.32833979  0.49015948  1
  O  O45  1  0.32985398  0.92126882  0.41595546  1
  O  O46  1  0.07857705  0.67123883  0.50986655  1
  O  O47  1  0.67103440  0.07933657  0.45877988  1
  O  O48  1  0.67004554  0.67184319  0.38476491  1
  O  O49  1  0.92065275  0.32449175  0.36629587  1
  O  O50  1  0.92085416  0.91461767  0.29127145  1
  O  O51  1  0.32903391  0.92135966  0.49015763  1
  O  O52  1  0.92104087  0.33059351  0.41613292  1
  O  O53  1  0.67039118  0.07933825  0.50989608  1
  O  O54  1  0.37554061  0.37472879  0.54687375  1
  O  O55  1  0.07863378  0.67133280  0.58387720  1
  O  O56  1  0.62479867  0.62559821  0.45300127  1
  O  O57  1  0.07895581  0.07957815  0.70886787  1
  O  O58  1  0.32949349  0.32883689  0.61513585  1
  O  O59  1  0.32987460  0.92051874  0.54113937  1
  O  O60  1  0.07878886  0.67108672  0.63487999  1
  O  O61  1  0.67055042  0.07931424  0.58384881  1
  O  O62  1  0.92160602  0.32772029  0.49036688  1
  O  O63  1  0.92103164  0.91934126  0.41613125  1
  O  O64  1  0.67037847  0.67107004  0.50989682  1
  O  O65  1  0.37543606  0.37457322  0.67192517  1
  O  O66  1  0.62442080  0.62526689  0.57813325  1
  O  O67  1  0.32949534  0.92059603  0.61513336  1
  O  O68  1  0.07897073  0.67051427  0.70886326  1
  O  O69  1  0.92123401  0.32926290  0.54112450  1
  O  O70  1  0.67038929  0.07936528  0.63489913  1
  O  O71  1  0.07985165  0.08169070  0.83378370  1
  O  O72  1  0.33003687  0.32939113  0.74005370  1
  O  O73  1  0.07873896  0.67206446  0.75964498  1
  O  O74  1  0.32925882  0.92068814  0.66617532  1
  O  O75  1  0.92114403  0.32875760  0.61516764  1
  O  O76  1  0.66976516  0.07970408  0.70884966  1
  O  O77  1  0.67038127  0.67104738  0.63489789  1
  O  O78  1  0.92124451  0.92052932  0.54112156  1
  O  O79  1  0.07984502  0.66819166  0.83378022  1
  O  O80  1  0.67105818  0.07901210  0.75976690  1
  O  O81  1  0.62434201  0.62516025  0.70316934  1
  O  O82  1  0.33001713  0.92018923  0.74005441  1
  O  O83  1  0.37481666  0.37405561  0.79713545  1
  O  O84  1  0.92131632  0.32853878  0.66615489  1
  O  O85  1  0.33055348  0.32905719  0.86520714  1
  O  O86  1  0.08101746  0.08509828  0.95876840  1
  O  O87  1  0.32908115  0.92060233  0.79122124  1
  O  O88  1  0.07985464  0.67607752  0.88350245  1
  O  O89  1  0.66854693  0.07997135  0.83393485  1
  O  O90  1  0.92094813  0.32911119  0.74010559  1
  O  O91  1  0.67103444  0.67181212  0.75976399  1
  O  O92  1  0.92132077  0.92091321  0.66615497  1
  O  O93  1  0.92183342  0.32757195  0.79107551  1
  O  O94  1  0.62104745  0.62198953  0.82938285  1
  O  O95  1  0.36933272  0.36837081  0.92424089  1
  O  O96  1  0.33054337  0.91876436  0.86520657  1
  O  O97  1  0.08100053  0.66377646  0.95877047  1
  O  O98  1  0.67175449  0.07711937  0.88478663  1
  O  O99  1  0.33034129  0.33017549  0.99076257  1
  O  O100  1  0.33009315  0.91865392  0.91657912  1
  O  O101  1  0.91891844  0.32975256  0.86519701  1
  O  O102  1  0.66835241  0.07926234  0.95913711  1
  O  O103  1  0.92185020  0.92199142  0.79107540  1
  O  O104  1  0.67172960  0.67286197  0.88478400  1
  O  O105  1  0.60330476  0.60716066  0.96029993  1
  O  O106  1  0.92288728  0.32430641  0.91585399  1
  O  O107  1  0.33034489  0.91334200  0.99076335  1
  O  O108  1  0.92290182  0.92597159  0.91585460  1
  O  O109  1  0.91551004  0.33334459  0.98972404  1
loop_
_geom_bond_atom_site_label_1
_geom_bond_atom_site_label_2
_geom_bond_distance
_geom_bond_site_symmetry_2
Bi0 O105 2.121042 1_554
Bi0 O1 2.349124 1_555
Bi0 O107 2.484365 1_554
Bi0 O99 2.484754 1_554
Bi0 O8 2.637098 1_555
Bi0 O2 2.637625 1_555
Bi0 O109 2.718907 1_554
Bi1 O12 2.198309 1_555
Bi1 O3 2.308645 1_555
Bi1 O4 2.424294 1_555
Bi1 O6 2.440055 1_555
Bi1 O8 2.637323 1_555
Bi1 O9 2.669712 1_555
Bi1 O11 2.742175 1_555
Bi2 O12 2.198343 1_555
Bi2 O0 2.308955 1_565
Bi2 O13 2.424231 1_555
Bi2 O6 2.440248 1_555
Bi2 O2 2.637252 1_565
Bi2 O9 2.669032 1_565
Bi2 O22 2.741699 1_555
Bi3 O12 2.174081 1_555
Bi3 O4 2.516600 1_555
Bi3 O13 2.517260 1_555
Bi3 O19 2.521604 1_555
Bi3 O7 2.545927 1_555
Bi3 O10 2.577837 1_555
Bi3 O21 2.578241 1_555
Bi4 O24 2.138758 1_555
Bi4 O23 2.454152 1_555
Bi4 O21 2.487698 1_555
Bi4 O15 2.528345 1_555
Bi4 O16 2.561330 1_555
Bi4 O14 2.580104 1_555
Bi4 O20 2.598469 1_555
Bi5 O24 2.138713 1_545
Bi5 O35 2.453761 1_545
Bi5 O10 2.487267 1_555
Bi5 O15 2.528038 1_545
Bi5 O28 2.561540 1_545
Bi5 O5 2.580177 1_555
Bi5 O20 2.598130 1_555
Bi6 O25 2.232531 1_555
Bi6 O24 2.341533 1_555
Bi6 O34 2.511996 1_555
Bi6 O27 2.540002 1_555
Bi6 O36 2.540253 1_555
Bi6 O16 2.563770 1_555
Bi6 O28 2.564476 1_555
Bi6 O18 2.614562 1_555
Bi7 O37 2.251658 1_555
Bi7 O25 2.276018 1_555
Bi7 O40 2.520239 1_555
Bi7 O36 2.541339 1_555
Bi7 O33 2.542563 1_555
Bi7 O32 2.564251 1_555
Bi7 O26 2.567792 1_555
Bi7 O29 2.569819 1_555
Bi8 O39 2.244268 1_555
Bi8 O37 2.262566 1_555
Bi8 O49 2.541572 1_555
Bi8 O31 2.546897 1_555
Bi8 O48 2.553598 1_555
Bi8 O38 2.553711 1_555
Bi8 O29 2.562191 1_555
Bi8 O41 2.563017 1_555
Bi9 O37 2.251329 1_545
Bi9 O25 2.276727 1_555
Bi9 O50 2.519929 1_545
Bi9 O27 2.541345 1_555
Bi9 O33 2.542209 1_555
Bi9 O32 2.564013 1_545
Bi9 O17 2.568052 1_555
Bi9 O41 2.569853 1_545
Bi10 O37 2.257868 1_455
Bi10 O25 2.267165 1_555
Bi10 O18 2.405843 1_555
Bi10 O40 2.468263 1_455
Bi10 O50 2.468545 1_455
Bi10 O17 2.639262 1_555
Bi10 O26 2.639337 1_555
Bi10 O49 2.722016 1_455
Bi11 O56 2.250513 1_555
Bi11 O39 2.252790 1_555
Bi11 O52 2.533267 1_555
Bi11 O48 2.538220 1_555
Bi11 O47 2.554017 1_555
Bi11 O45 2.554827 1_555
Bi11 O42 2.557119 1_555
Bi11 O44 2.559245 1_555
Bi12 O54 2.240616 1_555
Bi12 O66 2.242278 1_455
Bi12 O46 2.545069 1_555
Bi12 O69 2.552133 1_455
Bi12 O78 2.552499 1_455
Bi12 O75 2.552768 1_455
Bi12 O55 2.558024 1_555
Bi12 O43 2.558207 1_555
Bi13 O56 2.243104 1_555
Bi13 O54 2.245072 1_555
Bi13 O46 2.546338 1_555
Bi13 O62 2.549503 1_555
Bi13 O64 2.554570 1_555
Bi13 O53 2.554862 1_555
Bi13 O44 2.557007 1_555
Bi13 O51 2.557541 1_555
Bi14 O56 2.250141 1_545
Bi14 O39 2.253210 1_555
Bi14 O63 2.533229 1_545
Bi14 O38 2.538275 1_555
Bi14 O47 2.553712 1_555
Bi14 O45 2.554224 1_545
Bi14 O30 2.557152 1_555
Bi14 O51 2.559044 1_545
Bi15 O54 2.247594 1_555
Bi15 O66 2.249208 1_545
Bi15 O53 2.540591 1_555
Bi15 O78 2.541317 1_545
Bi15 O43 2.546467 1_555
Bi15 O67 2.548897 1_545
Bi15 O59 2.549812 1_545
Bi15 O61 2.553071 1_555
Bi16 O56 2.243958 1_455
Bi16 O39 2.245377 1_555
Bi16 O31 2.525166 1_555
Bi16 O52 2.536984 1_455
Bi16 O63 2.537945 1_455
Bi16 O30 2.573814 1_555
Bi16 O42 2.574111 1_555
Bi16 O62 2.579764 1_455
Bi17 O54 2.247544 1_555
Bi17 O66 2.249091 1_555
Bi17 O64 2.540595 1_555
Bi17 O69 2.541244 1_555
Bi17 O55 2.546526 1_555
Bi17 O58 2.548961 1_555
Bi17 O59 2.550231 1_555
Bi17 O61 2.553393 1_555
Bi18 O65 2.240420 1_555
Bi18 O81 2.242319 1_455
Bi18 O90 2.545634 1_455
Bi18 O60 2.548031 1_555
Bi18 O68 2.552108 1_555
Bi18 O57 2.552585 1_555
Bi18 O84 2.556585 1_455
Bi18 O92 2.556715 1_455
Bi19 O66 2.239481 1_555
Bi19 O65 2.244845 1_555
Bi19 O75 2.544822 1_555
Bi19 O60 2.545086 1_555
Bi19 O58 2.553092 1_555
Bi19 O67 2.553287 1_555
Bi19 O77 2.553542 1_555
Bi19 O70 2.553949 1_555
Bi20 O65 2.247315 1_555
Bi20 O81 2.249188 1_545
Bi20 O82 2.539737 1_545
Bi20 O57 2.540800 1_555
Bi20 O70 2.545253 1_555
Bi20 O92 2.545270 1_545
Bi20 O76 2.548902 1_555
Bi20 O74 2.552335 1_545
Bi21 O65 2.247103 1_555
Bi21 O81 2.249239 1_555
Bi21 O72 2.539664 1_555
Bi21 O68 2.540604 1_555
Bi21 O77 2.545317 1_555
Bi21 O84 2.545396 1_555
Bi21 O76 2.549311 1_555
Bi21 O74 2.552717 1_555
Bi22 O83 2.243407 1_655
Bi22 O94 2.255409 1_555
Bi22 O101 2.523418 1_555
Bi22 O79 2.527353 1_655
Bi22 O71 2.528305 1_655
Bi22 O103 2.574353 1_555
Bi22 O93 2.574745 1_555
Bi22 O73 2.584595 1_655
Bi23 O81 2.241105 1_555
Bi23 O83 2.251547 1_555
Bi23 O90 2.543345 1_555
Bi23 O73 2.547059 1_555
Bi23 O72 2.550533 1_555
Bi23 O82 2.550936 1_555
Bi23 O91 2.555935 1_555
Bi23 O80 2.556396 1_555
Bi24 O83 2.249592 1_565
Bi24 O94 2.263137 1_555
Bi24 O71 2.523284 1_565
Bi24 O96 2.528019 1_555
Bi24 O89 2.542054 1_565
Bi24 O87 2.556609 1_555
Bi24 O103 2.559689 1_555
Bi24 O80 2.570152 1_565
Bi25 O83 2.250157 1_555
Bi25 O94 2.262675 1_555
Bi25 O79 2.523386 1_555
Bi25 O85 2.527899 1_555
Bi25 O89 2.542728 1_555
Bi25 O87 2.556838 1_555
Bi25 O93 2.559594 1_555
Bi25 O91 2.570415 1_555
Bi26 O94 2.222986 1_555
Bi26 O95 2.312347 1_555
Bi26 O88 2.535728 1_555
Bi26 O85 2.546603 1_555
Bi26 O96 2.546739 1_555
Bi26 O101 2.547385 1_555
Bi26 O104 2.564808 1_555
Bi26 O98 2.565358 1_555
Bi27 O95 2.246072 1_565
Bi27 O105 2.333585 1_555
Bi27 O107 2.479019 1_555
Bi27 O86 2.481333 1_565
Bi27 O102 2.526828 1_565
Bi27 O100 2.565198 1_555
Bi27 O108 2.605005 1_555
Bi27 O98 2.642593 1_565
Bi28 O95 2.246140 1_555
Bi28 O105 2.333282 1_555
Bi28 O99 2.478880 1_555
Bi28 O97 2.481298 1_555
Bi28 O102 2.527402 1_555
Bi28 O100 2.565393 1_555
Bi28 O106 2.605192 1_555
Bi28 O104 2.642877 1_555
Bi29 O95 2.253705 1_655
Bi29 O105 2.323287 1_555
Bi29 O109 2.349532 1_555
Bi29 O97 2.448208 1_655
Bi29 O86 2.448274 1_655
Bi29 O106 2.666625 1_555
Bi29 O108 2.666651 1_555
Bi29 O88 2.787491 1_655
O0 Ru3 2.022490 1_455
O0 Ru2 2.025863 1_445
O1 Ru6 1.966924 1_455
O1 Ru0 1.967193 1_455
O2 Ru1 1.968968 1_545
O2 Ru0 1.988059 1_545
O3 Ru3 2.023062 1_465
O3 Ru9 2.025772 1_455
O4 Ru4 2.019741 1_545
O4 Ru9 2.041986 1_455
O5 Ru5 1.932758 1_555
O5 Ru11 1.960325 1_455
O6 Ru1 2.013651 1_555
O6 Ru3 2.059539 1_465
O7 Ru9 1.966714 1_455
O7 Ru2 1.967154 1_455
O8 Ru1 1.968900 1_555
O8 Ru6 1.988075 1_555
O9 Ru4 1.951547 1_545
O9 Ru3 1.971131 1_555
O10 Ru4 1.984248 1_545
O10 Ru2 2.001548 1_545
O11 Ru6 1.905162 1_555
O11 Ru3 1.928879 1_555
O13 Ru4 2.019242 1_555
O13 Ru2 2.041970 1_455
O14 Ru12 1.932675 1_555
O14 Ru11 1.960685 1_465
O15 Ru4 1.988751 1_555
O15 Ru11 2.027494 1_465
O16 Ru8 2.011109 1_555
O16 Ru12 2.019993 1_555
O17 Ru20 1.988155 1_555
O17 Ru7 1.990884 1_545
O18 Ru12 2.050350 1_555
O18 Ru5 2.050520 1_565
O19 Ru2 1.992564 1_545
O19 Ru9 1.992591 1_555
O20 Ru8 1.963964 1_555
O20 Ru11 1.997913 1_555
O21 Ru4 1.984030 1_555
O21 Ru9 2.001532 1_555
O22 Ru0 1.904901 1_555
O22 Ru3 1.929204 1_565
O23 Ru9 1.961669 1_555
O23 Ru11 1.988459 1_555
O26 Ru17 1.988240 1_555
O26 Ru7 1.990949 1_555
O27 Ru8 2.005951 1_555
O27 Ru5 2.017229 1_655
O28 Ru8 2.010516 1_565
O28 Ru5 2.019864 1_565
O29 Ru15 2.003060 1_555
O29 Ru17 2.004842 1_555
O30 Ru10 2.002389 1_555
O30 Ru16 2.004364 1_555
O31 Ru17 2.023982 1_555
O31 Ru20 2.024024 1_565
O32 Ru7 1.998185 1_555
O32 Ru8 2.001738 1_565
O33 Ru15 2.011243 1_555
O33 Ru7 2.015686 1_645
O34 Ru12 1.933992 1_655
O34 Ru5 1.934110 1_655
O35 Ru2 1.961610 1_555
O35 Ru11 1.988466 1_565
O36 Ru8 2.005630 1_565
O36 Ru12 2.017265 1_655
O38 Ru20 2.010530 1_655
O38 Ru15 2.010544 1_555
O40 Ru7 2.041097 1_645
O40 Ru12 2.051075 1_655
O41 Ru15 2.002755 1_565
O41 Ru20 2.004505 1_565
O42 Ru22 2.002413 1_555
O42 Ru16 2.004391 1_565
O43 Ru14 2.007891 1_555
O43 Ru21 2.009938 1_555
O44 Ru22 2.003741 1_555
O44 Ru13 2.007071 1_555
O45 Ru16 2.001495 1_565
O45 Ru15 2.005738 1_565
O46 Ru22 2.013754 1_555
O46 Ru10 2.013761 1_565
O47 Ru16 2.005074 1_655
O47 Ru13 2.006482 1_555
O48 Ru17 2.010563 1_655
O48 Ru15 2.010694 1_565
O49 Ru17 1.987607 1_655
O49 Ru20 1.987739 1_655
O50 Ru7 2.040977 1_655
O50 Ru5 2.051061 1_665
O51 Ru10 2.003570 1_565
O51 Ru13 2.006861 1_565
O52 Ru17 2.017237 1_655
O52 Ru16 2.018733 1_655
O53 Ru10 2.005884 1_655
O53 Ru13 2.009790 1_555
O55 Ru23 2.007914 1_555
O55 Ru21 2.010078 1_565
O57 Ru28 2.008446 1_445
O57 Ru18 2.012495 1_445
O58 Ru23 2.006071 1_555
O58 Ru19 2.009846 1_555
O59 Ru13 2.002981 1_565
O59 Ru21 2.004633 1_565
O60 Ru23 2.012684 1_555
O60 Ru14 2.012847 1_565
O61 Ru21 2.003570 1_655
O61 Ru19 2.005894 1_555
O62 Ru22 2.006339 1_655
O62 Ru10 2.006548 1_655
O63 Ru20 2.017160 1_665
O63 Ru16 2.018263 1_665
O64 Ru22 2.005962 1_655
O64 Ru13 2.010039 1_565
O67 Ru14 2.006021 1_565
O67 Ru19 2.009702 1_565
O68 Ru26 2.008589 1_455
O68 Ru18 2.012849 1_455
O69 Ru22 2.007330 1_655
O69 Ru21 2.012728 1_655
O70 Ru14 2.005267 1_655
O70 Ru19 2.009388 1_555
O71 Ru29 2.019855 1_445
O71 Ru27 2.024064 1_445
O72 Ru26 2.008985 1_455
O72 Ru24 2.013196 1_545
O73 Ru26 2.006963 1_455
O73 Ru28 2.007153 1_455
O74 Ru19 2.002282 1_565
O74 Ru18 2.003619 1_455
O75 Ru23 2.012351 1_655
O75 Ru14 2.012430 1_655
O76 Ru24 2.005110 1_545
O76 Ru18 2.005175 1_545
O77 Ru23 2.005351 1_655
O77 Ru19 2.009593 1_565
O78 Ru10 2.007191 1_665
O78 Ru21 2.012488 1_665
O79 Ru30 2.020046 1_455
O79 Ru27 2.024430 1_455
O80 Ru28 2.001917 1_545
O80 Ru24 2.005240 1_545
O82 Ru28 2.008887 1_455
O82 Ru24 2.012817 1_555
O84 Ru23 2.004927 1_655
O84 Ru18 2.010048 1_545
O85 Ru30 2.016154 1_455
O85 Ru25 2.017097 1_545
O86 Ru0 2.054001 1_446
O86 Ru31 2.057116 1_455
O87 Ru24 2.004321 1_555
O87 Ru27 2.005602 1_455
O88 Ru30 1.984958 1_455
O88 Ru29 1.985030 1_455
O89 Ru25 2.009218 1_545
O89 Ru27 2.009248 1_545
O90 Ru28 2.015529 1_545
O90 Ru26 2.015547 1_555
O91 Ru26 2.002137 1_555
O91 Ru24 2.005248 1_555
O92 Ru14 2.004932 1_665
O92 Ru18 2.010022 1_555
O93 Ru26 2.001627 1_555
O93 Ru27 2.006000 1_545
O96 Ru29 2.015882 1_455
O96 Ru25 2.017029 1_555
O97 Ru6 2.053815 1_456
O97 Ru31 2.057100 1_465
O98 Ru25 1.993857 1_545
O98 Ru29 1.995790 1_545
O99 Ru1 2.029493 1_546
O99 Ru6 2.037796 1_456
O100 Ru31 2.007290 1_465
O100 Ru25 2.009567 1_555
O101 Ru29 2.024867 1_545
O101 Ru30 2.024886 1_555
O102 Ru1 1.999458 1_546
O102 Ru31 2.012964 1_555
O103 Ru28 2.001543 1_555
O103 Ru27 2.006019 1_555
O104 Ru25 1.994040 1_555
O104 Ru30 1.995824 1_555
O106 Ru31 1.981897 1_555
O106 Ru30 1.986016 1_555
O107 Ru1 2.029361 1_556
O107 Ru0 2.037631 1_456
O108 Ru31 1.981676 1_565
O108 Ru29 1.986037 1_555
O109 Ru0 2.040730 1_546
O109 Ru6 2.040859 1_556
