# generated using pymatgen
data_NaSr2AlP3
_symmetry_space_group_name_H-M   'P 1'
_cell_length_a   8.13861757
_cell_length_b   8.13861757
_cell_length_c   11.57185662
_cell_angle_alpha   76.12206123
_cell_angle_beta   76.12206123
_cell_angle_gamma   67.91942906
_symmetry_Int_Tables_number   1
_chemical_formula_structural   NaSr2AlP3
_chemical_formula_sum   'Na4 Sr8 Al4 P12'
_cell_volume   679.92282166
_cell_formula_units_Z   4
loop_
 _symmetry_equiv_pos_site_id
 _symmetry_equiv_pos_as_xyz
  1  'x, y, z'
loop_
 _atom_site_type_symbol
 _atom_site_label
 _atom_site_symmetry_multiplicity
 _atom_site_fract_x
 _atom_site_fract_y
 _atom_site_fract_z
 _atom_site_occupancy
  Na  Na0  1  0.30103600  0.69896400  0.00000000  1
  Na  Na1  1  0.35728000  0.35728000  0.23115600  1
  Na  Na2  1  0.64272000  0.64272000  0.76884400  1
  Na  Na3  1  0.69896400  0.30103600  0.00000000  1
  Sr  Sr0  1  0.74876000  0.19240500  0.68584900  1
  Sr  Sr1  1  0.25124000  0.80759500  0.31415100  1
  Sr  Sr2  1  0.19240500  0.74876000  0.68584900  1
  Sr  Sr3  1  0.50000000  0.00000000  0.50000000  1
  Sr  Sr4  1  0.80759500  0.25124000  0.31415100  1
  Sr  Sr5  1  0.00000000  0.50000000  0.00000000  1
  Sr  Sr6  1  0.50000000  0.00000000  0.00000000  1
  Sr  Sr7  1  0.00000000  0.50000000  0.50000000  1
  Al  Al0  1  0.69751500  0.69751500  0.26744400  1
  Al  Al1  1  0.09014100  0.09014100  0.88219000  1
  Al  Al2  1  0.90985900  0.90985900  0.11781000  1
  Al  Al3  1  0.30248500  0.30248500  0.73255600  1
  P  P0  1  0.02104400  0.61272200  0.22853400  1
  P  P1  1  0.59070000  0.59070000  0.13662000  1
  P  P2  1  0.97895600  0.38727800  0.77146600  1
  P  P3  1  0.08717500  0.08717500  0.48649200  1
  P  P4  1  0.58643500  0.58643500  0.48789300  1
  P  P5  1  0.90983000  0.90983000  0.90585100  1
  P  P6  1  0.09017000  0.09017000  0.09414900  1
  P  P7  1  0.40930000  0.40930000  0.86338000  1
  P  P8  1  0.61272200  0.02104400  0.22853400  1
  P  P9  1  0.91282500  0.91282500  0.51350800  1
  P  P10  1  0.38727800  0.97895600  0.77146600  1
  P  P11  1  0.41356500  0.41356500  0.51210700  1
loop_
_geom_bond_atom_site_label_1
_geom_bond_atom_site_label_2
_geom_bond_distance
_geom_bond_site_symmetry_2
Na0 P7 2.896786 1_554
Na0 P1 2.896786 1_555
Na0 P0 3.178088 1_555
Na0 P10 3.178088 1_554
Na0 P5 3.305803 1_454
Na0 P6 3.305803 1_565
Na1 P0 2.746596 1_555
Na1 P8 2.746596 1_555
Na1 P1 3.022247 1_555
Na2 P2 2.746596 1_555
Na2 P10 2.746596 1_555
Na2 P7 3.022247 1_555
Na3 P7 2.896786 1_554
Na3 P1 2.896786 1_555
Na3 P8 3.178088 1_555
Na3 P2 3.178088 1_554
Na3 P5 3.305803 1_544
Na3 P6 3.305803 1_655
Al0 P1 2.373625 1_555
Al0 P8 2.413769 1_565
Al0 P0 2.413769 1_655
Al0 P4 2.558130 1_555
Al0 Sr4 3.336288 1_555
Al0 Sr1 3.336288 1_555
Al1 P5 2.369711 1_445
Al1 P2 2.394415 1_455
Al1 P10 2.394415 1_545
Al1 P6 2.452872 1_556
Al2 P6 2.369711 1_665
Al2 P0 2.394415 1_655
Al2 P8 2.394415 1_565
Al2 P5 2.452872 1_554
Al3 P7 2.373625 1_555
Al3 P2 2.413769 1_455
Al3 P10 2.413769 1_545
Al3 P11 2.558130 1_555
Al3 Sr0 3.336288 1_555
Al3 Sr2 3.336288 1_555
P0 Sr7 3.035902 1_555
P0 Sr5 3.060050 1_555
P0 Sr1 3.299238 1_555
P1 Sr4 3.212410 1_555
P1 Sr1 3.212410 1_555
P1 Sr6 3.213344 1_565
P1 Sr5 3.213344 1_655
P2 Sr7 3.035902 1_655
P2 Sr5 3.060050 1_656
P2 Sr0 3.299238 1_555
P3 P9 2.283164 1_445
P3 Sr4 3.090760 1_455
P3 Sr1 3.090760 1_545
P3 Sr2 3.125312 1_545
P3 Sr0 3.125312 1_455
P3 Sr7 3.197313 1_555
P3 Sr3 3.197313 1_555
P4 Sr7 3.200348 1_655
P4 Sr3 3.200348 1_565
P4 Sr1 3.453626 1_555
P4 Sr4 3.453626 1_555
P4 Sr2 3.466883 1_555
P4 Sr0 3.466883 1_555
P5 Sr6 3.106573 1_566
P5 Sr5 3.106573 1_656
P5 Sr2 3.164554 1_655
P5 Sr0 3.164554 1_565
P6 Sr5 3.106573 1_555
P6 Sr6 3.106573 1_555
P6 Sr4 3.164554 1_455
P6 Sr1 3.164554 1_545
P7 Sr2 3.212410 1_555
P7 Sr0 3.212410 1_555
P7 Sr6 3.213344 1_556
P7 Sr5 3.213344 1_556
P8 Sr3 3.035902 1_555
P8 Sr6 3.060050 1_555
P8 Sr4 3.299238 1_555
P9 Sr2 3.090760 1_655
P9 Sr0 3.090760 1_565
P9 Sr4 3.125312 1_565
P9 Sr1 3.125312 1_655
P9 Sr7 3.197313 1_655
P9 Sr3 3.197313 1_565
P10 Sr3 3.035902 1_565
P10 Sr6 3.060050 1_566
P10 Sr2 3.299238 1_555
P11 P4 2.268773 1_555
P11 Sr3 3.200348 1_555
P11 Sr7 3.200348 1_555
P11 Sr2 3.453626 1_555
P11 Sr0 3.453626 1_555
P11 Sr1 3.466883 1_555
P11 Sr4 3.466883 1_555
