# generated using pymatgen
data_Ag3TeIO4
_symmetry_space_group_name_H-M   'P 1'
_cell_length_a   7.26271300
_cell_length_b   13.56476600
_cell_length_c   19.99274059
_cell_angle_alpha   82.22808102
_cell_angle_beta   90.00000000
_cell_angle_gamma   90.00000000
_symmetry_Int_Tables_number   1
_chemical_formula_structural   Ag3TeIO4
_chemical_formula_sum   'Ag36 Te12 I12 O48'
_cell_volume   1951.53236351
_cell_formula_units_Z   12
loop_
 _symmetry_equiv_pos_site_id
 _symmetry_equiv_pos_as_xyz
  1  'x, y, z'
loop_
 _atom_site_type_symbol
 _atom_site_label
 _atom_site_symmetry_multiplicity
 _atom_site_fract_x
 _atom_site_fract_y
 _atom_site_fract_z
 _atom_site_occupancy
  Ag  Ag0  1  0.49001700  0.10199100  0.62879600  1
  Ag  Ag1  1  0.13181300  0.24167700  0.58183900  1
  Ag  Ag2  1  0.33110600  0.34871800  0.85918500  1
  Ag  Ag3  1  0.82822500  0.60649000  0.30080700  1
  Ag  Ag4  1  0.66640700  0.27654900  0.69563800  1
  Ag  Ag5  1  0.52405500  0.88794700  0.99045300  1
  Ag  Ag6  1  0.79822100  0.25754100  0.85711500  1
  Ag  Ag7  1  0.13634900  0.03110800  0.41735200  1
  Ag  Ag8  1  0.99001700  0.39800900  0.37120400  1
  Ag  Ag9  1  0.55462700  0.53777600  0.93496500  1
  Ag  Ag10  1  0.36365100  0.53110800  0.41735200  1
  Ag  Ag11  1  0.86365100  0.96889200  0.58264800  1
  Ag  Ag12  1  0.63634900  0.46889200  0.58264800  1
  Ag  Ag13  1  0.50998300  0.89800900  0.37120400  1
  Ag  Ag14  1  0.83359300  0.77654900  0.69563800  1
  Ag  Ag15  1  0.70177900  0.75754100  0.85711500  1
  Ag  Ag16  1  0.83110600  0.15128200  0.14081500  1
  Ag  Ag17  1  0.86818700  0.75832300  0.41816100  1
  Ag  Ag18  1  0.16640700  0.22345100  0.30436200  1
  Ag  Ag19  1  0.94537300  0.03777600  0.93496500  1
  Ag  Ag20  1  0.16889400  0.84871800  0.85918500  1
  Ag  Ag21  1  0.36818700  0.74167700  0.58183900  1
  Ag  Ag22  1  0.17177500  0.39351000  0.69919300  1
  Ag  Ag23  1  0.00998300  0.60199100  0.62879600  1
  Ag  Ag24  1  0.63181300  0.25832300  0.41816100  1
  Ag  Ag25  1  0.05462700  0.96222400  0.06503500  1
  Ag  Ag26  1  0.44537300  0.46222400  0.06503500  1
  Ag  Ag27  1  0.67177500  0.10649000  0.30080700  1
  Ag  Ag28  1  0.29822100  0.24245900  0.14288500  1
  Ag  Ag29  1  0.33359300  0.72345100  0.30436200  1
  Ag  Ag30  1  0.97594500  0.38794700  0.99045300  1
  Ag  Ag31  1  0.02405500  0.61205300  0.00954700  1
  Ag  Ag32  1  0.66889400  0.65128200  0.14081500  1
  Ag  Ag33  1  0.32822500  0.89351000  0.69919300  1
  Ag  Ag34  1  0.20177900  0.74245900  0.14288500  1
  Ag  Ag35  1  0.47594500  0.11205300  0.00954700  1
  Te  Te0  1  0.67305500  0.50048600  0.75386100  1
  Te  Te1  1  0.32694500  0.49951400  0.24613900  1
  Te  Te2  1  0.51004000  0.94517100  0.15868600  1
  Te  Te3  1  0.01004000  0.55482900  0.84131400  1
  Te  Te4  1  0.65441200  0.35069000  0.24355200  1
  Te  Te5  1  0.17305500  0.99951400  0.24613900  1
  Te  Te6  1  0.15441200  0.14931000  0.75644800  1
  Te  Te7  1  0.34558800  0.64931000  0.75644800  1
  Te  Te8  1  0.98996000  0.44517100  0.15868600  1
  Te  Te9  1  0.48996000  0.05482900  0.84131400  1
  Te  Te10  1  0.82694500  0.00048600  0.75386100  1
  Te  Te11  1  0.84558800  0.85069000  0.24355200  1
  I  I0  1  0.60004500  0.32796400  0.98429200  1
  I  I1  1  0.25376900  0.97354100  0.56112700  1
  I  I2  1  0.10004500  0.17203600  0.01570800  1
  I  I3  1  0.89995500  0.82796400  0.98429200  1
  I  I4  1  0.39995500  0.67203600  0.01570800  1
  I  I5  1  0.74623100  0.02645900  0.43887300  1
  I  I6  1  0.74056100  0.25052300  0.56030000  1
  I  I7  1  0.24056100  0.24947700  0.43970000  1
  I  I8  1  0.75943900  0.75052300  0.56030000  1
  I  I9  1  0.75376900  0.52645900  0.43887300  1
  I  I10  1  0.25943900  0.74947700  0.43970000  1
  I  I11  1  0.24623100  0.47354100  0.56112700  1
  O  O0  1  0.46921500  0.61842700  0.23650400  1
  O  O1  1  0.68615900  0.96885300  0.67864400  1
  O  O2  1  0.01485800  0.26382700  0.76807100  1
  O  O3  1  0.18615900  0.53114700  0.32135600  1
  O  O4  1  0.13603600  0.38890400  0.09366300  1
  O  O5  1  0.65862300  0.11632300  0.76556000  1
  O  O6  1  0.49081400  0.41067800  0.30751000  1
  O  O7  1  0.65377600  0.03075900  0.09537200  1
  O  O8  1  0.34137700  0.88367700  0.23444000  1
  O  O9  1  0.49080100  0.44040000  0.17987600  1
  O  O10  1  0.03078500  0.11842700  0.23650400  1
  O  O11  1  0.48514200  0.76382700  0.76807100  1
  O  O12  1  0.99081400  0.08932200  0.69249000  1
  O  O13  1  0.81384100  0.46885300  0.67864400  1
  O  O14  1  0.15862300  0.38367700  0.23444000  1
  O  O15  1  0.29507500  0.21362200  0.68187900  1
  O  O16  1  0.84060200  0.44124800  0.82837600  1
  O  O17  1  0.50918600  0.58932200  0.69249000  1
  O  O18  1  0.96921500  0.88157300  0.76349600  1
  O  O19  1  0.36396400  0.88890400  0.09366300  1
  O  O20  1  0.53078500  0.38157300  0.76349600  1
  O  O21  1  0.82323200  0.47122100  0.23559700  1
  O  O22  1  0.79507500  0.28637800  0.31812100  1
  O  O23  1  0.67676800  0.97122100  0.23559700  1
  O  O24  1  0.84137700  0.61632300  0.76556000  1
  O  O25  1  0.32434800  0.17502500  0.83166000  1
  O  O26  1  0.15377600  0.46924100  0.90462800  1
  O  O27  1  0.50919900  0.55960000  0.82012400  1
  O  O28  1  0.99080100  0.05960000  0.82012400  1
  O  O29  1  0.63603600  0.11109600  0.90633700  1
  O  O30  1  0.70492500  0.78637800  0.31812100  1
  O  O31  1  0.15939800  0.55875200  0.17162400  1
  O  O32  1  0.51485800  0.23617300  0.23192900  1
  O  O33  1  0.67565200  0.82497500  0.16834000  1
  O  O34  1  0.34622400  0.96924100  0.90462800  1
  O  O35  1  0.86396400  0.61109600  0.90633700  1
  O  O36  1  0.84622400  0.53075900  0.09537200  1
  O  O37  1  0.82434800  0.32497500  0.16834000  1
  O  O38  1  0.17676800  0.52877900  0.76440300  1
  O  O39  1  0.20492500  0.71362200  0.68187900  1
  O  O40  1  0.00919900  0.94040000  0.17987600  1
  O  O41  1  0.32323200  0.02877900  0.76440300  1
  O  O42  1  0.31384100  0.03114700  0.32135600  1
  O  O43  1  0.65939800  0.94124800  0.82837600  1
  O  O44  1  0.17565200  0.67502500  0.83166000  1
  O  O45  1  0.00918600  0.91067800  0.30751000  1
  O  O46  1  0.98514200  0.73617300  0.23192900  1
  O  O47  1  0.34060200  0.05875200  0.17162400  1
loop_
_geom_bond_atom_site_label_1
_geom_bond_atom_site_label_2
_geom_bond_distance
_geom_bond_site_symmetry_2
Ag0 O1 2.407753 1_545
Ag0 O15 2.420414 1_555
Ag0 I1 2.906504 1_545
Ag0 I6 2.915401 1_555
Ag1 O15 2.311970 1_555
Ag1 I6 2.874069 1_455
Ag1 I7 2.937550 1_555
Ag1 I11 3.225202 1_555
Ag2 O26 2.357671 1_555
Ag2 O20 2.393958 1_555
Ag2 O25 2.491413 1_555
Ag2 I0 3.155957 1_555
Ag3 O46 2.373693 1_555
Ag3 O21 2.390574 1_555
Ag3 O30 2.665418 1_555
Ag3 O3 2.803124 1_655
Ag3 I9 2.877471 1_555
Ag4 O20 2.315821 1_555
Ag4 O5 2.420632 1_555
Ag4 I6 2.827413 1_555
Ag5 O34 2.305768 1_555
Ag5 O19 2.370043 1_556
Ag5 I3 2.856135 1_555
Ag5 I4 3.040575 1_556
Ag6 O2 2.368744 1_655
Ag6 O29 2.402771 1_555
Ag6 O16 2.499481 1_555
Ag6 I0 3.178983 1_555
Ag7 O42 2.311894 1_555
Ag7 I5 2.865212 1_455
Ag7 I1 2.998741 1_545
Ag7 I7 3.147157 1_555
Ag8 O3 2.407753 1_655
Ag8 O22 2.420414 1_555
Ag8 I9 2.906504 1_555
Ag8 I7 2.915401 1_655
Ag9 O27 2.298742 1_555
Ag9 O35 2.492012 1_555
Ag9 I4 2.824835 1_556
Ag9 I0 2.902113 1_555
Ag10 O3 2.311894 1_555
Ag10 I9 2.865212 1_555
Ag10 I11 2.998741 1_555
Ag10 I10 3.147157 1_555
Ag11 O1 2.311894 1_555
Ag11 I1 2.865212 1_655
Ag11 I5 2.998741 1_565
Ag11 I8 3.147157 1_555
Ag12 O13 2.311894 1_555
Ag12 I11 2.865212 1_555
Ag12 I9 2.998741 1_555
Ag12 I6 3.147157 1_555
Ag13 O42 2.407753 1_565
Ag13 O30 2.420414 1_555
Ag13 I5 2.906504 1_565
Ag13 I10 2.915401 1_555
Ag14 O18 2.315821 1_555
Ag14 O24 2.420632 1_555
Ag14 I8 2.827413 1_555
Ag15 O11 2.368744 1_555
Ag15 O35 2.402771 1_555
Ag15 O43 2.499481 1_555
Ag15 I3 3.178983 1_555
Ag16 O7 2.357671 1_555
Ag16 O10 2.393958 1_655
Ag16 O37 2.491413 1_555
Ag16 I2 3.155957 1_655
Ag17 O30 2.311970 1_555
Ag17 I10 2.874069 1_655
Ag17 I8 2.937550 1_555
Ag17 I9 3.225202 1_555
Ag18 O10 2.315821 1_555
Ag18 O14 2.420632 1_555
Ag18 I7 2.827413 1_555
Ag19 O28 2.298742 1_555
Ag19 O29 2.492012 1_555
Ag19 I2 2.824835 1_656
Ag19 I3 2.902113 1_545
Ag20 O34 2.357671 1_555
Ag20 O18 2.393958 1_455
Ag20 O44 2.491413 1_555
Ag20 I3 3.155957 1_455
Ag21 O39 2.311970 1_555
Ag21 I8 2.874069 1_555
Ag21 I10 2.937550 1_555
Ag21 I1 3.225202 1_555
Ag22 O2 2.373693 1_555
Ag22 O38 2.390574 1_555
Ag22 O15 2.665418 1_555
Ag22 O13 2.803124 1_455
Ag22 I11 2.877471 1_555
Ag23 O13 2.407753 1_455
Ag23 O39 2.420414 1_555
Ag23 I11 2.906504 1_555
Ag23 I8 2.915401 1_455
Ag24 O22 2.311970 1_555
Ag24 I7 2.874069 1_555
Ag24 I6 2.937550 1_555
Ag24 I5 3.225202 1_555
Ag25 O40 2.298742 1_555
Ag25 O19 2.492012 1_555
Ag25 I3 2.824835 1_454
Ag25 I2 2.902113 1_565
Ag26 O9 2.298742 1_555
Ag26 O4 2.492012 1_555
Ag26 I0 2.824835 1_554
Ag26 I4 2.902113 1_555
Ag27 O32 2.373693 1_555
Ag27 O23 2.390574 1_545
Ag27 O22 2.665418 1_555
Ag27 O42 2.803124 1_555
Ag27 I5 2.877471 1_555
Ag28 O32 2.368744 1_555
Ag28 O4 2.402771 1_555
Ag28 O47 2.499481 1_555
Ag28 I2 3.178983 1_555
Ag29 O0 2.315821 1_555
Ag29 O8 2.420632 1_555
Ag29 I10 2.827413 1_555
Ag30 O26 2.305768 1_655
Ag30 O4 2.370043 1_656
Ag30 I0 2.856135 1_555
Ag30 I2 3.040575 1_656
Ag31 O36 2.305768 1_455
Ag31 O35 2.370043 1_454
Ag31 I4 2.856135 1_555
Ag31 I3 3.040575 1_454
Ag32 O36 2.357671 1_555
Ag32 O0 2.393958 1_555
Ag32 O33 2.491413 1_555
Ag32 I4 3.155957 1_555
Ag33 O11 2.373693 1_555
Ag33 O41 2.390574 1_565
Ag33 O39 2.665418 1_555
Ag33 O1 2.803124 1_555
Ag33 I1 2.877471 1_555
Ag34 O46 2.368744 1_455
Ag34 O19 2.402771 1_555
Ag34 O31 2.499481 1_555
Ag34 I4 3.178983 1_555
Ag35 O7 2.305768 1_555
Ag35 O29 2.370043 1_554
Ag35 I2 2.856135 1_555
Ag35 I0 3.040575 1_554
O0 Te1 1.903304 1_555
O1 Te10 1.914555 1_565
O2 Te6 1.895239 1_555
O3 Te1 1.914555 1_555
O4 Te8 1.914784 1_455
O5 Te10 2.029172 1_555
O5 Te9 2.036770 1_555
O6 Te1 1.993518 1_555
O6 Te4 1.997588 1_555
O7 Te2 1.908525 1_545
O8 Te5 2.029172 1_555
O8 Te2 2.036770 1_555
O9 Te4 2.023482 1_555
O9 Te1 2.025224 1_555
O10 Te5 1.903304 1_545
O11 Te7 1.895239 1_555
O12 Te10 1.993518 1_555
O12 Te6 1.997588 1_655
O13 Te0 1.914555 1_555
O14 Te1 2.029172 1_555
O14 Te8 2.036770 1_455
O15 Te6 1.917171 1_555
O16 Te0 2.005498 1_555
O16 Te3 2.015633 1_655
O17 Te0 1.993518 1_555
O17 Te7 1.997588 1_555
O18 Te10 1.903304 1_565
O19 Te2 1.914784 1_555
O20 Te0 1.903304 1_555
O21 Te8 2.025462 1_555
O21 Te4 2.032587 1_555
O22 Te4 1.917171 1_555
O23 Te2 2.025462 1_555
O23 Te11 2.032587 1_555
O24 Te0 2.029172 1_555
O24 Te3 2.036770 1_655
O25 Te6 2.011932 1_555
O25 Te9 2.014238 1_555
O26 Te3 1.908525 1_555
O27 Te7 2.023482 1_555
O27 Te0 2.025224 1_555
O28 Te6 2.023482 1_655
O28 Te10 2.025224 1_555
O29 Te9 1.914784 1_555
O30 Te11 1.917171 1_555
O31 Te1 2.005498 1_555
O31 Te8 2.015633 1_455
O32 Te4 1.895239 1_555
O33 Te11 2.011932 1_555
O33 Te2 2.014238 1_555
O34 Te9 1.908525 1_565
O35 Te3 1.914784 1_655
O36 Te8 1.908525 1_555
O37 Te4 2.011932 1_555
O37 Te8 2.014238 1_555
O38 Te3 2.025462 1_555
O38 Te7 2.032587 1_555
O39 Te7 1.917171 1_555
O40 Te11 2.023482 1_455
O40 Te5 2.025224 1_555
O41 Te9 2.025462 1_555
O41 Te6 2.032587 1_555
O42 Te5 1.914555 1_545
O43 Te10 2.005498 1_565
O43 Te9 2.015633 1_565
O44 Te7 2.011932 1_555
O44 Te3 2.014238 1_555
O45 Te5 1.993518 1_555
O45 Te11 1.997588 1_455
O46 Te11 1.895239 1_555
O47 Te5 2.005498 1_545
O47 Te2 2.015633 1_545
