# generated using pymatgen
data_Sr3Pr2(BO3)4
_symmetry_space_group_name_H-M   'P 1'
_cell_length_a   7.40318700
_cell_length_b   8.90328600
_cell_length_c   16.79600400
_cell_angle_alpha   90.00000000
_cell_angle_beta   90.00000000
_cell_angle_gamma   90.00000000
_symmetry_Int_Tables_number   1
_chemical_formula_structural   Sr3Pr2(BO3)4
_chemical_formula_sum   'Sr12 Pr8 B16 O48'
_cell_volume   1107.06982458
_cell_formula_units_Z   4
loop_
 _symmetry_equiv_pos_site_id
 _symmetry_equiv_pos_as_xyz
  1  'x, y, z'
loop_
 _atom_site_type_symbol
 _atom_site_label
 _atom_site_symmetry_multiplicity
 _atom_site_fract_x
 _atom_site_fract_y
 _atom_site_fract_z
 _atom_site_occupancy
  Sr  Sr0  1  0.32067200  0.34956000  0.92730000  1
  Sr  Sr1  1  0.67932800  0.65044000  0.42730000  1
  Sr  Sr2  1  0.17932800  0.84956000  0.42730000  1
  Sr  Sr3  1  0.82067200  0.15044000  0.92730000  1
  Sr  Sr4  1  0.03684900  0.32756000  0.72212700  1
  Sr  Sr5  1  0.96315100  0.67244000  0.22212700  1
  Sr  Sr6  1  0.46315100  0.82756000  0.22212700  1
  Sr  Sr7  1  0.53684900  0.17244000  0.72212700  1
  Sr  Sr8  1  0.30686600  0.35181000  0.17554600  1
  Sr  Sr9  1  0.69313400  0.64819000  0.67554600  1
  Sr  Sr10  1  0.80686600  0.14819000  0.17554600  1
  Sr  Sr11  1  0.19313400  0.85181000  0.67554600  1
  Pr  Pr0  1  0.03116300  0.32925500  0.38364600  1
  Pr  Pr1  1  0.96883700  0.67074500  0.88364600  1
  Pr  Pr2  1  0.46883700  0.82925500  0.88364600  1
  Pr  Pr3  1  0.53116300  0.17074500  0.38364600  1
  Pr  Pr4  1  0.31552000  0.46571000  0.55467200  1
  Pr  Pr5  1  0.68448000  0.53429000  0.05467200  1
  Pr  Pr6  1  0.18448000  0.96571000  0.05467200  1
  Pr  Pr7  1  0.81552000  0.03429000  0.55467200  1
  B  B0  1  0.16223700  0.06196300  0.26143900  1
  B  B1  1  0.01498500  0.37080500  0.04893300  1
  B  B2  1  0.98501500  0.62919500  0.54893300  1
  B  B3  1  0.48501500  0.87080500  0.54893300  1
  B  B4  1  0.51498500  0.12919500  0.04893300  1
  B  B5  1  0.72169200  0.35576400  0.55244000  1
  B  B6  1  0.27830800  0.64423600  0.05244000  1
  B  B7  1  0.77830800  0.85576400  0.05244000  1
  B  B8  1  0.22169200  0.14423600  0.55244000  1
  B  B9  1  0.67347800  0.45172800  0.84560200  1
  B  B10  1  0.32652200  0.54827200  0.34560200  1
  B  B11  1  0.82652200  0.95172800  0.34560200  1
  B  B12  1  0.17347800  0.04827200  0.84560200  1
  B  B13  1  0.66223700  0.43803700  0.26143900  1
  B  B14  1  0.33776300  0.56196300  0.76143900  1
  B  B15  1  0.83776300  0.93803700  0.76143900  1
  O  O0  1  0.80949700  0.49141900  0.79275800  1
  O  O1  1  0.24759600  0.71985600  0.98079800  1
  O  O2  1  0.74759600  0.78014400  0.98079800  1
  O  O3  1  0.25240400  0.21985600  0.48079800  1
  O  O4  1  0.61666300  0.25978000  0.04558500  1
  O  O5  1  0.26787000  0.21892800  0.62130200  1
  O  O6  1  0.73213000  0.78107200  0.12130200  1
  O  O7  1  0.23213000  0.71892800  0.12130200  1
  O  O8  1  0.76787000  0.28107200  0.62130200  1
  O  O9  1  0.46094800  0.05500600  0.97885800  1
  O  O10  1  0.53905200  0.94499400  0.47885800  1
  O  O11  1  0.03905200  0.55500600  0.47885800  1
  O  O12  1  0.96094800  0.44499400  0.97885800  1
  O  O13  1  0.45256000  0.07348800  0.12128000  1
  O  O14  1  0.54744000  0.92651200  0.62128000  1
  O  O15  1  0.04744000  0.57348800  0.62128000  1
  O  O16  1  0.95256000  0.42651200  0.12128000  1
  O  O17  1  0.11666300  0.24022000  0.04558500  1
  O  O18  1  0.88333700  0.75978000  0.54558500  1
  O  O19  1  0.38333700  0.74022000  0.54558500  1
  O  O20  1  0.88281500  0.06085600  0.40057000  1
  O  O21  1  0.11718500  0.93914400  0.90057000  1
  O  O22  1  0.61718500  0.56085600  0.90057000  1
  O  O23  1  0.38281500  0.43914400  0.40057000  1
  O  O24  1  0.10355900  0.19145900  0.84782800  1
  O  O25  1  0.89644100  0.80854100  0.34782800  1
  O  O26  1  0.39644100  0.69145900  0.34782800  1
  O  O27  1  0.60355900  0.30854100  0.84782800  1
  O  O28  1  0.69050300  0.99141900  0.29275800  1
  O  O29  1  0.30949700  0.00858100  0.79275800  1
  O  O30  1  0.75240400  0.28014400  0.48079800  1
  O  O31  1  0.19050300  0.50858100  0.29275800  1
  O  O32  1  0.88416300  0.03860200  0.70236200  1
  O  O33  1  0.11583700  0.96139800  0.20236200  1
  O  O34  1  0.61583700  0.53860200  0.20236200  1
  O  O35  1  0.38416300  0.46139800  0.70236200  1
  O  O36  1  0.08261100  0.20417100  0.26105900  1
  O  O37  1  0.91738900  0.79582900  0.76105900  1
  O  O38  1  0.41738900  0.70417100  0.76105900  1
  O  O39  1  0.58261100  0.29582900  0.26105900  1
  O  O40  1  0.70881900  0.97114300  0.81922000  1
  O  O41  1  0.29118100  0.02885700  0.31922000  1
  O  O42  1  0.79118100  0.47114300  0.31922000  1
  O  O43  1  0.20881900  0.52885700  0.81922000  1
  O  O44  1  0.86332700  0.99280600  0.05267500  1
  O  O45  1  0.13667300  0.00719400  0.55267500  1
  O  O46  1  0.63667300  0.49280600  0.55267500  1
  O  O47  1  0.36332700  0.50719400  0.05267500  1
loop_
_geom_bond_atom_site_label_1
_geom_bond_atom_site_label_2
_geom_bond_distance
_geom_bond_site_symmetry_2
B0 O33 1.379942 1_545
B0 O41 1.392833 1_555
B0 O36 1.396636 1_555
B1 O17 1.386183 1_555
B1 O16 1.391451 1_455
B1 O12 1.407698 1_454
B2 O18 1.386183 1_555
B2 O15 1.391451 1_655
B2 O11 1.407698 1_655
B3 O19 1.386183 1_555
B3 O14 1.391451 1_555
B3 O10 1.407698 1_555
B4 O4 1.386183 1_555
B4 O13 1.391451 1_555
B4 O9 1.407698 1_554
B5 O46 1.372908 1_555
B5 O8 1.377258 1_555
B5 O30 1.397467 1_555
B6 O47 1.372908 1_555
B6 O7 1.377258 1_555
B6 O1 1.397467 1_554
B7 O44 1.372908 1_555
B7 O6 1.377258 1_555
B7 O2 1.397467 1_554
B8 O45 1.372908 1_555
B8 O5 1.377258 1_555
B8 O3 1.397467 1_555
B9 O27 1.376421 1_555
B9 O0 1.388039 1_555
B9 O22 1.403588 1_555
B10 O26 1.376421 1_555
B10 O31 1.388039 1_555
B10 O23 1.403588 1_555
B11 O25 1.376421 1_555
B11 O28 1.388039 1_555
B11 O20 1.403588 1_565
B12 O24 1.376421 1_555
B12 O29 1.388039 1_555
B12 O21 1.403588 1_545
B13 O34 1.379942 1_555
B13 O42 1.392833 1_555
B13 O39 1.396636 1_555
B14 O35 1.379942 1_555
B14 O43 1.392833 1_555
B14 O38 1.396636 1_555
B15 O32 1.379942 1_565
B15 O40 1.392833 1_555
B15 O37 1.396636 1_555
O0 Pr1 2.504193 1_555
O0 Sr4 2.523612 1_655
O0 Sr9 2.562431 1_555
O1 Pr2 2.508791 1_555
O1 Pr6 2.559142 1_556
O1 Pr1 2.666969 1_455
O2 Pr1 2.508791 1_555
O2 Pr5 2.559142 1_556
O2 Pr2 2.666969 1_555
O3 Pr0 2.508791 1_555
O3 Pr4 2.559142 1_555
O3 Pr3 2.666969 1_555
O4 Pr5 2.499739 1_555
O4 Sr3 2.678762 1_554
O4 Sr10 2.781110 1_555
O4 Sr0 3.063931 1_554
O5 Pr4 2.490868 1_555
O5 Sr4 2.593903 1_555
O5 Sr7 2.646581 1_555
O6 Pr5 2.490868 1_555
O6 Sr5 2.593903 1_555
O6 Sr6 2.646581 1_555
O7 Pr6 2.490868 1_555
O7 Sr6 2.593903 1_555
O7 Sr5 2.646581 1_455
O8 Pr7 2.490868 1_555
O8 Sr7 2.593903 1_555
O8 Sr4 2.646581 1_655
O9 Pr6 2.538249 1_546
O9 Pr2 2.569162 1_545
O9 Sr3 2.926427 1_555
O9 Sr0 2.950569 1_555
O10 Pr7 2.538249 1_565
O10 Pr3 2.569162 1_565
O10 Sr2 2.926427 1_555
O10 Sr1 2.950569 1_555
O11 Pr4 2.538249 1_555
O11 Pr0 2.569162 1_555
O11 Sr1 2.926427 1_455
O11 Sr2 2.950569 1_555
O12 Pr5 2.538249 1_556
O12 Pr1 2.569162 1_555
O12 Sr0 2.926427 1_655
O12 Sr3 2.950569 1_555
O13 Pr6 2.472086 1_545
O13 Sr6 2.769368 1_545
O13 Sr8 2.852106 1_555
O13 Sr10 2.855379 1_555
O14 Pr7 2.472086 1_565
O14 Sr7 2.769368 1_565
O14 Sr9 2.852106 1_555
O14 Sr11 2.855379 1_555
O15 Pr4 2.472086 1_555
O15 Sr4 2.769368 1_555
O15 Sr11 2.852106 1_555
O15 Sr9 2.855379 1_455
O16 Pr5 2.472086 1_555
O16 Sr5 2.769368 1_555
O16 Sr10 2.852106 1_555
O16 Sr8 2.855379 1_655
O17 Pr6 2.499739 1_545
O17 Sr0 2.678762 1_554
O17 Sr8 2.781110 1_555
O17 Sr3 3.063931 1_454
O18 Pr7 2.499739 1_565
O18 Sr1 2.678762 1_555
O18 Sr9 2.781110 1_555
O18 Sr2 3.063931 1_655
O19 Pr4 2.499739 1_555
O19 Sr2 2.678762 1_555
O19 Sr11 2.781110 1_555
O19 Sr1 3.063931 1_555
O20 Pr0 2.645240 1_655
O20 Pr7 2.646399 1_555
O20 Pr3 2.795608 1_555
O20 Sr2 2.925616 1_645
O21 Pr1 2.645240 1_455
O21 Pr6 2.646399 1_556
O21 Pr2 2.795608 1_555
O21 Sr3 2.925616 1_465
O22 Pr2 2.645240 1_555
O22 Pr5 2.646399 1_556
O22 Pr1 2.795608 1_555
O22 Sr0 2.925616 1_555
O23 Pr3 2.645240 1_555
O23 Pr4 2.646399 1_555
O23 Pr0 2.795608 1_555
O23 Sr1 2.925616 1_555
O24 Sr4 2.483891 1_555
O24 Sr3 2.510188 1_455
O24 Sr0 2.519249 1_555
O25 Sr5 2.483891 1_555
O25 Sr2 2.510188 1_655
O25 Sr1 2.519249 1_555
O26 Sr6 2.483891 1_555
O26 Sr1 2.510188 1_555
O26 Sr2 2.519249 1_555
O27 Sr7 2.483891 1_555
O27 Sr0 2.510188 1_555
O27 Sr3 2.519249 1_555
O28 Pr3 2.504193 1_565
O28 Sr6 2.523612 1_555
O28 Sr10 2.562431 1_565
O29 Pr2 2.504193 1_545
O29 Sr7 2.523612 1_555
O29 Sr11 2.562431 1_545
O30 Pr3 2.508791 1_555
O30 Pr7 2.559142 1_555
O30 Pr0 2.666969 1_655
O31 Pr0 2.504193 1_555
O31 Sr5 2.523612 1_455
O31 Sr8 2.562431 1_555
O32 Pr7 2.532411 1_555
O32 Sr4 2.829591 1_655
O32 Sr7 2.853303 1_555
O32 Sr11 2.863687 1_645
O33 Pr6 2.532411 1_555
O33 Sr5 2.829591 1_455
O33 Sr6 2.853303 1_555
O33 Sr10 2.863687 1_465
O34 Pr5 2.532411 1_555
O34 Sr6 2.829591 1_555
O34 Sr5 2.853303 1_555
O34 Sr8 2.863687 1_555
O35 Pr4 2.532411 1_555
O35 Sr7 2.829591 1_555
O35 Sr4 2.853303 1_555
O35 Sr9 2.863687 1_555
O36 Pr0 2.371638 1_555
O36 Sr10 2.545307 1_455
O36 Sr8 2.558710 1_555
O37 Pr1 2.371638 1_555
O37 Sr11 2.545307 1_655
O37 Sr9 2.558710 1_555
O38 Pr2 2.371638 1_555
O38 Sr9 2.545307 1_555
O38 Sr11 2.558710 1_555
O39 Pr3 2.371638 1_555
O39 Sr8 2.545307 1_555
O39 Sr10 2.558710 1_555
O40 Pr2 2.433764 1_555
O40 Sr3 2.555256 1_565
O40 Sr7 2.737202 1_565
O41 Pr3 2.433764 1_555
O41 Sr2 2.555256 1_545
O41 Sr6 2.737202 1_545
O42 Pr0 2.433764 1_655
O42 Sr1 2.555256 1_555
O42 Sr5 2.737202 1_555
O43 Pr1 2.433764 1_455
O43 Sr0 2.555256 1_555
O43 Sr4 2.737202 1_555
O44 Pr6 2.389999 1_655
O44 Sr10 2.519448 1_565
O44 Sr3 2.550257 1_564
O45 Pr7 2.389999 1_455
O45 Sr11 2.519448 1_545
O45 Sr2 2.550257 1_545
O46 Pr4 2.389999 1_555
O46 Sr9 2.519448 1_555
O46 Sr1 2.550257 1_555
O47 Pr5 2.389999 1_555
O47 Sr8 2.519448 1_555
O47 Sr0 2.550257 1_554
