# generated using pymatgen
data_Sr2FeClO3
_symmetry_space_group_name_H-M   'P 1'
_cell_length_a   5.62090423
_cell_length_b   5.62055775
_cell_length_c   14.46140100
_cell_angle_alpha   90.00001300
_cell_angle_beta   89.99998701
_cell_angle_gamma   90.00053339
_symmetry_Int_Tables_number   1
_chemical_formula_structural   Sr2FeClO3
_chemical_formula_sum   'Sr8 Fe4 Cl4 O12'
_cell_volume   456.87350104
_cell_formula_units_Z   4
loop_
 _symmetry_equiv_pos_site_id
 _symmetry_equiv_pos_as_xyz
  1  'x, y, z'
loop_
 _atom_site_type_symbol
 _atom_site_label
 _atom_site_symmetry_multiplicity
 _atom_site_fract_x
 _atom_site_fract_y
 _atom_site_fract_z
 _atom_site_occupancy
  Sr  Sr0  1  0.24999900  0.00000100  0.34400000  1
  Sr  Sr1  1  0.74999800  0.50000100  0.34400100  1
  Sr  Sr2  1  0.75000300  0.00000100  0.65600300  1
  Sr  Sr3  1  0.25000400  0.50000100  0.65600200  1
  Sr  Sr4  1  0.24999800  0.00000000  0.09574100  1
  Sr  Sr5  1  0.74999900  0.50000000  0.09574600  1
  Sr  Sr6  1  0.75000100  0.00000200  0.90425700  1
  Sr  Sr7  1  0.25000100  0.50000200  0.90425200  1
  Fe  Fe0  1  0.24999600  0.49999900  0.20763700  1
  Fe  Fe1  1  0.75000000  0.50000000  0.79236600  1
  Fe  Fe2  1  0.74999800  0.00000000  0.20760000  1
  Fe  Fe3  1  0.25000000  0.99999900  0.79236300  1
  Cl  Cl0  1  0.75000100  0.00000100  0.42432900  1
  Cl  Cl1  1  0.25000100  0.50000100  0.42433000  1
  Cl  Cl2  1  0.25000200  0.00000000  0.57568000  1
  Cl  Cl3  1  0.75000400  0.50000000  0.57567900  1
  O  O0  1  0.24999900  0.99999700  0.92521200  1
  O  O1  1  0.74999900  0.49999700  0.92524100  1
  O  O2  1  0.74999900  0.00000000  0.07479000  1
  O  O3  1  0.24999900  0.50000000  0.07475700  1
  O  O4  1  0.50000100  0.24999700  0.23087800  1
  O  O5  1  0.99999700  0.75000200  0.23087800  1
  O  O6  1  0.49999900  0.24999800  0.76912100  1
  O  O7  1  0.00000200  0.75000200  0.76912100  1
  O  O8  1  0.50000100  0.75000100  0.23088100  1
  O  O9  1  0.99999800  0.24999600  0.23088100  1
  O  O10  1  0.50000000  0.75000300  0.76912600  1
  O  O11  1  0.00000300  0.24999900  0.76912600  1
loop_
_geom_bond_atom_site_label_1
_geom_bond_atom_site_label_2
_geom_bond_distance
_geom_bond_site_symmetry_2
Fe0 O3 1.921631 1_555
Fe0 O9 2.015452 1_455
Fe0 O5 2.015467 1_455
Fe0 O8 2.015476 1_555
Fe0 O4 2.015487 1_555
Fe1 O1 1.921559 1_555
Fe1 O6 2.015462 1_555
Fe1 O7 2.015466 1_655
Fe1 O10 2.015469 1_555
Fe1 O11 2.015472 1_655
Fe2 O2 1.920619 1_555
Fe2 O8 2.015522 1_545
Fe2 O9 2.015522 1_555
Fe2 O4 2.015525 1_555
Fe2 O5 2.015537 1_545
Fe3 O0 1.921183 1_555
Fe3 O7 2.015424 1_555
Fe3 O10 2.015434 1_555
Fe3 O6 2.015435 1_565
Fe3 O11 2.015438 1_565
Cl0 Sr1 3.040906 1_545
Cl0 Sr1 3.040906 1_555
Cl0 Sr0 3.041061 1_655
Cl0 Sr0 3.041082 1_555
Cl0 Fe2 3.134205 1_555
Cl0 Sr2 3.350331 1_555
Cl1 Sr0 3.040917 1_555
Cl1 Sr0 3.040918 1_565
Cl1 Sr1 3.041056 1_555
Cl1 Sr1 3.041088 1_455
Cl1 Fe0 3.133684 1_555
Cl1 Sr3 3.350302 1_555
Cl2 Sr3 3.040868 1_545
Cl2 Sr3 3.040878 1_555
Cl2 Sr2 3.041033 1_455
Cl2 Sr2 3.041044 1_555
Cl2 Fe3 3.133540 1_545
Cl2 Sr0 3.350417 1_555
Cl3 Sr2 3.040879 1_555
Cl3 Sr2 3.040889 1_565
Cl3 Sr3 3.041038 1_555
Cl3 Sr3 3.041039 1_655
Cl3 Fe1 3.133598 1_555
Cl3 Sr1 3.350388 1_555
O0 Sr4 2.466088 1_566
O0 Sr7 2.826550 1_555
O0 Sr7 2.826606 1_565
O0 Sr6 2.826731 1_465
O0 Sr6 2.826754 1_565
O1 Sr5 2.465741 1_556
O1 Sr6 2.826587 1_555
O1 Sr6 2.826643 1_565
O1 Sr7 2.826784 1_555
O1 Sr7 2.826806 1_655
O2 Sr6 2.466146 1_554
O2 Sr5 2.826572 1_555
O2 Sr5 2.826572 1_545
O2 Sr4 2.826731 1_655
O2 Sr4 2.826742 1_555
O3 Sr7 2.465741 1_554
O3 Sr4 2.826615 1_565
O3 Sr4 2.826615 1_555
O3 Sr5 2.826795 1_455
O3 Sr5 2.826795 1_555
O4 Sr0 2.573944 1_555
O4 Sr1 2.573962 1_555
O4 Sr5 2.787104 1_555
O4 Sr4 2.787151 1_555
O5 Sr0 2.573953 1_665
O5 Sr1 2.573959 1_555
O5 Sr5 2.787101 1_555
O5 Sr4 2.787149 1_665
O6 Sr2 2.573930 1_555
O6 Sr3 2.573931 1_555
O6 Sr7 2.787109 1_555
O6 Sr6 2.787149 1_555
O7 Sr2 2.573922 1_465
O7 Sr3 2.573945 1_555
O7 Sr7 2.787101 1_555
O7 Sr6 2.787157 1_465
O8 Sr1 2.573937 1_555
O8 Sr0 2.573942 1_565
O8 Sr5 2.787141 1_555
O8 Sr4 2.787201 1_565
O9 Sr0 2.573925 1_655
O9 Sr1 2.573961 1_555
O9 Sr5 2.787153 1_555
O9 Sr4 2.787183 1_655
O10 Sr3 2.573962 1_555
O10 Sr2 2.573962 1_565
O10 Sr7 2.787040 1_555
O10 Sr6 2.787091 1_565
O11 Sr2 2.573953 1_455
O11 Sr3 2.573977 1_555
O11 Sr7 2.787043 1_555
O11 Sr6 2.787088 1_455
