# generated using pymatgen
data_BeTcSe
_symmetry_space_group_name_H-M   'P 1'
_cell_length_a   3.91576361
_cell_length_b   3.91576361
_cell_length_c   3.91576361
_cell_angle_alpha   60.00000000
_cell_angle_beta   60.00000000
_cell_angle_gamma   60.00000000
_symmetry_Int_Tables_number   1
_chemical_formula_structural   BeTcSe
_chemical_formula_sum   'Be1 Tc1 Se1'
_cell_volume   42.45554296
_cell_formula_units_Z   1
loop_
 _symmetry_equiv_pos_site_id
 _symmetry_equiv_pos_as_xyz
  1  'x, y, z'
loop_
 _atom_site_type_symbol
 _atom_site_label
 _atom_site_symmetry_multiplicity
 _atom_site_fract_x
 _atom_site_fract_y
 _atom_site_fract_z
 _atom_site_occupancy
  Be  Be0  1  0.75000000  0.75000000  0.75000000  1
  Tc  Tc0  1  0.50000000  0.50000000  0.50000000  1
  Se  Se0  1  0.00000000  0.00000000  0.00000000  1
loop_
_geom_bond_atom_site_label_1
_geom_bond_atom_site_label_2
_geom_bond_distance
_geom_bond_site_symmetry_2
Be0 Tc0 2.397906 1_556
Be0 Tc0 2.397906 1_565
Be0 Se0 2.397906 1_665
Be0 Se0 2.397906 1_666
Be0 Tc0 2.397906 1_555
Be0 Se0 2.397906 1_656
Be0 Se0 2.397906 1_566
Be0 Tc0 2.397906 1_655
Se0 Tc0 2.768863 1_454
Se0 Tc0 2.768863 1_554
Se0 Tc0 2.768863 1_544
Se0 Tc0 2.768863 1_445
Se0 Tc0 2.768863 1_455
Se0 Tc0 2.768863 1_545
