# generated using pymatgen
data_Bi4O5
_symmetry_space_group_name_H-M   'P 1'
_cell_length_a   7.81342442
_cell_length_b   7.81342442
_cell_length_c   5.68503274
_cell_angle_alpha   83.95448167
_cell_angle_beta   83.95448167
_cell_angle_gamma   88.98462957
_symmetry_Int_Tables_number   1
_chemical_formula_structural   Bi4O5
_chemical_formula_sum   'Bi8 O10'
_cell_volume   343.21158421
_cell_formula_units_Z   2
loop_
 _symmetry_equiv_pos_site_id
 _symmetry_equiv_pos_as_xyz
  1  'x, y, z'
loop_
 _atom_site_type_symbol
 _atom_site_label
 _atom_site_symmetry_multiplicity
 _atom_site_fract_x
 _atom_site_fract_y
 _atom_site_fract_z
 _atom_site_occupancy
  Bi  Bi0  1  0.19894500  0.54108800  0.74502100  1
  Bi  Bi1  1  0.23594300  0.03096600  0.75866300  1
  Bi  Bi2  1  0.76663000  0.96195900  0.70167600  1
  Bi  Bi3  1  0.71216100  0.44078800  0.79745400  1
  Bi  Bi4  1  0.03096600  0.23594300  0.25866300  1
  Bi  Bi5  1  0.44078800  0.71216100  0.29745400  1
  Bi  Bi6  1  0.54108800  0.19894500  0.24502100  1
  Bi  Bi7  1  0.96195900  0.76663000  0.20167600  1
  O  O0  1  0.24079300  0.76393100  0.00032500  1
  O  O1  1  0.97804500  0.02228500  0.96968400  1
  O  O2  1  0.48572300  0.54012700  0.64357700  1
  O  O3  1  0.16883300  0.29187600  0.55589500  1
  O  O4  1  0.69652200  0.86438400  0.36070300  1
  O  O5  1  0.76393100  0.24079300  0.50032500  1
  O  O6  1  0.02228500  0.97804500  0.46968400  1
  O  O7  1  0.54012700  0.48572300  0.14357700  1
  O  O8  1  0.29187600  0.16883300  0.05589500  1
  O  O9  1  0.86438400  0.69652200  0.86070300  1
loop_
_geom_bond_atom_site_label_1
_geom_bond_atom_site_label_2
_geom_bond_distance
_geom_bond_site_symmetry_2
Bi0 O2 2.254239 1_555
Bi0 O3 2.348080 1_555
Bi0 O0 2.428502 1_556
Bi1 O8 2.182284 1_556
Bi1 O1 2.232217 1_455
Bi1 O3 2.313893 1_555
Bi1 O0 2.376257 1_546
Bi1 O6 2.530235 1_545
Bi2 O6 2.272547 1_655
Bi2 O4 2.277856 1_555
Bi2 O9 2.323026 1_555
Bi2 O5 2.352747 1_565
Bi2 O1 2.445677 1_565
Bi3 O2 2.152279 1_555
Bi3 O7 2.318117 1_556
Bi3 O5 2.418370 1_555
Bi3 O9 2.421200 1_555
Bi4 O3 2.182284 1_555
Bi4 O6 2.232217 1_545
Bi4 O8 2.313893 1_555
Bi4 O5 2.376257 1_455
Bi4 O1 2.530235 1_454
Bi5 O7 2.152279 1_555
Bi5 O2 2.318117 1_555
Bi5 O0 2.418370 1_555
Bi5 O4 2.421200 1_555
Bi6 O7 2.254239 1_555
Bi6 O8 2.348080 1_555
Bi6 O5 2.428502 1_555
Bi7 O1 2.272547 1_564
Bi7 O9 2.277856 1_554
Bi7 O4 2.323026 1_555
Bi7 O0 2.352747 1_655
Bi7 O6 2.445677 1_655
