# generated using pymatgen
data_Ba4Cu3Ge20
_symmetry_space_group_name_H-M   'P 1'
_cell_length_a   10.81935200
_cell_length_b   10.81935200
_cell_length_c   10.81935200
_cell_angle_alpha   90.00000000
_cell_angle_beta   90.00000000
_cell_angle_gamma   90.00000000
_symmetry_Int_Tables_number   1
_chemical_formula_structural   Ba4Cu3Ge20
_chemical_formula_sum   'Ba8 Cu6 Ge40'
_cell_volume   1266.49579288
_cell_formula_units_Z   2
loop_
 _symmetry_equiv_pos_site_id
 _symmetry_equiv_pos_as_xyz
  1  'x, y, z'
loop_
 _atom_site_type_symbol
 _atom_site_label
 _atom_site_symmetry_multiplicity
 _atom_site_fract_x
 _atom_site_fract_y
 _atom_site_fract_z
 _atom_site_occupancy
  Ba  Ba0  1  0.75000000  0.50000000  0.00000000  1
  Ba  Ba1  1  0.50000000  0.50000000  0.50000000  1
  Ba  Ba2  1  0.00000000  0.00000000  0.00000000  1
  Ba  Ba3  1  0.50000000  0.00000000  0.25000000  1
  Ba  Ba4  1  0.00000000  0.75000000  0.50000000  1
  Ba  Ba5  1  0.00000000  0.25000000  0.50000000  1
  Ba  Ba6  1  0.25000000  0.50000000  0.00000000  1
  Ba  Ba7  1  0.50000000  0.00000000  0.75000000  1
  Cu  Cu0  1  0.00000000  0.50000000  0.25000000  1
  Cu  Cu1  1  0.25000000  0.00000000  0.50000000  1
  Cu  Cu2  1  0.50000000  0.75000000  0.00000000  1
  Cu  Cu3  1  0.50000000  0.25000000  0.00000000  1
  Cu  Cu4  1  0.00000000  0.50000000  0.75000000  1
  Cu  Cu5  1  0.75000000  0.00000000  0.50000000  1
  Ge  Ge0  1  0.50000000  0.61944800  0.18361300  1
  Ge  Ge1  1  0.50000000  0.38055200  0.81638700  1
  Ge  Ge2  1  0.00000000  0.68361300  0.11944800  1
  Ge  Ge3  1  0.81688900  0.18311100  0.81688900  1
  Ge  Ge4  1  0.11944800  0.00000000  0.68361300  1
  Ge  Ge5  1  0.31688900  0.31688900  0.31688900  1
  Ge  Ge6  1  0.38055200  0.18361300  0.50000000  1
  Ge  Ge7  1  0.68311100  0.31688900  0.31688900  1
  Ge  Ge8  1  0.00000000  0.31638700  0.88055200  1
  Ge  Ge9  1  0.61944800  0.81638700  0.50000000  1
  Ge  Ge10  1  0.81638700  0.50000000  0.38055200  1
  Ge  Ge11  1  0.18311100  0.18311100  0.81688900  1
  Ge  Ge12  1  0.18311100  0.81688900  0.18311100  1
  Ge  Ge13  1  0.68361300  0.11944800  0.00000000  1
  Ge  Ge14  1  0.18361300  0.50000000  0.61944800  1
  Ge  Ge15  1  0.68361300  0.88055200  0.00000000  1
  Ge  Ge16  1  0.68311100  0.68311100  0.31688900  1
  Ge  Ge17  1  0.88055200  0.00000000  0.31638700  1
  Ge  Ge18  1  0.31688900  0.68311100  0.31688900  1
  Ge  Ge19  1  0.18311100  0.18311100  0.18311100  1
  Ge  Ge20  1  0.31638700  0.88055200  0.00000000  1
  Ge  Ge21  1  0.88055200  0.00000000  0.68361300  1
  Ge  Ge22  1  0.81638700  0.50000000  0.61944800  1
  Ge  Ge23  1  0.38055200  0.81638700  0.50000000  1
  Ge  Ge24  1  0.50000000  0.61944800  0.81638700  1
  Ge  Ge25  1  0.68311100  0.31688900  0.68311100  1
  Ge  Ge26  1  0.81688900  0.18311100  0.18311100  1
  Ge  Ge27  1  0.00000000  0.31638700  0.11944800  1
  Ge  Ge28  1  0.31688900  0.68311100  0.68311100  1
  Ge  Ge29  1  0.18361300  0.50000000  0.38055200  1
  Ge  Ge30  1  0.00000000  0.68361300  0.88055200  1
  Ge  Ge31  1  0.81688900  0.81688900  0.18311100  1
  Ge  Ge32  1  0.11944800  0.00000000  0.31638700  1
  Ge  Ge33  1  0.61944800  0.18361300  0.50000000  1
  Ge  Ge34  1  0.18311100  0.81688900  0.81688900  1
  Ge  Ge35  1  0.50000000  0.38055200  0.18361300  1
  Ge  Ge36  1  0.31688900  0.31688900  0.68311100  1
  Ge  Ge37  1  0.68311100  0.68311100  0.68311100  1
  Ge  Ge38  1  0.81688900  0.81688900  0.81688900  1
  Ge  Ge39  1  0.31638700  0.11944800  0.00000000  1
loop_
_geom_bond_atom_site_label_1
_geom_bond_atom_site_label_2
_geom_bond_distance
_geom_bond_site_symmetry_2
Ba0 Ge0 3.596219 1_555
Ba0 Ge35 3.596219 1_555
Ba0 Ge27 3.596219 1_655
Ba0 Ge2 3.596219 1_655
Ba0 Ge30 3.596219 1_654
Ba0 Ge8 3.596219 1_654
Ba0 Ge1 3.596219 1_554
Ba0 Ge24 3.596219 1_554
Ba1 Ge16 3.431439 1_555
Ba1 Ge25 3.431439 1_555
Ba1 Ge37 3.431439 1_555
Ba1 Ge7 3.431439 1_555
Ba1 Ge5 3.431439 1_555
Ba1 Ge28 3.431439 1_555
Ba1 Ge18 3.431439 1_555
Ba1 Ge36 3.431439 1_555
Ba1 Ge6 3.658934 1_555
Ba1 Ge33 3.658934 1_555
Ba1 Ge29 3.658934 1_555
Ba1 Ge24 3.658934 1_555
Ba1 Ge14 3.658934 1_555
Ba1 Ge1 3.658934 1_555
Ba1 Ge22 3.658934 1_555
Ba1 Ge0 3.658934 1_555
Ba1 Ge35 3.658934 1_555
Ba1 Ge10 3.658934 1_555
Ba1 Ge23 3.658934 1_555
Ba1 Ge9 3.658934 1_555
Ba2 Ge19 3.431439 1_555
Ba2 Ge31 3.431439 1_445
Ba2 Ge11 3.431439 1_554
Ba2 Ge3 3.431439 1_454
Ba2 Ge34 3.431439 1_544
Ba2 Ge26 3.431439 1_455
Ba2 Ge12 3.431439 1_545
Ba2 Ge38 3.431439 1_444
Ba2 Ge32 3.658934 1_555
Ba2 Ge21 3.658934 1_454
Ba2 Ge13 3.658934 1_455
Ba2 Ge20 3.658934 1_545
Ba2 Ge30 3.658934 1_544
Ba2 Ge2 3.658934 1_545
Ba2 Ge17 3.658934 1_455
Ba2 Ge15 3.658934 1_445
Ba2 Ge8 3.658934 1_554
Ba2 Ge27 3.658934 1_555
Ba2 Ge39 3.658934 1_555
Ba2 Ge4 3.658934 1_554
Ba3 Ge6 3.596219 1_555
Ba3 Ge33 3.596219 1_555
Ba3 Ge20 3.596219 1_545
Ba3 Ge15 3.596219 1_545
Ba3 Ge23 3.596219 1_545
Ba3 Ge9 3.596219 1_545
Ba3 Ge13 3.596219 1_555
Ba3 Ge39 3.596219 1_555
Ba4 Ge14 3.596219 1_555
Ba4 Ge29 3.596219 1_555
Ba4 Ge22 3.596219 1_455
Ba4 Ge10 3.596219 1_455
Ba4 Ge17 3.596219 1_465
Ba4 Ge21 3.596219 1_465
Ba4 Ge32 3.596219 1_565
Ba4 Ge4 3.596219 1_565
Ba5 Ge29 3.596219 1_555
Ba5 Ge14 3.596219 1_555
Ba5 Ge10 3.596219 1_455
Ba5 Ge22 3.596219 1_455
Ba5 Ge32 3.596219 1_555
Ba5 Ge17 3.596219 1_455
Ba5 Ge4 3.596219 1_555
Ba5 Ge21 3.596219 1_455
Ba6 Ge0 3.596219 1_555
Ba6 Ge35 3.596219 1_555
Ba6 Ge2 3.596219 1_555
Ba6 Ge30 3.596219 1_554
Ba6 Ge8 3.596219 1_554
Ba6 Ge1 3.596219 1_554
Ba6 Ge24 3.596219 1_554
Ba6 Ge27 3.596219 1_555
Ba7 Ge6 3.596219 1_555
Ba7 Ge33 3.596219 1_555
Ba7 Ge20 3.596219 1_546
Ba7 Ge13 3.596219 1_556
Ba7 Ge15 3.596219 1_546
Ba7 Ge23 3.596219 1_545
Ba7 Ge9 3.596219 1_545
Ba7 Ge39 3.596219 1_556
Cu0 Ge29 2.437539 1_555
Cu0 Ge2 2.437539 1_555
Cu0 Ge27 2.437539 1_555
Cu0 Ge10 2.437539 1_455
Cu1 Ge6 2.437539 1_555
Cu1 Ge32 2.437539 1_555
Cu1 Ge23 2.437539 1_545
Cu1 Ge4 2.437539 1_555
Cu2 Ge0 2.437539 1_555
Cu2 Ge24 2.437539 1_554
Cu2 Ge15 2.437539 1_555
Cu2 Ge20 2.437539 1_555
Cu3 Ge35 2.437539 1_555
Cu3 Ge1 2.437539 1_554
Cu3 Ge39 2.437539 1_555
Cu3 Ge13 2.437539 1_555
Cu4 Ge14 2.437539 1_555
Cu4 Ge8 2.437539 1_555
Cu4 Ge22 2.437539 1_455
Cu4 Ge30 2.437539 1_555
Cu5 Ge33 2.437539 1_555
Cu5 Ge17 2.437539 1_555
Cu5 Ge21 2.437539 1_555
Cu5 Ge9 2.437539 1_545
Ge0 Ge16 2.545311 1_555
Ge0 Ge18 2.545311 1_555
Ge0 Ge35 2.584700 1_555
Ge1 Ge25 2.545311 1_555
Ge1 Ge36 2.545311 1_555
Ge1 Ge24 2.584700 1_555
Ge2 Ge31 2.545311 1_455
Ge2 Ge30 2.584700 1_554
Ge3 Ge8 2.545311 1_655
Ge5 Ge6 2.545311 1_555
Ge10 Ge16 2.545311 1_555
Ge10 Ge7 2.545311 1_555
Ge10 Ge22 2.584700 1_555
Ge11 Ge36 2.506955 1_555
Ge11 Ge4 2.545311 1_555
Ge11 Ge39 2.545311 1_556
Ge11 Ge8 2.545311 1_555
Ge12 Ge18 2.506955 1_555
Ge12 Ge2 2.545311 1_555
Ge12 Ge32 2.545311 1_565
Ge12 Ge20 2.545311 1_555
Ge13 Ge26 2.545311 1_555
Ge13 Ge3 2.545311 1_554
Ge13 Ge15 2.584700 1_545
Ge14 Ge28 2.545311 1_555
Ge14 Ge36 2.545311 1_555
Ge14 Ge29 2.584700 1_555
Ge15 Ge38 2.545311 1_554
Ge15 Ge31 2.545311 1_555
Ge16 Ge31 2.506955 1_555
Ge16 Ge9 2.545311 1_555
Ge17 Ge26 2.545311 1_555
Ge17 Ge31 2.545311 1_545
Ge17 Ge32 2.584700 1_655
Ge18 Ge23 2.545311 1_555
Ge18 Ge29 2.545311 1_555
Ge19 Ge5 2.506955 1_555
Ge19 Ge39 2.545311 1_555
Ge19 Ge27 2.545311 1_555
Ge19 Ge32 2.545311 1_555
Ge20 Ge34 2.545311 1_554
Ge20 Ge39 2.584700 1_565
Ge21 Ge38 2.545311 1_545
Ge21 Ge3 2.545311 1_555
Ge21 Ge4 2.584700 1_655
Ge22 Ge37 2.545311 1_555
Ge22 Ge25 2.545311 1_555
Ge23 Ge28 2.545311 1_555
Ge23 Ge9 2.584700 1_555
Ge24 Ge37 2.545311 1_555
Ge24 Ge28 2.545311 1_555
Ge25 Ge3 2.506955 1_555
Ge25 Ge33 2.545311 1_555
Ge26 Ge7 2.506955 1_555
Ge26 Ge27 2.545311 1_655
Ge27 Ge8 2.584700 1_554
Ge28 Ge34 2.506955 1_555
Ge29 Ge5 2.545311 1_555
Ge30 Ge34 2.545311 1_555
Ge30 Ge38 2.545311 1_455
Ge33 Ge7 2.545311 1_555
Ge33 Ge6 2.584700 1_555
Ge34 Ge4 2.545311 1_565
Ge35 Ge7 2.545311 1_555
Ge35 Ge5 2.545311 1_555
Ge36 Ge6 2.545311 1_555
Ge37 Ge38 2.506955 1_555
Ge37 Ge9 2.545311 1_555
