# generated using pymatgen
data_Cd2Bi6O11
_symmetry_space_group_name_H-M   'P 1'
_cell_length_a   7.56195900
_cell_length_b   7.66295975
_cell_length_c   12.23845870
_cell_angle_alpha   87.86837532
_cell_angle_beta   88.53514028
_cell_angle_gamma   70.32836879
_symmetry_Int_Tables_number   1
_chemical_formula_structural   Cd2Bi6O11
_chemical_formula_sum   'Cd4 Bi12 O22'
_cell_volume   667.26586343
_cell_formula_units_Z   2
loop_
 _symmetry_equiv_pos_site_id
 _symmetry_equiv_pos_as_xyz
  1  'x, y, z'
loop_
 _atom_site_type_symbol
 _atom_site_label
 _atom_site_symmetry_multiplicity
 _atom_site_fract_x
 _atom_site_fract_y
 _atom_site_fract_z
 _atom_site_occupancy
  Cd  Cd0  1  0.00980100  0.00380000  0.00825400  1
  Cd  Cd1  1  0.69710000  0.75060300  0.26268100  1
  Cd  Cd2  1  0.49976700  0.51450500  0.50984100  1
  Cd  Cd3  1  0.24065100  0.22309800  0.25064900  1
  Bi  Bi0  1  0.77492900  0.27452500  0.74187100  1
  Bi  Bi1  1  0.28292900  0.25926500  0.76388700  1
  Bi  Bi2  1  0.09938100  0.95576700  0.52944400  1
  Bi  Bi3  1  0.53095000  0.07907700  0.50341800  1
  Bi  Bi4  1  0.21104200  0.73962300  0.26007100  1
  Bi  Bi5  1  0.81412800  0.71453100  0.81002700  1
  Bi  Bi6  1  0.46077300  0.52801400  0.00486400  1
  Bi  Bi7  1  0.23167300  0.73985800  0.76858700  1
  Bi  Bi8  1  0.96843500  0.46706900  0.46586400  1
  Bi  Bi9  1  0.95933100  0.49862100  0.05492500  1
  Bi  Bi10  1  0.52846100  0.01839700  0.00614200  1
  Bi  Bi11  1  0.71708100  0.21585800  0.23073100  1
  O  O0  1  0.82384300  0.84608600  0.98919800  1
  O  O1  1  0.33774600  0.30064300  0.59195200  1
  O  O2  1  0.86728200  0.50174500  0.68515300  1
  O  O3  1  0.71608800  0.54136500  0.91720700  1
  O  O4  1  0.08385100  0.53764200  0.89439000  1
  O  O5  1  0.44981700  0.46261700  0.77905900  1
  O  O6  1  0.52724400  0.04178000  0.20276700  1
  O  O7  1  0.26549000  0.06888000  0.42490400  1
  O  O8  1  0.52148200  0.28558900  0.37675500  1
  O  O9  1  0.08976700  0.06550800  0.69757100  1
  O  O10  1  0.55084500  0.05617200  0.81306800  1
  O  O11  1  0.73719900  0.24019000  0.57091200  1
  O  O12  1  0.35864700  0.77287100  0.60287700  1
  O  O13  1  0.91977500  0.90641700  0.23376000  1
  O  O14  1  0.57430000  0.59070400  0.15540000  1
  O  O15  1  0.29610400  0.84205900  0.91863800  1
  O  O16  1  0.14861100  0.64659100  0.42003700  1
  O  O17  1  0.20931700  0.52200400  0.15629600  1
  O  O18  1  0.69692600  0.67287000  0.43758800  1
  O  O19  1  0.65824500  0.23099000  0.03124700  1
  O  O20  1  0.94653600  0.37355100  0.30234900  1
  O  O21  1  0.13195100  0.19861500  0.06511800  1
loop_
_geom_bond_atom_site_label_1
_geom_bond_atom_site_label_2
_geom_bond_distance
_geom_bond_site_symmetry_2
Cd0 O21 2.145855 1_555
Cd0 O0 2.162022 1_444
Cd0 O15 2.366315 1_544
Cd0 O19 2.657002 1_455
Cd1 O18 2.200564 1_555
Cd1 O14 2.244011 1_555
Cd1 O6 2.272219 1_565
Cd1 O13 2.382851 1_555
Cd2 O12 2.244587 1_555
Cd2 O18 2.355484 1_555
Cd2 O11 2.368904 1_555
Cd2 O8 2.400399 1_555
Cd2 O1 2.522504 1_555
Cd2 O16 2.746022 1_555
Cd3 O20 2.220828 1_455
Cd3 O6 2.222393 1_555
Cd3 O7 2.379799 1_555
Cd3 O17 2.467348 1_555
Cd3 O21 2.469309 1_555
Bi0 O11 2.156445 1_555
Bi0 O2 2.169154 1_555
Bi0 O5 2.436111 1_555
Bi0 O9 2.441065 1_655
Bi0 O10 2.855742 1_555
Bi1 O1 2.166649 1_555
Bi1 O10 2.181459 1_555
Bi1 O5 2.326554 1_555
Bi1 O9 2.570442 1_555
Bi1 O4 2.708534 1_555
Bi2 O7 2.129405 1_565
Bi2 O12 2.182238 1_555
Bi2 O9 2.241910 1_565
Bi2 O16 2.676052 1_555
Bi3 O1 2.139415 1_555
Bi3 O8 2.158544 1_555
Bi3 O7 2.273515 1_555
Bi3 O11 2.465192 1_555
Bi4 O17 2.137087 1_555
Bi4 O16 2.153916 1_555
Bi4 O13 2.167685 1_455
Bi5 O3 2.124666 1_555
Bi5 O2 2.206497 1_555
Bi5 O4 2.281593 1_655
Bi5 O0 2.460178 1_555
Bi5 O10 2.704314 1_565
Bi6 O14 2.187764 1_555
Bi6 O3 2.215354 1_554
Bi6 O19 2.279557 1_555
Bi6 O15 2.513213 1_554
Bi6 O17 2.631531 1_555
Bi7 O15 2.152371 1_555
Bi7 O5 2.209554 1_555
Bi7 O12 2.263772 1_555
Bi7 O9 2.493512 1_565
Bi7 O4 2.630949 1_555
Bi8 O18 2.153601 1_555
Bi8 O20 2.179262 1_555
Bi8 O16 2.286662 1_655
Bi8 O2 2.769389 1_555
Bi9 O4 2.210740 1_654
Bi9 O21 2.229618 1_655
Bi9 O17 2.347190 1_655
Bi9 O3 2.458298 1_554
Bi9 O0 2.613891 1_554
Bi10 O0 2.187867 1_544
Bi10 O19 2.200137 1_555
Bi10 O10 2.378556 1_554
Bi10 O6 2.419240 1_555
Bi10 O15 2.804008 1_544
Bi11 O8 2.251850 1_555
Bi11 O6 2.303402 1_555
Bi11 O13 2.350079 1_545
Bi11 O19 2.484242 1_555
Bi11 O20 2.609083 1_555
Bi11 O14 2.834157 1_555
