# generated using pymatgen
data_La18Ni12O41
_symmetry_space_group_name_H-M   'P 1'
_cell_length_a   19.51557223
_cell_length_b   10.21726989
_cell_length_c   10.07911852
_cell_angle_alpha   73.35663475
_cell_angle_beta   46.74013064
_cell_angle_gamma   49.14836497
_symmetry_Int_Tables_number   1
_chemical_formula_structural   La18Ni12O41
_chemical_formula_sum   'La18 Ni12 O41'
_cell_volume   1058.20897943
_cell_formula_units_Z   1
loop_
 _symmetry_equiv_pos_site_id
 _symmetry_equiv_pos_as_xyz
  1  'x, y, z'
loop_
 _atom_site_type_symbol
 _atom_site_label
 _atom_site_symmetry_multiplicity
 _atom_site_fract_x
 _atom_site_fract_y
 _atom_site_fract_z
 _atom_site_occupancy
  La  La0  1  0.01996500  0.30070800  0.96993200  1
  La  La1  1  0.72840100  0.40867600  0.56364100  1
  La  La2  1  0.31678400  0.33809900  0.87188400  1
  La  La3  1  0.49178500  0.90263500  0.91756600  1
  La  La4  1  0.80109900  0.22833100  0.17853900  1
  La  La5  1  0.45039000  0.75931500  0.57390800  1
  La  La6  1  0.39018100  0.66943000  0.02444100  1
  La  La7  1  0.20956000  0.25964200  0.41407600  1
  La  La8  1  0.80708200  0.12102800  0.82489200  1
  La  La9  1  0.71606800  0.93061600  0.17808600  1
  La  La10  1  0.84444500  0.66169100  0.51127100  1
  La  La11  1  0.12424800  0.18746400  0.22355300  1
  La  La12  1  0.68144800  0.65911200  0.05252700  1
  La  La13  1  0.45699500  0.43779700  0.43420600  1
  La  La14  1  0.10706800  0.84629700  0.08130500  1
  La  La15  1  0.58833000  0.10447000  0.94339500  1
  La  La16  1  0.15099100  0.69212400  0.48227500  1
  La  La17  1  0.02783300  0.66300300  0.98036100  1
  Ni  Ni0  1  0.92304600  0.35706100  0.75584800  1
  Ni  Ni1  1  0.89913200  0.90285300  0.47421000  1
  Ni  Ni2  1  0.24500500  0.30992400  0.68982700  1
  Ni  Ni3  1  0.46355600  0.13177800  0.39591400  1
  Ni  Ni4  1  0.52466200  0.59569900  0.12533400  1
  Ni  Ni5  1  0.26244300  0.87426400  0.43166700  1
  Ni  Ni6  1  0.64870500  0.07647900  0.53106800  1
  Ni  Ni7  1  0.51288100  0.38264600  0.72621900  1
  Ni  Ni8  1  0.94531200  0.66811500  0.77533500  1
  Ni  Ni9  1  0.76544500  0.63725400  0.30695500  1
  Ni  Ni10  1  0.05158000  0.98393200  0.74172200  1
  Ni  Ni11  1  0.51965000  0.95468300  0.57934800  1
  O  O0  1  0.14538900  0.03439300  0.03806400  1
  O  O1  1  0.74919800  0.99739700  0.57019800  1
  O  O2  1  0.39785400  0.18220400  0.28644200  1
  O  O3  1  0.30882700  0.94378600  0.19531300  1
  O  O4  1  0.99176700  0.73059400  0.25337800  1
  O  O5  1  0.23523600  0.27287700  0.14660700  1
  O  O6  1  0.98922200  0.76501500  0.54712100  1
  O  O7  1  0.22595200  0.68631700  0.18274400  1
  O  O8  1  0.66759100  0.80210700  0.82963200  1
  O  O9  1  0.13978100  0.47182400  0.63714300  1
  O  O10  1  0.10889200  0.97043100  0.50834600  1
  O  O11  1  0.60502900  0.45151700  0.53086700  1
  O  O12  1  0.13926700  0.34651200  0.96960600  1
  O  O13  1  0.55305000  0.20798000  0.20187000  1
  O  O14  1  0.37359900  0.61979000  0.29693200  1
  O  O15  1  0.24743800  0.49946900  0.70994600  1
  O  O16  1  0.01628100  0.92143700  0.95662000  1
  O  O17  1  0.51204800  0.77358500  0.72122200  1
  O  O18  1  0.61479300  0.57091200  0.87443900  1
  O  O19  1  0.26565700  0.88609400  0.61791900  1
  O  O20  1  0.67354000  0.15658100  0.31343400  1
  O  O21  1  0.27931900  0.91843300  0.93039500  1
  O  O22  1  0.37837300  0.52973700  0.73613100  1
  O  O23  1  0.54970600  0.58197600  0.28690000  1
  O  O24  1  0.95523300  0.36728700  0.53234500  1
  O  O25  1  0.48096400  0.21692700  0.84204800  1
  O  O26  1  0.44462600  0.00920700  0.20863100  1
  O  O27  1  0.92444400  0.17670800  0.20537700  1
  O  O28  1  0.64114500  0.74489900  0.30531300  1
  O  O29  1  0.57208700  0.35844500  0.83381600  1
  O  O30  1  0.38889600  0.06460000  0.60346800  1
  O  O31  1  0.90154900  0.61818500  0.02717500  1
  O  O32  1  0.85689800  0.11132600  0.55564900  1
  O  O33  1  0.83415400  0.27325100  0.87740600  1
  O  O34  1  0.88445800  0.47559800  0.32702200  1
  O  O35  1  0.66862300  0.86263100  0.50080000  1
  O  O36  1  0.86025500  0.39957000  0.00133600  1
  O  O37  1  0.99676100  0.45027900  0.67753400  1
  O  O38  1  0.76164900  0.87000100  0.90938300  1
  O  O39  1  0.20667100  0.07964100  0.63445500  1
  O  O40  1  0.93068700  0.85235000  0.85766700  1
loop_
_geom_bond_atom_site_label_1
_geom_bond_atom_site_label_2
_geom_bond_distance
_geom_bond_site_symmetry_2
La0 O36 2.355303 1_456
La0 O31 2.373470 1_456
La0 O27 2.452720 1_456
La0 O0 2.527309 1_556
La0 O39 2.556017 1_555
La0 O12 2.655902 1_555
La0 O34 2.756264 1_456
La1 O32 2.328450 1_555
La1 O11 2.392947 1_555
La1 O18 2.474589 1_555
La1 O29 2.616584 1_555
La1 O34 2.695460 1_555
La1 O27 2.720039 1_555
La1 O17 2.803118 1_555
La1 Ni9 2.975641 1_555
La2 O5 2.221374 1_556
La2 O25 2.364848 1_555
La2 O15 2.404361 1_555
La2 O22 2.537849 1_555
La2 O12 2.821578 1_555
La3 O8 2.314186 1_555
La3 O17 2.356109 1_555
La3 O3 2.402637 1_556
La3 O18 2.491762 1_555
La3 O26 2.730818 1_566
La3 O25 2.978061 1_565
La3 O35 2.998515 1_555
La3 O5 3.014981 1_566
La4 O27 2.301200 1_555
La4 O36 2.368563 1_555
La4 O20 2.400096 1_555
La4 O16 2.527331 1_644
La4 O33 2.597061 1_554
La4 O11 2.655523 1_555
La5 O11 2.399390 1_555
La5 O23 2.476153 1_555
La5 O30 2.530521 1_565
La5 O17 2.544819 1_555
La5 O21 2.550171 1_555
La5 O19 2.626775 1_555
La5 O28 2.628115 1_555
La5 O22 3.019434 1_555
La6 O7 2.296293 1_555
La6 O29 2.404599 1_554
La6 O14 2.470559 1_555
La6 O21 2.506131 1_554
La6 O3 2.557361 1_555
La6 O17 2.759466 1_554
La6 O18 2.920552 1_554
La7 O37 2.314671 1_455
La7 O5 2.359093 1_555
La7 O39 2.437894 1_555
La7 O2 2.466662 1_555
La7 O9 2.518486 1_555
La7 O26 2.557159 1_555
La7 O3 3.012004 1_545
La8 O32 2.175155 1_555
La8 O33 2.215412 1_555
La8 O40 2.318127 1_545
La8 O38 2.962858 1_545
La8 O13 3.187098 1_556
La9 O38 2.334047 1_554
La9 O20 2.371862 1_565
La9 O31 2.392707 1_555
La9 O13 2.399815 1_565
La9 O28 2.654952 1_555
La9 O40 2.677703 1_554
La9 O35 2.709052 1_555
La10 O8 2.290583 1_555
La10 O24 2.350168 1_555
La10 O34 2.401324 1_555
La10 O4 2.621992 1_555
La10 O1 2.624096 1_555
La10 O35 2.675114 1_555
La11 O24 2.284531 1_455
La11 O5 2.416051 1_555
La11 O0 2.425914 1_555
La11 O12 2.547596 1_554
La11 O3 2.554110 1_545
La11 O21 2.637964 1_544
La11 O34 2.949658 1_455
La11 O10 3.048074 1_545
La12 O28 2.347162 1_555
La12 O36 2.384441 1_555
La12 O8 2.385475 1_554
La12 O23 2.464052 1_555
La12 O26 2.874155 1_565
La12 O38 2.951295 1_554
La13 O14 2.382102 1_555
La13 O22 2.418585 1_555
La13 O13 2.426139 1_555
La13 O23 2.489994 1_555
La13 O20 2.581563 1_555
La13 O15 2.626734 1_555
La14 O0 2.323003 1_565
La14 O16 2.455108 1_554
La14 O27 2.496454 1_465
La14 O4 2.534810 1_455
La14 O7 2.536281 1_555
La14 O22 3.064962 1_554
La15 O38 2.361793 1_545
La15 O29 2.411644 1_555
La15 O25 2.421920 1_555
La15 O2 2.549183 1_556
La15 O13 2.558675 1_556
La15 O8 2.568671 1_545
La15 O1 2.623034 1_545
La15 O26 2.786338 1_556
La16 O7 2.278973 1_555
La16 O6 2.307261 1_455
La16 O9 2.390462 1_555
La16 O10 2.430151 1_555
La16 O40 2.743130 1_455
La16 O14 2.894191 1_555
La17 O15 2.412155 1_555
La17 O12 2.423995 1_555
La17 O40 2.431276 1_455
La17 O16 2.452249 1_555
La17 O31 2.502971 1_456
La17 O4 2.518453 1_456
Ni0 O37 1.845305 1_555
Ni0 O24 1.868626 1_555
Ni0 O36 1.891038 1_556
Ni0 O33 1.916514 1_555
Ni1 O1 1.840795 1_555
Ni1 O6 1.885044 1_555
Ni1 O32 1.915112 1_565
Ni1 O4 1.971409 1_555
Ni2 O30 1.901980 1_555
Ni2 O9 1.944933 1_555
Ni2 O12 1.992225 1_555
Ni2 O15 2.037736 1_555
Ni3 O30 1.810645 1_555
Ni3 O13 1.925224 1_555
Ni3 O2 1.968809 1_555
Ni4 O18 1.800117 1_554
Ni4 O23 1.944426 1_555
Ni4 O14 2.012236 1_555
Ni5 O19 1.960591 1_555
Ni5 O3 1.978698 1_555
Ni5 O14 1.979007 1_555
Ni5 O10 1.987810 1_555
Ni5 O39 2.487039 1_565
Ni6 O1 1.859895 1_545
Ni6 O20 1.936439 1_555
Ni6 O35 2.031345 1_545
Ni6 O25 2.228813 1_555
Ni7 O11 1.901214 1_555
Ni7 O22 1.929994 1_555
Ni7 O29 1.939684 1_555
Ni7 O25 1.966858 1_555
Ni8 O37 1.977436 1_555
Ni8 O6 2.027112 1_555
Ni8 O40 2.044689 1_555
Ni8 O38 2.052868 1_555
Ni8 O31 2.071145 1_556
Ni8 O9 2.182484 1_655
Ni9 O34 1.896688 1_555
Ni9 O28 1.910157 1_555
Ni9 O31 2.101592 1_555
Ni9 O35 2.124923 1_555
Ni10 O10 1.783547 1_555
Ni10 O16 1.819849 1_555
Ni11 O30 1.840892 1_565
Ni11 O35 1.912693 1_555
Ni11 O17 2.010776 1_555
Ni11 O28 2.368891 1_555
O0 O21 1.486827 1_544
O2 O26 1.508227 1_555
O19 O39 1.487051 1_565
