# generated using pymatgen
data_CsH
_symmetry_space_group_name_H-M   'P 1'
_cell_length_a   3.81840854
_cell_length_b   3.81840854
_cell_length_c   3.81840854
_cell_angle_alpha   90.00000000
_cell_angle_beta   90.00000000
_cell_angle_gamma   90.00000000
_symmetry_Int_Tables_number   1
_chemical_formula_structural   CsH
_chemical_formula_sum   'Cs1 H1'
_cell_volume   55.67332736
_cell_formula_units_Z   1
loop_
 _symmetry_equiv_pos_site_id
 _symmetry_equiv_pos_as_xyz
  1  'x, y, z'
loop_
 _atom_site_type_symbol
 _atom_site_label
 _atom_site_symmetry_multiplicity
 _atom_site_fract_x
 _atom_site_fract_y
 _atom_site_fract_z
 _atom_site_occupancy
  Cs  Cs0  1  0.00000000  0.00000000  0.00000000  1
  H  H0  1  0.50000000  0.50000000  0.50000000  1
loop_
_geom_bond_atom_site_label_1
_geom_bond_atom_site_label_2
_geom_bond_distance
_geom_bond_site_symmetry_2
Cs0 H0 3.306839 1_545
Cs0 H0 3.306839 1_445
Cs0 H0 3.306839 1_554
Cs0 H0 3.306839 1_454
Cs0 H0 3.306839 1_444
Cs0 H0 3.306839 1_544
Cs0 H0 3.306839 1_455
Cs0 H0 3.306839 1_555
