# generated using pymatgen
data_Al2S3
_symmetry_space_group_name_H-M   'P 1'
_cell_length_a   6.84673100
_cell_length_b   7.12182066
_cell_length_c   22.04727297
_cell_angle_alpha   83.62646056
_cell_angle_beta   83.98742978
_cell_angle_gamma   63.53465690
_symmetry_Int_Tables_number   1
_chemical_formula_structural   Al2S3
_chemical_formula_sum   'Al12 S18'
_cell_volume   954.59432368
_cell_formula_units_Z   6
loop_
 _symmetry_equiv_pos_site_id
 _symmetry_equiv_pos_as_xyz
  1  'x, y, z'
loop_
 _atom_site_type_symbol
 _atom_site_label
 _atom_site_symmetry_multiplicity
 _atom_site_fract_x
 _atom_site_fract_y
 _atom_site_fract_z
 _atom_site_occupancy
  Al  Al0  1  0.57464600  0.56116600  0.16125700  1
  Al  Al1  1  0.61037900  0.48846000  0.71176700  1
  Al  Al2  1  0.89962400  0.75960600  0.26785900  1
  Al  Al3  1  0.62859900  0.09344900  0.10984700  1
  Al  Al4  1  0.50960100  0.50815000  0.53686700  1
  Al  Al5  1  0.18100700  0.41727300  0.22119700  1
  Al  Al6  1  0.67205800  0.03659200  0.67576500  1
  Al  Al7  1  0.17007700  0.69339800  0.73278000  1
  Al  Al8  1  0.10372100  0.14841700  0.17807100  1
  Al  Al9  1  0.43721800  0.13648900  0.98861500  1
  Al  Al10  1  0.66885100  0.27079500  0.33031800  1
  Al  Al11  1  0.99394000  0.60039000  0.60163700  1
  S  S0  1  0.48396500  0.85766000  0.65189100  1
  S  S1  1  0.49592200  0.36846000  0.63479600  1
  S  S2  1  0.88003700  0.98547300  0.18242400  1
  S  S3  1  0.76278800  0.05293100  0.01427000  1
  S  S4  1  0.45714600  0.51855000  0.26184300  1
  S  S5  1  0.97430300  0.41750400  0.69354100  1
  S  S6  1  0.13394400  0.25812400  0.95637200  1
  S  S7  1  0.64460600  0.49582700  0.39397600  1
  S  S8  1  0.77678800  0.93502700  0.35134300  1
  S  S9  1  0.37255000  0.43386800  0.12197100  1
  S  S10  1  0.18157000  0.57086700  0.51097700  1
  S  S11  1  0.91132500  0.46131100  0.12432300  1
  S  S12  1  0.65674600  0.13097800  0.77180300  1
  S  S13  1  0.63257600  0.76730300  0.56449800  1
  S  S14  1  0.01883100  0.87850800  0.63991800  1
  S  S15  1  0.41344500  0.91569500  0.12572700  1
  S  S16  1  0.79719200  0.33322300  0.47418200  1
  S  S17  1  0.95654800  0.90450600  0.80604400  1
loop_
_geom_bond_atom_site_label_1
_geom_bond_atom_site_label_2
_geom_bond_distance
_geom_bond_site_symmetry_2
Al0 S11 2.180992 1_555
Al0 S9 2.242826 1_555
Al0 S4 2.313379 1_555
Al0 S15 2.337737 1_555
Al1 S5 2.310496 1_555
Al1 S1 2.328482 1_555
Al1 S0 2.616430 1_555
Al1 S12 2.637037 1_555
Al2 S8 2.214867 1_555
Al2 S2 2.311157 1_555
Al3 S3 2.204731 1_555
Al3 S2 2.288961 1_545
Al3 S9 2.297819 1_555
Al3 S15 2.313202 1_545
Al4 S10 2.210745 1_555
Al4 S16 2.228217 1_555
Al4 S1 2.285577 1_555
Al4 S13 2.495715 1_555
Al5 S9 2.449373 1_555
Al5 S4 2.571334 1_555
Al6 S14 2.225126 1_645
Al6 S1 2.251683 1_555
Al6 S12 2.269980 1_555
Al6 S0 2.305014 1_545
Al7 S17 2.256596 1_455
Al7 S14 2.372778 1_555
Al8 S11 2.286808 1_455
Al8 S2 2.286907 1_445
Al8 S15 2.314093 1_545
Al9 S6 2.033864 1_555
Al9 S3 2.156381 1_556
Al10 S8 2.174805 1_545
Al10 S7 2.186145 1_555
Al10 S4 2.254091 1_555
Al11 S10 2.237049 1_655
Al11 S5 2.309378 1_555
Al11 S14 2.316617 1_655
Al11 S13 2.406630 1_555
S0 S13 2.107806 1_555
S12 S17 2.118528 1_545
