# generated using pymatgen
data_Ca4Bi6O13
_symmetry_space_group_name_H-M   'P 1'
_cell_length_a   3.71279200
_cell_length_b   4.61111617
_cell_length_c   23.69861222
_cell_angle_alpha   91.54777953
_cell_angle_beta   90.84704020
_cell_angle_gamma   90.16948512
_symmetry_Int_Tables_number   1
_chemical_formula_structural   Ca4Bi6O13
_chemical_formula_sum   'Ca4 Bi6 O13'
_cell_volume   405.52833619
_cell_formula_units_Z   1
loop_
 _symmetry_equiv_pos_site_id
 _symmetry_equiv_pos_as_xyz
  1  'x, y, z'
loop_
 _atom_site_type_symbol
 _atom_site_label
 _atom_site_symmetry_multiplicity
 _atom_site_fract_x
 _atom_site_fract_y
 _atom_site_fract_z
 _atom_site_occupancy
  Ca  Ca0  1  0.75085000  0.09677900  0.94553000  1
  Ca  Ca1  1  0.68981000  0.08420700  0.79769900  1
  Ca  Ca2  1  0.22384700  0.59181100  0.87367400  1
  Ca  Ca3  1  0.16553200  0.57471700  0.72168200  1
  Bi  Bi0  1  0.55844200  0.06088500  0.63677400  1
  Bi  Bi1  1  0.37776700  0.09911600  0.40739600  1
  Bi  Bi2  1  0.15077000  0.00975600  0.17154500  1
  Bi  Bi3  1  0.13806100  0.50999000  0.53764900  1
  Bi  Bi4  1  0.87526200  0.45897600  0.30202400  1
  Bi  Bi5  1  0.55543700  0.40645400  0.06730000  1
  O  O0  1  0.12111200  0.07372000  0.57054500  1
  O  O1  1  0.84385700  0.06028800  0.35267200  1
  O  O2  1  0.62448900  0.99194900  0.11747600  1
  O  O3  1  0.17102100  0.07310400  0.70882500  1
  O  O4  1  0.66847500  0.58209900  0.77626000  1
  O  O5  1  0.19940500  0.09095800  0.85618200  1
  O  O6  1  0.22823100  0.16170700  0.00921800  1
  O  O7  1  0.72736000  0.60259700  0.92477600  1
  O  O8  1  0.59980000  0.38358700  0.48550200  1
  O  O9  1  0.32716200  0.24671800  0.25572400  1
  O  O10  1  0.46125300  0.56530400  0.62602000  1
  O  O11  1  0.32565800  0.51612100  0.36915000  1
  O  O12  1  0.14440100  0.43915600  0.13437700  1
loop_
_geom_bond_atom_site_label_1
_geom_bond_atom_site_label_2
_geom_bond_distance
_geom_bond_site_symmetry_2
Ca0 O7 2.319297 1_545
Ca0 O6 2.324326 1_656
Ca0 O7 2.398216 1_555
Ca0 O6 2.489648 1_556
Ca0 O5 2.712782 1_655
Ca0 O5 2.923094 1_555
Ca1 O5 2.304278 1_555
Ca1 O5 2.328390 1_655
Ca1 O4 2.357776 1_545
Ca1 O4 2.366048 1_555
Ca1 O3 2.781493 1_655
Ca1 O3 2.832381 1_555
Ca2 O7 2.212051 1_555
Ca2 O7 2.220439 1_455
Ca2 O5 2.336612 1_555
Ca2 O5 2.351429 1_565
Ca2 O4 2.857313 1_555
Ca2 O4 3.071876 1_455
Ca3 O4 2.255401 1_555
Ca3 O4 2.269014 1_455
Ca3 O3 2.324993 1_555
Ca3 O3 2.326444 1_565
Ca3 O10 2.532881 1_555
Bi0 O0 2.243576 1_555
Bi0 O3 2.248487 1_555
Bi0 O10 2.319085 1_545
Bi0 O10 2.374742 1_555
Bi0 O0 2.632948 1_655
Bi0 O3 2.823257 1_655
Bi1 O11 2.155806 1_555
Bi1 O1 2.182709 1_555
Bi1 O1 2.356440 1_455
Bi1 O8 2.375657 1_555
Bi1 O11 2.818828 1_545
Bi2 O12 2.188778 1_555
Bi2 O2 2.191775 1_545
Bi2 O2 2.320770 1_445
Bi2 O9 2.332792 1_555
Bi2 O12 2.751898 1_545
Bi3 O0 2.178083 1_555
Bi3 O8 2.198990 1_555
Bi3 O8 2.396234 1_455
Bi3 O10 2.405394 1_555
Bi3 O0 2.694749 1_565
Bi4 O1 2.226221 1_555
Bi4 O9 2.232280 1_655
Bi4 O11 2.300542 1_655
Bi4 O9 2.483390 1_555
Bi4 O11 2.615430 1_555
Bi5 O6 2.121951 1_555
Bi5 O12 2.222332 1_555
Bi5 O2 2.291187 1_545
Bi5 O12 2.685825 1_655
