# generated using pymatgen
data_Zr5Pb3
_symmetry_space_group_name_H-M   'P 1'
_cell_length_a   8.62223888
_cell_length_b   8.62216159
_cell_length_c   5.87494648
_cell_angle_alpha   90.00063393
_cell_angle_beta   90.00030423
_cell_angle_gamma   120.00062803
_symmetry_Int_Tables_number   1
_chemical_formula_structural   Zr5Pb3
_chemical_formula_sum   'Zr10 Pb6'
_cell_volume   378.24048056
_cell_formula_units_Z   2
loop_
 _symmetry_equiv_pos_site_id
 _symmetry_equiv_pos_as_xyz
  1  'x, y, z'
loop_
 _atom_site_type_symbol
 _atom_site_label
 _atom_site_symmetry_multiplicity
 _atom_site_fract_x
 _atom_site_fract_y
 _atom_site_fract_z
 _atom_site_occupancy
  Zr  Zr0  1  0.75130096  0.75130339  0.25002280  1
  Zr  Zr1  1  0.00000799  0.24870346  0.24997377  1
  Zr  Zr2  1  0.75142691  0.99999228  0.75000792  1
  Zr  Zr3  1  0.33333717  0.66666631  0.49998864  1
  Zr  Zr4  1  0.24871082  0.99999943  0.25000094  1
  Zr  Zr5  1  0.66666218  0.33333568  0.49998787  1
  Zr  Zr6  1  0.00000284  0.75144190  0.75000936  1
  Zr  Zr7  1  0.33332862  0.66666644  0.00001150  1
  Zr  Zr8  1  0.24855307  0.24856199  0.74998479  1
  Zr  Zr9  1  0.66667088  0.33333299  0.00001234  1
  Pb  Pb0  1  0.60982686  0.60978671  0.75001603  1
  Pb  Pb1  1  0.39020863  0.00004145  0.75000290  1
  Pb  Pb2  1  0.60991365  0.00004948  0.25000481  1
  Pb  Pb3  1  -0.00004413  0.39016895  0.74998030  1
  Pb  Pb4  1  0.39014033  0.39009116  0.24999032  1
  Pb  Pb5  1  -0.00004778  0.60986138  0.25000571  1
loop_
_geom_bond_atom_site_label_1
_geom_bond_atom_site_label_2
_geom_bond_distance
_geom_bond_site_symmetry_2
Zr3 Zr7 2.937339 1_555
Zr3 Zr7 2.937608 1_556
Zr5 Zr9 2.937329 1_555
Zr5 Zr9 2.937617 1_556
Pb0 Zr6 2.949664 1_655
Pb0 Zr2 2.949947 1_555
Pb0 Zr9 3.040952 1_556
Pb0 Zr5 3.040958 1_555
Pb0 Zr7 3.041460 1_556
Pb0 Zr3 3.041480 1_555
Pb0 Zr8 3.114734 1_555
Pb0 Zr0 3.180725 1_555
Pb0 Zr0 3.180761 1_556
Pb1 Zr8 2.949667 1_555
Pb1 Zr6 2.949955 1_545
Pb1 Zr9 3.040929 1_556
Pb1 Zr5 3.040978 1_555
Pb1 Zr7 3.041460 1_546
Pb1 Zr3 3.041467 1_545
Pb1 Zr2 3.114722 1_545
Pb1 Zr4 3.180683 1_546
Pb1 Zr4 3.180693 1_545
Pb2 Zr1 2.949282 1_655
Pb2 Zr0 2.949685 1_545
Pb2 Zr5 3.041045 1_555
Pb2 Zr9 3.041062 1_555
Pb2 Zr3 3.041643 1_545
Pb2 Zr7 3.041650 1_545
Pb2 Zr4 3.114161 1_545
Pb2 Zr2 3.180892 1_544
Pb2 Zr2 3.180914 1_545
Pb3 Zr2 2.949645 1_445
Pb3 Zr8 2.949968 1_555
Pb3 Zr5 3.040930 1_455
Pb3 Zr9 3.040991 1_456
Pb3 Zr3 3.041450 1_555
Pb3 Zr7 3.041482 1_556
Pb3 Zr6 3.114751 1_555
Pb3 Zr1 3.180709 1_556
Pb3 Zr1 3.180755 1_555
Pb4 Zr4 2.949261 1_545
Pb4 Zr1 2.949674 1_555
Pb4 Zr5 3.041043 1_555
Pb4 Zr9 3.041072 1_555
Pb4 Zr3 3.041645 1_555
Pb4 Zr7 3.041655 1_555
Pb4 Zr0 3.114192 1_555
Pb4 Zr8 3.180939 1_555
Pb4 Zr8 3.180962 1_554
Pb5 Zr0 2.949298 1_455
Pb5 Zr4 2.949696 1_555
Pb5 Zr9 3.041022 1_455
Pb5 Zr5 3.041064 1_455
Pb5 Zr7 3.041648 1_555
Pb5 Zr3 3.041660 1_555
Pb5 Zr1 3.114202 1_555
Pb5 Zr6 3.180936 1_554
Pb5 Zr6 3.180950 1_555
