# generated using pymatgen
data_Mn(FeO2)2
_symmetry_space_group_name_H-M   'P 1'
_cell_length_a   6.15049360
_cell_length_b   6.10071695
_cell_length_c   30.39600540
_cell_angle_alpha   60.27972333
_cell_angle_beta   59.99807905
_cell_angle_gamma   59.83729374
_symmetry_Int_Tables_number   1
_chemical_formula_structural   Mn(FeO2)2
_chemical_formula_sum   'Mn10 Fe20 O40'
_cell_volume   807.15436970
_cell_formula_units_Z   10
loop_
 _symmetry_equiv_pos_site_id
 _symmetry_equiv_pos_as_xyz
  1  'x, y, z'
loop_
 _atom_site_type_symbol
 _atom_site_label
 _atom_site_symmetry_multiplicity
 _atom_site_fract_x
 _atom_site_fract_y
 _atom_site_fract_z
 _atom_site_occupancy
  Mn  Mn0  1  0.12558500  0.12847000  0.02481000  1
  Mn  Mn1  1  0.00238100  0.50014300  0.09951400  1
  Mn  Mn2  1  0.12866900  0.12728400  0.22431200  1
  Mn  Mn3  1  0.12835200  0.12243600  0.42541500  1
  Mn  Mn4  1  0.00068200  0.49755300  0.50056000  1
  Mn  Mn5  1  0.12062000  0.12434900  0.62715800  1
  Mn  Mn6  1  0.00258800  0.50143900  0.29968300  1
  Mn  Mn7  1  0.12223700  0.12715200  0.82525300  1
  Mn  Mn8  1  0.99834600  0.50235900  0.70017700  1
  Mn  Mn9  1  0.87881500  0.87443800  0.97380000  1
  Fe  Fe0  1  0.50229900  0.00146600  0.09934100  1
  Fe  Fe1  1  0.50002900  0.50354100  0.99943400  1
  Fe  Fe2  1  0.50088200  0.49962600  0.09937100  1
  Fe  Fe3  1  0.49712200  0.00526700  0.29920300  1
  Fe  Fe4  1  0.50183700  0.49867800  0.19932600  1
  Fe  Fe5  1  0.49896200  0.50055200  0.29878900  1
  Fe  Fe6  1  0.87756900  0.87531800  0.17502500  1
  Fe  Fe7  1  0.49889900  0.00119500  0.50052400  1
  Fe  Fe8  1  0.49735000  0.49689000  0.40120800  1
  Fe  Fe9  1  0.49902900  0.49570700  0.50069000  1
  Fe  Fe10  1  0.86926900  0.87680100  0.37478400  1
  Fe  Fe11  1  0.49978900  0.50258500  0.60043300  1
  Fe  Fe12  1  0.49763900  0.50121500  0.69999000  1
  Fe  Fe13  1  0.87527300  0.87254300  0.57548200  1
  Fe  Fe14  1  0.50028300  0.49708400  0.80010100  1
  Fe  Fe15  1  0.49727700  0.00128300  0.70033700  1
  Fe  Fe16  1  0.50053200  0.49956500  0.90013400  1
  Fe  Fe17  1  0.86771200  0.87819200  0.77595100  1
  Fe  Fe18  1  0.49961300  0.99952100  0.90044300  1
  Fe  Fe19  1  0.99893700  0.50057000  0.89993700  1
  O  O0  1  0.26187000  0.27476400  0.05188800  1
  O  O1  1  0.26124100  0.26658000  0.14138100  1
  O  O2  1  0.28436700  0.71653000  0.04898100  1
  O  O3  1  0.70942500  0.26392000  0.05069400  1
  O  O4  1  0.27217500  0.25795800  0.25175900  1
  O  O5  1  0.28493000  0.74158400  0.14749200  1
  O  O6  1  0.73997600  0.73396800  0.05784200  1
  O  O7  1  0.27088200  0.25871900  0.34289900  1
  O  O8  1  0.28372600  0.71621300  0.25010300  1
  O  O9  1  0.72135700  0.27818100  0.14944200  1
  O  O10  1  0.71343800  0.25691100  0.25276200  1
  O  O11  1  0.74838600  0.73030900  0.14620800  1
  O  O12  1  0.26000700  0.26600700  0.45350700  1
  O  O13  1  0.26514000  0.74414300  0.34997800  1
  O  O14  1  0.72450200  0.73957400  0.25875900  1
  O  O15  1  0.72286200  0.26474900  0.35143900  1
  O  O16  1  0.28233700  0.25085000  0.54403000  1
  O  O17  1  0.26246600  0.70738900  0.45322400  1
  O  O18  1  0.71194500  0.26172500  0.45176900  1
  O  O19  1  0.72982300  0.74604000  0.35079300  1
  O  O20  1  0.28807600  0.74096800  0.54675800  1
  O  O21  1  0.25918200  0.26864800  0.65304000  1
  O  O22  1  0.72748300  0.75456400  0.45177100  1
  O  O23  1  0.73758700  0.28932700  0.54689100  1
  O  O24  1  0.28028800  0.71773000  0.65048900  1
  O  O25  1  0.26186900  0.26268900  0.74264200  1
  O  O26  1  0.71316200  0.25892300  0.65228600  1
  O  O27  1  0.74394100  0.73704900  0.54581000  1
  O  O28  1  0.28473700  0.73970600  0.74840600  1
  O  O29  1  0.26382700  0.26019000  0.85328100  1
  O  O30  1  0.72327000  0.27827700  0.74915600  1
  O  O31  1  0.73648000  0.74139800  0.65675100  1
  O  O32  1  0.26777300  0.26854000  0.94179500  1
  O  O33  1  0.26683600  0.70703200  0.85420400  1
  O  O34  1  0.70830800  0.26321500  0.85370400  1
  O  O35  1  0.74154800  0.73212400  0.74756900  1
  O  O36  1  0.29574400  0.73267700  0.94723000  1
  O  O37  1  0.72810800  0.29509000  0.94725400  1
  O  O38  1  0.73896300  0.72850500  0.85695500  1
  O  O39  1  0.73338900  0.73401100  0.94787100  1
loop_
_geom_bond_atom_site_label_1
_geom_bond_atom_site_label_2
_geom_bond_distance
_geom_bond_site_symmetry_2
Mn0 O2 2.056636 1_545
Mn0 O32 2.065993 1_554
Mn0 O0 2.084873 1_555
Mn0 O3 2.087718 1_455
Mn1 O11 1.995232 1_455
Mn1 O0 1.997805 1_555
Mn1 O1 2.033021 1_555
Mn1 O6 2.045317 1_455
Mn1 O2 2.176266 1_555
Mn1 O9 2.194411 1_455
Mn2 O8 2.051385 1_545
Mn2 O4 2.052696 1_555
Mn2 O1 2.063514 1_555
Mn2 O10 2.082154 1_455
Mn3 O7 2.053410 1_555
Mn3 O17 2.069431 1_545
Mn3 O12 2.073101 1_555
Mn3 O18 2.087886 1_455
Mn4 O27 2.005525 1_455
Mn4 O12 2.010647 1_555
Mn4 O23 2.056296 1_455
Mn4 O17 2.056605 1_555
Mn4 O16 2.170068 1_555
Mn4 O22 2.240544 1_455
Mn5 O24 2.031035 1_545
Mn5 O26 2.043952 1_455
Mn5 O21 2.057009 1_555
Mn5 O16 2.072180 1_555
Mn6 O4 2.081494 1_555
Mn6 O14 2.102884 1_455
Mn6 O7 2.103513 1_555
Mn6 O19 2.152021 1_455
Mn6 O8 2.165812 1_555
Mn6 O15 2.248843 1_455
Mn7 O25 2.055448 1_555
Mn7 O29 2.068997 1_555
Mn7 O34 2.074771 1_455
Mn7 O33 2.095268 1_545
Mn8 O35 2.009115 1_555
Mn8 O21 2.021806 1_655
Mn8 O25 2.066477 1_655
Mn8 O31 2.078509 1_555
Mn8 O24 2.171940 1_655
Mn8 O30 2.175996 1_555
Mn9 O39 2.073557 1_555
Mn9 O36 2.090153 1_655
Mn9 O6 2.091055 1_556
Mn9 O37 2.097715 1_565
Fe0 O6 2.047188 1_545
Fe0 O3 2.047311 1_555
Fe0 O1 2.047398 1_555
Fe0 O5 2.077401 1_545
Fe0 O0 2.077973 1_555
Fe0 O11 2.088143 1_545
Fe1 O2 1.981544 1_556
Fe1 O3 2.019836 1_556
Fe1 O36 2.019935 1_555
Fe1 O37 2.020598 1_555
Fe1 O39 2.021557 1_555
Fe1 O0 2.036693 1_556
Fe2 O2 2.032165 1_555
Fe2 O9 2.040727 1_555
Fe2 O1 2.061035 1_555
Fe2 O3 2.064062 1_555
Fe2 O6 2.065616 1_555
Fe2 O5 2.076110 1_555
Fe3 O4 2.004502 1_555
Fe3 O14 2.018143 1_545
Fe3 O7 2.029054 1_555
Fe3 O10 2.035979 1_555
Fe3 O19 2.125900 1_545
Fe3 O13 2.144674 1_545
Fe4 O9 2.020268 1_555
Fe4 O8 2.028366 1_555
Fe4 O4 2.050489 1_555
Fe4 O5 2.063605 1_555
Fe4 O10 2.077741 1_555
Fe4 O11 2.084669 1_555
Fe5 O8 1.987920 1_555
Fe5 O14 2.028955 1_555
Fe5 O10 2.037807 1_555
Fe5 O7 2.044430 1_555
Fe5 O15 2.111268 1_555
Fe5 O13 2.145885 1_555
Fe6 O9 2.011847 1_565
Fe6 O5 2.041890 1_655
Fe6 O14 2.085030 1_555
Fe6 O11 2.086104 1_555
Fe7 O16 2.009867 1_555
Fe7 O27 2.048833 1_545
Fe7 O20 2.052029 1_545
Fe7 O12 2.058284 1_555
Fe7 O18 2.062733 1_555
Fe7 O22 2.106661 1_545
Fe8 O17 2.025002 1_555
Fe8 O18 2.025268 1_555
Fe8 O12 2.041428 1_555
Fe8 O15 2.066387 1_555
Fe8 O19 2.094356 1_555
Fe8 O13 2.114267 1_555
Fe9 O16 2.009171 1_555
Fe9 O23 2.039903 1_555
Fe9 O20 2.047599 1_555
Fe9 O17 2.056695 1_555
Fe9 O18 2.059725 1_555
Fe9 O22 2.119281 1_555
Fe10 O22 1.917041 1_555
Fe10 O15 1.935987 1_565
Fe10 O19 1.947709 1_555
Fe10 O13 1.985112 1_655
Fe11 O24 2.001389 1_555
Fe11 O26 2.049681 1_555
Fe11 O21 2.068058 1_555
Fe11 O23 2.070567 1_555
Fe11 O20 2.083584 1_555
Fe11 O27 2.089979 1_555
Fe12 O24 2.015487 1_555
Fe12 O30 2.042298 1_555
Fe12 O25 2.066632 1_555
Fe12 O26 2.068470 1_555
Fe12 O28 2.068498 1_555
Fe12 O31 2.086896 1_555
Fe13 O31 2.022084 1_555
Fe13 O20 2.069506 1_655
Fe13 O27 2.070739 1_555
Fe13 O23 2.078165 1_565
Fe14 O30 2.036351 1_555
Fe14 O28 2.054912 1_555
Fe14 O29 2.064330 1_555
Fe14 O34 2.067046 1_555
Fe14 O33 2.070171 1_555
Fe14 O35 2.075126 1_555
Fe15 O25 2.035732 1_555
Fe15 O31 2.054963 1_545
Fe15 O26 2.061162 1_555
Fe15 O21 2.061984 1_555
Fe15 O28 2.065090 1_545
Fe15 O35 2.086886 1_545
Fe16 O33 2.010857 1_555
Fe16 O37 2.011305 1_555
Fe16 O34 2.016506 1_555
Fe16 O36 2.018318 1_555
Fe16 O32 2.021005 1_555
Fe16 O38 2.034636 1_555
Fe17 O30 1.995887 1_565
Fe17 O38 2.017624 1_555
Fe17 O35 2.065692 1_555
Fe17 O28 2.090376 1_655
Fe18 O39 2.046099 1_555
Fe18 O29 2.046497 1_565
Fe18 O32 2.051341 1_565
Fe18 O36 2.053618 1_555
Fe18 O34 2.058925 1_565
Fe18 O38 2.103141 1_555
Fe19 O39 2.039312 1_555
Fe19 O29 2.041229 1_655
Fe19 O38 2.061710 1_555
Fe19 O33 2.071889 1_655
Fe19 O32 2.079076 1_655
Fe19 O37 2.080744 1_555
