# generated using pymatgen
data_SiO2
_symmetry_space_group_name_H-M   'P 1'
_cell_length_a   9.71563900
_cell_length_b   9.71563900
_cell_length_c   4.23803900
_cell_angle_alpha   90.00000000
_cell_angle_beta   90.00000000
_cell_angle_gamma   90.00000000
_symmetry_Int_Tables_number   1
_chemical_formula_structural   SiO2
_chemical_formula_sum   'Si8 O16'
_cell_volume   400.04393267
_cell_formula_units_Z   8
loop_
 _symmetry_equiv_pos_site_id
 _symmetry_equiv_pos_as_xyz
  1  'x, y, z'
loop_
 _atom_site_type_symbol
 _atom_site_label
 _atom_site_symmetry_multiplicity
 _atom_site_fract_x
 _atom_site_fract_y
 _atom_site_fract_z
 _atom_site_occupancy
  Si  Si0  1  0.85119900  0.64880100  0.16954800  1
  Si  Si1  1  0.64880100  0.85119900  0.83045200  1
  Si  Si2  1  0.14880100  0.64880100  0.83045200  1
  Si  Si3  1  0.85119900  0.35119900  0.83045200  1
  Si  Si4  1  0.14880100  0.35119900  0.16954800  1
  Si  Si5  1  0.35119900  0.14880100  0.83045200  1
  Si  Si6  1  0.64880100  0.14880100  0.16954800  1
  Si  Si7  1  0.35119900  0.85119900  0.16954800  1
  O  O0  1  0.50000000  0.81136100  0.00000000  1
  O  O1  1  0.25000000  0.25000000  0.00000000  1
  O  O2  1  0.68863900  0.00000000  0.00000000  1
  O  O3  1  0.81136100  0.50000000  0.00000000  1
  O  O4  1  0.75000000  0.75000000  0.50000000  1
  O  O5  1  0.18863900  0.50000000  0.00000000  1
  O  O6  1  0.25000000  0.75000000  0.50000000  1
  O  O7  1  0.50000000  0.18863900  0.00000000  1
  O  O8  1  0.25000000  0.25000000  0.50000000  1
  O  O9  1  0.00000000  0.31136100  0.00000000  1
  O  O10  1  0.75000000  0.25000000  0.50000000  1
  O  O11  1  0.31136100  0.00000000  0.00000000  1
  O  O12  1  0.25000000  0.75000000  0.00000000  1
  O  O13  1  0.00000000  0.68863900  0.00000000  1
  O  O14  1  0.75000000  0.75000000  0.00000000  1
  O  O15  1  0.75000000  0.25000000  0.00000000  1
loop_
_geom_bond_atom_site_label_1
_geom_bond_atom_site_label_2
_geom_bond_distance
_geom_bond_site_symmetry_2
O0 Si1 1.660170 1_554
O0 Si7 1.660170 1_555
O1 Si4 1.565162 1_555
O1 Si5 1.565162 1_554
O2 Si6 1.660170 1_555
O2 Si1 1.660170 1_544
O3 Si0 1.660170 1_555
O3 Si3 1.660170 1_554
O4 Si0 1.973506 1_555
O4 Si1 1.973506 1_555
O5 Si2 1.660170 1_554
O5 Si4 1.660170 1_555
O6 Si7 1.973506 1_555
O6 Si2 1.973506 1_555
O7 Si6 1.660170 1_555
O7 Si5 1.660170 1_554
O8 Si5 1.973506 1_555
O8 Si4 1.973506 1_555
O9 Si4 1.660170 1_555
O9 Si3 1.660170 1_454
O10 Si3 1.973506 1_555
O10 Si6 1.973506 1_555
O11 Si5 1.660170 1_554
O11 Si7 1.660170 1_545
O12 Si7 1.565162 1_555
O12 Si2 1.565162 1_554
O13 Si2 1.660170 1_554
O13 Si0 1.660170 1_455
O14 Si0 1.565162 1_555
O14 Si1 1.565162 1_554
O15 Si3 1.565162 1_554
O15 Si6 1.565162 1_555
