# generated using pymatgen
data_B6As
_symmetry_space_group_name_H-M   'P 1'
_cell_length_a   5.31736163
_cell_length_b   5.31736134
_cell_length_c   5.31736176
_cell_angle_alpha   70.48766733
_cell_angle_beta   70.48767831
_cell_angle_gamma   70.48766479
_symmetry_Int_Tables_number   1
_chemical_formula_structural   B6As
_chemical_formula_sum   'B12 As2'
_cell_volume   129.31741946
_cell_formula_units_Z   2
loop_
 _symmetry_equiv_pos_site_id
 _symmetry_equiv_pos_as_xyz
  1  'x, y, z'
loop_
 _atom_site_type_symbol
 _atom_site_label
 _atom_site_symmetry_multiplicity
 _atom_site_fract_x
 _atom_site_fract_y
 _atom_site_fract_z
 _atom_site_occupancy
  B  B0  1  0.01528972  0.01528972  0.32487848  1
  B  B1  1  0.01528972  0.32487848  0.01528972  1
  B  B2  1  0.82185570  0.27248649  0.82185570  1
  B  B3  1  0.82185570  0.82185570  0.27248649  1
  B  B4  1  0.27248649  0.82185570  0.82185570  1
  B  B5  1  0.72751351  0.17814430  0.17814430  1
  B  B6  1  0.17814430  0.72751351  0.17814430  1
  B  B7  1  0.17814430  0.17814430  0.72751351  1
  B  B8  1  0.98471028  0.67512052  0.98471028  1
  B  B9  1  0.98471028  0.98471028  0.67512052  1
  B  B10  1  0.67512052  0.98471028  0.98471028  1
  B  B11  1  0.32487848  0.01528972  0.01528972  1
  As  As0  1  0.60055235  0.60055235  0.60055235  1
  As  As1  1  0.39944765  0.39944765  0.39944765  1
loop_
_geom_bond_atom_site_label_1
_geom_bond_atom_site_label_2
_geom_bond_distance
_geom_bond_site_symmetry_2
B0 B9 1.770411 1_445
B0 B5 1.777983 1_455
B0 B6 1.777984 1_545
B0 B3 1.811913 1_445
B0 B1 1.899898 1_555
B0 B11 1.899898 1_555
B1 B8 1.770411 1_454
B1 B7 1.777984 1_554
B1 B5 1.777984 1_455
B1 B2 1.811913 1_454
B1 B11 1.899898 1_555
B2 B7 1.729408 1_655
B2 B5 1.729409 1_556
B2 B9 1.777987 1_545
B3 B5 1.729408 1_565
B3 B6 1.729408 1_655
B3 B8 1.777987 1_554
B4 B7 1.729408 1_565
B4 B6 1.729409 1_556
B4 B9 1.777986 1_455
B4 B8 1.777987 1_455
B6 B8 1.811916 1_454
B7 B9 1.811916 1_445
B8 B9 1.899904 1_555
B10 B11 1.770411 1_566
B10 B3 1.777986 1_556
B10 B2 1.777987 1_565
B10 B5 1.811916 1_566
B10 B8 1.899904 1_555
B10 B9 1.899905 1_555
B11 B7 1.777983 1_554
B11 B6 1.777984 1_545
B11 B4 1.811913 1_544
As0 B2 1.998753 1_555
As0 B4 1.998753 1_555
As0 B3 1.998753 1_555
As0 As1 2.392101 1_555
As1 B6 1.998753 1_555
As1 B5 1.998753 1_555
As1 B7 1.998753 1_555
