# generated using pymatgen
data_UCo5Sn
_symmetry_space_group_name_H-M   'P 1'
_cell_length_a   4.79833000
_cell_length_b   10.28124600
_cell_length_c   15.98305100
_cell_angle_alpha   90.00000000
_cell_angle_beta   90.00000000
_cell_angle_gamma   90.00000000
_symmetry_Int_Tables_number   1
_chemical_formula_structural   UCo5Sn
_chemical_formula_sum   'U8 Co40 Sn8'
_cell_volume   788.48883609
_cell_formula_units_Z   8
loop_
 _symmetry_equiv_pos_site_id
 _symmetry_equiv_pos_as_xyz
  1  'x, y, z'
loop_
 _atom_site_type_symbol
 _atom_site_label
 _atom_site_symmetry_multiplicity
 _atom_site_fract_x
 _atom_site_fract_y
 _atom_site_fract_z
 _atom_site_occupancy
  U  U0  1  0.00000000  0.61147100  0.24394800  1
  U  U1  1  0.00000000  0.00000000  0.50000000  1
  U  U2  1  0.50000000  0.11147100  0.25605200  1
  U  U3  1  0.00000000  0.38852900  0.75605200  1
  U  U4  1  0.50000000  0.88852900  0.74394800  1
  U  U5  1  0.50000000  0.50000000  0.50000000  1
  U  U6  1  0.00000000  0.00000000  0.00000000  1
  U  U7  1  0.50000000  0.50000000  0.00000000  1
  Co  Co0  1  0.74738500  0.63343800  0.84024000  1
  Co  Co1  1  0.50000000  0.57490300  0.17129200  1
  Co  Co2  1  0.75261500  0.13343800  0.65976000  1
  Co  Co3  1  0.25073900  0.74313600  0.09119900  1
  Co  Co4  1  0.50000000  0.34608200  0.65279400  1
  Co  Co5  1  0.00000000  0.69999800  0.71888900  1
  Co  Co6  1  0.00000000  0.84608200  0.84720600  1
  Co  Co7  1  0.24738500  0.13343800  0.65976000  1
  Co  Co8  1  0.50000000  0.80000200  0.21888900  1
  Co  Co9  1  0.00000000  0.54290700  0.59765700  1
  Co  Co10  1  0.50000000  0.18902100  0.53532700  1
  Co  Co11  1  0.24926100  0.75686400  0.59119900  1
  Co  Co12  1  0.75073900  0.75686400  0.59119900  1
  Co  Co13  1  0.50000000  0.42509700  0.82870800  1
  Co  Co14  1  0.00000000  0.92509700  0.67129200  1
  Co  Co15  1  0.25261500  0.36656200  0.15976000  1
  Co  Co16  1  0.50000000  0.81097900  0.46467300  1
  Co  Co17  1  0.74926100  0.25686400  0.90880100  1
  Co  Co18  1  0.50000000  0.04290700  0.90234300  1
  Co  Co19  1  0.00000000  0.07490300  0.32870800  1
  Co  Co20  1  0.00000000  0.46396300  0.91773700  1
  Co  Co21  1  0.50000000  0.95709300  0.09765700  1
  Co  Co22  1  0.00000000  0.31097900  0.03532700  1
  Co  Co23  1  0.75073900  0.24313600  0.40880100  1
  Co  Co24  1  0.50000000  0.65391800  0.34720600  1
  Co  Co25  1  0.00000000  0.30000200  0.28111100  1
  Co  Co26  1  0.00000000  0.15391800  0.15279400  1
  Co  Co27  1  0.00000000  0.45709300  0.40234300  1
  Co  Co28  1  0.50000000  0.19999800  0.78111100  1
  Co  Co29  1  0.00000000  0.53603700  0.08226300  1
  Co  Co30  1  0.24926100  0.24313600  0.40880100  1
  Co  Co31  1  0.25261500  0.63343800  0.84024000  1
  Co  Co32  1  0.24738500  0.86656200  0.34024000  1
  Co  Co33  1  0.25073900  0.25686400  0.90880100  1
  Co  Co34  1  0.74926100  0.74313600  0.09119900  1
  Co  Co35  1  0.50000000  0.96396300  0.58226300  1
  Co  Co36  1  0.75261500  0.86656200  0.34024000  1
  Co  Co37  1  0.00000000  0.68902100  0.96467300  1
  Co  Co38  1  0.50000000  0.03603700  0.41773700  1
  Co  Co39  1  0.74738500  0.36656200  0.15976000  1
  Sn  Sn0  1  0.50000000  0.58689100  0.69235700  1
  Sn  Sn1  1  0.00000000  0.69697300  0.44485600  1
  Sn  Sn2  1  0.50000000  0.80302700  0.94485600  1
  Sn  Sn3  1  0.50000000  0.19697300  0.05514400  1
  Sn  Sn4  1  0.50000000  0.41310900  0.30764300  1
  Sn  Sn5  1  0.00000000  0.30302700  0.55514400  1
  Sn  Sn6  1  0.00000000  0.08689100  0.80764300  1
  Sn  Sn7  1  0.00000000  0.91310900  0.19235700  1
loop_
_geom_bond_atom_site_label_1
_geom_bond_atom_site_label_2
_geom_bond_distance
_geom_bond_site_symmetry_2
Co0 Co31 2.374070 1_555
Co0 Co5 2.387351 1_655
Co0 Co37 2.398172 1_655
Co0 Co31 2.424260 1_655
Co0 Co13 2.455852 1_555
Co0 Co20 2.457538 1_655
Co0 Co6 2.502264 1_655
Co0 Sn0 2.687895 1_555
Co0 Sn2 2.691655 1_555
Co0 U3 3.101616 1_655
Co0 U7 3.132300 1_556
Co0 U4 3.264354 1_555
Co1 Co8 2.436126 1_555
Co1 Co39 2.455852 1_555
Co1 Co15 2.455852 1_555
Co1 Co34 2.461891 1_555
Co1 Co3 2.461891 1_555
Co1 U0 2.691817 1_655
Co1 U0 2.691817 1_555
Co1 Sn4 2.741608 1_555
Co1 Co29 2.817883 1_655
Co1 Co29 2.817883 1_555
Co1 U7 2.844016 1_555
Co2 Co7 2.374070 1_655
Co2 Co28 2.387351 1_555
Co2 Co7 2.424260 1_555
Co2 Co35 2.457538 1_545
Co2 Co4 2.502264 1_555
Co2 Sn6 2.687895 1_655
Co2 Sn5 2.691655 1_655
Co2 U4 3.101616 1_545
Co2 U1 3.132300 1_655
Co2 U3 3.264354 1_655
Co3 Co34 2.392073 1_555
Co3 Co34 2.406257 1_455
Co3 Co37 2.417984 1_554
Co3 Co8 2.436698 1_555
Co3 Sn7 2.667486 1_555
Co3 Sn2 2.698261 1_554
Co3 U0 3.039799 1_555
Co3 U7 3.131121 1_555
Co3 U6 3.247535 1_565
Co4 Co7 2.502264 1_555
Co4 Sn0 2.555292 1_555
Co4 Sn5 2.896181 1_655
Co4 Sn5 2.896181 1_555
Co4 U5 2.910005 1_555
Co4 U3 2.944519 1_655
Co4 U3 2.944519 1_555
Co5 Co9 2.522506 1_555
Co5 Co6 2.542038 1_555
Co5 Sn0 2.699651 1_455
Co5 Sn0 2.699651 1_555
Co5 U4 3.110232 1_455
Co5 U4 3.110232 1_555
Co5 U3 3.256911 1_555
Co6 Sn6 2.555292 1_565
Co6 Sn2 2.896181 1_555
Co6 Sn2 2.896181 1_455
Co6 U6 2.910005 1_566
Co6 U4 2.944519 1_555
Co6 U4 2.944519 1_455
Co7 Sn6 2.687895 1_555
Co7 Sn5 2.691655 1_555
Co7 U4 3.101616 1_545
Co7 U1 3.132300 1_555
Co7 U3 3.264354 1_555
Co8 Sn7 2.699651 1_655
Co8 Sn7 2.699651 1_555
Co8 U0 3.110232 1_555
Co8 U0 3.110232 1_655
Co8 U2 3.256911 1_565
Co9 Sn5 2.558157 1_555
Co9 Sn0 2.872535 1_455
Co9 Sn0 2.872535 1_555
Co9 U5 2.896009 1_455
Co9 U5 2.896009 1_555
Co9 Sn1 2.910927 1_555
Co9 U3 2.988039 1_555
Co10 Co7 2.398172 1_555
Co10 Co2 2.398172 1_555
Co10 Co23 2.417984 1_555
Co10 Co30 2.417984 1_555
Co10 Co35 2.432446 1_545
Co10 Co38 2.450761 1_555
Co10 Co4 2.476380 1_555
Co10 Sn5 2.688901 1_555
Co10 Sn5 2.688901 1_655
Co10 U1 3.138709 1_555
Co10 U1 3.138709 1_655
Co10 U5 3.246726 1_555
Co11 Co12 2.392073 1_455
Co11 Co12 2.406257 1_555
Co11 Co16 2.417984 1_555
Co11 Co5 2.436698 1_555
Co11 Co35 2.449809 1_555
Co11 Co14 2.461891 1_555
Co11 Co9 2.506000 1_555
Co11 Sn0 2.667486 1_555
Co11 Sn1 2.698261 1_555
Co11 U4 3.039799 1_555
Co11 U1 3.131121 1_565
Co11 U5 3.247535 1_555
Co12 Co16 2.417984 1_555
Co12 Co5 2.436698 1_655
Co12 Co35 2.449809 1_555
Co12 Co14 2.461891 1_655
Co12 Co9 2.506000 1_655
Co12 Sn0 2.667486 1_555
Co12 Sn1 2.698261 1_655
Co12 U4 3.039799 1_555
Co12 U1 3.131121 1_665
Co12 U5 3.247535 1_555
Co13 Co28 2.436126 1_555
Co13 Co31 2.455852 1_555
Co13 Co33 2.461891 1_555
Co13 Co17 2.461891 1_555
Co13 U3 2.691817 1_655
Co13 U3 2.691817 1_555
Co13 Sn0 2.741608 1_555
Co13 Co20 2.817883 1_655
Co13 Co20 2.817883 1_555
Co13 U7 2.844016 1_556
Co14 Co5 2.436126 1_555
Co14 Co7 2.455852 1_565
Co14 Co2 2.455852 1_465
Co14 U4 2.691817 1_555
Co14 U4 2.691817 1_455
Co14 Sn6 2.741608 1_565
Co14 Co35 2.817883 1_455
Co14 Co35 2.817883 1_555
Co14 U1 2.844016 1_565
Co15 Co39 2.374070 1_555
Co15 Co25 2.387351 1_555
Co15 Co22 2.398172 1_555
Co15 Co39 2.424260 1_455
Co15 Co29 2.457538 1_555
Co15 Co26 2.502264 1_555
Co15 Sn4 2.687895 1_555
Co15 Sn3 2.691655 1_555
Co15 U0 3.101616 1_555
Co15 U7 3.132300 1_555
Co15 U2 3.264354 1_555
Co16 Co32 2.398172 1_555
Co16 Co36 2.398172 1_555
Co16 Co38 2.432446 1_565
Co16 Co35 2.450761 1_555
Co16 Co24 2.476380 1_555
Co16 Sn1 2.688901 1_555
Co16 Sn1 2.688901 1_655
Co16 U1 3.138709 1_565
Co16 U1 3.138709 1_665
Co16 U5 3.246726 1_555
Co17 Co33 2.392073 1_555
Co17 Co33 2.406257 1_655
Co17 Co22 2.417984 1_656
Co17 Co28 2.436698 1_555
Co17 Co20 2.449809 1_655
Co17 Co18 2.506000 1_555
Co17 Sn6 2.667486 1_655
Co17 Sn3 2.698261 1_556
Co17 U3 3.039799 1_655
Co17 U7 3.131121 1_556
Co17 U6 3.247535 1_656
Co18 Co33 2.506000 1_555
Co18 Co28 2.522506 1_555
Co18 Sn2 2.558157 1_545
Co18 Sn6 2.872535 1_655
Co18 Sn6 2.872535 1_555
Co18 U6 2.896009 1_556
Co18 U6 2.896009 1_656
Co18 Sn3 2.910927 1_556
Co18 U4 2.988039 1_545
Co19 Co25 2.436126 1_555
Co19 Co36 2.455852 1_445
Co19 Co32 2.455852 1_545
Co19 Co30 2.461891 1_555
Co19 Co23 2.461891 1_455
Co19 U2 2.691817 1_555
Co19 U2 2.691817 1_455
Co19 Sn7 2.741608 1_545
Co19 Co38 2.817883 1_455
Co19 Co38 2.817883 1_555
Co19 U1 2.844016 1_555
Co20 Co37 2.432446 1_555
Co20 Co33 2.449809 1_555
Co20 Co22 2.450761 1_556
Co20 Co31 2.457538 1_555
Co20 U3 2.698088 1_555
Co20 Co29 2.732039 1_556
Co20 U7 2.760797 1_556
Co20 U7 2.760797 1_456
Co21 Co34 2.506000 1_555
Co21 Co3 2.506000 1_555
Co21 Co8 2.522506 1_555
Co21 Sn3 2.558157 1_565
Co21 Sn7 2.872535 1_555
Co21 Sn7 2.872535 1_655
Co21 U6 2.896009 1_565
Co21 U6 2.896009 1_665
Co21 Sn2 2.910927 1_554
Co21 U2 2.988039 1_565
Co22 Co39 2.398172 1_455
Co22 Co33 2.417984 1_554
Co22 Co29 2.432446 1_555
Co22 Co26 2.476380 1_555
Co22 Sn3 2.688901 1_455
Co22 Sn3 2.688901 1_555
Co22 U7 3.138709 1_555
Co22 U7 3.138709 1_455
Co22 U6 3.246726 1_555
Co23 Co30 2.392073 1_655
Co23 Co30 2.406257 1_555
Co23 Co25 2.436698 1_655
Co23 Co38 2.449809 1_555
Co23 Co27 2.506000 1_655
Co23 Sn4 2.667486 1_555
Co23 Sn5 2.698261 1_655
Co23 U2 3.039799 1_555
Co23 U1 3.131121 1_655
Co23 U5 3.247535 1_555
Co24 Co36 2.502264 1_555
Co24 Co32 2.502264 1_555
Co24 Co8 2.542038 1_555
Co24 Sn4 2.555292 1_555
Co24 Sn1 2.896181 1_555
Co24 Sn1 2.896181 1_655
Co24 U5 2.910005 1_555
Co24 U0 2.944519 1_655
Co24 U0 2.944519 1_555
Co25 Co39 2.387351 1_455
Co25 Co30 2.436698 1_555
Co25 Co27 2.522506 1_555
Co25 Co26 2.542038 1_555
Co25 Sn4 2.699651 1_455
Co25 Sn4 2.699651 1_555
Co25 U2 3.110232 1_555
Co25 U2 3.110232 1_455
Co25 U0 3.256911 1_555
Co26 Co39 2.502264 1_455
Co26 Sn7 2.555292 1_545
Co26 Sn3 2.896181 1_555
Co26 Sn3 2.896181 1_455
Co26 U6 2.910005 1_555
Co26 U2 2.944519 1_555
Co26 U2 2.944519 1_455
Co27 Co30 2.506000 1_555
Co27 Sn1 2.558157 1_555
Co27 Sn4 2.872535 1_555
Co27 Sn4 2.872535 1_455
Co27 U5 2.896009 1_455
Co27 U5 2.896009 1_555
Co27 Sn5 2.910927 1_555
Co27 U0 2.988039 1_555
Co28 Co7 2.387351 1_555
Co28 Co33 2.436698 1_555
Co28 Co4 2.542038 1_555
Co28 Sn6 2.699651 1_655
Co28 Sn6 2.699651 1_555
Co28 U3 3.110232 1_555
Co28 U3 3.110232 1_655
Co28 U4 3.256911 1_545
Co29 Co34 2.449809 1_455
Co29 Co3 2.449809 1_555
Co29 Co37 2.450761 1_554
Co29 Co39 2.457538 1_455
Co29 U0 2.698088 1_555
Co29 U7 2.760797 1_455
Co29 U7 2.760797 1_555
Co30 Co38 2.449809 1_555
Co30 Sn4 2.667486 1_555
Co30 Sn5 2.698261 1_555
Co30 U2 3.039799 1_555
Co30 U1 3.131121 1_555
Co30 U5 3.247535 1_555
Co31 Co5 2.387351 1_555
Co31 Co37 2.398172 1_555
Co31 Co6 2.502264 1_555
Co31 Sn0 2.687895 1_555
Co31 Sn2 2.691655 1_555
Co31 U3 3.101616 1_555
Co31 U7 3.132300 1_556
Co31 U4 3.264354 1_555
Co32 Co36 2.374070 1_455
Co32 Co8 2.387351 1_555
Co32 Co36 2.424260 1_555
Co32 Co38 2.457538 1_565
Co32 Sn7 2.687895 1_555
Co32 Sn1 2.691655 1_555
Co32 U2 3.101616 1_565
Co32 U1 3.132300 1_565
Co32 U0 3.264354 1_555
Co33 Sn6 2.667486 1_555
Co33 Sn3 2.698261 1_556
Co33 U3 3.039799 1_555
Co33 U7 3.131121 1_556
Co33 U6 3.247535 1_556
Co34 Co37 2.417984 1_654
Co34 Co8 2.436698 1_555
Co34 Sn7 2.667486 1_655
Co34 Sn2 2.698261 1_554
Co34 U0 3.039799 1_655
Co34 U7 3.131121 1_555
Co34 U6 3.247535 1_665
Co35 Co7 2.457538 1_565
Co35 U4 2.698088 1_555
Co35 Co38 2.732039 1_565
Co35 U1 2.760797 1_565
Co35 U1 2.760797 1_665
Co36 Co8 2.387351 1_555
Co36 Co38 2.457538 1_565
Co36 Sn7 2.687895 1_655
Co36 Sn1 2.691655 1_655
Co36 U2 3.101616 1_565
Co36 U1 3.132300 1_665
Co36 U0 3.264354 1_655
Co37 Co6 2.476380 1_555
Co37 Sn2 2.688901 1_455
Co37 Sn2 2.688901 1_555
Co37 U7 3.138709 1_556
Co37 U7 3.138709 1_456
Co37 U6 3.246726 1_566
Co38 U2 2.698088 1_555
Co38 U1 2.760797 1_555
Co38 U1 2.760797 1_655
Co39 Sn4 2.687895 1_555
Co39 Sn3 2.691655 1_555
Co39 U0 3.101616 1_655
Co39 U7 3.132300 1_555
Co39 U2 3.264354 1_555
Sn0 U5 3.201613 1_555
Sn0 U4 3.208967 1_555
Sn0 U3 3.309318 1_555
Sn0 U3 3.309318 1_655
Sn1 U1 3.237765 1_565
Sn1 U5 3.260973 1_555
Sn1 U5 3.260973 1_455
Sn1 U0 3.329274 1_555
Sn2 U7 3.237765 1_556
Sn2 U6 3.260973 1_566
Sn2 U6 3.260973 1_666
Sn2 U4 3.329274 1_555
Sn3 U7 3.237765 1_555
Sn3 U6 3.260973 1_555
Sn3 U6 3.260973 1_655
Sn3 U2 3.329274 1_555
Sn4 U5 3.201613 1_555
Sn4 U2 3.208967 1_555
Sn4 U0 3.309318 1_655
Sn4 U0 3.309318 1_555
Sn5 U1 3.237765 1_555
Sn5 U5 3.260973 1_455
Sn5 U5 3.260973 1_555
Sn5 U3 3.329274 1_555
Sn6 U6 3.201613 1_556
Sn6 U3 3.208967 1_555
Sn6 U4 3.309318 1_445
Sn6 U4 3.309318 1_545
Sn7 U6 3.201613 1_565
Sn7 U0 3.208967 1_555
Sn7 U2 3.309318 1_565
Sn7 U2 3.309318 1_465
