# generated using pymatgen
data_ReHg2O5
_symmetry_space_group_name_H-M   'P 1'
_cell_length_a   7.95093182
_cell_length_b   9.10408713
_cell_length_c   9.06827576
_cell_angle_alpha   114.25431481
_cell_angle_beta   102.05814524
_cell_angle_gamma   90.45356059
_symmetry_Int_Tables_number   1
_chemical_formula_structural   ReHg2O5
_chemical_formula_sum   'Re4 Hg8 O20'
_cell_volume   582.02720043
_cell_formula_units_Z   4
loop_
 _symmetry_equiv_pos_site_id
 _symmetry_equiv_pos_as_xyz
  1  'x, y, z'
loop_
 _atom_site_type_symbol
 _atom_site_label
 _atom_site_symmetry_multiplicity
 _atom_site_fract_x
 _atom_site_fract_y
 _atom_site_fract_z
 _atom_site_occupancy
  Re  Re0  1  0.90501768  0.75585139  0.46043737  1
  Re  Re1  1  0.72017676  0.35223629  0.99868215  1
  Re  Re2  1  0.27982324  0.64776371  0.00131785  1
  Re  Re3  1  0.09498232  0.24414861  0.53956263  1
  Hg  Hg0  1  0.37331492  0.60911300  0.42778772  1
  Hg  Hg1  1  0.69458719  0.67655891  0.80825128  1
  Hg  Hg2  1  0.62668508  0.39088700  0.57221228  1
  Hg  Hg3  1  0.34303502  0.96660846  0.80734029  1
  Hg  Hg4  1  0.30541281  0.32344109  0.19174872  1
  Hg  Hg5  1  0.65696498  0.03339154  0.19265971  1
  Hg  Hg6  1  -0.00000000  0.00000000  -0.00000000  1
  Hg  Hg7  1  0.50000000  0.00000000  0.50000000  1
  O  O0  1  0.20351394  0.09563692  0.58505101  1
  O  O1  1  0.46550258  0.85224534  0.61795394  1
  O  O2  1  0.06557408  0.68509320  0.95448791  1
  O  O3  1  0.25209305  0.07072730  0.01946104  1
  O  O4  1  0.99545579  0.16450864  0.32687129  1
  O  O5  1  0.00454421  0.83549136  0.67312871  1
  O  O6  1  0.36595385  0.75195247  0.21521848  1
  O  O7  1  0.74790695  0.92927270  0.98053896  1
  O  O8  1  0.93442592  0.31490680  0.04551209  1
  O  O9  1  0.70734975  0.55826764  0.05617679  1
  O  O10  1  0.06235592  0.69263453  0.34742462  1
  O  O11  1  0.29265025  0.44173236  0.94382321  1
  O  O12  1  0.79648606  0.90436308  0.41494899  1
  O  O13  1  0.75858664  0.59163208  0.41417645  1
  O  O14  1  0.24141336  0.40836792  0.58582355  1
  O  O15  1  0.63404615  0.24804753  0.78478152  1
  O  O16  1  0.53449742  0.14775466  0.38204606  1
  O  O17  1  0.60153612  0.27847353  0.10114936  1
  O  O18  1  0.93764408  0.30736547  0.65257538  1
  O  O19  1  0.39846388  0.72152647  0.89885064  1
loop_
_geom_bond_atom_site_label_1
_geom_bond_atom_site_label_2
_geom_bond_distance
_geom_bond_site_symmetry_2
Hg0 O1 2.172740 1_555
Hg1 O7 2.160707 1_555
Hg2 O16 2.172740 1_555
Hg3 O3 2.053150 1_566
Hg3 O1 2.056054 1_555
Hg4 O3 2.160707 1_555
Hg5 O7 2.053150 1_544
Hg5 O16 2.056054 1_555
Hg6 O3 2.049804 1_555
Hg6 O7 2.049804 1_444
Hg7 O16 2.080314 1_555
Hg7 O1 2.080314 1_545
Hg7 O15 2.631613 1_555
Hg7 O6 2.631613 1_545
Hg7 O12 2.674026 1_545
Hg7 O0 2.674026 1_555
O0 Re3 1.752381 1_555
O2 Re2 1.738729 1_556
O4 Re3 1.753927 1_655
O5 Re0 1.753927 1_455
O6 Re2 1.747653 1_555
O8 Re1 1.738729 1_554
O9 Re1 1.738495 1_554
O10 Re0 1.734631 1_455
O11 Re2 1.738495 1_556
O12 Re0 1.752381 1_555
O13 Re0 1.737761 1_555
O14 Re3 1.737761 1_555
O15 Re1 1.747653 1_555
O17 Re1 1.753013 1_554
O18 Re3 1.734631 1_655
O19 Re2 1.753013 1_556
