# generated using pymatgen
data_Ba2La3Ti2Cr3O15
_symmetry_space_group_name_H-M   'P 1'
_cell_length_a   5.64378301
_cell_length_b   7.93935200
_cell_length_c   14.23449425
_cell_angle_alpha   89.99987320
_cell_angle_beta   101.44078815
_cell_angle_gamma   90.00013602
_symmetry_Int_Tables_number   1
_chemical_formula_structural   Ba2La3Ti2Cr3O15
_chemical_formula_sum   'Ba4 La6 Ti4 Cr6 O30'
_cell_volume   625.14560848
_cell_formula_units_Z   2
loop_
 _symmetry_equiv_pos_site_id
 _symmetry_equiv_pos_as_xyz
  1  'x, y, z'
loop_
 _atom_site_type_symbol
 _atom_site_label
 _atom_site_symmetry_multiplicity
 _atom_site_fract_x
 _atom_site_fract_y
 _atom_site_fract_z
 _atom_site_occupancy
  Ba  Ba0  1  0.99850000  0.00000100  0.99697200  1
  Ba  Ba1  1  0.99850000  0.49999800  0.99697400  1
  Ba  Ba2  1  0.60148400  0.99999800  0.20301900  1
  Ba  Ba3  1  0.60148500  0.50000000  0.20301800  1
  La  La0  1  0.80000900  0.00000700  0.60000900  1
  La  La1  1  0.79999600  0.50000500  0.60000100  1
  La  La2  1  0.20301300  0.99999300  0.40615800  1
  La  La3  1  0.20305200  0.50001200  0.40616400  1
  La  La4  1  0.39696500  0.00000100  0.79383900  1
  La  La5  1  0.39696600  0.50000700  0.79383900  1
  Ti  Ti0  1  0.10182400  0.25000100  0.20363900  1
  Ti  Ti1  1  0.10182600  0.75000000  0.20363500  1
  Ti  Ti2  1  0.49818000  0.24999400  0.99634900  1
  Ti  Ti3  1  0.49818300  0.75000600  0.99635200  1
  Cr  Cr0  1  0.29999600  0.75000400  0.60000500  1
  Cr  Cr1  1  0.70138000  0.24999700  0.40278900  1
  Cr  Cr2  1  0.89863700  0.24999700  0.79721600  1
  Cr  Cr3  1  0.30000700  0.25000700  0.60000500  1
  Cr  Cr4  1  0.70138000  0.74999800  0.40279500  1
  Cr  Cr5  1  0.89863700  0.74999900  0.79721300  1
  O  O0  1  0.29996700  0.00000100  0.59999100  1
  O  O1  1  0.29997600  0.50000000  0.59998700  1
  O  O2  1  0.79998300  0.25000100  0.09999500  1
  O  O3  1  0.79998300  0.74999800  0.09999400  1
  O  O4  1  0.29996500  0.25000300  0.09999300  1
  O  O5  1  0.29996600  0.74999700  0.09999400  1
  O  O6  1  0.49633900  0.00000200  0.99277500  1
  O  O7  1  0.49634100  0.49999600  0.99277400  1
  O  O8  1  0.10365200  0.99999900  0.20724700  1
  O  O9  1  0.10365100  0.49999900  0.20724700  1
  O  O10  1  0.70545700  0.99999400  0.41087400  1
  O  O11  1  0.70547300  0.50000400  0.41087200  1
  O  O12  1  0.89455400  0.99999900  0.78913600  1
  O  O13  1  0.89455000  0.50000000  0.78913800  1
  O  O14  1  0.38836200  0.25000000  0.30588000  1
  O  O15  1  0.38837000  0.74999800  0.30588400  1
  O  O16  1  0.91756500  0.24999300  0.30589800  1
  O  O17  1  0.91756300  0.75000300  0.30590300  1
  O  O18  1  0.21165600  0.25000300  0.89410500  1
  O  O19  1  0.21166000  0.74999200  0.89410300  1
  O  O20  1  0.68243000  0.25000100  0.89409200  1
  O  O21  1  0.68243600  0.74999800  0.89409200  1
  O  O22  1  0.00181000  0.24999700  0.50105400  1
  O  O23  1  0.00180100  0.74999400  0.50105400  1
  O  O24  1  0.59821200  0.24999900  0.69894900  1
  O  O25  1  0.59821500  0.75000300  0.69895300  1
  O  O26  1  0.49926600  0.25000500  0.50106400  1
  O  O27  1  0.49926600  0.74999700  0.50106100  1
  O  O28  1  0.10075500  0.25000400  0.69894900  1
  O  O29  1  0.10075500  0.74999400  0.69895200  1
loop_
_geom_bond_atom_site_label_1
_geom_bond_atom_site_label_2
_geom_bond_distance
_geom_bond_site_symmetry_2
Ba0 O6 2.822153 1_655
Ba0 O6 2.822845 1_555
Ba0 O4 2.827560 1_656
Ba0 O5 2.827580 1_646
Ba0 O3 2.827939 1_546
Ba0 O2 2.827939 1_556
Ba0 O18 2.868747 1_655
Ba0 O21 2.868778 1_545
Ba0 O20 2.868780 1_555
Ba0 O19 2.868823 1_645
Ba0 O12 2.899657 1_545
Ba0 O8 2.933685 1_646
Ba1 O7 2.822174 1_655
Ba1 O7 2.822826 1_555
Ba1 O4 2.827510 1_656
Ba1 O5 2.827540 1_656
Ba1 O2 2.827897 1_556
Ba1 O3 2.827914 1_556
Ba1 O18 2.868734 1_655
Ba1 O19 2.868749 1_655
Ba1 O20 2.868774 1_555
Ba1 O21 2.868774 1_555
Ba1 O13 2.899657 1_555
Ba1 O9 2.933657 1_656
Ba2 O8 2.822210 1_555
Ba2 O8 2.822806 1_655
Ba2 O5 2.827726 1_555
Ba2 O4 2.827758 1_565
Ba2 O2 2.827906 1_565
Ba2 O3 2.827906 1_555
Ba2 O15 2.868596 1_555
Ba2 O14 2.868605 1_565
Ba2 O16 2.868778 1_565
Ba2 O17 2.868801 1_555
Ba2 O10 2.899922 1_555
Ba2 O6 2.933252 1_564
Ba3 O9 2.822224 1_555
Ba3 O9 2.822792 1_655
Ba3 O5 2.827702 1_555
Ba3 O4 2.827709 1_555
Ba3 O3 2.827875 1_555
Ba3 O2 2.827880 1_555
Ba3 O14 2.868597 1_555
Ba3 O15 2.868605 1_555
Ba3 O17 2.868847 1_555
Ba3 O16 2.868848 1_555
Ba3 O11 2.899908 1_555
Ba3 O7 2.933252 1_554
La0 O12 2.638635 1_545
La0 O10 2.638747 1_545
La0 O28 2.802788 1_655
La0 O26 2.802813 1_555
La0 O29 2.802895 1_645
La0 O27 2.802896 1_545
La0 O24 2.802898 1_555
La0 O25 2.802982 1_545
La0 O22 2.803015 1_655
La0 O23 2.803126 1_645
La0 O0 2.821705 1_655
La0 O0 2.822078 1_555
La1 O11 2.638663 1_555
La1 O13 2.638775 1_555
La1 O27 2.802715 1_555
La1 O26 2.802743 1_555
La1 O29 2.802840 1_655
La1 O28 2.802892 1_655
La1 O23 2.802954 1_655
La1 O25 2.802986 1_555
La1 O24 2.802998 1_555
La1 O22 2.803095 1_655
La1 O1 2.821818 1_655
La1 O1 2.821965 1_555
La2 O0 2.704292 1_565
La2 O17 2.767515 1_455
La2 O16 2.767596 1_465
La2 O23 2.768085 1_555
La2 O22 2.768096 1_565
La2 O15 2.768300 1_555
La2 O27 2.768371 1_555
La2 O14 2.768372 1_565
La2 O26 2.768477 1_565
La2 O8 2.775138 1_555
La2 O10 2.822181 1_455
La2 O10 2.823136 1_555
La3 O1 2.704152 1_555
La3 O17 2.767662 1_455
La3 O16 2.767843 1_455
La3 O23 2.768060 1_555
La3 O27 2.768164 1_555
La3 O15 2.768186 1_555
La3 O22 2.768214 1_555
La3 O26 2.768307 1_555
La3 O14 2.768354 1_555
La3 O9 2.775222 1_555
La3 O11 2.822285 1_455
La3 O11 2.823026 1_555
La4 O0 2.704501 1_555
La4 O20 2.767601 1_555
La4 O21 2.767636 1_545
La4 O25 2.768116 1_545
La4 O24 2.768131 1_555
La4 O18 2.768143 1_555
La4 O19 2.768147 1_545
La4 O28 2.768220 1_555
La4 O29 2.768226 1_545
La4 O6 2.775487 1_555
La4 O12 2.822326 1_545
La4 O12 2.822982 1_445
La5 O1 2.704557 1_555
La5 O21 2.767564 1_555
La5 O20 2.767634 1_555
La5 O19 2.768021 1_555
La5 O25 2.768093 1_555
La5 O29 2.768116 1_555
La5 O18 2.768149 1_555
La5 O24 2.768194 1_555
La5 O28 2.768222 1_555
La5 O7 2.775473 1_555
La5 O13 2.822292 1_555
La5 O13 2.823016 1_455
Cr0 O23 1.968717 1_555
Cr0 O25 1.968791 1_555
Cr0 O29 1.968883 1_555
Cr0 O27 1.968964 1_555
Cr0 O0 1.984814 1_565
Cr0 O1 1.984870 1_555
Cr1 O22 1.972453 1_655
Cr1 O26 1.972589 1_555
Cr1 O10 1.988064 1_545
Cr1 O11 1.988095 1_555
Cr1 O14 2.014204 1_555
Cr1 O16 2.014545 1_555
Cr2 O24 1.972448 1_555
Cr2 O28 1.972511 1_655
Cr2 O12 1.988021 1_545
Cr2 O13 1.988059 1_555
Cr2 O18 2.014063 1_655
Cr2 O20 2.014465 1_555
Cr3 O24 1.968703 1_555
Cr3 O22 1.968726 1_555
Cr3 O26 1.968885 1_555
Cr3 O28 1.968892 1_555
Cr3 O1 1.984782 1_555
Cr3 O0 1.984886 1_555
Cr4 O23 1.972371 1_655
Cr4 O27 1.972483 1_555
Cr4 O11 1.987987 1_555
Cr4 O10 1.988004 1_555
Cr4 O15 2.014185 1_555
Cr4 O17 2.014548 1_555
Cr5 O25 1.972382 1_555
Cr5 O29 1.972441 1_655
Cr5 O13 1.988025 1_555
Cr5 O12 1.988034 1_555
Cr5 O19 2.014087 1_655
Cr5 O21 2.014474 1_555
O2 Ti2 2.020148 1_554
O2 Ti0 2.020281 1_655
O3 Ti3 2.020104 1_554
O3 Ti1 2.020265 1_655
O4 Ti0 2.020315 1_555
O4 Ti2 2.020583 1_554
O5 Ti1 2.020252 1_555
O5 Ti3 2.020567 1_554
O6 Ti2 1.985401 1_555
O6 Ti3 1.985433 1_545
O7 Ti2 1.985480 1_555
O7 Ti3 1.985545 1_555
O8 Ti1 1.985470 1_555
O8 Ti0 1.985492 1_565
O9 Ti0 1.985460 1_555
O9 Ti1 1.985485 1_555
O14 Ti0 1.949249 1_555
O15 Ti1 1.949338 1_555
O16 Ti0 1.949543 1_655
O17 Ti1 1.949668 1_655
O18 Ti2 1.949220 1_555
O19 Ti3 1.949258 1_555
O20 Ti2 1.949485 1_555
O21 Ti3 1.949532 1_555
