# generated using pymatgen
data_CuHgSCl
_symmetry_space_group_name_H-M   'P 1'
_cell_length_a   4.09464700
_cell_length_b   9.03609900
_cell_length_c   10.15795500
_cell_angle_alpha   90.00000000
_cell_angle_beta   90.00000000
_cell_angle_gamma   90.00000000
_symmetry_Int_Tables_number   1
_chemical_formula_structural   CuHgSCl
_chemical_formula_sum   'Cu4 Hg4 S4 Cl4'
_cell_volume   375.84063407
_cell_formula_units_Z   4
loop_
 _symmetry_equiv_pos_site_id
 _symmetry_equiv_pos_as_xyz
  1  'x, y, z'
loop_
 _atom_site_type_symbol
 _atom_site_label
 _atom_site_symmetry_multiplicity
 _atom_site_fract_x
 _atom_site_fract_y
 _atom_site_fract_z
 _atom_site_occupancy
  Cu  Cu0  1  0.00000000  0.22935400  0.91478400  1
  Cu  Cu1  1  0.00000000  0.77064600  0.41478400  1
  Cu  Cu2  1  0.00000000  0.77064600  0.08521600  1
  Cu  Cu3  1  0.00000000  0.22935400  0.58521600  1
  Hg  Hg0  1  0.50000000  0.20451400  0.25000000  1
  Hg  Hg1  1  0.50000000  0.50000000  0.50000000  1
  Hg  Hg2  1  0.50000000  0.79548600  0.75000000  1
  Hg  Hg3  1  0.50000000  0.50000000  0.00000000  1
  S  S0  1  0.50000000  0.76658700  0.99007000  1
  S  S1  1  0.50000000  0.76658700  0.50993000  1
  S  S2  1  0.50000000  0.23341300  0.00993000  1
  S  S3  1  0.50000000  0.23341300  0.49007000  1
  Cl  Cl0  1  0.00000000  0.04164800  0.75000000  1
  Cl  Cl1  1  0.00000000  0.95835200  0.25000000  1
  Cl  Cl2  1  0.00000000  0.55855100  0.25000000  1
  Cl  Cl3  1  0.00000000  0.44144900  0.75000000  1
loop_
_geom_bond_atom_site_label_1
_geom_bond_atom_site_label_2
_geom_bond_distance
_geom_bond_site_symmetry_2
Cu0 S2 2.264283 1_456
Cu0 S2 2.264283 1_556
Cu1 S1 2.264283 1_555
Cu1 S1 2.264283 1_455
Cu2 S0 2.264283 1_554
Cu2 S0 2.264283 1_454
Cu3 S3 2.264283 1_555
Cu3 S3 2.264283 1_455
Hg0 S2 2.452562 1_555
Hg0 S3 2.452562 1_555
Hg1 S1 2.411017 1_555
Hg1 S3 2.411017 1_555
Hg2 S1 2.452562 1_555
Hg2 S0 2.452562 1_555
Hg3 S0 2.411017 1_554
Hg3 S2 2.411017 1_555
Cl0 Cu0 2.383001 1_555
Cl0 Cu3 2.383001 1_555
Cl0 Hg2 3.023118 1_445
Cl0 Hg2 3.023118 1_545
Cl1 Cu1 2.383001 1_555
Cl1 Cu2 2.383001 1_555
Cl1 Hg0 3.023118 1_465
Cl1 Hg0 3.023118 1_565
Cl2 Cu2 2.544573 1_555
Cl2 Cu1 2.544573 1_555
Cl3 Cu0 2.544573 1_555
Cl3 Cu3 2.544573 1_555
