# generated using pymatgen
data_Na7Bi3P12(Pb5O24)2
_symmetry_space_group_name_H-M   'P 1'
_cell_length_a   9.74487300
_cell_length_b   9.80639202
_cell_length_c   14.33344195
_cell_angle_alpha   89.98978082
_cell_angle_beta   90.05668243
_cell_angle_gamma   119.78360985
_symmetry_Int_Tables_number   1
_chemical_formula_structural   Na7Bi3P12(Pb5O24)2
_chemical_formula_sum   'Na7 Bi3 P12 Pb10 O48'
_cell_volume   1188.80101775
_cell_formula_units_Z   1
loop_
 _symmetry_equiv_pos_site_id
 _symmetry_equiv_pos_as_xyz
  1  'x, y, z'
loop_
 _atom_site_type_symbol
 _atom_site_label
 _atom_site_symmetry_multiplicity
 _atom_site_fract_x
 _atom_site_fract_y
 _atom_site_fract_z
 _atom_site_occupancy
  Na  Na0  1  0.99860300  0.72009400  0.12494800  1
  Na  Na1  1  0.33147300  0.66428100  0.50854400  1
  Na  Na2  1  0.33216800  0.66839600  0.99657100  1
  Na  Na3  1  0.33445000  0.66730200  0.74154000  1
  Na  Na4  1  0.66342100  0.33150700  0.75171700  1
  Na  Na5  1  0.67154900  0.33593000  0.25123100  1
  Na  Na6  1  0.00041000  0.27697500  0.37592700  1
  Bi  Bi0  1  0.31760400  0.65231300  0.24604200  1
  Bi  Bi1  1  0.67406100  0.34745900  0.99891400  1
  Bi  Bi2  1  0.67841900  0.33474500  0.49353100  1
  P  P0  1  0.59981100  0.98118400  0.87895400  1
  P  P1  1  0.59606400  0.97657600  0.37570700  1
  P  P2  1  0.02507500  0.62382300  0.88106500  1
  P  P3  1  0.03182400  0.62683600  0.37265800  1
  P  P4  1  0.62506600  0.59785400  0.62282600  1
  P  P5  1  0.62047900  0.59363500  0.12692600  1
  P  P6  1  0.38106600  0.40497600  0.87854200  1
  P  P7  1  0.37880300  0.40531900  0.37511700  1
  P  P8  1  0.96729400  0.36933200  0.12957900  1
  P  P9  1  0.97202100  0.37426700  0.62056700  1
  P  P10  1  0.40080100  0.02578100  0.62273400  1
  P  P11  1  0.40161400  0.02071800  0.12767300  1
  Pb  Pb0  1  0.00614300  0.74472800  0.62814300  1
  Pb  Pb1  1  0.73862100  0.99439500  0.62706400  1
  Pb  Pb2  1  0.75123900  0.00337700  0.12773200  1
  Pb  Pb3  1  0.73975800  0.74851100  0.87430000  1
  Pb  Pb4  1  0.74203400  0.74428000  0.37301800  1
  Pb  Pb5  1  0.25562000  0.25039100  0.12771600  1
  Pb  Pb6  1  0.25623500  0.26351100  0.62305800  1
  Pb  Pb7  1  0.24903400  0.99667100  0.37580900  1
  Pb  Pb8  1  0.24961600  0.99045500  0.87491400  1
  Pb  Pb9  1  0.00902800  0.26285800  0.87149000  1
  O  O0  1  0.07929400  0.73029100  0.28306100  1
  O  O1  1  0.07980200  0.73632400  0.96555500  1
  O  O2  1  0.06816400  0.72962900  0.79217500  1
  O  O3  1  0.07840400  0.74039300  0.45783300  1
  O  O4  1  0.41562400  0.89013300  0.87431200  1
  O  O5  1  0.41008800  0.88473000  0.37283300  1
  O  O6  1  0.33198200  0.84780100  0.62108400  1
  O  O7  1  0.33631000  0.84131800  0.13000900  1
  O  O8  1  0.66481400  0.93553300  0.79183300  1
  O  O9  1  0.65386400  0.92057300  0.96397700  1
  O  O10  1  0.65054200  0.92289200  0.28756300  1
  O  O11  1  0.65581400  0.92245700  0.46024500  1
  O  O12  1  0.11503200  0.52950400  0.87707700  1
  O  O13  1  0.13045700  0.54139300  0.37166600  1
  O  O14  1  0.51738300  0.66954500  0.62083300  1
  O  O15  1  0.49958100  0.65329700  0.12663500  1
  O  O16  1  0.15125400  0.48022400  0.61932400  1
  O  O17  1  0.14857700  0.49342100  0.13118900  1
  O  O18  1  0.47218000  0.58800100  0.87268400  1
  O  O19  1  0.46989700  0.59158900  0.37951600  1
  O  O20  1  0.73641300  0.66188100  0.20927500  1
  O  O21  1  0.74170200  0.65984700  0.70726500  1
  O  O22  1  0.73167500  0.63370900  0.53331000  1
  O  O23  1  0.71795300  0.63108200  0.03439700  1
  O  O24  1  0.26991700  0.35098300  0.96487500  1
  O  O25  1  0.25979600  0.33353100  0.45577600  1
  O  O26  1  0.26981500  0.33800200  0.79202700  1
  O  O27  1  0.28272000  0.36863100  0.28199200  1
  O  O28  1  0.52845000  0.41217200  0.62685600  1
  O  O29  1  0.52899100  0.40671700  0.12995200  1
  O  O30  1  0.84217800  0.50593500  0.88276500  1
  O  O31  1  0.85077500  0.50447100  0.37702100  1
  O  O32  1  0.49883700  0.34091000  0.88212600  1
  O  O33  1  0.50061300  0.34639900  0.37508100  1
  O  O34  1  0.86826400  0.45412600  0.12663700  1
  O  O35  1  0.88377400  0.47356400  0.62591000  1
  O  O36  1  0.36295200  0.09392000  0.53289800  1
  O  O37  1  0.33945500  0.08018300  0.70704200  1
  O  O38  1  0.34887500  0.07633900  0.03924500  1
  O  O39  1  0.34393100  0.07844500  0.21228100  1
  O  O40  1  0.66623600  0.16185500  0.88296900  1
  O  O41  1  0.65872300  0.15639900  0.37704200  1
  O  O42  1  0.58838300  0.11669500  0.62545100  1
  O  O43  1  0.58782100  0.11261400  0.12606300  1
  O  O44  1  0.91801200  0.25892200  0.70519500  1
  O  O45  1  0.89880500  0.27179700  0.53035400  1
  O  O46  1  0.92260700  0.25632200  0.21354800  1
  O  O47  1  0.92386300  0.26702200  0.03868900  1
loop_
_geom_bond_atom_site_label_1
_geom_bond_atom_site_label_2
_geom_bond_distance
_geom_bond_site_symmetry_2
Na0 O34 2.263945 1_555
Na0 O0 2.383878 1_655
Na0 O1 2.397792 1_654
Na0 O20 2.621404 1_555
Na0 O23 2.747348 1_555
Na0 O7 2.891639 1_655
Na1 O16 2.391395 1_555
Na1 O14 2.403459 1_555
Na1 O6 2.415167 1_555
Na1 O19 2.590129 1_555
Na1 O13 2.605128 1_555
Na1 O5 2.720347 1_555
Na2 O15 2.528397 1_556
Na2 O12 2.529131 1_555
Na2 O7 2.543287 1_556
Na2 O4 2.589423 1_555
Na2 O18 2.590418 1_555
Na2 O17 2.612289 1_556
Na2 O1 2.883504 1_555
Na2 O24 2.896073 1_555
Na2 O9 2.908966 1_555
Na3 O14 2.477680 1_555
Na3 O6 2.481073 1_555
Na3 O16 2.522431 1_555
Na3 O18 2.640261 1_555
Na3 O4 2.702534 1_555
Na3 O12 2.703497 1_555
Na4 O32 2.495536 1_555
Na4 O40 2.520307 1_555
Na4 O30 2.554034 1_555
Na4 O28 2.566537 1_555
Na4 O42 2.591545 1_555
Na4 O35 2.615012 1_555
Na5 O34 2.450751 1_555
Na5 O33 2.472325 1_555
Na5 O41 2.479471 1_555
Na5 O31 2.481932 1_555
Na5 O29 2.527139 1_555
Na5 O43 2.627480 1_555
Na6 O13 2.251418 1_555
Na6 O45 2.415933 1_455
Na6 O46 2.424254 1_455
Na6 O25 2.570698 1_555
Na6 O27 2.781994 1_555
Na6 O41 2.928146 1_455
Bi0 O17 2.301498 1_555
Bi0 O13 2.405502 1_555
Bi0 O7 2.428674 1_555
Bi0 O15 2.462339 1_555
Bi0 O19 2.662541 1_555
Bi0 O27 2.679623 1_555
Bi0 O5 2.695780 1_555
Bi0 O0 2.833045 1_555
Bi1 O30 2.312111 1_555
Bi1 O32 2.368001 1_555
Bi1 O40 2.437915 1_555
Bi1 O34 2.460562 1_556
Bi1 O29 2.585672 1_556
Bi1 O23 2.644916 1_556
Bi1 O43 2.722173 1_556
Bi2 O41 2.355925 1_555
Bi2 O31 2.368009 1_555
Bi2 O33 2.467518 1_555
Bi2 O45 2.566443 1_555
Bi2 O35 2.597144 1_555
Bi2 O42 2.656213 1_555
Bi2 O28 2.733612 1_555
Bi2 O22 2.770939 1_555
Bi2 O36 2.852492 1_555
O0 P3 1.557875 1_555
O0 Pb7 2.651673 1_555
O1 P2 1.543639 1_555
O1 Pb8 2.557940 1_555
O2 P2 1.563320 1_555
O2 Pb0 2.449704 1_555
O2 Pb8 2.564968 1_555
O3 P3 1.560068 1_555
O3 Pb7 2.512846 1_555
O3 Pb0 2.547539 1_555
O4 P0 1.559141 1_555
O4 Pb8 2.272904 1_555
O5 P1 1.573416 1_555
O5 Pb7 2.319857 1_555
O6 P10 1.527642 1_565
O6 Pb0 2.815372 1_555
O7 P11 1.545610 1_565
O8 P0 1.563492 1_555
O8 Pb1 2.453280 1_555
O8 Pb3 2.573390 1_555
O9 P0 1.557370 1_555
O9 Pb2 2.509940 1_566
O9 Pb3 2.570174 1_555
O10 P1 1.560254 1_555
O10 Pb2 2.463450 1_565
O10 Pb4 2.628987 1_555
O11 P1 1.547354 1_555
O11 Pb1 2.509459 1_555
O11 Pb4 2.604491 1_555
O12 P2 1.559757 1_555
O12 Pb9 2.286338 1_555
O13 P3 1.557628 1_555
O14 P4 1.526122 1_555
O14 Pb1 2.825041 1_555
O15 P5 1.554057 1_555
O16 P9 1.525679 1_455
O16 Pb6 2.779483 1_555
O17 P8 1.570482 1_455
O18 P6 1.560029 1_555
O18 Pb3 2.280284 1_555
O19 P7 1.586705 1_555
O19 Pb4 2.310645 1_555
O20 P5 1.537521 1_555
O20 Pb4 2.474023 1_555
O21 P4 1.561206 1_555
O21 Pb0 2.548364 1_655
O21 Pb3 2.550621 1_555
O22 P4 1.577588 1_555
O22 Pb4 2.520993 1_555
O22 Pb0 2.699483 1_655
O23 P5 1.565842 1_555
O23 Pb3 2.528636 1_554
O24 P6 1.554826 1_555
O24 Pb5 2.510710 1_556
O24 Pb9 2.610160 1_555
O25 P7 1.538969 1_555
O25 Pb6 2.489515 1_555
O26 P6 1.560350 1_555
O26 Pb6 2.514104 1_555
O26 Pb9 2.538439 1_555
O27 P7 1.565523 1_555
O27 Pb5 2.449414 1_555
O28 P4 1.581858 1_555
O28 Pb6 2.307148 1_555
O29 P5 1.591586 1_555
O29 Pb5 2.321758 1_555
O30 P2 1.570606 1_655
O31 P3 1.566376 1_655
O32 P6 1.559055 1_555
O33 P7 1.556994 1_555
O34 P8 1.556150 1_555
O35 P9 1.589220 1_555
O35 Pb0 2.311669 1_655
O36 P10 1.576130 1_555
O36 Pb7 2.481074 1_545
O36 Pb6 2.690531 1_555
O37 P10 1.555881 1_555
O37 Pb8 2.562914 1_545
O37 Pb6 2.604705 1_555
O38 P11 1.563677 1_555
O38 Pb8 2.525839 1_544
O38 Pb5 2.625096 1_555
O39 P11 1.557193 1_555
O39 Pb7 2.501818 1_545
O39 Pb5 2.547893 1_555
O40 P0 1.556268 1_545
O41 P1 1.553424 1_545
O42 P10 1.587026 1_555
O42 Pb1 2.307952 1_545
O43 P11 1.575067 1_555
O43 Pb2 2.319214 1_555
O44 P9 1.561147 1_555
O44 Pb9 2.536029 1_655
O44 Pb1 2.555651 1_545
O45 P9 1.573911 1_555
O45 Pb1 2.746391 1_545
O46 P8 1.545147 1_555
O46 Pb2 2.517217 1_555
O47 P8 1.568583 1_555
O47 Pb9 2.543908 1_654
O47 Pb2 2.612552 1_555
