# generated using pymatgen
data_Ce5C2Cl9
_symmetry_space_group_name_H-M   'P 1'
_cell_length_a   9.50327361
_cell_length_b   8.66068455
_cell_length_c   11.77699477
_cell_angle_alpha   85.61680505
_cell_angle_beta   81.81750673
_cell_angle_gamma   58.78839793
_symmetry_Int_Tables_number   1
_chemical_formula_structural   Ce5C2Cl9
_chemical_formula_sum   'Ce10 C4 Cl18'
_cell_volume   820.56260411
_cell_formula_units_Z   2
loop_
 _symmetry_equiv_pos_site_id
 _symmetry_equiv_pos_as_xyz
  1  'x, y, z'
loop_
 _atom_site_type_symbol
 _atom_site_label
 _atom_site_symmetry_multiplicity
 _atom_site_fract_x
 _atom_site_fract_y
 _atom_site_fract_z
 _atom_site_occupancy
  Ce  Ce0  1  0.85044300  0.31639500  0.00805300  1
  Ce  Ce1  1  0.14955700  0.68360500  0.99194700  1
  Ce  Ce2  1  0.12223000  0.22758500  0.69371900  1
  Ce  Ce3  1  0.25219400  0.90556400  0.22385600  1
  Ce  Ce4  1  0.36075000  0.39802100  0.23435200  1
  Ce  Ce5  1  0.17314300  0.69597200  0.51770100  1
  Ce  Ce6  1  0.82685700  0.30402800  0.48229900  1
  Ce  Ce7  1  0.63925000  0.60197900  0.76564800  1
  Ce  Ce8  1  0.74780600  0.09443600  0.77614400  1
  Ce  Ce9  1  0.87777000  0.77241500  0.30628100  1
  C  C0  1  0.15765800  0.70594100  0.31591100  1
  C  C1  1  0.14534100  0.70599700  0.19196100  1
  C  C2  1  0.84234200  0.29405900  0.68408900  1
  C  C3  1  0.85465900  0.29400300  0.80803900  1
  Cl  Cl0  1  0.98391600  0.62529800  0.75305900  1
  Cl  Cl1  1  0.70774600  0.69991800  0.97374800  1
  Cl  Cl2  1  0.41624100  0.33823900  0.47420100  1
  Cl  Cl3  1  0.81263900  0.00142200  0.01697100  1
  Cl  Cl4  1  0.01608400  0.37470200  0.24694100  1
  Cl  Cl5  1  0.18736100  0.99857800  0.98302900  1
  Cl  Cl6  1  0.18719700  0.02574900  0.46551800  1
  Cl  Cl7  1  0.47635800  0.00766300  0.73143500  1
  Cl  Cl8  1  0.29225400  0.30008200  0.02625200  1
  Cl  Cl9  1  0.58375900  0.66176100  0.52579900  1
  Cl  Cl10  1  0.84608100  0.12729000  0.26064000  1
  Cl  Cl11  1  0.15391900  0.87271000  0.73936000  1
  Cl  Cl12  1  0.50000000  0.50000000  0.00000000  1
  Cl  Cl13  1  0.52364200  0.99233700  0.26856500  1
  Cl  Cl14  1  0.81280300  0.97425100  0.53448200  1
  Cl  Cl15  1  0.00000000  0.50000000  0.50000000  1
  Cl  Cl16  1  0.44344900  0.43875500  0.74488700  1
  Cl  Cl17  1  0.55655100  0.56124500  0.25511300  1
loop_
_geom_bond_atom_site_label_1
_geom_bond_atom_site_label_2
_geom_bond_distance
_geom_bond_site_symmetry_2
Ce0 Cl12 2.864815 1_555
Ce0 Cl1 2.884019 1_554
Ce0 Cl3 2.922773 1_555
Ce0 Cl5 2.938773 1_644
Ce0 Cl10 3.289915 1_555
Ce0 Cl4 3.598560 1_655
Ce0 Cl17 3.640732 1_555
Ce1 Cl12 2.864815 1_556
Ce1 Cl8 2.884019 1_556
Ce1 Cl5 2.922773 1_555
Ce1 Cl3 2.938773 1_466
Ce1 Cl11 3.289915 1_555
Ce1 Cl0 3.598560 1_455
Ce1 Cl16 3.640732 1_555
Ce2 Cl11 2.942800 1_545
Ce2 Cl7 2.967112 1_555
Ce2 Cl15 3.035097 1_555
Ce2 Cl0 3.081332 1_455
Ce2 Cl6 3.128393 1_555
Ce3 Cl17 2.930884 1_555
Ce3 Cl5 2.950673 1_554
Ce3 Cl6 2.975072 1_565
Ce3 Cl13 3.154823 1_555
Ce3 Cl10 3.277265 1_465
Ce3 Cl4 3.487642 1_565
Ce4 Cl17 2.903279 1_555
Ce4 Cl2 2.905614 1_555
Ce4 Cl8 2.914391 1_555
Ce4 Cl13 3.037699 1_545
Ce4 Cl12 3.154001 1_555
Ce4 Cl4 3.366623 1_555
Ce5 Cl2 2.772386 1_555
Ce5 Cl6 2.942190 1_565
Ce5 Cl15 2.945781 1_555
Ce5 Cl14 2.983417 1_455
Ce5 Cl11 3.062045 1_555
Ce5 Cl0 3.279324 1_455
Ce6 Cl9 2.772386 1_555
Ce6 Cl14 2.942190 1_545
Ce6 Cl15 2.945781 1_655
Ce6 Cl6 2.983417 1_655
Ce6 Cl10 3.062045 1_555
Ce6 Cl4 3.279324 1_655
Ce7 Cl16 2.903279 1_555
Ce7 Cl9 2.905614 1_555
Ce7 Cl1 2.914391 1_555
Ce7 Cl7 3.037699 1_565
Ce7 Cl12 3.154001 1_556
Ce7 Cl0 3.366623 1_555
Ce8 Cl16 2.930884 1_555
Ce8 Cl3 2.950673 1_556
Ce8 Cl14 2.975072 1_545
Ce8 Cl7 3.154823 1_555
Ce8 Cl11 3.277265 1_645
Ce8 Cl0 3.487642 1_545
Ce9 Cl10 2.942800 1_565
Ce9 Cl13 2.967112 1_555
Ce9 Cl15 3.035097 1_655
Ce9 Cl4 3.081332 1_655
Ce9 Cl14 3.128393 1_555
C0 C1 1.480901 1_555
C0 Ce5 2.394114 1_555
C0 Ce9 2.430630 1_455
C0 Ce3 2.453055 1_555
C0 Ce4 2.507771 1_555
C1 Ce1 2.371245 1_554
C1 Ce4 2.445949 1_555
C1 Ce3 2.487239 1_555
C1 Ce9 2.497461 1_455
C2 C3 1.480901 1_555
C2 Ce6 2.394114 1_555
C2 Ce2 2.430630 1_655
C2 Ce8 2.453055 1_555
C2 Ce7 2.507771 1_555
C3 Ce0 2.371245 1_556
C3 Ce7 2.445949 1_555
C3 Ce8 2.487239 1_555
C3 Ce2 2.497461 1_655
