# generated using pymatgen
data_RbNa2P3(HO2)6
_symmetry_space_group_name_H-M   'P 1'
_cell_length_a   7.63659800
_cell_length_b   8.80598562
_cell_length_c   9.86827829
_cell_angle_alpha   65.99685007
_cell_angle_beta   84.58259156
_cell_angle_gamma   77.75640850
_symmetry_Int_Tables_number   1
_chemical_formula_structural   RbNa2P3(HO2)6
_chemical_formula_sum   'Rb2 Na4 P6 H12 O24'
_cell_volume   592.41844985
_cell_formula_units_Z   2
loop_
 _symmetry_equiv_pos_site_id
 _symmetry_equiv_pos_as_xyz
  1  'x, y, z'
loop_
 _atom_site_type_symbol
 _atom_site_label
 _atom_site_symmetry_multiplicity
 _atom_site_fract_x
 _atom_site_fract_y
 _atom_site_fract_z
 _atom_site_occupancy
  Rb  Rb0  1  0.75427100  0.85252800  0.61981800  1
  Rb  Rb1  1  0.24572900  0.14747200  0.38018200  1
  Na  Na0  1  0.47032200  0.22181800  0.71354400  1
  Na  Na1  1  0.52967800  0.77818200  0.28645600  1
  Na  Na2  1  0.85166100  0.52720000  0.14084200  1
  Na  Na3  1  0.14833900  0.47280000  0.85915800  1
  P  P0  1  0.92663600  0.13826600  0.75741500  1
  P  P1  1  0.07336400  0.86173400  0.24258500  1
  P  P2  1  0.25810200  0.61861300  0.11831200  1
  P  P3  1  0.74189800  0.38138700  0.88168800  1
  P  P4  1  0.75468700  0.12767800  0.20041400  1
  P  P5  1  0.24531300  0.87232200  0.79958600  1
  H  H0  1  0.71480900  0.90198600  0.97029000  1
  H  H1  1  0.28519100  0.09801400  0.02971000  1
  H  H2  1  0.56901600  0.79418800  0.99283600  1
  H  H3  1  0.43098400  0.20581200  0.00716400  1
  H  H4  1  0.48680500  0.39678500  0.38691200  1
  H  H5  1  0.51319500  0.60321500  0.61308800  1
  H  H6  1  0.65640300  0.25921600  0.40421100  1
  H  H7  1  0.34359700  0.74078400  0.59578900  1
  H  H8  1  0.81714400  0.44302500  0.46119300  1
  H  H9  1  0.18285600  0.55697500  0.53880700  1
  H  H10  1  0.88014000  0.61794200  0.40144700  1
  H  H11  1  0.11986000  0.38205800  0.59855300  1
  O  O0  1  0.23838900  0.93839600  0.21104500  1
  O  O1  1  0.76161100  0.06160400  0.78895500  1
  O  O2  1  0.01709600  0.76928000  0.40106000  1
  O  O3  1  0.98290400  0.23072000  0.59893900  1
  O  O4  1  0.91584900  0.26226300  0.84412600  1
  O  O5  1  0.08415100  0.73773700  0.15587400  1
  O  O6  1  0.90893200  0.00405400  0.14841400  1
  O  O7  1  0.09106800  0.99594600  0.85158600  1
  O  O8  1  0.66647200  0.25218500  0.03791500  1
  O  O9  1  0.33352800  0.74781500  0.96208500  1
  O  O10  1  0.18102300  0.48788900  0.09409200  1
  O  O11  1  0.81897700  0.51211100  0.90590800  1
  O  O12  1  0.40296700  0.56889300  0.22886000  1
  O  O13  1  0.59703300  0.43110700  0.77114000  1
  O  O14  1  0.83899600  0.22582700  0.26259200  1
  O  O15  1  0.16100400  0.77417300  0.73740800  1
  O  O16  1  0.38478800  0.96960000  0.71011700  1
  O  O17  1  0.61521200  0.03040000  0.28988300  1
  O  O18  1  0.66538600  0.80556400  0.04483500  1
  O  O19  1  0.33461400  0.19443600  0.95516500  1
  O  O20  1  0.44900500  0.71147200  0.53937900  1
  O  O21  1  0.55099500  0.28852800  0.46062100  1
  O  O22  1  0.79627000  0.55741400  0.38223400  1
  O  O23  1  0.20373000  0.44258600  0.61776600  1
loop_
_geom_bond_atom_site_label_1
_geom_bond_atom_site_label_2
_geom_bond_distance
_geom_bond_site_symmetry_2
Na0 O1 2.370608 1_555
Na0 O21 2.371603 1_555
Na0 O19 2.447261 1_555
Na0 O23 2.450965 1_555
Na0 O16 2.457918 1_545
Na0 O13 2.523584 1_555
Na1 O0 2.370608 1_555
Na1 O20 2.371603 1_555
Na1 O18 2.447261 1_555
Na1 O22 2.450965 1_555
Na1 O17 2.457918 1_565
Na1 O12 2.523584 1_555
Na2 O18 2.411630 1_555
Na2 O11 2.414303 1_554
Na2 O14 2.447200 1_555
Na2 O10 2.490073 1_655
Na2 O22 2.490356 1_555
Na2 O5 2.877674 1_655
Na3 O19 2.411630 1_555
Na3 O10 2.414303 1_556
Na3 O15 2.447200 1_555
Na3 O11 2.490073 1_455
Na3 O23 2.490356 1_555
Na3 O4 2.877674 1_455
H0 O18 0.989889 1_556
H1 O19 0.989889 1_554
H2 O18 0.979465 1_556
H3 O19 0.979465 1_554
H4 O21 0.991538 1_555
H4 O12 1.730141 1_555
H5 O20 0.991538 1_555
H5 O13 1.730141 1_555
H6 O21 0.984190 1_555
H7 O20 0.984190 1_555
H8 O22 0.981837 1_555
H9 O23 0.981837 1_555
H10 O22 0.990052 1_555
H11 O23 0.990052 1_555
O0 P1 1.502206 1_555
O0 Rb1 2.956396 1_565
O1 P0 1.502206 1_555
O1 Rb0 2.956396 1_545
O2 P1 1.509573 1_555
O2 Rb0 3.011878 1_455
O3 P0 1.509581 1_555
O3 Rb1 3.011871 1_655
O4 P3 1.623200 1_555
O4 P0 1.624796 1_555
O5 P2 1.623200 1_555
O5 P1 1.624796 1_555
O6 P1 1.617528 1_645
O6 P4 1.622464 1_555
O7 P0 1.617528 1_465
O7 P5 1.622464 1_555
O8 P3 1.638989 1_554
O8 P4 1.639425 1_555
O9 P2 1.638989 1_556
O9 P5 1.639425 1_555
O10 P2 1.505509 1_555
O10 Rb1 3.154473 1_555
O11 P3 1.505509 1_555
O11 Rb0 3.154473 1_555
O12 P2 1.496494 1_555
O13 P3 1.496494 1_555
O14 P4 1.509999 1_555
O14 Rb1 3.254289 1_655
O15 P5 1.509999 1_555
O15 Rb0 3.254289 1_455
O16 P5 1.497297 1_555
O16 Rb0 2.976096 1_555
O16 Rb1 3.159151 1_565
O17 P4 1.497297 1_555
O17 Rb1 2.976096 1_555
O17 Rb0 3.159151 1_545
