# generated using pymatgen
data_Ca6Al6Si3(HO12)2
_symmetry_space_group_name_H-M   'P 1'
_cell_length_a   7.68000700
_cell_length_b   7.87667981
_cell_length_c   19.27182018
_cell_angle_alpha   97.77957566
_cell_angle_beta   97.25753499
_cell_angle_gamma   109.77020582
_symmetry_Int_Tables_number   1
_chemical_formula_structural   Ca6Al6Si3(HO12)2
_chemical_formula_sum   'Ca12 Al12 Si6 H4 O48'
_cell_volume   1068.31497691
_cell_formula_units_Z   2
loop_
 _symmetry_equiv_pos_site_id
 _symmetry_equiv_pos_as_xyz
  1  'x, y, z'
loop_
 _atom_site_type_symbol
 _atom_site_label
 _atom_site_symmetry_multiplicity
 _atom_site_fract_x
 _atom_site_fract_y
 _atom_site_fract_z
 _atom_site_occupancy
  Ca  Ca0  1  0.89498300  0.90079600  0.09923100  1
  Ca  Ca1  1  0.95838200  0.65489800  0.33209700  1
  Ca  Ca2  1  0.47921700  0.46585500  0.23834800  1
  Ca  Ca3  1  0.62717100  0.32257900  0.66415500  1
  Ca  Ca4  1  0.24294800  0.23068200  0.76555600  1
  Ca  Ca5  1  0.57569600  0.56789000  0.43330000  1
  Ca  Ca6  1  0.13543000  0.12733500  0.57033800  1
  Ca  Ca7  1  0.66874900  0.97900700  0.33154200  1
  Ca  Ca8  1  0.79997400  0.79668700  0.90298900  1
  Ca  Ca9  1  0.33284000  0.64217900  0.66410300  1
  Ca  Ca10  1  0.99297600  0.28688700  0.00019000  1
  Ca  Ca11  1  0.29780300  0.00608800  0.00266200  1
  Al  Al0  1  0.41834900  0.67316700  0.08254100  1
  Al  Al1  1  0.66540100  0.42034900  0.08666500  1
  Al  Al2  1  0.00690200  0.25277900  0.24668600  1
  Al  Al3  1  0.74482400  0.25717800  0.50048900  1
  Al  Al4  1  0.58344900  0.08456500  0.16627700  1
  Al  Al5  1  0.25156600  0.00057500  0.25007000  1
  Al  Al6  1  0.67484200  0.92330400  0.58282100  1
  Al  Al7  1  0.41047900  0.91812000  0.83339200  1
  Al  Al8  1  0.91832800  0.67327800  0.58322200  1
  Al  Al9  1  0.25792100  0.74661100  0.49935400  1
  Al  Al10  1  0.92223200  0.41516600  0.83358500  1
  Al  Al11  1  0.58026200  0.33239600  0.91853400  1
  Si  Si0  1  0.08606000  0.58540300  0.16719200  1
  Si  Si1  1  0.08074900  0.32939700  0.41627200  1
  Si  Si2  1  0.32195000  0.07759600  0.41625600  1
  Si  Si3  1  0.74941200  0.99501200  0.75075800  1
  Si  Si4  1  0.33517900  0.58313900  0.91581400  1
  Si  Si5  1  0.99021800  0.74395900  0.74905400  1
  H  H0  1  0.23033600  0.23049300  0.11461000  1
  H  H1  1  0.66041800  0.30732000  0.33030900  1
  H  H2  1  0.32829300  0.97449800  0.66400200  1
  H  H3  1  0.99037800  0.65426500  0.99598500  1
  O  O0  1  0.91679500  0.47652000  0.09794600  1
  O  O1  1  0.28335700  0.57358400  0.14639900  1
  O  O2  1  0.48469800  0.68787200  0.33578400  1
  O  O3  1  0.39326700  0.40835000  0.60376400  1
  O  O4  1  0.14450000  0.55402200  0.42687600  1
  O  O5  1  0.62765400  0.62953400  0.09491400  1
  O  O6  1  0.04619200  0.48528600  0.23691100  1
  O  O7  1  0.75730000  0.48426000  0.52135700  1
  O  O8  1  0.55170300  0.14154600  0.42672300  1
  O  O9  1  0.95879300  0.24096700  0.33576500  1
  O  O10  1  0.67373300  0.43522600  0.33696500  1
  O  O11  1  0.81724900  0.09394000  0.18596400  1
  O  O12  1  0.95783300  0.24429700  0.47516600  1
  O  O13  1  0.14355800  0.14516100  0.07397600  1
  O  O14  1  0.14760000  0.35184100  0.66783700  1
  O  O15  1  0.06620500  0.06827000  0.92364300  1
  O  O16  1  0.57153800  0.29730500  0.15105600  1
  O  O17  1  0.81832200  0.22035900  0.76127100  1
  O  O18  1  0.27444300  0.27314100  0.42726400  1
  O  O19  1  0.71066800  0.15149200  0.57443000  1
  O  O20  1  0.20953900  0.20249600  0.23955700  1
  O  O21  1  0.48455800  0.03928800  0.24310700  1
  O  O22  1  0.62307100  0.90229300  0.67096600  1
  O  O23  1  0.21986700  0.80503200  0.75860700  1
  O  O24  1  0.33819800  0.10097700  0.66753300  1
  O  O25  1  0.21896000  0.95383300  0.33738100  1
  O  O26  1  0.49024200  0.76186700  0.51913300  1
  O  O27  1  0.62581300  0.90983100  0.80934600  1
  O  O28  1  0.79281600  0.80991100  0.39477800  1
  O  O29  1  0.77688800  0.99612800  0.99740500  1
  O  O30  1  0.73384400  0.74701300  0.27324400  1
  O  O31  1  0.45865600  0.90763100  0.09209200  1
  O  O32  1  0.09353200  0.79801800  0.18976700  1
  O  O33  1  0.23831700  0.95497700  0.47531700  1
  O  O34  1  0.37315400  0.79609400  0.90440700  1
  O  O35  1  0.87890900  0.87658000  0.57556100  1
  O  O36  1  0.94361600  0.93944400  0.75988700  1
  O  O37  1  0.27967100  0.56086700  0.99456900  1
  O  O38  1  0.15285700  0.71336800  0.57429400  1
  O  O39  1  0.00196100  0.78197600  0.00085400  1
  O  O40  1  0.88839000  0.62128600  0.66985200  1
  O  O41  1  0.16148200  0.43864700  0.85295700  1
  O  O42  1  0.45902800  0.47577900  0.72769200  1
  O  O43  1  0.90517600  0.62080800  0.80736500  1
  O  O44  1  0.52224500  0.53140100  0.90621400  1
  O  O45  1  0.81745700  0.38787000  0.90802200  1
  O  O46  1  0.56302200  0.27736000  0.00255200  1
  O  O47  1  0.42423000  0.14562400  0.85244200  1
loop_
_geom_bond_atom_site_label_1
_geom_bond_atom_site_label_2
_geom_bond_distance
_geom_bond_site_symmetry_2
Ca0 O39 2.361938 1_655
Ca0 O13 2.364055 1_665
Ca0 O11 2.375478 1_565
Ca0 O29 2.376408 1_554
Ca0 O5 2.393420 1_555
Ca0 O32 2.563230 1_655
Ca1 O10 2.306210 1_555
Ca1 O30 2.315523 1_555
Ca1 O28 2.367685 1_555
Ca1 O6 2.421418 1_655
Ca1 O25 2.501077 1_655
Ca1 O4 2.551941 1_655
Ca2 O16 2.329989 1_555
Ca2 O30 2.348535 1_555
Ca2 O10 2.356376 1_555
Ca2 O2 2.372167 1_555
Ca2 O20 2.389989 1_555
Ca2 O1 2.592263 1_555
Ca3 O24 2.328730 1_555
Ca3 O19 2.334770 1_555
Ca3 O3 2.354484 1_555
Ca3 O42 2.382580 1_555
Ca3 O40 2.500752 1_555
Ca3 O17 2.611454 1_555
Ca4 O24 2.340887 1_555
Ca4 O42 2.352327 1_555
Ca4 O47 2.353024 1_555
Ca4 O14 2.367358 1_555
Ca4 O41 2.474769 1_555
Ca4 O36 2.619209 1_445
Ca5 O10 2.337909 1_555
Ca5 O2 2.347158 1_555
Ca5 O28 2.347593 1_555
Ca5 O7 2.363300 1_555
Ca5 O26 2.402046 1_555
Ca5 O18 2.642265 1_555
Ca6 O35 2.294346 1_445
Ca6 O3 2.358410 1_555
Ca6 O24 2.358763 1_555
Ca6 O14 2.368689 1_555
Ca6 O33 2.497824 1_545
Ca6 O12 2.597807 1_455
Ca7 O30 2.248443 1_555
Ca7 O2 2.269469 1_555
Ca7 O28 2.274124 1_555
Ca7 O21 2.279361 1_565
Ca7 O9 2.454681 1_565
Ca7 O8 2.524126 1_565
Ca7 H1 2.611575 1_565
Ca8 O29 2.303515 1_555
Ca8 O39 2.327773 1_656
Ca8 O15 2.349480 1_665
Ca8 O44 2.444017 1_555
Ca8 O43 2.531854 1_555
Ca8 O27 2.544026 1_555
Ca9 O3 2.257110 1_555
Ca9 O14 2.264614 1_555
Ca9 O42 2.270009 1_555
Ca9 O38 2.324505 1_555
Ca9 O22 2.438498 1_555
Ca9 O23 2.496978 1_555
Ca10 O29 2.318431 1_544
Ca10 O13 2.343777 1_655
Ca10 O15 2.373766 1_654
Ca10 O45 2.471371 1_554
Ca10 O0 2.496090 1_555
Ca10 O37 2.534959 1_654
Ca11 O13 2.318129 1_555
Ca11 O39 2.351533 1_545
Ca11 O31 2.360066 1_545
Ca11 O46 2.402605 1_555
Ca11 O15 2.414441 1_554
Ca11 O34 2.594766 1_544
Al0 O31 1.745622 1_555
Al0 O5 1.748712 1_555
Al0 O1 1.799493 1_555
Al0 O37 1.814261 1_554
Al1 O16 1.754379 1_555
Al1 O5 1.757282 1_555
Al1 O46 1.760406 1_555
Al1 O0 1.805735 1_555
Al2 O11 1.731020 1_455
Al2 O20 1.747550 1_555
Al2 O6 1.792881 1_555
Al2 O9 1.809011 1_455
Al3 O7 1.746361 1_555
Al3 O19 1.749346 1_555
Al3 O12 1.795899 1_555
Al3 O8 1.803660 1_555
Al4 O11 1.761851 1_555
Al4 O31 1.765106 1_545
Al4 O16 1.769837 1_555
Al4 O21 1.772056 1_555
Al5 O21 1.736518 1_555
Al5 O20 1.758638 1_555
Al5 O32 1.789097 1_545
Al5 O25 1.800374 1_545
Al6 O35 1.744394 1_555
Al6 O26 1.746888 1_555
Al6 O19 1.757199 1_565
Al6 O22 1.809240 1_555
Al7 O47 1.743900 1_565
Al7 O34 1.774228 1_555
Al7 O27 1.792328 1_555
Al7 O23 1.803018 1_555
Al8 O35 1.748835 1_555
Al8 O7 1.751808 1_555
Al8 O38 1.755512 1_655
Al8 O40 1.796176 1_555
Al9 O26 1.736065 1_555
Al9 O38 1.749091 1_555
Al9 O4 1.798886 1_555
Al9 O33 1.812807 1_555
Al10 O45 1.734858 1_555
Al10 O41 1.768577 1_655
Al10 O43 1.801268 1_555
Al10 O17 1.801448 1_555
Al11 O46 1.741425 1_556
Al11 O45 1.768938 1_555
Al11 O47 1.771176 1_555
Al11 O44 1.805124 1_555
H0 O13 0.965281 1_555
H1 O10 0.966396 1_555
H2 O24 0.965387 1_565
H3 O39 0.969758 1_656
O0 Si0 1.644363 1_655
O1 Si0 1.644366 1_555
O4 Si1 1.643991 1_555
O6 Si0 1.657819 1_555
O8 Si2 1.639873 1_555
O9 Si1 1.633572 1_655
O12 Si1 1.636233 1_655
O17 Si3 1.646747 1_545
O18 Si1 1.686951 1_555
O18 Si2 1.691669 1_555
O22 Si3 1.636789 1_555
O23 Si5 1.641945 1_455
O25 Si2 1.630942 1_565
O27 Si3 1.634356 1_555
O32 Si0 1.651854 1_555
O33 Si2 1.644253 1_565
O34 Si4 1.652896 1_555
O36 Si3 1.686190 1_555
O36 Si5 1.687378 1_555
O37 Si4 1.643486 1_555
O40 Si5 1.631858 1_555
O41 Si4 1.653375 1_555
O43 Si5 1.637774 1_555
O44 Si4 1.645338 1_555
