# generated using pymatgen
data_MgSiO3
_symmetry_space_group_name_H-M   'P 1'
_cell_length_a   4.99059900
_cell_length_b   9.06394500
_cell_length_c   9.34514000
_cell_angle_alpha   90.00000000
_cell_angle_beta   90.00000000
_cell_angle_gamma   90.00000000
_symmetry_Int_Tables_number   1
_chemical_formula_structural   MgSiO3
_chemical_formula_sum   'Mg8 Si8 O24'
_cell_volume   422.72287413
_cell_formula_units_Z   8
loop_
 _symmetry_equiv_pos_site_id
 _symmetry_equiv_pos_as_xyz
  1  'x, y, z'
loop_
 _atom_site_type_symbol
 _atom_site_label
 _atom_site_symmetry_multiplicity
 _atom_site_fract_x
 _atom_site_fract_y
 _atom_site_fract_z
 _atom_site_occupancy
  Mg  Mg0  1  0.25000000  0.27250000  0.00000000  1
  Mg  Mg1  1  0.25000000  0.90263600  0.00000000  1
  Mg  Mg2  1  0.25000000  0.77250000  0.50000000  1
  Mg  Mg3  1  0.75000000  0.59736400  0.50000000  1
  Mg  Mg4  1  0.75000000  0.72750000  0.00000000  1
  Mg  Mg5  1  0.75000000  0.09736400  0.00000000  1
  Mg  Mg6  1  0.75000000  0.22750000  0.50000000  1
  Mg  Mg7  1  0.25000000  0.40263600  0.50000000  1
  Si  Si0  1  0.32939700  0.59151500  0.20610600  1
  Si  Si1  1  0.32939700  0.09151500  0.29389400  1
  Si  Si2  1  0.17060300  0.59151500  0.79389400  1
  Si  Si3  1  0.82939700  0.40848500  0.20610600  1
  Si  Si4  1  0.17060300  0.09151500  0.70610600  1
  Si  Si5  1  0.82939700  0.90848500  0.29389400  1
  Si  Si6  1  0.67060300  0.90848500  0.70610600  1
  Si  Si7  1  0.67060300  0.40848500  0.79389400  1
  O  O0  1  0.48329200  0.55293600  0.84958500  1
  O  O1  1  0.11196500  0.09267500  0.87868300  1
  O  O2  1  0.07476000  0.23586200  0.62066300  1
  O  O3  1  0.38803500  0.09267500  0.12131700  1
  O  O4  1  0.48329200  0.05293600  0.65041500  1
  O  O5  1  0.61196500  0.40732500  0.62131700  1
  O  O6  1  0.57476000  0.76413800  0.62066300  1
  O  O7  1  0.07476000  0.73586200  0.87933700  1
  O  O8  1  0.42524000  0.23586200  0.37933700  1
  O  O9  1  0.57476000  0.26413800  0.87933700  1
  O  O10  1  0.92524000  0.26413800  0.12066300  1
  O  O11  1  0.38803500  0.59267500  0.37868300  1
  O  O12  1  0.11196500  0.59267500  0.62131700  1
  O  O13  1  0.01670800  0.55293600  0.15041500  1
  O  O14  1  0.01670800  0.05293600  0.34958500  1
  O  O15  1  0.51670800  0.94706400  0.34958500  1
  O  O16  1  0.98329200  0.94706400  0.65041500  1
  O  O17  1  0.61196500  0.90732500  0.87868300  1
  O  O18  1  0.88803500  0.90732500  0.12131700  1
  O  O19  1  0.88803500  0.40732500  0.37868300  1
  O  O20  1  0.98329200  0.44706400  0.84958500  1
  O  O21  1  0.51670800  0.44706400  0.15041500  1
  O  O22  1  0.42524000  0.73586200  0.12066300  1
  O  O23  1  0.92524000  0.76413800  0.37933700  1
loop_
_geom_bond_atom_site_label_1
_geom_bond_atom_site_label_2
_geom_bond_distance
_geom_bond_site_symmetry_2
Mg0 O9 1.975873 1_554
Mg0 O10 1.975873 1_455
Mg0 O1 2.101555 1_554
Mg0 O3 2.101555 1_555
Mg0 O20 2.500195 1_454
Mg0 O21 2.500195 1_555
Mg1 O7 2.078793 1_554
Mg1 O22 2.078793 1_555
Mg1 O18 2.133143 1_455
Mg1 O17 2.133143 1_554
Mg1 O3 2.174143 1_565
Mg1 O1 2.174143 1_564
Mg2 O6 1.975873 1_555
Mg2 O23 1.975873 1_455
Mg2 O12 2.101555 1_555
Mg2 O11 2.101555 1_555
Mg2 O16 2.500195 1_455
Mg2 O15 2.500195 1_555
Mg3 O23 2.078793 1_555
Mg3 O6 2.078793 1_555
Mg3 O11 2.133143 1_555
Mg3 O12 2.133143 1_655
Mg3 O19 2.174143 1_555
Mg3 O5 2.174143 1_555
Mg4 O7 1.975873 1_654
Mg4 O22 1.975873 1_555
Mg4 O17 2.101555 1_554
Mg4 O18 2.101555 1_555
Mg4 O0 2.500195 1_554
Mg4 O13 2.500195 1_655
Mg5 O10 2.078793 1_555
Mg5 O9 2.078793 1_554
Mg5 O3 2.133143 1_555
Mg5 O1 2.133143 1_654
Mg5 O17 2.174143 1_544
Mg5 O18 2.174143 1_545
Mg6 O2 1.975873 1_655
Mg6 O8 1.975873 1_555
Mg6 O5 2.101555 1_555
Mg6 O19 2.101555 1_555
Mg6 O4 2.500195 1_555
Mg6 O14 2.500195 1_655
Mg7 O2 2.078793 1_555
Mg7 O8 2.078793 1_555
Mg7 O5 2.133143 1_555
Mg7 O19 2.133143 1_455
Mg7 O11 2.174143 1_555
Mg7 O12 2.174143 1_555
O0 Si2 1.681758 1_555
O0 Si7 1.690844 1_555
O1 Si4 1.639125 1_555
O2 Si4 1.605658 1_555
O3 Si1 1.639125 1_555
O4 Si4 1.681758 1_555
O4 Si6 1.690844 1_545
O5 Si7 1.639125 1_555
O6 Si6 1.605658 1_555
O7 Si2 1.605658 1_555
O8 Si1 1.605658 1_555
O9 Si7 1.605658 1_555
O10 Si3 1.605658 1_555
O11 Si0 1.639125 1_555
O12 Si2 1.639125 1_555
O13 Si0 1.681758 1_555
O13 Si3 1.690844 1_455
O14 Si1 1.681758 1_555
O14 Si5 1.690844 1_445
O15 Si5 1.681758 1_555
O15 Si1 1.690844 1_565
O16 Si6 1.681758 1_555
O16 Si4 1.690844 1_665
O17 Si6 1.639125 1_555
O18 Si5 1.639125 1_555
O19 Si3 1.639125 1_555
O20 Si7 1.681758 1_555
O20 Si2 1.690844 1_655
O21 Si3 1.681758 1_555
O21 Si0 1.690844 1_555
O22 Si0 1.605658 1_555
O23 Si5 1.605658 1_555
