# generated using pymatgen
data_KYb3F10
_symmetry_space_group_name_H-M   'P 1'
_cell_length_a   7.96143355
_cell_length_b   7.96143355
_cell_length_c   7.96143355
_cell_angle_alpha   60.00000000
_cell_angle_beta   60.00000000
_cell_angle_gamma   60.00000000
_symmetry_Int_Tables_number   1
_chemical_formula_structural   KYb3F10
_chemical_formula_sum   'K2 Yb6 F20'
_cell_volume   356.82791741
_cell_formula_units_Z   2
loop_
 _symmetry_equiv_pos_site_id
 _symmetry_equiv_pos_as_xyz
  1  'x, y, z'
loop_
 _atom_site_type_symbol
 _atom_site_label
 _atom_site_symmetry_multiplicity
 _atom_site_fract_x
 _atom_site_fract_y
 _atom_site_fract_z
 _atom_site_occupancy
  K  K0  1  0.25000000  0.25000000  0.25000000  1
  K  K1  1  0.75000000  0.75000000  0.75000000  1
  Yb  Yb0  1  0.74006659  0.25993341  0.25993341  1
  Yb  Yb1  1  0.25993341  0.25993341  0.74006659  1
  Yb  Yb2  1  0.74006659  0.25993341  0.74006659  1
  Yb  Yb3  1  0.25993341  0.74006659  0.74006659  1
  Yb  Yb4  1  0.25993341  0.74006659  0.25993341  1
  Yb  Yb5  1  0.74006659  0.74006659  0.25993341  1
  F  F0  1  0.00000000  0.66855599  0.33144401  1
  F  F1  1  0.33144401  0.66855599  0.00000000  1
  F  F2  1  0.00000000  0.66855599  0.00000000  1
  F  F3  1  0.33144401  0.00000000  0.00000000  1
  F  F4  1  0.38819200  0.83542300  0.38819200  1
  F  F5  1  0.61180800  0.61180800  0.61180800  1
  F  F6  1  0.83542300  0.38819200  0.38819200  1
  F  F7  1  0.00000000  0.00000000  0.33144401  1
  F  F8  1  0.38819200  0.38819200  0.83542300  1
  F  F9  1  0.38819200  0.38819200  0.38819200  1
  F  F10  1  0.61180800  0.61180800  0.16457700  1
  F  F11  1  0.00000000  0.33144401  0.66855599  1
  F  F12  1  0.66855599  0.00000000  0.00000000  1
  F  F13  1  0.66855599  0.00000000  0.33144401  1
  F  F14  1  0.33144401  0.00000000  0.66855599  1
  F  F15  1  0.00000000  0.33144401  0.00000000  1
  F  F16  1  0.61180800  0.16457700  0.61180800  1
  F  F17  1  0.66855599  0.33144401  0.00000000  1
  F  F18  1  0.16457700  0.61180800  0.61180800  1
  F  F19  1  0.00000000  0.00000000  0.66855599  1
loop_
_geom_bond_atom_site_label_1
_geom_bond_atom_site_label_2
_geom_bond_distance
_geom_bond_site_symmetry_2
F0 Yb4 2.146328 1_555
F0 Yb5 2.146328 1_455
F0 K1 3.118313 1_455
F0 K0 3.118313 1_555
F1 Yb4 2.146328 1_555
F1 Yb3 2.146328 1_554
F1 K1 3.118313 1_554
F1 K0 3.118313 1_555
F2 Yb3 2.146328 1_554
F2 Yb5 2.146328 1_455
F2 K0 3.118313 1_555
F2 K1 3.118313 1_454
F3 Yb4 2.146328 1_545
F3 Yb1 2.146328 1_554
F3 K0 3.118313 1_555
F3 K1 3.118313 1_544
F4 Yb4 2.292343 1_555
F4 Yb3 2.292349 1_555
F4 Yb5 2.292349 1_555
F4 K0 2.694951 1_565
F5 Yb5 2.292349 1_555
F5 Yb2 2.292349 1_555
F5 Yb3 2.292349 1_555
F5 K1 2.694944 1_555
F6 Yb0 2.292343 1_555
F6 Yb5 2.292349 1_555
F6 Yb2 2.292349 1_555
F6 K0 2.694951 1_655
F7 Yb4 2.146328 1_545
F7 Yb0 2.146328 1_455
F7 K0 3.118313 1_555
F7 K1 3.118313 1_445
F8 Yb1 2.292343 1_555
F8 Yb3 2.292349 1_555
F8 Yb2 2.292349 1_555
F8 K0 2.694951 1_556
F9 Yb4 2.292349 1_555
F9 Yb1 2.292349 1_555
F9 Yb0 2.292349 1_555
F9 K0 2.694944 1_555
F10 Yb5 2.292343 1_555
F10 Yb0 2.292349 1_555
F10 Yb4 2.292349 1_555
F10 K1 2.694951 1_554
F11 Yb1 2.146328 1_555
F11 Yb2 2.146328 1_455
F11 K1 3.118313 1_455
F11 K0 3.118313 1_555
F12 Yb2 2.146328 1_554
F12 Yb5 2.146328 1_545
F12 K0 3.118313 1_555
F12 K1 3.118313 1_544
F13 Yb0 2.146328 1_555
F13 Yb5 2.146328 1_545
F13 K1 3.118313 1_545
F13 K0 3.118313 1_555
F14 Yb1 2.146328 1_555
F14 Yb3 2.146328 1_545
F14 K1 3.118313 1_545
F14 K0 3.118313 1_555
F15 Yb0 2.146328 1_455
F15 Yb1 2.146328 1_554
F15 K0 3.118313 1_555
F15 K1 3.118313 1_454
F16 Yb2 2.292343 1_555
F16 Yb1 2.292349 1_555
F16 Yb0 2.292349 1_555
F16 K1 2.694951 1_545
F17 Yb0 2.146328 1_555
F17 Yb2 2.146328 1_554
F17 K1 3.118313 1_554
F17 K0 3.118313 1_555
F18 Yb3 2.292343 1_555
F18 Yb4 2.292349 1_555
F18 Yb1 2.292349 1_555
F18 K1 2.694951 1_455
F19 Yb2 2.146328 1_455
F19 Yb3 2.146328 1_545
F19 K0 3.118313 1_555
F19 K1 3.118313 1_445
