# generated using pymatgen
data_BaMnGaF7
_symmetry_space_group_name_H-M   'P 1'
_cell_length_a   7.50317801
_cell_length_b   7.50317801
_cell_length_c   14.91317126
_cell_angle_alpha   88.92432754
_cell_angle_beta   88.92432754
_cell_angle_gamma   41.99318626
_symmetry_Int_Tables_number   1
_chemical_formula_structural   BaMnGaF7
_chemical_formula_sum   'Ba4 Mn4 Ga4 F28'
_cell_volume   561.59885776
_cell_formula_units_Z   4
loop_
 _symmetry_equiv_pos_site_id
 _symmetry_equiv_pos_as_xyz
  1  'x, y, z'
loop_
 _atom_site_type_symbol
 _atom_site_label
 _atom_site_symmetry_multiplicity
 _atom_site_fract_x
 _atom_site_fract_y
 _atom_site_fract_z
 _atom_site_occupancy
  Ba  Ba0  1  0.76624400  0.85495000  0.62160000  1
  Ba  Ba1  1  0.85495000  0.76624400  0.12160000  1
  Ba  Ba2  1  0.14505000  0.23375600  0.87840000  1
  Ba  Ba3  1  0.23375600  0.14505000  0.37840000  1
  Mn  Mn0  1  0.45500100  0.54499900  0.75000000  1
  Mn  Mn1  1  0.50000000  0.50000000  0.50000000  1
  Mn  Mn2  1  0.54499900  0.45500100  0.25000000  1
  Mn  Mn3  1  0.50000000  0.50000000  0.00000000  1
  Ga  Ga0  1  0.11555100  0.12296500  0.12559600  1
  Ga  Ga1  1  0.12296500  0.11555100  0.62559600  1
  Ga  Ga2  1  0.87703500  0.88444900  0.37440400  1
  Ga  Ga3  1  0.88444900  0.87703500  0.87440400  1
  F  F0  1  0.42773900  0.83003100  0.54645800  1
  F  F1  1  0.63948200  0.47394100  0.87148200  1
  F  F2  1  0.05013800  0.62083400  0.77812500  1
  F  F3  1  0.89511000  0.11609100  0.34140700  1
  F  F4  1  0.62083400  0.05013800  0.27812500  1
  F  F5  1  0.36051800  0.52605900  0.12851800  1
  F  F6  1  0.57226100  0.16996900  0.45354200  1
  F  F7  1  0.69464200  0.80922200  0.91057200  1
  F  F8  1  0.47394100  0.63948200  0.37148200  1
  F  F9  1  0.39843900  0.84185900  0.20272300  1
  F  F10  1  0.37916600  0.94986200  0.72187500  1
  F  F11  1  0.19077800  0.30535800  0.58942800  1
  F  F12  1  0.88390900  0.10489000  0.15859300  1
  F  F13  1  0.16996900  0.57226100  0.95354200  1
  F  F14  1  0.52605900  0.36051800  0.62851800  1
  F  F15  1  0.30535800  0.19077800  0.08942800  1
  F  F16  1  0.74714800  0.08869200  0.98049800  1
  F  F17  1  0.08869200  0.74714800  0.48049800  1
  F  F18  1  0.25285200  0.91130800  0.01950200  1
  F  F19  1  0.60156100  0.15814100  0.79727700  1
  F  F20  1  0.11609100  0.89511000  0.84140700  1
  F  F21  1  0.10489000  0.88390900  0.65859300  1
  F  F22  1  0.94986200  0.37916600  0.22187500  1
  F  F23  1  0.15814100  0.60156100  0.29727700  1
  F  F24  1  0.91130800  0.25285200  0.51950200  1
  F  F25  1  0.84185900  0.39843900  0.70272300  1
  F  F26  1  0.83003100  0.42773900  0.04645800  1
  F  F27  1  0.80922200  0.69464200  0.41057200  1
loop_
_geom_bond_atom_site_label_1
_geom_bond_atom_site_label_2
_geom_bond_distance
_geom_bond_site_symmetry_2
Ba0 F14 2.737526 1_565
Ba0 F2 2.746399 1_655
Ba0 F21 2.772301 1_655
Ba0 F11 2.805934 1_655
Ba0 F17 2.810610 1_655
Ba0 F10 2.825064 1_555
Ba0 F0 2.926130 1_555
Ba0 F11 2.936210 1_565
Ba0 F6 2.964366 1_565
Ba0 F19 3.080540 1_565
Ba0 F25 3.240305 1_555
Ba0 F27 3.313977 1_555
Ba1 F5 2.737526 1_655
Ba1 F4 2.746399 1_565
Ba1 F12 2.772301 1_565
Ba1 F15 2.805934 1_565
Ba1 F16 2.810610 1_564
Ba1 F22 2.825064 1_555
Ba1 F26 2.926130 1_555
Ba1 F15 2.936210 1_655
Ba1 F13 2.964366 1_654
Ba1 F23 3.080540 1_655
Ba1 F9 3.240305 1_555
Ba1 F7 3.313977 1_554
Ba2 F1 2.737526 1_455
Ba2 F10 2.746399 1_545
Ba2 F20 2.772301 1_545
Ba2 F7 2.805934 1_545
Ba2 F18 2.810610 1_546
Ba2 F2 2.825064 1_555
Ba2 F13 2.926130 1_555
Ba2 F7 2.936210 1_455
Ba2 F26 2.964366 1_456
Ba2 F25 3.080540 1_455
Ba2 F19 3.240305 1_555
Ba2 F15 3.313977 1_556
Ba3 F8 2.737526 1_545
Ba3 F22 2.746399 1_455
Ba3 F3 2.772301 1_455
Ba3 F27 2.805934 1_455
Ba3 F24 2.810610 1_455
Ba3 F4 2.825064 1_555
Ba3 F6 2.926130 1_555
Ba3 F27 2.936210 1_545
Ba3 F0 2.964366 1_545
Ba3 F9 3.080540 1_545
Ba3 F23 3.240305 1_555
Ba3 F11 3.313977 1_555
F0 Ga1 1.980710 1_565
F0 Mn1 2.227230 1_555
F1 Mn3 2.107487 1_556
F1 Mn0 2.107922 1_555
F2 Ga3 1.945948 1_455
F2 Mn0 2.668234 1_555
F3 Ga2 1.896609 1_545
F3 Mn2 2.302205 1_555
F4 Ga2 1.945948 1_545
F4 Mn2 2.668234 1_555
F5 Mn3 2.107487 1_555
F5 Mn2 2.107922 1_555
F6 Ga2 1.980710 1_545
F6 Mn1 2.227230 1_555
F7 Ga3 1.901583 1_555
F8 Mn1 2.107487 1_555
F8 Mn2 2.107922 1_555
F9 Ga0 1.903376 1_565
F9 Mn2 2.310716 1_555
F10 Ga1 1.945948 1_565
F10 Mn0 2.668234 1_555
F11 Ga1 1.901583 1_555
F12 Ga0 1.896609 1_655
F12 Mn2 2.302205 1_555
F13 Ga3 1.980710 1_455
F13 Mn3 2.227230 1_556
F14 Mn1 2.107487 1_555
F14 Mn0 2.107922 1_555
F15 Ga0 1.901583 1_555
F16 Ga3 1.920403 1_545
F16 Mn3 2.134049 1_556
F17 Ga2 1.920403 1_455
F17 Mn1 2.134049 1_555
F18 Ga0 1.920403 1_565
F18 Mn3 2.134049 1_555
F19 Ga3 1.903376 1_545
F19 Mn0 2.310716 1_555
F20 Ga3 1.896609 1_455
F20 Mn0 2.302205 1_555
F21 Ga1 1.896609 1_565
F21 Mn0 2.302205 1_555
F22 Ga0 1.945948 1_655
F22 Mn2 2.668234 1_555
F23 Ga2 1.903376 1_455
F23 Mn2 2.310716 1_555
F24 Ga1 1.920403 1_655
F24 Mn1 2.134049 1_555
F25 Ga1 1.903376 1_655
F25 Mn0 2.310716 1_555
F26 Ga0 1.980710 1_655
F26 Mn3 2.227230 1_555
F27 Ga2 1.901583 1_555
