# generated using pymatgen
data_Ca5Si2SO12
_symmetry_space_group_name_H-M   'P 1'
_cell_length_a   6.93344400
_cell_length_b   10.27610400
_cell_length_c   15.52726500
_cell_angle_alpha   90.00000000
_cell_angle_beta   90.00000000
_cell_angle_gamma   90.00000000
_symmetry_Int_Tables_number   1
_chemical_formula_structural   Ca5Si2SO12
_chemical_formula_sum   'Ca20 Si8 S4 O48'
_cell_volume   1106.29886845
_cell_formula_units_Z   4
loop_
 _symmetry_equiv_pos_site_id
 _symmetry_equiv_pos_as_xyz
  1  'x, y, z'
loop_
 _atom_site_type_symbol
 _atom_site_label
 _atom_site_symmetry_multiplicity
 _atom_site_fract_x
 _atom_site_fract_y
 _atom_site_fract_z
 _atom_site_occupancy
  Ca  Ca0  1  0.63787100  0.93371700  0.41390900  1
  Ca  Ca1  1  0.13787100  0.56628300  0.08609100  1
  Ca  Ca2  1  0.86212900  0.43371700  0.58609100  1
  Ca  Ca3  1  0.36212900  0.06628300  0.91390900  1
  Ca  Ca4  1  0.36212900  0.06628300  0.58609100  1
  Ca  Ca5  1  0.86212900  0.43371700  0.91390900  1
  Ca  Ca6  1  0.13787100  0.56628300  0.41390900  1
  Ca  Ca7  1  0.63787100  0.93371700  0.08609100  1
  Ca  Ca8  1  0.85930900  0.84190000  0.59597400  1
  Ca  Ca9  1  0.35930900  0.65810000  0.90402600  1
  Ca  Ca10  1  0.64069100  0.34190000  0.40402600  1
  Ca  Ca11  1  0.14069100  0.15810000  0.09597400  1
  Ca  Ca12  1  0.14069100  0.15810000  0.40402600  1
  Ca  Ca13  1  0.64069100  0.34190000  0.09597400  1
  Ca  Ca14  1  0.35930900  0.65810000  0.59597400  1
  Ca  Ca15  1  0.85930900  0.84190000  0.90402600  1
  Ca  Ca16  1  0.05052400  0.19356700  0.75000000  1
  Ca  Ca17  1  0.55052400  0.30643300  0.75000000  1
  Ca  Ca18  1  0.44947600  0.69356700  0.25000000  1
  Ca  Ca19  1  0.94947600  0.80643300  0.25000000  1
  Si  Si0  1  0.65343700  0.63393400  0.07469600  1
  Si  Si1  1  0.15343700  0.86606600  0.42530400  1
  Si  Si2  1  0.84656300  0.13393400  0.92530400  1
  Si  Si3  1  0.34656300  0.36606600  0.57469600  1
  Si  Si4  1  0.65343700  0.63393400  0.42530400  1
  Si  Si5  1  0.15343700  0.86606600  0.07469600  1
  Si  Si6  1  0.84656300  0.13393400  0.57469600  1
  Si  Si7  1  0.34656300  0.36606600  0.92530400  1
  S  S0  1  0.98541600  0.41080500  0.25000000  1
  S  S1  1  0.48541600  0.08919500  0.25000000  1
  S  S2  1  0.51458400  0.91080500  0.75000000  1
  S  S3  1  0.01458400  0.58919500  0.75000000  1
  O  O0  1  0.46800200  0.54570000  0.39096100  1
  O  O1  1  0.96800200  0.95430000  0.10903900  1
  O  O2  1  0.03199800  0.04570000  0.60903900  1
  O  O3  1  0.53199800  0.45430000  0.89096100  1
  O  O4  1  0.53199800  0.45430000  0.60903900  1
  O  O5  1  0.03199800  0.04570000  0.89096100  1
  O  O6  1  0.96800200  0.95430000  0.39096100  1
  O  O7  1  0.46800200  0.54570000  0.10903900  1
  O  O8  1  0.71027700  0.73265900  0.34565600  1
  O  O9  1  0.21027700  0.76734100  0.15434400  1
  O  O10  1  0.78972300  0.23265900  0.65434400  1
  O  O11  1  0.28972300  0.26734100  0.84565600  1
  O  O12  1  0.28972300  0.26734100  0.65434400  1
  O  O13  1  0.78972300  0.23265900  0.84565600  1
  O  O14  1  0.21027700  0.76734100  0.34565600  1
  O  O15  1  0.71027700  0.73265900  0.15434400  1
  O  O16  1  0.81915200  0.52414900  0.44865100  1
  O  O17  1  0.31915200  0.97585100  0.05134900  1
  O  O18  1  0.68084800  0.02414900  0.55134900  1
  O  O19  1  0.06822200  0.35123900  0.32935300  1
  O  O20  1  0.18084800  0.47585100  0.94865100  1
  O  O21  1  0.68084800  0.02414900  0.94865100  1
  O  O22  1  0.31915200  0.97585100  0.44865100  1
  O  O23  1  0.81915200  0.52414900  0.05134900  1
  O  O24  1  0.61383700  0.73053100  0.50913200  1
  O  O25  1  0.11383700  0.76946900  0.99086800  1
  O  O26  1  0.88616300  0.23053100  0.49086800  1
  O  O27  1  0.38616300  0.26946900  0.00913200  1
  O  O28  1  0.38616300  0.26946900  0.49086800  1
  O  O29  1  0.88616300  0.23053100  0.00913200  1
  O  O30  1  0.11383700  0.76946900  0.50913200  1
  O  O31  1  0.61383700  0.73053100  0.99086800  1
  O  O32  1  0.77253900  0.39327800  0.25000000  1
  O  O33  1  0.27253900  0.10672200  0.25000000  1
  O  O34  1  0.72746100  0.89327800  0.75000000  1
  O  O35  1  0.22746100  0.60672200  0.75000000  1
  O  O36  1  0.04308300  0.55103400  0.25000000  1
  O  O37  1  0.54308300  0.94896600  0.25000000  1
  O  O38  1  0.45691700  0.05103400  0.75000000  1
  O  O39  1  0.95691700  0.44896600  0.75000000  1
  O  O40  1  0.06822200  0.35123900  0.17064700  1
  O  O41  1  0.56822200  0.14876100  0.32935300  1
  O  O42  1  0.43177800  0.85123900  0.82935300  1
  O  O43  1  0.93177800  0.64876100  0.67064700  1
  O  O44  1  0.93177800  0.64876100  0.82935300  1
  O  O45  1  0.43177800  0.85123900  0.67064700  1
  O  O46  1  0.56822200  0.14876100  0.17064700  1
  O  O47  1  0.18084800  0.47585100  0.55134900  1
loop_
_geom_bond_atom_site_label_1
_geom_bond_atom_site_label_2
_geom_bond_distance
_geom_bond_site_symmetry_2
Ca0 O22 2.315551 1_555
Ca0 O6 2.326149 1_555
Ca0 O18 2.346617 1_565
Ca0 O8 2.375691 1_555
Ca0 O24 2.563877 1_555
Ca0 O41 2.615387 1_565
Ca0 O37 2.633211 1_555
Ca1 O23 2.315551 1_455
Ca1 O7 2.326149 1_555
Ca1 O20 2.346617 1_554
Ca1 O9 2.375691 1_555
Ca1 O25 2.563877 1_554
Ca1 O40 2.615387 1_555
Ca1 O36 2.633211 1_555
Ca2 O47 2.315551 1_655
Ca2 O4 2.326149 1_555
Ca2 O16 2.346617 1_555
Ca2 O10 2.375691 1_555
Ca2 O26 2.563877 1_555
Ca2 O43 2.615387 1_555
Ca2 O39 2.633211 1_555
Ca3 O21 2.315551 1_555
Ca3 O5 2.326149 1_555
Ca3 O17 2.346617 1_546
Ca3 O11 2.375691 1_555
Ca3 O27 2.563877 1_556
Ca3 O42 2.615387 1_545
Ca3 O38 2.633211 1_555
Ca4 O18 2.315551 1_555
Ca4 O2 2.326149 1_555
Ca4 O22 2.346617 1_545
Ca4 O12 2.375691 1_555
Ca4 O28 2.563877 1_555
Ca4 O45 2.615387 1_545
Ca4 O38 2.633211 1_555
Ca5 O20 2.315551 1_655
Ca5 O3 2.326149 1_555
Ca5 O23 2.346617 1_556
Ca5 O13 2.375691 1_555
Ca5 O29 2.563877 1_556
Ca5 O44 2.615387 1_555
Ca5 O39 2.633211 1_555
Ca6 O16 2.315551 1_455
Ca6 O0 2.326149 1_555
Ca6 O47 2.346617 1_555
Ca6 O14 2.375691 1_555
Ca6 O30 2.563877 1_555
Ca6 O19 2.615387 1_555
Ca6 O36 2.633211 1_555
Ca7 O17 2.315551 1_555
Ca7 O1 2.326149 1_555
Ca7 O21 2.346617 1_564
Ca7 O15 2.375691 1_555
Ca7 O31 2.563877 1_554
Ca7 O46 2.615387 1_565
Ca7 O37 2.633211 1_555
Ca8 O30 2.342347 1_655
Ca8 O18 2.349163 1_565
Ca8 O43 2.352856 1_555
Ca8 O2 2.420892 1_665
Ca8 O24 2.454519 1_555
Ca8 O34 2.614230 1_555
Ca9 O31 2.342347 1_555
Ca9 O20 2.349163 1_555
Ca9 O42 2.352856 1_555
Ca9 O3 2.420892 1_555
Ca9 O25 2.454519 1_555
Ca9 O35 2.614230 1_555
Ca10 O28 2.342347 1_555
Ca10 O16 2.349163 1_555
Ca10 O41 2.352856 1_555
Ca10 O0 2.420892 1_555
Ca10 O26 2.454519 1_555
Ca10 O32 2.614230 1_555
Ca11 O29 2.342347 1_455
Ca11 O17 2.349163 1_545
Ca11 O40 2.352856 1_555
Ca11 O1 2.420892 1_445
Ca11 O27 2.454519 1_555
Ca11 O33 2.614230 1_555
Ca12 O26 2.342347 1_455
Ca12 O22 2.349163 1_545
Ca12 O19 2.352856 1_555
Ca12 O6 2.420892 1_445
Ca12 O28 2.454519 1_555
Ca12 O33 2.614230 1_555
Ca13 O27 2.342347 1_555
Ca13 O23 2.349163 1_555
Ca13 O46 2.352856 1_555
Ca13 O7 2.420892 1_555
Ca13 O29 2.454519 1_555
Ca13 O32 2.614230 1_555
Ca14 O24 2.342347 1_555
Ca14 O47 2.349163 1_555
Ca14 O45 2.352856 1_555
Ca14 O4 2.420892 1_555
Ca14 O30 2.454519 1_555
Ca14 O35 2.614230 1_555
Ca15 O25 2.342347 1_655
Ca15 O21 2.349163 1_565
Ca15 O44 2.352856 1_555
Ca15 O5 2.420892 1_665
Ca15 O31 2.454519 1_555
Ca15 O34 2.614230 1_555
Ca16 O11 2.351873 1_555
Ca16 O12 2.351873 1_555
Ca16 O13 2.374275 1_455
Ca16 O10 2.374275 1_455
Ca16 O5 2.667573 1_555
Ca16 O2 2.667573 1_555
Ca16 O39 2.703564 1_455
Ca17 O13 2.351873 1_555
Ca17 O10 2.351873 1_555
Ca17 O11 2.374275 1_555
Ca17 O12 2.374275 1_555
Ca17 O3 2.667573 1_555
Ca17 O4 2.667573 1_555
Ca17 O38 2.703564 1_555
Ca18 O14 2.351873 1_555
Ca18 O9 2.351873 1_555
Ca18 O8 2.374275 1_555
Ca18 O15 2.374275 1_555
Ca18 O0 2.667573 1_555
Ca18 O7 2.667573 1_555
Ca18 O37 2.703564 1_555
Ca19 O8 2.351873 1_555
Ca19 O15 2.351873 1_555
Ca19 O14 2.374275 1_655
Ca19 O9 2.374275 1_655
Ca19 O6 2.667573 1_555
Ca19 O1 2.667573 1_555
Ca19 O36 2.703564 1_655
O0 Si4 1.661174 1_555
O1 Si5 1.661174 1_655
O2 Si6 1.661174 1_455
O3 Si7 1.661174 1_555
O4 Si3 1.661174 1_555
O5 Si2 1.661174 1_455
O6 Si1 1.661174 1_655
O7 Si0 1.661174 1_555
O8 Si4 1.647424 1_555
O9 Si5 1.647424 1_555
O10 Si6 1.647424 1_555
O11 Si7 1.647424 1_555
O12 Si3 1.647424 1_555
O13 Si2 1.647424 1_555
O14 Si1 1.647424 1_555
O15 Si0 1.647424 1_555
O16 Si4 1.650549 1_555
O17 Si5 1.650549 1_555
O18 Si6 1.650549 1_555
O19 S0 1.490791 1_455
O20 Si7 1.650549 1_555
O21 Si2 1.650549 1_555
O22 Si1 1.650549 1_555
O23 Si0 1.650549 1_555
O24 Si4 1.659800 1_555
O25 Si5 1.659800 1_556
O26 Si6 1.659800 1_555
O27 Si7 1.659800 1_554
O28 Si3 1.659800 1_555
O29 Si2 1.659800 1_554
O30 Si1 1.659800 1_555
O31 Si0 1.659800 1_556
O32 S0 1.486919 1_555
O33 S1 1.486919 1_555
O34 S2 1.486919 1_555
O35 S3 1.486919 1_555
O36 S0 1.495449 1_455
O37 S1 1.495449 1_565
O38 S2 1.495449 1_545
O39 S3 1.495449 1_655
O40 S0 1.490791 1_455
O41 S1 1.490791 1_555
O42 S2 1.490791 1_555
O43 S3 1.490791 1_655
O44 S3 1.490791 1_655
O45 S2 1.490791 1_555
O46 S1 1.490791 1_555
O47 Si3 1.650549 1_555
