# generated using pymatgen
data_NbPd3
_symmetry_space_group_name_H-M   'P 1'
_cell_length_a   4.87978248
_cell_length_b   5.52747631
_cell_length_c   13.72019726
_cell_angle_alpha   90.00000000
_cell_angle_beta   90.00000000
_cell_angle_gamma   90.00000000
_symmetry_Int_Tables_number   1
_chemical_formula_structural   NbPd3
_chemical_formula_sum   'Nb6 Pd18'
_cell_volume   370.07326248
_cell_formula_units_Z   6
loop_
 _symmetry_equiv_pos_site_id
 _symmetry_equiv_pos_as_xyz
  1  'x, y, z'
loop_
 _atom_site_type_symbol
 _atom_site_label
 _atom_site_symmetry_multiplicity
 _atom_site_fract_x
 _atom_site_fract_y
 _atom_site_fract_z
 _atom_site_occupancy
  Nb  Nb0  1  0.66425468  0.75000000  0.08555946  1
  Nb  Nb1  1  0.33574532  0.25000000  0.91443954  1
  Nb  Nb2  1  0.98823722  0.25000000  0.25000000  1
  Nb  Nb3  1  0.33574532  0.25000000  0.58556046  1
  Nb  Nb4  1  0.66425468  0.75000000  0.41444054  1
  Nb  Nb5  1  0.01176278  0.75000000  0.75000000  1
  Pd  Pd0  1  0.16250127  0.00125844  0.08255653  1
  Pd  Pd1  1  0.83749873  0.99874156  0.58255653  1
  Pd  Pd2  1  0.16250127  0.00125844  0.41744347  1
  Pd  Pd3  1  0.51148286  0.99826646  0.75000000  1
  Pd  Pd4  1  0.48851714  0.00173354  0.25000000  1
  Pd  Pd5  1  0.16250127  0.49874156  0.08255653  1
  Pd  Pd6  1  0.83749873  0.99874156  0.91744347  1
  Pd  Pd7  1  0.34004420  0.75000000  0.91567859  1
  Pd  Pd8  1  0.16250127  0.49874156  0.41744347  1
  Pd  Pd9  1  0.65995580  0.25000000  0.41567859  1
  Pd  Pd10  1  0.48851714  0.49826646  0.25000000  1
  Pd  Pd11  1  0.83749873  0.50125844  0.91744347  1
  Pd  Pd12  1  0.97794423  0.75000000  0.25000000  1
  Pd  Pd13  1  0.34004420  0.75000000  0.58432141  1
  Pd  Pd14  1  0.83749873  0.50125844  0.58255653  1
  Pd  Pd15  1  0.65995580  0.25000000  0.08432141  1
  Pd  Pd16  1  0.02205577  0.25000000  0.75000000  1
  Pd  Pd17  1  0.51148286  0.50173354  0.75000000  1
loop_
_geom_bond_atom_site_label_1
_geom_bond_atom_site_label_2
_geom_bond_distance
_geom_bond_site_symmetry_2
Nb0 Pd12 2.726426 1_555
Nb0 Pd15 2.763870 1_555
Nb0 Pd15 2.763870 1_565
Nb0 Pd10 2.785999 1_555
Nb0 Pd4 2.785999 1_565
Nb0 Pd0 2.800343 1_665
Nb0 Pd5 2.800343 1_655
Nb0 Pd6 2.815210 1_554
Nb0 Pd11 2.815210 1_554
Nb0 Pd0 2.815214 1_565
Nb0 Pd5 2.815214 1_555
Nb0 Pd7 2.817018 1_554
Nb1 Pd16 2.726414 1_555
Nb1 Pd7 2.763870 1_545
Nb1 Pd7 2.763870 1_555
Nb1 Pd17 2.785988 1_555
Nb1 Pd3 2.785988 1_545
Nb1 Pd11 2.800343 1_455
Nb1 Pd6 2.800343 1_445
Nb1 Pd11 2.815214 1_555
Nb1 Pd6 2.815214 1_545
Nb1 Pd0 2.815221 1_556
Nb1 Pd5 2.815221 1_556
Nb1 Pd15 2.817029 1_556
Nb2 Pd12 2.764195 1_555
Nb2 Pd12 2.764195 1_545
Nb2 Pd15 2.780899 1_555
Nb2 Pd9 2.780899 1_555
Nb2 Pd4 2.798138 1_555
Nb2 Pd10 2.798138 1_555
Nb2 Pd4 2.800519 1_655
Nb2 Pd10 2.800519 1_655
Nb2 Pd2 2.809158 1_655
Nb2 Pd0 2.809158 1_655
Nb2 Pd8 2.809158 1_655
Nb2 Pd5 2.809158 1_655
Nb3 Pd16 2.726414 1_555
Nb3 Pd13 2.763870 1_555
Nb3 Pd13 2.763870 1_545
Nb3 Pd17 2.785988 1_555
Nb3 Pd3 2.785988 1_545
Nb3 Pd14 2.800343 1_455
Nb3 Pd1 2.800343 1_445
Nb3 Pd14 2.815214 1_555
Nb3 Pd1 2.815214 1_545
Nb3 Pd2 2.815221 1_555
Nb3 Pd8 2.815221 1_555
Nb3 Pd9 2.817029 1_555
Nb4 Pd12 2.726426 1_555
Nb4 Pd9 2.763870 1_565
Nb4 Pd9 2.763870 1_555
Nb4 Pd4 2.785999 1_565
Nb4 Pd10 2.785999 1_555
Nb4 Pd2 2.800343 1_665
Nb4 Pd8 2.800343 1_655
Nb4 Pd14 2.815210 1_555
Nb4 Pd1 2.815210 1_555
Nb4 Pd2 2.815214 1_565
Nb4 Pd8 2.815214 1_555
Nb4 Pd13 2.817018 1_555
Nb5 Pd16 2.764195 1_565
Nb5 Pd16 2.764195 1_555
Nb5 Pd7 2.780899 1_555
Nb5 Pd13 2.780899 1_555
Nb5 Pd3 2.798138 1_555
Nb5 Pd17 2.798138 1_555
Nb5 Pd17 2.800519 1_455
Nb5 Pd3 2.800519 1_455
Nb5 Pd6 2.809158 1_455
Nb5 Pd1 2.809158 1_455
Nb5 Pd11 2.809158 1_455
Nb5 Pd14 2.809158 1_455
Pd0 Pd5 2.749826 1_555
Pd0 Pd6 2.765388 1_444
Pd0 Pd5 2.777650 1_545
Pd0 Pd15 2.789907 1_555
Pd0 Pd4 2.794419 1_555
Pd0 Pd15 2.811549 1_455
Pd0 Pd7 2.814550 1_544
Pd0 Pd12 2.831566 1_445
Pd1 Pd14 2.749826 1_555
Pd1 Pd2 2.765388 1_665
Pd1 Pd14 2.777650 1_565
Pd1 Pd13 2.789907 1_555
Pd1 Pd3 2.794419 1_555
Pd1 Pd13 2.811549 1_655
Pd1 Pd9 2.814550 1_565
Pd1 Pd16 2.831566 1_665
Pd2 Pd8 2.749826 1_555
Pd2 Pd8 2.777650 1_545
Pd2 Pd9 2.789907 1_555
Pd2 Pd4 2.794419 1_555
Pd2 Pd9 2.811549 1_455
Pd3 Pd7 2.783922 1_555
Pd3 Pd6 2.794419 1_555
Pd4 Pd9 2.783922 1_555
Pd5 Pd7 2.814550 1_554
Pd6 Pd7 2.789907 1_555
Pd6 Pd7 2.811549 1_655
Pd8 Pd9 2.789907 1_555
Pd8 Pd9 2.811549 1_455
Pd10 Pd4 2.744574 1_555
Pd10 Pd12 2.764074 1_555
Pd10 Pd4 2.782902 1_565
Pd10 Pd9 2.783922 1_555
Pd10 Pd15 2.783922 1_555
Pd10 Pd8 2.794419 1_555
Pd10 Pd5 2.794419 1_555
Pd10 Pd12 2.853705 1_455
Pd11 Pd6 2.749826 1_555
Pd11 Pd5 2.765388 1_656
Pd11 Pd6 2.777650 1_545
Pd11 Pd7 2.789907 1_555
Pd11 Pd17 2.794419 1_555
Pd11 Pd7 2.811549 1_655
Pd11 Pd15 2.814550 1_556
Pd11 Pd16 2.831566 1_655
Pd12 Pd4 2.764074 1_565
Pd12 Pd8 2.831566 1_655
Pd12 Pd5 2.831566 1_655
Pd12 Pd2 2.831566 1_665
Pd12 Pd4 2.853705 1_665
Pd13 Pd17 2.783922 1_555
Pd13 Pd3 2.783922 1_555
Pd13 Pd14 2.789907 1_555
Pd13 Pd14 2.811549 1_455
Pd13 Pd2 2.814550 1_565
Pd13 Pd8 2.814550 1_555
Pd14 Pd8 2.765388 1_655
Pd14 Pd17 2.794419 1_555
Pd14 Pd9 2.814550 1_555
Pd14 Pd16 2.831566 1_655
Pd15 Pd4 2.783922 1_555
Pd15 Pd5 2.789907 1_555
Pd15 Pd5 2.811549 1_655
Pd15 Pd6 2.814550 1_544
Pd16 Pd17 2.764074 1_555
Pd16 Pd3 2.764074 1_545
Pd16 Pd6 2.831566 1_445
Pd16 Pd17 2.853705 1_455
Pd16 Pd3 2.853705 1_445
Pd17 Pd3 2.744574 1_555
Pd17 Pd3 2.782902 1_545
Pd17 Pd7 2.783922 1_555
