# generated using pymatgen
data_LiSn(PO3)3
_symmetry_space_group_name_H-M   'P 1'
_cell_length_a   10.48303900
_cell_length_b   10.46807884
_cell_length_c   9.77906914
_cell_angle_alpha   107.65777829
_cell_angle_beta   103.88240859
_cell_angle_gamma   112.82637183
_symmetry_Int_Tables_number   1
_chemical_formula_structural   LiSn(PO3)3
_chemical_formula_sum   'Li4 Sn4 P12 O36'
_cell_volume   860.81990894
_cell_formula_units_Z   4
loop_
 _symmetry_equiv_pos_site_id
 _symmetry_equiv_pos_as_xyz
  1  'x, y, z'
loop_
 _atom_site_type_symbol
 _atom_site_label
 _atom_site_symmetry_multiplicity
 _atom_site_fract_x
 _atom_site_fract_y
 _atom_site_fract_z
 _atom_site_occupancy
  Li  Li0  1  0.50682700  0.93590800  0.33757200  1
  Li  Li1  1  0.36821500  0.11910500  0.33708900  1
  Li  Li2  1  0.49317300  0.06409200  0.66242800  1
  Li  Li3  1  0.63178500  0.88089500  0.66291100  1
  Sn  Sn0  1  0.78475600  0.67273900  0.87575200  1
  Sn  Sn1  1  0.27519500  0.24683800  0.73461700  1
  Sn  Sn2  1  0.72480500  0.75316200  0.26538300  1
  Sn  Sn3  1  0.21524400  0.32726100  0.12424800  1
  P  P0  1  0.82671900  0.20647100  0.96513200  1
  P  P1  1  0.35871000  0.64846900  0.99096600  1
  P  P2  1  0.40383700  0.61167100  0.68992600  1
  P  P3  1  0.17328100  0.79352900  0.03486800  1
  P  P4  1  0.12245300  0.85189400  0.49198800  1
  P  P5  1  0.91425500  0.10224800  0.20781900  1
  P  P6  1  0.29951900  0.69428400  0.44052500  1
  P  P7  1  0.08574500  0.89775200  0.79218100  1
  P  P8  1  0.70048100  0.30571600  0.55947500  1
  P  P9  1  0.64129000  0.35153100  0.00903400  1
  P  P10  1  0.59616300  0.38832900  0.31007400  1
  P  P11  1  0.87754700  0.14810600  0.50801200  1
  O  O0  1  0.51479600  0.22020100  0.85755600  1
  O  O1  1  0.26527600  0.00644900  0.56177200  1
  O  O2  1  0.27055100  0.56540000  0.29481300  1
  O  O3  1  0.55471500  0.15349100  0.49327100  1
  O  O4  1  0.71316000  0.36003900  0.42397900  1
  O  O5  1  0.98814100  0.27642100  0.98276700  1
  O  O6  1  0.70420500  0.08639500  0.80567200  1
  O  O7  1  0.73472400  0.99355100  0.43822800  1
  O  O8  1  0.48520400  0.77979900  0.14244400  1
  O  O9  1  0.44528500  0.84650900  0.50672900  1
  O  O10  1  0.34582200  0.44250700  0.63461800  1
  O  O11  1  0.56231100  0.71395800  0.71055800  1
  O  O12  1  0.90787500  0.19378100  0.37004700  1
  O  O13  1  0.16335900  0.06849400  0.84097900  1
  O  O14  1  0.09212500  0.80621900  0.62995300  1
  O  O15  1  0.15417000  0.71787400  0.40220700  1
  O  O16  1  0.38704100  0.68720900  0.85001400  1
  O  O17  1  0.84583000  0.28212600  0.59779300  1
  O  O18  1  0.20206000  0.65081700  0.97194700  1
  O  O19  1  0.67411300  0.51344400  0.03890500  1
  O  O20  1  0.07592400  0.17935500  0.22294800  1
  O  O21  1  0.65417800  0.55749300  0.36538200  1
  O  O22  1  0.83664100  0.93150600  0.15902100  1
  O  O23  1  0.01185900  0.72357900  0.01723300  1
  O  O24  1  0.80904600  0.13735500  0.09126700  1
  O  O25  1  0.43768900  0.28604200  0.28944200  1
  O  O26  1  0.98064200  0.83060000  0.38231000  1
  O  O27  1  0.79794000  0.34918300  0.02805300  1
  O  O28  1  0.19095400  0.86264500  0.90873300  1
  O  O29  1  0.01935800  0.16940000  0.61769000  1
  O  O30  1  0.28684000  0.63996100  0.57602100  1
  O  O31  1  0.92407600  0.82064500  0.77705200  1
  O  O32  1  0.29579500  0.91360500  0.19432800  1
  O  O33  1  0.61295900  0.31279100  0.14998600  1
  O  O34  1  0.32588700  0.48655600  0.96109500  1
  O  O35  1  0.72944900  0.43460000  0.70518700  1
loop_
_geom_bond_atom_site_label_1
_geom_bond_atom_site_label_2
_geom_bond_distance
_geom_bond_site_symmetry_2
Li0 O8 1.994064 1_555
Li0 O3 2.097685 1_565
Li0 O7 2.105543 1_555
Li0 O32 2.196502 1_555
Li0 O9 2.238569 1_555
Li1 O25 1.862968 1_555
Li1 O32 1.885561 1_545
Li1 O3 1.993038 1_555
Li2 O0 1.994064 1_555
Li2 O9 2.097685 1_545
Li2 O1 2.105543 1_555
Li2 O6 2.196502 1_555
Li2 O3 2.238569 1_555
Li3 O11 1.862968 1_555
Li3 O6 1.885561 1_565
Li3 O9 1.993038 1_555
O0 P9 1.500071 1_556
O0 Sn1 2.670153 1_555
O1 P4 1.511755 1_545
O1 Sn1 2.516426 1_555
O2 P6 1.500360 1_555
O2 Sn3 2.285749 1_555
O3 P8 1.517746 1_555
O4 P8 1.606146 1_555
O4 P10 1.630664 1_555
O5 P0 1.500468 1_555
O5 Sn3 2.203402 1_656
O6 P0 1.502799 1_555
O7 P11 1.511755 1_565
O7 Sn2 2.516426 1_555
O8 P1 1.500071 1_554
O8 Sn2 2.670153 1_555
O9 P6 1.517746 1_555
O10 P2 1.491219 1_555
O10 Sn1 2.466950 1_555
O11 P2 1.508322 1_555
O12 P5 1.617968 1_555
O12 P11 1.621474 1_555
O13 P7 1.500748 1_545
O13 Sn1 2.450856 1_555
O14 P7 1.617968 1_555
O14 P4 1.621474 1_555
O15 P6 1.611566 1_555
O15 P4 1.613802 1_555
O16 P1 1.610806 1_555
O16 P2 1.611334 1_555
O17 P8 1.611566 1_555
O17 P11 1.613802 1_555
O18 P3 1.607026 1_556
O18 P1 1.618469 1_555
O19 P9 1.508439 1_555
O19 Sn2 2.552154 1_555
O20 P5 1.513785 1_455
O20 Sn3 2.300091 1_555
O21 P10 1.491219 1_555
O21 Sn2 2.466950 1_555
O22 P5 1.500748 1_565
O22 Sn2 2.450856 1_555
O23 P3 1.500468 1_555
O23 Sn0 2.203402 1_454
O24 P5 1.617382 1_555
O24 P0 1.620599 1_554
O25 P10 1.508322 1_555
O26 P4 1.497595 1_655
O26 Sn2 2.331680 1_555
O27 P0 1.607026 1_554
O27 P9 1.618469 1_555
O28 P7 1.617382 1_555
O28 P3 1.620599 1_556
O29 P11 1.497595 1_455
O29 Sn1 2.331680 1_555
O30 P6 1.606146 1_555
O30 P2 1.630664 1_555
O31 P7 1.513785 1_655
O31 Sn0 2.300091 1_555
O32 P3 1.502799 1_555
O33 P9 1.610806 1_555
O33 P10 1.611334 1_555
O34 P1 1.508439 1_555
O34 Sn1 2.552154 1_555
O35 P8 1.500360 1_555
O35 Sn0 2.285749 1_555
