# generated using pymatgen
data_Na2MgSiO4
_symmetry_space_group_name_H-M   'P 1'
_cell_length_a   5.25000182
_cell_length_b   6.99289119
_cell_length_c   10.90497795
_cell_angle_alpha   90.00000000
_cell_angle_beta   90.00000000
_cell_angle_gamma   90.00000000
_symmetry_Int_Tables_number   1
_chemical_formula_structural   Na2MgSiO4
_chemical_formula_sum   'Na8 Mg4 Si4 O16'
_cell_volume   400.35109102
_cell_formula_units_Z   4
loop_
 _symmetry_equiv_pos_site_id
 _symmetry_equiv_pos_as_xyz
  1  'x, y, z'
loop_
 _atom_site_type_symbol
 _atom_site_label
 _atom_site_symmetry_multiplicity
 _atom_site_fract_x
 _atom_site_fract_y
 _atom_site_fract_z
 _atom_site_occupancy
  Na  Na0  1  0.26302785  0.13001011  0.58791955  1
  Na  Na1  1  0.29124462  0.38455063  0.84199553  1
  Na  Na2  1  0.79124462  0.88455063  0.65800447  1
  Na  Na3  1  0.20875538  0.38455063  0.34199553  1
  Na  Na4  1  0.73697215  0.63001011  0.41208045  1
  Na  Na5  1  0.23697215  0.13001011  0.08791955  1
  Na  Na6  1  0.76302785  0.63001011  0.91208045  1
  Na  Na7  1  0.70875538  0.88455063  0.15800447  1
  Mg  Mg0  1  0.19836541  0.88045312  0.34227624  1
  Mg  Mg1  1  0.30163459  0.88045312  0.84227624  1
  Mg  Mg2  1  0.80163459  0.38045312  0.65772376  1
  Mg  Mg3  1  0.69836541  0.38045312  0.15772376  1
  Si  Si0  1  0.69458331  0.13240569  0.40614026  1
  Si  Si1  1  0.30541669  0.63240569  0.59385974  1
  Si  Si2  1  0.80541669  0.13240569  0.90614026  1
  Si  Si3  1  0.19458331  0.63240569  0.09385974  1
  O  O0  1  0.38733535  0.10400595  0.38929072  1
  O  O1  1  0.61266465  0.60400595  0.61070928  1
  O  O2  1  0.11266465  0.10400595  0.88929072  1
  O  O3  1  0.88733535  0.60400595  0.11070928  1
  O  O4  1  0.75392801  0.15989243  0.55250761  1
  O  O5  1  0.24607199  0.65989243  0.44749239  1
  O  O6  1  0.74607199  0.15989243  0.05250761  1
  O  O7  1  0.25392801  0.65989243  0.94749239  1
  O  O8  1  0.83742265  0.94080507  0.35506472  1
  O  O9  1  0.16257735  0.44080507  0.64493528  1
  O  O10  1  0.66257735  0.94080507  0.85506472  1
  O  O11  1  0.27909879  0.82387601  0.17058183  1
  O  O12  1  0.77909879  0.32387601  0.32941817  1
  O  O13  1  0.22090121  0.82387601  0.67058183  1
  O  O14  1  0.72090121  0.32387601  0.82941817  1
  O  O15  1  0.33742265  0.44080507  0.14493528  1
loop_
_geom_bond_atom_site_label_1
_geom_bond_atom_site_label_2
_geom_bond_distance
_geom_bond_site_symmetry_2
Na0 O0 2.269519 1_555
Na0 O9 2.321243 1_555
Na0 O13 2.333314 1_545
Na0 O4 2.614362 1_555
Na0 O4 2.708601 1_455
Na1 O2 2.234664 1_555
Na1 O7 2.251488 1_555
Na1 O9 2.286698 1_555
Na1 O14 2.299349 1_555
Na2 O1 2.234664 1_555
Na2 O4 2.251488 1_565
Na2 O10 2.286698 1_555
Na2 O13 2.299349 1_655
Na3 O0 2.234664 1_555
Na3 O5 2.251488 1_555
Na3 O15 2.286698 1_555
Na3 O12 2.299349 1_455
Na4 O1 2.269519 1_555
Na4 O8 2.321243 1_555
Na4 O12 2.333314 1_555
Na4 O5 2.614362 1_555
Na4 O5 2.708601 1_655
Na5 O2 2.269519 1_554
Na5 O15 2.321243 1_555
Na5 O11 2.333314 1_545
Na5 O6 2.614362 1_455
Na5 O6 2.708601 1_555
Na6 O3 2.269519 1_556
Na6 O10 2.321243 1_555
Na6 O14 2.333314 1_555
Na6 O7 2.614362 1_655
Na6 O7 2.708601 1_555
Na7 O3 2.234664 1_555
Na7 O6 2.251488 1_565
Na7 O8 2.286698 1_555
Na7 O11 2.299349 1_555
Mg0 O0 1.921184 1_565
Mg0 O5 1.938576 1_555
Mg0 O8 1.946381 1_455
Mg0 O11 1.960045 1_555
Mg1 O2 1.921184 1_565
Mg1 O7 1.938576 1_555
Mg1 O10 1.946381 1_555
Mg1 O13 1.960045 1_555
Mg2 O1 1.921184 1_555
Mg2 O4 1.938576 1_555
Mg2 O9 1.946381 1_655
Mg2 O14 1.960045 1_555
Mg3 O3 1.921184 1_555
Mg3 O6 1.938576 1_555
Mg3 O15 1.946381 1_555
Mg3 O12 1.960045 1_555
O0 Si0 1.635586 1_555
O1 Si1 1.635586 1_555
O2 Si2 1.635586 1_455
O3 Si3 1.635586 1_655
O4 Si0 1.637576 1_555
O5 Si1 1.637576 1_555
O6 Si2 1.637576 1_554
O7 Si3 1.637576 1_556
O8 Si0 1.633328 1_565
O9 Si1 1.633328 1_555
O10 Si2 1.633328 1_565
O11 Si3 1.640000 1_555
O12 Si0 1.640000 1_555
O13 Si1 1.640000 1_555
O14 Si2 1.640000 1_555
O15 Si3 1.633328 1_555
