# generated using pymatgen
data_Y4SiS3
_symmetry_space_group_name_H-M   'P 1'
_cell_length_a   6.89294993
_cell_length_b   6.89294993
_cell_length_c   6.89294993
_cell_angle_alpha   131.96538332
_cell_angle_beta   131.96538332
_cell_angle_gamma   70.28370567
_symmetry_Int_Tables_number   1
_chemical_formula_structural   Y4SiS3
_chemical_formula_sum   'Y4 Si1 S3'
_cell_volume   177.46009636
_cell_formula_units_Z   1
loop_
 _symmetry_equiv_pos_site_id
 _symmetry_equiv_pos_as_xyz
  1  'x, y, z'
loop_
 _atom_site_type_symbol
 _atom_site_label
 _atom_site_symmetry_multiplicity
 _atom_site_fract_x
 _atom_site_fract_y
 _atom_site_fract_z
 _atom_site_occupancy
  Y  Y0  1  0.75309743  0.75309743  0.00000000  1
  Y  Y1  1  0.24690357  0.24690357  -0.00000000  1
  Y  Y2  1  -0.00000000  0.50000000  0.50000000  1
  Y  Y3  1  0.50000000  -0.00000000  0.50000000  1
  Si  Si0  1  -0.00000000  -0.00000000  -0.00000000  1
  S  S0  1  0.50000000  0.50000000  -0.00000000  1
  S  S1  1  0.25000000  0.75000000  0.50000000  1
  S  S2  1  0.75000000  0.25000000  0.50000000  1
loop_
_geom_bond_atom_site_label_1
_geom_bond_atom_site_label_2
_geom_bond_distance
_geom_bond_site_symmetry_2
Si0 Y0 2.783366 1_445
Si0 Y1 2.783378 1_555
Si0 Y3 2.805517 1_454
Si0 Y3 2.805517 1_555
Si0 Y2 2.805517 1_544
Si0 Y2 2.805517 1_555
S0 Y2 2.805517 1_655
S0 Y2 2.805517 1_554
S0 Y3 2.805517 1_565
S0 Y3 2.805517 1_554
S0 Y1 2.853191 1_555
S0 Y0 2.853202 1_555
S1 Y1 2.805735 1_566
S1 Y1 2.805735 1_555
S1 Y0 2.805735 1_556
S1 Y0 2.805735 1_455
S1 Y2 2.818284 1_555
S1 Y3 2.818284 1_565
S2 Y1 2.805735 1_656
S2 Y1 2.805735 1_555
S2 Y0 2.805735 1_545
S2 Y0 2.805735 1_556
S2 Y2 2.818284 1_655
S2 Y3 2.818284 1_555
