# generated using pymatgen
data_Mg(FeO2)2
_symmetry_space_group_name_H-M   'P 1'
_cell_length_a   5.97701778
_cell_length_b   5.97701601
_cell_length_c   5.97705470
_cell_angle_alpha   120.31397506
_cell_angle_beta   120.31408361
_cell_angle_gamma   89.45653566
_symmetry_Int_Tables_number   1
_chemical_formula_structural   Mg(FeO2)2
_chemical_formula_sum   'Mg2 Fe4 O8'
_cell_volume   150.26411097
_cell_formula_units_Z   2
loop_
 _symmetry_equiv_pos_site_id
 _symmetry_equiv_pos_as_xyz
  1  'x, y, z'
loop_
 _atom_site_type_symbol
 _atom_site_label
 _atom_site_symmetry_multiplicity
 _atom_site_fract_x
 _atom_site_fract_y
 _atom_site_fract_z
 _atom_site_occupancy
  Mg  Mg0  1  0.37500842  0.12499445  0.25000036  1
  Mg  Mg1  1  0.62499268  0.87500618  0.75000020  1
  Fe  Fe0  1  -0.00000038  0.49999992  0.99999936  1
  Fe  Fe1  1  0.00000031  -0.00000006  0.49999984  1
  Fe  Fe2  1  -0.00000018  0.49999951  0.49999922  1
  Fe  Fe3  1  0.50000025  0.50000012  0.00000078  1
  O  O0  1  0.21893975  0.73945872  0.47947733  1
  O  O1  1  0.24002455  0.26053778  0.97948324  1
  O  O2  1  0.23946201  0.71894346  0.97948003  1
  O  O3  1  0.23946324  0.25997659  0.52051670  1
  O  O4  1  0.76053730  0.28105561  0.02051985  1
  O  O5  1  0.76053610  0.74002308  0.47948446  1
  O  O6  1  0.78105977  0.26054071  0.52052234  1
  O  O7  1  0.75997519  0.73946194  0.02051729  1
loop_
_geom_bond_atom_site_label_1
_geom_bond_atom_site_label_2
_geom_bond_distance
_geom_bond_site_symmetry_2
Mg0 O2 1.978509 1_544
Mg0 O6 1.978509 1_555
Mg0 O1 1.978552 1_554
Mg0 O3 1.978560 1_555
Mg1 O4 1.978501 1_566
Mg1 O0 1.978517 1_555
Mg1 O5 1.978548 1_555
Mg1 O7 1.978556 1_556
Fe0 O6 2.020679 1_455
Fe0 O0 2.020684 1_556
Fe0 O7 2.020692 1_456
Fe0 O1 2.020694 1_555
Fe0 O2 2.037361 1_555
Fe0 O4 2.037369 1_456
Fe1 O0 2.020669 1_545
Fe1 O6 2.020671 1_455
Fe1 O7 2.020702 1_445
Fe1 O1 2.020705 1_555
Fe1 O3 2.037349 1_555
Fe1 O5 2.037361 1_445
Fe2 O4 2.020688 1_455
Fe2 O3 2.020691 1_555
Fe2 O5 2.020694 1_455
Fe2 O2 2.020694 1_555
Fe2 O0 2.037344 1_555
Fe2 O6 2.037348 1_455
Fe3 O4 2.020670 1_555
Fe3 O2 2.020671 1_554
Fe3 O5 2.020706 1_555
Fe3 O3 2.020708 1_554
Fe3 O7 2.037338 1_555
Fe3 O1 2.037340 1_554
