# generated using pymatgen
data_Cs3AlP2
_symmetry_space_group_name_H-M   'P 1'
_cell_length_a   8.72746127
_cell_length_b   11.33866491
_cell_length_c   19.12238450
_cell_angle_alpha   79.89020018
_cell_angle_beta   90.00000000
_cell_angle_gamma   90.00000000
_symmetry_Int_Tables_number   1
_chemical_formula_structural   Cs3AlP2
_chemical_formula_sum   'Cs24 Al8 P16'
_cell_volume   1862.92676656
_cell_formula_units_Z   8
loop_
 _symmetry_equiv_pos_site_id
 _symmetry_equiv_pos_as_xyz
  1  'x, y, z'
loop_
 _atom_site_type_symbol
 _atom_site_label
 _atom_site_symmetry_multiplicity
 _atom_site_fract_x
 _atom_site_fract_y
 _atom_site_fract_z
 _atom_site_occupancy
  Cs  Cs0  1  0.93178106  0.62353622  0.11104213  1
  Cs  Cs1  1  0.25852668  0.36128485  0.71134754  1
  Cs  Cs2  1  0.91272021  0.26443014  0.07868667  1
  Cs  Cs3  1  0.56821894  0.62353622  0.61104213  1
  Cs  Cs4  1  0.88129420  0.29043069  0.33854548  1
  Cs  Cs5  1  0.58727979  0.26443014  0.57868667  1
  Cs  Cs6  1  0.52378072  0.85012095  0.96741359  1
  Cs  Cs7  1  0.44158612  0.91697064  0.74421093  1
  Cs  Cs8  1  0.06821894  0.37646378  0.88895787  1
  Cs  Cs9  1  0.47621928  0.14987905  0.03258641  1
  Cs  Cs10  1  0.61870580  0.29043069  0.83854548  1
  Cs  Cs11  1  0.11870580  0.70956931  0.66145452  1
  Cs  Cs12  1  0.75852668  0.63871515  0.78865246  1
  Cs  Cs13  1  0.24147332  0.36128485  0.21134754  1
  Cs  Cs14  1  0.41272021  0.73556986  0.42131333  1
  Cs  Cs15  1  0.05841388  0.91697064  0.24421093  1
  Cs  Cs16  1  0.38129420  0.70956931  0.16145452  1
  Cs  Cs17  1  0.02378072  0.14987905  0.53258641  1
  Cs  Cs18  1  0.94158612  0.08302936  0.75578907  1
  Cs  Cs19  1  0.08727979  0.73556986  0.92131333  1
  Cs  Cs20  1  0.55841388  0.08302936  0.25578907  1
  Cs  Cs21  1  0.97621928  0.85012095  0.46741359  1
  Cs  Cs22  1  0.74147332  0.63871515  0.28865246  1
  Cs  Cs23  1  0.43178106  0.37646378  0.38895787  1
  Al  Al0  1  0.94712888  0.46412452  0.57214547  1
  Al  Al1  1  0.88831101  0.95700838  0.05414418  1
  Al  Al2  1  0.55287112  0.46412452  0.07214547  1
  Al  Al3  1  0.11168899  0.04299162  0.94585582  1
  Al  Al4  1  0.61168899  0.95700838  0.55414418  1
  Al  Al5  1  0.38831101  0.04299162  0.44585582  1
  Al  Al6  1  0.44712888  0.53587548  0.92785453  1
  Al  Al7  1  0.05287112  0.53587548  0.42785453  1
  P  P0  1  0.65557435  0.05442101  0.43770130  1
  P  P1  1  0.20117581  0.49378431  0.53147209  1
  P  P2  1  0.78627868  0.89678973  0.63910152  1
  P  P3  1  0.36173800  0.59509317  0.81538184  1
  P  P4  1  0.84442565  0.05442101  0.93770130  1
  P  P5  1  0.79882419  0.50621569  0.46852791  1
  P  P6  1  0.71372132  0.89678973  0.13910152  1
  P  P7  1  0.86173800  0.40490683  0.68461816  1
  P  P8  1  0.70117581  0.50621569  0.96852791  1
  P  P9  1  0.13826200  0.59509317  0.31538184  1
  P  P10  1  0.34442565  0.94557899  0.56229870  1
  P  P11  1  0.15557435  0.94557899  0.06229870  1
  P  P12  1  0.29882419  0.49378431  0.03147209  1
  P  P13  1  0.28627868  0.10321027  0.86089848  1
  P  P14  1  0.21372132  0.10321027  0.36089848  1
  P  P15  1  0.63826200  0.40490683  0.18461816  1
loop_
_geom_bond_atom_site_label_1
_geom_bond_atom_site_label_2
_geom_bond_distance
_geom_bond_site_symmetry_2
Cs0 P15 3.669129 1_555
Cs0 P6 3.754065 1_555
Cs0 P8 3.810463 1_554
Cs0 P12 3.940433 1_655
Cs1 P7 3.522672 1_455
Cs1 P1 3.539013 1_555
Cs1 P3 3.694426 1_555
Cs1 P13 3.723151 1_555
Cs2 P8 3.651641 1_554
Cs2 P15 3.675688 1_555
Cs3 P7 3.669129 1_555
Cs3 P2 3.754065 1_555
Cs3 P5 3.810463 1_555
Cs3 P1 3.940433 1_555
Cs4 P14 3.576000 1_655
Cs4 P0 3.585492 1_555
Cs4 P15 3.675095 1_555
Cs5 P5 3.651641 1_555
Cs5 P7 3.675688 1_555
Cs6 P4 3.613587 1_565
Cs6 P6 3.796909 1_556
Cs6 P13 3.824687 1_565
Cs6 P11 3.934432 1_556
Cs7 P10 3.539597 1_555
Cs7 P13 3.595783 1_565
Cs7 P2 3.647398 1_555
Cs7 P3 3.730158 1_555
Cs8 P3 3.669129 1_555
Cs8 P13 3.754065 1_555
Cs8 P12 3.810463 1_556
Cs8 P8 3.940433 1_455
Cs9 P11 3.613587 1_545
Cs9 P13 3.796909 1_554
Cs9 P6 3.824687 1_545
Cs9 P4 3.934432 1_554
Cs10 P13 3.576000 1_555
Cs10 P4 3.585492 1_555
Cs10 P7 3.675095 1_555
Cs11 P2 3.576000 1_455
Cs11 P10 3.585492 1_555
Cs11 P3 3.675095 1_555
Cs12 P3 3.522672 1_555
Cs12 P8 3.539013 1_555
Cs12 P7 3.694426 1_555
Cs12 P2 3.723151 1_555
Cs13 P15 3.522672 1_555
Cs13 P12 3.539013 1_555
Cs13 P9 3.694426 1_555
Cs13 P14 3.723151 1_555
Cs14 P1 3.651641 1_555
Cs14 P9 3.675688 1_555
Cs15 P11 3.539597 1_555
Cs15 P14 3.595783 1_565
Cs15 P6 3.647398 1_455
Cs15 P9 3.730158 1_555
Cs16 P6 3.576000 1_555
Cs16 P11 3.585492 1_555
Cs16 P9 3.675095 1_555
Cs17 P10 3.613587 1_545
Cs17 P14 3.796909 1_555
Cs17 P2 3.824687 1_445
Cs17 P0 3.934432 1_455
Cs18 P4 3.539597 1_555
Cs18 P2 3.595783 1_545
Cs18 P13 3.647398 1_655
Cs18 P7 3.730158 1_555
Cs19 P12 3.651641 1_556
Cs19 P3 3.675688 1_555
Cs20 P0 3.539597 1_555
Cs20 P6 3.595783 1_545
Cs20 P14 3.647398 1_555
Cs20 P15 3.730158 1_555
Cs21 P0 3.613587 1_565
Cs21 P2 3.796909 1_555
Cs21 P14 3.824687 1_665
Cs21 P10 3.934432 1_655
Cs22 P9 3.522672 1_655
Cs22 P5 3.539013 1_555
Cs22 P15 3.694426 1_555
Cs22 P6 3.723151 1_555
Cs23 P9 3.669129 1_555
Cs23 P14 3.754065 1_555
Cs23 P1 3.810463 1_555
Cs23 P5 3.940433 1_555
Al0 P7 2.263837 1_555
Al0 P5 2.344582 1_555
Al0 P1 2.354168 1_655
Al0 Cs17 3.829084 1_655
Al1 P6 2.244505 1_555
Al1 P4 2.336941 1_564
Al1 P11 2.339811 1_655
Al1 Cs2 3.604223 1_565
Al1 Cs0 3.765684 1_555
Al2 P15 2.263837 1_555
Al2 P8 2.344582 1_554
Al2 P12 2.354168 1_555
Al2 Cs9 3.829084 1_555
Al3 P13 2.244505 1_555
Al3 P11 2.336941 1_546
Al3 P4 2.339811 1_455
Al3 Cs19 3.604223 1_545
Al3 Cs8 3.765684 1_555
Al4 P2 2.244505 1_555
Al4 P0 2.336941 1_565
Al4 P10 2.339811 1_555
Al4 Cs5 3.604223 1_565
Al4 Cs3 3.765684 1_555
Al5 P14 2.244505 1_555
Al5 P10 2.336941 1_545
Al5 P0 2.339811 1_555
Al5 Cs14 3.604223 1_545
Al5 Cs23 3.765684 1_555
Al6 P3 2.263837 1_555
Al6 P12 2.344582 1_556
Al6 P8 2.354168 1_555
Al6 Cs6 3.829084 1_555
Al7 P9 2.263837 1_555
Al7 P1 2.344582 1_555
Al7 P5 2.354168 1_455
Al7 Cs21 3.829084 1_455
