# generated using pymatgen
data_Sr5Mn5O13
_symmetry_space_group_name_H-M   'P 1'
_cell_length_a   3.81832708
_cell_length_b   8.63084409
_cell_length_c   8.63080025
_cell_angle_alpha   89.99968865
_cell_angle_beta   89.99999479
_cell_angle_gamma   89.99982633
_symmetry_Int_Tables_number   1
_chemical_formula_structural   Sr5Mn5O13
_chemical_formula_sum   'Sr5 Mn5 O13'
_cell_volume   284.43135124
_cell_formula_units_Z   1
loop_
 _symmetry_equiv_pos_site_id
 _symmetry_equiv_pos_as_xyz
  1  'x, y, z'
loop_
 _atom_site_type_symbol
 _atom_site_label
 _atom_site_symmetry_multiplicity
 _atom_site_fract_x
 _atom_site_fract_y
 _atom_site_fract_z
 _atom_site_occupancy
  Sr  Sr0  1  0.50000165  0.28216397  0.11260667  1
  Sr  Sr1  1  0.50000242  0.88738953  0.28216848  1
  Sr  Sr2  1  0.49999673  0.11260555  0.71783429  1
  Sr  Sr3  1  0.49999814  0.71783643  0.88739598  1
  Sr  Sr4  1  0.50000327  0.49998965  0.50000547  1
  Mn  Mn0  1  -0.00000041  0.19879890  0.39997300  1
  Mn  Mn1  1  0.99999908  0.80120096  0.60002786  1
  Mn  Mn2  1  0.00000426  0.60002627  0.19879341  1
  Mn  Mn3  1  0.99999234  0.39996894  0.80120093  1
  Mn  Mn4  1  -0.00000175  -0.00000079  0.00000300  1
  O  O0  1  0.00000053  0.71043939  0.40092565  1
  O  O1  1  0.00000441  0.78872558  0.07580315  1
  O  O2  1  0.49999723  0.83318046  0.58497094  1
  O  O3  1  0.00000384  0.07578595  0.21128747  1
  O  O4  1  -0.00000107  0.59907586  0.71045490  1
  O  O5  1  -0.00000164  0.28954847  0.59907911  1
  O  O6  1  -0.00000209  0.21128212  0.92420783  1
  O  O7  1  0.49999969  0.16685529  0.41502566  1
  O  O8  1  0.49999015  0.41502477  0.83314569  1
  O  O9  1  0.50000680  0.58496888  0.16681592  1
  O  O10  1  -0.00000009  0.92420418  0.78872475  1
  O  O11  1  0.50000029  0.00000024  0.00000158  1
  O  O12  1  0.00000521  0.40092640  0.28954926  1
loop_
_geom_bond_atom_site_label_1
_geom_bond_atom_site_label_2
_geom_bond_distance
_geom_bond_site_symmetry_2
Mn0 O5 1.888529 1_555
Mn0 O7 1.933337 1_555
Mn0 O7 1.933338 1_455
Mn0 O3 1.944035 1_555
Mn0 O12 1.987880 1_555
Mn1 O0 1.888541 1_655
Mn1 O2 1.933378 1_655
Mn1 O2 1.933390 1_555
Mn1 O10 1.944072 1_655
Mn1 O4 1.987875 1_655
Mn2 O12 1.888501 1_555
Mn2 O9 1.933373 1_455
Mn2 O9 1.933391 1_555
Mn2 O1 1.944022 1_555
Mn2 O0 1.987875 1_555
Mn3 O4 1.888521 1_655
Mn3 O8 1.933333 1_655
Mn3 O8 1.933349 1_555
Mn3 O6 1.944010 1_655
Mn3 O5 1.987827 1_655
Mn4 O11 1.909156 1_455
Mn4 O11 1.909171 1_555
Mn4 O1 1.937273 1_545
Mn4 O10 1.937295 1_544
Mn4 O3 1.937321 1_555
Mn4 O6 1.937334 1_554
O0 Sr1 2.651006 1_455
O0 Sr1 2.651023 1_555
O0 Sr4 2.770431 1_455
O0 Sr4 2.770438 1_555
O1 Sr3 2.581351 1_554
O1 Sr3 2.581389 1_454
O1 Sr1 2.746335 1_555
O1 Sr1 2.746342 1_455
O2 Sr1 2.654975 1_555
O2 Sr2 2.670424 1_565
O2 Sr3 2.793566 1_555
O2 Sr4 2.967749 1_555
O3 Sr1 2.581288 1_545
O3 Sr1 2.581303 1_445
O3 Sr0 2.746451 1_555
O3 Sr0 2.746455 1_455
O4 Sr3 2.650985 1_455
O4 Sr3 2.650985 1_555
O4 Sr4 2.770442 1_455
O4 Sr4 2.770461 1_555
O5 Sr2 2.650964 1_555
O5 Sr2 2.650980 1_455
O5 Sr4 2.770353 1_455
O5 Sr4 2.770387 1_555
O6 Sr0 2.581298 1_456
O6 Sr0 2.581322 1_556
O6 Sr2 2.746413 1_555
O6 Sr2 2.746423 1_455
O7 Sr2 2.655089 1_555
O7 Sr1 2.670718 1_545
O7 Sr0 2.793409 1_555
O7 Sr4 2.967308 1_555
O8 Sr3 2.655134 1_555
O8 Sr0 2.670674 1_556
O8 Sr2 2.793440 1_555
O8 Sr4 2.967304 1_555
O9 Sr0 2.655014 1_555
O9 Sr3 2.670379 1_554
O9 Sr1 2.793578 1_555
O9 Sr4 2.967747 1_555
O10 Sr2 2.581336 1_565
O10 Sr2 2.581347 1_465
O10 Sr3 2.746362 1_555
O10 Sr3 2.746378 1_455
O11 Sr0 2.622080 1_555
O11 Sr3 2.622082 1_544
O11 Sr2 2.622089 1_554
O11 Sr1 2.622104 1_545
O12 Sr0 2.650987 1_555
O12 Sr0 2.651011 1_455
O12 Sr4 2.770426 1_555
O12 Sr4 2.770432 1_455
