# generated using pymatgen
data_Na2CaPb3(CO3)5
_symmetry_space_group_name_H-M   'P 1'
_cell_length_a   10.69937690
_cell_length_b   10.69937690
_cell_length_c   13.51791375
_cell_angle_alpha   89.15259426
_cell_angle_beta   89.15259426
_cell_angle_gamma   60.17234129
_symmetry_Int_Tables_number   1
_chemical_formula_structural   Na2CaPb3(CO3)5
_chemical_formula_sum   'Na8 Ca4 Pb12 C20 O60'
_cell_volume   1342.28710433
_cell_formula_units_Z   4
loop_
 _symmetry_equiv_pos_site_id
 _symmetry_equiv_pos_as_xyz
  1  'x, y, z'
loop_
 _atom_site_type_symbol
 _atom_site_label
 _atom_site_symmetry_multiplicity
 _atom_site_fract_x
 _atom_site_fract_y
 _atom_site_fract_z
 _atom_site_occupancy
  Na  Na0  1  0.47357600  0.47703400  0.59536300  1
  Na  Na1  1  0.47703400  0.47357600  0.09536300  1
  Na  Na2  1  0.05028700  0.47365000  0.09518900  1
  Na  Na3  1  0.47365000  0.05028700  0.59518900  1
  Na  Na4  1  0.52660600  0.94815900  0.84323800  1
  Na  Na5  1  0.52122000  0.95244800  0.34770700  1
  Na  Na6  1  0.95244800  0.52122000  0.84770700  1
  Na  Na7  1  0.94815900  0.52660600  0.34323800  1
  Ca  Ca0  1  0.04641700  0.47757000  0.58947100  1
  Ca  Ca1  1  0.47757000  0.04641700  0.08947100  1
  Ca  Ca2  1  0.52656600  0.51983500  0.83866200  1
  Ca  Ca3  1  0.51983500  0.52656600  0.33866200  1
  Pb  Pb0  1  0.14979200  0.69038000  0.75295100  1
  Pb  Pb1  1  0.14583000  0.68586600  0.25099900  1
  Pb  Pb2  1  0.68586600  0.14583000  0.75099900  1
  Pb  Pb3  1  0.69038000  0.14979200  0.25295100  1
  Pb  Pb4  1  0.83216200  0.85273700  0.50059200  1
  Pb  Pb5  1  0.85273600  0.83216200  0.00059200  1
  Pb  Pb6  1  0.16390600  0.15174200  0.75895200  1
  Pb  Pb7  1  0.15174200  0.16390600  0.25895200  1
  Pb  Pb8  1  0.31163800  0.83859900  0.00413100  1
  Pb  Pb9  1  0.31348900  0.84890600  0.50840100  1
  Pb  Pb10  1  0.83859900  0.31163800  0.50413100  1
  Pb  Pb11  1  0.84890600  0.31348900  0.00840100  1
  C  C0  1  0.99911600  0.00063800  0.07477800  1
  C  C1  1  0.20744000  0.59065100  0.97227400  1
  C  C2  1  0.20495200  0.59089400  0.47301400  1
  C  C3  1  0.00162100  0.99916400  0.32483800  1
  C  C4  1  0.33391900  0.33590900  0.75029100  1
  C  C5  1  0.59089400  0.20495200  0.97301400  1
  C  C6  1  0.33590900  0.33391900  0.25029100  1
  C  C7  1  0.59065100  0.20744000  0.47227400  1
  C  C8  1  0.20175400  0.20686300  0.47485500  1
  C  C9  1  0.20686300  0.20175400  0.97485500  1
  C  C10  1  0.79794600  0.79276900  0.72202700  1
  C  C11  1  0.79276900  0.79794600  0.22202700  1
  C  C12  1  0.40852000  0.79416900  0.72502600  1
  C  C13  1  0.40942700  0.79621600  0.22289900  1
  C  C14  1  0.00063800  0.99911600  0.57477800  1
  C  C15  1  0.66414400  0.66941200  0.00039900  1
  C  C16  1  0.66941200  0.66414400  0.50039900  1
  C  C17  1  0.79621600  0.40942700  0.72289900  1
  C  C18  1  0.79416900  0.40852000  0.22502600  1
  C  C19  1  0.99916400  0.00162100  0.82483800  1
  O  O0  1  0.07055700  0.85935800  0.57412800  1
  O  O1  1  0.06922800  0.86005700  0.07211000  1
  O  O2  1  0.30023800  0.61810500  0.92444600  1
  O  O3  1  0.29655500  0.61883600  0.42642900  1
  O  O4  1  0.08858700  0.62003600  0.92575500  1
  O  O5  1  0.08596400  0.61693500  0.42893000  1
  O  O6  1  0.22972100  0.53844900  0.56108700  1
  O  O7  1  0.23174800  0.53999600  0.05977900  1
  O  O8  1  0.61883600  0.29655500  0.92642900  1
  O  O9  1  0.61810500  0.30023800  0.42444600  1
  O  O10  1  0.40696700  0.40352300  0.25641600  1
  O  O11  1  0.40352300  0.40696700  0.75641600  1
  O  O12  1  0.53999600  0.23174800  0.55977900  1
  O  O13  1  0.19302600  0.40670000  0.74330700  1
  O  O14  1  0.86005700  0.06922800  0.57211000  1
  O  O15  1  0.53844900  0.22972100  0.06108700  1
  O  O16  1  0.19619200  0.40352900  0.25156300  1
  O  O17  1  0.85935800  0.07055700  0.07412800  1
  O  O18  1  0.92892800  0.93089000  0.82156900  1
  O  O19  1  0.93089000  0.92892800  0.32156900  1
  O  O20  1  0.40670000  0.19302600  0.24330700  1
  O  O21  1  0.40352900  0.19619200  0.75156300  1
  O  O22  1  0.61693500  0.08596400  0.92893000  1
  O  O23  1  0.62003600  0.08858700  0.42575500  1
  O  O24  1  0.23488700  0.22833000  0.06138300  1
  O  O25  1  0.22833000  0.23488700  0.56138300  1
  O  O26  1  0.08795600  0.29086900  0.92959000  1
  O  O27  1  0.08207600  0.30023600  0.43028300  1
  O  O28  1  0.70898600  0.91241500  0.67479200  1
  O  O29  1  0.70013100  0.91704200  0.17490900  1
  O  O30  1  0.30023600  0.08207600  0.93028300  1
  O  O31  1  0.29086900  0.08795600  0.42959000  1
  O  O32  1  0.91241500  0.70898600  0.17479200  1
  O  O33  1  0.91704200  0.70013100  0.67490900  1
  O  O34  1  0.77179700  0.76784000  0.80981800  1
  O  O35  1  0.76784000  0.77179700  0.30981800  1
  O  O36  1  0.37699600  0.91412200  0.67863500  1
  O  O37  1  0.38097000  0.91572400  0.17672900  1
  O  O38  1  0.59312200  0.80993500  0.00619800  1
  O  O39  1  0.59970800  0.80383000  0.50260600  1
  O  O40  1  0.07010700  0.07010000  0.57375900  1
  O  O41  1  0.07010000  0.07010700  0.07375900  1
  O  O42  1  0.13965500  0.93026000  0.82468400  1
  O  O43  1  0.80383000  0.59970800  0.00260600  1
  O  O44  1  0.46231300  0.76715400  0.81224400  1
  O  O45  1  0.14092500  0.92995000  0.32387100  1
  O  O46  1  0.80993500  0.59312200  0.50619800  1
  O  O47  1  0.46215500  0.76882800  0.31050600  1
  O  O48  1  0.59331100  0.59927700  0.99279400  1
  O  O49  1  0.59927700  0.59331100  0.49279400  1
  O  O50  1  0.38489700  0.69926100  0.68131000  1
  O  O51  1  0.38387500  0.70289600  0.17911400  1
  O  O52  1  0.76882800  0.46215500  0.81050600  1
  O  O53  1  0.76715400  0.46231300  0.31224400  1
  O  O54  1  0.91412200  0.37699600  0.17863500  1
  O  O55  1  0.91572400  0.38097000  0.67672900  1
  O  O56  1  0.70289600  0.38387500  0.67911400  1
  O  O57  1  0.69926100  0.38489700  0.18131000  1
  O  O58  1  0.92995000  0.14092500  0.82387100  1
  O  O59  1  0.93026000  0.13965500  0.32468400  1
loop_
_geom_bond_atom_site_label_1
_geom_bond_atom_site_label_2
_geom_bond_distance
_geom_bond_site_symmetry_2
Na0 O50 2.389221 1_555
Na0 O6 2.403144 1_555
Na0 O12 2.407454 1_555
Na0 O56 2.431305 1_555
Na0 O11 2.515152 1_555
Na0 O49 2.614826 1_555
Na0 O3 2.875936 1_555
Na0 O9 2.901947 1_555
Na1 O57 2.389221 1_555
Na1 O15 2.403144 1_555
Na1 O7 2.407454 1_555
Na1 O51 2.431305 1_555
Na1 O10 2.515152 1_555
Na1 O48 2.614826 1_554
Na1 O8 2.875936 1_554
Na1 O2 2.901947 1_554
Na2 O7 2.415783 1_555
Na2 O24 2.418867 1_555
Na2 O54 2.424872 1_455
Na2 O32 2.451990 1_455
Na2 O16 2.520683 1_555
Na2 O43 2.616973 1_455
Na2 O26 2.883889 1_554
Na2 O4 2.893361 1_554
Na3 O12 2.415783 1_555
Na3 O25 2.418867 1_555
Na3 O36 2.424872 1_545
Na3 O28 2.451990 1_545
Na3 O21 2.520683 1_555
Na3 O39 2.616973 1_545
Na3 O31 2.883889 1_555
Na3 O23 2.893361 1_555
Na4 O44 2.399396 1_555
Na4 O34 2.400892 1_555
Na4 O30 2.411855 1_565
Na4 O22 2.439470 1_565
Na4 O38 2.539553 1_556
Na4 O21 2.605197 1_565
Na4 O28 2.879390 1_555
Na4 O36 2.890540 1_555
Na5 O47 2.405348 1_555
Na5 O31 2.411155 1_565
Na5 O35 2.424171 1_555
Na5 O23 2.441941 1_565
Na5 O39 2.498663 1_555
Na5 O20 2.631516 1_565
Na5 O29 2.904587 1_555
Na5 O37 2.909312 1_555
Na6 O52 2.405348 1_555
Na6 O26 2.411155 1_655
Na6 O34 2.424171 1_555
Na6 O4 2.441941 1_655
Na6 O43 2.498663 1_556
Na6 O13 2.631516 1_655
Na6 O33 2.904587 1_555
Na6 O55 2.909312 1_555
Na7 O53 2.399396 1_555
Na7 O35 2.400892 1_555
Na7 O27 2.411855 1_655
Na7 O5 2.439470 1_655
Na7 O46 2.539553 1_555
Na7 O16 2.605197 1_655
Na7 O32 2.879390 1_555
Na7 O54 2.890540 1_555
Ca0 O25 2.377899 1_555
Ca0 O6 2.378893 1_555
Ca0 O33 2.382318 1_455
Ca0 O55 2.401622 1_455
Ca0 O46 2.475650 1_455
Ca0 O13 2.495327 1_555
Ca0 O5 2.759876 1_555
Ca0 O27 2.784338 1_555
Ca1 O24 2.377899 1_555
Ca1 O15 2.378893 1_555
Ca1 O29 2.382318 1_545
Ca1 O37 2.401622 1_545
Ca1 O38 2.475650 1_545
Ca1 O20 2.495327 1_555
Ca1 O22 2.759876 1_554
Ca1 O30 2.784338 1_554
Ca2 O52 2.372954 1_555
Ca2 O8 2.386211 1_555
Ca2 O2 2.394659 1_555
Ca2 O44 2.402488 1_555
Ca2 O11 2.468214 1_555
Ca2 O48 2.504760 1_555
Ca2 O56 2.751248 1_555
Ca2 O50 2.754501 1_555
Ca3 O47 2.372954 1_555
Ca3 O3 2.386211 1_555
Ca3 O9 2.394659 1_555
Ca3 O53 2.402488 1_555
Ca3 O10 2.468214 1_555
Ca3 O49 2.504760 1_555
Ca3 O51 2.751248 1_555
Ca3 O57 2.754501 1_555
C0 O17 1.297343 1_555
C0 O41 1.300159 1_655
C0 O1 1.305678 1_645
C1 O7 1.269060 1_556
C1 O4 1.315853 1_555
C1 O2 1.325001 1_555
C2 O6 1.282256 1_555
C2 O3 1.309269 1_555
C2 O5 1.310801 1_555
C3 O45 1.292971 1_555
C3 O59 1.304115 1_465
C3 O19 1.306560 1_455
C4 O21 1.296818 1_555
C4 O11 1.306296 1_555
C4 O13 1.311990 1_555
C5 O15 1.282256 1_556
C5 O8 1.309269 1_555
C5 O22 1.310801 1_555
C6 O16 1.296818 1_555
C6 O10 1.306296 1_555
C6 O20 1.311990 1_555
C7 O12 1.269060 1_555
C7 O23 1.315853 1_555
C7 O9 1.325001 1_555
C8 O25 1.282158 1_555
C8 O31 1.304280 1_555
C8 O27 1.316500 1_555
C9 O24 1.282158 1_556
C9 O26 1.304280 1_555
C9 O30 1.316500 1_555
C10 O34 1.269979 1_555
C10 O28 1.316856 1_555
C10 O33 1.322905 1_555
C11 O35 1.269979 1_555
C11 O32 1.316856 1_555
C11 O29 1.322905 1_555
C12 O44 1.284274 1_555
C12 O36 1.306150 1_555
C12 O50 1.312152 1_555
C13 O47 1.285171 1_555
C13 O37 1.308409 1_555
C13 O51 1.309891 1_555
C14 O0 1.297343 1_555
C14 O40 1.300159 1_565
C14 O14 1.305678 1_465
C15 O43 1.297163 1_555
C15 O38 1.307401 1_555
C15 O48 1.310863 1_554
C16 O39 1.297163 1_555
C16 O46 1.307401 1_555
C16 O49 1.310863 1_555
C17 O52 1.285171 1_555
C17 O55 1.308409 1_555
C17 O56 1.309891 1_555
C18 O53 1.284274 1_555
C18 O54 1.306150 1_555
C18 O57 1.312152 1_555
C19 O58 1.292971 1_555
C19 O42 1.304115 1_645
C19 O18 1.306560 1_545
O0 Pb9 2.683905 1_555
O0 Pb4 2.784950 1_455
O1 Pb8 2.639598 1_555
O1 Pb5 2.674249 1_455
O2 Pb8 2.665721 1_556
O2 Pb0 2.717065 1_555
O3 Pb1 2.766057 1_555
O3 Pb9 2.801873 1_555
O4 Pb5 2.614843 1_456
O4 Pb0 2.616296 1_555
O5 Pb1 2.666714 1_555
O5 Pb4 2.802999 1_455
O8 Pb2 2.766057 1_555
O8 Pb11 2.801873 1_556
O9 Pb10 2.665721 1_555
O9 Pb3 2.717065 1_555
O14 Pb10 2.639598 1_555
O14 Pb4 2.674240 1_545
O16 Pb1 2.792132 1_555
O16 Pb7 2.830777 1_555
O17 Pb11 2.683905 1_555
O17 Pb5 2.784956 1_545
O18 Pb2 2.649705 1_565
O18 Pb0 2.650104 1_655
O19 Pb1 2.649705 1_655
O19 Pb3 2.650104 1_565
O21 Pb2 2.792132 1_555
O21 Pb6 2.830777 1_555
O22 Pb2 2.666714 1_555
O22 Pb5 2.802994 1_546
O23 Pb4 2.614837 1_545
O23 Pb3 2.616296 1_555
O26 Pb6 2.653245 1_555
O26 Pb11 2.654537 1_456
O27 Pb7 2.648501 1_555
O27 Pb10 2.721812 1_455
O28 Pb4 2.608701 1_555
O28 Pb2 2.610250 1_565
O29 Pb3 2.672326 1_565
O29 Pb5 2.741852 1_555
O30 Pb6 2.648501 1_555
O30 Pb8 2.721812 1_546
O31 Pb7 2.653245 1_555
O31 Pb9 2.654537 1_545
O32 Pb5 2.608701 1_555
O32 Pb1 2.610250 1_655
O33 Pb0 2.672326 1_655
O33 Pb4 2.741857 1_555
O36 Pb9 2.609510 1_555
O36 Pb6 2.661350 1_565
O37 Pb8 2.718816 1_555
O37 Pb7 2.798170 1_565
O39 Pb4 2.784335 1_555
O40 Pb9 2.650600 1_545
O40 Pb10 2.707234 1_455
O41 Pb11 2.650600 1_455
O41 Pb8 2.707234 1_545
O42 Pb6 2.648584 1_565
O42 Pb0 2.707932 1_555
O43 Pb5 2.784328 1_555
O45 Pb7 2.696232 1_565
O45 Pb1 2.780563 1_555
O50 Pb9 2.708467 1_555
O50 Pb0 2.727182 1_555
O51 Pb8 2.671475 1_555
O51 Pb1 2.801348 1_555
O54 Pb11 2.609510 1_555
O54 Pb7 2.661350 1_655
O55 Pb10 2.718816 1_555
O55 Pb6 2.798170 1_655
O56 Pb10 2.671475 1_555
O56 Pb2 2.801348 1_555
O57 Pb11 2.708467 1_555
O57 Pb3 2.727182 1_555
O58 Pb6 2.696232 1_655
O58 Pb2 2.780563 1_555
O59 Pb7 2.648584 1_655
O59 Pb3 2.707932 1_555
