# generated using pymatgen
data_Ba4TlBiPb2O9
_symmetry_space_group_name_H-M   'P 1'
_cell_length_a   6.36305800
_cell_length_b   8.16513300
_cell_length_c   12.75465800
_cell_angle_alpha   90.00000000
_cell_angle_beta   90.00000000
_cell_angle_gamma   90.00000000
_symmetry_Int_Tables_number   1
_chemical_formula_structural   Ba4TlBiPb2O9
_chemical_formula_sum   'Ba8 Tl2 Bi2 Pb4 O18'
_cell_volume   662.67099681
_cell_formula_units_Z   2
loop_
 _symmetry_equiv_pos_site_id
 _symmetry_equiv_pos_as_xyz
  1  'x, y, z'
loop_
 _atom_site_type_symbol
 _atom_site_label
 _atom_site_symmetry_multiplicity
 _atom_site_fract_x
 _atom_site_fract_y
 _atom_site_fract_z
 _atom_site_occupancy
  Ba  Ba0  1  0.50000000  0.75000000  0.00000000  1
  Ba  Ba1  1  0.50000000  0.75000000  0.50000000  1
  Ba  Ba2  1  0.00000000  0.25000000  0.25987100  1
  Ba  Ba3  1  0.00000000  0.25000000  0.74012900  1
  Ba  Ba4  1  0.00000000  0.75000000  0.25987100  1
  Ba  Ba5  1  0.00000000  0.75000000  0.74012900  1
  Ba  Ba6  1  0.50000000  0.25000000  0.00000000  1
  Ba  Ba7  1  0.50000000  0.25000000  0.50000000  1
  Tl  Tl0  1  0.00000000  0.00000000  0.00000000  1
  Tl  Tl1  1  0.00000000  0.50000000  0.00000000  1
  Bi  Bi0  1  0.00000000  0.50000000  0.50000000  1
  Bi  Bi1  1  0.00000000  0.00000000  0.50000000  1
  Pb  Pb0  1  0.49954200  0.50000000  0.24807700  1
  Pb  Pb1  1  0.50045800  0.50000000  0.75192300  1
  Pb  Pb2  1  0.50045800  0.00000000  0.24807700  1
  Pb  Pb3  1  0.49954200  0.00000000  0.75192300  1
  O  O0  1  0.71070700  0.50000000  0.09478900  1
  O  O1  1  0.71739900  0.50000000  0.59984600  1
  O  O2  1  0.80057200  0.50000000  0.35852800  1
  O  O3  1  0.80958900  0.50000000  0.85683200  1
  O  O4  1  0.00000000  0.25000000  0.50000000  1
  O  O5  1  0.00000000  0.75000000  0.50000000  1
  O  O6  1  0.19942800  0.00000000  0.35852800  1
  O  O7  1  0.19041100  0.00000000  0.85683200  1
  O  O8  1  0.19041100  0.50000000  0.14316800  1
  O  O9  1  0.19942800  0.50000000  0.64147200  1
  O  O10  1  0.28929300  0.00000000  0.09478900  1
  O  O11  1  0.28260100  0.00000000  0.59984600  1
  O  O12  1  0.28260100  0.50000000  0.40015400  1
  O  O13  1  0.28929300  0.50000000  0.90521100  1
  O  O14  1  0.71739900  0.00000000  0.40015400  1
  O  O15  1  0.71070700  0.00000000  0.90521100  1
  O  O16  1  0.80958900  0.00000000  0.14316800  1
  O  O17  1  0.80057200  0.00000000  0.64147200  1
loop_
_geom_bond_atom_site_label_1
_geom_bond_atom_site_label_2
_geom_bond_distance
_geom_bond_site_symmetry_2
Ba0 O0 2.725089 1_555
Ba0 O10 2.725089 1_565
Ba0 O15 2.725089 1_564
Ba0 O13 2.725089 1_554
Ba1 O1 2.775288 1_555
Ba1 O11 2.775288 1_565
Ba1 O14 2.775288 1_565
Ba1 O12 2.775288 1_555
Ba1 O5 3.181529 1_555
Ba1 O5 3.181529 1_655
Ba1 O2 3.328764 1_555
Ba1 O6 3.328764 1_565
Ba1 O9 3.328764 1_555
Ba1 O17 3.328764 1_565
Ba2 O6 2.713031 1_555
Ba2 O2 2.713031 1_455
Ba2 O16 2.801866 1_455
Ba2 O8 2.801866 1_555
Ba2 O14 3.256047 1_455
Ba2 O12 3.256047 1_555
Ba3 O9 2.713031 1_555
Ba3 O17 2.713031 1_455
Ba3 O7 2.801866 1_555
Ba3 O3 2.801866 1_455
Ba3 O1 3.256047 1_455
Ba3 O11 3.256047 1_555
Ba4 O2 2.713031 1_455
Ba4 O6 2.713031 1_565
Ba4 O16 2.801866 1_465
Ba4 O8 2.801866 1_555
Ba4 O14 3.256047 1_465
Ba4 O12 3.256047 1_555
Ba5 O17 2.713031 1_465
Ba5 O9 2.713031 1_555
Ba5 O7 2.801866 1_565
Ba5 O3 2.801866 1_455
Ba5 O1 3.256047 1_455
Ba5 O11 3.256047 1_565
Ba6 O0 2.725089 1_555
Ba6 O15 2.725089 1_554
Ba6 O10 2.725089 1_555
Ba6 O13 2.725089 1_554
Ba7 O11 2.775288 1_555
Ba7 O1 2.775288 1_555
Ba7 O14 2.775288 1_555
Ba7 O12 2.775288 1_555
Ba7 O4 3.181529 1_555
Ba7 O4 3.181529 1_655
Ba7 O2 3.328764 1_555
Ba7 O6 3.328764 1_555
Ba7 O9 3.328764 1_555
Ba7 O17 3.328764 1_555
Bi0 O5 2.041283 1_555
Bi0 O4 2.041283 1_555
Bi0 O1 2.203487 1_455
Bi0 O12 2.203487 1_555
Bi0 O2 2.205957 1_455
Bi0 O9 2.205957 1_555
Bi1 O5 2.041283 1_545
Bi1 O4 2.041283 1_555
Bi1 O14 2.203487 1_455
Bi1 O11 2.203487 1_555
Bi1 O6 2.205957 1_555
Bi1 O17 2.205957 1_455
O0 Tl1 2.202314 1_655
O0 Pb0 2.372333 1_555
O1 Pb1 2.380740 1_555
O2 Pb0 2.377740 1_555
O3 Tl1 2.191451 1_656
O3 Pb1 2.378995 1_555
O6 Pb2 2.377740 1_555
O7 Tl0 2.191451 1_556
O7 Pb3 2.378995 1_555
O8 Tl1 2.191451 1_555
O8 Pb0 2.378995 1_555
O9 Pb1 2.377740 1_555
O10 Tl0 2.202314 1_555
O10 Pb2 2.372333 1_555
O11 Pb3 2.380740 1_555
O12 Pb0 2.380740 1_555
O13 Tl1 2.202314 1_556
O13 Pb1 2.372333 1_555
O14 Pb2 2.380740 1_555
O15 Tl0 2.202314 1_656
O15 Pb3 2.372333 1_555
O16 Tl0 2.191451 1_655
O16 Pb2 2.378995 1_555
O17 Pb3 2.377740 1_555
