# generated using pymatgen
data_Cs3ZnH5
_symmetry_space_group_name_H-M   'P 1'
_cell_length_a   8.44391011
_cell_length_b   8.44391011
_cell_length_c   8.44391011
_cell_angle_alpha   121.53247401
_cell_angle_beta   121.53247401
_cell_angle_gamma   87.36555857
_symmetry_Int_Tables_number   1
_chemical_formula_structural   Cs3ZnH5
_chemical_formula_sum   'Cs6 Zn2 H10'
_cell_volume   415.37376932
_cell_formula_units_Z   2
loop_
 _symmetry_equiv_pos_site_id
 _symmetry_equiv_pos_as_xyz
  1  'x, y, z'
loop_
 _atom_site_type_symbol
 _atom_site_label
 _atom_site_symmetry_multiplicity
 _atom_site_fract_x
 _atom_site_fract_y
 _atom_site_fract_z
 _atom_site_occupancy
  Cs  Cs0  1  0.17888962  0.67888962  0.85777925  1
  Cs  Cs1  1  0.82111038  0.32111038  0.14222075  1
  Cs  Cs2  1  0.67888962  0.82111038  0.50000000  1
  Cs  Cs3  1  0.32111038  0.17888962  0.50000000  1
  Cs  Cs4  1  0.25000000  0.25000000  -0.00000000  1
  Cs  Cs5  1  0.75000000  0.75000000  -0.00000000  1
  Zn  Zn0  1  0.25000000  0.75000000  0.50000000  1
  Zn  Zn1  1  0.75000000  0.25000000  0.50000000  1
  H  H0  1  0.44476002  0.94476002  0.72963353  1
  H  H1  1  0.21512649  0.71512649  0.27036647  1
  H  H2  1  0.94476002  0.21512649  0.50000000  1
  H  H3  1  0.71512649  0.44476002  0.50000000  1
  H  H4  1  0.55523998  0.05523998  0.27036647  1
  H  H5  1  0.78487351  0.28487351  0.72963353  1
  H  H6  1  0.05523998  0.78487351  0.50000000  1
  H  H7  1  0.28487351  0.55523998  0.50000000  1
  H  H8  1  0.50000000  0.50000000  -0.00000000  1
  H  H9  1  -0.00000000  -0.00000000  -0.00000000  1
loop_
_geom_bond_atom_site_label_1
_geom_bond_atom_site_label_2
_geom_bond_distance
_geom_bond_site_symmetry_2
Cs0 H9 3.031624 1_566
Cs0 H8 3.031624 1_556
Cs0 H1 3.178535 1_556
Cs0 H4 3.178535 1_566
Cs0 H2 3.234273 1_455
Cs0 H3 3.234273 1_455
Cs0 H7 3.234273 1_555
Cs0 H6 3.234273 1_555
Cs1 H9 3.031624 1_655
Cs1 H8 3.031624 1_555
Cs1 H5 3.178535 1_554
Cs1 H0 3.178535 1_544
Cs1 H7 3.234273 1_655
Cs1 H6 3.234273 1_655
Cs1 H2 3.234273 1_555
Cs1 H3 3.234273 1_555
Cs2 H8 3.031624 1_555
Cs2 H9 3.031624 1_666
Cs2 H6 3.178535 1_655
Cs2 H3 3.178535 1_555
Cs2 H0 3.234273 1_555
Cs2 H5 3.234273 1_565
Cs2 H1 3.234273 1_555
Cs2 H4 3.234273 1_565
Cs3 H9 3.031624 1_555
Cs3 H8 3.031624 1_556
Cs3 H2 3.178535 1_455
Cs3 H7 3.178535 1_555
Cs3 H4 3.234273 1_555
Cs3 H0 3.234273 1_545
Cs3 H1 3.234273 1_545
Cs3 H5 3.234273 1_555
Cs4 H8 3.053211 1_555
Cs4 H9 3.053211 1_555
Cs5 H9 3.053211 1_665
Cs5 H8 3.053211 1_555
H0 Zn0 1.657315 1_555
H1 Zn0 1.657315 1_555
H2 Zn1 1.657315 1_555
H3 Zn1 1.657315 1_555
H4 Zn1 1.657315 1_555
H5 Zn1 1.657315 1_555
H6 Zn0 1.657315 1_555
H7 Zn0 1.657315 1_555
