# generated using pymatgen
data_Al2O3
_symmetry_space_group_name_H-M   'P 1'
_cell_length_a   5.57588200
_cell_length_b   5.60413744
_cell_length_c   14.55960251
_cell_angle_alpha   78.93913714
_cell_angle_beta   81.82913668
_cell_angle_gamma   60.89849425
_symmetry_Int_Tables_number   1
_chemical_formula_structural   Al2O3
_chemical_formula_sum   'Al16 O24'
_cell_volume   389.50724499
_cell_formula_units_Z   8
loop_
 _symmetry_equiv_pos_site_id
 _symmetry_equiv_pos_as_xyz
  1  'x, y, z'
loop_
 _atom_site_type_symbol
 _atom_site_label
 _atom_site_symmetry_multiplicity
 _atom_site_fract_x
 _atom_site_fract_y
 _atom_site_fract_z
 _atom_site_occupancy
  Al  Al0  1  0.95396400  0.21197500  0.13471500  1
  Al  Al1  1  0.48472400  0.74233400  0.01880500  1
  Al  Al2  1  0.49072600  0.10440600  0.16259500  1
  Al  Al3  1  0.42877700  0.00888300  0.52413300  1
  Al  Al4  1  0.14164300  0.33717400  0.32915300  1
  Al  Al5  1  0.10308200  0.69719800  0.47050700  1
  Al  Al6  1  0.47376600  0.58457300  0.28867300  1
  Al  Al7  1  0.77283800  0.91893100  0.32672100  1
  Al  Al8  1  0.01804000  0.20560200  0.84155600  1
  Al  Al9  1  0.79006000  0.54433500  0.66365000  1
  Al  Al10  1  0.56029400  0.81874100  0.82945100  1
  Al  Al11  1  0.74177400  0.35097500  0.49011000  1
  Al  Al12  1  0.91658600  0.97427000  0.64848600  1
  Al  Al13  1  0.26768300  0.51497400  0.79056300  1
  Al  Al14  1  0.51607700  0.25455500  0.97574500  1
  Al  Al15  1  0.00582600  0.70957000  0.99834600  1
  O  O0  1  0.81270100  0.54475200  0.06867100  1
  O  O1  1  0.63295000  0.78820500  0.24880000  1
  O  O2  1  0.31563500  0.04139600  0.07725600  1
  O  O3  1  0.79945800  0.04387700  0.07426400  1
  O  O4  1  0.14535800  0.22647500  0.22479400  1
  O  O5  1  0.42729900  0.07711800  0.39649900  1
  O  O6  1  0.65531800  0.24958500  0.23407100  1
  O  O7  1  0.07350500  0.13925500  0.55831700  1
  O  O8  1  0.91748400  0.55237400  0.41605200  1
  O  O9  1  0.33908400  0.51034200  0.06109500  1
  O  O10  1  0.13395000  0.67926900  0.27174900  1
  O  O11  1  0.44122500  0.53569600  0.41654000  1
  O  O12  1  0.59421900  0.64448300  0.56258000  1
  O  O13  1  0.88744600  0.20429200  0.73085100  1
  O  O14  1  0.04836200  0.64998200  0.59397800  1
  O  O15  1  0.69812200  0.43299900  0.89927000  1
  O  O16  1  0.44642200  0.69711800  0.74051600  1
  O  O17  1  0.91696300  0.04185700  0.40820000  1
  O  O18  1  0.60633100  0.14000000  0.57696300  1
  O  O19  1  0.89454900  0.71156000  0.75419900  1
  O  O20  1  0.20867300  0.89816000  0.92029900  1
  O  O21  1  0.67330000  0.91659500  0.92951300  1
  O  O22  1  0.34294700  0.18091900  0.77878000  1
  O  O23  1  0.19184300  0.45039600  0.91333200  1
loop_
_geom_bond_atom_site_label_1
_geom_bond_atom_site_label_2
_geom_bond_distance
_geom_bond_site_symmetry_2
Al0 O0 1.766733 1_555
Al0 O4 1.840832 1_655
Al0 O2 1.905944 1_655
Al0 O3 1.930648 1_555
Al0 O6 2.000208 1_555
Al1 O0 1.787958 1_555
Al1 O2 1.790039 1_565
Al1 O9 1.818397 1_555
Al1 O21 1.967888 1_554
Al1 O20 2.007043 1_554
Al1 O15 2.452045 1_554
Al2 O1 1.845779 1_545
Al2 O4 1.859322 1_555
Al2 O2 1.862829 1_555
Al2 O3 1.924190 1_555
Al2 O6 1.977333 1_555
Al2 O9 2.295269 1_555
Al3 O7 1.776833 1_555
Al3 O12 1.791757 1_545
Al3 O18 1.803512 1_555
Al3 O5 1.824336 1_555
Al4 O4 1.741890 1_555
Al4 O5 1.805556 1_555
Al4 O8 1.813054 1_455
Al4 O10 1.921251 1_555
Al5 O14 1.770564 1_555
Al5 O11 1.784181 1_555
Al5 O17 1.810019 1_465
Al5 O8 1.911913 1_455
Al6 O1 1.735434 1_555
Al6 O10 1.742685 1_555
Al6 O11 1.824968 1_555
Al6 O6 1.917398 1_555
Al7 O1 1.886395 1_555
Al7 O17 1.910699 1_565
Al7 O5 1.912566 1_565
Al7 O6 1.947765 1_565
Al7 O10 1.955141 1_655
Al7 O8 2.055092 1_555
Al8 O20 1.794387 1_545
Al8 O15 1.812655 1_455
Al8 O22 1.862967 1_555
Al8 O13 1.863230 1_455
Al9 O12 1.793481 1_555
Al9 O13 1.820082 1_555
Al9 O14 1.907252 1_655
Al9 O16 1.954296 1_555
Al9 O19 2.044326 1_555
Al10 O22 1.849202 1_565
Al10 O16 1.880870 1_555
Al10 O19 1.902096 1_555
Al10 O21 1.929720 1_555
Al10 O15 2.014943 1_555
Al10 O20 2.105120 1_555
Al11 O11 1.850591 1_555
Al11 O18 1.894927 1_555
Al11 O12 1.896991 1_555
Al11 O8 1.924784 1_555
Al11 O7 1.936639 1_655
Al11 O17 2.047677 1_555
Al12 O7 1.827184 1_665
Al12 O13 1.860169 1_565
Al12 O18 1.875581 1_565
Al12 O14 1.887124 1_655
Al12 O19 1.950472 1_555
Al13 O22 1.746089 1_555
Al13 O16 1.750403 1_555
Al13 O23 1.786234 1_555
Al13 O19 1.918970 1_455
Al14 O23 1.858228 1_555
Al14 O15 1.873244 1_555
Al14 O21 1.874867 1_545
Al14 O9 1.879310 1_556
Al14 O3 2.031735 1_556
Al14 O2 2.238793 1_556
Al15 O0 1.830937 1_456
Al15 O23 1.891291 1_555
Al15 O9 1.899279 1_556
Al15 O21 1.943654 1_455
Al15 O20 2.006031 1_555
Al15 O3 2.095690 1_466
