# generated using pymatgen
data_Ba2CaTl2(CuO4)2
_symmetry_space_group_name_H-M   'P 1'
_cell_length_a   15.44888372
_cell_length_b   15.44888372
_cell_length_c   15.44888372
_cell_angle_alpha   165.53917393
_cell_angle_beta   165.53917393
_cell_angle_gamma   20.50572287
_symmetry_Int_Tables_number   1
_chemical_formula_structural   Ba2CaTl2(CuO4)2
_chemical_formula_sum   'Ba2 Ca1 Tl2 Cu2 O8'
_cell_volume   229.89778008
_cell_formula_units_Z   1
loop_
 _symmetry_equiv_pos_site_id
 _symmetry_equiv_pos_as_xyz
  1  'x, y, z'
loop_
 _atom_site_type_symbol
 _atom_site_label
 _atom_site_symmetry_multiplicity
 _atom_site_fract_x
 _atom_site_fract_y
 _atom_site_fract_z
 _atom_site_occupancy
  Ba  Ba0  1  0.11721200  0.11721200  0.00000000  1
  Ba  Ba1  1  0.88278800  0.88278800  0.00000000  1
  Ca  Ca0  1  0.00000000  0.00000000  0.00000000  1
  Tl  Tl0  1  0.28771600  0.28771600  0.00000000  1
  Tl  Tl1  1  0.71228400  0.71228400  0.00000000  1
  Cu  Cu0  1  0.55060100  0.55060100  0.00000000  1
  Cu  Cu1  1  0.44939900  0.44939900  0.00000000  1
  O  O0  1  0.78072500  0.78072500  0.00000000  1
  O  O1  1  0.44785500  0.94785500  0.50000000  1
  O  O2  1  0.05214500  0.55214500  0.50000000  1
  O  O3  1  0.64556200  0.64556200  0.00000000  1
  O  O4  1  0.55214500  0.05214500  0.50000000  1
  O  O5  1  0.94785500  0.44785500  0.50000000  1
  O  O6  1  0.35443800  0.35443800  0.00000000  1
  O  O7  1  0.21927500  0.21927500  0.00000000  1
loop_
_geom_bond_atom_site_label_1
_geom_bond_atom_site_label_2
_geom_bond_distance
_geom_bond_site_symmetry_2
Ba0 O2 2.773883 1_544
Ba0 O4 2.773883 1_555
Ba0 O2 2.773883 1_555
Ba0 O4 2.773883 1_454
Ba0 O3 2.881721 1_455
Ba0 O3 2.881721 1_556
Ba0 O3 2.881721 1_545
Ba0 O3 2.881721 1_444
Ba0 O7 3.103163 1_555
Ba1 O5 2.773883 1_554
Ba1 O1 2.773883 1_554
Ba1 O5 2.773883 1_565
Ba1 O1 2.773883 1_655
Ba1 O6 2.881721 1_666
Ba1 O6 2.881721 1_554
Ba1 O6 2.881721 1_655
Ba1 O6 2.881721 1_565
Ba1 O0 3.103163 1_555
Ca0 O5 2.508840 1_444
Ca0 O2 2.508840 1_544
Ca0 O4 2.508840 1_555
Ca0 O2 2.508840 1_555
Ca0 O5 2.508840 1_455
Ca0 O1 2.508840 1_444
Ca0 O1 2.508840 1_545
Ca0 O4 2.508840 1_454
Cu0 O2 1.944961 1_655
Cu0 O4 1.944961 1_565
Cu0 O2 1.944961 1_554
Cu0 O4 1.944961 1_554
Cu1 O1 1.944961 1_544
Cu1 O5 1.944961 1_555
Cu1 O1 1.944961 1_555
Cu1 O5 1.944961 1_454
O0 Tl1 2.080907 1_555
O0 Tl0 2.757991 1_655
O0 Tl0 2.757991 1_666
O0 Tl0 2.757991 1_554
O0 Tl0 2.757991 1_565
O3 Tl1 2.028641 1_555
O6 Tl0 2.028641 1_555
O7 Tl0 2.080907 1_555
O7 Tl1 2.757991 1_556
O7 Tl1 2.757991 1_444
O7 Tl1 2.757991 1_545
O7 Tl1 2.757991 1_455
