# generated using pymatgen
data_KCuF3
_symmetry_space_group_name_H-M   'P 1'
_cell_length_a   5.68005515
_cell_length_b   5.68067971
_cell_length_c   5.68068068
_cell_angle_alpha   92.48404255
_cell_angle_beta   118.57977552
_cell_angle_gamma   118.57977739
_symmetry_Int_Tables_number   1
_chemical_formula_structural   KCuF3
_chemical_formula_sum   'K2 Cu2 F6'
_cell_volume   132.25113411
_cell_formula_units_Z   2
loop_
 _symmetry_equiv_pos_site_id
 _symmetry_equiv_pos_as_xyz
  1  'x, y, z'
loop_
 _atom_site_type_symbol
 _atom_site_label
 _atom_site_symmetry_multiplicity
 _atom_site_fract_x
 _atom_site_fract_y
 _atom_site_fract_z
 _atom_site_occupancy
  K  K0  1  0.00000000  0.75000000  0.75000000  1
  K  K1  1  0.00000000  0.25000000  0.25000000  1
  Cu  Cu0  1  0.50000000  0.00000000  0.50000000  1
  Cu  Cu1  1  0.50000000  0.50000000  0.00000000  1
  F  F0  1  0.04217423  0.27108712  0.77108712  1
  F  F1  1  0.50000000  0.77115694  0.72884306  1
  F  F2  1  0.50000000  0.22884306  0.27115694  1
  F  F3  1  0.95782577  0.72891288  0.22891288  1
  F  F4  1  0.50000000  0.74995346  0.24995346  1
  F  F5  1  0.50000000  0.25004654  0.75004654  1
loop_
_geom_bond_atom_site_label_1
_geom_bond_atom_site_label_2
_geom_bond_distance
_geom_bond_site_symmetry_2
Cu0 F2 1.877873 1_555
Cu0 F1 1.877873 1_545
Cu0 F5 1.964784 1_555
Cu0 F4 1.964784 1_545
Cu0 F3 2.224057 1_445
Cu0 F0 2.224057 1_655
Cu1 F0 1.878050 1_554
Cu1 F3 1.878050 1_555
Cu1 F4 1.964052 1_555
Cu1 F5 1.964052 1_554
Cu1 F1 2.225098 1_554
Cu1 F2 2.225098 1_555
F0 K0 2.845604 1_555
F0 K0 2.845604 1_545
F0 K1 2.845604 1_556
F0 K1 2.845604 1_555
F1 K0 2.845329 1_655
F1 K0 2.845329 1_555
F1 K1 2.845330 1_555
F1 K1 2.845330 1_666
F2 K1 2.845329 1_555
F2 K1 2.845329 1_655
F2 K0 2.845330 1_655
F2 K0 2.845330 1_544
F3 K1 2.845604 1_655
F3 K1 2.845604 1_665
F3 K0 2.845604 1_654
F3 K0 2.845604 1_655
F4 K1 2.900933 1_555
F4 K1 2.900933 1_665
F4 K0 2.900934 1_554
F4 K0 2.900934 1_655
F5 K0 2.900933 1_655
F5 K0 2.900933 1_545
F5 K1 2.900934 1_656
F5 K1 2.900934 1_555
