# generated using pymatgen
data_NaLa(PO3)4
_symmetry_space_group_name_H-M   'P 1'
_cell_length_a   13.42166600
_cell_length_b   7.36023100
_cell_length_c   12.53471168
_cell_angle_alpha   54.33528883
_cell_angle_beta   90.00000000
_cell_angle_gamma   90.00000000
_symmetry_Int_Tables_number   1
_chemical_formula_structural   NaLa(PO3)4
_chemical_formula_sum   'Na4 La4 P16 O48'
_cell_volume   1006.01626943
_cell_formula_units_Z   4
loop_
 _symmetry_equiv_pos_site_id
 _symmetry_equiv_pos_as_xyz
  1  'x, y, z'
loop_
 _atom_site_type_symbol
 _atom_site_label
 _atom_site_symmetry_multiplicity
 _atom_site_fract_x
 _atom_site_fract_y
 _atom_site_fract_z
 _atom_site_occupancy
  Na  Na0  1  0.27896500  0.93498500  0.56471400  1
  Na  Na1  1  0.77896500  0.06501500  0.93528600  1
  Na  Na2  1  0.72103500  0.06501500  0.43528600  1
  Na  Na3  1  0.22103500  0.93498500  0.06471400  1
  La  La0  1  0.22045100  0.53542400  0.97775300  1
  La  La1  1  0.72045100  0.46457600  0.52224700  1
  La  La2  1  0.77954900  0.46457600  0.02224700  1
  La  La3  1  0.27954900  0.53542400  0.47775300  1
  P  P0  1  0.40985400  0.57110000  0.20024200  1
  P  P1  1  0.90985400  0.42890000  0.29975800  1
  P  P2  1  0.59014600  0.42890000  0.79975800  1
  P  P3  1  0.09014600  0.57110000  0.70024200  1
  P  P4  1  0.37405800  0.33653100  0.80504500  1
  P  P5  1  0.87405800  0.66346900  0.69495500  1
  P  P6  1  0.62594200  0.66346900  0.19495500  1
  P  P7  1  0.12594200  0.33653100  0.30504500  1
  P  P8  1  0.38629200  0.11608400  0.26622000  1
  P  P9  1  0.88629200  0.88391600  0.23378000  1
  P  P10  1  0.61370800  0.88391600  0.73378000  1
  P  P11  1  0.11370800  0.11608400  0.76622000  1
  P  P12  1  0.40016600  0.00636100  0.74170300  1
  P  P13  1  0.90016700  0.99363900  0.75829700  1
  P  P14  1  0.59983400  0.99363900  0.25829700  1
  P  P15  1  0.09983400  0.00636100  0.24170300  1
  O  O0  1  0.38888100  0.63357100  0.29271400  1
  O  O1  1  0.88888100  0.36642900  0.20728600  1
  O  O2  1  0.61111900  0.36642900  0.70728600  1
  O  O3  1  0.11111900  0.63357100  0.79271400  1
  O  O4  1  0.35467600  0.91367000  0.39814000  1
  O  O5  1  0.85467600  0.08633000  0.10186000  1
  O  O6  1  0.64532400  0.08633000  0.60186000  1
  O  O7  1  0.14532400  0.91367000  0.89814000  1
  O  O8  1  0.39052700  0.18725200  0.59678000  1
  O  O9  1  0.89052700  0.81274800  0.90322000  1
  O  O10  1  0.60947300  0.81274800  0.40322000  1
  O  O11  1  0.10947300  0.18725200  0.09678000  1
  O  O12  1  0.37914800  0.09493800  0.83020800  1
  O  O13  1  0.87914800  0.90506200  0.66979200  1
  O  O14  1  0.62085200  0.90506200  0.16979200  1
  O  O15  1  0.12085200  0.09493800  0.33020800  1
  O  O16  1  0.13437800  0.51862700  0.16079800  1
  O  O17  1  0.33692800  0.80094300  0.79439600  1
  O  O18  1  0.63437800  0.48137300  0.33920200  1
  O  O19  1  0.36562200  0.51862700  0.66079800  1
  O  O20  1  0.47979200  0.34891100  0.86203400  1
  O  O21  1  0.97979200  0.65108900  0.63796600  1
  O  O22  1  0.52020800  0.65108900  0.13796600  1
  O  O23  1  0.02020800  0.34891100  0.36203400  1
  O  O24  1  0.98637600  0.92919900  0.28410700  1
  O  O25  1  0.48637600  0.07080100  0.21589300  1
  O  O26  1  0.01362400  0.07080100  0.71589300  1
  O  O27  1  0.51362400  0.92919900  0.78410700  1
  O  O28  1  0.16001600  0.65701700  0.58658800  1
  O  O29  1  0.66001600  0.34298300  0.91341200  1
  O  O30  1  0.83998400  0.34298300  0.41341200  1
  O  O31  1  0.33998400  0.65701700  0.08658800  1
  O  O32  1  0.18598400  0.21335300  0.65461300  1
  O  O33  1  0.68598400  0.78664700  0.84538700  1
  O  O34  1  0.81401600  0.78664700  0.34538700  1
  O  O35  1  0.31401600  0.21335300  0.15461300  1
  O  O36  1  0.20478600  0.31198600  0.39787400  1
  O  O37  1  0.70478600  0.68801400  0.10212600  1
  O  O38  1  0.79521400  0.68801400  0.60212600  1
  O  O39  1  0.29521400  0.31198600  0.89787400  1
  O  O40  1  0.07965700  0.30175200  0.78869700  1
  O  O41  1  0.57965700  0.69824800  0.71130300  1
  O  O42  1  0.92034300  0.69824800  0.21130300  1
  O  O43  1  0.42034300  0.30175200  0.28869700  1
  O  O44  1  0.16307200  0.80094300  0.29439600  1
  O  O45  1  0.66307200  0.19905700  0.20560400  1
  O  O46  1  0.83692800  0.19905700  0.70560400  1
  O  O47  1  0.86562200  0.48137300  0.83920200  1
loop_
_geom_bond_atom_site_label_1
_geom_bond_atom_site_label_2
_geom_bond_distance
_geom_bond_site_symmetry_2
Na0 O4 2.408058 1_555
Na0 O28 2.481046 1_555
Na0 O36 2.509505 1_565
Na0 O17 2.560292 1_555
Na0 O8 2.592555 1_565
Na0 O19 2.809021 1_555
Na1 O5 2.408058 1_556
Na1 O29 2.481046 1_555
Na1 O37 2.509505 1_546
Na1 O46 2.560292 1_555
Na1 O9 2.592555 1_545
Na1 O47 2.809021 1_555
Na2 O6 2.408058 1_555
Na2 O30 2.481046 1_555
Na2 O38 2.509505 1_545
Na2 O45 2.560292 1_555
Na2 O10 2.592555 1_545
Na2 O18 2.809021 1_555
Na3 O7 2.408058 1_554
Na3 O31 2.481046 1_555
Na3 O39 2.509505 1_564
Na3 O44 2.560292 1_555
Na3 O11 2.592555 1_565
Na3 O16 2.809021 1_555
La0 O35 2.446020 1_556
La0 O3 2.470029 1_555
La0 O16 2.506681 1_556
La0 O17 2.511559 1_555
La0 O7 2.554115 1_555
La0 O11 2.559944 1_556
La0 O39 2.575672 1_555
La0 O31 2.580617 1_556
La1 O34 2.446020 1_555
La1 O2 2.470029 1_555
La1 O18 2.506681 1_555
La1 O46 2.511559 1_555
La1 O6 2.554115 1_555
La1 O10 2.559944 1_555
La1 O38 2.575672 1_555
La1 O30 2.580617 1_555
La2 O33 2.446020 1_554
La2 O1 2.470029 1_555
La2 O47 2.506681 1_554
La2 O45 2.511559 1_555
La2 O5 2.554115 1_555
La2 O9 2.559944 1_554
La2 O37 2.575672 1_555
La2 O29 2.580617 1_554
La3 O32 2.446020 1_555
La3 O0 2.470029 1_555
La3 O19 2.506681 1_555
La3 O44 2.511559 1_555
La3 O4 2.554115 1_555
La3 O8 2.559944 1_555
La3 O36 2.575672 1_555
La3 O28 2.580617 1_555
O0 P0 1.501887 1_555
O1 P1 1.501887 1_555
O2 P2 1.501887 1_555
O3 P3 1.501887 1_555
O4 P8 1.503749 1_565
O5 P9 1.503749 1_545
O6 P10 1.503749 1_545
O7 P11 1.503749 1_565
O8 P12 1.506327 1_555
O9 P13 1.506328 1_555
O10 P14 1.506327 1_555
O11 P15 1.506327 1_555
O12 P12 1.605842 1_555
O12 P4 1.616190 1_555
O13 P13 1.605844 1_555
O13 P5 1.616190 1_555
O14 P14 1.605842 1_555
O14 P6 1.616190 1_555
O15 P15 1.605842 1_555
O15 P7 1.616190 1_555
O16 P7 1.500847 1_555
O17 P12 1.509335 1_565
O18 P6 1.500847 1_555
O19 P4 1.500847 1_555
O20 P4 1.615056 1_555
O20 P2 1.616732 1_555
O21 P5 1.615056 1_555
O21 P3 1.616732 1_655
O22 P6 1.615056 1_555
O22 P0 1.616732 1_555
O23 P7 1.615056 1_555
O23 P1 1.616732 1_455
O24 P9 1.599577 1_555
O24 P15 1.603734 1_665
O25 P8 1.599577 1_555
O25 P14 1.603734 1_545
O26 P11 1.599577 1_555
O26 P13 1.603722 1_445
O27 P10 1.599577 1_555
O27 P12 1.603734 1_565
O28 P3 1.502778 1_555
O29 P2 1.502778 1_555
O30 P1 1.502778 1_555
O31 P0 1.502778 1_555
O32 P11 1.497590 1_555
O33 P10 1.497590 1_555
O34 P9 1.497590 1_555
O35 P8 1.497590 1_555
O36 P7 1.503752 1_555
O37 P6 1.503752 1_555
O38 P5 1.503752 1_555
O39 P4 1.503752 1_555
O40 P11 1.613907 1_555
O40 P3 1.617465 1_555
O41 P10 1.613907 1_555
O41 P2 1.617465 1_555
O42 P9 1.613907 1_555
O42 P1 1.617465 1_555
O43 P8 1.613907 1_555
O43 P0 1.617465 1_555
O44 P15 1.509335 1_565
O45 P14 1.509335 1_545
O46 P13 1.509342 1_545
O47 P5 1.500847 1_555
