# generated using pymatgen
data_CeIn4Pd
_symmetry_space_group_name_H-M   'P 1'
_cell_length_a   8.86574869
_cell_length_b   8.86574869
_cell_length_c   7.34651600
_cell_angle_alpha   90.00000000
_cell_angle_beta   90.00000000
_cell_angle_gamma   149.81247030
_symmetry_Int_Tables_number   1
_chemical_formula_structural   CeIn4Pd
_chemical_formula_sum   'Ce2 In8 Pd2'
_cell_volume   290.35881885
_cell_formula_units_Z   2
loop_
 _symmetry_equiv_pos_site_id
 _symmetry_equiv_pos_as_xyz
  1  'x, y, z'
loop_
 _atom_site_type_symbol
 _atom_site_label
 _atom_site_symmetry_multiplicity
 _atom_site_fract_x
 _atom_site_fract_y
 _atom_site_fract_z
 _atom_site_occupancy
  Ce  Ce0  1  0.38230400  0.61769600  0.75000000  1
  Ce  Ce1  1  0.61769600  0.38230400  0.25000000  1
  In  In0  1  0.00000000  0.00000000  0.50000000  1
  In  In1  1  0.81735600  0.18264400  0.45356600  1
  In  In2  1  0.81735600  0.18264400  0.04643400  1
  In  In3  1  0.43193300  0.56806700  0.25000000  1
  In  In4  1  0.18264400  0.81735600  0.95356600  1
  In  In5  1  0.18264400  0.81735600  0.54643400  1
  In  In6  1  0.00000000  0.00000000  0.00000000  1
  In  In7  1  0.56806700  0.43193300  0.75000000  1
  Pd  Pd0  1  0.27551600  0.72448400  0.25000000  1
  Pd  Pd1  1  0.72448400  0.27551600  0.75000000  1
loop_
_geom_bond_atom_site_label_1
_geom_bond_atom_site_label_2
_geom_bond_distance
_geom_bond_site_symmetry_2
Ce0 In7 3.180221 1_555
Ce0 In1 3.362847 1_565
Ce0 In2 3.362847 1_566
Ce0 In1 3.362847 1_455
Ce0 In2 3.362847 1_456
Ce0 Pd1 3.553837 1_455
Ce0 Pd1 3.553837 1_565
Ce0 In6 3.572527 1_666
Ce0 In0 3.572527 1_665
Ce0 In6 3.572527 1_556
Ce0 In0 3.572527 1_555
Ce0 In4 3.730974 1_555
Ce0 In5 3.730974 1_555
Ce0 In3 3.770240 1_556
Ce0 In3 3.770240 1_555
Ce1 In3 3.180221 1_555
Ce1 In4 3.362847 1_654
Ce1 In5 3.362847 1_545
Ce1 In5 3.362847 1_655
Ce1 In4 3.362847 1_544
Ce1 Pd0 3.553837 1_545
Ce1 Pd0 3.553837 1_655
Ce1 In6 3.572527 1_555
Ce1 In0 3.572527 1_555
Ce1 In0 3.572527 1_665
Ce1 In6 3.572527 1_665
Ce1 In2 3.730974 1_555
Ce1 In1 3.730974 1_555
Ce1 In7 3.770240 1_554
Ce1 In7 3.770240 1_555
In0 In1 3.145378 1_455
In0 In5 3.145378 1_545
In0 In7 3.171894 1_555
In0 In3 3.171894 1_445
In0 In3 3.171894 1_555
In0 In7 3.171894 1_445
In1 Pd1 2.696398 1_555
In1 Pd0 2.842428 1_545
In1 Pd0 2.842428 1_655
In2 Pd1 2.696398 1_554
In2 Pd0 2.842428 1_545
In2 Pd0 2.842428 1_655
In2 In6 3.145378 1_655
In3 Pd0 2.677824 1_555
In3 In6 3.171894 1_665
In3 In6 3.171894 1_555
In4 Pd0 2.696398 1_556
In4 Pd1 2.842428 1_455
In4 Pd1 2.842428 1_565
In4 In6 3.145378 1_566
In5 Pd0 2.696398 1_555
In5 Pd1 2.842428 1_455
In5 Pd1 2.842428 1_565
In6 In7 3.171894 1_554
In6 In7 3.171894 1_444
In7 Pd1 2.677824 1_555
