# generated using pymatgen
data_Ga2CoO4
_symmetry_space_group_name_H-M   'P 1'
_cell_length_a   5.96031589
_cell_length_b   5.96031589
_cell_length_c   19.70321877
_cell_angle_alpha   81.62639653
_cell_angle_beta   81.62639653
_cell_angle_gamma   60.25195360
_symmetry_Int_Tables_number   1
_chemical_formula_structural   Ga2CoO4
_chemical_formula_sum   'Ga16 Co8 O32'
_cell_volume   599.04391091
_cell_formula_units_Z   8
loop_
 _symmetry_equiv_pos_site_id
 _symmetry_equiv_pos_as_xyz
  1  'x, y, z'
loop_
 _atom_site_type_symbol
 _atom_site_label
 _atom_site_symmetry_multiplicity
 _atom_site_fract_x
 _atom_site_fract_y
 _atom_site_fract_z
 _atom_site_occupancy
  Ga  Ga0  1  0.84918300  0.84918300  0.96939700  1
  Ga  Ga1  1  0.87844500  0.37278200  0.87374500  1
  Ga  Ga2  1  0.60001500  0.60001500  0.71642700  1
  Ga  Ga3  1  0.49933900  0.49933900  0.00195600  1
  Ga  Ga4  1  0.37278200  0.87844500  0.87374500  1
  Ga  Ga5  1  0.62851600  0.12415600  0.62509000  1
  Ga  Ga6  1  0.12415600  0.62851600  0.62509000  1
  Ga  Ga7  1  0.34941700  0.34941700  0.46971300  1
  Ga  Ga8  1  0.38207800  0.87173700  0.37472700  1
  Ga  Ga9  1  0.87173700  0.38207800  0.37472700  1
  Ga  Ga10  1  0.90063900  0.90063900  0.78204200  1
  Ga  Ga11  1  0.99930000  0.99930000  0.50262000  1
  Ga  Ga12  1  0.09946700  0.09946700  0.21960800  1
  Ga  Ga13  1  0.13193300  0.62193000  0.12444300  1
  Ga  Ga14  1  0.74931200  0.74931200  0.25210700  1
  Ga  Ga15  1  0.62193000  0.13193300  0.12444300  1
  Co  Co0  1  0.37378600  0.37378600  0.87255200  1
  Co  Co1  1  0.25042600  0.25042600  0.74959500  1
  Co  Co2  1  0.12468300  0.12468300  0.62656800  1
  Co  Co3  1  0.87305000  0.87305000  0.37494100  1
  Co  Co4  1  0.65229900  0.65229900  0.53238100  1
  Co  Co5  1  0.62309700  0.62309700  0.12467000  1
  Co  Co6  1  0.40255300  0.40255300  0.28116000  1
  Co  Co7  1  0.15285700  0.15285700  0.02981300  1
  O  O0  1  0.67926600  0.67926600  0.93667400  1
  O  O1  1  0.56671100  0.56671100  0.81677300  1
  O  O2  1  0.68310900  0.20884800  0.93662900  1
  O  O3  1  0.20884800  0.68310900  0.93662900  1
  O  O4  1  0.55010800  0.05564700  0.81540600  1
  O  O5  1  0.43455000  0.43455000  0.68344400  1
  O  O6  1  0.18301500  0.18301500  0.92667200  1
  O  O7  1  0.05564700  0.55010800  0.81540600  1
  O  O8  1  0.44326200  0.95259700  0.68420300  1
  O  O9  1  0.31721700  0.31721700  0.56722000  1
  O  O10  1  0.06407800  0.06407800  0.81574500  1
  O  O11  1  0.95259700  0.44326200  0.68420300  1
  O  O12  1  0.18027800  0.18027800  0.43609100  1
  O  O13  1  0.27855200  0.82004600  0.56510200  1
  O  O14  1  0.93318800  0.93318800  0.68519100  1
  O  O15  1  0.06534900  0.06534900  0.31784000  1
  O  O16  1  0.18594100  0.70912800  0.43715300  1
  O  O17  1  0.82004600  0.27855200  0.56510200  1
  O  O18  1  0.82596700  0.82596700  0.56567700  1
  O  O19  1  0.70912800  0.18594100  0.43715300  1
  O  O20  1  0.03052300  0.56701300  0.31355900  1
  O  O21  1  0.93044800  0.93044800  0.18602900  1
  O  O22  1  0.56701300  0.03052300  0.31355900  1
  O  O23  1  0.68405700  0.68405700  0.43017900  1
  O  O24  1  0.81541900  0.81541900  0.06782400  1
  O  O25  1  0.93595100  0.45867100  0.18692300  1
  O  O26  1  0.45867100  0.93595100  0.18692300  1
  O  O27  1  0.57420700  0.57420700  0.31481000  1
  O  O28  1  0.78130700  0.31650200  0.06322200  1
  O  O29  1  0.31650200  0.78130700  0.06322200  1
  O  O30  1  0.43422300  0.43422300  0.17938300  1
  O  O31  1  0.32382200  0.32382200  0.06449900  1
loop_
_geom_bond_atom_site_label_1
_geom_bond_atom_site_label_2
_geom_bond_distance
_geom_bond_site_symmetry_2
Ga0 O24 1.911765 1_556
Ga0 O3 1.915572 1_655
Ga0 O2 1.915572 1_565
Ga0 O0 1.966033 1_555
Ga1 O6 1.957671 1_655
Ga1 O7 1.988520 1_655
Ga1 O10 2.034583 1_655
Ga1 O1 2.036345 1_555
Ga1 O2 2.049773 1_555
Ga1 O0 2.088677 1_555
Ga2 O11 1.878307 1_555
Ga2 O8 1.878307 1_555
Ga2 O5 1.925141 1_555
Ga2 O1 1.948942 1_555
Ga3 O29 1.964553 1_555
Ga3 O28 1.964553 1_555
Ga3 O31 2.010591 1_555
Ga3 O3 2.052016 1_554
Ga3 O2 2.052016 1_554
Ga3 O0 2.071823 1_554
Ga4 O6 1.957671 1_565
Ga4 O4 1.988520 1_565
Ga4 O10 2.034583 1_565
Ga4 O1 2.036345 1_555
Ga4 O3 2.049773 1_555
Ga4 O0 2.088677 1_555
Ga5 O17 1.969727 1_555
Ga5 O8 2.005087 1_545
Ga5 O18 2.010772 1_545
Ga5 O14 2.044027 1_545
Ga5 O9 2.045031 1_555
Ga5 O5 2.047205 1_555
Ga6 O13 1.969727 1_555
Ga6 O11 2.005087 1_455
Ga6 O18 2.010772 1_455
Ga6 O14 2.044027 1_455
Ga6 O9 2.045031 1_555
Ga6 O5 2.047205 1_555
Ga7 O9 1.893794 1_555
Ga7 O16 1.914683 1_555
Ga7 O19 1.914683 1_555
Ga7 O12 1.966992 1_555
Ga8 O22 1.969604 1_565
Ga8 O23 1.975705 1_555
Ga8 O27 2.012624 1_555
Ga8 O16 2.043838 1_555
Ga8 O15 2.056571 1_565
Ga8 O12 2.078330 1_565
Ga9 O20 1.969604 1_655
Ga9 O23 1.975705 1_555
Ga9 O27 2.012624 1_555
Ga9 O19 2.043838 1_555
Ga9 O15 2.056571 1_655
Ga9 O12 2.078330 1_655
Ga10 O4 1.874065 1_565
Ga10 O7 1.874065 1_655
Ga10 O14 1.881088 1_555
Ga10 O10 1.912446 1_665
Ga11 O13 1.968859 1_655
Ga11 O17 1.968859 1_565
Ga11 O18 1.997447 1_555
Ga11 O19 2.053081 1_565
Ga11 O16 2.053081 1_655
Ga11 O12 2.091997 1_665
Ga12 O15 1.908031 1_555
Ga12 O26 1.912820 1_545
Ga12 O25 1.912820 1_455
Ga12 O21 1.965413 1_445
Ga13 O29 1.970898 1_555
Ga13 O30 1.970962 1_555
Ga13 O31 2.015254 1_555
Ga13 O25 2.046250 1_455
Ga13 O24 2.052481 1_455
Ga13 O21 2.080877 1_455
Ga14 O22 1.963820 1_565
Ga14 O20 1.963820 1_655
Ga14 O27 2.008668 1_555
Ga14 O26 2.051200 1_555
Ga14 O25 2.051200 1_555
Ga14 O21 2.089063 1_555
Ga15 O28 1.970898 1_555
Ga15 O30 1.970962 1_555
Ga15 O31 2.015254 1_555
Ga15 O26 2.046250 1_545
Ga15 O24 2.052481 1_545
Ga15 O21 2.080877 1_545
Co0 O4 2.065784 1_555
Co0 O7 2.065784 1_555
Co0 O6 2.073552 1_555
Co0 O1 2.104374 1_555
Co0 O3 2.115965 1_555
Co0 O2 2.115965 1_555
Co1 O8 2.083835 1_545
Co1 O11 2.083835 1_455
Co1 O7 2.097135 1_555
Co1 O4 2.097135 1_555
Co1 O5 2.114126 1_555
Co1 O10 2.132372 1_555
Co2 O17 2.066188 1_455
Co2 O13 2.066188 1_545
Co2 O8 2.074417 1_545
Co2 O11 2.074417 1_455
Co2 O14 2.112927 1_445
Co2 O9 2.127526 1_555
Co3 O23 2.065776 1_555
Co3 O22 2.069740 1_565
Co3 O20 2.069740 1_655
Co3 O16 2.108050 1_655
Co3 O19 2.108050 1_565
Co3 O15 2.108479 1_665
Co4 O13 1.984161 1_555
Co4 O17 1.984161 1_555
Co4 O23 1.984994 1_555
Co4 O18 2.008029 1_555
Co5 O30 2.060940 1_555
Co5 O29 2.072745 1_555
Co5 O28 2.072745 1_555
Co5 O24 2.106801 1_555
Co5 O25 2.108227 1_555
Co5 O26 2.108227 1_555
Co6 O20 1.974403 1_555
Co6 O22 1.974403 1_555
Co6 O30 1.976737 1_555
Co6 O27 1.991737 1_555
Co7 O29 1.976815 1_545
Co7 O28 1.976815 1_455
Co7 O31 1.994978 1_555
Co7 O6 2.003441 1_554
