# generated using pymatgen
data_SiO2
_symmetry_space_group_name_H-M   'P 1'
_cell_length_a   12.55944163
_cell_length_b   12.55944163
_cell_length_c   12.57046576
_cell_angle_alpha   90.00000000
_cell_angle_beta   90.00000000
_cell_angle_gamma   114.89434743
_symmetry_Int_Tables_number   1
_chemical_formula_structural   SiO2
_chemical_formula_sum   'Si28 O56'
_cell_volume   1798.62357180
_cell_formula_units_Z   28
loop_
 _symmetry_equiv_pos_site_id
 _symmetry_equiv_pos_as_xyz
  1  'x, y, z'
loop_
 _atom_site_type_symbol
 _atom_site_label
 _atom_site_symmetry_multiplicity
 _atom_site_fract_x
 _atom_site_fract_y
 _atom_site_fract_z
 _atom_site_occupancy
  Si  Si0  1  0.04189581  0.18683100  0.62439798  1
  Si  Si1  1  0.81316900  0.95810419  0.37560202  1
  Si  Si2  1  0.18683100  0.04189581  0.37560202  1
  Si  Si3  1  0.95810419  0.81316900  0.62439798  1
  Si  Si4  1  0.95810419  0.81316900  0.37560202  1
  Si  Si5  1  0.18683100  0.04189581  0.62439798  1
  Si  Si6  1  0.81316900  0.95810419  0.62439798  1
  Si  Si7  1  0.04189581  0.18683100  0.37560202  1
  Si  Si8  1  0.05011836  0.34999476  0.80703776  1
  Si  Si9  1  0.65000524  0.94988164  0.19296224  1
  Si  Si10  1  0.34999476  0.05011836  0.19296224  1
  Si  Si11  1  0.94988164  0.65000524  0.80703776  1
  Si  Si12  1  0.94988164  0.65000524  0.19296224  1
  Si  Si13  1  0.34999476  0.05011836  0.80703776  1
  Si  Si14  1  0.65000524  0.94988164  0.80703776  1
  Si  Si15  1  0.05011836  0.34999476  0.19296224  1
  Si  Si16  1  0.83238528  0.39317490  0.87371986  1
  Si  Si17  1  0.60682510  0.16761472  0.12628014  1
  Si  Si18  1  0.39317490  0.83238528  0.12628014  1
  Si  Si19  1  0.16761472  0.60682510  0.87371986  1
  Si  Si20  1  0.16761472  0.60682510  0.12628014  1
  Si  Si21  1  0.39317490  0.83238528  0.87371986  1
  Si  Si22  1  0.60682510  0.16761472  0.87371986  1
  Si  Si23  1  0.83238528  0.39317490  0.12628014  1
  Si  Si24  1  0.03674487  0.18747832  0.00000000  1
  Si  Si25  1  0.81252168  0.96325513  0.00000000  1
  Si  Si26  1  0.18747832  0.03674487  0.00000000  1
  Si  Si27  1  0.96325513  0.81252168  0.00000000  1
  O  O0  1  0.07033051  0.26802337  0.89544149  1
  O  O1  1  0.73197663  0.92966949  0.10455851  1
  O  O2  1  0.26802337  0.07033051  0.10455851  1
  O  O3  1  0.92966949  0.73197663  0.89544149  1
  O  O4  1  0.92966949  0.73197663  0.10455851  1
  O  O5  1  0.26802337  0.07033051  0.89544149  1
  O  O6  1  0.73197663  0.92966949  0.89544149  1
  O  O7  1  0.07033051  0.26802337  0.10455851  1
  O  O8  1  0.10990391  0.10990391  0.00000000  1
  O  O9  1  0.89009609  0.89009609  0.00000000  1
  O  O10  1  0.89752588  0.10247412  0.00000000  1
  O  O11  1  0.10247412  0.89752588  0.00000000  1
  O  O12  1  0.03819297  0.21544229  0.50000000  1
  O  O13  1  0.78455771  0.96180703  0.50000000  1
  O  O14  1  0.21544229  0.03819297  0.50000000  1
  O  O15  1  0.96180703  0.78455771  0.50000000  1
  O  O16  1  0.91780698  0.08219302  0.65965673  1
  O  O17  1  0.91780698  0.08219302  0.34034327  1
  O  O18  1  0.08219302  0.91780698  0.34034327  1
  O  O19  1  0.08219302  0.91780698  0.65965673  1
  O  O20  1  0.06415153  0.30323790  0.69115398  1
  O  O21  1  0.69676210  0.93584847  0.30884602  1
  O  O22  1  0.30323790  0.06415153  0.30884602  1
  O  O23  1  0.93584847  0.69676210  0.69115398  1
  O  O24  1  0.93584847  0.69676210  0.30884602  1
  O  O25  1  0.30323790  0.06415153  0.69115398  1
  O  O26  1  0.69676210  0.93584847  0.69115398  1
  O  O27  1  0.06415153  0.30323790  0.30884602  1
  O  O28  1  0.14646187  0.14646187  0.64636356  1
  O  O29  1  0.85353813  0.85353813  0.35363644  1
  O  O30  1  0.14646187  0.14646187  0.35363644  1
  O  O31  1  0.85353813  0.85353813  0.64636356  1
  O  O32  1  0.92020658  0.34527462  0.81952478  1
  O  O33  1  0.65472538  0.07979342  0.18047522  1
  O  O34  1  0.34527462  0.92020658  0.18047522  1
  O  O35  1  0.07979342  0.65472538  0.81952478  1
  O  O36  1  0.07979342  0.65472538  0.18047522  1
  O  O37  1  0.34527462  0.92020658  0.81952478  1
  O  O38  1  0.65472538  0.07979342  0.81952478  1
  O  O39  1  0.92020658  0.34527462  0.18047522  1
  O  O40  1  0.14795011  0.48294881  0.82130870  1
  O  O41  1  0.51705119  0.85204989  0.17869130  1
  O  O42  1  0.48294881  0.14795011  0.17869130  1
  O  O43  1  0.85204989  0.51705119  0.82130870  1
  O  O44  1  0.85204989  0.51705119  0.17869130  1
  O  O45  1  0.48294881  0.14795011  0.82130870  1
  O  O46  1  0.51705119  0.85204989  0.82130870  1
  O  O47  1  0.14795011  0.48294881  0.17869130  1
  O  O48  1  0.69868078  0.30131922  0.85314727  1
  O  O49  1  0.69868078  0.30131922  0.14685273  1
  O  O50  1  0.30131922  0.69868078  0.14685273  1
  O  O51  1  0.30131922  0.69868078  0.85314727  1
  O  O52  1  0.85938199  0.40949993  0.00000000  1
  O  O53  1  0.59050007  0.14061801  0.00000000  1
  O  O54  1  0.40949993  0.85938199  0.00000000  1
  O  O55  1  0.14061801  0.59050007  0.00000000  1
loop_
_geom_bond_atom_site_label_1
_geom_bond_atom_site_label_2
_geom_bond_distance
_geom_bond_site_symmetry_2
O0 Si24 1.602977 1_556
O0 Si8 1.606021 1_555
O1 Si25 1.602977 1_555
O1 Si9 1.606021 1_555
O2 Si26 1.602977 1_555
O2 Si10 1.606021 1_555
O3 Si27 1.602977 1_556
O3 Si11 1.606021 1_555
O4 Si27 1.602977 1_555
O4 Si12 1.606021 1_555
O5 Si26 1.602977 1_556
O5 Si13 1.606021 1_555
O6 Si25 1.602977 1_556
O6 Si14 1.606021 1_555
O7 Si24 1.602977 1_555
O7 Si15 1.606021 1_555
O8 Si26 1.595988 1_555
O8 Si24 1.595988 1_555
O9 Si25 1.595988 1_555
O9 Si27 1.595988 1_555
O10 Si24 1.620339 1_655
O10 Si25 1.620339 1_545
O11 Si26 1.620339 1_565
O11 Si27 1.620339 1_455
O12 Si7 1.609547 1_555
O12 Si0 1.609547 1_555
O13 Si1 1.609547 1_555
O13 Si6 1.609547 1_555
O14 Si2 1.609547 1_555
O14 Si5 1.609547 1_555
O15 Si3 1.609547 1_555
O15 Si4 1.609547 1_555
O16 Si0 1.621143 1_655
O16 Si6 1.621143 1_545
O17 Si7 1.621143 1_655
O17 Si1 1.621143 1_545
O18 Si2 1.621143 1_565
O18 Si4 1.621143 1_455
O19 Si5 1.621143 1_565
O19 Si3 1.621143 1_455
O20 Si0 1.604906 1_555
O20 Si8 1.607813 1_555
O21 Si1 1.604906 1_555
O21 Si9 1.607813 1_555
O22 Si2 1.604906 1_555
O22 Si10 1.607813 1_555
O23 Si3 1.604906 1_555
O23 Si11 1.607813 1_555
O24 Si4 1.604906 1_555
O24 Si12 1.607813 1_555
O25 Si5 1.604906 1_555
O25 Si13 1.607813 1_555
O26 Si6 1.604906 1_555
O26 Si14 1.607813 1_555
O27 Si7 1.604906 1_555
O27 Si15 1.607813 1_555
O28 Si0 1.618214 1_555
O28 Si5 1.618214 1_555
O29 Si4 1.618214 1_555
O29 Si1 1.618214 1_555
O30 Si7 1.618214 1_555
O30 Si2 1.618214 1_555
O31 Si3 1.618214 1_555
O31 Si6 1.618214 1_555
O32 Si16 1.612842 1_555
O32 Si8 1.615210 1_655
O33 Si17 1.612842 1_555
O33 Si9 1.615210 1_545
O34 Si18 1.612842 1_555
O34 Si10 1.615210 1_565
O35 Si19 1.612842 1_555
O35 Si11 1.615210 1_455
O36 Si20 1.612842 1_555
O36 Si12 1.615210 1_455
O37 Si21 1.612842 1_555
O37 Si13 1.615210 1_565
O38 Si22 1.612842 1_555
O38 Si14 1.615210 1_545
O39 Si23 1.612842 1_555
O39 Si15 1.615210 1_655
O40 Si19 1.610008 1_555
O40 Si8 1.613350 1_555
O41 Si18 1.610008 1_555
O41 Si9 1.613350 1_555
O42 Si17 1.610008 1_555
O42 Si10 1.613350 1_555
O43 Si16 1.610008 1_555
O43 Si11 1.613350 1_555
O44 Si23 1.610008 1_555
O44 Si12 1.613350 1_555
O45 Si22 1.610008 1_555
O45 Si13 1.613350 1_555
O46 Si21 1.610008 1_555
O46 Si14 1.613350 1_555
O47 Si20 1.610008 1_555
O47 Si15 1.613350 1_555
O48 Si22 1.608325 1_555
O48 Si16 1.608325 1_555
O49 Si23 1.608325 1_555
O49 Si17 1.608325 1_555
O50 Si20 1.608325 1_555
O50 Si18 1.608325 1_555
O51 Si19 1.608325 1_555
O51 Si21 1.608325 1_555
O52 Si16 1.618121 1_554
O52 Si23 1.618121 1_555
O53 Si22 1.618121 1_554
O53 Si17 1.618121 1_555
O54 Si21 1.618121 1_554
O54 Si18 1.618121 1_555
O55 Si19 1.618121 1_554
O55 Si20 1.618121 1_555
