# generated using pymatgen
data_La4Te3N2
_symmetry_space_group_name_H-M   'P 1'
_cell_length_a   7.51634334
_cell_length_b   11.69897623
_cell_length_c   11.87870996
_cell_angle_alpha   90.00000000
_cell_angle_beta   90.00000000
_cell_angle_gamma   90.00000000
_symmetry_Int_Tables_number   1
_chemical_formula_structural   La4Te3N2
_chemical_formula_sum   'La16 Te12 N8'
_cell_volume   1044.53680444
_cell_formula_units_Z   4
loop_
 _symmetry_equiv_pos_site_id
 _symmetry_equiv_pos_as_xyz
  1  'x, y, z'
loop_
 _atom_site_type_symbol
 _atom_site_label
 _atom_site_symmetry_multiplicity
 _atom_site_fract_x
 _atom_site_fract_y
 _atom_site_fract_z
 _atom_site_occupancy
  La  La0  1  0.64740704  0.10902168  0.95023064  1
  La  La1  1  0.85259296  0.60902168  0.04976936  1
  La  La2  1  0.22439210  0.03049935  0.75000000  1
  La  La3  1  0.27560790  0.53049935  0.25000000  1
  La  La4  1  0.77560790  0.96950065  0.25000000  1
  La  La5  1  0.35259296  0.89097832  0.45023064  1
  La  La6  1  0.35259296  0.89097832  0.04976936  1
  La  La7  1  0.91127928  0.34234308  0.25000000  1
  La  La8  1  0.72439210  0.46950065  0.75000000  1
  La  La9  1  0.14740704  0.39097832  0.95023064  1
  La  La10  1  0.08872072  0.65765692  0.75000000  1
  La  La11  1  0.58872072  0.84234308  0.75000000  1
  La  La12  1  0.85259296  0.60902168  0.45023064  1
  La  La13  1  0.64740704  0.10902168  0.54976936  1
  La  La14  1  0.41127928  0.15765692  0.25000000  1
  La  La15  1  0.14740704  0.39097832  0.54976936  1
  Te  Te0  1  0.93252434  0.86331392  0.57812615  1
  Te  Te1  1  0.06747566  0.13668608  0.07812615  1
  Te  Te2  1  0.43252434  0.63668608  0.57812615  1
  Te  Te3  1  0.41804157  0.27112615  0.75000000  1
  Te  Te4  1  0.56747566  0.36331392  0.42187385  1
  Te  Te5  1  0.93252434  0.86331392  0.92187385  1
  Te  Te6  1  0.08195843  0.77112615  0.25000000  1
  Te  Te7  1  0.56747566  0.36331392  0.07812615  1
  Te  Te8  1  0.06747566  0.13668608  0.42187385  1
  Te  Te9  1  0.58195843  0.72887385  0.25000000  1
  Te  Te10  1  0.43252434  0.63668608  0.92187385  1
  Te  Te11  1  0.91804157  0.22887385  0.75000000  1
  N  N0  1  0.05467473  0.46698614  0.37823629  1
  N  N1  1  0.55467473  0.03301386  0.12176371  1
  N  N2  1  0.44532527  0.96698614  0.62176371  1
  N  N3  1  0.94532527  0.53301386  0.62176371  1
  N  N4  1  0.44532527  0.96698614  0.87823629  1
  N  N5  1  0.94532527  0.53301386  0.87823629  1
  N  N6  1  0.55467473  0.03301386  0.37823629  1
  N  N7  1  0.05467473  0.46698614  0.12176371  1
loop_
_geom_bond_atom_site_label_1
_geom_bond_atom_site_label_2
_geom_bond_distance
_geom_bond_site_symmetry_2
La0 N1 2.329871 1_556
La0 N4 2.408240 1_545
La0 Te7 3.394024 1_556
La0 Te11 3.429445 1_555
La0 Te3 3.496550 1_555
La0 Te1 3.518787 1_656
La0 Te5 3.601250 1_545
La1 N5 2.329871 1_554
La1 N7 2.408240 1_655
La1 Te5 3.394024 1_554
La1 Te9 3.429445 1_555
La1 Te6 3.496550 1_655
La1 Te10 3.518787 1_554
La1 Te7 3.601250 1_555
La2 N4 2.372787 1_545
La2 N2 2.372787 1_545
La2 Te3 3.169117 1_555
La2 Te11 3.269273 1_455
La2 Te0 3.578616 1_445
La2 Te5 3.578616 1_445
La3 N7 2.372787 1_555
La3 N0 2.372787 1_555
La3 Te6 3.169117 1_555
La3 Te9 3.269273 1_555
La3 Te4 3.578616 1_555
La3 Te7 3.578616 1_555
La4 N6 2.372787 1_565
La4 N1 2.372787 1_565
La4 Te9 3.169117 1_555
La4 Te6 3.269273 1_655
La4 Te8 3.578616 1_665
La4 Te1 3.578616 1_665
La5 N2 2.329871 1_555
La5 N6 2.408240 1_565
La5 Te2 3.394024 1_555
La5 Te6 3.429445 1_555
La5 Te9 3.496550 1_555
La5 Te0 3.518787 1_455
La5 Te8 3.601250 1_565
La6 N4 2.329871 1_554
La6 N1 2.408240 1_565
La6 Te10 3.394024 1_554
La6 Te6 3.429445 1_555
La6 Te9 3.496550 1_555
La6 Te5 3.518787 1_454
La6 Te1 3.601250 1_565
La7 N7 2.368205 1_655
La7 N0 2.368205 1_655
La7 Te7 3.302468 1_555
La7 Te4 3.302468 1_555
La7 Te1 3.366801 1_655
La7 Te8 3.366801 1_655
La8 N3 2.372787 1_555
La8 N5 2.372787 1_555
La8 Te11 3.169117 1_555
La8 Te3 3.269273 1_555
La8 Te10 3.578616 1_555
La8 Te2 3.578616 1_555
La9 N7 2.329871 1_556
La9 N5 2.408240 1_455
La9 Te1 3.394024 1_556
La9 Te3 3.429445 1_555
La9 Te11 3.496550 1_455
La9 Te7 3.518787 1_556
La9 Te10 3.601250 1_555
La10 N5 2.368205 1_455
La10 N3 2.368205 1_455
La10 Te2 3.302468 1_555
La10 Te10 3.302468 1_555
La10 Te5 3.366801 1_455
La10 Te0 3.366801 1_455
La11 N2 2.368205 1_555
La11 N4 2.368205 1_555
La11 Te0 3.302468 1_555
La11 Te5 3.302468 1_555
La11 Te2 3.366801 1_555
La11 Te10 3.366801 1_555
La12 N3 2.329871 1_555
La12 N0 2.408240 1_655
La12 Te0 3.394024 1_555
La12 Te9 3.429445 1_555
La12 Te6 3.496550 1_655
La12 Te2 3.518787 1_555
La12 Te4 3.601250 1_555
La13 N6 2.329871 1_555
La13 N2 2.408240 1_545
La13 Te4 3.394024 1_555
La13 Te11 3.429445 1_555
La13 Te3 3.496550 1_555
La13 Te8 3.518787 1_655
La13 Te0 3.601250 1_545
La14 N6 2.368205 1_555
La14 N1 2.368205 1_555
La14 Te8 3.302468 1_555
La14 Te1 3.302468 1_555
La14 Te7 3.366801 1_555
La14 Te4 3.366801 1_555
La15 N0 2.329871 1_555
La15 N3 2.408240 1_455
La15 Te8 3.394024 1_555
La15 Te3 3.429445 1_555
La15 Te11 3.496550 1_455
La15 Te4 3.518787 1_555
La15 Te2 3.601250 1_555
