# generated using pymatgen
data_Mg5(Si8Pd5)2
_symmetry_space_group_name_H-M   'P 1'
_cell_length_a   8.89735921
_cell_length_b   8.89736940
_cell_length_c   8.89732764
_cell_angle_alpha   60.00054246
_cell_angle_beta   60.00036254
_cell_angle_gamma   60.00048552
_symmetry_Int_Tables_number   1
_chemical_formula_structural   Mg5(Si8Pd5)2
_chemical_formula_sum   'Mg5 Si16 Pd10'
_cell_volume   498.04879791
_cell_formula_units_Z   1
loop_
 _symmetry_equiv_pos_site_id
 _symmetry_equiv_pos_as_xyz
  1  'x, y, z'
loop_
 _atom_site_type_symbol
 _atom_site_label
 _atom_site_symmetry_multiplicity
 _atom_site_fract_x
 _atom_site_fract_y
 _atom_site_fract_z
 _atom_site_occupancy
  Mg  Mg0  1  0.21004604  0.59665133  0.59665251  1
  Mg  Mg1  1  0.59665118  0.59665002  0.21004816  1
  Mg  Mg2  1  0.59664765  0.59664635  0.59664881  1
  Mg  Mg3  1  0.59665186  0.21004441  0.59665314  1
  Mg  Mg4  1  0.24998221  0.24999091  0.25000230  1
  Si  Si0  1  0.20490156  0.66263773  0.20490513  1
  Si  Si1  1  0.92754925  0.66264063  0.20490418  1
  Si  Si2  1  0.20490402  0.20490170  0.66263880  1
  Si  Si3  1  0.66263945  0.20490199  0.20490215  1
  Si  Si4  1  0.92754940  0.20490313  0.66264282  1
  Si  Si5  1  0.20490467  0.66264022  0.92755100  1
  Si  Si6  1  0.92754996  0.20490178  0.20490123  1
  Si  Si7  1  0.66264663  0.92754838  0.20490245  1
  Si  Si8  1  0.20490130  0.92754778  0.20490308  1
  Si  Si9  1  0.20490746  0.92754777  0.66263858  1
  Si  Si10  1  0.53508567  0.82163980  0.82164073  1
  Si  Si11  1  0.82163395  0.82163934  0.82163483  1
  Si  Si12  1  0.66264310  0.20490297  0.92755076  1
  Si  Si13  1  0.82164196  0.82163887  0.53508562  1
  Si  Si14  1  0.82163867  0.53508418  0.82163927  1
  Si  Si15  1  0.20490153  0.20490118  0.92755049  1
  Pd  Pd0  1  0.98611572  0.98611272  0.51388326  1
  Pd  Pd1  1  0.51392355  0.98607463  0.51391771  1
  Pd  Pd2  1  0.98609518  0.51389986  0.98609367  1
  Pd  Pd3  1  0.37701771  0.37701927  0.86894608  1
  Pd  Pd4  1  0.37701991  0.37701812  0.37702135  1
  Pd  Pd5  1  0.86893995  0.37702104  0.37701884  1
  Pd  Pd6  1  0.98607579  0.51391751  0.51392122  1
  Pd  Pd7  1  0.51392059  0.51391969  0.98607671  1
  Pd  Pd8  1  0.37702658  0.86894204  0.37701380  1
  Pd  Pd9  1  0.51388351  0.98611265  0.98611134  1
loop_
_geom_bond_atom_site_label_1
_geom_bond_atom_site_label_2
_geom_bond_distance
_geom_bond_site_symmetry_2
Mg0 Pd4 2.803012 1_555
Mg0 Pd3 2.803031 1_555
Mg0 Pd8 2.803064 1_555
Mg0 Pd6 2.920656 1_455
Mg0 Pd2 2.920673 1_455
Mg0 Pd0 2.920780 1_455
Mg1 Pd8 2.802986 1_555
Mg1 Pd5 2.802995 1_555
Mg1 Pd4 2.803013 1_555
Mg1 Pd7 2.920634 1_554
Mg1 Pd2 2.920704 1_554
Mg1 Pd9 2.920800 1_554
Mg2 Pd5 2.802975 1_555
Mg2 Pd8 2.802991 1_555
Mg2 Pd3 2.802997 1_555
Mg2 Pd7 2.920624 1_555
Mg2 Pd6 2.920632 1_555
Mg2 Pd1 2.920642 1_555
Mg3 Pd4 2.803013 1_555
Mg3 Pd5 2.803022 1_555
Mg3 Pd3 2.803037 1_555
Mg3 Pd1 2.920644 1_545
Mg3 Pd9 2.920750 1_545
Mg3 Pd0 2.920792 1_545
Mg4 Pd5 2.768158 1_455
Mg4 Pd8 2.768214 1_545
Mg4 Pd3 2.768251 1_554
Mg4 Pd4 2.768435 1_555
Si0 Si8 2.356992 1_555
Si0 Si5 2.467686 1_554
Si0 Si1 2.467694 1_455
Si1 Si7 2.356975 1_555
Si1 Si5 2.467730 1_654
Si2 Si4 2.467699 1_455
Si2 Si9 2.467706 1_545
Si3 Si6 2.356999 1_555
Si3 Si7 2.467684 1_545
Si4 Si9 2.467762 1_645
Si5 Si9 2.357016 1_555
Si6 Si8 2.467726 1_645
Si12 Si4 2.356983 1_555
Si12 Si3 2.467666 1_556
Si12 Si7 2.467728 1_546
Si15 Si2 2.356993 1_555
Si15 Si6 2.467702 1_456
Si15 Si8 2.467726 1_546
Pd0 Si13 2.430621 1_555
Pd0 Si11 2.430688 1_555
Pd0 Si8 2.585563 1_655
Pd0 Si9 2.585576 1_655
Pd0 Si4 2.585589 1_565
Pd0 Si6 2.585589 1_565
Pd1 Si13 2.430325 1_555
Pd1 Si10 2.430336 1_555
Pd1 Si7 2.585715 1_555
Pd1 Si9 2.585737 1_555
Pd1 Si3 2.585749 1_565
Pd1 Si2 2.585780 1_565
Pd2 Si14 2.430418 1_555
Pd2 Si11 2.430534 1_555
Pd2 Si15 2.585658 1_655
Pd2 Si6 2.585664 1_556
Pd2 Si1 2.585694 1_556
Pd2 Si5 2.585704 1_655
Pd3 Si5 2.389574 1_555
Pd3 Si12 2.389607 1_555
Pd3 Si15 2.389628 1_555
Pd4 Si2 2.389586 1_555
Pd4 Si3 2.389605 1_555
Pd4 Si0 2.389610 1_555
Pd5 Si1 2.389583 1_555
Pd5 Si4 2.389608 1_555
Pd5 Si6 2.389620 1_555
Pd6 Si14 2.430307 1_555
Pd6 Si13 2.430339 1_555
Pd6 Si4 2.585726 1_555
Pd6 Si1 2.585736 1_555
Pd6 Si0 2.585756 1_655
Pd6 Si2 2.585766 1_655
Pd7 Si14 2.430309 1_555
Pd7 Si10 2.430333 1_555
Pd7 Si5 2.585733 1_555
Pd7 Si12 2.585739 1_555
Pd7 Si3 2.585764 1_556
Pd7 Si0 2.585770 1_556
Pd8 Si7 2.389569 1_555
Pd8 Si9 2.389594 1_555
Pd8 Si8 2.389632 1_555
Pd9 Si10 2.430584 1_555
Pd9 Si11 2.430668 1_555
Pd9 Si15 2.585578 1_565
Pd9 Si8 2.585591 1_556
Pd9 Si12 2.585616 1_565
Pd9 Si7 2.585626 1_556
