# generated using pymatgen
data_Al2CrCl8
_symmetry_space_group_name_H-M   'P 1'
_cell_length_a   6.19034700
_cell_length_b   13.78508300
_cell_length_c   15.71986900
_cell_angle_alpha   90.00000000
_cell_angle_beta   90.00000000
_cell_angle_gamma   90.00000000
_symmetry_Int_Tables_number   1
_chemical_formula_structural   Al2CrCl8
_chemical_formula_sum   'Al8 Cr4 Cl32'
_cell_volume   1341.44633107
_cell_formula_units_Z   4
loop_
 _symmetry_equiv_pos_site_id
 _symmetry_equiv_pos_as_xyz
  1  'x, y, z'
loop_
 _atom_site_type_symbol
 _atom_site_label
 _atom_site_symmetry_multiplicity
 _atom_site_fract_x
 _atom_site_fract_y
 _atom_site_fract_z
 _atom_site_occupancy
  Al  Al0  1  0.88454800  0.09025400  0.74256800  1
  Al  Al1  1  0.60406200  0.90979400  0.00540600  1
  Al  Al2  1  0.39593800  0.40979400  0.99459400  1
  Al  Al3  1  0.88454800  0.59025400  0.75743200  1
  Al  Al4  1  0.60406200  0.40979400  0.49459400  1
  Al  Al5  1  0.11545200  0.09025400  0.24256800  1
  Al  Al6  1  0.11545200  0.59025400  0.25743200  1
  Al  Al7  1  0.39593800  0.90979400  0.50540600  1
  Cr  Cr0  1  0.24575700  0.00000500  0.87345000  1
  Cr  Cr1  1  0.75424300  0.50000500  0.12655000  1
  Cr  Cr2  1  0.75424300  0.00000500  0.37345000  1
  Cr  Cr3  1  0.24575700  0.50000500  0.62655000  1
  Cl  Cl0  1  0.00133400  0.66587500  0.36513500  1
  Cl  Cl1  1  0.94898000  0.41118700  0.49841900  1
  Cl  Cl2  1  0.46046700  0.08919400  0.24705200  1
  Cl  Cl3  1  0.53953300  0.58919400  0.75294800  1
  Cl  Cl4  1  0.46485200  0.55785700  0.51081000  1
  Cl  Cl5  1  0.05102000  0.41118700  0.99841900  1
  Cl  Cl6  1  0.53806100  0.85470100  0.38421600  1
  Cl  Cl7  1  0.02783600  0.64478900  0.63644100  1
  Cl  Cl8  1  0.99866600  0.66587500  0.86513500  1
  Cl  Cl9  1  0.46046700  0.58919400  0.25294800  1
  Cl  Cl10  1  0.02523000  0.94210100  0.75781200  1
  Cl  Cl11  1  0.46485200  0.05785700  0.98919000  1
  Cl  Cl12  1  0.05102000  0.91118700  0.50158100  1
  Cl  Cl13  1  0.48696600  0.83503300  0.11314800  1
  Cl  Cl14  1  0.53514800  0.55785700  0.01081000  1
  Cl  Cl15  1  0.51303400  0.33503300  0.88685200  1
  Cl  Cl16  1  0.97477000  0.94210100  0.25781200  1
  Cl  Cl17  1  0.51303400  0.83503300  0.61314800  1
  Cl  Cl18  1  0.46193900  0.85470100  0.88421600  1
  Cl  Cl19  1  0.46193900  0.35470100  0.61578400  1
  Cl  Cl20  1  0.00133400  0.16587500  0.13486500  1
  Cl  Cl21  1  0.02523000  0.44210100  0.74218800  1
  Cl  Cl22  1  0.02783600  0.14478900  0.86355900  1
  Cl  Cl23  1  0.53514800  0.05785700  0.48919000  1
  Cl  Cl24  1  0.97477000  0.44210100  0.24218800  1
  Cl  Cl25  1  0.97216400  0.64478900  0.13644100  1
  Cl  Cl26  1  0.53806100  0.35470100  0.11578400  1
  Cl  Cl27  1  0.99866600  0.16587500  0.63486500  1
  Cl  Cl28  1  0.48696600  0.33503300  0.38685200  1
  Cl  Cl29  1  0.53953300  0.08919400  0.74705200  1
  Cl  Cl30  1  0.94898000  0.91118700  0.00158100  1
  Cl  Cl31  1  0.97216400  0.14478900  0.36355900  1
loop_
_geom_bond_atom_site_label_1
_geom_bond_atom_site_label_2
_geom_bond_distance
_geom_bond_site_symmetry_2
Al0 Cl27 2.110033 1_555
Al0 Cl29 2.136975 1_555
Al0 Cl22 2.229213 1_655
Al0 Cl10 2.233122 1_645
Al1 Cl13 2.110953 1_555
Al1 Cl30 2.136095 1_555
Al1 Cl11 2.230143 1_564
Al1 Cl18 2.231633 1_554
Al2 Cl15 2.110953 1_555
Al2 Cl5 2.136095 1_555
Al2 Cl14 2.230143 1_556
Al2 Cl26 2.231633 1_556
Al3 Cl8 2.110033 1_555
Al3 Cl3 2.136975 1_555
Al3 Cl7 2.229213 1_655
Al3 Cl21 2.233122 1_655
Al4 Cl28 2.110953 1_555
Al4 Cl1 2.136095 1_555
Al4 Cl4 2.230143 1_555
Al4 Cl19 2.231633 1_555
Al5 Cl20 2.110033 1_555
Al5 Cl2 2.136975 1_555
Al5 Cl31 2.229213 1_455
Al5 Cl16 2.233122 1_445
Al6 Cl0 2.110033 1_555
Al6 Cl9 2.136975 1_555
Al6 Cl25 2.229213 1_455
Al6 Cl24 2.233122 1_455
Al7 Cl17 2.110953 1_555
Al7 Cl12 2.136095 1_555
Al7 Cl23 2.230143 1_565
Al7 Cl6 2.231633 1_555
Cl1 Cr3 2.988513 1_655
Cl2 Cr2 2.960885 1_555
Cl3 Cr3 2.960885 1_555
Cl4 Cr3 2.405360 1_555
Cl5 Cr1 2.988513 1_456
Cl6 Cr2 2.414882 1_565
Cl7 Cr3 2.414011 1_555
Cl9 Cr1 2.960885 1_555
Cl10 Cr0 2.409397 1_565
Cl11 Cr0 2.405360 1_555
Cl12 Cr2 2.988513 1_465
Cl14 Cr1 2.405360 1_555
Cl16 Cr2 2.409397 1_565
Cl18 Cr0 2.414882 1_565
Cl19 Cr3 2.414882 1_555
Cl21 Cr3 2.409397 1_555
Cl22 Cr0 2.414011 1_555
Cl23 Cr2 2.405360 1_555
Cl24 Cr1 2.409397 1_555
Cl25 Cr1 2.414011 1_555
Cl26 Cr1 2.414882 1_555
Cl29 Cr0 2.960885 1_555
Cl30 Cr0 2.988513 1_664
Cl31 Cr2 2.414011 1_555
