# generated using pymatgen
data_Yb(PO3)3
_symmetry_space_group_name_H-M   'P 1'
_cell_length_a   20.52292700
_cell_length_b   10.31892000
_cell_length_c   11.59716889
_cell_angle_alpha   82.54938646
_cell_angle_beta   90.00000000
_cell_angle_gamma   90.00000000
_symmetry_Int_Tables_number   1
_chemical_formula_structural   Yb(PO3)3
_chemical_formula_sum   'Yb12 P36 O108'
_cell_volume   2435.24809787
_cell_formula_units_Z   12
loop_
 _symmetry_equiv_pos_site_id
 _symmetry_equiv_pos_as_xyz
  1  'x, y, z'
loop_
 _atom_site_type_symbol
 _atom_site_label
 _atom_site_symmetry_multiplicity
 _atom_site_fract_x
 _atom_site_fract_y
 _atom_site_fract_z
 _atom_site_occupancy
  Yb  Yb0  1  0.65763700  0.98196100  0.49912400  1
  Yb  Yb1  1  0.32438900  0.01966600  0.99948800  1
  Yb  Yb2  1  0.67561100  0.98033400  0.00051200  1
  Yb  Yb3  1  0.82438900  0.48033400  0.00051200  1
  Yb  Yb4  1  0.00000000  0.00000000  0.00000000  1
  Yb  Yb5  1  0.84236300  0.48196100  0.49912400  1
  Yb  Yb6  1  0.15763700  0.51803900  0.50087600  1
  Yb  Yb7  1  0.34236300  0.01803900  0.50087600  1
  Yb  Yb8  1  0.00000000  0.00000000  0.50000000  1
  Yb  Yb9  1  0.50000000  0.50000000  0.00000000  1
  Yb  Yb10  1  0.50000000  0.50000000  0.50000000  1
  Yb  Yb11  1  0.17561100  0.51966600  0.99948800  1
  P  P0  1  0.22114800  0.82210200  0.35595500  1
  P  P1  1  0.05213900  0.53116100  0.23801900  1
  P  P2  1  0.55213900  0.96883900  0.76198100  1
  P  P3  1  0.43875100  0.81079100  0.86077000  1
  P  P4  1  0.06124900  0.31079100  0.86077000  1
  P  P5  1  0.56124900  0.18920900  0.13923000  1
  P  P6  1  0.72114800  0.67789800  0.64404500  1
  P  P7  1  0.45692800  0.18136100  0.67972700  1
  P  P8  1  0.37575100  0.32412900  0.85251800  1
  P  P9  1  0.38951100  0.48088500  0.25407100  1
  P  P10  1  0.20840900  0.19119800  0.16705500  1
  P  P11  1  0.62424900  0.67587100  0.14748200  1
  P  P12  1  0.44786100  0.03116100  0.23801900  1
  P  P13  1  0.12424900  0.82412900  0.85251800  1
  P  P14  1  0.27661000  0.50450400  0.73762500  1
  P  P15  1  0.77885200  0.17789800  0.64404500  1
  P  P16  1  0.70840900  0.30880200  0.83294500  1
  P  P17  1  0.61048900  0.51911500  0.74592900  1
  P  P18  1  0.27885200  0.32210200  0.35595500  1
  P  P19  1  0.11048900  0.98088500  0.25407100  1
  P  P20  1  0.04307200  0.68136100  0.67972700  1
  P  P21  1  0.87575100  0.17587100  0.14748200  1
  P  P22  1  0.88951100  0.01911500  0.74592900  1
  P  P23  1  0.22339000  0.00450400  0.73762500  1
  P  P24  1  0.94786100  0.46883900  0.76198100  1
  P  P25  1  0.93875100  0.68920900  0.13923000  1
  P  P26  1  0.11384900  0.19276900  0.65339000  1
  P  P27  1  0.88615100  0.80723100  0.34661000  1
  P  P28  1  0.38615100  0.69276900  0.65339000  1
  P  P29  1  0.54307200  0.81863900  0.32027300  1
  P  P30  1  0.61384900  0.30723100  0.34661000  1
  P  P31  1  0.77661000  0.99549600  0.26237500  1
  P  P32  1  0.79159100  0.80880200  0.83294500  1
  P  P33  1  0.95692800  0.31863900  0.32027300  1
  P  P34  1  0.72339000  0.49549600  0.26237500  1
  P  P35  1  0.29159100  0.69119800  0.16705500  1
  O  O0  1  0.91183000  0.45822900  0.65134700  1
  O  O1  1  0.48115500  0.29684300  0.60034800  1
  O  O2  1  0.89139700  0.76568500  0.21785000  1
  O  O3  1  0.58817000  0.95822900  0.65134700  1
  O  O4  1  0.76217400  0.57031800  0.60628100  1
  O  O5  1  0.03546700  0.21313800  0.95652300  1
  O  O6  1  0.68547700  0.76368900  0.55032100  1
  O  O7  1  0.75812400  0.96241300  0.14480800  1
  O  O8  1  0.87995900  0.68977600  0.43609000  1
  O  O9  1  0.41283300  0.48948700  0.37547900  1
  O  O10  1  0.98352700  0.60857200  0.75173900  1
  O  O11  1  0.31452300  0.23631100  0.44967900  1
  O  O12  1  0.08817000  0.54177100  0.34865300  1
  O  O13  1  0.76689900  0.77232700  0.70892200  1
  O  O14  1  0.82843900  0.11904700  0.74570200  1
  O  O15  1  0.99452700  0.63803400  0.23225600  1
  O  O16  1  0.68342800  0.37882600  0.33733200  1
  O  O17  1  0.09749900  0.42610700  0.89524000  1
  O  O18  1  0.06030700  0.09893400  0.63397700  1
  O  O19  1  0.83781600  0.26056800  0.05729900  1
  O  O20  1  0.12004100  0.31022400  0.56391000  1
  O  O21  1  0.30517300  0.81364500  0.08758300  1
  O  O22  1  0.67156100  0.61904700  0.74570200  1
  O  O23  1  0.80517300  0.68635500  0.91241700  1
  O  O24  1  0.17156100  0.88095300  0.25429800  1
  O  O25  1  0.77726500  0.52964900  0.33923400  1
  O  O26  1  0.62004100  0.18977600  0.43609000  1
  O  O27  1  0.23782600  0.42968200  0.39371900  1
  O  O28  1  0.14010800  0.12169400  0.20248100  1
  O  O29  1  0.08379200  0.58353200  0.62733000  1
  O  O30  1  0.43969300  0.59893400  0.63397700  1
  O  O31  1  0.58089300  0.77131500  0.21277900  1
  O  O32  1  0.58279000  0.57153900  0.10678200  1
  O  O33  1  0.06207200  0.94393200  0.16682800  1
  O  O34  1  0.91620800  0.41646800  0.37267000  1
  O  O35  1  0.31657200  0.62117400  0.66266800  1
  O  O36  1  0.39139700  0.73431500  0.78215000  1
  O  O37  1  0.73310100  0.27232700  0.70892200  1
  O  O38  1  0.96453300  0.78686200  0.04347700  1
  O  O39  1  0.51647300  0.10857200  0.75173900  1
  O  O40  1  0.46453300  0.71313800  0.95652300  1
  O  O41  1  0.22273500  0.47035100  0.66076600  1
  O  O42  1  0.18342800  0.12117400  0.66266800  1
  O  O43  1  0.08716700  0.98948700  0.37547900  1
  O  O44  1  0.90975200  0.45503800  0.87315000  1
  O  O45  1  0.60860300  0.26568500  0.21785000  1
  O  O46  1  0.32843900  0.38095300  0.25429800  1
  O  O47  1  0.24566300  0.59329900  0.12677000  1
  O  O48  1  0.85989200  0.87830600  0.79751900  1
  O  O49  1  0.18547700  0.73631100  0.44967900  1
  O  O50  1  0.16218400  0.73943200  0.94270100  1
  O  O51  1  0.25433700  0.09329900  0.12677000  1
  O  O52  1  0.69482700  0.18635500  0.91241700  1
  O  O53  1  0.58716700  0.51051300  0.62452100  1
  O  O54  1  0.56207200  0.55606800  0.83317200  1
  O  O55  1  0.91721000  0.07153900  0.10678200  1
  O  O56  1  0.66218400  0.76056800  0.05729900  1
  O  O57  1  0.90250100  0.57389300  0.10476000  1
  O  O58  1  0.19482700  0.31364500  0.08758300  1
  O  O59  1  0.59024800  0.95503800  0.87315000  1
  O  O60  1  0.40250100  0.92610700  0.89524000  1
  O  O61  1  0.43792800  0.44393200  0.16682800  1
  O  O62  1  0.81657200  0.87882600  0.33733200  1
  O  O63  1  0.67078400  0.61359200  0.25225600  1
  O  O64  1  0.75433700  0.40670100  0.87323000  1
  O  O65  1  0.25812400  0.53758700  0.85519200  1
  O  O66  1  0.17078400  0.88640800  0.74774400  1
  O  O67  1  0.50547300  0.13803400  0.23225600  1
  O  O68  1  0.41183000  0.04177100  0.34865300  1
  O  O69  1  0.08279000  0.92846100  0.89321800  1
  O  O70  1  0.58379200  0.91646800  0.37267000  1
  O  O71  1  0.74187600  0.46241300  0.14480800  1
  O  O72  1  0.81452300  0.26368900  0.55032100  1
  O  O73  1  0.32921600  0.38640800  0.74774400  1
  O  O74  1  0.74566300  0.90670100  0.87323000  1
  O  O75  1  0.26217400  0.92968200  0.39371900  1
  O  O76  1  0.72273500  0.02964900  0.33923400  1
  O  O77  1  0.41721000  0.42846100  0.89321800  1
  O  O78  1  0.09024800  0.54496200  0.12685000  1
  O  O79  1  0.73782600  0.07031800  0.60628100  1
  O  O80  1  0.26689900  0.72767300  0.29107800  1
  O  O81  1  0.82921600  0.11359200  0.25225600  1
  O  O82  1  0.08089300  0.72868500  0.78722100  1
  O  O83  1  0.93792800  0.05606800  0.83317200  1
  O  O84  1  0.24187600  0.03758700  0.85519200  1
  O  O85  1  0.27726500  0.97035100  0.66076600  1
  O  O86  1  0.40975200  0.04496200  0.12685000  1
  O  O87  1  0.10860300  0.23431500  0.78215000  1
  O  O88  1  0.41620800  0.08353200  0.62733000  1
  O  O89  1  0.64010800  0.37830600  0.79751900  1
  O  O90  1  0.98115500  0.20315700  0.39965200  1
  O  O91  1  0.37995900  0.81022400  0.56391000  1
  O  O92  1  0.51884500  0.70315700  0.39965200  1
  O  O93  1  0.01884500  0.79684300  0.60034800  1
  O  O94  1  0.23310100  0.22767300  0.29107800  1
  O  O95  1  0.01647300  0.39142800  0.24826100  1
  O  O96  1  0.00547300  0.36196600  0.76774400  1
  O  O97  1  0.91283300  0.01051300  0.62452100  1
  O  O98  1  0.53546700  0.28686200  0.04347700  1
  O  O99  1  0.33781600  0.23943200  0.94270100  1
  O  O100  1  0.91910700  0.27131500  0.21277900  1
  O  O101  1  0.48352700  0.89142800  0.24826100  1
  O  O102  1  0.93969300  0.90106600  0.36602300  1
  O  O103  1  0.49452700  0.86196600  0.76774400  1
  O  O104  1  0.59749900  0.07389300  0.10476000  1
  O  O105  1  0.35989200  0.62169400  0.20248100  1
  O  O106  1  0.56030700  0.40106600  0.36602300  1
  O  O107  1  0.41910700  0.22868500  0.78722100  1
loop_
_geom_bond_atom_site_label_1
_geom_bond_atom_site_label_2
_geom_bond_distance
_geom_bond_site_symmetry_2
O0 P24 1.497136 1_555
O0 Yb5 2.257622 1_555
O1 P7 1.493385 1_555
O1 Yb10 2.294760 1_555
O2 P25 1.607844 1_555
O2 P27 1.609723 1_555
O3 P2 1.497136 1_555
O3 Yb0 2.257622 1_555
O4 P6 1.503048 1_555
O4 Yb5 2.319020 1_555
O5 P4 1.496096 1_555
O5 Yb4 2.309461 1_556
O6 P6 1.500504 1_555
O6 Yb0 2.324899 1_555
O7 P31 1.496719 1_555
O7 Yb2 2.371060 1_555
O8 P27 1.495254 1_555
O8 Yb5 2.306889 1_555
O9 P9 1.500605 1_555
O9 Yb10 2.310419 1_555
O10 P24 1.607647 1_555
O10 P20 1.610064 1_655
O11 P18 1.500504 1_555
O11 Yb7 2.324899 1_555
O12 P1 1.497136 1_555
O12 Yb6 2.257622 1_555
O13 P6 1.608510 1_555
O13 P32 1.614810 1_555
O14 P15 1.615132 1_555
O14 P22 1.622840 1_555
O15 P1 1.612309 1_655
O15 P25 1.614097 1_555
O16 P30 1.604944 1_555
O16 P34 1.614395 1_555
O17 P4 1.500863 1_555
O17 Yb11 2.294837 1_555
O18 P26 1.500742 1_555
O18 Yb8 2.323701 1_555
O19 P21 1.492228 1_555
O19 Yb3 2.294560 1_555
O20 P26 1.495254 1_555
O20 Yb6 2.306889 1_555
O21 P35 1.490507 1_555
O21 Yb1 2.270580 1_564
O22 P6 1.615132 1_555
O22 P17 1.622840 1_555
O23 P32 1.490507 1_555
O23 Yb3 2.270580 1_556
O24 P0 1.615132 1_555
O24 P19 1.622840 1_555
O25 P34 1.490866 1_555
O25 Yb5 2.286642 1_555
O26 P30 1.495254 1_555
O26 Yb0 2.306889 1_545
O27 P18 1.503048 1_555
O27 Yb6 2.319020 1_555
O28 P10 1.603628 1_555
O28 P19 1.616543 1_545
O29 P20 1.498595 1_555
O29 Yb6 2.271826 1_555
O30 P28 1.500742 1_555
O30 Yb10 2.323701 1_555
O31 P11 1.590151 1_555
O31 P29 1.597782 1_555
O32 P11 1.495858 1_555
O32 Yb9 2.280900 1_555
O33 P19 1.502164 1_555
O33 Yb4 2.326036 1_565
O34 P33 1.498595 1_555
O34 Yb5 2.271826 1_555
O35 P28 1.604944 1_555
O35 P14 1.614395 1_555
O36 P3 1.607844 1_555
O36 P28 1.609723 1_555
O37 P15 1.608510 1_555
O37 P16 1.614810 1_555
O38 P25 1.496096 1_555
O38 Yb4 2.309461 1_665
O39 P2 1.607647 1_545
O39 P7 1.610064 1_555
O40 P3 1.496096 1_555
O40 Yb9 2.309461 1_556
O41 P14 1.490866 1_555
O41 Yb6 2.286642 1_555
O42 P26 1.604944 1_555
O42 P23 1.614395 1_555
O43 P19 1.500605 1_555
O43 Yb8 2.310419 1_565
O44 P24 1.498837 1_555
O44 Yb3 2.327857 1_556
O45 P5 1.607844 1_555
O45 P30 1.609723 1_555
O46 P18 1.615132 1_555
O46 P9 1.622840 1_555
O47 P35 1.499883 1_555
O47 Yb11 2.261414 1_554
O48 P32 1.603628 1_555
O48 P22 1.616543 1_565
O49 P0 1.500504 1_555
O49 Yb6 2.324899 1_555
O50 P13 1.492228 1_555
O50 Yb11 2.294560 1_555
O51 P10 1.499883 1_555
O51 Yb1 2.261414 1_554
O52 P16 1.490507 1_555
O52 Yb2 2.270580 1_546
O53 P17 1.500605 1_555
O53 Yb10 2.310419 1_555
O54 P17 1.502164 1_555
O54 Yb9 2.326036 1_556
O55 P21 1.495858 1_555
O55 Yb4 2.280900 1_655
O56 P11 1.492228 1_555
O56 Yb2 2.294560 1_555
O57 P25 1.500863 1_555
O57 Yb3 2.294837 1_555
O58 P10 1.490507 1_555
O58 Yb11 2.270580 1_554
O59 P2 1.498837 1_555
O59 Yb2 2.327857 1_556
O60 P3 1.500863 1_555
O60 Yb1 2.294837 1_565
O61 P9 1.502164 1_555
O61 Yb9 2.326036 1_555
O62 P27 1.604944 1_555
O62 P31 1.614395 1_555
O63 P11 1.612142 1_555
O63 P34 1.620902 1_555
O64 P16 1.499883 1_555
O64 Yb3 2.261414 1_556
O65 P14 1.496719 1_555
O65 Yb11 2.371060 1_555
O66 P13 1.612142 1_555
O66 P23 1.620902 1_565
O67 P12 1.612309 1_555
O67 P5 1.614097 1_555
O68 P12 1.497136 1_555
O68 Yb7 2.257622 1_555
O69 P13 1.495858 1_555
O69 Yb4 2.280900 1_566
O70 P29 1.498595 1_555
O70 Yb0 2.271826 1_555
O71 P34 1.496719 1_555
O71 Yb3 2.371060 1_555
O72 P15 1.500504 1_555
O72 Yb5 2.324899 1_555
O73 P8 1.612142 1_555
O73 P14 1.620902 1_555
O74 P32 1.499883 1_555
O74 Yb2 2.261414 1_556
O75 P0 1.503048 1_555
O75 Yb7 2.319020 1_565
O76 P31 1.490866 1_545
O76 Yb0 2.286642 1_545
O77 P8 1.495858 1_555
O77 Yb9 2.280900 1_556
O78 P1 1.498837 1_555
O78 Yb11 2.327857 1_554
O79 P15 1.503048 1_555
O79 Yb0 2.319020 1_545
O80 P0 1.608510 1_555
O80 P35 1.614810 1_555
O81 P21 1.612142 1_555
O81 P31 1.620902 1_545
O82 P13 1.590151 1_555
O82 P20 1.597782 1_555
O83 P22 1.502164 1_555
O83 Yb4 2.326036 1_656
O84 P23 1.496719 1_555
O84 Yb1 2.371060 1_555
O85 P23 1.490866 1_565
O85 Yb7 2.286642 1_565
O86 P12 1.498837 1_555
O86 Yb1 2.327857 1_554
O87 P4 1.607844 1_555
O87 P26 1.609723 1_555
O88 P7 1.498595 1_555
O88 Yb7 2.271826 1_555
O89 P16 1.603628 1_555
O89 P17 1.616543 1_555
O90 P33 1.493385 1_555
O90 Yb8 2.294760 1_655
O91 P28 1.495254 1_555
O91 Yb7 2.306889 1_565
O92 P29 1.493385 1_555
O92 Yb10 2.294760 1_555
O93 P20 1.493385 1_555
O93 Yb8 2.294760 1_565
O94 P18 1.608510 1_555
O94 P10 1.614810 1_555
O95 P1 1.607647 1_555
O95 P33 1.610064 1_455
O96 P24 1.612309 1_455
O96 P4 1.614097 1_555
O97 P22 1.500605 1_555
O97 Yb8 2.310419 1_655
O98 P5 1.496096 1_555
O98 Yb9 2.309461 1_555
O99 P8 1.492228 1_555
O99 Yb1 2.294560 1_555
O100 P21 1.590151 1_555
O100 P33 1.597782 1_555
O101 P12 1.607647 1_565
O101 P29 1.610064 1_555
O102 P27 1.500742 1_555
O102 Yb8 2.323701 1_665
O103 P2 1.612309 1_555
O103 P3 1.614097 1_555
O104 P5 1.500863 1_555
O104 Yb2 2.294837 1_545
O105 P35 1.603628 1_555
O105 P9 1.616543 1_555
O106 P30 1.500742 1_555
O106 Yb10 2.323701 1_555
O107 P8 1.590151 1_555
O107 P7 1.597782 1_555
