# generated using pymatgen
data_LiAlSi2H2O7
_symmetry_space_group_name_H-M   'P 1'
_cell_length_a   6.50949900
_cell_length_b   6.75627251
_cell_length_c   7.30026973
_cell_angle_alpha   62.75705412
_cell_angle_beta   76.78049815
_cell_angle_gamma   73.74495679
_symmetry_Int_Tables_number   1
_chemical_formula_structural   LiAlSi2H2O7
_chemical_formula_sum   'Li2 Al2 Si4 H4 O14'
_cell_volume   272.13188089
_cell_formula_units_Z   2
loop_
 _symmetry_equiv_pos_site_id
 _symmetry_equiv_pos_as_xyz
  1  'x, y, z'
loop_
 _atom_site_type_symbol
 _atom_site_label
 _atom_site_symmetry_multiplicity
 _atom_site_fract_x
 _atom_site_fract_y
 _atom_site_fract_z
 _atom_site_occupancy
  Li  Li0  1  0.92998000  0.37973100  0.57334600  1
  Li  Li1  1  0.43220900  0.48936100  0.62275600  1
  Al  Al0  1  0.00611100  0.67919600  0.73809200  1
  Al  Al1  1  0.55486500  0.96338100  0.03207400  1
  Si  Si0  1  0.45639700  0.66660300  0.88040000  1
  Si  Si1  1  0.17732100  0.12615100  0.86681300  1
  Si  Si2  1  0.73085800  0.48447000  0.23186500  1
  Si  Si3  1  0.04751700  0.08270800  0.30156700  1
  H  H0  1  0.60946700  0.90281700  0.26027000  1
  H  H1  1  0.68408100  0.77229500  0.57392300  1
  H  H2  1  0.99936200  0.04714000  0.84948400  1
  H  H3  1  0.30023300  0.15543600  0.41775000  1
  O  O0  1  0.26306200  0.71589100  0.74813300  1
  O  O1  1  0.14684600  0.20971400  0.40010700  1
  O  O2  1  0.83764500  0.81577100  0.91397800  1
  O  O3  1  0.97912400  0.85449600  0.47533500  1
  O  O4  1  0.11913400  0.40064800  0.73340300  1
  O  O5  1  0.41606500  0.98306200  0.80536700  1
  O  O6  1  0.53638700  0.26675500  0.88222200  1
  O  O7  1  0.84977800  0.26751700  0.17381700  1
  O  O8  1  0.69330000  0.65859900  0.71856900  1
  O  O9  1  0.47695100  0.37649700  0.02640300  1
  O  O10  1  0.51510000  0.65127900  0.11066400  1
  O  O11  1  0.68507700  0.41151100  0.47174800  1
  O  O12  1  0.92011900  0.65587500  0.11697600  1
  O  O13  1  0.21971100  0.03539600  0.11313900  1
loop_
_geom_bond_atom_site_label_1
_geom_bond_atom_site_label_2
_geom_bond_distance
_geom_bond_site_symmetry_2
Li0 O11 1.827849 1_555
Li0 O4 1.951404 1_655
Li0 O1 2.125425 1_655
Li1 O11 1.848684 1_555
Li1 O6 1.928236 1_555
Li1 O0 2.066565 1_555
Li1 O4 2.157006 1_555
Al0 O3 1.752361 1_455
Al0 O0 1.780271 1_555
Al0 O4 1.832078 1_555
Al0 O2 1.891286 1_455
Al0 O8 2.120256 1_455
Al1 H0 1.623044 1_555
Al1 O6 1.811546 1_564
Al1 O10 1.993139 1_555
Al1 O5 1.997074 1_554
Al1 O2 2.039578 1_554
Al1 O13 2.103700 1_565
H1 O8 0.984512 1_555
H2 Si1 1.455321 1_655
H2 Li0 2.240127 1_555
H3 O1 0.979085 1_555
O0 Si0 1.629078 1_555
O1 Si3 1.661430 1_555
O3 Si3 1.587465 1_665
O4 Si1 1.628886 1_555
O5 Si1 1.669773 1_565
O5 Si0 1.902541 1_555
O6 O9 1.474775 1_556
O7 Si3 1.633653 1_655
O7 Si2 1.646450 1_555
O8 Si0 1.719108 1_555
O9 Si0 1.732471 1_554
O10 Si2 1.671783 1_555
O10 Si0 1.759196 1_554
O11 Si2 1.565813 1_555
O12 O2 1.491612 1_554
O12 Si2 1.731832 1_555
O13 Si3 1.657581 1_555
O13 Si1 1.675872 1_554
