# generated using pymatgen
data_Ca2Zr5Ti2O16
_symmetry_space_group_name_H-M   'P 1'
_cell_length_a   10.25199400
_cell_length_b   15.40931000
_cell_length_c   15.42120800
_cell_angle_alpha   90.00000000
_cell_angle_beta   90.00000000
_cell_angle_gamma   90.00000000
_symmetry_Int_Tables_number   1
_chemical_formula_structural   Ca2Zr5Ti2O16
_chemical_formula_sum   'Ca16 Zr40 Ti16 O128'
_cell_volume   2436.18312469
_cell_formula_units_Z   8
loop_
 _symmetry_equiv_pos_site_id
 _symmetry_equiv_pos_as_xyz
  1  'x, y, z'
loop_
 _atom_site_type_symbol
 _atom_site_label
 _atom_site_symmetry_multiplicity
 _atom_site_fract_x
 _atom_site_fract_y
 _atom_site_fract_z
 _atom_site_occupancy
  Ca  Ca0  1  0.12634000  0.58151100  0.33210800  1
  Ca  Ca1  1  0.62634000  0.41848900  0.16789200  1
  Ca  Ca2  1  0.87616400  0.58313400  0.16744200  1
  Ca  Ca3  1  0.87616400  0.08313400  0.33255800  1
  Ca  Ca4  1  0.62383600  0.58313400  0.66744200  1
  Ca  Ca5  1  0.62383600  0.08313400  0.83255800  1
  Ca  Ca6  1  0.37366000  0.58151100  0.83210800  1
  Ca  Ca7  1  0.12634000  0.08151100  0.16789200  1
  Ca  Ca8  1  0.12383600  0.91686600  0.66744200  1
  Ca  Ca9  1  0.37366000  0.08151100  0.66789200  1
  Ca  Ca10  1  0.62634000  0.91848900  0.33210800  1
  Ca  Ca11  1  0.37616400  0.41686600  0.33255800  1
  Ca  Ca12  1  0.37616400  0.91686600  0.16744200  1
  Ca  Ca13  1  0.87366000  0.41848900  0.66789200  1
  Ca  Ca14  1  0.87366000  0.91848900  0.83210800  1
  Ca  Ca15  1  0.12383600  0.41686600  0.83255800  1
  Zr  Zr0  1  0.39298600  0.41023800  0.98001200  1
  Zr  Zr1  1  0.38799800  0.58678900  0.48233500  1
  Zr  Zr2  1  0.35601600  0.23066300  0.83984000  1
  Zr  Zr3  1  0.60701400  0.58976200  0.01998800  1
  Zr  Zr4  1  0.63759000  0.23105900  0.66341100  1
  Zr  Zr5  1  0.12521700  0.76527700  0.48332400  1
  Zr  Zr6  1  0.62521700  0.73472300  0.48332400  1
  Zr  Zr7  1  0.10701400  0.91023800  0.01998800  1
  Zr  Zr8  1  0.87478300  0.23472300  0.51667600  1
  Zr  Zr9  1  0.35601600  0.73066300  0.66016000  1
  Zr  Zr10  1  0.61200200  0.41321100  0.51766500  1
  Zr  Zr11  1  0.88799800  0.91321100  0.48233500  1
  Zr  Zr12  1  0.14398400  0.73066300  0.16016000  1
  Zr  Zr13  1  0.38799800  0.08678900  0.01766500  1
  Zr  Zr14  1  0.37478300  0.26527700  0.51667600  1
  Zr  Zr15  1  0.85601600  0.76933700  0.66016000  1
  Zr  Zr16  1  0.88799800  0.41321100  0.01766500  1
  Zr  Zr17  1  0.87478300  0.73472300  0.98332400  1
  Zr  Zr18  1  0.61200200  0.91321100  0.98233500  1
  Zr  Zr19  1  0.13759000  0.76894100  0.83658900  1
  Zr  Zr20  1  0.11200200  0.58678900  0.98233500  1
  Zr  Zr21  1  0.10701400  0.41023800  0.48001200  1
  Zr  Zr22  1  0.89298600  0.08976200  0.98001200  1
  Zr  Zr23  1  0.39298600  0.91023800  0.51998800  1
  Zr  Zr24  1  0.13759000  0.26894100  0.66341100  1
  Zr  Zr25  1  0.86241000  0.73105900  0.33658900  1
  Zr  Zr26  1  0.37478300  0.76527700  0.98332400  1
  Zr  Zr27  1  0.36241000  0.26894100  0.16341100  1
  Zr  Zr28  1  0.36241000  0.76894100  0.33658900  1
  Zr  Zr29  1  0.63759000  0.73105900  0.83658900  1
  Zr  Zr30  1  0.64398400  0.26933700  0.33984000  1
  Zr  Zr31  1  0.12521700  0.26527700  0.01667600  1
  Zr  Zr32  1  0.60701400  0.08976200  0.48001200  1
  Zr  Zr33  1  0.86241000  0.23105900  0.16341100  1
  Zr  Zr34  1  0.14398400  0.23066300  0.33984000  1
  Zr  Zr35  1  0.64398400  0.76933700  0.16016000  1
  Zr  Zr36  1  0.62521700  0.23472300  0.01667600  1
  Zr  Zr37  1  0.89298600  0.58976200  0.51998800  1
  Zr  Zr38  1  0.85601600  0.26933700  0.83984000  1
  Zr  Zr39  1  0.11200200  0.08678900  0.51766500  1
  Ti  Ti0  1  0.87679800  0.91445300  0.16370800  1
  Ti  Ti1  1  0.12320200  0.58554700  0.66370800  1
  Ti  Ti2  1  0.37679800  0.58554700  0.16370800  1
  Ti  Ti3  1  0.62650300  0.07744100  0.17298100  1
  Ti  Ti4  1  0.62650300  0.57744100  0.32701900  1
  Ti  Ti5  1  0.12650300  0.42255900  0.17298100  1
  Ti  Ti6  1  0.37679800  0.08554700  0.33629200  1
  Ti  Ti7  1  0.37349700  0.92255900  0.82701900  1
  Ti  Ti8  1  0.87679800  0.41445300  0.33629200  1
  Ti  Ti9  1  0.12650300  0.92255900  0.32701900  1
  Ti  Ti10  1  0.87349700  0.57744100  0.82701900  1
  Ti  Ti11  1  0.62320200  0.41445300  0.83629200  1
  Ti  Ti12  1  0.62320200  0.91445300  0.66370800  1
  Ti  Ti13  1  0.12320200  0.08554700  0.83629200  1
  Ti  Ti14  1  0.87349700  0.07744100  0.67298100  1
  Ti  Ti15  1  0.37349700  0.42255900  0.67298100  1
  O  O0  1  0.04358400  0.00584600  0.92190500  1
  O  O1  1  0.24966400  0.99860100  0.07058500  1
  O  O2  1  0.49309800  0.83511300  0.61707800  1
  O  O3  1  0.29711200  0.17197300  0.25708900  1
  O  O4  1  0.75210500  0.00044800  0.21279500  1
  O  O5  1  0.50726300  0.32948200  0.43368200  1
  O  O6  1  0.74666300  0.68455600  0.07845500  1
  O  O7  1  0.25033600  0.49860100  0.92941500  1
  O  O8  1  0.75014700  0.64020800  0.91796300  1
  O  O9  1  0.24666300  0.81544400  0.07845500  1
  O  O10  1  0.45641600  0.50584600  0.07809500  1
  O  O11  1  0.74720200  0.36760900  0.41580300  1
  O  O12  1  0.50422800  0.66993000  0.93301600  1
  O  O13  1  0.74180500  0.81747100  0.91862500  1
  O  O14  1  0.49929400  0.96276900  0.75052400  1
  O  O15  1  0.29711200  0.67197300  0.24291100  1
  O  O16  1  0.24985300  0.85979200  0.41796300  1
  O  O17  1  0.25014700  0.85979200  0.91796300  1
  O  O18  1  0.20288800  0.67197300  0.74291100  1
  O  O19  1  0.00422800  0.83007000  0.93301600  1
  O  O20  1  0.50690200  0.66488700  0.11707800  1
  O  O21  1  0.75210500  0.50044800  0.28720500  1
  O  O22  1  0.74966400  0.50139900  0.07058500  1
  O  O23  1  0.99273700  0.82948200  0.56631800  1
  O  O24  1  0.24966400  0.49860100  0.42941500  1
  O  O25  1  0.25279800  0.13239100  0.91580300  1
  O  O26  1  0.50726300  0.82948200  0.06631800  1
  O  O27  1  0.00422800  0.33007000  0.56698400  1
  O  O28  1  0.99929400  0.03723100  0.74947600  1
  O  O29  1  0.49577200  0.33007000  0.06698400  1
  O  O30  1  0.50286400  0.82062700  0.24968600  1
  O  O31  1  0.25819500  0.68252900  0.41862500  1
  O  O32  1  0.00690200  0.33511300  0.38292200  1
  O  O33  1  0.00070600  0.46276900  0.24947600  1
  O  O34  1  0.00286400  0.17937300  0.25031400  1
  O  O35  1  0.25333700  0.31544400  0.92154500  1
  O  O36  1  0.04499500  0.49252500  0.07802200  1
  O  O37  1  0.75819500  0.31747100  0.08137500  1
  O  O38  1  0.00690200  0.83511300  0.11707800  1
  O  O39  1  0.00286400  0.67937300  0.24968600  1
  O  O40  1  0.74180500  0.31747100  0.58137500  1
  O  O41  1  0.49713600  0.17937300  0.75031400  1
  O  O42  1  0.70877300  0.17166200  0.24346900  1
  O  O43  1  0.25210500  0.99955200  0.28720500  1
  O  O44  1  0.49644700  0.83149700  0.88932400  1
  O  O45  1  0.25210500  0.49955200  0.21279500  1
  O  O46  1  0.74966400  0.00139900  0.42941500  1
  O  O47  1  0.00355300  0.83149700  0.38932400  1
  O  O48  1  0.99273700  0.32948200  0.93368200  1
  O  O49  1  0.45641600  0.00584600  0.42190500  1
  O  O50  1  0.49713600  0.67937300  0.74968600  1
  O  O51  1  0.49309800  0.33511300  0.88292200  1
  O  O52  1  0.04358400  0.50584600  0.57809500  1
  O  O53  1  0.00070600  0.96276900  0.25052400  1
  O  O54  1  0.24180500  0.68252900  0.91862500  1
  O  O55  1  0.50070600  0.03723100  0.24947600  1
  O  O56  1  0.00726300  0.67051800  0.06631800  1
  O  O57  1  0.54358400  0.99415400  0.57809500  1
  O  O58  1  0.50690200  0.16488700  0.38292200  1
  O  O59  1  0.99713600  0.32062700  0.75031400  1
  O  O60  1  0.75279800  0.36760900  0.91580300  1
  O  O61  1  0.79122700  0.67166200  0.75653100  1
  O  O62  1  0.20288800  0.17197300  0.75708900  1
  O  O63  1  0.49273700  0.67051800  0.56631800  1
  O  O64  1  0.75333700  0.18455600  0.92154500  1
  O  O65  1  0.99577200  0.66993000  0.43301600  1
  O  O66  1  0.75819500  0.81747100  0.41862500  1
  O  O67  1  0.25033600  0.99860100  0.57058500  1
  O  O68  1  0.24720200  0.63239100  0.08419700  1
  O  O69  1  0.50422800  0.16993000  0.56698400  1
  O  O70  1  0.74789500  0.00044800  0.71279500  1
  O  O71  1  0.50355300  0.66850300  0.38932400  1
  O  O72  1  0.74720200  0.86760900  0.08419700  1
  O  O73  1  0.75333700  0.68455600  0.57845500  1
  O  O74  1  0.74666300  0.18455600  0.42154500  1
  O  O75  1  0.29122700  0.82833800  0.75653100  1
  O  O76  1  0.79711200  0.82802700  0.24291100  1
  O  O77  1  0.70877300  0.67166200  0.25653100  1
  O  O78  1  0.20877300  0.82833800  0.25653100  1
  O  O79  1  0.95641600  0.99415400  0.07809500  1
  O  O80  1  0.25014700  0.35979200  0.58203700  1
  O  O81  1  0.49577200  0.83007000  0.43301600  1
  O  O82  1  0.95500500  0.00747500  0.57802200  1
  O  O83  1  0.49644700  0.33149700  0.61067600  1
  O  O84  1  0.45500500  0.99252500  0.92197800  1
  O  O85  1  0.24180500  0.18252900  0.58137500  1
  O  O86  1  0.50070600  0.53723100  0.25052400  1
  O  O87  1  0.24666300  0.31544400  0.42154500  1
  O  O88  1  0.24720200  0.13239100  0.41580300  1
  O  O89  1  0.04499500  0.99252500  0.42197800  1
  O  O90  1  0.54499500  0.00747500  0.07802200  1
  O  O91  1  0.25333700  0.81544400  0.57845500  1
  O  O92  1  0.25819500  0.18252900  0.08137500  1
  O  O93  1  0.29122700  0.32833800  0.74346900  1
  O  O94  1  0.70288800  0.32802700  0.75708900  1
  O  O95  1  0.50286400  0.32062700  0.25031400  1
  O  O96  1  0.99644700  0.16850300  0.61067600  1
  O  O97  1  0.24789500  0.99955200  0.78720500  1
  O  O98  1  0.45500500  0.49252500  0.57802200  1
  O  O99  1  0.79711200  0.32802700  0.25708900  1
  O  O100  1  0.99713600  0.82062700  0.74968600  1
  O  O101  1  0.24789500  0.49955200  0.71279500  1
  O  O102  1  0.95641600  0.49415400  0.42190500  1
  O  O103  1  0.49929400  0.46276900  0.74947600  1
  O  O104  1  0.49273700  0.17051800  0.93368200  1
  O  O105  1  0.95500500  0.50747500  0.92197800  1
  O  O106  1  0.20877300  0.32833800  0.24346900  1
  O  O107  1  0.24985300  0.35979200  0.08203700  1
  O  O108  1  0.75279800  0.86760900  0.58419700  1
  O  O109  1  0.74985300  0.64020800  0.41796300  1
  O  O110  1  0.74789500  0.50044800  0.78720500  1
  O  O111  1  0.75033600  0.00139900  0.92941500  1
  O  O112  1  0.54499500  0.50747500  0.42197800  1
  O  O113  1  0.75033600  0.50139900  0.57058500  1
  O  O114  1  0.74985300  0.14020800  0.08203700  1
  O  O115  1  0.70288800  0.82802700  0.74291100  1
  O  O116  1  0.79122700  0.17166200  0.74346900  1
  O  O117  1  0.25279800  0.63239100  0.58419700  1
  O  O118  1  0.50355300  0.16850300  0.11067600  1
  O  O119  1  0.99309800  0.66488700  0.61707800  1
  O  O120  1  0.99577200  0.16993000  0.06698400  1
  O  O121  1  0.99929400  0.53723100  0.75052400  1
  O  O122  1  0.00726300  0.17051800  0.43368200  1
  O  O123  1  0.54358400  0.49415400  0.92190500  1
  O  O124  1  0.99309800  0.16488700  0.88292200  1
  O  O125  1  0.00355300  0.33149700  0.11067600  1
  O  O126  1  0.75014700  0.14020800  0.58203700  1
  O  O127  1  0.99644700  0.66850300  0.88932400  1
loop_
_geom_bond_atom_site_label_1
_geom_bond_atom_site_label_2
_geom_bond_distance
_geom_bond_site_symmetry_2
Ca0 O24 2.341473 1_555
Ca0 O39 2.343506 1_555
Ca0 O31 2.455695 1_555
Ca0 O65 2.463669 1_455
Ca0 O33 2.575008 1_555
Ca0 O45 2.577366 1_555
Ca0 O102 2.600846 1_455
Ca0 O15 2.626847 1_555
Ca1 O22 2.341473 1_555
Ca1 O95 2.343506 1_555
Ca1 O37 2.455695 1_555
Ca1 O29 2.463669 1_555
Ca1 O86 2.575008 1_555
Ca1 O21 2.577366 1_555
Ca1 O10 2.600846 1_555
Ca1 O99 2.626847 1_555
Ca2 O39 2.344146 1_655
Ca2 O22 2.345032 1_555
Ca2 O56 2.459967 1_655
Ca2 O6 2.467445 1_555
Ca2 O21 2.579153 1_555
Ca2 O33 2.582766 1_655
Ca2 O77 2.587157 1_555
Ca2 O36 2.616646 1_655
Ca3 O34 2.344146 1_655
Ca3 O46 2.345032 1_555
Ca3 O122 2.459967 1_655
Ca3 O74 2.467445 1_555
Ca3 O4 2.579153 1_555
Ca3 O53 2.582766 1_645
Ca3 O42 2.587157 1_555
Ca3 O89 2.616646 1_645
Ca4 O50 2.344146 1_555
Ca4 O113 2.345032 1_555
Ca4 O63 2.459967 1_555
Ca4 O73 2.467445 1_555
Ca4 O110 2.579153 1_555
Ca4 O103 2.582766 1_555
Ca4 O61 2.587157 1_555
Ca4 O98 2.616646 1_555
Ca5 O41 2.344146 1_555
Ca5 O111 2.345032 1_555
Ca5 O104 2.459967 1_555
Ca5 O64 2.467445 1_555
Ca5 O70 2.579153 1_555
Ca5 O14 2.582766 1_545
Ca5 O116 2.587157 1_555
Ca5 O84 2.616646 1_545
Ca6 O7 2.341473 1_555
Ca6 O50 2.343506 1_555
Ca6 O54 2.455695 1_555
Ca6 O12 2.463669 1_555
Ca6 O103 2.575008 1_555
Ca6 O101 2.577366 1_555
Ca6 O123 2.600846 1_555
Ca6 O18 2.626847 1_555
Ca7 O1 2.341473 1_545
Ca7 O34 2.343506 1_555
Ca7 O92 2.455695 1_555
Ca7 O120 2.463669 1_455
Ca7 O53 2.575008 1_545
Ca7 O43 2.577366 1_545
Ca7 O79 2.600846 1_445
Ca7 O3 2.626847 1_555
Ca8 O100 2.344146 1_455
Ca8 O67 2.345032 1_555
Ca8 O23 2.459967 1_455
Ca8 O91 2.467445 1_555
Ca8 O97 2.579153 1_555
Ca8 O28 2.582766 1_465
Ca8 O75 2.587157 1_555
Ca8 O82 2.616646 1_465
Ca9 O67 2.341473 1_545
Ca9 O41 2.343506 1_555
Ca9 O85 2.455695 1_555
Ca9 O69 2.463669 1_555
Ca9 O14 2.575008 1_545
Ca9 O97 2.577366 1_545
Ca9 O57 2.600846 1_545
Ca9 O62 2.626847 1_555
Ca10 O46 2.341473 1_565
Ca10 O30 2.343506 1_555
Ca10 O66 2.455695 1_555
Ca10 O81 2.463669 1_555
Ca10 O55 2.575008 1_565
Ca10 O4 2.577366 1_565
Ca10 O49 2.600846 1_565
Ca10 O76 2.626847 1_555
Ca11 O95 2.344146 1_555
Ca11 O24 2.345032 1_555
Ca11 O5 2.459967 1_555
Ca11 O87 2.467445 1_555
Ca11 O45 2.579153 1_555
Ca11 O86 2.582766 1_555
Ca11 O106 2.587157 1_555
Ca11 O112 2.616646 1_555
Ca12 O30 2.344146 1_555
Ca12 O1 2.345032 1_555
Ca12 O26 2.459967 1_555
Ca12 O9 2.467445 1_555
Ca12 O43 2.579153 1_555
Ca12 O55 2.582766 1_565
Ca12 O78 2.587157 1_555
Ca12 O90 2.616646 1_565
Ca13 O113 2.341473 1_555
Ca13 O59 2.343506 1_555
Ca13 O40 2.455695 1_555
Ca13 O27 2.463669 1_655
Ca13 O121 2.575008 1_555
Ca13 O110 2.577366 1_555
Ca13 O52 2.600846 1_655
Ca13 O94 2.626847 1_555
Ca14 O111 2.341473 1_565
Ca14 O100 2.343506 1_555
Ca14 O13 2.455695 1_555
Ca14 O19 2.463669 1_655
Ca14 O28 2.575008 1_565
Ca14 O70 2.577366 1_565
Ca14 O0 2.600846 1_665
Ca14 O115 2.626847 1_555
Ca15 O59 2.344146 1_455
Ca15 O7 2.345032 1_555
Ca15 O48 2.459967 1_455
Ca15 O35 2.467445 1_555
Ca15 O101 2.579153 1_555
Ca15 O121 2.582766 1_455
Ca15 O93 2.587157 1_555
Ca15 O105 2.616646 1_455
O0 Ti13 1.979305 1_555
O0 Zr22 2.204258 1_455
O0 Zr7 2.209339 1_546
O1 Zr13 2.126957 1_565
O1 Zr7 2.145124 1_555
O2 Ti12 1.947016 1_555
O2 Zr23 2.152958 1_555
O2 Zr9 2.237620 1_555
O3 Ti6 1.983134 1_555
O3 Zr27 2.183519 1_555
O3 Zr34 2.216045 1_555
O4 Ti3 1.855434 1_555
O4 Ti0 1.990768 1_545
O5 Zr14 2.112238 1_555
O5 Zr10 2.120136 1_555
O5 Zr30 2.217627 1_555
O6 Zr35 2.098190 1_555
O6 Zr17 2.115425 1_554
O6 Zr3 2.235246 1_555
O7 Zr20 2.126957 1_555
O7 Zr0 2.145124 1_555
O8 Ti10 2.121686 1_555
O8 Zr17 2.183982 1_555
O8 Zr29 2.205938 1_555
O8 Zr3 2.287562 1_556
O9 Zr12 2.098190 1_555
O9 Zr26 2.115425 1_554
O9 Zr7 2.235246 1_555
O10 Ti2 1.979305 1_555
O10 Zr3 2.204258 1_555
O10 Zr0 2.209339 1_554
O11 Ti8 1.946722 1_555
O11 Zr30 2.187500 1_555
O11 Zr10 2.209636 1_555
O12 Zr3 2.106019 1_556
O12 Zr26 2.126414 1_555
O12 Zr29 2.228861 1_555
O13 Zr17 2.116575 1_555
O13 Zr29 2.124851 1_555
O13 Zr18 2.216443 1_555
O14 Ti7 1.854380 1_555
O14 Ti12 1.990071 1_555
O15 Ti2 1.983134 1_555
O15 Zr28 2.183519 1_555
O15 Zr12 2.216045 1_555
O16 Ti9 2.121686 1_555
O16 Zr5 2.183982 1_555
O16 Zr28 2.205938 1_555
O16 Zr23 2.287562 1_555
O17 Ti7 2.121686 1_555
O17 Zr26 2.183982 1_555
O17 Zr19 2.205938 1_555
O17 Zr7 2.287562 1_556
O18 Ti1 1.983134 1_555
O18 Zr19 2.183519 1_555
O18 Zr9 2.216045 1_555
O19 Zr7 2.106019 1_556
O19 Zr17 2.126414 1_455
O19 Zr19 2.228861 1_555
O20 Ti2 1.947016 1_555
O20 Zr3 2.152958 1_555
O20 Zr35 2.237620 1_555
O21 Ti4 1.855434 1_555
O21 Ti8 1.990768 1_555
O22 Zr16 2.126957 1_555
O22 Zr3 2.145124 1_555
O23 Zr5 2.112238 1_655
O23 Zr11 2.120136 1_555
O23 Zr15 2.217627 1_555
O24 Zr1 2.126957 1_555
O24 Zr21 2.145124 1_555
O25 Ti13 1.946722 1_555
O25 Zr2 2.187500 1_555
O25 Zr13 2.209636 1_556
O26 Zr26 2.112238 1_554
O26 Zr18 2.120136 1_554
O26 Zr35 2.217627 1_555
O27 Zr21 2.106019 1_555
O27 Zr8 2.126414 1_455
O27 Zr24 2.228861 1_555
O28 Ti14 1.854380 1_555
O28 Ti13 1.990071 1_655
O29 Zr0 2.106019 1_554
O29 Zr36 2.126414 1_555
O29 Zr27 2.228861 1_555
O30 Zr28 2.122200 1_555
O30 Zr35 2.150306 1_555
O31 Zr5 2.116575 1_555
O31 Zr28 2.124851 1_555
O31 Zr1 2.216443 1_555
O32 Ti8 1.947016 1_455
O32 Zr21 2.152958 1_555
O32 Zr34 2.237620 1_555
O33 Ti5 1.854380 1_555
O33 Ti8 1.990071 1_455
O34 Zr33 2.122200 1_455
O34 Zr34 2.150306 1_555
O35 Zr2 2.098190 1_555
O35 Zr31 2.115425 1_556
O35 Zr0 2.235246 1_555
O36 Ti5 2.001259 1_555
O36 Zr20 2.181562 1_554
O36 Zr16 2.225006 1_455
O37 Zr36 2.116575 1_555
O37 Zr33 2.124851 1_555
O37 Zr16 2.216443 1_555
O38 Ti0 1.947016 1_455
O38 Zr7 2.152958 1_555
O38 Zr12 2.237620 1_555
O39 Zr25 2.122200 1_455
O39 Zr12 2.150306 1_555
O40 Zr8 2.116575 1_555
O40 Zr4 2.124851 1_555
O40 Zr10 2.216443 1_555
O41 Zr4 2.122200 1_555
O41 Zr2 2.150306 1_555
O42 Ti3 2.000231 1_555
O42 Zr33 2.200642 1_555
O42 Zr30 2.217022 1_555
O43 Ti9 1.855434 1_555
O43 Ti6 1.990768 1_565
O44 Ti7 2.116829 1_555
O44 Zr26 2.167556 1_555
O44 Zr18 2.246387 1_555
O44 Zr29 2.269465 1_555
O45 Ti5 1.855434 1_555
O45 Ti2 1.990768 1_555
O46 Zr11 2.126957 1_545
O46 Zr32 2.145124 1_555
O47 Ti9 2.116829 1_555
O47 Zr5 2.167556 1_555
O47 Zr11 2.246387 1_455
O47 Zr25 2.269465 1_455
O48 Zr31 2.112238 1_656
O48 Zr16 2.120136 1_556
O48 Zr38 2.217627 1_555
O49 Ti6 1.979305 1_555
O49 Zr32 2.204258 1_555
O49 Zr23 2.209339 1_545
O50 Zr29 2.122200 1_555
O50 Zr9 2.150306 1_555
O51 Ti11 1.947016 1_555
O51 Zr0 2.152958 1_555
O51 Zr2 2.237620 1_555
O52 Ti1 1.979305 1_555
O52 Zr37 2.204258 1_455
O52 Zr21 2.209339 1_555
O53 Ti9 1.854380 1_555
O53 Ti0 1.990071 1_455
O54 Zr26 2.116575 1_555
O54 Zr19 2.124851 1_555
O54 Zr20 2.216443 1_555
O55 Ti3 1.854380 1_555
O55 Ti6 1.990071 1_555
O56 Zr17 2.112238 1_454
O56 Zr20 2.120136 1_554
O56 Zr12 2.217627 1_555
O57 Ti12 1.979305 1_555
O57 Zr23 2.204258 1_555
O57 Zr32 2.209339 1_565
O58 Ti6 1.947016 1_555
O58 Zr32 2.152958 1_555
O58 Zr30 2.237620 1_555
O59 Zr24 2.122200 1_655
O59 Zr38 2.150306 1_555
O60 Ti11 1.946722 1_555
O60 Zr38 2.187500 1_555
O60 Zr16 2.209636 1_556
O61 Ti10 2.000231 1_555
O61 Zr29 2.200642 1_555
O61 Zr15 2.217022 1_555
O62 Ti13 1.983134 1_555
O62 Zr24 2.183519 1_555
O62 Zr2 2.216045 1_555
O63 Zr6 2.112238 1_555
O63 Zr1 2.120136 1_555
O63 Zr9 2.217627 1_555
O64 Zr38 2.098190 1_555
O64 Zr36 2.115425 1_556
O64 Zr22 2.235246 1_555
O65 Zr37 2.106019 1_555
O65 Zr5 2.126414 1_655
O65 Zr25 2.228861 1_555
O66 Zr6 2.116575 1_555
O66 Zr25 2.124851 1_555
O66 Zr11 2.216443 1_555
O67 Zr39 2.126957 1_565
O67 Zr23 2.145124 1_555
O68 Ti2 1.946722 1_555
O68 Zr12 2.187500 1_555
O68 Zr20 2.209636 1_554
O69 Zr32 2.106019 1_555
O69 Zr14 2.126414 1_555
O69 Zr4 2.228861 1_555
O70 Ti14 1.855434 1_555
O70 Ti12 1.990768 1_545
O71 Ti4 2.116829 1_555
O71 Zr6 2.167556 1_555
O71 Zr1 2.246387 1_555
O71 Zr28 2.269465 1_555
O72 Ti0 1.946722 1_555
O72 Zr35 2.187500 1_555
O72 Zr18 2.209636 1_554
O73 Zr15 2.098190 1_555
O73 Zr6 2.115425 1_555
O73 Zr37 2.235246 1_555
O74 Zr30 2.098190 1_555
O74 Zr8 2.115425 1_555
O74 Zr32 2.235246 1_555
O75 Ti7 2.000231 1_555
O75 Zr19 2.200642 1_555
O75 Zr9 2.217022 1_555
O76 Ti0 1.983134 1_555
O76 Zr25 2.183519 1_555
O76 Zr35 2.216045 1_555
O77 Ti4 2.000231 1_555
O77 Zr25 2.200642 1_555
O77 Zr35 2.217022 1_555
O78 Ti9 2.000231 1_555
O78 Zr28 2.200642 1_555
O78 Zr12 2.217022 1_555
O79 Ti0 1.979305 1_555
O79 Zr7 2.204258 1_655
O79 Zr22 2.209339 1_564
O80 Ti15 2.121686 1_555
O80 Zr14 2.183982 1_555
O80 Zr24 2.205938 1_555
O80 Zr21 2.287562 1_555
O81 Zr23 2.106019 1_555
O81 Zr6 2.126414 1_555
O81 Zr28 2.228861 1_555
O82 Ti14 2.001259 1_555
O82 Zr11 2.181562 1_545
O82 Zr39 2.225006 1_655
O83 Ti15 2.116829 1_555
O83 Zr14 2.167556 1_555
O83 Zr10 2.246387 1_555
O83 Zr4 2.269465 1_555
O84 Ti7 2.001259 1_555
O84 Zr13 2.181562 1_566
O84 Zr18 2.225006 1_555
O85 Zr14 2.116575 1_555
O85 Zr24 2.124851 1_555
O85 Zr39 2.216443 1_555
O86 Ti4 1.854380 1_555
O86 Ti2 1.990071 1_555
O87 Zr34 2.098190 1_555
O87 Zr14 2.115425 1_555
O87 Zr21 2.235246 1_555
O88 Ti6 1.946722 1_555
O88 Zr34 2.187500 1_555
O88 Zr39 2.209636 1_555
O89 Ti9 2.001259 1_555
O89 Zr39 2.181562 1_565
O89 Zr11 2.225006 1_455
O90 Ti3 2.001259 1_555
O90 Zr18 2.181562 1_544
O90 Zr13 2.225006 1_555
O91 Zr9 2.098190 1_555
O91 Zr5 2.115425 1_555
O91 Zr23 2.235246 1_555
O92 Zr31 2.116575 1_555
O92 Zr27 2.124851 1_555
O92 Zr13 2.216443 1_555
O93 Ti15 2.000231 1_555
O93 Zr24 2.200642 1_555
O93 Zr2 2.217022 1_555
O94 Ti11 1.983134 1_555
O94 Zr4 2.183519 1_555
O94 Zr38 2.216045 1_555
O95 Zr27 2.122200 1_555
O95 Zr30 2.150306 1_555
O96 Ti14 2.116829 1_555
O96 Zr8 2.167556 1_555
O96 Zr39 2.246387 1_655
O96 Zr24 2.269465 1_655
O97 Ti7 1.855434 1_555
O97 Ti13 1.990768 1_565
O98 Ti15 2.001259 1_555
O98 Zr1 2.181562 1_555
O98 Zr10 2.225006 1_555
O99 Ti8 1.983134 1_555
O99 Zr33 2.183519 1_555
O99 Zr30 2.216045 1_555
O100 Zr19 2.122200 1_655
O100 Zr15 2.150306 1_555
O101 Ti15 1.855434 1_555
O101 Ti1 1.990768 1_555
O102 Ti8 1.979305 1_555
O102 Zr21 2.204258 1_655
O102 Zr37 2.209339 1_555
O103 Ti15 1.854380 1_555
O103 Ti11 1.990071 1_555
O104 Zr36 2.112238 1_556
O104 Zr13 2.120136 1_556
O104 Zr2 2.217627 1_555
O105 Ti10 2.001259 1_555
O105 Zr16 2.181562 1_556
O105 Zr20 2.225006 1_655
O106 Ti5 2.000231 1_555
O106 Zr27 2.200642 1_555
O106 Zr34 2.217022 1_555
O107 Ti5 2.121686 1_555
O107 Zr31 2.183982 1_555
O107 Zr27 2.205938 1_555
O107 Zr0 2.287562 1_554
O108 Ti12 1.946722 1_555
O108 Zr15 2.187500 1_555
O108 Zr11 2.209636 1_555
O109 Ti4 2.121686 1_555
O109 Zr6 2.183982 1_555
O109 Zr25 2.205938 1_555
O109 Zr37 2.287562 1_555
O110 Ti10 1.855434 1_555
O110 Ti11 1.990768 1_555
O111 Zr18 2.126957 1_545
O111 Zr22 2.145124 1_555
O112 Ti4 2.001259 1_555
O112 Zr10 2.181562 1_555
O112 Zr1 2.225006 1_555
O113 Zr10 2.126957 1_555
O113 Zr37 2.145124 1_555
O114 Ti3 2.121686 1_555
O114 Zr36 2.183982 1_555
O114 Zr33 2.205938 1_555
O114 Zr22 2.287562 1_554
O115 Ti12 1.983134 1_555
O115 Zr29 2.183519 1_555
O115 Zr15 2.216045 1_555
O116 Ti14 2.000231 1_555
O116 Zr4 2.200642 1_555
O116 Zr38 2.217022 1_555
O117 Ti1 1.946722 1_555
O117 Zr9 2.187500 1_555
O117 Zr1 2.209636 1_555
O118 Ti3 2.116829 1_555
O118 Zr36 2.167556 1_555
O118 Zr13 2.246387 1_555
O118 Zr27 2.269465 1_555
O119 Ti1 1.947016 1_655
O119 Zr37 2.152958 1_555
O119 Zr15 2.237620 1_555
O120 Zr22 2.106019 1_554
O120 Zr31 2.126414 1_655
O120 Zr33 2.228861 1_555
O121 Ti10 1.854380 1_555
O121 Ti1 1.990071 1_655
O122 Zr8 2.112238 1_455
O122 Zr39 2.120136 1_555
O122 Zr34 2.217627 1_555
O123 Ti11 1.979305 1_555
O123 Zr0 2.204258 1_555
O123 Zr3 2.209339 1_556
O124 Ti13 1.947016 1_655
O124 Zr22 2.152958 1_555
O124 Zr38 2.237620 1_555
O125 Ti5 2.116829 1_555
O125 Zr31 2.167556 1_555
O125 Zr16 2.246387 1_455
O125 Zr33 2.269465 1_455
O126 Ti14 2.121686 1_555
O126 Zr8 2.183982 1_555
O126 Zr4 2.205938 1_555
O126 Zr32 2.287562 1_555
O127 Ti10 2.116829 1_555
O127 Zr17 2.167556 1_555
O127 Zr20 2.246387 1_655
O127 Zr19 2.269465 1_655
