# generated using pymatgen
data_SrNd3AlCuO8
_symmetry_space_group_name_H-M   'P 1'
_cell_length_a   6.01760100
_cell_length_b   8.94446527
_cell_length_c   9.12508834
_cell_angle_alpha   108.52967611
_cell_angle_beta   103.73459789
_cell_angle_gamma   92.72218215
_symmetry_Int_Tables_number   1
_chemical_formula_structural   SrNd3AlCuO8
_chemical_formula_sum   'Sr2 Nd6 Al2 Cu2 O16'
_cell_volume   448.32483779
_cell_formula_units_Z   2
loop_
 _symmetry_equiv_pos_site_id
 _symmetry_equiv_pos_as_xyz
  1  'x, y, z'
loop_
 _atom_site_type_symbol
 _atom_site_label
 _atom_site_symmetry_multiplicity
 _atom_site_fract_x
 _atom_site_fract_y
 _atom_site_fract_z
 _atom_site_occupancy
  Sr  Sr0  1  0.45082700  0.81216800  0.54738000  1
  Sr  Sr1  1  0.07479000  0.91555700  0.20868500  1
  Nd  Nd0  1  0.08956400  0.19061700  0.66975300  1
  Nd  Nd1  1  0.80063300  0.58005000  0.85698400  1
  Nd  Nd2  1  0.71062300  0.16143600  0.89391100  1
  Nd  Nd3  1  0.41413000  0.54221700  0.08000200  1
  Nd  Nd4  1  0.47971800  0.27382700  0.46547000  1
  Nd  Nd5  1  0.95895400  0.47303900  0.28879500  1
  Al  Al0  1  0.31816100  0.20513200  0.10058900  1
  Al  Al1  1  0.21040200  0.54512100  0.64844300  1
  Cu  Cu0  1  0.05279500  0.88328400  0.77157100  1
  Cu  Cu1  1  0.55639400  0.88605600  0.99118600  1
  O  O0  1  0.41973400  0.04273600  0.15620900  1
  O  O1  1  0.76156300  0.44112000  0.02694800  1
  O  O2  1  0.11115900  0.34962900  0.49942600  1
  O  O3  1  0.50105500  0.55832900  0.63767500  1
  O  O4  1  0.28439300  0.05538200  0.49080000  1
  O  O5  1  0.05195200  0.66821500  0.56120700  1
  O  O6  1  0.84354700  0.87251900  0.91189600  1
  O  O7  1  0.83058000  0.99833900  0.67229000  1
  O  O8  1  0.38541000  0.94365100  0.81978200  1
  O  O9  1  0.67731100  0.74794400  0.09840200  1
  O  O10  1  0.03915400  0.22422300  0.13316500  1
  O  O11  1  0.32525600  0.25543400  0.92763100  1
  O  O12  1  0.21045000  0.66346200  0.25583200  1
  O  O13  1  0.52388800  0.37525000  0.25427700  1
  O  O14  1  0.74067500  0.29927200  0.69846900  1
  O  O15  1  0.17688000  0.53598900  0.83322200  1
loop_
_geom_bond_atom_site_label_1
_geom_bond_atom_site_label_2
_geom_bond_distance
_geom_bond_site_symmetry_2
Nd0 O7 2.274859 1_445
Nd0 O4 2.300563 1_555
Nd0 O11 2.314095 1_555
Nd0 O14 2.390429 1_455
Nd0 O2 2.436970 1_555
Nd1 O3 2.301954 1_555
Nd1 O1 2.318454 1_556
Nd1 O15 2.364753 1_655
Nd1 O14 2.426280 1_555
Nd1 O6 2.490454 1_555
Nd1 O9 2.537397 1_556
Nd2 O1 2.376141 1_556
Nd2 O7 2.378459 1_545
Nd2 O10 2.460884 1_656
Nd2 O8 2.500761 1_545
Nd2 O14 2.502547 1_555
Nd2 O11 2.557117 1_555
Nd2 O6 2.783603 1_545
Nd3 O12 2.281836 1_555
Nd3 O9 2.307149 1_555
Nd3 O15 2.344879 1_554
Nd3 O1 2.409377 1_555
Nd3 O11 2.459432 1_554
Nd3 O13 2.509978 1_555
Nd4 O14 2.260818 1_555
Nd4 O4 2.334629 1_555
Nd4 O2 2.410424 1_555
Nd4 O13 2.437017 1_555
Nd4 O3 2.508571 1_555
Nd4 O0 2.846850 1_555
Nd5 O1 2.321221 1_555
Nd5 O12 2.361948 1_655
Nd5 O10 2.370933 1_655
Nd5 O5 2.455277 1_655
Nd5 O2 2.521926 1_655
Nd5 O13 2.633300 1_555
Al0 O0 1.773887 1_555
Al0 O10 1.779990 1_555
Al0 O11 1.782317 1_554
Al0 O13 1.858770 1_555
Al1 O5 1.746825 1_555
Al1 O15 1.771401 1_555
Al1 O3 1.775412 1_555
Al1 O2 1.807525 1_555
Cu0 O7 1.953444 1_455
Cu0 O8 1.954356 1_555
Cu0 O6 2.016649 1_455
Cu0 O5 2.243391 1_555
Cu1 O9 1.878352 1_556
Cu1 O8 1.889095 1_555
Cu1 O6 2.020373 1_555
Cu1 O0 2.064955 1_566
O0 Sr1 2.534936 1_545
O3 Sr0 2.657285 1_555
O4 Sr1 2.458487 1_545
O4 Sr0 2.584060 1_545
O5 Sr0 2.718196 1_555
O6 Sr1 2.629831 1_656
O7 Sr0 2.547460 1_555
O8 Sr0 2.523353 1_555
O9 Sr1 2.557122 1_655
O10 Sr1 3.055898 1_545
O12 Sr1 2.561354 1_555
O12 Sr0 2.584578 1_555
