# generated using pymatgen
data_Ba3Ta6(Si2O13)2
_symmetry_space_group_name_H-M   'P 1'
_cell_length_a   9.04637225
_cell_length_b   9.04637225
_cell_length_c   7.74747576
_cell_angle_alpha   90.00000000
_cell_angle_beta   90.00000000
_cell_angle_gamma   119.99999744
_symmetry_Int_Tables_number   1
_chemical_formula_structural   Ba3Ta6(Si2O13)2
_chemical_formula_sum   'Ba3 Ta6 Si4 O26'
_cell_volume   549.08525096
_cell_formula_units_Z   1
loop_
 _symmetry_equiv_pos_site_id
 _symmetry_equiv_pos_as_xyz
  1  'x, y, z'
loop_
 _atom_site_type_symbol
 _atom_site_label
 _atom_site_symmetry_multiplicity
 _atom_site_fract_x
 _atom_site_fract_y
 _atom_site_fract_z
 _atom_site_occupancy
  Ba  Ba0  1  0.39740269  0.39740269  0.50000000  1
  Ba  Ba1  1  1.00000000  0.60259731  0.50000000  1
  Ba  Ba2  1  0.60259731  1.00000000  0.50000000  1
  Ta  Ta0  1  0.00000000  0.23830368  0.75621358  1
  Ta  Ta1  1  0.76169632  0.76169632  0.75621358  1
  Ta  Ta2  1  0.23830368  0.00000000  0.24378642  1
  Ta  Ta3  1  0.76169632  0.76169632  0.24378642  1
  Ta  Ta4  1  0.23830368  0.00000000  0.75621358  1
  Ta  Ta5  1  0.00000000  0.23830368  0.24378642  1
  Si  Si0  1  0.66666700  0.33333300  0.20627868  1
  Si  Si1  1  0.66666700  0.33333300  0.79372132  1
  Si  Si2  1  0.33333300  0.66666700  0.79372132  1
  Si  Si3  1  0.33333300  0.66666700  0.20627868  1
  O  O0  1  1.00000000  0.22795035  0.50000000  1
  O  O1  1  0.77204965  0.77204965  0.50000000  1
  O  O2  1  0.22795035  1.00000000  0.50000000  1
  O  O3  1  0.51214804  0.69476000  0.28415550  1
  O  O4  1  0.30524000  0.81738804  0.28415550  1
  O  O5  1  0.18261196  0.48785196  0.28415550  1
  O  O6  1  0.48785196  0.18261196  0.71584450  1
  O  O7  1  0.18261196  0.48785196  0.71584450  1
  O  O8  1  0.51214804  0.69476000  0.71584450  1
  O  O9  1  0.30524000  0.81738804  0.71584450  1
  O  O10  1  0.69476000  0.51214804  0.28415550  1
  O  O11  1  0.81738804  0.30524000  0.28415550  1
  O  O12  1  0.81738804  0.30524000  0.71584450  1
  O  O13  1  0.33333300  0.66666700  -0.00000000  1
  O  O14  1  0.66666700  0.33333300  -0.00000000  1
  O  O15  1  0.28139769  0.00000000  -0.00000000  1
  O  O16  1  0.71860231  0.71860231  -0.00000000  1
  O  O17  1  0.00000000  0.28139769  -0.00000000  1
  O  O18  1  0.82150399  1.00000000  0.23178877  1
  O  O19  1  0.17849601  0.17849601  0.76821123  1
  O  O20  1  1.00000000  0.82150399  0.76821123  1
  O  O21  1  1.00000000  0.82150399  0.23178877  1
  O  O22  1  0.17849601  0.17849601  0.23178877  1
  O  O23  1  0.82150399  1.00000000  0.76821123  1
  O  O24  1  0.48785196  0.18261196  0.28415550  1
  O  O25  1  0.69476000  0.51214804  0.71584450  1
loop_
_geom_bond_atom_site_label_1
_geom_bond_atom_site_label_2
_geom_bond_distance
_geom_bond_site_symmetry_2
Ba0 O22 2.870462 1_555
Ba0 O19 2.870462 1_555
Ba0 O8 2.884051 1_555
Ba0 O10 2.884051 1_555
Ba0 O25 2.884051 1_555
Ba0 O3 2.884051 1_555
Ba0 O7 2.971764 1_555
Ba0 O24 2.971764 1_555
Ba0 O6 2.971764 1_555
Ba0 O5 2.971764 1_555
Ba0 O2 3.124630 1_545
Ba0 O0 3.124630 1_455
Ba1 O20 2.870462 1_555
Ba1 O21 2.870462 1_555
Ba1 O5 2.884051 1_655
Ba1 O7 2.884051 1_655
Ba1 O12 2.884051 1_555
Ba1 O11 2.884051 1_555
Ba1 O10 2.971764 1_555
Ba1 O25 2.971764 1_555
Ba1 O4 2.971764 1_655
Ba1 O9 2.971764 1_655
Ba1 O1 3.124630 1_555
Ba1 O2 3.124630 1_655
Ba2 O23 2.870462 1_555
Ba2 O18 2.870462 1_555
Ba2 O24 2.884051 1_565
Ba2 O6 2.884051 1_565
Ba2 O4 2.884051 1_555
Ba2 O9 2.884051 1_555
Ba2 O8 2.971764 1_555
Ba2 O3 2.971764 1_555
Ba2 O11 2.971764 1_565
Ba2 O12 2.971764 1_565
Ba2 O1 3.124630 1_555
Ba2 O0 3.124630 1_565
O0 Ta5 1.987217 1_655
O0 Ta0 1.987217 1_655
O1 Ta3 1.987217 1_555
O1 Ta1 1.987217 1_555
O2 Ta2 1.987217 1_565
O2 Ta4 1.987217 1_565
O3 Si3 1.623032 1_555
O3 Ta3 2.047885 1_555
O4 Si3 1.623023 1_555
O4 Ta2 2.047885 1_565
O5 Si3 1.623029 1_555
O5 Ta5 2.047885 1_555
O6 Si1 1.623029 1_555
O6 Ta4 2.047885 1_555
O7 Si2 1.623029 1_555
O7 Ta0 2.047885 1_555
O8 Si2 1.623032 1_555
O8 Ta1 2.047885 1_555
O9 Si2 1.623023 1_555
O9 Ta4 2.047885 1_565
O10 Si0 1.623032 1_555
O10 Ta3 2.047885 1_555
O11 Si0 1.623023 1_555
O11 Ta5 2.047885 1_655
O12 Si1 1.623023 1_555
O12 Ta0 2.047885 1_655
O13 Si2 1.598139 1_554
O13 Si3 1.598139 1_555
O14 Si1 1.598139 1_554
O14 Si0 1.598139 1_555
O15 Ta4 1.928543 1_554
O15 Ta2 1.928543 1_555
O16 Ta1 1.928543 1_554
O16 Ta3 1.928543 1_555
O17 Ta0 1.928543 1_554
O17 Ta5 1.928543 1_555
O18 Ta3 1.944839 1_555
O18 Ta5 1.944839 1_665
O19 Ta4 1.944839 1_555
O19 Ta0 1.944839 1_555
O20 Ta1 1.944839 1_555
O20 Ta4 1.944839 1_665
O21 Ta3 1.944839 1_555
O21 Ta2 1.944839 1_665
O22 Ta2 1.944839 1_555
O22 Ta5 1.944839 1_555
O23 Ta1 1.944839 1_555
O23 Ta0 1.944839 1_665
O24 Si0 1.623029 1_555
O24 Ta2 2.047885 1_555
O25 Si1 1.623032 1_555
O25 Ta1 2.047885 1_555
