# generated using pymatgen
data_La2YbS4
_symmetry_space_group_name_H-M   'P 1'
_cell_length_a   7.51491121
_cell_length_b   7.51491121
_cell_length_c   7.51491121
_cell_angle_alpha   109.64404602
_cell_angle_beta   109.64404602
_cell_angle_gamma   109.12612005
_symmetry_Int_Tables_number   1
_chemical_formula_structural   La2YbS4
_chemical_formula_sum   'La4 Yb2 S8'
_cell_volume   326.69152003
_cell_formula_units_Z   2
loop_
 _symmetry_equiv_pos_site_id
 _symmetry_equiv_pos_as_xyz
  1  'x, y, z'
loop_
 _atom_site_type_symbol
 _atom_site_label
 _atom_site_symmetry_multiplicity
 _atom_site_fract_x
 _atom_site_fract_y
 _atom_site_fract_z
 _atom_site_occupancy
  La  La0  1  0.37500000  0.99417000  0.11917000  1
  La  La1  1  0.74417000  0.62500000  0.61917000  1
  La  La2  1  0.87500000  0.25583000  0.88083000  1
  La  La3  1  0.00583000  0.12500000  0.38083000  1
  Yb  Yb0  1  0.25000000  0.75000000  0.50000000  1
  Yb  Yb1  1  0.50000000  0.50000000  0.00000000  1
  S  S0  1  0.62455600  0.87200700  0.39219600  1
  S  S1  1  0.27018800  0.37799300  0.25254900  1
  S  S2  1  0.47981100  0.23236000  0.60780400  1
  S  S3  1  0.76764000  0.37544400  0.24745100  1
  S  S4  1  0.62200700  0.87455600  0.89219600  1
  S  S5  1  0.12799300  0.52018800  0.75254900  1
  S  S6  1  0.98236000  0.72981100  0.10780400  1
  S  S7  1  0.12544400  0.01764000  0.74745100  1
loop_
_geom_bond_atom_site_label_1
_geom_bond_atom_site_label_2
_geom_bond_distance
_geom_bond_site_symmetry_2
La0 S0 2.894338 1_555
La0 S7 2.894338 1_564
La0 S6 2.921569 1_455
La0 S3 2.921569 1_565
La0 S4 3.058479 1_554
La0 S5 3.058484 1_554
La0 S2 3.165519 1_565
La0 S1 3.165524 1_565
La1 S3 2.894338 1_555
La1 S4 2.894338 1_555
La1 S2 2.921569 1_555
La1 S7 2.921569 1_665
La1 S0 3.058479 1_555
La1 S1 3.058484 1_555
La1 S6 3.165519 1_556
La1 S5 3.165524 1_655
La2 S1 2.894334 1_656
La2 S2 2.894338 1_555
La2 S5 2.921565 1_655
La2 S4 2.921569 1_545
La2 S6 3.058479 1_556
La2 S3 3.058479 1_556
La2 S7 3.165519 1_655
La2 S0 3.165519 1_545
La3 S5 2.894334 1_555
La3 S6 2.894338 1_445
La3 S1 2.921565 1_555
La3 S0 2.921569 1_445
La3 S7 3.058479 1_555
La3 S2 3.058479 1_555
La3 S3 3.165519 1_455
La3 S4 3.165519 1_444
S0 Yb1 2.875541 1_555
S0 Yb0 3.124301 1_555
S1 Yb0 2.875537 1_555
S1 Yb1 3.124306 1_555
S2 Yb1 2.875541 1_556
S2 Yb0 3.124301 1_545
S3 Yb1 2.875541 1_555
S3 Yb0 3.124301 1_655
S4 Yb0 2.875541 1_555
S4 Yb1 3.124301 1_556
S5 Yb1 2.875537 1_556
S5 Yb0 3.124306 1_555
S6 Yb0 2.875541 1_655
S6 Yb1 3.124301 1_555
S7 Yb0 2.875541 1_545
S7 Yb1 3.124301 1_556
