# generated using pymatgen
data_Rb2Cr3O10
_symmetry_space_group_name_H-M   'P 1'
_cell_length_a   9.48481700
_cell_length_b   11.67183800
_cell_length_c   19.25821900
_cell_angle_alpha   90.00000000
_cell_angle_beta   90.00000000
_cell_angle_gamma   90.00000000
_symmetry_Int_Tables_number   1
_chemical_formula_structural   Rb2Cr3O10
_chemical_formula_sum   'Rb16 Cr24 O80'
_cell_volume   2131.98590049
_cell_formula_units_Z   8
loop_
 _symmetry_equiv_pos_site_id
 _symmetry_equiv_pos_as_xyz
  1  'x, y, z'
loop_
 _atom_site_type_symbol
 _atom_site_label
 _atom_site_symmetry_multiplicity
 _atom_site_fract_x
 _atom_site_fract_y
 _atom_site_fract_z
 _atom_site_occupancy
  Rb  Rb0  1  0.78133700  0.22453000  0.68238300  1
  Rb  Rb1  1  0.71866300  0.72453000  0.31761700  1
  Rb  Rb2  1  0.21866300  0.77547000  0.31761700  1
  Rb  Rb3  1  0.84770900  0.04781600  0.41610500  1
  Rb  Rb4  1  0.28133700  0.27547000  0.68238300  1
  Rb  Rb5  1  0.15229100  0.95218400  0.58389500  1
  Rb  Rb6  1  0.71866300  0.22453000  0.18238300  1
  Rb  Rb7  1  0.34770900  0.95218400  0.08389500  1
  Rb  Rb8  1  0.78133700  0.72453000  0.81761700  1
  Rb  Rb9  1  0.15229100  0.45218400  0.91610500  1
  Rb  Rb10  1  0.65229100  0.04781600  0.91610500  1
  Rb  Rb11  1  0.65229100  0.54781600  0.58389500  1
  Rb  Rb12  1  0.34770900  0.45218400  0.41610500  1
  Rb  Rb13  1  0.84770900  0.54781600  0.08389500  1
  Rb  Rb14  1  0.28133700  0.77547000  0.81761700  1
  Rb  Rb15  1  0.21866300  0.27547000  0.18238300  1
  Cr  Cr0  1  0.29188200  0.12815900  0.38780200  1
  Cr  Cr1  1  0.51158200  0.49601400  0.76710600  1
  Cr  Cr2  1  0.20811800  0.62815900  0.61219800  1
  Cr  Cr3  1  0.98841800  0.99601400  0.23289400  1
  Cr  Cr4  1  0.20811800  0.12815900  0.88780200  1
  Cr  Cr5  1  0.48841800  0.00398600  0.26710600  1
  Cr  Cr6  1  0.70811800  0.37184100  0.88780200  1
  Cr  Cr7  1  0.29188200  0.62815900  0.11219800  1
  Cr  Cr8  1  0.48841800  0.50398600  0.23289400  1
  Cr  Cr9  1  0.70811800  0.87184100  0.61219800  1
  Cr  Cr10  1  0.51158200  0.99601400  0.73289400  1
  Cr  Cr11  1  0.00986000  0.69398000  0.47385600  1
  Cr  Cr12  1  0.98841800  0.49601400  0.26710600  1
  Cr  Cr13  1  0.50986000  0.30602000  0.02614400  1
  Cr  Cr14  1  0.79188200  0.87184100  0.11219800  1
  Cr  Cr15  1  0.49014000  0.19398000  0.52614400  1
  Cr  Cr16  1  0.01158200  0.00398600  0.76710600  1
  Cr  Cr17  1  0.50986000  0.80602000  0.47385600  1
  Cr  Cr18  1  0.79188200  0.37184100  0.38780200  1
  Cr  Cr19  1  0.00986000  0.19398000  0.02614400  1
  Cr  Cr20  1  0.49014000  0.69398000  0.97385600  1
  Cr  Cr21  1  0.99014000  0.80602000  0.97385600  1
  Cr  Cr22  1  0.99014000  0.30602000  0.52614400  1
  Cr  Cr23  1  0.01158200  0.50398600  0.73289400  1
  O  O0  1  0.34969500  0.35565700  0.02374800  1
  O  O1  1  0.50880300  0.67600000  0.44297600  1
  O  O2  1  0.49119700  0.82400000  0.94297600  1
  O  O3  1  0.72891300  0.27602800  0.33652600  1
  O  O4  1  0.66763400  0.42389000  0.43526300  1
  O  O5  1  0.66763400  0.92389000  0.06473700  1
  O  O6  1  0.44574200  0.59346900  0.29462300  1
  O  O7  1  0.33236600  0.57611000  0.56473700  1
  O  O8  1  0.41925500  0.19671100  0.43774200  1
  O  O9  1  0.91925500  0.80328900  0.06225800  1
  O  O10  1  0.55425800  0.40653100  0.70537700  1
  O  O11  1  0.97550200  0.12796600  0.25966000  1
  O  O12  1  0.34969500  0.85565700  0.47625200  1
  O  O13  1  0.08074500  0.19671100  0.93774200  1
  O  O14  1  0.10994900  0.11301400  0.07417200  1
  O  O15  1  0.64895600  0.53004200  0.20794800  1
  O  O16  1  0.05425800  0.09346900  0.70537700  1
  O  O17  1  0.05425800  0.59346900  0.79462300  1
  O  O18  1  0.13572100  0.51683900  0.66067100  1
  O  O19  1  0.63572100  0.48316100  0.83932900  1
  O  O20  1  0.16763400  0.07611000  0.43526300  1
  O  O21  1  0.58074500  0.30328900  0.93774200  1
  O  O22  1  0.85104400  0.03004200  0.79205200  1
  O  O23  1  0.60994900  0.38698600  0.07417200  1
  O  O24  1  0.99119700  0.17600000  0.55702400  1
  O  O25  1  0.39005100  0.61301400  0.92582800  1
  O  O26  1  0.13572100  0.01683900  0.83932900  1
  O  O27  1  0.41925500  0.69671100  0.06225800  1
  O  O28  1  0.36427900  0.01683900  0.33932900  1
  O  O29  1  0.22891300  0.72397200  0.16347400  1
  O  O30  1  0.77108700  0.27602800  0.83652600  1
  O  O31  1  0.65030500  0.64434300  0.97625200  1
  O  O32  1  0.15030500  0.85565700  0.97625200  1
  O  O33  1  0.86427900  0.98316100  0.16067100  1
  O  O34  1  0.52449800  0.62796600  0.74034000  1
  O  O35  1  0.94574200  0.40653100  0.20537700  1
  O  O36  1  0.00880300  0.32400000  0.05702400  1
  O  O37  1  0.85104400  0.53004200  0.70794800  1
  O  O38  1  0.63572100  0.98316100  0.66067100  1
  O  O39  1  0.14895600  0.46995800  0.29205200  1
  O  O40  1  0.97550200  0.62796600  0.24034000  1
  O  O41  1  0.94574200  0.90653100  0.29462300  1
  O  O42  1  0.02449800  0.37203400  0.75966000  1
  O  O43  1  0.89005100  0.38698600  0.57417200  1
  O  O44  1  0.00880300  0.82400000  0.44297600  1
  O  O45  1  0.65030500  0.14434300  0.52374800  1
  O  O46  1  0.27108700  0.22397200  0.83652600  1
  O  O47  1  0.99119700  0.67600000  0.94297600  1
  O  O48  1  0.33236600  0.07611000  0.93526300  1
  O  O49  1  0.91925500  0.30328900  0.43774200  1
  O  O50  1  0.77108700  0.77602800  0.66347400  1
  O  O51  1  0.10994900  0.61301400  0.42582800  1
  O  O52  1  0.35104400  0.96995800  0.70794800  1
  O  O53  1  0.47550200  0.37203400  0.25966000  1
  O  O54  1  0.64895600  0.03004200  0.29205200  1
  O  O55  1  0.16763400  0.57611000  0.06473700  1
  O  O56  1  0.22891300  0.22397200  0.33652600  1
  O  O57  1  0.72891300  0.77602800  0.16347400  1
  O  O58  1  0.02449800  0.87203400  0.74034000  1
  O  O59  1  0.50880300  0.17600000  0.05702400  1
  O  O60  1  0.83236600  0.92389000  0.56473700  1
  O  O61  1  0.36427900  0.51683900  0.16067100  1
  O  O62  1  0.08074500  0.69671100  0.56225800  1
  O  O63  1  0.52449800  0.12796600  0.75966000  1
  O  O64  1  0.39005100  0.11301400  0.57417200  1
  O  O65  1  0.27108700  0.72397200  0.66347400  1
  O  O66  1  0.84969500  0.64434300  0.47625200  1
  O  O67  1  0.15030500  0.35565700  0.52374800  1
  O  O68  1  0.14895600  0.96995800  0.20794800  1
  O  O69  1  0.86427900  0.48316100  0.33932900  1
  O  O70  1  0.35104400  0.46995800  0.79205200  1
  O  O71  1  0.83236600  0.42389000  0.93526300  1
  O  O72  1  0.55425800  0.90653100  0.79462300  1
  O  O73  1  0.58074500  0.80328900  0.56225800  1
  O  O74  1  0.44574200  0.09346900  0.20537700  1
  O  O75  1  0.84969500  0.14434300  0.02374800  1
  O  O76  1  0.49119700  0.32400000  0.55702400  1
  O  O77  1  0.60994900  0.88698600  0.42582800  1
  O  O78  1  0.47550200  0.87203400  0.24034000  1
  O  O79  1  0.89005100  0.88698600  0.92582800  1
loop_
_geom_bond_atom_site_label_1
_geom_bond_atom_site_label_2
_geom_bond_distance
_geom_bond_site_symmetry_2
Cr0 O56 1.607003 1_555
Cr0 O20 1.610366 1_555
Cr0 O8 1.739168 1_555
Cr0 O28 1.741020 1_555
Cr1 O70 1.625369 1_555
Cr1 O34 1.628708 1_555
Cr1 O10 1.633371 1_555
Cr1 O19 1.828504 1_555
Cr2 O65 1.607003 1_555
Cr2 O7 1.610366 1_555
Cr2 O62 1.739168 1_555
Cr2 O18 1.741020 1_555
Cr3 O68 1.625369 1_655
Cr3 O11 1.628708 1_565
Cr3 O41 1.633371 1_555
Cr3 O33 1.828504 1_555
Cr4 O46 1.607003 1_555
Cr4 O48 1.610366 1_555
Cr4 O13 1.739168 1_555
Cr4 O26 1.741020 1_555
Cr5 O54 1.625369 1_555
Cr5 O78 1.628708 1_545
Cr5 O74 1.633371 1_555
Cr5 O28 1.828504 1_555
Cr6 O30 1.607003 1_555
Cr6 O71 1.610366 1_555
Cr6 O21 1.739168 1_555
Cr6 O19 1.741020 1_555
Cr7 O29 1.607003 1_555
Cr7 O55 1.610366 1_555
Cr7 O27 1.739168 1_555
Cr7 O61 1.741020 1_555
Cr8 O15 1.625369 1_555
Cr8 O53 1.628708 1_555
Cr8 O6 1.633371 1_555
Cr8 O61 1.828504 1_555
Cr9 O50 1.607003 1_555
Cr9 O60 1.610366 1_555
Cr9 O73 1.739168 1_555
Cr9 O38 1.741020 1_555
Cr10 O52 1.625369 1_555
Cr10 O63 1.628708 1_565
Cr10 O72 1.633371 1_555
Cr10 O38 1.828504 1_555
Cr11 O66 1.626516 1_455
Cr11 O51 1.627817 1_555
Cr11 O44 1.629965 1_555
Cr11 O62 1.830692 1_555
Cr12 O39 1.625369 1_655
Cr12 O40 1.628708 1_555
Cr12 O35 1.633371 1_555
Cr12 O69 1.828504 1_555
Cr13 O0 1.626516 1_555
Cr13 O23 1.627817 1_555
Cr13 O59 1.629965 1_555
Cr13 O21 1.830692 1_554
Cr14 O57 1.607003 1_555
Cr14 O5 1.610366 1_555
Cr14 O9 1.739168 1_555
Cr14 O33 1.741020 1_555
Cr15 O45 1.626516 1_555
Cr15 O64 1.627817 1_555
Cr15 O76 1.629965 1_555
Cr15 O8 1.830692 1_555
Cr16 O22 1.625369 1_455
Cr16 O58 1.628708 1_545
Cr16 O16 1.633371 1_555
Cr16 O26 1.828504 1_555
Cr17 O12 1.626516 1_555
Cr17 O77 1.627817 1_555
Cr17 O1 1.629965 1_555
Cr17 O73 1.830692 1_555
Cr18 O3 1.607003 1_555
Cr18 O4 1.610366 1_555
Cr18 O49 1.739168 1_555
Cr18 O69 1.741020 1_555
Cr19 O75 1.626516 1_455
Cr19 O14 1.627817 1_555
Cr19 O36 1.629965 1_555
Cr19 O13 1.830692 1_554
Cr20 O31 1.626516 1_555
Cr20 O25 1.627817 1_555
Cr20 O2 1.629965 1_555
Cr20 O27 1.830692 1_556
Cr21 O32 1.626516 1_655
Cr21 O79 1.627817 1_555
Cr21 O47 1.629965 1_555
Cr21 O9 1.830692 1_556
Cr22 O67 1.626516 1_655
Cr22 O43 1.627817 1_555
Cr22 O24 1.629965 1_555
Cr22 O49 1.830692 1_555
Cr23 O37 1.625369 1_455
Cr23 O42 1.628708 1_555
Cr23 O17 1.633371 1_555
Cr23 O18 1.828504 1_555
O0 Rb9 3.012038 1_554
O0 Rb15 3.428374 1_555
O1 Rb12 3.070303 1_555
O1 Rb1 3.179810 1_555
O1 Rb11 3.384616 1_555
O2 Rb10 3.070303 1_565
O2 Rb14 3.179810 1_555
O2 Rb7 3.384616 1_556
O3 Rb6 3.030322 1_555
O3 Rb3 3.273124 1_555
O4 Rb12 3.074565 1_555
O4 Rb11 3.210396 1_555
O5 Rb7 3.074565 1_555
O5 Rb10 3.210396 1_564
O6 Rb12 3.009542 1_555
O6 Rb1 3.039247 1_555
O6 Rb2 3.057376 1_555
O7 Rb11 3.074565 1_555
O7 Rb12 3.210396 1_555
O8 Rb12 3.086340 1_555
O9 Rb13 3.086340 1_555
O10 Rb11 3.009542 1_555
O10 Rb4 3.039247 1_555
O10 Rb0 3.057376 1_555
O11 Rb6 3.069127 1_555
O11 Rb15 3.240068 1_655
O11 Rb3 3.379586 1_555
O12 Rb5 3.012038 1_555
O12 Rb2 3.428374 1_555
O13 Rb9 3.086340 1_555
O14 Rb7 2.940135 1_545
O14 Rb15 3.000252 1_555
O15 Rb13 3.050293 1_555
O15 Rb1 3.170307 1_555
O16 Rb5 3.009542 1_545
O16 Rb0 3.039247 1_455
O16 Rb4 3.057376 1_555
O17 Rb9 3.009542 1_555
O17 Rb8 3.039247 1_455
O17 Rb14 3.057376 1_555
O18 Rb4 3.165299 1_555
O19 Rb8 3.165299 1_555
O20 Rb3 3.074565 1_455
O20 Rb5 3.210396 1_545
O21 Rb10 3.086340 1_555
O22 Rb10 3.050293 1_555
O22 Rb0 3.170307 1_555
O23 Rb13 2.940135 1_555
O23 Rb6 3.000252 1_555
O24 Rb5 3.070303 1_645
O24 Rb0 3.179810 1_555
O24 Rb3 3.384616 1_555
O25 Rb9 2.940135 1_555
O25 Rb14 3.000252 1_555
O26 Rb14 3.165299 1_545
O27 Rb7 3.086340 1_555
O28 Rb2 3.165299 1_545
O29 Rb2 3.030322 1_555
O29 Rb7 3.273124 1_555
O30 Rb0 3.030322 1_555
O30 Rb10 3.273124 1_555
O31 Rb13 3.012038 1_556
O31 Rb8 3.428374 1_555
O32 Rb7 3.012038 1_556
O32 Rb14 3.428374 1_555
O33 Rb6 3.165299 1_565
O34 Rb8 3.069127 1_555
O34 Rb14 3.240068 1_555
O34 Rb11 3.379586 1_555
O35 Rb13 3.009542 1_555
O35 Rb15 3.039247 1_655
O35 Rb6 3.057376 1_555
O36 Rb13 3.070303 1_455
O36 Rb15 3.179810 1_555
O36 Rb9 3.384616 1_554
O37 Rb11 3.050293 1_555
O37 Rb8 3.170307 1_555
O38 Rb0 3.165299 1_565
O39 Rb12 3.050293 1_555
O39 Rb15 3.170307 1_555
O40 Rb1 3.069127 1_555
O40 Rb2 3.240068 1_655
O40 Rb13 3.379586 1_555
O41 Rb3 3.009542 1_565
O41 Rb2 3.039247 1_655
O41 Rb1 3.057376 1_555
O42 Rb4 3.069127 1_555
O42 Rb0 3.240068 1_455
O42 Rb9 3.379586 1_555
O43 Rb11 2.940135 1_555
O43 Rb0 3.000252 1_555
O44 Rb3 3.070303 1_465
O44 Rb2 3.179810 1_555
O44 Rb5 3.384616 1_555
O45 Rb3 3.012038 1_555
O45 Rb0 3.428374 1_555
O46 Rb4 3.030322 1_555
O46 Rb9 3.273124 1_555
O47 Rb9 3.070303 1_655
O47 Rb8 3.179810 1_555
O47 Rb13 3.384616 1_556
O48 Rb10 3.074565 1_555
O48 Rb7 3.210396 1_546
O49 Rb3 3.086340 1_555
O50 Rb8 3.030322 1_555
O50 Rb11 3.273124 1_555
O51 Rb12 2.940135 1_555
O51 Rb2 3.000252 1_555
O52 Rb5 3.050293 1_555
O52 Rb14 3.170307 1_555
O53 Rb15 3.069127 1_555
O53 Rb6 3.240068 1_555
O53 Rb12 3.379586 1_555
O54 Rb3 3.050293 1_555
O54 Rb6 3.170307 1_555
O55 Rb13 3.074565 1_455
O55 Rb9 3.210396 1_554
O56 Rb15 3.030322 1_555
O56 Rb12 3.273124 1_555
O57 Rb1 3.030322 1_555
O57 Rb13 3.273124 1_555
O58 Rb14 3.069127 1_555
O58 Rb8 3.240068 1_455
O58 Rb5 3.379586 1_555
O59 Rb7 3.070303 1_545
O59 Rb6 3.179810 1_555
O59 Rb10 3.384616 1_554
O60 Rb5 3.074565 1_655
O60 Rb3 3.210396 1_565
O61 Rb15 3.165299 1_555
O62 Rb5 3.086340 1_555
O63 Rb0 3.069127 1_555
O63 Rb4 3.240068 1_555
O63 Rb10 3.379586 1_555
O64 Rb5 2.940135 1_545
O64 Rb4 3.000252 1_555
O65 Rb14 3.030322 1_555
O65 Rb5 3.273124 1_555
O66 Rb11 3.012038 1_555
O66 Rb1 3.428374 1_555
O67 Rb12 3.012038 1_555
O67 Rb4 3.428374 1_555
O68 Rb7 3.050293 1_555
O68 Rb2 3.170307 1_555
O69 Rb1 3.165299 1_555
O70 Rb9 3.050293 1_555
O70 Rb4 3.170307 1_555
O71 Rb9 3.074565 1_655
O71 Rb13 3.210396 1_556
O72 Rb10 3.009542 1_565
O72 Rb14 3.039247 1_555
O72 Rb8 3.057376 1_555
O73 Rb11 3.086340 1_555
O74 Rb7 3.009542 1_545
O74 Rb6 3.039247 1_555
O74 Rb15 3.057376 1_555
O75 Rb10 3.012038 1_554
O75 Rb6 3.428374 1_555
O76 Rb11 3.070303 1_555
O76 Rb4 3.179810 1_555
O76 Rb12 3.384616 1_555
O77 Rb3 2.940135 1_565
O77 Rb1 3.000252 1_555
O78 Rb2 3.069127 1_555
O78 Rb1 3.240068 1_555
O78 Rb7 3.379586 1_555
O79 Rb10 2.940135 1_565
O79 Rb8 3.000252 1_555
