# generated using pymatgen
data_Nb11S12
_symmetry_space_group_name_H-M   'P 1'
_cell_length_a   7.08369557
_cell_length_b   4.08977353
_cell_length_c   31.43287802
_cell_angle_alpha   86.26995522
_cell_angle_beta   85.69189885
_cell_angle_gamma   29.99999999
_symmetry_Int_Tables_number   1
_chemical_formula_structural   Nb11S12
_chemical_formula_sum   'Nb22 S24'
_cell_volume   454.02992054
_cell_formula_units_Z   2
loop_
 _symmetry_equiv_pos_site_id
 _symmetry_equiv_pos_as_xyz
  1  'x, y, z'
loop_
 _atom_site_type_symbol
 _atom_site_label
 _atom_site_symmetry_multiplicity
 _atom_site_fract_x
 _atom_site_fract_y
 _atom_site_fract_z
 _atom_site_occupancy
  Nb  Nb0  1  0.92333427  0.00000000  0.22999717  1
  Nb  Nb1  1  0.02551911  0.33163601  0.92480896  1
  Nb  Nb2  1  0.24365988  0.00000000  0.26902135  1
  Nb  Nb3  1  0.00022005  0.66607046  0.00058758  1
  Nb  Nb4  1  0.85715512  0.66836399  0.42480896  1
  Nb  Nb5  1  0.47415806  0.66613394  0.57581263  1
  Nb  Nb6  1  0.16629050  0.33392955  0.50058758  1
  Nb  Nb7  1  0.30973631  0.33055569  0.07581263  1
  Nb  Nb8  1  0.74365988  0.00000000  0.76902135  1
  Nb  Nb9  1  0.42333427  0.00000000  0.72999717  1
  Nb  Nb10  1  0.33290286  0.66731719  0.00058758  1
  Nb  Nb11  1  0.69251681  0.33300230  0.92480896  1
  Nb  Nb12  1  0.14029200  0.66944431  0.57581263  1
  Nb  Nb13  1  0.50022005  0.33268281  0.50058758  1
  Nb  Nb14  1  0.52551911  0.66699770  0.42480896  1
  Nb  Nb15  1  0.66629051  0.66661235  0.00058758  1
  Nb  Nb16  1  0.35715512  0.33536169  0.92480896  1
  Nb  Nb17  1  0.97415806  0.33557826  0.07581263  1
  Nb  Nb18  1  0.83290286  0.33338764  0.50058758  1
  Nb  Nb19  1  0.19251681  0.66463831  0.42480896  1
  Nb  Nb20  1  0.80973631  0.66442175  0.57581263  1
  Nb  Nb21  1  0.64029200  0.33386606  0.07581263  1
  S  S0  1  -0.04625528  0.67722699  0.13931065  1
  S  S1  1  0.43075956  0.51605277  0.70092892  1
  S  S2  1  0.22193409  0.02088404  0.79815828  1
  S  S3  1  0.21173363  0.32704285  0.36072014  1
  S  S4  1  0.38877075  0.65000573  0.86072015  1
  S  S5  1  0.23708850  0.50573062  0.29815828  1
  S  S6  1  0.42149819  0.02531415  0.20092892  1
  S  S7  1  0.03877648  0.67295714  0.86072014  1
  S  S8  1  0.27597292  0.67777181  0.13931065  1
  S  S9  1  0.24281913  0.49426938  0.79815828  1
  S  S10  1  -0.05318766  -0.02531414  0.70092892  1
  S  S11  1  0.63097171  0.64500120  0.13931065  1
  S  S12  1  0.45374472  0.32222820  0.63931065  1
  S  S13  1  0.88877076  0.32296286  0.36072015  1
  S  S14  1  0.72193409  0.51515441  0.29815828  1
  S  S15  1  0.77597292  0.35499878  0.63931065  1
  S  S16  1  0.93075956  0.49073863  0.20092892  1
  S  S17  1  0.73708850  0.48484559  0.79815828  1
  S  S18  1  0.71173363  0.67703713  0.86072015  1
  S  S19  1  0.44681234  0.48394722  0.20092892  1
  S  S20  1  0.92149819  0.50926137  0.70092892  1
  S  S21  1  0.74281913  -0.02088404  0.29815828  1
  S  S22  1  0.53877647  0.34999429  0.36072015  1
  S  S23  1  0.13097171  0.32277302  0.63931065  1
loop_
_geom_bond_atom_site_label_1
_geom_bond_atom_site_label_2
_geom_bond_distance
_geom_bond_site_symmetry_2
Nb0 S16 2.191513 1_555
Nb0 S6 2.191514 1_645
Nb0 S19 2.191516 1_555
Nb0 S19 2.286075 1_645
Nb0 S6 2.286076 1_565
Nb0 S16 2.286078 1_545
Nb0 S21 2.446726 1_555
Nb0 S5 2.446727 1_645
Nb0 S14 2.446727 1_555
Nb1 S7 2.418342 1_555
Nb1 S18 2.420401 1_455
Nb1 S4 2.445033 1_545
Nb1 Nb10 2.736245 1_546
Nb1 Nb15 2.738901 1_456
Nb1 Nb3 2.740753 1_556
Nb2 S14 2.200659 1_545
Nb2 S21 2.200662 1_465
Nb2 S5 2.200663 1_545
Nb2 S5 2.278646 1_555
Nb2 S21 2.278646 1_545
Nb2 S14 2.278650 1_455
Nb2 S6 2.443507 1_555
Nb2 S19 2.443511 1_545
Nb2 S16 2.443511 1_455
Nb3 Nb7 2.725228 1_555
Nb4 S3 2.418342 1_655
Nb4 S13 2.420401 1_555
Nb4 S22 2.445033 1_565
Nb4 Nb6 2.740753 1_655
Nb5 S23 2.401294 1_565
Nb5 S15 2.402583 1_555
Nb5 S12 2.434443 1_555
Nb5 Nb6 2.724760 1_565
Nb7 S8 2.401295 1_555
Nb7 S0 2.402581 1_555
Nb7 S11 2.434444 1_545
Nb8 S17 2.200659 1_555
Nb8 S2 2.200663 1_645
Nb8 S9 2.200663 1_555
Nb8 S9 2.278646 1_645
Nb8 S2 2.278646 1_565
Nb8 S17 2.278650 1_545
Nb8 S10 2.443507 1_655
Nb8 S1 2.443511 1_555
Nb8 S20 2.443511 1_545
Nb9 S20 2.191513 1_545
Nb9 S10 2.191514 1_565
Nb9 S1 2.191516 1_545
Nb9 S1 2.286075 1_555
Nb9 S10 2.286076 1_645
Nb9 S20 2.286078 1_455
Nb9 S17 2.446727 1_545
Nb9 S9 2.446727 1_555
Nb9 S2 2.446729 1_555
Nb10 Nb3 2.359121 1_565
Nb10 Nb15 2.359121 1_555
Nb10 Nb15 2.361041 1_465
Nb10 Nb3 2.361041 1_555
Nb10 Nb15 2.363536 1_545
Nb10 Nb3 2.363536 1_645
Nb10 Nb21 2.720812 1_555
Nb10 Nb7 2.724762 1_555
Nb10 Nb17 2.725230 1_465
Nb10 Nb16 2.738903 1_554
Nb10 Nb11 2.740752 1_554
Nb11 S4 2.418339 1_555
Nb11 S7 2.420403 1_645
Nb11 S18 2.445034 1_555
Nb11 Nb15 2.736246 1_556
Nb11 Nb3 2.738902 1_646
Nb12 S12 2.401295 1_555
Nb12 S23 2.402581 1_555
Nb12 S15 2.434444 1_465
Nb12 Nb18 2.720814 1_465
Nb12 Nb13 2.724762 1_555
Nb12 Nb6 2.725228 1_555
Nb13 Nb6 2.359121 1_645
Nb13 Nb18 2.359121 1_555
Nb13 Nb18 2.361041 1_545
Nb13 Nb6 2.361041 1_555
Nb13 Nb6 2.363536 1_565
Nb13 Nb18 2.363536 1_465
Nb13 Nb5 2.720812 1_555
Nb13 Nb20 2.725230 1_545
Nb13 Nb4 2.736245 1_545
Nb13 Nb19 2.738903 1_555
Nb13 Nb14 2.740752 1_555
Nb14 S22 2.418339 1_555
Nb14 S3 2.420403 1_565
Nb14 S13 2.445034 1_555
Nb14 Nb18 2.736246 1_555
Nb14 Nb6 2.738902 1_565
Nb15 Nb3 2.359121 1_565
Nb15 Nb3 2.361041 1_645
Nb15 Nb3 2.363536 1_655
Nb15 Nb7 2.720814 1_565
Nb15 Nb17 2.724758 1_555
Nb15 Nb21 2.725233 1_555
Nb15 Nb16 2.740753 1_564
Nb16 S18 2.418340 1_545
Nb16 S4 2.420404 1_555
Nb16 S7 2.445032 1_555
Nb16 Nb3 2.736245 1_556
Nb17 S11 2.401293 1_555
Nb17 S8 2.402582 1_645
Nb17 S0 2.434445 1_655
Nb17 Nb3 2.720816 1_655
Nb18 Nb6 2.359121 1_645
Nb18 Nb6 2.361041 1_565
Nb18 Nb6 2.363536 1_655
Nb18 Nb20 2.724758 1_555
Nb18 Nb5 2.725233 1_555
Nb18 Nb4 2.738901 1_555
Nb18 Nb19 2.740753 1_645
Nb19 S13 2.418340 1_465
Nb19 S22 2.420404 1_555
Nb19 S3 2.445032 1_555
Nb19 Nb6 2.736245 1_555
Nb20 S15 2.401293 1_555
Nb20 S12 2.402582 1_565
Nb20 S23 2.434445 1_655
Nb20 Nb6 2.720816 1_655
Nb21 S0 2.401294 1_645
Nb21 S11 2.402583 1_555
Nb21 S8 2.434443 1_555
Nb21 Nb3 2.724760 1_645
S0 S16 2.082083 1_455
S0 S11 2.284496 1_465
S0 S8 2.284496 1_555
S0 S8 2.399571 1_545
S0 S11 2.399571 1_545
S0 S8 2.401469 1_465
S0 S11 2.401469 1_455
S1 S10 2.032977 1_565
S1 S20 2.032977 1_465
S1 S20 2.060726 1_545
S1 S10 2.060726 1_655
S1 S12 2.082081 1_555
S2 S9 2.026962 1_545
S2 S9 2.065486 1_555
S2 S4 2.102553 1_545
S3 S5 2.102553 1_555
S4 S7 2.302236 1_645
S4 S7 2.384153 1_565
S4 S7 2.398422 1_555
S7 S9 2.102553 1_555
S10 S20 2.032977 1_455
S10 S20 2.060726 1_445
S10 S15 2.082082 1_455
S11 S6 2.082082 1_565
S11 S8 2.284496 1_645
S11 S8 2.399571 1_555
S11 S8 2.401469 1_565
S12 S23 2.284496 1_555
S12 S15 2.284496 1_545
S12 S15 2.399571 1_555
S12 S23 2.399571 1_645
S12 S15 2.401469 1_465
S12 S23 2.401469 1_565
S13 S14 2.102555 1_555
S13 S22 2.302236 1_645
S13 S3 2.302236 1_655
S13 S3 2.384153 1_645
S13 S22 2.384153 1_555
S13 S3 2.398422 1_565
S13 S22 2.398422 1_565
S14 S5 2.026966 1_565
S14 S21 2.026970 1_565
S14 S21 2.065478 1_555
S14 S5 2.065482 1_645
S15 S23 2.284496 1_565
S15 S23 2.399571 1_645
S15 S23 2.401469 1_655
S16 S19 2.032977 1_565
S16 S6 2.032977 1_565
S16 S19 2.060726 1_645
S16 S6 2.060726 1_655
S17 S2 2.026964 1_655
S17 S9 2.026966 1_645
S17 S9 2.065482 1_565
S17 S2 2.065484 1_565
S17 S18 2.102555 1_555
S18 S7 2.302236 1_655
S18 S4 2.302236 1_565
S18 S7 2.384153 1_565
S18 S4 2.384153 1_555
S18 S4 2.398422 1_645
S18 S7 2.398422 1_645
S19 S6 2.032977 1_555
S19 S6 2.060726 1_565
S19 S8 2.082081 1_555
S20 S23 2.082083 1_655
S21 S5 2.026968 1_555
S21 S5 2.065480 1_645
S21 S22 2.102553 1_555
S22 S3 2.302236 1_565
S22 S3 2.384153 1_645
S22 S3 2.398422 1_555
