# generated using pymatgen
data_Ag2SeO4
_symmetry_space_group_name_H-M   'P 1'
_cell_length_a   8.58941069
_cell_length_b   7.07717802
_cell_length_c   6.45798591
_cell_angle_alpha   78.63422780
_cell_angle_beta   53.87997827
_cell_angle_gamma   47.48579393
_symmetry_Int_Tables_number   1
_chemical_formula_structural   Ag2SeO4
_chemical_formula_sum   'Ag4 Se2 O8'
_cell_volume   219.98707909
_cell_formula_units_Z   2
loop_
 _symmetry_equiv_pos_site_id
 _symmetry_equiv_pos_as_xyz
  1  'x, y, z'
loop_
 _atom_site_type_symbol
 _atom_site_label
 _atom_site_symmetry_multiplicity
 _atom_site_fract_x
 _atom_site_fract_y
 _atom_site_fract_z
 _atom_site_occupancy
  Ag  Ag0  1  0.17768600  0.57888800  0.17832700  1
  Ag  Ag1  1  0.57699300  0.18030200  0.56702800  1
  Ag  Ag2  1  0.83302000  0.42078500  0.81480700  1
  Ag  Ag3  1  0.42606100  0.82097000  0.42044200  1
  Se  Se0  1  0.87936800  0.86570000  0.87566900  1
  Se  Se1  1  0.12752700  0.12890700  0.11783300  1
  O  O0  1  0.71114200  0.18703600  0.86355300  1
  O  O1  1  0.72954700  0.86270800  0.20010500  1
  O  O2  1  0.87913900  0.72187100  0.69661600  1
  O  O3  1  0.19151800  0.71345700  0.73253300  1
  O  O4  1  0.29376600  0.80668600  0.13933500  1
  O  O5  1  0.27280900  0.12324200  0.79760100  1
  O  O6  1  0.80183100  0.29112600  0.27558100  1
  O  O7  1  0.13193400  0.26398800  0.30240800  1
loop_
_geom_bond_atom_site_label_1
_geom_bond_atom_site_label_2
_geom_bond_distance
_geom_bond_site_symmetry_2
Ag0 O4 2.317999 1_555
Ag0 O7 2.423175 1_555
Ag0 O2 2.551789 1_455
Ag0 O0 2.623892 1_554
Ag0 O3 2.806845 1_554
Ag0 O1 2.809699 1_455
Ag1 O6 2.251067 1_555
Ag1 O5 2.410208 1_555
Ag1 O1 2.615707 1_545
Ag1 O3 2.621957 1_555
Ag1 O0 2.776440 1_555
Ag2 O2 2.328802 1_555
Ag2 O0 2.382959 1_555
Ag2 O7 2.520617 1_655
Ag2 O4 2.649461 1_556
Ag2 O5 2.750034 1_655
Ag2 O6 2.843345 1_556
Ag3 O3 2.319480 1_555
Ag3 O1 2.325769 1_555
Ag3 O5 2.590261 1_565
Ag3 O6 2.611297 1_555
Ag3 O4 2.693835 1_555
Ag3 O7 2.723356 1_565
O0 Se0 1.699323 1_545
O1 Se0 1.699098 1_554
O2 Se0 1.685976 1_555
O3 Se0 1.664428 1_455
O4 Se1 1.722358 1_565
O5 Se1 1.660784 1_556
O6 Se1 1.715307 1_655
O7 Se1 1.699241 1_555
