# generated using pymatgen
data_Ti2Cu3
_symmetry_space_group_name_H-M   'P 1'
_cell_length_a   3.11958153
_cell_length_b   3.11959700
_cell_length_c   13.92752275
_cell_angle_alpha   90.00018884
_cell_angle_beta   89.99984342
_cell_angle_gamma   89.99977519
_symmetry_Int_Tables_number   1
_chemical_formula_structural   Ti2Cu3
_chemical_formula_sum   'Ti4 Cu6'
_cell_volume   135.54038375
_cell_formula_units_Z   2
loop_
 _symmetry_equiv_pos_site_id
 _symmetry_equiv_pos_as_xyz
  1  'x, y, z'
loop_
 _atom_site_type_symbol
 _atom_site_label
 _atom_site_symmetry_multiplicity
 _atom_site_fract_x
 _atom_site_fract_y
 _atom_site_fract_z
 _atom_site_occupancy
  Ti  Ti0  1  0.25000830  0.24999996  0.43923634  1
  Ti  Ti1  1  0.24999270  0.25000186  0.85442809  1
  Ti  Ti2  1  0.75000792  0.74999829  0.56100389  1
  Ti  Ti3  1  0.74999619  0.75000005  0.14544160  1
  Cu  Cu0  1  0.25000113  0.24999523  0.04399080  1
  Cu  Cu1  1  0.24999915  0.24999966  0.24452782  1
  Cu  Cu2  1  0.25000510  0.24999902  0.66454977  1
  Cu  Cu3  1  0.74999688  0.75000254  0.75552257  1
  Cu  Cu4  1  0.74998887  0.75000420  0.95579241  1
  Cu  Cu5  1  0.75000176  0.75000118  0.33550672  1
loop_
_geom_bond_atom_site_label_1
_geom_bond_atom_site_label_2
_geom_bond_distance
_geom_bond_site_symmetry_2
Cu0 Cu4 2.524797 1_544
Cu0 Cu4 2.524844 1_554
Cu0 Cu4 2.524856 1_444
Cu0 Cu4 2.524888 1_454
Cu0 Ti3 2.619596 1_545
Cu0 Ti3 2.619615 1_555
Cu0 Ti3 2.619617 1_445
Cu0 Ti3 2.619622 1_455
Cu0 Ti1 2.640139 1_554
Cu1 Cu5 2.543901 1_455
Cu1 Cu5 2.543908 1_445
Cu1 Cu5 2.543915 1_545
Cu1 Cu5 2.543923 1_555
Cu1 Ti3 2.601982 1_545
Cu1 Ti3 2.601996 1_555
Cu1 Ti3 2.602005 1_455
Cu1 Ti3 2.602005 1_445
Cu1 Ti0 2.711807 1_555
Cu2 Cu3 2.543848 1_545
Cu2 Cu3 2.543864 1_555
Cu2 Cu3 2.543883 1_445
Cu2 Cu3 2.543884 1_455
Cu2 Ti2 2.635461 1_455
Cu2 Ti2 2.635463 1_545
Cu2 Ti2 2.635465 1_445
Cu2 Ti2 2.635474 1_555
Cu2 Ti1 2.644535 1_555
Cu3 Ti1 2.600657 1_665
Cu3 Ti1 2.600658 1_655
Cu3 Ti1 2.600661 1_565
Cu3 Ti1 2.600676 1_555
Cu3 Ti2 2.709163 1_555
Cu4 Ti1 2.618953 1_565
Cu4 Ti1 2.618963 1_555
Cu4 Ti1 2.618966 1_655
Cu4 Ti1 2.618970 1_665
Cu4 Ti3 2.641343 1_556
Cu5 Ti0 2.636844 1_565
Cu5 Ti0 2.636861 1_555
Cu5 Ti0 2.636880 1_665
Cu5 Ti0 2.636883 1_655
Cu5 Ti3 2.647136 1_555
