# generated using pymatgen
data_ScPS4
_symmetry_space_group_name_H-M   'P 1'
_cell_length_a   6.24729817
_cell_length_b   6.53240601
_cell_length_c   6.94663634
_cell_angle_alpha   86.44472617
_cell_angle_beta   88.42950291
_cell_angle_gamma   81.17694762
_symmetry_Int_Tables_number   1
_chemical_formula_structural   ScPS4
_chemical_formula_sum   'Sc2 P2 S8'
_cell_volume   279.55165724
_cell_formula_units_Z   2
loop_
 _symmetry_equiv_pos_site_id
 _symmetry_equiv_pos_as_xyz
  1  'x, y, z'
loop_
 _atom_site_type_symbol
 _atom_site_label
 _atom_site_symmetry_multiplicity
 _atom_site_fract_x
 _atom_site_fract_y
 _atom_site_fract_z
 _atom_site_occupancy
  Sc  Sc0  1  0.79498325  0.30473722  0.93743218  1
  Sc  Sc1  1  0.20501675  0.69526278  0.06256782  1
  P  P0  1  0.68807652  0.73528128  0.18189132  1
  P  P1  1  0.31192348  0.26471872  0.81810868  1
  S  S0  1  0.57801603  0.23483768  0.64872401  1
  S  S1  1  0.42198297  0.76516232  0.35127599  1
  S  S2  1  0.87814914  0.96140247  0.20295559  1
  S  S3  1  0.12185086  0.03859753  0.79704441  1
  S  S4  1  0.59624730  0.71283285  0.90370103  1
  S  S5  1  0.40375270  0.28716715  0.09629897  1
  S  S6  1  0.91273190  0.47698968  0.24648623  1
  S  S7  1  0.08726810  0.52301032  0.75351377  1
loop_
_geom_bond_atom_site_label_1
_geom_bond_atom_site_label_2
_geom_bond_distance
_geom_bond_site_symmetry_2
P0 S1 2.001949 1_555
P0 S2 2.046385 1_555
P0 S4 2.051059 1_554
P0 S6 2.057225 1_555
P1 S0 2.001944 1_555
P1 S3 2.046385 1_555
P1 S5 2.051059 1_556
P1 S7 2.057225 1_555
S0 Sc0 2.553516 1_555
S1 Sc1 2.553512 1_555
S2 Sc1 2.674982 1_655
S2 Sc0 2.807893 1_564
S3 Sc0 2.674982 1_455
S3 Sc1 2.807893 1_546
S4 Sc1 2.669714 1_556
S4 Sc0 2.761567 1_555
S5 Sc0 2.669714 1_554
S5 Sc1 2.761567 1_555
S6 Sc0 2.656400 1_554
S6 Sc1 2.728456 1_655
S7 Sc1 2.656400 1_556
S7 Sc0 2.728456 1_455
