# generated using pymatgen
data_Yb(PrS2)2
_symmetry_space_group_name_H-M   'P 1'
_cell_length_a   7.37585890
_cell_length_b   7.37585890
_cell_length_c   7.37585890
_cell_angle_alpha   110.63179376
_cell_angle_beta   110.63179376
_cell_angle_gamma   107.17420592
_symmetry_Int_Tables_number   1
_chemical_formula_structural   Yb(PrS2)2
_chemical_formula_sum   'Yb2 Pr4 S8'
_cell_volume   308.52808647
_cell_formula_units_Z   2
loop_
 _symmetry_equiv_pos_site_id
 _symmetry_equiv_pos_as_xyz
  1  'x, y, z'
loop_
 _atom_site_type_symbol
 _atom_site_label
 _atom_site_symmetry_multiplicity
 _atom_site_fract_x
 _atom_site_fract_y
 _atom_site_fract_z
 _atom_site_occupancy
  Yb  Yb0  1  0.50000000  0.50000000  0.00000000  1
  Yb  Yb1  1  0.25000000  0.75000000  0.50000000  1
  Pr  Pr0  1  0.98516638  0.62500000  0.86016638  1
  Pr  Pr1  1  0.87500000  0.01483362  0.63983362  1
  Pr  Pr2  1  0.76483362  0.12500000  0.13983362  1
  Pr  Pr3  1  0.37500000  0.23516638  0.36016638  1
  S  S0  1  0.13110181  0.39227524  0.11824570  1
  S  S1  1  0.76285712  0.52402955  0.38175430  1
  S  S2  1  0.60772476  0.72597045  0.73882757  1
  S  S3  1  0.27402955  0.01285712  0.88175430  1
  S  S4  1  0.47597045  0.85772476  0.23882757  1
  S  S5  1  0.98714288  0.86889819  0.26117243  1
  S  S6  1  0.61889819  0.23714288  0.76117243  1
  S  S7  1  0.14227524  0.38110181  0.61824570  1
loop_
_geom_bond_atom_site_label_1
_geom_bond_atom_site_label_2
_geom_bond_distance
_geom_bond_site_symmetry_2
Pr0 S5 2.861679 1_556
Pr0 S7 2.861681 1_655
Pr0 S6 2.930741 1_555
Pr0 S3 2.930745 1_665
Pr0 S2 3.007376 1_555
Pr0 S1 3.007376 1_555
Pr0 S0 3.111044 1_656
Pr0 S4 3.111046 1_656
Pr1 S4 2.861677 1_545
Pr1 S3 2.861677 1_655
Pr1 S7 2.930739 1_655
Pr1 S2 2.930745 1_545
Pr1 S6 3.007369 1_555
Pr1 S0 3.007376 1_656
Pr1 S5 3.111045 1_545
Pr1 S1 3.111046 1_545
Pr2 S2 2.861677 1_544
Pr2 S1 2.861677 1_555
Pr2 S0 2.930739 1_655
Pr2 S4 2.930745 1_545
Pr2 S5 3.007369 1_545
Pr2 S7 3.007376 1_655
Pr2 S6 3.111045 1_554
Pr2 S3 3.111046 1_554
Pr3 S6 2.861679 1_555
Pr3 S0 2.861681 1_555
Pr3 S5 2.930741 1_445
Pr3 S1 2.930745 1_555
Pr3 S4 3.007376 1_545
Pr3 S3 3.007376 1_554
Pr3 S7 3.111044 1_555
Pr3 S2 3.111046 1_555
S0 Yb1 2.704999 1_555
S0 Yb0 3.111190 1_555
S1 Yb0 2.705002 1_555
S1 Yb1 3.111184 1_655
S2 Yb1 2.705002 1_555
S2 Yb0 3.111184 1_556
S3 Yb1 2.705002 1_545
S3 Yb0 3.111184 1_556
S4 Yb0 2.705002 1_555
S4 Yb1 3.111184 1_555
S5 Yb1 2.705007 1_655
S5 Yb0 3.111186 1_555
S6 Yb0 2.705007 1_556
S6 Yb1 3.111186 1_545
S7 Yb0 2.704999 1_556
S7 Yb1 3.111190 1_555
