# generated using pymatgen
data_La2(ZnGe2)3
_symmetry_space_group_name_H-M   'P 1'
_cell_length_a   12.83645747
_cell_length_b   12.83645747
_cell_length_c   5.98677569
_cell_angle_alpha   90.00000000
_cell_angle_beta   90.00000000
_cell_angle_gamma   153.01105477
_symmetry_Int_Tables_number   1
_chemical_formula_structural   La2(ZnGe2)3
_chemical_formula_sum   'La4 Zn6 Ge12'
_cell_volume   447.67787397
_cell_formula_units_Z   2
loop_
 _symmetry_equiv_pos_site_id
 _symmetry_equiv_pos_as_xyz
  1  'x, y, z'
loop_
 _atom_site_type_symbol
 _atom_site_label
 _atom_site_symmetry_multiplicity
 _atom_site_fract_x
 _atom_site_fract_y
 _atom_site_fract_z
 _atom_site_occupancy
  La  La0  1  0.89370503  0.10629497  0.25000000  1
  La  La1  1  0.39402385  0.60597615  0.75000000  1
  La  La2  1  0.60597615  0.39402385  0.25000000  1
  La  La3  1  0.10629497  0.89370503  0.75000000  1
  Zn  Zn0  1  0.76023189  0.76023189  -0.00000000  1
  Zn  Zn1  1  0.33864030  0.66135970  0.25000000  1
  Zn  Zn2  1  0.76023189  0.76023189  0.50000000  1
  Zn  Zn3  1  0.66135970  0.33864030  0.75000000  1
  Zn  Zn4  1  0.23976811  0.23976811  -0.00000000  1
  Zn  Zn5  1  0.23976811  0.23976811  0.50000000  1
  Ge  Ge0  1  0.01105817  0.41522248  0.96320398  1
  Ge  Ge1  1  0.98894183  0.58477752  0.46320398  1
  Ge  Ge2  1  0.58477752  0.98894183  0.96320398  1
  Ge  Ge3  1  0.98894183  0.58477752  0.03679602  1
  Ge  Ge4  1  0.93567876  0.06432124  0.75000000  1
  Ge  Ge5  1  0.41522248  0.01105817  0.46320398  1
  Ge  Ge6  1  0.44162619  0.55837381  0.25000000  1
  Ge  Ge7  1  0.58477752  0.98894183  0.53679602  1
  Ge  Ge8  1  0.41522248  0.01105817  0.03679602  1
  Ge  Ge9  1  0.06432124  0.93567876  0.25000000  1
  Ge  Ge10  1  0.55837381  0.44162619  0.75000000  1
  Ge  Ge11  1  0.01105817  0.41522248  0.53679602  1
loop_
_geom_bond_atom_site_label_1
_geom_bond_atom_site_label_2
_geom_bond_distance
_geom_bond_site_symmetry_2
La0 Zn1 3.295772 1_545
La0 Zn1 3.295772 1_655
La0 Zn0 3.368198 1_545
La0 Zn5 3.368198 1_655
La0 Zn2 3.368198 1_545
La0 Zn4 3.368198 1_655
La1 Zn1 3.297266 1_556
La1 Zn1 3.297266 1_555
La1 Zn0 3.416109 1_556
La1 Zn2 3.416109 1_555
La1 Zn5 3.416109 1_555
La1 Zn4 3.416109 1_556
La2 Zn3 3.297266 1_554
La2 Zn3 3.297266 1_555
La2 Zn2 3.416109 1_555
La2 Zn0 3.416109 1_555
La2 Zn4 3.416109 1_555
La2 Zn5 3.416109 1_555
La3 Zn3 3.295772 1_565
La3 Zn3 3.295772 1_455
La3 Zn0 3.368198 1_456
La3 Zn4 3.368198 1_566
La3 Zn5 3.368198 1_565
La3 Zn2 3.368198 1_455
Ge0 Ge3 2.472449 1_456
Ge0 Ge11 2.552809 1_555
Ge0 Ge2 2.553768 1_445
Ge0 Zn1 2.633407 1_556
Ge0 La0 3.208819 1_456
Ge0 La1 3.215387 1_555
Ge1 Ge11 2.472449 1_655
Ge1 Ge3 2.552809 1_555
Ge1 Ge5 2.553768 1_665
Ge1 Zn3 2.633407 1_555
Ge1 La3 3.208819 1_655
Ge1 La2 3.215387 1_555
Ge2 Ge8 2.472449 1_566
Ge2 Ge7 2.552809 1_555
Ge2 Zn1 2.633407 1_556
Ge2 La0 3.208819 1_566
Ge2 La1 3.215387 1_555
Ge3 Ge8 2.553768 1_665
Ge3 Zn3 2.633407 1_554
Ge3 La3 3.208819 1_654
Ge3 La2 3.215387 1_555
Ge4 Zn5 2.623301 1_655
Ge4 Zn4 2.623301 1_656
Ge4 Zn0 2.623301 1_546
Ge4 Zn2 2.623301 1_545
Ge4 La1 3.170775 1_655
Ge4 La1 3.170775 1_545
Ge4 La0 3.171488 1_556
Ge4 La0 3.171488 1_555
Ge5 Ge7 2.472449 1_545
Ge5 Ge8 2.552809 1_555
Ge5 Zn3 2.633407 1_555
Ge5 La3 3.208819 1_545
Ge5 La2 3.215387 1_555
Ge6 Zn1 2.570955 1_555
Ge6 Zn0 2.606561 1_555
Ge6 Zn5 2.606561 1_555
Ge6 Zn4 2.606561 1_555
Ge6 Zn2 2.606561 1_555
Ge6 La1 3.220644 1_555
Ge6 La1 3.220644 1_554
Ge6 La0 3.225465 1_565
Ge6 La0 3.225465 1_455
Ge7 Zn1 2.633407 1_555
Ge7 La0 3.208819 1_565
Ge7 La1 3.215387 1_555
Ge8 Zn3 2.633407 1_554
Ge8 La3 3.208819 1_544
Ge8 La2 3.215387 1_555
Ge9 Zn5 2.623301 1_565
Ge9 Zn4 2.623301 1_565
Ge9 Zn2 2.623301 1_455
Ge9 Zn0 2.623301 1_455
Ge9 La2 3.170775 1_565
Ge9 La2 3.170775 1_455
Ge9 La3 3.171488 1_554
Ge9 La3 3.171488 1_555
Ge10 Zn3 2.570955 1_555
Ge10 Zn4 2.606561 1_556
Ge10 Zn5 2.606561 1_555
Ge10 Zn0 2.606561 1_556
Ge10 Zn2 2.606561 1_555
Ge10 La2 3.220644 1_556
Ge10 La2 3.220644 1_555
Ge10 La3 3.225465 1_545
Ge10 La3 3.225465 1_655
Ge11 Ge7 2.553768 1_445
Ge11 Zn1 2.633407 1_555
Ge11 La0 3.208819 1_455
Ge11 La1 3.215387 1_555
