# generated using pymatgen
data_Pr4MgCo
_symmetry_space_group_name_H-M   'P 1'
_cell_length_a   9.93767770
_cell_length_b   9.93776097
_cell_length_c   9.93776562
_cell_angle_alpha   59.99939540
_cell_angle_beta   59.99945365
_cell_angle_gamma   59.99954749
_symmetry_Int_Tables_number   1
_chemical_formula_structural   Pr4MgCo
_chemical_formula_sum   'Pr16 Mg4 Co4'
_cell_volume   693.97199235
_cell_formula_units_Z   4
loop_
 _symmetry_equiv_pos_site_id
 _symmetry_equiv_pos_as_xyz
  1  'x, y, z'
loop_
 _atom_site_type_symbol
 _atom_site_label
 _atom_site_symmetry_multiplicity
 _atom_site_fract_x
 _atom_site_fract_y
 _atom_site_fract_z
 _atom_site_occupancy
  Pr  Pr0  1  0.28333103  0.90556139  0.90555773  1
  Pr  Pr1  1  0.68908985  0.68911857  0.31089403  1
  Pr  Pr2  1  0.90554390  0.90557551  0.28332129  1
  Pr  Pr3  1  0.31091155  0.68908696  0.31091095  1
  Pr  Pr4  1  0.68908387  0.31090023  0.31090197  1
  Pr  Pr5  1  0.06225397  0.43775044  0.43775907  1
  Pr  Pr6  1  0.43775185  0.06224796  0.06224585  1
  Pr  Pr7  1  0.06224975  0.06223997  0.43774155  1
  Pr  Pr8  1  0.31091315  0.31090984  0.68908712  1
  Pr  Pr9  1  0.43776492  0.06225092  0.43773923  1
  Pr  Pr10  1  0.90553599  0.90557314  0.90557037  1
  Pr  Pr11  1  0.43776937  0.43773562  0.06224965  1
  Pr  Pr12  1  0.31090941  0.68908746  0.68908798  1
  Pr  Pr13  1  0.68908983  0.31089220  0.68911861  1
  Pr  Pr14  1  0.06225118  0.43773688  0.06223882  1
  Pr  Pr15  1  0.90554452  0.28332093  0.90557320  1
  Mg  Mg0  1  0.67178411  0.67178546  0.98464223  1
  Mg  Mg1  1  0.98463738  0.67178670  0.67178678  1
  Mg  Mg2  1  0.67178360  0.98464337  0.67178497  1
  Mg  Mg3  1  0.67178513  0.67178629  0.67178663  1
  Co  Co0  1  0.10945453  0.10944945  0.10944698  1
  Co  Co1  1  0.10945679  0.10945316  0.67164984  1
  Co  Co2  1  0.67164725  0.10945747  0.10945253  1
  Co  Co3  1  0.10945808  0.67165108  0.10945063  1
loop_
_geom_bond_atom_site_label_1
_geom_bond_atom_site_label_2
_geom_bond_distance
_geom_bond_site_symmetry_2
Pr0 Pr8 3.574690 1_565
Pr0 Pr3 3.574728 1_556
Pr0 Pr12 3.574856 1_555
Pr1 Pr10 3.574444 1_554
Pr1 Pr2 3.574583 1_555
Pr1 Pr9 3.720414 1_565
Pr1 Pr6 3.720424 1_565
Pr1 Pr5 3.720749 1_655
Pr1 Pr14 3.720787 1_655
Pr1 Pr3 3.758287 1_555
Pr1 Pr12 3.758288 1_555
Pr1 Pr4 3.758634 1_555
Pr1 Pr13 3.758681 1_555
Pr2 Pr4 3.574488 1_565
Pr2 Pr3 3.574858 1_655
Pr3 Pr7 3.720512 1_565
Pr3 Pr5 3.720533 1_555
Pr3 Pr6 3.720612 1_565
Pr3 Pr8 3.758196 1_555
Pr3 Pr4 3.758216 1_555
Pr4 Pr9 3.720354 1_555
Pr4 Pr7 3.720636 1_655
Pr4 Pr8 3.758196 1_555
Pr5 Pr8 3.720505 1_555
Pr6 Pr8 3.720590 1_554
Pr8 Pr9 3.720654 1_555
Pr10 Pr13 3.574415 1_565
Pr10 Pr12 3.574927 1_655
Pr11 Pr4 3.720353 1_555
Pr11 Pr13 3.720393 1_554
Pr11 Pr3 3.720682 1_555
Pr11 Pr12 3.720721 1_554
Pr12 Pr7 3.720599 1_565
Pr12 Pr14 3.720602 1_556
Pr12 Pr9 3.720709 1_565
Pr12 Pr8 3.758224 1_555
Pr12 Pr3 3.758227 1_555
Pr12 Pr13 3.758299 1_555
Pr13 Pr15 3.574579 1_555
Pr13 Pr6 3.720391 1_556
Pr13 Pr5 3.720709 1_655
Pr13 Pr7 3.720744 1_655
Pr13 Pr8 3.758267 1_555
Pr13 Pr4 3.758618 1_555
Pr14 Pr8 3.720482 1_554
Pr14 Pr4 3.720627 1_455
Pr15 Pr4 3.574517 1_556
Pr15 Pr8 3.574860 1_655
Mg0 Mg1 3.109034 1_555
Mg0 Mg2 3.109076 1_555
Mg0 Mg3 3.109076 1_555
Mg0 Pr3 3.422927 1_556
Mg0 Pr4 3.422970 1_556
Mg0 Pr1 3.422998 1_556
Mg0 Pr0 3.627212 1_555
Mg0 Pr15 3.627272 1_555
Mg0 Pr10 3.627309 1_555
Mg0 Pr11 3.637951 1_556
Mg0 Pr14 3.637963 1_656
Mg0 Pr6 3.637982 1_566
Mg1 Mg3 3.109028 1_555
Mg1 Mg2 3.109046 1_555
Mg1 Pr12 3.422969 1_655
Mg1 Pr3 3.422973 1_655
Mg1 Pr8 3.422990 1_655
Mg1 Pr15 3.627374 1_555
Mg1 Pr2 3.627377 1_555
Mg1 Pr10 3.627468 1_555
Mg1 Pr14 3.637930 1_656
Mg1 Pr7 3.637931 1_665
Mg1 Pr5 3.637932 1_655
Mg2 Mg3 3.109083 1_555
Mg2 Pr8 3.422910 1_565
Mg2 Pr4 3.422944 1_565
Mg2 Pr13 3.422972 1_565
Mg2 Pr0 3.627193 1_555
Mg2 Pr2 3.627259 1_555
Mg2 Pr10 3.627305 1_555
Mg2 Pr7 3.637950 1_665
Mg2 Pr9 3.637953 1_565
Mg2 Pr6 3.637971 1_566
Mg3 Pr12 3.422975 1_555
Mg3 Pr1 3.423021 1_555
Mg3 Pr13 3.423036 1_555
Mg3 Pr0 3.627259 1_555
Mg3 Pr15 3.627307 1_555
Mg3 Pr2 3.627310 1_555
Mg3 Pr11 3.637959 1_556
Mg3 Pr5 3.637974 1_655
Mg3 Pr9 3.637976 1_565
Co0 Pr14 2.871020 1_555
Co0 Pr7 2.871081 1_555
Co0 Pr6 2.871117 1_555
Co0 Pr0 2.880952 1_544
Co0 Pr2 2.880987 1_445
Co0 Pr15 2.880989 1_454
Co0 Pr8 3.570501 1_554
Co0 Pr4 3.570523 1_455
Co0 Pr3 3.570526 1_545
Co1 Pr5 2.871114 1_555
Co1 Pr9 2.871233 1_555
Co1 Pr7 2.871402 1_555
Co1 Pr0 2.880973 1_545
Co1 Pr15 2.881059 1_455
Co1 Pr10 2.881098 1_445
Co1 Pr8 3.570459 1_555
Co1 Pr13 3.570480 1_455
Co1 Pr12 3.570577 1_545
Co2 Pr11 2.870947 1_555
Co2 Pr9 2.871014 1_555
Co2 Pr6 2.871233 1_555
Co2 Pr15 2.880814 1_554
Co2 Pr2 2.880849 1_545
Co2 Pr10 2.880859 1_544
Co2 Pr13 3.570289 1_554
Co2 Pr4 3.570293 1_555
Co2 Pr1 3.570331 1_545
Co3 Pr5 2.871217 1_555
Co3 Pr11 2.871271 1_555
Co3 Pr14 2.871448 1_555
Co3 Pr0 2.880978 1_554
Co3 Pr2 2.881086 1_455
Co3 Pr10 2.881114 1_454
Co3 Pr3 3.570459 1_555
Co3 Pr1 3.570491 1_455
Co3 Pr12 3.570554 1_554
