# generated using pymatgen
data_Y2Be2SiO7
_symmetry_space_group_name_H-M   'P 1'
_cell_length_a   7.34937800
_cell_length_b   7.34937800
_cell_length_c   4.80136400
_cell_angle_alpha   90.00000000
_cell_angle_beta   90.00000000
_cell_angle_gamma   90.00000000
_symmetry_Int_Tables_number   1
_chemical_formula_structural   Y2Be2SiO7
_chemical_formula_sum   'Y4 Be4 Si2 O14'
_cell_volume   259.33778776
_cell_formula_units_Z   2
loop_
 _symmetry_equiv_pos_site_id
 _symmetry_equiv_pos_as_xyz
  1  'x, y, z'
loop_
 _atom_site_type_symbol
 _atom_site_label
 _atom_site_symmetry_multiplicity
 _atom_site_fract_x
 _atom_site_fract_y
 _atom_site_fract_z
 _atom_site_occupancy
  Y  Y0  1  0.15900700  0.34099300  0.50750900  1
  Y  Y1  1  0.65900700  0.15900700  0.49249100  1
  Y  Y2  1  0.34099300  0.84099300  0.49249100  1
  Y  Y3  1  0.84099300  0.65900700  0.50750900  1
  Be  Be0  1  0.13666700  0.63666700  0.04015500  1
  Be  Be1  1  0.63666700  0.86333300  0.95984500  1
  Be  Be2  1  0.36333300  0.13666700  0.95984500  1
  Be  Be3  1  0.86333300  0.36333300  0.04015500  1
  Si  Si0  1  0.50000000  0.50000000  0.00000000  1
  Si  Si1  1  0.00000000  0.00000000  0.00000000  1
  O  O0  1  0.91831400  0.16291200  0.19880400  1
  O  O1  1  0.83708800  0.91831400  0.80119600  1
  O  O2  1  0.16291200  0.08168600  0.80119600  1
  O  O3  1  0.08168600  0.83708800  0.19880400  1
  O  O4  1  0.41831400  0.33708800  0.80119600  1
  O  O5  1  0.58168600  0.66291200  0.80119600  1
  O  O6  1  0.66291200  0.41831400  0.19880400  1
  O  O7  1  0.33708800  0.58168600  0.19880400  1
  O  O8  1  0.64131400  0.85868600  0.29110100  1
  O  O9  1  0.14131400  0.64131400  0.70889900  1
  O  O10  1  0.85868600  0.35868600  0.70889900  1
  O  O11  1  0.35868600  0.14131400  0.29110100  1
  O  O12  1  0.50000000  0.00000000  0.81855900  1
  O  O13  1  0.00000000  0.50000000  0.18144100  1
loop_
_geom_bond_atom_site_label_1
_geom_bond_atom_site_label_2
_geom_bond_distance
_geom_bond_site_symmetry_2
Be0 O13 1.574131 1_555
Be0 O9 1.591214 1_554
Be0 O7 1.706796 1_555
Be0 O3 1.706796 1_555
Be1 O12 1.574131 1_565
Be1 O8 1.591214 1_556
Be1 O5 1.706796 1_555
Be1 O1 1.706796 1_555
Be2 O12 1.574131 1_555
Be2 O11 1.591214 1_556
Be2 O4 1.706796 1_555
Be2 O2 1.706796 1_555
Be3 O13 1.574131 1_655
Be3 O10 1.591214 1_554
Be3 O0 1.706796 1_555
Be3 O6 1.706796 1_555
O0 Si1 1.644710 1_655
O0 Y1 2.370879 1_555
O0 Y0 2.653114 1_655
O1 Si1 1.644710 1_666
O1 Y3 2.370879 1_555
O1 Y1 2.653114 1_565
O2 Si1 1.644710 1_556
O2 Y0 2.370879 1_555
O2 Y2 2.653114 1_545
O3 Si1 1.644710 1_565
O3 Y2 2.370879 1_555
O3 Y3 2.653114 1_455
O4 Si0 1.644710 1_556
O4 Y0 2.370879 1_555
O4 Y1 2.653114 1_555
O5 Si0 1.644710 1_556
O5 Y3 2.370879 1_555
O5 Y2 2.653114 1_555
O6 Si0 1.644710 1_555
O6 Y1 2.370879 1_555
O6 Y3 2.653114 1_555
O7 Si0 1.644710 1_555
O7 Y2 2.370879 1_555
O7 Y0 2.653114 1_555
O8 Y3 2.320957 1_555
O8 Y1 2.413194 1_565
O8 Y2 2.413194 1_555
O9 Y2 2.320957 1_555
O9 Y3 2.413194 1_455
O9 Y0 2.413194 1_555
O10 Y1 2.320957 1_555
O10 Y0 2.413194 1_655
O10 Y3 2.413194 1_555
O11 Y0 2.320957 1_555
O11 Y2 2.413194 1_545
O11 Y1 2.413194 1_555
O12 Y2 2.276461 1_545
O12 Y1 2.276461 1_555
O13 Y0 2.276461 1_555
O13 Y3 2.276461 1_455
