# generated using pymatgen
data_Gd2Zr2O7
_symmetry_space_group_name_H-M   'P 1'
_cell_length_a   7.33746600
_cell_length_b   7.53200484
_cell_length_c   12.75942491
_cell_angle_alpha   92.38984779
_cell_angle_beta   104.08878443
_cell_angle_gamma   118.44507432
_symmetry_Int_Tables_number   1
_chemical_formula_structural   Gd2Zr2O7
_chemical_formula_sum   'Gd6 Zr6 O21'
_cell_volume   591.01458575
_cell_formula_units_Z   3
loop_
 _symmetry_equiv_pos_site_id
 _symmetry_equiv_pos_as_xyz
  1  'x, y, z'
loop_
 _atom_site_type_symbol
 _atom_site_label
 _atom_site_symmetry_multiplicity
 _atom_site_fract_x
 _atom_site_fract_y
 _atom_site_fract_z
 _atom_site_occupancy
  Gd  Gd0  1  0.53521700  0.48151300  0.01358100  1
  Gd  Gd1  1  0.00982100  0.46820500  0.00981200  1
  Gd  Gd2  1  0.01511100  0.51841500  0.50336000  1
  Gd  Gd3  1  0.99774600  0.02750600  0.48237700  1
  Gd  Gd4  1  0.48360400  0.97300500  0.48218300  1
  Gd  Gd5  1  0.98912900  0.73234600  0.25129200  1
  Zr  Zr0  1  0.98426100  0.76550900  0.75643400  1
  Zr  Zr1  1  0.47708500  0.01165400  0.98797300  1
  Zr  Zr2  1  0.52597600  0.27451300  0.77310200  1
  Zr  Zr3  1  0.97753300  0.26594000  0.25444100  1
  Zr  Zr4  1  0.50256700  0.53278600  0.52492300  1
  Zr  Zr5  1  0.50577600  0.75261400  0.24052100  1
  O  O0  1  0.11645200  0.82442000  0.44128500  1
  O  O1  1  0.32160600  0.96177500  0.80801900  1
  O  O2  1  0.65976300  0.27791400  0.93592500  1
  O  O3  1  0.86673200  0.50021700  0.81570500  1
  O  O4  1  0.43607200  0.25040000  0.59601700  1
  O  O5  1  0.20577500  0.32782700  0.41636200  1
  O  O6  1  0.84800000  0.64789500  0.58806200  1
  O  O7  1  0.61468400  0.57310000  0.19515200  1
  O  O8  1  0.40371000  0.42004000  0.82214900  1
  O  O9  1  0.38288800  0.68908900  0.57764600  1
  O  O10  1  0.83619200  0.89999100  0.77205200  1
  O  O11  1  0.18479500  0.51084900  0.19932900  1
  O  O12  1  0.59846900  0.74284800  0.41819000  1
  O  O13  1  0.86145200  0.97064200  0.29405900  1
  O  O14  1  0.38691000  0.72591300  0.04682800  1
  O  O15  1  0.79192600  0.14328400  0.09780800  1
  O  O16  1  0.83737100  0.19438800  0.52423900  1
  O  O17  1  0.38147000  0.92547900  0.29971400  1
  O  O18  1  0.34495400  0.15110200  0.03576800  1
  O  O19  1  0.87197100  0.42435600  0.31935900  1
  O  O20  1  0.90048000  0.65371600  0.06908200  1
loop_
_geom_bond_atom_site_label_1
_geom_bond_atom_site_label_2
_geom_bond_distance
_geom_bond_site_symmetry_2
Gd0 O7 2.238085 1_555
Gd0 O20 2.248245 1_555
Gd0 O18 2.272434 1_555
Gd0 O8 2.333279 1_554
Gd0 O2 2.411988 1_554
Gd0 O14 2.611640 1_555
Gd1 O20 2.107869 1_455
Gd1 O2 2.177571 1_454
Gd1 O11 2.372711 1_555
Gd1 O14 2.411937 1_555
Gd1 O3 2.513854 1_454
Gd1 O15 2.679885 1_455
Gd2 O16 2.217981 1_455
Gd2 O19 2.251421 1_455
Gd2 O9 2.276300 1_555
Gd2 O0 2.301915 1_555
Gd2 O6 2.306307 1_455
Gd2 O5 2.790405 1_555
Gd3 O0 2.190438 1_645
Gd3 O16 2.215635 1_555
Gd3 O13 2.300738 1_545
Gd3 O5 2.377347 1_655
Gd3 O12 2.559745 1_545
Gd3 O4 2.765461 1_655
Gd3 O6 3.041541 1_545
Gd4 O16 2.220418 1_565
Gd4 O17 2.221658 1_555
Gd4 O0 2.275302 1_555
Gd4 O9 2.398494 1_555
Gd4 O12 2.447663 1_555
Gd4 O4 2.698948 1_565
Gd5 O20 2.227315 1_555
Gd5 O7 2.308951 1_555
Gd5 O0 2.317429 1_655
Gd5 O19 2.346580 1_555
Gd5 O17 2.419713 1_655
Gd5 O13 2.483123 1_555
Gd5 O11 2.817268 1_655
O1 Zr0 2.094113 1_455
O1 Zr1 2.226931 1_565
O1 Zr2 2.245789 1_565
O2 Zr1 2.059917 1_555
O2 Zr2 2.063769 1_555
O3 Zr0 2.027396 1_555
O3 Zr2 2.156157 1_555
O4 Zr2 2.167829 1_555
O4 Zr4 2.229922 1_555
O5 Zr4 2.048111 1_555
O5 Zr3 2.186759 1_455
O6 Zr0 2.086031 1_555
O6 Zr4 2.163134 1_555
O7 Zr5 1.997770 1_555
O8 Zr2 1.884361 1_555
O9 Zr4 1.953471 1_555
O10 Zr0 1.839300 1_555
O11 Zr3 2.041175 1_455
O11 Zr5 2.090704 1_555
O12 Zr4 2.106835 1_555
O12 Zr5 2.217656 1_555
O13 Zr3 2.103969 1_565
O13 Zr5 2.220376 1_555
O14 Zr1 2.157273 1_564
O14 Zr5 2.377195 1_555
O15 Zr3 2.006178 1_555
O15 Zr1 2.099944 1_554
O17 Zr5 2.117138 1_555
O18 Zr1 1.902501 1_554
O19 Zr3 1.954506 1_555
