# generated using pymatgen
data_BH11AuC4IN2
_symmetry_space_group_name_H-M   'P 1'
_cell_length_a   6.23318500
_cell_length_b   9.42478623
_cell_length_c   9.92794107
_cell_angle_alpha   116.51069682
_cell_angle_beta   90.97288615
_cell_angle_gamma   101.95512315
_symmetry_Int_Tables_number   1
_chemical_formula_structural   BH11AuC4IN2
_chemical_formula_sum   'B2 H22 Au2 C8 I2 N4'
_cell_volume   506.57947131
_cell_formula_units_Z   2
loop_
 _symmetry_equiv_pos_site_id
 _symmetry_equiv_pos_as_xyz
  1  'x, y, z'
loop_
 _atom_site_type_symbol
 _atom_site_label
 _atom_site_symmetry_multiplicity
 _atom_site_fract_x
 _atom_site_fract_y
 _atom_site_fract_z
 _atom_site_occupancy
  B  B0  1  0.59466600  0.56647300  0.75576000  1
  B  B1  1  0.40533400  0.43352700  0.24424000  1
  H  H0  1  0.25767300  0.83551900  0.91276600  1
  H  H1  1  0.74232700  0.16448100  0.08723400  1
  H  H2  1  0.53812800  0.84683100  0.97238800  1
  H  H3  1  0.46187200  0.15316900  0.02761200  1
  H  H4  1  0.46948100  0.84066800  0.79311800  1
  H  H5  1  0.53051900  0.15933200  0.20688200  1
  H  H6  1  0.04675700  0.59234300  0.69669000  1
  H  H7  1  0.95324300  0.40765700  0.30331000  1
  H  H8  1  0.26888900  0.58892800  0.58344500  1
  H  H9  1  0.73111100  0.41107200  0.41655500  1
  H  H10  1  0.15633700  0.41405900  0.61081000  1
  H  H11  1  0.84366300  0.58594100  0.38919000  1
  H  H12  1  0.24113000  0.42472100  0.86066400  1
  H  H13  1  0.75887000  0.57527900  0.13933600  1
  H  H14  1  0.38476300  0.61684100  0.01498500  1
  H  H15  1  0.61523700  0.38315900  0.98501500  1
  H  H16  1  0.11071000  0.59268000  0.93746800  1
  H  H17  1  0.88929000  0.40732000  0.06253200  1
  H  H18  1  0.72042700  0.62231200  0.87166500  1
  H  H19  1  0.27957300  0.37768800  0.12833500  1
  H  H20  1  0.66273900  0.62072400  0.67037000  1
  H  H21  1  0.33726100  0.37927600  0.32963000  1
  Au  Au0  1  0.00000000  0.00000000  0.50000000  1
  Au  Au1  1  0.50000000  0.00000000  0.50000000  1
  C  C0  1  0.53913300  0.24073100  0.61047300  1
  C  C1  1  0.46086700  0.75926900  0.38952700  1
  C  C2  1  0.40956700  0.79766500  0.87514000  1
  C  C3  1  0.59043300  0.20233500  0.12486000  1
  C  C4  1  0.19658000  0.54775100  0.66341500  1
  C  C5  1  0.80342000  0.45224900  0.33658500  1
  C  C6  1  0.26846900  0.55785000  0.91071600  1
  C  C7  1  0.73153100  0.44215000  0.08928400  1
  I  I0  1  0.01302700  0.04690800  0.77948700  1
  I  I1  1  0.98697300  0.95309200  0.22051300  1
  N  N0  1  0.36263700  0.61516500  0.80087500  1
  N  N1  1  0.63736300  0.38483500  0.19912500  1
  N  N2  1  0.55656500  0.38179600  0.67492300  1
  N  N3  1  0.44343500  0.61820400  0.32507700  1
loop_
_geom_bond_atom_site_label_1
_geom_bond_atom_site_label_2
_geom_bond_distance
_geom_bond_site_symmetry_2
B0 H20 1.212205 1_555
B0 H18 1.213834 1_555
B0 N2 1.518295 1_555
B0 N0 1.617532 1_555
B1 H21 1.212205 1_555
B1 H19 1.213834 1_555
B1 N3 1.518295 1_555
B1 N1 1.617532 1_555
Au0 I0 2.604522 1_555
Au0 I1 2.604522 1_445
Au1 C0 1.987512 1_555
Au1 C1 1.987512 1_545
C0 N2 1.169258 1_555
C1 N3 1.169258 1_555
C2 H0 1.093707 1_555
C2 H4 1.099584 1_555
C2 H2 1.099778 1_555
C2 N0 1.496580 1_555
C3 H1 1.093707 1_555
C3 H5 1.099584 1_555
C3 H3 1.099778 1_555
C3 N1 1.496580 1_555
C4 H8 1.094915 1_555
C4 H10 1.095657 1_555
C4 H6 1.098642 1_555
C4 N0 1.497647 1_555
C5 H9 1.094915 1_555
C5 H11 1.095657 1_555
C5 H7 1.098642 1_555
C5 N1 1.497647 1_555
C6 H14 1.095404 1_556
C6 H12 1.096452 1_555
C6 H16 1.100011 1_555
C6 N0 1.497250 1_555
C7 H15 1.095404 1_554
C7 H13 1.096452 1_555
C7 H17 1.100011 1_555
C7 N1 1.497250 1_555
