# generated using pymatgen
data_K2Be3Zn2F12
_symmetry_space_group_name_H-M   'P 1'
_cell_length_a   10.12767500
_cell_length_b   10.12767500
_cell_length_c   10.12767500
_cell_angle_alpha   90.00000000
_cell_angle_beta   90.00000000
_cell_angle_gamma   90.00000000
_symmetry_Int_Tables_number   1
_chemical_formula_structural   K2Be3Zn2F12
_chemical_formula_sum   'K8 Be12 Zn8 F48'
_cell_volume   1038.79360839
_cell_formula_units_Z   4
loop_
 _symmetry_equiv_pos_site_id
 _symmetry_equiv_pos_as_xyz
  1  'x, y, z'
loop_
 _atom_site_type_symbol
 _atom_site_label
 _atom_site_symmetry_multiplicity
 _atom_site_fract_x
 _atom_site_fract_y
 _atom_site_fract_z
 _atom_site_occupancy
  K  K0  1  0.06290700  0.06290700  0.06290700  1
  K  K1  1  0.43709300  0.93709300  0.56290700  1
  K  K2  1  0.56290700  0.43709300  0.93709300  1
  K  K3  1  0.93709300  0.56290700  0.43709300  1
  K  K4  1  0.29849900  0.29849900  0.29849900  1
  K  K5  1  0.20150100  0.70150100  0.79849900  1
  K  K6  1  0.79849900  0.20150100  0.70150100  1
  K  K7  1  0.70150100  0.79849900  0.20150100  1
  Be  Be0  1  0.62665600  0.46292500  0.27120500  1
  Be  Be1  1  0.87334400  0.53707500  0.77120500  1
  Be  Be2  1  0.37334400  0.96292500  0.22879500  1
  Be  Be3  1  0.12665600  0.03707500  0.72879500  1
  Be  Be4  1  0.96292500  0.22879500  0.37334400  1
  Be  Be5  1  0.72879500  0.12665600  0.03707500  1
  Be  Be6  1  0.22879500  0.37334400  0.96292500  1
  Be  Be7  1  0.53707500  0.77120500  0.87334400  1
  Be  Be8  1  0.77120500  0.87334400  0.53707500  1
  Be  Be9  1  0.03707500  0.72879500  0.12665600  1
  Be  Be10  1  0.46292500  0.27120500  0.62665600  1
  Be  Be11  1  0.27120500  0.62665600  0.46292500  1
  Zn  Zn0  1  0.58439900  0.58439900  0.58439900  1
  Zn  Zn1  1  0.91560100  0.41560100  0.08439900  1
  Zn  Zn2  1  0.08439900  0.91560100  0.41560100  1
  Zn  Zn3  1  0.41560100  0.08439900  0.91560100  1
  Zn  Zn4  1  0.84911000  0.84911000  0.84911000  1
  Zn  Zn5  1  0.65089000  0.15089000  0.34911000  1
  Zn  Zn6  1  0.34911000  0.65089000  0.15089000  1
  Zn  Zn7  1  0.15089000  0.34911000  0.65089000  1
  F  F0  1  0.41650700  0.65673100  0.50019700  1
  F  F1  1  0.42563200  0.81777100  0.23780500  1
  F  F2  1  0.07436800  0.18222900  0.73780500  1
  F  F3  1  0.81777100  0.23780500  0.42563200  1
  F  F4  1  0.97588700  0.44290100  0.70274500  1
  F  F5  1  0.52411300  0.55709900  0.20274500  1
  F  F6  1  0.20274500  0.52411300  0.55709900  1
  F  F7  1  0.55709900  0.20274500  0.52411300  1
  F  F8  1  0.94290100  0.79725500  0.02411300  1
  F  F9  1  0.70274500  0.97588700  0.44290100  1
  F  F10  1  0.44290100  0.70274500  0.97588700  1
  F  F11  1  0.29725500  0.47588700  0.05709900  1
  F  F12  1  0.79725500  0.02411300  0.94290100  1
  F  F13  1  0.05709900  0.29725500  0.47588700  1
  F  F14  1  0.02411300  0.94290100  0.79725500  1
  F  F15  1  0.47588700  0.05709900  0.29725500  1
  F  F16  1  0.65673100  0.50019700  0.41650700  1
  F  F17  1  0.92563200  0.68222900  0.76219500  1
  F  F18  1  0.50019700  0.41650700  0.65673100  1
  F  F19  1  0.99980300  0.58349300  0.15673100  1
  F  F20  1  0.91650700  0.84326900  0.49980300  1
  F  F21  1  0.49980300  0.91650700  0.84326900  1
  F  F22  1  0.08349300  0.34326900  0.00019700  1
  F  F23  1  0.58349300  0.15673100  0.99980300  1
  F  F24  1  0.00019700  0.08349300  0.34326900  1
  F  F25  1  0.15673100  0.99980300  0.58349300  1
  F  F26  1  0.34326900  0.00019700  0.08349300  1
  F  F27  1  0.84326900  0.49980300  0.91650700  1
  F  F28  1  0.75630100  0.48405500  0.19049400  1
  F  F29  1  0.19049400  0.75630100  0.48405500  1
  F  F30  1  0.48405500  0.19049400  0.75630100  1
  F  F31  1  0.01594500  0.80950600  0.25630100  1
  F  F32  1  0.69049400  0.74369900  0.51594500  1
  F  F33  1  0.51594500  0.69049400  0.74369900  1
  F  F34  1  0.30950600  0.24369900  0.98405500  1
  F  F35  1  0.80950600  0.25630100  0.01594500  1
  F  F36  1  0.98405500  0.30950600  0.24369900  1
  F  F37  1  0.25630100  0.01594500  0.80950600  1
  F  F38  1  0.24369900  0.98405500  0.30950600  1
  F  F39  1  0.74369900  0.51594500  0.69049400  1
  F  F40  1  0.57436800  0.31777100  0.26219500  1
  F  F41  1  0.26219500  0.57436800  0.31777100  1
  F  F42  1  0.31777100  0.26219500  0.57436800  1
  F  F43  1  0.18222900  0.73780500  0.07436800  1
  F  F44  1  0.76219500  0.92563200  0.68222900  1
  F  F45  1  0.73780500  0.07436800  0.18222900  1
  F  F46  1  0.23780500  0.42563200  0.81777100  1
  F  F47  1  0.68222900  0.76219500  0.92563200  1
loop_
_geom_bond_atom_site_label_1
_geom_bond_atom_site_label_2
_geom_bond_distance
_geom_bond_site_symmetry_2
Be0 F16 1.549448 1_555
Be0 F28 1.561390 1_555
Be0 F40 1.565206 1_555
Be0 F5 1.571278 1_555
Be1 F27 1.549448 1_555
Be1 F39 1.561390 1_555
Be1 F17 1.565206 1_555
Be1 F4 1.571278 1_555
Be2 F26 1.549448 1_565
Be2 F38 1.561390 1_555
Be2 F1 1.565206 1_555
Be2 F15 1.571278 1_565
Be3 F25 1.549448 1_545
Be3 F37 1.561390 1_555
Be3 F2 1.565206 1_555
Be3 F14 1.571278 1_545
Be4 F24 1.549448 1_655
Be4 F36 1.561390 1_555
Be4 F3 1.565206 1_555
Be4 F13 1.571278 1_655
Be5 F23 1.549448 1_554
Be5 F35 1.561390 1_555
Be5 F45 1.565206 1_555
Be5 F12 1.571278 1_554
Be6 F22 1.549448 1_556
Be6 F34 1.561390 1_555
Be6 F46 1.565206 1_555
Be6 F11 1.571278 1_556
Be7 F21 1.549448 1_555
Be7 F33 1.561390 1_555
Be7 F47 1.565206 1_555
Be7 F10 1.571278 1_555
Be8 F20 1.549448 1_555
Be8 F32 1.561390 1_555
Be8 F44 1.565206 1_555
Be8 F9 1.571278 1_555
Be9 F19 1.549448 1_455
Be9 F31 1.561390 1_555
Be9 F43 1.565206 1_555
Be9 F8 1.571278 1_455
Be10 F18 1.549448 1_555
Be10 F30 1.561390 1_555
Be10 F42 1.565206 1_555
Be10 F7 1.571278 1_555
Be11 F0 1.549448 1_555
Be11 F29 1.561390 1_555
Be11 F41 1.565206 1_555
Be11 F6 1.571278 1_555
F0 Zn0 2.038397 1_555
F0 K1 2.917037 1_555
F1 Zn6 2.057167 1_555
F1 K7 2.824752 1_555
F2 Zn7 2.057167 1_555
F2 K6 2.824752 1_455
F3 Zn5 2.057167 1_555
F3 K6 2.824752 1_555
F4 Zn7 2.078315 1_655
F4 K3 2.978249 1_555
F4 K6 3.033945 1_555
F5 Zn6 2.078315 1_555
F5 K2 2.978249 1_554
F5 K7 3.033945 1_555
F6 Zn7 2.078315 1_555
F6 K3 2.978249 1_455
F6 K5 3.033945 1_555
F7 Zn5 2.078315 1_555
F7 K1 2.978249 1_545
F7 K6 3.033945 1_555
F8 Zn4 2.078315 1_554
F8 K0 2.978249 1_665
F8 K7 3.033945 1_555
F9 Zn5 2.078315 1_565
F9 K1 2.978249 1_555
F9 K7 3.033945 1_555
F10 Zn6 2.078315 1_556
F10 K2 2.978249 1_555
F10 K5 3.033945 1_555
F11 Zn6 2.078315 1_555
F11 K2 2.978249 1_554
F11 K4 3.033945 1_555
F12 Zn4 2.078315 1_545
F12 K0 2.978249 1_656
F12 K6 3.033945 1_555
F13 Zn7 2.078315 1_555
F13 K3 2.978249 1_455
F13 K4 3.033945 1_555
F14 Zn4 2.078315 1_455
F14 K0 2.978249 1_566
F14 K5 3.033945 1_555
F15 Zn5 2.078315 1_555
F15 K1 2.978249 1_545
F15 K4 3.033945 1_555
F16 Zn0 2.038397 1_555
F16 K3 2.917037 1_555
F17 Zn4 2.057167 1_555
F17 K5 2.824752 1_655
F18 Zn0 2.038397 1_555
F18 K2 2.917037 1_555
F19 Zn1 2.038397 1_555
F19 K3 2.917037 1_555
F20 Zn2 2.038397 1_655
F20 K3 2.917037 1_555
F21 Zn3 2.038397 1_565
F21 K1 2.917037 1_555
F22 Zn1 2.038397 1_455
F22 K0 2.917037 1_555
F23 Zn3 2.038397 1_555
F23 K2 2.917037 1_555
F24 Zn2 2.038397 1_545
F24 K0 2.917037 1_555
F25 Zn2 2.038397 1_555
F25 K1 2.917037 1_555
F26 Zn3 2.038397 1_554
F26 K0 2.917037 1_555
F27 Zn1 2.038397 1_556
F27 K2 2.917037 1_555
F28 Zn1 2.058650 1_555
F28 K3 3.198076 1_555
F28 K7 3.234508 1_555
F28 K2 3.263230 1_554
F29 Zn2 2.058650 1_555
F29 K1 3.198076 1_555
F29 K5 3.234508 1_555
F29 K3 3.263230 1_455
F30 Zn3 2.058650 1_555
F30 K2 3.198076 1_555
F30 K6 3.234508 1_555
F30 K1 3.263230 1_545
F31 Zn2 2.058650 1_555
F31 K3 3.198076 1_455
F31 K7 3.234508 1_455
F31 K0 3.263230 1_565
F32 Zn0 2.058650 1_555
F32 K3 3.198076 1_555
F32 K7 3.234508 1_555
F32 K1 3.263230 1_555
F33 Zn0 2.058650 1_555
F33 K1 3.198076 1_555
F33 K5 3.234508 1_555
F33 K2 3.263230 1_555
F34 Zn3 2.058650 1_555
F34 K0 3.198076 1_556
F34 K4 3.234508 1_556
F34 K2 3.263230 1_555
F35 Zn1 2.058650 1_555
F35 K2 3.198076 1_554
F35 K6 3.234508 1_554
F35 K0 3.263230 1_655
F36 Zn1 2.058650 1_555
F36 K0 3.198076 1_655
F36 K4 3.234508 1_655
F36 K3 3.263230 1_555
F37 Zn3 2.058650 1_555
F37 K1 3.198076 1_545
F37 K5 3.234508 1_545
F37 K0 3.263230 1_556
F38 Zn2 2.058650 1_555
F38 K0 3.198076 1_565
F38 K4 3.234508 1_565
F38 K1 3.263230 1_555
F39 Zn0 2.058650 1_555
F39 K2 3.198076 1_555
F39 K6 3.234508 1_555
F39 K3 3.263230 1_555
F40 Zn5 2.057167 1_555
F40 K4 2.824752 1_555
F41 Zn6 2.057167 1_555
F41 K4 2.824752 1_555
F42 Zn7 2.057167 1_555
F42 K4 2.824752 1_555
F43 Zn6 2.057167 1_555
F43 K5 2.824752 1_554
F44 Zn4 2.057167 1_555
F44 K6 2.824752 1_565
F45 Zn5 2.057167 1_555
F45 K7 2.824752 1_545
F46 Zn7 2.057167 1_555
F46 K5 2.824752 1_555
F47 Zn4 2.057167 1_555
F47 K7 2.824752 1_556
