# generated using pymatgen
data_CaLa3Mn4O12
_symmetry_space_group_name_H-M   'P 1'
_cell_length_a   7.83737288
_cell_length_b   7.83737288
_cell_length_c   7.83737279
_cell_angle_alpha   90.72039373
_cell_angle_beta   90.72039373
_cell_angle_gamma   90.72038665
_symmetry_Int_Tables_number   1
_chemical_formula_structural   CaLa3Mn4O12
_chemical_formula_sum   'Ca2 La6 Mn8 O24'
_cell_volume   481.29090880
_cell_formula_units_Z   2
loop_
 _symmetry_equiv_pos_site_id
 _symmetry_equiv_pos_as_xyz
  1  'x, y, z'
loop_
 _atom_site_type_symbol
 _atom_site_label
 _atom_site_symmetry_multiplicity
 _atom_site_fract_x
 _atom_site_fract_y
 _atom_site_fract_z
 _atom_site_occupancy
  Ca  Ca0  1  0.75000000  0.75000000  0.75000000  1
  Ca  Ca1  1  0.25000000  0.25000000  0.25000000  1
  La  La0  1  0.75000000  0.24958400  0.25041600  1
  La  La1  1  0.24958400  0.25041600  0.75000000  1
  La  La2  1  0.75041600  0.74958400  0.25000000  1
  La  La3  1  0.25041600  0.75000000  0.24958400  1
  La  La4  1  0.74958400  0.25000000  0.75041600  1
  La  La5  1  0.25000000  0.75041600  0.74958400  1
  Mn  Mn0  1  0.00000000  0.50000000  0.00000000  1
  Mn  Mn1  1  0.50000000  0.00000000  0.00000000  1
  Mn  Mn2  1  0.00000000  0.00000000  0.50000000  1
  Mn  Mn3  1  0.00000000  0.50000000  0.50000000  1
  Mn  Mn4  1  0.50000000  0.50000000  0.50000000  1
  Mn  Mn5  1  0.50000000  0.50000000  0.00000000  1
  Mn  Mn6  1  0.00000000  0.00000000  0.00000000  1
  Mn  Mn7  1  0.50000000  0.00000000  0.50000000  1
  O  O0  1  0.25000000  0.03337000  0.46663000  1
  O  O1  1  0.53506100  0.24966000  0.47020800  1
  O  O2  1  0.75034000  0.52979200  0.46493900  1
  O  O3  1  0.03381700  0.75000000  0.46618300  1
  O  O4  1  0.52979200  0.46493900  0.75034000  1
  O  O5  1  0.96663000  0.53337000  0.75000000  1
  O  O6  1  0.25000000  0.53381700  0.96618300  1
  O  O7  1  0.03506100  0.97020800  0.74966000  1
  O  O8  1  0.53337000  0.75000000  0.96663000  1
  O  O9  1  0.46618300  0.03381700  0.75000000  1
  O  O10  1  0.97020800  0.74966000  0.03506100  1
  O  O11  1  0.25034000  0.96493900  0.02979200  1
  O  O12  1  0.74966000  0.03506100  0.97020800  1
  O  O13  1  0.02979200  0.25034000  0.96493900  1
  O  O14  1  0.53381700  0.96618300  0.25000000  1
  O  O15  1  0.46663000  0.25000000  0.03337000  1
  O  O16  1  0.96493900  0.02979200  0.25034000  1
  O  O17  1  0.75000000  0.46618300  0.03381700  1
  O  O18  1  0.03337000  0.46663000  0.25000000  1
  O  O19  1  0.47020800  0.53506100  0.24966000  1
  O  O20  1  0.96618300  0.25000000  0.53381700  1
  O  O21  1  0.24966000  0.47020800  0.53506100  1
  O  O22  1  0.46493900  0.75034000  0.52979200  1
  O  O23  1  0.75000000  0.96663000  0.53337000  1
loop_
_geom_bond_atom_site_label_1
_geom_bond_atom_site_label_2
_geom_bond_distance
_geom_bond_site_symmetry_2
Ca0 O5 2.416113 1_555
Ca0 O23 2.416113 1_555
Ca0 O8 2.416113 1_555
Ca0 O10 2.805925 1_556
Ca0 O2 2.805925 1_555
Ca0 O12 2.805925 1_565
Ca0 O22 2.805925 1_555
Ca0 O7 2.805925 1_655
Ca0 O4 2.805925 1_555
Ca1 O18 2.416113 1_555
Ca1 O15 2.416113 1_555
Ca1 O0 2.416113 1_555
Ca1 O21 2.805925 1_555
Ca1 O13 2.805925 1_554
Ca1 O1 2.805925 1_555
Ca1 O11 2.805925 1_545
Ca1 O19 2.805925 1_555
Ca1 O16 2.805925 1_455
La0 O17 2.415767 1_555
La0 O16 2.424463 1_555
La0 O1 2.424464 1_555
La0 O12 2.748907 1_554
La0 O2 2.748907 1_555
La0 O20 2.776528 1_555
La0 O14 2.776528 1_545
La0 O15 2.780516 1_555
La0 O18 2.780516 1_655
La1 O9 2.415767 1_555
La1 O13 2.424464 1_555
La1 O21 2.424464 1_555
La1 O4 2.748908 1_555
La1 O7 2.748908 1_545
La1 O6 2.776528 1_555
La1 O20 2.776528 1_455
La1 O0 2.780516 1_555
La1 O15 2.780516 1_556
La2 O14 2.415767 1_555
La2 O2 2.424464 1_555
La2 O10 2.424464 1_555
La2 O19 2.748908 1_555
La2 O16 2.748908 1_565
La2 O3 2.776528 1_655
La2 O17 2.776528 1_555
La2 O8 2.780516 1_554
La2 O23 2.780516 1_555
La3 O3 2.415767 1_555
La3 O19 2.424463 1_555
La3 O11 2.424464 1_555
La3 O22 2.748907 1_555
La3 O10 2.748907 1_455
La3 O6 2.776528 1_554
La3 O14 2.776528 1_555
La3 O0 2.780516 1_565
La3 O18 2.780516 1_555
La4 O20 2.415767 1_555
La4 O4 2.424463 1_555
La4 O12 2.424464 1_555
La4 O1 2.748907 1_555
La4 O13 2.748907 1_655
La4 O17 2.776528 1_556
La4 O9 2.776528 1_555
La4 O23 2.780516 1_545
La4 O5 2.780516 1_555
La5 O6 2.415767 1_555
La5 O7 2.424463 1_555
La5 O22 2.424464 1_555
La5 O11 2.748907 1_556
La5 O21 2.748907 1_555
La5 O3 2.776528 1_555
La5 O9 2.776528 1_565
La5 O8 2.780516 1_555
La5 O5 2.780516 1_455
Mn0 O13 1.989522 1_554
Mn0 O10 1.989522 1_455
Mn0 O5 1.994378 1_454
Mn0 O18 1.994378 1_555
Mn0 O6 1.995315 1_554
Mn0 O17 1.995315 1_455
Mn1 O12 1.989522 1_554
Mn1 O11 1.989522 1_545
Mn1 O8 1.994378 1_544
Mn1 O15 1.994378 1_555
Mn1 O9 1.995315 1_554
Mn1 O14 1.995315 1_545
Mn2 O7 1.989522 1_545
Mn2 O16 1.989522 1_455
Mn2 O23 1.994378 1_445
Mn2 O0 1.994378 1_555
Mn2 O3 1.995315 1_545
Mn2 O20 1.995315 1_455
Mn3 O2 1.989522 1_455
Mn3 O21 1.989522 1_555
Mn3 O5 1.994378 1_455
Mn3 O18 1.994378 1_555
Mn3 O20 1.995315 1_455
Mn3 O3 1.995315 1_555
Mn4 O22 1.995783 1_555
Mn4 O1 1.995783 1_555
Mn4 O4 1.995783 1_555
Mn4 O19 1.995783 1_555
Mn4 O2 1.995783 1_555
Mn4 O21 1.995783 1_555
Mn5 O4 1.989522 1_554
Mn5 O19 1.989522 1_555
Mn5 O15 1.994378 1_555
Mn5 O8 1.994378 1_554
Mn5 O6 1.995315 1_554
Mn5 O17 1.995315 1_555
Mn6 O12 1.995783 1_454
Mn6 O11 1.995783 1_545
Mn6 O7 1.995783 1_544
Mn6 O16 1.995783 1_455
Mn6 O10 1.995783 1_445
Mn6 O13 1.995783 1_554
Mn7 O22 1.989522 1_545
Mn7 O1 1.989522 1_555
Mn7 O23 1.994378 1_545
Mn7 O0 1.994378 1_555
Mn7 O14 1.995315 1_545
Mn7 O9 1.995315 1_555
