# generated using pymatgen
data_KLiBeF4
_symmetry_space_group_name_H-M   'P 1'
_cell_length_a   5.01477337
_cell_length_b   5.01477338
_cell_length_c   8.57052819
_cell_angle_alpha   90.00000000
_cell_angle_beta   90.00000000
_cell_angle_gamma   120.00000720
_symmetry_Int_Tables_number   1
_chemical_formula_structural   KLiBeF4
_chemical_formula_sum   'K2 Li2 Be2 F8'
_cell_volume   186.65550835
_cell_formula_units_Z   2
loop_
 _symmetry_equiv_pos_site_id
 _symmetry_equiv_pos_as_xyz
  1  'x, y, z'
loop_
 _atom_site_type_symbol
 _atom_site_label
 _atom_site_symmetry_multiplicity
 _atom_site_fract_x
 _atom_site_fract_y
 _atom_site_fract_z
 _atom_site_occupancy
  K  K0  1  -0.00000000  -0.00000000  0.49805573  1
  K  K1  1  -0.00000000  -0.00000000  0.99805573  1
  Li  Li0  1  0.66666700  0.33333300  0.30268257  1
  Li  Li1  1  0.33333300  0.66666700  0.80268257  1
  Be  Be0  1  0.33333300  0.66666700  0.19569173  1
  Be  Be1  1  0.66666700  0.33333300  0.69569173  1
  F  F0  1  0.62658354  0.66550174  0.25167708  1
  F  F1  1  0.66550174  0.03891820  0.75167708  1
  F  F2  1  0.33333300  0.66666700  0.01453973  1
  F  F3  1  0.66666700  0.33333300  0.51453973  1
  F  F4  1  0.33449826  0.96108180  0.25167708  1
  F  F5  1  0.37341646  0.33449826  0.75167708  1
  F  F6  1  0.96108180  0.62658354  0.75167708  1
  F  F7  1  0.03891820  0.37341646  0.25167708  1
loop_
_geom_bond_atom_site_label_1
_geom_bond_atom_site_label_2
_geom_bond_distance
_geom_bond_site_symmetry_2
Be0 F4 1.549666 1_555
Be0 F7 1.549668 1_555
Be0 F0 1.549671 1_555
Be0 F2 1.552568 1_555
Be1 F1 1.549666 1_555
Be1 F6 1.549668 1_555
Be1 F5 1.549671 1_555
Be1 F3 1.552568 1_555
F0 Li0 1.827856 1_555
F0 K0 2.763708 1_665
F0 K1 2.811420 1_664
F1 Li1 1.827853 1_545
F1 K1 2.763708 1_655
F1 K0 2.811421 1_655
F2 Li1 1.815728 1_554
F2 K1 2.898723 1_564
F2 K1 2.898727 1_664
F2 K1 2.898727 1_554
F3 Li0 1.815728 1_555
F3 K0 2.898723 1_655
F3 K0 2.898727 1_555
F3 K0 2.898727 1_665
F4 Li0 1.827853 1_565
F4 K0 2.763708 1_565
F4 K1 2.811421 1_564
F5 Li1 1.827856 1_555
F5 K1 2.763708 1_555
F5 K0 2.811420 1_555
F6 Li1 1.827851 1_655
F6 K1 2.763708 1_665
F6 K0 2.811421 1_665
F7 Li0 1.827851 1_455
F7 K0 2.763708 1_555
F7 K1 2.811421 1_554
