# generated using pymatgen
data_Th(GeRu)2
_symmetry_space_group_name_H-M   'P 1'
_cell_length_a   4.28974656
_cell_length_b   4.29032391
_cell_length_c   5.81854551
_cell_angle_alpha   111.71182587
_cell_angle_beta   111.70642721
_cell_angle_gamma   89.98089498
_symmetry_Int_Tables_number   1
_chemical_formula_structural   Th(GeRu)2
_chemical_formula_sum   'Th1 Ge2 Ru2'
_cell_volume   91.27210807
_cell_formula_units_Z   1
loop_
 _symmetry_equiv_pos_site_id
 _symmetry_equiv_pos_as_xyz
  1  'x, y, z'
loop_
 _atom_site_type_symbol
 _atom_site_label
 _atom_site_symmetry_multiplicity
 _atom_site_fract_x
 _atom_site_fract_y
 _atom_site_fract_z
 _atom_site_occupancy
  Th  Th0  1  0.00175000  0.00055459  0.99982254  1
  Ge  Ge0  1  0.37008504  0.36908927  0.73687087  1
  Ge  Ge1  1  0.63296495  0.63188991  0.26277434  1
  Ru  Ru0  1  0.75126865  0.25060151  0.49973847  1
  Ru  Ru1  1  0.25170636  0.75036873  0.49990678  1
loop_
_geom_bond_atom_site_label_1
_geom_bond_atom_site_label_2
_geom_bond_distance
_geom_bond_site_symmetry_2
Ge0 Ru1 2.445483 1_545
Ge0 Ru0 2.445720 1_455
Ge0 Ru1 2.446443 1_555
Ge0 Ru0 2.446502 1_555
Ge0 Ge1 2.608095 1_556
Ge0 Th0 3.300665 1_665
Ge0 Th0 3.300870 1_565
Ge0 Th0 3.302059 1_655
Ge0 Th0 3.304122 1_555
Ge1 Ru1 2.445438 1_655
Ge1 Ru0 2.445450 1_565
Ge1 Ru0 2.446478 1_555
Ge1 Ru1 2.446785 1_555
Ge1 Th0 3.299049 1_554
Ge1 Th0 3.301169 1_564
Ge1 Th0 3.301764 1_654
Ge1 Th0 3.305739 1_664
Ru0 Th0 3.274932 1_554
Ru0 Th0 3.276660 1_665
Ru0 Th0 3.281495 1_655
Ru0 Th0 3.281588 1_654
Ru1 Th0 3.276272 1_554
Ru1 Th0 3.276403 1_665
Ru1 Th0 3.280112 1_565
Ru1 Th0 3.281888 1_564
