# generated using pymatgen
data_Ba2EuCu3O7
_symmetry_space_group_name_H-M   'P 1'
_cell_length_a   3.85432100
_cell_length_b   3.94799900
_cell_length_c   11.78208000
_cell_angle_alpha   90.00000000
_cell_angle_beta   90.00000000
_cell_angle_gamma   90.00000000
_symmetry_Int_Tables_number   1
_chemical_formula_structural   Ba2EuCu3O7
_chemical_formula_sum   'Ba2 Eu1 Cu3 O7'
_cell_volume   179.28620830
_cell_formula_units_Z   1
loop_
 _symmetry_equiv_pos_site_id
 _symmetry_equiv_pos_as_xyz
  1  'x, y, z'
loop_
 _atom_site_type_symbol
 _atom_site_label
 _atom_site_symmetry_multiplicity
 _atom_site_fract_x
 _atom_site_fract_y
 _atom_site_fract_z
 _atom_site_occupancy
  Ba  Ba0  1  0.00000000  0.00000000  0.81857700  1
  Ba  Ba1  1  0.00000000  0.00000000  0.18142300  1
  Eu  Eu0  1  0.00000000  0.00000000  0.50000000  1
  Cu  Cu0  1  0.50000000  0.50000000  0.64955100  1
  Cu  Cu1  1  0.50000000  0.50000000  0.00000000  1
  Cu  Cu2  1  0.50000000  0.50000000  0.35044900  1
  O  O0  1  0.50000000  0.00000000  0.37095500  1
  O  O1  1  0.50000000  0.50000000  0.15840300  1
  O  O2  1  0.00000000  0.50000000  0.37364600  1
  O  O3  1  0.00000000  0.50000000  0.62635400  1
  O  O4  1  0.50000000  0.00000000  0.62904500  1
  O  O5  1  0.50000000  0.50000000  0.84159700  1
  O  O6  1  0.50000000  0.00000000  0.00000000  1
loop_
_geom_bond_atom_site_label_1
_geom_bond_atom_site_label_2
_geom_bond_distance
_geom_bond_site_symmetry_2
Ba0 O5 2.772036 1_445
Ba0 O5 2.772036 1_545
Ba0 O5 2.772036 1_455
Ba0 O5 2.772036 1_555
Ba0 O6 2.878025 1_456
Ba0 O6 2.878025 1_556
Ba0 O4 2.949678 1_555
Ba0 O4 2.949678 1_455
Ba0 O3 3.004319 1_545
Ba0 O3 3.004319 1_555
Ba1 O1 2.772036 1_445
Ba1 O1 2.772036 1_545
Ba1 O1 2.772036 1_455
Ba1 O1 2.772036 1_555
Ba1 O6 2.878025 1_455
Ba1 O6 2.878025 1_555
Ba1 O0 2.949678 1_555
Ba1 O0 2.949678 1_455
Ba1 O2 3.004319 1_555
Ba1 O2 3.004319 1_545
Eu0 O4 2.454714 1_455
Eu0 O4 2.454714 1_555
Eu0 O0 2.454714 1_555
Eu0 O0 2.454714 1_455
Eu0 O3 2.472436 1_555
Eu0 O3 2.472436 1_545
Eu0 O2 2.472436 1_555
Eu0 O2 2.472436 1_545
Cu0 O3 1.946444 1_555
Cu0 O3 1.946444 1_655
Cu0 O4 1.988730 1_565
Cu0 O4 1.988730 1_555
Cu0 O5 2.262701 1_555
Cu1 O1 1.866317 1_555
Cu1 O5 1.866317 1_554
Cu1 O6 1.973999 1_565
Cu1 O6 1.973999 1_555
Cu2 O2 1.946444 1_555
Cu2 O2 1.946444 1_655
Cu2 O0 1.988730 1_555
Cu2 O0 1.988730 1_565
Cu2 O1 2.262701 1_555
