# generated using pymatgen
data_CaAlSiO4F
_symmetry_space_group_name_H-M   'P 1'
_cell_length_a   5.39074854
_cell_length_b   5.39074854
_cell_length_c   7.03941995
_cell_angle_alpha   75.09494023
_cell_angle_beta   75.09494023
_cell_angle_gamma   105.48565043
_symmetry_Int_Tables_number   1
_chemical_formula_structural   CaAlSiO4F
_chemical_formula_sum   'Ca2 Al2 Si2 O8 F2'
_cell_volume   178.46154050
_cell_formula_units_Z   2
loop_
 _symmetry_equiv_pos_site_id
 _symmetry_equiv_pos_as_xyz
  1  'x, y, z'
loop_
 _atom_site_type_symbol
 _atom_site_label
 _atom_site_symmetry_multiplicity
 _atom_site_fract_x
 _atom_site_fract_y
 _atom_site_fract_z
 _atom_site_occupancy
  Ca  Ca0  1  0.83563300  0.16436700  0.75000000  1
  Ca  Ca1  1  0.16436700  0.83563300  0.25000000  1
  Al  Al0  1  0.50000000  0.50000000  0.00000000  1
  Al  Al1  1  0.50000000  0.50000000  0.50000000  1
  Si  Si0  1  0.18546300  0.81453700  0.75000000  1
  Si  Si1  1  0.81453700  0.18546300  0.25000000  1
  O  O0  1  0.19752000  0.60879300  0.61120200  1
  O  O1  1  0.39120700  0.80248000  0.88879800  1
  O  O2  1  0.80248000  0.39120700  0.38879800  1
  O  O3  1  0.60879300  0.19752000  0.11120200  1
  O  O4  1  0.26075600  0.13172900  0.59499300  1
  O  O5  1  0.73924400  0.86827100  0.40500700  1
  O  O6  1  0.86827100  0.73924400  0.90500700  1
  O  O7  1  0.13172900  0.26075600  0.09499300  1
  F  F0  1  0.56777800  0.43222200  0.75000000  1
  F  F1  1  0.43222200  0.56777800  0.25000000  1
loop_
_geom_bond_atom_site_label_1
_geom_bond_atom_site_label_2
_geom_bond_distance
_geom_bond_site_symmetry_2
Ca0 F0 2.298538 1_555
Ca0 O4 2.345479 1_655
Ca0 O6 2.345479 1_545
Ca0 O0 2.412402 1_655
Ca0 O1 2.412402 1_545
Ca0 O2 2.596789 1_555
Ca0 O3 2.596789 1_556
Ca1 F1 2.298538 1_555
Ca1 O7 2.345479 1_565
Ca1 O5 2.345479 1_455
Ca1 O3 2.412402 1_565
Ca1 O2 2.412402 1_455
Ca1 O0 2.596789 1_555
Ca1 O1 2.596789 1_554
Al0 F1 1.853476 1_555
Al0 F0 1.853476 1_554
Al0 O6 1.886242 1_554
Al0 O7 1.886242 1_555
Al0 O1 1.925034 1_554
Al0 O3 1.925034 1_555
Al1 F0 1.853476 1_555
Al1 F1 1.853476 1_555
Al1 O4 1.886242 1_555
Al1 O5 1.886242 1_555
Al1 O2 1.925034 1_555
Al1 O0 1.925034 1_555
O0 Si0 1.659007 1_555
O1 Si0 1.659007 1_555
O2 Si1 1.659007 1_555
O3 Si1 1.659007 1_555
O4 Si0 1.649507 1_545
O5 Si1 1.649507 1_565
O6 Si0 1.649507 1_655
O7 Si1 1.649507 1_455
