# generated using pymatgen
data_Fe3C9Se2O9
_symmetry_space_group_name_H-M   'P 1'
_cell_length_a   6.83787000
_cell_length_b   9.24919726
_cell_length_c   13.13652296
_cell_angle_alpha   94.02188344
_cell_angle_beta   94.43545899
_cell_angle_gamma   111.00583358
_symmetry_Int_Tables_number   1
_chemical_formula_structural   Fe3C9Se2O9
_chemical_formula_sum   'Fe6 C18 Se4 O18'
_cell_volume   768.99515617
_cell_formula_units_Z   2
loop_
 _symmetry_equiv_pos_site_id
 _symmetry_equiv_pos_as_xyz
  1  'x, y, z'
loop_
 _atom_site_type_symbol
 _atom_site_label
 _atom_site_symmetry_multiplicity
 _atom_site_fract_x
 _atom_site_fract_y
 _atom_site_fract_z
 _atom_site_occupancy
  Fe  Fe0  1  0.07535300  0.73201900  0.33954800  1
  Fe  Fe1  1  0.21582500  0.80371700  0.15782700  1
  Fe  Fe2  1  0.92464700  0.26798100  0.66045200  1
  Fe  Fe3  1  0.37152200  0.09488200  0.25467400  1
  Fe  Fe4  1  0.78417500  0.19628300  0.84217300  1
  Fe  Fe5  1  0.62847800  0.90511800  0.74532600  1
  C  C0  1  0.20472700  0.38300000  0.67955100  1
  C  C1  1  0.59302200  0.27421000  0.88342100  1
  C  C2  1  0.79527300  0.61700000  0.32044900  1
  C  C3  1  0.29481400  0.22710800  0.17759000  1
  C  C4  1  0.60119400  0.80267500  0.62214900  1
  C  C5  1  0.91465200  0.18354800  0.53367900  1
  C  C6  1  0.22264800  0.91309600  0.05170800  1
  C  C7  1  0.08534800  0.81645200  0.46632100  1
  C  C8  1  0.39880600  0.19732500  0.37785100  1
  C  C9  1  0.99531900  0.62938000  0.11689200  1
  C  C10  1  0.77735200  0.08690400  0.94829200  1
  C  C11  1  0.70518600  0.77289200  0.82241000  1
  C  C12  1  0.14250500  0.56658600  0.37103300  1
  C  C13  1  0.64591900  0.18130100  0.23099100  1
  C  C14  1  0.35408100  0.81869900  0.76900900  1
  C  C15  1  0.40697800  0.72579000  0.11657900  1
  C  C16  1  0.00468100  0.37062000  0.88310800  1
  C  C17  1  0.85749500  0.43341400  0.62896700  1
  Se  Se0  1  0.43408600  0.87899400  0.31936200  1
  Se  Se1  1  0.00999100  0.92729400  0.24791000  1
  Se  Se2  1  0.56591400  0.12100600  0.68063800  1
  Se  Se3  1  0.99000900  0.07270600  0.75209000  1
  O  O0  1  0.22201900  0.97649000  0.97813200  1
  O  O1  1  0.57865000  0.73971900  0.54008900  1
  O  O2  1  0.90362300  0.12712100  0.45063800  1
  O  O3  1  0.75205600  0.68786700  0.87045800  1
  O  O4  1  0.81967900  0.54006500  0.60604800  1
  O  O5  1  0.14555300  0.48372000  0.91543800  1
  O  O6  1  0.77798100  0.02351000  0.02186800  1
  O  O7  1  0.42135000  0.26028100  0.45991100  1
  O  O8  1  0.47147400  0.32418700  0.91192500  1
  O  O9  1  0.61626100  0.54343300  0.30941200  1
  O  O10  1  0.38373900  0.45656700  0.69058800  1
  O  O11  1  0.85444700  0.51628000  0.08456200  1
  O  O12  1  0.24794400  0.31213300  0.12954200  1
  O  O13  1  0.18032100  0.45993500  0.39395200  1
  O  O14  1  0.82188400  0.24155000  0.21945600  1
  O  O15  1  0.52852600  0.67581300  0.08807500  1
  O  O16  1  0.17811600  0.75845000  0.78054400  1
  O  O17  1  0.09637700  0.87287900  0.54936200  1
loop_
_geom_bond_atom_site_label_1
_geom_bond_atom_site_label_2
_geom_bond_distance
_geom_bond_site_symmetry_2
Fe0 Se0 2.386605 1_555
Fe0 Se1 2.389880 1_555
Fe1 Se0 2.402708 1_555
Fe1 Se1 2.430839 1_555
Fe2 Se2 2.386605 1_555
Fe2 Se3 2.389880 1_555
Fe3 Se0 2.384644 1_545
Fe3 Se1 2.391939 1_545
Fe4 Se2 2.402708 1_555
Fe4 Se3 2.430839 1_555
Fe5 Se2 2.384644 1_565
Fe5 Se3 2.391939 1_565
C0 O10 1.159278 1_555
C0 Fe2 1.813854 1_455
C1 O8 1.159287 1_555
C1 Fe4 1.803257 1_555
C2 O9 1.159278 1_555
C2 Fe0 1.813854 1_655
C3 O12 1.156973 1_555
C3 Fe3 1.829661 1_555
C4 O1 1.160504 1_555
C4 Fe5 1.778314 1_555
C5 O2 1.160717 1_555
C5 Fe2 1.774724 1_555
C6 O0 1.165618 1_554
C6 Fe1 1.772860 1_555
C7 O17 1.160717 1_555
C7 Fe0 1.774724 1_555
C8 O7 1.160504 1_555
C8 Fe3 1.778314 1_555
C9 O11 1.163844 1_555
C9 Fe1 1.781179 1_655
C10 O6 1.165618 1_556
C10 Fe4 1.772860 1_555
C11 O3 1.156973 1_555
C11 Fe5 1.829661 1_555
C12 O13 1.158902 1_555
C12 Fe0 1.812814 1_555
C13 O14 1.157839 1_555
C13 Fe3 1.818275 1_555
C14 O16 1.157839 1_555
C14 Fe5 1.818275 1_555
C15 O15 1.159287 1_555
C15 Fe1 1.803257 1_555
C16 O5 1.163844 1_555
C16 Fe4 1.781179 1_455
C17 O4 1.158902 1_555
C17 Fe2 1.812814 1_555
