# generated using pymatgen
data_Li4Mo3O8
_symmetry_space_group_name_H-M   'P 1'
_cell_length_a   6.07457997
_cell_length_b   6.07457997
_cell_length_c   6.07457993
_cell_angle_alpha   61.55457988
_cell_angle_beta   61.55457988
_cell_angle_gamma   61.55458158
_symmetry_Int_Tables_number   1
_chemical_formula_structural   Li4Mo3O8
_chemical_formula_sum   'Li4 Mo3 O8'
_cell_volume   164.03064864
_cell_formula_units_Z   1
loop_
 _symmetry_equiv_pos_site_id
 _symmetry_equiv_pos_as_xyz
  1  'x, y, z'
loop_
 _atom_site_type_symbol
 _atom_site_label
 _atom_site_symmetry_multiplicity
 _atom_site_fract_x
 _atom_site_fract_y
 _atom_site_fract_z
 _atom_site_occupancy
  Li  Li0  1  0.00000000  0.00000000  0.00000000  1
  Li  Li1  1  0.50000000  0.50000000  0.00000000  1
  Li  Li2  1  0.00000000  0.50000000  0.50000000  1
  Li  Li3  1  0.50000000  0.00000000  0.50000000  1
  Mo  Mo0  1  0.00000000  0.00000000  0.50000000  1
  Mo  Mo1  1  0.50000000  0.00000000  0.00000000  1
  Mo  Mo2  1  0.00000000  0.50000000  0.00000000  1
  O  O0  1  0.75821900  0.75821900  0.21286400  1
  O  O1  1  0.24956400  0.24956400  0.24956400  1
  O  O2  1  0.75821900  0.21286400  0.75821900  1
  O  O3  1  0.78713600  0.24178100  0.24178100  1
  O  O4  1  0.21286400  0.75821900  0.75821900  1
  O  O5  1  0.24178100  0.78713600  0.24178100  1
  O  O6  1  0.75043600  0.75043600  0.75043600  1
  O  O7  1  0.24178100  0.24178100  0.78713600  1
loop_
_geom_bond_atom_site_label_1
_geom_bond_atom_site_label_2
_geom_bond_distance
_geom_bond_site_symmetry_2
Li0 O7 2.103055 1_554
Li0 O0 2.103055 1_445
Li0 O4 2.103055 1_544
Li0 O3 2.103055 1_455
Li0 O2 2.103055 1_454
Li0 O5 2.103055 1_545
Li1 O6 2.176587 1_554
Li1 O1 2.176587 1_555
Li1 O5 2.302017 1_555
Li1 O3 2.302017 1_555
Li1 O4 2.302017 1_554
Li1 O2 2.302017 1_554
Li2 O6 2.176588 1_455
Li2 O1 2.176588 1_555
Li2 O5 2.302017 1_555
Li2 O2 2.302017 1_455
Li2 O7 2.302017 1_555
Li2 O0 2.302017 1_455
Li3 O6 2.176588 1_545
Li3 O1 2.176588 1_555
Li3 O3 2.302017 1_555
Li3 O4 2.302017 1_545
Li3 O7 2.302017 1_555
Li3 O0 2.302017 1_545
Mo0 O2 2.053745 1_455
Mo0 O4 2.053745 1_545
Mo0 O3 2.053745 1_455
Mo0 O5 2.053745 1_545
Mo0 O1 2.169359 1_555
Mo0 O6 2.169359 1_445
Mo1 O2 2.053745 1_554
Mo1 O5 2.053745 1_545
Mo1 O0 2.053745 1_545
Mo1 O7 2.053745 1_554
Mo1 O1 2.169359 1_555
Mo1 O6 2.169359 1_544
Mo2 O4 2.053745 1_554
Mo2 O3 2.053745 1_455
Mo2 O0 2.053745 1_455
Mo2 O7 2.053745 1_554
Mo2 O1 2.169359 1_555
Mo2 O6 2.169359 1_454
