# generated using pymatgen
data_Zr27O49
_symmetry_space_group_name_H-M   'P 1'
_cell_length_a   3.63211897
_cell_length_b   3.63211897
_cell_length_c   80.44755100
_cell_angle_alpha   90.00000000
_cell_angle_beta   90.00000000
_cell_angle_gamma   119.99998123
_symmetry_Int_Tables_number   1
_chemical_formula_structural   Zr27O49
_chemical_formula_sum   'Zr27 O49'
_cell_volume   919.10191781
_cell_formula_units_Z   1
loop_
 _symmetry_equiv_pos_site_id
 _symmetry_equiv_pos_as_xyz
  1  'x, y, z'
loop_
 _atom_site_type_symbol
 _atom_site_label
 _atom_site_symmetry_multiplicity
 _atom_site_fract_x
 _atom_site_fract_y
 _atom_site_fract_z
 _atom_site_occupancy
  Zr  Zr0  1  0.33333300  0.66666700  0.99977000  1
  Zr  Zr1  1  0.66666700  0.33333300  0.96376200  1
  Zr  Zr2  1  0.00000000  0.00000000  0.92636700  1
  Zr  Zr3  1  0.33333300  0.66666700  0.88883800  1
  Zr  Zr4  1  0.66666700  0.33333300  0.85288000  1
  Zr  Zr5  1  0.00000000  0.00000000  0.81462800  1
  Zr  Zr6  1  0.33333300  0.66666700  0.77868300  1
  Zr  Zr7  1  0.66666700  0.33333300  0.74109200  1
  Zr  Zr8  1  0.00000000  0.00000000  0.70362600  1
  Zr  Zr9  1  0.33333300  0.66666700  0.66739000  1
  Zr  Zr10  1  0.66666700  0.33333300  0.62983500  1
  Zr  Zr11  1  0.00000000  0.00000000  0.59237200  1
  Zr  Zr12  1  0.33333300  0.66666700  0.55613900  1
  Zr  Zr13  1  0.66666700  0.33333300  0.51855800  1
  Zr  Zr14  1  0.00000000  0.00000000  0.48163300  1
  Zr  Zr15  1  0.33333300  0.66666700  0.44459200  1
  Zr  Zr16  1  0.66666700  0.33333300  0.40754200  1
  Zr  Zr17  1  0.00000000  0.00000000  0.37046700  1
  Zr  Zr18  1  0.33333300  0.66666700  0.33339700  1
  Zr  Zr19  1  0.00000000  0.00000000  0.25934000  1
  Zr  Zr20  1  0.66666700  0.33333300  0.29634600  1
  Zr  Zr21  1  0.33333300  0.66666700  0.22234900  1
  Zr  Zr22  1  0.66666700  0.33333300  0.18532100  1
  Zr  Zr23  1  0.00000000  0.00000000  0.14826700  1
  Zr  Zr24  1  0.33333300  0.66666700  0.11122400  1
  Zr  Zr25  1  0.66666700  0.33333300  0.07411100  1
  Zr  Zr26  1  0.00000000  0.00000000  0.03715800  1
  O  O0  1  0.00000000  0.00000000  0.95384600  1
  O  O1  1  0.33333300  0.66666700  0.97306500  1
  O  O2  1  0.33333300  0.66666700  0.91633200  1
  O  O3  1  0.66666700  0.33333300  0.93492100  1
  O  O4  1  0.00000000  0.00000000  0.89619900  1
  O  O5  1  0.00000000  0.00000000  0.84298700  1
  O  O6  1  0.33333300  0.66666700  0.86230600  1
  O  O7  1  0.66666700  0.33333300  0.82187200  1
  O  O8  1  0.66666700  0.33333300  0.76887700  1
  O  O9  1  0.00000000  0.00000000  0.78810500  1
  O  O10  1  0.00000000  0.00000000  0.73123100  1
  O  O11  1  0.33333300  0.66666700  0.74985200  1
  O  O12  1  0.66666700  0.33333300  0.71108000  1
  O  O13  1  0.66666700  0.33333300  0.65783200  1
  O  O14  1  0.00000000  0.00000000  0.67706000  1
  O  O15  1  0.00000000  0.00000000  0.62015700  1
  O  O16  1  0.33333300  0.66666700  0.63881000  1
  O  O17  1  0.66666700  0.33333300  0.59998800  1
  O  O18  1  0.66666700  0.33333300  0.54688600  1
  O  O19  1  0.00000000  0.00000000  0.50911000  1
  O  O20  1  0.00000000  0.00000000  0.56597000  1
  O  O21  1  0.33333300  0.66666700  0.52770800  1
  O  O22  1  0.33333300  0.66666700  0.47215700  1
  O  O23  1  0.66666700  0.33333300  0.43511600  1
  O  O24  1  0.66666700  0.33333300  0.49073100  1
  O  O25  1  0.00000000  0.00000000  0.45367300  1
  O  O26  1  0.00000000  0.00000000  0.39808500  1
  O  O27  1  0.33333300  0.66666700  0.41665300  1
  O  O28  1  0.33333300  0.66666700  0.36105100  1
  O  O29  1  0.66666700  0.33333300  0.37961200  1
  O  O30  1  0.66666700  0.33333300  0.32401600  1
  O  O31  1  0.00000000  0.00000000  0.34257000  1
  O  O32  1  0.00000000  0.00000000  0.28700900  1
  O  O33  1  0.33333300  0.66666700  0.30553900  1
  O  O34  1  0.33333300  0.66666700  0.25001000  1
  O  O35  1  0.66666700  0.33333300  0.26853900  1
  O  O36  1  0.66666700  0.33333300  0.21297800  1
  O  O37  1  0.00000000  0.00000000  0.23154900  1
  O  O38  1  0.00000000  0.00000000  0.17589100  1
  O  O39  1  0.33333300  0.66666700  0.19450600  1
  O  O40  1  0.33333300  0.66666700  0.13879300  1
  O  O41  1  0.66666700  0.33333300  0.10169600  1
  O  O42  1  0.66666700  0.33333300  0.15739900  1
  O  O43  1  0.00000000  0.00000000  0.12031700  1
  O  O44  1  0.00000000  0.00000000  0.06443500  1
  O  O45  1  0.33333300  0.66666700  0.08319100  1
  O  O46  1  0.33333300  0.66666700  0.02743400  1
  O  O47  1  0.66666700  0.33333300  0.04611900  1
  O  O48  1  0.00000000  0.00000000  0.00735000  1
loop_
_geom_bond_atom_site_label_1
_geom_bond_atom_site_label_2
_geom_bond_distance
_geom_bond_site_symmetry_2
O0 Zr2 2.210618 1_555
O0 Zr1 2.243607 1_455
O0 Zr1 2.243611 1_555
O0 Zr1 2.243611 1_445
O1 Zr0 2.148352 1_555
O1 Zr1 2.226551 1_455
O1 Zr1 2.226551 1_565
O1 Zr1 2.226557 1_555
O2 Zr3 2.211825 1_555
O2 Zr2 2.247029 1_565
O2 Zr2 2.247032 1_665
O2 Zr2 2.247032 1_555
O3 Zr2 2.207027 1_655
O3 Zr2 2.207030 1_665
O3 Zr2 2.207030 1_555
O3 Zr1 2.320188 1_555
O4 Zr3 2.179011 1_545
O4 Zr3 2.179015 1_445
O4 Zr3 2.179015 1_555
O4 Zr2 2.426942 1_555
O5 Zr4 2.242950 1_455
O5 Zr4 2.242954 1_445
O5 Zr4 2.242954 1_555
O5 Zr5 2.281412 1_555
O6 Zr3 2.134434 1_555
O6 Zr4 2.229897 1_455
O6 Zr4 2.229897 1_565
O6 Zr4 2.229902 1_555
O7 Zr5 2.176472 1_655
O7 Zr5 2.176476 1_555
O7 Zr5 2.176476 1_665
O7 Zr4 2.494518 1_555
O8 Zr7 2.235235 1_555
O8 Zr6 2.240477 1_545
O8 Zr6 2.240477 1_655
O8 Zr6 2.240482 1_555
O9 Zr5 2.133710 1_555
O9 Zr6 2.229787 1_545
O9 Zr6 2.229790 1_445
O9 Zr6 2.229790 1_555
O10 Zr8 2.220755 1_555
O10 Zr7 2.242038 1_455
O10 Zr7 2.242041 1_445
O10 Zr7 2.242041 1_555
O11 Zr7 2.212251 1_455
O11 Zr7 2.212251 1_565
O11 Zr7 2.212256 1_555
O11 Zr6 2.319383 1_555
O12 Zr8 2.181056 1_655
O12 Zr8 2.181060 1_665
O12 Zr8 2.181060 1_555
O12 Zr7 2.414392 1_555
O13 Zr9 2.233530 1_545
O13 Zr9 2.233530 1_655
O13 Zr9 2.233535 1_555
O13 Zr10 2.252290 1_555
O14 Zr8 2.137170 1_555
O14 Zr9 2.236647 1_545
O14 Zr9 2.236651 1_445
O14 Zr9 2.236651 1_555
O15 Zr11 2.235235 1_555
O15 Zr10 2.236871 1_455
O15 Zr10 2.236875 1_445
O15 Zr10 2.236875 1_555
O16 Zr10 2.217821 1_565
O16 Zr10 2.217821 1_455
O16 Zr10 2.217826 1_555
O16 Zr9 2.299191 1_555
O17 Zr11 2.184675 1_655
O17 Zr11 2.184679 1_555
O17 Zr11 2.184679 1_665
O17 Zr10 2.401118 1_555
O18 Zr12 2.225202 1_545
O18 Zr12 2.225202 1_655
O18 Zr12 2.225208 1_555
O18 Zr13 2.278918 1_555
O19 Zr14 2.210457 1_555
O19 Zr13 2.230499 1_455
O19 Zr13 2.230502 1_555
O19 Zr13 2.230502 1_445
O20 Zr11 2.123976 1_555
O20 Zr12 2.241185 1_545
O20 Zr12 2.241189 1_555
O20 Zr12 2.241189 1_445
O21 Zr13 2.222444 1_455
O21 Zr13 2.222444 1_565
O21 Zr13 2.222450 1_555
O21 Zr12 2.287204 1_555
O22 Zr15 2.217537 1_555
O22 Zr14 2.231267 1_565
O22 Zr14 2.231271 1_665
O22 Zr14 2.231271 1_555
O23 Zr16 2.218261 1_555
O23 Zr15 2.231268 1_545
O23 Zr15 2.231268 1_655
O23 Zr15 2.231273 1_555
O24 Zr14 2.221062 1_655
O24 Zr14 2.221065 1_665
O24 Zr14 2.221065 1_555
O24 Zr13 2.238614 1_555
O25 Zr15 2.220611 1_545
O25 Zr15 2.220615 1_555
O25 Zr15 2.220615 1_445
O25 Zr14 2.249314 1_555
O26 Zr17 2.221800 1_555
O26 Zr16 2.230745 1_455
O26 Zr16 2.230749 1_555
O26 Zr16 2.230749 1_445
O27 Zr16 2.221407 1_455
O27 Zr16 2.221407 1_565
O27 Zr16 2.221412 1_555
O27 Zr15 2.247624 1_555
O28 Zr18 2.224697 1_555
O28 Zr17 2.229623 1_565
O28 Zr17 2.229626 1_665
O28 Zr17 2.229626 1_555
O29 Zr17 2.222310 1_655
O29 Zr17 2.222314 1_555
O29 Zr17 2.222314 1_665
O29 Zr16 2.246900 1_555
O30 Zr20 2.225984 1_555
O30 Zr18 2.228668 1_545
O30 Zr18 2.228668 1_655
O30 Zr18 2.228674 1_555
O31 Zr18 2.223057 1_545
O31 Zr18 2.223061 1_445
O31 Zr18 2.223061 1_555
O31 Zr17 2.244245 1_555
O32 Zr19 2.225903 1_555
O32 Zr20 2.227471 1_455
O32 Zr20 2.227475 1_445
O32 Zr20 2.227475 1_555
O33 Zr20 2.223592 1_455
O33 Zr20 2.223592 1_565
O33 Zr20 2.223598 1_555
O33 Zr18 2.241108 1_555
O34 Zr21 2.225260 1_555
O34 Zr19 2.227282 1_565
O34 Zr19 2.227285 1_665
O34 Zr19 2.227285 1_555
O35 Zr19 2.223752 1_655
O35 Zr19 2.223756 1_665
O35 Zr19 2.223756 1_555
O35 Zr20 2.237005 1_555
O36 Zr22 2.224938 1_555
O36 Zr21 2.228396 1_545
O36 Zr21 2.228396 1_655
O36 Zr21 2.228401 1_555
O37 Zr21 2.223779 1_545
O37 Zr21 2.223783 1_445
O37 Zr21 2.223783 1_555
O37 Zr19 2.235718 1_555
O38 Zr23 2.222283 1_555
O38 Zr22 2.230006 1_455
O38 Zr22 2.230009 1_445
O38 Zr22 2.230009 1_555
O39 Zr22 2.223378 1_455
O39 Zr22 2.223378 1_565
O39 Zr22 2.223384 1_555
O39 Zr21 2.239901 1_555
O40 Zr24 2.217859 1_555
O40 Zr23 2.231212 1_565
O40 Zr23 2.231216 1_665
O40 Zr23 2.231216 1_555
O41 Zr25 2.219146 1_555
O41 Zr24 2.232700 1_545
O41 Zr24 2.232700 1_655
O41 Zr24 2.232706 1_555
O42 Zr23 2.221964 1_655
O42 Zr23 2.221968 1_555
O42 Zr23 2.221968 1_665
O42 Zr22 2.246257 1_555
O43 Zr24 2.220929 1_545
O43 Zr24 2.220933 1_445
O43 Zr24 2.220933 1_555
O43 Zr23 2.248509 1_555
O44 Zr26 2.194368 1_555
O44 Zr25 2.236815 1_455
O44 Zr25 2.236819 1_445
O44 Zr25 2.236819 1_555
O45 Zr25 2.220585 1_455
O45 Zr25 2.220585 1_565
O45 Zr25 2.220591 1_555
O45 Zr24 2.255186 1_555
O46 Zr0 2.225501 1_554
O46 Zr26 2.238162 1_565
O46 Zr26 2.238166 1_555
O46 Zr26 2.238166 1_665
O47 Zr26 2.217454 1_655
O47 Zr26 2.217458 1_665
O47 Zr26 2.217458 1_555
O47 Zr25 2.251888 1_555
O48 Zr0 2.183865 1_544
O48 Zr0 2.183869 1_554
O48 Zr0 2.183869 1_444
O48 Zr26 2.397981 1_555
