# generated using pymatgen
data_SiO2
_symmetry_space_group_name_H-M   'P 1'
_cell_length_a   5.23827461
_cell_length_b   7.44058448
_cell_length_c   8.12286306
_cell_angle_alpha   90.00000000
_cell_angle_beta   90.00000000
_cell_angle_gamma   90.00000000
_symmetry_Int_Tables_number   1
_chemical_formula_structural   SiO2
_chemical_formula_sum   'Si6 O12'
_cell_volume   316.59528722
_cell_formula_units_Z   6
loop_
 _symmetry_equiv_pos_site_id
 _symmetry_equiv_pos_as_xyz
  1  'x, y, z'
loop_
 _atom_site_type_symbol
 _atom_site_label
 _atom_site_symmetry_multiplicity
 _atom_site_fract_x
 _atom_site_fract_y
 _atom_site_fract_z
 _atom_site_occupancy
  Si  Si0  1  0.25000000  0.21134974  0.10525569  1
  Si  Si1  1  0.75000000  0.78865026  0.89474431  1
  Si  Si2  1  0.75000000  0.21134974  0.89474431  1
  Si  Si3  1  0.25000000  0.78865026  0.10525569  1
  Si  Si4  1  0.25000000  0.50000000  0.38688496  1
  Si  Si5  1  0.75000000  0.50000000  0.61311504  1
  O  O0  1  -0.00000000  0.26266146  0.00000000  1
  O  O1  1  0.50000000  0.73733854  0.00000000  1
  O  O2  1  -0.00000000  0.73733854  0.00000000  1
  O  O3  1  0.50000000  0.26266146  0.00000000  1
  O  O4  1  0.25000000  0.00000000  0.14827792  1
  O  O5  1  0.75000000  0.00000000  0.85172208  1
  O  O6  1  0.25000000  0.32187985  0.27441452  1
  O  O7  1  0.75000000  0.67812015  0.72558548  1
  O  O8  1  0.75000000  0.32187985  0.72558548  1
  O  O9  1  0.25000000  0.67812015  0.27441452  1
  O  O10  1  0.50000000  0.50000000  0.50000000  1
  O  O11  1  0.00000000  0.50000000  0.50000000  1
loop_
_geom_bond_atom_site_label_1
_geom_bond_atom_site_label_2
_geom_bond_distance
_geom_bond_site_symmetry_2
O0 Si0 1.609882 1_555
O0 Si2 1.609882 1_454
O1 Si1 1.609882 1_554
O1 Si3 1.609882 1_555
O2 Si3 1.609882 1_555
O2 Si1 1.609882 1_454
O3 Si0 1.609882 1_555
O3 Si2 1.609882 1_554
O4 Si3 1.610928 1_545
O4 Si0 1.610928 1_555
O5 Si1 1.610928 1_545
O5 Si2 1.610928 1_555
O6 Si0 1.601368 1_555
O6 Si4 1.609689 1_555
O7 Si1 1.601368 1_555
O7 Si5 1.609689 1_555
O8 Si2 1.601368 1_555
O8 Si5 1.609689 1_555
O9 Si3 1.601368 1_555
O9 Si4 1.609689 1_555
O10 Si4 1.599749 1_555
O10 Si5 1.599749 1_555
O11 Si4 1.599749 1_555
O11 Si5 1.599749 1_455
