# generated using pymatgen
data_Li20B54O
_symmetry_space_group_name_H-M   'P 1'
_cell_length_a   8.19633600
_cell_length_b   8.21105434
_cell_length_c   12.51579859
_cell_angle_alpha   89.85580764
_cell_angle_beta   89.80904726
_cell_angle_gamma   60.08626635
_symmetry_Int_Tables_number   1
_chemical_formula_structural   Li20B54O
_chemical_formula_sum   'Li20 B54 O1'
_cell_volume   730.09961662
_cell_formula_units_Z   1
loop_
 _symmetry_equiv_pos_site_id
 _symmetry_equiv_pos_as_xyz
  1  'x, y, z'
loop_
 _atom_site_type_symbol
 _atom_site_label
 _atom_site_symmetry_multiplicity
 _atom_site_fract_x
 _atom_site_fract_y
 _atom_site_fract_z
 _atom_site_occupancy
  Li  Li0  1  0.07795800  0.85846400  0.83904500  1
  Li  Li1  1  0.94325000  0.95560200  0.47724100  1
  Li  Li2  1  0.87850100  0.80455800  0.32195000  1
  Li  Li3  1  0.92700700  0.02411400  0.18133300  1
  Li  Li4  1  0.66789700  0.66425000  0.99738400  1
  Li  Li5  1  0.64487500  0.70998300  0.67584500  1
  Li  Li6  1  0.64000100  0.67505900  0.33153900  1
  Li  Li7  1  0.16467400  0.66939300  0.02062400  1
  Li  Li8  1  0.22131500  0.72678000  0.32446000  1
  Li  Li9  1  0.81306200  0.37470200  0.66973200  1
  Li  Li10  1  0.87873300  0.30046400  0.33464100  1
  Li  Li11  1  0.33569000  0.32401000  0.98776900  1
  Li  Li12  1  0.31532900  0.33838500  0.32951300  1
  Li  Li13  1  0.15129100  0.15263300  0.00248400  1
  Li  Li14  1  0.23460600  0.53254200  0.66530900  1
  Li  Li15  1  0.21284900  0.19413400  0.66645700  1
  Li  Li16  1  0.21853200  0.04201400  0.33010100  1
  Li  Li17  1  0.68938100  0.15663300  0.99107800  1
  Li  Li18  1  0.67772400  0.15549000  0.33313200  1
  Li  Li19  1  0.58956500  0.19645900  0.66866400  1
  B  B0  1  0.49593100  0.00537600  0.73644000  1
  B  B1  1  0.50810500  0.99964400  0.40050500  1
  B  B2  1  0.50119300  0.99587700  0.06839400  1
  B  B3  1  0.44573600  0.88221600  0.83477200  1
  B  B4  1  0.45781900  0.87516800  0.49765200  1
  B  B5  1  0.45895500  0.86866300  0.16880200  1
  B  B6  1  0.44495100  0.67709500  0.83558900  1
  B  B7  1  0.45684800  0.66972400  0.49644200  1
  B  B8  1  0.45983700  0.66103500  0.16926500  1
  B  B9  1  0.66823200  0.88163000  0.83492400  1
  B  B10  1  0.67623100  0.87701900  0.50035000  1
  B  B11  1  0.67867300  0.86880000  0.16426900  1
  B  B12  1  0.51085100  0.48905300  0.40122200  1
  B  B13  1  0.87547200  0.67726700  0.83595600  1
  B  B14  1  0.88093500  0.67172100  0.49929900  1
  B  B15  1  0.88355100  0.66207800  0.16465500  1
  B  B16  1  0.66605000  0.46010600  0.83650800  1
  B  B17  1  0.67813500  0.44275000  0.16469000  1
  B  B18  1  0.67496200  0.45138800  0.49977300  1
  B  B19  1  0.87218800  0.46009700  0.83685200  1
  B  B20  1  0.87921800  0.45295100  0.50044700  1
  B  B21  1  0.88331900  0.44322600  0.16517300  1
  B  B22  1  0.00248700  0.49809900  0.93352700  1
  B  B23  1  0.99962400  0.50063600  0.59784100  1
  B  B24  1  0.99901000  0.49357300  0.26555400  1
  B  B25  1  0.99613600  0.50326900  0.73594900  1
  B  B26  1  0.01033200  0.49026000  0.06955600  1
  B  B27  1  0.99837200  0.49799200  0.40118100  1
  B  B28  1  0.12942400  0.53791600  0.17192400  1
  B  B29  1  0.11917100  0.55166500  0.83411400  1
  B  B30  1  0.12503200  0.54798300  0.49707000  1
  B  B31  1  0.32762900  0.55132100  0.83414100  1
  B  B32  1  0.33453200  0.54611600  0.49764100  1
  B  B33  1  0.33841200  0.53464700  0.17093100  1
  B  B34  1  0.11846500  0.33202100  0.83451100  1
  B  B35  1  0.12646500  0.32873700  0.49724300  1
  B  B36  1  0.12857300  0.31996400  0.16974100  1
  B  B37  1  0.50067700  0.50416500  0.73580200  1
  B  B38  1  0.50107800  0.49414900  0.06941200  1
  B  B39  1  0.49755600  0.49998700  0.93332900  1
  B  B40  1  0.51290400  0.48397600  0.26547400  1
  B  B41  1  0.50271400  0.50265800  0.59759400  1
  B  B42  1  0.32437300  0.12531200  0.83534800  1
  B  B43  1  0.33373100  0.12217300  0.49672600  1
  B  B44  1  0.33638700  0.11511400  0.16880600  1
  B  B45  1  0.54579600  0.33303000  0.83439300  1
  B  B46  1  0.55893300  0.31813800  0.16499000  1
  B  B47  1  0.55464200  0.32647600  0.50095300  1
  B  B48  1  0.54493500  0.12603300  0.83511900  1
  B  B49  1  0.55847500  0.11272500  0.16446700  1
  B  B50  1  0.55528300  0.12019800  0.49975900  1
  B  B51  1  0.49956900  0.00165800  0.59739400  1
  B  B52  1  0.49602300  0.00276900  0.93304800  1
  B  B53  1  0.51084400  0.99451900  0.26505900  1
  O  O0  1  0.97898300  0.99666800  0.33112200  1
loop_
_geom_bond_atom_site_label_1
_geom_bond_atom_site_label_2
_geom_bond_distance
_geom_bond_site_symmetry_2
Li0 Li7 2.640557 1_556
Li1 O0 1.906777 1_555
Li2 O0 2.115901 1_555
Li3 O0 1.911629 1_545
Li8 O0 2.114878 1_455
Li10 O0 2.203530 1_545
Li11 Li7 2.492740 1_556
Li11 Li17 2.514218 1_555
Li11 Li13 2.533084 1_556
Li12 Li18 2.575186 1_555
Li12 Li8 2.883854 1_555
Li12 Li16 2.911539 1_555
Li16 O0 2.173199 1_445
Li17 Li3 2.924310 1_556
Li18 O0 2.141588 1_545
B0 B51 1.740512 1_555
B0 B48 1.753439 1_555
B0 B42 1.758659 1_555
B0 B3 1.764057 1_545
B0 B9 1.766423 1_545
B0 Li19 2.227160 1_555
B0 Li15 2.229985 1_555
B0 Li5 2.235684 1_545
B1 B53 1.695639 1_555
B1 B50 1.750346 1_565
B1 B43 1.750901 1_565
B1 B10 1.759433 1_555
B1 B4 1.761657 1_555
B1 Li16 2.391551 1_565
B1 Li18 2.458157 1_565
B1 Li6 2.479638 1_555
B1 Li12 2.576031 1_565
B2 B52 1.694731 1_564
B2 B44 1.743109 1_565
B2 B49 1.745183 1_565
B2 B5 1.772398 1_555
B2 Li4 2.522849 1_554
B2 Li11 2.543193 1_564
B2 Li13 2.625033 1_565
B2 Li17 2.659360 1_564
B3 B6 1.687483 1_555
B3 B42 1.730174 1_565
B3 B52 1.754726 1_565
B3 B9 1.821265 1_555
B3 Li5 2.512145 1_555
B3 Li4 2.723397 1_555
B4 B7 1.691001 1_555
B4 B43 1.758009 1_565
B4 B51 1.765803 1_565
B4 Li6 2.607928 1_555
B4 Li5 2.664148 1_555
B4 Li16 2.730213 1_565
B5 B8 1.701247 1_555
B5 B53 1.774329 1_555
B5 Li6 2.555122 1_555
B5 Li16 2.678639 1_565
B5 Li4 2.734889 1_554
B6 Li0 2.607541 1_555
B6 Li5 2.678091 1_555
B6 Li4 2.698566 1_555
B7 Li6 2.561173 1_555
B8 Li6 2.551380 1_555
B8 Li8 2.610304 1_555
B8 Li4 2.748962 1_554
B9 Li5 2.504582 1_555
B9 Li4 2.703128 1_555
B10 B14 1.684015 1_555
B10 B50 1.730757 1_565
B10 B51 1.770807 1_565
B10 B4 1.798236 1_555
B10 Li1 2.587123 1_555
B10 Li2 2.661993 1_555
B10 Li5 2.665382 1_555
B10 Li6 2.795544 1_555
B11 B15 1.690612 1_555
B11 B49 1.736110 1_565
B11 B53 1.768570 1_555
B11 B2 1.770925 1_555
B11 B5 1.802148 1_555
B11 Li2 2.451559 1_555
B11 Li4 2.712613 1_554
B12 B40 1.699432 1_555
B12 B47 1.727891 1_555
B12 B18 1.737980 1_555
B12 B32 1.755045 1_555
B12 B7 1.779727 1_555
B12 Li8 2.398032 1_555
B12 Li6 2.411119 1_555
B12 Li18 2.523132 1_555
B12 Li12 2.626183 1_555
B12 Li10 2.741709 1_555
B13 B9 1.690677 1_555
B13 B29 1.731792 1_655
B13 B25 1.782538 1_555
B13 B22 1.791997 1_655
B13 B19 1.796776 1_555
B13 Li4 2.673092 1_555
B13 Li5 2.678856 1_555
B13 Li0 2.726360 1_655
B14 B30 1.734417 1_655
B14 B23 1.754181 1_555
B14 B27 1.760935 1_555
B14 B20 1.803413 1_555
B14 Li2 2.466457 1_555
B14 Li1 2.636994 1_555
B15 B26 1.739214 1_655
B15 B28 1.749423 1_655
B15 B24 1.760083 1_555
B15 B21 1.797950 1_555
B15 Li2 2.282286 1_555
B15 Li4 2.738711 1_554
B16 B19 1.689559 1_555
B16 B39 1.738594 1_555
B16 B37 1.754077 1_555
B16 B45 1.756989 1_555
B16 B6 1.799538 1_555
B16 Li9 2.334197 1_555
B16 Li4 2.628051 1_555
B17 B21 1.683741 1_555
B17 B46 1.731630 1_555
B17 B40 1.753088 1_555
B17 B38 1.761900 1_555
B17 B8 1.794001 1_555
B17 Li10 2.586039 1_555
B17 Li4 2.743970 1_554
B18 B20 1.680637 1_555
B18 B47 1.741674 1_555
B18 B41 1.751463 1_555
B18 B7 1.793110 1_555
B18 Li9 2.345424 1_555
B18 Li10 2.553866 1_555
B18 Li6 2.710766 1_555
B19 B22 1.744948 1_655
B19 B34 1.750405 1_655
B19 B25 1.760969 1_555
B19 Li9 2.335493 1_555
B19 Li4 2.616403 1_555
B20 B27 1.727415 1_555
B20 B23 1.734633 1_555
B20 B35 1.756928 1_655
B20 Li9 2.351352 1_555
B20 Li10 2.427395 1_555
B21 B36 1.743482 1_655
B21 B24 1.746429 1_555
B21 B26 1.747979 1_655
B21 Li10 2.430059 1_555
B21 Li4 2.762386 1_554
B22 B26 1.703782 1_556
B22 B34 1.733998 1_555
B22 B29 1.750742 1_555
B22 Li11 2.465071 1_555
B22 Li4 2.506005 1_455
B22 Li7 2.610730 1_556
B22 Li13 2.612077 1_556
B23 B25 1.728684 1_555
B23 B30 1.784895 1_655
B23 B35 1.787447 1_655
B23 Li14 2.237483 1_655
B23 Li15 2.395389 1_655
B23 Li9 2.404223 1_555
B23 Li5 2.714181 1_555
B24 B27 1.697894 1_555
B24 B28 1.739563 1_655
B24 B36 1.757295 1_655
B24 Li2 2.341598 1_555
B24 Li12 2.387468 1_655
B24 Li10 2.404215 1_555
B24 Li6 2.679145 1_555
B25 B29 1.759191 1_655
B25 B34 1.759989 1_655
B25 Li14 2.261816 1_655
B25 Li9 2.376031 1_555
B25 Li15 2.420433 1_655
B25 Li5 2.621033 1_555
B26 B36 1.764769 1_555
B26 B28 1.771798 1_555
B26 Li7 2.446426 1_555
B26 Li11 2.526024 1_554
B26 Li13 2.556499 1_555
B26 Li4 2.597241 1_454
B27 B35 1.738945 1_655
B27 B30 1.767020 1_655
B27 Li2 2.410872 1_555
B27 Li12 2.421929 1_655
B27 Li10 2.425754 1_555
B27 Li6 2.693084 1_555
B28 B33 1.699713 1_555
B28 B36 1.793381 1_555
B28 Li7 2.265385 1_555
B28 Li12 2.531803 1_555
B29 B31 1.707186 1_555
B29 B34 1.806396 1_555
B29 Li14 2.285528 1_555
B29 Li0 2.369790 1_555
B29 Li7 2.626662 1_556
B29 Li11 2.652921 1_555
B30 B32 1.709578 1_555
B30 B35 1.794408 1_555
B30 Li14 2.270265 1_555
B30 Li12 2.666756 1_555
B31 B6 1.726928 1_555
B31 B39 1.755555 1_555
B31 B37 1.766217 1_555
B31 B45 1.792628 1_555
B31 Li14 2.280306 1_555
B31 Li0 2.324709 1_555
B31 Li7 2.621148 1_556
B31 Li11 2.654225 1_555
B32 B7 1.746467 1_555
B32 B41 1.763845 1_555
B32 B47 1.806647 1_555
B32 Li14 2.272739 1_555
B32 Li8 2.526658 1_555
B32 Li12 2.765879 1_555
B33 B40 1.741845 1_555
B33 B38 1.746773 1_555
B33 B8 1.760062 1_555
B33 B46 1.796612 1_555
B33 Li7 2.286234 1_555
B33 Li8 2.365397 1_555
B33 Li12 2.618708 1_555
B34 B42 1.694763 1_555
B34 Li15 2.330640 1_555
B34 Li13 2.500932 1_556
B34 Li11 2.599794 1_555
B35 B43 1.699687 1_555
B35 Li15 2.329344 1_555
B35 Li12 2.628560 1_555
B36 B44 1.695011 1_555
B36 Li13 2.461969 1_555
B36 Li12 2.572453 1_555
B37 B41 1.729824 1_555
B37 B45 1.763513 1_555
B37 B6 1.772820 1_555
B37 Li14 2.256901 1_555
B37 Li9 2.375954 1_555
B37 Li19 2.406487 1_555
B37 Li5 2.606897 1_555
B38 B39 1.703677 1_554
B38 B46 1.748167 1_555
B38 B8 1.760021 1_555
B38 Li7 2.468925 1_555
B38 Li4 2.554053 1_554
B38 Li11 2.595887 1_554
B38 Li17 2.600225 1_554
B39 B45 1.741733 1_555
B39 B6 1.779425 1_555
B39 Li11 2.492661 1_555
B39 Li4 2.510441 1_555
B39 Li17 2.553245 1_555
B39 Li7 2.602936 1_556
B40 B46 1.752510 1_555
B40 B8 1.765432 1_555
B40 Li8 2.339862 1_555
B40 Li6 2.423449 1_555
B40 Li18 2.485746 1_555
B40 Li12 2.571250 1_555
B40 Li10 2.741358 1_555
B41 B7 1.762372 1_555
B41 B47 1.768663 1_555
B41 Li14 2.249071 1_555
B41 Li9 2.394676 1_555
B41 Li19 2.413939 1_555
B41 Li5 2.685012 1_555
B42 B52 1.755101 1_555
B42 B48 1.810753 1_555
B42 Li15 2.261578 1_555
B42 Li13 2.470591 1_556
B42 Li11 2.545085 1_555
B43 B51 1.754380 1_555
B43 B50 1.808407 1_555
B43 Li15 2.291705 1_555
B43 Li16 2.512709 1_555
B43 Li12 2.696424 1_555
B44 B53 1.752050 1_545
B44 B5 1.754036 1_545
B44 B49 1.811239 1_555
B44 Li16 2.434724 1_555
B44 Li13 2.506286 1_555
B44 Li12 2.671521 1_555
B45 B48 1.703195 1_555
B45 Li19 2.300903 1_555
B45 Li17 2.372661 1_555
B45 Li11 2.600101 1_555
B46 B49 1.688562 1_555
B46 Li18 2.421322 1_555
B46 Li17 2.494877 1_554
B46 Li12 2.810263 1_555
B47 B50 1.691249 1_555
B47 Li19 2.305548 1_555
B47 Li18 2.447174 1_555
B47 Li12 2.880410 1_555
B48 B9 1.739486 1_545
B48 B52 1.755718 1_555
B48 Li19 2.237914 1_555
B48 Li17 2.364212 1_555
B48 Li11 2.539131 1_555
B49 B53 1.745860 1_545
B49 Li18 2.427890 1_555
B49 Li17 2.521291 1_554
B49 Li3 2.740345 1_555
B49 Li12 2.825026 1_555
B50 B51 1.755780 1_555
B50 Li19 2.264086 1_555
B50 Li18 2.390267 1_555
B50 Li1 2.779803 1_545
B50 Li12 2.848205 1_555
B51 Li15 2.248687 1_555
B51 Li19 2.255349 1_555
B51 Li5 2.295517 1_545
B52 B9 1.756185 1_545
B52 Li11 2.387346 1_555
B52 Li4 2.539659 1_545
B52 Li17 2.577719 1_555
B52 Li13 2.602747 1_556
B53 Li16 2.368908 1_565
B53 Li6 2.432883 1_555
B53 Li18 2.482011 1_565
B53 Li12 2.584747 1_565
B53 Li2 2.709502 1_555
