# generated using pymatgen
data_Ba2ErCu3O7
_symmetry_space_group_name_H-M   'P 1'
_cell_length_a   3.83476200
_cell_length_b   3.93312500
_cell_length_c   11.78876900
_cell_angle_alpha   90.00000000
_cell_angle_beta   90.00000000
_cell_angle_gamma   90.00000000
_symmetry_Int_Tables_number   1
_chemical_formula_structural   Ba2ErCu3O7
_chemical_formula_sum   'Ba2 Er1 Cu3 O7'
_cell_volume   177.80526718
_cell_formula_units_Z   1
loop_
 _symmetry_equiv_pos_site_id
 _symmetry_equiv_pos_as_xyz
  1  'x, y, z'
loop_
 _atom_site_type_symbol
 _atom_site_label
 _atom_site_symmetry_multiplicity
 _atom_site_fract_x
 _atom_site_fract_y
 _atom_site_fract_z
 _atom_site_occupancy
  Ba  Ba0  1  0.00000000  0.50000000  0.31823300  1
  Ba  Ba1  1  0.00000000  0.50000000  0.68176700  1
  Er  Er0  1  0.00000000  0.50000000  0.00000000  1
  Cu  Cu0  1  0.50000000  0.00000000  0.14435600  1
  Cu  Cu1  1  0.50000000  0.00000000  0.85564400  1
  Cu  Cu2  1  0.50000000  0.00000000  0.50000000  1
  O  O0  1  0.50000000  0.50000000  0.12012100  1
  O  O1  1  0.50000000  0.50000000  0.87987900  1
  O  O2  1  0.50000000  0.00000000  0.66031600  1
  O  O3  1  0.00000000  0.00000000  0.11797400  1
  O  O4  1  0.50000000  0.50000000  0.50000000  1
  O  O5  1  0.00000000  0.00000000  0.88202600  1
  O  O6  1  0.50000000  0.00000000  0.33968400  1
loop_
_geom_bond_atom_site_label_1
_geom_bond_atom_site_label_2
_geom_bond_distance
_geom_bond_site_symmetry_2
Ba0 O6 2.758200 1_455
Ba0 O6 2.758200 1_465
Ba0 O6 2.758200 1_555
Ba0 O6 2.758200 1_565
Ba0 O4 2.875410 1_555
Ba0 O4 2.875410 1_455
Ba0 O0 3.021737 1_555
Ba0 O0 3.021737 1_455
Ba0 O3 3.072585 1_555
Ba0 O3 3.072585 1_565
Ba1 O2 2.758200 1_465
Ba1 O2 2.758200 1_455
Ba1 O2 2.758200 1_555
Ba1 O2 2.758200 1_565
Ba1 O4 2.875410 1_555
Ba1 O4 2.875410 1_455
Ba1 O1 3.021737 1_555
Ba1 O1 3.021737 1_455
Ba1 O5 3.072585 1_555
Ba1 O5 3.072585 1_565
Er0 O0 2.383617 1_455
Er0 O0 2.383617 1_555
Er0 O1 2.383617 1_554
Er0 O1 2.383617 1_454
Er0 O3 2.408652 1_565
Er0 O3 2.408652 1_555
Er0 O5 2.408652 1_554
Er0 O5 2.408652 1_564
Cu0 O3 1.942441 1_555
Cu0 O3 1.942441 1_655
Cu0 O0 1.987207 1_555
Cu0 O0 1.987207 1_545
Cu0 O6 2.302677 1_555
Cu1 O5 1.942441 1_655
Cu1 O5 1.942441 1_555
Cu1 O1 1.987207 1_555
Cu1 O1 1.987207 1_545
Cu1 O2 2.302677 1_555
Cu2 O6 1.889928 1_555
Cu2 O2 1.889928 1_555
Cu2 O4 1.966562 1_545
Cu2 O4 1.966562 1_555
