# generated using pymatgen
data_Sc22Fe7S40
_symmetry_space_group_name_H-M   'P 1'
_cell_length_a   7.42321035
_cell_length_b   7.38799114
_cell_length_c   36.49084769
_cell_angle_alpha   60.18373820
_cell_angle_beta   60.27265847
_cell_angle_gamma   60.70523146
_symmetry_Int_Tables_number   1
_chemical_formula_structural   Sc22Fe7S40
_chemical_formula_sum   'Sc22 Fe7 S40'
_cell_volume   1427.42523627
_cell_formula_units_Z   1
loop_
 _symmetry_equiv_pos_site_id
 _symmetry_equiv_pos_as_xyz
  1  'x, y, z'
loop_
 _atom_site_type_symbol
 _atom_site_label
 _atom_site_symmetry_multiplicity
 _atom_site_fract_x
 _atom_site_fract_y
 _atom_site_fract_z
 _atom_site_occupancy
  Sc  Sc0  1  0.45846335  0.02494044  0.99684350  1
  Sc  Sc1  1  0.50375098  0.01432680  0.09748029  1
  Sc  Sc2  1  0.46263208  0.01111386  0.20266693  1
  Sc  Sc3  1  0.50459330  0.49388848  0.09770285  1
  Sc  Sc4  1  0.50302138  0.49225209  0.20222791  1
  Sc  Sc5  1  0.50311529  0.01188215  0.29905515  1
  Sc  Sc6  1  0.45175767  0.01709002  0.40673041  1
  Sc  Sc7  1  0.00976155  0.49813259  0.09824786  1
  Sc  Sc8  1  0.50282554  0.49130659  0.29917258  1
  Sc  Sc9  1  0.50964828  0.47959984  0.40467291  1
  Sc  Sc10  1  0.99731699  0.46089648  0.60455318  1
  Sc  Sc11  1  0.00314190  0.50171261  0.70006884  1
  Sc  Sc12  1  0.50718042  0.48890172  0.49676609  1
  Sc  Sc13  1  0.00500446  0.49679091  0.30063334  1
  Sc  Sc14  1  0.49679105  0.50060611  0.60288199  1
  Sc  Sc15  1  -0.00126088  0.45989509  0.80448221  1
  Sc  Sc16  1  0.46749299  0.00168867  0.80314839  1
  Sc  Sc17  1  0.00611872  0.50062433  0.90137757  1
  Sc  Sc18  1  0.46702072  0.99673032  0.60436333  1
  Sc  Sc19  1  0.00895136  0.49925465  0.49672707  1
  Sc  Sc20  1  0.49738810  0.49974570  0.80225419  1
  Sc  Sc21  1  0.50400292  0.49951770  0.99945187  1
  Fe  Fe0  1  0.91170422  0.86549860  0.17203862  1
  Fe  Fe1  1  0.91386043  0.85401057  0.37450552  1
  Fe  Fe2  1  0.49400070  0.49707428  0.69748021  1
  Fe  Fe3  1  0.91211883  0.90604497  0.56914138  1
  Fe  Fe4  1  0.48352834  0.48933013  0.90050484  1
  Fe  Fe5  1  0.91661908  0.90852436  0.76986394  1
  Fe  Fe6  1  0.92747954  0.85674845  0.97049209  1
  S  S0  1  0.25033593  0.25354368  0.05047603  1
  S  S1  1  0.24851516  0.74300784  0.05033746  1
  S  S2  1  0.24720779  0.25585094  0.14849785  1
  S  S3  1  0.73329931  0.25667620  0.05058993  1
  S  S4  1  0.24728868  0.25617524  0.25090686  1
  S  S5  1  0.28338386  0.73920276  0.14767166  1
  S  S6  1  0.24760505  0.74030547  0.25117587  1
  S  S7  1  0.74596343  0.75367380  0.04950125  1
  S  S8  1  0.24796751  0.25481564  0.34876981  1
  S  S9  1  0.74250471  0.24764594  0.15081043  1
  S  S10  1  0.73541563  0.25695815  0.25053618  1
  S  S11  1  0.74154548  0.75575061  0.15091919  1
  S  S12  1  0.24155385  0.26424817  0.45008099  1
  S  S13  1  0.28479671  0.74238668  0.34692689  1
  S  S14  1  0.74197612  0.75526818  0.24951499  1
  S  S15  1  0.24555180  0.74458290  0.45070725  1
  S  S16  1  0.74452554  0.24530500  0.35064479  1
  S  S17  1  0.24565482  0.25106593  0.55017627  1
  S  S18  1  0.74313752  0.75691162  0.35017377  1
  S  S19  1  0.73525207  0.26678430  0.45027205  1
  S  S20  1  0.24869288  0.25279155  0.65129306  1
  S  S21  1  0.26554671  0.72245521  0.55146703  1
  S  S22  1  0.24820995  0.73992637  0.65274694  1
  S  S23  1  0.73322829  0.27003008  0.55045619  1
  S  S24  1  0.73772887  0.76167504  0.44924402  1
  S  S25  1  0.25146224  0.25565311  0.74870199  1
  S  S26  1  0.72137471  0.26648492  0.65422189  1
  S  S27  1  0.75544053  0.74968274  0.55270842  1
  S  S28  1  0.25038012  0.25333265  0.85063576  1
  S  S29  1  0.27405927  0.71625280  0.74810675  1
  S  S30  1  0.75673088  0.74972761  0.64730970  1
  S  S31  1  0.25313936  0.26921421  0.94606810  1
  S  S32  1  0.25051935  0.74116859  0.85139402  1
  S  S33  1  0.72830927  0.27377914  0.74807954  1
  S  S34  1  0.75788298  0.74944030  0.75201566  1
  S  S35  1  0.71934286  0.27169366  0.85403692  1
  S  S36  1  0.29284268  0.72361606  0.94410175  1
  S  S37  1  0.74502772  0.24653699  0.94983561  1
  S  S38  1  0.75957193  0.74857761  0.84649633  1
  S  S39  1  0.74399914  0.75467381  0.95185574  1
loop_
_geom_bond_atom_site_label_1
_geom_bond_atom_site_label_2
_geom_bond_distance
_geom_bond_site_symmetry_2
Fe0 S5 2.268555 1_655
Fe0 S14 2.329258 1_555
Fe0 S11 2.331500 1_555
Fe0 S9 2.338476 1_565
Fe0 Sc2 2.740485 1_565
Fe1 S24 2.258132 1_555
Fe1 S13 2.264897 1_655
Fe1 S18 2.355430 1_555
Fe1 S16 2.391988 1_565
Fe1 Sc6 2.822274 1_565
Fe2 S26 2.336841 1_555
Fe2 S22 2.459758 1_555
Fe2 S29 2.469201 1_555
Fe2 S25 2.531060 1_555
Fe2 S33 2.550279 1_555
Fe2 S30 2.694947 1_555
Fe3 S21 2.201870 1_655
Fe3 S23 2.244931 1_565
Fe3 S30 2.359083 1_555
Fe3 S27 2.396276 1_555
Fe3 Sc10 2.726648 1_555
Fe3 Sc18 2.737892 1_555
Fe4 S35 2.353285 1_555
Fe4 S31 2.355146 1_555
Fe4 S36 2.374439 1_555
Fe4 S32 2.504825 1_555
Fe4 S37 2.659531 1_555
Fe4 S38 2.798818 1_555
Fe5 S29 2.243279 1_655
Fe5 S33 2.268313 1_565
Fe5 S38 2.324685 1_555
Fe5 S34 2.464067 1_555
Fe5 Sc15 2.752425 1_655
Fe5 Sc16 2.762966 1_565
Fe6 S36 2.234223 1_655
Fe6 S39 2.306516 1_555
Fe6 S7 2.382412 1_556
Fe6 S37 2.394268 1_565
S0 Sc7 2.525967 1_555
S0 Sc1 2.556590 1_555
S0 Sc0 2.608525 1_554
S0 Sc21 2.611855 1_554
S1 Sc7 2.527866 1_555
S1 Sc3 2.580606 1_555
S1 Sc0 2.587312 1_564
S1 Sc21 2.602179 1_554
S2 Sc2 2.546549 1_555
S2 Sc7 2.554801 1_555
S2 Sc3 2.591001 1_555
S2 Sc1 2.595853 1_555
S3 Sc1 2.466704 1_555
S3 Sc3 2.469640 1_555
S3 Sc21 2.535849 1_554
S4 Sc2 2.545266 1_555
S4 Sc13 2.555348 1_555
S4 Sc4 2.572169 1_555
S4 Sc5 2.598513 1_555
S5 Sc4 2.578046 1_555
S5 Sc3 2.590447 1_555
S5 Sc1 2.596613 1_565
S6 Sc13 2.540755 1_555
S6 Sc2 2.546629 1_565
S6 Sc4 2.576796 1_555
S6 Sc8 2.591742 1_555
S7 Sc1 2.617040 1_565
S7 Sc3 2.621162 1_555
S7 Sc7 2.657095 1_655
S7 Sc0 2.883624 1_564
S8 Sc13 2.529443 1_555
S8 Sc8 2.569401 1_555
S8 Sc5 2.569679 1_555
S8 Sc6 2.593372 1_555
S9 Sc4 2.620396 1_555
S9 Sc3 2.632182 1_555
S9 Sc2 2.704868 1_555
S9 Sc7 2.707161 1_655
S10 Sc4 2.477757 1_555
S10 Sc8 2.493967 1_555
S10 Sc5 2.495260 1_555
S11 Sc4 2.625096 1_555
S11 Sc1 2.641445 1_565
S11 Sc2 2.693436 1_565
S11 Sc7 2.723053 1_655
S12 Sc6 2.430571 1_555
S12 Sc19 2.446128 1_555
S12 Sc9 2.538518 1_555
S13 Sc5 2.556065 1_565
S13 Sc8 2.564463 1_555
S13 Sc9 2.691499 1_555
S14 Sc8 2.630910 1_555
S14 Sc5 2.635502 1_565
S14 Sc2 2.694780 1_565
S14 Sc13 2.712834 1_655
S15 Sc6 2.517623 1_565
S15 Sc19 2.520561 1_555
S15 Sc12 2.579693 1_555
S15 Sc9 2.597340 1_555
S16 Sc8 2.608929 1_555
S16 Sc9 2.637099 1_555
S16 Sc13 2.676854 1_655
S16 Sc6 2.738199 1_555
S17 Sc10 2.524566 1_455
S17 Sc18 2.578142 1_545
S17 Sc12 2.614408 1_555
S17 Sc19 2.634971 1_555
S18 Sc5 2.592284 1_565
S18 Sc13 2.655911 1_655
S18 Sc9 2.676078 1_555
S18 Sc6 2.842837 1_565
S19 Sc9 2.372896 1_555
S19 Sc12 2.374625 1_555
S20 Sc10 2.548711 1_455
S20 Sc18 2.570385 1_545
S20 Sc11 2.574792 1_555
S20 Sc14 2.592556 1_555
S21 Sc14 2.556514 1_555
S21 Sc12 2.650374 1_555
S21 Sc10 2.769260 1_455
S22 Sc18 2.489106 1_555
S22 Sc11 2.526691 1_555
S22 Sc14 2.553188 1_555
S23 Sc14 2.574316 1_555
S23 Sc12 2.592978 1_555
S23 Sc19 2.647938 1_655
S23 Sc18 2.819789 1_545
S24 Sc6 2.628447 1_565
S24 Sc12 2.637024 1_555
S24 Sc19 2.667172 1_655
S25 Sc15 2.537025 1_555
S25 Sc16 2.558846 1_555
S25 Sc11 2.570767 1_555
S26 Sc10 2.480377 1_555
S26 Sc14 2.516750 1_555
S27 Sc10 2.638374 1_555
S27 Sc14 2.654368 1_555
S27 Sc18 2.657616 1_555
S27 Sc19 2.770606 1_655
S28 Sc15 2.535587 1_555
S28 Sc16 2.560944 1_555
S28 Sc20 2.579378 1_555
S28 Sc17 2.616612 1_555
S29 Sc20 2.592620 1_555
S29 Sc15 2.782052 1_555
S30 Sc10 2.644850 1_555
S30 Sc18 2.658769 1_555
S30 Sc11 2.667261 1_655
S31 Sc0 2.407634 1_555
S31 Sc17 2.463738 1_555
S32 Sc16 2.500004 1_565
S32 Sc17 2.535052 1_555
S32 Sc20 2.545179 1_555
S33 Sc20 2.598879 1_555
S33 Sc11 2.636426 1_655
S33 Sc16 2.785790 1_555
S34 Sc15 2.649039 1_655
S34 Sc11 2.650304 1_655
S34 Sc20 2.667433 1_555
S34 Sc16 2.671883 1_565
S35 Sc15 2.471244 1_655
S35 Sc20 2.515747 1_555
S36 Sc21 2.559762 1_555
S37 Sc21 2.617720 1_555
S37 Sc0 2.672897 1_555
S37 Sc17 2.695854 1_655
S38 Sc15 2.626399 1_655
S38 Sc16 2.681787 1_565
S38 Sc17 2.724290 1_655
S39 Sc21 2.589591 1_555
S39 Sc0 2.615659 1_565
S39 Sc17 2.647902 1_655
