# generated using pymatgen
data_NaCa2V3(CuO6)2
_symmetry_space_group_name_H-M   'P 1'
_cell_length_a   10.84457835
_cell_length_b   10.84457835
_cell_length_c   10.84457835
_cell_angle_alpha   109.40210108
_cell_angle_beta   109.40210108
_cell_angle_gamma   109.60954836
_symmetry_Int_Tables_number   1
_chemical_formula_structural   NaCa2V3(CuO6)2
_chemical_formula_sum   'Na4 Ca8 V12 Cu8 O48'
_cell_volume   981.78009392
_cell_formula_units_Z   4
loop_
 _symmetry_equiv_pos_site_id
 _symmetry_equiv_pos_as_xyz
  1  'x, y, z'
loop_
 _atom_site_type_symbol
 _atom_site_label
 _atom_site_symmetry_multiplicity
 _atom_site_fract_x
 _atom_site_fract_y
 _atom_site_fract_z
 _atom_site_occupancy
  Na  Na0  1  0.50000000  0.00000000  0.50000000  1
  Na  Na1  1  0.25000000  0.25000000  0.00000000  1
  Na  Na2  1  0.00000000  0.50000000  0.50000000  1
  Na  Na3  1  0.75000000  0.75000000  0.00000000  1
  Ca  Ca0  1  0.75151700  0.12500000  0.12651700  1
  Ca  Ca1  1  0.87500000  0.00151700  0.62651700  1
  Ca  Ca2  1  0.25151700  0.12500000  0.62651700  1
  Ca  Ca3  1  0.87500000  0.50151700  0.12651700  1
  Ca  Ca4  1  0.37500000  0.24848300  0.37348300  1
  Ca  Ca5  1  0.99848300  0.62500000  0.87348300  1
  Ca  Ca6  1  0.49848300  0.62500000  0.37348300  1
  Ca  Ca7  1  0.37500000  0.74848300  0.87348300  1
  V  V0  1  0.00000000  0.00000000  0.00000000  1
  V  V1  1  0.37500000  0.99994900  0.12494900  1
  V  V2  1  0.00005100  0.12500000  0.37505100  1
  V  V3  1  0.87500000  0.25005100  0.87505100  1
  V  V4  1  0.50005100  0.12500000  0.87505100  1
  V  V5  1  0.75000000  0.25000000  0.50000000  1
  V  V6  1  0.50000000  0.50000000  0.00000000  1
  V  V7  1  0.74994900  0.62500000  0.62494900  1
  V  V8  1  0.37500000  0.49994900  0.62494900  1
  V  V9  1  0.24994900  0.62500000  0.12494900  1
  V  V10  1  0.87500000  0.75005100  0.37505100  1
  V  V11  1  0.25000000  0.75000000  0.50000000  1
  Cu  Cu0  1  0.62500000  0.87500000  0.75000000  1
  Cu  Cu1  1  0.12500000  0.87500000  0.75000000  1
  Cu  Cu2  1  0.62500000  0.87500000  0.25000000  1
  Cu  Cu3  1  0.12500000  0.87500000  0.25000000  1
  Cu  Cu4  1  0.62500000  0.37500000  0.75000000  1
  Cu  Cu5  1  0.62500000  0.37500000  0.25000000  1
  Cu  Cu6  1  0.12500000  0.37500000  0.75000000  1
  Cu  Cu7  1  0.12500000  0.37500000  0.25000000  1
  O  O0  1  0.81693900  0.97973000  0.23734800  1
  O  O1  1  0.02306000  0.89273600  0.56007000  1
  O  O2  1  0.03190800  0.98760400  0.84880400  1
  O  O3  1  0.81689600  0.96809200  0.95569600  1
  O  O4  1  0.52306000  0.96299000  0.13032400  1
  O  O5  1  0.53701000  0.97694000  0.86967600  1
  O  O6  1  0.72973000  0.06693900  0.73734800  1
  O  O7  1  0.91733400  0.28701000  0.06007000  1
  O  O8  1  0.03701000  0.16733400  0.56007000  1
  O  O9  1  0.02027000  0.25761800  0.83720900  1
  O  O10  1  0.42040900  0.18306100  0.16279100  1
  O  O11  1  0.23760400  0.88880000  0.45569600  1
  O  O12  1  0.71809200  0.06689600  0.45569600  1
  O  O13  1  0.31693900  0.07959100  0.83720900  1
  O  O14  1  0.64273600  0.27306000  0.06007000  1
  O  O15  1  0.13880000  0.18310400  0.15119600  1
  O  O16  1  0.50761800  0.17040900  0.73734800  1
  O  O17  1  0.32959100  0.99238200  0.26265200  1
  O  O18  1  0.00761800  0.27027000  0.33720900  1
  O  O19  1  0.83266600  0.39273600  0.86967600  1
  O  O20  1  0.93310400  0.38880000  0.65119600  1
  O  O21  1  0.61120000  0.26239600  0.54430400  1
  O  O22  1  0.51239600  0.46809200  0.15119600  1
  O  O23  1  0.14273600  0.08266600  0.36967600  1
  O  O24  1  0.10726400  0.66733400  0.13032400  1
  O  O25  1  0.73760400  0.28190800  0.34880400  1
  O  O26  1  0.63880000  0.48760400  0.95569600  1
  O  O27  1  0.31689600  0.36120000  0.84880400  1
  O  O28  1  0.41733400  0.35726400  0.63032400  1
  O  O29  1  0.24238200  0.47973000  0.16279100  1
  O  O30  1  0.92040900  0.75761800  0.23734800  1
  O  O31  1  0.74238200  0.57959100  0.76265200  1
  O  O32  1  0.11120000  0.56689600  0.34880400  1
  O  O33  1  0.60726400  0.47694000  0.43993000  1
  O  O34  1  0.93306100  0.67040900  0.66279100  1
  O  O35  1  0.53190800  0.68310400  0.04430400  1
  O  O36  1  0.01239600  0.86120000  0.04430400  1
  O  O37  1  0.82959100  0.56693900  0.33720900  1
  O  O38  1  0.22973000  0.49238200  0.66279100  1
  O  O39  1  0.21299000  0.58266600  0.93993000  1
  O  O40  1  0.33266600  0.46299000  0.43993000  1
  O  O41  1  0.52027000  0.68306100  0.76265200  1
  O  O42  1  0.71299000  0.77306000  0.63032400  1
  O  O43  1  0.72694000  0.78701000  0.36967600  1
  O  O44  1  0.43310400  0.78190800  0.54430400  1
  O  O45  1  0.22694000  0.85726400  0.93993000  1
  O  O46  1  0.21809200  0.76239600  0.65119600  1
  O  O47  1  0.43306100  0.77027000  0.26265200  1
loop_
_geom_bond_atom_site_label_1
_geom_bond_atom_site_label_2
_geom_bond_distance
_geom_bond_site_symmetry_2
Na0 O11 2.487123 1_545
Na0 O12 2.487123 1_555
Na0 O44 2.487123 1_545
Na0 O21 2.487123 1_555
Na0 O16 2.577420 1_555
Na0 O17 2.577420 1_545
Na0 O47 2.577420 1_545
Na0 O6 2.577420 1_555
Na1 O2 2.487123 1_544
Na1 O22 2.487123 1_555
Na1 O27 2.487123 1_554
Na1 O15 2.487123 1_555
Na1 O10 2.577420 1_555
Na1 O29 2.577420 1_555
Na1 O9 2.577420 1_554
Na1 O13 2.577420 1_554
Na2 O46 2.487123 1_555
Na2 O25 2.487123 1_455
Na2 O32 2.487123 1_555
Na2 O20 2.487123 1_455
Na2 O34 2.577420 1_455
Na2 O18 2.577420 1_555
Na2 O37 2.577420 1_455
Na2 O38 2.577420 1_555
Na3 O35 2.487123 1_555
Na3 O3 2.487123 1_554
Na3 O26 2.487123 1_554
Na3 O36 2.487123 1_655
Na3 O30 2.577420 1_555
Na3 O31 2.577420 1_554
Na3 O0 2.577420 1_555
Na3 O41 2.577420 1_554
Ca0 O18 2.423119 1_655
Ca0 O0 2.423119 1_545
Ca0 O5 2.442198 1_544
Ca0 O14 2.442198 1_555
Ca0 O3 2.533369 1_544
Ca0 O25 2.533369 1_555
Ca0 O7 2.533983 1_555
Ca0 O4 2.533983 1_545
Ca1 O6 2.423119 1_555
Ca1 O9 2.423119 1_655
Ca1 O43 2.442198 1_545
Ca1 O1 2.442198 1_645
Ca1 O2 2.533369 1_645
Ca1 O12 2.533369 1_555
Ca1 O42 2.533983 1_545
Ca1 O8 2.533983 1_655
Ca2 O13 2.423119 1_555
Ca2 O16 2.423119 1_555
Ca2 O23 2.442198 1_555
Ca2 O8 2.442198 1_555
Ca2 O11 2.533369 1_545
Ca2 O27 2.533369 1_555
Ca2 O1 2.533983 1_545
Ca2 O28 2.533983 1_555
Ca3 O37 2.423119 1_555
Ca3 O30 2.423119 1_555
Ca3 O7 2.442198 1_555
Ca3 O19 2.442198 1_554
Ca3 O26 2.533369 1_554
Ca3 O32 2.533369 1_655
Ca3 O14 2.533983 1_555
Ca3 O24 2.533983 1_655
Ca4 O10 2.423119 1_555
Ca4 O17 2.423119 1_545
Ca4 O40 2.442198 1_555
Ca4 O28 2.442198 1_555
Ca4 O21 2.533369 1_555
Ca4 O15 2.533369 1_555
Ca4 O23 2.533983 1_555
Ca4 O33 2.533983 1_555
Ca5 O34 2.423119 1_555
Ca5 O31 2.423119 1_555
Ca5 O24 2.442198 1_656
Ca5 O39 2.442198 1_655
Ca5 O36 2.533369 1_656
Ca5 O20 2.533369 1_555
Ca5 O45 2.533983 1_655
Ca5 O19 2.533983 1_555
Ca6 O29 2.423119 1_555
Ca6 O47 2.423119 1_555
Ca6 O42 2.442198 1_555
Ca6 O33 2.442198 1_555
Ca6 O22 2.533369 1_555
Ca6 O44 2.533369 1_555
Ca6 O40 2.533983 1_555
Ca6 O43 2.533983 1_555
Ca7 O38 2.423119 1_555
Ca7 O41 2.423119 1_555
Ca7 O4 2.442198 1_556
Ca7 O45 2.442198 1_555
Ca7 O35 2.533369 1_556
Ca7 O46 2.533369 1_555
Ca7 O39 2.533983 1_555
Ca7 O5 2.533983 1_555
Cu0 O3 2.082137 1_555
Cu0 O44 2.082137 1_555
Cu0 O41 2.085154 1_555
Cu0 O6 2.085154 1_565
Cu0 O42 2.096338 1_555
Cu0 O5 2.096338 1_555
Cu1 O2 2.082137 1_555
Cu1 O46 2.082137 1_555
Cu1 O34 2.085154 1_455
Cu1 O13 2.085154 1_565
Cu1 O45 2.096338 1_555
Cu1 O1 2.096338 1_555
Cu2 O35 2.082137 1_555
Cu2 O12 2.082137 1_565
Cu2 O0 2.085154 1_555
Cu2 O47 2.085154 1_555
Cu2 O43 2.096338 1_555
Cu2 O4 2.096338 1_555
Cu3 O36 2.082137 1_555
Cu3 O11 2.082137 1_555
Cu3 O30 2.085154 1_455
Cu3 O17 2.085154 1_555
Cu3 O23 2.096338 1_565
Cu3 O24 2.096338 1_555
Cu4 O21 2.082137 1_555
Cu4 O26 2.082137 1_555
Cu4 O16 2.085154 1_555
Cu4 O31 2.085154 1_555
Cu4 O28 2.096338 1_555
Cu4 O19 2.096338 1_555
Cu5 O25 2.082137 1_555
Cu5 O22 2.082137 1_555
Cu5 O37 2.085154 1_555
Cu5 O10 2.085154 1_555
Cu5 O14 2.096338 1_555
Cu5 O33 2.096338 1_555
Cu6 O20 2.082137 1_455
Cu6 O27 2.082137 1_555
Cu6 O9 2.085154 1_555
Cu6 O38 2.085154 1_555
Cu6 O39 2.096338 1_555
Cu6 O8 2.096338 1_555
Cu7 O32 2.082137 1_555
Cu7 O15 2.082137 1_555
Cu7 O18 2.085154 1_555
Cu7 O29 2.085154 1_555
Cu7 O7 2.096338 1_455
Cu7 O40 2.096338 1_555
O0 V2 1.738431 1_665
O1 V10 1.768460 1_455
O2 V0 1.757275 1_566
O3 V0 1.757275 1_666
O4 V1 1.768460 1_555
O5 V4 1.768460 1_565
O6 V3 1.738431 1_555
O7 V3 1.768460 1_554
O8 V2 1.768460 1_555
O9 V3 1.738431 1_455
O10 V1 1.738431 1_545
O11 V11 1.757275 1_555
O12 V5 1.757275 1_555
O13 V4 1.738431 1_555
O14 V4 1.768460 1_554
O15 V0 1.757275 1_555
O16 V4 1.738431 1_555
O17 V1 1.738431 1_555
O18 V2 1.738431 1_555
O19 V3 1.768460 1_555
O20 V5 1.757275 1_555
O21 V5 1.757275 1_555
O22 V6 1.757275 1_555
O23 V2 1.768460 1_555
O24 V9 1.768460 1_555
O25 V5 1.757275 1_555
O26 V6 1.757275 1_556
O27 V6 1.757275 1_556
O28 V8 1.768460 1_555
O29 V9 1.738431 1_555
O30 V10 1.738431 1_555
O31 V7 1.738431 1_555
O32 V11 1.757275 1_555
O33 V7 1.768460 1_555
O34 V7 1.738431 1_555
O35 V6 1.757275 1_555
O36 V0 1.757275 1_565
O37 V10 1.738431 1_555
O38 V8 1.738431 1_555
O39 V9 1.768460 1_556
O40 V8 1.768460 1_555
O41 V8 1.738431 1_555
O42 V7 1.768460 1_555
O43 V10 1.768460 1_555
O44 V11 1.757275 1_555
O45 V1 1.768460 1_556
O46 V11 1.757275 1_555
O47 V9 1.738431 1_555
