# generated using pymatgen
data_Ti
_symmetry_space_group_name_H-M   'P 1'
_cell_length_a   5.81121546
_cell_length_b   5.81121502
_cell_length_c   5.81121252
_cell_angle_alpha   60.00000238
_cell_angle_beta   60.00000495
_cell_angle_gamma   59.99999396
_symmetry_Int_Tables_number   1
_chemical_formula_structural   Ti
_chemical_formula_sum   Ti8
_cell_volume   138.76683660
_cell_formula_units_Z   8
loop_
 _symmetry_equiv_pos_site_id
 _symmetry_equiv_pos_as_xyz
  1  'x, y, z'
loop_
 _atom_site_type_symbol
 _atom_site_label
 _atom_site_symmetry_multiplicity
 _atom_site_fract_x
 _atom_site_fract_y
 _atom_site_fract_z
 _atom_site_occupancy
  Ti  Ti0_0  1  0.00000000  0.00000000  0.00000000  1
  Ti  Ti0_1  1  0.00000000  0.00000000  0.50000000  1
  Ti  Ti0_2  1  0.00000000  0.50000000  0.00000000  1
  Ti  Ti0_3  1  0.00000000  0.50000000  0.50000000  1
  Ti  Ti0_4  1  0.50000000  0.00000000  0.00000000  1
  Ti  Ti0_5  1  0.50000000  0.00000000  0.50000000  1
  Ti  Ti0_6  1  0.50000000  0.50000000  0.00000000  1
  Ti  Ti0_7  1  0.50000000  0.50000000  0.50000000  1
loop_
_geom_bond_atom_site_label_1
_geom_bond_atom_site_label_2
_geom_bond_distance
_geom_bond_site_symmetry_2
Ti0_0 Ti0_1 2.905606 1_555
Ti0_0 Ti0_1 2.905606 1_554
Ti0_0 Ti0_3 2.905607 1_554
Ti0_0 Ti0_3 2.905607 1_545
Ti0_0 Ti0_5 2.905607 1_554
Ti0_0 Ti0_5 2.905607 1_455
Ti0_0 Ti0_6 2.905607 1_455
Ti0_0 Ti0_6 2.905607 1_545
Ti0_0 Ti0_2 2.905608 1_555
Ti0_0 Ti0_2 2.905608 1_545
Ti0_0 Ti0_4 2.905608 1_455
Ti0_0 Ti0_4 2.905608 1_555
Ti0_1 Ti0_2 2.905607 1_555
Ti0_1 Ti0_2 2.905607 1_546
Ti0_1 Ti0_4 2.905607 1_456
Ti0_1 Ti0_4 2.905607 1_555
Ti0_1 Ti0_7 2.905607 1_455
Ti0_1 Ti0_7 2.905607 1_545
Ti0_1 Ti0_3 2.905608 1_555
Ti0_1 Ti0_3 2.905608 1_545
Ti0_1 Ti0_5 2.905608 1_555
Ti0_1 Ti0_5 2.905608 1_455
Ti0_2 Ti0_3 2.905606 1_555
Ti0_2 Ti0_3 2.905606 1_554
Ti0_2 Ti0_7 2.905607 1_554
Ti0_2 Ti0_7 2.905607 1_455
Ti0_2 Ti0_4 2.905607 1_555
Ti0_2 Ti0_4 2.905607 1_465
Ti0_2 Ti0_6 2.905608 1_455
Ti0_2 Ti0_6 2.905608 1_555
Ti0_3 Ti0_6 2.905607 1_456
Ti0_3 Ti0_6 2.905607 1_555
Ti0_3 Ti0_5 2.905607 1_555
Ti0_3 Ti0_5 2.905607 1_465
Ti0_3 Ti0_7 2.905608 1_555
Ti0_3 Ti0_7 2.905608 1_455
Ti0_4 Ti0_5 2.905606 1_554
Ti0_4 Ti0_5 2.905606 1_555
Ti0_4 Ti0_7 2.905607 1_554
Ti0_4 Ti0_7 2.905607 1_545
Ti0_4 Ti0_6 2.905608 1_555
Ti0_4 Ti0_6 2.905608 1_545
Ti0_5 Ti0_6 2.905607 1_555
Ti0_5 Ti0_6 2.905607 1_546
Ti0_5 Ti0_7 2.905608 1_555
Ti0_5 Ti0_7 2.905608 1_545
Ti0_6 Ti0_7 2.905606 1_555
Ti0_6 Ti0_7 2.905606 1_554
