# generated using pymatgen
data_Tm(CuTe)3
_symmetry_space_group_name_H-M   'P 1'
_cell_length_a   6.90612400
_cell_length_b   7.59751100
_cell_length_c   12.72601300
_cell_angle_alpha   90.00000000
_cell_angle_beta   90.00000000
_cell_angle_gamma   90.00000000
_symmetry_Int_Tables_number   1
_chemical_formula_structural   Tm(CuTe)3
_chemical_formula_sum   'Tm4 Cu12 Te12'
_cell_volume   667.72566911
_cell_formula_units_Z   4
loop_
 _symmetry_equiv_pos_site_id
 _symmetry_equiv_pos_as_xyz
  1  'x, y, z'
loop_
 _atom_site_type_symbol
 _atom_site_label
 _atom_site_symmetry_multiplicity
 _atom_site_fract_x
 _atom_site_fract_y
 _atom_site_fract_z
 _atom_site_occupancy
  Tm  Tm0  1  0.23488600  0.75151100  0.83700900  1
  Tm  Tm1  1  0.73488600  0.24848900  0.66299100  1
  Tm  Tm2  1  0.73488600  0.24848900  0.33700900  1
  Tm  Tm3  1  0.23488600  0.75151100  0.16299100  1
  Cu  Cu0  1  0.37127400  0.11879800  0.83338800  1
  Cu  Cu1  1  0.62318700  0.61653800  0.00000000  1
  Cu  Cu2  1  0.12351700  0.38046300  0.17789400  1
  Cu  Cu3  1  0.12318700  0.38346200  0.50000000  1
  Cu  Cu4  1  0.87268100  0.88272400  0.00000000  1
  Cu  Cu5  1  0.37268100  0.11727600  0.50000000  1
  Cu  Cu6  1  0.62351700  0.61953700  0.67789400  1
  Cu  Cu7  1  0.87127400  0.88120200  0.66661200  1
  Cu  Cu8  1  0.12351700  0.38046300  0.82210600  1
  Cu  Cu9  1  0.37127400  0.11879800  0.16661200  1
  Cu  Cu10  1  0.87127400  0.88120200  0.33338800  1
  Cu  Cu11  1  0.62351700  0.61953700  0.32210600  1
  Te  Te0  1  0.97740500  0.06741700  0.83431400  1
  Te  Te1  1  0.00475800  0.56398600  0.66187800  1
  Te  Te2  1  0.97740500  0.06741700  0.16568600  1
  Te  Te3  1  0.98975300  0.06002400  0.50000000  1
  Te  Te4  1  0.50475800  0.43601400  0.83812200  1
  Te  Te5  1  0.49749900  0.44757700  0.50000000  1
  Te  Te6  1  0.99749900  0.55242300  0.00000000  1
  Te  Te7  1  0.47740500  0.93258300  0.66568600  1
  Te  Te8  1  0.48975300  0.93997600  0.00000000  1
  Te  Te9  1  0.00475800  0.56398600  0.33812200  1
  Te  Te10  1  0.50475800  0.43601400  0.16187800  1
  Te  Te11  1  0.47740500  0.93258300  0.33431400  1
loop_
_geom_bond_atom_site_label_1
_geom_bond_atom_site_label_2
_geom_bond_distance
_geom_bond_site_symmetry_2
Cu0 Te4 2.581046 1_555
Cu0 Cu8 2.626867 1_555
Cu0 Te8 2.647829 1_546
Cu0 Te7 2.663365 1_545
Cu0 Te0 2.748002 1_455
Cu0 Tm0 2.945510 1_545
Cu0 Tm1 3.461073 1_555
Cu1 Te10 2.606510 1_555
Cu1 Te4 2.606510 1_554
Cu1 Te8 2.624428 1_555
Cu1 Te6 2.630540 1_555
Cu1 Cu4 2.656832 1_555
Cu2 Te2 2.588243 1_455
Cu2 Te9 2.602801 1_555
Cu2 Cu9 2.626867 1_555
Cu2 Te10 2.674288 1_555
Cu2 Te6 2.754892 1_455
Cu2 Tm3 2.928228 1_555
Cu2 Tm2 3.508429 1_455
Cu3 Te1 2.606510 1_555
Cu3 Te9 2.606510 1_555
Cu3 Te3 2.624428 1_455
Cu3 Te5 2.630540 1_555
Cu3 Cu5 2.656832 1_555
Cu4 Te2 2.633995 1_565
Cu4 Te0 2.633995 1_564
Cu4 Te6 2.653389 1_555
Cu4 Te8 2.680081 1_555
Cu4 Tm3 3.399025 1_655
Cu4 Tm0 3.399025 1_654
Cu5 Te7 2.633995 1_545
Cu5 Te11 2.633995 1_545
Cu5 Te5 2.653389 1_555
Cu5 Te3 2.680081 1_455
Cu5 Tm1 3.399025 1_555
Cu5 Tm2 3.399025 1_555
Cu6 Te7 2.588243 1_555
Cu6 Te4 2.602801 1_555
Cu6 Cu7 2.626867 1_555
Cu6 Te1 2.674288 1_655
Cu6 Te5 2.754892 1_555
Cu6 Tm1 2.928228 1_555
Cu6 Tm0 3.508429 1_555
Cu7 Te1 2.581046 1_655
Cu7 Te3 2.647829 1_565
Cu7 Te0 2.663365 1_565
Cu7 Te7 2.748002 1_555
Cu7 Tm1 2.945510 1_565
Cu7 Tm0 3.461073 1_655
Cu8 Te0 2.588243 1_455
Cu8 Te1 2.602801 1_555
Cu8 Te4 2.674288 1_555
Cu8 Te6 2.754892 1_456
Cu8 Tm0 2.928228 1_555
Cu8 Tm1 3.508429 1_455
Cu9 Te10 2.581046 1_555
Cu9 Te8 2.647829 1_545
Cu9 Te11 2.663365 1_545
Cu9 Te2 2.748002 1_455
Cu9 Tm3 2.945510 1_545
Cu9 Tm2 3.461073 1_555
Cu10 Te9 2.581046 1_655
Cu10 Cu11 2.626867 1_555
Cu10 Te3 2.647829 1_565
Cu10 Te2 2.663365 1_565
Cu10 Te11 2.748002 1_555
Cu10 Tm2 2.945510 1_565
Cu10 Tm3 3.461073 1_655
Cu11 Te11 2.588243 1_555
Cu11 Te10 2.602801 1_555
Cu11 Te9 2.674288 1_655
Cu11 Te5 2.754892 1_555
Cu11 Tm2 2.928228 1_555
Cu11 Tm3 3.508429 1_555
Te0 Tm0 2.987245 1_645
Te0 Tm1 3.074288 1_555
Te1 Tm1 3.036348 1_455
Te1 Tm0 3.085916 1_555
Te2 Tm3 2.987245 1_645
Te2 Tm2 3.074288 1_555
Te3 Tm2 3.074208 1_555
Te3 Tm1 3.074208 1_555
Te4 Tm0 3.036348 1_555
Te4 Tm1 3.085916 1_555
Te5 Tm2 3.045981 1_555
Te5 Tm1 3.045981 1_555
Te6 Tm0 3.045981 1_654
Te6 Tm3 3.045981 1_655
Te7 Tm1 2.987245 1_565
Te7 Tm0 3.074288 1_555
Te8 Tm3 3.074208 1_555
Te8 Tm0 3.074208 1_554
Te9 Tm2 3.036348 1_455
Te9 Tm3 3.085916 1_555
Te10 Tm3 3.036348 1_555
Te10 Tm2 3.085916 1_555
Te11 Tm2 2.987245 1_565
Te11 Tm3 3.074288 1_555
