# generated using pymatgen
data_Cr2C13SN3(O2F)5
_symmetry_space_group_name_H-M   'P 1'
_cell_length_a   6.46808300
_cell_length_b   12.10003377
_cell_length_c   14.39444739
_cell_angle_alpha   92.45839552
_cell_angle_beta   96.39665280
_cell_angle_gamma   99.67160955
_symmetry_Int_Tables_number   1
_chemical_formula_structural   Cr2C13SN3(O2F)5
_chemical_formula_sum   'Cr4 C26 S2 N6 O20 F10'
_cell_volume   1101.45667001
_cell_formula_units_Z   2
loop_
 _symmetry_equiv_pos_site_id
 _symmetry_equiv_pos_as_xyz
  1  'x, y, z'
loop_
 _atom_site_type_symbol
 _atom_site_label
 _atom_site_symmetry_multiplicity
 _atom_site_fract_x
 _atom_site_fract_y
 _atom_site_fract_z
 _atom_site_occupancy
  Cr  Cr0  1  0.52088800  0.83501300  0.31076200  1
  Cr  Cr1  1  0.88777300  0.73495300  0.90988000  1
  Cr  Cr2  1  0.47911200  0.16498700  0.68923800  1
  Cr  Cr3  1  0.11222700  0.26504700  0.09012000  1
  C  C0  1  0.16364500  0.81466800  0.89627700  1
  C  C1  1  0.72474400  0.96999600  0.31141800  1
  C  C2  1  0.23200000  0.18458000  0.18927300  1
  C  C3  1  0.68227500  0.79303000  0.42044100  1
  C  C4  1  0.01560500  0.65900600  0.00885000  1
  C  C5  1  0.33090600  0.24881900  0.76560300  1
  C  C6  1  0.64186700  0.08971600  0.61208300  1
  C  C7  1  0.69073000  0.29558300  0.69134500  1
  C  C8  1  0.15997000  0.15238400  0.00096700  1
  C  C9  1  0.96887100  0.47313600  0.69631500  1
  C  C10  1  0.62557400  0.12192300  0.80051900  1
  C  C11  1  0.38135300  0.35159000  0.07563400  1
  C  C12  1  0.76800000  0.81542000  0.81072700  1
  C  C13  1  0.98439500  0.34099400  0.99115000  1
  C  C14  1  0.37442600  0.87807700  0.19948100  1
  C  C15  1  0.66909400  0.75118100  0.23439700  1
  C  C16  1  0.84003000  0.84761600  0.99903300  1
  C  C17  1  0.31772500  0.20697000  0.57955900  1
  C  C18  1  0.92180400  0.62351600  0.81812500  1
  C  C19  1  0.30927000  0.70441700  0.30865500  1
  C  C20  1  0.07819600  0.37648400  0.18187500  1
  C  C21  1  0.27525600  0.03000400  0.68858200  1
  C  C22  1  0.61864700  0.64841000  0.92436600  1
  C  C23  1  0.03112900  0.52686400  0.30368500  1
  C  C24  1  0.83635500  0.18533200  0.10372300  1
  C  C25  1  0.35813300  0.91028400  0.38791700  1
  S  S0  1  0.70543800  0.41384700  0.37434800  1
  S  S1  1  0.29456200  0.58615300  0.62565200  1
  N  N0  1  0.94080700  0.55522700  0.75832800  1
  N  N1  1  0.11041100  0.47296700  0.63877100  1
  N  N2  1  0.88958900  0.52703300  0.36122900  1
  N  N3  1  0.82600100  0.37667900  0.69521400  1
  N  N4  1  0.17399900  0.62332100  0.30478600  1
  N  N5  1  0.05919300  0.44477300  0.24167200  1
  O  O0  1  0.28650800  0.90238500  0.13074800  1
  O  O1  1  0.24788700  0.30321600  0.81315100  1
  O  O2  1  0.69863000  0.86367700  0.75054400  1
  O  O3  1  0.25648600  0.95346800  0.43481400  1
  O  O4  1  0.19159900  0.08471300  0.94733300  1
  O  O5  1  0.71349200  0.09761500  0.86925200  1
  O  O6  1  0.09465900  0.61447900  0.06940000  1
  O  O7  1  0.45631100  0.59521800  0.93375400  1
  O  O8  1  0.80840100  0.91528700  0.05266700  1
  O  O9  1  0.54368900  0.40478200  0.06624600  1
  O  O10  1  0.74351400  0.04653200  0.56518600  1
  O  O11  1  0.75211300  0.69678400  0.18684900  1
  O  O12  1  0.30137000  0.13632300  0.24945600  1
  O  O13  1  0.33365100  0.85963600  0.88899900  1
  O  O14  1  0.21536900  0.22979200  0.51462000  1
  O  O15  1  0.78463100  0.77020800  0.48538000  1
  O  O16  1  0.15502800  0.94747700  0.68922500  1
  O  O17  1  0.84497200  0.05252300  0.31077500  1
  O  O18  1  0.66634900  0.14036400  0.11100100  1
  O  O19  1  0.90534100  0.38552100  0.93060000  1
  F  F0  1  0.25610400  0.55897100  0.51405000  1
  F  F1  1  0.35039400  0.62315500  0.73753200  1
  F  F2  1  0.64960600  0.37684500  0.26246800  1
  F  F3  1  0.52568200  0.49298700  0.36457800  1
  F  F4  1  0.12661000  0.67210100  0.61658900  1
  F  F5  1  0.74389600  0.44102900  0.48595000  1
  F  F6  1  0.87339000  0.32789900  0.38341100  1
  F  F7  1  0.52196000  0.31051400  0.39200500  1
  F  F8  1  0.47431800  0.50701300  0.63542200  1
  F  F9  1  0.47804000  0.68948600  0.60799500  1
loop_
_geom_bond_atom_site_label_1
_geom_bond_atom_site_label_2
_geom_bond_distance
_geom_bond_site_symmetry_2
C0 O13 1.160047 1_555
C0 Cr1 1.915310 1_455
C1 O17 1.159075 1_565
C1 Cr0 1.917978 1_555
C2 O12 1.156533 1_555
C2 Cr3 1.926525 1_555
C3 O15 1.154998 1_555
C3 Cr0 1.928726 1_555
C4 O6 1.159717 1_555
C4 Cr1 1.913849 1_454
C5 O1 1.162762 1_555
C5 Cr2 1.903168 1_555
C6 O10 1.159765 1_555
C6 Cr2 1.914957 1_555
C7 N3 1.194775 1_555
C7 Cr2 1.905623 1_555
C8 O4 1.160000 1_554
C8 Cr3 1.918410 1_555
C9 N1 1.301418 1_655
C9 N0 1.355373 1_555
C9 N3 1.359838 1_555
C10 O5 1.159546 1_555
C10 Cr2 1.906344 1_555
C11 O9 1.160614 1_555
C11 Cr3 1.912412 1_555
C12 O2 1.156533 1_555
C12 Cr1 1.926525 1_555
C13 O19 1.159717 1_555
C13 Cr3 1.913849 1_656
C14 O0 1.159546 1_555
C14 Cr0 1.906344 1_555
C15 O11 1.162762 1_555
C15 Cr0 1.903168 1_555
C16 O8 1.160000 1_556
C16 Cr1 1.918410 1_555
C17 O14 1.154998 1_555
C17 Cr2 1.928726 1_555
C18 N0 1.198100 1_555
C18 Cr1 1.903352 1_555
C19 N4 1.194775 1_555
C19 Cr0 1.905623 1_555
C20 N5 1.198100 1_555
C20 Cr3 1.903352 1_555
C21 O16 1.159075 1_545
C21 Cr2 1.917978 1_555
C22 O7 1.160614 1_555
C22 Cr1 1.912412 1_555
C23 N2 1.301418 1_455
C23 N5 1.355373 1_555
C23 N4 1.359838 1_555
C24 O18 1.160047 1_555
C24 Cr3 1.915310 1_655
C25 O3 1.159765 1_555
C25 Cr0 1.914957 1_555
N1 S1 1.689456 1_555
N2 S0 1.689456 1_555
F0 S1 1.608998 1_555
F1 S1 1.636658 1_555
F2 S0 1.636658 1_555
F3 S0 1.624131 1_555
F4 S1 1.624294 1_555
F5 S0 1.608998 1_555
F6 S0 1.624294 1_555
F7 S0 1.622408 1_555
F8 S1 1.624131 1_555
F9 S1 1.622408 1_555
