# generated using pymatgen
data_In(HO)3
_symmetry_space_group_name_H-M   'P 1'
_cell_length_a   6.96447000
_cell_length_b   6.99805377
_cell_length_c   7.00546163
_cell_angle_alpha   108.71913778
_cell_angle_beta   112.38710370
_cell_angle_gamma   106.86944069
_symmetry_Int_Tables_number   1
_chemical_formula_structural   In(HO)3
_chemical_formula_sum   'In4 H12 O12'
_cell_volume   263.76388709
_cell_formula_units_Z   4
loop_
 _symmetry_equiv_pos_site_id
 _symmetry_equiv_pos_as_xyz
  1  'x, y, z'
loop_
 _atom_site_type_symbol
 _atom_site_label
 _atom_site_symmetry_multiplicity
 _atom_site_fract_x
 _atom_site_fract_y
 _atom_site_fract_z
 _atom_site_occupancy
  In  In0  1  0.49961600  0.51552600  0.49787200  1
  In  In1  1  0.01207000  0.99735000  0.50217100  1
  In  In2  1  0.99197800  0.49105600  0.01024300  1
  In  In3  1  0.51334800  0.01208100  0.97485200  1
  H  H0  1  0.83782500  0.53389300  0.37405000  1
  H  H1  1  0.30192900  0.32653400  0.01904100  1
  H  H2  1  0.29768900  0.82562200  0.45440900  1
  H  H3  1  0.72310700  0.03326400  0.67052600  1
  H  H4  1  0.54153900  0.37028100  0.81702600  1
  H  H5  1  0.69378000  0.74303600  0.04520600  1
  H  H6  1  0.63969000  0.16200100  0.45792500  1
  H  H7  1  0.35422300  0.02971200  0.30596400  1
  H  H8  1  0.96059800  0.31619200  0.28515100  1
  H  H9  1  0.20452900  0.41715700  0.62292300  1
  H  H10  1  0.23073200  0.60292300  0.83169100  1
  H  H11  1  0.98786500  0.67628500  0.67065400  1
  O  O0  1  0.83394700  0.34073000  0.17839100  1
  O  O1  1  0.51200500  0.82987800  0.66432500  1
  O  O2  1  0.84912100  0.65809700  0.51400900  1
  O  O3  1  0.29653900  0.44793200  0.14725700  1
  O  O4  1  0.16706300  0.82975000  0.32349200  1
  O  O5  1  0.32265300  0.16253600  0.83227500  1
  O  O6  1  0.70374400  0.87409400  0.16738500  1
  O  O7  1  0.83414900  0.16081400  0.66398700  1
  O  O8  1  0.66527500  0.50113000  0.82976200  1
  O  O9  1  0.16875700  0.30707000  0.47255600  1
  O  O10  1  0.49468800  0.15710200  0.32963400  1
  O  O11  1  0.16344300  0.70085300  0.87322200  1
loop_
_geom_bond_atom_site_label_1
_geom_bond_atom_site_label_2
_geom_bond_distance
_geom_bond_site_symmetry_2
In0 O1 2.091229 1_555
In0 O3 2.115869 1_555
In0 O8 2.218460 1_555
In0 O9 2.245185 1_555
In0 O2 2.289465 1_555
In0 O10 2.388183 1_555
In1 O5 2.094175 1_565
In1 O6 2.155448 1_455
In1 O4 2.220214 1_555
In1 O9 2.240533 1_565
In1 O7 2.278017 1_465
In1 O2 2.359137 1_455
In2 O3 2.125579 1_655
In2 O8 2.177060 1_554
In2 O0 2.194661 1_555
In2 O4 2.205942 1_655
In2 O11 2.294147 1_654
In2 O7 2.308595 1_554
In3 O5 2.084749 1_555
In3 O1 2.134338 1_545
In3 O6 2.174112 1_546
In3 O0 2.190360 1_556
In3 O11 2.406602 1_545
In3 O10 2.434686 1_556
H0 O2 1.038058 1_555
H0 O0 1.571024 1_555
H1 O3 1.041314 1_555
H1 O5 1.525126 1_554
H2 O4 1.032622 1_555
H2 O1 1.632610 1_555
H3 O7 1.024451 1_555
H3 O1 1.698938 1_545
H4 O8 1.009991 1_555
H5 O6 0.996261 1_555
H6 O10 1.047623 1_555
H6 O7 1.563046 1_555
H7 O10 1.026955 1_555
H8 O0 1.017206 1_555
H8 O9 1.577050 1_655
H9 O9 0.965932 1_555
H10 O11 0.967576 1_555
H11 O2 1.088751 1_555
H11 O11 1.392193 1_655
