# generated using pymatgen
data_Li3V2P5O18
_symmetry_space_group_name_H-M   'P 1'
_cell_length_a   6.43949600
_cell_length_b   9.33155384
_cell_length_c   10.57703889
_cell_angle_alpha   95.75780362
_cell_angle_beta   93.06072578
_cell_angle_gamma   91.90268262
_symmetry_Int_Tables_number   1
_chemical_formula_structural   Li3V2P5O18
_chemical_formula_sum   'Li6 V4 P10 O36'
_cell_volume   630.99519645
_cell_formula_units_Z   2
loop_
 _symmetry_equiv_pos_site_id
 _symmetry_equiv_pos_as_xyz
  1  'x, y, z'
loop_
 _atom_site_type_symbol
 _atom_site_label
 _atom_site_symmetry_multiplicity
 _atom_site_fract_x
 _atom_site_fract_y
 _atom_site_fract_z
 _atom_site_occupancy
  Li  Li0  1  0.12612000  0.20859400  0.66706600  1
  Li  Li1  1  0.44693800  0.73107400  0.40132800  1
  Li  Li2  1  0.99419900  0.06088000  0.86854200  1
  Li  Li3  1  0.87388000  0.79140600  0.33293400  1
  Li  Li4  1  0.55306200  0.26892600  0.59867200  1
  Li  Li5  1  0.00580100  0.93912000  0.13145800  1
  V  V0  1  0.22737500  0.34564700  0.40937500  1
  V  V1  1  0.66951700  0.22808100  0.04767000  1
  V  V2  1  0.33048300  0.77191900  0.95233000  1
  V  V3  1  0.77262500  0.65435300  0.59062500  1
  P  P0  1  0.82966700  0.72749500  0.89690900  1
  P  P1  1  0.72187200  0.41474500  0.35146000  1
  P  P2  1  0.51509400  0.95548700  0.20237400  1
  P  P3  1  0.77999400  0.99092200  0.60244300  1
  P  P4  1  0.83018600  0.41651900  0.82584500  1
  P  P5  1  0.22000600  0.00907800  0.39755700  1
  P  P6  1  0.17033300  0.27250500  0.10309100  1
  P  P7  1  0.16981400  0.58348100  0.17415500  1
  P  P8  1  0.48490600  0.04451300  0.79762600  1
  P  P9  1  0.27812800  0.58525500  0.64854000  1
  O  O0  1  0.58142000  0.95320800  0.68390900  1
  O  O1  1  0.78193400  0.83661800  0.51976700  1
  O  O2  1  0.90988600  0.56960700  0.90361800  1
  O  O3  1  0.33160500  0.91858000  0.10038500  1
  O  O4  1  0.60972600  0.82540000  0.24963800  1
  O  O5  1  0.66839500  0.08142000  0.89961500  1
  O  O6  1  0.72460400  0.11236000  0.52638400  1
  O  O7  1  0.99438100  0.68243900  0.19035300  1
  O  O8  1  0.06313900  0.64044400  0.59785800  1
  O  O9  1  0.01642900  0.82361800  0.95521200  1
  O  O10  1  0.31344300  0.63545500  0.06897500  1
  O  O11  1  0.26247800  0.42189900  0.59904300  1
  O  O12  1  0.68655700  0.36454500  0.93102500  1
  O  O13  1  0.98357100  0.17638200  0.04478800  1
  O  O14  1  0.27539600  0.88764000  0.47361600  1
  O  O15  1  0.21806600  0.16338200  0.48023300  1
  O  O16  1  0.71881500  0.45303500  0.70113600  1
  O  O17  1  0.02692300  0.98219800  0.31046200  1
  O  O18  1  0.30688100  0.62478200  0.79253600  1
  O  O19  1  0.69311900  0.37521800  0.20746400  1
  O  O20  1  0.09011400  0.43039300  0.09638200  1
  O  O21  1  0.21461100  0.25142400  0.24250800  1
  O  O22  1  0.36441400  0.24025200  0.03046800  1
  O  O23  1  0.78538900  0.74857600  0.75749200  1
  O  O24  1  0.28118500  0.54696500  0.29886400  1
  O  O25  1  0.33458500  0.93297000  0.85023800  1
  O  O26  1  0.66541500  0.06703000  0.14976200  1
  O  O27  1  0.39027400  0.17460000  0.75036200  1
  O  O28  1  0.97307700  0.01780200  0.68953800  1
  O  O29  1  0.46509900  0.64981000  0.58088100  1
  O  O30  1  0.00561900  0.31756100  0.80964700  1
  O  O31  1  0.63558600  0.75974800  0.96953200  1
  O  O32  1  0.73752200  0.57810100  0.40095700  1
  O  O33  1  0.41858000  0.04679200  0.31609100  1
  O  O34  1  0.53490100  0.35019000  0.41911900  1
  O  O35  1  0.93686100  0.35955600  0.40214200  1
loop_
_geom_bond_atom_site_label_1
_geom_bond_atom_site_label_2
_geom_bond_distance
_geom_bond_site_symmetry_2
Li0 O27 1.924101 1_555
Li0 O30 1.944239 1_555
Li0 O28 2.047176 1_455
Li0 O15 2.099510 1_555
Li0 O11 2.342944 1_555
Li1 O14 1.978029 1_555
Li1 O29 2.113430 1_555
Li1 O24 2.155581 1_555
Li1 O4 2.202166 1_555
Li1 O32 2.390853 1_555
Li1 O1 2.552578 1_555
Li2 O28 1.892342 1_555
Li2 O13 2.063211 1_556
Li2 O5 2.152699 1_555
Li2 O9 2.485361 1_645
Li2 O30 2.534397 1_655
Li2 O25 2.537583 1_645
Li3 O4 1.924101 1_555
Li3 O7 1.944239 1_555
Li3 O17 2.047176 1_655
Li3 O1 2.099510 1_555
Li3 O32 2.342944 1_555
Li4 O6 1.978029 1_555
Li4 O34 2.113430 1_555
Li4 O16 2.155581 1_555
Li4 O27 2.202166 1_555
Li4 O11 2.390853 1_555
Li4 O15 2.552578 1_555
Li5 O17 1.892342 1_555
Li5 O9 2.063211 1_554
Li5 O3 2.152699 1_555
Li5 O13 2.485361 1_465
Li5 O7 2.534397 1_455
Li5 O26 2.537583 1_465
O0 P8 1.571072 1_565
O0 P3 1.627904 1_555
O1 P3 1.608685 1_555
O1 V3 1.926620 1_555
O2 P0 1.584365 1_555
O2 P4 1.628275 1_555
O3 P2 1.562286 1_555
O3 V2 1.973188 1_554
O4 P2 1.494389 1_555
O5 P8 1.562286 1_555
O5 V1 1.973188 1_556
O6 P3 1.495888 1_545
O7 P7 1.488791 1_655
O8 P9 1.578828 1_555
O8 V3 1.877575 1_455
O9 P0 1.539289 1_455
O9 V2 2.095707 1_555
O10 P7 1.586396 1_555
O10 V2 1.864461 1_554
O11 P9 1.559477 1_555
O11 V0 2.058256 1_555
O12 P4 1.586396 1_555
O12 V1 1.864461 1_556
O13 P6 1.539289 1_655
O13 V1 2.095707 1_555
O14 P5 1.495888 1_565
O15 P5 1.608685 1_555
O15 V0 1.926620 1_555
O16 P4 1.541343 1_555
O16 V3 2.335839 1_555
O17 P5 1.506018 1_565
O18 P9 1.530571 1_555
O18 V2 2.063483 1_555
O19 P1 1.530571 1_555
O19 V1 2.063483 1_555
O20 P6 1.584365 1_555
O20 P7 1.628275 1_555
O21 P6 1.520371 1_555
O21 V0 1.887657 1_555
O22 P6 1.524364 1_555
O22 V1 1.971516 1_555
O23 P0 1.520371 1_555
O23 V3 1.887657 1_555
O24 P7 1.541343 1_555
O24 V0 2.335839 1_555
O25 P8 1.561065 1_565
O25 V2 1.936836 1_555
O26 P2 1.561065 1_545
O26 V1 1.936836 1_555
O27 P8 1.494389 1_555
O28 P3 1.506018 1_545
O29 P9 1.566836 1_555
O29 V3 1.976312 1_555
O30 P4 1.488791 1_455
O31 P0 1.524364 1_555
O31 V2 1.971516 1_555
O32 P1 1.559477 1_555
O32 V3 2.058256 1_555
O33 P2 1.571072 1_545
O33 P5 1.627904 1_555
O34 P1 1.566836 1_555
O34 V0 1.976312 1_555
O35 P1 1.578828 1_555
O35 V0 1.877575 1_655
