# generated using pymatgen
data_K2S5
_symmetry_space_group_name_H-M   'P 1'
_cell_length_a   6.81682900
_cell_length_b   8.73230700
_cell_length_c   14.52978100
_cell_angle_alpha   90.00000000
_cell_angle_beta   90.00000000
_cell_angle_gamma   90.00000000
_symmetry_Int_Tables_number   1
_chemical_formula_structural   K2S5
_chemical_formula_sum   'K8 S20'
_cell_volume   864.90909509
_cell_formula_units_Z   4
loop_
 _symmetry_equiv_pos_site_id
 _symmetry_equiv_pos_as_xyz
  1  'x, y, z'
loop_
 _atom_site_type_symbol
 _atom_site_label
 _atom_site_symmetry_multiplicity
 _atom_site_fract_x
 _atom_site_fract_y
 _atom_site_fract_z
 _atom_site_occupancy
  K  K0  1  0.87344000  0.66659800  0.89317700  1
  K  K1  1  0.05186900  0.96851700  0.30603900  1
  K  K2  1  0.44813100  0.03148300  0.80603900  1
  K  K3  1  0.62656000  0.33340200  0.39317700  1
  K  K4  1  0.94813100  0.46851700  0.19396100  1
  K  K5  1  0.37344000  0.83340200  0.10682300  1
  K  K6  1  0.12656000  0.16659800  0.60682300  1
  K  K7  1  0.55186900  0.53148300  0.69396100  1
  S  S0  1  0.88391300  0.64457400  0.39700900  1
  S  S1  1  0.14516900  0.55116600  0.42958000  1
  S  S2  1  0.61608700  0.35542600  0.89700900  1
  S  S3  1  0.11608700  0.14457400  0.10299100  1
  S  S4  1  0.91516400  0.98372700  0.78044500  1
  S  S5  1  0.15167700  0.32772000  0.39195800  1
  S  S6  1  0.38391300  0.85542600  0.60299100  1
  S  S7  1  0.35483100  0.44883400  0.92958000  1
  S  S8  1  0.12117300  0.33573200  0.82465700  1
  S  S9  1  0.65167700  0.17228000  0.60804200  1
  S  S10  1  0.62117300  0.16426800  0.17534300  1
  S  S11  1  0.08483600  0.48372700  0.71955500  1
  S  S12  1  0.41516400  0.51627300  0.21955500  1
  S  S13  1  0.37882700  0.66426800  0.32465700  1
  S  S14  1  0.58483600  0.01627300  0.28044500  1
  S  S15  1  0.34832300  0.67228000  0.89195800  1
  S  S16  1  0.64516900  0.94883400  0.57042000  1
  S  S17  1  0.87882700  0.83573200  0.67534300  1
  S  S18  1  0.84832300  0.82772000  0.10804200  1
  S  S19  1  0.85483100  0.05116600  0.07042000  1
loop_
_geom_bond_atom_site_label_1
_geom_bond_atom_site_label_2
_geom_bond_distance
_geom_bond_site_symmetry_2
K0 S4 3.229968 1_555
K0 S2 3.234845 1_555
K0 S15 3.237625 1_655
K0 S11 3.315212 1_655
K0 S18 3.428613 1_556
K0 S8 3.491516 1_655
K0 S17 3.492908 1_555
K0 S15 3.580020 1_555
K1 S14 3.232343 1_465
K1 S0 3.325640 1_455
K1 S3 3.355461 1_565
K1 S18 3.422451 1_455
K1 S5 3.443846 1_565
K1 S13 3.478414 1_555
K1 S14 3.675859 1_565
K2 S4 3.232343 1_545
K2 S2 3.325640 1_555
K2 S6 3.355461 1_545
K2 S9 3.422451 1_555
K2 S15 3.443846 1_545
K2 S8 3.478414 1_555
K2 S4 3.675859 1_445
K3 S14 3.229968 1_555
K3 S0 3.234845 1_555
K3 S5 3.237625 1_555
K3 S12 3.315212 1_555
K3 S9 3.428613 1_555
K3 S13 3.491516 1_555
K3 S10 3.492908 1_555
K3 S5 3.580020 1_655
K4 S12 3.232343 1_655
K4 S3 3.325640 1_655
K4 S0 3.355461 1_555
K4 S5 3.422451 1_655
K4 S18 3.443846 1_555
K4 S10 3.478414 1_555
K4 S12 3.675859 1_555
K5 S12 3.229968 1_555
K5 S3 3.234845 1_565
K5 S18 3.237625 1_555
K5 S14 3.315212 1_565
K5 S15 3.428613 1_554
K5 S10 3.491516 1_565
K5 S13 3.492908 1_555
K5 S18 3.580020 1_455
K6 S11 3.229968 1_555
K6 S6 3.234845 1_545
K6 S9 3.237625 1_455
K6 S4 3.315212 1_445
K6 S5 3.428613 1_555
K6 S17 3.491516 1_445
K6 S8 3.492908 1_555
K6 S9 3.580020 1_555
K7 S11 3.232343 1_555
K7 S6 3.325640 1_555
K7 S2 3.355461 1_555
K7 S15 3.422451 1_555
K7 S9 3.443846 1_555
K7 S17 3.478414 1_555
K7 S11 3.675859 1_655
S0 S1 2.015196 1_655
S1 S5 2.026810 1_555
S1 S13 2.415904 1_555
S2 S7 2.015196 1_555
S7 S8 2.415904 1_555
S10 S14 2.015826 1_555
S10 S19 2.415904 1_555
S11 S8 2.015826 1_555
S12 S13 2.015826 1_555
S15 S7 2.026810 1_555
S16 S6 2.015196 1_555
S16 S9 2.026810 1_565
S16 S17 2.415904 1_555
S17 S4 2.015826 1_555
S18 S19 2.026810 1_565
S19 S3 2.015196 1_655
