# generated using pymatgen
data_LiSbP2O7
_symmetry_space_group_name_H-M   'P 1'
_cell_length_a   5.13875500
_cell_length_b   9.02909000
_cell_length_c   14.24903837
_cell_angle_alpha   64.16641205
_cell_angle_beta   90.00000000
_cell_angle_gamma   90.00000000
_symmetry_Int_Tables_number   1
_chemical_formula_structural   LiSbP2O7
_chemical_formula_sum   'Li4 Sb4 P8 O28'
_cell_volume   595.05976827
_cell_formula_units_Z   4
loop_
 _symmetry_equiv_pos_site_id
 _symmetry_equiv_pos_as_xyz
  1  'x, y, z'
loop_
 _atom_site_type_symbol
 _atom_site_label
 _atom_site_symmetry_multiplicity
 _atom_site_fract_x
 _atom_site_fract_y
 _atom_site_fract_z
 _atom_site_occupancy
  Li  Li0  1  0.72623800  0.57703600  0.29439200  1
  Li  Li1  1  0.27376200  0.42296400  0.70560800  1
  Li  Li2  1  0.22623800  0.42296400  0.20560800  1
  Li  Li3  1  0.77376200  0.57703600  0.79439200  1
  Sb  Sb0  1  0.77745300  0.73344000  0.02903500  1
  Sb  Sb1  1  0.27745300  0.26656000  0.47096500  1
  Sb  Sb2  1  0.22254700  0.26656000  0.97096500  1
  Sb  Sb3  1  0.72254700  0.73344000  0.52903500  1
  P  P0  1  0.75337600  0.19739000  0.34099200  1
  P  P1  1  0.78439700  0.32209700  0.61732500  1
  P  P2  1  0.28439700  0.67790300  0.88267500  1
  P  P3  1  0.25337600  0.80261000  0.15900800  1
  P  P4  1  0.21560300  0.67790300  0.38267500  1
  P  P5  1  0.74662400  0.19739000  0.84099200  1
  P  P6  1  0.24662400  0.80261000  0.65900800  1
  P  P7  1  0.71560300  0.32209700  0.11732500  1
  O  O0  1  0.42214200  0.35019100  0.10674900  1
  O  O1  1  0.22361000  0.82248500  0.76709700  1
  O  O2  1  0.27639000  0.82248500  0.26709700  1
  O  O3  1  0.98129500  0.72009100  0.16531600  1
  O  O4  1  0.96424700  0.32419100  0.33464000  1
  O  O5  1  0.72650500  0.02976000  0.92948100  1
  O  O6  1  0.53575300  0.32419100  0.83464000  1
  O  O7  1  0.86404000  0.47348400  0.11554400  1
  O  O8  1  0.16993100  0.73809800  0.95910400  1
  O  O9  1  0.03575300  0.67580900  0.66536000  1
  O  O10  1  0.01870500  0.27990900  0.83468400  1
  O  O11  1  0.36404000  0.52651600  0.38445600  1
  O  O12  1  0.22650500  0.97024000  0.57051900  1
  O  O13  1  0.33006900  0.73809800  0.45910400  1
  O  O14  1  0.48129500  0.27990900  0.33468400  1
  O  O15  1  0.63596000  0.47348400  0.61554400  1
  O  O16  1  0.92214200  0.64980900  0.39325100  1
  O  O17  1  0.77349500  0.02976000  0.42948100  1
  O  O18  1  0.83006900  0.26190200  0.04089600  1
  O  O19  1  0.51870500  0.72009100  0.66531600  1
  O  O20  1  0.46424700  0.67580900  0.16536000  1
  O  O21  1  0.66993100  0.26190200  0.54089600  1
  O  O22  1  0.27349500  0.97024000  0.07051900  1
  O  O23  1  0.57785800  0.64980900  0.89325100  1
  O  O24  1  0.77639000  0.17751500  0.23290300  1
  O  O25  1  0.72361000  0.17751500  0.73290300  1
  O  O26  1  0.07785800  0.35019100  0.60674900  1
  O  O27  1  0.13596000  0.52651600  0.88445600  1
loop_
_geom_bond_atom_site_label_1
_geom_bond_atom_site_label_2
_geom_bond_distance
_geom_bond_site_symmetry_2
Li0 O16 2.058189 1_555
Li0 O20 2.135242 1_555
Li0 O3 2.167611 1_555
Li0 O11 2.192957 1_555
Li0 O4 2.428097 1_555
Li1 O26 2.058189 1_555
Li1 O6 2.135242 1_555
Li1 O10 2.167611 1_555
Li1 O15 2.192957 1_555
Li1 O9 2.428097 1_555
Li2 O0 2.058189 1_555
Li2 O4 2.135242 1_455
Li2 O14 2.167611 1_555
Li2 O7 2.192957 1_455
Li2 O20 2.428097 1_555
Li3 O23 2.058189 1_555
Li3 O9 2.135242 1_655
Li3 O19 2.167611 1_555
Li3 O27 2.192957 1_655
Li3 O6 2.428097 1_555
O0 P7 1.525738 1_555
O0 Sb2 2.576603 1_554
O1 P2 1.624893 1_555
O1 P6 1.630697 1_555
O2 P4 1.624893 1_555
O2 P3 1.630697 1_555
O3 P3 1.568340 1_655
O3 Sb0 2.163021 1_555
O4 P0 1.550127 1_555
O4 Sb1 2.398668 1_655
O5 P5 1.492692 1_555
O5 Sb0 2.435453 1_546
O6 P5 1.550127 1_555
O6 Sb2 2.398668 1_555
O7 P7 1.555837 1_555
O7 Sb0 2.169124 1_555
O8 P2 1.530768 1_555
O8 Sb0 2.241837 1_456
O9 P6 1.550127 1_555
O9 Sb3 2.398668 1_455
O10 P5 1.568340 1_455
O10 Sb2 2.163021 1_555
O11 P4 1.555837 1_555
O11 Sb1 2.169124 1_555
O12 P6 1.492692 1_555
O12 Sb1 2.435453 1_565
O13 P4 1.530768 1_555
O13 Sb3 2.241837 1_555
O14 P0 1.568340 1_555
O14 Sb1 2.163021 1_555
O15 P1 1.555837 1_555
O15 Sb3 2.169124 1_555
O16 P4 1.525738 1_655
O16 Sb3 2.576603 1_555
O17 P0 1.492692 1_555
O17 Sb3 2.435453 1_545
O18 P7 1.530768 1_555
O18 Sb2 2.241837 1_654
O19 P6 1.568340 1_555
O19 Sb3 2.163021 1_555
O20 P3 1.550127 1_555
O20 Sb0 2.398668 1_555
O21 P1 1.530768 1_555
O21 Sb1 2.241837 1_555
O22 P3 1.492692 1_555
O22 Sb2 2.435453 1_564
O23 P2 1.525738 1_555
O23 Sb0 2.576603 1_556
O24 P7 1.624893 1_555
O24 P0 1.630697 1_555
O25 P1 1.624893 1_555
O25 P5 1.630697 1_555
O26 P1 1.525738 1_455
O26 Sb1 2.576603 1_555
O27 P2 1.555837 1_555
O27 Sb2 2.169124 1_555
