# generated using pymatgen
data_Rb2EuGa(SiO3)4
_symmetry_space_group_name_H-M   'P 1'
_cell_length_a   7.45135737
_cell_length_b   14.24116351
_cell_length_c   14.23219174
_cell_angle_alpha   64.33002185
_cell_angle_beta   74.89170939
_cell_angle_gamma   74.94480647
_symmetry_Int_Tables_number   1
_chemical_formula_structural   Rb2EuGa(SiO3)4
_chemical_formula_sum   'Rb8 Eu4 Ga4 Si16 O48'
_cell_volume   1295.30882263
_cell_formula_units_Z   4
loop_
 _symmetry_equiv_pos_site_id
 _symmetry_equiv_pos_as_xyz
  1  'x, y, z'
loop_
 _atom_site_type_symbol
 _atom_site_label
 _atom_site_symmetry_multiplicity
 _atom_site_fract_x
 _atom_site_fract_y
 _atom_site_fract_z
 _atom_site_occupancy
  Eu  Eu0  1  0.55130308  0.21417907  0.75009828  1
  Eu  Eu1  1  0.98588879  0.71241720  0.24935937  1
  Eu  Eu2  1  0.44719178  0.78602994  0.25042872  1
  Eu  Eu3  1  0.01481188  0.28703726  0.74944354  1
  Rb  Rb0  1  0.80861856  0.41609041  0.46684429  1
  Rb  Rb1  1  0.80622286  0.91792755  0.96735140  1
  Rb  Rb2  1  0.72560785  0.11526391  0.45197180  1
  Rb  Rb3  1  0.19675177  0.08280097  0.03470661  1
  Rb  Rb4  1  0.18812913  0.58260664  0.53496533  1
  Rb  Rb5  1  0.19837912  0.61745353  0.95552233  1
  Rb  Rb6  1  0.27025218  0.88334933  0.54460187  1
  Rb  Rb7  1  0.80034356  0.38233744  0.04478911  1
  Ga  Ga0  1  0.87384068  0.58763187  0.77253428  1
  Ga  Ga1  1  0.73273504  0.91275862  0.72773163  1
  Ga  Ga2  1  0.26744908  0.08692546  0.27235154  1
  Ga  Ga3  1  0.12592030  0.41188251  0.22797756  1
  Si  Si0  1  0.67039589  0.70027254  0.92242746  1
  Si  Si1  1  0.20760199  0.20054344  0.42239815  1
  Si  Si2  1  0.64037253  0.67435266  0.49238031  1
  Si  Si3  1  0.69369026  0.17255323  0.99372773  1
  Si  Si4  1  0.36006000  0.52830300  0.29439836  1
  Si  Si5  1  0.31733424  0.02895672  0.79448061  1
  Si  Si6  1  0.68218718  0.97096338  0.20587485  1
  Si  Si7  1  0.35881527  0.32727310  0.50568543  1
  Si  Si8  1  0.33131262  0.29937423  0.07677261  1
  Si  Si9  1  0.79372893  0.79922879  0.57697910  1
  Si  Si10  1  0.26040784  0.42546075  0.83873451  1
  Si  Si11  1  0.63940073  0.47269539  0.70477666  1
  Si  Si12  1  0.02440435  0.07596430  0.66124035  1
  Si  Si13  1  0.73786644  0.57385387  0.16139941  1
  Si  Si14  1  0.97439911  0.92432328  0.33874811  1
  Si  Si15  1  0.30795675  0.82670076  0.00511475  1
  O  O0  1  0.52889337  0.27161586  0.57400081  1
  O  O1  1  0.94093993  0.97694511  0.67003475  1
  O  O2  1  0.73575766  0.64455435  0.22506213  1
  O  O3  1  0.24205757  0.35481256  0.96755705  1
  O  O4  1  0.64085108  0.75020973  0.55439111  1
  O  O5  1  0.29827971  0.64457098  0.29837468  1
  O  O6  1  0.67154440  0.88762244  0.62391236  1
  O  O7  1  0.93685899  0.85413573  0.46762866  1
  O  O8  1  0.05719908  0.02405650  0.32964428  1
  O  O9  1  0.41684849  0.44045063  0.40921654  1
  O  O10  1  0.45666560  0.47687883  0.79819285  1
  O  O11  1  0.06885213  0.29269285  0.34445602  1
  O  O12  1  0.45034933  0.99061492  0.22897811  1
  O  O13  1  0.57850721  0.14762622  0.92709431  1
  O  O14  1  0.25951383  0.14458755  0.79972841  1
  O  O15  1  0.33110456  0.11243651  0.37512880  1
  O  O16  1  0.23500974  0.94044017  0.90917034  1
  O  O17  1  0.89299029  0.14773684  0.72393965  1
  O  O18  1  0.36086489  0.25175912  0.44242416  1
  O  O19  1  0.68157303  0.61141161  0.87631293  1
  O  O20  1  0.76440443  0.97422032  0.30114952  1
  O  O21  1  0.79448048  0.79253969  0.84327788  1
  O  O22  1  0.75637448  0.64474345  0.03260111  1
  O  O23  1  0.06637270  0.14516321  0.53227891  1
  O  O24  1  0.08815730  0.52499973  0.83131893  1
  O  O25  1  0.21039112  0.20584790  0.15550881  1
  O  O26  1  0.58555856  0.56115924  0.58953626  1
  O  O27  1  0.87776909  0.22675105  0.92665617  1
  O  O28  1  0.82745319  0.49023409  0.73105099  1
  O  O29  1  0.31694877  0.38720014  0.12456986  1
  O  O30  1  0.93242461  0.70603097  0.65442320  1
  O  O31  1  0.23172804  0.02513914  0.70115086  1
  O  O32  1  0.10518096  0.85373349  0.27476944  1
  O  O33  1  0.70297087  0.35692914  0.69938481  1
  O  O34  1  0.76594624  0.05970312  0.09146308  1
  O  O35  1  0.17196009  0.50807997  0.27103813  1
  O  O36  1  0.46734890  0.72888813  0.42635639  1
  O  O37  1  0.54857733  0.00940457  0.76900641  1
  O  O38  1  0.42126386  0.85090762  0.07293848  1
  O  O39  1  0.91063657  0.47462816  0.17031609  1
  O  O40  1  0.15152684  0.35123834  0.57128214  1
  O  O41  1  0.54082269  0.52359461  0.20033290  1
  O  O42  1  0.44698208  0.75136099  0.94282123  1
  O  O43  1  0.12666849  0.76908958  0.07177085  1
  O  O44  1  0.84639385  0.65092181  0.42516180  1
  O  O45  1  0.55574576  0.25098454  0.05305856  1
  O  O46  1  0.26129637  0.35476215  0.77516920  1
  O  O47  1  0.74166263  0.85534519  0.20034997  1
loop_
_geom_bond_atom_site_label_1
_geom_bond_atom_site_label_2
_geom_bond_distance
_geom_bond_site_symmetry_2
Eu0 O0 2.312870 1_555
Eu0 O13 2.320098 1_555
Eu0 O33 2.329814 1_555
Eu0 O14 2.433258 1_555
Eu0 O17 2.464908 1_555
Eu0 O46 2.602824 1_555
Eu0 O37 2.815178 1_555
Eu1 O44 2.307904 1_555
Eu1 O43 2.330307 1_655
Eu1 O47 2.334245 1_555
Eu1 O5 2.435710 1_655
Eu1 O2 2.467527 1_555
Eu1 O32 2.588156 1_655
Eu1 O35 2.799064 1_655
Eu2 O36 2.306783 1_555
Eu2 O5 2.308849 1_555
Eu2 O38 2.326297 1_555
Eu2 O47 2.448959 1_555
Eu2 O32 2.469189 1_555
Eu2 O2 2.605381 1_555
Eu2 O12 2.800653 1_555
Eu3 O27 2.319017 1_455
Eu3 O40 2.330650 1_555
Eu3 O14 2.335175 1_555
Eu3 O33 2.438172 1_455
Eu3 O46 2.452400 1_555
Eu3 O17 2.573384 1_455
Eu3 O28 2.797660 1_455
Ga0 O24 1.831874 1_655
Ga0 O30 1.844873 1_555
Ga0 O19 1.851202 1_555
Ga0 O28 1.859276 1_555
Ga1 O1 1.827304 1_555
Ga1 O21 1.842038 1_555
Ga1 O6 1.847565 1_555
Ga1 O37 1.849737 1_565
Ga2 O8 1.830612 1_555
Ga2 O25 1.835443 1_555
Ga2 O15 1.846133 1_555
Ga2 O12 1.855681 1_545
Ga3 O39 1.830715 1_455
Ga3 O11 1.838411 1_555
Ga3 O29 1.847124 1_555
Ga3 O35 1.857743 1_555
O0 Si7 1.622489 1_555
O0 Rb0 2.959025 1_555
O0 Rb2 3.232719 1_555
O1 Si12 1.628829 1_665
O1 Rb6 3.010592 1_655
O1 Rb2 3.426937 1_565
O2 Si13 1.615451 1_555
O3 Si8 1.638486 1_556
O3 Si10 1.653800 1_555
O3 Rb7 3.164188 1_456
O4 Si9 1.639141 1_555
O4 Si2 1.666011 1_555
O4 Rb6 2.914069 1_555
O5 Si4 1.621230 1_555
O5 Rb4 3.025177 1_555
O6 Si9 1.635790 1_555
O6 Rb2 3.154647 1_565
O7 Si9 1.638480 1_555
O7 Si14 1.652629 1_555
O7 Rb6 3.145641 1_655
O8 Si14 1.633668 1_445
O8 Rb2 2.978693 1_455
O9 Si4 1.651920 1_555
O9 Si7 1.674882 1_555
O9 Rb0 3.128952 1_555
O9 Rb4 3.156356 1_555
O10 Si11 1.645594 1_555
O10 Si10 1.660748 1_555
O11 Si1 1.628921 1_555
O11 Rb0 3.000555 1_455
O12 Si6 1.644135 1_555
O12 Rb3 3.350970 1_565
O13 Si3 1.623647 1_555
O13 Rb3 3.026197 1_556
O13 Rb1 3.147618 1_545
O14 Si5 1.619905 1_555
O14 Rb3 3.004338 1_556
O15 Si1 1.637861 1_555
O15 Rb6 3.169829 1_545
O15 Rb2 3.407983 1_555
O16 Si5 1.651301 1_565
O16 Si15 1.672424 1_556
O16 Rb1 3.149565 1_455
O16 Rb3 3.155337 1_566
O17 Si12 1.616984 1_655
O18 Si1 1.643141 1_555
O18 Si7 1.670483 1_555
O18 Rb2 2.898750 1_555
O19 Si0 1.635680 1_555
O19 Rb7 3.162979 1_556
O20 Si6 1.648758 1_555
O20 Si14 1.664070 1_555
O20 Rb2 3.440356 1_565
O21 Si0 1.629791 1_555
O21 Rb1 3.034471 1_555
O22 Si0 1.637269 1_554
O22 Si13 1.653979 1_555
O22 Rb5 3.165882 1_654
O23 Si1 1.637003 1_555
O23 Si12 1.652727 1_555
O23 Rb2 3.229724 1_455
O24 Si10 1.632106 1_555
O24 Rb5 2.977888 1_555
O25 Si8 1.626534 1_555
O25 Rb3 2.971648 1_555
O26 Si11 1.651788 1_555
O26 Si2 1.671484 1_555
O26 Rb0 3.147776 1_555
O26 Rb4 3.160676 1_555
O27 Si3 1.617856 1_555
O27 Rb3 2.976513 1_656
O27 Rb7 3.182266 1_556
O28 Si11 1.643653 1_555
O28 Rb4 3.389361 1_655
O29 Si8 1.633464 1_555
O29 Rb5 3.176384 1_554
O30 Si9 1.630427 1_555
O30 Rb4 2.961578 1_655
O31 Si5 1.642090 1_555
O31 Si12 1.659344 1_555
O32 Si14 1.615834 1_455
O33 Si11 1.622733 1_555
O33 Rb0 2.975465 1_555
O34 Si6 1.653846 1_545
O34 Si3 1.676807 1_554
O34 Rb1 3.128169 1_544
O34 Rb3 3.167332 1_655
O35 Si4 1.641198 1_555
O35 Rb0 3.399814 1_455
O36 Si2 1.620934 1_555
O36 Rb4 2.973756 1_555
O36 Rb6 3.173053 1_555
O37 Si5 1.640283 1_555
O37 Rb1 3.419239 1_545
O38 Si15 1.621042 1_555
O38 Rb1 3.054488 1_554
O38 Rb3 3.169922 1_565
O39 Si13 1.629416 1_555
O39 Rb7 2.992550 1_555
O40 Si7 1.619965 1_555
O40 Rb0 3.025811 1_455
O40 Rb4 3.180588 1_555
O41 Si4 1.643728 1_555
O41 Si13 1.659308 1_555
O42 Si0 1.639144 1_555
O42 Si15 1.666815 1_556
O42 Rb5 2.909085 1_555
O43 Si15 1.622124 1_555
O43 Rb1 2.982309 1_454
O43 Rb5 3.117884 1_554
O44 Si2 1.621137 1_555
O44 Rb4 3.056631 1_655
O44 Rb0 3.209122 1_555
O45 Si8 1.641365 1_555
O45 Si3 1.668948 1_554
O45 Rb7 2.881577 1_555
O46 Si10 1.617016 1_555
O47 Si6 1.621294 1_555
O47 Rb1 2.975359 1_554
