# generated using pymatgen
data_Ca2AlH10IO8
_symmetry_space_group_name_H-M   'P 1'
_cell_length_a   5.81008000
_cell_length_b   5.82121797
_cell_length_c   9.82319997
_cell_angle_alpha   91.64019717
_cell_angle_beta   104.93881361
_cell_angle_gamma   119.37279067
_symmetry_Int_Tables_number   1
_chemical_formula_structural   Ca2AlH10IO8
_chemical_formula_sum   'Ca2 Al1 H10 I1 O8'
_cell_volume   274.95712791
_cell_formula_units_Z   1
loop_
 _symmetry_equiv_pos_site_id
 _symmetry_equiv_pos_as_xyz
  1  'x, y, z'
loop_
 _atom_site_type_symbol
 _atom_site_label
 _atom_site_symmetry_multiplicity
 _atom_site_fract_x
 _atom_site_fract_y
 _atom_site_fract_z
 _atom_site_occupancy
  Ca  Ca0  1  0.63861900  0.32050900  0.94036200  1
  Ca  Ca1  1  0.37256300  0.69084600  0.05821700  1
  Al  Al0  1  0.00626000  0.00475000  0.00062100  1
  H  H0  1  0.32612100  0.10170600  0.62104700  1
  H  H1  1  0.62028900  0.33791000  0.62518400  1
  H  H2  1  0.44562400  0.18965900  0.20649600  1
  H  H3  1  0.00210800  0.28263900  0.20343900  1
  H  H4  1  0.90580000  0.73583000  0.20616700  1
  H  H5  1  0.09475700  0.27322100  0.79674700  1
  H  H6  1  0.99330900  0.71729600  0.79488100  1
  H  H7  1  0.56193100  0.81750500  0.79429600  1
  H  H8  1  0.53015700  0.66424300  0.37704700  1
  H  H9  1  0.65855500  0.97099800  0.37202000  1
  I  I0  1  0.95700800  0.53210800  0.49835500  1
  O  O0  1  0.49257100  0.26040400  0.68343900  1
  O  O1  1  0.37909400  0.09890200  0.10772300  1
  O  O2  1  0.01895000  0.29366800  0.10798900  1
  O  O3  1  0.81901300  0.73527800  0.10729000  1
  O  O4  1  0.19106300  0.27507000  0.89399000  1
  O  O5  1  0.99810300  0.71677200  0.89447400  1
  O  O6  1  0.63579000  0.91409700  0.89238400  1
  O  O7  1  0.51241400  0.78998900  0.31793000  1
loop_
_geom_bond_atom_site_label_1
_geom_bond_atom_site_label_2
_geom_bond_distance
_geom_bond_site_symmetry_2
Ca0 O5 2.388565 1_555
Ca0 O6 2.390291 1_545
Ca0 O4 2.397265 1_555
Ca0 O0 2.401273 1_555
Ca0 O3 2.453929 1_556
Ca0 O2 2.469060 1_656
Ca0 O1 2.476272 1_556
Ca1 O1 2.390882 1_565
Ca1 O3 2.391167 1_555
Ca1 O2 2.393428 1_555
Ca1 O5 2.423874 1_454
Ca1 O7 2.426707 1_555
Ca1 O4 2.442979 1_554
Ca1 O6 2.477400 1_554
Al0 O2 1.919160 1_555
Al0 O5 1.922565 1_444
Al0 O6 1.927618 1_444
Al0 O1 1.930543 1_555
Al0 O4 1.934679 1_554
Al0 O3 1.936469 1_445
H0 O0 0.974631 1_555
H1 O0 0.993457 1_555
H1 I0 2.413552 1_555
H2 O1 0.973092 1_555
H3 O2 0.968206 1_555
H4 O3 0.971284 1_555
H5 O4 0.971398 1_555
H6 O5 0.971650 1_555
H7 O6 0.973561 1_555
H8 O7 0.975280 1_555
H9 O7 0.985508 1_555
