# generated using pymatgen
data_AgSbO3
_symmetry_space_group_name_H-M   'P 1'
_cell_length_a   8.10239700
_cell_length_b   8.34807440
_cell_length_c   13.44267748
_cell_angle_alpha   90.76401145
_cell_angle_beta   90.34159842
_cell_angle_gamma   109.32234310
_symmetry_Int_Tables_number   1
_chemical_formula_structural   AgSbO3
_chemical_formula_sum   'Ag12 Sb12 O36'
_cell_volume   857.91016503
_cell_formula_units_Z   12
loop_
 _symmetry_equiv_pos_site_id
 _symmetry_equiv_pos_as_xyz
  1  'x, y, z'
loop_
 _atom_site_type_symbol
 _atom_site_label
 _atom_site_symmetry_multiplicity
 _atom_site_fract_x
 _atom_site_fract_y
 _atom_site_fract_z
 _atom_site_occupancy
  Ag  Ag0  1  0.15890800  0.49360300  0.49931400  1
  Ag  Ag1  1  0.55272400  0.55193800  0.35500300  1
  Ag  Ag2  1  0.95588100  0.04339000  0.07410600  1
  Ag  Ag3  1  0.84362300  0.84471600  0.84158400  1
  Ag  Ag4  1  0.79719100  0.78338400  0.20954600  1
  Ag  Ag5  1  0.32430500  0.02254600  0.99730300  1
  Ag  Ag6  1  0.52373300  0.75023000  0.53941600  1
  Ag  Ag7  1  0.30479500  0.30298200  0.70143200  1
  Ag  Ag8  1  0.62869900  0.46575000  0.55686100  1
  Ag  Ag9  1  0.00805100  0.36754500  0.98948700  1
  Ag  Ag10  1  0.49272200  0.10345800  0.49375800  1
  Ag  Ag11  1  0.99924200  0.72175500  0.01660900  1
  Sb  Sb0  1  0.66210000  0.31929900  0.16319700  1
  Sb  Sb1  1  0.09114300  0.57589300  0.24876000  1
  Sb  Sb2  1  0.16092700  0.82761400  0.66784000  1
  Sb  Sb3  1  0.42263600  0.58270100  0.07828200  1
  Sb  Sb4  1  0.06711600  0.90464200  0.41647400  1
  Sb  Sb5  1  0.58772700  0.09061600  0.75365300  1
  Sb  Sb6  1  0.41047400  0.91011700  0.24845500  1
  Sb  Sb7  1  0.91383100  0.07460800  0.57983600  1
  Sb  Sb8  1  0.58647400  0.42446800  0.91614500  1
  Sb  Sb9  1  0.83450400  0.17300100  0.33088800  1
  Sb  Sb10  1  0.91803100  0.41635400  0.74802000  1
  Sb  Sb11  1  0.34227800  0.67749900  0.82920500  1
  O  O0  1  0.05259900  0.37839000  0.33668200  1
  O  O1  1  0.69243700  0.30741800  0.01730700  1
  O  O2  1  0.67770700  0.31863400  0.31366400  1
  O  O3  1  0.87861100  0.53473800  0.16222900  1
  O  O4  1  0.52442400  0.47322900  0.18471400  1
  O  O5  1  0.55786300  0.88550900  0.83423500  1
  O  O6  1  0.96705100  0.68240000  0.34790400  1
  O  O7  1  0.18685600  0.47388100  0.13594400  1
  O  O8  1  0.17859000  0.79744800  0.52108800  1
  O  O9  1  0.17844300  0.80509200  0.17793200  1
  O  O10  1  0.18547600  0.82156300  0.81839100  1
  O  O11  1  0.83929700  0.85329800  0.49800700  1
  O  O12  1  0.32692200  0.67658300  0.31761500  1
  O  O13  1  0.30247800  0.00782200  0.35699900  1
  O  O14  1  0.37487600  0.04532300  0.66496000  1
  O  O15  1  0.53201900  0.80300300  0.14862200  1
  O  O16  1  0.00949700  0.96806900  0.69131500  1
  O  O17  1  0.96910900  0.01480400  0.30902900  1
  O  O18  1  0.46878700  0.19438800  0.85370900  1
  O  O19  1  0.62002800  0.96327400  0.33351800  1
  O  O20  1  0.68129400  0.98639600  0.64121500  1
  O  O21  1  0.67676600  0.32111100  0.68388200  1
  O  O22  1  0.13129200  0.11776600  0.50123600  1
  O  O23  1  0.82603600  0.18157600  0.17888800  1
  O  O24  1  0.36461400  0.36982600  0.99437600  1
  O  O25  1  0.82462200  0.19106400  0.81832000  1
  O  O26  1  0.80961000  0.19233000  0.47736400  1
  O  O27  1  0.82502900  0.52960800  0.85969000  1
  O  O28  1  0.02819500  0.30771400  0.64089900  1
  O  O29  1  0.45088300  0.10734700  0.15752300  1
  O  O30  1  0.49076500  0.53306300  0.80643600  1
  O  O31  1  0.13481800  0.46026700  0.82887500  1
  O  O32  1  0.65048400  0.64091800  0.99951200  1
  O  O33  1  0.32413600  0.68767600  0.67634500  1
  O  O34  1  0.31436100  0.69730700  0.97629300  1
  O  O35  1  0.95091600  0.61505600  0.66410700  1
loop_
_geom_bond_atom_site_label_1
_geom_bond_atom_site_label_2
_geom_bond_distance
_geom_bond_site_symmetry_2
Ag0 O0 2.412415 1_555
Ag0 O28 2.483438 1_555
Ag0 O8 2.501400 1_555
Ag1 O4 2.361864 1_555
Ag1 O12 2.438307 1_555
Ag1 O2 2.531924 1_555
Ag2 O23 2.280149 1_555
Ag3 O5 2.450813 1_555
Ag3 O16 2.473688 1_655
Ag3 O27 2.599414 1_555
Ag4 O15 2.351424 1_555
Ag4 O17 2.364117 1_565
Ag4 O3 2.454456 1_555
Ag4 O6 2.615940 1_555
Ag5 O29 2.375776 1_556
Ag5 O18 2.478673 1_555
Ag5 O34 2.700490 1_545
Ag6 O20 2.372969 1_555
Ag6 O33 2.403848 1_555
Ag6 O11 2.482223 1_555
Ag7 O28 2.392497 1_555
Ag7 O30 2.437043 1_555
Ag7 O14 2.443945 1_555
Ag7 O18 2.755322 1_555
Ag8 O21 2.209852 1_555
Ag9 O7 2.414803 1_556
Ag9 O31 2.420852 1_555
Ag9 O1 2.469455 1_456
Ag10 O13 2.346451 1_555
Ag10 O26 2.437589 1_555
Ag10 O14 2.488589 1_555
Ag11 O3 2.513792 1_555
Ag11 O9 2.559066 1_655
Ag11 O34 2.685645 1_654
Ag11 O32 2.686896 1_554
Ag11 O27 2.718633 1_554
O0 Sb1 1.982044 1_555
O0 Sb9 2.014519 1_455
O1 Sb0 1.983197 1_555
O1 Sb8 2.029263 1_554
O2 Sb0 2.026072 1_555
O2 Sb9 2.042494 1_555
O3 Sb1 2.002593 1_655
O3 Sb0 2.055529 1_555
O4 Sb0 1.980361 1_555
O4 Sb3 2.020375 1_555
O5 Sb5 1.985487 1_565
O5 Sb11 2.014767 1_555
O6 Sb4 1.974627 1_655
O6 Sb1 2.038060 1_655
O7 Sb3 1.990884 1_555
O7 Sb1 2.010767 1_555
O8 Sb2 1.997390 1_555
O8 Sb4 2.036542 1_555
O9 Sb6 2.016843 1_555
O9 Sb1 2.056410 1_555
O10 Sb11 2.023663 1_555
O10 Sb2 2.035311 1_555
O11 Sb7 2.046348 1_565
O11 Sb4 2.074928 1_655
O12 Sb1 2.026899 1_555
O12 Sb6 2.075055 1_555
O13 Sb4 1.991809 1_545
O13 Sb6 2.003943 1_545
O14 Sb5 2.017589 1_555
O14 Sb2 2.056064 1_545
O15 Sb3 1.981623 1_555
O15 Sb6 2.033953 1_555
O16 Sb2 1.981562 1_555
O16 Sb7 2.028665 1_465
O17 Sb9 1.991612 1_555
O17 Sb4 2.016800 1_645
O18 Sb5 2.006271 1_555
O18 Sb8 2.009556 1_555
O19 Sb6 1.962650 1_555
O19 Sb9 2.018763 1_565
O20 Sb7 1.972182 1_565
O20 Sb5 2.007816 1_565
O21 Sb10 2.032226 1_555
O21 Sb5 2.059173 1_555
O22 Sb7 1.990714 1_455
O22 Sb4 2.015140 1_545
O23 Sb0 2.035781 1_555
O23 Sb9 2.047030 1_555
O24 Sb8 2.009494 1_555
O24 Sb3 2.009638 1_556
O25 Sb5 2.009612 1_555
O25 Sb10 2.029040 1_555
O26 Sb9 1.990377 1_555
O26 Sb7 2.036614 1_555
O27 Sb8 1.998716 1_555
O27 Sb10 2.040157 1_555
O28 Sb7 2.018496 1_455
O28 Sb10 2.051595 1_455
O29 Sb6 2.003502 1_545
O29 Sb0 2.014026 1_555
O30 Sb11 1.987344 1_555
O30 Sb8 2.021246 1_555
O31 Sb10 1.985326 1_455
O31 Sb11 2.024013 1_555
O32 Sb8 2.027025 1_555
O32 Sb3 2.051549 1_556
O33 Sb2 2.037293 1_555
O33 Sb11 2.064108 1_555
O34 Sb11 2.002353 1_555
O34 Sb3 2.034876 1_556
O35 Sb10 1.963660 1_555
O35 Sb2 2.011241 1_655
