# generated using pymatgen
data_SiO2
_symmetry_space_group_name_H-M   'P 1'
_cell_length_a   8.57923070
_cell_length_b   8.57923070
_cell_length_c   14.00437516
_cell_angle_alpha   90.00000000
_cell_angle_beta   90.00000000
_cell_angle_gamma   110.02721719
_symmetry_Int_Tables_number   1
_chemical_formula_structural   SiO2
_chemical_formula_sum   'Si16 O32'
_cell_volume   968.43639397
_cell_formula_units_Z   16
loop_
 _symmetry_equiv_pos_site_id
 _symmetry_equiv_pos_as_xyz
  1  'x, y, z'
loop_
 _atom_site_type_symbol
 _atom_site_label
 _atom_site_symmetry_multiplicity
 _atom_site_fract_x
 _atom_site_fract_y
 _atom_site_fract_z
 _atom_site_occupancy
  Si  Si0  1  0.05064110  0.26698890  0.98197902  1
  Si  Si1  1  0.26698890  0.05064110  0.01802098  1
  Si  Si2  1  0.73301110  0.94935890  0.51802098  1
  Si  Si3  1  0.94935890  0.73301110  0.48197902  1
  Si  Si4  1  0.94935890  0.73301110  0.01802098  1
  Si  Si5  1  0.73301110  0.94935890  0.98197902  1
  Si  Si6  1  0.26698890  0.05064110  0.48197902  1
  Si  Si7  1  0.05064110  0.26698890  0.51802098  1
  Si  Si8  1  0.89285255  0.42021072  0.13982017  1
  Si  Si9  1  0.42021072  0.89285255  0.86017983  1
  Si  Si10  1  0.57978928  0.10714745  0.36017983  1
  Si  Si11  1  0.10714745  0.57978928  0.63982017  1
  Si  Si12  1  0.10714745  0.57978928  0.86017983  1
  Si  Si13  1  0.57978928  0.10714745  0.13982017  1
  Si  Si14  1  0.42021072  0.89285255  0.63982017  1
  Si  Si15  1  0.89285255  0.42021072  0.36017983  1
  O  O0  1  0.88793592  0.11206408  0.95350509  1
  O  O1  1  0.11206408  0.88793592  0.04649491  1
  O  O2  1  0.88793592  0.11206408  0.54649491  1
  O  O3  1  0.11206408  0.88793592  0.45350509  1
  O  O4  1  0.01659287  0.35436730  0.07808021  1
  O  O5  1  0.35436730  0.01659287  0.92191979  1
  O  O6  1  0.64563270  0.98340713  0.42191979  1
  O  O7  1  0.98340713  0.64563270  0.57808021  1
  O  O8  1  0.98340713  0.64563270  0.92191979  1
  O  O9  1  0.64563270  0.98340713  0.07808021  1
  O  O10  1  0.35436730  0.01659287  0.57808021  1
  O  O11  1  0.01659287  0.35436730  0.42191979  1
  O  O12  1  0.20487172  0.20487172  -0.00000000  1
  O  O13  1  0.79512828  0.79512828  0.50000000  1
  O  O14  1  0.79512828  0.79512828  -0.00000000  1
  O  O15  1  0.20487172  0.20487172  0.50000000  1
  O  O16  1  0.09539746  0.39762919  0.89519756  1
  O  O17  1  0.39762919  0.09539746  0.10480244  1
  O  O18  1  0.60237081  0.90460254  0.60480244  1
  O  O19  1  0.90460254  0.60237081  0.39519756  1
  O  O20  1  0.90460254  0.60237081  0.10480244  1
  O  O21  1  0.60237081  0.90460254  0.89519756  1
  O  O22  1  0.39762919  0.09539746  0.39519756  1
  O  O23  1  0.09539746  0.39762919  0.60480244  1
  O  O24  1  0.94751325  0.42759849  0.25000000  1
  O  O25  1  0.42759849  0.94751325  0.75000000  1
  O  O26  1  0.57240151  0.05248675  0.25000000  1
  O  O27  1  0.05248675  0.57240151  0.75000000  1
  O  O28  1  0.70387826  0.29612174  0.12695925  1
  O  O29  1  0.29612174  0.70387826  0.87304075  1
  O  O30  1  0.70387826  0.29612174  0.37304075  1
  O  O31  1  0.29612174  0.70387826  0.62695925  1
loop_
_geom_bond_atom_site_label_1
_geom_bond_atom_site_label_2
_geom_bond_distance
_geom_bond_site_symmetry_2
O0 Si5 1.613486 1_545
O0 Si0 1.613486 1_655
O1 Si4 1.613486 1_455
O1 Si1 1.613486 1_565
O2 Si2 1.613486 1_545
O2 Si7 1.613486 1_655
O3 Si6 1.613486 1_565
O3 Si3 1.613486 1_455
O4 Si8 1.613818 1_455
O4 Si0 1.615100 1_554
O5 Si9 1.613818 1_545
O5 Si1 1.615100 1_556
O6 Si10 1.613818 1_565
O6 Si2 1.615100 1_555
O7 Si11 1.613818 1_655
O7 Si3 1.615100 1_555
O8 Si12 1.613818 1_655
O8 Si4 1.615100 1_556
O9 Si13 1.613818 1_565
O9 Si5 1.615100 1_554
O10 Si14 1.613818 1_545
O10 Si6 1.615100 1_555
O11 Si15 1.613818 1_455
O11 Si7 1.615100 1_555
O12 Si0 1.606697 1_554
O12 Si1 1.606697 1_555
O13 Si2 1.606697 1_555
O13 Si3 1.606697 1_555
O14 Si4 1.606697 1_555
O14 Si5 1.606697 1_554
O15 Si7 1.606697 1_555
O15 Si6 1.606697 1_555
O16 Si12 1.607817 1_555
O16 Si0 1.608058 1_555
O17 Si13 1.607817 1_555
O17 Si1 1.608058 1_555
O18 Si14 1.607817 1_555
O18 Si2 1.608058 1_555
O19 Si15 1.607817 1_555
O19 Si3 1.608058 1_555
O20 Si8 1.607817 1_555
O20 Si4 1.608058 1_555
O21 Si9 1.607817 1_555
O21 Si5 1.608058 1_555
O22 Si10 1.607817 1_555
O22 Si6 1.608058 1_555
O23 Si11 1.607817 1_555
O23 Si7 1.608058 1_555
O24 Si15 1.607613 1_555
O24 Si8 1.607613 1_555
O25 Si14 1.607613 1_555
O25 Si9 1.607613 1_555
O26 Si10 1.607613 1_555
O26 Si13 1.607613 1_555
O27 Si12 1.607613 1_555
O27 Si11 1.607613 1_555
O28 Si8 1.616193 1_555
O28 Si13 1.616193 1_555
O29 Si12 1.616193 1_555
O29 Si9 1.616193 1_555
O30 Si15 1.616193 1_555
O30 Si10 1.616193 1_555
O31 Si14 1.616193 1_555
O31 Si11 1.616193 1_555
