# generated using pymatgen
data_Sr2EuGaCu2O7
_symmetry_space_group_name_H-M   'P 1'
_cell_length_a   5.43614811
_cell_length_b   5.54398713
_cell_length_c   12.33260760
_cell_angle_alpha   103.05912395
_cell_angle_beta   102.73898908
_cell_angle_gamma   89.99859005
_symmetry_Int_Tables_number   1
_chemical_formula_structural   Sr2EuGaCu2O7
_chemical_formula_sum   'Sr4 Eu2 Ga2 Cu4 O14'
_cell_volume   352.66894544
_cell_formula_units_Z   2
loop_
 _symmetry_equiv_pos_site_id
 _symmetry_equiv_pos_as_xyz
  1  'x, y, z'
loop_
 _atom_site_type_symbol
 _atom_site_label
 _atom_site_symmetry_multiplicity
 _atom_site_fract_x
 _atom_site_fract_y
 _atom_site_fract_z
 _atom_site_occupancy
  Sr  Sr0  1  0.15166700  0.17123900  0.30401300  1
  Sr  Sr1  1  0.34671000  0.36571700  0.69578800  1
  Sr  Sr2  1  0.65175300  0.63610500  0.30366400  1
  Sr  Sr3  1  0.84679100  0.83034400  0.69549400  1
  Eu  Eu0  1  0.50031700  0.50130500  0.99983500  1
  Eu  Eu1  1  0.00034600  0.00131200  0.99988000  1
  Ga  Ga0  1  0.71256900  0.17863500  0.49990600  1
  Ga  Ga1  1  0.21306000  0.82200400  0.49932500  1
  Cu  Cu0  1  0.07646500  0.57820600  0.14978100  1
  Cu  Cu1  1  0.57602500  0.07546600  0.14914500  1
  Cu  Cu2  1  0.42654100  0.92713500  0.85061900  1
  Cu  Cu3  1  0.92600500  0.42428500  0.85004600  1
  O  O0  1  0.85133500  0.36554100  0.64590800  1
  O  O1  1  0.68440500  0.68342600  0.86983000  1
  O  O2  1  0.81922600  0.82008000  0.13552500  1
  O  O3  1  0.68380200  0.18261100  0.86521100  1
  O  O4  1  0.31887100  0.82062500  0.13524800  1
  O  O5  1  0.20719600  0.63581200  0.35364900  1
  O  O6  1  0.86085600  0.86486600  0.49986400  1
  O  O7  1  0.18303100  0.18176000  0.86354000  1
  O  O8  1  0.70646600  0.22006200  0.35456100  1
  O  O9  1  0.31526800  0.31561100  0.12939400  1
  O  O10  1  0.18439800  0.68675500  0.86944800  1
  O  O11  1  0.35998700  0.13633100  0.49974900  1
  O  O12  1  0.35311100  0.78003300  0.64473400  1
  O  O13  1  0.81540600  0.31930600  0.13069500  1
loop_
_geom_bond_atom_site_label_1
_geom_bond_atom_site_label_2
_geom_bond_distance
_geom_bond_site_symmetry_2
Eu0 O1 2.455748 1_555
Eu0 O13 2.464383 1_556
Eu0 O9 2.465160 1_556
Eu0 O10 2.474124 1_555
Eu0 O3 2.505535 1_555
Eu0 O4 2.507215 1_556
Eu0 O2 2.512633 1_556
Eu0 O7 2.512883 1_555
Eu1 O9 2.460626 1_556
Eu1 O10 2.464092 1_545
Eu1 O1 2.477097 1_445
Eu1 O13 2.480196 1_456
Eu1 O3 2.494711 1_455
Eu1 O2 2.502682 1_446
Eu1 O4 2.503906 1_546
Eu1 O7 2.512150 1_555
Ga0 O8 1.851124 1_555
Ga0 O0 1.855457 1_555
Ga0 O6 1.917157 1_545
Ga0 O11 1.930514 1_555
Ga1 O5 1.852260 1_555
Ga1 O12 1.853658 1_555
Ga1 O11 1.915418 1_565
Ga1 O6 1.930598 1_455
Cu0 O2 1.944881 1_455
Cu0 O4 1.946267 1_555
Cu0 O13 1.956963 1_455
Cu0 O9 1.961203 1_555
Cu0 O5 2.403644 1_555
Cu1 O4 1.940280 1_545
Cu1 O2 1.941937 1_545
Cu1 O9 1.958413 1_555
Cu1 O13 1.960190 1_555
Cu1 O8 2.419334 1_555
Cu2 O7 1.939517 1_565
Cu2 O3 1.941184 1_565
Cu2 O10 1.958919 1_555
Cu2 O1 1.960806 1_555
Cu2 O12 2.426663 1_555
Cu3 O3 1.945672 1_555
Cu3 O7 1.945831 1_655
Cu3 O1 1.957379 1_555
Cu3 O10 1.960168 1_655
Cu3 O0 2.405765 1_555
O0 Sr3 2.511836 1_555
O0 Sr1 2.626680 1_655
O0 Sr1 2.940679 1_555
O0 Sr3 3.163077 1_545
O1 Sr1 2.762857 1_555
O1 Sr3 2.773755 1_555
O2 Sr0 2.808857 1_665
O2 Sr2 2.820874 1_555
O3 Sr3 2.819667 1_545
O3 Sr1 2.832675 1_555
O4 Sr2 2.817373 1_555
O4 Sr0 2.818218 1_565
O5 Sr0 2.511082 1_555
O5 Sr2 2.622556 1_555
O5 Sr2 2.945636 1_455
O5 Sr0 3.164943 1_565
O6 Sr3 2.480580 1_555
O6 Sr2 2.481045 1_555
O7 Sr1 2.806635 1_555
O7 Sr3 2.817199 1_445
O8 Sr2 2.524774 1_555
O8 Sr0 2.628351 1_655
O8 Sr0 2.941524 1_555
O8 Sr2 3.156408 1_545
O9 Sr2 2.768159 1_555
O9 Sr0 2.773595 1_555
O10 Sr3 2.763982 1_455
O10 Sr1 2.764751 1_555
O11 Sr0 2.480423 1_555
O11 Sr1 2.480949 1_555
O12 Sr1 2.517324 1_555
O12 Sr3 2.617676 1_555
O12 Sr3 2.954065 1_455
O12 Sr1 3.166476 1_565
O13 Sr2 2.751415 1_555
O13 Sr0 2.766541 1_655
