# generated using pymatgen
data_K2VH4C4O9
_symmetry_space_group_name_H-M   'P 1'
_cell_length_a   6.98034100
_cell_length_b   15.06526300
_cell_length_c   20.71351000
_cell_angle_alpha   90.00000000
_cell_angle_beta   90.00000000
_cell_angle_gamma   90.00000000
_symmetry_Int_Tables_number   1
_chemical_formula_structural   K2VH4C4O9
_chemical_formula_sum   'K16 V8 H32 C32 O72'
_cell_volume   2178.24665168
_cell_formula_units_Z   8
loop_
 _symmetry_equiv_pos_site_id
 _symmetry_equiv_pos_as_xyz
  1  'x, y, z'
loop_
 _atom_site_type_symbol
 _atom_site_label
 _atom_site_symmetry_multiplicity
 _atom_site_fract_x
 _atom_site_fract_y
 _atom_site_fract_z
 _atom_site_occupancy
  K  K0  1  0.26045100  0.47043300  0.94299000  1
  K  K1  1  0.39397700  0.60366100  0.19335700  1
  K  K2  1  0.76045100  0.02956700  0.05701000  1
  K  K3  1  0.73954900  0.52956700  0.05701000  1
  K  K4  1  0.76045100  0.47043300  0.55701000  1
  K  K5  1  0.39397700  0.89633900  0.69335700  1
  K  K6  1  0.26045100  0.02956700  0.44299000  1
  K  K7  1  0.10602300  0.39633900  0.69335700  1
  K  K8  1  0.23954900  0.97043300  0.94299000  1
  K  K9  1  0.60602300  0.39633900  0.80664300  1
  K  K10  1  0.60602300  0.10366100  0.30664300  1
  K  K11  1  0.23954900  0.52956700  0.44299000  1
  K  K12  1  0.10602300  0.10366100  0.19335700  1
  K  K13  1  0.89397700  0.60366100  0.30664300  1
  K  K14  1  0.89397700  0.89633900  0.80664300  1
  K  K15  1  0.73954900  0.97043300  0.55701000  1
  V  V0  1  0.55878400  0.69843300  0.61175300  1
  V  V1  1  0.05878400  0.80156700  0.38824700  1
  V  V2  1  0.94121600  0.19843300  0.61175300  1
  V  V3  1  0.55878400  0.80156700  0.11175300  1
  V  V4  1  0.44121600  0.19843300  0.88824700  1
  V  V5  1  0.05878400  0.69843300  0.88824700  1
  V  V6  1  0.94121600  0.30156700  0.11175300  1
  V  V7  1  0.44121600  0.30156700  0.38824700  1
  H  H0  1  0.71611900  0.59158600  0.85304600  1
  H  H1  1  0.21611900  0.59158600  0.64695400  1
  H  H2  1  0.02999200  0.22455100  0.84100500  1
  H  H3  1  0.30549100  0.23592900  0.53207700  1
  H  H4  1  0.78388100  0.09158600  0.85304600  1
  H  H5  1  0.37668700  0.10783000  0.75853200  1
  H  H6  1  0.47000800  0.72455100  0.84100500  1
  H  H7  1  0.62331300  0.89217000  0.24146800  1
  H  H8  1  0.80549100  0.26407100  0.46792300  1
  H  H9  1  0.19450900  0.76407100  0.03207700  1
  H  H10  1  0.80549100  0.23592900  0.96792300  1
  H  H11  1  0.62331300  0.60783000  0.74146800  1
  H  H12  1  0.30549100  0.26407100  0.03207700  1
  H  H13  1  0.69450900  0.76407100  0.46792300  1
  H  H14  1  0.37668700  0.39217000  0.25853200  1
  H  H15  1  0.97000800  0.72455100  0.65899500  1
  H  H16  1  0.71611900  0.90841400  0.35304600  1
  H  H17  1  0.28388100  0.40841400  0.14695400  1
  H  H18  1  0.52999200  0.22455100  0.65899500  1
  H  H19  1  0.12331300  0.89217000  0.25853200  1
  H  H20  1  0.12331300  0.60783000  0.75853200  1
  H  H21  1  0.28388100  0.09158600  0.64695400  1
  H  H22  1  0.78388100  0.40841400  0.35304600  1
  H  H23  1  0.69450900  0.73592900  0.96792300  1
  H  H24  1  0.52999200  0.27544900  0.15899500  1
  H  H25  1  0.21611900  0.90841400  0.14695400  1
  H  H26  1  0.87668700  0.10783000  0.74146800  1
  H  H27  1  0.02999200  0.27544900  0.34100500  1
  H  H28  1  0.47000800  0.77544900  0.34100500  1
  H  H29  1  0.87668700  0.39217000  0.24146800  1
  H  H30  1  0.19450900  0.73592900  0.53207700  1
  H  H31  1  0.97000800  0.77544900  0.15899500  1
  C  C0  1  0.08363000  0.29353300  0.84617100  1
  C  C1  1  0.70276200  0.21168200  0.48229200  1
  C  C2  1  0.41637000  0.70646700  0.34617100  1
  C  C3  1  0.24901500  0.43656300  0.09881400  1
  C  C4  1  0.91637000  0.70646700  0.15382900  1
  C  C5  1  0.70276200  0.28831800  0.98229200  1
  C  C6  1  0.29723800  0.78831800  0.51770800  1
  C  C7  1  0.72334600  0.92680700  0.20860500  1
  C  C8  1  0.75098500  0.93656300  0.40118600  1
  C  C9  1  0.79723800  0.71168200  0.48229200  1
  C  C10  1  0.20276200  0.28831800  0.51770800  1
  C  C11  1  0.77665400  0.42680700  0.20860500  1
  C  C12  1  0.58363000  0.20646700  0.15382900  1
  C  C13  1  0.22334600  0.57319300  0.79139500  1
  C  C14  1  0.74901500  0.06343700  0.90118600  1
  C  C15  1  0.24901500  0.06343700  0.59881400  1
  C  C16  1  0.72334600  0.57319300  0.70860500  1
  C  C17  1  0.58363000  0.29353300  0.65382900  1
  C  C18  1  0.22334600  0.92680700  0.29139500  1
  C  C19  1  0.27665400  0.42680700  0.29139500  1
  C  C20  1  0.77665400  0.07319300  0.70860500  1
  C  C21  1  0.25098500  0.93656300  0.09881400  1
  C  C22  1  0.27665400  0.07319300  0.79139500  1
  C  C23  1  0.08363000  0.20646700  0.34617100  1
  C  C24  1  0.25098500  0.56343700  0.59881400  1
  C  C25  1  0.29723800  0.71168200  0.01770800  1
  C  C26  1  0.74901500  0.43656300  0.40118600  1
  C  C27  1  0.75098500  0.56343700  0.90118600  1
  C  C28  1  0.91637000  0.79353300  0.65382900  1
  C  C29  1  0.41637000  0.79353300  0.84617100  1
  C  C30  1  0.79723800  0.78831800  0.98229200  1
  C  C31  1  0.20276200  0.21168200  0.01770800  1
  O  O0  1  0.41837100  0.71450500  0.67467100  1
  O  O1  1  0.24427800  0.69936800  0.36961000  1
  O  O2  1  0.34719200  0.49814300  0.07591700  1
  O  O3  1  0.01677700  0.85828300  0.66943800  1
  O  O4  1  0.32118400  0.50921500  0.77166400  1
  O  O5  1  0.10323900  0.09907900  0.56955600  1
  O  O6  1  0.34719200  0.00185700  0.57591700  1
  O  O7  1  0.75564800  0.83709300  0.02948100  1
  O  O8  1  0.89676100  0.59907900  0.93044400  1
  O  O9  1  0.51677700  0.85828300  0.83056200  1
  O  O10  1  0.72986500  0.89692900  0.14996300  1
  O  O11  1  0.04677700  0.20524500  0.04984900  1
  O  O12  1  0.22986500  0.60307100  0.85003700  1
  O  O13  1  0.15280800  0.50185700  0.57591700  1
  O  O14  1  0.95322300  0.79475500  0.95015100  1
  O  O15  1  0.77013500  0.39692900  0.14996300  1
  O  O16  1  0.95322300  0.70524500  0.45015100  1
  O  O17  1  0.08162900  0.28549500  0.17467100  1
  O  O18  1  0.75572200  0.19936800  0.13039000  1
  O  O19  1  0.84719200  0.49814300  0.42408300  1
  O  O20  1  0.48322300  0.14171700  0.16943800  1
  O  O21  1  0.74435200  0.33709300  0.02948100  1
  O  O22  1  0.58162900  0.21450500  0.82532900  1
  O  O23  1  0.75564800  0.66290700  0.52948100  1
  O  O24  1  0.60323900  0.09907900  0.93044400  1
  O  O25  1  0.72986500  0.60307100  0.64996300  1
  O  O26  1  0.74427800  0.80063200  0.63039000  1
  O  O27  1  0.15280800  0.99814300  0.07591700  1
  O  O28  1  0.01677700  0.64171700  0.16943800  1
  O  O29  1  0.54677700  0.20524500  0.45015100  1
  O  O30  1  0.41837100  0.78549500  0.17467100  1
  O  O31  1  0.67881600  0.00921500  0.72833600  1
  O  O32  1  0.25572200  0.19936800  0.36961000  1
  O  O33  1  0.39676100  0.90092100  0.06955600  1
  O  O34  1  0.17881600  0.49078500  0.27166400  1
  O  O35  1  0.82118400  0.50921500  0.72833600  1
  O  O36  1  0.24427800  0.80063200  0.86961000  1
  O  O37  1  0.10323900  0.40092100  0.06955600  1
  O  O38  1  0.74427800  0.69936800  0.13039000  1
  O  O39  1  0.75572200  0.30063200  0.63039000  1
  O  O40  1  0.17881600  0.00921500  0.77166400  1
  O  O41  1  0.74435200  0.16290700  0.52948100  1
  O  O42  1  0.84719200  0.00185700  0.92408300  1
  O  O43  1  0.27013500  0.10307100  0.85003700  1
  O  O44  1  0.04677700  0.29475500  0.54984900  1
  O  O45  1  0.65280800  0.99814300  0.42408300  1
  O  O46  1  0.98322300  0.35828300  0.83056200  1
  O  O47  1  0.27013500  0.39692900  0.35003700  1
  O  O48  1  0.25564800  0.83709300  0.47051900  1
  O  O49  1  0.51677700  0.64171700  0.33056200  1
  O  O50  1  0.54677700  0.29475500  0.95015100  1
  O  O51  1  0.45322300  0.79475500  0.54984900  1
  O  O52  1  0.58162900  0.28549500  0.32532900  1
  O  O53  1  0.77013500  0.10307100  0.64996300  1
  O  O54  1  0.67881600  0.49078500  0.22833600  1
  O  O55  1  0.60323900  0.40092100  0.43044400  1
  O  O56  1  0.65280800  0.50185700  0.92408300  1
  O  O57  1  0.24435200  0.33709300  0.47051900  1
  O  O58  1  0.45322300  0.70524500  0.04984900  1
  O  O59  1  0.22986500  0.89692900  0.35003700  1
  O  O60  1  0.25572200  0.30063200  0.86961000  1
  O  O61  1  0.32118400  0.99078500  0.27166400  1
  O  O62  1  0.91837100  0.78549500  0.32532900  1
  O  O63  1  0.48322300  0.35828300  0.66943800  1
  O  O64  1  0.08162900  0.21450500  0.67467100  1
  O  O65  1  0.98322300  0.14171700  0.33056200  1
  O  O66  1  0.24435200  0.16290700  0.97051900  1
  O  O67  1  0.91837100  0.71450500  0.82532900  1
  O  O68  1  0.82118400  0.99078500  0.22833600  1
  O  O69  1  0.25564800  0.66290700  0.97051900  1
  O  O70  1  0.89676100  0.90092100  0.43044400  1
  O  O71  1  0.39676100  0.59907900  0.56955600  1
loop_
_geom_bond_atom_site_label_1
_geom_bond_atom_site_label_2
_geom_bond_distance
_geom_bond_site_symmetry_2
K0 O12 2.783090 1_555
K0 O56 2.806856 1_555
K0 O2 2.849914 1_556
K0 O69 2.955397 1_555
K0 O60 2.975772 1_555
K0 O37 3.028838 1_556
K0 O8 3.204467 1_455
K0 O50 3.319833 1_555
K1 O54 2.714758 1_555
K1 O28 2.739849 1_555
K1 O30 2.771821 1_555
K1 O34 2.788968 1_555
K1 O2 2.924239 1_555
K1 O49 3.023312 1_555
K1 O38 3.123964 1_555
K2 O10 2.783090 1_545
K2 O27 2.806856 1_645
K2 O42 2.849914 1_554
K2 O7 2.955397 1_545
K2 O18 2.975772 1_555
K2 O24 3.028838 1_554
K2 O33 3.204467 1_545
K2 O11 3.319833 1_655
K3 O15 2.783090 1_555
K3 O2 2.806856 1_555
K3 O56 2.849914 1_554
K3 O21 2.955397 1_555
K3 O38 2.975772 1_555
K3 O8 3.028838 1_554
K3 O37 3.204467 1_655
K3 O58 3.319833 1_555
K4 O25 2.783090 1_555
K4 O13 2.806856 1_655
K4 O19 2.849914 1_555
K4 O23 2.955397 1_555
K4 O39 2.975772 1_555
K4 O55 3.028838 1_555
K4 O71 3.204467 1_555
K4 O44 3.319833 1_655
K5 O31 2.714758 1_565
K5 O3 2.739849 1_555
K5 O0 2.771821 1_555
K5 O40 2.788968 1_565
K5 O6 2.924239 1_565
K5 O9 3.023312 1_555
K5 O26 3.123964 1_555
K6 O59 2.783090 1_545
K6 O45 2.806856 1_545
K6 O6 2.849914 1_555
K6 O48 2.955397 1_545
K6 O32 2.975772 1_555
K6 O5 3.028838 1_555
K6 O70 3.204467 1_445
K6 O29 3.319833 1_555
K7 O35 2.714758 1_455
K7 O63 2.739849 1_555
K7 O64 2.771821 1_555
K7 O4 2.788968 1_555
K7 O13 2.924239 1_555
K7 O46 3.023312 1_455
K7 O39 3.123964 1_455
K8 O43 2.783090 1_565
K8 O42 2.806856 1_465
K8 O27 2.849914 1_556
K8 O66 2.955397 1_565
K8 O36 2.975772 1_555
K8 O33 3.028838 1_556
K8 O24 3.204467 1_565
K8 O14 3.319833 1_455
K9 O4 2.714758 1_555
K9 O46 2.739849 1_555
K9 O22 2.771821 1_555
K9 O35 2.788968 1_555
K9 O56 2.924239 1_555
K9 O63 3.023312 1_555
K9 O60 3.123964 1_555
K10 O61 2.714758 1_545
K10 O65 2.739849 1_555
K10 O52 2.771821 1_555
K10 O68 2.788968 1_545
K10 O45 2.924239 1_545
K10 O20 3.023312 1_555
K10 O32 3.123964 1_555
K11 O47 2.783090 1_555
K11 O19 2.806856 1_455
K11 O13 2.849914 1_555
K11 O57 2.955397 1_555
K11 O1 2.975772 1_555
K11 O71 3.028838 1_555
K11 O55 3.204467 1_555
K11 O16 3.319833 1_455
K12 O68 2.714758 1_445
K12 O20 2.739849 1_555
K12 O17 2.771821 1_555
K12 O61 2.788968 1_545
K12 O27 2.924239 1_545
K12 O65 3.023312 1_455
K12 O18 3.123964 1_455
K13 O34 2.714758 1_655
K13 O49 2.739849 1_555
K13 O62 2.771821 1_555
K13 O54 2.788968 1_555
K13 O19 2.924239 1_555
K13 O28 3.023312 1_655
K13 O1 3.123964 1_655
K14 O40 2.714758 1_665
K14 O9 2.739849 1_555
K14 O67 2.771821 1_555
K14 O31 2.788968 1_565
K14 O42 2.924239 1_565
K14 O3 3.023312 1_655
K14 O36 3.123964 1_655
K15 O53 2.783090 1_565
K15 O6 2.806856 1_565
K15 O45 2.849914 1_555
K15 O41 2.955397 1_565
K15 O26 2.975772 1_555
K15 O70 3.028838 1_555
K15 O5 3.204467 1_665
K15 O51 3.319833 1_555
C0 H2 1.109792 1_555
C0 O46 1.243910 1_455
C0 O60 1.300069 1_555
C1 H8 1.107120 1_555
C1 O41 1.256834 1_555
C1 O29 1.279914 1_555
C2 H28 1.109792 1_555
C2 O49 1.243910 1_555
C2 O1 1.300069 1_555
C3 H17 1.110574 1_555
C3 O2 1.247096 1_555
C3 O37 1.300401 1_555
C4 H31 1.109792 1_555
C4 O28 1.243910 1_655
C4 O38 1.300069 1_555
C5 H10 1.107120 1_555
C5 O21 1.256834 1_556
C5 O50 1.279914 1_555
C6 H30 1.107120 1_555
C6 O48 1.256834 1_555
C6 O51 1.279914 1_555
C7 H7 1.105996 1_555
C7 O68 1.249977 1_555
C7 O10 1.296198 1_555
C8 H16 1.110574 1_555
C8 O45 1.247096 1_555
C8 O70 1.300401 1_555
C9 H13 1.107120 1_555
C9 O23 1.256834 1_555
C9 O16 1.279914 1_555
C10 H3 1.107120 1_555
C10 O57 1.256834 1_555
C10 O44 1.279914 1_555
C11 H29 1.105996 1_555
C11 O54 1.249977 1_555
C11 O15 1.296198 1_555
C12 H24 1.109792 1_555
C12 O20 1.243910 1_555
C12 O18 1.300069 1_555
C13 H20 1.105996 1_555
C13 O4 1.249977 1_555
C13 O12 1.296198 1_555
C14 H4 1.110574 1_555
C14 O42 1.247096 1_555
C14 O24 1.300401 1_555
C15 H21 1.110574 1_555
C15 O6 1.247096 1_555
C15 O5 1.300401 1_555
C16 H11 1.105996 1_555
C16 O35 1.249977 1_555
C16 O25 1.296198 1_555
C17 H18 1.109792 1_555
C17 O63 1.243910 1_555
C17 O39 1.300069 1_555
C18 H19 1.105996 1_555
C18 O61 1.249977 1_555
C18 O59 1.296198 1_555
C19 H14 1.105996 1_555
C19 O34 1.249977 1_555
C19 O47 1.296198 1_555
C20 H26 1.105996 1_555
C20 O31 1.249977 1_555
C20 O53 1.296198 1_555
C21 H25 1.110574 1_555
C21 O27 1.247096 1_555
C21 O33 1.300401 1_555
C22 H5 1.105996 1_555
C22 O40 1.249977 1_555
C22 O43 1.296198 1_555
C23 H27 1.109792 1_555
C23 O65 1.243910 1_455
C23 O32 1.300069 1_555
C24 H1 1.110574 1_555
C24 O13 1.247096 1_555
C24 O71 1.300401 1_555
C25 H9 1.107120 1_555
C25 O69 1.256834 1_554
C25 O58 1.279914 1_555
C26 H22 1.110574 1_555
C26 O19 1.247096 1_555
C26 O55 1.300401 1_555
C27 H0 1.110574 1_555
C27 O56 1.247096 1_555
C27 O8 1.300401 1_555
C28 H15 1.109792 1_555
C28 O3 1.243910 1_655
C28 O26 1.300069 1_555
C29 H6 1.109792 1_555
C29 O9 1.243910 1_555
C29 O36 1.300069 1_555
C30 H23 1.107120 1_555
C30 O7 1.256834 1_556
C30 O14 1.279914 1_555
C31 H12 1.107120 1_555
C31 O66 1.256834 1_554
C31 O11 1.279914 1_555
O0 V0 1.648560 1_555
O1 V1 2.048438 1_555
O5 V2 2.069652 1_455
O7 V3 2.253644 1_555
O8 V5 2.069652 1_655
O10 V3 2.028918 1_555
O11 V6 2.071920 1_455
O12 V5 2.028918 1_555
O14 V5 2.071920 1_655
O15 V6 2.028918 1_555
O16 V1 2.071920 1_655
O17 V6 1.648560 1_455
O18 V6 2.048438 1_555
O21 V6 2.253644 1_555
O22 V4 1.648560 1_555
O23 V0 2.253644 1_555
O24 V4 2.069652 1_555
O25 V0 2.028918 1_555
O26 V0 2.048438 1_555
O29 V7 2.071920 1_555
O30 V3 1.648560 1_555
O32 V7 2.048438 1_555
O33 V3 2.069652 1_555
O36 V5 2.048438 1_555
O37 V6 2.069652 1_455
O38 V3 2.048438 1_555
O39 V2 2.048438 1_555
O41 V2 2.253644 1_555
O43 V4 2.028918 1_555
O44 V2 2.071920 1_455
O47 V7 2.028918 1_555
O48 V1 2.253644 1_555
O50 V4 2.071920 1_555
O51 V0 2.071920 1_555
O52 V7 1.648560 1_555
O53 V2 2.028918 1_555
O55 V7 2.069652 1_555
O57 V7 2.253644 1_555
O58 V3 2.071920 1_555
O59 V1 2.028918 1_555
O60 V4 2.048438 1_555
O62 V1 1.648560 1_655
O64 V2 1.648560 1_455
O66 V4 2.253644 1_555
O67 V5 1.648560 1_655
O69 V5 2.253644 1_555
O70 V1 2.069652 1_655
O71 V0 2.069652 1_555
