# generated using pymatgen
data_ZnSnSb2
_symmetry_space_group_name_H-M   'P 1'
_cell_length_a   4.53518530
_cell_length_b   4.53518530
_cell_length_c   41.87199963
_cell_angle_alpha   89.53311690
_cell_angle_beta   89.53311690
_cell_angle_gamma   59.19148876
_symmetry_Int_Tables_number   1
_chemical_formula_structural   ZnSnSb2
_chemical_formula_sum   'Zn6 Sn6 Sb12'
_cell_volume   739.65488140
_cell_formula_units_Z   6
loop_
 _symmetry_equiv_pos_site_id
 _symmetry_equiv_pos_as_xyz
  1  'x, y, z'
loop_
 _atom_site_type_symbol
 _atom_site_label
 _atom_site_symmetry_multiplicity
 _atom_site_fract_x
 _atom_site_fract_y
 _atom_site_fract_z
 _atom_site_occupancy
  Zn  Zn0  1  0.06607600  0.06607600  0.96950000  1
  Zn  Zn1  1  0.54066500  0.54066500  0.89769900  1
  Zn  Zn2  1  0.02682300  0.02682300  0.82504300  1
  Zn  Zn3  1  0.51639600  0.51639600  0.75189200  1
  Zn  Zn4  1  0.99816500  0.99816500  0.67780500  1
  Zn  Zn5  1  0.47838600  0.47838600  0.60463500  1
  Sn  Sn0  1  0.91638400  0.91638400  0.52739200  1
  Sn  Sn1  1  0.49807400  0.49807400  0.43755600  1
  Sn  Sn2  1  0.99963300  0.99963300  0.34234000  1
  Sn  Sn3  1  0.53562000  0.53562000  0.24992100  1
  Sn  Sn4  1  0.61520400  0.61520400  0.06479700  1
  Sn  Sn5  1  0.06010300  0.06010300  0.15698900  1
  Sb  Sb0  1  0.39424500  0.39424500  0.95799300  1
  Sb  Sb1  1  0.87038800  0.87038800  0.88467500  1
  Sb  Sb2  1  0.35302300  0.35302300  0.81309200  1
  Sb  Sb3  1  0.84401000  0.84401000  0.74054600  1
  Sb  Sb4  1  0.32989900  0.32989900  0.67015700  1
  Sb  Sb5  1  0.81370200  0.81370200  0.59437300  1
  Sb  Sb6  1  0.25395700  0.25395700  0.49472500  1
  Sb  Sb7  1  0.83545000  0.83545000  0.40461300  1
  Sb  Sb8  1  0.33521400  0.33521400  0.31012900  1
  Sb  Sb9  1  0.87207800  0.87207800  0.21738200  1
  Sb  Sb10  1  0.39595100  0.39595100  0.12414500  1
  Sb  Sb11  1  0.95056100  0.95056100  0.03259900  1
loop_
_geom_bond_atom_site_label_1
_geom_bond_atom_site_label_2
_geom_bond_distance
_geom_bond_site_symmetry_2
Sb0 Zn0 2.628283 1_555
Sb0 Zn0 2.664178 1_655
Sb0 Zn0 2.664178 1_565
Sb0 Zn1 2.766352 1_555
Sb1 Zn1 2.652075 1_555
Sb1 Zn1 2.670488 1_565
Sb1 Zn1 2.670488 1_655
Sb1 Zn2 2.774722 1_665
Sb2 Zn2 2.616339 1_555
Sb2 Zn2 2.675641 1_565
Sb2 Zn2 2.675641 1_655
Sb2 Zn3 2.857471 1_555
Sb3 Zn3 2.622812 1_555
Sb3 Zn3 2.665173 1_655
Sb3 Zn3 2.665173 1_565
Sb3 Zn4 2.884433 1_555
Sb4 Zn4 2.624605 1_455
Sb4 Zn4 2.624605 1_545
Sb4 Zn4 2.632922 1_445
Sb4 Zn5 2.972925 1_555
Sb5 Zn5 2.626584 1_565
Sb5 Zn5 2.626584 1_655
Sb5 Zn5 2.675331 1_555
Sb5 Sn0 2.911911 1_555
Sb6 Sn0 2.926044 1_455
Sb6 Sn0 2.926044 1_545
Sb6 Sn0 2.981818 1_445
Sb6 Sn1 3.057900 1_555
Sb7 Sn2 2.900436 1_555
Sb7 Sn1 2.932197 1_655
Sb7 Sn1 2.932197 1_565
Sb7 Sn1 2.985663 1_555
Sb8 Sn2 2.924090 1_455
Sb8 Sn2 2.924090 1_545
Sb8 Sn2 2.959275 1_445
Sb8 Sn3 2.962970 1_555
Sb9 Sn5 2.919513 1_665
Sb9 Sn3 2.927423 1_655
Sb9 Sn3 2.927423 1_565
Sb9 Sn3 2.971591 1_555
Sb10 Sn5 2.935581 1_565
Sb10 Sn5 2.935581 1_655
Sb10 Sn5 2.973095 1_555
Sb10 Sn4 3.014144 1_555
Sb11 Zn0 2.786668 1_664
Sb11 Sn4 2.924628 1_565
Sb11 Sn4 2.924628 1_655
Sb11 Sn4 2.957459 1_555
