# generated using pymatgen
data_SrMgNiH4
_symmetry_space_group_name_H-M   'P 1'
_cell_length_a   6.92001400
_cell_length_b   6.92001400
_cell_length_c   6.92001400
_cell_angle_alpha   90.00000000
_cell_angle_beta   90.00000000
_cell_angle_gamma   90.00000000
_symmetry_Int_Tables_number   1
_chemical_formula_structural   SrMgNiH4
_chemical_formula_sum   'Sr4 Mg4 Ni4 H16'
_cell_volume   331.37589923
_cell_formula_units_Z   4
loop_
 _symmetry_equiv_pos_site_id
 _symmetry_equiv_pos_as_xyz
  1  'x, y, z'
loop_
 _atom_site_type_symbol
 _atom_site_label
 _atom_site_symmetry_multiplicity
 _atom_site_fract_x
 _atom_site_fract_y
 _atom_site_fract_z
 _atom_site_occupancy
  Sr  Sr0  1  0.16200300  0.66200300  0.83799700  1
  Sr  Sr1  1  0.66200300  0.83799700  0.16200300  1
  Sr  Sr2  1  0.83799700  0.16200300  0.66200300  1
  Sr  Sr3  1  0.33799700  0.33799700  0.33799700  1
  Mg  Mg0  1  0.84829500  0.34829500  0.15170500  1
  Mg  Mg1  1  0.34829500  0.15170500  0.84829500  1
  Mg  Mg2  1  0.15170500  0.84829500  0.34829500  1
  Mg  Mg3  1  0.65170500  0.65170500  0.65170500  1
  Ni  Ni0  1  0.44049400  0.94049400  0.55950600  1
  Ni  Ni1  1  0.94049400  0.55950600  0.44049400  1
  Ni  Ni2  1  0.55950600  0.44049400  0.94049400  1
  Ni  Ni3  1  0.05950600  0.05950600  0.05950600  1
  H  H0  1  0.57410900  0.07410900  0.42589100  1
  H  H1  1  0.07410900  0.42589100  0.57410900  1
  H  H2  1  0.42589100  0.57410900  0.07410900  1
  H  H3  1  0.92589100  0.92589100  0.92589100  1
  H  H4  1  0.26462800  0.95561600  0.08137400  1
  H  H5  1  0.91862600  0.76462800  0.54438400  1
  H  H6  1  0.45561600  0.41862600  0.73537200  1
  H  H7  1  0.76462800  0.54438400  0.91862600  1
  H  H8  1  0.41862600  0.73537200  0.45561600  1
  H  H9  1  0.95561600  0.08137400  0.26462800  1
  H  H10  1  0.73537200  0.45561600  0.41862600  1
  H  H11  1  0.08137400  0.26462800  0.95561600  1
  H  H12  1  0.54438400  0.91862600  0.76462800  1
  H  H13  1  0.23537200  0.04438400  0.58137400  1
  H  H14  1  0.58137400  0.23537200  0.04438400  1
  H  H15  1  0.04438400  0.58137400  0.23537200  1
loop_
_geom_bond_atom_site_label_1
_geom_bond_atom_site_label_2
_geom_bond_distance
_geom_bond_site_symmetry_2
H0 Ni0 1.601485 1_545
H0 Sr3 2.524725 1_555
H0 Sr1 2.524725 1_545
H0 Sr2 2.524725 1_555
H1 Ni1 1.601485 1_455
H1 Sr2 2.524725 1_455
H1 Sr3 2.524725 1_555
H1 Sr0 2.524725 1_555
H2 Ni2 1.601485 1_554
H2 Sr3 2.524725 1_555
H2 Sr1 2.524725 1_555
H2 Sr0 2.524725 1_554
H3 Ni3 1.601485 1_666
H3 Sr1 2.524725 1_556
H3 Sr2 2.524725 1_565
H3 Sr0 2.524725 1_655
H4 Ni3 1.598304 1_565
H4 Mg2 2.138679 1_555
H4 Mg1 2.185858 1_564
H4 Sr0 2.732949 1_554
H4 Sr1 2.921542 1_555
H5 Ni1 1.598304 1_555
H5 Mg3 2.138679 1_555
H5 Mg2 2.185858 1_655
H5 Sr0 2.732949 1_655
H5 Sr2 2.921542 1_565
H6 Ni2 1.598304 1_555
H6 Mg1 2.138679 1_555
H6 Mg3 2.185858 1_555
H6 Sr0 2.732949 1_555
H6 Sr3 2.921542 1_555
H7 Ni2 1.598304 1_555
H7 Mg3 2.138679 1_555
H7 Mg0 2.185858 1_556
H7 Sr1 2.732949 1_556
H7 Sr0 2.921542 1_655
H8 Ni0 1.598304 1_555
H8 Mg2 2.138679 1_555
H8 Mg3 2.185858 1_555
H8 Sr1 2.732949 1_555
H8 Sr3 2.921542 1_555
H9 Ni3 1.598304 1_655
H9 Mg0 2.138679 1_555
H9 Mg2 2.185858 1_645
H9 Sr1 2.732949 1_545
H9 Sr2 2.921542 1_555
H10 Ni1 1.598304 1_555
H10 Mg0 2.138679 1_555
H10 Mg3 2.185858 1_555
H10 Sr2 2.732949 1_555
H10 Sr3 2.921542 1_555
H11 Ni3 1.598304 1_556
H11 Mg1 2.138679 1_555
H11 Mg0 2.185858 1_456
H11 Sr2 2.732949 1_455
H11 Sr0 2.921542 1_555
H12 Ni0 1.598304 1_555
H12 Mg3 2.138679 1_555
H12 Mg1 2.185858 1_565
H12 Sr2 2.732949 1_565
H12 Sr1 2.921542 1_556
H13 Ni0 1.598304 1_545
H13 Mg1 2.138679 1_555
H13 Mg2 2.185858 1_545
H13 Sr3 2.732949 1_555
H13 Sr2 2.921542 1_455
H14 Ni2 1.598304 1_554
H14 Mg0 2.138679 1_555
H14 Mg1 2.185858 1_554
H14 Sr3 2.732949 1_555
H14 Sr1 2.921542 1_545
H15 Ni1 1.598304 1_455
H15 Mg2 2.138679 1_555
H15 Mg0 2.185858 1_455
H15 Sr3 2.732949 1_555
H15 Sr0 2.921542 1_554
