# generated using pymatgen
data_LiV2(PO4)3
_symmetry_space_group_name_H-M   'P 1'
_cell_length_a   8.58545095
_cell_length_b   8.58545095
_cell_length_c   8.60070909
_cell_angle_alpha   60.99695365
_cell_angle_beta   60.99695365
_cell_angle_gamma   59.88341975
_symmetry_Int_Tables_number   1
_chemical_formula_structural   LiV2(PO4)3
_chemical_formula_sum   'Li2 V4 P6 O24'
_cell_volume   454.49896949
_cell_formula_units_Z   2
loop_
 _symmetry_equiv_pos_site_id
 _symmetry_equiv_pos_as_xyz
  1  'x, y, z'
loop_
 _atom_site_type_symbol
 _atom_site_label
 _atom_site_symmetry_multiplicity
 _atom_site_fract_x
 _atom_site_fract_y
 _atom_site_fract_z
 _atom_site_occupancy
  Li  Li0  1  0.03293600  0.35465100  0.94533500  1
  Li  Li1  1  0.35465100  0.03293600  0.44533500  1
  V  V0  1  0.36189000  0.85056100  0.92136500  1
  V  V1  1  0.85056100  0.36189000  0.42136500  1
  V  V2  1  0.64501500  0.14962800  0.07192700  1
  V  V3  1  0.14962800  0.64501500  0.57192700  1
  P  P0  1  0.47367900  0.24794600  0.74153400  1
  P  P1  1  0.52769900  0.75186800  0.25845000  1
  P  P2  1  0.96449300  0.03747900  0.24475100  1
  P  P3  1  0.03747900  0.96449300  0.74475100  1
  P  P4  1  0.75186800  0.52769900  0.75845000  1
  P  P5  1  0.24794600  0.47367900  0.24153400  1
  O  O0  1  0.77497900  0.05885700  0.24183200  1
  O  O1  1  0.28524500  0.62793400  0.05045600  1
  O  O2  1  0.27549800  0.40663600  0.74630600  1
  O  O3  1  0.23664900  0.52552500  0.39780100  1
  O  O4  1  0.76109100  0.47986400  0.60446500  1
  O  O5  1  0.45148500  0.06372500  0.78592100  1
  O  O6  1  0.47986400  0.76109100  0.10446500  1
  O  O7  1  0.54295900  0.93808600  0.22489300  1
  O  O8  1  0.00433800  0.12507100  0.55971300  1
  O  O9  1  0.93808600  0.54295900  0.72489300  1
  O  O10  1  0.87839800  0.00086800  0.92122300  1
  O  O11  1  0.52552500  0.23664900  0.89780100  1
  O  O12  1  0.71975800  0.58646900  0.26616600  1
  O  O13  1  0.12507100  0.00433800  0.05971300  1
  O  O14  1  0.95092900  0.23166300  0.23139500  1
  O  O15  1  0.00086800  0.87839800  0.42122300  1
  O  O16  1  0.58646900  0.71975800  0.76616600  1
  O  O17  1  0.05885700  0.77497900  0.74183200  1
  O  O18  1  0.06372500  0.45148500  0.28592100  1
  O  O19  1  0.37186500  0.72169200  0.45038000  1
  O  O20  1  0.72169200  0.37186500  0.95038000  1
  O  O21  1  0.40663600  0.27549800  0.24630600  1
  O  O22  1  0.62793400  0.28524500  0.55045600  1
  O  O23  1  0.23166300  0.95092900  0.73139500  1
loop_
_geom_bond_atom_site_label_1
_geom_bond_atom_site_label_2
_geom_bond_distance
_geom_bond_site_symmetry_2
Li0 O9 2.018704 1_455
Li0 O2 2.049701 1_555
Li0 O14 2.052052 1_456
Li0 O13 2.477327 1_556
Li0 O20 2.581025 1_455
Li1 O7 2.018704 1_545
Li1 O21 2.049701 1_555
Li1 O23 2.052052 1_545
Li1 O8 2.477327 1_555
Li1 O19 2.581025 1_545
O0 P2 1.554706 1_555
O0 V2 1.895243 1_555
O1 P5 1.536870 1_555
O1 V0 1.953158 1_554
O2 P0 1.553419 1_555
O2 V3 1.995351 1_555
O3 P5 1.557013 1_555
O3 V3 1.867916 1_555
O4 P4 1.523817 1_555
O4 V1 1.920635 1_555
O5 P0 1.526418 1_555
O5 V0 1.942792 1_545
O6 P1 1.523817 1_555
O6 V0 1.920635 1_554
O7 P1 1.543566 1_555
O7 V2 1.989767 1_565
O8 P3 1.559552 1_545
O8 V1 1.943287 1_455
O9 P4 1.543566 1_555
O9 V3 1.989767 1_655
O10 P3 1.512611 1_645
O10 V2 1.960805 1_556
O11 P0 1.557013 1_555
O11 V2 1.867916 1_556
O12 P1 1.550733 1_555
O12 V1 1.882942 1_555
O13 P2 1.559552 1_455
O13 V0 1.943287 1_544
O14 P2 1.561603 1_555
O14 V1 2.025210 1_555
O15 P2 1.512611 1_465
O15 V3 1.960805 1_555
O16 P4 1.550733 1_555
O16 V0 1.882942 1_555
O17 P3 1.554706 1_555
O17 V3 1.895243 1_555
O18 P5 1.526418 1_555
O18 V1 1.942792 1_455
O19 P1 1.540625 1_555
O19 V3 1.955921 1_555
O20 P4 1.540625 1_555
O20 V2 1.955921 1_556
O21 P5 1.553419 1_555
O21 V2 1.995351 1_555
O22 P0 1.536870 1_555
O22 V1 1.953158 1_555
O23 P3 1.561603 1_555
O23 V0 2.025210 1_555
