# generated using pymatgen
data_CeAgAs2
_symmetry_space_group_name_H-M   'P 1'
_cell_length_a   5.77155900
_cell_length_b   5.78952700
_cell_length_c   20.53046000
_cell_angle_alpha   90.00000000
_cell_angle_beta   90.00000000
_cell_angle_gamma   90.00000000
_symmetry_Int_Tables_number   1
_chemical_formula_structural   CeAgAs2
_chemical_formula_sum   'Ce8 Ag8 As16'
_cell_volume   686.01704020
_cell_formula_units_Z   8
loop_
 _symmetry_equiv_pos_site_id
 _symmetry_equiv_pos_as_xyz
  1  'x, y, z'
loop_
 _atom_site_type_symbol
 _atom_site_label
 _atom_site_symmetry_multiplicity
 _atom_site_fract_x
 _atom_site_fract_y
 _atom_site_fract_z
 _atom_site_occupancy
  Ce  Ce0  1  0.75000000  0.48751800  0.88578500  1
  Ce  Ce1  1  0.75000000  0.51248200  0.38578500  1
  Ce  Ce2  1  0.75000000  0.98900400  0.61022600  1
  Ce  Ce3  1  0.75000000  0.01099600  0.11022600  1
  Ce  Ce4  1  0.25000000  0.98900400  0.88977400  1
  Ce  Ce5  1  0.25000000  0.51248200  0.11421500  1
  Ce  Ce6  1  0.25000000  0.01099600  0.38977400  1
  Ce  Ce7  1  0.25000000  0.48751800  0.61421500  1
  Ag  Ag0  1  0.50000000  0.73740600  0.75000000  1
  Ag  Ag1  1  0.00000000  0.26259400  0.25000000  1
  Ag  Ag2  1  0.50000000  0.23526700  0.75000000  1
  Ag  Ag3  1  0.50000000  0.26259400  0.25000000  1
  Ag  Ag4  1  0.00000000  0.73740600  0.75000000  1
  Ag  Ag5  1  0.00000000  0.76473300  0.25000000  1
  Ag  Ag6  1  0.00000000  0.23526700  0.75000000  1
  Ag  Ag7  1  0.50000000  0.76473300  0.25000000  1
  As  As0  1  0.25000000  0.98746100  0.65750900  1
  As  As1  1  0.75000000  0.01253900  0.34249100  1
  As  As2  1  0.75000000  0.51187600  0.15809200  1
  As  As3  1  0.99138100  0.73128200  0.99970200  1
  As  As4  1  0.00861900  0.73128200  0.50029800  1
  As  As5  1  0.25000000  0.51187600  0.34190800  1
  As  As6  1  0.99138100  0.26871800  0.49970200  1
  As  As7  1  0.50861900  0.73128200  0.99970200  1
  As  As8  1  0.50861900  0.26871800  0.49970200  1
  As  As9  1  0.49138100  0.73128200  0.50029800  1
  As  As10  1  0.00861900  0.26871800  0.00029800  1
  As  As11  1  0.25000000  0.01253900  0.15750900  1
  As  As12  1  0.25000000  0.48812400  0.84190800  1
  As  As13  1  0.75000000  0.48812400  0.65809200  1
  As  As14  1  0.75000000  0.98746100  0.84249100  1
  As  As15  1  0.49138100  0.26871800  0.00029800  1
loop_
_geom_bond_atom_site_label_1
_geom_bond_atom_site_label_2
_geom_bond_distance
_geom_bond_site_symmetry_2
Ag0 As12 2.779437 1_555
Ag0 As13 2.779437 1_555
Ag0 As14 2.789896 1_555
Ag0 As0 2.789896 1_555
Ag0 Ag2 2.882380 1_565
Ag0 Ag4 2.885779 1_655
Ag0 Ag4 2.885779 1_555
Ag0 Ag2 2.907147 1_555
Ag0 Ce0 3.456356 1_555
Ag0 Ce7 3.456356 1_555
Ag0 Ce4 3.526820 1_555
Ag0 Ce2 3.526820 1_555
Ag1 As5 2.779437 1_555
Ag1 As2 2.779437 1_455
Ag1 As1 2.789896 1_455
Ag1 As11 2.789896 1_555
Ag1 Ag5 2.882380 1_545
Ag1 Ag3 2.885779 1_455
Ag1 Ag3 2.885779 1_555
Ag1 Ag5 2.907147 1_555
Ag1 Ce5 3.456356 1_555
Ag1 Ce1 3.456356 1_455
Ag1 Ce6 3.526820 1_555
Ag1 Ce3 3.526820 1_455
Ag2 As0 2.783162 1_545
Ag2 As14 2.783162 1_545
Ag2 As12 2.790241 1_555
Ag2 As13 2.790241 1_555
Ag2 Ag6 2.885779 1_655
Ag2 Ag6 2.885779 1_555
Ag2 Ce0 3.462105 1_555
Ag2 Ce7 3.462105 1_555
Ag2 Ce4 3.514175 1_545
Ag2 Ce2 3.514175 1_545
Ag3 As5 2.779437 1_555
Ag3 As2 2.779437 1_555
Ag3 As1 2.789896 1_555
Ag3 As11 2.789896 1_555
Ag3 Ag7 2.882380 1_545
Ag3 Ag7 2.907147 1_555
Ag3 Ce5 3.456356 1_555
Ag3 Ce1 3.456356 1_555
Ag3 Ce6 3.526820 1_555
Ag3 Ce3 3.526820 1_555
Ag4 As12 2.779437 1_555
Ag4 As13 2.779437 1_455
Ag4 As14 2.789896 1_455
Ag4 As0 2.789896 1_555
Ag4 Ag6 2.882380 1_565
Ag4 Ag6 2.907147 1_555
Ag4 Ce0 3.456356 1_455
Ag4 Ce7 3.456356 1_555
Ag4 Ce4 3.526820 1_555
Ag4 Ce2 3.526820 1_455
Ag5 As1 2.783162 1_465
Ag5 As11 2.783162 1_565
Ag5 As5 2.790241 1_555
Ag5 As2 2.790241 1_455
Ag5 Ag7 2.885779 1_455
Ag5 Ag7 2.885779 1_555
Ag5 Ce5 3.462105 1_555
Ag5 Ce1 3.462105 1_455
Ag5 Ce6 3.514175 1_565
Ag5 Ce3 3.514175 1_465
Ag6 As14 2.783162 1_445
Ag6 As0 2.783162 1_545
Ag6 As12 2.790241 1_555
Ag6 As13 2.790241 1_455
Ag6 Ce0 3.462105 1_455
Ag6 Ce7 3.462105 1_555
Ag6 Ce4 3.514175 1_545
Ag6 Ce2 3.514175 1_445
Ag7 As1 2.783162 1_565
Ag7 As11 2.783162 1_565
Ag7 As5 2.790241 1_555
Ag7 As2 2.790241 1_555
Ag7 Ce5 3.462105 1_555
Ag7 Ce1 3.462105 1_555
Ag7 Ce6 3.514175 1_565
Ag7 Ce3 3.514175 1_565
As0 Ce7 3.027836 1_555
As0 Ce7 3.028467 1_565
As0 Ce2 3.044691 1_555
As0 Ce2 3.044691 1_455
As1 Ce1 3.027836 1_555
As1 Ce1 3.028467 1_545
As1 Ce6 3.044691 1_555
As1 Ce6 3.044691 1_655
As2 Ce5 3.023112 1_655
As2 Ce5 3.023112 1_555
As2 Ce3 3.052197 1_565
As2 Ce3 3.061846 1_555
As3 Ce5 3.059384 1_656
As3 Ce0 3.066333 1_555
As3 Ce4 3.089945 1_655
As3 Ce3 3.116440 1_566
As4 Ce1 3.059384 1_455
As4 Ce7 3.066333 1_555
As4 Ce2 3.089945 1_455
As4 Ce6 3.116440 1_565
As5 Ce1 3.023112 1_555
As5 Ce1 3.023112 1_455
As5 Ce6 3.052197 1_565
As5 Ce6 3.061846 1_555
As6 Ce7 3.059384 1_655
As6 Ce1 3.066333 1_555
As6 Ce6 3.089945 1_655
As6 Ce2 3.116440 1_545
As7 Ce5 3.059384 1_556
As7 Ce0 3.066333 1_555
As7 Ce4 3.089945 1_555
As7 Ce3 3.116440 1_566
As8 Ce7 3.059384 1_555
As8 Ce1 3.066333 1_555
As8 Ce6 3.089945 1_555
As8 Ce2 3.116440 1_545
As9 Ce1 3.059384 1_555
As9 Ce7 3.066333 1_555
As9 Ce2 3.089945 1_555
As9 Ce6 3.116440 1_565
As10 Ce0 3.059384 1_454
As10 Ce5 3.066333 1_555
As10 Ce3 3.089945 1_455
As10 Ce4 3.116440 1_544
As11 Ce5 3.027836 1_555
As11 Ce5 3.028467 1_545
As11 Ce3 3.044691 1_455
As11 Ce3 3.044691 1_555
As12 Ce0 3.023112 1_555
As12 Ce0 3.023112 1_455
As12 Ce4 3.052197 1_545
As12 Ce4 3.061846 1_555
As13 Ce7 3.023112 1_655
As13 Ce7 3.023112 1_555
As13 Ce2 3.052197 1_545
As13 Ce2 3.061846 1_555
As14 Ce0 3.027836 1_555
As14 Ce0 3.028467 1_565
As14 Ce4 3.044691 1_555
As14 Ce4 3.044691 1_655
As15 Ce0 3.059384 1_554
As15 Ce5 3.066333 1_555
As15 Ce3 3.089945 1_555
As15 Ce4 3.116440 1_544
