# generated using pymatgen
data_Na4MnAl3Si3O16
_symmetry_space_group_name_H-M   'P 1'
_cell_length_a   9.26924500
_cell_length_b   9.16289400
_cell_length_c   9.21392357
_cell_angle_alpha   89.97985241
_cell_angle_beta   90.00000000
_cell_angle_gamma   90.00000000
_symmetry_Int_Tables_number   1
_chemical_formula_structural   Na4MnAl3Si3O16
_chemical_formula_sum   'Na8 Mn2 Al6 Si6 O32'
_cell_volume   782.56713012
_cell_formula_units_Z   2
loop_
 _symmetry_equiv_pos_site_id
 _symmetry_equiv_pos_as_xyz
  1  'x, y, z'
loop_
 _atom_site_type_symbol
 _atom_site_label
 _atom_site_symmetry_multiplicity
 _atom_site_fract_x
 _atom_site_fract_y
 _atom_site_fract_z
 _atom_site_occupancy
  Na  Na0  1  0.77455900  0.77308300  0.27217400  1
  Na  Na1  1  0.77455900  0.22691700  0.72782600  1
  Na  Na2  1  0.72622000  0.72495600  0.77673400  1
  Na  Na3  1  0.72622000  0.27504400  0.22326600  1
  Na  Na4  1  0.27081100  0.72859100  0.22795000  1
  Na  Na5  1  0.27081100  0.27140900  0.77205000  1
  Na  Na6  1  0.22097300  0.77678500  0.72351200  1
  Na  Na7  1  0.22097300  0.22321500  0.27648800  1
  Mn  Mn0  1  0.02978300  0.00000000  0.50000000  1
  Mn  Mn1  1  0.48067600  0.50000000  0.00000000  1
  Al  Al0  1  0.00187300  0.75065100  0.00083600  1
  Al  Al1  1  0.00187300  0.24934900  0.99916400  1
  Al  Al2  1  0.74951000  0.50000000  0.50000000  1
  Al  Al3  1  0.50172400  0.00053600  0.75069800  1
  Al  Al4  1  0.50172400  0.99946400  0.24930200  1
  Al  Al5  1  0.24944600  0.50000000  0.50000000  1
  Si  Si0  1  0.99883700  0.49995100  0.25116300  1
  Si  Si1  1  0.99883700  0.50004900  0.74883700  1
  Si  Si2  1  0.75127500  0.00000000  0.00000000  1
  Si  Si3  1  0.49978800  0.25028400  0.49873900  1
  Si  Si4  1  0.49978800  0.74971600  0.50126100  1
  Si  Si5  1  0.25325100  0.00000000  0.00000000  1
  O  O0  1  0.96336900  0.35623300  0.15200500  1
  O  O1  1  0.96336900  0.64376700  0.84799500  1
  O  O2  1  0.85209300  0.53609500  0.34398200  1
  O  O3  1  0.85209300  0.46390500  0.65601800  1
  O  O4  1  0.84870600  0.85611200  0.03727500  1
  O  O5  1  0.84870600  0.14388800  0.96272500  1
  O  O6  1  0.65702800  0.96473000  0.85406800  1
  O  O7  1  0.65702800  0.03527000  0.14593200  1
  O  O8  1  0.64278000  0.65252800  0.53921300  1
  O  O9  1  0.64278000  0.34747200  0.46078700  1
  O  O10  1  0.58079900  0.64517800  0.99484800  1
  O  O11  1  0.58079900  0.35482200  0.00515200  1
  O  O12  1  0.53995000  0.84600600  0.35694100  1
  O  O13  1  0.53995000  0.15399400  0.64305900  1
  O  O14  1  0.46291700  0.84562400  0.64640200  1
  O  O15  1  0.46291700  0.15437600  0.35359800  1
  O  O16  1  0.38018700  0.50336000  0.14305400  1
  O  O17  1  0.38018700  0.49664000  0.85694600  1
  O  O18  1  0.35448600  0.65522100  0.46450800  1
  O  O19  1  0.35448600  0.34477900  0.53549200  1
  O  O20  1  0.35150700  0.96105100  0.14156800  1
  O  O21  1  0.35150700  0.03894900  0.85843200  1
  O  O22  1  0.15638200  0.85491600  0.96282100  1
  O  O23  1  0.15638200  0.14508400  0.03717900  1
  O  O24  1  0.13917400  0.53910100  0.64963700  1
  O  O25  1  0.13917400  0.46089900  0.35036300  1
  O  O26  1  0.13154100  0.04115900  0.63708000  1
  O  O27  1  0.13154100  0.95884100  0.36292000  1
  O  O28  1  0.03608200  0.64662800  0.15686100  1
  O  O29  1  0.03608200  0.35337200  0.84313900  1
  O  O30  1  0.92934800  0.86152200  0.54086100  1
  O  O31  1  0.92934800  0.13847800  0.45913900  1
loop_
_geom_bond_atom_site_label_1
_geom_bond_atom_site_label_2
_geom_bond_distance
_geom_bond_site_symmetry_2
Na0 O2 2.380892 1_555
Na0 O4 2.394655 1_555
Na0 O12 2.405401 1_555
Na1 O3 2.380892 1_555
Na1 O5 2.394655 1_555
Na1 O13 2.405401 1_555
Na2 O6 2.397307 1_555
Na2 O1 2.411690 1_555
Na2 O8 2.414368 1_555
Na2 O10 2.527669 1_555
Na3 O7 2.397307 1_555
Na3 O0 2.411690 1_555
Na3 O9 2.414368 1_555
Na3 O11 2.527669 1_555
Na4 O28 2.393187 1_555
Na4 O20 2.393472 1_555
Na4 O18 2.408997 1_555
Na4 O16 2.428993 1_555
Na4 O27 2.768747 1_555
Na4 O22 2.903532 1_554
Na4 O25 2.962337 1_555
Na4 O12 2.965560 1_555
Na5 O29 2.393187 1_555
Na5 O21 2.393472 1_555
Na5 O19 2.408997 1_555
Na5 O17 2.428993 1_555
Na5 O26 2.768747 1_555
Na5 O23 2.903532 1_556
Na5 O24 2.962337 1_555
Na5 O13 2.965560 1_555
Na6 O22 2.394577 1_555
Na6 O24 2.404660 1_555
Na6 O14 2.435521 1_555
Na6 O26 2.681085 1_565
Na7 O23 2.394577 1_555
Na7 O25 2.404660 1_555
Na7 O15 2.435521 1_555
Na7 O27 2.681085 1_545
Mn0 O30 1.618052 1_445
Mn0 O31 1.618052 1_455
Mn0 O26 1.620960 1_555
Mn0 O27 1.620960 1_545
Mn1 O16 1.614294 1_555
Mn1 O17 1.614294 1_554
Mn1 O10 1.622677 1_554
Mn1 O11 1.622677 1_555
Al0 O4 1.749975 1_455
Al0 O1 1.752347 1_454
Al0 O28 1.753506 1_555
Al0 O22 1.756794 1_554
Al1 O5 1.749975 1_455
Al1 O0 1.752347 1_456
Al1 O29 1.753506 1_555
Al1 O23 1.756794 1_556
Al2 O8 1.750115 1_555
Al2 O9 1.750115 1_555
Al2 O2 1.754911 1_555
Al2 O3 1.754911 1_555
Al3 O21 1.745928 1_555
Al3 O14 1.751754 1_545
Al3 O13 1.756519 1_555
Al3 O6 1.756951 1_545
Al4 O20 1.745928 1_555
Al4 O15 1.751754 1_565
Al4 O12 1.756519 1_555
Al4 O7 1.756951 1_565
Al5 O24 1.753400 1_555
Al5 O25 1.753400 1_555
Al5 O18 1.754268 1_555
Al5 O19 1.754268 1_555
O0 Si0 1.636402 1_555
O1 Si1 1.636402 1_555
O2 Si0 1.640566 1_555
O3 Si1 1.640566 1_555
O4 Si2 1.634475 1_565
O5 Si2 1.634475 1_556
O6 Si2 1.635814 1_566
O7 Si2 1.635814 1_555
O8 Si4 1.634580 1_555
O9 Si3 1.634580 1_555
O12 Si4 1.638429 1_555
O13 Si3 1.638429 1_555
O14 Si4 1.636561 1_555
O15 Si3 1.636561 1_555
O18 Si4 1.636628 1_555
O19 Si3 1.636628 1_555
O20 Si5 1.630329 1_565
O21 Si5 1.630329 1_556
O22 Si5 1.640480 1_566
O23 Si5 1.640480 1_555
O24 Si1 1.629532 1_455
O25 Si0 1.629532 1_455
O28 Si0 1.636959 1_455
O29 Si1 1.636959 1_455
