# generated using pymatgen
data_Nb24I35Br9
_symmetry_space_group_name_H-M   'P 1'
_cell_length_a   11.51418400
_cell_length_b   13.63899023
_cell_length_c   15.37704491
_cell_angle_alpha   90.52955523
_cell_angle_beta   90.08625085
_cell_angle_gamma   90.44708753
_symmetry_Int_Tables_number   1
_chemical_formula_structural   Nb24I35Br9
_chemical_formula_sum   'Nb24 I35 Br9'
_cell_volume   2414.65981272
_cell_formula_units_Z   1
loop_
 _symmetry_equiv_pos_site_id
 _symmetry_equiv_pos_as_xyz
  1  'x, y, z'
loop_
 _atom_site_type_symbol
 _atom_site_label
 _atom_site_symmetry_multiplicity
 _atom_site_fract_x
 _atom_site_fract_y
 _atom_site_fract_z
 _atom_site_occupancy
  Nb  Nb0  1  0.92327600  0.62068700  0.55142900  1
  Nb  Nb1  1  0.92176300  0.11874900  0.94712300  1
  Nb  Nb2  1  0.89246700  0.52500600  0.39633900  1
  Nb  Nb3  1  0.89791200  0.01910800  0.10583600  1
  Nb  Nb4  1  0.86929100  0.91422100  0.94674800  1
  Nb  Nb5  1  0.87242500  0.41517700  0.55057100  1
  Nb  Nb6  1  0.63008700  0.41527100  0.94760600  1
  Nb  Nb7  1  0.63244100  0.90725400  0.54872100  1
  Nb  Nb8  1  0.60049500  0.52192000  0.10595700  1
  Nb  Nb9  1  0.60377100  0.01725600  0.39782900  1
  Nb  Nb10  1  0.57867000  0.12311600  0.54920100  1
  Nb  Nb11  1  0.57807800  0.61930300  0.94649500  1
  Nb  Nb12  1  0.43035500  0.38010400  0.05130600  1
  Nb  Nb13  1  0.42467100  0.87283400  0.45299200  1
  Nb  Nb14  1  0.39577600  0.97590600  0.60476100  1
  Nb  Nb15  1  0.40527900  0.47907900  0.89127000  1
  Nb  Nb16  1  0.37349000  0.08238100  0.45303100  1
  Nb  Nb17  1  0.37589500  0.58311700  0.04945600  1
  Nb  Nb18  1  0.12680900  0.58486900  0.45075400  1
  Nb  Nb19  1  0.12308300  0.08316100  0.04944200  1
  Nb  Nb20  1  0.09414500  0.97986400  0.89055000  1
  Nb  Nb21  1  0.09805200  0.48269600  0.60826900  1
  Nb  Nb22  1  0.06837500  0.87951200  0.04980200  1
  Nb  Nb23  1  0.07372900  0.38115500  0.45092700  1
  I  I0  1  0.96566100  0.72713300  0.39002000  1
  I  I1  1  0.95997300  0.22574600  0.11002000  1
  I  I2  1  0.90323200  0.51859800  0.71811000  1
  I  I3  1  0.89939900  0.01638100  0.78099200  1
  I  I4  1  0.85222100  0.31651800  0.38306400  1
  I  I5  1  0.84661100  0.81284200  0.11278400  1
  I  I6  1  0.80650500  0.05111300  0.50361600  1
  I  I7  1  0.80639600  0.55453000  0.99907600  1
  I  I8  1  0.69316700  0.05166600  0.99997600  1
  I  I9  1  0.69272600  0.55033900  0.50609400  1
  I  I10  1  0.65204900  0.31611800  0.11445500  1
  I  I11  1  0.64546700  0.80977100  0.38420400  1
  I  I12  1  0.60006700  0.51582300  0.78124100  1
  I  I13  1  0.59506300  0.01482800  0.71075800  1
  I  I14  1  0.53864000  0.22248000  0.38877200  1
  I  I15  1  0.53856700  0.72801000  0.10825600  1
  I  I16  1  0.46455700  0.27216300  0.88841400  1
  I  I17  1  0.46391300  0.77022900  0.61276600  1
  I  I18  1  0.40391200  0.48401300  0.21625700  1
  I  I19  1  0.40575100  0.97615600  0.28848500  1
  I  I20  1  0.35517200  0.68517800  0.88450700  1
  I  I21  1  0.35641900  0.18472800  0.61638100  1
  I  I22  1  0.32104200  0.20026100  0.12372900  1
  I  I23  1  0.30244100  0.44784900  0.50122600  1
  I  I24  1  0.29765500  0.94378400  0.99671000  1
  I  I25  1  0.19579100  0.94253700  0.49820000  1
  I  I26  1  0.20128900  0.44164900  0.99830000  1
  I  I27  1  0.17794000  0.70076500  0.12273300  1
  I  I28  1  0.17989100  0.20278600  0.37718700  1
  I  I29  1  0.14548300  0.18653600  0.88466900  1
  I  I30  1  0.14621600  0.68924300  0.61599200  1
  I  I31  1  0.09358300  0.98135000  0.21510300  1
  I  I32  1  0.08809900  0.48135700  0.28511600  1
  I  I33  1  0.03494800  0.77269400  0.88651500  1
  I  I34  1  0.03784700  0.27552000  0.61257200  1
  Br  Br0  1  0.81131300  0.29000200  0.88429800  1
  Br  Br1  1  0.81229300  0.79049900  0.61402700  1
  Br  Br2  1  0.74742400  0.05417200  0.25081500  1
  Br  Br3  1  0.74774700  0.56284600  0.25075800  1
  Br  Br4  1  0.68914400  0.79081500  0.88135600  1
  Br  Br5  1  0.68906200  0.29211100  0.61381700  1
  Br  Br6  1  0.31059000  0.70373100  0.38508600  1
  Br  Br7  1  0.24922500  0.94511700  0.74830300  1
  Br  Br8  1  0.25377600  0.44596500  0.74902600  1
loop_
_geom_bond_atom_site_label_1
_geom_bond_atom_site_label_2
_geom_bond_distance
_geom_bond_site_symmetry_2
I0 Nb18 2.857341 1_655
I0 Nb2 2.878998 1_555
I0 Nb0 2.926676 1_555
I1 Nb19 2.864540 1_655
I1 Nb3 2.902215 1_555
I1 Nb1 2.918338 1_554
I2 Nb21 2.852678 1_655
I2 Nb0 2.936670 1_555
I2 Nb5 2.945311 1_555
I3 Nb20 2.852343 1_645
I3 Nb1 2.910009 1_555
I3 Nb4 2.935808 1_545
I4 Nb2 2.882828 1_555
I4 Nb23 2.882882 1_655
I4 Nb5 2.903201 1_555
I5 Nb3 2.873077 1_565
I5 Nb22 2.876160 1_655
I5 Nb4 2.925789 1_554
I6 Nb9 2.875110 1_555
I6 Nb7 2.883690 1_545
I6 Nb10 2.893210 1_555
I7 Nb6 2.874415 1_555
I7 Nb11 2.896263 1_555
I7 Nb8 2.920334 1_556
I8 Nb4 2.886612 1_545
I8 Nb1 2.899685 1_555
I8 Nb3 2.902203 1_556
I9 Nb5 2.868073 1_555
I9 Nb2 2.875827 1_555
I9 Nb0 2.897543 1_555
I10 Nb12 2.874614 1_555
I10 Nb8 2.877647 1_555
I10 Nb6 2.922813 1_554
I11 Nb7 2.851692 1_555
I11 Nb9 2.879789 1_565
I11 Nb13 2.889164 1_555
I12 Nb15 2.855445 1_555
I12 Nb11 2.907671 1_555
I12 Nb6 2.935009 1_555
I13 Nb14 2.856134 1_545
I13 Nb10 2.908493 1_555
I13 Nb7 2.914057 1_545
I14 Nb10 2.864073 1_555
I14 Nb16 2.868339 1_555
I14 Nb9 2.907939 1_555
I15 Nb17 2.852233 1_555
I15 Nb8 2.905192 1_555
I15 Nb11 2.922017 1_554
I16 Nb6 2.859138 1_555
I16 Nb15 2.908614 1_555
I16 Nb12 2.922386 1_556
I17 Nb7 2.865514 1_555
I17 Nb13 2.875545 1_555
I17 Nb14 2.922395 1_555
I18 Nb8 2.876964 1_555
I18 Nb12 2.911603 1_555
I18 Nb17 2.928864 1_555
I19 Nb9 2.879403 1_565
I19 Nb13 2.915714 1_555
I19 Nb16 2.929598 1_565
I20 Nb15 2.876774 1_555
I20 Nb11 2.889223 1_555
I20 Nb17 2.914913 1_556
I21 Nb16 2.870104 1_555
I21 Nb10 2.889195 1_555
I21 Nb14 2.891376 1_545
I22 Nb12 2.974484 1_555
I22 Nb19 2.992105 1_555
I23 Nb18 2.874963 1_555
I23 Nb23 2.881685 1_555
I23 Nb21 2.913459 1_555
I24 Nb19 2.889207 1_566
I24 Nb22 2.896204 1_556
I24 Nb20 2.901574 1_555
I25 Nb14 2.855325 1_555
I25 Nb16 2.876552 1_565
I25 Nb13 2.892162 1_555
I26 Nb17 2.879273 1_556
I26 Nb12 2.892427 1_556
I26 Nb15 2.914534 1_555
I27 Nb22 2.981101 1_555
I27 Nb17 3.011799 1_555
I28 Nb23 2.949220 1_555
I28 Nb16 3.018398 1_555
I29 Nb20 2.877861 1_545
I29 Nb1 2.898155 1_455
I29 Nb19 2.921729 1_556
I30 Nb21 2.868257 1_555
I30 Nb0 2.896027 1_455
I30 Nb18 2.908426 1_555
I31 Nb3 2.861288 1_465
I31 Nb22 2.898389 1_555
I31 Nb19 2.931440 1_565
I32 Nb2 2.892600 1_455
I32 Nb23 2.908291 1_555
I32 Nb18 2.932483 1_555
I33 Nb4 2.872592 1_455
I33 Nb20 2.901546 1_555
I33 Nb22 2.914766 1_556
I34 Nb5 2.872237 1_455
I34 Nb21 2.905575 1_555
I34 Nb23 2.912866 1_555
Br0 Nb1 2.844389 1_555
Br0 Nb6 2.872629 1_555
Br1 Nb7 2.812014 1_555
Br1 Nb0 2.816444 1_555
Br2 Nb9 2.849417 1_555
Br2 Nb3 2.864607 1_555
Br3 Nb2 2.842169 1_555
Br3 Nb8 2.845161 1_555
Br4 Nb4 2.838043 1_555
Br4 Nb11 2.848032 1_555
Br5 Nb10 2.797084 1_555
Br5 Nb5 2.863863 1_555
Br6 Nb13 2.835363 1_555
Br6 Nb18 2.847594 1_555
Br7 Nb14 2.812999 1_555
Br7 Nb20 2.864138 1_555
Br8 Nb15 2.826523 1_555
Br8 Nb21 2.858858 1_555
