# generated using pymatgen
data_SiO2
_symmetry_space_group_name_H-M   'P 1'
_cell_length_a   7.20953800
_cell_length_b   9.85163800
_cell_length_c   20.54099500
_cell_angle_alpha   90.00000000
_cell_angle_beta   90.00000000
_cell_angle_gamma   90.00000000
_symmetry_Int_Tables_number   1
_chemical_formula_structural   SiO2
_chemical_formula_sum   'Si24 O48'
_cell_volume   1458.93975070
_cell_formula_units_Z   24
loop_
 _symmetry_equiv_pos_site_id
 _symmetry_equiv_pos_as_xyz
  1  'x, y, z'
loop_
 _atom_site_type_symbol
 _atom_site_label
 _atom_site_symmetry_multiplicity
 _atom_site_fract_x
 _atom_site_fract_y
 _atom_site_fract_z
 _atom_site_occupancy
  Si  Si0  1  0.51764900  0.16136300  0.18849200  1
  Si  Si1  1  0.48235100  0.83863700  0.18849200  1
  Si  Si2  1  0.51764900  0.33863700  0.31150800  1
  Si  Si3  1  0.48235100  0.66136300  0.31150800  1
  Si  Si4  1  0.48235100  0.83863700  0.81150800  1
  Si  Si5  1  0.51764900  0.16136300  0.81150800  1
  Si  Si6  1  0.48235100  0.66136300  0.68849200  1
  Si  Si7  1  0.51764900  0.33863700  0.68849200  1
  Si  Si8  1  0.24112100  0.14608900  0.07371500  1
  Si  Si9  1  0.75887900  0.85391100  0.07371500  1
  Si  Si10  1  0.24112100  0.35391100  0.42628500  1
  Si  Si11  1  0.75887900  0.64608900  0.42628500  1
  Si  Si12  1  0.75887900  0.85391100  0.92628500  1
  Si  Si13  1  0.24112100  0.14608900  0.92628500  1
  Si  Si14  1  0.75887900  0.64608900  0.57371500  1
  Si  Si15  1  0.24112100  0.35391100  0.57371500  1
  Si  Si16  1  0.88150500  0.11195600  0.13096500  1
  Si  Si17  1  0.11849500  0.88804400  0.13096500  1
  Si  Si18  1  0.88150500  0.38804400  0.36903500  1
  Si  Si19  1  0.11849500  0.61195600  0.36903500  1
  Si  Si20  1  0.11849500  0.88804400  0.86903500  1
  Si  Si21  1  0.88150500  0.11195600  0.86903500  1
  Si  Si22  1  0.11849500  0.61195600  0.63096500  1
  Si  Si23  1  0.88150500  0.38804400  0.63096500  1
  O  O0  1  0.50000000  0.00000000  0.20495500  1
  O  O1  1  0.50000000  0.50000000  0.29504500  1
  O  O2  1  0.50000000  0.00000000  0.79504500  1
  O  O3  1  0.50000000  0.50000000  0.70495500  1
  O  O4  1  0.60372200  0.79866300  0.12433900  1
  O  O5  1  0.39627800  0.20133700  0.12433900  1
  O  O6  1  0.60372200  0.70133700  0.37566100  1
  O  O7  1  0.39627800  0.29866300  0.37566100  1
  O  O8  1  0.39627800  0.20133700  0.87566100  1
  O  O9  1  0.60372200  0.79866300  0.87566100  1
  O  O10  1  0.39627800  0.29866300  0.62433900  1
  O  O11  1  0.60372200  0.70133700  0.62433900  1
  O  O12  1  0.00000000  0.00000000  0.17451800  1
  O  O13  1  0.00000000  0.50000000  0.32548200  1
  O  O14  1  0.00000000  0.00000000  0.82548200  1
  O  O15  1  0.00000000  0.50000000  0.67451800  1
  O  O16  1  0.73685300  0.19792900  0.17473000  1
  O  O17  1  0.26314700  0.80207100  0.17473000  1
  O  O18  1  0.73685300  0.30207100  0.32527000  1
  O  O19  1  0.26314700  0.69792900  0.32527000  1
  O  O20  1  0.26314700  0.80207100  0.82527000  1
  O  O21  1  0.73685300  0.19792900  0.82527000  1
  O  O22  1  0.26314700  0.69792900  0.67473000  1
  O  O23  1  0.73685300  0.30207100  0.67473000  1
  O  O24  1  0.55442400  0.75000000  0.25000000  1
  O  O25  1  0.44557600  0.25000000  0.25000000  1
  O  O26  1  0.44557600  0.25000000  0.75000000  1
  O  O27  1  0.55442400  0.75000000  0.75000000  1
  O  O28  1  0.96454800  0.79345500  0.09382500  1
  O  O29  1  0.03545200  0.20654500  0.09382500  1
  O  O30  1  0.96454800  0.70654500  0.40617500  1
  O  O31  1  0.03545200  0.29345500  0.40617500  1
  O  O32  1  0.03545200  0.20654500  0.90617500  1
  O  O33  1  0.96454800  0.79345500  0.90617500  1
  O  O34  1  0.03545200  0.29345500  0.59382500  1
  O  O35  1  0.96454800  0.70654500  0.59382500  1
  O  O36  1  0.23473100  0.97896400  0.07733100  1
  O  O37  1  0.76526900  0.02103600  0.07733100  1
  O  O38  1  0.23473100  0.52103600  0.42266900  1
  O  O39  1  0.76526900  0.47896400  0.42266900  1
  O  O40  1  0.76526900  0.02103600  0.92266900  1
  O  O41  1  0.23473100  0.97896400  0.92266900  1
  O  O42  1  0.76526900  0.47896400  0.57733100  1
  O  O43  1  0.23473100  0.52103600  0.57733100  1
  O  O44  1  0.29219900  0.19213700  0.00000000  1
  O  O45  1  0.70780100  0.80786300  0.00000000  1
  O  O46  1  0.29219900  0.30786300  0.50000000  1
  O  O47  1  0.70780100  0.69213700  0.50000000  1
loop_
_geom_bond_atom_site_label_1
_geom_bond_atom_site_label_2
_geom_bond_distance
_geom_bond_site_symmetry_2
O0 Si0 1.630233 1_555
O0 Si1 1.630233 1_545
O1 Si2 1.630233 1_555
O1 Si3 1.630233 1_555
O2 Si5 1.630233 1_555
O2 Si4 1.630233 1_545
O3 Si7 1.630233 1_555
O3 Si6 1.630233 1_555
O4 Si9 1.621375 1_555
O4 Si1 1.630113 1_555
O5 Si8 1.621375 1_555
O5 Si0 1.630113 1_555
O6 Si11 1.621375 1_555
O6 Si3 1.630113 1_555
O7 Si10 1.621375 1_555
O7 Si2 1.630113 1_555
O8 Si13 1.621375 1_555
O8 Si5 1.630113 1_555
O9 Si12 1.621375 1_555
O9 Si4 1.630113 1_555
O10 Si15 1.621375 1_555
O10 Si7 1.630113 1_555
O11 Si14 1.621375 1_555
O11 Si6 1.630113 1_555
O12 Si16 1.657307 1_455
O12 Si17 1.657307 1_545
O13 Si18 1.657307 1_455
O13 Si19 1.657307 1_555
O14 Si21 1.657307 1_455
O14 Si20 1.657307 1_545
O15 Si23 1.657307 1_455
O15 Si22 1.657307 1_555
O16 Si16 1.616512 1_555
O16 Si0 1.645362 1_555
O17 Si17 1.616512 1_555
O17 Si1 1.645362 1_555
O18 Si18 1.616512 1_555
O18 Si2 1.645362 1_555
O19 Si19 1.616512 1_555
O19 Si3 1.645362 1_555
O20 Si20 1.616512 1_555
O20 Si4 1.645362 1_555
O21 Si21 1.616512 1_555
O21 Si5 1.645362 1_555
O22 Si22 1.616512 1_555
O22 Si6 1.645362 1_555
O23 Si23 1.616512 1_555
O23 Si7 1.645362 1_555
O24 Si3 1.621351 1_555
O24 Si1 1.621351 1_555
O25 Si0 1.621351 1_555
O25 Si2 1.621351 1_555
O26 Si5 1.621351 1_555
O26 Si7 1.621351 1_555
O27 Si4 1.621351 1_555
O27 Si6 1.621351 1_555
O28 Si17 1.637746 1_655
O28 Si9 1.650453 1_555
O29 Si16 1.637746 1_455
O29 Si8 1.650453 1_555
O30 Si19 1.637746 1_655
O30 Si11 1.650453 1_555
O31 Si18 1.637746 1_455
O31 Si10 1.650453 1_555
O32 Si21 1.637746 1_455
O32 Si13 1.650453 1_555
O33 Si20 1.637746 1_655
O33 Si12 1.650453 1_555
O34 Si23 1.637746 1_455
O34 Si15 1.650453 1_555
O35 Si22 1.637746 1_655
O35 Si14 1.650453 1_555
O36 Si17 1.648723 1_555
O36 Si8 1.648773 1_565
O37 Si16 1.648723 1_555
O37 Si9 1.648773 1_545
O38 Si19 1.648723 1_555
O38 Si10 1.648773 1_555
O39 Si18 1.648723 1_555
O39 Si11 1.648773 1_555
O40 Si21 1.648723 1_555
O40 Si12 1.648773 1_545
O41 Si20 1.648723 1_555
O41 Si13 1.648773 1_565
O42 Si23 1.648723 1_555
O42 Si14 1.648773 1_555
O43 Si22 1.648723 1_555
O43 Si15 1.648773 1_555
O44 Si13 1.623004 1_554
O44 Si8 1.623004 1_555
O45 Si12 1.623004 1_554
O45 Si9 1.623004 1_555
O46 Si10 1.623004 1_555
O46 Si15 1.623004 1_555
O47 Si11 1.623004 1_555
O47 Si14 1.623004 1_555
