# generated using pymatgen
data_MgTaZn
_symmetry_space_group_name_H-M   'P 1'
_cell_length_a   4.35033588
_cell_length_b   4.35033588
_cell_length_c   4.35033588
_cell_angle_alpha   60.00000000
_cell_angle_beta   60.00000000
_cell_angle_gamma   60.00000000
_symmetry_Int_Tables_number   1
_chemical_formula_structural   MgTaZn
_chemical_formula_sum   'Mg1 Ta1 Zn1'
_cell_volume   58.21747552
_cell_formula_units_Z   1
loop_
 _symmetry_equiv_pos_site_id
 _symmetry_equiv_pos_as_xyz
  1  'x, y, z'
loop_
 _atom_site_type_symbol
 _atom_site_label
 _atom_site_symmetry_multiplicity
 _atom_site_fract_x
 _atom_site_fract_y
 _atom_site_fract_z
 _atom_site_occupancy
  Mg  Mg0  1  0.00000000  0.00000000  0.00000000  1
  Ta  Ta0  1  0.50000000  0.50000000  0.50000000  1
  Zn  Zn0  1  0.75000000  0.75000000  0.75000000  1
loop_
_geom_bond_atom_site_label_1
_geom_bond_atom_site_label_2
_geom_bond_distance
_geom_bond_site_symmetry_2
Mg0 Zn0 2.664026 1_454
Mg0 Zn0 2.664026 1_445
Mg0 Zn0 2.664026 1_544
Mg0 Zn0 2.664026 1_444
Mg0 Ta0 3.076152 1_544
Mg0 Ta0 3.076152 1_545
Mg0 Ta0 3.076152 1_445
Mg0 Ta0 3.076152 1_554
Mg0 Ta0 3.076152 1_455
Mg0 Ta0 3.076152 1_454
Ta0 Zn0 2.664026 1_455
Ta0 Zn0 2.664026 1_555
Ta0 Zn0 2.664026 1_545
Ta0 Zn0 2.664026 1_554
