# generated using pymatgen
data_La5(Mo16O27)2
_symmetry_space_group_name_H-M   'P 1'
_cell_length_a   9.43992502
_cell_length_b   11.21259141
_cell_length_c   24.90347661
_cell_angle_alpha   100.63927570
_cell_angle_beta   90.00085944
_cell_angle_gamma   89.99828458
_symmetry_Int_Tables_number   1
_chemical_formula_structural   La5(Mo16O27)2
_chemical_formula_sum   'La10 Mo64 O108'
_cell_volume   2590.61965238
_cell_formula_units_Z   2
loop_
 _symmetry_equiv_pos_site_id
 _symmetry_equiv_pos_as_xyz
  1  'x, y, z'
loop_
 _atom_site_type_symbol
 _atom_site_label
 _atom_site_symmetry_multiplicity
 _atom_site_fract_x
 _atom_site_fract_y
 _atom_site_fract_z
 _atom_site_occupancy
  La  La0  1  0.48178986  0.46256103  0.30197938  1
  La  La1  1  0.01818852  0.96243265  0.80191203  1
  La  La2  1  0.48982334  0.14539926  0.59162600  1
  La  La3  1  0.01018543  0.64534125  0.09167738  1
  La  La4  1  0.49997612  0.00002180  0.00001346  1
  La  La5  1  0.51824750  0.53739643  0.69796932  1
  La  La6  1  0.51021501  0.85467148  0.40839547  1
  La  La7  1  0.98983571  0.35462443  0.90831183  1
  La  La8  1  -0.00022486  0.49962293  0.49989743  1
  La  La9  1  0.98183814  0.03757115  0.19811032  1
  Mo  Mo0  1  0.63304273  0.03504442  0.70071653  1
  Mo  Mo1  1  0.86150857  0.85336118  0.02231535  1
  Mo  Mo2  1  0.37088125  0.01715522  0.85809411  1
  Mo  Mo3  1  0.36560784  0.72806964  0.82535608  1
  Mo  Mo4  1  0.13907170  0.68460212  0.25798342  1
  Mo  Mo5  1  0.62557975  0.45813256  0.85566742  1
  Mo  Mo6  1  0.64776138  0.41703793  0.07754697  1
  Mo  Mo7  1  0.64429738  0.69723789  0.11395797  1
  Mo  Mo8  1  0.13437626  0.22810223  0.32538045  1
  Mo  Mo9  1  0.13543730  0.21388230  0.54443589  1
  Mo  Mo10  1  0.63542400  0.28610087  0.95556621  1
  Mo  Mo11  1  0.14773767  0.08297486  0.42247052  1
  Mo  Mo12  1  0.14433074  0.80276521  0.38606915  1
  Mo  Mo13  1  0.34988261  0.36077100  0.44780006  1
  Mo  Mo14  1  0.63907200  0.81541500  0.24205823  1
  Mo  Mo15  1  0.35599858  0.48651092  0.57506050  1
  Mo  Mo16  1  0.85476096  0.36944303  0.29982992  1
  Mo  Mo17  1  0.65015962  0.63923281  0.55218875  1
  Mo  Mo18  1  0.12927947  0.27906299  0.10461928  1
  Mo  Mo19  1  0.62928654  0.22096715  0.39541599  1
  Mo  Mo20  1  0.86559469  0.77189183  0.67459333  1
  Mo  Mo21  1  0.84985337  0.13922596  0.05221394  1
  Mo  Mo22  1  0.87069756  0.72093036  0.89538919  1
  Mo  Mo23  1  0.13497750  0.39444744  0.23159617  1
  Mo  Mo24  1  0.86095222  0.31538377  0.74201556  1
  Mo  Mo25  1  0.63497702  0.10555127  0.26843697  1
  Mo  Mo26  1  0.85568858  0.19722704  0.61392059  1
  Mo  Mo27  1  0.62913914  0.98284459  0.14191894  1
  Mo  Mo28  1  0.85602974  0.01348693  0.92491994  1
  Mo  Mo29  1  0.12558632  0.04184619  0.64430186  1
  Mo  Mo30  1  0.85163992  0.65979182  0.32775143  1
  Mo  Mo31  1  0.14766859  0.92178332  0.51457449  1
  Mo  Mo32  1  0.63845331  0.35340870  0.52233149  1
  Mo  Mo33  1  0.35159677  0.84022450  0.17228341  1
  Mo  Mo34  1  0.85222935  0.91707218  0.57751716  1
  Mo  Mo35  1  0.35570441  0.30277013  0.88605737  1
  Mo  Mo36  1  0.36148974  0.64658489  0.47767137  1
  Mo  Mo37  1  0.37444235  0.54188534  0.14435041  1
  Mo  Mo38  1  0.14840409  0.34019432  0.67223857  1
  Mo  Mo39  1  0.12913699  0.51715836  0.35811919  1
  Mo  Mo40  1  0.64523443  0.86941797  0.79977819  1
  Mo  Mo41  1  0.87445410  0.95809486  0.35567215  1
  Mo  Mo42  1  0.86696797  0.53506734  0.20076820  1
  Mo  Mo43  1  0.14525089  0.63056897  0.70017207  1
  Mo  Mo44  1  0.64397108  0.51350641  0.42492993  1
  Mo  Mo45  1  0.63438597  0.27191394  0.17465729  1
  Mo  Mo46  1  0.86499192  0.60555714  0.76840656  1
  Mo  Mo47  1  0.36503776  0.89442788  0.73155251  1
  Mo  Mo48  1  0.13848198  0.14664287  0.97769929  1
  Mo  Mo49  1  0.36696672  0.96494233  0.29927623  1
  Mo  Mo50  1  0.36093736  0.18459401  0.75795061  1
  Mo  Mo51  1  0.15016469  0.86076751  0.94779793  1
  Mo  Mo52  1  0.35223951  0.58296940  0.92246675  1
  Mo  Mo53  1  0.35477796  0.13057435  0.20021943  1
  Mo  Mo54  1  0.14396373  0.98651873  0.07509267  1
  Mo  Mo55  1  0.85226223  0.07827643  0.48539508  1
  Mo  Mo56  1  0.35227626  0.42175051  0.01459938  1
  Mo  Mo57  1  0.87090793  0.48284975  0.64188398  1
  Mo  Mo58  1  0.36457688  0.71390152  0.04445082  1
  Mo  Mo59  1  0.37069763  0.77905445  0.60456401  1
  Mo  Mo60  1  0.64842224  0.15978715  0.82772751  1
  Mo  Mo61  1  0.86454915  0.78610404  0.45556405  1
  Mo  Mo62  1  0.13301758  0.46495745  0.79923962  1
  Mo  Mo63  1  0.64772190  0.57824857  0.98541685  1
  O  O0  1  0.00550155  0.40858854  0.16423141  1
  O  O1  1  0.47929711  0.58098349  0.84976248  1
  O  O2  1  0.27395745  0.80540120  0.45685833  1
  O  O3  1  0.21741716  0.37181190  0.52009828  1
  O  O4  1  0.49951026  0.16659415  0.68851074  1
  O  O5  1  0.49024553  0.74460741  0.75555758  1
  O  O6  1  0.28411124  0.94645539  0.37568063  1
  O  O7  1  0.71042004  0.98933676  0.06316480  1
  O  O8  1  0.97931181  0.91899742  0.65019094  1
  O  O9  1  0.49928499  0.34930223  0.59117554  1
  O  O10  1  0.22219699  0.98838218  0.15672191  1
  O  O11  1  0.50229564  0.13561520  0.13640666  1
  O  O12  1  0.78266605  0.62811861  0.47988264  1
  O  O13  1  0.74484420  0.83796766  0.16717183  1
  O  O14  1  0.72222723  0.51166405  0.34332596  1
  O  O15  1  0.50050537  0.83338727  0.31149212  1
  O  O16  1  0.77349878  0.96112803  0.28061707  1
  O  O17  1  0.00358130  0.26024176  0.03206910  1
  O  O18  1  0.74673253  0.06487740  0.40953165  1
  O  O19  1  0.78956335  0.48934199  0.56314597  1
  O  O20  1  0.50549746  0.09144817  0.33582198  1
  O  O21  1  0.25516282  0.16204102  0.83284916  1
  O  O22  1  0.99022708  0.75537270  0.74438211  1
  O  O23  1  0.50358366  0.23972255  0.46796713  1
  O  O24  1  -0.00142467  0.80586680  0.31783383  1
  O  O25  1  0.49446738  0.90855618  0.66416106  1
  O  O26  1  0.21588051  0.44641512  0.87560336  1
  O  O27  1  0.99445431  0.59143905  0.83576813  1
  O  O28  1  0.50977013  0.25538189  0.24444988  1
  O  O29  1  0.25122107  0.37993700  0.30571765  1
  O  O30  1  0.25058935  0.13581277  0.05090682  1
  O  O31  1  -0.00033704  0.12147805  0.11739689  1
  O  O32  1  0.49642590  0.76022758  0.53201282  1
  O  O33  1  -0.00225993  0.63558659  0.63635064  1
  O  O34  1  -0.00070855  0.15076285  0.90887884  1
  O  O35  1  0.75793471  0.73117590  0.82260794  1
  O  O36  1  0.27776481  0.48836451  0.65667874  1
  O  O37  1  0.00975343  0.24463846  0.25560154  1
  O  O38  1  0.77781392  0.01162280  0.84328391  1
  O  O39  1  0.74624552  0.65778319  0.25326317  1
  O  O40  1  0.50074309  0.65078138  0.40888007  1
  O  O41  1  0.74942836  0.86418060  0.94911032  1
  O  O42  1  0.75911356  0.77290927  0.60616128  1
  O  O43  1  0.77393997  0.69460451  0.04316217  1
  O  O44  1  0.28957872  0.01065768  0.93684506  1
  O  O45  1  0.50964612  0.29403746  0.02565378  1
  O  O46  1  0.24676689  0.43512849  0.09048615  1
  O  O47  1  0.99345862  0.66144342  0.39818404  1
  O  O48  1  0.78410003  0.55357229  0.12439588  1
  O  O49  1  0.02070590  0.08097940  0.34977776  1
  O  O50  1  0.74207634  0.23119118  0.32265719  1
  O  O51  1  0.24206886  0.26882213  0.17739991  1
  O  O52  1  0.25979499  0.07615830  0.49732110  1
  O  O53  1  0.50032782  0.62150606  0.61734254  1
  O  O54  1  0.72652093  0.46110408  0.78056178  1
  O  O55  1  -0.00962545  0.79413992  0.52562431  1
  O  O56  1  0.75514190  0.33797352  0.66711335  1
  O  O57  1  0.24418766  0.19000070  0.62086743  1
  O  O58  1  0.25913312  0.72710550  0.89378444  1
  O  O59  1  0.71587431  0.05362160  0.62435142  1
  O  O60  1  0.99641112  0.73976632  0.96794589  1
  O  O61  1  0.49343278  0.83858501  0.10185969  1
  O  O62  1  -0.00049162  0.33338420  0.81142739  1
  O  O63  1  0.75583404  0.80999615  0.37909980  1
  O  O64  1  0.24625115  0.84222963  0.24681162  1
  O  O65  1  0.49854639  0.69413985  0.18221611  1
  O  O66  1  0.25321243  0.93507271  0.59042267  1
  O  O67  1  0.24015663  0.09916281  0.27124367  1
  O  O68  1  0.25981376  0.59916213  0.77118958  1
  O  O69  1  0.25371481  0.34220386  0.74674297  1
  O  O70  1  0.25794161  0.76882189  0.67732749  1
  O  O71  1  0.22606523  0.30540166  0.95685237  1
  O  O72  1  0.49035653  0.70593759  0.97437013  1
  O  O73  1  0.49773621  0.86439294  0.86359073  1
  O  O74  1  0.74008801  0.92382282  0.50264896  1
  O  O75  1  0.75322357  0.56488820  0.90953163  1
  O  O76  1  0.00654159  0.33857358  0.60179483  1
  O  O77  1  0.24018041  0.57616764  0.99733867  1
  O  O78  1  0.28259204  0.87189682  0.02011605  1
  O  O79  1  0.74017958  0.40086011  0.22881577  1
  O  O80  1  0.27348968  0.53889081  0.21944032  1
  O  O81  1  0.00034371  0.87852225  0.88262190  1
  O  O82  1  0.50657647  0.16142222  0.89815987  1
  O  O83  1  0.24086564  0.22704433  0.39381637  1
  O  O84  1  0.21039977  0.51064232  0.43686768  1
  O  O85  1  0.00145439  0.19411295  0.68214323  1
  O  O86  1  0.00963134  0.20607794  0.47434547  1
  O  O87  1  0.52072765  0.41901456  0.15026156  1
  O  O88  1  0.00228241  0.36441540  0.36367150  1
  O  O89  1  0.50146331  0.30587678  0.81780559  1
  O  O90  1  0.75124512  0.12006828  0.19433661  1
  O  O91  1  0.22651098  0.03886129  0.71938139  1
  O  O92  1  0.71740128  0.12811553  0.97990330  1
  O  O93  1  0.49970797  0.37855775  0.38262835  1
  O  O94  1  0.24488438  0.66203963  0.33288001  1
  O  O95  1  0.24877576  0.87993355  0.80566605  1
  O  O96  1  0.72602629  0.19456369  0.54313344  1
  O  O97  1  0.24946802  0.63585961  0.55088042  1
  O  O98  1  0.75065236  0.36420231  0.44912764  1
  O  O99  1  0.74876428  0.62005360  0.69426811  1
  O  O100  1  0.25583258  0.69003384  0.12092974  1
  O  O101  1  0.75980389  0.42383745  0.00268159  1
  O  O102  1  0.00070850  0.84921969  0.09112410  1
  O  O103  1  0.74417072  0.30996135  0.87909342  1
  O  O104  1  0.00049065  0.66664511  0.18859079  1
  O  O105  1  0.75984218  0.90081372  0.72875254  1
  O  O106  1  0.75371304  0.15777126  0.75319525  1
  O  O107  1  0.74087853  0.27290932  0.10622860  1
loop_
_geom_bond_atom_site_label_1
_geom_bond_atom_site_label_2
_geom_bond_distance
_geom_bond_site_symmetry_2
La0 O29 2.374087 1_555
La0 O93 2.376575 1_555
La0 O28 2.507948 1_555
La0 O14 2.511099 1_555
La0 O79 3.046734 1_555
La0 O80 3.077899 1_555
La0 O40 3.081992 1_555
La0 O94 3.156016 1_555
La1 O95 2.373681 1_555
La1 O81 2.377352 1_555
La1 O22 2.506847 1_455
La1 O38 2.510935 1_465
La1 O105 3.046232 1_455
La1 O91 3.078400 1_565
La1 O34 3.083819 1_565
La1 O21 3.157623 1_565
La2 O9 2.290123 1_555
La2 O4 2.382132 1_555
La2 O57 2.454109 1_555
La2 O59 2.566360 1_555
La2 O96 2.641963 1_555
La3 O102 2.290335 1_555
La3 O104 2.382741 1_555
La3 O100 2.454442 1_555
La3 O48 2.566589 1_455
La3 O43 2.642848 1_455
La4 O44 2.550060 1_554
La4 O7 2.550225 1_545
La4 O78 2.606017 1_545
La4 O92 2.606173 1_554
La4 O30 2.958735 1_555
La4 O41 2.959553 1_544
La5 O99 2.373682 1_555
La5 O53 2.376728 1_555
La5 O5 2.508849 1_555
La5 O36 2.510856 1_555
La5 O68 3.047937 1_555
La5 O54 3.078526 1_555
La5 O9 3.079291 1_555
La5 O56 3.155402 1_555
La6 O40 2.290144 1_555
La6 O15 2.382514 1_555
La6 O63 2.454435 1_555
La6 O6 2.566703 1_555
La6 O2 2.642380 1_555
La7 O34 2.290203 1_655
La7 O62 2.382077 1_655
La7 O103 2.454333 1_555
La7 O26 2.566285 1_655
La7 O71 2.642901 1_655
La8 O19 2.549350 1_455
La8 O84 2.550310 1_555
La8 O12 2.605695 1_455
La8 O3 2.606513 1_555
La8 O98 2.953961 1_455
La8 O97 2.963999 1_555
La9 O90 2.373777 1_555
La9 O31 2.377399 1_655
La9 O37 2.506483 1_655
La9 O10 2.510951 1_645
La9 O67 3.045624 1_655
La9 O16 3.078139 1_545
La9 O102 3.084287 1_645
La9 O13 3.157722 1_545
Mo0 O4 2.005603 1_555
Mo0 O25 2.018607 1_545
Mo0 O106 2.057956 1_555
Mo0 O59 2.101856 1_555
Mo0 O105 2.138543 1_545
Mo1 O60 2.107240 1_554
Mo1 O43 2.112549 1_555
Mo1 O41 2.130560 1_554
Mo1 O102 2.166681 1_655
Mo1 O7 2.195642 1_555
Mo2 O73 2.114968 1_545
Mo2 O44 2.119753 1_555
Mo2 O21 2.145850 1_555
Mo2 O82 2.158046 1_555
Mo2 O95 2.158459 1_545
Mo3 O58 1.980201 1_555
Mo3 O68 2.046033 1_555
Mo3 O73 2.064325 1_555
Mo3 O5 2.135233 1_555
Mo3 O1 2.147359 1_555
Mo3 O95 2.159738 1_555
Mo4 O64 2.099168 1_555
Mo4 O104 2.147038 1_555
Mo4 O80 2.149785 1_555
Mo4 O94 2.171361 1_555
Mo4 O24 2.254093 1_555
Mo5 O1 1.974999 1_555
Mo5 O75 2.022681 1_555
Mo5 O54 2.104879 1_555
Mo5 O89 2.140558 1_555
Mo5 O103 2.170611 1_555
Mo6 O107 2.078609 1_555
Mo6 O45 2.148019 1_555
Mo6 O101 2.157094 1_555
Mo6 O48 2.168374 1_555
Mo6 O87 2.168629 1_555
Mo7 O13 2.091625 1_555
Mo7 O48 2.135089 1_555
Mo7 O43 2.141921 1_555
Mo7 O65 2.192183 1_555
Mo7 O61 2.192477 1_555
Mo8 O83 1.980580 1_555
Mo8 O67 2.045766 1_555
Mo8 O88 2.064472 1_555
Mo8 O37 2.134712 1_555
Mo8 O49 2.147570 1_555
Mo8 O29 2.159335 1_555
Mo9 O86 2.099606 1_555
Mo9 O52 2.114324 1_555
Mo9 O3 2.120937 1_555
Mo9 O76 2.176737 1_555
Mo9 O57 2.221869 1_555
Mo10 O45 2.099259 1_556
Mo10 O101 2.114567 1_556
Mo10 O92 2.121432 1_555
Mo10 O82 2.177067 1_555
Mo10 O103 2.222724 1_555
Mo11 O83 2.077812 1_555
Mo11 O86 2.148333 1_555
Mo11 O52 2.156849 1_555
Mo11 O6 2.167836 1_545
Mo11 O49 2.168106 1_555
Mo12 O94 2.091296 1_555
Mo12 O6 2.134918 1_555
Mo12 O2 2.141667 1_555
Mo12 O24 2.191740 1_555
Mo12 O47 2.192490 1_455
Mo13 O83 2.090555 1_555
Mo13 O23 2.109777 1_555
Mo13 O3 2.176800 1_555
Mo13 O93 2.189492 1_555
Mo13 O84 2.191011 1_555
Mo14 O39 2.099366 1_555
Mo14 O15 2.147779 1_555
Mo14 O16 2.150008 1_555
Mo14 O13 2.170965 1_555
Mo14 O65 2.254220 1_555
Mo15 O97 2.133163 1_555
Mo15 O9 2.141340 1_555
Mo15 O3 2.142171 1_555
Mo15 O36 2.159089 1_555
Mo15 O53 2.160490 1_555
Mo16 O50 2.045290 1_555
Mo16 O88 2.122080 1_655
Mo16 O14 2.154915 1_555
Mo16 O79 2.156753 1_555
Mo16 O37 2.177830 1_655
Mo17 O42 2.089783 1_555
Mo17 O32 2.109654 1_555
Mo17 O12 2.177104 1_555
Mo17 O53 2.189040 1_555
Mo17 O19 2.190900 1_555
Mo18 O51 2.123376 1_555
Mo18 O17 2.139164 1_555
Mo18 O46 2.154905 1_555
Mo18 O0 2.209577 1_555
Mo18 O30 2.210685 1_555
Mo18 O31 2.219953 1_555
Mo19 O50 2.122900 1_555
Mo19 O23 2.139274 1_555
Mo19 O18 2.154737 1_555
Mo19 O20 2.209367 1_555
Mo19 O98 2.210874 1_555
Mo19 O93 2.219817 1_555
Mo20 O42 1.980383 1_555
Mo20 O105 2.045818 1_555
Mo20 O33 2.064316 1_655
Mo20 O22 2.134920 1_555
Mo20 O8 2.147685 1_555
Mo20 O99 2.159409 1_555
Mo21 O107 2.090438 1_555
Mo21 O17 2.109569 1_655
Mo21 O92 2.176879 1_554
Mo21 O31 2.189470 1_655
Mo21 O7 2.191077 1_545
Mo22 O35 2.123275 1_555
Mo22 O60 2.139369 1_555
Mo22 O75 2.154692 1_555
Mo22 O27 2.209389 1_555
Mo22 O41 2.210588 1_555
Mo22 O81 2.220097 1_655
Mo23 O51 2.031179 1_555
Mo23 O0 2.105128 1_555
Mo23 O80 2.146053 1_555
Mo23 O29 2.179154 1_555
Mo23 O37 2.224240 1_555
Mo24 O106 2.099351 1_555
Mo24 O62 2.147245 1_655
Mo24 O54 2.149952 1_555
Mo24 O56 2.171559 1_555
Mo24 O85 2.254459 1_655
Mo25 O50 2.031651 1_555
Mo25 O20 2.105497 1_555
Mo25 O16 2.146037 1_545
Mo25 O90 2.178868 1_555
Mo25 O28 2.224100 1_555
Mo26 O56 2.091460 1_555
Mo26 O59 2.134652 1_555
Mo26 O96 2.141775 1_555
Mo26 O85 2.191578 1_655
Mo26 O76 2.192654 1_655
Mo27 O11 2.115067 1_565
Mo27 O7 2.119741 1_555
Mo27 O13 2.145791 1_555
Mo27 O61 2.158001 1_555
Mo27 O90 2.158353 1_565
Mo28 O41 2.133246 1_545
Mo28 O34 2.141237 1_655
Mo28 O92 2.142317 1_555
Mo28 O38 2.159407 1_555
Mo28 O81 2.160296 1_645
Mo29 O8 1.974909 1_445
Mo29 O66 2.022864 1_545
Mo29 O91 2.104230 1_555
Mo29 O85 2.140536 1_555
Mo29 O57 2.170655 1_555
Mo30 O39 2.101421 1_555
Mo30 O63 2.119981 1_555
Mo30 O14 2.153935 1_555
Mo30 O24 2.194789 1_655
Mo30 O47 2.203889 1_555
Mo31 O55 2.115283 1_555
Mo31 O66 2.116311 1_555
Mo31 O2 2.120713 1_555
Mo31 O52 2.139130 1_565
Mo32 O23 2.107504 1_555
Mo32 O96 2.112949 1_555
Mo32 O98 2.131061 1_555
Mo32 O9 2.167166 1_555
Mo32 O19 2.195233 1_555
Mo33 O64 2.102111 1_555
Mo33 O100 2.119795 1_555
Mo33 O10 2.153968 1_555
Mo33 O65 2.194985 1_555
Mo33 O61 2.203863 1_555
Mo34 O42 2.078522 1_555
Mo34 O55 2.147754 1_655
Mo34 O74 2.157476 1_555
Mo34 O8 2.168091 1_555
Mo34 O59 2.168386 1_565
Mo35 O21 2.091529 1_555
Mo35 O26 2.135139 1_555
Mo35 O71 2.141889 1_555
Mo35 O89 2.192122 1_555
Mo35 O82 2.192558 1_555
Mo36 O32 2.107344 1_555
Mo36 O2 2.112623 1_555
Mo36 O97 2.130177 1_555
Mo36 O40 2.166778 1_555
Mo36 O84 2.195083 1_555
Mo37 O87 1.975206 1_555
Mo37 O46 2.022866 1_555
Mo37 O80 2.104625 1_555
Mo37 O65 2.140512 1_555
Mo37 O100 2.170441 1_555
Mo38 O69 2.101399 1_555
Mo38 O57 2.120068 1_555
Mo38 O36 2.153921 1_555
Mo38 O85 2.194849 1_555
Mo38 O76 2.204409 1_555
Mo39 O88 2.115146 1_555
Mo39 O84 2.119580 1_555
Mo39 O94 2.145945 1_555
Mo39 O29 2.158008 1_555
Mo39 O47 2.158039 1_455
Mo40 O35 2.045247 1_555
Mo40 O73 2.121419 1_555
Mo40 O38 2.155173 1_565
Mo40 O105 2.157083 1_555
Mo40 O5 2.177803 1_555
Mo41 O49 1.975071 1_665
Mo41 O18 2.023176 1_565
Mo41 O16 2.103915 1_555
Mo41 O24 2.140148 1_655
Mo41 O63 2.170168 1_555
Mo42 O104 2.005644 1_655
Mo42 O0 2.018100 1_655
Mo42 O39 2.058344 1_555
Mo42 O48 2.101908 1_555
Mo42 O79 2.138477 1_555
Mo43 O70 2.045510 1_555
Mo43 O33 2.121617 1_555
Mo43 O36 2.154662 1_555
Mo43 O68 2.156700 1_555
Mo43 O22 2.177846 1_455
Mo44 O98 2.133603 1_555
Mo44 O40 2.141032 1_555
Mo44 O12 2.142231 1_555
Mo44 O14 2.158848 1_555
Mo44 O93 2.159953 1_555
Mo45 O107 1.980351 1_555
Mo45 O79 2.046179 1_555
Mo45 O11 2.064056 1_555
Mo45 O28 2.134982 1_555
Mo45 O87 2.147233 1_555
Mo45 O90 2.159599 1_555
Mo46 O35 2.031045 1_555
Mo46 O27 2.104932 1_555
Mo46 O54 2.145897 1_555
Mo46 O99 2.179406 1_555
Mo46 O22 2.224549 1_555
Mo47 O70 2.031484 1_555
Mo47 O25 2.105416 1_555
Mo47 O91 2.146092 1_565
Mo47 O95 2.179062 1_555
Mo47 O5 2.224196 1_555
Mo48 O17 2.107256 1_556
Mo48 O71 2.112625 1_555
Mo48 O30 2.130767 1_556
Mo48 O34 2.166819 1_555
Mo48 O44 2.195798 1_555
Mo49 O15 2.005758 1_555
Mo49 O20 2.018379 1_565
Mo49 O64 2.057926 1_555
Mo49 O6 2.102574 1_555
Mo49 O67 2.138472 1_565
Mo50 O69 2.099395 1_555
Mo50 O4 2.147916 1_555
Mo50 O91 2.150235 1_555
Mo50 O21 2.171242 1_555
Mo50 O89 2.254439 1_555
Mo51 O58 2.090250 1_555
Mo51 O60 2.109650 1_455
Mo51 O78 2.176877 1_556
Mo51 O81 2.189426 1_555
Mo51 O44 2.190989 1_565
Mo52 O58 2.078645 1_555
Mo52 O72 2.147960 1_555
Mo52 O77 2.157317 1_555
Mo52 O1 2.168525 1_555
Mo52 O26 2.168771 1_555
Mo53 O51 2.045236 1_555
Mo53 O11 2.121573 1_555
Mo53 O10 2.155015 1_545
Mo53 O67 2.157173 1_555
Mo53 O28 2.177900 1_555
Mo54 O30 2.133190 1_565
Mo54 O102 2.141317 1_555
Mo54 O78 2.142192 1_555
Mo54 O10 2.159306 1_555
Mo54 O31 2.160236 1_565
Mo55 O18 2.116467 1_555
Mo55 O86 2.117021 1_655
Mo55 O96 2.120223 1_555
Mo55 O74 2.140104 1_545
Mo56 O45 2.116296 1_555
Mo56 O46 2.116932 1_555
Mo56 O71 2.120571 1_554
Mo56 O77 2.139393 1_554
Mo57 O33 2.114868 1_655
Mo57 O19 2.119561 1_555
Mo57 O56 2.145883 1_555
Mo57 O76 2.157918 1_655
Mo57 O99 2.157985 1_555
Mo58 O72 2.099093 1_554
Mo58 O77 2.114601 1_554
Mo58 O78 2.121532 1_555
Mo58 O61 2.177173 1_555
Mo58 O100 2.222870 1_555
Mo59 O70 2.122861 1_555
Mo59 O32 2.139362 1_555
Mo59 O66 2.154453 1_555
Mo59 O25 2.209209 1_555
Mo59 O97 2.209601 1_555
Mo59 O53 2.219631 1_555
Mo60 O106 2.101937 1_555
Mo60 O103 2.119745 1_555
Mo60 O38 2.153944 1_555
Mo60 O89 2.195016 1_555
Mo60 O82 2.204097 1_555
Mo61 O55 2.098803 1_655
Mo61 O74 2.114517 1_555
Mo61 O12 2.120952 1_555
Mo61 O47 2.176913 1_555
Mo61 O63 2.222464 1_555
Mo62 O62 2.005599 1_555
Mo62 O27 2.018234 1_455
Mo62 O69 2.058467 1_555
Mo62 O26 2.101805 1_555
Mo62 O68 2.138524 1_555
Mo63 O72 2.116028 1_555
Mo63 O75 2.116883 1_555
Mo63 O43 2.120623 1_556
Mo63 O101 2.139307 1_556
