# generated using pymatgen
data_NaInP2O7
_symmetry_space_group_name_H-M   'P 1'
_cell_length_a   8.14440427
_cell_length_b   7.49274510
_cell_length_c   9.85310410
_cell_angle_alpha   67.76697035
_cell_angle_beta   90.00000000
_cell_angle_gamma   90.00000000
_symmetry_Int_Tables_number   1
_chemical_formula_structural   NaInP2O7
_chemical_formula_sum   'Na4 In4 P8 O28'
_cell_volume   556.57203892
_cell_formula_units_Z   4
loop_
 _symmetry_equiv_pos_site_id
 _symmetry_equiv_pos_as_xyz
  1  'x, y, z'
loop_
 _atom_site_type_symbol
 _atom_site_label
 _atom_site_symmetry_multiplicity
 _atom_site_fract_x
 _atom_site_fract_y
 _atom_site_fract_z
 _atom_site_occupancy
  Na  Na0  1  0.52013104  0.28398657  0.71550658  1
  Na  Na1  1  0.97986896  0.28398657  0.21550658  1
  Na  Na2  1  0.02013104  0.71601343  0.78449342  1
  Na  Na3  1  0.47986896  0.71601343  0.28449342  1
  In  In0  1  0.49649998  0.74586644  0.75026784  1
  In  In1  1  0.99649998  0.25413356  0.74973216  1
  In  In2  1  0.50350002  0.25413356  0.24973216  1
  In  In3  1  0.00350002  0.74586644  0.25026784  1
  P  P0  1  0.28239153  0.32751455  0.95379962  1
  P  P1  1  0.75166887  0.07520000  0.03809959  1
  P  P2  1  0.25166887  0.92480000  0.46190041  1
  P  P3  1  0.24833113  0.92480000  0.96190041  1
  P  P4  1  0.74833113  0.07520000  0.53809959  1
  P  P5  1  0.71760847  0.67248545  0.04620038  1
  P  P6  1  0.78239153  0.67248545  0.54620038  1
  P  P7  1  0.21760847  0.32751455  0.45379962  1
  O  O0  1  0.10871405  0.37776963  0.89330852  1
  O  O1  1  0.58835425  0.03299343  0.62491392  1
  O  O2  1  0.08835425  0.96700657  0.87508608  1
  O  O3  1  0.41164575  0.96700657  0.37508608  1
  O  O4  1  0.91164575  0.03299343  0.12491392  1
  O  O5  1  0.83233745  0.87073990  0.56392851  1
  O  O6  1  0.33233745  0.12926010  0.93607149  1
  O  O7  1  0.16766255  0.12926010  0.43607149  1
  O  O8  1  0.62745564  0.17542279  0.09547166  1
  O  O9  1  0.12745564  0.82457721  0.40452834  1
  O  O10  1  0.37254436  0.82457721  0.90452834  1
  O  O11  1  0.87254436  0.17542279  0.59547166  1
  O  O12  1  0.77439880  0.17951636  0.87429665  1
  O  O13  1  0.27439880  0.82048364  0.62570335  1
  O  O14  1  0.22560120  0.82048364  0.12570335  1
  O  O15  1  0.72560120  0.17951636  0.37429665  1
  O  O16  1  0.78490856  0.70068978  0.38556742  1
  O  O17  1  0.28490856  0.29931022  0.11443258  1
  O  O18  1  0.21509144  0.29931022  0.61443258  1
  O  O19  1  0.41207260  0.45912660  0.85891127  1
  O  O20  1  0.89128595  0.62223037  0.10669148  1
  O  O21  1  0.39128595  0.37776963  0.39330852  1
  O  O22  1  0.71509144  0.70068978  0.88556742  1
  O  O23  1  0.60871405  0.62223037  0.60669148  1
  O  O24  1  0.08792740  0.45912660  0.35891127  1
  O  O25  1  0.58792740  0.54087340  0.14108873  1
  O  O26  1  0.91207260  0.54087340  0.64108873  1
  O  O27  1  0.66766255  0.87073990  0.06392851  1
loop_
_geom_bond_atom_site_label_1
_geom_bond_atom_site_label_2
_geom_bond_distance
_geom_bond_site_symmetry_2
Na0 O19 2.428231 1_555
Na0 O1 2.431585 1_555
Na0 O23 2.456990 1_555
Na0 O12 2.534224 1_555
Na0 O6 2.549448 1_555
Na0 O18 2.662805 1_555
Na1 O24 2.428231 1_655
Na1 O4 2.431585 1_555
Na1 O20 2.456990 1_555
Na1 O15 2.534224 1_555
Na1 O7 2.549448 1_655
Na1 O17 2.662805 1_655
Na2 O26 2.428231 1_455
Na2 O2 2.431585 1_555
Na2 O0 2.456990 1_555
Na2 O13 2.534224 1_555
Na2 O5 2.549448 1_455
Na2 O22 2.662805 1_455
Na3 O25 2.428231 1_555
Na3 O3 2.431585 1_555
Na3 O21 2.456990 1_555
Na3 O14 2.534224 1_555
Na3 O27 2.549448 1_555
Na3 O16 2.662805 1_555
In0 O10 2.087003 1_555
In0 O19 2.119955 1_555
In0 O13 2.138162 1_555
In0 O23 2.164819 1_555
In0 O1 2.168579 1_565
In0 O22 2.172501 1_555
In1 O11 2.087003 1_555
In1 O26 2.119955 1_555
In1 O12 2.138162 1_555
In1 O0 2.164819 1_655
In1 O2 2.168579 1_645
In1 O18 2.172501 1_655
In2 O8 2.087003 1_555
In2 O25 2.119955 1_555
In2 O15 2.138162 1_555
In2 O21 2.164819 1_555
In2 O3 2.168579 1_545
In2 O17 2.172501 1_555
In3 O9 2.087003 1_555
In3 O24 2.119955 1_555
In3 O14 2.138162 1_555
In3 O20 2.164819 1_455
In3 O4 2.168579 1_465
In3 O16 2.172501 1_455
O0 P0 1.525780 1_555
O1 P4 1.524659 1_555
O2 P3 1.524659 1_555
O3 P2 1.524659 1_555
O4 P1 1.524659 1_555
O5 P4 1.607718 1_565
O5 P6 1.612130 1_555
O6 P3 1.607718 1_545
O6 P0 1.612130 1_555
O7 P2 1.607718 1_545
O7 P7 1.612130 1_555
O8 P1 1.492694 1_555
O9 P2 1.492694 1_555
O10 P3 1.492694 1_555
O11 P4 1.492694 1_555
O12 P1 1.515072 1_556
O13 P2 1.515072 1_555
O14 P3 1.515072 1_554
O15 P4 1.515072 1_555
O16 P6 1.515589 1_555
O17 P0 1.515589 1_554
O18 P7 1.515589 1_555
O19 P0 1.504786 1_555
O20 P5 1.525780 1_555
O21 P7 1.525780 1_555
O22 P5 1.515589 1_556
O23 P6 1.525780 1_555
O24 P7 1.504786 1_555
O25 P5 1.504786 1_555
O26 P6 1.504786 1_555
O27 P1 1.607718 1_565
O27 P5 1.612130 1_555
