# generated using pymatgen
data_C
_symmetry_space_group_name_H-M   'P 1'
_cell_length_a   2.51386864
_cell_length_b   2.51386857
_cell_length_c   16.50318381
_cell_angle_alpha   90.00000000
_cell_angle_beta   90.00000000
_cell_angle_gamma   119.99998778
_symmetry_Int_Tables_number   1
_chemical_formula_structural   C
_chemical_formula_sum   C16
_cell_volume   90.31992538
_cell_formula_units_Z   16
loop_
 _symmetry_equiv_pos_site_id
 _symmetry_equiv_pos_as_xyz
  1  'x, y, z'
loop_
 _atom_site_type_symbol
 _atom_site_label
 _atom_site_symmetry_multiplicity
 _atom_site_fract_x
 _atom_site_fract_y
 _atom_site_fract_z
 _atom_site_occupancy
  C  C0  1  -0.00000000  -0.00000000  0.95328993  1
  C  C1  1  0.66666700  0.33333300  0.29740964  1
  C  C2  1  0.33333300  0.66666700  0.79740964  1
  C  C3  1  0.66666700  0.33333300  0.20259036  1
  C  C4  1  0.33333300  0.66666700  0.07788748  1
  C  C5  1  0.33333300  0.66666700  0.32878200  1
  C  C6  1  0.33333300  0.66666700  0.42211252  1
  C  C7  1  0.66666700  0.33333300  0.67121800  1
  C  C8  1  0.33333300  0.66666700  0.70259036  1
  C  C9  1  0.00000000  0.00000000  0.45328993  1
  C  C10  1  0.00000000  0.00000000  0.04671007  1
  C  C11  1  0.33333300  0.66666700  0.17121800  1
  C  C12  1  0.66666700  0.33333300  0.82878200  1
  C  C13  1  -0.00000000  -0.00000000  0.54671007  1
  C  C14  1  0.66666700  0.33333300  0.57788748  1
  C  C15  1  0.66666700  0.33333300  0.92211252  1
loop_
_geom_bond_atom_site_label_1
_geom_bond_atom_site_label_2
_geom_bond_distance
_geom_bond_site_symmetry_2
C0 C15 1.539885 1_455
C0 C15 1.539887 1_445
C0 C15 1.539887 1_555
C0 C10 1.541730 1_556
C1 C5 1.540963 1_545
C1 C5 1.540963 1_655
C1 C5 1.540967 1_555
C1 C3 1.564820 1_555
C2 C8 1.564820 1_555
C5 C6 1.540251 1_555
C6 C9 1.539885 1_565
C6 C9 1.539887 1_555
C6 C9 1.539887 1_665
C7 C8 1.540963 1_545
C7 C8 1.540963 1_655
C7 C8 1.540967 1_555
C10 C4 1.539885 1_545
C10 C4 1.539887 1_555
C10 C4 1.539887 1_445
C11 C4 1.540251 1_555
C11 C3 1.540963 1_565
C11 C3 1.540963 1_455
C11 C3 1.540967 1_555
C12 C15 1.540251 1_555
C12 C2 1.540963 1_545
C12 C2 1.540963 1_655
C12 C2 1.540967 1_555
C13 C14 1.539885 1_455
C13 C14 1.539887 1_445
C13 C14 1.539887 1_555
C13 C9 1.541730 1_555
C14 C7 1.540251 1_555
