# generated using pymatgen
data_Ce8U2O21
_symmetry_space_group_name_H-M   'P 1'
_cell_length_a   13.87188494
_cell_length_b   13.87188494
_cell_length_c   5.44265700
_cell_angle_alpha   90.00000000
_cell_angle_beta   90.00000000
_cell_angle_gamma   157.38269150
_symmetry_Int_Tables_number   1
_chemical_formula_structural   Ce8U2O21
_chemical_formula_sum   'Ce8 U2 O21'
_cell_volume   402.77459036
_cell_formula_units_Z   1
loop_
 _symmetry_equiv_pos_site_id
 _symmetry_equiv_pos_as_xyz
  1  'x, y, z'
loop_
 _atom_site_type_symbol
 _atom_site_label
 _atom_site_symmetry_multiplicity
 _atom_site_fract_x
 _atom_site_fract_y
 _atom_site_fract_z
 _atom_site_occupancy
  Ce  Ce0  1  0.40335600  0.59664400  0.00000000  1
  Ce  Ce1  1  0.30000900  0.69999100  0.50000000  1
  Ce  Ce2  1  0.20001900  0.79998100  0.00000000  1
  Ce  Ce3  1  0.89717100  0.10282900  0.50000000  1
  Ce  Ce4  1  0.10282900  0.89717100  0.50000000  1
  Ce  Ce5  1  0.79998100  0.20001900  0.00000000  1
  Ce  Ce6  1  0.69999100  0.30000900  0.50000000  1
  Ce  Ce7  1  0.59664400  0.40335600  0.00000000  1
  U  U0  1  0.00000000  0.00000000  0.00000000  1
  U  U1  1  0.50000000  0.50000000  0.50000000  1
  O  O0  1  0.10263500  0.40166300  0.24783600  1
  O  O1  1  0.00000000  0.50000000  0.74973100  1
  O  O2  1  0.59833700  0.89736500  0.75216400  1
  O  O3  1  0.50000000  0.00000000  0.25026900  1
  O  O4  1  0.28485900  0.18741200  0.73623800  1
  O  O5  1  0.40166400  0.10263500  0.75216400  1
  O  O6  1  0.18741200  0.28485900  0.26376200  1
  O  O7  1  0.28485900  0.18741200  0.26376200  1
  O  O8  1  0.89736500  0.59833700  0.24783600  1
  O  O9  1  0.81258800  0.71514100  0.26376200  1
  O  O10  1  0.50000000  0.50000000  0.00000000  1
  O  O11  1  0.10263500  0.40166300  0.75216400  1
  O  O12  1  0.18741200  0.28485900  0.73623800  1
  O  O13  1  0.81258800  0.71514100  0.73623800  1
  O  O14  1  0.71514100  0.81258800  0.73623800  1
  O  O15  1  0.71514100  0.81258800  0.26376200  1
  O  O16  1  0.59833700  0.89736500  0.24783600  1
  O  O17  1  0.50000000  0.00000000  0.74973100  1
  O  O18  1  0.40166400  0.10263500  0.24783600  1
  O  O19  1  0.00000000  0.50000000  0.25026900  1
  O  O20  1  0.89736500  0.59833700  0.75216400  1
loop_
_geom_bond_atom_site_label_1
_geom_bond_atom_site_label_2
_geom_bond_distance
_geom_bond_site_symmetry_2
Ce0 O16 2.388829 1_555
Ce0 O2 2.388829 1_554
Ce0 O0 2.388829 1_555
Ce0 O11 2.388829 1_554
Ce0 O14 2.412712 1_554
Ce0 O15 2.412712 1_555
Ce0 O6 2.412712 1_555
Ce0 O12 2.412712 1_554
Ce0 O10 2.629212 1_555
Ce1 O1 2.355474 1_555
Ce1 O17 2.355474 1_565
Ce1 O19 2.355474 1_555
Ce1 O3 2.355474 1_565
Ce1 O11 2.363804 1_555
Ce1 O0 2.363804 1_555
Ce1 O2 2.363804 1_555
Ce1 O16 2.363804 1_555
Ce2 O19 2.356725 1_555
Ce2 O3 2.356725 1_565
Ce2 O1 2.356725 1_554
Ce2 O17 2.356725 1_564
Ce2 O18 2.364135 1_565
Ce2 O5 2.364135 1_564
Ce2 O8 2.364141 1_455
Ce2 O20 2.364141 1_454
Ce3 O2 2.319156 1_545
Ce3 O16 2.319156 1_545
Ce3 O11 2.319156 1_655
Ce3 O0 2.319156 1_655
Ce3 O14 2.338844 1_545
Ce3 O15 2.338844 1_545
Ce3 O6 2.338844 1_655
Ce3 O12 2.338844 1_655
Ce4 O20 2.319156 1_455
Ce4 O8 2.319156 1_455
Ce4 O5 2.319165 1_565
Ce4 O18 2.319165 1_565
Ce4 O13 2.338844 1_455
Ce4 O9 2.338844 1_455
Ce4 O4 2.338844 1_565
Ce4 O7 2.338844 1_565
Ce5 O3 2.356725 1_555
Ce5 O19 2.356725 1_655
Ce5 O17 2.356725 1_554
Ce5 O1 2.356725 1_654
Ce5 O0 2.364141 1_655
Ce5 O11 2.364141 1_654
Ce5 O16 2.364141 1_545
Ce5 O2 2.364141 1_544
Ce6 O17 2.355474 1_555
Ce6 O3 2.355474 1_555
Ce6 O1 2.355474 1_655
Ce6 O19 2.355474 1_655
Ce6 O5 2.363794 1_555
Ce6 O18 2.363794 1_555
Ce6 O20 2.363804 1_555
Ce6 O8 2.363804 1_555
Ce7 O8 2.388829 1_555
Ce7 O20 2.388829 1_554
Ce7 O18 2.388836 1_555
Ce7 O5 2.388836 1_554
Ce7 O13 2.412712 1_554
Ce7 O9 2.412712 1_555
Ce7 O7 2.412712 1_555
Ce7 O4 2.412712 1_554
Ce7 O10 2.629212 1_555
O4 U0 2.338430 1_556
O4 U1 2.339006 1_555
O6 U0 2.338430 1_555
O6 U1 2.339006 1_555
O7 U0 2.338430 1_555
O7 U1 2.339006 1_555
O9 U0 2.338430 1_665
O9 U1 2.339006 1_555
O10 U0 2.720197 1_555
O10 U0 2.720197 1_665
O10 U1 2.721328 1_554
O10 U1 2.721328 1_555
O12 U0 2.338430 1_556
O12 U1 2.339006 1_555
O13 U0 2.338430 1_666
O13 U1 2.339006 1_555
O14 U0 2.338430 1_666
O14 U1 2.339006 1_555
O15 U0 2.338430 1_665
O15 U1 2.339006 1_555
