# generated using pymatgen
data_Cu3SbS3
_symmetry_space_group_name_H-M   'P 1'
_cell_length_a   8.73587191
_cell_length_b   8.73587191
_cell_length_c   8.73587191
_cell_angle_alpha   109.47122063
_cell_angle_beta   109.47122063
_cell_angle_gamma   109.47122063
_symmetry_Int_Tables_number   1
_chemical_formula_structural   Cu3SbS3
_chemical_formula_sum   'Cu12 Sb4 S12'
_cell_volume   513.21209411
_cell_formula_units_Z   4
loop_
 _symmetry_equiv_pos_site_id
 _symmetry_equiv_pos_as_xyz
  1  'x, y, z'
loop_
 _atom_site_type_symbol
 _atom_site_label
 _atom_site_symmetry_multiplicity
 _atom_site_fract_x
 _atom_site_fract_y
 _atom_site_fract_z
 _atom_site_occupancy
  Cu  Cu0  1  0.81591100  0.81591100  0.00000000  1
  Cu  Cu1  1  0.75000000  0.25000000  0.50000000  1
  Cu  Cu2  1  0.50000000  0.25000000  0.75000000  1
  Cu  Cu3  1  0.75000000  0.50000000  0.25000000  1
  Cu  Cu4  1  0.00000000  0.18408900  0.18408900  1
  Cu  Cu5  1  0.18408900  0.18408900  0.00000000  1
  Cu  Cu6  1  0.18408900  0.00000000  0.18408900  1
  Cu  Cu7  1  0.25000000  0.75000000  0.50000000  1
  Cu  Cu8  1  0.81591100  0.00000000  0.81591100  1
  Cu  Cu9  1  0.25000000  0.50000000  0.75000000  1
  Cu  Cu10  1  0.50000000  0.75000000  0.25000000  1
  Cu  Cu11  1  0.00000000  0.81591100  0.81591100  1
  Sb  Sb0  1  0.00000000  0.44995300  0.00000000  1
  Sb  Sb1  1  0.44995300  0.00000000  0.00000000  1
  Sb  Sb2  1  0.55004700  0.55004700  0.55004700  1
  Sb  Sb3  1  0.00000000  0.00000000  0.44995300  1
  S  S0  1  0.22568500  0.47091500  0.47091500  1
  S  S1  1  0.00000000  0.75477000  0.52908500  1
  S  S2  1  0.77431500  0.24523000  0.24523000  1
  S  S3  1  0.47091500  0.47091500  0.22568500  1
  S  S4  1  0.24523000  0.77431500  0.24523000  1
  S  S5  1  0.47091500  0.22568500  0.47091500  1
  S  S6  1  0.00000000  0.52908500  0.75477000  1
  S  S7  1  0.75477000  0.52908500  0.00000000  1
  S  S8  1  0.75477000  0.00000000  0.52908500  1
  S  S9  1  0.24523000  0.24523000  0.77431500  1
  S  S10  1  0.52908500  0.75477000  0.00000000  1
  S  S11  1  0.52908500  0.00000000  0.75477000  1
loop_
_geom_bond_atom_site_label_1
_geom_bond_atom_site_label_2
_geom_bond_distance
_geom_bond_site_symmetry_2
Cu0 S7 2.381485 1_555
Cu0 S10 2.381485 1_555
Cu1 S6 2.293374 1_655
Cu1 S2 2.293374 1_555
Cu1 S8 2.293374 1_555
Cu1 S5 2.293374 1_555
Cu2 S7 2.293374 1_556
Cu2 S9 2.293374 1_555
Cu2 S11 2.293374 1_555
Cu2 S5 2.293374 1_555
Cu3 S2 2.293374 1_555
Cu3 S3 2.293374 1_555
Cu3 S1 2.293374 1_655
Cu3 S7 2.293374 1_555
Cu4 S0 2.381485 1_555
Cu4 S2 2.381485 1_455
Cu5 S3 2.381485 1_555
Cu5 S9 2.381485 1_554
Cu6 S5 2.381485 1_555
Cu6 S4 2.381485 1_545
Cu7 S0 2.293374 1_555
Cu7 S4 2.293374 1_555
Cu7 S11 2.293374 1_565
Cu7 S1 2.293374 1_555
Cu8 S8 2.381485 1_555
Cu8 S11 2.381485 1_555
Cu9 S9 2.293374 1_555
Cu9 S10 2.293374 1_556
Cu9 S6 2.293374 1_555
Cu9 S0 2.293374 1_555
Cu10 S4 2.293374 1_555
Cu10 S3 2.293374 1_555
Cu10 S8 2.293374 1_565
Cu10 S10 2.293374 1_555
Cu11 S1 2.381485 1_555
Cu11 S6 2.381485 1_555
S0 Sb2 2.460612 1_555
S1 Sb3 2.460612 1_565
S2 Sb1 2.460612 1_555
S3 Sb2 2.460612 1_555
S4 Sb0 2.460612 1_555
S5 Sb2 2.460612 1_555
S6 Sb0 2.460612 1_556
S7 Sb0 2.460612 1_655
S8 Sb3 2.460612 1_655
S9 Sb3 2.460612 1_555
S10 Sb1 2.460612 1_565
S11 Sb1 2.460612 1_556
