# generated using pymatgen
data_Ba3Gd2(PS4)4
_symmetry_space_group_name_H-M   'P 1'
_cell_length_a   10.42432259
_cell_length_b   12.82180540
_cell_length_c   19.38684507
_cell_angle_alpha   89.97932013
_cell_angle_beta   90.06328337
_cell_angle_gamma   89.96651940
_symmetry_Int_Tables_number   1
_chemical_formula_structural   Ba3Gd2(PS4)4
_chemical_formula_sum   'Ba12 Gd8 P16 S64'
_cell_volume   2591.21706927
_cell_formula_units_Z   4
loop_
 _symmetry_equiv_pos_site_id
 _symmetry_equiv_pos_as_xyz
  1  'x, y, z'
loop_
 _atom_site_type_symbol
 _atom_site_label
 _atom_site_symmetry_multiplicity
 _atom_site_fract_x
 _atom_site_fract_y
 _atom_site_fract_z
 _atom_site_occupancy
  Ba  Ba0  1  0.21088243  0.61039578  0.22788578  1
  Ba  Ba1  1  0.71087869  0.61040987  0.27212853  1
  Ba  Ba2  1  0.28900794  0.11040323  0.27210337  1
  Ba  Ba3  1  0.71094609  0.88957568  0.72790096  1
  Ba  Ba4  1  0.88096278  0.74995891  -0.00003037  1
  Ba  Ba5  1  0.61908259  0.24998586  0.50001655  1
  Ba  Ba6  1  0.38091019  0.75003206  0.49997713  1
  Ba  Ba7  1  0.11910596  0.24999681  -0.00000236  1
  Ba  Ba8  1  0.78908266  0.11036466  0.22790768  1
  Ba  Ba9  1  0.28912026  0.38964993  0.72789199  1
  Ba  Ba10  1  0.21091719  0.88956663  0.77210820  1
  Ba  Ba11  1  0.78910719  0.38965621  0.77212154  1
  Gd  Gd0  1  0.37096212  0.88735224  0.07393378  1
  Gd  Gd1  1  0.87097904  0.88733200  0.42611287  1
  Gd  Gd2  1  0.37112077  0.61271532  0.92614408  1
  Gd  Gd3  1  0.62898669  0.11266707  0.92605456  1
  Gd  Gd4  1  0.87106399  0.61271676  0.57389478  1
  Gd  Gd5  1  0.12907250  0.11268886  0.57387960  1
  Gd  Gd6  1  0.62901942  0.38729213  0.07387922  1
  Gd  Gd7  1  0.12890093  0.38726661  0.42615425  1
  P  P0  1  0.99561290  0.36076954  0.60297917  1
  P  P1  1  0.49552109  0.13920349  0.10303138  1
  P  P2  1  0.00439953  0.63924277  0.39704515  1
  P  P3  1  0.50424791  0.63923207  0.10308273  1
  P  P4  1  0.99572162  0.13932480  0.39692826  1
  P  P5  1  0.93943619  0.45160205  0.13092821  1
  P  P6  1  0.06041594  0.54842912  0.86895868  1
  P  P7  1  0.43936663  0.45163895  0.36899540  1
  P  P8  1  0.43944958  0.04835041  0.63099391  1
  P  P9  1  0.49577596  0.36079358  0.89691046  1
  P  P10  1  0.56053720  0.54837899  0.63104087  1
  P  P11  1  0.06067524  0.95157239  0.13102226  1
  P  P12  1  0.50442288  0.86077810  0.89697032  1
  P  P13  1  0.56059707  0.95162417  0.36903345  1
  P  P14  1  0.00432942  0.86063955  0.60307870  1
  P  P15  1  0.93933846  0.04839580  0.86889029  1
  S  S0  1  0.56697251  0.76911430  0.15267800  1
  S  S1  1  0.29488947  0.38676048  0.30737635  1
  S  S2  1  0.38811156  0.10013564  0.01714296  1
  S  S3  1  0.81918290  0.66811007  0.43055228  1
  S  S4  1  0.93300840  0.26918303  0.34728562  1
  S  S5  1  0.70489861  0.88675239  0.30730072  1
  S  S6  1  0.38808268  0.39986049  0.98282639  1
  S  S7  1  0.31915403  0.83192861  0.93059037  1
  S  S8  1  0.93162284  0.61204348  0.14648714  1
  S  S9  1  0.79515157  0.38676358  0.19271547  1
  S  S10  1  0.20502135  0.88672472  0.19269171  1
  S  S11  1  0.68072815  0.33186993  0.93058786  1
  S  S12  1  0.88174021  0.60534506  0.84960986  1
  S  S13  1  0.88164609  0.89465665  0.15035427  1
  S  S14  1  0.18084794  0.33191731  0.56943817  1
  S  S15  1  0.50600685  0.48550942  0.83127015  1
  S  S16  1  0.06678594  0.76910108  0.34732459  1
  S  S17  1  0.61187448  0.60013374  0.01717619  1
  S  S18  1  0.11191100  0.60004405  0.48287801  1
  S  S19  1  0.99386683  0.98550185  0.66867462  1
  S  S20  1  0.43165397  0.61200132  0.35356073  1
  S  S21  1  0.11715484  0.58593354  0.96780528  1
  S  S22  1  0.11845429  0.39462425  0.15044642  1
  S  S23  1  0.50613846  0.01453022  0.16878052  1
  S  S24  1  0.43168595  0.88797442  0.64646792  1
  S  S25  1  0.11834277  0.10531092  0.84966720  1
  S  S26  1  0.88312121  0.08598669  0.96785112  1
  S  S27  1  0.61700757  0.91404924  0.46777155  1
  S  S28  1  0.93180944  0.88798676  0.85356762  1
  S  S29  1  0.61829030  0.39460927  0.34969485  1
  S  S30  1  0.61187543  0.89984996  0.98288079  1
  S  S31  1  0.43315369  0.26914026  0.15266211  1
  S  S32  1  0.99386187  0.51454982  0.33123029  1
  S  S33  1  0.20494136  0.61323447  0.80729173  1
  S  S34  1  0.81923961  0.83193657  0.56938286  1
  S  S35  1  0.88808108  0.39994463  0.51709839  1
  S  S36  1  0.56833403  0.38797224  0.64644018  1
  S  S37  1  0.93321265  0.23086370  0.65264894  1
  S  S38  1  0.79498591  0.11326110  0.80730967  1
  S  S39  1  0.56680188  0.73082958  0.84735377  1
  S  S40  1  0.11187774  0.89986274  0.51716268  1
  S  S41  1  0.38161865  0.89466425  0.34957896  1
  S  S42  1  0.29509413  0.11326250  0.69268149  1
  S  S43  1  0.61693011  0.58596527  0.53211626  1
  S  S44  1  0.00615171  0.48538770  0.66876387  1
  S  S45  1  0.43298462  0.23091402  0.84729733  1
  S  S46  1  0.38305834  0.41400875  0.46785967  1
  S  S47  1  0.88300184  0.41413250  0.03226997  1
  S  S48  1  0.31921453  0.66815926  0.06940307  1
  S  S49  1  0.68080968  0.16802486  0.06943897  1
  S  S50  1  0.06697595  0.73086671  0.65269593  1
  S  S51  1  0.18076242  0.16807198  0.43059301  1
  S  S52  1  0.56828873  0.11204843  0.35351790  1
  S  S53  1  0.38170823  0.60537008  0.65029184  1
  S  S54  1  0.06843462  0.38796201  0.85352130  1
  S  S55  1  0.70503169  0.61321423  0.69264133  1
  S  S56  1  0.88814774  0.10016242  0.48282697  1
  S  S57  1  0.00614873  0.01453102  0.33131549  1
  S  S58  1  0.49380474  0.98542822  0.83124942  1
  S  S59  1  0.06817621  0.11203621  0.14644967  1
  S  S60  1  0.61835450  0.10533539  0.65039605  1
  S  S61  1  0.49396177  0.51451322  0.16873854  1
  S  S62  1  0.11685030  0.91406999  0.03219080  1
  S  S63  1  0.38300627  0.08596099  0.53217541  1
loop_
_geom_bond_atom_site_label_1
_geom_bond_atom_site_label_2
_geom_bond_distance
_geom_bond_site_symmetry_2
Ba0 S32 3.264016 1_455
Ba0 S22 3.292284 1_555
Ba0 S8 3.309825 1_455
Ba0 S20 3.349744 1_555
Ba0 S48 3.357225 1_555
Ba0 S1 3.369674 1_555
Ba0 S61 3.396820 1_555
Ba0 S16 3.430211 1_555
Ba0 S10 3.608363 1_555
Ba1 S61 3.261530 1_555
Ba1 S29 3.294271 1_555
Ba1 S20 3.312884 1_555
Ba1 S8 3.352762 1_555
Ba1 S3 3.354107 1_555
Ba1 S9 3.371659 1_555
Ba1 S32 3.393047 1_555
Ba1 S0 3.426258 1_555
Ba1 S5 3.608983 1_555
Ba2 S23 3.264233 1_555
Ba2 S41 3.290952 1_545
Ba2 S52 3.310195 1_555
Ba2 S59 3.349850 1_555
Ba2 S51 3.356974 1_555
Ba2 S10 3.371208 1_545
Ba2 S57 3.396153 1_555
Ba2 S31 3.430760 1_555
Ba2 S1 3.609567 1_555
Ba3 S58 3.264517 1_555
Ba3 S60 3.291376 1_565
Ba3 S24 3.310172 1_555
Ba3 S28 3.350256 1_555
Ba3 S34 3.357564 1_555
Ba3 S38 3.371402 1_565
Ba3 S19 3.397054 1_555
Ba3 S39 3.430973 1_555
Ba3 S55 3.609576 1_555
Ba4 S62 3.296664 1_655
Ba4 S21 3.297317 1_654
Ba4 S8 3.386198 1_555
Ba4 S28 3.386680 1_554
Ba4 S30 3.415094 1_554
Ba4 S17 3.417296 1_555
Ba4 S12 3.455334 1_554
Ba4 S13 3.456307 1_555
Ba5 S46 3.294648 1_555
Ba5 S63 3.297940 1_555
Ba5 S36 3.387340 1_555
Ba5 S52 3.387649 1_555
Ba5 S56 3.415345 1_555
Ba5 S35 3.416789 1_555
Ba5 S29 3.453633 1_555
Ba5 S60 3.454783 1_555
Ba6 S43 3.294909 1_555
Ba6 S27 3.298212 1_555
Ba6 S20 3.387512 1_555
Ba6 S24 3.387524 1_555
Ba6 S40 3.415109 1_555
Ba6 S18 3.417038 1_555
Ba6 S53 3.453784 1_555
Ba6 S41 3.454962 1_555
Ba7 S26 3.296320 1_454
Ba7 S47 3.297934 1_455
Ba7 S54 3.385880 1_554
Ba7 S59 3.387180 1_555
Ba7 S2 3.414285 1_555
Ba7 S6 3.416551 1_554
Ba7 S25 3.455340 1_554
Ba7 S22 3.456880 1_555
Ba8 S57 3.260973 1_655
Ba8 S13 3.293048 1_545
Ba8 S59 3.311941 1_655
Ba8 S52 3.352677 1_555
Ba8 S49 3.353903 1_555
Ba8 S5 3.370796 1_545
Ba8 S23 3.394289 1_555
Ba8 S4 3.428298 1_555
Ba8 S9 3.609372 1_555
Ba9 S15 3.260990 1_555
Ba9 S53 3.293703 1_555
Ba9 S36 3.312971 1_555
Ba9 S54 3.352177 1_555
Ba9 S14 3.354621 1_555
Ba9 S33 3.370612 1_555
Ba9 S44 3.392520 1_555
Ba9 S45 3.425715 1_555
Ba9 S42 3.609688 1_555
Ba10 S19 3.261656 1_455
Ba10 S25 3.293522 1_565
Ba10 S28 3.312077 1_455
Ba10 S24 3.352914 1_555
Ba10 S7 3.353953 1_555
Ba10 S42 3.371987 1_565
Ba10 S58 3.393994 1_555
Ba10 S50 3.427916 1_555
Ba10 S33 3.608482 1_555
Ba11 S44 3.263793 1_655
Ba11 S12 3.292452 1_555
Ba11 S54 3.310460 1_655
Ba11 S36 3.349853 1_555
Ba11 S11 3.357164 1_555
Ba11 S55 3.368925 1_555
Ba11 S15 3.396884 1_555
Ba11 S37 3.431358 1_555
Ba11 S38 3.609177 1_555
Gd0 S62 2.789833 1_555
Gd0 S23 2.832822 1_565
Gd0 S48 2.863420 1_555
Gd0 S10 2.881305 1_555
Gd0 S7 2.918550 1_554
Gd0 S2 2.947275 1_565
Gd0 S0 2.965069 1_555
Gd0 S30 3.075499 1_554
Gd1 S27 2.789737 1_555
Gd1 S57 2.833578 1_665
Gd1 S3 2.863801 1_555
Gd1 S5 2.879967 1_555
Gd1 S34 2.917621 1_555
Gd1 S56 2.947878 1_565
Gd1 S16 2.966889 1_655
Gd1 S40 3.072242 1_655
Gd2 S21 2.790107 1_555
Gd2 S15 2.832939 1_555
Gd2 S7 2.863473 1_555
Gd2 S33 2.881198 1_555
Gd2 S48 2.918228 1_556
Gd2 S6 2.946881 1_555
Gd2 S39 2.965898 1_555
Gd2 S17 3.070625 1_556
Gd3 S26 2.790300 1_555
Gd3 S58 2.832778 1_545
Gd3 S11 2.863534 1_555
Gd3 S38 2.881468 1_555
Gd3 S49 2.919130 1_556
Gd3 S30 2.947907 1_545
Gd3 S45 2.965198 1_555
Gd3 S2 3.075591 1_556
Gd4 S43 2.790756 1_555
Gd4 S44 2.832047 1_655
Gd4 S34 2.863217 1_555
Gd4 S55 2.881698 1_555
Gd4 S3 2.917937 1_555
Gd4 S35 2.947640 1_555
Gd4 S50 2.966137 1_655
Gd4 S18 3.074561 1_655
Gd5 S63 2.789637 1_555
Gd5 S19 2.833647 1_445
Gd5 S14 2.863844 1_555
Gd5 S42 2.879440 1_555
Gd5 S51 2.917793 1_555
Gd5 S40 2.947864 1_545
Gd5 S37 2.966713 1_455
Gd5 S56 3.072493 1_455
Gd6 S47 2.790071 1_555
Gd6 S61 2.833756 1_555
Gd6 S49 2.863803 1_555
Gd6 S9 2.880653 1_555
Gd6 S11 2.918375 1_554
Gd6 S17 2.946987 1_555
Gd6 S31 2.967395 1_555
Gd6 S6 3.072405 1_554
Gd7 S46 2.790564 1_555
Gd7 S32 2.832148 1_455
Gd7 S51 2.862930 1_555
Gd7 S1 2.881909 1_555
Gd7 S14 2.916845 1_555
Gd7 S18 2.947160 1_555
Gd7 S4 2.966236 1_455
Gd7 S35 3.073524 1_455
P0 S37 2.031301 1_555
P0 S44 2.047690 1_655
P0 S35 2.067733 1_555
P0 S14 2.071319 1_655
P1 S31 2.031104 1_555
P1 S23 2.047037 1_555
P1 S2 2.067438 1_555
P1 S49 2.072402 1_555
P2 S16 2.031222 1_555
P2 S32 2.048802 1_455
P2 S18 2.066944 1_555
P2 S3 2.070968 1_455
P3 S0 2.031343 1_555
P3 S61 2.046433 1_555
P3 S48 2.068951 1_555
P3 S17 2.070717 1_555
P4 S4 2.030291 1_555
P4 S57 2.047363 1_655
P4 S51 2.069007 1_655
P4 S56 2.070522 1_555
P5 S22 2.038635 1_655
P5 S47 2.057600 1_555
P5 S8 2.080814 1_555
P5 S9 2.095937 1_555
P6 S12 2.034482 1_455
P6 S21 2.062004 1_555
P6 S54 2.080882 1_555
P6 S33 2.096240 1_555
P7 S29 2.038052 1_555
P7 S46 2.062303 1_555
P7 S20 2.079183 1_555
P7 S1 2.094166 1_555
P8 S60 2.038054 1_555
P8 S63 2.060453 1_555
P8 S24 2.079605 1_545
P8 S42 2.095382 1_555
P9 S45 2.031703 1_555
P9 S15 2.046185 1_555
P9 S11 2.068141 1_555
P9 S6 2.071143 1_555
P10 S53 2.036794 1_555
P10 S43 2.063511 1_555
P10 S36 2.079681 1_555
P10 S55 2.093870 1_555
P11 S13 2.039332 1_455
P11 S62 2.061095 1_555
P11 S59 2.080671 1_565
P11 S10 2.092543 1_555
P12 S39 2.031136 1_555
P12 S58 2.046465 1_555
P12 S30 2.068037 1_555
P12 S7 2.072444 1_555
P13 S41 2.038826 1_555
P13 S27 2.058800 1_555
P13 S52 2.080304 1_565
P13 S5 2.095274 1_555
P14 S50 2.028938 1_555
P14 S19 2.047866 1_455
P14 S34 2.069572 1_455
P14 S40 2.070837 1_555
P15 S25 2.038703 1_655
P15 S26 2.063818 1_555
P15 S28 2.079696 1_545
P15 S38 2.091699 1_555
