# generated using pymatgen
data_H12W3C4S2Cl9O2
_symmetry_space_group_name_H-M   'P 1'
_cell_length_a   10.11547000
_cell_length_b   11.18108300
_cell_length_c   25.18947763
_cell_angle_alpha   64.26455807
_cell_angle_beta   90.00000000
_cell_angle_gamma   90.00000000
_symmetry_Int_Tables_number   1
_chemical_formula_structural   H12W3C4S2Cl9O2
_chemical_formula_sum   'H48 W12 C16 S8 Cl36 O8'
_cell_volume   2566.38389556
_cell_formula_units_Z   4
loop_
 _symmetry_equiv_pos_site_id
 _symmetry_equiv_pos_as_xyz
  1  'x, y, z'
loop_
 _atom_site_type_symbol
 _atom_site_label
 _atom_site_symmetry_multiplicity
 _atom_site_fract_x
 _atom_site_fract_y
 _atom_site_fract_z
 _atom_site_occupancy
  H  H0  1  0.47081000  0.43410800  0.22807600  1
  H  H1  1  0.90855500  0.05104700  0.31804700  1
  H  H2  1  0.46251300  0.72866100  0.34988800  1
  H  H3  1  0.93961100  0.59451000  0.84897000  1
  H  H4  1  0.62318500  0.50658900  0.19017400  1
  H  H5  1  0.97081000  0.56589200  0.27192400  1
  H  H6  1  0.37681500  0.49341100  0.80982600  1
  H  H7  1  0.03748700  0.72866100  0.84988800  1
  H  H8  1  0.44736000  0.03921200  0.77963700  1
  H  H9  1  0.89259700  0.06385400  0.24454400  1
  H  H10  1  0.43961100  0.40549000  0.65103000  1
  H  H11  1  0.81382000  0.38996100  0.58320900  1
  H  H12  1  0.55264000  0.96078800  0.22036300  1
  H  H13  1  0.39259700  0.93614600  0.25545600  1
  H  H14  1  0.12318500  0.49341100  0.30982600  1
  H  H15  1  0.46431900  0.56386000  0.15465200  1
  H  H16  1  0.37007700  0.24286400  0.67762900  1
  H  H17  1  0.02919000  0.43410800  0.72807600  1
  H  H18  1  0.36486300  0.45245900  0.91989300  1
  H  H19  1  0.13513700  0.45245900  0.41989300  1
  H  H20  1  0.05264000  0.03921200  0.27963700  1
  H  H21  1  0.10740300  0.93614600  0.75545600  1
  H  H22  1  0.12992300  0.24286400  0.17762900  1
  H  H23  1  0.96431900  0.43614000  0.34534800  1
  H  H24  1  0.46929200  0.53958300  0.94899300  1
  H  H25  1  0.53070800  0.46041700  0.05100700  1
  H  H26  1  0.94736000  0.96078800  0.72036300  1
  H  H27  1  0.62992300  0.75713600  0.32237100  1
  H  H28  1  0.63513700  0.54754100  0.08010700  1
  H  H29  1  0.03070800  0.53958300  0.44899300  1
  H  H30  1  0.87007700  0.75713600  0.82237100  1
  H  H31  1  0.03568100  0.56386000  0.65465200  1
  H  H32  1  0.06038900  0.40549000  0.15103000  1
  H  H33  1  0.86486300  0.54754100  0.58010700  1
  H  H34  1  0.31382000  0.61003900  0.91679100  1
  H  H35  1  0.56038900  0.59451000  0.34897000  1
  H  H36  1  0.18618000  0.61003900  0.41679100  1
  H  H37  1  0.59144500  0.05104700  0.81804700  1
  H  H38  1  0.60740300  0.06385400  0.74454400  1
  H  H39  1  0.96251300  0.27133900  0.15011200  1
  H  H40  1  0.40855500  0.94895300  0.18195300  1
  H  H41  1  0.96929200  0.46041700  0.55100700  1
  H  H42  1  0.53568100  0.43614000  0.84534800  1
  H  H43  1  0.53748700  0.27133900  0.65011200  1
  H  H44  1  0.52919000  0.56589200  0.77192400  1
  H  H45  1  0.09144500  0.94895300  0.68195300  1
  H  H46  1  0.68618000  0.38996100  0.08320900  1
  H  H47  1  0.87681500  0.50658900  0.69017400  1
  W  W0  1  0.86980500  0.21731300  0.97242800  1
  W  W1  1  0.09393800  0.09344200  0.88983500  1
  W  W2  1  0.59393800  0.90655800  0.61016500  1
  W  W3  1  0.40606200  0.09344200  0.38983500  1
  W  W4  1  0.63019500  0.21731300  0.47242800  1
  W  W5  1  0.70403900  0.89961200  0.46954400  1
  W  W6  1  0.20403900  0.10038800  0.03045600  1
  W  W7  1  0.79596100  0.89961200  0.96954400  1
  W  W8  1  0.36980500  0.78268700  0.52757200  1
  W  W9  1  0.29596100  0.10038800  0.53045600  1
  W  W10  1  0.13019500  0.78268700  0.02757200  1
  W  W11  1  0.90606200  0.90655800  0.11016500  1
  C  C0  1  0.03889500  0.29904900  0.17356100  1
  C  C1  1  0.96110500  0.70095100  0.82643900  1
  C  C2  1  0.95538100  0.08545000  0.27472000  1
  C  C3  1  0.89743000  0.45008800  0.58508000  1
  C  C4  1  0.04461900  0.91455000  0.72528000  1
  C  C5  1  0.60257000  0.45008800  0.08508000  1
  C  C6  1  0.45538100  0.91455000  0.22528000  1
  C  C7  1  0.53889500  0.70095100  0.32643900  1
  C  C8  1  0.47852900  0.52098900  0.81452900  1
  C  C9  1  0.39743000  0.54991200  0.91492000  1
  C  C10  1  0.46110500  0.29904900  0.67356100  1
  C  C11  1  0.54461900  0.08545000  0.77472000  1
  C  C12  1  0.97852900  0.47901100  0.68547100  1
  C  C13  1  0.52147100  0.47901100  0.18547100  1
  C  C14  1  0.02147100  0.52098900  0.31452900  1
  C  C15  1  0.10257000  0.54991200  0.41492000  1
  S  S0  1  0.98112400  0.26166500  0.24655000  1
  S  S1  1  0.02382300  0.64148900  0.34409300  1
  S  S2  1  0.01887600  0.73833500  0.75345000  1
  S  S3  1  0.48112400  0.73833500  0.25345000  1
  S  S4  1  0.51887600  0.26166500  0.74655000  1
  S  S5  1  0.97617700  0.35851100  0.65590700  1
  S  S6  1  0.47617700  0.64148900  0.84409300  1
  S  S7  1  0.52382300  0.35851100  0.15590700  1
  Cl  Cl0  1  0.17878600  0.88586800  0.55544800  1
  Cl  Cl1  1  0.06913900  0.30658400  0.00245700  1
  Cl  Cl2  1  0.31941500  0.17561900  0.29144800  1
  Cl  Cl3  1  0.21278600  0.87665700  0.92358600  1
  Cl  Cl4  1  0.68058500  0.82438100  0.70855200  1
  Cl  Cl5  1  0.71657300  0.81681500  0.07397800  1
  Cl  Cl6  1  0.89180100  0.99323400  0.86753800  1
  Cl  Cl7  1  0.67878600  0.11413200  0.94455200  1
  Cl  Cl8  1  0.75020100  0.42077800  0.94605500  1
  Cl  Cl9  1  0.46209200  0.70196700  0.62986300  1
  Cl  Cl10  1  0.24979900  0.57922200  0.05394500  1
  Cl  Cl11  1  0.60819900  0.99323400  0.36753800  1
  Cl  Cl12  1  0.18058500  0.17561900  0.79144800  1
  Cl  Cl13  1  0.38941600  0.19271200  0.05847300  1
  Cl  Cl14  1  0.56913900  0.69341600  0.49754300  1
  Cl  Cl15  1  0.10819900  0.00676600  0.13246200  1
  Cl  Cl16  1  0.32121400  0.88586800  0.05544800  1
  Cl  Cl17  1  0.74979900  0.42077800  0.44605500  1
  Cl  Cl18  1  0.61058400  0.80728800  0.94152700  1
  Cl  Cl19  1  0.21657300  0.18318500  0.42602200  1
  Cl  Cl20  1  0.71278600  0.12334300  0.57641400  1
  Cl  Cl21  1  0.28721400  0.87665700  0.42358600  1
  Cl  Cl22  1  0.25020100  0.57922200  0.55394500  1
  Cl  Cl23  1  0.53790800  0.29803300  0.37013700  1
  Cl  Cl24  1  0.28342700  0.18318500  0.92602200  1
  Cl  Cl25  1  0.39180100  0.00676600  0.63246200  1
  Cl  Cl26  1  0.78721400  0.12334300  0.07641400  1
  Cl  Cl27  1  0.43086100  0.30658400  0.50245700  1
  Cl  Cl28  1  0.82121400  0.11413200  0.44455200  1
  Cl  Cl29  1  0.81941500  0.82438100  0.20855200  1
  Cl  Cl30  1  0.78342700  0.81681500  0.57397800  1
  Cl  Cl31  1  0.93086100  0.69341600  0.99754300  1
  Cl  Cl32  1  0.03790800  0.70196700  0.12986300  1
  Cl  Cl33  1  0.96209200  0.29803300  0.87013700  1
  Cl  Cl34  1  0.88941600  0.80728800  0.44152700  1
  Cl  Cl35  1  0.11058400  0.19271200  0.55847300  1
  O  O0  1  0.61318500  0.24552600  0.19306400  1
  O  O1  1  0.38681500  0.75447400  0.80693600  1
  O  O2  1  0.11318500  0.75447400  0.30693600  1
  O  O3  1  0.88681500  0.24552600  0.69306400  1
  O  O4  1  0.14959400  0.66983600  0.75844000  1
  O  O5  1  0.85040600  0.33016400  0.24156000  1
  O  O6  1  0.35040600  0.66983600  0.25844000  1
  O  O7  1  0.64959400  0.33016400  0.74156000  1
loop_
_geom_bond_atom_site_label_1
_geom_bond_atom_site_label_2
_geom_bond_distance
_geom_bond_site_symmetry_2
C0 H22 1.094120 1_555
C0 H32 1.095078 1_555
C0 H39 1.095802 1_455
C0 S0 1.796972 1_455
C1 H30 1.094120 1_555
C1 H3 1.095078 1_555
C1 H7 1.095802 1_655
C1 S2 1.796972 1_655
C2 H20 1.093122 1_655
C2 H9 1.094906 1_555
C2 H1 1.094927 1_555
C2 S0 1.799768 1_555
C3 H41 1.091931 1_555
C3 H33 1.092233 1_555
C3 H11 1.094077 1_555
C3 S5 1.810938 1_555
C4 H26 1.093122 1_455
C4 H21 1.094906 1_555
C4 H45 1.094927 1_555
C4 S2 1.799768 1_555
C5 H25 1.091931 1_555
C5 H28 1.092233 1_555
C5 H46 1.094077 1_555
C5 S7 1.810938 1_555
C6 H12 1.093122 1_555
C6 H13 1.094906 1_555
C6 H40 1.094927 1_555
C6 S3 1.799768 1_555
C7 H27 1.094120 1_555
C7 H35 1.095078 1_555
C7 H2 1.095802 1_555
C7 S3 1.796972 1_555
C8 H42 1.094226 1_555
C8 H44 1.094766 1_555
C8 H6 1.095191 1_555
C8 S6 1.800490 1_555
C9 H24 1.091931 1_555
C9 H18 1.092233 1_555
C9 H34 1.094077 1_555
C9 S6 1.810938 1_555
C10 H16 1.094120 1_555
C10 H10 1.095078 1_555
C10 H43 1.095802 1_555
C10 S4 1.796972 1_555
C11 H8 1.093122 1_555
C11 H38 1.094906 1_555
C11 H37 1.094927 1_555
C11 S4 1.799768 1_555
C12 H31 1.094226 1_655
C12 H17 1.094766 1_655
C12 H47 1.095191 1_555
C12 S5 1.800490 1_555
C13 H15 1.094226 1_555
C13 H0 1.094766 1_555
C13 H4 1.095191 1_555
C13 S7 1.800490 1_555
C14 H23 1.094226 1_455
C14 H5 1.094766 1_455
C14 H14 1.095191 1_555
C14 S1 1.800490 1_555
C15 H29 1.091931 1_555
C15 H19 1.092233 1_555
C15 H36 1.094077 1_555
C15 S1 1.810938 1_555
Cl0 W9 2.498600 1_565
Cl0 W8 2.502222 1_555
Cl1 W6 2.502540 1_555
Cl1 W0 2.507954 1_454
Cl2 W3 2.403531 1_555
Cl3 W1 2.500747 1_565
Cl3 W10 2.504575 1_556
Cl4 W2 2.403531 1_555
Cl5 W11 2.511189 1_555
Cl5 W7 2.511423 1_554
Cl6 W1 2.509614 1_665
Cl6 W7 2.510383 1_555
Cl7 W7 2.498600 1_545
Cl7 W0 2.502222 1_555
Cl8 W0 2.401673 1_555
Cl9 W2 2.504413 1_555
Cl9 W8 2.511103 1_555
Cl10 W10 2.401673 1_555
Cl11 W3 2.509614 1_565
Cl11 W5 2.510383 1_555
Cl12 W1 2.403531 1_555
Cl13 W6 2.390108 1_555
Cl14 W5 2.502540 1_555
Cl14 W8 2.507954 1_555
Cl15 W11 2.509614 1_445
Cl15 W6 2.510383 1_555
Cl16 W6 2.498600 1_565
Cl16 W10 2.502222 1_555
Cl17 W4 2.401673 1_555
Cl18 W7 2.390108 1_555
Cl19 W3 2.511189 1_555
Cl19 W9 2.511423 1_555
Cl20 W2 2.500747 1_545
Cl20 W4 2.504575 1_555
Cl21 W3 2.500747 1_565
Cl21 W8 2.504575 1_555
Cl22 W8 2.401673 1_555
Cl23 W3 2.504413 1_555
Cl23 W4 2.511103 1_555
Cl24 W1 2.511189 1_555
Cl24 W6 2.511423 1_556
Cl25 W2 2.509614 1_545
Cl25 W9 2.510383 1_555
Cl26 W11 2.500747 1_545
Cl26 W0 2.504575 1_554
Cl27 W9 2.502540 1_555
Cl27 W4 2.507954 1_555
Cl28 W5 2.498600 1_545
Cl28 W4 2.502222 1_555
Cl29 W11 2.403531 1_555
Cl30 W2 2.511189 1_555
Cl30 W5 2.511423 1_555
Cl31 W7 2.502540 1_555
Cl31 W10 2.507954 1_656
Cl32 W11 2.504413 1_455
Cl32 W10 2.511103 1_555
Cl33 W1 2.504413 1_655
Cl33 W0 2.511103 1_555
Cl34 W5 2.390108 1_555
Cl35 W9 2.390108 1_555
O0 S7 1.504066 1_555
O1 S6 1.504066 1_555
O2 S1 1.504066 1_555
O3 S5 1.504066 1_555
O4 S2 1.505721 1_555
O5 S0 1.505721 1_555
O6 S3 1.505721 1_555
O7 S4 1.505721 1_555
