# generated using pymatgen
data_Sr6Mg7H26
_symmetry_space_group_name_H-M   'P 1'
_cell_length_a   9.55491849
_cell_length_b   9.55491849
_cell_length_c   11.56862421
_cell_angle_alpha   53.59571916
_cell_angle_beta   53.59571916
_cell_angle_gamma   34.30708007
_symmetry_Int_Tables_number   1
_chemical_formula_structural   Sr6Mg7H26
_chemical_formula_sum   'Sr6 Mg7 H26'
_cell_volume   466.54375427
_cell_formula_units_Z   1
loop_
 _symmetry_equiv_pos_site_id
 _symmetry_equiv_pos_as_xyz
  1  'x, y, z'
loop_
 _atom_site_type_symbol
 _atom_site_label
 _atom_site_symmetry_multiplicity
 _atom_site_fract_x
 _atom_site_fract_y
 _atom_site_fract_z
 _atom_site_occupancy
  Sr  Sr0  1  0.64446600  0.64446600  0.09273100  1
  Sr  Sr1  1  0.35553400  0.35553400  0.90726900  1
  Sr  Sr2  1  0.34208800  0.34208800  0.40215200  1
  Sr  Sr3  1  0.65791200  0.65791200  0.59784800  1
  Sr  Sr4  1  0.15022000  0.15022000  0.34683600  1
  Sr  Sr5  1  0.84978000  0.84978000  0.65316400  1
  Mg  Mg0  1  0.77873500  0.77873500  0.20859400  1
  Mg  Mg1  1  0.22126500  0.22126500  0.79140600  1
  Mg  Mg2  1  0.01312100  0.01312100  0.72383700  1
  Mg  Mg3  1  0.98687900  0.98687900  0.27616300  1
  Mg  Mg4  1  0.74307700  0.25692300  0.00000000  1
  Mg  Mg5  1  0.25692300  0.74307700  0.00000000  1
  Mg  Mg6  1  0.50000000  0.50000000  0.50000000  1
  H  H0  1  0.51124700  0.99986100  0.11913300  1
  H  H1  1  0.00013900  0.48875300  0.88086700  1
  H  H2  1  0.48875300  0.00013900  0.88086700  1
  H  H3  1  0.99986100  0.51124700  0.11913300  1
  H  H4  1  0.01258300  0.48220500  0.64685200  1
  H  H5  1  0.51779500  0.98741700  0.35314800  1
  H  H6  1  0.98741700  0.51779500  0.35314800  1
  H  H7  1  0.48220500  0.01258300  0.64685200  1
  H  H8  1  0.77911900  0.28058300  0.58171800  1
  H  H9  1  0.71941700  0.22088100  0.41828200  1
  H  H10  1  0.22088100  0.71941700  0.41828200  1
  H  H11  1  0.28058300  0.77911900  0.58171800  1
  H  H12  1  0.73175300  0.28624800  0.82347000  1
  H  H13  1  0.71375200  0.26824700  0.17653000  1
  H  H14  1  0.26824700  0.71375200  0.17653000  1
  H  H15  1  0.28624800  0.73175300  0.82347000  1
  H  H16  1  0.88264100  0.88264100  0.83053300  1
  H  H17  1  0.11735900  0.11735900  0.16946700  1
  H  H18  1  0.14652200  0.14652200  0.57725800  1
  H  H19  1  0.85347800  0.85347800  0.42274200  1
  H  H20  1  0.40654900  0.40654900  0.08049400  1
  H  H21  1  0.59345100  0.59345100  0.91950600  1
  H  H22  1  0.91218400  0.91218400  0.08237400  1
  H  H23  1  0.08781600  0.08781600  0.91762600  1
  H  H24  1  0.62931800  0.62931800  0.32809800  1
  H  H25  1  0.37068200  0.37068200  0.67190200  1
loop_
_geom_bond_atom_site_label_1
_geom_bond_atom_site_label_2
_geom_bond_distance
_geom_bond_site_symmetry_2
H0 Mg0 1.921048 1_555
H0 Sr1 2.420462 1_564
H0 Sr4 2.534065 1_565
H0 Sr0 2.621731 1_555
H1 Mg1 1.921048 1_555
H1 Sr0 2.420462 1_456
H1 Sr5 2.534065 1_455
H1 Sr1 2.621731 1_555
H2 Mg1 1.921048 1_555
H2 Sr0 2.420462 1_546
H2 Sr5 2.534065 1_545
H2 Sr1 2.621731 1_555
H3 Mg0 1.921048 1_555
H3 Sr1 2.420462 1_654
H3 Sr4 2.534065 1_655
H3 Sr0 2.621731 1_555
H4 Mg1 1.945385 1_555
H4 Sr5 2.429828 1_455
H4 Sr3 2.525011 1_455
H4 Sr2 2.583507 1_555
H5 Mg0 1.945385 1_555
H5 Sr4 2.429828 1_565
H5 Sr2 2.525011 1_565
H5 Sr3 2.583507 1_555
H6 Mg0 1.945385 1_555
H6 Sr4 2.429828 1_655
H6 Sr2 2.525011 1_655
H6 Sr3 2.583507 1_555
H7 Mg1 1.945385 1_555
H7 Sr5 2.429828 1_545
H7 Sr3 2.525011 1_545
H7 Sr2 2.583507 1_555
H8 Mg6 1.950560 1_555
H8 Mg2 2.041950 1_655
H8 Sr4 2.606235 1_655
H8 Sr3 2.831709 1_555
H9 Mg6 1.950560 1_555
H9 Mg3 2.041950 1_545
H9 Sr5 2.606235 1_545
H9 Sr2 2.831709 1_555
H10 Mg6 1.950560 1_555
H10 Mg3 2.041950 1_455
H10 Sr5 2.606235 1_455
H10 Sr2 2.831709 1_555
H11 Mg6 1.950560 1_555
H11 Mg2 2.041950 1_565
H11 Sr4 2.606235 1_565
H11 Sr3 2.831709 1_555
H12 Mg2 1.915251 1_655
H12 Mg4 1.947774 1_556
H12 Sr3 2.639358 1_555
H12 Sr1 2.644628 1_555
H13 Mg3 1.915251 1_545
H13 Mg4 1.947774 1_555
H13 Sr2 2.639358 1_555
H13 Sr0 2.644628 1_555
H14 Mg3 1.915251 1_455
H14 Mg5 1.947774 1_555
H14 Sr2 2.639358 1_555
H14 Sr0 2.644628 1_555
H15 Mg2 1.915251 1_565
H15 Mg5 1.947774 1_556
H15 Sr3 2.639358 1_555
H15 Sr1 2.644628 1_555
H16 Mg2 1.883323 1_665
H16 Sr5 2.469785 1_555
H16 Sr1 2.903225 1_655
H16 Sr1 2.903225 1_565
H17 Mg3 1.883323 1_445
H17 Sr4 2.469785 1_555
H17 Sr0 2.903225 1_545
H17 Sr0 2.903225 1_455
H18 Mg2 1.917787 1_555
H18 Sr4 2.624259 1_555
H18 Sr2 2.805274 1_555
H18 Sr3 2.846580 1_545
H18 Sr3 2.846580 1_455
H19 Mg3 1.917787 1_555
H19 Sr5 2.624259 1_555
H19 Sr3 2.805274 1_555
H19 Sr2 2.846580 1_565
H19 Sr2 2.846580 1_655
H20 Mg5 1.918849 1_555
H20 Mg4 1.918849 1_555
H20 Sr1 2.683757 1_554
H21 Mg4 1.918849 1_556
H21 Mg5 1.918849 1_556
H21 Sr0 2.683757 1_556
H22 Mg0 1.910487 1_555
H22 Mg5 1.917813 1_655
H22 Mg4 1.917813 1_565
H23 Mg1 1.910487 1_555
H23 Mg4 1.917813 1_456
H23 Mg5 1.917813 1_546
H24 Mg6 1.922847 1_555
H24 Mg0 2.160911 1_555
H24 Sr0 2.560268 1_555
H24 Sr4 2.870003 1_565
H24 Sr4 2.870003 1_655
H25 Mg6 1.922847 1_555
H25 Mg1 2.160911 1_555
H25 Sr1 2.560268 1_555
H25 Sr5 2.870003 1_545
H25 Sr5 2.870003 1_455
