# generated using pymatgen
data_CsCd(NO2)3
_symmetry_space_group_name_H-M   'P 1'
_cell_length_a   5.58508289
_cell_length_b   5.58508289
_cell_length_c   5.58508276
_cell_angle_alpha   90.31035452
_cell_angle_beta   90.31035452
_cell_angle_gamma   90.31034134
_symmetry_Int_Tables_number   1
_chemical_formula_structural   CsCd(NO2)3
_chemical_formula_sum   'Cs1 Cd1 N3 O6'
_cell_volume   174.20863418
_cell_formula_units_Z   1
loop_
 _symmetry_equiv_pos_site_id
 _symmetry_equiv_pos_as_xyz
  1  'x, y, z'
loop_
 _atom_site_type_symbol
 _atom_site_label
 _atom_site_symmetry_multiplicity
 _atom_site_fract_x
 _atom_site_fract_y
 _atom_site_fract_z
 _atom_site_occupancy
  Cs  Cs0  1  0.44527000  0.44527000  0.44527000  1
  Cd  Cd0  1  0.98025600  0.98025600  0.98025600  1
  N  N0  1  0.52675200  0.95781400  0.93229400  1
  N  N1  1  0.95781400  0.93229400  0.52675200  1
  N  N2  1  0.93229400  0.52675200  0.95781400  1
  O  O0  1  0.75919000  0.93442400  0.42177400  1
  O  O1  1  0.42177400  0.75919000  0.93442400  1
  O  O2  1  0.93575900  0.39401300  0.14192200  1
  O  O3  1  0.14192200  0.93575900  0.39401300  1
  O  O4  1  0.39401300  0.14192200  0.93575900  1
  O  O5  1  0.93442400  0.42177400  0.75919000  1
loop_
_geom_bond_atom_site_label_1
_geom_bond_atom_site_label_2
_geom_bond_distance
_geom_bond_site_symmetry_2
Cs0 O1 3.241804 1_555
Cs0 O5 3.241804 1_555
Cs0 O0 3.241805 1_555
Cs0 O3 3.241959 1_555
Cs0 O2 3.241959 1_555
Cs0 O4 3.241959 1_555
Cs0 O4 3.314185 1_554
Cs0 O2 3.314186 1_455
Cs0 O3 3.314186 1_545
Cs0 O0 3.359178 1_545
Cs0 O1 3.359178 1_554
Cs0 O5 3.359178 1_455
Cd0 O3 2.490618 1_656
Cd0 O2 2.490618 1_566
Cd0 O4 2.490618 1_665
Cd0 N1 2.547877 1_555
Cd0 N0 2.547877 1_555
Cd0 N2 2.547877 1_555
Cd0 O1 2.776161 1_655
Cd0 O5 2.776161 1_565
Cd0 O0 2.776161 1_556
N0 O1 1.252075 1_555
N0 O4 1.271023 1_565
N1 O0 1.252075 1_555
N1 O3 1.271023 1_655
N2 O5 1.252075 1_555
N2 O2 1.271023 1_556
