# generated using pymatgen
data_K2Na5Al7Si5O24
_symmetry_space_group_name_H-M   'P 1'
_cell_length_a   12.19603400
_cell_length_b   12.70265504
_cell_length_c   12.70633267
_cell_angle_alpha   89.77277261
_cell_angle_beta   89.69772686
_cell_angle_gamma   89.76588901
_symmetry_Int_Tables_number   1
_chemical_formula_structural   K2Na5Al7Si5O24
_chemical_formula_sum   'K4 Na10 Al14 Si10 O48'
_cell_volume   1968.43149233
_cell_formula_units_Z   2
loop_
 _symmetry_equiv_pos_site_id
 _symmetry_equiv_pos_as_xyz
  1  'x, y, z'
loop_
 _atom_site_type_symbol
 _atom_site_label
 _atom_site_symmetry_multiplicity
 _atom_site_fract_x
 _atom_site_fract_y
 _atom_site_fract_z
 _atom_site_occupancy
  K  K0  1  0.50892500  0.61380500  0.01663900  1
  K  K1  1  0.50678000  0.98515100  0.39426200  1
  K  K2  1  0.50090100  0.38034100  0.01719000  1
  K  K3  1  0.50322900  0.98111600  0.62799300  1
  Na  Na0  1  0.19659300  0.79403100  0.19860400  1
  Na  Na1  1  0.18616000  0.21404800  0.19195900  1
  Na  Na2  1  0.19710400  0.81071600  0.78899400  1
  Na  Na3  1  0.18176600  0.19790100  0.79289200  1
  Na  Na4  1  0.81039300  0.19212400  0.49407400  1
  Na  Na5  1  0.81006100  0.50394200  0.81080000  1
  Na  Na6  1  0.80112800  0.80459500  0.20199100  1
  Na  Na7  1  0.81128200  0.20316900  0.18174400  1
  Na  Na8  1  0.81385200  0.81704600  0.79860100  1
  Na  Na9  1  0.82831800  0.18690800  0.81421000  1
  Al  Al0  1  0.01049600  0.37349800  0.81425600  1
  Al  Al1  1  0.18475600  0.63206700  0.99735200  1
  Al  Al2  1  0.19093900  0.99309500  0.61797200  1
  Al  Al3  1  0.35415500  0.17236700  0.00153000  1
  Al  Al4  1  0.35728300  0.00399500  0.82788000  1
  Al  Al5  1  0.63619000  0.82669800  0.99945900  1
  Al  Al6  1  0.63199200  0.99674900  0.17891200  1
  Al  Al7  1  0.63636500  0.17499900  0.00657900  1
  Al  Al8  1  0.64060700  0.00563500  0.83055000  1
  Al  Al9  1  0.81548200  0.63357500  0.00173300  1
  Al  Al10  1  0.81493700  0.37370100  0.00155300  1
  Al  Al11  1  0.81235400  0.00110700  0.36684800  1
  Al  Al12  1  0.81737000  0.00125500  0.62627500  1
  Al  Al13  1  0.00698800  0.18385200  0.36296800  1
  Si  Si0  1  0.00041500  0.81309200  0.37097300  1
  Si  Si1  1  0.00603000  0.63572600  0.81199800  1
  Si  Si2  1  0.01078500  0.18445300  0.62391100  1
  Si  Si3  1  0.19065300  0.37924000  0.99983400  1
  Si  Si4  1  0.18400300  0.99247100  0.36406900  1
  Si  Si5  1  0.36054800  0.82596100  0.99876400  1
  Si  Si6  1  0.35708200  0.99733300  0.17376700  1
  Si  Si7  1  0.00099800  0.63096700  0.18562000  1
  Si  Si8  1  0.00452200  0.38288300  0.18440900  1
  Si  Si9  1  0.00244100  0.81206000  0.61983100  1
  O  O0  1  0.00465000  0.70939200  0.29171900  1
  O  O1  1  0.00485500  0.50717600  0.22532100  1
  O  O2  1  0.02210700  0.29804200  0.28054300  1
  O  O3  1  0.00174200  0.70903100  0.70179900  1
  O  O4  1  0.00243200  0.21940800  0.49860600  1
  O  O5  1  0.02196700  0.28500700  0.70515200  1
  O  O6  1  0.11012900  0.65904900  0.11553900  1
  O  O7  1  0.11285300  0.88167400  0.34052600  1
  O  O8  1  0.11949100  0.09942100  0.32917300  1
  O  O9  1  0.11586600  0.66873700  0.87860800  1
  O  O10  1  0.11244900  0.36372300  0.10708000  1
  O  O11  1  0.11394000  0.87665800  0.64402600  1
  O  O12  1  0.11686100  0.10901300  0.64697300  1
  O  O13  1  0.12613700  0.34423400  0.89309900  1
  O  O14  1  0.23017300  0.50142800  0.99361100  1
  O  O15  1  0.22730300  0.99222000  0.48372400  1
  O  O16  1  0.30238300  0.70973300  0.01068200  1
  O  O17  1  0.29362600  0.97793600  0.28878800  1
  O  O18  1  0.29454900  0.30148300  0.02102500  1
  O  O19  1  0.30403700  0.98476100  0.69936500  1
  O  O20  1  0.32140600  0.89027600  0.10767100  1
  O  O21  1  0.30915100  0.10297600  0.11893600  1
  O  O22  1  0.31279300  0.88701500  0.89690200  1
  O  O23  1  0.29882000  0.11358600  0.89045100  1
  O  O24  1  0.49061400  0.80619900  0.99800000  1
  O  O25  1  0.48506100  0.99803300  0.20099600  1
  O  O26  1  0.49779200  0.00695700  0.81452300  1
  O  O27  1  0.49318000  0.19314500  0.00393300  1
  O  O28  1  0.66965800  0.88129200  0.11852700  1
  O  O29  1  0.67531800  0.11235700  0.12314000  1
  O  O30  1  0.68387700  0.88775300  0.88790900  1
  O  O31  1  0.68923200  0.11766800  0.89281200  1
  O  O32  1  0.69257700  0.69981000  0.00249300  1
  O  O33  1  0.69650600  0.30134200  0.01856100  1
  O  O34  1  0.68798000  0.98373800  0.30506500  1
  O  O35  1  0.70160000  0.99980000  0.70381900  1
  O  O36  1  0.77684700  0.50439300  0.98457500  1
  O  O37  1  0.77559600  0.01761200  0.49778700  1
  O  O38  1  0.89046800  0.66015300  0.12032900  1
  O  O39  1  0.89323600  0.88290800  0.34325800  1
  O  O40  1  0.88209300  0.12173400  0.33349000  1
  O  O41  1  0.89320100  0.66449900  0.87929200  1
  O  O42  1  0.89383600  0.35596500  0.12028200  1
  O  O43  1  0.89338700  0.88101700  0.64568900  1
  O  O44  1  0.89495000  0.12223900  0.65301800  1
  O  O45  1  0.88672000  0.34502100  0.88021600  1
  O  O46  1  0.00467800  0.77320000  0.49432100  1
  O  O47  1  0.00258800  0.51101800  0.78014900  1
loop_
_geom_bond_atom_site_label_1
_geom_bond_atom_site_label_2
_geom_bond_distance
_geom_bond_site_symmetry_2
K0 O24 2.463775 1_554
K0 O32 2.501371 1_555
K0 O16 2.795012 1_555
K1 O25 2.476032 1_555
K1 O34 2.478307 1_555
K1 O17 2.932964 1_555
K2 O27 2.386788 1_555
K2 O33 2.584407 1_555
K2 O18 2.712631 1_555
K3 O26 2.394559 1_565
K3 O19 2.588917 1_555
K3 O35 2.620860 1_555
Na0 O20 2.265455 1_555
Na0 O6 2.281845 1_555
Na0 O7 2.349808 1_555
Na0 O0 2.831438 1_555
Na0 O17 2.868622 1_555
Na0 O16 2.913651 1_555
Na1 O21 2.253883 1_555
Na1 O10 2.359271 1_555
Na1 O8 2.407402 1_555
Na1 O2 2.525233 1_555
Na1 O18 2.767839 1_555
Na2 O22 2.202772 1_555
Na2 O11 2.263608 1_555
Na2 O9 2.348886 1_555
Na2 O19 2.805981 1_555
Na2 O3 2.938920 1_555
Na3 O23 2.171962 1_555
Na3 O12 2.319174 1_555
Na3 O13 2.352882 1_555
Na3 O5 2.502194 1_555
Na4 O37 2.258988 1_555
Na4 O4 2.370052 1_655
Na4 O40 2.390980 1_555
Na4 O44 2.435281 1_555
Na5 O36 2.242815 1_555
Na5 O47 2.380120 1_655
Na5 O45 2.388817 1_555
Na5 O41 2.446506 1_555
Na6 O28 2.154482 1_555
Na6 O39 2.349055 1_555
Na6 O38 2.370062 1_555
Na7 O29 2.161099 1_555
Na7 O42 2.320863 1_555
Na7 O40 2.351181 1_555
Na7 O33 2.794585 1_555
Na8 O30 2.141188 1_555
Na8 O43 2.313079 1_555
Na8 O41 2.392072 1_555
Na9 O31 2.153100 1_555
Na9 O45 2.296951 1_555
Na9 O44 2.349572 1_555
Al0 O45 1.760911 1_455
Al0 O13 1.771606 1_555
Al0 O5 1.792762 1_555
Al0 O47 1.800480 1_555
Al1 O14 1.748063 1_555
Al1 O16 1.753705 1_556
Al1 O6 1.785535 1_556
Al1 O9 1.789963 1_555
Al2 O19 1.731005 1_555
Al2 O15 1.760311 1_555
Al2 O12 1.763548 1_565
Al2 O11 1.784173 1_555
Al3 O27 1.717488 1_555
Al3 O23 1.739990 1_554
Al3 O18 1.808697 1_555
Al3 O21 1.813440 1_555
Al4 O26 1.721695 1_555
Al4 O23 1.753030 1_555
Al4 O19 1.778649 1_545
Al4 O22 1.806342 1_545
Al5 O30 1.713187 1_555
Al5 O28 1.718606 1_556
Al5 O32 1.750168 1_556
Al5 O24 1.795699 1_555
Al6 O29 1.712343 1_565
Al6 O28 1.717667 1_555
Al6 O34 1.752576 1_555
Al6 O25 1.812367 1_555
Al7 O31 1.740807 1_554
Al7 O29 1.745680 1_555
Al7 O27 1.760982 1_555
Al7 O33 1.774708 1_555
Al8 O31 1.738850 1_555
Al8 O30 1.743808 1_545
Al8 O26 1.754712 1_555
Al8 O35 1.771925 1_545
Al9 O32 1.715939 1_555
Al9 O36 1.724101 1_554
Al9 O38 1.800627 1_555
Al9 O41 1.858985 1_554
Al10 O33 1.727362 1_555
Al10 O36 1.735023 1_554
Al10 O42 1.806501 1_555
Al10 O45 1.806589 1_554
Al11 O34 1.726999 1_545
Al11 O37 1.734110 1_555
Al11 O40 1.803513 1_555
Al11 O39 1.818126 1_545
Al12 O35 1.717588 1_545
Al12 O37 1.724349 1_555
Al12 O43 1.800279 1_545
Al12 O44 1.841719 1_555
Al13 O40 1.761054 1_455
Al13 O4 1.783917 1_555
Al13 O8 1.789605 1_555
Al13 O2 1.795264 1_555
O0 Si0 1.661739 1_555
O0 Si7 1.680330 1_555
O1 Si7 1.650066 1_555
O1 Si8 1.664214 1_555
O2 Si8 1.640112 1_555
O3 Si9 1.669375 1_555
O3 Si1 1.679426 1_555
O4 Si2 1.654770 1_555
O5 Si2 1.651987 1_555
O6 Si7 1.637227 1_555
O7 Si0 1.670497 1_555
O7 Si4 1.685038 1_555
O8 Si4 1.628332 1_545
O9 Si1 1.644985 1_555
O10 Si8 1.656172 1_555
O10 Si3 1.670688 1_554
O11 Si9 1.622514 1_555
O12 Si2 1.633861 1_555
O13 Si3 1.635560 1_555
O14 Si3 1.628605 1_555
O15 Si4 1.612095 1_555
O16 Si5 1.646687 1_554
O17 Si4 1.649981 1_555
O17 Si6 1.668048 1_555
O18 Si3 1.626329 1_554
O20 Si6 1.661850 1_555
O20 Si5 1.676027 1_554
O21 Si6 1.618148 1_545
O22 Si5 1.616225 1_555
O24 Si5 1.605001 1_555
O25 Si6 1.600571 1_555
O38 Si7 1.627315 1_655
O39 Si0 1.616194 1_655
O41 Si1 1.656570 1_655
O42 Si8 1.618872 1_655
O43 Si9 1.622448 1_655
O44 Si2 1.660850 1_655
O46 Si0 1.646287 1_555
O46 Si9 1.671341 1_555
O47 Si1 1.637310 1_555
