# generated using pymatgen
data_BeH8(NF2)2
_symmetry_space_group_name_H-M   'P 1'
_cell_length_a   6.10481600
_cell_length_b   7.51368700
_cell_length_c   10.58199700
_cell_angle_alpha   90.00000000
_cell_angle_beta   90.00000000
_cell_angle_gamma   90.00000000
_symmetry_Int_Tables_number   1
_chemical_formula_structural   BeH8(NF2)2
_chemical_formula_sum   'Be4 H32 N8 F16'
_cell_volume   485.39278035
_cell_formula_units_Z   4
loop_
 _symmetry_equiv_pos_site_id
 _symmetry_equiv_pos_as_xyz
  1  'x, y, z'
loop_
 _atom_site_type_symbol
 _atom_site_label
 _atom_site_symmetry_multiplicity
 _atom_site_fract_x
 _atom_site_fract_y
 _atom_site_fract_z
 _atom_site_occupancy
  Be  Be0  1  0.75000000  0.25042200  0.08276400  1
  Be  Be1  1  0.25000000  0.74957800  0.91723600  1
  Be  Be2  1  0.75000000  0.75042200  0.41723600  1
  Be  Be3  1  0.25000000  0.24957800  0.58276400  1
  H  H0  1  0.11252700  0.66966200  0.53657700  1
  H  H1  1  0.88625600  0.11381800  0.67462300  1
  H  H2  1  0.75000000  0.92044200  0.63605200  1
  H  H3  1  0.38625600  0.88618200  0.32537700  1
  H  H4  1  0.61252700  0.33033800  0.46342300  1
  H  H5  1  0.75000000  0.88341000  0.16924500  1
  H  H6  1  0.25000000  0.57955800  0.13605200  1
  H  H7  1  0.25000000  0.00293800  0.21488000  1
  H  H8  1  0.25000000  0.50293800  0.28512000  1
  H  H9  1  0.75000000  0.16790700  0.38531200  1
  H  H10  1  0.75000000  0.49706200  0.71488000  1
  H  H11  1  0.88747300  0.33033800  0.46342300  1
  H  H12  1  0.75000000  0.99706200  0.78512000  1
  H  H13  1  0.75000000  0.42044200  0.86394800  1
  H  H14  1  0.25000000  0.07955800  0.36394800  1
  H  H15  1  0.61374400  0.11381800  0.67462300  1
  H  H16  1  0.25000000  0.11659000  0.83075500  1
  H  H17  1  0.75000000  0.38341000  0.33075500  1
  H  H18  1  0.25000000  0.83209300  0.61468800  1
  H  H19  1  0.38625600  0.38618200  0.17462300  1
  H  H20  1  0.88747300  0.83033800  0.03657700  1
  H  H21  1  0.25000000  0.61659000  0.66924500  1
  H  H22  1  0.88625600  0.61381800  0.82537700  1
  H  H23  1  0.11252700  0.16966200  0.96342300  1
  H  H24  1  0.38747300  0.16966200  0.96342300  1
  H  H25  1  0.61374400  0.61381800  0.82537700  1
  H  H26  1  0.25000000  0.33209300  0.88531200  1
  H  H27  1  0.61252700  0.83033800  0.03657700  1
  H  H28  1  0.75000000  0.66790700  0.11468800  1
  H  H29  1  0.38747300  0.66966200  0.53657700  1
  H  H30  1  0.11374400  0.88618200  0.32537700  1
  H  H31  1  0.11374400  0.38618200  0.17462300  1
  N  N0  1  0.25000000  0.96469800  0.30786100  1
  N  N1  1  0.25000000  0.69585500  0.59043700  1
  N  N2  1  0.75000000  0.53530200  0.80786100  1
  N  N3  1  0.25000000  0.19585500  0.90956300  1
  N  N4  1  0.25000000  0.46469800  0.19213900  1
  N  N5  1  0.75000000  0.30414500  0.40956300  1
  N  N6  1  0.75000000  0.03530200  0.69213900  1
  N  N7  1  0.75000000  0.80414500  0.09043700  1
  F  F0  1  0.25000000  0.78174100  0.06304300  1
  F  F1  1  0.75000000  0.45503200  0.11398600  1
  F  F2  1  0.53516500  0.17127200  0.13895100  1
  F  F3  1  0.46483500  0.32872800  0.63895100  1
  F  F4  1  0.75000000  0.95503200  0.38601400  1
  F  F5  1  0.46483500  0.82872800  0.86104900  1
  F  F6  1  0.96483500  0.17127200  0.13895100  1
  F  F7  1  0.25000000  0.54496800  0.88601400  1
  F  F8  1  0.75000000  0.71825900  0.56304300  1
  F  F9  1  0.25000000  0.28174100  0.43695700  1
  F  F10  1  0.03516500  0.32872800  0.63895100  1
  F  F11  1  0.03516500  0.82872800  0.86104900  1
  F  F12  1  0.25000000  0.04496800  0.61398600  1
  F  F13  1  0.96483500  0.67127200  0.36104900  1
  F  F14  1  0.53516500  0.67127200  0.36104900  1
  F  F15  1  0.75000000  0.21825900  0.93695700  1
loop_
_geom_bond_atom_site_label_1
_geom_bond_atom_site_label_2
_geom_bond_distance
_geom_bond_site_symmetry_2
Be0 F2 1.557979 1_555
Be0 F6 1.557979 1_555
Be0 F15 1.561740 1_554
Be0 F1 1.572476 1_555
Be1 F11 1.557979 1_555
Be1 F5 1.557979 1_555
Be1 F0 1.561740 1_556
Be1 F7 1.572476 1_555
Be2 F14 1.557979 1_555
Be2 F13 1.557979 1_555
Be2 F8 1.561740 1_555
Be2 F4 1.572476 1_555
Be3 F10 1.557979 1_555
Be3 F3 1.557979 1_555
Be3 F9 1.561740 1_555
Be3 F12 1.572476 1_555
H0 N1 1.033396 1_555
H1 N6 1.036490 1_555
H2 N6 1.047408 1_565
H3 N0 1.036490 1_555
H4 N5 1.033396 1_555
H5 N7 1.024779 1_555
H6 N4 1.047408 1_555
H7 N0 1.025018 1_545
H8 N4 1.025018 1_555
H9 N5 1.055327 1_555
H10 N2 1.025018 1_555
H11 N5 1.033396 1_555
H12 N6 1.025018 1_565
H13 N2 1.047408 1_555
H14 N0 1.047408 1_545
H15 N6 1.036490 1_555
H16 N3 1.024779 1_555
H17 N5 1.024779 1_555
H18 N1 1.055327 1_555
H19 N4 1.036490 1_555
H20 N7 1.033396 1_555
H21 N1 1.024779 1_555
H22 N2 1.036490 1_555
H23 N3 1.033396 1_555
H24 N3 1.033396 1_555
H25 N2 1.036490 1_555
H26 N3 1.055327 1_555
H27 N7 1.033396 1_555
H28 N7 1.055327 1_555
H29 N1 1.033396 1_555
H30 N0 1.036490 1_555
H31 N4 1.036490 1_555
F1 H28 1.599493 1_555
F4 H9 1.599493 1_565
F7 H26 1.599493 1_555
F12 H18 1.599493 1_545
