# generated using pymatgen
data_LaGeAu
_symmetry_space_group_name_H-M   'P 1'
_cell_length_a   4.48717023
_cell_length_b   4.48717007
_cell_length_c   8.21683455
_cell_angle_alpha   90.00000000
_cell_angle_beta   90.00000000
_cell_angle_gamma   120.00000127
_symmetry_Int_Tables_number   1
_chemical_formula_structural   LaGeAu
_chemical_formula_sum   'La2 Ge2 Au2'
_cell_volume   143.27824200
_cell_formula_units_Z   2
loop_
 _symmetry_equiv_pos_site_id
 _symmetry_equiv_pos_as_xyz
  1  'x, y, z'
loop_
 _atom_site_type_symbol
 _atom_site_label
 _atom_site_symmetry_multiplicity
 _atom_site_fract_x
 _atom_site_fract_y
 _atom_site_fract_z
 _atom_site_occupancy
  La  La0  1  -0.00000000  0.00000000  0.00898900  1
  La  La1  1  -0.00000000  0.00000000  0.50883579  1
  Ge  Ge0  1  0.33333300  0.66666700  0.78065684  1
  Ge  Ge1  1  0.66666700  0.33333300  0.28061533  1
  Au  Au0  1  0.66666700  0.33333300  0.74740438  1
  Au  Au1  1  0.33333300  0.66666700  0.24729965  1
loop_
_geom_bond_atom_site_label_1
_geom_bond_atom_site_label_2
_geom_bond_distance
_geom_bond_site_symmetry_2
Ge0 La0 3.198680 1_566
Ge0 La0 3.198684 1_556
Ge0 La0 3.198684 1_666
Ge0 La1 3.420543 1_565
Ge0 La1 3.420546 1_555
Ge0 La1 3.420546 1_665
Ge1 La1 3.198142 1_655
Ge1 La1 3.198145 1_665
Ge1 La1 3.198145 1_555
Ge1 La0 3.419498 1_655
Ge1 La0 3.419501 1_665
Ge1 La0 3.419501 1_555
Au0 Ge0 2.605035 1_545
Au0 Ge0 2.605035 1_655
Au0 Ge0 2.605043 1_555
Au0 La1 3.248730 1_655
Au0 La1 3.248733 1_665
Au0 La1 3.248733 1_555
Au0 La0 3.366224 1_656
Au0 La0 3.366227 1_666
Au0 La0 3.366227 1_556
Au1 Ge1 2.605089 1_565
Au1 Ge1 2.605089 1_455
Au1 Ge1 2.605097 1_555
Au1 La0 3.247451 1_565
Au1 La0 3.247454 1_555
Au1 La0 3.247454 1_665
Au1 La1 3.365969 1_565
Au1 La1 3.365972 1_555
Au1 La1 3.365972 1_665
