# generated using pymatgen
data_K2VAgSe4
_symmetry_space_group_name_H-M   'P 1'
_cell_length_a   13.61488819
_cell_length_b   12.16199942
_cell_length_c   7.45776735
_cell_angle_alpha   84.25223614
_cell_angle_beta   62.72230309
_cell_angle_gamma   33.02546078
_symmetry_Int_Tables_number   1
_chemical_formula_structural   K2VAgSe4
_chemical_formula_sum   'K4 V2 Ag2 Se8'
_cell_volume   484.49727489
_cell_formula_units_Z   2
loop_
 _symmetry_equiv_pos_site_id
 _symmetry_equiv_pos_as_xyz
  1  'x, y, z'
loop_
 _atom_site_type_symbol
 _atom_site_label
 _atom_site_symmetry_multiplicity
 _atom_site_fract_x
 _atom_site_fract_y
 _atom_site_fract_z
 _atom_site_occupancy
  K  K0  1  0.18760100  0.17377900  0.81572900  1
  K  K1  1  0.82568100  0.80969200  0.17390400  1
  K  K2  1  0.06062800  0.07511400  0.43298600  1
  K  K3  1  0.42307900  0.44075600  0.07549800  1
  V  V0  1  0.00184700  0.00198300  0.00101900  1
  V  V1  1  0.25537000  0.24284200  0.24273700  1
  Ag  Ag0  1  0.50220900  0.49907700  0.50458500  1
  Ag  Ag1  1  0.74745100  0.75196300  0.75824000  1
  Se  Se0  1  0.50717200  0.87789900  0.19428400  1
  Se  Se1  1  0.36438400  0.75478000  0.84284800  1
  Se  Se2  1  0.87345800  0.50727600  0.41933700  1
  Se  Se3  1  0.41440200  0.20470500  0.87536200  1
  Se  Se4  1  0.20159900  0.41651200  0.49614100  1
  Se  Se5  1  0.82945700  0.05466500  0.36928500  1
  Se  Se6  1  0.74848200  0.37226800  0.04757600  1
  Se  Se7  1  0.05411400  0.82754100  0.74294100  1
loop_
_geom_bond_atom_site_label_1
_geom_bond_atom_site_label_2
_geom_bond_distance
_geom_bond_site_symmetry_2
K0 Se1 3.387432 1_545
K0 Se6 3.423460 1_456
K0 Se2 3.453709 1_456
K0 Se0 3.458656 1_545
K0 Se3 3.621322 1_555
K0 Se4 3.680997 1_555
K0 Se2 3.770063 1_545
K0 Se0 3.868626 1_456
K1 Se3 3.372049 1_654
K1 Se7 3.446704 1_654
K1 Se4 3.481623 1_565
K1 Se5 3.492484 1_565
K1 Se0 3.592382 1_555
K1 Se2 3.609999 1_555
K1 Se4 3.833979 1_654
K1 Se3 3.856936 1_565
K2 Se1 3.374118 1_544
K2 Se2 3.435179 1_455
K2 Se6 3.440768 1_456
K2 Se0 3.516635 1_545
K2 Se5 3.591687 1_455
K2 Se7 3.644588 1_545
K2 Se1 3.825917 1_455
K2 Se6 3.878871 1_545
K3 Se4 3.414060 1_555
K3 Se5 3.424149 1_465
K3 Se3 3.474494 1_554
K3 Se7 3.509276 1_644
K3 Se1 3.613982 1_554
K3 Se6 3.655963 1_555
K3 Se7 3.779600 1_555
K3 Se5 3.883121 1_554
Ag0 Se5 2.583219 1_555
Ag0 Se7 2.636742 1_555
Ag0 Se1 2.646376 1_555
Ag0 Se6 2.672833 1_555
Ag1 Se0 2.543093 1_556
Ag1 Se4 2.629787 1_655
Ag1 Se3 2.666172 1_565
Ag1 Se2 2.675496 1_555
Se0 V1 2.292109 1_565
Se1 V0 2.298468 1_566
Se2 V1 2.375807 1_655
Se3 V1 2.354300 1_556
Se4 V1 2.346731 1_555
Se5 V0 2.320443 1_655
Se6 V0 2.338049 1_655
Se7 V0 2.396398 1_566
