# generated using pymatgen
data_K2MgH8(SO6)2
_symmetry_space_group_name_H-M   'P 1'
_cell_length_a   12.12568836
_cell_length_b   12.12568836
_cell_length_c   11.88054042
_cell_angle_alpha   65.53479051
_cell_angle_beta   65.53479051
_cell_angle_gamma   46.92003554
_symmetry_Int_Tables_number   1
_chemical_formula_structural   K2MgH8(SO6)2
_chemical_formula_sum   'K8 Mg4 H32 S8 O48'
_cell_volume   1138.45892743
_cell_formula_units_Z   4
loop_
 _symmetry_equiv_pos_site_id
 _symmetry_equiv_pos_as_xyz
  1  'x, y, z'
loop_
 _atom_site_type_symbol
 _atom_site_label
 _atom_site_symmetry_multiplicity
 _atom_site_fract_x
 _atom_site_fract_y
 _atom_site_fract_z
 _atom_site_occupancy
  K  K0  1  0.13900000  0.10487000  0.79615600  1
  K  K1  1  0.10487000  0.13900000  0.29615600  1
  K  K2  1  0.86100000  0.89513000  0.20384400  1
  K  K3  1  0.89513000  0.86100000  0.70384400  1
  K  K4  1  0.36086000  0.38155000  0.71008400  1
  K  K5  1  0.38155000  0.36086000  0.21008400  1
  K  K6  1  0.63914000  0.61845000  0.28991600  1
  K  K7  1  0.61845000  0.63914000  0.78991600  1
  Mg  Mg0  1  0.74860600  0.25139400  0.75000000  1
  Mg  Mg1  1  0.25139400  0.74860600  0.25000000  1
  Mg  Mg2  1  0.00000000  0.50000000  0.00000000  1
  Mg  Mg3  1  0.50000000  0.00000000  0.50000000  1
  H  H0  1  0.21562500  0.17749900  0.47194100  1
  H  H1  1  0.17749900  0.21562500  0.97194100  1
  H  H2  1  0.78437500  0.82250100  0.52805900  1
  H  H3  1  0.82250100  0.78437500  0.02805900  1
  H  H4  1  0.25330700  0.01518200  0.53243100  1
  H  H5  1  0.01518200  0.25330700  0.03243100  1
  H  H6  1  0.74669300  0.98481800  0.46756900  1
  H  H7  1  0.98481800  0.74669300  0.96756900  1
  H  H8  1  0.69238800  0.70119100  0.47774400  1
  H  H9  1  0.70119100  0.69238800  0.97774400  1
  H  H10  1  0.30761200  0.29880900  0.52225600  1
  H  H11  1  0.29880900  0.30761200  0.02225600  1
  H  H12  1  0.52417800  0.74919500  0.52996300  1
  H  H13  1  0.74919500  0.52417800  0.02996300  1
  H  H14  1  0.47582200  0.25080500  0.47003700  1
  H  H15  1  0.25080500  0.47582200  0.97003700  1
  H  H16  1  0.04753400  0.99155800  0.67363700  1
  H  H17  1  0.99155800  0.04753400  0.17363700  1
  H  H18  1  0.95246600  0.00844200  0.32636300  1
  H  H19  1  0.00844200  0.95246600  0.82636300  1
  H  H20  1  0.48861100  0.54940900  0.67380600  1
  H  H21  1  0.54940900  0.48861100  0.17380600  1
  H  H22  1  0.51138900  0.45059100  0.32619400  1
  H  H23  1  0.45059100  0.51138900  0.82619400  1
  H  H24  1  0.86029000  0.40532200  0.54104500  1
  H  H25  1  0.40532200  0.86029000  0.04104500  1
  H  H26  1  0.13971000  0.59467800  0.45895500  1
  H  H27  1  0.59467800  0.13971000  0.95895500  1
  H  H28  1  0.89424500  0.37917100  0.66749700  1
  H  H29  1  0.37917100  0.89424500  0.16749700  1
  H  H30  1  0.10575500  0.62082900  0.33250300  1
  H  H31  1  0.62082900  0.10575500  0.83250300  1
  S  S0  1  0.27289500  0.77236700  0.52201300  1
  S  S1  1  0.77236700  0.27289500  0.02201300  1
  S  S2  1  0.72710500  0.22763300  0.47798700  1
  S  S3  1  0.22763300  0.72710500  0.97798700  1
  S  S4  1  0.00087900  0.48011600  0.29957000  1
  S  S5  1  0.48011600  0.00087900  0.79957000  1
  S  S6  1  0.99912100  0.51988400  0.70043000  1
  S  S7  1  0.51988400  0.99912100  0.20043000  1
  O  O0  1  0.06516300  0.82053800  0.96313000  1
  O  O1  1  0.82053800  0.06516300  0.46313000  1
  O  O2  1  0.93483700  0.17946200  0.03687000  1
  O  O3  1  0.17946200  0.93483700  0.53687000  1
  O  O4  1  0.43494800  0.68240600  0.53582000  1
  O  O5  1  0.68240600  0.43494800  0.03582000  1
  O  O6  1  0.56505200  0.31759400  0.46418000  1
  O  O7  1  0.31759400  0.56505200  0.96418000  1
  O  O8  1  0.85796400  0.53920400  0.40055500  1
  O  O9  1  0.53920400  0.85796400  0.90055500  1
  O  O10  1  0.14203600  0.46079600  0.59944500  1
  O  O11  1  0.46079600  0.14203600  0.09944500  1
  O  O12  1  0.13160600  0.32307700  0.35009500  1
  O  O13  1  0.32307700  0.13160600  0.85009500  1
  O  O14  1  0.86839400  0.67692300  0.64990500  1
  O  O15  1  0.67692300  0.86839400  0.14990500  1
  O  O16  1  0.72316000  0.22003900  0.60759900  1
  O  O17  1  0.22003900  0.72316000  0.10759900  1
  O  O18  1  0.27684000  0.77996100  0.39240100  1
  O  O19  1  0.77996100  0.27684000  0.89240100  1
  O  O20  1  0.20499200  0.69838000  0.61823100  1
  O  O21  1  0.69838000  0.20499200  0.11823100  1
  O  O22  1  0.79500800  0.30162000  0.38176900  1
  O  O23  1  0.30162000  0.79500800  0.88176900  1
  O  O24  1  0.03151900  0.52870800  0.80383400  1
  O  O25  1  0.52870800  0.03151900  0.30383400  1
  O  O26  1  0.96848100  0.47129200  0.19616600  1
  O  O27  1  0.47129200  0.96848100  0.69616600  1
  O  O28  1  0.58376500  0.04345300  0.74999000  1
  O  O29  1  0.04345300  0.58376500  0.24999000  1
  O  O30  1  0.41623500  0.95654700  0.25001000  1
  O  O31  1  0.95654700  0.41623500  0.75001000  1
  O  O32  1  0.27264600  0.08216000  0.53475700  1
  O  O33  1  0.08216000  0.27264600  0.03475700  1
  O  O34  1  0.72735400  0.91784000  0.46524300  1
  O  O35  1  0.91784000  0.72735400  0.96524300  1
  O  O36  1  0.59105900  0.77053700  0.52894700  1
  O  O37  1  0.77053700  0.59105900  0.02894700  1
  O  O38  1  0.40894100  0.22946300  0.47105300  1
  O  O39  1  0.22946300  0.40894100  0.97105300  1
  O  O40  1  0.96785500  0.03214500  0.75000000  1
  O  O41  1  0.03214500  0.96785500  0.25000000  1
  O  O42  1  0.52999900  0.47000100  0.75000000  1
  O  O43  1  0.47000100  0.52999900  0.25000000  1
  O  O44  1  0.85635300  0.35281900  0.63086400  1
  O  O45  1  0.35281900  0.85635300  0.13086400  1
  O  O46  1  0.14364700  0.64718100  0.36913600  1
  O  O47  1  0.64718100  0.14364700  0.86913600  1
loop_
_geom_bond_atom_site_label_1
_geom_bond_atom_site_label_2
_geom_bond_distance
_geom_bond_site_symmetry_2
K0 O31 2.707316 1_455
K0 O23 2.723063 1_545
K0 O13 2.800563 1_555
K0 O32 2.876935 1_555
K0 O2 2.888760 1_456
K0 O27 2.990181 1_545
K0 O40 3.037763 1_455
K0 O19 3.171726 1_455
K1 O30 2.707316 1_545
K1 O22 2.723063 1_455
K1 O12 2.800563 1_555
K1 O33 2.876935 1_555
K1 O3 2.888760 1_545
K1 O26 2.990181 1_455
K1 O41 3.037763 1_545
K1 O18 3.171726 1_545
K2 O29 2.707316 1_655
K2 O21 2.723063 1_565
K2 O15 2.800563 1_555
K2 O34 2.876935 1_555
K2 O0 2.888760 1_654
K2 O25 2.990181 1_565
K2 O41 3.037763 1_655
K2 O17 3.171726 1_655
K3 O28 2.707316 1_565
K3 O20 2.723063 1_655
K3 O14 2.800563 1_555
K3 O35 2.876935 1_555
K3 O1 2.888760 1_565
K3 O24 2.990181 1_655
K3 O40 3.037763 1_565
K3 O16 3.171726 1_565
K4 O20 2.799880 1_555
K4 O10 2.837487 1_555
K4 O39 2.880989 1_555
K4 O6 2.920460 1_555
K4 O24 2.932620 1_555
K4 O28 2.941451 1_555
K4 O13 3.041728 1_555
K4 O42 3.132605 1_555
K4 O16 3.226344 1_555
K5 O21 2.799880 1_555
K5 O11 2.837487 1_555
K5 O38 2.880989 1_555
K5 O7 2.920460 1_554
K5 O25 2.932620 1_555
K5 O29 2.941451 1_555
K5 O12 3.041728 1_555
K5 O43 3.132605 1_555
K5 O17 3.226344 1_555
K6 O22 2.799880 1_555
K6 O8 2.837487 1_555
K6 O37 2.880989 1_555
K6 O4 2.920460 1_555
K6 O26 2.932620 1_555
K6 O30 2.941451 1_555
K6 O15 3.041728 1_555
K6 O43 3.132605 1_555
K6 O18 3.226344 1_555
K7 O23 2.799880 1_555
K7 O9 2.837487 1_555
K7 O36 2.880989 1_555
K7 O5 2.920460 1_556
K7 O27 2.932620 1_555
K7 O31 2.941451 1_555
K7 O14 3.041728 1_555
K7 O42 3.132605 1_555
K7 O19 3.226344 1_555
Mg0 O19 2.056049 1_555
Mg0 O16 2.056049 1_555
Mg0 O44 2.108152 1_555
Mg0 O47 2.108152 1_555
Mg0 O42 2.110583 1_555
Mg0 O40 2.116782 1_555
Mg1 O18 2.056049 1_555
Mg1 O17 2.056049 1_555
Mg1 O45 2.108152 1_555
Mg1 O46 2.108152 1_555
Mg1 O43 2.110583 1_555
Mg1 O41 2.116782 1_555
Mg2 O39 2.098662 1_554
Mg2 O37 2.098662 1_455
Mg2 O35 2.099798 1_454
Mg2 O33 2.099798 1_555
Mg2 O26 2.114417 1_455
Mg2 O24 2.114417 1_554
Mg3 O38 2.098662 1_555
Mg3 O36 2.098662 1_545
Mg3 O34 2.099798 1_545
Mg3 O32 2.099798 1_555
Mg3 O27 2.114417 1_545
Mg3 O25 2.114417 1_555
H0 O32 0.996172 1_555
H1 O33 0.996172 1_556
H2 O34 0.996172 1_555
H3 O35 0.996172 1_554
H4 O32 0.999733 1_555
H4 O3 1.692247 1_545
H5 O33 0.999733 1_555
H5 O2 1.692247 1_455
H6 O34 0.999733 1_555
H6 O1 1.692247 1_565
H7 O35 0.999733 1_555
H7 O0 1.692247 1_655
H8 O36 0.989967 1_555
H9 O37 0.989967 1_556
H10 O38 0.989967 1_555
H11 O39 0.989967 1_554
H12 O36 1.000398 1_555
H13 O37 1.000398 1_555
H14 O38 1.000398 1_555
H15 O39 1.000398 1_555
H16 O40 0.996500 1_465
H16 O3 1.715230 1_555
H16 K3 3.004445 1_455
H17 O41 0.996500 1_645
H17 O2 1.715230 1_555
H17 K2 3.004445 1_545
H18 O41 0.996500 1_645
H18 O1 1.715230 1_555
H18 K1 3.004445 1_655
H19 O40 0.996500 1_465
H19 O0 1.715230 1_555
H19 K0 3.004445 1_565
H20 O42 0.996322 1_555
H21 O43 0.996322 1_555
H22 O43 0.996322 1_555
H23 O42 0.996322 1_555
H24 O44 0.991418 1_555
H25 O45 0.991418 1_555
H26 O46 0.991418 1_555
H27 O47 0.991418 1_555
H28 O44 0.991970 1_555
H28 K0 2.875622 1_655
H28 K7 2.933283 1_555
H29 O45 0.991970 1_555
H29 K1 2.875622 1_565
H29 K6 2.933283 1_555
H30 O46 0.991970 1_555
H30 K2 2.875622 1_455
H30 K5 2.933283 1_555
H31 O47 0.991970 1_555
H31 K3 2.875622 1_545
H31 K4 2.933283 1_555
O0 S3 1.506418 1_555
O1 S2 1.506418 1_555
O2 S1 1.506418 1_555
O3 S0 1.506418 1_555
O4 S0 1.506235 1_555
O5 S1 1.506235 1_555
O6 S2 1.506235 1_555
O7 S3 1.506235 1_555
O8 S4 1.499886 1_655
O9 S5 1.499886 1_565
O10 S6 1.499886 1_455
O11 S7 1.499886 1_545
O12 S4 1.488985 1_555
O13 S5 1.488985 1_555
O14 S6 1.488985 1_555
O15 S7 1.488985 1_555
O16 S2 1.486438 1_555
O17 S3 1.486438 1_554
O18 S0 1.486438 1_555
O19 S1 1.486438 1_556
O20 S0 1.472946 1_555
O21 S1 1.472946 1_555
O22 S2 1.472946 1_555
O23 S3 1.472946 1_555
O24 S6 1.497001 1_455
O25 S7 1.497001 1_545
O26 S4 1.497001 1_655
O27 S5 1.497001 1_565
O28 S5 1.488055 1_555
O29 S4 1.488055 1_555
O30 S7 1.488055 1_555
O31 S6 1.488055 1_555
