# generated using pymatgen
data_Bi2Ru3(CO)9
_symmetry_space_group_name_H-M   'P 1'
_cell_length_a   9.22833700
_cell_length_b   9.46700706
_cell_length_c   23.45033051
_cell_angle_alpha   86.24968085
_cell_angle_beta   88.37143807
_cell_angle_gamma   64.27316837
_symmetry_Int_Tables_number   1
_chemical_formula_structural   Bi2Ru3(CO)9
_chemical_formula_sum   'Bi8 Ru12 C36 O36'
_cell_volume   1841.69656037
_cell_formula_units_Z   4
loop_
 _symmetry_equiv_pos_site_id
 _symmetry_equiv_pos_as_xyz
  1  'x, y, z'
loop_
 _atom_site_type_symbol
 _atom_site_label
 _atom_site_symmetry_multiplicity
 _atom_site_fract_x
 _atom_site_fract_y
 _atom_site_fract_z
 _atom_site_occupancy
  Bi  Bi0  1  0.89161200  0.36419200  0.53366900  1
  Bi  Bi1  1  0.92682200  0.33681500  0.03756400  1
  Bi  Bi2  1  0.10892700  0.80999200  0.28723900  1
  Bi  Bi3  1  0.07317800  0.66318500  0.96243600  1
  Bi  Bi4  1  0.89107300  0.19000800  0.71276100  1
  Bi  Bi5  1  0.10838800  0.63580800  0.46633100  1
  Bi  Bi6  1  0.20421000  0.71144200  0.78258400  1
  Bi  Bi7  1  0.79579000  0.28855800  0.21741600  1
  Ru  Ru0  1  0.74387900  0.46134000  0.63924100  1
  Ru  Ru1  1  0.04332800  0.30191600  0.14941600  1
  Ru  Ru2  1  0.17365700  0.85722800  0.39880700  1
  Ru  Ru3  1  0.69474800  0.49078100  0.11978900  1
  Ru  Ru4  1  0.15187200  0.86030500  0.88544400  1
  Ru  Ru5  1  0.25612100  0.53866000  0.36075900  1
  Ru  Ru6  1  0.95667200  0.69808400  0.85058400  1
  Ru  Ru7  1  0.09276300  0.22928100  0.62769800  1
  Ru  Ru8  1  0.30525200  0.50921900  0.88021100  1
  Ru  Ru9  1  0.90723700  0.77071900  0.37230200  1
  Ru  Ru10  1  0.84812800  0.13969500  0.11455600  1
  Ru  Ru11  1  0.82634300  0.14277200  0.60119300  1
  C  C0  1  0.74416600  0.03830300  0.16190700  1
  C  C1  1  0.68117400  0.53098100  0.71469200  1
  C  C2  1  0.86139500  0.77726500  0.77704800  1
  C  C3  1  0.48394100  0.51972100  0.91246000  1
  C  C4  1  0.96613500  0.49649800  0.84810900  1
  C  C5  1  0.24087400  0.88652200  0.95471100  1
  C  C6  1  0.64889900  0.12803800  0.64007600  1
  C  C7  1  0.75453700  0.97196600  0.34367100  1
  C  C8  1  0.26231000  0.34348000  0.39022500  1
  C  C9  1  0.14067800  0.35079100  0.67780800  1
  C  C10  1  0.75662800  0.80108300  0.89058200  1
  C  C11  1  0.02729600  0.07083200  0.38909200  1
  C  C12  1  0.46331500  0.49561500  0.38604400  1
  C  C13  1  0.51605900  0.48027900  0.08754000  1
  C  C14  1  0.75213700  0.13384200  0.52650400  1
  C  C15  1  0.95010400  0.03505800  0.88631900  1
  C  C16  1  0.24337200  0.19891700  0.10941800  1
  C  C17  1  0.69335700  0.66308900  0.07165200  1
  C  C18  1  0.42437100  0.37662600  0.82090700  1
  C  C19  1  0.75912600  0.11347800  0.04528900  1
  C  C20  1  0.53668500  0.50438500  0.61395600  1
  C  C21  1  0.23562900  0.23707800  0.56814300  1
  C  C22  1  0.76437100  0.76292200  0.43185700  1
  C  C23  1  0.04989600  0.96494200  0.11368100  1
  C  C24  1  0.35110100  0.87196200  0.35992400  1
  C  C25  1  0.57562900  0.62337400  0.17909300  1
  C  C26  1  0.24786300  0.86615800  0.47349600  1
  C  C27  1  0.03386500  0.50350200  0.15189100  1
  C  C28  1  0.25583400  0.96169700  0.83809300  1
  C  C29  1  0.31882600  0.46901900  0.28530800  1
  C  C30  1  0.73769000  0.65652000  0.60977500  1
  C  C31  1  0.24546300  0.02803400  0.65632900  1
  C  C32  1  0.30664300  0.33691100  0.92834800  1
  C  C33  1  0.13860500  0.22273500  0.22295200  1
  C  C34  1  0.85932200  0.64920900  0.32219200  1
  C  C35  1  0.97270400  0.92916800  0.61090800  1
  O  O0  1  0.68362100  0.77540700  0.04536300  1
  O  O1  1  0.93975600  0.20374900  0.38316400  1
  O  O2  1  0.29974500  0.90731700  0.99452200  1
  O  O3  1  0.37077100  0.40945000  0.24256700  1
  O  O4  1  0.40679300  0.53519900  0.59883000  1
  O  O5  1  0.20814300  0.17547200  0.26605900  1
  O  O6  1  0.79185700  0.82452800  0.73394100  1
  O  O7  1  0.17343400  0.42570900  0.70790900  1
  O  O8  1  0.59762700  0.52102900  0.93234600  1
  O  O9  1  0.65310100  0.09377800  0.32915400  1
  O  O10  1  0.66205700  0.76543100  0.46274500  1
  O  O11  1  0.06024400  0.79625100  0.61683600  1
  O  O12  1  0.31637900  0.22459300  0.95463700  1
  O  O13  1  0.82656600  0.57429100  0.29209100  1
  O  O14  1  0.37075700  0.13249300  0.09005200  1
  O  O15  1  0.62924300  0.86750700  0.90994800  1
  O  O16  1  0.82736000  0.14623600  0.88603200  1
  O  O17  1  0.70115600  0.11736100  0.48382800  1
  O  O18  1  0.50785100  0.28396700  0.78990400  1
  O  O19  1  0.49214900  0.71603300  0.21009600  1
  O  O20  1  0.97335600  0.37121800  0.84484600  1
  O  O21  1  0.40237300  0.47897100  0.06765400  1
  O  O22  1  0.62922900  0.59055000  0.75743300  1
  O  O23  1  0.59320700  0.46480100  0.40117000  1
  O  O24  1  0.33794300  0.23456900  0.53725500  1
  O  O25  1  0.72246200  0.78166300  0.59473000  1
  O  O26  1  0.68392500  0.96631500  0.18625700  1
  O  O27  1  0.53616500  0.12370900  0.66181600  1
  O  O28  1  0.34689900  0.90622200  0.67084600  1
  O  O29  1  0.31607500  0.03368500  0.81374300  1
  O  O30  1  0.17264000  0.85376400  0.11396800  1
  O  O31  1  0.70025500  0.09268300  0.00547800  1
  O  O32  1  0.46383500  0.87629100  0.33818400  1
  O  O33  1  0.29884400  0.88263900  0.51617200  1
  O  O34  1  0.02664400  0.62878200  0.15515400  1
  O  O35  1  0.27753800  0.21833700  0.40527000  1
loop_
_geom_bond_atom_site_label_1
_geom_bond_atom_site_label_2
_geom_bond_distance
_geom_bond_site_symmetry_2
Bi0 Ru7 2.782999 1_655
Bi0 Ru0 2.801975 1_555
Bi0 Ru11 2.805679 1_555
Bi0 C21 2.980324 1_655
Bi0 C14 2.989567 1_555
Bi1 Ru3 2.802156 1_555
Bi1 Ru1 2.807777 1_655
Bi1 Ru10 2.816185 1_555
Bi2 Ru9 2.806120 1_455
Bi2 Ru2 2.806359 1_555
Bi2 Ru5 2.817862 1_555
Bi2 C29 2.959701 1_555
Bi3 Ru8 2.802156 1_555
Bi3 Ru6 2.807777 1_455
Bi3 Ru4 2.816185 1_555
Bi4 Ru7 2.806120 1_655
Bi4 Ru11 2.806359 1_555
Bi4 Ru0 2.817862 1_555
Bi4 C1 2.959701 1_555
Bi5 Ru9 2.782999 1_455
Bi5 Ru5 2.801975 1_555
Bi5 Ru2 2.805679 1_555
Bi5 C22 2.980324 1_455
Bi5 C26 2.989567 1_555
Bi6 Ru8 2.788199 1_555
Bi6 Ru6 2.791863 1_455
Bi6 Ru4 2.797345 1_555
Bi6 C2 2.952098 1_455
Bi6 C28 2.992140 1_555
Bi6 C18 3.020393 1_555
Bi7 Ru3 2.788199 1_555
Bi7 Ru1 2.791863 1_655
Bi7 Ru10 2.797345 1_555
Bi7 C33 2.952098 1_655
Bi7 C0 2.992140 1_555
Bi7 C25 3.020393 1_555
C0 O26 1.165991 1_545
C0 Ru10 1.916846 1_555
C1 O22 1.168052 1_555
C1 Ru0 1.913978 1_555
C2 O6 1.167175 1_555
C2 Ru6 1.911433 1_555
C3 O8 1.165394 1_555
C3 Ru8 1.877248 1_555
C4 O20 1.166157 1_555
C4 Ru6 1.876849 1_555
C5 O2 1.162416 1_555
C5 Ru4 1.918388 1_555
C6 O27 1.161053 1_555
C6 Ru11 1.905023 1_555
C7 O9 1.162580 1_565
C7 Ru9 1.903152 1_555
C8 O35 1.162500 1_555
C8 Ru5 1.907506 1_555
C9 O7 1.164656 1_555
C9 Ru7 1.883508 1_555
C10 O15 1.161397 1_555
C10 Ru6 1.922765 1_555
C11 O1 1.164607 1_455
C11 Ru2 1.884534 1_545
C12 O23 1.163969 1_555
C12 Ru5 1.878824 1_555
C13 O21 1.165394 1_555
C13 Ru3 1.877248 1_555
C14 O17 1.165391 1_555
C14 Ru11 1.918747 1_555
C15 O16 1.164208 1_555
C15 Ru4 1.879454 1_645
C16 O14 1.161397 1_555
C16 Ru1 1.922765 1_555
C17 O0 1.163280 1_555
C17 Ru3 1.917583 1_555
C18 O18 1.164669 1_555
C18 Ru8 1.913540 1_555
C19 O31 1.162416 1_555
C19 Ru10 1.918388 1_555
C20 O4 1.163969 1_555
C20 Ru0 1.878824 1_555
C21 O24 1.166457 1_555
C21 Ru7 1.913233 1_555
C22 O10 1.166457 1_555
C22 Ru9 1.913233 1_555
C23 O30 1.164208 1_555
C23 Ru10 1.879454 1_465
C24 O32 1.161053 1_555
C24 Ru2 1.905023 1_555
C25 O19 1.164669 1_555
C25 Ru3 1.913540 1_555
C26 O33 1.165391 1_555
C26 Ru2 1.918747 1_555
C27 O34 1.166157 1_555
C27 Ru1 1.876849 1_555
C28 O29 1.165991 1_565
C28 Ru4 1.916846 1_555
C29 O3 1.168052 1_555
C29 Ru5 1.913978 1_555
C30 O25 1.162500 1_555
C30 Ru0 1.907506 1_555
C31 O28 1.162580 1_545
C31 Ru7 1.903152 1_555
C32 O12 1.163280 1_555
C32 Ru8 1.917583 1_555
C33 O5 1.167175 1_555
C33 Ru1 1.911433 1_555
C34 O13 1.164656 1_555
C34 Ru9 1.883508 1_555
C35 O11 1.164607 1_655
C35 Ru11 1.884534 1_565
