# generated using pymatgen
data_Y2BeAlBO7
_symmetry_space_group_name_H-M   'P 1'
_cell_length_a   7.40503300
_cell_length_b   7.51958100
_cell_length_c   10.06476800
_cell_angle_alpha   90.00000000
_cell_angle_beta   90.00000000
_cell_angle_gamma   90.00000000
_symmetry_Int_Tables_number   1
_chemical_formula_structural   Y2BeAlBO7
_chemical_formula_sum   'Y8 Be4 Al4 B4 O28'
_cell_volume   560.43391457
_cell_formula_units_Z   4
loop_
 _symmetry_equiv_pos_site_id
 _symmetry_equiv_pos_as_xyz
  1  'x, y, z'
loop_
 _atom_site_type_symbol
 _atom_site_label
 _atom_site_symmetry_multiplicity
 _atom_site_fract_x
 _atom_site_fract_y
 _atom_site_fract_z
 _atom_site_occupancy
  Y  Y0  1  0.07185000  0.28167600  0.10518200  1
  Y  Y1  1  0.50179300  0.77407700  0.26911300  1
  Y  Y2  1  0.92815000  0.78167600  0.39481800  1
  Y  Y3  1  0.49820700  0.27407700  0.23088700  1
  Y  Y4  1  0.99820700  0.22592300  0.76911300  1
  Y  Y5  1  0.42815000  0.71832400  0.60518200  1
  Y  Y6  1  0.00179300  0.72592300  0.73088700  1
  Y  Y7  1  0.57185000  0.21832400  0.89481800  1
  Be  Be0  1  0.41631300  0.85867900  0.88616200  1
  Be  Be1  1  0.58368700  0.35867900  0.61383800  1
  Be  Be2  1  0.08368700  0.14132100  0.38616200  1
  Be  Be3  1  0.91631300  0.64132100  0.11383800  1
  Al  Al0  1  0.76469100  0.92105400  0.01272800  1
  Al  Al1  1  0.73530900  0.07894600  0.51272800  1
  Al  Al2  1  0.23530900  0.42105400  0.48727200  1
  Al  Al3  1  0.26469000  0.57894600  0.98727200  1
  B  B0  1  0.82473900  0.53029100  0.93984200  1
  B  B1  1  0.17526100  0.03029100  0.56015800  1
  B  B2  1  0.67526100  0.46970900  0.43984200  1
  B  B3  1  0.32473900  0.96970900  0.06015800  1
  O  O0  1  0.72409600  0.54311000  0.32302100  1
  O  O1  1  0.41454300  0.40636200  0.04888600  1
  O  O2  1  0.80057300  0.80107400  0.17232600  1
  O  O3  1  0.62020300  0.08821200  0.09667400  1
  O  O4  1  0.11585300  0.58835200  0.13720400  1
  O  O5  1  0.30893500  0.04738700  0.93623700  1
  O  O6  1  0.89150200  0.70879000  0.94547200  1
  O  O7  1  0.10849800  0.20879000  0.55452800  1
  O  O8  1  0.69106500  0.54738700  0.56376300  1
  O  O9  1  0.88414700  0.08835200  0.36279600  1
  O  O10  1  0.37979700  0.58821200  0.40332600  1
  O  O11  1  0.19942700  0.30107400  0.32767400  1
  O  O12  1  0.58545700  0.90636200  0.45111400  1
  O  O13  1  0.27590400  0.04311000  0.17697900  1
  O  O14  1  0.77590400  0.45689000  0.82302100  1
  O  O15  1  0.38414700  0.41164800  0.63720400  1
  O  O16  1  0.87979700  0.91178800  0.59667400  1
  O  O17  1  0.69942700  0.19892600  0.67232600  1
  O  O18  1  0.08545700  0.59363800  0.54888600  1
  O  O19  1  0.60849800  0.29121000  0.44547200  1
  O  O20  1  0.19106500  0.95261300  0.43623700  1
  O  O21  1  0.39150200  0.79121000  0.05452800  1
  O  O22  1  0.80893500  0.45261300  0.06376300  1
  O  O23  1  0.91454300  0.09363800  0.95111400  1
  O  O24  1  0.30057300  0.69892600  0.82767400  1
  O  O25  1  0.12020300  0.41178800  0.90332600  1
  O  O26  1  0.61585300  0.91164800  0.86279600  1
  O  O27  1  0.22409600  0.95689000  0.67697900  1
loop_
_geom_bond_atom_site_label_1
_geom_bond_atom_site_label_2
_geom_bond_distance
_geom_bond_site_symmetry_2
Be0 O26 1.548307 1_555
Be0 O24 1.588755 1_555
Be0 O5 1.702888 1_565
Be0 O21 1.778397 1_556
Be1 O15 1.548307 1_555
Be1 O17 1.588755 1_555
Be1 O8 1.702888 1_555
Be1 O19 1.778397 1_555
Be2 O9 1.548307 1_455
Be2 O11 1.588755 1_555
Be2 O20 1.702888 1_545
Be2 O7 1.778397 1_555
Be3 O4 1.548307 1_655
Be3 O2 1.588755 1_555
Be3 O22 1.702888 1_555
Be3 O6 1.778397 1_554
Al0 O23 1.816613 1_564
Al0 O3 1.854336 1_565
Al0 O2 1.861402 1_555
Al0 O26 1.870003 1_554
Al0 O6 1.971715 1_554
Al1 O12 1.816613 1_545
Al1 O16 1.854336 1_545
Al1 O17 1.861402 1_555
Al1 O9 1.870003 1_555
Al1 O19 1.971715 1_555
Al2 O18 1.816613 1_555
Al2 O10 1.854336 1_555
Al2 O11 1.861402 1_555
Al2 O15 1.870003 1_555
Al2 O7 1.971715 1_555
Al3 O1 1.816618 1_556
Al3 O25 1.854332 1_555
Al3 O24 1.861403 1_555
Al3 O4 1.869999 1_556
Al3 O21 1.971719 1_556
B0 O14 1.348282 1_555
B0 O22 1.382199 1_556
B0 O6 1.431512 1_555
B1 O27 1.348282 1_545
B1 O20 1.382199 1_545
B1 O7 1.431512 1_555
B2 O0 1.348282 1_555
B2 O8 1.382199 1_555
B2 O19 1.431512 1_555
B3 O13 1.348282 1_565
B3 O5 1.382199 1_564
B3 O21 1.431512 1_555
O0 Y1 2.453695 1_555
O0 Y2 2.454285 1_555
O1 Y3 2.174578 1_555
O1 Y7 2.400157 1_554
O1 Y0 2.764018 1_555
O2 Y1 2.425944 1_555
O2 Y2 2.434822 1_555
O3 Y3 2.143405 1_555
O3 Y7 2.283196 1_554
O4 Y0 2.351176 1_555
O5 Y7 2.369888 1_555
O6 Y6 2.312601 1_655
O7 Y4 2.312601 1_455
O8 Y5 2.369888 1_555
O9 Y2 2.351176 1_545
O10 Y1 2.143405 1_555
O10 Y5 2.283196 1_555
O11 Y3 2.425944 1_555
O11 Y0 2.434822 1_555
O12 Y1 2.174578 1_555
O12 Y5 2.400157 1_555
O12 Y2 2.764018 1_555
O13 Y3 2.453695 1_555
O13 Y0 2.454285 1_555
O14 Y4 2.453695 1_555
O14 Y7 2.454285 1_555
O15 Y5 2.351176 1_555
O16 Y6 2.143405 1_655
O16 Y2 2.283196 1_555
O17 Y4 2.425944 1_555
O17 Y7 2.434822 1_555
O18 Y6 2.174578 1_555
O18 Y2 2.400157 1_455
O18 Y5 2.764018 1_555
O19 Y3 2.312601 1_555
O20 Y2 2.369888 1_455
O21 Y1 2.312601 1_555
O22 Y0 2.369888 1_655
O23 Y4 2.174578 1_555
O23 Y0 2.400157 1_656
O23 Y7 2.764018 1_555
O24 Y6 2.425944 1_555
O24 Y5 2.434822 1_555
O25 Y4 2.143405 1_455
O25 Y0 2.283196 1_556
O26 Y7 2.351176 1_565
O27 Y6 2.453695 1_555
O27 Y5 2.454285 1_555
