# generated using pymatgen
data_P28Pb5I2
_symmetry_space_group_name_H-M   'P 1'
_cell_length_a   18.16804600
_cell_length_b   9.87649400
_cell_length_c   19.78876477
_cell_angle_alpha   83.73575964
_cell_angle_beta   90.00000000
_cell_angle_gamma   90.00000000
_symmetry_Int_Tables_number   1
_chemical_formula_structural   P28Pb5I2
_chemical_formula_sum   'P112 Pb20 I8'
_cell_volume   3529.62750486
_cell_formula_units_Z   4
loop_
 _symmetry_equiv_pos_site_id
 _symmetry_equiv_pos_as_xyz
  1  'x, y, z'
loop_
 _atom_site_type_symbol
 _atom_site_label
 _atom_site_symmetry_multiplicity
 _atom_site_fract_x
 _atom_site_fract_y
 _atom_site_fract_z
 _atom_site_occupancy
  P  P0  1  0.89989600  0.83084600  0.78281600  1
  P  P1  1  0.90560100  0.16874800  0.76523600  1
  P  P2  1  0.90097600  0.50972700  0.77155600  1
  P  P3  1  0.48661700  0.32157800  0.32876200  1
  P  P4  1  0.86730400  0.76424700  0.47281000  1
  P  P5  1  0.50658800  0.86396800  0.59641900  1
  P  P6  1  0.89144700  0.60331600  0.93356300  1
  P  P7  1  0.96825500  0.61229300  0.35139800  1
  P  P8  1  0.15055400  0.00610400  0.67605800  1
  P  P9  1  0.34944600  0.50610400  0.17605800  1
  P  P10  1  0.50874200  0.51707200  0.60087900  1
  P  P11  1  0.03174500  0.38770700  0.64860200  1
  P  P12  1  0.47579800  0.39939200  0.07058300  1
  P  P13  1  0.52400900  0.78740300  0.85704700  1
  P  P14  1  0.02304100  0.22522300  0.57950900  1
  P  P15  1  0.37038300  0.07605400  0.01095000  1
  P  P16  1  0.35118300  0.90843300  0.16979700  1
  P  P17  1  0.39989600  0.66915400  0.71718400  1
  P  P18  1  0.46825500  0.88770700  0.14860200  1
  P  P19  1  0.10010400  0.16915400  0.21718400  1
  P  P20  1  0.51925200  0.93658100  0.93252700  1
  P  P21  1  0.13269600  0.23575300  0.52719000  1
  P  P22  1  0.51572200  0.00521200  0.67631800  1
  P  P23  1  0.48074800  0.06341900  0.06747300  1
  P  P24  1  0.99125800  0.01707200  0.10087900  1
  P  P25  1  0.19282000  0.40571800  0.56706600  1
  P  P26  1  0.10855300  0.39668400  0.06643700  1
  P  P27  1  0.46583800  0.53673900  0.15202500  1
  P  P28  1  0.62961700  0.92394600  0.98905000  1
  P  P29  1  0.09902400  0.49027300  0.22844400  1
  P  P30  1  0.30718000  0.90571800  0.06706600  1
  P  P31  1  0.02420200  0.89939200  0.57058300  1
  P  P32  1  0.14881700  0.40843300  0.66979700  1
  P  P33  1  0.00658800  0.63603200  0.90358100  1
  P  P34  1  0.99341200  0.36396800  0.09641900  1
  P  P35  1  0.52420200  0.60060800  0.92941700  1
  P  P36  1  0.40097600  0.99027300  0.72844400  1
  P  P37  1  0.97579800  0.10060800  0.42941700  1
  P  P38  1  0.84203200  0.32261000  0.81467000  1
  P  P39  1  0.40560100  0.33125200  0.73476400  1
  P  P40  1  0.84457700  0.00148100  0.82628800  1
  P  P41  1  0.01338300  0.82157800  0.82876200  1
  P  P42  1  0.47695900  0.72522300  0.07950900  1
  P  P43  1  0.51338300  0.67842200  0.67123800  1
  P  P44  1  0.98165400  0.83903100  0.18018200  1
  P  P45  1  0.01572200  0.49478800  0.82368200  1
  P  P46  1  0.13538200  0.91169900  0.51495700  1
  P  P47  1  0.15796800  0.67739000  0.18533000  1
  P  P48  1  0.97599100  0.28740300  0.35704700  1
  P  P49  1  0.48757400  0.80757900  0.39613300  1
  P  P50  1  0.10664600  0.99795700  0.07281000  1
  P  P51  1  0.53416200  0.46326100  0.84797500  1
  P  P52  1  0.63538200  0.58830100  0.98504300  1
  P  P53  1  0.86461800  0.08830100  0.48504300  1
  P  P54  1  0.65796800  0.82261000  0.31467000  1
  P  P55  1  0.01925200  0.56341900  0.56747300  1
  P  P56  1  0.60010400  0.33084600  0.28281600  1
  P  P57  1  0.36461800  0.41169900  0.01495700  1
  P  P58  1  0.52304100  0.27477700  0.92049100  1
  P  P59  1  0.12961700  0.57605400  0.51095000  1
  P  P60  1  0.69532100  0.44408500  0.92634500  1
  P  P61  1  0.97695900  0.77477700  0.42049100  1
  P  P62  1  0.01834600  0.16096900  0.81981800  1
  P  P63  1  0.69282000  0.09428200  0.93293400  1
  P  P64  1  0.39144700  0.89668400  0.56643700  1
  P  P65  1  0.80467900  0.94408500  0.42634500  1
  P  P66  1  0.96583800  0.96326100  0.34797500  1
  P  P67  1  0.34137000  0.85022800  0.66687000  1
  P  P68  1  0.30523700  0.22773200  0.06051700  1
  P  P69  1  0.64881700  0.09156700  0.83020300  1
  P  P70  1  0.80718000  0.59428200  0.43293400  1
  P  P71  1  0.48165400  0.66096900  0.31981800  1
  P  P72  1  0.34457700  0.49851900  0.67371200  1
  P  P73  1  0.39335400  0.49795700  0.57281000  1
  P  P74  1  0.65542300  0.50148100  0.32628800  1
  P  P75  1  0.98757400  0.69242100  0.10386700  1
  P  P76  1  0.65055400  0.49389600  0.82394200  1
  P  P77  1  0.85118300  0.59156700  0.33020300  1
  P  P78  1  0.34203200  0.17739000  0.68533000  1
  P  P79  1  0.69476300  0.77226800  0.93948300  1
  P  P80  1  0.59439900  0.66874800  0.26523600  1
  P  P81  1  0.98427800  0.50521200  0.17631800  1
  P  P82  1  0.48427800  0.99478800  0.32368200  1
  P  P83  1  0.30467900  0.55591500  0.07365500  1
  P  P84  1  0.15863000  0.35022800  0.16687000  1
  P  P85  1  0.00874200  0.98292800  0.89912100  1
  P  P86  1  0.19532100  0.05591500  0.57365500  1
  P  P87  1  0.01242600  0.30757900  0.89613300  1
  P  P88  1  0.84137000  0.64977200  0.83313000  1
  P  P89  1  0.53174500  0.11229300  0.85139800  1
  P  P90  1  0.49341200  0.13603200  0.40358100  1
  P  P91  1  0.59902400  0.00972700  0.27155600  1
  P  P92  1  0.98661700  0.17842200  0.17123800  1
  P  P93  1  0.84944600  0.99389600  0.32394200  1
  P  P94  1  0.47599100  0.21259700  0.14295300  1
  P  P95  1  0.36730400  0.73575300  0.02719000  1
  P  P96  1  0.89335400  0.00204300  0.92719000  1
  P  P97  1  0.03416200  0.03673900  0.65202500  1
  P  P98  1  0.60664600  0.50204300  0.42719000  1
  P  P99  1  0.49125800  0.48292800  0.39912100  1
  P  P100  1  0.60855300  0.10331600  0.43356300  1
  P  P101  1  0.02400900  0.71259700  0.64295300  1
  P  P102  1  0.98074800  0.43658100  0.43252700  1
  P  P103  1  0.87038300  0.42394600  0.48905000  1
  P  P104  1  0.15542300  0.99851900  0.17371200  1
  P  P105  1  0.09439900  0.83125200  0.23476400  1
  P  P106  1  0.51242600  0.19242100  0.60386700  1
  P  P107  1  0.51834600  0.33903100  0.68018200  1
  P  P108  1  0.65863000  0.14977200  0.33313000  1
  P  P109  1  0.19476300  0.72773200  0.56051700  1
  P  P110  1  0.63269600  0.26424700  0.97281000  1
  P  P111  1  0.80523700  0.27226800  0.43948300  1
  Pb  Pb0  1  0.79607200  0.80985600  0.23538900  1
  Pb  Pb1  1  0.70392800  0.30985600  0.73538900  1
  Pb  Pb2  1  0.87163300  0.29195700  0.95711900  1
  Pb  Pb3  1  0.66509700  0.80447800  0.79628700  1
  Pb  Pb4  1  0.63970600  0.30477300  0.12739500  1
  Pb  Pb5  1  0.33446500  0.71913100  0.47626500  1
  Pb  Pb6  1  0.36029400  0.69522700  0.87260500  1
  Pb  Pb7  1  0.62836700  0.79195700  0.45711900  1
  Pb  Pb8  1  0.16553500  0.21913100  0.97626500  1
  Pb  Pb9  1  0.29607200  0.69014400  0.26461100  1
  Pb  Pb10  1  0.13970600  0.19522700  0.37260500  1
  Pb  Pb11  1  0.83446500  0.78086900  0.02373500  1
  Pb  Pb12  1  0.16509700  0.69552200  0.70371300  1
  Pb  Pb13  1  0.37163300  0.20804300  0.54288100  1
  Pb  Pb14  1  0.12836700  0.70804300  0.04288100  1
  Pb  Pb15  1  0.33490300  0.19552200  0.20371300  1
  Pb  Pb16  1  0.86029400  0.80477300  0.62739500  1
  Pb  Pb17  1  0.83490300  0.30447800  0.29628700  1
  Pb  Pb18  1  0.20392800  0.19014400  0.76461100  1
  Pb  Pb19  1  0.66553500  0.28086900  0.52373500  1
  I  I0  1  0.26668800  0.40513000  0.37636900  1
  I  I1  1  0.23331200  0.90513000  0.87636900  1
  I  I2  1  0.73331200  0.59487000  0.62363100  1
  I  I3  1  0.77258200  0.52096500  0.13383900  1
  I  I4  1  0.27258200  0.97903500  0.36616100  1
  I  I5  1  0.72741800  0.02096500  0.63383900  1
  I  I6  1  0.76668800  0.09487000  0.12363100  1
  I  I7  1  0.22741800  0.47903500  0.86616100  1
loop_
_geom_bond_atom_site_label_1
_geom_bond_atom_site_label_2
_geom_bond_distance
_geom_bond_site_symmetry_2
P0 P40 2.215102 1_565
P0 P88 2.220732 1_555
P0 P41 2.251235 1_655
P0 Pb16 3.196258 1_555
P1 P38 2.219108 1_555
P1 P40 2.232126 1_555
P1 P62 2.313049 1_655
P2 P88 2.222230 1_555
P2 P38 2.223953 1_555
P2 P45 2.323486 1_655
P3 P99 2.229198 1_555
P3 P90 2.230126 1_555
P3 P56 2.251235 1_555
P4 P70 2.218746 1_555
P4 P65 2.222241 1_555
P4 P61 2.242354 1_555
P4 Pb16 3.130716 1_555
P5 P64 2.188738 1_555
P6 P88 2.188423 1_555
P6 Pb11 2.830862 1_556
P6 Pb2 3.080668 1_555
P7 P77 2.181869 1_555
P8 P97 2.181266 1_555
P8 P86 2.189152 1_555
P8 Pb18 2.830210 1_555
P8 Pb12 3.067945 1_545
P9 Pb9 2.830210 1_555
P9 Pb15 3.067945 1_555
P10 P73 2.182163 1_555
P10 P43 2.229198 1_555
P10 P107 2.232267 1_555
P11 P32 2.181869 1_555
P11 P14 2.224531 1_555
P11 P55 2.243353 1_555
P12 P94 2.208612 1_555
P12 P27 2.224256 1_555
P12 P57 2.297251 1_555
P13 P35 2.208612 1_555
P13 P20 2.211223 1_555
P13 Pb3 2.828488 1_555
P13 Pb6 3.115983 1_555
P14 P97 2.232152 1_555
P14 P21 2.242354 1_555
P15 P68 2.219856 1_555
P15 P30 2.230290 1_545
P15 P23 2.292748 1_555
P16 P18 2.181869 1_555
P16 P30 2.187349 1_555
P16 Pb9 2.878911 1_555
P16 Pb15 2.998817 1_565
P17 P72 2.215102 1_555
P17 P67 2.220732 1_555
P17 P43 2.251235 1_555
P17 Pb6 3.196258 1_555
P18 P42 2.224531 1_555
P18 P23 2.243353 1_565
P19 P84 2.220732 1_555
P19 P92 2.251235 1_455
P19 Pb10 3.196258 1_555
P20 P89 2.243353 1_565
P20 P28 2.292748 1_555
P21 P25 2.218746 1_555
P21 P86 2.222241 1_555
P21 Pb10 3.130716 1_555
P22 P5 2.225930 1_545
P22 P36 2.323486 1_545
P23 P94 2.211223 1_555
P24 P50 2.182163 1_645
P24 P92 2.229198 1_555
P24 P44 2.232267 1_545
P25 P32 2.187349 1_555
P25 P59 2.230290 1_555
P26 P84 2.188423 1_555
P26 P34 2.188738 1_455
P26 Pb8 2.830862 1_554
P26 Pb14 3.080668 1_555
P27 P9 2.181266 1_555
P27 P42 2.232152 1_555
P28 P79 2.219856 1_555
P28 P63 2.230290 1_565
P29 P84 2.222230 1_555
P29 P47 2.223953 1_555
P29 P81 2.323486 1_455
P30 P95 2.218746 1_555
P31 P97 2.224256 1_565
P31 P46 2.297251 1_555
P32 Pb18 2.878911 1_555
P32 Pb12 2.998817 1_555
P33 P6 2.188738 1_455
P33 P45 2.225930 1_555
P33 P41 2.230126 1_555
P34 P81 2.225930 1_555
P34 P92 2.230126 1_555
P35 P51 2.224256 1_555
P35 P52 2.297251 1_555
P36 P67 2.222230 1_555
P36 P78 2.223953 1_565
P37 P48 2.208612 1_555
P37 P66 2.224256 1_545
P37 P53 2.297251 1_555
P38 Pb2 2.853205 1_555
P38 Pb1 2.969148 1_555
P39 P78 2.219108 1_555
P39 P72 2.232126 1_555
P40 P96 2.185105 1_555
P41 P85 2.229198 1_555
P42 P95 2.242354 1_555
P43 P5 2.230126 1_555
P44 P75 2.205924 1_555
P45 P87 2.213439 1_555
P46 P86 2.219214 1_565
P47 Pb14 2.853205 1_555
P47 Pb9 2.969148 1_555
P48 Pb17 2.828488 1_555
P48 Pb10 3.115983 1_655
P49 P71 2.205924 1_555
P49 P82 2.213439 1_555
P49 Pb7 2.825359 1_555
P50 Pb8 2.942054 1_564
P50 Pb14 3.012517 1_555
P51 P76 2.181266 1_555
P51 P58 2.232152 1_555
P52 P79 2.218231 1_555
P52 P60 2.219214 1_555
P53 P65 2.219214 1_545
P54 P80 2.219108 1_555
P54 P91 2.223953 1_565
P54 Pb7 2.853205 1_555
P54 Pb0 2.969148 1_555
P55 P59 2.292748 1_555
P56 P74 2.215102 1_555
P56 Pb4 3.196258 1_555
P57 P68 2.218231 1_555
P57 P83 2.219214 1_555
P58 P89 2.224531 1_555
P60 P76 2.189152 1_555
P61 P7 2.224531 1_555
P61 P66 2.232152 1_555
P62 P87 2.205924 1_555
P62 P85 2.232267 1_545
P63 P69 2.187349 1_555
P64 P67 2.188423 1_555
P64 Pb5 2.830862 1_555
P64 Pb13 3.080668 1_565
P65 P93 2.189152 1_555
P66 P93 2.181266 1_555
P68 Pb15 2.867868 1_555
P68 Pb8 3.042998 1_554
P69 P89 2.181869 1_555
P69 Pb1 2.878911 1_555
P69 Pb3 2.998817 1_545
P70 P77 2.187349 1_555
P71 P99 2.232267 1_555
P71 P80 2.313049 1_555
P72 P73 2.185105 1_555
P73 Pb5 2.942054 1_555
P73 Pb13 3.012517 1_555
P74 P98 2.185105 1_555
P74 P80 2.232126 1_555
P75 P81 2.213439 1_555
P75 Pb14 2.825359 1_655
P76 Pb1 2.830210 1_555
P76 Pb3 3.067945 1_555
P77 Pb0 2.878911 1_555
P77 Pb17 2.998817 1_555
P78 Pb13 2.853205 1_555
P78 Pb18 2.969148 1_555
P79 Pb3 2.867868 1_555
P79 Pb11 3.042998 1_556
P82 P90 2.225930 1_565
P82 P91 2.323486 1_565
P83 P9 2.189152 1_555
P83 P95 2.222241 1_555
P85 P96 2.182163 1_465
P87 Pb2 2.825359 1_455
P93 Pb0 2.830210 1_555
P93 Pb17 3.067945 1_565
P94 Pb15 2.828488 1_555
P94 Pb4 3.115983 1_555
P95 Pb6 3.130716 1_554
P96 Pb11 2.942054 1_546
P96 Pb2 3.012517 1_555
P98 P99 2.182163 1_555
P98 Pb19 2.942054 1_555
P98 Pb7 3.012517 1_555
P100 P108 2.188423 1_555
P100 P90 2.188738 1_555
P100 Pb19 2.830862 1_555
P100 Pb7 3.080668 1_545
P101 P31 2.208612 1_555
P101 P55 2.211223 1_555
P101 Pb12 2.828488 1_555
P101 Pb16 3.115983 1_455
P102 P48 2.211223 1_555
P102 P7 2.243353 1_555
P102 P103 2.292748 1_555
P103 P111 2.219856 1_555
P103 P70 2.230290 1_555
P104 P50 2.185105 1_555
P104 P19 2.215102 1_565
P104 P105 2.232126 1_555
P105 P47 2.219108 1_555
P105 P44 2.313049 1_455
P106 P107 2.205924 1_555
P106 P22 2.213439 1_555
P106 Pb13 2.825359 1_555
P107 P39 2.313049 1_555
P108 P56 2.220732 1_555
P108 P91 2.222230 1_555
P109 P46 2.218231 1_555
P109 P59 2.219856 1_555
P109 Pb12 2.867868 1_555
P109 Pb5 3.042998 1_555
P110 P63 2.218746 1_555
P110 P60 2.222241 1_555
P110 P58 2.242354 1_555
P110 Pb4 3.130716 1_556
P111 P53 2.218231 1_555
P111 Pb17 2.867868 1_555
P111 Pb19 3.042998 1_555
I0 Pb10 3.107946 1_555
I0 Pb9 3.426557 1_555
I1 Pb6 3.107946 1_555
I1 Pb18 3.426557 1_565
I2 Pb16 3.107946 1_555
I2 Pb1 3.426557 1_555
I3 Pb4 3.234611 1_555
I3 Pb11 3.373419 1_555
I4 Pb10 3.234611 1_565
I4 Pb5 3.373419 1_555
I5 Pb16 3.234611 1_545
I5 Pb19 3.373419 1_555
I6 Pb4 3.107946 1_555
I6 Pb0 3.426557 1_545
I7 Pb6 3.234611 1_555
I7 Pb8 3.373419 1_555
