# generated using pymatgen
data_VHO3
_symmetry_space_group_name_H-M   'P 1'
_cell_length_a   8.69704900
_cell_length_b   5.04568900
_cell_length_c   7.87183646
_cell_angle_alpha   76.02769800
_cell_angle_beta   90.00000000
_cell_angle_gamma   90.00000000
_symmetry_Int_Tables_number   1
_chemical_formula_structural   VHO3
_chemical_formula_sum   'V6 H6 O18'
_cell_volume   335.21609989
_cell_formula_units_Z   6
loop_
 _symmetry_equiv_pos_site_id
 _symmetry_equiv_pos_as_xyz
  1  'x, y, z'
loop_
 _atom_site_type_symbol
 _atom_site_label
 _atom_site_symmetry_multiplicity
 _atom_site_fract_x
 _atom_site_fract_y
 _atom_site_fract_z
 _atom_site_occupancy
  V  V0  1  0.55776300  0.53116300  0.18599000  1
  V  V1  1  0.05776300  0.46883700  0.81401000  1
  V  V2  1  0.44925400  0.47024400  0.81500400  1
  V  V3  1  0.94925400  0.52975600  0.18499600  1
  V  V4  1  0.75315100  0.05731100  0.07813200  1
  V  V5  1  0.25315100  0.94268900  0.92186800  1
  H  H0  1  0.84547200  0.91301800  0.57829100  1
  H  H1  1  0.74700300  0.16958900  0.44038600  1
  H  H2  1  0.66285600  0.90175700  0.59234900  1
  H  H3  1  0.34547200  0.08698200  0.42170900  1
  H  H4  1  0.24700300  0.83041100  0.55961400  1
  H  H5  1  0.16285600  0.09824300  0.40765100  1
  O  O0  1  0.59352900  0.32315800  0.00349800  1
  O  O1  1  0.09352900  0.67684200  0.99650200  1
  O  O2  1  0.41279100  0.67733500  0.99691300  1
  O  O3  1  0.91279100  0.32266500  0.00308700  1
  O  O4  1  0.60494700  0.84766900  0.23348300  1
  O  O5  1  0.10494700  0.15233100  0.76651700  1
  O  O6  1  0.40290700  0.15464500  0.76708500  1
  O  O7  1  0.90290700  0.84535500  0.23291500  1
  O  O8  1  0.75305500  0.36556600  0.26397500  1
  O  O9  1  0.25305500  0.63443400  0.73602500  1
  O  O10  1  0.75342200  0.87985400  0.93117600  1
  O  O11  1  0.25342200  0.12014600  0.06882400  1
  O  O12  1  0.44816300  0.36392500  0.34463500  1
  O  O13  1  0.94816300  0.63607500  0.65536500  1
  O  O14  1  0.56024500  0.64062900  0.65846100  1
  O  O15  1  0.06024500  0.35937100  0.34153900  1
  O  O16  1  0.75225400  0.03536500  0.56356500  1
  O  O17  1  0.25225400  0.96463500  0.43643500  1
loop_
_geom_bond_atom_site_label_1
_geom_bond_atom_site_label_2
_geom_bond_distance
_geom_bond_site_symmetry_2
H0 O16 1.008583 1_565
H0 O13 1.645896 1_555
H1 O16 1.041079 1_555
H1 O8 1.498628 1_555
H2 O16 1.018112 1_565
H2 O14 1.572294 1_555
H3 O17 1.008583 1_545
H3 O12 1.645896 1_555
H4 O17 1.041079 1_555
H4 O9 1.498628 1_555
H5 O17 1.018112 1_545
H5 O15 1.572294 1_555
O0 V4 1.921228 1_555
O0 V2 1.948101 1_554
O0 V0 1.997501 1_555
O1 V5 1.921228 1_555
O1 V3 1.948101 1_456
O1 V1 1.997501 1_555
O2 V5 1.920237 1_555
O2 V0 1.954183 1_556
O2 V2 1.991351 1_555
O3 V4 1.920237 1_555
O3 V1 1.954183 1_654
O3 V3 1.991351 1_555
O4 V0 1.773940 1_555
O4 V4 1.910781 1_565
O5 V1 1.773940 1_555
O5 V5 1.910781 1_545
O6 V2 1.769355 1_555
O6 V5 1.922342 1_545
O7 V3 1.769355 1_555
O7 V4 1.922342 1_565
O8 V0 1.926677 1_555
O8 V3 1.932814 1_555
O8 V4 2.378673 1_555
O9 V1 1.926677 1_555
O9 V2 1.932814 1_555
O9 V5 2.378673 1_555
O10 V4 1.624853 1_566
O11 V5 1.624853 1_544
O12 V0 1.634417 1_555
O13 V1 1.634417 1_655
O14 V2 1.636404 1_555
O15 V3 1.636404 1_455
