# generated using pymatgen
data_Cu3BiS3
_symmetry_space_group_name_H-M   'P 1'
_cell_length_a   6.76564000
_cell_length_b   7.74395800
_cell_length_c   10.44051200
_cell_angle_alpha   90.00000000
_cell_angle_beta   90.00000000
_cell_angle_gamma   90.00000000
_symmetry_Int_Tables_number   1
_chemical_formula_structural   Cu3BiS3
_chemical_formula_sum   'Cu12 Bi4 S12'
_cell_volume   547.00799124
_cell_formula_units_Z   4
loop_
 _symmetry_equiv_pos_site_id
 _symmetry_equiv_pos_as_xyz
  1  'x, y, z'
loop_
 _atom_site_type_symbol
 _atom_site_label
 _atom_site_symmetry_multiplicity
 _atom_site_fract_x
 _atom_site_fract_y
 _atom_site_fract_z
 _atom_site_occupancy
  Cu  Cu0  1  0.86008800  0.64867700  0.59760900  1
  Cu  Cu1  1  0.36008800  0.85132300  0.40239100  1
  Cu  Cu2  1  0.13991200  0.14867700  0.90239100  1
  Cu  Cu3  1  0.63991200  0.35132300  0.09760900  1
  Cu  Cu4  1  0.92386000  0.81186800  0.89658800  1
  Cu  Cu5  1  0.42386000  0.68813200  0.10341200  1
  Cu  Cu6  1  0.07614000  0.31186800  0.60341200  1
  Cu  Cu7  1  0.57614000  0.18813200  0.39658800  1
  Cu  Cu8  1  0.02633500  0.94159500  0.53575700  1
  Cu  Cu9  1  0.52633500  0.55840500  0.46424300  1
  Cu  Cu10  1  0.97366500  0.44159500  0.96424300  1
  Cu  Cu11  1  0.47366500  0.05840500  0.03575700  1
  Bi  Bi0  1  0.37022700  0.69450000  0.75602600  1
  Bi  Bi1  1  0.87022700  0.80550000  0.24397400  1
  Bi  Bi2  1  0.62977300  0.19450000  0.74397400  1
  Bi  Bi3  1  0.12977300  0.30550000  0.25602600  1
  S  S0  1  0.10798200  0.94633200  0.74773000  1
  S  S1  1  0.60798200  0.55366800  0.25227000  1
  S  S2  1  0.89201800  0.44633200  0.75227000  1
  S  S3  1  0.39201800  0.05366800  0.24773000  1
  S  S4  1  0.58585300  0.81947500  0.56914700  1
  S  S5  1  0.08585300  0.68052500  0.43085300  1
  S  S6  1  0.41414700  0.31947500  0.93085300  1
  S  S7  1  0.91414700  0.18052500  0.06914700  1
  S  S8  1  0.59460300  0.82146300  0.93787200  1
  S  S9  1  0.09460300  0.67853700  0.06212800  1
  S  S10  1  0.40539700  0.32146300  0.56212800  1
  S  S11  1  0.90539700  0.17853700  0.43787200  1
loop_
_geom_bond_atom_site_label_1
_geom_bond_atom_site_label_2
_geom_bond_distance
_geom_bond_site_symmetry_2
Cu0 S2 2.260396 1_555
Cu0 S4 2.297853 1_555
Cu0 S5 2.329175 1_655
Cu1 S3 2.260396 1_565
Cu1 S5 2.297853 1_555
Cu1 S4 2.329175 1_555
Cu2 S0 2.260396 1_545
Cu2 S6 2.297853 1_555
Cu2 S7 2.329175 1_456
Cu3 S1 2.260396 1_555
Cu3 S7 2.297853 1_555
Cu3 S6 2.329175 1_554
Cu4 S0 2.247541 1_655
Cu4 S8 2.270167 1_555
Cu4 S9 2.321127 1_656
Cu5 S1 2.247541 1_555
Cu5 S9 2.270167 1_555
Cu5 S8 2.321127 1_554
Cu6 S2 2.247541 1_455
Cu6 S10 2.270167 1_555
Cu6 S11 2.321127 1_455
Cu7 S3 2.247541 1_555
Cu7 S11 2.270167 1_555
Cu7 S10 2.321127 1_555
Cu8 S11 2.254031 1_465
Cu8 S0 2.281299 1_555
Cu8 S5 2.334321 1_555
Cu9 S10 2.254031 1_555
Cu9 S1 2.281299 1_555
Cu9 S4 2.334321 1_555
Cu10 S9 2.254031 1_656
Cu10 S2 2.281299 1_555
Cu10 S7 2.334321 1_556
Cu11 S8 2.254031 1_544
Cu11 S3 2.281299 1_555
Cu11 S6 2.334321 1_554
Bi0 S4 2.621396 1_555
Bi0 S8 2.622154 1_555
Bi0 S0 2.637929 1_555
Bi1 S5 2.621396 1_655
Bi1 S9 2.622154 1_655
Bi1 S1 2.637929 1_555
Bi2 S6 2.621396 1_555
Bi2 S10 2.622154 1_555
Bi2 S2 2.637929 1_555
Bi3 S7 2.621396 1_455
Bi3 S11 2.622154 1_455
Bi3 S3 2.637929 1_555
