# generated using pymatgen
data_Ca2In4Au3
_symmetry_space_group_name_H-M   'P 1'
_cell_length_a   4.50697400
_cell_length_b   12.98678800
_cell_length_c   14.95548000
_cell_angle_alpha   90.00000000
_cell_angle_beta   90.00000000
_cell_angle_gamma   90.00000000
_symmetry_Int_Tables_number   1
_chemical_formula_structural   Ca2In4Au3
_chemical_formula_sum   'Ca8 In16 Au12'
_cell_volume   875.36093261
_cell_formula_units_Z   4
loop_
 _symmetry_equiv_pos_site_id
 _symmetry_equiv_pos_as_xyz
  1  'x, y, z'
loop_
 _atom_site_type_symbol
 _atom_site_label
 _atom_site_symmetry_multiplicity
 _atom_site_fract_x
 _atom_site_fract_y
 _atom_site_fract_z
 _atom_site_occupancy
  Ca  Ca0  1  0.75000000  0.21312000  0.51950100  1
  Ca  Ca1  1  0.75000000  0.41578400  0.29098900  1
  Ca  Ca2  1  0.25000000  0.78687900  0.48049900  1
  Ca  Ca3  1  0.25000000  0.71312100  0.98049900  1
  Ca  Ca4  1  0.75000000  0.28688000  0.01950100  1
  Ca  Ca5  1  0.25000000  0.58421600  0.70901100  1
  Ca  Ca6  1  0.75000000  0.08421600  0.79098900  1
  Ca  Ca7  1  0.25000000  0.91578400  0.20901100  1
  In  In0  1  0.75000000  0.71634600  0.31948700  1
  In  In1  1  0.25000000  0.21634600  0.18051300  1
  In  In2  1  0.75000000  0.36944000  0.80418900  1
  In  In3  1  0.25000000  0.41330700  0.49541100  1
  In  In4  1  0.75000000  0.96022400  0.57114000  1
  In  In5  1  0.75000000  0.78365400  0.81948700  1
  In  In6  1  0.25000000  0.28365400  0.68051300  1
  In  In7  1  0.75000000  0.53977600  0.07114000  1
  In  In8  1  0.75000000  0.58669300  0.50458900  1
  In  In9  1  0.25000000  0.03977600  0.42886000  1
  In  In10  1  0.75000000  0.91330700  0.00458900  1
  In  In11  1  0.25000000  0.63056000  0.19581100  1
  In  In12  1  0.25000000  0.46022400  0.92886000  1
  In  In13  1  0.75000000  0.13056000  0.30418900  1
  In  In14  1  0.25000000  0.08669300  0.99541100  1
  In  In15  1  0.25000000  0.86944000  0.69581100  1
  Au  Au0  1  0.75000000  0.75391700  0.12914000  1
  Au  Au1  1  0.75000000  0.92004600  0.37441900  1
  Au  Au2  1  0.25000000  0.07995400  0.62558100  1
  Au  Au3  1  0.75000000  0.74608300  0.62914000  1
  Au  Au4  1  0.75000000  0.57995400  0.87441900  1
  Au  Au5  1  0.25000000  0.91751000  0.87786700  1
  Au  Au6  1  0.75000000  0.41751000  0.62213300  1
  Au  Au7  1  0.25000000  0.24608300  0.87086000  1
  Au  Au8  1  0.25000000  0.58249000  0.37786700  1
  Au  Au9  1  0.25000000  0.25391700  0.37086000  1
  Au  Au10  1  0.75000000  0.08249000  0.12213300  1
  Au  Au11  1  0.25000000  0.42004600  0.12558100  1
loop_
_geom_bond_atom_site_label_1
_geom_bond_atom_site_label_2
_geom_bond_distance
_geom_bond_site_symmetry_2
Ca0 In4 3.373884 1_545
Ca0 In13 3.393906 1_555
Ca0 In6 3.422835 1_655
Ca0 In6 3.422835 1_555
Ca0 In3 3.459320 1_555
Ca0 In3 3.459320 1_655
Ca0 In9 3.461736 1_555
Ca0 In9 3.461736 1_655
Ca2 In9 3.373897 1_565
Ca2 In15 3.393910 1_555
Ca2 In0 3.422831 1_555
Ca2 In0 3.422831 1_455
Ca2 In8 3.459310 1_455
Ca2 In8 3.459310 1_555
Ca2 In4 3.461745 1_455
Ca2 In4 3.461745 1_555
Ca3 In12 3.373897 1_555
Ca3 In11 3.393910 1_556
Ca3 In5 3.422831 1_455
Ca3 In5 3.422831 1_555
Ca3 In10 3.459310 1_556
Ca3 In10 3.459310 1_456
Ca3 In7 3.461745 1_456
Ca3 In7 3.461745 1_556
Ca4 In7 3.373884 1_555
Ca4 In2 3.393906 1_554
Ca4 In1 3.422835 1_655
Ca4 In1 3.422835 1_555
Ca4 In14 3.459320 1_654
Ca4 In14 3.459320 1_554
Ca4 In12 3.461736 1_654
Ca4 In12 3.461736 1_554
Au0 In10 2.784686 1_555
Au0 In0 2.888243 1_555
Au0 In7 2.913142 1_555
Au0 In11 2.939191 1_555
Au0 In11 2.939191 1_655
Au0 Ca3 3.209458 1_654
Au0 Ca3 3.209458 1_554
Au0 Ca7 3.305150 1_555
Au0 Ca7 3.305150 1_655
Au1 In0 2.770037 1_555
Au1 In9 2.856370 1_665
Au1 In9 2.856370 1_565
Au1 In13 2.928719 1_565
Au1 In4 2.987969 1_555
Au1 Ca2 3.253610 1_655
Au1 Ca2 3.253610 1_555
Au1 Ca7 3.346750 1_655
Au1 Ca7 3.346750 1_555
Au2 In6 2.770037 1_555
Au2 In4 2.856370 1_445
Au2 In4 2.856370 1_545
Au2 In15 2.928719 1_545
Au2 In9 2.987969 1_555
Au2 Ca0 3.253603 1_455
Au2 Ca0 3.253603 1_555
Au2 Ca6 3.346750 1_555
Au2 Ca6 3.346750 1_455
Au3 In8 2.784686 1_555
Au3 In5 2.888243 1_555
Au3 In4 2.913142 1_555
Au3 In15 2.939191 1_655
Au3 In15 2.939191 1_555
Au3 Ca2 3.209458 1_655
Au3 Ca2 3.209458 1_555
Au3 Ca5 3.305150 1_555
Au3 Ca5 3.305150 1_655
Au4 In5 2.770037 1_555
Au4 In12 2.856370 1_555
Au4 In12 2.856370 1_655
Au4 In2 2.928719 1_555
Au4 In7 2.987969 1_556
Au4 Ca3 3.253610 1_655
Au4 Ca3 3.253610 1_555
Au4 Ca5 3.346750 1_655
Au4 Ca5 3.346750 1_555
Au5 In15 2.793386 1_555
Au5 In14 2.813849 1_565
Au5 In10 2.944982 1_456
Au5 In10 2.944982 1_556
Au5 In5 2.976979 1_455
Au5 In5 2.976979 1_555
Au5 Ca3 3.066196 1_555
Au5 Ca6 3.384303 1_465
Au5 Ca6 3.384303 1_565
Au6 In2 2.793386 1_555
Au6 In8 2.813849 1_555
Au6 In3 2.944982 1_655
Au6 In3 2.944982 1_555
Au6 In6 2.976979 1_655
Au6 In6 2.976979 1_555
Au6 Ca0 3.066208 1_555
Au6 Ca5 3.384303 1_555
Au6 Ca5 3.384303 1_655
Au7 In14 2.784686 1_555
Au7 In6 2.888243 1_555
Au7 In12 2.913142 1_555
Au7 In2 2.939191 1_555
Au7 In2 2.939191 1_455
Au7 Ca4 3.209460 1_556
Au7 Ca4 3.209460 1_456
Au7 Ca6 3.305150 1_455
Au7 Ca6 3.305150 1_555
Au8 In11 2.793386 1_555
Au8 In3 2.813849 1_555
Au8 In8 2.944982 1_455
Au8 In8 2.944982 1_555
Au8 In0 2.976979 1_555
Au8 In0 2.976979 1_455
Au8 Ca2 3.066196 1_555
Au8 Ca1 3.384303 1_455
Au8 Ca1 3.384303 1_555
Au9 In3 2.784686 1_555
Au9 In1 2.888243 1_555
Au9 In9 2.913142 1_555
Au9 In13 2.939191 1_455
Au9 In13 2.939191 1_555
Au9 Ca0 3.209460 1_455
Au9 Ca0 3.209460 1_555
Au9 Ca1 3.305150 1_455
Au9 Ca1 3.305150 1_555
Au10 In13 2.793386 1_555
Au10 In10 2.813849 1_545
Au10 In14 2.944982 1_654
Au10 In14 2.944982 1_554
Au10 In1 2.976979 1_655
Au10 In1 2.976979 1_555
Au10 Ca4 3.066208 1_555
Au10 Ca7 3.384303 1_545
Au10 Ca7 3.384303 1_645
Au11 In1 2.770037 1_555
Au11 In7 2.856370 1_555
Au11 In7 2.856370 1_455
Au11 In11 2.928719 1_555
Au11 In12 2.987969 1_554
Au11 Ca4 3.253603 1_455
Au11 Ca4 3.253603 1_555
Au11 Ca1 3.346750 1_455
Au11 Ca1 3.346750 1_555
