# generated using pymatgen
data_P6(Pb2O5)5
_symmetry_space_group_name_H-M   'P 1'
_cell_length_a   7.47371100
_cell_length_b   10.00366700
_cell_length_c   17.33359448
_cell_angle_alpha   89.91861916
_cell_angle_beta   90.00000000
_cell_angle_gamma   90.00000000
_symmetry_Int_Tables_number   1
_chemical_formula_structural   P6(Pb2O5)5
_chemical_formula_sum   'P12 Pb20 O50'
_cell_volume   1295.93649666
_cell_formula_units_Z   2
loop_
 _symmetry_equiv_pos_site_id
 _symmetry_equiv_pos_as_xyz
  1  'x, y, z'
loop_
 _atom_site_type_symbol
 _atom_site_label
 _atom_site_symmetry_multiplicity
 _atom_site_fract_x
 _atom_site_fract_y
 _atom_site_fract_z
 _atom_site_occupancy
  P  P0  1  0.24996900  0.13890800  0.26501700  1
  P  P1  1  0.24974500  0.08237100  0.55134600  1
  P  P2  1  0.24948100  0.03444200  0.93370100  1
  P  P3  1  0.74948100  0.96555800  0.06629900  1
  P  P4  1  0.74974500  0.91762900  0.44865400  1
  P  P5  1  0.74996900  0.86109200  0.73498300  1
  P  P6  1  0.25102200  0.63540300  0.76397400  1
  P  P7  1  0.25086400  0.57375500  0.04784300  1
  P  P8  1  0.25146000  0.53562900  0.43844700  1
  P  P9  1  0.75146000  0.46437100  0.56155300  1
  P  P10  1  0.75086400  0.42624500  0.95215700  1
  P  P11  1  0.75102200  0.36459700  0.23602600  1
  Pb  Pb0  1  0.49484200  0.24438000  0.08352700  1
  Pb  Pb1  1  0.00521300  0.24379900  0.08148500  1
  Pb  Pb2  1  0.50063600  0.24389400  0.41525200  1
  Pb  Pb3  1  0.99920400  0.24470700  0.41736300  1
  Pb  Pb4  1  0.73127000  0.13652800  0.63718600  1
  Pb  Pb5  1  0.73075300  0.13757700  0.86313300  1
  Pb  Pb6  1  0.25120000  0.99427200  0.75230400  1
  Pb  Pb7  1  0.75120000  0.00572800  0.24769600  1
  Pb  Pb8  1  0.23075300  0.86242300  0.13686700  1
  Pb  Pb9  1  0.23127000  0.86347200  0.36281400  1
  Pb  Pb10  1  0.49920400  0.75529300  0.58263700  1
  Pb  Pb11  1  0.00063600  0.75610600  0.58474800  1
  Pb  Pb12  1  0.50521300  0.75620100  0.91851500  1
  Pb  Pb13  1  0.99484200  0.75562000  0.91647300  1
  Pb  Pb14  1  0.75185500  0.61510100  0.12369200  1
  Pb  Pb15  1  0.75209400  0.62633500  0.38003200  1
  Pb  Pb16  1  0.23171800  0.52118800  0.25140700  1
  Pb  Pb17  1  0.73171800  0.47881200  0.74859300  1
  Pb  Pb18  1  0.25209400  0.37366500  0.61996800  1
  Pb  Pb19  1  0.25185500  0.38489900  0.87630800  1
  O  O0  1  0.66950900  0.25130100  0.75044800  1
  O  O1  1  0.75099900  0.22275400  0.19548200  1
  O  O2  1  0.24692200  0.16394900  0.17667300  1
  O  O3  1  0.41958300  0.16278400  0.57799600  1
  O  O4  1  0.08579200  0.16529700  0.58010700  1
  O  O5  1  0.25085800  0.15682000  0.98895000  1
  O  O6  1  0.74717300  0.09925500  0.01998600  1
  O  O7  1  0.24801200  0.07912400  0.46129600  1
  O  O8  1  0.75056000  0.06133800  0.41460800  1
  O  O9  1  0.07911100  0.05904600  0.29104100  1
  O  O10  1  0.41783100  0.05488300  0.28863200  1
  O  O11  1  0.08534500  0.03680100  0.87785900  1
  O  O12  1  0.41956200  0.03431200  0.88023800  1
  O  O13  1  0.91956200  0.96568800  0.11976200  1
  O  O14  1  0.58534500  0.96319900  0.12214100  1
  O  O15  1  0.57911100  0.94095400  0.70895900  1
  O  O16  1  0.91783100  0.94511700  0.71136800  1
  O  O17  1  0.25056000  0.93866200  0.58539200  1
  O  O18  1  0.74801200  0.92087600  0.53870400  1
  O  O19  1  0.24717300  0.90074500  0.98001400  1
  O  O20  1  0.75085800  0.84318000  0.01105000  1
  O  O21  1  0.91958300  0.83721600  0.42200400  1
  O  O22  1  0.58579200  0.83470300  0.41989300  1
  O  O23  1  0.74692200  0.83605100  0.82332700  1
  O  O24  1  0.25099900  0.77724600  0.80451800  1
  O  O25  1  0.16950900  0.74869900  0.24955200  1
  O  O26  1  0.75205200  0.72727800  0.68857900  1
  O  O27  1  0.25090000  0.65496000  0.67553500  1
  O  O28  1  0.08022900  0.65489300  0.07099700  1
  O  O29  1  0.41845400  0.65296500  0.07527200  1
  O  O30  1  0.24725700  0.65593500  0.49394100  1
  O  O31  1  0.75517100  0.59918100  0.51321300  1
  O  O32  1  0.25470700  0.56964800  0.95640400  1
  O  O33  1  0.74688500  0.57014600  0.92019500  1
  O  O34  1  0.08675100  0.55523800  0.79397700  1
  O  O35  1  0.41996300  0.55763600  0.79294500  1
  O  O36  1  0.41846200  0.53685300  0.38493600  1
  O  O37  1  0.08096900  0.52982900  0.38620500  1
  O  O38  1  0.91846200  0.46314700  0.61506400  1
  O  O39  1  0.58096900  0.47017100  0.61379500  1
  O  O40  1  0.58675100  0.44476200  0.20602300  1
  O  O41  1  0.91996300  0.44236400  0.20705500  1
  O  O42  1  0.24688500  0.42985400  0.07980500  1
  O  O43  1  0.75470700  0.43035200  0.04359600  1
  O  O44  1  0.25517100  0.40081900  0.48678700  1
  O  O45  1  0.74725700  0.34406500  0.50605900  1
  O  O46  1  0.91845400  0.34703500  0.92472800  1
  O  O47  1  0.58022900  0.34510700  0.92900300  1
  O  O48  1  0.75090000  0.34504000  0.32446500  1
  O  O49  1  0.25205200  0.27272200  0.31142100  1
loop_
_geom_bond_atom_site_label_1
_geom_bond_atom_site_label_2
_geom_bond_distance
_geom_bond_site_symmetry_2
O0 Pb5 2.304906 1_555
O0 Pb4 2.322071 1_555
O0 Pb17 2.323125 1_555
O1 P11 1.584343 1_555
O1 Pb7 2.350964 1_555
O1 Pb0 2.734331 1_555
O1 Pb1 2.749060 1_655
O2 P0 1.551489 1_555
O2 Pb1 2.572930 1_555
O2 Pb0 2.585278 1_555
O3 P1 1.572488 1_555
O3 Pb4 2.558755 1_555
O3 Pb18 2.559474 1_555
O4 P1 1.561838 1_555
O4 Pb18 2.524118 1_555
O4 Pb4 2.842754 1_455
O5 P2 1.555407 1_555
O5 Pb1 2.589249 1_556
O5 Pb0 2.604581 1_556
O6 P3 1.559002 1_545
O6 Pb0 2.623301 1_555
O6 Pb1 2.636425 1_655
O6 Pb5 2.747923 1_554
O7 P1 1.561328 1_555
O7 Pb3 2.603444 1_455
O7 Pb2 2.629608 1_555
O7 Pb9 2.755743 1_545
O8 P4 1.553266 1_545
O8 Pb3 2.611641 1_555
O8 Pb2 2.612316 1_555
O9 P0 1.572038 1_555
O9 Pb9 2.581039 1_545
O9 Pb7 2.618417 1_455
O10 P0 1.564294 1_555
O10 Pb7 2.637019 1_555
O10 Pb9 2.693878 1_545
O11 P2 1.562757 1_555
O11 Pb6 2.540963 1_545
O11 Pb5 2.846731 1_455
O12 P2 1.573079 1_555
O12 Pb5 2.561895 1_555
O12 Pb6 2.581435 1_545
O13 P3 1.573079 1_555
O13 Pb8 2.561895 1_655
O13 Pb7 2.581435 1_565
O14 P3 1.562757 1_555
O14 Pb7 2.540963 1_565
O14 Pb8 2.846731 1_555
O15 P5 1.572038 1_555
O15 Pb4 2.581039 1_565
O15 Pb6 2.618417 1_555
O16 P5 1.564294 1_555
O16 Pb6 2.637019 1_655
O16 Pb4 2.693878 1_565
O17 P1 1.553266 1_565
O17 Pb10 2.611641 1_555
O17 Pb11 2.612316 1_555
O18 P4 1.561328 1_555
O18 Pb10 2.603444 1_555
O18 Pb11 2.629608 1_655
O18 Pb4 2.755743 1_565
O19 P2 1.559002 1_565
O19 Pb13 2.623301 1_455
O19 Pb12 2.636425 1_555
O19 Pb8 2.747923 1_556
O20 P3 1.555407 1_555
O20 Pb12 2.589249 1_554
O20 Pb13 2.604581 1_554
O21 P4 1.572488 1_555
O21 Pb9 2.558755 1_655
O21 Pb15 2.559474 1_555
O22 P4 1.561838 1_555
O22 Pb15 2.524118 1_555
O22 Pb9 2.842754 1_555
O23 P5 1.551489 1_555
O23 Pb12 2.572930 1_555
O23 Pb13 2.585278 1_555
O24 P6 1.584343 1_555
O24 Pb6 2.350964 1_555
O24 Pb13 2.734331 1_455
O24 Pb12 2.749060 1_555
O25 Pb8 2.304906 1_555
O25 Pb9 2.322071 1_555
O25 Pb16 2.323125 1_555
O26 P5 1.562757 1_555
O26 Pb11 2.602390 1_655
O26 Pb10 2.649584 1_555
O26 Pb17 2.697397 1_555
O27 P6 1.545124 1_555
O27 Pb11 2.644636 1_555
O27 Pb10 2.653217 1_555
O28 P7 1.564338 1_555
O28 Pb8 2.624110 1_555
O28 Pb14 2.648523 1_455
O29 P7 1.556857 1_555
O29 Pb14 2.656269 1_555
O29 Pb8 2.739463 1_555
O30 P8 1.542064 1_555
O30 Pb11 2.623632 1_555
O30 Pb10 2.627078 1_555
O31 P9 1.586932 1_555
O31 Pb15 2.324163 1_555
O31 Pb11 2.715308 1_655
O31 Pb10 2.748085 1_555
O32 P7 1.585817 1_556
O32 Pb19 2.313220 1_555
O32 Pb12 2.723190 1_555
O32 Pb13 2.776414 1_455
O33 P10 1.542019 1_555
O33 Pb12 2.593683 1_555
O33 Pb13 2.623091 1_555
O34 P6 1.555530 1_555
O34 Pb19 2.540857 1_555
O34 Pb17 2.871530 1_455
O35 P6 1.565401 1_555
O35 Pb17 2.577454 1_555
O35 Pb19 2.577865 1_555
O36 P8 1.555075 1_555
O36 Pb15 2.650601 1_555
O36 Pb16 2.707502 1_555
O37 P8 1.564324 1_555
O37 Pb16 2.595532 1_555
O37 Pb15 2.642827 1_455
O38 P9 1.555075 1_555
O38 Pb18 2.650601 1_655
O38 Pb17 2.707502 1_555
O39 P9 1.564324 1_555
O39 Pb17 2.595532 1_555
O39 Pb18 2.642827 1_555
O40 P11 1.555530 1_555
O40 Pb14 2.540857 1_555
O40 Pb16 2.871530 1_555
O41 P11 1.565401 1_555
O41 Pb16 2.577454 1_655
O41 Pb14 2.577865 1_555
O42 P7 1.542019 1_555
O42 Pb1 2.593683 1_555
O42 Pb0 2.623091 1_555
O43 P10 1.585817 1_554
O43 Pb14 2.313220 1_555
O43 Pb1 2.723190 1_655
O43 Pb0 2.776414 1_555
O44 P8 1.586932 1_555
O44 Pb18 2.324163 1_555
O44 Pb2 2.715308 1_555
O44 Pb3 2.748085 1_455
O45 P9 1.542064 1_555
O45 Pb2 2.623632 1_555
O45 Pb3 2.627078 1_555
O46 P10 1.556857 1_555
O46 Pb19 2.656269 1_655
O46 Pb5 2.739463 1_555
O47 P10 1.564338 1_555
O47 Pb5 2.624110 1_555
O47 Pb19 2.648523 1_555
O48 P11 1.545124 1_555
O48 Pb2 2.644636 1_555
O48 Pb3 2.653217 1_555
O49 P0 1.562757 1_555
O49 Pb2 2.602390 1_555
O49 Pb3 2.649584 1_455
O49 Pb16 2.697397 1_555
