# generated using pymatgen
data_Sb4Pb5S11
_symmetry_space_group_name_H-M   'P 1'
_cell_length_a   23.85082400
_cell_length_b   8.16189800
_cell_length_c   22.07708525
_cell_angle_alpha   79.55940384
_cell_angle_beta   90.00000000
_cell_angle_gamma   90.00000000
_symmetry_Int_Tables_number   1
_chemical_formula_structural   Sb4Pb5S11
_chemical_formula_sum   'Sb32 Pb40 S88'
_cell_volume   4226.54619301
_cell_formula_units_Z   8
loop_
 _symmetry_equiv_pos_site_id
 _symmetry_equiv_pos_as_xyz
  1  'x, y, z'
loop_
 _atom_site_type_symbol
 _atom_site_label
 _atom_site_symmetry_multiplicity
 _atom_site_fract_x
 _atom_site_fract_y
 _atom_site_fract_z
 _atom_site_occupancy
  Sb  Sb0  1  0.73143900  0.65643900  0.43835000  1
  Sb  Sb1  1  0.23143900  0.84356100  0.06165000  1
  Sb  Sb2  1  0.62035600  0.62063300  0.01513800  1
  Sb  Sb3  1  0.06226900  0.36210000  0.96911400  1
  Sb  Sb4  1  0.71623100  0.56605100  0.61336400  1
  Sb  Sb5  1  0.04382100  0.48296900  0.79042800  1
  Sb  Sb6  1  0.60464100  0.94440000  0.37596100  1
  Sb  Sb7  1  0.10464100  0.55560000  0.12403900  1
  Sb  Sb8  1  0.12035600  0.87936700  0.48486200  1
  Sb  Sb9  1  0.87964400  0.12063300  0.51513800  1
  Sb  Sb10  1  0.46532100  0.48113400  0.28172300  1
  Sb  Sb11  1  0.93773100  0.63790000  0.03088600  1
  Sb  Sb12  1  0.96532100  0.01886600  0.21827700  1
  Sb  Sb13  1  0.53467900  0.51886600  0.71827700  1
  Sb  Sb14  1  0.56226900  0.13790000  0.53088600  1
  Sb  Sb15  1  0.43773100  0.86210000  0.46911400  1
  Sb  Sb16  1  0.45617900  0.98296900  0.29042800  1
  Sb  Sb17  1  0.30952700  0.93764500  0.36953800  1
  Sb  Sb18  1  0.95617900  0.51703100  0.20957200  1
  Sb  Sb19  1  0.80952700  0.56235500  0.13046200  1
  Sb  Sb20  1  0.19047300  0.43764500  0.86953800  1
  Sb  Sb21  1  0.69047300  0.06235500  0.63046200  1
  Sb  Sb22  1  0.76856100  0.15643900  0.93835000  1
  Sb  Sb23  1  0.54382100  0.01703100  0.70957200  1
  Sb  Sb24  1  0.26856100  0.34356100  0.56165000  1
  Sb  Sb25  1  0.39535900  0.05560000  0.62403900  1
  Sb  Sb26  1  0.03467900  0.98113400  0.78172300  1
  Sb  Sb27  1  0.28376900  0.43394900  0.38663600  1
  Sb  Sb28  1  0.78376900  0.06605100  0.11336400  1
  Sb  Sb29  1  0.37964400  0.37936700  0.98486200  1
  Sb  Sb30  1  0.89535900  0.44440000  0.87596100  1
  Sb  Sb31  1  0.21623100  0.93394900  0.88663600  1
  Pb  Pb0  1  0.83978200  0.28177900  0.69182700  1
  Pb  Pb1  1  0.06959500  0.89721000  0.95301000  1
  Pb  Pb2  1  0.67751900  0.73018700  0.79130800  1
  Pb  Pb3  1  0.93040500  0.10279000  0.04699000  1
  Pb  Pb4  1  0.83864600  0.77410800  0.69353000  1
  Pb  Pb5  1  0.66135400  0.27410800  0.19353000  1
  Pb  Pb6  1  0.56959500  0.60279000  0.54699000  1
  Pb  Pb7  1  0.50023100  0.17953900  0.87718100  1
  Pb  Pb8  1  0.09493500  0.07214400  0.13107300  1
  Pb  Pb9  1  0.23302000  0.35665900  0.04037900  1
  Pb  Pb10  1  0.16135400  0.22589200  0.30647000  1
  Pb  Pb11  1  0.26698000  0.85665900  0.54037900  1
  Pb  Pb12  1  0.32248100  0.26981300  0.20869200  1
  Pb  Pb13  1  0.99984000  0.18694700  0.38870200  1
  Pb  Pb14  1  0.49976900  0.82046100  0.12281900  1
  Pb  Pb15  1  0.16021800  0.71822100  0.30817300  1
  Pb  Pb16  1  0.99976900  0.67953900  0.37718100  1
  Pb  Pb17  1  0.43040500  0.39721000  0.45301000  1
  Pb  Pb18  1  0.76698000  0.64334100  0.95962100  1
  Pb  Pb19  1  0.00023100  0.32046100  0.62281900  1
  Pb  Pb20  1  0.33978200  0.21822100  0.80817300  1
  Pb  Pb21  1  0.67496500  0.22672800  0.79505800  1
  Pb  Pb22  1  0.33864600  0.72589200  0.80647000  1
  Pb  Pb23  1  0.50016000  0.68694700  0.88870200  1
  Pb  Pb24  1  0.36502400  0.88180100  0.98597500  1
  Pb  Pb25  1  0.59493500  0.42785600  0.36892700  1
  Pb  Pb26  1  0.82248100  0.23018700  0.29130800  1
  Pb  Pb27  1  0.17751900  0.76981300  0.70869200  1
  Pb  Pb28  1  0.86502400  0.61819900  0.51402500  1
  Pb  Pb29  1  0.63497600  0.11819900  0.01402500  1
  Pb  Pb30  1  0.66021800  0.78177900  0.19182700  1
  Pb  Pb31  1  0.17496500  0.27327200  0.70494200  1
  Pb  Pb32  1  0.82503500  0.72672800  0.29505800  1
  Pb  Pb33  1  0.32503500  0.77327200  0.20494200  1
  Pb  Pb34  1  0.90506500  0.92785600  0.86892700  1
  Pb  Pb35  1  0.00016000  0.81305300  0.61129800  1
  Pb  Pb36  1  0.49984000  0.31305300  0.11129800  1
  Pb  Pb37  1  0.73302000  0.14334100  0.45962100  1
  Pb  Pb38  1  0.40506500  0.57214400  0.63107300  1
  Pb  Pb39  1  0.13497600  0.38180100  0.48597500  1
  S  S0  1  0.91464300  0.55550800  0.63194000  1
  S  S1  1  0.44432100  0.14147900  0.01407300  1
  S  S2  1  0.63391700  0.37040600  0.48893800  1
  S  S3  1  0.91184100  0.97250100  0.31440600  1
  S  S4  1  0.90831400  0.06484800  0.62615000  1
  S  S5  1  0.25118100  0.48342800  0.27826400  1
  S  S6  1  0.97325100  0.75732300  0.75473700  1
  S  S7  1  0.28022400  0.68936400  0.91912900  1
  S  S8  1  0.58815900  0.47250100  0.81440600  1
  S  S9  1  0.32856400  0.28645900  0.65618700  1
  S  S10  1  0.37500200  0.73447200  0.33272800  1
  S  S11  1  0.47286200  0.26760100  0.74838300  1
  S  S12  1  0.43940700  0.60180600  0.01127800  1
  S  S13  1  0.40831400  0.43515200  0.87385000  1
  S  S14  1  0.24947100  0.98797800  0.27679000  1
  S  S15  1  0.52713800  0.73239900  0.25161700  1
  S  S16  1  0.75118100  0.01657200  0.22173600  1
  S  S17  1  0.79320900  0.44702000  0.40217900  1
  S  S18  1  0.37525500  0.18509300  0.32691800  1
  S  S19  1  0.75052900  0.01202200  0.72321000  1
  S  S20  1  0.47325100  0.74267700  0.74526300  1
  S  S21  1  0.78022400  0.81063600  0.58087100  1
  S  S22  1  0.97286200  0.23239900  0.75161700  1
  S  S23  1  0.98716400  0.17164200  0.93500700  1
  S  S24  1  0.05567900  0.64147900  0.51407300  1
  S  S25  1  0.17143600  0.78645900  0.15618700  1
  S  S26  1  0.32727400  0.81388600  0.65434600  1
  S  S27  1  0.87525500  0.31490700  0.17308200  1
  S  S28  1  0.71977600  0.31063600  0.08087100  1
  S  S29  1  0.48094500  0.85169100  0.57137200  1
  S  S30  1  0.09168600  0.93515200  0.37385000  1
  S  S31  1  0.67143600  0.71354100  0.34381300  1
  S  S32  1  0.82856400  0.21354100  0.84381300  1
  S  S33  1  0.29538300  0.60599200  0.09432600  1
  S  S34  1  0.67272600  0.18611400  0.34565400  1
  S  S35  1  0.58430000  0.96977300  0.81342700  1
  S  S36  1  0.08535700  0.44449200  0.36806000  1
  S  S37  1  0.41184100  0.52749900  0.18559400  1
  S  S38  1  0.98094500  0.64830900  0.92862800  1
  S  S39  1  0.12499800  0.23447200  0.83272800  1
  S  S40  1  0.74947100  0.51202200  0.22321000  1
  S  S41  1  0.20679100  0.55298000  0.59782100  1
  S  S42  1  0.08430000  0.53022700  0.68657300  1
  S  S43  1  0.27660200  0.15633100  0.91678300  1
  S  S44  1  0.86608300  0.87040600  0.98893800  1
  S  S45  1  0.41464300  0.94449200  0.86806000  1
  S  S46  1  0.93940700  0.89819400  0.48872200  1
  S  S47  1  0.22339800  0.65633100  0.41678300  1
  S  S48  1  0.72339800  0.84366900  0.08321700  1
  S  S49  1  0.24881900  0.98342800  0.77826400  1
  S  S50  1  0.13391700  0.12959400  0.01106200  1
  S  S51  1  0.29320900  0.05298000  0.09782100  1
  S  S52  1  0.91570000  0.46977300  0.31342700  1
  S  S53  1  0.86057700  0.38940700  0.98216300  1
  S  S54  1  0.01283600  0.82835800  0.06499300  1
  S  S55  1  0.02674900  0.24267700  0.24526300  1
  S  S56  1  0.21977600  0.18936400  0.41912900  1
  S  S57  1  0.41570000  0.03022700  0.18657300  1
  S  S58  1  0.51905500  0.14830900  0.42862800  1
  S  S59  1  0.36608300  0.62959400  0.51106200  1
  S  S60  1  0.48716400  0.32835800  0.56499300  1
  S  S61  1  0.36057700  0.11059300  0.51783700  1
  S  S62  1  0.62499800  0.26552800  0.66727200  1
  S  S63  1  0.51283600  0.67164200  0.43500700  1
  S  S64  1  0.25052900  0.48797800  0.77679000  1
  S  S65  1  0.77660200  0.34366900  0.58321700  1
  S  S66  1  0.87500200  0.76552800  0.16727200  1
  S  S67  1  0.55567900  0.85852100  0.98592700  1
  S  S68  1  0.82727400  0.68611400  0.84565400  1
  S  S69  1  0.56059300  0.39819400  0.98872200  1
  S  S70  1  0.01905500  0.35169100  0.07137200  1
  S  S71  1  0.17272600  0.31388600  0.15434600  1
  S  S72  1  0.63942300  0.88940700  0.48216300  1
  S  S73  1  0.70679100  0.94702000  0.90217900  1
  S  S74  1  0.20461700  0.10599200  0.59432600  1
  S  S75  1  0.52674900  0.25732300  0.25473700  1
  S  S76  1  0.62474500  0.81490700  0.67308200  1
  S  S77  1  0.94432100  0.35852100  0.48592700  1
  S  S78  1  0.02713800  0.76760100  0.24838300  1
  S  S79  1  0.70461700  0.39400800  0.90567400  1
  S  S80  1  0.79538300  0.89400800  0.40567400  1
  S  S81  1  0.58535700  0.05550800  0.13194000  1
  S  S82  1  0.08815900  0.02749900  0.68559400  1
  S  S83  1  0.12474500  0.68509300  0.82691800  1
  S  S84  1  0.06059300  0.10180600  0.51127800  1
  S  S85  1  0.74881900  0.51657200  0.72173600  1
  S  S86  1  0.59168600  0.56484800  0.12615000  1
  S  S87  1  0.13942300  0.61059300  0.01783700  1
loop_
_geom_bond_atom_site_label_1
_geom_bond_atom_site_label_2
_geom_bond_distance
_geom_bond_site_symmetry_2
Pb0 S65 2.799343 1_555
Pb0 S4 2.973126 1_555
Pb0 S0 2.976051 1_555
Pb0 S85 3.045316 1_555
Pb0 S19 3.050636 1_555
Pb1 S54 2.785133 1_556
Pb1 S50 2.911112 1_566
Pb1 S23 2.952583 1_465
Pb1 S87 3.013489 1_556
Pb1 S38 3.046912 1_455
Pb2 S76 2.867211 1_555
Pb2 S8 2.972757 1_555
Pb2 S85 3.043259 1_555
Pb2 S19 3.054594 1_565
Pb2 S35 3.058058 1_555
Pb3 S23 2.785133 1_554
Pb3 S44 2.911112 1_544
Pb3 S54 2.952583 1_645
Pb3 S53 3.013489 1_554
Pb3 S70 3.046912 1_655
Pb4 S21 2.819186 1_555
Pb4 S85 2.986935 1_555
Pb4 S19 3.013004 1_565
Pb4 S0 3.032647 1_555
Pb4 S4 3.053781 1_565
Pb5 S28 2.819186 1_555
Pb5 S16 2.986935 1_555
Pb5 S40 3.013004 1_555
Pb5 S81 3.032647 1_555
Pb5 S86 3.053781 1_555
Pb6 S63 2.785133 1_555
Pb6 S2 2.911112 1_555
Pb6 S60 2.952583 1_555
Pb6 S72 3.013489 1_555
Pb6 S29 3.046912 1_555
Pb7 S45 2.833375 1_545
Pb7 S11 2.878784 1_555
Pb7 S13 3.018039 1_555
Pb7 S35 3.131481 1_545
Pb8 S50 2.766560 1_555
Pb8 S71 2.822563 1_555
Pb8 S25 2.933434 1_545
Pb8 S70 3.021340 1_555
Pb9 S71 2.863931 1_555
Pb9 S33 2.941195 1_555
Pb9 S51 2.945041 1_555
Pb9 S87 3.025375 1_555
Pb9 S50 3.142503 1_555
Pb10 S56 2.819186 1_555
Pb10 S5 2.986935 1_555
Pb10 S14 3.013004 1_545
Pb10 S36 3.032647 1_555
Pb10 S30 3.053781 1_545
Pb11 S26 2.863931 1_555
Pb11 S74 2.941195 1_565
Pb11 S41 2.945041 1_555
Pb11 S61 3.025375 1_565
Pb11 S59 3.142503 1_555
Pb12 S18 2.867211 1_555
Pb12 S37 2.972757 1_555
Pb12 S5 3.043259 1_555
Pb12 S14 3.054594 1_545
Pb12 S57 3.058058 1_555
Pb13 S36 2.905048 1_655
Pb13 S84 3.037114 1_655
Pb13 S30 3.061702 1_645
Pb13 S77 3.067752 1_555
Pb14 S81 2.833375 1_565
Pb14 S15 2.878784 1_555
Pb14 S86 3.018039 1_555
Pb14 S57 3.131481 1_565
Pb15 S47 2.799343 1_555
Pb15 S30 2.973126 1_555
Pb15 S36 2.976051 1_555
Pb15 S5 3.045316 1_555
Pb15 S14 3.050636 1_555
Pb16 S36 2.833375 1_655
Pb16 S78 2.878784 1_655
Pb16 S30 3.018039 1_655
Pb16 S52 3.131481 1_555
Pb17 S60 2.785133 1_555
Pb17 S59 2.911112 1_555
Pb17 S63 2.952583 1_555
Pb17 S61 3.013489 1_555
Pb17 S58 3.046912 1_555
Pb18 S68 2.863931 1_555
Pb18 S79 2.941195 1_555
Pb18 S73 2.945041 1_555
Pb18 S53 3.025375 1_555
Pb18 S44 3.142503 1_555
Pb19 S0 2.833375 1_455
Pb19 S22 2.878784 1_455
Pb19 S4 3.018039 1_455
Pb19 S42 3.131481 1_555
Pb20 S43 2.799343 1_555
Pb20 S13 2.973126 1_555
Pb20 S45 2.976051 1_545
Pb20 S49 3.045316 1_545
Pb20 S64 3.050636 1_555
Pb21 S8 2.967064 1_555
Pb21 S35 2.988436 1_545
Pb21 S62 3.025824 1_555
Pb21 S73 3.069874 1_545
Pb21 S79 3.088114 1_555
Pb21 S19 3.137282 1_555
Pb21 S85 3.151451 1_555
Pb22 S7 2.819186 1_555
Pb22 S49 2.986935 1_555
Pb22 S64 3.013004 1_555
Pb22 S45 3.032647 1_555
Pb22 S13 3.053781 1_555
Pb23 S45 2.905048 1_555
Pb23 S12 3.037114 1_556
Pb23 S13 3.061702 1_555
Pb23 S67 3.067752 1_555
Pb24 S45 2.820703 1_555
Pb24 S12 2.866939 1_556
Pb24 S1 2.988386 1_566
Pb24 S7 3.094450 1_555
Pb24 S43 3.249800 1_565
Pb25 S2 2.766560 1_555
Pb25 S34 2.822563 1_555
Pb25 S31 2.933434 1_555
Pb25 S58 3.021340 1_555
Pb26 S27 2.867211 1_555
Pb26 S3 2.972757 1_545
Pb26 S16 3.043259 1_555
Pb26 S40 3.054594 1_555
Pb26 S52 3.058058 1_555
Pb27 S83 2.867211 1_555
Pb27 S82 2.972757 1_565
Pb27 S49 3.043259 1_555
Pb27 S64 3.054594 1_555
Pb27 S42 3.058058 1_555
Pb28 S0 2.820703 1_555
Pb28 S46 2.866939 1_555
Pb28 S77 2.988386 1_555
Pb28 S21 3.094450 1_555
Pb28 S65 3.249800 1_555
Pb29 S81 2.820703 1_555
Pb29 S69 2.866939 1_554
Pb29 S67 2.988386 1_544
Pb29 S28 3.094450 1_555
Pb29 S48 3.249800 1_545
Pb30 S48 2.799343 1_555
Pb30 S86 2.973126 1_555
Pb30 S81 2.976051 1_565
Pb30 S16 3.045316 1_565
Pb30 S40 3.050636 1_555
Pb31 S82 2.967064 1_555
Pb31 S42 2.988436 1_555
Pb31 S39 3.025824 1_555
Pb31 S41 3.069874 1_555
Pb31 S74 3.088114 1_555
Pb31 S64 3.137282 1_555
Pb31 S49 3.151451 1_545
Pb32 S3 2.967064 1_555
Pb32 S52 2.988436 1_555
Pb32 S66 3.025824 1_555
Pb32 S17 3.069874 1_555
Pb32 S80 3.088114 1_555
Pb32 S40 3.137282 1_555
Pb32 S16 3.151451 1_565
Pb33 S37 2.967064 1_555
Pb33 S57 2.988436 1_565
Pb33 S10 3.025824 1_555
Pb33 S51 3.069874 1_565
Pb33 S33 3.088114 1_555
Pb33 S14 3.137282 1_555
Pb33 S5 3.151451 1_555
Pb34 S44 2.766560 1_555
Pb34 S68 2.822563 1_555
Pb34 S32 2.933434 1_565
Pb34 S38 3.021340 1_555
Pb35 S0 2.905048 1_455
Pb35 S46 3.037114 1_455
Pb35 S4 3.061702 1_465
Pb35 S24 3.067752 1_555
Pb36 S81 2.905048 1_555
Pb36 S69 3.037114 1_554
Pb36 S86 3.061702 1_555
Pb36 S1 3.067752 1_555
Pb37 S34 2.863931 1_555
Pb37 S80 2.941195 1_545
Pb37 S17 2.945041 1_555
Pb37 S72 3.025375 1_545
Pb37 S2 3.142503 1_555
Pb38 S59 2.766560 1_555
Pb38 S26 2.822563 1_555
Pb38 S9 2.933434 1_555
Pb38 S29 3.021340 1_555
Pb39 S36 2.820703 1_555
Pb39 S84 2.866939 1_555
Pb39 S24 2.988386 1_555
Pb39 S56 3.094450 1_555
Pb39 S47 3.249800 1_555
S1 Sb29 2.472158 1_554
S2 Sb14 2.596562 1_555
S3 Sb12 2.446033 1_565
S4 Sb9 2.505392 1_555
S5 Sb27 2.478157 1_555
S6 Sb26 2.496566 1_655
S6 Sb5 2.797968 1_655
S7 Sb31 2.512021 1_555
S8 Sb13 2.446033 1_555
S9 Sb24 2.503751 1_555
S9 Sb25 2.660228 1_555
S10 Sb17 2.517421 1_555
S10 Sb16 2.836879 1_555
S11 Sb13 2.515420 1_555
S11 Sb23 2.901057 1_555
S12 Sb29 2.460027 1_554
S13 Sb29 2.505392 1_555
S14 Sb17 2.471500 1_555
S15 Sb10 2.515420 1_555
S15 Sb16 2.901057 1_555
S16 Sb28 2.478157 1_555
S17 Sb0 2.494884 1_555
S18 Sb17 2.594830 1_545
S18 Sb16 2.752729 1_545
S19 Sb21 2.471500 1_555
S20 Sb13 2.496566 1_555
S20 Sb23 2.797968 1_565
S21 Sb4 2.512021 1_555
S22 Sb26 2.515420 1_645
S22 Sb5 2.901057 1_655
S23 Sb3 2.572255 1_655
S24 Sb8 2.472158 1_555
S25 Sb1 2.503751 1_555
S25 Sb7 2.660228 1_555
S26 Sb25 2.549192 1_565
S27 Sb19 2.594830 1_555
S27 Sb18 2.752729 1_555
S28 Sb28 2.512021 1_555
S29 Sb15 2.469129 1_555
S29 Sb25 2.998339 1_565
S29 Sb14 3.043241 1_565
S30 Sb8 2.505392 1_555
S31 Sb0 2.503751 1_555
S31 Sb6 2.660228 1_555
S32 Sb22 2.503751 1_555
S32 Sb30 2.660228 1_555
S33 Sb1 2.469655 1_555
S34 Sb6 2.549192 1_545
S35 Sb23 2.453031 1_565
S37 Sb10 2.446033 1_555
S38 Sb11 2.469129 1_556
S38 Sb30 2.998339 1_555
S38 Sb3 3.043241 1_655
S39 Sb20 2.517421 1_555
S39 Sb5 2.836879 1_555
S40 Sb19 2.471500 1_555
S41 Sb24 2.494884 1_555
S42 Sb5 2.453031 1_555
S43 Sb31 2.499708 1_545
S43 Sb20 3.116368 1_555
S44 Sb11 2.596562 1_556
S46 Sb9 2.460027 1_565
S47 Sb27 2.499708 1_555
S47 Sb17 3.116368 1_555
S48 Sb28 2.499708 1_565
S48 Sb19 3.116368 1_555
S49 Sb31 2.478157 1_555
S50 Sb3 2.596562 1_554
S51 Sb1 2.494884 1_545
S52 Sb18 2.453031 1_555
S53 Sb30 2.450621 1_555
S53 Sb11 3.073682 1_556
S53 Sb22 3.167691 1_555
S54 Sb11 2.572255 1_455
S55 Sb12 2.496566 1_455
S55 Sb18 2.797968 1_455
S56 Sb27 2.512021 1_555
S57 Sb16 2.453031 1_545
S58 Sb14 2.469129 1_555
S58 Sb6 2.998339 1_545
S58 Sb15 3.043241 1_545
S59 Sb15 2.596562 1_555
S60 Sb14 2.572255 1_555
S61 Sb25 2.450621 1_555
S61 Sb15 3.073682 1_545
S61 Sb24 3.167691 1_555
S62 Sb21 2.517421 1_555
S62 Sb23 2.836879 1_555
S63 Sb15 2.572255 1_555
S64 Sb20 2.471500 1_555
S65 Sb4 2.499708 1_555
S65 Sb21 3.116368 1_555
S66 Sb19 2.517421 1_555
S66 Sb18 2.836879 1_555
S67 Sb2 2.472158 1_556
S68 Sb30 2.549192 1_555
S69 Sb2 2.460027 1_556
S70 Sb3 2.469129 1_554
S70 Sb7 2.998339 1_555
S70 Sb11 3.043241 1_455
S71 Sb7 2.549192 1_555
S72 Sb6 2.450621 1_555
S72 Sb14 3.073682 1_565
S72 Sb0 3.167691 1_555
S73 Sb22 2.494884 1_565
S74 Sb24 2.469655 1_555
S75 Sb10 2.496566 1_555
S75 Sb16 2.797968 1_545
S76 Sb21 2.594830 1_565
S76 Sb23 2.752729 1_565
S77 Sb9 2.472158 1_555
S78 Sb12 2.515420 1_465
S78 Sb18 2.901057 1_455
S79 Sb22 2.469655 1_555
S80 Sb0 2.469655 1_555
S82 Sb26 2.446033 1_545
S83 Sb20 2.594830 1_555
S83 Sb5 2.752729 1_555
S84 Sb8 2.460027 1_545
S85 Sb4 2.478157 1_555
S86 Sb2 2.505392 1_555
S87 Sb7 2.450621 1_555
S87 Sb3 3.073682 1_554
S87 Sb1 3.167691 1_555
