# generated using pymatgen
data_Ni2Mo4N
_symmetry_space_group_name_H-M   'P 1'
_cell_length_a   7.97156123
_cell_length_b   7.97156123
_cell_length_c   7.97156123
_cell_angle_alpha   60.00000000
_cell_angle_beta   60.00000000
_cell_angle_gamma   60.00000000
_symmetry_Int_Tables_number   1
_chemical_formula_structural   Ni2Mo4N
_chemical_formula_sum   'Ni8 Mo16 N4'
_cell_volume   358.19140498
_cell_formula_units_Z   4
loop_
 _symmetry_equiv_pos_site_id
 _symmetry_equiv_pos_as_xyz
  1  'x, y, z'
loop_
 _atom_site_type_symbol
 _atom_site_label
 _atom_site_symmetry_multiplicity
 _atom_site_fract_x
 _atom_site_fract_y
 _atom_site_fract_z
 _atom_site_occupancy
  Ni  Ni0  1  0.99584400  0.33471900  0.33471900  1
  Ni  Ni1  1  0.91528100  0.91528100  0.91528100  1
  Ni  Ni2  1  0.33471900  0.33471900  0.99584400  1
  Ni  Ni3  1  0.91528100  0.91528100  0.25415600  1
  Ni  Ni4  1  0.25415600  0.91528100  0.91528100  1
  Ni  Ni5  1  0.33471900  0.99584400  0.33471900  1
  Ni  Ni6  1  0.91528100  0.25415600  0.91528100  1
  Ni  Ni7  1  0.33471900  0.33471900  0.33471900  1
  Mo  Mo0  1  0.30531300  0.69468700  0.69468700  1
  Mo  Mo1  1  0.12500000  0.12500000  0.62500000  1
  Mo  Mo2  1  0.55531300  0.55531300  0.94468700  1
  Mo  Mo3  1  0.30531300  0.69468700  0.30531300  1
  Mo  Mo4  1  0.30531300  0.30531300  0.69468700  1
  Mo  Mo5  1  0.69468700  0.30531300  0.30531300  1
  Mo  Mo6  1  0.94468700  0.94468700  0.55531300  1
  Mo  Mo7  1  0.94468700  0.55531300  0.94468700  1
  Mo  Mo8  1  0.94468700  0.55531300  0.55531300  1
  Mo  Mo9  1  0.55531300  0.94468700  0.94468700  1
  Mo  Mo10  1  0.12500000  0.12500000  0.12500000  1
  Mo  Mo11  1  0.69468700  0.69468700  0.30531300  1
  Mo  Mo12  1  0.69468700  0.30531300  0.69468700  1
  Mo  Mo13  1  0.55531300  0.94468700  0.55531300  1
  Mo  Mo14  1  0.62500000  0.12500000  0.12500000  1
  Mo  Mo15  1  0.12500000  0.62500000  0.12500000  1
  N  N0  1  0.62500000  0.12500000  0.62500000  1
  N  N1  1  0.62500000  0.62500000  0.12500000  1
  N  N2  1  0.12500000  0.62500000  0.62500000  1
  N  N3  1  0.62500000  0.62500000  0.62500000  1
loop_
_geom_bond_atom_site_label_1
_geom_bond_atom_site_label_2
_geom_bond_distance
_geom_bond_site_symmetry_2
Ni0 Ni7 2.701363 1_655
Ni0 Ni2 2.701363 1_654
Ni0 Ni5 2.701363 1_645
Ni1 Ni4 2.701363 1_655
Ni1 Ni6 2.701363 1_565
Ni1 Ni3 2.701363 1_556
Ni2 Ni7 2.701363 1_556
Ni2 Ni5 2.701363 1_546
Ni3 Ni4 2.701363 1_654
Ni3 Ni6 2.701363 1_564
Ni4 Ni6 2.701363 1_465
Ni5 Ni7 2.701363 1_565
Mo0 N3 2.142149 1_555
Mo0 N2 2.142149 1_555
Mo0 Ni5 2.655869 1_555
Mo0 Ni2 2.655869 1_555
Mo0 Ni4 2.829986 1_555
Mo0 Ni1 2.829990 1_455
Mo1 Ni6 2.449930 1_455
Mo1 Ni5 2.449930 1_545
Mo1 Ni0 2.449930 1_455
Mo1 Ni4 2.449930 1_545
Mo1 Ni1 2.449934 1_445
Mo1 Ni7 2.449934 1_555
Mo2 N3 2.142149 1_555
Mo2 N1 2.142149 1_556
Mo2 Ni6 2.655869 1_555
Mo2 Ni4 2.655869 1_555
Mo2 Ni2 2.829986 1_555
Mo2 Ni7 2.829990 1_556
Mo3 N1 2.142149 1_555
Mo3 N2 2.142149 1_555
Mo3 Ni7 2.655866 1_555
Mo3 Ni5 2.655874 1_555
Mo3 Ni3 2.829993 1_455
Mo3 Ni4 2.829993 1_554
Mo4 N0 2.142149 1_555
Mo4 N2 2.142149 1_555
Mo4 Ni7 2.655866 1_555
Mo4 Ni2 2.655874 1_555
Mo4 Ni6 2.829993 1_455
Mo4 Ni4 2.829993 1_545
Mo5 N0 2.142149 1_555
Mo5 N1 2.142149 1_555
Mo5 Ni7 2.655866 1_555
Mo5 Ni0 2.655874 1_555
Mo5 Ni3 2.829993 1_545
Mo5 Ni6 2.829993 1_554
Mo6 N0 2.142149 1_565
Mo6 N2 2.142149 1_655
Mo6 Ni1 2.655866 1_555
Mo6 Ni3 2.655874 1_555
Mo6 Ni0 2.829993 1_565
Mo6 Ni5 2.829993 1_655
Mo7 N1 2.142149 1_556
Mo7 N2 2.142149 1_655
Mo7 Ni1 2.655866 1_555
Mo7 Ni6 2.655874 1_555
Mo7 Ni0 2.829993 1_556
Mo7 Ni2 2.829993 1_655
Mo8 N3 2.142149 1_555
Mo8 N2 2.142149 1_655
Mo8 Ni6 2.655869 1_555
Mo8 Ni3 2.655869 1_555
Mo8 Ni0 2.829986 1_555
Mo8 Ni7 2.829990 1_655
Mo9 N0 2.142149 1_565
Mo9 N1 2.142149 1_556
Mo9 Ni1 2.655866 1_555
Mo9 Ni4 2.655874 1_555
Mo9 Ni5 2.829993 1_556
Mo9 Ni2 2.829993 1_565
Mo10 Ni0 2.449936 1_455
Mo10 Ni6 2.449936 1_454
Mo10 Ni5 2.449936 1_545
Mo10 Ni3 2.449936 1_445
Mo10 Ni4 2.449936 1_544
Mo10 Ni2 2.449936 1_554
Mo11 N3 2.142149 1_555
Mo11 N1 2.142149 1_555
Mo11 Ni5 2.655869 1_555
Mo11 Ni0 2.655869 1_555
Mo11 Ni3 2.829986 1_555
Mo11 Ni1 2.829990 1_554
Mo12 N3 2.142149 1_555
Mo12 N0 2.142149 1_555
Mo12 Ni2 2.655869 1_555
Mo12 Ni0 2.655869 1_555
Mo12 Ni6 2.829986 1_555
Mo12 Ni1 2.829990 1_545
Mo13 N0 2.142149 1_565
Mo13 N3 2.142149 1_555
Mo13 Ni4 2.655869 1_555
Mo13 Ni3 2.655869 1_555
Mo13 Ni5 2.829986 1_555
Mo13 Ni7 2.829990 1_565
Mo14 Ni3 2.449930 1_545
Mo14 Ni5 2.449930 1_545
Mo14 Ni2 2.449930 1_554
Mo14 Ni6 2.449930 1_554
Mo14 Ni7 2.449934 1_555
Mo14 Ni1 2.449934 1_544
Mo15 Ni4 2.449930 1_554
Mo15 Ni3 2.449930 1_455
Mo15 Ni0 2.449930 1_455
Mo15 Ni2 2.449930 1_554
Mo15 Ni7 2.449934 1_555
Mo15 Ni1 2.449934 1_454
