# generated using pymatgen
data_Eu(MgH3)2
_symmetry_space_group_name_H-M   'P 1'
_cell_length_a   3.72759166
_cell_length_b   3.72759382
_cell_length_c   7.96996027
_cell_angle_alpha   90.00082094
_cell_angle_beta   89.99978989
_cell_angle_gamma   90.00015586
_symmetry_Int_Tables_number   1
_chemical_formula_structural   Eu(MgH3)2
_chemical_formula_sum   'Eu1 Mg2 H6'
_cell_volume   110.74218060
_cell_formula_units_Z   1
loop_
 _symmetry_equiv_pos_site_id
 _symmetry_equiv_pos_as_xyz
  1  'x, y, z'
loop_
 _atom_site_type_symbol
 _atom_site_label
 _atom_site_symmetry_multiplicity
 _atom_site_fract_x
 _atom_site_fract_y
 _atom_site_fract_z
 _atom_site_occupancy
  Eu  Eu0  1  0.99999923  0.00000276  -0.00000225  1
  Mg  Mg0  1  0.50000967  0.49997028  0.72632755  1
  Mg  Mg1  1  0.49998714  0.50003754  0.27366757  1
  H  H0  1  0.50000520  0.99998284  0.79189876  1
  H  H1  1  0.00000642  0.49998540  0.79189875  1
  H  H2  1  0.49999332  0.00001835  0.20810747  1
  H  H3  1  0.99999348  0.50001908  0.20810735  1
  H  H4  1  0.50000193  0.49999451  0.00000060  1
  H  H5  1  0.50000362  0.49998824  0.49999719  1
loop_
_geom_bond_atom_site_label_1
_geom_bond_atom_site_label_2
_geom_bond_distance
_geom_bond_site_symmetry_2
Eu0 H1 2.494863 1_654
Eu0 H0 2.494881 1_544
Eu0 H0 2.494905 1_644
Eu0 H3 2.494923 1_545
Eu0 H1 2.494925 1_644
Eu0 H2 2.494938 1_655
Eu0 H2 2.494962 1_555
Eu0 H3 2.494978 1_555
Eu0 H4 2.635781 1_555
Eu0 H4 2.635788 1_655
Eu0 H4 2.635817 1_545
Eu0 H4 2.635839 1_645
H0 Mg0 1.935640 1_565
H0 Mg0 1.935716 1_555
H1 Mg0 1.935667 1_455
H1 Mg0 1.935687 1_555
H2 Mg1 1.935593 1_545
H2 Mg1 1.935716 1_555
H3 Mg1 1.935632 1_655
H3 Mg1 1.935674 1_555
H4 Mg1 2.181115 1_555
H4 Mg0 2.181163 1_554
H5 Mg1 1.803838 1_555
H5 Mg0 1.803844 1_555
