# generated using pymatgen
data_Te2S4(NCl3)3
_symmetry_space_group_name_H-M   'P 1'
_cell_length_a   9.51350100
_cell_length_b   10.26073801
_cell_length_c   11.50778987
_cell_angle_alpha   83.09250091
_cell_angle_beta   69.93849970
_cell_angle_gamma   75.64042574
_symmetry_Int_Tables_number   1
_chemical_formula_structural   Te2S4(NCl3)3
_chemical_formula_sum   'Te4 S8 N6 Cl18'
_cell_volume   1021.45017075
_cell_formula_units_Z   2
loop_
 _symmetry_equiv_pos_site_id
 _symmetry_equiv_pos_as_xyz
  1  'x, y, z'
loop_
 _atom_site_type_symbol
 _atom_site_label
 _atom_site_symmetry_multiplicity
 _atom_site_fract_x
 _atom_site_fract_y
 _atom_site_fract_z
 _atom_site_occupancy
  Te  Te0  1  0.37119400  0.83864300  0.05592800  1
  Te  Te1  1  0.51757300  0.70329700  0.42595200  1
  Te  Te2  1  0.62880600  0.16135700  0.94407200  1
  Te  Te3  1  0.48242700  0.29670300  0.57404800  1
  S  S0  1  0.05029400  0.75813700  0.81127300  1
  S  S1  1  0.05616600  0.20565800  0.40702600  1
  S  S2  1  0.85634300  0.53156900  0.69019400  1
  S  S3  1  0.06385400  0.49568000  0.15568800  1
  S  S4  1  0.93614600  0.50432000  0.84431300  1
  S  S5  1  0.14365700  0.46843100  0.30980600  1
  S  S6  1  0.94970600  0.24186300  0.18872700  1
  S  S7  1  0.94383400  0.79434200  0.59297400  1
  N  N0  1  0.11783500  0.33652700  0.38798500  1
  N  N1  1  0.98635500  0.17788100  0.30918300  1
  N  N2  1  0.99399300  0.37924200  0.13810600  1
  N  N3  1  0.88216500  0.66347300  0.61201500  1
  N  N4  1  0.01364500  0.82211900  0.69081700  1
  N  N5  1  0.00600700  0.62075800  0.86189400  1
  Cl  Cl0  1  0.56473900  0.65351400  0.17581700  1
  Cl  Cl1  1  0.33185900  0.90479400  0.40279500  1
  Cl  Cl2  1  0.71464800  0.46348000  0.46247000  1
  Cl  Cl3  1  0.38812300  0.64718200  0.95288800  1
  Cl  Cl4  1  0.28535200  0.53652000  0.53753000  1
  Cl  Cl5  1  0.87182000  0.20441200  0.78312500  1
  Cl  Cl6  1  0.62006300  0.87295700  0.87982100  1
  Cl  Cl7  1  0.43526100  0.34648600  0.82418300  1
  Cl  Cl8  1  0.26626200  0.19605200  0.65390900  1
  Cl  Cl9  1  0.37993700  0.12704300  0.12017900  1
  Cl  Cl10  1  0.12818000  0.79558800  0.21687500  1
  Cl  Cl11  1  0.73373800  0.80394800  0.34609100  1
  Cl  Cl12  1  0.61187700  0.35281800  0.04711200  1
  Cl  Cl13  1  0.22126400  0.98271200  0.94083600  1
  Cl  Cl14  1  0.52728300  0.24206200  0.36523000  1
  Cl  Cl15  1  0.47271700  0.75793800  0.63477000  1
  Cl  Cl16  1  0.66814100  0.09520600  0.59720500  1
  Cl  Cl17  1  0.77873600  0.01728800  0.05916400  1
loop_
_geom_bond_atom_site_label_1
_geom_bond_atom_site_label_2
_geom_bond_distance
_geom_bond_site_symmetry_2
N0 S5 1.556257 1_555
N0 S1 1.557934 1_555
N1 S6 1.572644 1_555
N1 S1 1.572964 1_655
N2 S6 1.559663 1_555
N2 S3 1.566628 1_655
N3 S2 1.556257 1_555
N3 S7 1.557934 1_555
N4 S0 1.572644 1_555
N4 S7 1.572964 1_455
N5 S0 1.559663 1_555
N5 S4 1.566624 1_455
Cl0 Te1 2.846383 1_555
Cl0 Te0 2.877448 1_555
Cl1 Te1 2.417804 1_555
Cl2 Te1 2.783927 1_555
Cl2 Te3 2.976301 1_555
Cl3 Te0 2.358753 1_556
Cl4 Te3 2.783927 1_555
Cl4 Te1 2.976301 1_555
Cl5 Te2 2.518461 1_555
Cl6 Te0 2.605127 1_556
Cl7 Te3 2.846383 1_555
Cl7 Te2 2.877448 1_555
Cl8 Te3 2.380936 1_555
Cl9 Te2 2.605127 1_554
Cl10 Te0 2.518461 1_555
Cl11 Te1 2.380936 1_555
Cl12 Te2 2.358753 1_554
Cl13 Te0 2.398581 1_556
Cl14 Te3 2.402681 1_555
Cl15 Te1 2.402681 1_555
Cl16 Te3 2.417804 1_555
Cl17 Te2 2.398581 1_554
