# generated using pymatgen
data_Al6Bi24Cl23
_symmetry_space_group_name_H-M   'P 1'
_cell_length_a   16.74752369
_cell_length_b   16.86644452
_cell_length_c   18.81898857
_cell_angle_alpha   90.67339468
_cell_angle_beta   87.96432283
_cell_angle_gamma   113.67942665
_symmetry_Int_Tables_number   1
_chemical_formula_structural   Al6Bi24Cl23
_chemical_formula_sum   'Al12 Bi48 Cl46'
_cell_volume   4865.17546822
_cell_formula_units_Z   2
loop_
 _symmetry_equiv_pos_site_id
 _symmetry_equiv_pos_as_xyz
  1  'x, y, z'
loop_
 _atom_site_type_symbol
 _atom_site_label
 _atom_site_symmetry_multiplicity
 _atom_site_fract_x
 _atom_site_fract_y
 _atom_site_fract_z
 _atom_site_occupancy
  Al  Al0  1  0.31898695  0.74278769  0.96034588  1
  Al  Al1  1  0.36744107  0.62874532  0.10097808  1
  Al  Al2  1  0.31583841  0.68913514  0.49321089  1
  Al  Al3  1  0.39613099  0.34495958  0.25778358  1
  Al  Al4  1  0.63319712  0.66069597  0.75041213  1
  Al  Al5  1  0.74837972  0.42750491  0.45697837  1
  Al  Al6  1  0.62956641  0.30785725  0.57998132  1
  Al  Al7  1  0.76209840  0.42089997  0.04704609  1
  Al  Al8  1  0.93729870  0.93580710  0.54241843  1
  Al  Al9  1  0.92761020  0.94185937  0.95311196  1
  Al  Al10  1  0.67060869  0.28158181  0.90696584  1
  Al  Al11  1  0.75314115  0.11510763  0.24905685  1
  Bi  Bi0  1  0.07587897  0.71749771  0.62775718  1
  Bi  Bi1  1  0.06238044  0.77788943  0.86752247  1
  Bi  Bi2  1  0.14684314  0.98814085  0.25017811  1
  Bi  Bi3  1  0.17529559  0.72098566  0.76333294  1
  Bi  Bi4  1  0.20009721  0.84894480  0.16616030  1
  Bi  Bi5  1  0.19613567  0.84493949  0.32902076  1
  Bi  Bi6  1  0.01097335  0.44639102  0.15661821  1
  Bi  Bi7  1  0.00276013  0.45003197  0.32499293  1
  Bi  Bi8  1  0.06178076  0.18978195  0.24607364  1
  Bi  Bi9  1  0.39814632  0.92964858  0.32839522  1
  Bi  Bi10  1  0.40293210  0.93559359  0.16160759  1
  Bi  Bi11  1  0.15378930  0.37738153  0.16249909  1
  Bi  Bi12  1  0.14441582  0.37989403  0.32760048  1
  Bi  Bi13  1  0.55538733  0.86839951  0.76195104  1
  Bi  Bi14  1  0.24607434  0.43839161  0.74794593  1
  Bi  Bi15  1  0.21099979  0.30457115  0.86921766  1
  Bi  Bi16  1  0.22521027  0.29449866  0.63830184  1
  Bi  Bi17  1  0.18200907  0.15762732  0.75824383  1
  Bi  Bi18  1  0.69179781  0.96974565  0.87323418  1
  Bi  Bi19  1  0.69541954  0.93669832  0.64072267  1
  Bi  Bi20  1  0.68969248  0.82700801  0.33003729  1
  Bi  Bi21  1  0.68882208  0.82248840  0.16683146  1
  Bi  Bi22  1  0.53689923  0.64163163  0.17397569  1
  Bi  Bi23  1  0.54271508  0.64264336  0.33649516  1
  Bi  Bi24  1  0.41156115  0.42204370  0.67144946  1
  Bi  Bi25  1  0.40513401  0.43044346  0.83545422  1
  Bi  Bi26  1  0.35648749  0.23144582  0.84376625  1
  Bi  Bi27  1  0.36512191  0.21493103  0.68159920  1
  Bi  Bi28  1  0.29138252  0.04343185  0.36348198  1
  Bi  Bi29  1  0.29651419  0.04855001  0.13352598  1
  Bi  Bi30  1  0.85649203  0.79226784  0.24508639  1
  Bi  Bi31  1  0.74315825  0.67543593  0.36432915  1
  Bi  Bi32  1  0.74184932  0.66967773  0.13356787  1
  Bi  Bi33  1  0.63692550  0.53973987  0.25232700  1
  Bi  Bi34  1  0.43647519  0.10661640  0.24691119  1
  Bi  Bi35  1  0.87718592  0.61658852  0.67289046  1
  Bi  Bi36  1  0.89254484  0.62063386  0.83504705  1
  Bi  Bi37  1  0.55043870  0.04170802  0.82822790  1
  Bi  Bi38  1  0.55468309  0.02064060  0.66679820  1
  Bi  Bi39  1  0.98083897  0.80170916  0.72396347  1
  Bi  Bi40  1  0.00180205  0.51670162  0.71103031  1
  Bi  Bi41  1  0.05786799  0.57968133  0.86910734  1
  Bi  Bi42  1  0.75573982  0.13847805  0.66090789  1
  Bi  Bi43  1  0.74460949  0.16897016  0.82371557  1
  Bi  Bi44  1  0.85187419  0.30483500  0.23972042  1
  Bi  Bi45  1  0.83078899  0.03339905  0.75160938  1
  Bi  Bi46  1  0.96638519  0.25028431  0.12628043  1
  Bi  Bi47  1  0.95301025  0.25457579  0.36034449  1
  Cl  Cl0  1  0.29431637  0.85572045  0.94191905  1
  Cl  Cl1  1  0.30380760  0.74835462  0.59373451  1
  Cl  Cl2  1  0.19800405  0.66168794  0.43492485  1
  Cl  Cl3  1  0.21987098  0.65775026  0.03533699  1
  Cl  Cl4  1  0.12430685  0.48844652  0.63960841  1
  Cl  Cl5  1  0.09375763  0.43450999  0.85739509  1
  Cl  Cl6  1  0.32833111  0.68038211  0.86286920  1
  Cl  Cl7  1  0.05393808  0.06964977  0.34540174  1
  Cl  Cl8  1  0.43977259  0.77355593  0.01768294  1
  Cl  Cl9  1  0.42704160  0.78311092  0.43321655  1
  Cl  Cl10  1  0.34796915  0.52788022  0.02146031  1
  Cl  Cl11  1  0.33963102  0.57450058  0.50549599  1
  Cl  Cl12  1  0.36076836  0.45664191  0.26190372  1
  Cl  Cl13  1  0.27574013  0.23095736  0.26607276  1
  Cl  Cl14  1  0.56135573  0.64050871  0.85063439  1
  Cl  Cl15  1  0.55371146  0.67284040  0.66707161  1
  Cl  Cl16  1  0.47148308  0.34465228  0.34789730  1
  Cl  Cl17  1  0.46185433  0.34326417  0.15866704  1
  Cl  Cl18  1  0.75302962  0.77405296  0.75589203  1
  Cl  Cl19  1  0.66347220  0.54831407  0.72840878  1
  Cl  Cl20  1  0.39978746  0.07226521  0.73442811  1
  Cl  Cl21  1  0.79939598  0.83848164  0.95188776  1
  Cl  Cl22  1  0.81519744  0.82342694  0.55216674  1
  Cl  Cl23  1  0.63393581  0.42940909  0.52438676  1
  Cl  Cl24  1  0.67508267  0.42651132  0.96408724  1
  Cl  Cl25  1  0.52968522  0.19928584  0.53751836  1
  Cl  Cl26  1  0.54288160  0.20306667  0.95771122  1
  Cl  Cl27  1  0.63994504  0.32625293  0.68926787  1
  Cl  Cl28  1  0.70018791  0.38964875  0.14964153  1
  Cl  Cl29  1  0.70730258  0.37693866  0.35650994  1
  Cl  Cl30  1  0.98139191  0.97046031  0.84366934  1
  Cl  Cl31  1  0.01237526  0.89840582  0.00954457  1
  Cl  Cl32  1  0.02940632  0.90089402  0.48261885  1
  Cl  Cl33  1  0.99083571  0.73907447  0.24975962  1
  Cl  Cl34  1  0.87443789  0.54102258  0.04531555  1
  Cl  Cl35  1  0.85703321  0.54502276  0.46721829  1
  Cl  Cl36  1  0.79100258  0.31219770  0.00920176  1
  Cl  Cl37  1  0.76006517  0.32418532  0.52684653  1
  Cl  Cl38  1  0.68347307  0.11394216  0.34635564  1
  Cl  Cl39  1  0.68010120  0.10288350  0.15636499  1
  Cl  Cl40  1  0.87910368  0.35944133  0.71441535  1
  Cl  Cl41  1  0.82504997  0.03596964  0.24955234  1
  Cl  Cl42  1  0.91745448  0.05776138  0.99261200  1
  Cl  Cl43  1  0.91284690  0.04427104  0.50771411  1
  Cl  Cl44  1  0.07237314  0.07509570  0.14581063  1
  Cl  Cl45  1  0.99086617  0.97174598  0.64965399  1
loop_
_geom_bond_atom_site_label_1
_geom_bond_atom_site_label_2
_geom_bond_distance
_geom_bond_site_symmetry_2
Al0 Cl6 2.136345 1_555
Al0 Cl0 2.139387 1_555
Al0 Cl3 2.184721 1_556
Al0 Cl8 2.196421 1_556
Al1 Cl10 2.183827 1_555
Al1 Cl8 2.732880 1_555
Al1 Bi22 3.124607 1_555
Al2 Cl11 2.141600 1_555
Al2 Cl1 2.169592 1_555
Al2 Cl2 2.172541 1_555
Al2 Cl9 2.185654 1_555
Al3 Cl17 2.137704 1_555
Al3 Cl16 2.150808 1_555
Al3 Cl13 2.158114 1_555
Al3 Cl12 2.189613 1_555
Al4 Cl18 2.149827 1_555
Al4 Cl14 2.155380 1_555
Al4 Cl15 2.156095 1_555
Al4 Cl19 2.181744 1_555
Al5 Cl29 2.087744 1_555
Al5 Cl35 2.096647 1_555
Al5 Cl37 2.269355 1_555
Al5 Cl23 2.271470 1_555
Al6 Cl27 2.079283 1_555
Al6 Cl25 2.095270 1_555
Al6 Cl37 2.284739 1_555
Al6 Cl23 2.286381 1_555
Al7 Cl28 2.126820 1_555
Al7 Cl34 2.140329 1_555
Al7 Cl36 2.181897 1_555
Al7 Cl24 2.201345 1_554
Al8 Cl32 2.140903 1_655
Al8 Cl43 2.142376 1_565
Al8 Cl22 2.162443 1_555
Al8 Cl45 2.215381 1_555
Al9 Cl42 2.151019 1_565
Al9 Cl31 2.154392 1_656
Al9 Cl21 2.155628 1_555
Al9 Cl30 2.197382 1_555
Al10 Cl26 2.202428 1_555
Al10 Cl24 2.633120 1_555
Al10 Cl36 2.729420 1_556
Al10 Bi43 3.046455 1_555
Al11 Cl39 2.126545 1_555
Al11 Cl41 2.127042 1_555
Al11 Cl38 2.131942 1_555
Al11 Bi44 2.957630 1_555
Bi0 Bi39 3.062600 1_455
Bi0 Bi3 3.082994 1_555
Bi0 Bi35 3.158354 1_455
Bi0 Bi40 3.475135 1_555
Bi1 Bi36 3.086144 1_455
Bi2 Cl7 2.997394 1_565
Bi2 Cl44 3.045502 1_565
Bi2 Bi29 3.122612 1_565
Bi2 Bi28 3.127714 1_565
Bi2 Bi4 3.209636 1_555
Bi2 Bi5 3.238745 1_555
Bi4 Bi5 3.064182 1_555
Bi5 Bi9 3.098758 1_555
Bi6 Bi7 3.167685 1_555
Bi8 Cl7 2.733986 1_555
Bi8 Cl44 2.738509 1_555
Bi10 Bi4 3.110827 1_555
Bi10 Bi9 3.138703 1_555
Bi10 Bi34 3.141161 1_565
Bi10 Bi29 3.146947 1_565
Bi11 Bi6 3.057088 1_555
Bi11 Bi46 3.102236 1_455
Bi11 Bi12 3.106081 1_555
Bi11 Bi8 3.299747 1_555
Bi12 Bi7 3.048597 1_555
Bi12 Bi47 3.093691 1_455
Bi12 Bi8 3.319894 1_555
Bi13 Bi19 3.089235 1_555
Bi13 Bi18 3.105779 1_555
Bi13 Bi38 3.151825 1_565
Bi13 Bi37 3.195088 1_565
Bi14 Bi16 3.085800 1_555
Bi14 Bi15 3.099808 1_555
Bi14 Bi24 3.186010 1_555
Bi14 Cl5 3.201519 1_555
Bi14 Bi25 3.229520 1_555
Bi14 Cl4 3.278260 1_555
Bi15 Bi17 3.118267 1_555
Bi15 Bi25 3.134049 1_555
Bi15 Bi26 3.162987 1_555
Bi16 Bi24 3.077503 1_555
Bi16 Bi17 3.100409 1_555
Bi16 Bi27 3.262301 1_555
Bi17 Bi27 3.123602 1_555
Bi17 Bi26 3.169187 1_555
Bi18 Bi45 3.079258 1_565
Bi18 Bi37 3.204666 1_565
Bi18 Bi43 3.251083 1_565
Bi19 Bi45 3.072549 1_565
Bi19 Bi42 3.159527 1_565
Bi19 Bi38 3.222210 1_565
Bi20 Bi21 3.071826 1_555
Bi20 Bi23 3.095594 1_555
Bi20 Bi31 3.110045 1_555
Bi20 Bi30 3.417328 1_555
Bi21 Bi22 3.089969 1_555
Bi21 Bi32 3.095884 1_555
Bi21 Bi30 3.431455 1_555
Bi22 Bi23 3.063088 1_555
Bi22 Bi33 3.237485 1_555
Bi22 Bi32 3.332008 1_555
Bi23 Bi33 3.157240 1_555
Bi23 Bi31 3.236663 1_555
Bi24 Bi25 3.088028 1_555
Bi24 Bi27 3.266044 1_555
Bi25 Bi26 3.124160 1_555
Bi26 Bi27 3.064820 1_555
Bi27 Cl20 2.887026 1_555
Bi28 Bi34 3.073929 1_555
Bi28 Bi5 3.147404 1_545
Bi28 Bi9 3.155735 1_545
Bi29 Bi34 3.077149 1_555
Bi29 Bi4 3.151241 1_545
Bi30 Cl33 2.740831 1_555
Bi30 Bi31 3.052604 1_555
Bi30 Bi32 3.059650 1_555
Bi31 Bi33 3.119054 1_555
Bi32 Bi33 3.102990 1_555
Bi34 Bi9 3.189248 1_545
Bi35 Bi36 3.069201 1_555
Bi36 Bi41 3.197903 1_655
Bi36 Bi39 3.491008 1_555
Bi38 Bi42 3.147004 1_555
Bi39 Cl45 3.146345 1_555
Bi40 Cl4 2.611006 1_555
Bi40 Cl40 2.622719 1_455
Bi41 Cl5 2.750485 1_555
Bi42 Bi45 3.105994 1_555
Bi42 Bi43 3.112229 1_555
Bi43 Bi45 3.404674 1_555
Bi44 Bi6 3.150811 1_655
Bi44 Bi46 3.187816 1_555
Bi44 Bi7 3.191094 1_655
Bi44 Bi47 3.195647 1_555
Bi46 Bi6 3.134629 1_655
Bi46 Bi8 3.208667 1_655
Bi47 Bi7 3.132188 1_655
Bi47 Bi8 3.225315 1_655
