# generated using pymatgen
data_Mn3SiNi2
_symmetry_space_group_name_H-M   'P 1'
_cell_length_a   7.55764637
_cell_length_b   7.55764637
_cell_length_c   7.55764637
_cell_angle_alpha   60.00000000
_cell_angle_beta   60.00000000
_cell_angle_gamma   60.00000000
_symmetry_Int_Tables_number   1
_chemical_formula_structural   Mn3SiNi2
_chemical_formula_sum   'Mn12 Si4 Ni8'
_cell_volume   305.24229035
_cell_formula_units_Z   4
loop_
 _symmetry_equiv_pos_site_id
 _symmetry_equiv_pos_as_xyz
  1  'x, y, z'
loop_
 _atom_site_type_symbol
 _atom_site_label
 _atom_site_symmetry_multiplicity
 _atom_site_fract_x
 _atom_site_fract_y
 _atom_site_fract_z
 _atom_site_occupancy
  Mn  Mn0  1  0.94053500  0.55946500  0.55946500  1
  Mn  Mn1  1  0.69053500  0.30946500  0.30946500  1
  Mn  Mn2  1  0.69053500  0.69053500  0.30946500  1
  Mn  Mn3  1  0.69053500  0.30946500  0.69053500  1
  Mn  Mn4  1  0.55946500  0.94053500  0.55946500  1
  Mn  Mn5  1  0.55946500  0.94053500  0.94053500  1
  Mn  Mn6  1  0.30946500  0.69053500  0.30946500  1
  Mn  Mn7  1  0.30946500  0.69053500  0.69053500  1
  Mn  Mn8  1  0.94053500  0.94053500  0.55946500  1
  Mn  Mn9  1  0.94053500  0.55946500  0.94053500  1
  Mn  Mn10  1  0.55946500  0.55946500  0.94053500  1
  Mn  Mn11  1  0.30946500  0.30946500  0.69053500  1
  Si  Si0  1  0.12500000  0.12500000  0.12500000  1
  Si  Si1  1  0.12500000  0.12500000  0.62500000  1
  Si  Si2  1  0.12500000  0.62500000  0.12500000  1
  Si  Si3  1  0.62500000  0.12500000  0.12500000  1
  Ni  Ni0  1  0.33607100  0.99178800  0.33607100  1
  Ni  Ni1  1  0.33607100  0.33607100  0.99178800  1
  Ni  Ni2  1  0.91392900  0.25821200  0.91392900  1
  Ni  Ni3  1  0.91392900  0.91392900  0.25821200  1
  Ni  Ni4  1  0.99178800  0.33607100  0.33607100  1
  Ni  Ni5  1  0.91392900  0.91392900  0.91392900  1
  Ni  Ni6  1  0.25821200  0.91392900  0.91392900  1
  Ni  Ni7  1  0.33607100  0.33607100  0.33607100  1
loop_
_geom_bond_atom_site_label_1
_geom_bond_atom_site_label_2
_geom_bond_distance
_geom_bond_site_symmetry_2
Mn0 Ni2 2.494102 1_555
Mn0 Ni3 2.494102 1_555
Mn0 Ni4 2.719097 1_555
Mn0 Ni7 2.719100 1_655
Mn0 Si2 2.730755 1_655
Mn0 Si1 2.730755 1_655
Mn0 Mn11 2.819158 1_655
Mn0 Mn6 2.819158 1_655
Mn0 Mn3 2.819158 1_555
Mn0 Mn2 2.819158 1_555
Mn0 Mn9 2.879992 1_555
Mn0 Mn10 2.879992 1_555
Mn0 Mn4 2.879992 1_555
Mn0 Mn8 2.879992 1_555
Mn1 Ni7 2.494099 1_555
Mn1 Ni4 2.494107 1_555
Mn1 Ni3 2.719103 1_545
Mn1 Ni2 2.719103 1_554
Mn1 Si3 2.730755 1_555
Mn1 Si0 2.730755 1_655
Mn1 Mn8 2.819158 1_545
Mn1 Mn10 2.819158 1_554
Mn1 Mn9 2.819158 1_554
Mn1 Mn4 2.819158 1_545
Mn1 Mn6 2.879992 1_555
Mn1 Mn3 2.879992 1_555
Mn1 Mn11 2.879992 1_555
Mn1 Mn2 2.879992 1_555
Mn2 Ni0 2.494102 1_555
Mn2 Ni4 2.494102 1_555
Mn2 Ni3 2.719097 1_555
Mn2 Ni5 2.719100 1_554
Mn2 Si3 2.730755 1_565
Mn2 Si2 2.730755 1_655
Mn2 Mn5 2.819158 1_554
Mn2 Mn4 2.819158 1_555
Mn2 Mn9 2.819158 1_554
Mn2 Mn6 2.879992 1_555
Mn2 Mn3 2.879992 1_555
Mn2 Mn7 2.879992 1_555
Mn3 Ni1 2.494102 1_555
Mn3 Ni4 2.494102 1_555
Mn3 Ni2 2.719097 1_555
Mn3 Ni5 2.719100 1_545
Mn3 Si1 2.730755 1_655
Mn3 Si3 2.730755 1_556
Mn3 Mn8 2.819158 1_545
Mn3 Mn5 2.819158 1_545
Mn3 Mn7 2.879992 1_555
Mn4 Ni3 2.494102 1_555
Mn4 Ni6 2.494102 1_555
Mn4 Ni0 2.719097 1_555
Mn4 Ni7 2.719100 1_565
Mn4 Si3 2.730755 1_565
Mn4 Si1 2.730755 1_565
Mn4 Mn7 2.819158 1_555
Mn4 Mn5 2.879992 1_555
Mn4 Mn8 2.879992 1_555
Mn5 Ni5 2.494099 1_555
Mn5 Ni6 2.494107 1_555
Mn5 Ni0 2.719103 1_556
Mn5 Ni1 2.719103 1_565
Mn5 Si3 2.730755 1_566
Mn5 Si0 2.730755 1_566
Mn5 Mn6 2.819158 1_556
Mn5 Mn9 2.879992 1_555
Mn5 Mn8 2.879992 1_555
Mn6 Ni7 2.494099 1_555
Mn6 Ni0 2.494107 1_555
Mn6 Ni3 2.719103 1_455
Mn6 Ni6 2.719103 1_554
Mn6 Si2 2.730755 1_555
Mn6 Si0 2.730755 1_565
Mn6 Mn8 2.819158 1_455
Mn6 Mn7 2.879992 1_555
Mn7 Ni1 2.494102 1_555
Mn7 Ni0 2.494102 1_555
Mn7 Ni6 2.719097 1_555
Mn7 Ni5 2.719100 1_455
Mn7 Si2 2.730755 1_556
Mn7 Si1 2.730755 1_565
Mn7 Mn9 2.819158 1_455
Mn7 Mn8 2.819158 1_455
Mn8 Ni5 2.494099 1_555
Mn8 Ni3 2.494107 1_555
Mn8 Ni4 2.719103 1_565
Mn8 Ni0 2.719103 1_655
Mn8 Si0 2.730755 1_665
Mn8 Si1 2.730755 1_665
Mn8 Mn9 2.879992 1_555
Mn9 Ni5 2.494099 1_555
Mn9 Ni2 2.494107 1_555
Mn9 Ni1 2.719103 1_655
Mn9 Ni4 2.719103 1_556
Mn9 Si2 2.730755 1_656
Mn9 Si0 2.730755 1_656
Mn10 Ni2 2.494102 1_555
Mn10 Ni6 2.494102 1_555
Mn10 Ni1 2.719097 1_555
Mn10 Ni7 2.719100 1_556
Mn10 Si3 2.730755 1_556
Mn10 Si2 2.730755 1_556
Mn10 Mn6 2.819158 1_556
Mn10 Mn3 2.819158 1_555
Mn10 Mn7 2.819158 1_555
Mn10 Mn9 2.879992 1_555
Mn10 Mn4 2.879992 1_555
Mn10 Mn5 2.879992 1_555
Mn11 Ni7 2.494099 1_555
Mn11 Ni1 2.494107 1_555
Mn11 Ni2 2.719103 1_455
Mn11 Ni6 2.719103 1_545
Mn11 Si1 2.730755 1_555
Mn11 Si0 2.730755 1_556
Mn11 Mn9 2.819158 1_455
Mn11 Mn5 2.819158 1_545
Mn11 Mn4 2.819158 1_545
Mn11 Mn6 2.879992 1_555
Mn11 Mn3 2.879992 1_555
Mn11 Mn7 2.879992 1_555
Ni0 Si3 2.331426 1_565
Ni0 Si1 2.331426 1_565
Ni0 Si0 2.331432 1_565
Ni0 Ni1 2.601969 1_564
Ni0 Ni4 2.601969 1_465
Ni0 Ni7 2.601969 1_565
Ni1 Si3 2.331426 1_556
Ni1 Si2 2.331426 1_556
Ni1 Si0 2.331432 1_556
Ni1 Ni4 2.601969 1_456
Ni1 Ni7 2.601969 1_556
Ni2 Si3 2.331426 1_556
Ni2 Si1 2.331426 1_655
Ni2 Si0 2.331432 1_656
Ni2 Ni6 2.601969 1_645
Ni2 Ni3 2.601969 1_546
Ni2 Ni5 2.601969 1_545
Ni3 Si3 2.331426 1_565
Ni3 Si2 2.331426 1_655
Ni3 Si0 2.331432 1_665
Ni3 Ni6 2.601969 1_654
Ni3 Ni5 2.601969 1_554
Ni4 Si2 2.331426 1_655
Ni4 Si1 2.331426 1_655
Ni4 Si0 2.331432 1_655
Ni4 Ni7 2.601969 1_655
Ni5 Si1 2.331430 1_665
Ni5 Si3 2.331430 1_566
Ni5 Si2 2.331430 1_656
Ni5 Ni6 2.601969 1_655
Ni6 Si2 2.331426 1_556
Ni6 Si1 2.331426 1_565
Ni6 Si0 2.331432 1_566
Ni7 Si3 2.331430 1_555
Ni7 Si2 2.331430 1_555
Ni7 Si1 2.331430 1_555
