# generated using pymatgen
data_Al11NO15
_symmetry_space_group_name_H-M   'P 1'
_cell_length_a   5.63099700
_cell_length_b   5.69356996
_cell_length_c   7.95511727
_cell_angle_alpha   89.84751748
_cell_angle_beta   88.87595325
_cell_angle_gamma   89.75757575
_symmetry_Int_Tables_number   1
_chemical_formula_structural   Al11NO15
_chemical_formula_sum   'Al11 N1 O15'
_cell_volume   254.99263212
_cell_formula_units_Z   1
loop_
 _symmetry_equiv_pos_site_id
 _symmetry_equiv_pos_as_xyz
  1  'x, y, z'
loop_
 _atom_site_type_symbol
 _atom_site_label
 _atom_site_symmetry_multiplicity
 _atom_site_fract_x
 _atom_site_fract_y
 _atom_site_fract_z
 _atom_site_occupancy
  Al  Al0  1  0.01505700  0.99694100  0.99243900  1
  Al  Al1  1  0.99588400  0.50252000  0.25404300  1
  Al  Al2  1  0.50471800  0.49199900  0.49334100  1
  Al  Al3  1  0.48404300  0.00204800  0.75743700  1
  Al  Al4  1  0.74303600  0.00695900  0.37514400  1
  Al  Al5  1  0.51582900  0.25814100  0.12220400  1
  Al  Al6  1  0.25058700  0.49930300  0.87562900  1
  Al  Al7  1  0.51527200  0.74527200  0.11198000  1
  Al  Al8  1  0.98563800  0.74443400  0.63752300  1
  Al  Al9  1  0.25610300  0.00683600  0.37458600  1
  Al  Al10  1  0.98468200  0.25681200  0.63749500  1
  N  N0  1  0.49863500  0.22964200  0.36393500  1
  O  O0  1  0.00038600  0.77300600  0.38354500  1
  O  O1  1  0.75936800  0.99952200  0.62340700  1
  O  O2  1  0.99999200  0.23175800  0.38277700  1
  O  O3  1  0.02048900  0.25226400  0.86514100  1
  O  O4  1  0.47995800  0.25229500  0.88890900  1
  O  O5  1  0.26229000  0.50344900  0.11921000  1
  O  O6  1  0.73476200  0.50520200  0.13650400  1
  O  O7  1  0.77280500  0.50259400  0.60889200  1
  O  O8  1  0.01965300  0.74451800  0.86443100  1
  O  O9  1  0.48006500  0.74622700  0.88324500  1
  O  O10  1  0.49963400  0.76441400  0.36701000  1
  O  O11  1  0.22677700  0.99742500  0.61465200  1
  O  O12  1  0.74500000  0.99482900  0.12612300  1
  O  O13  1  0.26519900  0.99123500  0.13510500  1
  O  O14  1  0.23413800  0.50035500  0.63029300  1
loop_
_geom_bond_atom_site_label_1
_geom_bond_atom_site_label_2
_geom_bond_distance
_geom_bond_site_symmetry_2
Al0 O8 1.763404 1_555
Al0 O3 1.769464 1_565
Al0 O13 1.826268 1_556
Al0 O12 1.838546 1_456
Al1 O6 1.757900 1_555
Al1 O5 1.826972 1_655
Al1 O2 1.848801 1_555
Al1 O0 1.855655 1_655
Al2 O7 1.784096 1_555
Al2 N0 1.817197 1_555
Al2 O10 1.846321 1_555
Al2 O14 1.856127 1_555
Al3 O9 1.765012 1_545
Al3 O4 1.769504 1_555
Al3 O11 1.858646 1_545
Al3 O1 1.864317 1_545
Al4 N0 1.870523 1_555
Al4 O2 1.937772 1_555
Al4 O10 1.951847 1_545
Al4 O0 1.966152 1_645
Al4 O1 1.979235 1_545
Al4 O12 1.982191 1_545
Al5 O4 1.871183 1_554
Al5 O6 1.879490 1_555
Al5 N0 1.929972 1_555
Al5 O12 1.974532 1_545
Al5 O5 1.993445 1_555
Al5 O13 2.079244 1_545
Al6 O8 1.907013 1_555
Al6 O4 1.909553 1_555
Al6 O9 1.915416 1_555
Al6 O3 1.919473 1_555
Al6 O5 1.940337 1_556
Al6 O14 1.955680 1_555
Al7 O9 1.834235 1_554
Al7 O6 1.851396 1_555
Al7 O12 1.930554 1_555
Al7 O5 1.985262 1_555
Al7 O13 1.988069 1_555
Al7 O10 2.032172 1_555
Al8 O8 1.818948 1_655
Al8 O7 1.846747 1_555
Al8 O1 1.932472 1_555
Al8 O14 1.968091 1_655
Al8 O11 1.989258 1_655
Al8 O0 2.026637 1_655
Al9 N0 1.868450 1_555
Al9 O13 1.907079 1_545
Al9 O11 1.914277 1_545
Al9 O2 1.924879 1_455
Al9 O10 1.941757 1_545
Al9 O0 1.965359 1_545
Al10 O3 1.826171 1_655
Al10 O7 1.851566 1_555
Al10 O1 1.946889 1_545
Al10 O14 1.977895 1_655
Al10 O11 2.011755 1_645
Al10 O2 2.031822 1_555
