# generated using pymatgen
data_CaCO3
_symmetry_space_group_name_H-M   'P 1'
_cell_length_a   3.63301700
_cell_length_b   7.76828000
_cell_length_c   10.85871500
_cell_angle_alpha   90.00000000
_cell_angle_beta   90.00000000
_cell_angle_gamma   90.00000000
_symmetry_Int_Tables_number   1
_chemical_formula_structural   CaCO3
_chemical_formula_sum   'Ca4 C4 O12'
_cell_volume   306.45783960
_cell_formula_units_Z   4
loop_
 _symmetry_equiv_pos_site_id
 _symmetry_equiv_pos_as_xyz
  1  'x, y, z'
loop_
 _atom_site_type_symbol
 _atom_site_label
 _atom_site_symmetry_multiplicity
 _atom_site_fract_x
 _atom_site_fract_y
 _atom_site_fract_z
 _atom_site_occupancy
  Ca  Ca0  1  0.50000000  0.50000000  0.00000000  1
  Ca  Ca1  1  0.00000000  0.00000000  0.00000000  1
  Ca  Ca2  1  0.00000000  0.00000000  0.50000000  1
  Ca  Ca3  1  0.50000000  0.50000000  0.50000000  1
  C  C0  1  0.14619400  0.29165100  0.75000000  1
  C  C1  1  0.85380600  0.70834900  0.25000000  1
  C  C2  1  0.64619400  0.20834900  0.25000000  1
  C  C3  1  0.35380600  0.79165100  0.75000000  1
  O  O0  1  0.98844100  0.28166500  0.01547800  1
  O  O1  1  0.99064400  0.16304400  0.75000000  1
  O  O2  1  0.00935600  0.83695600  0.25000000  1
  O  O3  1  0.98844100  0.28166500  0.48452200  1
  O  O4  1  0.48844100  0.21833500  0.98452200  1
  O  O5  1  0.51155900  0.78166500  0.48452200  1
  O  O6  1  0.01155900  0.71833500  0.98452200  1
  O  O7  1  0.48844100  0.21833500  0.51547800  1
  O  O8  1  0.51155900  0.78166500  0.01547800  1
  O  O9  1  0.01155900  0.71833500  0.51547800  1
  O  O10  1  0.49064400  0.33695600  0.25000000  1
  O  O11  1  0.50935600  0.66304400  0.75000000  1
loop_
_geom_bond_atom_site_label_1
_geom_bond_atom_site_label_2
_geom_bond_distance
_geom_bond_site_symmetry_2
Ca0 O4 2.194900 1_554
Ca0 O8 2.194900 1_555
Ca0 O6 2.460460 1_554
Ca0 O0 2.460460 1_555
Ca0 O6 2.521704 1_654
Ca0 O0 2.521704 1_455
Ca0 O11 2.995804 1_554
Ca0 O10 2.995804 1_555
Ca1 O0 2.194900 1_455
Ca1 O6 2.194900 1_544
Ca1 O8 2.460460 1_445
Ca1 O4 2.460460 1_554
Ca1 O8 2.521704 1_545
Ca1 O4 2.521704 1_454
Ca1 O2 2.995804 1_545
Ca1 O1 2.995804 1_454
Ca2 O3 2.194900 1_455
Ca2 O9 2.194900 1_545
Ca2 O5 2.460460 1_445
Ca2 O7 2.460460 1_555
Ca2 O7 2.521704 1_455
Ca2 O5 2.521704 1_545
Ca2 O2 2.995804 1_545
Ca2 O1 2.995804 1_455
Ca3 O7 2.194900 1_555
Ca3 O5 2.194900 1_555
Ca3 O9 2.460460 1_555
Ca3 O3 2.460460 1_555
Ca3 O3 2.521704 1_455
Ca3 O9 2.521704 1_655
Ca3 O11 2.995804 1_555
Ca3 O10 2.995804 1_555
C0 O1 1.147810 1_455
C1 O2 1.147810 1_655
C2 O10 1.147810 1_555
C3 O11 1.147810 1_555
O0 O4 1.911733 1_654
O0 O4 1.911733 1_554
O3 O7 1.911733 1_655
O3 O7 1.911733 1_555
O5 O9 1.911733 1_555
O5 O9 1.911733 1_655
O6 O8 1.911733 1_456
O6 O8 1.911733 1_556
