# generated using pymatgen
data_Mg2H6Ru
_symmetry_space_group_name_H-M   'P 1'
_cell_length_a   4.66344873
_cell_length_b   4.66344873
_cell_length_c   4.66344873
_cell_angle_alpha   60.00000000
_cell_angle_beta   60.00000000
_cell_angle_gamma   60.00000000
_symmetry_Int_Tables_number   1
_chemical_formula_structural   Mg2H6Ru
_chemical_formula_sum   'Mg2 H6 Ru1'
_cell_volume   71.71444163
_cell_formula_units_Z   1
loop_
 _symmetry_equiv_pos_site_id
 _symmetry_equiv_pos_as_xyz
  1  'x, y, z'
loop_
 _atom_site_type_symbol
 _atom_site_label
 _atom_site_symmetry_multiplicity
 _atom_site_fract_x
 _atom_site_fract_y
 _atom_site_fract_z
 _atom_site_occupancy
  Mg  Mg0  1  0.75000000  0.75000000  0.75000000  1
  Mg  Mg1  1  0.25000000  0.25000000  0.25000000  1
  H  H0  1  0.25304118  0.74695882  0.74695882  1
  H  H1  1  0.25304118  0.25304118  0.74695882  1
  H  H2  1  0.25304118  0.74695882  0.25304118  1
  H  H3  1  0.74695882  0.25304118  0.25304118  1
  H  H4  1  0.74695882  0.74695882  0.25304118  1
  H  H5  1  0.74695882  0.25304118  0.74695882  1
  Ru  Ru0  1  0.00000000  0.00000000  -0.00000000  1
loop_
_geom_bond_atom_site_label_1
_geom_bond_atom_site_label_2
_geom_bond_distance
_geom_bond_site_symmetry_2
H0 Ru0 1.668835 1_566
H0 Mg1 2.331811 1_556
H0 Mg0 2.331811 1_555
H0 Mg1 2.331811 1_565
H0 Mg0 2.331811 1_455
H1 Ru0 1.668835 1_556
H1 Mg1 2.331811 1_556
H1 Mg0 2.331811 1_545
H1 Mg1 2.331811 1_555
H1 Mg0 2.331811 1_455
H2 Ru0 1.668835 1_565
H2 Mg1 2.331811 1_555
H2 Mg1 2.331811 1_565
H2 Mg0 2.331811 1_554
H2 Mg0 2.331811 1_455
H3 Ru0 1.668835 1_655
H3 Mg0 2.331811 1_545
H3 Mg1 2.331811 1_555
H3 Mg1 2.331811 1_655
H3 Mg0 2.331811 1_554
H4 Ru0 1.668835 1_665
H4 Mg1 2.331811 1_655
H4 Mg1 2.331811 1_565
H4 Mg0 2.331811 1_554
H4 Mg0 2.331811 1_555
H5 Ru0 1.668835 1_656
H5 Mg1 2.331811 1_556
H5 Mg0 2.331811 1_545
H5 Mg1 2.331811 1_655
H5 Mg0 2.331811 1_555
