# generated using pymatgen
data_Cu3SbS4
_symmetry_space_group_name_H-M   'P 1'
_cell_length_a   8.63406937
_cell_length_b   8.63406937
_cell_length_c   8.63406937
_cell_angle_alpha   60.00000000
_cell_angle_beta   60.00000000
_cell_angle_gamma   60.00000000
_symmetry_Int_Tables_number   1
_chemical_formula_structural   Cu3SbS4
_chemical_formula_sum   'Cu6 Sb2 S8'
_cell_volume   455.12595472
_cell_formula_units_Z   2
loop_
 _symmetry_equiv_pos_site_id
 _symmetry_equiv_pos_as_xyz
  1  'x, y, z'
loop_
 _atom_site_type_symbol
 _atom_site_label
 _atom_site_symmetry_multiplicity
 _atom_site_fract_x
 _atom_site_fract_y
 _atom_site_fract_z
 _atom_site_occupancy
  Cu  Cu0  1  0.00000000  0.00000000  0.50000000  1
  Cu  Cu1  1  0.00000000  0.50000000  0.50000000  1
  Cu  Cu2  1  0.50000000  0.00000000  0.00000000  1
  Cu  Cu3  1  0.50000000  0.00000000  0.50000000  1
  Cu  Cu4  1  0.50000000  0.50000000  0.00000000  1
  Cu  Cu5  1  0.00000000  0.50000000  0.00000000  1
  Sb  Sb0  1  0.25000000  0.25000000  0.25000000  1
  Sb  Sb1  1  0.75000000  0.75000000  0.75000000  1
  S  S0  1  0.13766100  0.13766100  0.58701600  1
  S  S1  1  0.86233900  0.86233900  0.41298400  1
  S  S2  1  0.13766100  0.13766100  0.13766100  1
  S  S3  1  0.86233900  0.86233900  0.86233900  1
  S  S4  1  0.86233900  0.41298400  0.86233900  1
  S  S5  1  0.41298400  0.86233900  0.86233900  1
  S  S6  1  0.58701600  0.13766100  0.13766100  1
  S  S7  1  0.13766100  0.58701600  0.13766100  1
loop_
_geom_bond_atom_site_label_1
_geom_bond_atom_site_label_2
_geom_bond_distance
_geom_bond_site_symmetry_2
Cu0 S0 2.566815 1_555
Cu0 S1 2.566815 1_445
Cu0 S2 2.566822 1_555
Cu0 S3 2.566822 1_445
Cu1 S7 2.566823 1_555
Cu1 S4 2.566823 1_455
Cu1 S0 2.566823 1_555
Cu1 S1 2.566823 1_455
Cu2 S6 2.566815 1_555
Cu2 S5 2.566815 1_544
Cu2 S3 2.566822 1_544
Cu2 S2 2.566822 1_555
Cu3 S1 2.566823 1_545
Cu3 S6 2.566823 1_555
Cu3 S0 2.566823 1_555
Cu3 S5 2.566823 1_545
Cu4 S6 2.566823 1_555
Cu4 S4 2.566823 1_554
Cu4 S5 2.566823 1_554
Cu4 S7 2.566823 1_555
Cu5 S7 2.566815 1_555
Cu5 S4 2.566815 1_454
Cu5 S3 2.566822 1_454
Cu5 S2 2.566822 1_555
S0 Sb0 2.375858 1_555
S1 Sb1 2.375858 1_555
S2 Sb0 2.375865 1_555
S3 Sb1 2.375865 1_555
S4 Sb1 2.375858 1_555
S5 Sb1 2.375858 1_555
S6 Sb0 2.375858 1_555
S7 Sb0 2.375858 1_555
