# generated using pymatgen
data_NaZnAsO4
_symmetry_space_group_name_H-M   'P 1'
_cell_length_a   8.95508469
_cell_length_b   8.95508475
_cell_length_c   8.15856969
_cell_angle_alpha   90.00000000
_cell_angle_beta   90.00000000
_cell_angle_gamma   119.99999977
_symmetry_Int_Tables_number   1
_chemical_formula_structural   NaZnAsO4
_chemical_formula_sum   'Na6 Zn6 As6 O24'
_cell_volume   566.60976867
_cell_formula_units_Z   6
loop_
 _symmetry_equiv_pos_site_id
 _symmetry_equiv_pos_as_xyz
  1  'x, y, z'
loop_
 _atom_site_type_symbol
 _atom_site_label
 _atom_site_symmetry_multiplicity
 _atom_site_fract_x
 _atom_site_fract_y
 _atom_site_fract_z
 _atom_site_occupancy
  Na  Na0  1  0.33333300  0.66666700  0.68844776  1
  Na  Na1  1  0.66666700  0.33333300  0.18844776  1
  Na  Na2  1  -0.00000000  -0.00000000  0.20076648  1
  Na  Na3  1  -0.00000000  -0.00000000  0.70076648  1
  Na  Na4  1  0.33333300  0.66666700  0.27733674  1
  Na  Na5  1  0.66666700  0.33333300  0.77733674  1
  Zn  Zn0  1  0.66105490  0.98466385  0.39518937  1
  Zn  Zn1  1  0.67639105  0.66105490  0.89518937  1
  Zn  Zn2  1  0.98466385  0.32360895  0.89518937  1
  Zn  Zn3  1  0.33894510  0.01533615  0.89518937  1
  Zn  Zn4  1  0.32360895  0.33894510  0.39518937  1
  Zn  Zn5  1  0.01533615  0.67639105  0.39518937  1
  As  As0  1  0.68653697  0.65786450  0.50149310  1
  As  As1  1  0.02867347  0.68653697  0.00149310  1
  As  As2  1  0.65786450  0.97132653  0.00149310  1
  As  As3  1  0.34213550  0.02867347  0.50149310  1
  As  As4  1  0.97132653  0.31346303  0.50149310  1
  As  As5  1  0.31346303  0.34213550  0.00149310  1
  O  O0  1  0.60282932  0.86474258  0.18280374  1
  O  O1  1  0.89890542  0.46919168  0.98099048  1
  O  O2  1  0.57028626  0.10109458  0.98099048  1
  O  O3  1  0.42971374  0.89890542  0.48099048  1
  O  O4  1  0.10109458  0.53080832  0.48099048  1
  O  O5  1  0.53080832  0.42971374  0.98099048  1
  O  O6  1  0.77985118  0.87623965  0.49551909  1
  O  O7  1  0.90361053  0.77985118  0.99551909  1
  O  O8  1  0.87623965  0.09638947  0.99551909  1
  O  O9  1  0.12376035  0.90361053  0.49551909  1
  O  O10  1  0.09638947  0.22014882  0.49551909  1
  O  O11  1  0.22014882  0.12376035  0.99551909  1
  O  O12  1  0.22872047  0.41336430  0.85435490  1
  O  O13  1  0.81535617  0.22872047  0.35435490  1
  O  O14  1  0.73808674  0.60282932  0.68280374  1
  O  O15  1  0.58663570  0.81535617  0.85435490  1
  O  O16  1  0.18464383  0.77127953  0.85435490  1
  O  O17  1  0.77127953  0.58663570  0.35435490  1
  O  O18  1  0.26191326  0.39717068  0.18280374  1
  O  O19  1  0.86474258  0.26191326  0.68280374  1
  O  O20  1  0.39717068  0.13525742  0.68280374  1
  O  O21  1  0.41336430  0.18464383  0.35435490  1
  O  O22  1  0.13525742  0.73808674  0.18280374  1
  O  O23  1  0.46919168  0.57028626  0.48099048  1
loop_
_geom_bond_atom_site_label_1
_geom_bond_atom_site_label_2
_geom_bond_distance
_geom_bond_site_symmetry_2
Na0 O16 2.393764 1_555
Na0 O15 2.393770 1_555
Na0 O12 2.393771 1_555
Na0 O3 2.477881 1_555
Na0 O4 2.477882 1_555
Na0 O23 2.477887 1_555
Na1 O13 2.393764 1_555
Na1 O21 2.393770 1_555
Na1 O17 2.393771 1_555
Na1 O2 2.477881 1_554
Na1 O1 2.477882 1_554
Na1 O5 2.477887 1_554
Na2 O7 2.394581 1_444
Na2 O11 2.394581 1_554
Na2 O8 2.394587 1_454
Na3 O10 2.394581 1_555
Na3 O6 2.394581 1_445
Na3 O9 2.394587 1_545
Na4 O22 2.298836 1_555
Na4 O0 2.298842 1_555
Na4 O18 2.298845 1_555
Na4 O3 2.456789 1_555
Na4 O4 2.456790 1_555
Na4 O23 2.456795 1_555
Na5 O19 2.298836 1_555
Na5 O20 2.298842 1_555
Na5 O14 2.298845 1_555
Na5 O2 2.456789 1_555
Na5 O1 2.456790 1_555
Na5 O5 2.456795 1_555
As0 O14 1.694595 1_555
As0 O6 1.700225 1_555
As0 O23 1.704365 1_555
As0 O17 1.705247 1_555
As1 O22 1.694591 1_555
As1 O7 1.700241 1_454
As1 O1 1.704366 1_454
As1 O16 1.705241 1_554
As2 O0 1.694591 1_555
As2 O8 1.700227 1_564
As2 O2 1.704373 1_564
As2 O15 1.705241 1_554
As3 O20 1.694591 1_555
As3 O9 1.700227 1_545
As3 O3 1.704373 1_545
As3 O21 1.705241 1_555
As4 O19 1.694591 1_555
As4 O10 1.700241 1_655
As4 O4 1.704366 1_655
As4 O13 1.705241 1_555
As5 O18 1.694595 1_555
As5 O11 1.700225 1_554
As5 O5 1.704365 1_554
As5 O12 1.705247 1_554
O0 Zn0 1.966638 1_555
O1 Zn2 1.944393 1_555
O2 Zn3 1.944393 1_555
O3 Zn0 1.944393 1_555
O4 Zn5 1.944393 1_555
O5 Zn1 1.944393 1_555
O6 Zn0 1.943558 1_555
O7 Zn1 1.943551 1_555
O8 Zn2 1.943551 1_555
O9 Zn5 1.943551 1_555
O10 Zn4 1.943551 1_555
O11 Zn3 1.943558 1_555
O12 Zn2 1.943445 1_455
O13 Zn0 1.943445 1_545
O14 Zn1 1.966638 1_555
O15 Zn1 1.943445 1_555
O16 Zn3 1.943445 1_565
O17 Zn5 1.943445 1_655
O18 Zn4 1.966638 1_555
O19 Zn2 1.966638 1_555
O20 Zn3 1.966638 1_555
O21 Zn4 1.943445 1_555
O22 Zn5 1.966638 1_555
O23 Zn4 1.944393 1_555
