# generated using pymatgen
data_LaRe2Ag
_symmetry_space_group_name_H-M   'P 1'
_cell_length_a   4.78411053
_cell_length_b   4.78411053
_cell_length_c   4.78411053
_cell_angle_alpha   60.00000000
_cell_angle_beta   60.00000000
_cell_angle_gamma   60.00000000
_symmetry_Int_Tables_number   1
_chemical_formula_structural   LaRe2Ag
_chemical_formula_sum   'La1 Re2 Ag1'
_cell_volume   77.42631990
_cell_formula_units_Z   1
loop_
 _symmetry_equiv_pos_site_id
 _symmetry_equiv_pos_as_xyz
  1  'x, y, z'
loop_
 _atom_site_type_symbol
 _atom_site_label
 _atom_site_symmetry_multiplicity
 _atom_site_fract_x
 _atom_site_fract_y
 _atom_site_fract_z
 _atom_site_occupancy
  La  La0  1  0.50000000  0.50000000  0.50000000  1
  Re  Re0  1  0.25000000  0.25000000  0.25000000  1
  Re  Re1  1  0.00000000  0.00000000  0.00000000  1
  Ag  Ag0  1  0.75000000  0.75000000  0.75000000  1
loop_
_geom_bond_atom_site_label_1
_geom_bond_atom_site_label_2
_geom_bond_distance
_geom_bond_site_symmetry_2
La0 Re0 2.929657 1_655
La0 Re0 2.929657 1_565
La0 Re0 2.929657 1_556
La0 Re0 2.929657 1_555
La0 Re1 3.382877 1_565
La0 Re1 3.382877 1_655
La0 Re1 3.382877 1_556
La0 Re1 3.382877 1_566
La0 Re1 3.382877 1_656
La0 Re1 3.382877 1_665
Re0 Re1 2.929657 1_655
Re0 Re1 2.929657 1_565
Re0 Re1 2.929657 1_556
Re0 Re1 2.929657 1_555
Ag0 Re1 2.929657 1_656
Ag0 La0 2.929657 1_565
Ag0 La0 2.929657 1_655
Ag0 Re1 2.929657 1_566
Ag0 La0 2.929657 1_555
Ag0 La0 2.929657 1_556
Ag0 Re1 2.929657 1_665
Ag0 Re1 2.929657 1_666
