# generated using pymatgen
data_Mn2SnC9ClO9
_symmetry_space_group_name_H-M   'P 1'
_cell_length_a   12.45428100
_cell_length_b   8.81915100
_cell_length_c   15.60202092
_cell_angle_alpha   64.04989308
_cell_angle_beta   90.00000000
_cell_angle_gamma   90.00000000
_symmetry_Int_Tables_number   1
_chemical_formula_structural   Mn2SnC9ClO9
_chemical_formula_sum   'Mn8 Sn4 C36 Cl4 O36'
_cell_volume   1540.88678319
_cell_formula_units_Z   4
loop_
 _symmetry_equiv_pos_site_id
 _symmetry_equiv_pos_as_xyz
  1  'x, y, z'
loop_
 _atom_site_type_symbol
 _atom_site_label
 _atom_site_symmetry_multiplicity
 _atom_site_fract_x
 _atom_site_fract_y
 _atom_site_fract_z
 _atom_site_occupancy
  Mn  Mn0  1  0.18964200  0.31326000  0.42952500  1
  Mn  Mn1  1  0.68964200  0.68674000  0.07047500  1
  Mn  Mn2  1  0.01426300  0.95043600  0.10912500  1
  Mn  Mn3  1  0.81035800  0.68674000  0.57047500  1
  Mn  Mn4  1  0.98573700  0.04956400  0.89087500  1
  Mn  Mn5  1  0.31035800  0.31326000  0.92952500  1
  Mn  Mn6  1  0.51426300  0.04956400  0.39087500  1
  Mn  Mn7  1  0.48573700  0.95043600  0.60912500  1
  Sn  Sn0  1  0.16814000  0.06250200  0.97763400  1
  Sn  Sn1  1  0.83186000  0.93749800  0.02236600  1
  Sn  Sn2  1  0.33186000  0.06250200  0.47763400  1
  Sn  Sn3  1  0.66814000  0.93749800  0.52236600  1
  C  C0  1  0.71668800  0.54348200  0.66533400  1
  C  C1  1  0.58790300  0.52334800  0.09741100  1
  C  C2  1  0.91791300  0.87433900  0.20547100  1
  C  C3  1  0.21668800  0.45651800  0.83466600  1
  C  C4  1  0.41209700  0.47665200  0.90258900  1
  C  C5  1  0.28331200  0.45651800  0.33466600  1
  C  C6  1  0.10599100  0.15042600  0.52559900  1
  C  C7  1  0.24366600  0.36594300  0.02062600  1
  C  C8  1  0.87104200  0.06406900  0.81630700  1
  C  C9  1  0.54441100  0.26836800  0.37225800  1
  C  C10  1  0.13553800  0.24031800  0.34153400  1
  C  C11  1  0.60599100  0.84957400  0.97440100  1
  C  C12  1  0.86446200  0.75968200  0.65846600  1
  C  C13  1  0.04441100  0.73163200  0.12774200  1
  C  C14  1  0.01771500  0.82770900  0.91374500  1
  C  C15  1  0.41791300  0.12566100  0.29452900  1
  C  C16  1  0.08208700  0.12566100  0.79452900  1
  C  C17  1  0.98228500  0.17229100  0.08625500  1
  C  C18  1  0.51771500  0.17229100  0.58625500  1
  C  C19  1  0.75633400  0.63405700  0.97937400  1
  C  C20  1  0.78331200  0.54348200  0.16533400  1
  C  C21  1  0.48228500  0.82770900  0.41374500  1
  C  C22  1  0.63553800  0.75968200  0.15846600  1
  C  C23  1  0.58208700  0.87433900  0.70547100  1
  C  C24  1  0.36446200  0.24031800  0.84153400  1
  C  C25  1  0.89400900  0.84957400  0.47440100  1
  C  C26  1  0.12895800  0.93593100  0.18369300  1
  C  C27  1  0.39400900  0.15042600  0.02559900  1
  C  C28  1  0.62895800  0.06406900  0.31630700  1
  C  C29  1  0.08790300  0.47665200  0.40258900  1
  C  C30  1  0.25633400  0.36594300  0.52062600  1
  C  C31  1  0.74366600  0.63405700  0.47937400  1
  C  C32  1  0.45558900  0.73163200  0.62774200  1
  C  C33  1  0.95558900  0.26836800  0.87225800  1
  C  C34  1  0.37104200  0.93593100  0.68369300  1
  C  C35  1  0.91209700  0.52334800  0.59741100  1
  Cl  Cl0  1  0.22043700  0.82463400  0.49467300  1
  Cl  Cl1  1  0.77956300  0.17536600  0.50532700  1
  Cl  Cl2  1  0.72043700  0.17536600  0.00532700  1
  Cl  Cl3  1  0.27956300  0.82463400  0.99467300  1
  O  O0  1  0.44711700  0.05182800  0.08396800  1
  O  O1  1  0.10101000  0.20076300  0.28582600  1
  O  O2  1  0.94711700  0.94817200  0.41603200  1
  O  O3  1  0.35999700  0.17649000  0.22893100  1
  O  O4  1  0.93635500  0.40822200  0.85322700  1
  O  O5  1  0.97683900  0.42035000  0.61328000  1
  O  O6  1  0.69970300  0.08544900  0.26304800  1
  O  O7  1  0.16181700  0.54718600  0.77440300  1
  O  O8  1  0.47683900  0.57965000  0.88672000  1
  O  O9  1  0.05288300  0.05182800  0.58396800  1
  O  O10  1  0.79562500  0.60172300  0.92255900  1
  O  O11  1  0.46131600  0.69368400  0.42247100  1
  O  O12  1  0.80029700  0.08544900  0.76304800  1
  O  O13  1  0.96131600  0.30631600  0.07752900  1
  O  O14  1  0.52316100  0.42035000  0.11328000  1
  O  O15  1  0.14000300  0.17649000  0.72893100  1
  O  O16  1  0.53868400  0.30631600  0.57752900  1
  O  O17  1  0.55288300  0.94817200  0.91603200  1
  O  O18  1  0.39899000  0.20076300  0.78582600  1
  O  O19  1  0.89899000  0.79923700  0.71417400  1
  O  O20  1  0.33818300  0.54718600  0.27440400  1
  O  O21  1  0.70437500  0.60172300  0.42255900  1
  O  O22  1  0.20437500  0.39827700  0.07744100  1
  O  O23  1  0.64000300  0.82351000  0.77106900  1
  O  O24  1  0.03868400  0.69368400  0.92247100  1
  O  O25  1  0.02316100  0.57965000  0.38672000  1
  O  O26  1  0.56364500  0.40822200  0.35322700  1
  O  O27  1  0.30029700  0.91455100  0.73695200  1
  O  O28  1  0.83818300  0.45281400  0.22559700  1
  O  O29  1  0.06364500  0.59177800  0.14677300  1
  O  O30  1  0.43635500  0.59177800  0.64677300  1
  O  O31  1  0.29562500  0.39827700  0.57744100  1
  O  O32  1  0.19970300  0.91455100  0.23695200  1
  O  O33  1  0.60101000  0.79923700  0.21417400  1
  O  O34  1  0.85999700  0.82351000  0.27106900  1
  O  O35  1  0.66181700  0.45281400  0.72559700  1
loop_
_geom_bond_atom_site_label_1
_geom_bond_atom_site_label_2
_geom_bond_distance
_geom_bond_site_symmetry_2
C0 O35 1.154313 1_555
C0 Mn3 1.873789 1_555
C1 O14 1.157466 1_555
C1 Mn1 1.824432 1_555
C2 O34 1.169263 1_555
C2 Mn2 1.807490 1_655
C3 O7 1.154313 1_555
C3 Mn5 1.873789 1_555
C4 O8 1.157466 1_555
C4 Mn5 1.824432 1_555
C5 O20 1.154306 1_555
C5 Mn0 1.873789 1_555
C6 O9 1.153210 1_555
C6 Mn0 1.873659 1_555
C7 O22 1.152279 1_555
C7 Mn5 1.871895 1_554
C8 O12 1.168420 1_555
C8 Mn4 1.811103 1_555
C9 O26 1.160300 1_555
C9 Mn6 1.859684 1_555
C10 O1 1.152126 1_555
C10 Mn0 1.877614 1_555
C11 O17 1.153210 1_555
C11 Mn1 1.873659 1_556
C12 O19 1.152126 1_555
C12 Mn3 1.877614 1_555
C13 O29 1.160300 1_555
C13 Mn2 1.859684 1_555
C14 O24 1.158877 1_555
C14 Mn4 1.871661 1_465
C15 O3 1.169263 1_555
C15 Mn6 1.807490 1_555
C16 O15 1.169263 1_555
C16 Mn4 1.807490 1_455
C17 O13 1.158877 1_555
C17 Mn2 1.871661 1_645
C18 O16 1.158877 1_555
C18 Mn7 1.871661 1_545
C19 O10 1.152279 1_555
C19 Mn1 1.871895 1_556
C20 O28 1.154313 1_555
C20 Mn1 1.873789 1_555
C21 O11 1.158877 1_555
C21 Mn6 1.871661 1_565
C22 O33 1.152126 1_555
C22 Mn1 1.877614 1_555
C23 O23 1.169263 1_555
C23 Mn7 1.807490 1_555
C24 O18 1.152126 1_555
C24 Mn5 1.877614 1_555
C25 O2 1.153210 1_555
C25 Mn3 1.873659 1_555
C26 O32 1.168420 1_555
C26 Mn2 1.811103 1_555
C27 O0 1.153210 1_555
C27 Mn5 1.873659 1_554
C28 O6 1.168420 1_555
C28 Mn6 1.811103 1_555
C29 O25 1.157466 1_555
C29 Mn0 1.824432 1_555
C30 O31 1.152279 1_555
C30 Mn0 1.871895 1_555
C31 O21 1.152279 1_555
C31 Mn3 1.871895 1_555
C32 O30 1.160300 1_555
C32 Mn7 1.859684 1_555
C33 O4 1.160300 1_555
C33 Mn4 1.859684 1_555
C34 O27 1.168420 1_555
C34 Mn7 1.811103 1_555
C35 O5 1.157466 1_555
C35 Mn3 1.824432 1_555
Cl0 Sn2 2.430850 1_565
Cl1 Sn3 2.430850 1_545
Cl2 Sn1 2.430850 1_545
Cl3 Sn0 2.430850 1_565
