# generated using pymatgen
data_Ho7(CuTe4)3
_symmetry_space_group_name_H-M   'P 1'
_cell_length_a   7.48702060
_cell_length_b   7.48643396
_cell_length_c   14.18010156
_cell_angle_alpha   94.96723303
_cell_angle_beta   95.05940967
_cell_angle_gamma   119.98995828
_symmetry_Int_Tables_number   1
_chemical_formula_structural   Ho7(CuTe4)3
_chemical_formula_sum   'Ho7 Cu3 Te12'
_cell_volume   677.80283762
_cell_formula_units_Z   1
loop_
 _symmetry_equiv_pos_site_id
 _symmetry_equiv_pos_as_xyz
  1  'x, y, z'
loop_
 _atom_site_type_symbol
 _atom_site_label
 _atom_site_symmetry_multiplicity
 _atom_site_fract_x
 _atom_site_fract_y
 _atom_site_fract_z
 _atom_site_occupancy
  Ho  Ho0  1  0.57648473  0.58165071  0.74426386  1
  Ho  Ho1  1  0.33171692  0.66365970  0.99688362  1
  Ho  Ho2  1  0.08960130  0.75749676  0.25285616  1
  Ho  Ho3  1  0.24622223  0.90782054  0.74502439  1
  Ho  Ho4  1  0.74945704  0.07843195  0.25299100  1
  Ho  Ho5  1  0.91870252  0.25425117  0.74512705  1
  Ho  Ho6  1  0.41764982  0.41804453  0.25330286  1
  Cu  Cu0  1  0.86160895  0.52755728  0.58086566  1
  Cu  Cu1  1  0.47382463  0.14138888  0.42805351  1
  Cu  Cu2  1  0.80899685  0.81077201  0.42773532  1
  Te  Te0  1  0.12776086  0.13222114  0.38275088  1
  Te  Te1  1  0.80016405  0.46080609  0.38277898  1
  Te  Te2  1  0.95608490  0.62394549  0.87397984  1
  Te  Te3  1  0.70755794  0.70702704  0.12654329  1
  Te  Te4  1  0.45674118  0.78979994  0.38372721  1
  Te  Te5  1  0.87346943  0.87763659  0.61884654  1
  Te  Te6  1  0.62377706  0.95681776  0.87352115  1
  Te  Te7  1  0.37981873  0.04325393  0.12621380  1
  Te  Te8  1  0.53487482  0.20304747  0.61885714  1
  Te  Te9  1  0.29068346  0.29066740  0.87301206  1
  Te  Te10  1  0.04426482  0.37941667  0.12750133  1
  Te  Te11  1  0.20800076  0.53841795  0.61756634  1
loop_
_geom_bond_atom_site_label_1
_geom_bond_atom_site_label_2
_geom_bond_distance
_geom_bond_site_symmetry_2
Ho0 Te11 3.012663 1_555
Ho0 Te6 3.061582 1_555
Ho0 Te9 3.061878 1_555
Ho0 Te8 3.072424 1_555
Ho0 Te5 3.077555 1_555
Ho0 Te2 3.104586 1_555
Ho1 Te9 3.029017 1_555
Ho1 Te6 3.033171 1_555
Ho1 Te2 3.040555 1_455
Ho1 Te10 3.065591 1_556
Ho1 Te3 3.078118 1_556
Ho1 Te7 3.086532 1_566
Ho2 Te7 3.037988 1_565
Ho2 Te10 3.057496 1_555
Ho2 Te4 3.068578 1_555
Ho2 Te3 3.071050 1_455
Ho2 Te0 3.091180 1_565
Ho2 Te1 3.102356 1_455
Ho3 Te11 3.041146 1_555
Ho3 Te2 3.055733 1_455
Ho3 Te8 3.057429 1_565
Ho3 Te6 3.063395 1_555
Ho3 Te5 3.075676 1_455
Ho3 Te9 3.107781 1_565
Ho4 Te3 3.034804 1_545
Ho4 Te7 3.044999 1_555
Ho4 Te0 3.063065 1_655
Ho4 Te10 3.087194 1_655
Ho4 Te4 3.095972 1_545
Ho4 Te1 3.098999 1_555
Ho5 Te11 3.039743 1_655
Ho5 Te5 3.055313 1_545
Ho5 Te2 3.055585 1_555
Ho5 Te9 3.063294 1_655
Ho5 Te8 3.079536 1_555
Ho5 Te6 3.105564 1_545
Ho6 Te3 3.047912 1_555
Ho6 Te10 3.050214 1_555
Ho6 Te0 3.065748 1_555
Ho6 Te7 3.072542 1_555
Ho6 Te4 3.074198 1_555
Ho6 Te1 3.119210 1_555
Cu0 Te11 2.558751 1_655
Cu0 Te5 2.584811 1_555
Cu0 Te8 2.587355 1_555
Cu0 Te1 2.765937 1_555
Cu1 Te0 2.579073 1_555
Cu1 Te4 2.588898 1_545
Cu1 Te1 2.608033 1_555
Cu1 Te8 2.664024 1_555
Cu2 Te4 2.578461 1_555
Cu2 Te0 2.585872 1_665
Cu2 Te1 2.608690 1_555
Cu2 Te5 2.668400 1_555
