# generated using pymatgen
data_Li19Ni23O42
_symmetry_space_group_name_H-M   'P 1'
_cell_length_a   8.20609700
_cell_length_b   9.66090253
_cell_length_c   10.48195499
_cell_angle_alpha   78.17900731
_cell_angle_beta   78.84137510
_cell_angle_gamma   65.21902767
_symmetry_Int_Tables_number   1
_chemical_formula_structural   Li19Ni23O42
_chemical_formula_sum   'Li19 Ni23 O42'
_cell_volume   733.03127988
_cell_formula_units_Z   1
loop_
 _symmetry_equiv_pos_site_id
 _symmetry_equiv_pos_as_xyz
  1  'x, y, z'
loop_
 _atom_site_type_symbol
 _atom_site_label
 _atom_site_symmetry_multiplicity
 _atom_site_fract_x
 _atom_site_fract_y
 _atom_site_fract_z
 _atom_site_occupancy
  Li  Li0  1  0.26315100  0.76250000  0.92586700  1
  Li  Li1  1  0.45331600  0.95231400  0.78348200  1
  Li  Li2  1  0.73684900  0.23750000  0.07413300  1
  Li  Li3  1  0.93109000  0.43028800  0.92974200  1
  Li  Li4  1  0.11970100  0.61905500  0.78487900  1
  Li  Li5  1  0.40679400  0.90503300  0.07132100  1
  Li  Li6  1  0.59320600  0.09496700  0.92867900  1
  Li  Li7  1  0.88029900  0.38094500  0.21512100  1
  Li  Li8  1  0.06891000  0.56971200  0.07025800  1
  Li  Li9  1  0.36011300  0.85895700  0.35826900  1
  Li  Li10  1  0.54668400  0.04768600  0.21651800  1
  Li  Li11  1  0.83438900  0.33350800  0.49779300  1
  Li  Li12  1  0.02263600  0.52269400  0.35770400  1
  Li  Li13  1  0.30958500  0.80947700  0.64127400  1
  Li  Li14  1  0.50000000  0.00000000  0.50000000  1
  Li  Li15  1  0.69041500  0.19052300  0.35872600  1
  Li  Li16  1  0.97736400  0.47730600  0.64229600  1
  Li  Li17  1  0.16561100  0.66649200  0.50220700  1
  Li  Li18  1  0.63988700  0.14104300  0.64173100  1
  Ni  Ni0  1  0.95417900  0.95139600  0.78494500  1
  Ni  Ni1  1  0.61734400  0.62004900  0.78532500  1
  Ni  Ni2  1  0.78596600  0.28658700  0.78574200  1
  Ni  Ni3  1  0.09741600  0.09613400  0.92939500  1
  Ni  Ni4  1  0.28459300  0.28707700  0.78457200  1
  Ni  Ni5  1  0.57492700  0.57151300  0.07196100  1
  Ni  Ni6  1  0.76220700  0.76211100  0.92872600  1
  Ni  Ni7  1  0.04582100  0.04860400  0.21505500  1
  Ni  Ni8  1  0.23779300  0.23788900  0.07127400  1
  Ni  Ni9  1  0.42507300  0.42848700  0.92803900  1
  Ni  Ni10  1  0.21403400  0.71341300  0.21425800  1
  Ni  Ni11  1  0.52530200  0.52455400  0.35762200  1
  Ni  Ni12  1  0.71540700  0.71292300  0.21542800  1
  Ni  Ni13  1  0.90258400  0.90386600  0.07060500  1
  Ni  Ni14  1  0.00000000  0.00000000  0.50000000  1
  Ni  Ni15  1  0.19177300  0.18849100  0.35660300  1
  Ni  Ni16  1  0.38265600  0.37995100  0.21467500  1
  Ni  Ni17  1  0.47469800  0.47544600  0.64237800  1
  Ni  Ni18  1  0.66751400  0.66697700  0.50144300  1
  Ni  Ni19  1  0.85450100  0.85718500  0.35681100  1
  Ni  Ni20  1  0.14549900  0.14281500  0.64318900  1
  Ni  Ni21  1  0.33248600  0.33302300  0.49855700  1
  Ni  Ni22  1  0.80822700  0.81150900  0.64339700  1
  O  O0  1  0.37454800  0.60264700  0.79068900  1
  O  O1  1  0.86031400  0.09780700  0.92563100  1
  O  O2  1  0.03484000  0.28485500  0.78590600  1
  O  O3  1  0.53197100  0.74862900  0.93591100  1
  O  O4  1  0.70995500  0.94101000  0.77941900  1
  O  O5  1  0.66243700  0.42756300  0.92566900  1
  O  O6  1  0.00952300  0.22644600  0.06532300  1
  O  O7  1  0.19416900  0.42401200  0.92880400  1
  O  O8  1  0.13968600  0.90219300  0.07436900  1
  O  O9  1  0.32694600  0.10605500  0.93600000  1
  O  O10  1  0.46298600  0.71246500  0.21784900  1
  O  O11  1  0.67305400  0.89394500  0.06400000  1
  O  O12  1  0.62545200  0.39735300  0.20931100  1
  O  O13  1  0.80583100  0.57598800  0.07119600  1
  O  O14  1  0.99047700  0.77355400  0.93467700  1
  O  O15  1  0.94521000  0.17519800  0.36554200  1
  O  O16  1  0.14123200  0.36060200  0.21194800  1
  O  O17  1  0.08949900  0.85537200  0.35358100  1
  O  O18  1  0.33756300  0.57243700  0.07433100  1
  O  O19  1  0.29004500  0.05899000  0.22058100  1
  O  O20  1  0.46802900  0.25137100  0.06408900  1
  O  O21  1  0.43841100  0.65850700  0.49980700  1
  O  O22  1  0.62617700  0.85256400  0.35768100  1
  O  O23  1  0.56158900  0.34149300  0.50019300  1
  O  O24  1  0.80481800  0.03212200  0.20802400  1
  O  O25  1  0.76465600  0.53671100  0.36648300  1
  O  O26  1  0.96516000  0.71514500  0.21409400  1
  O  O27  1  0.91050100  0.14462800  0.64641900  1
  O  O28  1  0.10647800  0.31879900  0.49389400  1
  O  O29  1  0.27614200  0.52563200  0.35409000  1
  O  O30  1  0.23078900  0.01050900  0.49445500  1
  O  O31  1  0.43226600  0.20336600  0.36454700  1
  O  O32  1  0.56773400  0.79663400  0.63545300  1
  O  O33  1  0.76921100  0.98949100  0.50554500  1
  O  O34  1  0.72385800  0.47436800  0.64591000  1
  O  O35  1  0.89352200  0.68120100  0.50610600  1
  O  O36  1  0.23534400  0.46328900  0.63351700  1
  O  O37  1  0.19518200  0.96787800  0.79197600  1
  O  O38  1  0.37382300  0.14743600  0.64231900  1
  O  O39  1  0.85876800  0.63939800  0.78805200  1
  O  O40  1  0.05479000  0.82480200  0.63445800  1
  O  O41  1  0.53701400  0.28753500  0.78215100  1
loop_
_geom_bond_atom_site_label_1
_geom_bond_atom_site_label_2
_geom_bond_distance
_geom_bond_site_symmetry_2
Li0 O8 2.091609 1_556
Li0 O18 2.103167 1_556
Li0 O0 2.107134 1_555
Li0 O37 2.109954 1_555
Li0 O3 2.175227 1_555
Li0 O14 2.179561 1_455
Li1 O37 2.045262 1_555
Li1 O4 2.055087 1_555
Li1 O38 2.090058 1_565
Li1 O32 2.181657 1_555
Li1 O9 2.208443 1_565
Li1 O3 2.210853 1_555
Li2 O1 2.091609 1_554
Li2 O5 2.103167 1_554
Li2 O12 2.107134 1_555
Li2 O24 2.109954 1_555
Li2 O20 2.175227 1_555
Li2 O6 2.179561 1_655
Li3 O13 2.070897 1_556
Li3 O2 2.083341 1_655
Li3 O6 2.111141 1_656
Li3 O7 2.132302 1_655
Li3 O39 2.178527 1_555
Li3 O5 2.224475 1_555
Li4 O0 2.042011 1_555
Li4 O39 2.060821 1_455
Li4 O7 2.103991 1_555
Li4 O14 2.192420 1_455
Li4 O40 2.207747 1_555
Li4 O36 2.209209 1_555
Li5 O3 2.089524 1_554
Li5 O9 2.092181 1_564
Li5 O10 2.101649 1_555
Li5 O11 2.129239 1_555
Li5 O19 2.180960 1_565
Li5 O8 2.197547 1_555
Li6 O20 2.089524 1_556
Li6 O11 2.092181 1_546
Li6 O41 2.101649 1_555
Li6 O9 2.129239 1_555
Li6 O4 2.180960 1_545
Li6 O1 2.197547 1_555
Li7 O12 2.042011 1_555
Li7 O16 2.060821 1_655
Li7 O13 2.103991 1_555
Li7 O6 2.192420 1_655
Li7 O15 2.207747 1_555
Li7 O25 2.209209 1_555
Li8 O7 2.070897 1_554
Li8 O26 2.083341 1_455
Li8 O14 2.111141 1_454
Li8 O13 2.132302 1_455
Li8 O16 2.178527 1_555
Li8 O18 2.224475 1_555
Li9 O10 2.062273 1_555
Li9 O30 2.067622 1_565
Li9 O19 2.096450 1_565
Li9 O21 2.124338 1_555
Li9 O22 2.157026 1_555
Li9 O17 2.245543 1_555
Li10 O24 2.045262 1_555
Li10 O19 2.055087 1_555
Li10 O22 2.090058 1_545
Li10 O31 2.181657 1_555
Li10 O11 2.208443 1_545
Li10 O20 2.210853 1_555
Li11 O15 2.074263 1_555
Li11 O25 2.081306 1_555
Li11 O34 2.090656 1_555
Li11 O27 2.098412 1_555
Li11 O28 2.169859 1_655
Li11 O23 2.202782 1_555
Li12 O25 2.048881 1_455
Li12 O26 2.082844 1_455
Li12 O29 2.085287 1_555
Li12 O28 2.117385 1_555
Li12 O16 2.204699 1_555
Li12 O35 2.205710 1_455
Li13 O40 2.047621 1_555
Li13 O32 2.058993 1_555
Li13 O21 2.104868 1_555
Li13 O30 2.160152 1_565
Li13 O0 2.208560 1_555
Li13 O37 2.220480 1_555
Li14 O38 2.088708 1_555
Li14 O22 2.088708 1_545
Li14 O31 2.105223 1_555
Li14 O32 2.105223 1_545
Li14 O33 2.180226 1_545
Li14 O30 2.180226 1_555
Li15 O15 2.047621 1_555
Li15 O31 2.058993 1_555
Li15 O23 2.104868 1_555
Li15 O33 2.160152 1_545
Li15 O12 2.208560 1_555
Li15 O24 2.220480 1_555
Li16 O36 2.048881 1_655
Li16 O2 2.082844 1_655
Li16 O34 2.085287 1_555
Li16 O35 2.117385 1_555
Li16 O39 2.204699 1_555
Li16 O28 2.205710 1_655
Li17 O40 2.074263 1_555
Li17 O36 2.081306 1_555
Li17 O29 2.090656 1_555
Li17 O17 2.098412 1_555
Li17 O35 2.169859 1_455
Li17 O21 2.202782 1_555
Li18 O41 2.062273 1_555
Li18 O33 2.067622 1_545
Li18 O4 2.096450 1_545
Li18 O23 2.124338 1_555
Li18 O38 2.157026 1_555
Li18 O27 2.245543 1_555
Ni0 O40 2.026192 1_655
Ni0 O14 2.037412 1_555
Ni0 O4 2.060541 1_555
Ni0 O27 2.061970 1_565
Ni0 O37 2.065737 1_655
Ni0 O1 2.066460 1_565
Ni1 O32 2.027626 1_555
Ni1 O3 2.042330 1_555
Ni1 O34 2.048738 1_555
Ni1 O0 2.057834 1_555
Ni1 O5 2.066909 1_555
Ni1 O39 2.072503 1_555
Ni2 O5 2.029614 1_555
Ni2 O34 2.030709 1_555
Ni2 O27 2.031249 1_555
Ni2 O2 2.035659 1_655
Ni2 O1 2.041153 1_555
Ni2 O41 2.046699 1_555
Ni3 O37 1.924674 1_545
Ni3 O6 1.926425 1_556
Ni3 O9 1.940684 1_555
Ni3 O1 1.946942 1_455
Ni3 O2 2.059257 1_555
Ni3 O8 2.105409 1_546
Ni4 O36 2.033461 1_555
Ni4 O7 2.036828 1_555
Ni4 O38 2.037877 1_555
Ni4 O2 2.055909 1_555
Ni4 O9 2.065263 1_555
Ni4 O41 2.068482 1_555
Ni5 O13 1.911786 1_555
Ni5 O12 1.931154 1_555
Ni5 O18 1.939467 1_555
Ni5 O3 1.942931 1_554
Ni5 O10 2.073013 1_555
Ni5 O5 2.100335 1_554
Ni6 O39 1.919396 1_555
Ni6 O11 1.930078 1_556
Ni6 O3 1.933762 1_555
Ni6 O14 1.935629 1_555
Ni6 O4 2.037291 1_555
Ni6 O13 2.039276 1_556
Ni7 O15 2.026192 1_455
Ni7 O6 2.037412 1_555
Ni7 O19 2.060541 1_555
Ni7 O17 2.061970 1_545
Ni7 O24 2.065737 1_455
Ni7 O8 2.066460 1_545
Ni8 O16 1.919396 1_555
Ni8 O9 1.930078 1_554
Ni8 O20 1.933762 1_555
Ni8 O6 1.935629 1_555
Ni8 O19 2.037291 1_555
Ni8 O7 2.039276 1_554
Ni9 O7 1.911786 1_555
Ni9 O0 1.931154 1_555
Ni9 O5 1.939467 1_555
Ni9 O20 1.942931 1_556
Ni9 O41 2.073013 1_555
Ni9 O18 2.100335 1_556
Ni10 O18 2.029614 1_555
Ni10 O29 2.030709 1_555
Ni10 O17 2.031249 1_555
Ni10 O26 2.035659 1_455
Ni10 O8 2.041153 1_555
Ni10 O10 2.046699 1_555
Ni11 O21 2.002426 1_555
Ni11 O12 2.010939 1_555
Ni11 O23 2.024257 1_555
Ni11 O10 2.031178 1_555
Ni11 O25 2.036865 1_555
Ni11 O29 2.047751 1_555
Ni12 O25 2.033461 1_555
Ni12 O13 2.036828 1_555
Ni12 O22 2.037877 1_555
Ni12 O26 2.055909 1_555
Ni12 O11 2.065263 1_555
Ni12 O10 2.068482 1_555
Ni13 O24 1.924674 1_565
Ni13 O14 1.926425 1_554
Ni13 O11 1.940684 1_555
Ni13 O8 1.946942 1_655
Ni13 O26 2.059257 1_555
Ni13 O1 2.105409 1_564
Ni14 O40 1.919185 1_545
Ni14 O15 1.919185 1_455
Ni14 O30 1.927854 1_555
Ni14 O33 1.927854 1_445
Ni14 O27 2.104569 1_455
Ni14 O17 2.104569 1_545
Ni15 O19 1.920530 1_555
Ni15 O28 1.938914 1_555
Ni15 O30 1.961273 1_555
Ni15 O16 1.966764 1_555
Ni15 O31 2.056350 1_555
Ni15 O15 2.063640 1_455
Ni16 O31 2.027626 1_555
Ni16 O20 2.042330 1_555
Ni16 O29 2.048738 1_555
Ni16 O12 2.057834 1_555
Ni16 O18 2.066909 1_555
Ni16 O16 2.072503 1_555
Ni17 O23 2.002426 1_555
Ni17 O0 2.010939 1_555
Ni17 O21 2.024257 1_555
Ni17 O41 2.031178 1_555
Ni17 O36 2.036865 1_555
Ni17 O34 2.047751 1_555
Ni18 O32 1.904869 1_555
Ni18 O25 1.916353 1_555
Ni18 O21 1.919261 1_555
Ni18 O35 1.926775 1_555
Ni18 O22 2.044875 1_555
Ni18 O34 2.089176 1_555
Ni19 O22 1.891025 1_555
Ni19 O17 1.914915 1_655
Ni19 O24 2.010811 1_565
Ni19 O35 2.022256 1_555
Ni19 O33 2.048988 1_555
Ni19 O26 2.053331 1_555
Ni20 O38 1.891025 1_555
Ni20 O27 1.914915 1_455
Ni20 O37 2.010811 1_545
Ni20 O28 2.022256 1_555
Ni20 O30 2.048988 1_555
Ni20 O2 2.053331 1_555
Ni21 O31 1.904869 1_555
Ni21 O36 1.916353 1_555
Ni21 O23 1.919261 1_555
Ni21 O28 1.926775 1_555
Ni21 O38 2.044875 1_555
Ni21 O29 2.089176 1_555
Ni22 O4 1.920530 1_555
Ni22 O35 1.938914 1_555
Ni22 O33 1.961273 1_555
Ni22 O39 1.966764 1_555
Ni22 O32 2.056350 1_555
Ni22 O40 2.063640 1_655
