# generated using pymatgen
data_HoH3
_symmetry_space_group_name_H-M   'P 1'
_cell_length_a   6.26436356
_cell_length_b   6.26437006
_cell_length_c   6.53859245
_cell_angle_alpha   89.99984875
_cell_angle_beta   90.00012183
_cell_angle_gamma   120.00002331
_symmetry_Int_Tables_number   1
_chemical_formula_structural   HoH3
_chemical_formula_sum   'Ho6 H18'
_cell_volume   222.21284416
_cell_formula_units_Z   6
loop_
 _symmetry_equiv_pos_site_id
 _symmetry_equiv_pos_as_xyz
  1  'x, y, z'
loop_
 _atom_site_type_symbol
 _atom_site_label
 _atom_site_symmetry_multiplicity
 _atom_site_fract_x
 _atom_site_fract_y
 _atom_site_fract_z
 _atom_site_occupancy
  Ho  Ho0  1  0.66270690  -0.00000070  0.25000018  1
  Ho  Ho1  1  0.33729354  0.33729428  0.24999969  1
  Ho  Ho2  1  -0.00000147  0.66270717  0.25000006  1
  Ho  Ho3  1  0.66270646  0.66270572  0.75000031  1
  Ho  Ho4  1  0.00000147  0.33729283  0.74999994  1
  Ho  Ho5  1  0.33729310  0.00000070  0.74999982  1
  H  H0  1  0.32021592  0.96804750  0.40968611  1
  H  H1  1  0.64783104  0.67978415  0.40968587  1
  H  H2  1  0.03195303  0.35216912  0.40968616  1
  H  H3  1  0.32021567  0.35216829  0.90968622  1
  H  H4  1  0.03195307  0.67978446  0.90968592  1
  H  H5  1  0.64783131  0.96804758  0.90968591  1
  H  H6  1  0.67978408  0.03195250  0.59031389  1
  H  H7  1  0.35216896  0.32021585  0.59031413  1
  H  H8  1  0.96804697  0.64783088  0.59031384  1
  H  H9  1  0.67978433  0.64783171  0.09031378  1
  H  H10  1  0.96804693  0.32021554  0.09031408  1
  H  H11  1  0.35216869  0.03195242  0.09031409  1
  H  H12  1  0.66666661  0.33333375  0.31247301  1
  H  H13  1  0.66666656  0.33333316  0.81247332  1
  H  H14  1  0.33333339  0.66666625  0.68752699  1
  H  H15  1  0.33333344  0.66666684  0.18752668  1
  H  H16  1  -0.00000102  -0.00000038  0.25000009  1
  H  H17  1  0.00000102  0.00000038  0.74999991  1
loop_
_geom_bond_atom_site_label_1
_geom_bond_atom_site_label_2
_geom_bond_distance
_geom_bond_site_symmetry_2
H0 Ho2 2.221666 1_555
H0 Ho5 2.231926 1_565
H0 Ho0 2.303029 1_565
H0 Ho1 2.490903 1_565
H1 Ho0 2.221655 1_565
H1 Ho3 2.231930 1_555
H1 Ho1 2.303022 1_555
H1 Ho2 2.490892 1_655
H2 Ho1 2.221663 1_555
H2 Ho4 2.231925 1_555
H2 Ho2 2.303030 1_555
H2 Ho0 2.490902 1_455
H3 Ho4 2.221651 1_555
H3 Ho1 2.231923 1_556
H3 Ho3 2.303022 1_555
H3 Ho5 2.490898 1_555
H4 Ho5 2.221661 1_565
H4 Ho2 2.231929 1_556
H4 Ho4 2.303036 1_555
H4 Ho3 2.490895 1_455
H5 Ho3 2.221671 1_555
H5 Ho0 2.231929 1_566
H5 Ho5 2.303025 1_565
H5 Ho4 2.490900 1_665
H6 Ho4 2.221666 1_655
H6 Ho0 2.231926 1_555
H6 Ho5 2.303029 1_555
H6 Ho3 2.490903 1_545
H7 Ho5 2.221655 1_555
H7 Ho1 2.231930 1_555
H7 Ho3 2.303022 1_555
H7 Ho4 2.490892 1_555
H8 Ho3 2.221663 1_555
H8 Ho2 2.231925 1_655
H8 Ho4 2.303030 1_655
H8 Ho5 2.490902 1_665
H9 Ho2 2.221651 1_655
H9 Ho3 2.231923 1_554
H9 Ho1 2.303022 1_555
H9 Ho0 2.490898 1_565
H10 Ho0 2.221661 1_555
H10 Ho4 2.231929 1_654
H10 Ho2 2.303036 1_655
H10 Ho1 2.490895 1_655
H11 Ho1 2.221671 1_555
H11 Ho5 2.231929 1_554
H11 Ho0 2.303025 1_555
H11 Ho2 2.490900 1_545
H12 Ho2 2.115634 1_655
H12 Ho1 2.115638 1_555
H12 Ho0 2.115649 1_555
H13 Ho3 2.115635 1_555
H13 Ho5 2.115637 1_555
H13 Ho4 2.115650 1_655
H14 Ho4 2.115634 1_555
H14 Ho3 2.115638 1_555
H14 Ho5 2.115649 1_565
H15 Ho1 2.115635 1_555
H15 Ho0 2.115637 1_565
H15 Ho2 2.115650 1_555
H16 Ho0 2.112919 1_455
H16 Ho2 2.112923 1_545
H16 Ho1 2.112936 1_555
H17 Ho5 2.112919 1_555
H17 Ho4 2.112923 1_555
H17 Ho3 2.112936 1_445
