# generated using pymatgen
data_SrLa9MgGa9O29
_symmetry_space_group_name_H-M   'P 1'
_cell_length_a   5.55738521
_cell_length_b   5.58375841
_cell_length_c   27.84977620
_cell_angle_alpha   60.40292858
_cell_angle_beta   60.24174027
_cell_angle_gamma   60.16660024
_symmetry_Int_Tables_number   1
_chemical_formula_structural   SrLa9MgGa9O29
_chemical_formula_sum   'Sr1 La9 Mg1 Ga9 O29'
_cell_volume   614.82292878
_cell_formula_units_Z   1
loop_
 _symmetry_equiv_pos_site_id
 _symmetry_equiv_pos_as_xyz
  1  'x, y, z'
loop_
 _atom_site_type_symbol
 _atom_site_label
 _atom_site_symmetry_multiplicity
 _atom_site_fract_x
 _atom_site_fract_y
 _atom_site_fract_z
 _atom_site_occupancy
  Sr  Sr0  1  0.23604900  0.75160300  0.15408400  1
  La  La0  1  0.75360400  0.25671100  0.04548400  1
  La  La1  1  0.25002700  0.75095000  0.34856200  1
  La  La2  1  0.70768200  0.26322500  0.25600700  1
  La  La3  1  0.25036900  0.74011100  0.55157000  1
  La  La4  1  0.75121600  0.26196000  0.44695300  1
  La  La5  1  0.25254200  0.74126200  0.75079800  1
  La  La6  1  0.75157900  0.25991300  0.64743500  1
  La  La7  1  0.26407800  0.74046200  0.94897600  1
  La  La8  1  0.75215000  0.25792000  0.84782600  1
  Mg  Mg0  1  0.53007300  0.97512400  0.20282500  1
  Ga  Ga0  1  0.97051800  0.52697900  0.09485300  1
  Ga  Ga1  1  0.99932100  0.50322800  0.29858000  1
  Ga  Ga2  1  0.00004700  0.50130000  0.49952200  1
  Ga  Ga3  1  0.49838600  0.99681800  0.40185400  1
  Ga  Ga4  1  0.00063700  0.49989700  0.69968700  1
  Ga  Ga5  1  0.50136500  0.00065200  0.59937700  1
  Ga  Ga6  1  0.00109100  0.50147100  0.89908600  1
  Ga  Ga7  1  0.50209600  0.00096200  0.79916000  1
  Ga  Ga8  1  0.49536900  0.00234400  0.00098400  1
  O  O0  1  0.26898100  0.18602500  0.06621700  1
  O  O1  1  0.30207300  0.69206300  0.04624600  1
  O  O2  1  0.24303200  0.18351100  0.26286300  1
  O  O3  1  0.27102000  0.72734400  0.24173800  1
  O  O4  1  0.81091000  0.71382500  0.03403100  1
  O  O5  1  0.21980100  0.29610500  0.35560900  1
  O  O6  1  0.73747800  0.28844500  0.15907000  1
  O  O7  1  0.24557200  0.16469300  0.46734300  1
  O  O8  1  0.76178500  0.83301200  0.13109000  1
  O  O9  1  0.29190400  0.70536400  0.44123100  1
  O  O10  1  0.77135500  0.67440500  0.24975500  1
  O  O11  1  0.20227800  0.29635100  0.55947100  1
  O  O12  1  0.70602000  0.28451700  0.36217400  1
  O  O13  1  0.24928300  0.16627500  0.66693500  1
  O  O14  1  0.74180800  0.82778500  0.33641300  1
  O  O15  1  0.29552500  0.70333200  0.64152800  1
  O  O16  1  0.79588200  0.69714200  0.44172100  1
  O  O17  1  0.20201900  0.29470700  0.75979900  1
  O  O18  1  0.70275300  0.29574200  0.56003200  1
  O  O19  1  0.25255400  0.16813500  0.86612200  1
  O  O20  1  0.74789600  0.83458400  0.53347000  1
  O  O21  1  0.29644500  0.70228300  0.84226500  1
  O  O22  1  0.79535400  0.70284500  0.64113400  1
  O  O23  1  0.20220800  0.28744800  0.96024800  1
  O  O24  1  0.70312700  0.29670600  0.75935800  1
  O  O25  1  0.74828200  0.83257100  0.73362700  1
  O  O26  1  0.79746400  0.70444800  0.84018800  1
  O  O27  1  0.70491100  0.29897800  0.95696600  1
  O  O28  1  0.74067900  0.83186700  0.93321000  1
loop_
_geom_bond_atom_site_label_1
_geom_bond_atom_site_label_2
_geom_bond_distance
_geom_bond_site_symmetry_2
La0 O8 2.390026 1_545
La0 O23 2.455262 1_654
La0 O1 2.476970 1_555
La0 O27 2.496024 1_554
La0 O4 2.573271 1_555
La0 O0 2.651700 1_555
La0 O1 3.109353 1_645
La0 O6 3.209774 1_555
La1 O2 2.415782 1_565
La1 O5 2.533065 1_555
La1 O9 2.582232 1_555
La1 O16 2.583735 1_455
La1 O12 2.600057 1_555
La1 O14 2.805926 1_555
La1 O14 2.806281 1_455
La1 O10 2.857327 1_555
La1 O3 2.984839 1_555
La1 O12 3.029224 1_465
La1 O5 3.062907 1_565
La2 O14 2.355143 1_545
La2 O10 2.403979 1_555
La2 O3 2.538830 1_555
La2 O6 2.557224 1_555
La2 O5 2.760688 1_555
La3 O7 2.372659 1_565
La3 O11 2.514263 1_555
La3 O18 2.517267 1_555
La3 O22 2.531576 1_455
La3 O15 2.538963 1_555
La4 O20 2.412597 1_545
La4 O12 2.432508 1_555
La4 O16 2.490381 1_555
La4 O9 2.529232 1_555
La4 O5 2.593830 1_655
La4 O7 2.815079 1_655
La4 O7 2.853712 1_555
La4 O9 3.071746 1_645
La4 O16 3.109415 1_545
La4 O11 3.112039 1_555
La4 O18 3.117693 1_555
La4 O14 3.138434 1_555
La5 O13 2.368821 1_565
La5 O24 2.512475 1_555
La5 O17 2.523544 1_555
La5 O26 2.529362 1_455
La5 O21 2.571437 1_555
La6 O25 2.407930 1_545
La6 O18 2.481809 1_555
La6 O11 2.497995 1_655
La6 O22 2.516818 1_555
La6 O15 2.519696 1_555
La7 O19 2.362764 1_565
La7 O4 2.465442 1_456
La7 O27 2.473620 1_555
La7 O23 2.566918 1_555
La7 O1 2.691450 1_556
La7 O28 2.727242 1_555
La7 O28 2.912621 1_455
La7 O21 2.994473 1_555
La7 O26 3.016616 1_555
La7 O23 3.056177 1_565
La7 O27 3.128686 1_465
La7 O0 3.203983 1_556
La8 O28 2.393857 1_545
La8 O17 2.496396 1_655
La8 O24 2.504406 1_555
La8 O21 2.520279 1_555
La8 O26 2.524456 1_555
Mg0 O10 1.912438 1_555
Mg0 O3 2.028103 1_555
Mg0 O2 2.030176 1_565
Mg0 O8 2.067509 1_555
Mg0 O6 2.092955 1_565
Ga0 O4 1.889327 1_555
Ga0 O6 1.927124 1_555
Ga0 O8 1.962971 1_555
Ga0 O0 2.014064 1_655
Ga0 O1 2.014587 1_655
Ga1 O10 1.894468 1_555
Ga1 O3 1.975429 1_655
Ga1 O2 2.005462 1_655
Ga1 O5 2.017145 1_655
Ga1 O14 2.061876 1_555
Ga1 O12 2.064782 1_555
Ga2 O16 1.978443 1_455
Ga2 O9 1.990555 1_555
Ga2 O11 2.013914 1_555
Ga2 O7 2.023831 1_555
Ga2 O18 2.024664 1_455
Ga2 O20 2.036889 1_455
Ga3 O12 1.989542 1_565
Ga3 O16 2.000150 1_555
Ga3 O7 2.003438 1_565
Ga3 O9 2.003444 1_555
Ga3 O14 2.005938 1_555
Ga3 O5 2.031623 1_565
Ga4 O22 1.994970 1_455
Ga4 O15 1.999821 1_555
Ga4 O17 2.014266 1_555
Ga4 O24 2.014701 1_455
Ga4 O13 2.019350 1_555
Ga4 O25 2.034040 1_455
Ga5 O18 2.000548 1_555
Ga5 O11 2.003653 1_555
Ga5 O20 2.006700 1_545
Ga5 O22 2.014859 1_545
Ga5 O15 2.018462 1_545
Ga5 O13 2.042297 1_555
Ga6 O21 1.988885 1_555
Ga6 O26 1.996461 1_455
Ga6 O27 2.000896 1_455
Ga6 O19 2.021484 1_555
Ga6 O28 2.027605 1_455
Ga6 O23 2.031978 1_555
Ga7 O17 1.997525 1_555
Ga7 O24 2.000498 1_555
Ga7 O25 2.005813 1_545
Ga7 O26 2.007576 1_545
Ga7 O21 2.021270 1_545
Ga7 O19 2.033855 1_555
Ga8 O4 1.960654 1_545
Ga8 O23 1.986438 1_554
Ga8 O1 2.023577 1_545
Ga8 O27 2.024498 1_554
Ga8 O0 2.054999 1_555
Ga8 O28 2.063136 1_544
O0 Sr0 2.457523 1_545
O1 Sr0 3.005953 1_555
O2 Sr0 3.121395 1_555
O3 Sr0 2.476578 1_555
O6 Sr0 2.707743 1_555
O6 Sr0 2.906447 1_645
O8 Sr0 2.785559 1_655
O8 Sr0 2.886125 1_555
O10 Sr0 2.663976 1_655
