# generated using pymatgen
data_Sr2TbRuO6
_symmetry_space_group_name_H-M   'P 1'
_cell_length_a   5.89708100
_cell_length_b   5.82291100
_cell_length_c   10.07661616
_cell_angle_alpha   55.12409068
_cell_angle_beta   90.00000000
_cell_angle_gamma   90.00000000
_symmetry_Int_Tables_number   1
_chemical_formula_structural   Sr2TbRuO6
_chemical_formula_sum   'Sr4 Tb2 Ru2 O12'
_cell_volume   283.86612732
_cell_formula_units_Z   2
loop_
 _symmetry_equiv_pos_site_id
 _symmetry_equiv_pos_as_xyz
  1  'x, y, z'
loop_
 _atom_site_type_symbol
 _atom_site_label
 _atom_site_symmetry_multiplicity
 _atom_site_fract_x
 _atom_site_fract_y
 _atom_site_fract_z
 _atom_site_occupancy
  Sr  Sr0  1  0.46166700  0.75974900  0.24939400  1
  Sr  Sr1  1  0.96166700  0.24025100  0.25060600  1
  Sr  Sr2  1  0.03833300  0.75974900  0.74939400  1
  Sr  Sr3  1  0.53833300  0.24025100  0.75060600  1
  Tb  Tb0  1  0.50000000  0.50000000  0.00000000  1
  Tb  Tb1  1  0.00000000  0.50000000  0.50000000  1
  Ru  Ru0  1  0.00000000  0.00000000  0.00000000  1
  Ru  Ru1  1  0.50000000  0.00000000  0.50000000  1
  O  O0  1  0.19778800  0.23101000  0.03974400  1
  O  O1  1  0.69778800  0.76899000  0.46025600  1
  O  O2  1  0.80221200  0.76899000  0.96025600  1
  O  O3  1  0.30221200  0.23101000  0.53974400  1
  O  O4  1  0.72801700  0.15221200  0.04245100  1
  O  O5  1  0.22801700  0.84778800  0.45754900  1
  O  O6  1  0.27198300  0.84778800  0.95754900  1
  O  O7  1  0.77198300  0.15221200  0.54245100  1
  O  O8  1  0.52128800  0.31038900  0.26679700  1
  O  O9  1  0.02128800  0.68961100  0.23320300  1
  O  O10  1  0.47871200  0.68961100  0.73320300  1
  O  O11  1  0.97871200  0.31038900  0.76679700  1
loop_
_geom_bond_atom_site_label_1
_geom_bond_atom_site_label_2
_geom_bond_distance
_geom_bond_site_symmetry_2
O0 Ru0 1.986533 1_555
O0 Tb0 2.252213 1_555
O0 Sr1 2.566547 1_455
O0 Sr0 2.790158 1_545
O0 Sr2 2.936303 1_554
O1 Ru1 1.986533 1_565
O1 Tb1 2.252213 1_655
O1 Sr0 2.566547 1_555
O1 Sr1 2.790158 1_565
O1 Sr3 2.936303 1_555
O2 Ru0 1.986533 1_666
O2 Tb0 2.252213 1_556
O2 Sr2 2.566547 1_655
O2 Sr3 2.790158 1_565
O2 Sr1 2.936303 1_556
O3 Ru1 1.986533 1_555
O3 Tb1 2.252213 1_555
O3 Sr3 2.566547 1_555
O3 Sr2 2.790158 1_545
O3 Sr0 2.936303 1_555
O4 Ru0 1.993647 1_655
O4 Tb0 2.258657 1_555
O4 Sr0 2.566745 1_545
O4 Sr1 2.791139 1_555
O4 Sr3 2.904878 1_554
O5 Ru1 1.993647 1_565
O5 Tb1 2.258657 1_555
O5 Sr1 2.566745 1_465
O5 Sr0 2.791139 1_555
O5 Sr2 2.904878 1_555
O6 Ru0 1.993647 1_566
O6 Tb0 2.258657 1_556
O6 Sr3 2.566745 1_565
O6 Sr2 2.791139 1_555
O6 Sr0 2.904878 1_556
O7 Ru1 1.993647 1_555
O7 Tb1 2.258657 1_655
O7 Sr2 2.566745 1_645
O7 Sr3 2.791139 1_555
O7 Sr1 2.904878 1_555
O8 Ru1 1.986789 1_555
O8 Tb0 2.251185 1_555
O8 Sr0 2.544824 1_555
O8 Sr1 2.648352 1_555
O9 Ru0 1.986789 1_565
O9 Tb1 2.251185 1_555
O9 Sr1 2.544824 1_455
O9 Sr0 2.648352 1_555
O10 Ru1 1.986789 1_565
O10 Tb0 2.251185 1_556
O10 Sr3 2.544824 1_555
O10 Sr2 2.648352 1_555
O11 Ru0 1.986789 1_656
O11 Tb1 2.251185 1_655
O11 Sr2 2.544824 1_655
O11 Sr3 2.648352 1_555
