# generated using pymatgen
data_VO2
_symmetry_space_group_name_H-M   'P 1'
_cell_length_a   5.92524225
_cell_length_b   5.92524225
_cell_length_c   5.89812374
_cell_angle_alpha   60.81423272
_cell_angle_beta   60.81423272
_cell_angle_gamma   91.62732700
_symmetry_Int_Tables_number   1
_chemical_formula_structural   VO2
_chemical_formula_sum   'V4 O8'
_cell_volume   147.89458529
_cell_formula_units_Z   4
loop_
 _symmetry_equiv_pos_site_id
 _symmetry_equiv_pos_as_xyz
  1  'x, y, z'
loop_
 _atom_site_type_symbol
 _atom_site_label
 _atom_site_symmetry_multiplicity
 _atom_site_fract_x
 _atom_site_fract_y
 _atom_site_fract_z
 _atom_site_occupancy
  V  V0  1  0.50000000  0.50000000  0.50000000  1
  V  V1  1  0.50000000  0.00000000  0.50000000  1
  V  V2  1  0.00000000  0.50000000  0.00000000  1
  V  V3  1  0.50000000  0.50000000  0.00000000  1
  O  O0  1  0.26153100  0.29981600  0.97477000  1
  O  O1  1  0.27760700  0.74271300  0.95857000  1
  O  O2  1  0.25728700  0.72239300  0.54143000  1
  O  O3  1  0.70018400  0.73846900  0.52523000  1
  O  O4  1  0.72239300  0.25728700  0.04143000  1
  O  O5  1  0.73846900  0.70018400  0.02523000  1
  O  O6  1  0.29981600  0.26153100  0.47477000  1
  O  O7  1  0.74271300  0.27760700  0.45857000  1
loop_
_geom_bond_atom_site_label_1
_geom_bond_atom_site_label_2
_geom_bond_distance
_geom_bond_site_symmetry_2
O0 V3 1.925519 1_556
O0 V2 1.970299 1_556
O0 V0 2.012796 1_555
O1 V1 1.940214 1_565
O1 V3 1.985774 1_556
O1 V2 1.991104 1_556
O2 V2 1.940214 1_556
O2 V0 1.985774 1_555
O2 V1 1.991104 1_565
O3 V0 1.925519 1_555
O3 V1 1.970299 1_565
O3 V3 2.012796 1_556
O4 V1 1.940214 1_555
O4 V3 1.985774 1_555
O4 V2 1.991104 1_655
O5 V3 1.925519 1_555
O5 V2 1.970299 1_655
O5 V0 2.012796 1_555
O6 V0 1.925519 1_555
O6 V1 1.970299 1_555
O6 V3 2.012796 1_555
O7 V2 1.940214 1_655
O7 V0 1.985774 1_555
O7 V1 1.991104 1_555
