# generated using pymatgen
data_Eu6Mg7H26
_symmetry_space_group_name_H-M   'P 1'
_cell_length_a   9.31412465
_cell_length_b   9.31412465
_cell_length_c   11.35541384
_cell_angle_alpha   53.89841334
_cell_angle_beta   53.89841334
_cell_angle_gamma   34.56647690
_symmetry_Int_Tables_number   1
_chemical_formula_structural   Eu6Mg7H26
_chemical_formula_sum   'Eu6 Mg7 H26'
_cell_volume   439.81144964
_cell_formula_units_Z   1
loop_
 _symmetry_equiv_pos_site_id
 _symmetry_equiv_pos_as_xyz
  1  'x, y, z'
loop_
 _atom_site_type_symbol
 _atom_site_label
 _atom_site_symmetry_multiplicity
 _atom_site_fract_x
 _atom_site_fract_y
 _atom_site_fract_z
 _atom_site_occupancy
  Eu  Eu0  1  0.64649800  0.64649800  0.08919300  1
  Eu  Eu1  1  0.35350200  0.35350200  0.91080700  1
  Eu  Eu2  1  0.34019200  0.34019200  0.40264000  1
  Eu  Eu3  1  0.65980800  0.65980800  0.59736000  1
  Eu  Eu4  1  0.14816100  0.14816100  0.34654000  1
  Eu  Eu5  1  0.85183900  0.85183900  0.65346000  1
  Mg  Mg0  1  0.77740600  0.77740600  0.21175300  1
  Mg  Mg1  1  0.22259400  0.22259400  0.78824700  1
  Mg  Mg2  1  0.01596300  0.01596300  0.72029600  1
  Mg  Mg3  1  0.98403700  0.98403700  0.27970400  1
  Mg  Mg4  1  0.74444000  0.25556000  0.00000000  1
  Mg  Mg5  1  0.25556000  0.74444000  0.00000000  1
  Mg  Mg6  1  0.50000000  0.50000000  0.50000000  1
  H  H0  1  0.50603700  0.99795800  0.12048900  1
  H  H1  1  0.00204200  0.49396300  0.87951100  1
  H  H2  1  0.49396300  0.00204200  0.87951100  1
  H  H3  1  0.99795800  0.50603700  0.12048900  1
  H  H4  1  0.01360000  0.49196900  0.64019300  1
  H  H5  1  0.50803100  0.98640000  0.35980700  1
  H  H6  1  0.98640000  0.50803100  0.35980700  1
  H  H7  1  0.49196900  0.01360000  0.64019300  1
  H  H8  1  0.79156200  0.27958900  0.57353700  1
  H  H9  1  0.72041100  0.20843800  0.42646300  1
  H  H10  1  0.20843800  0.72041100  0.42646300  1
  H  H11  1  0.27958900  0.79156200  0.57353700  1
  H  H12  1  0.72875600  0.29407400  0.81990300  1
  H  H13  1  0.70592600  0.27124400  0.18009700  1
  H  H14  1  0.27124400  0.70592600  0.18009700  1
  H  H15  1  0.29407400  0.72875600  0.81990300  1
  H  H16  1  0.88232700  0.88232700  0.82942600  1
  H  H17  1  0.11767300  0.11767300  0.17057400  1
  H  H18  1  0.15404600  0.15404600  0.58145900  1
  H  H19  1  0.84595400  0.84595400  0.41854100  1
  H  H20  1  0.40265900  0.40265900  0.08256000  1
  H  H21  1  0.59734100  0.59734100  0.91744000  1
  H  H22  1  0.91148100  0.91148100  0.07113500  1
  H  H23  1  0.08851900  0.08851900  0.92886500  1
  H  H24  1  0.62794100  0.62794100  0.32128400  1
  H  H25  1  0.37205900  0.37205900  0.67871600  1
loop_
_geom_bond_atom_site_label_1
_geom_bond_atom_site_label_2
_geom_bond_distance
_geom_bond_site_symmetry_2
Eu0 H1 2.366473 1_654
Eu0 H2 2.366473 1_564
Eu0 H24 2.445637 1_555
Eu0 H3 2.514693 1_555
Eu0 H0 2.514693 1_555
Eu0 H21 2.583194 1_554
Eu0 H14 2.612185 1_555
Eu0 H13 2.612185 1_555
Eu0 H17 2.861717 1_565
Eu0 H17 2.861717 1_655
Eu1 H0 2.366473 1_546
Eu1 H3 2.366473 1_456
Eu1 H25 2.445637 1_555
Eu1 H2 2.514693 1_555
Eu1 H1 2.514693 1_555
Eu1 H20 2.583194 1_556
Eu1 H15 2.612185 1_555
Eu1 H12 2.612185 1_555
Eu1 H16 2.861717 1_455
Eu1 H16 2.861717 1_545
Eu2 H5 2.459240 1_545
Eu2 H6 2.459240 1_455
Eu2 H7 2.504012 1_555
Eu2 H4 2.504012 1_555
Eu2 H13 2.562759 1_555
Eu2 H14 2.562759 1_555
Eu2 H18 2.605458 1_555
Eu2 H10 2.775068 1_555
Eu2 H9 2.775068 1_555
Eu2 H19 2.779075 1_455
Eu2 H19 2.779075 1_545
Eu3 H7 2.459240 1_565
Eu3 H4 2.459240 1_655
Eu3 H6 2.504012 1_555
Eu3 H5 2.504012 1_555
Eu3 H15 2.562759 1_555
Eu3 H12 2.562759 1_555
Eu3 H19 2.605458 1_555
Eu3 H11 2.775068 1_555
Eu3 H8 2.775068 1_555
Eu3 H18 2.779075 1_655
Eu3 H18 2.779075 1_565
Eu4 H5 2.353319 1_545
Eu4 H6 2.353319 1_455
Eu4 H17 2.371515 1_555
Eu4 H11 2.471365 1_545
Eu4 H8 2.471365 1_455
Eu4 H0 2.475038 1_545
Eu4 H3 2.475038 1_455
Eu5 H7 2.353319 1_565
Eu5 H4 2.353319 1_655
Eu5 H16 2.371515 1_555
Eu5 H10 2.471365 1_655
Eu5 H9 2.471365 1_565
Eu5 H2 2.475038 1_565
Eu5 H1 2.475038 1_655
H0 Mg0 1.925945 1_555
H1 Mg1 1.925945 1_555
H2 Mg1 1.925945 1_555
H3 Mg0 1.925945 1_555
H4 Mg1 1.937242 1_555
H5 Mg0 1.937242 1_555
H6 Mg0 1.937242 1_555
H7 Mg1 1.937242 1_555
H8 Mg6 1.938288 1_555
H8 Mg2 2.001299 1_655
H9 Mg6 1.938288 1_555
H9 Mg3 2.001299 1_545
H10 Mg6 1.938288 1_555
H10 Mg3 2.001299 1_455
H11 Mg6 1.938288 1_555
H11 Mg2 2.001299 1_565
H12 Mg2 1.902660 1_655
H12 Mg4 1.932250 1_556
H13 Mg3 1.902660 1_545
H13 Mg4 1.932250 1_555
H14 Mg3 1.902660 1_455
H14 Mg5 1.932250 1_555
H15 Mg2 1.902660 1_565
H15 Mg5 1.932250 1_556
H16 Mg2 1.884257 1_665
H17 Mg3 1.884257 1_445
H18 Mg2 1.933665 1_555
H19 Mg3 1.933665 1_555
H20 Mg5 1.924459 1_555
H20 Mg4 1.924459 1_555
H21 Mg5 1.924459 1_556
H21 Mg4 1.924459 1_556
H22 Mg0 1.880775 1_555
H22 Mg4 1.887410 1_565
H22 Mg5 1.887410 1_655
H23 Mg1 1.880775 1_555
H23 Mg4 1.887410 1_456
H23 Mg5 1.887410 1_546
H24 Mg6 1.896717 1_555
H24 Mg0 2.129309 1_555
H25 Mg6 1.896717 1_555
H25 Mg1 2.129309 1_555
