# generated using pymatgen
data_H8PtO6
_symmetry_space_group_name_H-M   'P 1'
_cell_length_a   5.59689700
_cell_length_b   5.70811211
_cell_length_c   7.49069040
_cell_angle_alpha   87.76930586
_cell_angle_beta   84.29108690
_cell_angle_gamma   78.76522233
_symmetry_Int_Tables_number   1
_chemical_formula_structural   H8PtO6
_chemical_formula_sum   'H16 Pt2 O12'
_cell_volume   233.51352284
_cell_formula_units_Z   2
loop_
 _symmetry_equiv_pos_site_id
 _symmetry_equiv_pos_as_xyz
  1  'x, y, z'
loop_
 _atom_site_type_symbol
 _atom_site_label
 _atom_site_symmetry_multiplicity
 _atom_site_fract_x
 _atom_site_fract_y
 _atom_site_fract_z
 _atom_site_occupancy
  H  H0  1  0.91159500  0.27980400  0.23878900  1
  H  H1  1  0.74354300  0.98537400  0.27302800  1
  H  H2  1  0.86433300  0.61010600  0.84861600  1
  H  H3  1  0.15466700  0.48522300  0.82527100  1
  H  H4  1  0.27147000  0.92598600  0.75033700  1
  H  H5  1  0.46687100  0.46854200  0.00313600  1
  H  H6  1  0.20522200  0.39710700  0.10712900  1
  H  H7  1  0.57751000  0.81271500  0.63031800  1
  H  H8  1  0.55096100  0.69562600  0.43828200  1
  H  H9  1  0.75822300  0.60325600  0.09623100  1
  H  H10  1  0.38390500  0.21401400  0.59030000  1
  H  H11  1  0.42568400  0.20479900  0.37497200  1
  H  H12  1  0.17393500  0.84639400  0.20094900  1
  H  H13  1  0.03635800  0.93894300  0.48295800  1
  H  H14  1  0.95653900  0.02606300  0.97789000  1
  H  H15  1  0.85631800  0.17150700  0.70440900  1
  Pt  Pt0  1  0.99938500  0.49598100  0.50142600  1
  Pt  Pt1  1  0.50680000  0.00025400  0.00008800  1
  O  O0  1  0.96792400  0.43190900  0.24170800  1
  O  O1  1  0.56767100  0.00888200  0.25978000  1
  O  O2  1  0.02810900  0.59164600  0.75937700  1
  O  O3  1  0.42329200  0.99041100  0.73966900  1
  O  O4  1  0.34106000  0.35917500  0.00179300  1
  O  O5  1  0.64370200  0.66281000  0.54501000  1
  O  O6  1  0.66409000  0.65068700  0.98900600  1
  O  O7  1  0.35469900  0.32253300  0.48037100  1
  O  O8  1  0.19074600  0.88191700  0.06708300  1
  O  O9  1  0.12556600  0.79406700  0.41255600  1
  O  O10  1  0.81332700  0.13032100  0.92302900  1
  O  O11  1  0.88868000  0.18497200  0.56925800  1
loop_
_geom_bond_atom_site_label_1
_geom_bond_atom_site_label_2
_geom_bond_distance
_geom_bond_site_symmetry_2
H0 O0 0.981432 1_555
H1 O1 0.981684 1_565
H2 O2 1.069632 1_655
H2 O6 1.448772 1_555
H3 O2 0.996464 1_555
H4 O3 0.984699 1_555
H5 O4 1.029000 1_555
H5 O6 1.651052 1_554
H6 O4 1.037924 1_555
H6 O0 1.570369 1_455
H7 O5 1.072246 1_555
H7 O3 1.423959 1_555
H8 O5 0.988268 1_555
H9 O6 1.003826 1_554
H10 O7 1.017891 1_555
H10 O3 1.660668 1_545
H11 O7 1.052459 1_555
H11 O1 1.489665 1_555
H12 O8 1.014056 1_555
H12 O9 1.607566 1_555
H13 O9 1.015849 1_555
H13 O11 1.607905 1_465
H14 O10 1.012983 1_555
H14 O8 1.597761 1_646
H15 O11 1.013165 1_555
O0 Pt0 2.024412 1_555
O1 Pt1 2.012070 1_555
O2 Pt0 2.058081 1_455
O3 Pt1 2.055982 1_566
O4 Pt1 2.077792 1_555
O5 Pt0 2.032881 1_555
O6 Pt1 2.019222 1_566
O7 Pt0 2.035290 1_455
O8 Pt1 2.024795 1_565
O9 Pt0 2.030654 1_455
O10 Pt1 2.023271 1_556
O11 Pt0 2.022237 1_555
