# generated using pymatgen
data_Ti9Fe11O30
_symmetry_space_group_name_H-M   'P 1'
_cell_length_a   5.15913200
_cell_length_b   5.55996933
_cell_length_c   21.31198987
_cell_angle_alpha   94.80731121
_cell_angle_beta   89.68555435
_cell_angle_gamma   117.37538745
_symmetry_Int_Tables_number   1
_chemical_formula_structural   Ti9Fe11O30
_chemical_formula_sum   'Ti9 Fe11 O30'
_cell_volume   540.57856345
_cell_formula_units_Z   1
loop_
 _symmetry_equiv_pos_site_id
 _symmetry_equiv_pos_as_xyz
  1  'x, y, z'
loop_
 _atom_site_type_symbol
 _atom_site_label
 _atom_site_symmetry_multiplicity
 _atom_site_fract_x
 _atom_site_fract_y
 _atom_site_fract_z
 _atom_site_occupancy
  Ti  Ti0  1  0.18904700  0.41598600  0.02659100  1
  Ti  Ti1  1  0.60222600  0.20100900  0.22852200  1
  Ti  Ti2  1  0.90742900  0.80606200  0.12413300  1
  Ti  Ti3  1  0.29929400  0.59212200  0.47288300  1
  Ti  Ti4  1  0.29251400  0.60688200  0.33174200  1
  Ti  Ti5  1  0.68922200  0.38643400  0.67124300  1
  Ti  Ti6  1  0.70439400  0.40750400  0.52859700  1
  Ti  Ti7  1  0.80980100  0.61504900  0.83161900  1
  Ti  Ti8  1  0.09618300  0.17975200  0.87081200  1
  Fe  Fe0  1  0.48738100  0.99695200  0.07112200  1
  Fe  Fe1  1  0.89593000  0.78986700  0.26946000  1
  Fe  Fe2  1  0.99838400  0.00125800  0.42819400  1
  Fe  Fe3  1  0.20564100  0.39738700  0.17269800  1
  Fe  Fe4  1  0.39616400  0.80510800  0.62985300  1
  Fe  Fe5  1  0.59476700  0.19533800  0.36997000  1
  Fe  Fe6  1  0.99973700  0.99592000  0.57294200  1
  Fe  Fe7  1  0.10588100  0.20821800  0.72812800  1
  Fe  Fe8  1  0.40397500  0.79749800  0.76997200  1
  Fe  Fe9  1  0.50251400  0.00090500  0.92967000  1
  Fe  Fe10  1  0.79287400  0.57480200  0.96890800  1
  O  O0  1  0.19877500  0.16926900  0.08791900  1
  O  O1  1  0.72441900  0.08969200  0.15635700  1
  O  O2  1  0.79479000  0.24650200  0.00930600  1
  O  O3  1  0.66930000  0.57687700  0.18673000  1
  O  O4  1  0.65915700  0.68636700  0.05494000  1
  O  O5  1  0.63551300  0.96690700  0.28364200  1
  O  O6  1  0.14010700  0.63854100  0.10980000  1
  O  O7  1  0.15013200  0.89402800  0.34697200  1
  O  O8  1  0.19682000  0.03672000  0.21253400  1
  O  O9  1  0.04094700  0.36924700  0.38477700  1
  O  O10  1  0.04811500  0.49389300  0.25608100  1
  O  O11  1  0.04708400  0.74710000  0.49208400  1
  O  O12  1  0.55249500  0.46042600  0.30648000  1
  O  O13  1  0.54307100  0.69448300  0.54385000  1
  O  O14  1  0.53933400  0.81284200  0.41111400  1
  O  O15  1  0.45766900  0.18494200  0.58694500  1
  O  O16  1  0.45975800  0.31027800  0.45597200  1
  O  O17  1  0.43957300  0.54503900  0.69252100  1
  O  O18  1  0.95597300  0.25288200  0.50671700  1
  O  O19  1  0.92063700  0.49822600  0.75127900  1
  O  O20  1  0.94746700  0.62111200  0.61406800  1
  O  O21  1  0.85295700  0.97107700  0.79158400  1
  O  O22  1  0.85119100  0.11235600  0.65314800  1
  O  O23  1  0.85523700  0.36938700  0.88251600  1
  O  O24  1  0.36910900  0.05553700  0.70877400  1
  O  O25  1  0.32573800  0.30408600  0.94953000  1
  O  O26  1  0.38789200  0.43251300  0.81845000  1
  O  O27  1  0.23472600  0.74419700  0.99205800  1
  O  O28  1  0.24133400  0.89860100  0.84976400  1
  O  O29  1  0.78732200  0.84281700  0.90703000  1
loop_
_geom_bond_atom_site_label_1
_geom_bond_atom_site_label_2
_geom_bond_distance
_geom_bond_site_symmetry_2
Fe0 O1 2.085342 1_565
Fe0 O2 2.106130 1_565
Fe0 O27 2.110888 1_554
Fe0 O0 2.124055 1_565
Fe0 O6 2.199146 1_555
Fe0 O4 2.278266 1_555
Fe1 O7 1.987252 1_655
Fe1 O5 2.006792 1_555
Fe1 O8 2.016040 1_665
Fe1 O3 2.068196 1_555
Fe1 O12 2.087862 1_555
Fe1 O10 2.124352 1_655
Fe2 O7 2.050884 1_645
Fe2 O14 2.121960 1_545
Fe2 O11 2.137006 1_645
Fe2 O18 2.165815 1_555
Fe2 O9 2.234382 1_655
Fe2 O16 2.247716 1_655
Fe3 O10 2.081267 1_555
Fe3 O6 2.105253 1_555
Fe3 O0 2.109445 1_555
Fe3 O3 2.137725 1_555
Fe3 O8 2.223750 1_555
Fe3 O1 2.283728 1_455
Fe4 O20 2.071581 1_455
Fe4 O13 2.129965 1_555
Fe4 O17 2.132968 1_555
Fe4 O24 2.137948 1_565
Fe4 O22 2.204162 1_565
Fe4 O15 2.258567 1_565
Fe5 O9 2.059905 1_655
Fe5 O16 2.109976 1_555
Fe5 O7 2.156265 1_545
Fe5 O12 2.164225 1_555
Fe5 O5 2.211750 1_545
Fe5 O14 2.263596 1_545
Fe6 O22 2.045655 1_565
Fe6 O15 2.108771 1_665
Fe6 O18 2.173087 1_565
Fe6 O11 2.202202 1_655
Fe6 O13 2.225901 1_555
Fe6 O20 2.229440 1_555
Fe7 O24 1.931413 1_555
Fe7 O22 1.949455 1_455
Fe7 O21 1.991814 1_445
Fe7 O17 2.075005 1_555
Fe7 O19 2.243967 1_455
Fe7 O26 2.310240 1_555
Fe8 O28 2.041992 1_555
Fe8 O24 2.084537 1_565
Fe8 O21 2.095333 1_555
Fe8 O17 2.138692 1_555
Fe8 O19 2.286811 1_455
Fe8 O26 2.321209 1_555
Fe9 O28 2.048715 1_545
Fe9 O27 2.048956 1_545
Fe9 O29 2.067190 1_545
Fe9 O2 2.182871 1_556
Fe9 O25 2.267687 1_555
Fe9 O23 2.327055 1_555
Fe10 O27 2.070493 1_655
Fe10 O29 2.080748 1_555
Fe10 O2 2.086458 1_556
Fe10 O4 2.100351 1_556
Fe10 O23 2.185600 1_555
Fe10 O25 2.194320 1_555
O0 Ti0 1.989229 1_555
O0 Ti2 2.095248 1_445
O1 Ti1 1.826058 1_555
O1 Ti2 2.242897 1_545
O2 Ti0 1.829835 1_655
O3 Ti2 1.933921 1_555
O3 Ti1 2.218989 1_555
O4 Ti2 1.824940 1_555
O4 Ti0 2.240118 1_555
O5 Ti1 1.888827 1_565
O5 Ti4 2.292517 1_555
O6 Ti2 1.838030 1_455
O6 Ti0 2.157380 1_555
O7 Ti4 2.045205 1_555
O8 Ti1 1.877156 1_555
O8 Ti2 2.299626 1_445
O9 Ti4 1.834364 1_555
O9 Ti3 2.226302 1_555
O10 Ti4 1.925793 1_555
O10 Ti1 2.167513 1_455
O11 Ti3 1.889223 1_555
O11 Ti6 2.111308 1_455
O12 Ti4 1.917018 1_555
O12 Ti1 2.200130 1_555
O13 Ti3 1.847026 1_555
O13 Ti6 2.115575 1_555
O14 Ti3 1.904694 1_555
O14 Ti4 2.037698 1_555
O15 Ti6 1.868106 1_555
O15 Ti5 2.089311 1_555
O16 Ti6 1.880038 1_555
O16 Ti3 2.089488 1_555
O17 Ti5 1.900848 1_555
O18 Ti6 1.895640 1_555
O18 Ti3 2.087203 1_655
O19 Ti7 1.955743 1_555
O19 Ti5 1.970646 1_555
O20 Ti5 1.900610 1_555
O20 Ti6 2.143364 1_555
O21 Ti8 2.031698 1_665
O21 Ti7 2.138152 1_555
O22 Ti5 2.058676 1_555
O23 Ti7 1.908594 1_555
O23 Ti8 1.969003 1_655
O24 Ti5 2.046937 1_555
O25 Ti8 1.941506 1_555
O25 Ti0 1.949652 1_556
O26 Ti7 1.942710 1_555
O26 Ti8 1.945412 1_555
O27 Ti0 1.937769 1_556
O28 Ti8 2.039823 1_565
O28 Ti7 2.066644 1_455
O29 Ti7 1.998003 1_555
O29 Ti8 2.031745 1_665
