# generated using pymatgen
data_NaFe2O3
_symmetry_space_group_name_H-M   'P 1'
_cell_length_a   5.46144341
_cell_length_b   5.46144341
_cell_length_c   10.26570992
_cell_angle_alpha   86.40811554
_cell_angle_beta   86.40811554
_cell_angle_gamma   120.43501252
_symmetry_Int_Tables_number   1
_chemical_formula_structural   NaFe2O3
_chemical_formula_sum   'Na4 Fe8 O12'
_cell_volume   261.89776914
_cell_formula_units_Z   4
loop_
 _symmetry_equiv_pos_site_id
 _symmetry_equiv_pos_as_xyz
  1  'x, y, z'
loop_
 _atom_site_type_symbol
 _atom_site_label
 _atom_site_symmetry_multiplicity
 _atom_site_fract_x
 _atom_site_fract_y
 _atom_site_fract_z
 _atom_site_occupancy
  Na  Na0  1  0.45260700  0.80085600  0.62889500  1
  Na  Na1  1  0.80085600  0.45260700  0.62889500  1
  Na  Na2  1  0.19914400  0.54739300  0.37110500  1
  Na  Na3  1  0.54739300  0.19914400  0.37110500  1
  Fe  Fe0  1  0.29140300  0.96068200  0.12711100  1
  Fe  Fe1  1  0.70859700  0.03931800  0.87288900  1
  Fe  Fe2  1  0.16514100  0.16514100  0.60436900  1
  Fe  Fe3  1  0.96068200  0.29140300  0.12711100  1
  Fe  Fe4  1  0.37011300  0.37011300  0.87311800  1
  Fe  Fe5  1  0.62988700  0.62988700  0.12688200  1
  Fe  Fe6  1  0.03931800  0.70859700  0.87288900  1
  Fe  Fe7  1  0.83485900  0.83485900  0.39563100  1
  O  O0  1  0.66241600  0.33758400  0.00000000  1
  O  O1  1  0.33758400  0.66241600  0.00000000  1
  O  O2  1  0.61824700  0.90870100  0.24096700  1
  O  O3  1  0.00000000  0.00000000  0.00000000  1
  O  O4  1  0.38175300  0.09129900  0.75903300  1
  O  O5  1  0.86192700  0.13807300  0.50000000  1
  O  O6  1  0.27959200  0.27959200  0.21967400  1
  O  O7  1  0.09129900  0.38175300  0.75903300  1
  O  O8  1  0.50000000  0.50000000  0.50000000  1
  O  O9  1  0.90870100  0.61824700  0.24096700  1
  O  O10  1  0.72040800  0.72040800  0.78032600  1
  O  O11  1  0.13807300  0.86192700  0.50000000  1
loop_
_geom_bond_atom_site_label_1
_geom_bond_atom_site_label_2
_geom_bond_distance
_geom_bond_site_symmetry_2
Na0 O8 2.275529 1_555
Na0 O4 2.296367 1_565
Na0 O5 2.300650 1_565
Na0 O10 2.366249 1_555
Na0 O11 2.371275 1_555
Na0 O7 2.372406 1_555
Na1 O8 2.275529 1_555
Na1 O7 2.296367 1_655
Na1 O11 2.300650 1_655
Na1 O10 2.366249 1_555
Na1 O5 2.371275 1_555
Na1 O4 2.372406 1_555
Na2 O8 2.275529 1_555
Na2 O9 2.296367 1_455
Na2 O5 2.300650 1_455
Na2 O6 2.366249 1_555
Na2 O11 2.371275 1_555
Na2 O2 2.372406 1_555
Na3 O8 2.275529 1_555
Na3 O2 2.296367 1_545
Na3 O11 2.300650 1_545
Na3 O6 2.366249 1_555
Na3 O5 2.371275 1_555
Na3 O9 2.372406 1_555
Fe0 O6 2.062560 1_565
Fe0 O9 2.166126 1_455
Fe0 O3 2.202946 1_565
Fe0 O1 2.249710 1_555
Fe0 O0 2.269826 1_565
Fe0 O2 2.316535 1_555
Fe1 O10 2.062560 1_545
Fe1 O7 2.166126 1_655
Fe1 O3 2.202946 1_656
Fe1 O0 2.249710 1_556
Fe1 O1 2.269826 1_546
Fe1 O4 2.316535 1_555
Fe2 O11 1.976418 1_545
Fe2 O5 1.976418 1_455
Fe2 O8 1.989370 1_555
Fe2 O4 2.172910 1_555
Fe2 O7 2.172910 1_555
Fe3 O6 2.062560 1_655
Fe3 O2 2.166126 1_545
Fe3 O3 2.202946 1_655
Fe3 O0 2.249710 1_555
Fe3 O1 2.269826 1_655
Fe3 O9 2.316535 1_555
Fe4 O4 2.001639 1_555
Fe4 O7 2.001639 1_555
Fe4 O10 2.015615 1_555
Fe4 O0 2.189866 1_556
Fe4 O1 2.189866 1_556
Fe4 O3 2.251456 1_556
Fe5 O9 2.001639 1_555
Fe5 O2 2.001639 1_555
Fe5 O6 2.015615 1_555
Fe5 O0 2.189866 1_555
Fe5 O1 2.189866 1_555
Fe5 O3 2.251456 1_665
Fe6 O10 2.062560 1_455
Fe6 O4 2.166126 1_565
Fe6 O3 2.202946 1_566
Fe6 O1 2.249710 1_556
Fe6 O0 2.269826 1_456
Fe6 O7 2.316535 1_555
Fe7 O11 1.976418 1_655
Fe7 O5 1.976418 1_565
Fe7 O8 1.989370 1_555
Fe7 O2 2.172910 1_555
Fe7 O9 2.172910 1_555
