# generated using pymatgen
data_Te3As2(SF4)3
_symmetry_space_group_name_H-M   'P 1'
_cell_length_a   12.04556900
_cell_length_b   8.54420500
_cell_length_c   17.61056003
_cell_angle_alpha   61.97561171
_cell_angle_beta   90.00000000
_cell_angle_gamma   90.00000000
_symmetry_Int_Tables_number   1
_chemical_formula_structural   Te3As2(SF4)3
_chemical_formula_sum   'Te12 As8 S12 F48'
_cell_volume   1599.95854848
_cell_formula_units_Z   4
loop_
 _symmetry_equiv_pos_site_id
 _symmetry_equiv_pos_as_xyz
  1  'x, y, z'
loop_
 _atom_site_type_symbol
 _atom_site_label
 _atom_site_symmetry_multiplicity
 _atom_site_fract_x
 _atom_site_fract_y
 _atom_site_fract_z
 _atom_site_occupancy
  Te  Te0  1  0.85193300  0.33703800  0.46679200  1
  Te  Te1  1  0.23449100  0.40931600  0.18014900  1
  Te  Te2  1  0.26550900  0.40931600  0.68014900  1
  Te  Te3  1  0.14806700  0.66296200  0.53320800  1
  Te  Te4  1  0.69392100  0.27623100  0.83009300  1
  Te  Te5  1  0.80607900  0.27623100  0.33009300  1
  Te  Te6  1  0.30607900  0.72376900  0.16990700  1
  Te  Te7  1  0.64806700  0.33703800  0.96679200  1
  Te  Te8  1  0.76550900  0.59068400  0.81985100  1
  Te  Te9  1  0.73449100  0.59068400  0.31985100  1
  Te  Te10  1  0.35193300  0.66296200  0.03320800  1
  Te  Te11  1  0.19392100  0.72376900  0.66990700  1
  As  As0  1  0.52534400  0.08199900  0.22719300  1
  As  As1  1  0.79740500  0.70779100  0.56273900  1
  As  As2  1  0.29740500  0.29220900  0.93726100  1
  As  As3  1  0.70259500  0.70779100  0.06273900  1
  As  As4  1  0.20259500  0.29220900  0.43726100  1
  As  As5  1  0.47465600  0.91800100  0.77280700  1
  As  As6  1  0.97465600  0.08199900  0.72719300  1
  As  As7  1  0.02534400  0.91800100  0.27280700  1
  S  S0  1  0.07971300  0.77841400  0.04502200  1
  S  S1  1  0.04886700  0.51400900  0.11171200  1
  S  S2  1  0.54886700  0.48599100  0.38828800  1
  S  S3  1  0.82210400  0.21423400  0.05024200  1
  S  S4  1  0.67789600  0.21423400  0.55024200  1
  S  S5  1  0.42028700  0.77841400  0.54502200  1
  S  S6  1  0.32210400  0.78576600  0.44975800  1
  S  S7  1  0.92028700  0.22158600  0.95497800  1
  S  S8  1  0.95113300  0.48599100  0.88828800  1
  S  S9  1  0.57971300  0.22158600  0.45497800  1
  S  S10  1  0.45113300  0.51400900  0.61171200  1
  S  S11  1  0.17789600  0.78576600  0.94975800  1
  F  F0  1  0.88359000  0.98265600  0.26600700  1
  F  F1  1  0.83276700  0.14322000  0.72173000  1
  F  F2  1  0.61606000  0.64858100  0.15483800  1
  F  F3  1  0.00461600  0.28607400  0.63474000  1
  F  F4  1  0.55336200  0.98661100  0.15873900  1
  F  F5  1  0.71465000  0.76215900  0.47098200  1
  F  F6  1  0.50450300  0.81901800  0.70641900  1
  F  F7  1  0.37011500  0.08799000  0.99323800  1
  F  F8  1  0.28535000  0.23784100  0.52901800  1
  F  F9  1  0.66723300  0.14322000  0.22173000  1
  F  F10  1  0.78535000  0.76215900  0.97098200  1
  F  F11  1  0.27131700  0.49997000  0.38059100  1
  F  F12  1  0.05677300  0.12435300  0.18094600  1
  F  F13  1  0.89646600  0.60503200  0.52436300  1
  F  F14  1  0.87011500  0.91201000  0.50676200  1
  F  F15  1  0.70088500  0.80548400  0.60295700  1
  F  F16  1  0.44663800  0.01338900  0.84126100  1
  F  F17  1  0.94322700  0.87564700  0.81905400  1
  F  F18  1  0.11606000  0.35141900  0.34516200  1
  F  F19  1  0.39646600  0.39496800  0.97563700  1
  F  F20  1  0.99538400  0.71392600  0.36526000  1
  F  F21  1  0.11641000  0.01734400  0.73399300  1
  F  F22  1  0.38359000  0.01734400  0.23399300  1
  F  F23  1  0.60353400  0.60503200  0.02436300  1
  F  F24  1  0.00450300  0.18098200  0.79358100  1
  F  F25  1  0.10353400  0.39496800  0.47563700  1
  F  F26  1  0.49538400  0.28607400  0.13474000  1
  F  F27  1  0.61641000  0.98265600  0.76600700  1
  F  F28  1  0.72868300  0.50003000  0.61940900  1
  F  F29  1  0.55677300  0.87564700  0.31905400  1
  F  F30  1  0.99549700  0.81901800  0.20641900  1
  F  F31  1  0.94663800  0.98661100  0.65873900  1
  F  F32  1  0.44322700  0.12435300  0.68094600  1
  F  F33  1  0.79911500  0.80548400  0.10295700  1
  F  F34  1  0.49549700  0.18098200  0.29358100  1
  F  F35  1  0.12988500  0.08799000  0.49323800  1
  F  F36  1  0.20088500  0.19451600  0.89704300  1
  F  F37  1  0.21465000  0.23784100  0.02901800  1
  F  F38  1  0.50461600  0.71392600  0.86526000  1
  F  F39  1  0.33276700  0.85678000  0.77827000  1
  F  F40  1  0.29911500  0.19451600  0.39704300  1
  F  F41  1  0.16723300  0.85678000  0.27827000  1
  F  F42  1  0.05336200  0.01338900  0.34126100  1
  F  F43  1  0.77131700  0.50003000  0.11940900  1
  F  F44  1  0.62988500  0.91201000  0.00676200  1
  F  F45  1  0.88394000  0.64858100  0.65483800  1
  F  F46  1  0.38394000  0.35141900  0.84516200  1
  F  F47  1  0.22868300  0.49997000  0.88059100  1
loop_
_geom_bond_atom_site_label_1
_geom_bond_atom_site_label_2
_geom_bond_distance
_geom_bond_site_symmetry_2
Te0 Te5 2.746930 1_555
Te1 Te6 2.745793 1_555
Te4 Te8 2.745793 1_555
Te4 Te7 2.746930 1_555
Te5 Te9 2.745793 1_555
Te10 Te6 2.746930 1_555
Te11 Te2 2.745793 1_555
Te11 Te3 2.746930 1_555
As0 F34 1.772153 1_555
As0 F26 1.775872 1_555
As0 F4 1.776140 1_545
As0 F9 1.776717 1_555
As0 F22 1.781273 1_555
As0 F29 1.785692 1_545
As1 F15 1.762283 1_555
As1 F5 1.764994 1_555
As1 F14 1.779646 1_555
As1 F28 1.779789 1_555
As1 F45 1.789418 1_555
As1 F13 1.791377 1_555
As2 F36 1.762283 1_555
As2 F37 1.764994 1_556
As2 F7 1.779646 1_555
As2 F47 1.779789 1_555
As2 F46 1.789418 1_555
As2 F19 1.791377 1_555
As3 F33 1.762283 1_555
As3 F10 1.764994 1_554
As3 F44 1.779646 1_555
As3 F43 1.779789 1_555
As3 F2 1.789418 1_555
As3 F23 1.791377 1_555
As4 F40 1.762283 1_555
As4 F8 1.764994 1_555
As4 F35 1.779646 1_555
As4 F11 1.779789 1_555
As4 F18 1.789418 1_555
As4 F25 1.791377 1_555
As5 F6 1.772153 1_555
As5 F38 1.775872 1_555
As5 F16 1.776140 1_565
As5 F39 1.776717 1_555
As5 F27 1.781273 1_555
As5 F32 1.785692 1_565
As6 F24 1.772153 1_655
As6 F3 1.775872 1_655
As6 F31 1.776140 1_545
As6 F1 1.776717 1_555
As6 F21 1.781273 1_655
As6 F17 1.785692 1_545
As7 F30 1.772153 1_455
As7 F20 1.775872 1_455
As7 F42 1.776140 1_565
As7 F41 1.776717 1_555
As7 F0 1.781273 1_455
As7 F12 1.785692 1_565
S0 S11 2.029321 1_554
S0 S1 2.031705 1_555
S1 Te1 2.497817 1_555
S2 S9 2.031705 1_555
S2 Te9 2.497817 1_555
S3 S7 2.029321 1_554
S3 Te7 2.491277 1_554
S4 S9 2.029321 1_555
S4 Te0 2.491277 1_555
S5 S6 2.029321 1_555
S6 Te3 2.491277 1_555
S7 S8 2.031705 1_555
S8 Te8 2.497817 1_555
S10 S5 2.031705 1_555
S10 Te2 2.497817 1_555
S11 Te10 2.491277 1_556
