# generated using pymatgen
data_La5CoRe3O16
_symmetry_space_group_name_H-M   'P 1'
_cell_length_a   5.67678321
_cell_length_b   20.50729396
_cell_length_c   5.69033981
_cell_angle_alpha   93.53780995
_cell_angle_beta   89.53489121
_cell_angle_gamma   86.57742304
_symmetry_Int_Tables_number   1
_chemical_formula_structural   La5CoRe3O16
_chemical_formula_sum   'La10 Co2 Re6 O32'
_cell_volume   659.95551780
_cell_formula_units_Z   2
loop_
 _symmetry_equiv_pos_site_id
 _symmetry_equiv_pos_as_xyz
  1  'x, y, z'
loop_
 _atom_site_type_symbol
 _atom_site_label
 _atom_site_symmetry_multiplicity
 _atom_site_fract_x
 _atom_site_fract_y
 _atom_site_fract_z
 _atom_site_occupancy
  La  La0  1  0.00012200  0.24980200  0.00002000  1
  La  La1  1  0.99995900  0.75018000  0.99986000  1
  La  La2  1  0.48664400  0.09831100  0.02835900  1
  La  La3  1  0.48711400  0.59894000  0.02669500  1
  La  La4  1  0.51299200  0.40130100  0.97346800  1
  La  La5  1  0.51328000  0.90146100  0.97154300  1
  La  La6  1  0.96526900  0.10217400  0.50691100  1
  La  La7  1  0.96575700  0.60260800  0.50688600  1
  La  La8  1  0.03423200  0.39763100  0.49312300  1
  La  La9  1  0.03475600  0.89760300  0.49311900  1
  Co  Co0  1  0.49998900  0.50003800  0.50002700  1
  Co  Co1  1  0.49997100  0.99996300  0.49997900  1
  Re  Re0  1  0.99996700  0.99996900  0.00006100  1
  Re  Re1  1  0.00002400  0.50002100  0.99993200  1
  Re  Re2  1  0.55659100  0.30287200  0.44403200  1
  Re  Re3  1  0.55608100  0.80276500  0.44388900  1
  Re  Re4  1  0.44382200  0.19722400  0.55619100  1
  Re  Re5  1  0.44361100  0.69710200  0.55571700  1
  O  O0  1  0.68868600  0.21749900  0.30410600  1
  O  O1  1  0.68846400  0.71717000  0.30393100  1
  O  O2  1  0.31149100  0.28272900  0.69602100  1
  O  O3  1  0.31140100  0.78257800  0.69573000  1
  O  O4  1  0.77650000  0.33777100  0.21851900  1
  O  O5  1  0.77574600  0.83787600  0.21872400  1
  O  O6  1  0.22425200  0.16208200  0.78131600  1
  O  O7  1  0.22369100  0.66221600  0.78134700  1
  O  O8  1  0.45538200  0.40084000  0.54800000  1
  O  O9  1  0.45424300  0.90044500  0.54898000  1
  O  O10  1  0.54576800  0.09947500  0.45100400  1
  O  O11  1  0.54464100  0.59926400  0.45192100  1
  O  O12  1  0.07014700  0.40774300  0.92016000  1
  O  O13  1  0.06954800  0.90764700  0.91995100  1
  O  O14  1  0.93053900  0.09231900  0.08001300  1
  O  O15  1  0.93002800  0.59225700  0.07991300  1
  O  O16  1  0.29725200  0.31837900  0.23099200  1
  O  O17  1  0.29721300  0.81819500  0.23043200  1
  O  O18  1  0.70286000  0.18176700  0.76914700  1
  O  O19  1  0.70263100  0.68168000  0.76976900  1
  O  O20  1  0.77780500  0.31709500  0.69460000  1
  O  O21  1  0.77831900  0.81684900  0.69373000  1
  O  O22  1  0.22204400  0.18310800  0.30623200  1
  O  O23  1  0.22136700  0.68300900  0.30563300  1
  O  O24  1  0.69543900  0.00026300  0.81012900  1
  O  O25  1  0.69607200  0.50092600  0.81080900  1
  O  O26  1  0.30382000  0.49918400  0.18921400  1
  O  O27  1  0.30454800  0.99967500  0.18989100  1
  O  O28  1  0.17893400  0.01815900  0.71387500  1
  O  O29  1  0.17918400  0.51847700  0.71415700  1
  O  O30  1  0.82063000  0.48155300  0.28564800  1
  O  O31  1  0.82116800  0.98180600  0.28629300  1
loop_
_geom_bond_atom_site_label_1
_geom_bond_atom_site_label_2
_geom_bond_distance
_geom_bond_site_symmetry_2
La0 O6 2.414204 1_554
La0 O4 2.415771 1_455
La0 O18 2.571201 1_454
La0 O22 2.572528 1_555
La0 O20 2.577063 1_454
La0 O16 2.577087 1_555
La0 O0 2.605812 1_455
La0 O2 2.609541 1_554
La1 O5 2.414518 1_556
La1 O7 2.416036 1_655
La1 O17 2.570117 1_656
La1 O21 2.571174 1_555
La1 O19 2.574580 1_555
La1 O23 2.574736 1_656
La1 O3 2.606659 1_655
La1 O1 2.610888 1_556
La2 O10 2.429854 1_555
La2 O6 2.435868 1_554
La2 O24 2.524535 1_554
La2 O14 2.535918 1_555
La2 O27 2.543363 1_545
La2 O22 2.662817 1_555
La2 O18 2.672870 1_554
La3 O7 2.427950 1_554
La3 O11 2.443900 1_555
La3 O25 2.518581 1_554
La3 O15 2.531534 1_555
La3 O26 2.568059 1_555
La3 O19 2.652972 1_554
La3 O23 2.660892 1_555
La4 O4 2.429981 1_556
La4 O8 2.445192 1_555
La4 O26 2.516757 1_556
La4 O12 2.531207 1_555
La4 O25 2.565572 1_555
La4 O16 2.658212 1_556
La4 O20 2.659525 1_555
La5 O9 2.429452 1_555
La5 O5 2.434555 1_556
La5 O27 2.527194 1_556
La5 O13 2.534944 1_555
La5 O24 2.546117 1_565
La5 O21 2.661719 1_555
La5 O17 2.668639 1_556
La6 O10 2.408584 1_555
La6 O28 2.418824 1_655
La6 O14 2.435702 1_555
La6 O6 2.474899 1_655
La6 O18 2.546159 1_555
La6 O22 2.584424 1_655
La7 O11 2.417951 1_555
La7 O29 2.420829 1_655
La7 O15 2.436955 1_555
La7 O7 2.468322 1_655
La7 O19 2.544299 1_555
La7 O23 2.574351 1_655
La8 O8 2.417856 1_555
La8 O30 2.418858 1_455
La8 O12 2.437274 1_555
La8 O4 2.470641 1_455
La8 O16 2.543741 1_555
La8 O20 2.579680 1_455
La9 O9 2.408688 1_555
La9 O31 2.420951 1_455
La9 O13 2.435467 1_555
La9 O5 2.473134 1_455
La9 O17 2.545539 1_555
La9 O21 2.580496 1_455
Co0 O25 2.096952 1_555
Co0 O26 2.097372 1_555
Co0 O8 2.099016 1_555
Co0 O11 2.099769 1_555
Co0 O29 2.183827 1_555
Co0 O30 2.183915 1_555
Co1 O27 2.091770 1_555
Co1 O24 2.092203 1_565
Co1 O10 2.107643 1_565
Co1 O9 2.107722 1_555
Co1 O28 2.183750 1_565
Co1 O31 2.183780 1_555
O0 Re2 1.980655 1_555
O0 Re4 2.067118 1_555
O1 Re3 1.985054 1_555
O1 Re5 2.064681 1_555
O2 Re4 1.983164 1_555
O2 Re2 2.066878 1_555
O3 Re5 1.982803 1_555
O3 Re3 2.064923 1_555
O4 Re2 1.977720 1_555
O5 Re3 1.977421 1_555
O6 Re4 1.977202 1_555
O7 Re5 1.978087 1_555
O8 Re2 2.103899 1_555
O9 Re3 2.100648 1_555
O10 Re4 2.102204 1_555
O11 Re5 2.101011 1_555
O12 Re1 1.935638 1_555
O13 Re0 1.936384 1_456
O14 Re0 1.936650 1_545
O15 Re1 1.934920 1_654
O16 Re2 1.938759 1_555
O17 Re3 1.938019 1_555
O18 Re4 1.937002 1_555
O19 Re5 1.940821 1_555
O20 Re2 1.927823 1_555
O21 Re3 1.928256 1_555
O22 Re4 1.927097 1_555
O23 Re5 1.929320 1_555
O24 Re0 2.046106 1_546
O25 Re1 2.040718 1_655
O26 Re1 2.040463 1_554
O27 Re0 2.046051 1_455
O28 Re0 1.979059 1_446
O29 Re1 1.979166 1_555
O30 Re1 1.979644 1_654
O31 Re0 1.978634 1_555
