# generated using pymatgen
data_H5ClO6
_symmetry_space_group_name_H-M   'P 1'
_cell_length_a   6.86266800
_cell_length_b   7.41915900
_cell_length_c   10.57751300
_cell_angle_alpha   90.00000000
_cell_angle_beta   90.00000000
_cell_angle_gamma   90.00000000
_symmetry_Int_Tables_number   1
_chemical_formula_structural   H5ClO6
_chemical_formula_sum   'H20 Cl4 O24'
_cell_volume   538.55645493
_cell_formula_units_Z   4
loop_
 _symmetry_equiv_pos_site_id
 _symmetry_equiv_pos_as_xyz
  1  'x, y, z'
loop_
 _atom_site_type_symbol
 _atom_site_label
 _atom_site_symmetry_multiplicity
 _atom_site_fract_x
 _atom_site_fract_y
 _atom_site_fract_z
 _atom_site_occupancy
  H  H0  1  0.24297200  0.77371200  0.64290700  1
  H  H1  1  0.27057100  0.73069300  0.79514500  1
  H  H2  1  0.74297200  0.72628800  0.35709300  1
  H  H3  1  0.77057100  0.76930700  0.20485500  1
  H  H4  1  0.25702800  0.22628800  0.14290700  1
  H  H5  1  0.22942900  0.26930700  0.29514500  1
  H  H6  1  0.75702800  0.27371200  0.85709300  1
  H  H7  1  0.72942900  0.23069300  0.70485500  1
  H  H8  1  0.26323700  0.96364000  0.74789300  1
  H  H9  1  0.12050700  0.19350100  0.74049200  1
  H  H10  1  0.34246300  0.21651800  0.76338900  1
  H  H11  1  0.84246300  0.28348200  0.23661100  1
  H  H12  1  0.62050700  0.30649900  0.25950800  1
  H  H13  1  0.76323700  0.53636000  0.25210700  1
  H  H14  1  0.15753700  0.78348200  0.26338900  1
  H  H15  1  0.23676300  0.03636000  0.24789300  1
  H  H16  1  0.37949300  0.80649900  0.24049200  1
  H  H17  1  0.87949300  0.69350100  0.75950800  1
  H  H18  1  0.73676300  0.46364000  0.75210700  1
  H  H19  1  0.65753700  0.71651800  0.73661100  1
  Cl  Cl0  1  0.18046400  0.49111900  0.50831400  1
  Cl  Cl1  1  0.68046400  0.00888100  0.49168600  1
  Cl  Cl2  1  0.31953600  0.50888100  0.00831400  1
  Cl  Cl3  1  0.81953600  0.99111900  0.99168600  1
  O  O0  1  0.14743600  0.68796100  0.51980300  1
  O  O1  1  0.64743600  0.81203900  0.48019700  1
  O  O2  1  0.35256400  0.31203900  0.01980300  1
  O  O3  1  0.85256400  0.18796100  0.98019700  1
  O  O4  1  0.99631300  0.39685200  0.51394900  1
  O  O5  1  0.49631300  0.10314800  0.48605100  1
  O  O6  1  0.50368700  0.60314800  0.01394900  1
  O  O7  1  0.00368700  0.89685200  0.98605100  1
  O  O8  1  0.30952900  0.43483100  0.61002800  1
  O  O9  1  0.80952900  0.06516900  0.38997200  1
  O  O10  1  0.19047100  0.56516900  0.11002800  1
  O  O11  1  0.69047100  0.93483100  0.88997200  1
  O  O12  1  0.22659500  0.54147000  0.88432900  1
  O  O13  1  0.72659500  0.95853000  0.11567100  1
  O  O14  1  0.27340500  0.45853000  0.38432900  1
  O  O15  1  0.77340500  0.04147000  0.61567100  1
  O  O16  1  0.29964300  0.81980600  0.72616500  1
  O  O17  1  0.79964300  0.68019400  0.27383500  1
  O  O18  1  0.20035700  0.18019400  0.22616500  1
  O  O19  1  0.70035700  0.31980600  0.77383500  1
  O  O20  1  0.23377600  0.13394300  0.77745100  1
  O  O21  1  0.73377600  0.36605700  0.22254900  1
  O  O22  1  0.26622400  0.86605700  0.27745100  1
  O  O23  1  0.76622400  0.63394300  0.72254900  1
loop_
_geom_bond_atom_site_label_1
_geom_bond_atom_site_label_2
_geom_bond_distance
_geom_bond_site_symmetry_2
H0 O16 1.021651 1_555
H0 O0 1.590647 1_555
H1 O16 1.004632 1_555
H1 O12 1.718093 1_555
H2 O17 1.021651 1_555
H2 O1 1.590647 1_555
H3 O17 1.004632 1_555
H3 O13 1.718093 1_555
H4 O18 1.021651 1_555
H4 O2 1.590647 1_555
H5 O18 1.004632 1_555
H5 O14 1.718093 1_555
H6 O19 1.021651 1_555
H6 O3 1.590647 1_555
H7 O19 1.004632 1_555
H7 O15 1.718093 1_555
H8 O16 1.119823 1_555
H8 O20 1.317221 1_565
H9 O20 0.975867 1_555
H10 O20 0.976621 1_555
H11 O21 0.976621 1_555
H12 O21 0.975867 1_555
H13 O17 1.119823 1_555
H13 O21 1.317221 1_555
H14 O22 0.976621 1_555
H15 O18 1.119823 1_555
H15 O22 1.317221 1_545
H16 O22 0.975867 1_555
H17 O23 0.975867 1_555
H18 O19 1.119823 1_555
H18 O23 1.317221 1_555
H19 O23 0.976621 1_555
Cl0 O4 1.445612 1_455
Cl0 O8 1.454798 1_555
Cl0 O14 1.478238 1_555
Cl0 O0 1.482875 1_555
Cl1 O5 1.445612 1_555
Cl1 O9 1.454798 1_555
Cl1 O15 1.478238 1_555
Cl1 O1 1.482875 1_545
Cl2 O6 1.445612 1_555
Cl2 O10 1.454798 1_555
Cl2 O12 1.478238 1_554
Cl2 O2 1.482875 1_555
Cl3 O7 1.445612 1_655
Cl3 O11 1.454798 1_555
Cl3 O13 1.478238 1_556
Cl3 O3 1.482875 1_565
