# generated using pymatgen
data_Ca4La4Mn7NiO24
_symmetry_space_group_name_H-M   'P 1'
_cell_length_a   5.47686100
_cell_length_b   9.45473636
_cell_length_c   9.46551445
_cell_angle_alpha   70.72145259
_cell_angle_beta   89.92779246
_cell_angle_gamma   89.95948884
_symmetry_Int_Tables_number   1
_chemical_formula_structural   Ca4La4Mn7NiO24
_chemical_formula_sum   'Ca4 La4 Mn7 Ni1 O24'
_cell_volume   462.66039148
_cell_formula_units_Z   1
loop_
 _symmetry_equiv_pos_site_id
 _symmetry_equiv_pos_as_xyz
  1  'x, y, z'
loop_
 _atom_site_type_symbol
 _atom_site_label
 _atom_site_symmetry_multiplicity
 _atom_site_fract_x
 _atom_site_fract_y
 _atom_site_fract_z
 _atom_site_occupancy
  Ca  Ca0  1  0.46825300  0.61973200  0.13384900  1
  Ca  Ca1  1  0.53323300  0.87929900  0.36733500  1
  Ca  Ca2  1  0.96941500  0.88038400  0.87167400  1
  Ca  Ca3  1  0.96817900  0.38115900  0.36998000  1
  La  La0  1  0.02009500  0.62301200  0.62404600  1
  La  La1  1  0.02248200  0.12067000  0.12718500  1
  La  La2  1  0.47777200  0.12361300  0.62900100  1
  La  La3  1  0.52242900  0.37630300  0.87237600  1
  Mn  Mn0  1  0.00104800  0.00183500  0.49968800  1
  Mn  Mn1  1  0.99997500  0.50294600  0.00405400  1
  Mn  Mn2  1  0.49990000  0.75205800  0.75197800  1
  Mn  Mn3  1  0.50014600  0.25194000  0.25172200  1
  Mn  Mn4  1  0.49931400  0.99143800  0.00058900  1
  Mn  Mn5  1  0.50090900  0.50454000  0.49640800  1
  Mn  Mn6  1  0.00122600  0.74763000  0.24776700  1
  Ni  Ni0  1  0.00085200  0.24839100  0.74808600  1
  O  O0  1  0.01186500  0.15986600  0.58132500  1
  O  O1  1  0.02176400  0.66730400  0.08470300  1
  O  O2  1  0.23424400  0.08649800  0.87491200  1
  O  O3  1  0.21548500  0.59037600  0.36880300  1
  O  O4  1  0.22376800  0.88297400  0.66100300  1
  O  O5  1  0.22141400  0.37943100  0.15758900  1
  O  O6  1  0.28116300  0.38813400  0.64996700  1
  O  O7  1  0.27890000  0.08896000  0.36898500  1
  O  O8  1  0.27250600  0.59411600  0.86317100  1
  O  O9  1  0.27636500  0.88097900  0.16333300  1
  O  O10  1  0.49077700  0.66499900  0.58567400  1
  O  O11  1  0.49395300  0.15657100  0.09130200  1
  O  O12  1  0.52013700  0.83275200  0.91759500  1
  O  O13  1  0.51445600  0.34103200  0.41066400  1
  O  O14  1  0.71909600  0.11302700  0.85236000  1
  O  O15  1  0.72809400  0.90606900  0.63498700  1
  O  O16  1  0.72462900  0.61971300  0.33819100  1
  O  O17  1  0.72120100  0.40862700  0.12920400  1
  O  O18  1  0.77069700  0.61525800  0.84189800  1
  O  O19  1  0.77447500  0.11694500  0.34496900  1
  O  O20  1  0.76181800  0.40956300  0.62877800  1
  O  O21  1  0.77884000  0.90561100  0.13451100  1
  O  O22  1  0.99443600  0.34657100  0.91199000  1
  O  O23  1  0.98468300  0.83967100  0.40834900  1
loop_
_geom_bond_atom_site_label_1
_geom_bond_atom_site_label_2
_geom_bond_distance
_geom_bond_site_symmetry_2
Ca0 O12 2.367323 1_554
Ca0 O16 2.391516 1_555
Ca0 O17 2.441071 1_555
Ca0 O1 2.502326 1_555
Ca0 O3 2.554353 1_555
Ca0 O5 2.589691 1_555
Ca0 O9 2.781034 1_555
Ca0 O8 2.861719 1_554
Ca1 O10 2.380120 1_555
Ca1 O9 2.386354 1_555
Ca1 O7 2.426211 1_565
Ca1 O23 2.511883 1_555
Ca1 O21 2.521714 1_555
Ca1 O19 2.555070 1_565
Ca1 O16 2.764291 1_555
Ca1 O15 2.837620 1_555
Ca2 O1 2.350544 1_656
Ca2 O4 2.424558 1_655
Ca2 O2 2.438418 1_665
Ca2 O12 2.513180 1_555
Ca2 O15 2.544170 1_555
Ca2 O14 2.545966 1_565
Ca2 O21 2.778638 1_556
Ca2 O18 2.831717 1_555
Ca3 O0 2.381904 1_655
Ca3 O3 2.395148 1_655
Ca3 O5 2.445434 1_655
Ca3 O13 2.523846 1_555
Ca3 O16 2.550597 1_555
Ca3 O17 2.589931 1_555
Ca3 O20 2.788782 1_555
Ca3 O19 2.795854 1_555
La0 O23 2.375084 1_455
La0 O18 2.452856 1_455
La0 O20 2.453545 1_455
La0 O6 2.583173 1_555
La0 O8 2.589964 1_555
La0 O10 2.615101 1_555
La0 O3 2.750045 1_555
La0 O4 2.824966 1_555
La0 O10 2.932497 1_455
La0 O22 3.094390 1_455
La0 O15 3.147550 1_455
La0 O16 3.163483 1_455
La1 O21 2.414607 1_445
La1 O22 2.421164 1_454
La1 O19 2.457807 1_455
La1 O9 2.582822 1_545
La1 O11 2.611731 1_555
La1 O7 2.618197 1_555
La1 O2 2.766489 1_554
La1 O5 2.779354 1_555
La1 O11 2.921423 1_455
La1 O23 3.084580 1_445
La1 O14 3.109407 1_454
La1 O17 3.188002 1_455
La2 O13 2.394039 1_555
La2 O15 2.456127 1_545
La2 O14 2.468584 1_555
La2 O0 2.594586 1_555
La2 O4 2.598424 1_545
La2 O2 2.602619 1_555
La2 O6 2.788755 1_555
La2 O7 2.809065 1_555
La3 O11 2.406544 1_556
La3 O8 2.449490 1_555
La3 O6 2.458007 1_555
La3 O18 2.570857 1_555
La3 O20 2.578501 1_555
La3 O22 2.614243 1_555
La3 O17 2.772379 1_556
La3 O14 2.774766 1_555
La3 O22 2.917297 1_455
Mn0 O0 1.896239 1_555
Mn0 O19 1.954298 1_455
Mn0 O7 1.961881 1_555
Mn0 O15 1.981456 1_445
Mn0 O4 1.987973 1_545
Mn0 O23 1.995487 1_445
Mn1 O1 1.948231 1_655
Mn1 O22 1.948620 1_554
Mn1 O5 1.956640 1_655
Mn1 O17 1.956907 1_555
Mn1 O8 1.996746 1_654
Mn1 O18 1.996761 1_554
Mn2 O12 1.960155 1_555
Mn2 O15 1.960332 1_555
Mn2 O8 1.962201 1_555
Mn2 O4 1.964077 1_555
Mn2 O18 1.967364 1_555
Mn2 O10 2.003454 1_555
Mn3 O13 1.953537 1_555
Mn3 O5 1.966963 1_555
Mn3 O17 1.967196 1_555
Mn3 O19 1.980462 1_555
Mn3 O7 1.986109 1_555
Mn3 O11 2.006035 1_555
Mn4 O2 1.904473 1_564
Mn4 O12 1.912840 1_554
Mn4 O14 1.916172 1_564
Mn4 O9 1.972162 1_555
Mn4 O21 1.983185 1_555
Mn4 O11 2.015156 1_565
Mn5 O20 1.917796 1_555
Mn5 O6 1.927067 1_555
Mn5 O16 1.962225 1_555
Mn5 O10 1.965912 1_555
Mn5 O13 1.970352 1_555
Mn5 O3 1.979114 1_555
Mn6 O1 1.935268 1_555
Mn6 O3 1.943267 1_555
Mn6 O16 1.950882 1_455
Mn6 O21 1.951187 1_455
Mn6 O9 1.957891 1_555
Mn6 O23 1.987169 1_455
Ni0 O0 2.016890 1_555
Ni0 O6 2.038171 1_555
Ni0 O14 2.039181 1_455
Ni0 O20 2.043498 1_455
Ni0 O2 2.050788 1_555
Ni0 O22 2.054420 1_455
