# generated using pymatgen
data_MoP4C5S3O5
_symmetry_space_group_name_H-M   'P 1'
_cell_length_a   35.34706100
_cell_length_b   6.85523600
_cell_length_c   12.74128963
_cell_angle_alpha   82.71408560
_cell_angle_beta   90.00000000
_cell_angle_gamma   90.00000000
_symmetry_Int_Tables_number   1
_chemical_formula_structural   MoP4C5S3O5
_chemical_formula_sum   'Mo8 P32 C40 S24 O40'
_cell_volume   3062.44451341
_cell_formula_units_Z   8
loop_
 _symmetry_equiv_pos_site_id
 _symmetry_equiv_pos_as_xyz
  1  'x, y, z'
loop_
 _atom_site_type_symbol
 _atom_site_label
 _atom_site_symmetry_multiplicity
 _atom_site_fract_x
 _atom_site_fract_y
 _atom_site_fract_z
 _atom_site_occupancy
  Mo  Mo0  1  0.36884500  0.73666500  0.50735500  1
  Mo  Mo1  1  0.70499100  0.84380200  0.99908100  1
  Mo  Mo2  1  0.13115500  0.73666500  0.00735500  1
  Mo  Mo3  1  0.79500900  0.84380200  0.49908100  1
  Mo  Mo4  1  0.63115500  0.26333500  0.49264500  1
  Mo  Mo5  1  0.86884500  0.26333500  0.99264500  1
  Mo  Mo6  1  0.29500900  0.15619800  0.00091900  1
  Mo  Mo7  1  0.20499100  0.15619800  0.50091900  1
  P  P0  1  0.06935000  0.74628600  0.61410300  1
  P  P1  1  0.99753000  0.67839100  0.82445300  1
  P  P2  1  0.49120000  0.37606800  0.27656200  1
  P  P3  1  0.45155700  0.06100100  0.08231000  1
  P  P4  1  0.07571300  0.60860500  0.11742500  1
  P  P5  1  0.36187200  0.03634200  0.02232500  1
  P  P6  1  0.49753000  0.32160900  0.67554700  1
  P  P7  1  0.05644700  0.88084600  0.44587500  1
  P  P8  1  0.94355300  0.11915400  0.55412500  1
  P  P9  1  0.52901300  0.59174600  0.17462700  1
  P  P10  1  0.95155700  0.93899900  0.41769000  1
  P  P11  1  0.93065000  0.25371400  0.38589700  1
  P  P12  1  0.55644700  0.11915400  0.05412500  1
  P  P13  1  0.99120000  0.62393200  0.22343800  1
  P  P14  1  0.04844300  0.06100100  0.58231000  1
  P  P15  1  0.00247000  0.32160900  0.17554700  1
  P  P16  1  0.50880000  0.62393200  0.72343800  1
  P  P17  1  0.63812800  0.96365800  0.97767500  1
  P  P18  1  0.42428700  0.60860500  0.61742500  1
  P  P19  1  0.02901300  0.40825400  0.32537300  1
  P  P20  1  0.97098700  0.59174600  0.67462700  1
  P  P21  1  0.50247000  0.67839100  0.32445300  1
  P  P22  1  0.13812800  0.03634200  0.52232500  1
  P  P23  1  0.56935000  0.25371400  0.88589700  1
  P  P24  1  0.86187200  0.96365800  0.47767500  1
  P  P25  1  0.47098700  0.40825400  0.82537300  1
  P  P26  1  0.43065000  0.74628600  0.11410300  1
  P  P27  1  0.54844300  0.93899900  0.91769000  1
  P  P28  1  0.44355300  0.88084600  0.94587500  1
  P  P29  1  0.00880000  0.37606800  0.77656200  1
  P  P30  1  0.92428700  0.39139500  0.88257500  1
  P  P31  1  0.57571300  0.39139500  0.38257500  1
  C  C0  1  0.13581100  0.97684700  0.08761800  1
  C  C1  1  0.20912700  0.06740400  0.35188700  1
  C  C2  1  0.81326600  0.56850300  0.56424500  1
  C  C3  1  0.16765900  0.58052600  0.11465700  1
  C  C4  1  0.09522100  0.90380700  0.90748200  1
  C  C5  1  0.75871800  0.75007300  0.01594000  1
  C  C6  1  0.36418900  0.97684700  0.58761800  1
  C  C7  1  0.31326600  0.43149700  0.93575500  1
  C  C8  1  0.70912700  0.93259600  0.14811300  1
  C  C9  1  0.27491800  0.88717400  0.06780500  1
  C  C10  1  0.86418900  0.02315300  0.91238200  1
  C  C11  1  0.79756200  0.74731500  0.35230600  1
  C  C12  1  0.22508200  0.88717400  0.56780500  1
  C  C13  1  0.83234100  0.41947400  0.88534300  1
  C  C14  1  0.74128200  0.75007300  0.51594000  1
  C  C15  1  0.66765900  0.41947400  0.38534300  1
  C  C16  1  0.72508200  0.11282600  0.93219500  1
  C  C17  1  0.79087300  0.93259600  0.64811300  1
  C  C18  1  0.67564600  0.17310000  0.58560800  1
  C  C19  1  0.82435400  0.17310000  0.08560800  1
  C  C20  1  0.77491800  0.11282600  0.43219500  1
  C  C21  1  0.59522100  0.09619300  0.59251800  1
  C  C22  1  0.40477900  0.90380700  0.40748200  1
  C  C23  1  0.87358700  0.49636100  0.08094500  1
  C  C24  1  0.18673400  0.43149700  0.43575500  1
  C  C25  1  0.29756200  0.25268500  0.14769400  1
  C  C26  1  0.17564600  0.82690000  0.91439200  1
  C  C27  1  0.20243800  0.25268500  0.64769400  1
  C  C28  1  0.25871800  0.24992700  0.48406000  1
  C  C29  1  0.63581100  0.02315300  0.41238200  1
  C  C30  1  0.24128200  0.24992700  0.98406000  1
  C  C31  1  0.62641300  0.49636100  0.58094500  1
  C  C32  1  0.29087300  0.06740400  0.85188700  1
  C  C33  1  0.90477900  0.09619300  0.09251800  1
  C  C34  1  0.68673400  0.56850300  0.06424500  1
  C  C35  1  0.32435400  0.82690000  0.41439200  1
  C  C36  1  0.37358700  0.50363900  0.41905500  1
  C  C37  1  0.70243800  0.74731500  0.85230600  1
  C  C38  1  0.12641300  0.50363900  0.91905500  1
  C  C39  1  0.33234100  0.58052600  0.61465700  1
  S  S0  1  0.41611600  0.49349200  0.77912200  1
  S  S1  1  0.45398300  0.37012900  0.56491900  1
  S  S2  1  0.54601700  0.62987100  0.43508100  1
  S  S3  1  0.59814700  0.77288400  0.91896600  1
  S  S4  1  0.62788300  0.22522400  0.87140900  1
  S  S5  1  0.37211700  0.77477600  0.12859100  1
  S  S6  1  0.89024000  0.03375000  0.61360100  1
  S  S7  1  0.46999400  0.80462000  0.63338000  1
  S  S8  1  0.39024000  0.96625000  0.88639900  1
  S  S9  1  0.60976000  0.03375000  0.11360100  1
  S  S10  1  0.95398300  0.62987100  0.93508100  1
  S  S11  1  0.12788300  0.77477600  0.62859100  1
  S  S12  1  0.09814700  0.22711600  0.58103400  1
  S  S13  1  0.03000600  0.80462000  0.13338000  1
  S  S14  1  0.91611600  0.50650800  0.72087800  1
  S  S15  1  0.58388400  0.50650800  0.22087800  1
  S  S16  1  0.08388400  0.49349200  0.27912200  1
  S  S17  1  0.10976000  0.96625000  0.38639900  1
  S  S18  1  0.04601700  0.37012900  0.06491900  1
  S  S19  1  0.40185300  0.22711600  0.08103400  1
  S  S20  1  0.90185300  0.77288400  0.41896600  1
  S  S21  1  0.96999400  0.19538000  0.86662000  1
  S  S22  1  0.87211700  0.22522400  0.37140900  1
  S  S23  1  0.53000600  0.19538000  0.36662000  1
  O  O0  1  0.12380100  0.37867600  0.86597100  1
  O  O1  1  0.57461200  0.99747300  0.64713700  1
  O  O2  1  0.62380100  0.62132400  0.63402900  1
  O  O3  1  0.28762900  0.01878300  0.76849000  1
  O  O4  1  0.92538800  0.99747300  0.14713700  1
  O  O5  1  0.68793800  0.50422800  0.32458600  1
  O  O6  1  0.87619900  0.62132400  0.13402900  1
  O  O7  1  0.37619900  0.37867600  0.36597100  1
  O  O8  1  0.67759700  0.41105100  0.09905900  1
  O  O9  1  0.81206200  0.50422800  0.82458600  1
  O  O10  1  0.71011100  0.69601500  0.52469300  1
  O  O11  1  0.76312400  0.26480000  0.39597900  1
  O  O12  1  0.32240300  0.58894900  0.90094100  1
  O  O13  1  0.21011100  0.30398500  0.97530700  1
  O  O14  1  0.63791900  0.88327700  0.37018000  1
  O  O15  1  0.70163600  0.68653000  0.77145800  1
  O  O16  1  0.23687600  0.73520000  0.60402100  1
  O  O17  1  0.42538800  0.00252700  0.35286300  1
  O  O18  1  0.78988900  0.69601500  0.02469300  1
  O  O19  1  0.79878100  0.12347200  0.13983400  1
  O  O20  1  0.07461200  0.00252700  0.85286300  1
  O  O21  1  0.79836400  0.68653000  0.27145800  1
  O  O22  1  0.70121900  0.12347200  0.63983400  1
  O  O23  1  0.29836400  0.31347000  0.22854200  1
  O  O24  1  0.31206200  0.49577200  0.67541400  1
  O  O25  1  0.29878100  0.87652800  0.36016600  1
  O  O26  1  0.21237100  0.01878300  0.26849000  1
  O  O27  1  0.71237100  0.98121700  0.23151000  1
  O  O28  1  0.36208100  0.11672300  0.62982000  1
  O  O29  1  0.18793800  0.49577200  0.17541400  1
  O  O30  1  0.78762900  0.98121700  0.73151000  1
  O  O31  1  0.20163600  0.31347000  0.72854200  1
  O  O32  1  0.82240300  0.41105100  0.59905900  1
  O  O33  1  0.28988900  0.30398500  0.47530700  1
  O  O34  1  0.13791900  0.11672300  0.12982000  1
  O  O35  1  0.26312400  0.73520000  0.10402100  1
  O  O36  1  0.17759700  0.58894900  0.40094100  1
  O  O37  1  0.73687600  0.26480000  0.89597900  1
  O  O38  1  0.86208100  0.88327700  0.87018000  1
  O  O39  1  0.20121900  0.87652800  0.86016600  1
loop_
_geom_bond_atom_site_label_1
_geom_bond_atom_site_label_2
_geom_bond_distance
_geom_bond_site_symmetry_2
Mo0 P18 2.503136 1_555
Mo1 P17 2.505664 1_555
Mo2 P4 2.503136 1_555
Mo3 P24 2.505664 1_555
Mo4 P31 2.503136 1_555
Mo5 P30 2.503136 1_555
Mo6 P5 2.505664 1_555
Mo7 P22 2.505664 1_555
P0 S11 2.088540 1_555
P1 S10 2.085149 1_555
P2 S23 2.090915 1_555
P3 S19 2.092606 1_555
P4 S18 2.121169 1_555
P4 S13 2.127536 1_555
P4 S16 2.130332 1_555
P5 S8 2.108741 1_544
P5 S19 2.124896 1_555
P5 S5 2.136298 1_545
P6 S1 2.085149 1_555
P7 S17 2.087027 1_555
P8 S6 2.087027 1_555
P9 S15 2.088813 1_555
P10 S20 2.092606 1_555
P11 S22 2.088540 1_555
P12 S9 2.087027 1_555
P13 S13 2.090915 1_655
P14 S12 2.092606 1_555
P15 S18 2.085149 1_555
P16 S7 2.090915 1_555
P17 S9 2.108741 1_566
P17 S3 2.124896 1_555
P17 S4 2.136298 1_565
P18 S1 2.121169 1_555
P18 S7 2.127536 1_555
P18 S0 2.130332 1_555
P19 S16 2.088813 1_555
P20 S14 2.088813 1_555
P21 S2 2.085149 1_555
P22 S17 2.108741 1_545
P22 S12 2.124896 1_555
P22 S11 2.136298 1_545
P23 S4 2.088540 1_555
P24 S6 2.108741 1_565
P24 S20 2.124896 1_555
P24 S22 2.136298 1_565
P25 S0 2.088813 1_555
P26 S5 2.088540 1_555
P27 S3 2.092606 1_555
P28 S8 2.087027 1_555
P29 S21 2.090915 1_455
P30 S10 2.121169 1_555
P30 S21 2.127536 1_555
P30 S14 2.130332 1_555
P31 S2 2.121169 1_555
P31 S23 2.127536 1_555
P31 S15 2.130332 1_555
C0 O34 1.159705 1_565
C0 Mo2 2.052064 1_555
C1 O26 1.158949 1_555
C1 Mo7 2.071408 1_555
C2 O32 1.159598 1_555
C2 Mo3 2.066408 1_555
C3 O29 1.156098 1_555
C3 Mo2 2.075707 1_555
C4 O20 1.163400 1_565
C4 Mo2 2.043435 1_556
C5 O18 1.163295 1_555
C5 Mo1 2.007619 1_554
C6 O28 1.159705 1_565
C6 Mo0 2.052064 1_555
C7 O12 1.159598 1_555
C7 Mo6 2.066408 1_556
C8 O27 1.158949 1_555
C8 Mo1 2.071408 1_554
C9 O35 1.161967 1_555
C9 Mo6 2.057452 1_565
C10 O38 1.159705 1_545
C10 Mo5 2.052064 1_555
C11 O21 1.159497 1_555
C11 Mo3 2.063172 1_555
C12 O16 1.161967 1_555
C12 Mo7 2.057452 1_565
C13 O9 1.156098 1_555
C13 Mo5 2.075707 1_555
C14 O10 1.163295 1_555
C14 Mo3 2.007619 1_555
C15 O5 1.156098 1_555
C15 Mo4 2.075707 1_555
C16 O37 1.161967 1_555
C16 Mo1 2.057452 1_545
C17 O30 1.158949 1_555
C17 Mo3 2.071408 1_555
C18 O22 1.162140 1_555
C18 Mo4 2.018148 1_555
C19 O19 1.162140 1_555
C19 Mo5 2.018148 1_554
C20 O11 1.161967 1_555
C20 Mo3 2.057452 1_545
C21 O1 1.163400 1_545
C21 Mo4 2.043435 1_555
C22 O17 1.163400 1_565
C22 Mo0 2.043435 1_555
C23 O6 1.160516 1_555
C23 Mo5 2.074014 1_554
C24 O36 1.159598 1_555
C24 Mo7 2.066408 1_555
C25 O23 1.159497 1_555
C25 Mo6 2.063172 1_555
C26 O39 1.162140 1_555
C26 Mo2 2.018148 1_556
C27 O31 1.159497 1_555
C27 Mo7 2.063172 1_555
C28 O33 1.163295 1_555
C28 Mo7 2.007619 1_555
C29 O14 1.159705 1_545
C29 Mo4 2.052064 1_555
C30 O13 1.163295 1_555
C30 Mo6 2.007619 1_556
C31 O2 1.160516 1_555
C31 Mo4 2.074014 1_555
C32 O3 1.158949 1_555
C32 Mo6 2.071408 1_556
C33 O4 1.163400 1_545
C33 Mo5 2.043435 1_554
C34 O8 1.159598 1_555
C34 Mo1 2.066408 1_554
C35 O25 1.162140 1_555
C35 Mo0 2.018148 1_555
C36 O7 1.160516 1_555
C36 Mo0 2.074014 1_555
C37 O15 1.159497 1_555
C37 Mo1 2.063172 1_555
C38 O0 1.160516 1_555
C38 Mo2 2.074014 1_556
C39 O24 1.156098 1_555
C39 Mo0 2.075707 1_555
