# generated using pymatgen
data_Cs2SrN12
_symmetry_space_group_name_H-M   'P 1'
_cell_length_a   9.75690707
_cell_length_b   9.75690707
_cell_length_c   12.01576400
_cell_angle_alpha   90.00000000
_cell_angle_beta   90.00000000
_cell_angle_gamma   98.11128201
_symmetry_Int_Tables_number   1
_chemical_formula_structural   Cs2SrN12
_chemical_formula_sum   'Cs8 Sr4 N48'
_cell_volume   1132.42414385
_cell_formula_units_Z   4
loop_
 _symmetry_equiv_pos_site_id
 _symmetry_equiv_pos_as_xyz
  1  'x, y, z'
loop_
 _atom_site_type_symbol
 _atom_site_label
 _atom_site_symmetry_multiplicity
 _atom_site_fract_x
 _atom_site_fract_y
 _atom_site_fract_z
 _atom_site_occupancy
  Cs  Cs0  1  0.63430200  0.87620500  0.75000000  1
  Cs  Cs1  1  0.38149800  0.61850200  0.41725300  1
  Cs  Cs2  1  0.36569800  0.12379500  0.25000000  1
  Cs  Cs3  1  0.61850200  0.38149800  0.58274700  1
  Cs  Cs4  1  0.87620500  0.63430200  0.25000000  1
  Cs  Cs5  1  0.38149800  0.61850200  0.08274700  1
  Cs  Cs6  1  0.61850200  0.38149800  0.91725300  1
  Cs  Cs7  1  0.12379500  0.36569800  0.75000000  1
  Sr  Sr0  1  0.86658400  0.13341600  0.07829400  1
  Sr  Sr1  1  0.13341600  0.86658400  0.92170600  1
  Sr  Sr2  1  0.13341600  0.86658400  0.57829400  1
  Sr  Sr3  1  0.86658400  0.13341600  0.42170600  1
  N  N0  1  0.78012700  0.95872900  0.25000000  1
  N  N1  1  0.90227000  0.66307200  0.75000000  1
  N  N2  1  0.27223200  0.72776800  0.75000000  1
  N  N3  1  0.33692800  0.09773000  0.75000000  1
  N  N4  1  0.09773000  0.33692800  0.25000000  1
  N  N5  1  0.54830300  0.84510300  0.25000000  1
  N  N6  1  0.00000000  0.50000000  0.50000000  1
  N  N7  1  0.04127100  0.21987300  0.25000000  1
  N  N8  1  0.95872900  0.78012700  0.75000000  1
  N  N9  1  0.07492600  0.59527100  0.53711600  1
  N  N10  1  0.69135800  0.69135800  0.00000000  1
  N  N11  1  0.12312700  0.12312700  0.00000000  1
  N  N12  1  0.15489700  0.45169700  0.25000000  1
  N  N13  1  0.21637500  0.21637500  0.50000000  1
  N  N14  1  0.83513200  0.16486800  0.84886700  1
  N  N15  1  0.64719200  0.35280800  0.25000000  1
  N  N16  1  0.87687300  0.87687300  0.50000000  1
  N  N17  1  0.84510300  0.54830300  0.75000000  1
  N  N18  1  0.83649000  0.16351000  0.75000000  1
  N  N19  1  0.40472900  0.92507400  0.96288400  1
  N  N20  1  0.56630800  0.43369200  0.25000000  1
  N  N21  1  0.16486800  0.83513200  0.34886700  1
  N  N22  1  0.30864200  0.30864200  0.50000000  1
  N  N23  1  0.59527100  0.07492600  0.46288400  1
  N  N24  1  0.69135800  0.69135800  0.50000000  1
  N  N25  1  0.92507400  0.40472900  0.46288400  1
  N  N26  1  0.92507400  0.40472900  0.03711600  1
  N  N27  1  0.59527100  0.07492600  0.03711600  1
  N  N28  1  0.12312700  0.12312700  0.50000000  1
  N  N29  1  0.45169700  0.15489700  0.75000000  1
  N  N30  1  0.21637500  0.21637500  0.00000000  1
  N  N31  1  0.07492600  0.59527100  0.96288400  1
  N  N32  1  0.78362500  0.78362500  0.50000000  1
  N  N33  1  0.66307200  0.90227000  0.25000000  1
  N  N34  1  0.72776800  0.27223200  0.25000000  1
  N  N35  1  0.16486800  0.83513200  0.15113300  1
  N  N36  1  0.30864200  0.30864200  0.00000000  1
  N  N37  1  0.43369200  0.56630800  0.75000000  1
  N  N38  1  0.00000000  0.50000000  0.00000000  1
  N  N39  1  0.35280800  0.64719200  0.75000000  1
  N  N40  1  0.78362500  0.78362500  0.00000000  1
  N  N41  1  0.16351000  0.83649000  0.25000000  1
  N  N42  1  0.87687300  0.87687300  0.00000000  1
  N  N43  1  0.21987300  0.04127100  0.75000000  1
  N  N44  1  0.40472900  0.92507400  0.53711600  1
  N  N45  1  0.50000000  0.00000000  0.00000000  1
  N  N46  1  0.50000000  0.00000000  0.50000000  1
  N  N47  1  0.83513200  0.16486800  0.65113300  1
loop_
_geom_bond_atom_site_label_1
_geom_bond_atom_site_label_2
_geom_bond_distance
_geom_bond_site_symmetry_2
Cs0 N18 3.192040 1_565
Cs0 N39 3.286993 1_555
Cs0 N37 3.362059 1_555
Cs0 N47 3.409676 1_565
Cs0 N14 3.409676 1_565
Cs0 N8 3.425771 1_555
Cs0 N29 3.454755 1_565
Cs0 N44 3.476948 1_555
Cs0 N19 3.476948 1_555
Cs0 N32 3.511926 1_555
Cs0 N40 3.511926 1_556
Cs0 N46 3.556162 1_565
Cs0 N45 3.556162 1_566
Cs0 N1 3.562932 1_555
Cs0 N24 3.587426 1_555
Cs0 N10 3.587426 1_556
Cs1 N22 3.166640 1_555
Cs1 N24 3.166640 1_555
Cs1 N12 3.249665 1_555
Cs1 N5 3.249665 1_555
Cs1 N21 3.297094 1_555
Cs1 N44 3.298728 1_555
Cs1 N9 3.298728 1_555
Cs1 N20 3.385142 1_555
Cs2 N41 3.192040 1_545
Cs2 N15 3.286993 1_555
Cs2 N20 3.362059 1_555
Cs2 N21 3.409676 1_545
Cs2 N35 3.409676 1_545
Cs2 N7 3.425771 1_555
Cs2 N5 3.454755 1_545
Cs2 N27 3.476948 1_555
Cs2 N23 3.476948 1_555
Cs2 N30 3.511926 1_555
Cs2 N13 3.511926 1_555
Cs2 N45 3.556162 1_555
Cs2 N46 3.556162 1_555
Cs2 N4 3.562932 1_555
Cs2 N22 3.587426 1_555
Cs2 N36 3.587426 1_555
Cs3 N22 3.166640 1_555
Cs3 N24 3.166640 1_555
Cs3 N29 3.249665 1_555
Cs3 N17 3.249665 1_555
Cs3 N47 3.297094 1_555
Cs3 N25 3.298728 1_555
Cs3 N23 3.298728 1_555
Cs3 N37 3.385142 1_555
Cs4 N41 3.192040 1_655
Cs4 N15 3.286993 1_555
Cs4 N20 3.362059 1_555
Cs4 N21 3.409676 1_655
Cs4 N35 3.409676 1_655
Cs4 N0 3.425771 1_555
Cs4 N12 3.454755 1_655
Cs4 N25 3.476948 1_555
Cs4 N26 3.476948 1_555
Cs4 N32 3.511926 1_555
Cs4 N40 3.511926 1_555
Cs4 N38 3.556162 1_655
Cs4 N6 3.556162 1_655
Cs4 N33 3.562932 1_555
Cs4 N10 3.587426 1_555
Cs4 N24 3.587426 1_555
Cs5 N36 3.166640 1_555
Cs5 N10 3.166640 1_555
Cs5 N12 3.249665 1_555
Cs5 N5 3.249665 1_555
Cs5 N35 3.297094 1_555
Cs5 N19 3.298728 1_554
Cs5 N31 3.298728 1_554
Cs5 N20 3.385142 1_555
Cs6 N36 3.166640 1_556
Cs6 N10 3.166640 1_556
Cs6 N29 3.249665 1_555
Cs6 N17 3.249665 1_555
Cs6 N14 3.297094 1_555
Cs6 N26 3.298728 1_556
Cs6 N27 3.298728 1_556
Cs6 N37 3.385142 1_555
Cs7 N18 3.192040 1_455
Cs7 N39 3.286993 1_555
Cs7 N37 3.362059 1_555
Cs7 N14 3.409676 1_455
Cs7 N47 3.409676 1_455
Cs7 N43 3.425771 1_555
Cs7 N17 3.454755 1_455
Cs7 N31 3.476948 1_555
Cs7 N9 3.476948 1_555
Cs7 N30 3.511926 1_556
Cs7 N13 3.511926 1_555
Cs7 N38 3.556162 1_556
Cs7 N6 3.556162 1_555
Cs7 N3 3.562932 1_555
Cs7 N36 3.587426 1_556
Cs7 N22 3.587426 1_555
N0 N33 1.195949 1_555
N0 Sr0 2.732684 1_565
N0 Sr3 2.732684 1_565
N1 N17 1.178468 1_555
N1 N8 1.195949 1_555
N2 N39 1.187665 1_555
N2 Sr1 2.905727 1_555
N2 Sr2 2.905727 1_555
N3 N43 1.195949 1_555
N4 N7 1.195949 1_555
N6 N9 1.185591 1_555
N7 Sr3 2.732684 1_455
N7 Sr0 2.732684 1_455
N8 Sr2 2.732684 1_655
N8 Sr1 2.732684 1_655
N9 Sr2 2.674270 1_555
N10 N40 1.179902 1_555
N11 N30 1.192447 1_555
N11 Sr0 2.689119 1_455
N11 Sr1 2.689119 1_544
N12 N4 1.178468 1_555
N13 N22 1.179902 1_555
N13 N28 1.192447 1_555
N14 N18 1.188131 1_555
N14 Sr0 2.795449 1_556
N15 N34 1.187665 1_555
N15 N20 1.192205 1_555
N16 N32 1.192447 1_555
N16 Sr3 2.689119 1_565
N16 Sr2 2.689119 1_655
N18 N47 1.188131 1_555
N19 N45 1.185591 1_566
N19 Sr1 2.674270 1_555
N21 N41 1.188131 1_555
N21 Sr2 2.795449 1_555
N23 N46 1.185591 1_555
N23 Sr3 2.674270 1_555
N24 N32 1.179902 1_555
N25 N6 1.185591 1_655
N25 Sr3 2.674270 1_555
N26 N38 1.185591 1_655
N26 Sr0 2.674270 1_555
N27 N45 1.185591 1_555
N27 Sr0 2.674270 1_555
N28 Sr2 2.689119 1_545
N28 Sr3 2.689119 1_455
N29 N3 1.178468 1_555
N30 N36 1.179902 1_555
N31 N38 1.185591 1_556
N31 Sr1 2.674270 1_555
N33 N5 1.178468 1_555
N34 Sr0 2.905727 1_555
N34 Sr3 2.905727 1_555
N35 N41 1.188131 1_555
N35 Sr1 2.795449 1_554
N37 N39 1.192205 1_555
N40 N42 1.192447 1_555
N42 Sr1 2.689119 1_654
N42 Sr0 2.689119 1_565
N43 Sr1 2.732684 1_545
N43 Sr2 2.732684 1_545
N44 N46 1.185591 1_565
N44 Sr2 2.674270 1_555
N47 Sr3 2.795449 1_555
