# generated using pymatgen
data_Na2ZnH4(SeO5)2
_symmetry_space_group_name_H-M   'P 1'
_cell_length_a   5.55297960
_cell_length_b   5.90878090
_cell_length_c   7.11340712
_cell_angle_alpha   108.16449911
_cell_angle_beta   98.82027984
_cell_angle_gamma   107.82683628
_symmetry_Int_Tables_number   1
_chemical_formula_structural   Na2ZnH4(SeO5)2
_chemical_formula_sum   'Na2 Zn1 H4 Se2 O10'
_cell_volume   202.97944923
_cell_formula_units_Z   1
loop_
 _symmetry_equiv_pos_site_id
 _symmetry_equiv_pos_as_xyz
  1  'x, y, z'
loop_
 _atom_site_type_symbol
 _atom_site_label
 _atom_site_symmetry_multiplicity
 _atom_site_fract_x
 _atom_site_fract_y
 _atom_site_fract_z
 _atom_site_occupancy
  Na  Na0  1  0.34044446  0.71856930  0.24704535  1
  Na  Na1  1  0.65955554  0.28143070  0.75295465  1
  Zn  Zn0  1  -0.00000000  -0.00000000  -0.00000000  1
  H  H0  1  0.85480427  0.87423759  0.60796939  1
  H  H1  1  0.14519573  0.12576241  0.39203061  1
  H  H2  1  0.08082413  0.15235829  0.70124952  1
  H  H3  1  0.91917587  0.84764171  0.29875048  1
  Se  Se0  1  0.32934856  0.66143475  0.75960124  1
  Se  Se1  1  0.67065144  0.33856525  0.24039876  1
  O  O0  1  0.08198819  0.65643247  0.86717900  1
  O  O1  1  0.91801181  0.34356753  0.13282100  1
  O  O2  1  0.60153905  0.76910247  0.95059812  1
  O  O3  1  0.39846095  0.23089753  0.04940188  1
  O  O4  1  0.34808126  0.82822765  0.61375465  1
  O  O5  1  0.65191874  0.17177235  0.38624535  1
  O  O6  1  0.28553914  0.35855519  0.62687165  1
  O  O7  1  0.71446086  0.64144481  0.37312835  1
  O  O8  1  0.92867475  0.03884544  0.72808821  1
  O  O9  1  0.07132525  0.96115456  0.27191179  1
loop_
_geom_bond_atom_site_label_1
_geom_bond_atom_site_label_2
_geom_bond_distance
_geom_bond_site_symmetry_2
Na0 O9 2.356625 1_555
Na0 O7 2.364042 1_555
Na0 O4 2.474187 1_555
Na0 O5 2.475618 1_565
Na0 O1 2.486572 1_455
Na0 O0 2.713978 1_554
Na0 O2 2.775461 1_554
Na0 O3 2.926619 1_555
Na1 O8 2.356625 1_555
Na1 O6 2.364042 1_555
Na1 O5 2.474187 1_555
Na1 O4 2.475618 1_545
Na1 O0 2.486572 1_655
Na1 O1 2.713978 1_556
Na1 O3 2.775461 1_556
Na1 O2 2.926619 1_555
H0 O8 0.987133 1_565
H0 O7 1.673845 1_555
H1 O9 0.987133 1_545
H1 O6 1.673845 1_555
H2 O8 0.991201 1_455
H2 O6 1.671813 1_555
H3 O9 0.991201 1_655
H3 O7 1.671813 1_555
O0 Se0 1.668775 1_555
O0 Zn0 2.173258 1_566
O1 Se1 1.668775 1_555
O1 Zn0 2.173258 1_655
O2 Se0 1.666655 1_555
O2 Zn0 2.120130 1_666
O3 Se1 1.666655 1_555
O3 Zn0 2.120130 1_555
O4 Se0 1.632874 1_555
O5 Se1 1.632874 1_555
O6 Se0 1.662206 1_555
O7 Se1 1.662206 1_555
O8 Zn0 2.012036 1_656
O9 Zn0 2.012036 1_565
