# generated using pymatgen
data_La(In2Ni)3
_symmetry_space_group_name_H-M   'P 1'
_cell_length_a   4.42332200
_cell_length_b   7.64971100
_cell_length_c   11.96897600
_cell_angle_alpha   90.00000000
_cell_angle_beta   90.00000000
_cell_angle_gamma   90.00000000
_symmetry_Int_Tables_number   1
_chemical_formula_structural   La(In2Ni)3
_chemical_formula_sum   'La2 In12 Ni6'
_cell_volume   404.99585624
_cell_formula_units_Z   2
loop_
 _symmetry_equiv_pos_site_id
 _symmetry_equiv_pos_as_xyz
  1  'x, y, z'
loop_
 _atom_site_type_symbol
 _atom_site_label
 _atom_site_symmetry_multiplicity
 _atom_site_fract_x
 _atom_site_fract_y
 _atom_site_fract_z
 _atom_site_occupancy
  La  La0  1  0.50000000  0.50000000  0.67727700  1
  La  La1  1  0.00000000  0.00000000  0.32272300  1
  In  In0  1  0.00000000  0.70696700  0.83754400  1
  In  In1  1  0.00000000  0.80161500  0.58397800  1
  In  In2  1  0.00000000  0.50000000  0.25163900  1
  In  In3  1  0.50000000  0.20696700  0.16245600  1
  In  In4  1  0.00000000  0.00000000  0.01166600  1
  In  In5  1  0.00000000  0.29303300  0.83754400  1
  In  In6  1  0.50000000  0.50000000  0.98833400  1
  In  In7  1  0.50000000  0.79303300  0.16245600  1
  In  In8  1  0.50000000  0.30161500  0.41602200  1
  In  In9  1  0.00000000  0.19838500  0.58397800  1
  In  In10  1  0.50000000  0.69838500  0.41602200  1
  In  In11  1  0.50000000  0.00000000  0.74836100  1
  Ni  Ni0  1  0.50000000  0.00000000  0.53300000  1
  Ni  Ni1  1  0.00000000  0.50000000  0.46700000  1
  Ni  Ni2  1  0.00000000  0.32784400  0.06431900  1
  Ni  Ni3  1  0.00000000  0.67215600  0.06431900  1
  Ni  Ni4  1  0.50000000  0.17215600  0.93568100  1
  Ni  Ni5  1  0.50000000  0.82784400  0.93568100  1
loop_
_geom_bond_atom_site_label_1
_geom_bond_atom_site_label_2
_geom_bond_distance
_geom_bond_site_symmetry_2
La0 Ni1 3.350482 1_555
La0 Ni1 3.350482 1_655
La1 Ni0 3.350482 1_555
La1 Ni0 3.350482 1_455
In0 Ni5 2.669485 1_555
In0 Ni5 2.669485 1_455
In0 Ni3 2.727296 1_556
In0 In1 3.120095 1_555
In0 La0 3.328318 1_555
In0 La0 3.328318 1_455
In1 Ni1 2.698848 1_555
In1 Ni0 2.750783 1_565
In1 Ni0 2.750783 1_465
In1 In9 3.035176 1_565
In1 In10 3.091309 1_455
In1 In10 3.091309 1_555
In1 In11 3.326493 1_465
In1 In11 3.326493 1_565
In1 La0 3.385548 1_455
In1 La0 3.385548 1_555
In1 La1 3.475762 1_565
In2 Ni1 2.577651 1_555
In2 Ni2 2.600199 1_555
In2 Ni3 2.600199 1_555
In2 In8 3.326493 1_455
In2 In8 3.326493 1_555
In2 La1 3.918340 1_565
In2 La1 3.918340 1_555
In3 Ni2 2.669485 1_555
In3 Ni2 2.669485 1_655
In3 Ni4 2.727296 1_554
In3 In8 3.120095 1_555
In3 La1 3.328318 1_655
In3 La1 3.328318 1_555
In4 Ni2 2.585880 1_555
In4 Ni3 2.585880 1_545
In4 Ni4 2.730001 1_554
In4 Ni4 2.730001 1_454
In4 Ni5 2.730001 1_544
In4 Ni5 2.730001 1_444
In4 La1 3.723034 1_555
In5 Ni4 2.669485 1_455
In5 Ni4 2.669485 1_555
In5 Ni2 2.727296 1_556
In5 In9 3.120095 1_555
In5 La0 3.328318 1_555
In5 La0 3.328318 1_455
In6 Ni4 2.585880 1_555
In6 Ni5 2.585880 1_555
In6 Ni3 2.730001 1_556
In6 Ni2 2.730001 1_656
In6 Ni2 2.730001 1_556
In6 Ni3 2.730001 1_656
In6 La0 3.723034 1_555
In7 Ni3 2.669485 1_555
In7 Ni3 2.669485 1_655
In7 Ni5 2.727296 1_554
In7 La1 3.328318 1_565
In7 La1 3.328318 1_665
In8 Ni0 2.698848 1_555
In8 Ni1 2.750783 1_555
In8 Ni1 2.750783 1_655
In8 In9 3.091309 1_555
In8 In9 3.091309 1_655
In8 La1 3.385548 1_555
In8 La1 3.385548 1_655
In8 La0 3.475762 1_555
In9 Ni1 2.698848 1_555
In9 Ni0 2.750783 1_455
In9 Ni0 2.750783 1_555
In9 La0 3.385548 1_455
In9 La0 3.385548 1_555
In9 La1 3.475762 1_555
In10 Ni0 2.698848 1_565
In10 Ni1 2.750783 1_555
In10 Ni1 2.750783 1_655
In10 In8 3.035176 1_555
In10 In7 3.120095 1_555
In10 In2 3.326493 1_555
In10 In2 3.326493 1_655
In10 La1 3.385548 1_665
In10 La1 3.385548 1_565
In10 La0 3.475762 1_555
In11 Ni0 2.577651 1_555
In11 Ni5 2.600199 1_545
In11 Ni4 2.600199 1_555
In11 In9 3.326493 1_655
In11 In9 3.326493 1_555
In11 La0 3.918340 1_555
In11 La0 3.918340 1_545
Ni2 Ni3 2.633887 1_555
Ni4 Ni5 2.633887 1_545
