# generated using pymatgen
data_Na2CdH4(SeO5)2
_symmetry_space_group_name_H-M   'P 1'
_cell_length_a   13.59348000
_cell_length_b   5.92411800
_cell_length_c   6.09664807
_cell_angle_alpha   73.46151141
_cell_angle_beta   90.00000000
_cell_angle_gamma   90.00000000
_symmetry_Int_Tables_number   1
_chemical_formula_structural   Na2CdH4(SeO5)2
_chemical_formula_sum   'Na4 Cd2 H8 Se4 O20'
_cell_volume   470.64767749
_cell_formula_units_Z   2
loop_
 _symmetry_equiv_pos_site_id
 _symmetry_equiv_pos_as_xyz
  1  'x, y, z'
loop_
 _atom_site_type_symbol
 _atom_site_label
 _atom_site_symmetry_multiplicity
 _atom_site_fract_x
 _atom_site_fract_y
 _atom_site_fract_z
 _atom_site_occupancy
  Na  Na0  1  0.62163000  0.25194600  0.57722700  1
  Na  Na1  1  0.12163000  0.24805400  0.42277300  1
  Na  Na2  1  0.37837000  0.74805400  0.42277300  1
  Na  Na3  1  0.87837000  0.75194600  0.57722700  1
  Cd  Cd0  1  0.50000000  0.50000000  0.00000000  1
  Cd  Cd1  1  0.00000000  0.00000000  0.00000000  1
  H  H0  1  0.70699900  0.49664800  0.90081900  1
  H  H1  1  0.20699900  0.00335200  0.09918100  1
  H  H2  1  0.29300100  0.50335200  0.09918100  1
  H  H3  1  0.79300100  0.99664800  0.90081900  1
  H  H4  1  0.65706800  0.67620900  0.68524800  1
  H  H5  1  0.15706800  0.82379100  0.31475200  1
  H  H6  1  0.34293200  0.32379100  0.31475200  1
  H  H7  1  0.84293200  0.17620900  0.68524800  1
  Se  Se0  1  0.61955000  0.92551400  0.23607100  1
  Se  Se1  1  0.11955000  0.57448600  0.76392900  1
  Se  Se2  1  0.38045000  0.07448600  0.76392900  1
  Se  Se3  1  0.88045000  0.42551400  0.23607100  1
  O  O0  1  0.67342900  0.98788500  0.98076200  1
  O  O1  1  0.17342900  0.51211500  0.01923800  1
  O  O2  1  0.32657100  0.01211500  0.01923800  1
  O  O3  1  0.82657100  0.48788500  0.98076200  1
  O  O4  1  0.55551200  0.67100700  0.28793600  1
  O  O5  1  0.05551200  0.82899300  0.71206400  1
  O  O6  1  0.44448800  0.32899300  0.71206400  1
  O  O7  1  0.94448800  0.17100700  0.28793600  1
  O  O8  1  0.54025100  0.14029900  0.25207900  1
  O  O9  1  0.04025100  0.35970100  0.74792100  1
  O  O10  1  0.45974900  0.85970100  0.74792100  1
  O  O11  1  0.95974900  0.64029900  0.25207900  1
  O  O12  1  0.69895000  0.90391500  0.45115700  1
  O  O13  1  0.19895000  0.59608500  0.54884300  1
  O  O14  1  0.30105000  0.09608500  0.54884300  1
  O  O15  1  0.80105000  0.40391500  0.45115700  1
  O  O16  1  0.64648700  0.52220000  0.80368300  1
  O  O17  1  0.14648700  0.97780000  0.19631700  1
  O  O18  1  0.35351300  0.47780000  0.19631700  1
  O  O19  1  0.85351300  0.02220000  0.80368300  1
loop_
_geom_bond_atom_site_label_1
_geom_bond_atom_site_label_2
_geom_bond_distance
_geom_bond_site_symmetry_2
Na0 O16 2.417016 1_555
Na0 O8 2.517381 1_555
Na0 O0 2.608542 1_545
Na0 O12 2.616978 1_545
Na0 O6 2.626037 1_555
Na0 O15 2.637376 1_555
Na0 O4 2.754781 1_555
Na1 O17 2.417016 1_545
Na1 O9 2.517381 1_555
Na1 O1 2.608542 1_555
Na1 O13 2.616978 1_555
Na1 O7 2.626037 1_455
Na1 O14 2.637376 1_555
Na1 O5 2.754781 1_545
Na2 O18 2.417016 1_555
Na2 O10 2.517381 1_555
Na2 O2 2.608542 1_565
Na2 O14 2.616978 1_565
Na2 O4 2.626037 1_555
Na2 O13 2.637376 1_555
Na2 O6 2.754781 1_555
Na3 O19 2.417016 1_565
Na3 O11 2.517381 1_555
Na3 O3 2.608542 1_555
Na3 O15 2.616978 1_555
Na3 O5 2.626037 1_655
Na3 O12 2.637376 1_555
Na3 O7 2.754781 1_565
Cd0 O18 2.307670 1_555
Cd0 O16 2.307670 1_554
Cd0 O8 2.310321 1_555
Cd0 O10 2.310321 1_554
Cd0 O6 2.385325 1_554
Cd0 O4 2.385325 1_555
Cd1 O17 2.307670 1_545
Cd1 O19 2.307670 1_454
Cd1 O9 2.310321 1_554
Cd1 O11 2.310321 1_445
Cd1 O5 2.385325 1_544
Cd1 O7 2.385325 1_455
H0 O16 0.999601 1_555
H0 O3 1.693445 1_555
H1 O17 0.999601 1_545
H1 O2 1.693445 1_555
H2 O18 0.999601 1_555
H2 O1 1.693445 1_555
H3 O19 0.999601 1_565
H3 O0 1.693445 1_555
H4 O16 0.999706 1_555
H4 O12 1.756298 1_555
H5 O17 0.999706 1_555
H5 O13 1.756298 1_555
H6 O18 0.999706 1_555
H6 O14 1.756298 1_555
H7 O19 0.999706 1_555
H7 O15 1.756298 1_555
O0 Se0 1.663818 1_556
O1 Se1 1.663818 1_554
O2 Se2 1.663818 1_554
O3 Se3 1.663818 1_556
O4 Se0 1.691029 1_555
O5 Se1 1.691029 1_555
O6 Se2 1.691029 1_555
O7 Se3 1.691029 1_555
O8 Se0 1.691517 1_545
O9 Se1 1.691517 1_555
O10 Se2 1.691517 1_565
O11 Se3 1.691517 1_555
O12 Se0 1.674903 1_555
O13 Se1 1.674903 1_555
O14 Se2 1.674903 1_555
O15 Se3 1.674903 1_555
