# generated using pymatgen
data_Na8In6Au11
_symmetry_space_group_name_H-M   'P 1'
_cell_length_a   5.62213600
_cell_length_b   15.29192900
_cell_length_c   26.16939900
_cell_angle_alpha   90.00000000
_cell_angle_beta   90.00000000
_cell_angle_gamma   90.00000000
_symmetry_Int_Tables_number   1
_chemical_formula_structural   Na8In6Au11
_chemical_formula_sum   'Na32 In24 Au44'
_cell_volume   2249.86970986
_cell_formula_units_Z   4
loop_
 _symmetry_equiv_pos_site_id
 _symmetry_equiv_pos_as_xyz
  1  'x, y, z'
loop_
 _atom_site_type_symbol
 _atom_site_label
 _atom_site_symmetry_multiplicity
 _atom_site_fract_x
 _atom_site_fract_y
 _atom_site_fract_z
 _atom_site_occupancy
  Na  Na0  1  0.77448800  0.13754500  0.63984000  1
  Na  Na1  1  0.77448800  0.86245500  0.86016000  1
  Na  Na2  1  0.24659000  0.06381200  0.69842100  1
  Na  Na3  1  0.22984500  0.94096000  0.48371900  1
  Na  Na4  1  0.22551200  0.36245500  0.13984000  1
  Na  Na5  1  0.77323800  0.75000000  0.07071200  1
  Na  Na6  1  0.22551200  0.86245500  0.36016000  1
  Na  Na7  1  0.77323800  0.25000000  0.42928800  1
  Na  Na8  1  0.23409200  0.25000000  0.35798600  1
  Na  Na9  1  0.23409200  0.75000000  0.14201400  1
  Na  Na10  1  0.75341000  0.56381200  0.30157900  1
  Na  Na11  1  0.22984500  0.05904000  0.01628100  1
  Na  Na12  1  0.22551200  0.13754500  0.13984000  1
  Na  Na13  1  0.24659000  0.93618800  0.80157900  1
  Na  Na14  1  0.77015500  0.05904000  0.51628100  1
  Na  Na15  1  0.76590800  0.75000000  0.64201400  1
  Na  Na16  1  0.22551200  0.63754500  0.36016000  1
  Na  Na17  1  0.77448800  0.36245500  0.63984000  1
  Na  Na18  1  0.75341000  0.43618800  0.19842100  1
  Na  Na19  1  0.22984500  0.55904000  0.48371900  1
  Na  Na20  1  0.75341000  0.93618800  0.30157900  1
  Na  Na21  1  0.76590800  0.25000000  0.85798600  1
  Na  Na22  1  0.77448800  0.63754500  0.86016000  1
  Na  Na23  1  0.22676200  0.25000000  0.92928800  1
  Na  Na24  1  0.24659000  0.43618800  0.69842100  1
  Na  Na25  1  0.77015500  0.44096000  0.51628100  1
  Na  Na26  1  0.77015500  0.94096000  0.98371900  1
  Na  Na27  1  0.22676200  0.75000000  0.57071200  1
  Na  Na28  1  0.24659000  0.56381200  0.80157900  1
  Na  Na29  1  0.75341000  0.06381200  0.19842100  1
  Na  Na30  1  0.77015500  0.55904000  0.98371900  1
  Na  Na31  1  0.22984500  0.44096000  0.01628100  1
  In  In0  1  0.49648500  0.75000000  0.76347000  1
  In  In1  1  0.50351500  0.25000000  0.23653000  1
  In  In2  1  0.46893700  0.93927200  0.60469900  1
  In  In3  1  0.50088200  0.25000000  0.54552500  1
  In  In4  1  0.22879300  0.41887500  0.28362500  1
  In  In5  1  0.22879300  0.58112500  0.21637500  1
  In  In6  1  0.22879300  0.08112500  0.28362500  1
  In  In7  1  0.77120700  0.58112500  0.71637500  1
  In  In8  1  0.49648500  0.25000000  0.73653000  1
  In  In9  1  0.22879300  0.91887500  0.21637500  1
  In  In10  1  0.77120700  0.41887500  0.78362500  1
  In  In11  1  0.53106300  0.06072800  0.39530100  1
  In  In12  1  0.50088200  0.75000000  0.95447500  1
  In  In13  1  0.46893700  0.43927200  0.89530100  1
  In  In14  1  0.77120700  0.08112500  0.78362500  1
  In  In15  1  0.53106300  0.43927200  0.39530100  1
  In  In16  1  0.50351500  0.75000000  0.26347000  1
  In  In17  1  0.46893700  0.56072800  0.60469900  1
  In  In18  1  0.77120700  0.91887500  0.71637500  1
  In  In19  1  0.53106300  0.93927200  0.10469900  1
  In  In20  1  0.49911800  0.25000000  0.04552500  1
  In  In21  1  0.53106300  0.56072800  0.10469900  1
  In  In22  1  0.46893700  0.06072800  0.89530100  1
  In  In23  1  0.49911800  0.75000000  0.45447500  1
  Au  Au0  1  0.26524200  0.65229100  0.03249100  1
  Au  Au1  1  0.03634700  0.44449400  0.38588200  1
  Au  Au2  1  0.96365300  0.55550600  0.61411800  1
  Au  Au3  1  0.73475800  0.15229100  0.96750900  1
  Au  Au4  1  0.74832400  0.59401300  0.42340900  1
  Au  Au5  1  0.72978700  0.64310100  0.18974200  1
  Au  Au6  1  0.25167600  0.90598700  0.92340900  1
  Au  Au7  1  0.01816300  0.75000000  0.26032700  1
  Au  Au8  1  0.72978700  0.14310100  0.31025800  1
  Au  Au9  1  0.97820300  0.75000000  0.95440500  1
  Au  Au10  1  0.27021300  0.35689900  0.81025800  1
  Au  Au11  1  0.97820300  0.25000000  0.54559500  1
  Au  Au12  1  0.03634700  0.05550600  0.38588200  1
  Au  Au13  1  0.74832400  0.09401300  0.07659100  1
  Au  Au14  1  0.73764500  0.75000000  0.35631900  1
  Au  Au15  1  0.26524200  0.84770900  0.03249100  1
  Au  Au16  1  0.25167600  0.09401300  0.57659100  1
  Au  Au17  1  0.72978700  0.85689900  0.18974200  1
  Au  Au18  1  0.25167600  0.59401300  0.92340900  1
  Au  Au19  1  0.03634700  0.55550600  0.11411800  1
  Au  Au20  1  0.73475800  0.65229100  0.53249100  1
  Au  Au21  1  0.02179700  0.25000000  0.04559500  1
  Au  Au22  1  0.74832400  0.90598700  0.42340900  1
  Au  Au23  1  0.03634700  0.94449400  0.11411800  1
  Au  Au24  1  0.96365300  0.44449400  0.88588200  1
  Au  Au25  1  0.27021300  0.64310100  0.68974200  1
  Au  Au26  1  0.02179700  0.75000000  0.45440500  1
  Au  Au27  1  0.73475800  0.34770900  0.96750900  1
  Au  Au28  1  0.26524200  0.15229100  0.46750900  1
  Au  Au29  1  0.98183700  0.25000000  0.73967300  1
  Au  Au30  1  0.26235500  0.75000000  0.85631900  1
  Au  Au31  1  0.26235500  0.25000000  0.64368100  1
  Au  Au32  1  0.96365300  0.05550600  0.88588200  1
  Au  Au33  1  0.98183700  0.75000000  0.76032700  1
  Au  Au34  1  0.74832400  0.40598700  0.07659100  1
  Au  Au35  1  0.25167600  0.40598700  0.57659100  1
  Au  Au36  1  0.26524200  0.34770900  0.46750900  1
  Au  Au37  1  0.73475800  0.84770900  0.53249100  1
  Au  Au38  1  0.73764500  0.25000000  0.14368100  1
  Au  Au39  1  0.27021300  0.14310100  0.81025800  1
  Au  Au40  1  0.96365300  0.94449400  0.61411800  1
  Au  Au41  1  0.72978700  0.35689900  0.31025800  1
  Au  Au42  1  0.27021300  0.85689900  0.68974200  1
  Au  Au43  1  0.01816300  0.25000000  0.23967300  1
loop_
_geom_bond_atom_site_label_1
_geom_bond_atom_site_label_2
_geom_bond_distance
_geom_bond_site_symmetry_2
Na0 Na2 3.265941 1_655
Na0 Na17 3.439308 1_555
Na0 Na14 3.449213 1_555
Na0 Na2 3.525620 1_555
Na1 Na13 3.265941 1_655
Na1 Na22 3.439308 1_555
Na1 Na26 3.449213 1_555
Na1 Na13 3.525620 1_555
Na3 Na6 3.449213 1_555
Na5 Na9 3.192944 1_655
Na5 Na9 3.559435 1_555
Na7 Na8 3.192944 1_655
Na7 Na8 3.559435 1_555
Na10 Na16 3.265941 1_655
Na10 Na18 3.331150 1_555
Na10 Na16 3.525620 1_555
Na11 Na26 3.265869 1_444
Na11 Na12 3.449213 1_555
Na11 Na26 3.635130 1_544
Na11 Na23 3.702737 1_554
Na12 Na29 3.265941 1_455
Na12 Na4 3.439308 1_555
Na12 Na29 3.525620 1_555
Na13 Na2 3.331150 1_565
Na14 Na3 3.265869 1_645
Na14 Na3 3.635130 1_545
Na14 Na7 3.702737 1_555
Na15 Na27 3.192944 1_655
Na15 Na27 3.559435 1_555
Na16 Na6 3.439308 1_555
Na16 Na19 3.449213 1_555
Na17 Na24 3.265941 1_655
Na17 Na25 3.449213 1_555
Na17 Na24 3.525620 1_555
Na18 Na4 3.265941 1_655
Na18 Na4 3.525620 1_555
Na19 Na25 3.265869 1_455
Na19 Na25 3.635130 1_555
Na19 Na27 3.702737 1_555
Na20 Na6 3.265941 1_655
Na20 Na29 3.331150 1_565
Na20 Na6 3.525620 1_555
Na21 Na23 3.192944 1_655
Na21 Na23 3.559435 1_555
Na22 Na28 3.265941 1_655
Na22 Na30 3.449213 1_555
Na22 Na28 3.525620 1_555
Na23 Na31 3.702737 1_556
Na24 Na28 3.331150 1_555
Na25 Na7 3.702737 1_555
Na26 Na5 3.702737 1_556
Na27 Na3 3.702737 1_555
Na30 Na31 3.265869 1_656
Na30 Na31 3.635130 1_556
Na30 Na5 3.702737 1_556
Na31 Na4 3.449213 1_555
In0 In7 3.251676 1_555
In0 In18 3.251676 1_555
In0 Na13 3.327890 1_555
In0 Na28 3.327890 1_555
In0 Na1 3.435492 1_555
In0 Na22 3.435492 1_555
In0 Na15 3.520914 1_555
In1 In6 3.251676 1_555
In1 In4 3.251676 1_555
In1 Na18 3.327890 1_555
In1 Na29 3.327890 1_555
In1 Na4 3.435492 1_555
In1 Na12 3.435492 1_555
In1 Na8 3.520914 1_555
In2 Na27 3.319944 1_555
In2 Na2 3.347402 1_565
In2 Na14 3.402370 1_565
In2 Na3 3.439615 1_555
In2 Na15 3.481141 1_555
In2 Na0 3.604107 1_565
In3 Na14 3.377099 1_555
In3 Na25 3.377099 1_555
In3 Na17 3.378649 1_555
In3 Na0 3.378649 1_555
In3 Na7 3.405511 1_555
In4 In5 3.041900 1_555
In4 Na8 3.233675 1_555
In4 Na18 3.490698 1_455
In4 Na10 3.503739 1_455
In4 Na18 3.706910 1_555
In4 Na10 3.719193 1_555
In5 Na9 3.233675 1_555
In5 Na10 3.490698 1_455
In5 Na18 3.503739 1_455
In5 Na10 3.706910 1_555
In5 Na18 3.719193 1_555
In6 In9 3.041900 1_545
In6 Na8 3.233675 1_555
In6 Na29 3.490698 1_455
In6 Na20 3.503739 1_445
In6 Na29 3.706910 1_555
In6 Na20 3.719193 1_545
In7 Na15 3.233675 1_555
In7 Na28 3.490698 1_655
In7 Na24 3.503739 1_655
In7 Na28 3.706910 1_555
In7 Na24 3.719193 1_555
In8 Na24 3.327890 1_555
In8 Na2 3.327890 1_555
In8 Na17 3.435492 1_555
In8 Na0 3.435492 1_555
In8 Na21 3.520914 1_555
In9 Na9 3.233675 1_555
In9 Na20 3.490698 1_455
In9 Na29 3.503739 1_465
In9 Na20 3.706910 1_555
In9 Na29 3.719193 1_565
In10 In7 3.041900 1_555
In10 Na21 3.233675 1_555
In10 In8 3.251676 1_555
In10 In13 3.395030 1_555
In10 Na24 3.490698 1_655
In10 Na28 3.503739 1_655
In10 Na24 3.706910 1_555
In10 Na28 3.719193 1_555
In11 Na7 3.319944 1_555
In11 Na20 3.347402 1_545
In11 In6 3.395030 1_555
In11 Na3 3.402370 1_545
In11 Na14 3.439615 1_555
In11 Na8 3.481141 1_555
In11 Na6 3.604107 1_545
In12 Na30 3.377099 1_555
In12 Na26 3.377099 1_555
In12 Na1 3.378649 1_555
In12 Na22 3.378649 1_555
In12 Na5 3.405511 1_556
In13 Na23 3.319944 1_555
In13 Na28 3.347402 1_555
In13 Na30 3.402370 1_555
In13 Na31 3.439615 1_556
In13 Na21 3.481141 1_555
In13 Na22 3.604107 1_555
In14 In18 3.041900 1_545
In14 Na21 3.233675 1_555
In14 In8 3.251676 1_555
In14 In22 3.395030 1_555
In14 Na2 3.490698 1_655
In14 Na13 3.503739 1_645
In14 Na2 3.706910 1_555
In14 Na13 3.719193 1_545
In15 Na7 3.319944 1_555
In15 Na10 3.347402 1_555
In15 In4 3.395030 1_555
In15 Na19 3.402370 1_555
In15 Na25 3.439615 1_555
In15 Na8 3.481141 1_555
In15 Na16 3.604107 1_555
In16 In5 3.251676 1_555
In16 In9 3.251676 1_555
In16 Na20 3.327890 1_555
In16 Na10 3.327890 1_555
In16 Na6 3.435492 1_555
In16 Na16 3.435492 1_555
In16 Na9 3.520914 1_555
In17 Na27 3.319944 1_555
In17 Na24 3.347402 1_555
In17 In7 3.395030 1_555
In17 Na25 3.402370 1_555
In17 Na19 3.439615 1_555
In17 Na15 3.481141 1_555
In17 Na17 3.604107 1_555
In18 Na15 3.233675 1_555
In18 In2 3.395030 1_555
In18 Na13 3.490698 1_655
In18 Na2 3.503739 1_665
In18 Na13 3.706910 1_555
In18 Na2 3.719193 1_565
In19 Na5 3.319944 1_555
In19 Na29 3.347402 1_565
In19 In9 3.395030 1_555
In19 Na11 3.402370 1_565
In19 Na26 3.439615 1_554
In19 Na9 3.481141 1_555
In19 Na12 3.604107 1_565
In20 Na11 3.377099 1_555
In20 Na31 3.377099 1_555
In20 Na4 3.378649 1_555
In20 Na12 3.378649 1_555
In20 Na23 3.405511 1_554
In21 Na5 3.319944 1_555
In21 Na18 3.347402 1_555
In21 In5 3.395030 1_555
In21 Na31 3.402370 1_555
In21 Na30 3.439615 1_554
In21 Na9 3.481141 1_555
In21 Na4 3.604107 1_555
In22 Na23 3.319944 1_555
In22 Na13 3.347402 1_545
In22 Na26 3.402370 1_545
In22 Na11 3.439615 1_556
In22 Na21 3.481141 1_555
In22 Na1 3.604107 1_545
In23 Na19 3.377099 1_555
In23 Na3 3.377099 1_555
In23 Na6 3.378649 1_555
In23 Na16 3.378649 1_555
In23 Na27 3.405511 1_555
Au0 In21 2.786522 1_555
Au0 In12 2.855848 1_554
Au0 Au19 2.899930 1_555
Au0 Au15 2.988318 1_555
Au0 Au18 2.991459 1_554
Au0 Au9 3.002085 1_454
Au0 Na9 3.236974 1_555
Au0 Na31 3.265451 1_555
Au0 Na5 3.299142 1_455
Au0 Na5 3.374880 1_555
Au0 Na30 3.377876 1_454
Au0 Na30 3.423540 1_554
Au1 In15 2.793403 1_555
Au1 In15 2.852567 1_455
Au1 Au36 2.899930 1_555
Au1 In4 2.912921 1_555
Au1 Au41 2.946414 1_455
Au1 Au4 2.968900 1_455
Au1 Na16 3.209234 1_555
Au1 Na8 3.258023 1_555
Au1 Na10 3.275160 1_455
Au1 Na19 3.287398 1_555
Au1 Na7 3.510587 1_455
Au1 Na25 3.726599 1_455
Au2 In17 2.793403 1_555
Au2 In17 2.852567 1_655
Au2 Au20 2.899930 1_555
Au2 In7 2.912921 1_555
Au2 Au25 2.946414 1_655
Au2 Au35 2.968900 1_655
Au2 Na17 3.209234 1_555
Au2 Na15 3.258023 1_555
Au2 Na24 3.275160 1_655
Au2 Na25 3.287398 1_555
Au2 Na27 3.510587 1_655
Au2 Na19 3.726599 1_655
Au3 In22 2.786522 1_555
Au3 In20 2.855848 1_556
Au3 Au32 2.899930 1_555
Au3 Na21 3.236974 1_555
Au3 Na26 3.265451 1_545
Au3 Na23 3.299142 1_655
Au3 Na23 3.374880 1_555
Au3 Na11 3.377876 1_656
Au3 Na11 3.423540 1_556
Au4 In15 2.762675 1_555
Au4 In23 2.883364 1_555
Au4 Na19 3.178959 1_655
Au4 Na10 3.221621 1_555
Au4 Na16 3.221846 1_655
Au4 Na19 3.357672 1_555
Au4 Na25 3.376352 1_555
Au4 Na16 3.438371 1_555
Au5 In21 2.790683 1_555
Au5 In16 2.830758 1_555
Au5 Au7 2.951749 1_655
Au5 In5 3.042150 1_655
Au5 In5 3.052461 1_555
Au5 Na10 3.170704 1_555
Au5 Na18 3.175019 1_555
Au5 Na9 3.463938 1_555
Au5 Na9 3.503001 1_655
Au5 Na5 3.526297 1_555
Au6 In22 2.762675 1_565
Au6 In12 2.883364 1_555
Au6 Au9 2.951564 1_455
Au6 Na26 3.178959 1_455
Au6 Na13 3.221621 1_555
Au6 Na1 3.221846 1_455
Au6 Na26 3.357672 1_555
Au6 Na11 3.376352 1_566
Au6 Na1 3.438371 1_555
Au7 In16 2.729954 1_555
Au7 In16 2.894590 1_455
Au7 In5 3.064992 1_555
Au7 In9 3.064992 1_555
Au7 Na9 3.325670 1_555
Au7 Na6 3.337917 1_555
Au7 Na16 3.337917 1_555
Au7 Na20 3.389302 1_455
Au7 Na10 3.389302 1_455
Au8 In11 2.790683 1_555
Au8 In1 2.830758 1_555
Au8 In6 3.042150 1_655
Au8 In6 3.052461 1_555
Au8 Na29 3.170704 1_555
Au8 Na20 3.175019 1_545
Au8 Na8 3.463938 1_555
Au8 Na8 3.503001 1_655
Au8 Na7 3.526297 1_555
Au9 In12 2.683564 1_555
Au9 In12 2.938573 1_655
Au9 Na1 3.217415 1_555
Au9 Na22 3.217415 1_555
Au9 Na30 3.237882 1_555
Au9 Na26 3.237882 1_555
Au9 Na5 3.254521 1_556
Au10 In13 2.790683 1_555
Au10 In8 2.830758 1_555
Au10 Au24 2.946414 1_455
Au10 Au29 2.951749 1_455
Au10 In10 3.042150 1_455
Au10 In10 3.052461 1_555
Au10 Na24 3.170704 1_555
Au10 Na28 3.175019 1_555
Au10 Au39 3.269384 1_555
Au10 Na21 3.463938 1_555
Au10 Na21 3.503001 1_455
Au10 Na23 3.526297 1_555
Au11 In3 2.683564 1_555
Au11 In3 2.938573 1_655
Au11 Au35 2.951564 1_655
Au11 Au16 2.951564 1_655
Au11 Au36 3.002085 1_655
Au11 Au28 3.002085 1_655
Au11 Au31 3.023386 1_655
Au11 Na17 3.217415 1_555
Au11 Na0 3.217415 1_555
Au11 Na14 3.237882 1_555
Au11 Na25 3.237882 1_555
Au11 Na7 3.254521 1_555
Au12 In11 2.793403 1_555
Au12 In11 2.852567 1_455
Au12 Au28 2.899930 1_555
Au12 In6 2.912921 1_555
Au12 Au8 2.946414 1_455
Au12 Au22 2.968900 1_445
Au12 Na6 3.209234 1_545
Au12 Na8 3.258023 1_555
Au12 Na20 3.275160 1_445
Au12 Na3 3.287398 1_545
Au12 Na7 3.510587 1_455
Au12 Na14 3.726599 1_455
Au13 In19 2.762675 1_545
Au13 In20 2.883364 1_555
Au13 Au21 2.951564 1_655
Au13 Au38 2.962425 1_555
Au13 Au23 2.968900 1_645
Au13 Au3 2.991459 1_554
Au13 Na11 3.178959 1_655
Au13 Na29 3.221621 1_555
Au13 Na12 3.221846 1_655
Au13 Na11 3.357672 1_555
Au13 Na26 3.376352 1_544
Au13 Na12 3.438371 1_555
Au14 In16 2.763442 1_555
Au14 In23 2.897671 1_555
Au14 Au4 2.962425 1_555
Au14 Au22 2.962425 1_555
Au14 Au7 2.966090 1_655
Au14 Au26 3.023386 1_655
Au14 Na20 3.188471 1_555
Au14 Na10 3.188471 1_555
Au14 Na6 3.238914 1_655
Au14 Na16 3.238914 1_655
Au14 Na6 3.355231 1_555
Au14 Na16 3.355231 1_555
Au15 In19 2.786522 1_555
Au15 In12 2.855848 1_554
Au15 Au23 2.899930 1_555
Au15 Au6 2.991459 1_554
Au15 Au9 3.002085 1_454
Au15 Na9 3.236974 1_555
Au15 Na11 3.265451 1_565
Au15 Na5 3.299142 1_455
Au15 Na5 3.374880 1_555
Au15 Na26 3.377876 1_454
Au15 Na26 3.423540 1_554
Au16 In2 2.762675 1_545
Au16 In3 2.883364 1_555
Au16 Au31 2.962425 1_555
Au16 Au40 2.968900 1_445
Au16 Au28 2.991459 1_555
Au16 Na14 3.178959 1_455
Au16 Na2 3.221621 1_555
Au16 Na0 3.221846 1_455
Au16 Na14 3.357672 1_555
Au16 Na3 3.376352 1_545
Au16 Na0 3.438371 1_555
Au17 In19 2.790683 1_555
Au17 In16 2.830758 1_555
Au17 Au23 2.946414 1_655
Au17 Au7 2.951749 1_655
Au17 In9 3.042150 1_655
Au17 In9 3.052461 1_555
Au17 Na20 3.170704 1_555
Au17 Na29 3.175019 1_565
Au17 Au5 3.269384 1_555
Au17 Na9 3.463938 1_555
Au17 Na9 3.503001 1_655
Au17 Na5 3.526297 1_555
Au18 In13 2.762675 1_555
Au18 In12 2.883364 1_555
Au18 Au9 2.951564 1_455
Au18 Au30 2.962425 1_555
Au18 Au24 2.968900 1_455
Au18 Na30 3.178959 1_455
Au18 Na28 3.221621 1_555
Au18 Na22 3.221846 1_455
Au18 Na30 3.357672 1_555
Au18 Na31 3.376352 1_556
Au18 Na22 3.438371 1_555
Au19 In21 2.793403 1_555
Au19 In21 2.852567 1_455
Au19 In5 2.912921 1_555
Au19 Au5 2.946414 1_455
Au19 Au34 2.968900 1_455
Au19 Na4 3.209234 1_555
Au19 Na9 3.258023 1_555
Au19 Na18 3.275160 1_455
Au19 Na31 3.287398 1_555
Au19 Na5 3.510587 1_455
Au19 Na30 3.726599 1_454
Au20 In17 2.786522 1_555
Au20 In23 2.855848 1_555
Au20 Au37 2.988318 1_555
Au20 Au4 2.991459 1_555
Au20 Au26 3.002085 1_655
Au20 Na15 3.236974 1_555
Au20 Na25 3.265451 1_555
Au20 Na27 3.299142 1_655
Au20 Na27 3.374880 1_555
Au20 Na19 3.377876 1_655
Au20 Na19 3.423540 1_555
Au21 In20 2.683564 1_555
Au21 In20 2.938573 1_455
Au21 Au34 2.951564 1_455
Au21 Au27 3.002085 1_454
Au21 Au3 3.002085 1_454
Au21 Au38 3.023386 1_455
Au21 Na4 3.217415 1_555
Au21 Na12 3.217415 1_555
Au21 Na11 3.237882 1_555
Au21 Na31 3.237882 1_555
Au21 Na23 3.254521 1_554
Au22 In11 2.762675 1_565
Au22 In23 2.883364 1_555
Au22 Au26 2.951564 1_655
Au22 Au37 2.991459 1_555
Au22 Na3 3.178959 1_655
Au22 Na20 3.221621 1_555
Au22 Na6 3.221846 1_655
Au22 Na3 3.357672 1_555
Au22 Na14 3.376352 1_565
Au22 Na6 3.438371 1_555
Au23 In19 2.793403 1_555
Au23 In19 2.852567 1_455
Au23 In9 2.912921 1_555
Au23 Na12 3.209234 1_565
Au23 Na9 3.258023 1_555
Au23 Na29 3.275160 1_465
Au23 Na11 3.287398 1_565
Au23 Na5 3.510587 1_455
Au23 Na26 3.726599 1_454
Au24 In13 2.793403 1_555
Au24 In13 2.852567 1_655
Au24 Au27 2.899930 1_555
Au24 In10 2.912921 1_555
Au24 Na22 3.209234 1_555
Au24 Na21 3.258023 1_555
Au24 Na28 3.275160 1_655
Au24 Na30 3.287398 1_555
Au24 Na23 3.510587 1_655
Au24 Na31 3.726599 1_656
Au25 In17 2.790683 1_555
Au25 In0 2.830758 1_555
Au25 Au33 2.951749 1_455
Au25 In7 3.042150 1_455
Au25 In7 3.052461 1_555
Au25 Na28 3.170704 1_555
Au25 Na24 3.175019 1_555
Au25 Au42 3.269384 1_555
Au25 Na15 3.463938 1_555
Au25 Na15 3.503001 1_455
Au25 Na27 3.526297 1_555
Au26 In23 2.683564 1_555
Au26 In23 2.938573 1_455
Au26 Au4 2.951564 1_455
Au26 Au37 3.002085 1_455
Au26 Na6 3.217415 1_555
Au26 Na16 3.217415 1_555
Au26 Na19 3.237882 1_555
Au26 Na3 3.237882 1_555
Au26 Na27 3.254521 1_555
Au27 In13 2.786522 1_555
Au27 In20 2.855848 1_556
Au27 Au3 2.988318 1_555
Au27 Au34 2.991459 1_556
Au27 Na21 3.236974 1_555
Au27 Na30 3.265451 1_555
Au27 Na23 3.299142 1_655
Au27 Na23 3.374880 1_555
Au27 Na31 3.377876 1_656
Au27 Na31 3.423540 1_556
Au28 In11 2.786522 1_555
Au28 In3 2.855848 1_555
Au28 Au36 2.988318 1_555
Au28 Na8 3.236974 1_555
Au28 Na3 3.265451 1_545
Au28 Na7 3.299142 1_455
Au28 Na7 3.374880 1_555
Au28 Na14 3.377876 1_455
Au28 Na14 3.423540 1_555
Au29 In8 2.729954 1_555
Au29 In8 2.894590 1_655
Au29 Au39 2.951749 1_655
Au29 Au31 2.966090 1_655
Au29 In14 3.064992 1_555
Au29 In10 3.064992 1_555
Au29 Na21 3.325670 1_555
Au29 Na17 3.337917 1_555
Au29 Na0 3.337917 1_555
Au29 Na24 3.389302 1_655
Au29 Na2 3.389302 1_655
Au30 In0 2.763442 1_555
Au30 In12 2.897671 1_555
Au30 Au6 2.962425 1_555
Au30 Au33 2.966090 1_455
Au30 Au9 3.023386 1_455
Au30 Na13 3.188471 1_555
Au30 Na28 3.188471 1_555
Au30 Na1 3.238914 1_455
Au30 Na22 3.238914 1_455
Au30 Na1 3.355231 1_555
Au30 Na22 3.355231 1_555
Au31 In8 2.763442 1_555
Au31 In3 2.897671 1_555
Au31 Au35 2.962425 1_555
Au31 Na24 3.188471 1_555
Au31 Na2 3.188471 1_555
Au31 Na17 3.238914 1_455
Au31 Na0 3.238914 1_455
Au31 Na17 3.355231 1_555
Au31 Na0 3.355231 1_555
Au32 In22 2.793403 1_555
Au32 In22 2.852567 1_655
Au32 In14 2.912921 1_555
Au32 Au39 2.946414 1_655
Au32 Au6 2.968900 1_645
Au32 Na1 3.209234 1_545
Au32 Na21 3.258023 1_555
Au32 Na13 3.275160 1_645
Au32 Na26 3.287398 1_545
Au32 Na23 3.510587 1_655
Au32 Na11 3.726599 1_656
Au33 In0 2.729954 1_555
Au33 In0 2.894590 1_655
Au33 Au42 2.951749 1_655
Au33 In18 3.064992 1_555
Au33 In7 3.064992 1_555
Au33 Na15 3.325670 1_555
Au33 Na1 3.337917 1_555
Au33 Na22 3.337917 1_555
Au33 Na13 3.389302 1_655
Au33 Na28 3.389302 1_655
Au34 In21 2.762675 1_555
Au34 In20 2.883364 1_555
Au34 Au38 2.962425 1_555
Au34 Na31 3.178959 1_655
Au34 Na18 3.221621 1_555
Au34 Na4 3.221846 1_655
Au34 Na31 3.357672 1_555
Au34 Na30 3.376352 1_554
Au34 Na4 3.438371 1_555
Au35 In17 2.762675 1_555
Au35 In3 2.883364 1_555
Au35 Au36 2.991459 1_555
Au35 Na25 3.178959 1_455
Au35 Na24 3.221621 1_555
Au35 Na17 3.221846 1_455
Au35 Na25 3.357672 1_555
Au35 Na19 3.376352 1_555
Au35 Na17 3.438371 1_555
Au36 In15 2.786522 1_555
Au36 In3 2.855848 1_555
Au36 Na8 3.236974 1_555
Au36 Na19 3.265451 1_555
Au36 Na7 3.299142 1_455
Au36 Na7 3.374880 1_555
Au36 Na25 3.377876 1_455
Au36 Na25 3.423540 1_555
Au37 In2 2.786522 1_555
Au37 In23 2.855848 1_555
Au37 Au40 2.899930 1_555
Au37 Na15 3.236974 1_555
Au37 Na14 3.265451 1_565
Au37 Na27 3.299142 1_655
Au37 Na27 3.374880 1_555
Au37 Na3 3.377876 1_655
Au37 Na3 3.423540 1_555
Au38 In1 2.763442 1_555
Au38 In20 2.897671 1_555
Au38 Au43 2.966090 1_655
Au38 Na18 3.188471 1_555
Au38 Na29 3.188471 1_555
Au38 Na4 3.238914 1_655
Au38 Na12 3.238914 1_655
Au38 Na4 3.355231 1_555
Au38 Na12 3.355231 1_555
Au39 In22 2.790683 1_555
Au39 In8 2.830758 1_555
Au39 In14 3.042150 1_455
Au39 In14 3.052461 1_555
Au39 Na2 3.170704 1_555
Au39 Na13 3.175019 1_545
Au39 Na21 3.463938 1_555
Au39 Na21 3.503001 1_455
Au39 Na23 3.526297 1_555
Au40 In2 2.793403 1_555
Au40 In2 2.852567 1_655
Au40 In18 2.912921 1_555
Au40 Au42 2.946414 1_655
Au40 Na0 3.209234 1_565
Au40 Na15 3.258023 1_555
Au40 Na2 3.275160 1_665
Au40 Na14 3.287398 1_565
Au40 Na27 3.510587 1_655
Au40 Na3 3.726599 1_655
Au41 In15 2.790683 1_555
Au41 In1 2.830758 1_555
Au41 Au43 2.951749 1_655
Au41 In4 3.042150 1_655
Au41 In4 3.052461 1_555
Au41 Na18 3.170704 1_555
Au41 Na10 3.175019 1_555
Au41 Au8 3.269384 1_555
Au41 Na8 3.463938 1_555
Au41 Na8 3.503001 1_655
Au41 Na7 3.526297 1_555
Au42 In2 2.790683 1_555
Au42 In0 2.830758 1_555
Au42 In18 3.042150 1_455
Au42 In18 3.052461 1_555
Au42 Na13 3.170704 1_555
Au42 Na2 3.175019 1_565
Au42 Na15 3.463938 1_555
Au42 Na15 3.503001 1_455
Au42 Na27 3.526297 1_555
Au43 In1 2.729954 1_555
Au43 In1 2.894590 1_455
Au43 Au8 2.951749 1_455
Au43 In4 3.064992 1_555
Au43 In6 3.064992 1_555
Au43 Na8 3.325670 1_555
Au43 Na4 3.337917 1_555
Au43 Na12 3.337917 1_555
Au43 Na18 3.389302 1_455
Au43 Na29 3.389302 1_455
