# generated using pymatgen
data_Tl2CuF3
_symmetry_space_group_name_H-M   'P 1'
_cell_length_a   6.19909800
_cell_length_b   6.58240857
_cell_length_c   20.98255012
_cell_angle_alpha   95.21345787
_cell_angle_beta   89.36044638
_cell_angle_gamma   104.60428604
_symmetry_Int_Tables_number   1
_chemical_formula_structural   Tl2CuF3
_chemical_formula_sum   'Tl12 Cu6 F18'
_cell_volume   825.04066201
_cell_formula_units_Z   6
loop_
 _symmetry_equiv_pos_site_id
 _symmetry_equiv_pos_as_xyz
  1  'x, y, z'
loop_
 _atom_site_type_symbol
 _atom_site_label
 _atom_site_symmetry_multiplicity
 _atom_site_fract_x
 _atom_site_fract_y
 _atom_site_fract_z
 _atom_site_occupancy
  Tl  Tl0  1  0.28061400  0.65909800  0.99480000  1
  Tl  Tl1  1  0.69232400  0.05786000  0.82084800  1
  Tl  Tl2  1  0.97371100  0.61251600  0.84306700  1
  Tl  Tl3  1  0.02942500  0.39152300  0.65127300  1
  Tl  Tl4  1  0.30192200  0.94008500  0.68246800  1
  Tl  Tl5  1  0.36396200  0.72531200  0.48546600  1
  Tl  Tl6  1  0.63603800  0.27468800  0.51453400  1
  Tl  Tl7  1  0.69807800  0.05991500  0.31753200  1
  Tl  Tl8  1  0.97057500  0.60847700  0.34872700  1
  Tl  Tl9  1  0.02628900  0.38748400  0.15693300  1
  Tl  Tl10  1  0.30767600  0.94214000  0.17915200  1
  Tl  Tl11  1  0.71938600  0.34090200  0.00520000  1
  Cu  Cu0  1  0.35180300  0.35227300  0.83157200  1
  Cu  Cu1  1  0.66780300  0.66858600  0.66660900  1
  Cu  Cu2  1  0.00000000  0.00000000  0.00000000  1
  Cu  Cu3  1  0.00000000  0.00000000  0.50000000  1
  Cu  Cu4  1  0.33219700  0.33141400  0.33339100  1
  Cu  Cu5  1  0.64819700  0.64772700  0.16842800  1
  F  F0  1  0.07895700  0.05127800  0.08490700  1
  F  F1  1  0.48019500  0.42173600  0.91200000  1
  F  F2  1  0.33125100  0.81732400  0.81831900  1
  F  F3  1  0.79301300  0.73389800  0.74753700  1
  F  F4  1  0.21860100  0.27705300  0.75253900  1
  F  F5  1  0.67056900  0.16283300  0.66924300  1
  F  F6  1  0.11764400  0.06296700  0.58117500  1
  F  F7  1  0.54380800  0.60364400  0.58620400  1
  F  F8  1  0.00000000  0.50000000  0.50000000  1
  F  F9  1  0.45619200  0.39635600  0.41379600  1
  F  F10  1  0.88235600  0.93703300  0.41882500  1
  F  F11  1  0.32943100  0.83716700  0.33075700  1
  F  F12  1  0.78139900  0.72294700  0.24746100  1
  F  F13  1  0.20698700  0.26610200  0.25246300  1
  F  F14  1  0.66874900  0.18267600  0.18168100  1
  F  F15  1  0.51980500  0.57826400  0.08800000  1
  F  F16  1  0.92104300  0.94872200  0.91509300  1
  F  F17  1  0.50000000  0.00000000  0.00000000  1
loop_
_geom_bond_atom_site_label_1
_geom_bond_atom_site_label_2
_geom_bond_distance
_geom_bond_site_symmetry_2
Cu0 F4 1.830893 1_555
Cu0 F1 1.843020 1_555
Cu1 F7 1.830866 1_555
Cu1 F3 1.843701 1_555
Cu2 F16 1.831488 1_444
Cu2 F0 1.831488 1_555
Cu3 F6 1.830776 1_555
Cu3 F10 1.830776 1_445
Cu4 F9 1.830866 1_555
Cu4 F13 1.843701 1_555
Cu5 F12 1.830893 1_555
Cu5 F15 1.843020 1_555
F0 Tl9 2.652112 1_555
F0 Tl10 2.696537 1_545
F1 Tl11 2.637740 1_556
F1 Tl0 2.724660 1_555
F2 Tl2 2.365240 1_455
F2 Tl1 2.391653 1_565
F3 Tl2 2.589117 1_555
F3 Tl1 2.712346 1_565
F4 Tl3 2.692594 1_555
F4 Tl4 2.704884 1_545
F5 Tl3 2.398474 1_655
F5 Tl4 2.412337 1_545
F6 Tl3 2.672086 1_555
F6 Tl4 2.703532 1_545
F7 Tl5 2.676334 1_555
F7 Tl6 2.700061 1_555
F8 Tl5 2.400535 1_555
F8 Tl6 2.400535 1_455
F9 Tl6 2.676334 1_555
F9 Tl5 2.700061 1_555
F10 Tl8 2.672086 1_555
F10 Tl7 2.703532 1_565
F11 Tl8 2.398474 1_455
F11 Tl7 2.412337 1_565
F12 Tl8 2.692594 1_555
F12 Tl7 2.704884 1_565
F13 Tl9 2.589117 1_555
F13 Tl10 2.712346 1_545
F14 Tl9 2.365240 1_655
F14 Tl10 2.391653 1_545
F15 Tl0 2.637740 1_554
F15 Tl11 2.724660 1_555
F16 Tl2 2.652112 1_555
F16 Tl1 2.696537 1_565
F17 Tl0 2.305795 1_544
F17 Tl11 2.305795 1_555
