# generated using pymatgen
data_La2CuO4
_symmetry_space_group_name_H-M   'P 1'
_cell_length_a   19.94036899
_cell_length_b   19.94036899
_cell_length_c   5.43927500
_cell_angle_alpha   90.00000000
_cell_angle_beta   90.00000000
_cell_angle_gamma   164.48996247
_symmetry_Int_Tables_number   1
_chemical_formula_structural   La2CuO4
_chemical_formula_sum   'La12 Cu6 O24'
_cell_volume   578.33633082
_cell_formula_units_Z   6
loop_
 _symmetry_equiv_pos_site_id
 _symmetry_equiv_pos_as_xyz
  1  'x, y, z'
loop_
 _atom_site_type_symbol
 _atom_site_label
 _atom_site_symmetry_multiplicity
 _atom_site_fract_x
 _atom_site_fract_y
 _atom_site_fract_z
 _atom_site_occupancy
  La  La0  1  0.20348500  0.79651500  0.48802600  1
  La  La1  1  0.12960000  0.87040000  0.99032600  1
  La  La2  1  0.87040000  0.12960000  0.49032600  1
  La  La3  1  0.79651500  0.20348500  0.98802600  1
  La  La4  1  0.70362900  0.29637100  0.01015800  1
  La  La5  1  0.62971600  0.37028400  0.50940200  1
  La  La6  1  0.53701600  0.46298400  0.50352300  1
  La  La7  1  0.46298400  0.53701600  0.00352300  1
  La  La8  1  0.37028400  0.62971600  0.00940200  1
  La  La9  1  0.29637100  0.70362900  0.51015800  1
  La  La10  1  0.03669400  0.96330600  0.99375900  1
  La  La11  1  0.96330600  0.03669400  0.49375900  1
  Cu  Cu0  1  0.74992100  0.25007900  0.49943500  1
  Cu  Cu1  1  0.58319100  0.41680900  0.99936000  1
  Cu  Cu2  1  0.41680900  0.58319100  0.49936000  1
  Cu  Cu3  1  0.25007900  0.74992100  0.99943500  1
  Cu  Cu4  1  0.08308900  0.91691100  0.49609500  1
  Cu  Cu5  1  0.91691100  0.08308900  0.99609500  1
  O  O0  1  0.83186300  0.66487200  0.24657500  1
  O  O1  1  0.18801500  0.81198500  0.03557400  1
  O  O2  1  0.14500200  0.85499800  0.52776800  1
  O  O3  1  0.50188500  0.99759700  0.25035900  1
  O  O4  1  0.49811500  0.00240300  0.75035900  1
  O  O5  1  0.33512800  0.16813700  0.24657500  1
  O  O6  1  0.85499800  0.14500200  0.02776800  1
  O  O7  1  0.81198500  0.18801500  0.53557400  1
  O  O8  1  0.68794400  0.31205600  0.46315300  1
  O  O9  1  0.64545600  0.35454400  0.96329300  1
  O  O10  1  0.16363500  0.33044100  0.24845800  1
  O  O11  1  0.16813700  0.33512800  0.74657500  1
  O  O12  1  0.00240300  0.49811500  0.25035900  1
  O  O13  1  0.99759700  0.50188500  0.75035900  1
  O  O14  1  0.52070500  0.47929500  0.93803900  1
  O  O15  1  0.47929500  0.52070500  0.43803900  1
  O  O16  1  0.35454400  0.64545600  0.46329300  1
  O  O17  1  0.31205600  0.68794400  0.96315300  1
  O  O18  1  0.83636500  0.66955900  0.74845800  1
  O  O19  1  0.66955900  0.83636500  0.24845800  1
  O  O20  1  0.66487200  0.83186300  0.74657500  1
  O  O21  1  0.02156700  0.97843300  0.48021300  1
  O  O22  1  0.97843300  0.02156700  0.98021300  1
  O  O23  1  0.33044100  0.16363500  0.74845800  1
loop_
_geom_bond_atom_site_label_1
_geom_bond_atom_site_label_2
_geom_bond_distance
_geom_bond_site_symmetry_2
La0 O2 2.321102 1_555
La0 O1 2.535799 1_555
La0 O13 2.631361 1_455
La0 O4 2.631361 1_565
La0 O12 2.678542 1_555
La0 O3 2.678542 1_555
La0 O8 2.763214 1_455
La0 O8 2.763214 1_565
La0 O1 3.040355 1_556
La1 O1 2.321410 1_556
La1 O2 2.588548 1_555
La1 O18 2.613548 1_455
La1 O23 2.613548 1_565
La1 O0 2.663755 1_456
La1 O5 2.663755 1_566
La1 O9 2.766607 1_455
La1 O9 2.766607 1_565
La1 O2 2.985980 1_556
La2 O7 2.321410 1_555
La2 O6 2.588548 1_555
La2 O10 2.613548 1_655
La2 O19 2.613548 1_545
La2 O20 2.663755 1_545
La2 O11 2.663755 1_655
La2 O16 2.766607 1_545
La2 O16 2.766607 1_655
La2 O6 2.985980 1_556
La3 O6 2.321102 1_556
La3 O7 2.535799 1_555
La3 O3 2.631361 1_546
La3 O12 2.631361 1_656
La3 O4 2.678542 1_555
La3 O13 2.678542 1_555
La3 O17 2.763214 1_545
La3 O17 2.763214 1_655
La3 O7 3.040355 1_556
La4 O9 2.312854 1_554
La4 O8 2.540725 1_555
La4 O13 2.618682 1_554
La4 O4 2.618682 1_554
La4 O12 2.682548 1_655
La4 O3 2.682548 1_545
La4 O1 2.764003 1_545
La4 O1 2.764003 1_655
La4 O8 3.039183 1_554
La5 O8 2.314648 1_555
La5 O9 2.545982 1_555
La5 O18 2.625483 1_555
La5 O23 2.625483 1_555
La5 O5 2.676949 1_555
La5 O0 2.676949 1_555
La5 O2 2.759485 1_545
La5 O2 2.759485 1_655
La5 O9 3.034857 1_554
La6 O15 2.308546 1_555
La6 O14 2.449764 1_555
La6 O23 2.643493 1_555
La6 O18 2.643493 1_555
La6 O5 2.667047 1_555
La6 O0 2.667047 1_555
La6 O21 2.762005 1_655
La6 O21 2.762005 1_545
La6 O14 3.142630 1_554
La7 O14 2.308546 1_554
La7 O15 2.449764 1_555
La7 O10 2.643493 1_555
La7 O19 2.643493 1_555
La7 O11 2.667047 1_554
La7 O20 2.667047 1_554
La7 O22 2.762005 1_454
La7 O22 2.762005 1_564
La7 O15 3.142630 1_554
La8 O17 2.314648 1_554
La8 O16 2.545982 1_555
La8 O19 2.625483 1_555
La8 O10 2.625483 1_555
La8 O20 2.676949 1_554
La8 O11 2.676949 1_554
La8 O6 2.759485 1_455
La8 O6 2.759485 1_565
La8 O16 3.034857 1_554
La9 O16 2.312854 1_555
La9 O17 2.540725 1_555
La9 O3 2.618682 1_555
La9 O12 2.618682 1_555
La9 O4 2.682548 1_565
La9 O13 2.682548 1_455
La9 O7 2.764003 1_565
La9 O7 2.764003 1_455
La9 O17 3.039183 1_554
La10 O22 2.303420 1_465
La10 O18 2.637118 1_455
La10 O23 2.637118 1_565
La10 O0 2.673013 1_456
La10 O5 2.673013 1_566
La10 O21 2.712638 1_556
La10 O14 2.780461 1_455
La10 O14 2.780461 1_565
La10 O21 2.856561 1_555
La11 O21 2.303420 1_645
La11 O10 2.637118 1_655
La11 O19 2.637118 1_545
La11 O20 2.673013 1_545
La11 O11 2.673013 1_655
La11 O22 2.712638 1_555
La11 O15 2.780461 1_655
La11 O15 2.780461 1_545
La11 O22 2.856561 1_554
Cu0 O12 1.912305 1_655
Cu0 O3 1.912305 1_545
Cu0 O4 1.917209 1_555
Cu0 O13 1.917209 1_555
Cu0 O8 2.457021 1_555
Cu0 O7 2.460385 1_555
Cu1 O5 1.895969 1_556
Cu1 O0 1.895969 1_556
Cu1 O23 1.927606 1_555
Cu1 O18 1.927606 1_555
Cu1 O9 2.468272 1_555
Cu1 O14 2.491622 1_555
Cu2 O11 1.895969 1_555
Cu2 O20 1.895969 1_555
Cu2 O10 1.927606 1_555
Cu2 O19 1.927606 1_555
Cu2 O16 2.468272 1_555
Cu2 O15 2.491622 1_555
Cu3 O4 1.912305 1_565
Cu3 O13 1.912305 1_455
Cu3 O12 1.917209 1_556
Cu3 O3 1.917209 1_556
Cu3 O17 2.457021 1_555
Cu3 O1 2.460385 1_556
Cu4 O23 1.910948 1_565
Cu4 O18 1.910948 1_455
Cu4 O5 1.917280 1_565
Cu4 O0 1.917280 1_455
Cu4 O21 2.432637 1_555
Cu4 O2 2.452612 1_555
Cu5 O19 1.910948 1_546
Cu5 O10 1.910948 1_656
Cu5 O20 1.917280 1_545
Cu5 O11 1.917280 1_655
Cu5 O22 2.432637 1_555
Cu5 O6 2.452612 1_556
