# generated using pymatgen
data_Na4Al3Si3B(HO3)4
_symmetry_space_group_name_H-M   'P 1'
_cell_length_a   8.83427634
_cell_length_b   8.83427634
_cell_length_c   8.83427634
_cell_angle_alpha   90.00000000
_cell_angle_beta   90.00000000
_cell_angle_gamma   90.00000000
_symmetry_Int_Tables_number   1
_chemical_formula_structural   Na4Al3Si3B(HO3)4
_chemical_formula_sum   'Na8 Al6 Si6 B2 H8 O24'
_cell_volume   689.46613608
_cell_formula_units_Z   2
loop_
 _symmetry_equiv_pos_site_id
 _symmetry_equiv_pos_as_xyz
  1  'x, y, z'
loop_
 _atom_site_type_symbol
 _atom_site_label
 _atom_site_symmetry_multiplicity
 _atom_site_fract_x
 _atom_site_fract_y
 _atom_site_fract_z
 _atom_site_occupancy
  Na  Na0  1  0.82562393  0.82562393  0.17437607  1
  Na  Na1  1  0.82562393  0.17437607  0.82562393  1
  Na  Na2  1  0.17437607  0.82562393  0.82562393  1
  Na  Na3  1  0.17437607  0.17437607  0.17437607  1
  Na  Na4  1  0.32562393  0.32562393  0.67437607  1
  Na  Na5  1  0.32562393  0.67437607  0.32562393  1
  Na  Na6  1  0.67437607  0.32562393  0.32562393  1
  Na  Na7  1  0.67437607  0.67437607  0.67437607  1
  Al  Al0  1  0.75000000  -0.00000000  0.50000000  1
  Al  Al1  1  0.00000000  0.50000000  0.75000000  1
  Al  Al2  1  0.25000000  -0.00000000  0.50000000  1
  Al  Al3  1  0.50000000  0.75000000  0.00000000  1
  Al  Al4  1  0.50000000  0.25000000  0.00000000  1
  Al  Al5  1  0.00000000  0.50000000  0.25000000  1
  Si  Si0  1  0.75000000  0.50000000  0.00000000  1
  Si  Si1  1  0.00000000  0.75000000  0.50000000  1
  Si  Si2  1  0.25000000  0.50000000  0.00000000  1
  Si  Si3  1  0.50000000  -0.00000000  0.75000000  1
  Si  Si4  1  0.50000000  -0.00000000  0.25000000  1
  Si  Si5  1  0.00000000  0.25000000  0.50000000  1
  B  B0  1  0.00000000  -0.00000000  0.00000000  1
  B  B1  1  0.50000000  0.50000000  0.50000000  1
  H  H0  1  0.58003321  0.58003321  0.41996679  1
  H  H1  1  0.58003321  0.41996679  0.58003321  1
  H  H2  1  0.08003321  0.08003321  0.91996679  1
  H  H3  1  0.08003321  0.91996679  0.08003321  1
  H  H4  1  0.41996679  0.58003321  0.58003321  1
  H  H5  1  0.41996679  0.41996679  0.41996679  1
  H  H6  1  0.91996679  0.91996679  0.91996679  1
  H  H7  1  0.91996679  0.08003321  0.08003321  1
  O  O0  1  0.56654227  0.86179582  0.14838505  1
  O  O1  1  0.56654227  0.13820418  0.85161495  1
  O  O2  1  0.85161495  0.56654227  0.13820418  1
  O  O3  1  0.85161495  0.43345773  0.86179582  1
  O  O4  1  0.86179582  0.14838505  0.56654227  1
  O  O5  1  0.86179582  0.85161495  0.43345773  1
  O  O6  1  0.06654227  0.35161495  0.63820418  1
  O  O7  1  0.06654227  0.64838505  0.36179582  1
  O  O8  1  0.13820418  0.85161495  0.56654227  1
  O  O9  1  0.13820418  0.14838505  0.43345773  1
  O  O10  1  0.14838505  0.56654227  0.86179582  1
  O  O11  1  0.14838505  0.43345773  0.13820418  1
  O  O12  1  0.35161495  0.36179582  0.93345773  1
  O  O13  1  0.35161495  0.63820418  0.06654227  1
  O  O14  1  0.36179582  0.06654227  0.64838505  1
  O  O15  1  0.36179582  0.93345773  0.35161495  1
  O  O16  1  0.43345773  0.86179582  0.85161495  1
  O  O17  1  0.43345773  0.13820418  0.14838505  1
  O  O18  1  0.63820418  0.06654227  0.35161495  1
  O  O19  1  0.63820418  0.93345773  0.64838505  1
  O  O20  1  0.64838505  0.36179582  0.06654227  1
  O  O21  1  0.64838505  0.63820418  0.93345773  1
  O  O22  1  0.93345773  0.35161495  0.36179582  1
  O  O23  1  0.93345773  0.64838505  0.63820418  1
loop_
_geom_bond_atom_site_label_1
_geom_bond_atom_site_label_2
_geom_bond_distance
_geom_bond_site_symmetry_2
Na0 O5 2.322377 1_555
Na0 O2 2.322377 1_555
Na0 O0 2.322377 1_555
Na1 O3 2.322377 1_555
Na1 O1 2.322377 1_555
Na1 O4 2.322377 1_555
Na2 O8 2.322377 1_555
Na2 O16 2.322377 1_555
Na2 O10 2.322377 1_555
Na3 O17 2.322377 1_555
Na3 O9 2.322377 1_555
Na3 O11 2.322377 1_555
Na4 O6 2.322377 1_555
Na4 O14 2.322377 1_555
Na4 O12 2.322377 1_555
Na5 O7 2.322377 1_555
Na5 O15 2.322377 1_555
Na5 O13 2.322377 1_555
Na6 O20 2.322377 1_555
Na6 O22 2.322377 1_555
Na6 O18 2.322377 1_555
Na7 O21 2.322377 1_555
Na7 O19 2.322377 1_555
Na7 O23 2.322377 1_555
Al0 O4 1.743384 1_555
Al0 O5 1.743384 1_545
Al0 O18 1.743384 1_555
Al0 O19 1.743384 1_545
Al1 O10 1.743384 1_555
Al1 O3 1.743384 1_455
Al1 O23 1.743384 1_455
Al1 O6 1.743384 1_555
Al2 O9 1.743384 1_555
Al2 O15 1.743384 1_545
Al2 O14 1.743384 1_555
Al2 O8 1.743384 1_545
Al3 O0 1.743384 1_555
Al3 O21 1.743384 1_554
Al3 O16 1.743384 1_554
Al3 O13 1.743384 1_555
Al4 O17 1.743384 1_555
Al4 O20 1.743384 1_555
Al4 O12 1.743384 1_554
Al4 O1 1.743384 1_554
Al5 O11 1.743384 1_555
Al5 O22 1.743384 1_455
Al5 O2 1.743384 1_455
Al5 O7 1.743384 1_555
B0 H6 1.224621 1_444
B0 H2 1.224621 1_554
B0 H7 1.224621 1_455
B0 H3 1.224621 1_545
B1 H4 1.224621 1_555
B1 H1 1.224621 1_555
B1 H5 1.224621 1_555
B1 H0 1.224621 1_555
H0 Na7 2.537841 1_555
H0 Na6 2.537841 1_555
H0 Na5 2.537841 1_555
H1 Na6 2.537841 1_555
H1 Na4 2.537841 1_555
H1 Na7 2.537841 1_555
H2 Na2 2.537841 1_545
H2 Na1 2.537841 1_455
H2 Na3 2.537841 1_556
H3 Na0 2.537841 1_455
H3 Na2 2.537841 1_554
H3 Na3 2.537841 1_565
H4 Na5 2.537841 1_555
H4 Na4 2.537841 1_555
H4 Na7 2.537841 1_555
H5 Na4 2.537841 1_555
H5 Na6 2.537841 1_555
H5 Na5 2.537841 1_555
H6 Na1 2.537841 1_565
H6 Na2 2.537841 1_655
H6 Na0 2.537841 1_556
H7 Na1 2.537841 1_554
H7 Na0 2.537841 1_545
H7 Na3 2.537841 1_655
O0 Si4 1.625456 1_565
O1 Si3 1.625456 1_555
O2 Si0 1.625456 1_555
O3 Si0 1.625456 1_556
O4 Si5 1.625456 1_655
O5 Si1 1.625456 1_655
O6 Si5 1.625456 1_555
O7 Si1 1.625456 1_555
O8 Si1 1.625456 1_555
O9 Si5 1.625456 1_555
O10 Si2 1.625456 1_556
O11 Si2 1.625456 1_555
O12 Si2 1.625456 1_556
O13 Si2 1.625456 1_555
O14 Si3 1.625456 1_555
O15 Si4 1.625456 1_565
O16 Si3 1.625456 1_565
O17 Si4 1.625456 1_555
O18 Si4 1.625456 1_555
O19 Si3 1.625456 1_565
O20 Si0 1.625456 1_555
O21 Si0 1.625456 1_556
O22 Si5 1.625456 1_655
O23 Si1 1.625456 1_655
