# generated using pymatgen
data_LiNbO3
_symmetry_space_group_name_H-M   'P 1'
_cell_length_a   5.23145100
_cell_length_b   5.58154810
_cell_length_c   17.45918489
_cell_angle_alpha   87.64801976
_cell_angle_beta   98.60077596
_cell_angle_gamma   117.85785895
_symmetry_Int_Tables_number   1
_chemical_formula_structural   LiNbO3
_chemical_formula_sum   'Li8 Nb8 O24'
_cell_volume   445.40877226
_cell_formula_units_Z   8
loop_
 _symmetry_equiv_pos_site_id
 _symmetry_equiv_pos_as_xyz
  1  'x, y, z'
loop_
 _atom_site_type_symbol
 _atom_site_label
 _atom_site_symmetry_multiplicity
 _atom_site_fract_x
 _atom_site_fract_y
 _atom_site_fract_z
 _atom_site_occupancy
  Li  Li0  1  0.33618200  0.61605700  0.05830700  1
  Li  Li1  1  0.94211200  0.55886100  0.32441800  1
  Li  Li2  1  0.08220000  0.98319000  0.18074200  1
  Li  Li3  1  0.44151200  0.30889700  0.57235600  1
  Li  Li4  1  0.69013800  0.93480900  0.44784500  1
  Li  Li5  1  0.94117700  0.05900600  0.82304700  1
  Li  Li6  1  0.19009300  0.68406100  0.69763800  1
  Li  Li7  1  0.68722100  0.42575300  0.94798700  1
  Nb  Nb0  1  0.02131700  0.03083200  0.00382400  1
  Nb  Nb1  1  0.52145500  0.78342500  0.25494300  1
  Nb  Nb2  1  0.76113400  0.39719300  0.13157600  1
  Nb  Nb3  1  0.02320900  0.54288500  0.50344200  1
  Nb  Nb4  1  0.27434500  0.16844400  0.37798600  1
  Nb  Nb5  1  0.52208300  0.29177600  0.75304700  1
  Nb  Nb6  1  0.77343500  0.91784600  0.62836300  1
  Nb  Nb7  1  0.27119900  0.66477100  0.87758900  1
  O  O0  1  0.49683200  0.05873200  0.18622100  1
  O  O1  1  0.43434900  0.22414400  0.03052600  1
  O  O2  1  0.94343100  0.15804300  0.09357400  1
  O  O3  1  0.56967600  0.59865800  0.15616800  1
  O  O4  1  0.06237200  0.54073500  0.21846700  1
  O  O5  1  0.99231800  0.80277300  0.43435300  1
  O  O6  1  0.99096700  0.67782500  0.06069100  1
  O  O7  1  0.93727600  0.95347000  0.28138300  1
  O  O8  1  0.42607600  0.89421600  0.34397200  1
  O  O9  1  0.04864200  0.33007000  0.40578300  1
  O  O10  1  0.56227700  0.26596700  0.46856700  1
  O  O11  1  0.49212900  0.55293400  0.68423800  1
  O  O12  1  0.50097100  0.43667500  0.31142100  1
  O  O13  1  0.43719200  0.70571700  0.53096300  1
  O  O14  1  0.92264300  0.64161700  0.59369100  1
  O  O15  1  0.54836900  0.08075200  0.65555100  1
  O  O16  1  0.06189800  0.01615200  0.71849700  1
  O  O17  1  0.99330000  0.30255600  0.93596600  1
  O  O18  1  0.99521500  0.17739200  0.55912600  1
  O  O19  1  0.93706800  0.45241600  0.78064300  1
  O  O20  1  0.42139700  0.38892200  0.84340700  1
  O  O21  1  0.04734200  0.82924000  0.90523100  1
  O  O22  1  0.55659500  0.76176700  0.96792500  1
  O  O23  1  0.49445100  0.92602100  0.80912700  1
loop_
_geom_bond_atom_site_label_1
_geom_bond_atom_site_label_2
_geom_bond_distance
_geom_bond_site_symmetry_2
Li0 O3 1.973261 1_555
Li0 O6 1.996919 1_455
Li0 O22 2.010864 1_554
Li0 O2 2.544880 1_455
Li0 O1 2.548634 1_555
Li1 O12 2.056148 1_555
Li1 O9 2.058829 1_655
Li1 O4 2.061748 1_655
Li1 O7 2.308002 1_555
Li1 O5 2.309963 1_555
Li1 O8 2.322786 1_655
Li2 O7 1.986644 1_455
Li2 O0 1.994630 1_565
Li2 O2 2.001351 1_465
Li2 O4 2.488161 1_555
Li2 O3 2.516559 1_455
Li2 O6 2.599952 1_455
Li3 O10 2.063901 1_555
Li3 O18 2.072279 1_455
Li3 O15 2.077127 1_555
Li3 O14 2.308856 1_555
Li3 O13 2.310618 1_555
Li3 O11 2.338308 1_555
Li4 O8 2.059245 1_555
Li4 O5 2.076553 1_555
Li4 O13 2.081521 1_555
Li4 O10 2.297289 1_565
Li4 O9 2.309988 1_665
Li4 O18 2.328985 1_565
Li5 O21 2.070809 1_645
Li5 O23 2.072550 1_545
Li5 O16 2.076007 1_655
Li5 O19 2.296995 1_555
Li5 O20 2.300404 1_655
Li5 O17 2.349840 1_555
Li6 O14 2.067220 1_455
Li6 O11 2.071827 1_555
Li6 O19 2.084355 1_455
Li6 O16 2.303988 1_565
Li6 O15 2.314173 1_565
Li6 O23 2.329622 1_555
Li7 O1 2.034417 1_556
Li7 O17 2.054802 1_555
Li7 O20 2.077060 1_555
Li7 O22 2.329823 1_555
Li7 O21 2.344330 1_655
Li7 O6 2.362010 1_556
Nb0 O1 1.900409 1_555
Nb0 O2 1.917863 1_455
Nb0 O17 1.932261 1_454
Nb0 O6 2.118341 1_445
Nb0 O21 2.149394 1_544
Nb0 O22 2.183605 1_444
Nb1 O8 1.909629 1_555
Nb1 O7 1.911051 1_555
Nb1 O0 1.950610 1_565
Nb1 O12 2.100171 1_555
Nb1 O4 2.140434 1_555
Nb1 O3 2.149516 1_555
Nb2 O4 1.905663 1_655
Nb2 O3 1.916471 1_555
Nb2 O6 1.989139 1_555
Nb2 O0 2.048502 1_555
Nb2 O2 2.140820 1_555
Nb2 O1 2.159325 1_555
Nb3 O5 1.898015 1_455
Nb3 O13 1.905874 1_555
Nb3 O14 1.911383 1_455
Nb3 O9 2.172010 1_555
Nb3 O18 2.174598 1_455
Nb3 O10 2.174683 1_455
Nb4 O12 1.899516 1_555
Nb4 O9 1.909540 1_555
Nb4 O10 1.912635 1_555
Nb4 O8 2.162540 1_545
Nb4 O7 2.166334 1_445
Nb4 O5 2.183166 1_445
Nb5 O11 1.898953 1_555
Nb5 O20 1.909447 1_555
Nb5 O19 1.911188 1_555
Nb5 O15 2.165559 1_555
Nb5 O16 2.169534 1_555
Nb5 O23 2.179374 1_545
Nb6 O18 1.900259 1_565
Nb6 O15 1.908280 1_565
Nb6 O16 1.908285 1_665
Nb6 O14 2.166909 1_555
Nb6 O13 2.170720 1_555
Nb6 O11 2.175063 1_555
Nb7 O23 1.897882 1_555
Nb7 O22 1.902668 1_555
Nb7 O21 1.912380 1_555
Nb7 O19 2.160718 1_455
Nb7 O20 2.165741 1_555
Nb7 O17 2.183330 1_455
