# generated using pymatgen
data_CdI2
_symmetry_space_group_name_H-M   'P 1'
_cell_length_a   4.28784774
_cell_length_b   4.28784786
_cell_length_c   64.53746037
_cell_angle_alpha   90.00000000
_cell_angle_beta   90.00000000
_cell_angle_gamma   119.99999907
_symmetry_Int_Tables_number   1
_chemical_formula_structural   CdI2
_chemical_formula_sum   'Cd9 I18'
_cell_volume   1027.59321967
_cell_formula_units_Z   9
loop_
 _symmetry_equiv_pos_site_id
 _symmetry_equiv_pos_as_xyz
  1  'x, y, z'
loop_
 _atom_site_type_symbol
 _atom_site_label
 _atom_site_symmetry_multiplicity
 _atom_site_fract_x
 _atom_site_fract_y
 _atom_site_fract_z
 _atom_site_occupancy
  Cd  Cd0  1  0.66666700  0.33333300  0.58193398  1
  Cd  Cd1  1  0.66666700  0.33333300  0.80652091  1
  Cd  Cd2  1  -0.00000000  -0.00000000  0.47082425  1
  Cd  Cd3  1  0.66666700  0.33333300  0.02928066  1
  Cd  Cd4  1  0.00000000  -0.00000000  0.13933901  1
  Cd  Cd5  1  -0.00000000  -0.00000000  0.36022104  1
  Cd  Cd6  1  0.66666700  0.33333300  0.69455302  1
  Cd  Cd7  1  0.66666700  0.33333300  0.91788782  1
  Cd  Cd8  1  0.66666700  0.33333300  0.24962003  1
  I  I0  1  0.66666700  0.33333300  0.33358808  1
  I  I1  1  0.33333300  0.66666700  0.72122030  1
  I  I2  1  -0.00000000  -0.00000000  0.55530513  1
  I  I3  1  -0.00000000  -0.00000000  0.77988140  1
  I  I4  1  -0.00000000  -0.00000000  0.22300884  1
  I  I5  1  0.33333300  0.66666700  0.27619515  1
  I  I6  1  -0.00000000  -0.00000000  0.66775451  1
  I  I7  1  0.33333300  0.66666700  0.05585505  1
  I  I8  1  0.33333300  0.66666700  0.60848359  1
  I  I9  1  0.33333300  0.66666700  0.94467397  1
  I  I10  1  0.66666700  0.33333300  0.11272551  1
  I  I11  1  -0.00000000  -0.00000000  0.00266613  1
  I  I12  1  0.66666700  0.33333300  0.44419391  1
  I  I13  1  0.33333300  0.66666700  0.16589126  1
  I  I14  1  0.33333300  0.66666700  0.38681671  1
  I  I15  1  0.33333300  0.66666700  0.83310082  1
  I  I16  1  0.33333300  0.66666700  0.49736737  1
  I  I17  1  -0.00000000  -0.00000000  0.89109155  1
loop_
_geom_bond_atom_site_label_1
_geom_bond_atom_site_label_2
_geom_bond_distance
_geom_bond_site_symmetry_2
Cd0 I8 3.010718 1_655
Cd0 I8 3.010719 1_545
Cd0 I8 3.010725 1_555
Cd0 I2 3.013632 1_655
Cd0 I2 3.013635 1_555
Cd0 I2 3.013635 1_665
Cd1 I15 3.011832 1_655
Cd1 I15 3.011832 1_545
Cd1 I15 3.011838 1_555
Cd1 I3 3.014024 1_655
Cd1 I3 3.014027 1_555
Cd1 I3 3.014027 1_665
Cd2 I16 3.010480 1_545
Cd2 I16 3.010483 1_445
Cd2 I16 3.010483 1_555
Cd2 I12 3.013687 1_455
Cd2 I12 3.013690 1_555
Cd2 I12 3.013690 1_445
Cd3 I7 3.011629 1_655
Cd3 I7 3.011629 1_545
Cd3 I7 3.011635 1_555
Cd3 I11 3.013105 1_655
Cd3 I11 3.013108 1_555
Cd3 I11 3.013108 1_665
Cd4 I13 3.010815 1_545
Cd4 I13 3.010818 1_445
Cd4 I13 3.010819 1_555
Cd4 I10 3.013067 1_455
Cd4 I10 3.013070 1_555
Cd4 I10 3.013070 1_445
Cd5 I14 3.012411 1_545
Cd5 I14 3.012414 1_445
Cd5 I14 3.012414 1_555
Cd5 I0 3.013783 1_455
Cd5 I0 3.013786 1_555
Cd5 I0 3.013786 1_445
Cd6 I1 3.015047 1_655
Cd6 I1 3.015047 1_545
Cd6 I1 3.015053 1_555
Cd6 I6 3.019889 1_655
Cd6 I6 3.019892 1_555
Cd6 I6 3.019892 1_665
Cd7 I9 3.019432 1_655
Cd7 I9 3.019433 1_545
Cd7 I9 3.019439 1_555
Cd7 I17 3.019806 1_655
Cd7 I17 3.019810 1_555
Cd7 I17 3.019810 1_665
Cd8 I5 3.011656 1_655
Cd8 I5 3.011656 1_545
Cd8 I5 3.011662 1_555
Cd8 I4 3.012982 1_655
Cd8 I4 3.012985 1_555
Cd8 I4 3.012985 1_665
