# generated using pymatgen
data_Co8C24(SO7)3
_symmetry_space_group_name_H-M   'P 1'
_cell_length_a   9.18286394
_cell_length_b   9.18286394
_cell_length_c   25.43050152
_cell_angle_alpha   86.81001596
_cell_angle_beta   86.81001596
_cell_angle_gamma   119.62543510
_symmetry_Int_Tables_number   1
_chemical_formula_structural   Co8C24(SO7)3
_chemical_formula_sum   'Co16 C48 S6 O42'
_cell_volume   1852.64747670
_cell_formula_units_Z   2
loop_
 _symmetry_equiv_pos_site_id
 _symmetry_equiv_pos_as_xyz
  1  'x, y, z'
loop_
 _atom_site_type_symbol
 _atom_site_label
 _atom_site_symmetry_multiplicity
 _atom_site_fract_x
 _atom_site_fract_y
 _atom_site_fract_z
 _atom_site_occupancy
  Co  Co0  1  0.71092100  0.91275800  0.94419600  1
  Co  Co1  1  0.74383800  0.15998800  0.98806700  1
  Co  Co2  1  0.63824800  0.56362800  0.60555700  1
  Co  Co3  1  0.05455600  0.94182500  0.50123800  1
  Co  Co4  1  0.08706000  0.29558500  0.25351400  1
  Co  Co5  1  0.91275800  0.71092100  0.44419600  1
  Co  Co6  1  0.29558500  0.08706000  0.75351400  1
  Co  Co7  1  0.56362800  0.63824800  0.10555700  1
  Co  Co8  1  0.15998800  0.74383800  0.48806700  1
  Co  Co9  1  0.94182500  0.05455600  0.00123800  1
  Co  Co10  1  0.37010500  0.74519200  0.09512400  1
  Co  Co11  1  0.39255900  0.50437100  0.26100500  1
  Co  Co12  1  0.19591300  0.60672600  0.24995800  1
  Co  Co13  1  0.74519200  0.37010500  0.59512400  1
  Co  Co14  1  0.50437100  0.39255900  0.76100500  1
  Co  Co15  1  0.60672600  0.19591300  0.74995800  1
  C  C0  1  0.25831400  0.62889000  0.04458900  1
  C  C1  1  0.82768300  0.32444800  0.74591100  1
  C  C2  1  0.58289800  0.00073100  0.77306600  1
  C  C3  1  0.70230300  0.94412600  0.01814500  1
  C  C4  1  0.71420800  0.72302000  0.93907800  1
  C  C5  1  0.25578400  0.89503800  0.72830900  1
  C  C6  1  0.45554400  0.24010200  0.69648500  1
  C  C7  1  0.90206800  0.31234600  0.59273200  1
  C  C8  1  0.56583700  0.28076700  0.81149600  1
  C  C9  1  0.89061100  0.98917900  0.50419400  1
  C  C10  1  0.94412600  0.70230300  0.51814500  1
  C  C11  1  0.24010200  0.45554400  0.19648500  1
  C  C12  1  0.00813300  0.21934400  0.32201900  1
  C  C13  1  0.20718700  0.11563000  0.45560500  1
  C  C14  1  0.76767000  0.26354200  0.04578100  1
  C  C15  1  0.03384300  0.83068800  0.38370200  1
  C  C16  1  0.62889000  0.25831400  0.54458900  1
  C  C17  1  0.12187100  0.54012600  0.47747000  1
  C  C18  1  0.21934400  0.00813300  0.82201900  1
  C  C19  1  0.50354500  0.83517700  0.92672100  1
  C  C20  1  0.54012600  0.12187100  0.97747000  1
  C  C21  1  0.84275700  0.60254000  0.56475300  1
  C  C22  1  0.10290700  0.12019900  0.23432200  1
  C  C23  1  0.83068800  0.03384300  0.88370200  1
  C  C24  1  0.83517700  0.50354500  0.42672100  1
  C  C25  1  0.89503800  0.25578400  0.22830900  1
  C  C26  1  0.11563000  0.20718700  0.95560500  1
  C  C27  1  0.43147700  0.35881100  0.29715700  1
  C  C28  1  0.13398500  0.00681900  0.56228700  1
  C  C29  1  0.72302000  0.71420800  0.43907800  1
  C  C30  1  0.00681900  0.13398500  0.06228700  1
  C  C31  1  0.65790300  0.75973200  0.61823400  1
  C  C32  1  0.35881100  0.43147700  0.79715700  1
  C  C33  1  0.12019900  0.10290700  0.73432200  1
  C  C34  1  0.49223900  0.49129500  0.05865800  1
  C  C35  1  0.31234600  0.90206800  0.09273200  1
  C  C36  1  0.00073100  0.58289800  0.27306600  1
  C  C37  1  0.58443600  0.69094200  0.26371700  1
  C  C38  1  0.49129500  0.49223900  0.55865800  1
  C  C39  1  0.87170900  0.33321900  0.93756900  1
  C  C40  1  0.33321900  0.87170900  0.43756900  1
  C  C41  1  0.75973200  0.65790300  0.11823400  1
  C  C42  1  0.98917900  0.89061100  0.00419400  1
  C  C43  1  0.60254000  0.84275700  0.06475300  1
  C  C44  1  0.28076700  0.56583700  0.31149600  1
  C  C45  1  0.69094200  0.58443600  0.76371700  1
  C  C46  1  0.26354200  0.76767000  0.54578100  1
  C  C47  1  0.32444800  0.82768300  0.24591100  1
  S  S0  1  0.56798600  0.16686500  0.66019300  1
  S  S1  1  0.60476900  0.87638900  0.13167000  1
  S  S2  1  0.16686500  0.56798600  0.16019300  1
  S  S3  1  0.87638900  0.60476900  0.63167000  1
  S  S4  1  0.41249800  0.43697300  0.17453600  1
  S  S5  1  0.43697300  0.41249800  0.67453600  1
  O  O0  1  0.56512100  0.87133200  0.78879000  1
  O  O1  1  0.40560200  0.09484800  0.97115000  1
  O  O2  1  0.77689200  0.32961400  0.08400400  1
  O  O3  1  0.88793000  0.67714400  0.12976900  1
  O  O4  1  0.44433100  0.95259800  0.40598700  1
  O  O5  1  0.23157200  0.30683000  0.92844400  1
  O  O6  1  0.30683000  0.23157200  0.42844400  1
  O  O7  1  0.78553400  0.02432300  0.50576200  1
  O  O8  1  0.57997500  0.27450700  0.85752700  1
  O  O9  1  0.67714400  0.88793000  0.62976900  1
  O  O10  1  0.00678300  0.27680800  0.59173500  1
  O  O11  1  0.27450700  0.57997500  0.35752700  1
  O  O12  1  0.04920500  0.18507900  0.10266200  1
  O  O13  1  0.41045400  0.97225000  0.24367800  1
  O  O14  1  0.09484800  0.40560200  0.47115000  1
  O  O15  1  0.90745900  0.11005600  0.84440000  1
  O  O16  1  0.59760500  0.71192000  0.43364200  1
  O  O17  1  0.18507900  0.04920500  0.60266200  1
  O  O18  1  0.26466900  0.45865500  0.82057700  1
  O  O19  1  0.00263300  0.10132800  0.71965700  1
  O  O20  1  0.95259800  0.44433100  0.90598700  1
  O  O21  1  0.97225000  0.41045400  0.74367800  1
  O  O22  1  0.02432300  0.78553400  0.00576200  1
  O  O23  1  0.39360500  0.44556500  0.52768900  1
  O  O24  1  0.10132800  0.00263300  0.21965700  1
  O  O25  1  0.18341100  0.55404100  0.01094200  1
  O  O26  1  0.22721100  0.77019000  0.71152500  1
  O  O27  1  0.11005600  0.90745900  0.34440000  1
  O  O28  1  0.37081200  0.78692000  0.91283800  1
  O  O29  1  0.70634600  0.81686200  0.26768700  1
  O  O30  1  0.77019000  0.22721100  0.21152500  1
  O  O31  1  0.87133200  0.56512100  0.28879000  1
  O  O32  1  0.27680800  0.00678300  0.09173500  1
  O  O33  1  0.16591900  0.95647800  0.86537700  1
  O  O34  1  0.95647800  0.16591900  0.36537700  1
  O  O35  1  0.32961400  0.77689200  0.58400400  1
  O  O36  1  0.45865500  0.26466900  0.32057700  1
  O  O37  1  0.44556500  0.39360500  0.02768900  1
  O  O38  1  0.71192000  0.59760500  0.93364200  1
  O  O39  1  0.81686200  0.70634600  0.76768700  1
  O  O40  1  0.78692000  0.37081200  0.41283800  1
  O  O41  1  0.55404100  0.18341100  0.51094200  1
loop_
_geom_bond_atom_site_label_1
_geom_bond_atom_site_label_2
_geom_bond_distance
_geom_bond_site_symmetry_2
Co2 S3 2.176839 1_555
Co2 S5 2.291622 1_555
Co7 S1 2.176839 1_555
Co7 S4 2.291622 1_555
Co10 S1 2.177056 1_555
Co10 S2 2.285469 1_555
Co11 S4 2.338940 1_555
Co12 S2 2.339460 1_555
Co13 S3 2.177056 1_555
Co13 S0 2.285469 1_555
Co14 S5 2.338940 1_555
Co15 S0 2.339460 1_555
C0 O25 1.158117 1_555
C0 Co10 1.749755 1_555
C1 O21 1.157319 1_555
C1 Co15 1.765270 1_555
C2 O0 1.160418 1_545
C2 Co15 1.756813 1_555
C3 C43 1.422629 1_555
C3 Co0 1.921458 1_554
C3 Co9 1.921477 1_565
C3 Co1 1.926423 1_564
C4 O38 1.157589 1_555
C4 Co0 1.769290 1_555
C5 O26 1.155390 1_555
C5 Co6 1.780001 1_565
C6 S0 1.737748 1_555
C6 S5 1.739532 1_555
C6 Co6 1.931617 1_555
C6 Co14 2.137777 1_555
C6 Co15 2.155647 1_555
C7 O10 1.157685 1_655
C7 Co13 1.763378 1_555
C8 O8 1.186274 1_555
C8 Co14 1.878280 1_555
C8 Co15 1.885936 1_555
C9 O7 1.158362 1_565
C9 Co3 1.760538 1_655
C10 C21 1.422629 1_555
C10 Co5 1.921458 1_555
C10 Co3 1.921477 1_655
C10 Co8 1.926423 1_655
C11 S2 1.737748 1_555
C11 S4 1.739532 1_555
C11 Co4 1.931617 1_555
C11 Co11 2.137777 1_555
C11 Co12 2.155647 1_555
C12 O34 1.154540 1_455
C12 Co4 1.809003 1_555
C13 O6 1.154362 1_555
C13 Co3 1.805463 1_545
C14 O2 1.159369 1_555
C14 Co1 1.758297 1_554
C15 O27 1.158308 1_555
C15 Co5 1.795794 1_455
C16 O41 1.158117 1_555
C16 Co13 1.749755 1_555
C17 O14 1.156237 1_555
C17 Co8 1.764586 1_555
C18 O33 1.154540 1_545
C18 Co6 1.809003 1_555
C19 O28 1.156704 1_555
C19 Co0 1.766227 1_555
C20 O1 1.156237 1_555
C20 Co1 1.764586 1_555
C21 S3 1.745799 1_555
C21 Co13 1.950354 1_555
C21 Co2 1.951834 1_555
C22 O24 1.155313 1_555
C22 Co4 1.778911 1_555
C23 O15 1.158308 1_555
C23 Co0 1.795794 1_545
C24 O40 1.156704 1_555
C24 Co5 1.766227 1_555
C25 O30 1.155390 1_555
C25 Co4 1.780001 1_655
C26 O5 1.154362 1_555
C26 Co9 1.805463 1_456
C27 O36 1.156243 1_555
C27 Co11 1.769654 1_555
C28 O17 1.159055 1_555
C28 Co3 1.759902 1_545
C29 O16 1.157589 1_555
C29 Co5 1.769290 1_555
C30 O12 1.159055 1_555
C30 Co9 1.759902 1_455
C31 O9 1.158311 1_555
C31 Co2 1.768933 1_555
C32 O18 1.156243 1_555
C32 Co14 1.769654 1_555
C33 O19 1.155313 1_555
C33 Co6 1.778911 1_555
C34 O37 1.159637 1_555
C34 Co7 1.750643 1_555
C35 O32 1.157685 1_565
C35 Co10 1.763378 1_555
C36 O31 1.160418 1_455
C36 Co12 1.756813 1_555
C37 O29 1.160289 1_555
C37 Co11 1.756922 1_555
C38 O23 1.159637 1_555
C38 Co2 1.750643 1_555
C39 O20 1.153673 1_555
C39 Co1 1.821142 1_555
C40 O4 1.153673 1_555
C40 Co8 1.821142 1_555
C41 O3 1.158311 1_555
C41 Co7 1.768933 1_555
C42 O22 1.158362 1_655
C42 Co9 1.760538 1_565
C43 S1 1.745799 1_555
C43 Co10 1.950354 1_555
C43 Co7 1.951834 1_555
C44 O11 1.186274 1_555
C44 Co11 1.878280 1_555
C44 Co12 1.885936 1_555
C45 O39 1.160289 1_555
C45 Co14 1.756922 1_555
C46 O35 1.159369 1_555
C46 Co8 1.758297 1_555
C47 O13 1.157319 1_555
C47 Co12 1.765270 1_555
