# generated using pymatgen
data_ReN2(OF4)2
_symmetry_space_group_name_H-M   'P 1'
_cell_length_a   5.86304100
_cell_length_b   9.03270800
_cell_length_c   12.48825400
_cell_angle_alpha   90.00000000
_cell_angle_beta   90.00000000
_cell_angle_gamma   90.00000000
_symmetry_Int_Tables_number   1
_chemical_formula_structural   ReN2(OF4)2
_chemical_formula_sum   'Re4 N8 O8 F32'
_cell_volume   661.36715879
_cell_formula_units_Z   4
loop_
 _symmetry_equiv_pos_site_id
 _symmetry_equiv_pos_as_xyz
  1  'x, y, z'
loop_
 _atom_site_type_symbol
 _atom_site_label
 _atom_site_symmetry_multiplicity
 _atom_site_fract_x
 _atom_site_fract_y
 _atom_site_fract_z
 _atom_site_occupancy
  Re  Re0  1  0.25000000  0.72492300  0.37060000  1
  Re  Re1  1  0.75000000  0.77507700  0.87060000  1
  Re  Re2  1  0.75000000  0.27507700  0.62940000  1
  Re  Re3  1  0.25000000  0.22492300  0.12940000  1
  N  N0  1  0.25000000  0.99009300  0.73676200  1
  N  N1  1  0.75000000  0.00990700  0.26323800  1
  N  N2  1  0.25000000  0.24473800  0.43062700  1
  N  N3  1  0.25000000  0.74473800  0.06937300  1
  N  N4  1  0.25000000  0.49009300  0.76323800  1
  N  N5  1  0.75000000  0.50990700  0.23676200  1
  N  N6  1  0.75000000  0.75526200  0.56937300  1
  N  N7  1  0.75000000  0.25526200  0.93062700  1
  O  O0  1  0.25000000  0.05721400  0.81113300  1
  O  O1  1  0.25000000  0.62852000  0.04099700  1
  O  O2  1  0.75000000  0.94278600  0.18886700  1
  O  O3  1  0.75000000  0.37148000  0.95900300  1
  O  O4  1  0.25000000  0.12852000  0.45900300  1
  O  O5  1  0.25000000  0.55721400  0.68886700  1
  O  O6  1  0.75000000  0.44278600  0.31113300  1
  O  O7  1  0.75000000  0.87148000  0.54099700  1
  F  F0  1  0.04586200  0.39850500  0.11971100  1
  F  F1  1  0.54577100  0.27887100  0.75651700  1
  F  F2  1  0.25000000  0.01953900  0.17321000  1
  F  F3  1  0.54586200  0.10149500  0.61971100  1
  F  F4  1  0.02732400  0.36175900  0.57076300  1
  F  F5  1  0.95413800  0.10149500  0.61971100  1
  F  F6  1  0.47267600  0.86175900  0.92923700  1
  F  F7  1  0.25000000  0.27382300  0.97718700  1
  F  F8  1  0.75000000  0.48046100  0.67321000  1
  F  F9  1  0.97267600  0.13824100  0.07076300  1
  F  F10  1  0.45413800  0.39850500  0.11971100  1
  F  F11  1  0.04577100  0.72112900  0.24348300  1
  F  F12  1  0.75000000  0.22617700  0.47718700  1
  F  F13  1  0.95413800  0.60149500  0.88028900  1
  F  F14  1  0.45422900  0.22112900  0.25651700  1
  F  F15  1  0.04586200  0.89850500  0.38028900  1
  F  F16  1  0.52732400  0.13824100  0.07076300  1
  F  F17  1  0.54586200  0.60149500  0.88028900  1
  F  F18  1  0.75000000  0.98046100  0.82679000  1
  F  F19  1  0.75000000  0.72617700  0.02281300  1
  F  F20  1  0.54577100  0.77887100  0.74348300  1
  F  F21  1  0.97267600  0.63824100  0.42923700  1
  F  F22  1  0.04577100  0.22112900  0.25651700  1
  F  F23  1  0.95422900  0.27887100  0.75651700  1
  F  F24  1  0.25000000  0.77382300  0.52281300  1
  F  F25  1  0.95422900  0.77887100  0.74348300  1
  F  F26  1  0.02732400  0.86175900  0.92923700  1
  F  F27  1  0.45413800  0.89850500  0.38028900  1
  F  F28  1  0.25000000  0.51953900  0.32679000  1
  F  F29  1  0.47267600  0.36175900  0.57076300  1
  F  F30  1  0.52732400  0.63824100  0.42923700  1
  F  F31  1  0.45422900  0.72112900  0.24348300  1
loop_
_geom_bond_atom_site_label_1
_geom_bond_atom_site_label_2
_geom_bond_distance
_geom_bond_site_symmetry_2
N0 O0 1.109136 1_565
N1 O2 1.109136 1_545
N2 O4 1.107961 1_555
N3 O1 1.107961 1_555
N4 O5 1.109136 1_555
N5 O6 1.109136 1_555
N6 O7 1.107961 1_555
N7 O3 1.107961 1_555
F0 Re3 1.976233 1_555
F1 Re2 1.988720 1_555
F2 Re3 1.934166 1_555
F3 Re2 1.976233 1_555
F4 Re2 1.947569 1_455
F5 Re2 1.976233 1_555
F6 Re1 1.947569 1_555
F7 Re3 1.951518 1_556
F8 Re2 1.934166 1_555
F9 Re3 1.947569 1_655
F10 Re3 1.976233 1_555
F11 Re0 1.988720 1_555
F12 Re2 1.951518 1_555
F13 Re1 1.976233 1_555
F14 Re3 1.988720 1_555
F15 Re0 1.976233 1_555
F16 Re3 1.947569 1_555
F17 Re1 1.976233 1_555
F18 Re1 1.934166 1_555
F19 Re1 1.951518 1_554
F20 Re1 1.988720 1_555
F21 Re0 1.947569 1_655
F22 Re3 1.988720 1_555
F23 Re2 1.988720 1_555
F24 Re0 1.951518 1_555
F25 Re1 1.988720 1_555
F26 Re1 1.947569 1_455
F27 Re0 1.976233 1_555
F28 Re0 1.934166 1_555
F29 Re2 1.947569 1_555
F30 Re0 1.947569 1_555
F31 Re0 1.988720 1_555
