# generated using pymatgen
data_Ba5Tm8Zn4O21
_symmetry_space_group_name_H-M   'P 1'
_cell_length_a   10.13600050
_cell_length_b   10.13600050
_cell_length_c   10.13600050
_cell_angle_alpha   94.53733962
_cell_angle_beta   94.53733962
_cell_angle_gamma   147.32882456
_symmetry_Int_Tables_number   1
_chemical_formula_structural   Ba5Tm8Zn4O21
_chemical_formula_sum   'Ba5 Tm8 Zn4 O21'
_cell_volume   539.44915440
_cell_formula_units_Z   1
loop_
 _symmetry_equiv_pos_site_id
 _symmetry_equiv_pos_as_xyz
  1  'x, y, z'
loop_
 _atom_site_type_symbol
 _atom_site_label
 _atom_site_symmetry_multiplicity
 _atom_site_fract_x
 _atom_site_fract_y
 _atom_site_fract_z
 _atom_site_occupancy
  Ba  Ba0  1  0.14027900  0.53603500  0.67631400  1
  Ba  Ba1  1  0.53603500  0.85972100  0.39575600  1
  Ba  Ba2  1  0.46396500  0.14027900  0.60424400  1
  Ba  Ba3  1  0.85972100  0.46396500  0.32368600  1
  Ba  Ba4  1  0.00000000  0.00000000  0.00000000  1
  Tm  Tm0  1  0.35859800  0.41128800  0.76988600  1
  Tm  Tm1  1  0.41128800  0.64140200  0.05268900  1
  Tm  Tm2  1  0.58871200  0.35859800  0.94731100  1
  Tm  Tm3  1  0.64140200  0.58871200  0.23011400  1
  Tm  Tm4  1  0.16843000  0.24762500  0.41605500  1
  Tm  Tm5  1  0.24762500  0.83157000  0.07919500  1
  Tm  Tm6  1  0.75237500  0.16843000  0.92080500  1
  Tm  Tm7  1  0.83157000  0.75237500  0.58394500  1
  Zn  Zn0  1  0.24935000  0.04052100  0.28987000  1
  Zn  Zn1  1  0.04052100  0.75065000  0.79117100  1
  Zn  Zn2  1  0.95947900  0.24935000  0.20882900  1
  Zn  Zn3  1  0.75065000  0.95947900  0.71013000  1
  O  O0  1  0.00623600  0.89913700  0.40513600  1
  O  O1  1  0.89913700  0.49400100  0.89290100  1
  O  O2  1  0.60110000  0.00623600  0.10709900  1
  O  O3  1  0.49400100  0.60110000  0.59486400  1
  O  O4  1  0.99376400  0.10086300  0.59486400  1
  O  O5  1  0.10086300  0.50599900  0.10709900  1
  O  O6  1  0.39890000  0.99376400  0.89290100  1
  O  O7  1  0.50599900  0.39890000  0.40513600  1
  O  O8  1  0.20282900  0.07435300  0.77417400  1
  O  O9  1  0.07435300  0.30017900  0.87152400  1
  O  O10  1  0.42865500  0.20282900  0.12847600  1
  O  O11  1  0.30017900  0.42865500  0.22582600  1
  O  O12  1  0.79717100  0.92564700  0.22582600  1
  O  O13  1  0.92564700  0.69982100  0.12847600  1
  O  O14  1  0.57134500  0.79717100  0.87152400  1
  O  O15  1  0.69982100  0.57134500  0.77417400  1
  O  O16  1  0.96018900  0.62960100  0.58979000  1
  O  O17  1  0.50000000  0.50000000  0.00000000  1
  O  O18  1  0.03981100  0.37039900  0.41021000  1
  O  O19  1  0.37039900  0.96018900  0.33058800  1
  O  O20  1  0.62960100  0.03981100  0.66941200  1
loop_
_geom_bond_atom_site_label_1
_geom_bond_atom_site_label_2
_geom_bond_distance
_geom_bond_site_symmetry_2
Ba0 O18 2.664832 1_555
Ba0 O16 2.791682 1_455
Ba0 O20 2.855134 1_455
Ba0 O20 2.855134 1_565
Ba0 O14 2.888745 1_555
Ba0 O9 2.888745 1_555
Ba0 O6 3.196702 1_555
Ba0 O1 3.196702 1_455
Ba0 O4 3.247264 1_455
Ba0 O3 3.247264 1_555
Ba1 O19 2.664832 1_555
Ba1 O20 2.791682 1_565
Ba1 O18 2.855134 1_665
Ba1 O18 2.855134 1_555
Ba1 O11 2.888745 1_555
Ba1 O12 2.888745 1_555
Ba1 O4 3.196702 1_565
Ba1 O3 3.196702 1_555
Ba1 O2 3.247264 1_565
Ba1 O5 3.247264 1_555
Ba2 O20 2.664832 1_555
Ba2 O19 2.791682 1_545
Ba2 O16 2.855134 1_445
Ba2 O16 2.855134 1_555
Ba2 O15 2.888745 1_555
Ba2 O8 2.888745 1_555
Ba2 O7 3.196702 1_555
Ba2 O0 3.196702 1_545
Ba2 O1 3.247264 1_555
Ba2 O6 3.247264 1_545
Ba3 O16 2.664832 1_555
Ba3 O18 2.791682 1_655
Ba3 O19 2.855134 1_655
Ba3 O19 2.855134 1_545
Ba3 O10 2.888745 1_555
Ba3 O13 2.888745 1_555
Ba3 O2 3.196702 1_555
Ba3 O5 3.196702 1_655
Ba3 O0 3.247264 1_655
Ba3 O7 3.247264 1_555
Ba4 O17 2.850880 1_555
Ba4 O17 2.850880 1_445
Ba4 O8 2.905679 1_554
Ba4 O14 2.905679 1_444
Ba4 O9 2.905679 1_554
Ba4 O15 2.905679 1_444
Ba4 O10 2.905679 1_555
Ba4 O13 2.905679 1_445
Ba4 O12 2.905679 1_445
Ba4 O11 2.905679 1_555
O0 Zn0 2.065458 1_565
O0 Tm7 2.265488 1_455
O0 Tm3 2.282997 1_455
O0 Tm4 2.307542 1_565
O1 Zn1 2.065450 1_655
O1 Tm6 2.265488 1_555
O1 Tm2 2.283001 1_555
O1 Tm5 2.307542 1_656
O2 Zn2 2.065450 1_555
O2 Tm5 2.265488 1_545
O2 Tm1 2.282998 1_545
O2 Tm6 2.307542 1_554
O3 Zn3 2.065454 1_555
O3 Tm4 2.265488 1_555
O3 Tm0 2.282997 1_555
O3 Tm7 2.307542 1_555
O4 Zn3 2.065458 1_545
O4 Tm4 2.265488 1_655
O4 Tm0 2.282997 1_655
O4 Tm7 2.307542 1_545
O5 Zn2 2.065450 1_455
O5 Tm5 2.265488 1_555
O5 Tm1 2.283001 1_555
O5 Tm6 2.307542 1_454
O6 Zn1 2.065450 1_555
O6 Tm6 2.265488 1_565
O6 Tm2 2.282998 1_565
O6 Tm5 2.307542 1_556
O7 Zn0 2.065454 1_555
O7 Tm7 2.265488 1_555
O7 Tm3 2.282997 1_555
O7 Tm4 2.307542 1_555
O8 Zn1 2.132649 1_545
O8 Tm0 2.261522 1_555
O8 Tm7 2.389533 1_445
O8 Tm2 2.412665 1_555
O9 Zn3 2.132644 1_445
O9 Tm1 2.261517 1_556
O9 Tm6 2.389533 1_455
O9 Tm0 2.412660 1_555
O10 Zn0 2.132640 1_555
O10 Tm2 2.261513 1_554
O10 Tm5 2.389533 1_545
O10 Tm3 2.412660 1_555
O11 Zn2 2.132649 1_455
O11 Tm3 2.261522 1_555
O11 Tm4 2.389533 1_555
O11 Tm1 2.412669 1_555
O12 Zn2 2.132649 1_565
O12 Tm3 2.261522 1_555
O12 Tm4 2.389533 1_665
O12 Tm1 2.412665 1_555
O13 Zn0 2.132644 1_665
O13 Tm2 2.261517 1_554
O13 Tm5 2.389533 1_655
O13 Tm3 2.412660 1_555
O14 Zn3 2.132640 1_555
O14 Tm1 2.261513 1_556
O14 Tm6 2.389533 1_565
O14 Tm0 2.412660 1_555
O15 Zn1 2.132649 1_655
O15 Tm0 2.261522 1_555
O15 Tm7 2.389533 1_555
O15 Tm2 2.412669 1_555
O16 Zn1 1.998433 1_655
O16 Tm7 2.445915 1_555
O17 Tm2 2.296200 1_554
O17 Tm1 2.296200 1_555
O17 Tm3 2.296203 1_555
O17 Tm0 2.296203 1_554
O18 Zn2 1.998433 1_455
O18 Tm4 2.445915 1_555
O19 Zn0 1.998435 1_565
O19 Tm5 2.445915 1_555
O20 Zn3 1.998435 1_545
O20 Tm6 2.445915 1_555
