# generated using pymatgen
data_KCSN
_symmetry_space_group_name_H-M   'P 1'
_cell_length_a   6.75378500
_cell_length_b   7.83221500
_cell_length_c   8.01055900
_cell_angle_alpha   90.00000000
_cell_angle_beta   90.00000000
_cell_angle_gamma   90.00000000
_symmetry_Int_Tables_number   1
_chemical_formula_structural   KCSN
_chemical_formula_sum   'K4 C4 S4 N4'
_cell_volume   423.73530991
_cell_formula_units_Z   4
loop_
 _symmetry_equiv_pos_site_id
 _symmetry_equiv_pos_as_xyz
  1  'x, y, z'
loop_
 _atom_site_type_symbol
 _atom_site_label
 _atom_site_symmetry_multiplicity
 _atom_site_fract_x
 _atom_site_fract_y
 _atom_site_fract_z
 _atom_site_occupancy
  K  K0  1  0.25000000  0.25608800  0.49731700  1
  K  K1  1  0.75000000  0.25608800  0.00268300  1
  K  K2  1  0.75000000  0.74391200  0.50268300  1
  K  K3  1  0.25000000  0.74391200  0.99731700  1
  C  C0  1  0.75000000  0.68804500  0.06252600  1
  C  C1  1  0.25000000  0.31195500  0.93747400  1
  C  C2  1  0.25000000  0.68804500  0.43747400  1
  C  C3  1  0.75000000  0.31195500  0.56252600  1
  S  S0  1  0.75000000  0.83098300  0.91202600  1
  S  S1  1  0.75000000  0.16901700  0.41202600  1
  S  S2  1  0.25000000  0.83098300  0.58797400  1
  S  S3  1  0.25000000  0.16901700  0.08797400  1
  N  N0  1  0.75000000  0.41443900  0.67366100  1
  N  N1  1  0.75000000  0.58556100  0.17366100  1
  N  N2  1  0.25000000  0.41443900  0.82633900  1
  N  N3  1  0.25000000  0.58556100  0.32633900  1
loop_
_geom_bond_atom_site_label_1
_geom_bond_atom_site_label_2
_geom_bond_distance
_geom_bond_site_symmetry_2
K0 N2 2.912876 1_555
K0 N3 2.921452 1_555
K0 S3 3.349230 1_555
K0 S2 3.407792 1_545
K0 S1 3.512161 1_455
K0 S1 3.512161 1_555
K1 N0 2.912876 1_554
K1 N1 2.921452 1_555
K1 S1 3.349230 1_555
K1 S0 3.407792 1_544
K1 S3 3.512161 1_555
K1 S3 3.512161 1_655
K2 N1 2.912876 1_555
K2 N0 2.921452 1_555
K2 S0 3.349230 1_555
K2 S1 3.407792 1_565
K2 S2 3.512161 1_655
K2 S2 3.512161 1_555
K3 N3 2.912876 1_556
K3 N2 2.921452 1_555
K3 S2 3.349230 1_555
K3 S3 3.407792 1_566
K3 S0 3.512161 1_555
K3 S0 3.512161 1_455
C0 N1 1.198683 1_555
C0 S0 1.645227 1_554
C1 N2 1.198683 1_555
C1 S3 1.645227 1_556
C2 N3 1.198683 1_555
C2 S2 1.645227 1_555
C3 N0 1.198683 1_555
C3 S1 1.645227 1_555
