# generated using pymatgen
data_HgB(CN)4
_symmetry_space_group_name_H-M   'P 1'
_cell_length_a   5.76624000
_cell_length_b   7.55094200
_cell_length_c   33.25757100
_cell_angle_alpha   90.00000000
_cell_angle_beta   90.00000000
_cell_angle_gamma   90.00000000
_symmetry_Int_Tables_number   1
_chemical_formula_structural   HgB(CN)4
_chemical_formula_sum   'Hg8 B8 C32 N32'
_cell_volume   1448.05272674
_cell_formula_units_Z   8
loop_
 _symmetry_equiv_pos_site_id
 _symmetry_equiv_pos_as_xyz
  1  'x, y, z'
loop_
 _atom_site_type_symbol
 _atom_site_label
 _atom_site_symmetry_multiplicity
 _atom_site_fract_x
 _atom_site_fract_y
 _atom_site_fract_z
 _atom_site_occupancy
  Hg  Hg0  1  0.89276400  0.75000000  0.39620400  1
  Hg  Hg1  1  0.10723600  0.75000000  0.89620400  1
  Hg  Hg2  1  0.59263900  0.75000000  0.33748100  1
  Hg  Hg3  1  0.10723600  0.25000000  0.60379600  1
  Hg  Hg4  1  0.59263900  0.25000000  0.16251900  1
  Hg  Hg5  1  0.40736100  0.75000000  0.83748100  1
  Hg  Hg6  1  0.89276400  0.25000000  0.10379600  1
  Hg  Hg7  1  0.40736100  0.25000000  0.66251900  1
  B  B0  1  0.35584200  0.25000000  0.45503300  1
  B  B1  1  0.64415800  0.25000000  0.95503300  1
  B  B2  1  0.02593000  0.75000000  0.19579300  1
  B  B3  1  0.97407000  0.25000000  0.80420700  1
  B  B4  1  0.64415800  0.75000000  0.54496700  1
  B  B5  1  0.02593000  0.25000000  0.30420700  1
  B  B6  1  0.35584200  0.75000000  0.04496700  1
  B  B7  1  0.97407000  0.75000000  0.69579300  1
  C  C0  1  0.18985200  0.08098900  0.30770400  1
  C  C1  1  0.18985200  0.58098900  0.19229600  1
  C  C2  1  0.73084800  0.75000000  0.49929300  1
  C  C3  1  0.10899200  0.25000000  0.76244000  1
  C  C4  1  0.26026000  0.57943700  0.06803100  1
  C  C5  1  0.73974000  0.42056300  0.93196900  1
  C  C6  1  0.26026000  0.92056300  0.06803100  1
  C  C7  1  0.89100800  0.25000000  0.26244000  1
  C  C8  1  0.81014800  0.58098900  0.69229600  1
  C  C9  1  0.63013300  0.75000000  0.04326900  1
  C  C10  1  0.26915200  0.25000000  0.50070700  1
  C  C11  1  0.26026000  0.07943700  0.43196900  1
  C  C12  1  0.18985200  0.91901100  0.19229600  1
  C  C13  1  0.73974000  0.92056300  0.56803100  1
  C  C14  1  0.36986700  0.75000000  0.54326900  1
  C  C15  1  0.36986700  0.25000000  0.95673100  1
  C  C16  1  0.73974000  0.57943700  0.56803100  1
  C  C17  1  0.73974000  0.07943700  0.93196900  1
  C  C18  1  0.10899200  0.75000000  0.73756000  1
  C  C19  1  0.81014800  0.08098900  0.80770400  1
  C  C20  1  0.63013300  0.25000000  0.45673100  1
  C  C21  1  0.26026000  0.42056300  0.43196900  1
  C  C22  1  0.83445400  0.25000000  0.33838900  1
  C  C23  1  0.16554600  0.25000000  0.83838900  1
  C  C24  1  0.81014800  0.41901100  0.80770400  1
  C  C25  1  0.26915200  0.75000000  0.99929300  1
  C  C26  1  0.89100800  0.75000000  0.23756000  1
  C  C27  1  0.16554600  0.75000000  0.66161100  1
  C  C28  1  0.81014800  0.91901100  0.69229600  1
  C  C29  1  0.18985200  0.41901100  0.30770400  1
  C  C30  1  0.73084800  0.25000000  0.00070700  1
  C  C31  1  0.83445400  0.75000000  0.16161100  1
  N  N0  1  0.16909900  0.25000000  0.96036800  1
  N  N1  1  0.22422100  0.25000000  0.53473300  1
  N  N2  1  0.80967000  0.04272500  0.58563600  1
  N  N3  1  0.77921200  0.25000000  0.23324800  1
  N  N4  1  0.68545600  0.96050900  0.81071100  1
  N  N5  1  0.68192900  0.75000000  0.13854500  1
  N  N6  1  0.80967000  0.45727500  0.58563600  1
  N  N7  1  0.22422100  0.75000000  0.96526700  1
  N  N8  1  0.31454400  0.46050900  0.18928900  1
  N  N9  1  0.19033000  0.54272500  0.41436400  1
  N  N10  1  0.68545600  0.46050900  0.68928900  1
  N  N11  1  0.80967000  0.54272500  0.91436400  1
  N  N12  1  0.68545600  0.53949100  0.81071100  1
  N  N13  1  0.83090100  0.75000000  0.03963200  1
  N  N14  1  0.77577900  0.75000000  0.46526700  1
  N  N15  1  0.80967000  0.95727500  0.91436400  1
  N  N16  1  0.83090100  0.25000000  0.46036800  1
  N  N17  1  0.22078800  0.25000000  0.73324800  1
  N  N18  1  0.31807100  0.75000000  0.63854500  1
  N  N19  1  0.19033000  0.95727500  0.41436400  1
  N  N20  1  0.31454400  0.53949100  0.31071100  1
  N  N21  1  0.22078800  0.75000000  0.76675200  1
  N  N22  1  0.31454400  0.96050900  0.31071100  1
  N  N23  1  0.16909900  0.75000000  0.53963200  1
  N  N24  1  0.19033000  0.45727500  0.08563600  1
  N  N25  1  0.19033000  0.04272500  0.08563600  1
  N  N26  1  0.68192900  0.25000000  0.36145500  1
  N  N27  1  0.77921200  0.75000000  0.26675200  1
  N  N28  1  0.31807100  0.25000000  0.86145500  1
  N  N29  1  0.31454400  0.03949100  0.18928900  1
  N  N30  1  0.77577900  0.25000000  0.03473300  1
  N  N31  1  0.68545600  0.03949100  0.68928900  1
loop_
_geom_bond_atom_site_label_1
_geom_bond_atom_site_label_2
_geom_bond_distance
_geom_bond_site_symmetry_2
Hg0 N14 2.393875 1_555
Hg0 N19 2.399680 1_655
Hg0 N9 2.399680 1_655
Hg1 N7 2.393875 1_555
Hg1 N11 2.399680 1_455
Hg1 N15 2.399680 1_455
Hg2 N22 2.427076 1_555
Hg2 N20 2.427076 1_555
Hg2 N27 2.586618 1_555
Hg3 N1 2.393875 1_555
Hg3 N6 2.399680 1_455
Hg3 N2 2.399680 1_455
Hg4 N29 2.427076 1_555
Hg4 N8 2.427076 1_555
Hg4 N3 2.586618 1_555
Hg5 N4 2.427076 1_555
Hg5 N12 2.427076 1_555
Hg5 N21 2.586618 1_555
Hg6 N30 2.393875 1_555
Hg6 N24 2.399680 1_655
Hg6 N25 2.399680 1_655
Hg7 N10 2.427076 1_555
Hg7 N31 2.427076 1_555
Hg7 N17 2.586618 1_555
B0 C20 1.582636 1_555
B0 C21 1.597138 1_555
B0 C11 1.597138 1_555
B0 C10 1.599142 1_555
B1 C15 1.582636 1_555
B1 C5 1.597138 1_555
B1 C17 1.597138 1_555
B1 C30 1.599142 1_556
B2 C31 1.584729 1_455
B2 C26 1.592101 1_455
B2 C12 1.592363 1_555
B2 C1 1.592363 1_555
B3 C23 1.584729 1_655
B3 C3 1.592101 1_655
B3 C24 1.592363 1_555
B3 C19 1.592363 1_555
B4 C14 1.582636 1_555
B4 C13 1.597138 1_555
B4 C16 1.597138 1_555
B4 C2 1.599142 1_555
B5 C22 1.584729 1_455
B5 C7 1.592101 1_455
B5 C29 1.592363 1_555
B5 C0 1.592363 1_555
B6 C9 1.582636 1_555
B6 C6 1.597138 1_555
B6 C4 1.597138 1_555
B6 C25 1.599142 1_554
B7 C27 1.584729 1_655
B7 C18 1.592101 1_655
B7 C28 1.592363 1_555
B7 C8 1.592363 1_555
C0 N22 1.163869 1_545
C1 N8 1.163869 1_555
C2 N14 1.160902 1_555
C3 N17 1.165386 1_555
C4 N24 1.164602 1_555
C5 N11 1.164602 1_555
C6 N25 1.164602 1_565
C7 N3 1.165386 1_555
C8 N10 1.163869 1_555
C9 N13 1.163978 1_555
C10 N1 1.160902 1_555
C11 N19 1.164602 1_545
C12 N29 1.163869 1_565
C13 N2 1.164602 1_565
C14 N23 1.163978 1_555
C15 N0 1.163978 1_555
C16 N6 1.164602 1_555
C17 N15 1.164602 1_545
C18 N21 1.165386 1_555
C19 N4 1.163869 1_545
C20 N16 1.163978 1_555
C21 N9 1.164602 1_555
C22 N26 1.167041 1_555
C23 N28 1.167041 1_555
C24 N12 1.163869 1_555
C25 N7 1.160902 1_555
C26 N27 1.165386 1_555
C27 N18 1.167041 1_555
C28 N31 1.163869 1_565
C29 N20 1.163869 1_555
C30 N30 1.160902 1_555
C31 N5 1.167041 1_555
