# generated using pymatgen
data_Y5Mg8Cu5
_symmetry_space_group_name_H-M   'P 1'
_cell_length_a   4.00586200
_cell_length_b   7.41774500
_cell_length_c   26.39054600
_cell_angle_alpha   90.00000000
_cell_angle_beta   90.00000000
_cell_angle_gamma   90.00000000
_symmetry_Int_Tables_number   1
_chemical_formula_structural   Y5Mg8Cu5
_chemical_formula_sum   'Y10 Mg16 Cu10'
_cell_volume   784.18089795
_cell_formula_units_Z   2
loop_
 _symmetry_equiv_pos_site_id
 _symmetry_equiv_pos_as_xyz
  1  'x, y, z'
loop_
 _atom_site_type_symbol
 _atom_site_label
 _atom_site_symmetry_multiplicity
 _atom_site_fract_x
 _atom_site_fract_y
 _atom_site_fract_z
 _atom_site_occupancy
  Y  Y0  1  0.50000000  0.42703000  0.14997900  1
  Y  Y1  1  0.50000000  0.57297000  0.85002100  1
  Y  Y2  1  0.50000000  0.80138500  0.25000000  1
  Y  Y3  1  0.50000000  0.92413000  0.39436300  1
  Y  Y4  1  0.50000000  0.07587000  0.89436300  1
  Y  Y5  1  0.50000000  0.19861500  0.75000000  1
  Y  Y6  1  0.50000000  0.07587000  0.60563700  1
  Y  Y7  1  0.50000000  0.92413000  0.10563700  1
  Y  Y8  1  0.50000000  0.57297000  0.64997900  1
  Y  Y9  1  0.50000000  0.42703000  0.35002100  1
  Mg  Mg0  1  0.00000000  0.90556200  0.81002800  1
  Mg  Mg1  1  0.50000000  0.29976100  0.02355700  1
  Mg  Mg2  1  0.00000000  0.59724000  0.43871300  1
  Mg  Mg3  1  0.00000000  0.46090400  0.25000000  1
  Mg  Mg4  1  0.00000000  0.09443800  0.31002800  1
  Mg  Mg5  1  0.50000000  0.70023900  0.97644300  1
  Mg  Mg6  1  0.00000000  0.40276000  0.93871300  1
  Mg  Mg7  1  0.00000000  0.59724000  0.06128700  1
  Mg  Mg8  1  0.00000000  0.00000000  0.00000000  1
  Mg  Mg9  1  0.50000000  0.29976100  0.47644300  1
  Mg  Mg10  1  0.00000000  0.40276000  0.56128700  1
  Mg  Mg11  1  0.50000000  0.70023900  0.52355700  1
  Mg  Mg12  1  0.00000000  0.09443800  0.18997200  1
  Mg  Mg13  1  0.00000000  0.53909600  0.75000000  1
  Mg  Mg14  1  0.00000000  0.00000000  0.50000000  1
  Mg  Mg15  1  0.00000000  0.90556200  0.68997200  1
  Cu  Cu0  1  0.50000000  0.21764200  0.25000000  1
  Cu  Cu1  1  0.00000000  0.21631000  0.08883100  1
  Cu  Cu2  1  0.00000000  0.21631000  0.41116900  1
  Cu  Cu3  1  0.00000000  0.28317600  0.83286100  1
  Cu  Cu4  1  0.00000000  0.78369000  0.91116900  1
  Cu  Cu5  1  0.50000000  0.78235800  0.75000000  1
  Cu  Cu6  1  0.00000000  0.71682400  0.16713900  1
  Cu  Cu7  1  0.00000000  0.78369000  0.58883100  1
  Cu  Cu8  1  0.00000000  0.71682400  0.33286100  1
  Cu  Cu9  1  0.00000000  0.28317600  0.66713900  1
loop_
_geom_bond_atom_site_label_1
_geom_bond_atom_site_label_2
_geom_bond_distance
_geom_bond_site_symmetry_2
Cu0 Mg3 2.695884 1_655
Cu0 Mg3 2.695884 1_555
Cu0 Mg4 2.712294 1_655
Cu0 Mg4 2.712294 1_555
Cu0 Mg12 2.712294 1_655
Cu0 Mg12 2.712294 1_555
Cu0 Y9 3.062666 1_555
Cu0 Y0 3.062666 1_555
Cu0 Y2 3.087688 1_545
Cu1 Mg1 2.713360 1_555
Cu1 Mg1 2.713360 1_455
Cu1 Mg12 2.818101 1_555
Cu1 Mg8 2.840820 1_555
Cu1 Mg7 2.917642 1_555
Cu1 Y7 2.984243 1_545
Cu1 Y7 2.984243 1_445
Cu1 Y0 3.009823 1_555
Cu1 Y0 3.009823 1_455
Cu2 Mg9 2.713360 1_455
Cu2 Mg9 2.713360 1_555
Cu2 Mg4 2.818101 1_555
Cu2 Mg14 2.840820 1_555
Cu2 Mg2 2.917642 1_555
Cu2 Y3 2.984243 1_445
Cu2 Y3 2.984243 1_545
Cu2 Y9 3.009823 1_555
Cu2 Y9 3.009823 1_455
Cu3 Mg0 2.865126 1_545
Cu3 Mg13 2.895789 1_555
Cu3 Mg6 2.930946 1_555
Cu3 Y1 2.972823 1_555
Cu3 Y1 2.972823 1_455
Cu3 Y4 3.001791 1_455
Cu3 Y4 3.001791 1_555
Cu3 Y5 3.031013 1_455
Cu3 Y5 3.031013 1_555
Cu4 Mg5 2.713360 1_455
Cu4 Mg5 2.713360 1_555
Cu4 Mg0 2.818101 1_555
Cu4 Mg8 2.840820 1_566
Cu4 Mg6 2.917642 1_555
Cu4 Y4 2.984243 1_465
Cu4 Y4 2.984243 1_565
Cu4 Y1 3.009823 1_455
Cu4 Y1 3.009823 1_555
Cu5 Mg13 2.695884 1_655
Cu5 Mg13 2.695884 1_555
Cu5 Mg0 2.712294 1_555
Cu5 Mg0 2.712294 1_655
Cu5 Mg15 2.712294 1_555
Cu5 Mg15 2.712294 1_655
Cu5 Y1 3.062666 1_555
Cu5 Y8 3.062666 1_555
Cu5 Y5 3.087688 1_565
Cu6 Mg12 2.865126 1_565
Cu6 Mg3 2.895789 1_555
Cu6 Mg7 2.930946 1_555
Cu6 Y0 2.972823 1_455
Cu6 Y0 2.972823 1_555
Cu6 Y7 3.001791 1_555
Cu6 Y7 3.001791 1_455
Cu6 Y2 3.031013 1_555
Cu6 Y2 3.031013 1_455
Cu7 Mg11 2.713360 1_455
Cu7 Mg11 2.713360 1_555
Cu7 Mg15 2.818101 1_555
Cu7 Mg14 2.840820 1_565
Cu7 Mg10 2.917642 1_555
Cu7 Y6 2.984243 1_465
Cu7 Y6 2.984243 1_565
Cu7 Y8 3.009823 1_555
Cu7 Y8 3.009823 1_455
Cu8 Mg4 2.865126 1_565
Cu8 Mg3 2.895789 1_555
Cu8 Mg2 2.930946 1_555
Cu8 Y9 2.972823 1_555
Cu8 Y9 2.972823 1_455
Cu8 Y3 3.001791 1_555
Cu8 Y3 3.001791 1_455
Cu8 Y2 3.031013 1_455
Cu8 Y2 3.031013 1_555
Cu9 Mg15 2.865126 1_545
Cu9 Mg13 2.895789 1_555
Cu9 Mg10 2.930946 1_555
Cu9 Y8 2.972823 1_555
Cu9 Y8 2.972823 1_455
Cu9 Y6 3.001791 1_455
Cu9 Y6 3.001791 1_555
Cu9 Y5 3.031013 1_555
Cu9 Y5 3.031013 1_455
