# generated using pymatgen
data_Ba2Ca(PdO2)3
_symmetry_space_group_name_H-M   'P 1'
_cell_length_a   9.57608326
_cell_length_b   8.82222610
_cell_length_c   7.31242536
_cell_angle_alpha   72.12539991
_cell_angle_beta   61.25962733
_cell_angle_gamma   46.61497276
_symmetry_Int_Tables_number   1
_chemical_formula_structural   Ba2Ca(PdO2)3
_chemical_formula_sum   'Ba4 Ca2 Pd6 O12'
_cell_volume   393.39379948
_cell_formula_units_Z   2
loop_
 _symmetry_equiv_pos_site_id
 _symmetry_equiv_pos_as_xyz
  1  'x, y, z'
loop_
 _atom_site_type_symbol
 _atom_site_label
 _atom_site_symmetry_multiplicity
 _atom_site_fract_x
 _atom_site_fract_y
 _atom_site_fract_z
 _atom_site_occupancy
  Ba  Ba0  1  0.24536300  0.24822300  0.25401400  1
  Ba  Ba1  1  0.74807600  0.75319500  0.74379200  1
  Ba  Ba2  1  0.76158000  0.23553300  0.76472400  1
  Ba  Ba3  1  0.23054600  0.76389500  0.23928900  1
  Ca  Ca0  1  0.67288000  0.67467100  0.32470800  1
  Ca  Ca1  1  0.32672900  0.32601600  0.67629800  1
  Pd  Pd0  1  0.68938200  0.01042700  0.31436800  1
  Pd  Pd1  1  0.99311500  0.30809100  0.00114200  1
  Pd  Pd2  1  0.00694700  0.69496500  0.99434900  1
  Pd  Pd3  1  0.31743600  0.98682700  0.68745000  1
  Pd  Pd4  1  0.32412000  0.67209000  0.67083500  1
  Pd  Pd5  1  0.67518400  0.32159400  0.33198600  1
  O  O0  1  0.09117200  0.69938000  0.67730300  1
  O  O1  1  0.52677400  0.67034600  0.70805200  1
  O  O2  1  0.67454800  0.53318500  0.08689500  1
  O  O3  1  0.69528400  0.10016000  0.53560900  1
  O  O4  1  0.90663200  0.30137500  0.33047300  1
  O  O5  1  0.46657300  0.32376500  0.30138800  1
  O  O6  1  0.91633500  0.69467800  0.31546500  1
  O  O7  1  0.29593800  0.90600000  0.46297900  1
  O  O8  1  0.68124900  0.92498100  0.08480300  1
  O  O9  1  0.30703700  0.08485800  0.92587400  1
  O  O10  1  0.07167100  0.31353600  0.68902200  1
  O  O11  1  0.32712400  0.47385100  0.90884900  1
loop_
_geom_bond_atom_site_label_1
_geom_bond_atom_site_label_2
_geom_bond_distance
_geom_bond_site_symmetry_2
Ba0 O4 2.716881 1_455
Ba0 O7 2.748767 1_545
Ba0 O9 2.788244 1_554
Ba0 O5 2.799707 1_555
Ba0 O8 2.816516 1_545
Ba0 O10 2.817349 1_555
Ba0 O11 2.846449 1_554
Ba0 O6 2.884257 1_455
Ba1 O6 2.769362 1_555
Ba1 O3 2.774250 1_565
Ba1 O0 2.778306 1_655
Ba1 O2 2.783358 1_556
Ba1 O1 2.805602 1_555
Ba1 O10 2.838227 1_655
Ba1 O9 2.859769 1_565
Ba1 O8 2.894376 1_556
Ba2 O3 2.815861 1_555
Ba2 O11 2.822544 1_555
Ba2 O1 2.830791 1_555
Ba2 O4 2.843335 1_555
Ba2 O10 3.254277 1_655
Ba2 O8 3.286890 1_546
Ba3 O7 2.821666 1_555
Ba3 O0 2.859647 1_555
Ba3 O5 2.870499 1_555
Ba3 O2 2.899891 1_555
Ba3 O6 3.231140 1_455
Ba3 O9 3.325396 1_564
Ca0 O8 2.385436 1_555
Ca0 O4 2.395063 1_555
Ca0 O7 2.419366 1_555
Ca0 O2 2.420906 1_555
Ca0 O6 2.424324 1_555
Ca0 O1 2.460236 1_555
Ca1 O3 2.364385 1_555
Ca1 O9 2.393607 1_555
Ca1 O0 2.393652 1_555
Ca1 O5 2.403295 1_555
Ca1 O11 2.442790 1_555
Ca1 O10 2.476081 1_555
O0 Pd4 2.050381 1_555
O0 Pd2 2.053386 1_555
O1 Pd3 2.044475 1_555
O1 Pd4 2.074768 1_555
O2 Pd1 2.060421 1_555
O2 Pd5 2.153555 1_555
O3 Pd5 2.010935 1_555
O3 Pd0 2.045189 1_555
O4 Pd5 2.092539 1_555
O4 Pd1 2.133232 1_555
O5 Pd0 2.033199 1_555
O5 Pd5 2.101378 1_555
O6 Pd0 2.041829 1_565
O6 Pd2 2.075238 1_654
O7 Pd4 2.084576 1_555
O7 Pd3 2.119030 1_555
O8 Pd0 2.091761 1_565
O8 Pd2 2.104323 1_654
O9 Pd1 2.039443 1_456
O9 Pd3 2.106623 1_545
O10 Pd1 2.026956 1_456
O10 Pd3 2.126480 1_545
O11 Pd4 2.049191 1_555
O11 Pd2 2.070112 1_555
