# generated using pymatgen
data_Rb6LiNd11Se12(Cl4O9)4
_symmetry_space_group_name_H-M   'P 1'
_cell_length_a   16.92745731
_cell_length_b   16.92745731
_cell_length_c   16.92745731
_cell_angle_alpha   123.51907662
_cell_angle_beta   123.51907662
_cell_angle_gamma   84.00571902
_symmetry_Int_Tables_number   1
_chemical_formula_structural   Rb6LiNd11Se12(Cl4O9)4
_chemical_formula_sum   'Rb12 Li2 Nd22 Se24 Cl32 O72'
_cell_volume   3227.96673508
_cell_formula_units_Z   2
loop_
 _symmetry_equiv_pos_site_id
 _symmetry_equiv_pos_as_xyz
  1  'x, y, z'
loop_
 _atom_site_type_symbol
 _atom_site_label
 _atom_site_symmetry_multiplicity
 _atom_site_fract_x
 _atom_site_fract_y
 _atom_site_fract_z
 _atom_site_occupancy
  Rb  Rb0  1  0.62966600  0.62025800  0.24992400  1
  Rb  Rb1  1  0.37974200  0.62966600  0.00940700  1
  Rb  Rb2  1  0.87665500  0.37665500  0.25330900  1
  Rb  Rb3  1  0.12334500  0.62334500  0.74669100  1
  Rb  Rb4  1  0.62334500  0.87665500  0.50000000  1
  Rb  Rb5  1  0.87033400  0.12025800  0.99059300  1
  Rb  Rb6  1  0.62025800  0.37033400  0.99059300  1
  Rb  Rb7  1  0.12966600  0.87974200  0.00940700  1
  Rb  Rb8  1  0.12025800  0.12966600  0.24992400  1
  Rb  Rb9  1  0.37033400  0.37974200  0.75007600  1
  Rb  Rb10  1  0.87974200  0.87033400  0.75007600  1
  Rb  Rb11  1  0.37665500  0.12334500  0.50000000  1
  Li  Li0  1  0.75000000  0.25000000  0.50000000  1
  Li  Li1  1  0.25000000  0.75000000  0.50000000  1
  Nd  Nd0  1  0.99667900  0.25416000  0.50000000  1
  Nd  Nd1  1  0.25416000  0.75416000  0.25748000  1
  Nd  Nd2  1  0.25000000  0.50704800  0.25704800  1
  Nd  Nd3  1  0.25000000  0.25000000  0.00000000  1
  Nd  Nd4  1  0.00704800  0.75000000  0.25704800  1
  Nd  Nd5  1  0.50000000  0.00000000  0.00000000  1
  Nd  Nd6  1  0.50332100  0.00332100  0.25748000  1
  Nd  Nd7  1  0.00000000  0.00000000  0.50000000  1
  Nd  Nd8  1  0.24584000  0.50332100  0.50000000  1
  Nd  Nd9  1  0.75000000  0.49295200  0.74295200  1
  Nd  Nd10  1  0.99295200  0.25000000  0.74295200  1
  Nd  Nd11  1  0.25000000  0.99295200  0.74295200  1
  Nd  Nd12  1  0.74584000  0.24584000  0.74252000  1
  Nd  Nd13  1  0.75000000  0.75000000  0.00000000  1
  Nd  Nd14  1  0.50000000  0.50000000  0.50000000  1
  Nd  Nd15  1  0.75416000  0.49667900  0.50000000  1
  Nd  Nd16  1  0.75000000  0.00704800  0.25704800  1
  Nd  Nd17  1  0.00332100  0.74584000  0.50000000  1
  Nd  Nd18  1  0.00000000  0.50000000  0.00000000  1
  Nd  Nd19  1  0.49667900  0.99667900  0.74252000  1
  Nd  Nd20  1  0.49295200  0.75000000  0.74295200  1
  Nd  Nd21  1  0.50704800  0.25000000  0.25704800  1
  Se  Se0  1  0.77940600  0.06376900  0.50000000  1
  Se  Se1  1  0.01074100  0.28168300  0.97203000  1
  Se  Se2  1  0.27940600  0.77940600  0.71563700  1
  Se  Se3  1  0.93623100  0.43623100  0.71563700  1
  Se  Se4  1  0.96128900  0.98925900  0.27094300  1
  Se  Se5  1  0.80965300  0.78168300  0.27094300  1
  Se  Se6  1  0.21831700  0.48925900  0.02797000  1
  Se  Se7  1  0.46128900  0.19034700  0.97203000  1
  Se  Se8  1  0.72059400  0.22059400  0.28436300  1
  Se  Se9  1  0.03871100  0.01074100  0.72905700  1
  Se  Se10  1  0.19034700  0.21831700  0.72905700  1
  Se  Se11  1  0.98925900  0.71831700  0.02797000  1
  Se  Se12  1  0.43623100  0.72059400  0.50000000  1
  Se  Se13  1  0.51074100  0.53871100  0.72905700  1
  Se  Se14  1  0.48925900  0.46128900  0.27094300  1
  Se  Se15  1  0.22059400  0.93623100  0.50000000  1
  Se  Se16  1  0.30965300  0.03871100  0.02797000  1
  Se  Se17  1  0.69034700  0.96128900  0.97203000  1
  Se  Se18  1  0.53871100  0.80965300  0.02797000  1
  Se  Se19  1  0.28168300  0.30965300  0.27094300  1
  Se  Se20  1  0.71831700  0.69034700  0.72905700  1
  Se  Se21  1  0.78168300  0.51074100  0.97203000  1
  Se  Se22  1  0.56376900  0.27940600  0.50000000  1
  Se  Se23  1  0.06376900  0.56376900  0.28436300  1
  Cl  Cl0  1  0.81562400  0.31562400  0.97778600  1
  Cl  Cl1  1  0.42342200  0.92342200  0.50000000  1
  Cl  Cl2  1  0.42276100  0.42276100  0.00000000  1
  Cl  Cl3  1  0.83783800  0.81562400  0.50000000  1
  Cl  Cl4  1  0.57657800  0.07657800  0.50000000  1
  Cl  Cl5  1  0.69058500  0.43257900  0.27348900  1
  Cl  Cl6  1  0.43257900  0.15909000  0.74199300  1
  Cl  Cl7  1  0.16216200  0.18437600  0.50000000  1
  Cl  Cl8  1  0.57723900  0.57723900  0.00000000  1
  Cl  Cl9  1  0.92276100  0.92276100  0.00000000  1
  Cl  Cl10  1  0.66216200  0.16216200  0.97778600  1
  Cl  Cl11  1  0.07657800  0.57657800  0.50000000  1
  Cl  Cl12  1  0.18437600  0.68437600  0.02221400  1
  Cl  Cl13  1  0.41709700  0.69058500  0.25800700  1
  Cl  Cl14  1  0.91709700  0.65909000  0.72651100  1
  Cl  Cl15  1  0.07723900  0.07723900  0.00000000  1
  Cl  Cl16  1  0.56742100  0.84091000  0.25800700  1
  Cl  Cl17  1  0.84091000  0.58290300  0.27348900  1
  Cl  Cl18  1  0.58290300  0.30941500  0.74199300  1
  Cl  Cl19  1  0.34091000  0.06742100  0.25800700  1
  Cl  Cl20  1  0.19058500  0.91709700  0.25800700  1
  Cl  Cl21  1  0.65909000  0.93257900  0.74199300  1
  Cl  Cl22  1  0.31562400  0.33783800  0.50000000  1
  Cl  Cl23  1  0.93257900  0.19058500  0.27348900  1
  Cl  Cl24  1  0.08290300  0.34091000  0.27348900  1
  Cl  Cl25  1  0.92342200  0.42342200  0.50000000  1
  Cl  Cl26  1  0.33783800  0.83783800  0.02221400  1
  Cl  Cl27  1  0.80941500  0.08290300  0.74199300  1
  Cl  Cl28  1  0.30941500  0.56742100  0.72651100  1
  Cl  Cl29  1  0.06742100  0.80941500  0.72651100  1
  Cl  Cl30  1  0.15909000  0.41709700  0.72651100  1
  Cl  Cl31  1  0.68437600  0.66216200  0.50000000  1
  O  O0  1  0.92308400  0.59400500  0.91276500  1
  O  O1  1  0.44099200  0.06314300  0.86958600  1
  O  O2  1  0.06385700  0.68320900  0.37622900  1
  O  O3  1  0.07140500  0.69355700  0.13041400  1
  O  O4  1  0.48968200  0.81876000  0.91276500  1
  O  O5  1  0.68320900  0.30698000  0.61935200  1
  O  O6  1  0.33798200  0.17592500  0.91305500  1
  O  O7  1  0.40599500  0.31876000  0.32907900  1
  O  O8  1  0.57507400  0.66201800  0.83794300  1
  O  O9  1  0.17592500  0.26286900  0.83794300  1
  O  O10  1  0.31237200  0.93614300  0.61935200  1
  O  O11  1  0.40529200  0.62558200  0.50000000  1
  O  O12  1  0.80644300  0.42859500  0.86958600  1
  O  O13  1  0.06314300  0.19355700  0.62215200  1
  O  O14  1  0.55900800  0.93685700  0.13041400  1
  O  O15  1  0.90599500  0.57691600  0.08723500  1
  O  O16  1  0.26286900  0.42492600  0.08694500  1
  O  O17  1  0.18762800  0.80698000  0.62377100  1
  O  O18  1  0.23713100  0.32407500  0.16205700  1
  O  O19  1  0.62558200  0.12558200  0.22029000  1
  O  O20  1  0.66201800  0.82407500  0.08694500  1
  O  O21  1  0.59400500  0.68124000  0.67092100  1
  O  O22  1  0.07507400  0.23713100  0.91305500  1
  O  O23  1  0.43614300  0.81237200  0.61935200  1
  O  O24  1  0.73713100  0.57507400  0.91305500  1
  O  O25  1  0.51031800  0.18124000  0.08723500  1
  O  O26  1  0.31679100  0.69302000  0.38064800  1
  O  O27  1  0.87441800  0.09470800  0.50000000  1
  O  O28  1  0.83798200  0.92492600  0.16205700  1
  O  O29  1  0.07691600  0.40599500  0.08723500  1
  O  O30  1  0.57691600  0.48968200  0.67092100  1
  O  O31  1  0.69355700  0.56314300  0.62215200  1
  O  O32  1  0.59470800  0.37441800  0.50000000  1
  O  O33  1  0.92859500  0.30644300  0.86958600  1
  O  O34  1  0.09400500  0.42308400  0.91276500  1
  O  O35  1  0.30644300  0.43685700  0.37784800  1
  O  O36  1  0.69302000  0.31237200  0.37622900  1
  O  O37  1  0.42492600  0.33798200  0.16205700  1
  O  O38  1  0.93614300  0.31679100  0.62377100  1
  O  O39  1  0.67592500  0.83798200  0.91305500  1
  O  O40  1  0.09470800  0.59470800  0.22029000  1
  O  O41  1  0.43685700  0.05900800  0.13041400  1
  O  O42  1  0.19355700  0.57140500  0.13041400  1
  O  O43  1  0.90529200  0.40529200  0.77971000  1
  O  O44  1  0.31876000  0.98968200  0.91276500  1
  O  O45  1  0.68124000  0.01031800  0.08723500  1
  O  O46  1  0.81876000  0.90599500  0.32907900  1
  O  O47  1  0.93685700  0.80644300  0.37784800  1
  O  O48  1  0.76286900  0.67592500  0.83794300  1
  O  O49  1  0.68762800  0.06385700  0.38064800  1
  O  O50  1  0.81679100  0.43614300  0.62377100  1
  O  O51  1  0.32407500  0.16201800  0.08694500  1
  O  O52  1  0.56385700  0.18762800  0.38064800  1
  O  O53  1  0.30698000  0.68762800  0.62377100  1
  O  O54  1  0.18320900  0.56385700  0.37622900  1
  O  O55  1  0.94099200  0.07140500  0.37784800  1
  O  O56  1  0.56314300  0.94099200  0.86958600  1
  O  O57  1  0.57140500  0.44099200  0.37784800  1
  O  O58  1  0.82407500  0.73713100  0.16205700  1
  O  O59  1  0.12558200  0.90529200  0.50000000  1
  O  O60  1  0.81237200  0.19302000  0.37622900  1
  O  O61  1  0.19302000  0.81679100  0.38064800  1
  O  O62  1  0.80698000  0.18320900  0.61935200  1
  O  O63  1  0.37441800  0.87441800  0.77971000  1
  O  O64  1  0.01031800  0.92308400  0.32907900  1
  O  O65  1  0.42859500  0.55900800  0.62215200  1
  O  O66  1  0.18124000  0.09400500  0.67092100  1
  O  O67  1  0.05900800  0.92859500  0.62215200  1
  O  O68  1  0.98968200  0.07691600  0.67092100  1
  O  O69  1  0.92492600  0.76286900  0.08694500  1
  O  O70  1  0.16201800  0.07507400  0.83794300  1
  O  O71  1  0.42308400  0.51031800  0.32907900  1
loop_
_geom_bond_atom_site_label_1
_geom_bond_atom_site_label_2
_geom_bond_distance
_geom_bond_site_symmetry_2
Li0 O50 2.536355 1_555
Li0 O38 2.536355 1_555
Li0 O36 2.536355 1_555
Li0 O60 2.536355 1_555
Li0 O49 2.536355 1_555
Li0 O5 2.536355 1_555
Li0 O52 2.536355 1_555
Li0 O62 2.536355 1_555
Li1 O61 2.536355 1_555
Li1 O53 2.536355 1_555
Li1 O10 2.536355 1_555
Li1 O17 2.536355 1_555
Li1 O23 2.536355 1_555
Li1 O26 2.536355 1_555
Li1 O2 2.536355 1_555
Li1 O54 2.536355 1_555
Nd0 O55 2.475077 1_555
Nd0 O13 2.475078 1_655
Nd0 O38 2.500929 1_555
Nd0 O60 2.500929 1_555
Nd1 O3 2.475079 1_555
Nd1 O42 2.475079 1_555
Nd1 O26 2.500943 1_555
Nd1 O61 2.500943 1_555
Nd2 O29 2.467341 1_555
Nd2 O71 2.467343 1_555
Nd2 O54 2.534252 1_555
Nd2 O26 2.534252 1_555
Nd2 O16 2.545521 1_555
Nd2 O18 2.545535 1_555
Nd2 O35 2.606607 1_555
Nd2 O42 2.606607 1_555
Nd2 O11 2.810276 1_555
Nd2 O40 2.810276 1_555
Nd3 O16 2.439045 1_555
Nd3 O22 2.439045 1_554
Nd3 O37 2.439047 1_555
Nd3 O9 2.439047 1_554
Nd3 O18 2.439047 1_555
Nd3 O70 2.439047 1_554
Nd3 O51 2.439058 1_555
Nd3 O6 2.439058 1_554
Nd4 O15 2.467341 1_455
Nd4 O64 2.467343 1_555
Nd4 O61 2.534252 1_555
Nd4 O2 2.534252 1_555
Nd4 O69 2.545521 1_455
Nd4 O58 2.545535 1_455
Nd4 O3 2.606607 1_555
Nd4 O47 2.606607 1_455
Nd4 O59 2.810276 1_555
Nd4 O40 2.810276 1_555
Nd5 O19 2.525334 1_555
Nd5 O63 2.525334 1_544
Nd5 O4 2.539078 1_544
Nd5 O44 2.539078 1_544
Nd5 O25 2.539078 1_555
Nd5 O45 2.539078 1_555
Nd5 O1 2.638413 1_554
Nd5 O56 2.638413 1_544
Nd5 O41 2.638413 1_555
Nd5 O14 2.638413 1_545
Nd6 O14 2.475050 1_545
Nd6 O41 2.475050 1_555
Nd6 O49 2.500927 1_555
Nd6 O52 2.500927 1_555
Nd7 O59 2.525334 1_545
Nd7 O27 2.525334 1_455
Nd7 O64 2.539065 1_545
Nd7 O68 2.539065 1_455
Nd7 O66 2.539076 1_555
Nd7 O46 2.539076 1_445
Nd7 O13 2.638411 1_555
Nd7 O47 2.638411 1_445
Nd7 O67 2.638413 1_545
Nd7 O55 2.638413 1_455
Nd8 O65 2.475077 1_555
Nd8 O35 2.475078 1_555
Nd8 O54 2.500929 1_555
Nd8 O53 2.500929 1_555
Nd9 O0 2.467341 1_555
Nd9 O30 2.467343 1_555
Nd9 O50 2.534252 1_555
Nd9 O5 2.534252 1_555
Nd9 O24 2.545521 1_555
Nd9 O48 2.545535 1_555
Nd9 O12 2.606607 1_555
Nd9 O31 2.606607 1_555
Nd9 O32 2.810276 1_555
Nd9 O43 2.810276 1_555
Nd10 O34 2.467341 1_655
Nd10 O68 2.467343 1_555
Nd10 O38 2.534252 1_555
Nd10 O62 2.534252 1_555
Nd10 O22 2.545521 1_655
Nd10 O9 2.545535 1_655
Nd10 O13 2.606607 1_655
Nd10 O33 2.606607 1_555
Nd10 O27 2.810276 1_555
Nd10 O43 2.810276 1_555
Nd11 O44 2.467331 1_555
Nd11 O66 2.467341 1_565
Nd11 O10 2.534252 1_555
Nd11 O17 2.534252 1_555
Nd11 O6 2.545533 1_565
Nd11 O70 2.545535 1_565
Nd11 O1 2.606621 1_565
Nd11 O67 2.606621 1_555
Nd11 O59 2.810276 1_555
Nd11 O63 2.810276 1_555
Nd12 O33 2.475079 1_555
Nd12 O12 2.475079 1_555
Nd12 O62 2.500943 1_555
Nd12 O5 2.500943 1_555
Nd13 O69 2.439045 1_555
Nd13 O24 2.439045 1_554
Nd13 O58 2.439047 1_555
Nd13 O28 2.439047 1_555
Nd13 O48 2.439047 1_554
Nd13 O8 2.439047 1_554
Nd13 O20 2.439058 1_555
Nd13 O39 2.439058 1_554
Nd14 O11 2.525334 1_555
Nd14 O32 2.525334 1_555
Nd14 O71 2.539065 1_555
Nd14 O30 2.539065 1_555
Nd14 O7 2.539076 1_555
Nd14 O21 2.539076 1_555
Nd14 O31 2.638411 1_555
Nd14 O35 2.638411 1_555
Nd14 O65 2.638413 1_555
Nd14 O57 2.638413 1_555
Nd15 O57 2.475077 1_555
Nd15 O31 2.475078 1_555
Nd15 O36 2.500929 1_555
Nd15 O50 2.500929 1_555
Nd16 O45 2.467331 1_555
Nd16 O46 2.467341 1_545
Nd16 O49 2.534252 1_555
Nd16 O60 2.534252 1_555
Nd16 O20 2.545533 1_545
Nd16 O28 2.545535 1_545
Nd16 O14 2.606621 1_545
Nd16 O55 2.606621 1_555
Nd16 O19 2.810276 1_555
Nd16 O27 2.810276 1_555
Nd17 O67 2.475077 1_555
Nd17 O47 2.475078 1_455
Nd17 O17 2.500929 1_555
Nd17 O2 2.500929 1_555
Nd18 O43 2.525334 1_454
Nd18 O40 2.525334 1_555
Nd18 O34 2.539076 1_554
Nd18 O15 2.539076 1_455
Nd18 O29 2.539076 1_555
Nd18 O0 2.539076 1_454
Nd18 O42 2.638411 1_555
Nd18 O3 2.638411 1_555
Nd18 O12 2.638411 1_454
Nd18 O33 2.638411 1_454
Nd19 O1 2.475050 1_565
Nd19 O56 2.475050 1_555
Nd19 O10 2.500927 1_555
Nd19 O23 2.500927 1_555
Nd20 O4 2.467331 1_555
Nd20 O21 2.467341 1_555
Nd20 O23 2.534252 1_555
Nd20 O53 2.534252 1_555
Nd20 O39 2.545533 1_555
Nd20 O8 2.545535 1_555
Nd20 O56 2.606621 1_555
Nd20 O65 2.606621 1_555
Nd20 O63 2.810276 1_555
Nd20 O11 2.810276 1_555
Nd21 O25 2.467331 1_555
Nd21 O7 2.467341 1_555
Nd21 O52 2.534252 1_555
Nd21 O36 2.534252 1_555
Nd21 O51 2.545533 1_555
Nd21 O37 2.545535 1_555
Nd21 O41 2.606621 1_555
Nd21 O57 2.606621 1_555
Nd21 O32 2.810276 1_555
Nd21 O19 2.810276 1_555
Cl0 Nd12 2.924201 1_555
Cl0 Rb5 3.430983 1_555
Cl0 Rb6 3.430983 1_555
Cl0 Rb2 3.669688 1_556
Cl1 Nd1 3.000821 1_555
Cl1 Nd19 3.000831 1_555
Cl1 Rb4 3.394096 1_555
Cl1 Rb11 3.394096 1_565
Cl2 Rb6 3.435347 1_554
Cl2 Rb9 3.435355 1_554
Cl2 Rb0 3.435355 1_555
Cl2 Rb1 3.435361 1_555
Cl3 Nd17 2.924216 1_655
Cl3 Rb0 3.430975 1_555
Cl3 Rb10 3.430975 1_555
Cl3 Rb4 3.669704 1_555
Cl4 Nd12 3.000821 1_555
Cl4 Nd6 3.000831 1_555
Cl4 Rb11 3.394096 1_555
Cl4 Rb4 3.394096 1_545
Cl5 Nd15 2.851113 1_555
Cl5 Rb2 3.337932 1_555
Cl5 Rb0 3.402417 1_555
Cl5 Rb6 3.721891 1_554
Cl6 Nd19 2.851124 1_545
Cl6 Rb11 3.337908 1_555
Cl6 Rb6 3.402422 1_555
Cl6 Rb9 3.721901 1_555
Cl7 Nd0 2.924216 1_455
Cl7 Rb9 3.430975 1_555
Cl7 Rb8 3.430975 1_555
Cl7 Rb11 3.669704 1_555
Cl8 Rb1 3.435347 1_555
Cl8 Rb0 3.435355 1_555
Cl8 Rb9 3.435355 1_554
Cl8 Rb6 3.435361 1_554
Cl9 Rb5 3.435347 1_564
Cl9 Rb10 3.435355 1_554
Cl9 Rb8 3.435355 1_665
Cl9 Rb7 3.435361 1_655
Cl10 Nd19 2.924211 1_545
Cl10 Rb6 3.430969 1_555
Cl10 Rb5 3.430969 1_555
Cl10 Rb2 3.669701 1_556
Cl11 Nd8 3.000816 1_555
Cl11 Nd17 3.000816 1_555
Cl11 Rb2 3.394098 1_455
Cl11 Rb3 3.394112 1_555
Cl12 Nd1 2.924201 1_555
Cl12 Rb7 3.430983 1_555
Cl12 Rb1 3.430983 1_555
Cl12 Rb3 3.669688 1_554
Cl13 Nd1 2.851118 1_555
Cl13 Rb4 3.337914 1_555
Cl13 Rb1 3.402442 1_555
Cl13 Rb0 3.721898 1_555
Cl14 Nd15 2.851119 1_555
Cl14 Rb3 3.337901 1_655
Cl14 Rb10 3.402420 1_555
Cl14 Rb7 3.721898 1_656
Cl15 Rb7 3.435347 1_545
Cl15 Rb8 3.435355 1_555
Cl15 Rb10 3.435355 1_444
Cl15 Rb5 3.435361 1_454
Cl16 Nd6 2.851124 1_565
Cl16 Rb4 3.337908 1_555
Cl16 Rb1 3.402422 1_555
Cl16 Rb0 3.721901 1_555
Cl17 Nd17 2.851119 1_655
Cl17 Rb2 3.337901 1_555
Cl17 Rb0 3.402420 1_555
Cl17 Rb6 3.721898 1_554
Cl18 Nd12 2.851118 1_555
Cl18 Rb11 3.337914 1_555
Cl18 Rb6 3.402442 1_555
Cl18 Rb9 3.721898 1_555
Cl19 Nd6 2.851124 1_555
Cl19 Rb11 3.337908 1_555
Cl19 Rb7 3.402422 1_545
Cl19 Rb8 3.721901 1_555
Cl20 Nd1 2.851118 1_555
Cl20 Rb11 3.337914 1_565
Cl20 Rb7 3.402442 1_555
Cl20 Rb8 3.721898 1_565
Cl21 Nd19 2.851124 1_555
Cl21 Rb4 3.337908 1_555
Cl21 Rb5 3.402422 1_565
Cl21 Rb10 3.721901 1_555
Cl22 Nd8 2.924216 1_555
Cl22 Rb9 3.430975 1_555
Cl22 Rb8 3.430975 1_555
Cl22 Rb11 3.669704 1_555
Cl23 Nd0 2.851113 1_555
Cl23 Rb2 3.337932 1_555
Cl23 Rb8 3.402417 1_655
Cl23 Rb5 3.721891 1_554
Cl24 Nd8 2.851119 1_555
Cl24 Rb2 3.337901 1_455
Cl24 Rb8 3.402420 1_555
Cl24 Rb5 3.721898 1_454
Cl25 Nd0 3.000816 1_555
Cl25 Nd15 3.000816 1_555
Cl25 Rb3 3.394098 1_655
Cl25 Rb2 3.394112 1_555
Cl26 Nd6 2.924211 1_565
Cl26 Rb7 3.430969 1_555
Cl26 Rb1 3.430969 1_555
Cl26 Rb3 3.669701 1_554
Cl27 Nd12 2.851118 1_555
Cl27 Rb4 3.337914 1_545
Cl27 Rb5 3.402442 1_555
Cl27 Rb10 3.721898 1_545
Cl28 Nd8 2.851113 1_555
Cl28 Rb3 3.337932 1_555
Cl28 Rb9 3.402417 1_555
Cl28 Rb1 3.721891 1_556
Cl29 Nd17 2.851113 1_555
Cl29 Rb3 3.337932 1_555
Cl29 Rb10 3.402417 1_455
Cl29 Rb7 3.721891 1_556
Cl30 Nd0 2.851119 1_455
Cl30 Rb3 3.337901 1_555
Cl30 Rb9 3.402420 1_555
Cl30 Rb1 3.721898 1_556
Cl31 Nd15 2.924216 1_555
Cl31 Rb10 3.430975 1_555
Cl31 Rb0 3.430975 1_555
Cl31 Rb4 3.669704 1_555
O0 Se11 1.741652 1_556
O1 Se7 1.770378 1_555
O2 Se23 1.741162 1_555
O3 Se11 1.770374 1_455
O4 Se18 1.741654 1_556
O5 Se22 1.741162 1_555
O6 Se7 1.717222 1_555
O7 Se19 1.741654 1_555
O8 Se13 1.717226 1_555
O9 Se10 1.717240 1_555
O10 Se15 1.741162 1_555
O11 Se12 1.742662 1_555
O12 Se21 1.770374 1_555
O13 Se10 1.770370 1_555
O14 Se18 1.770378 1_555
O15 Se21 1.741652 1_554
O16 Se6 1.717236 1_555
O17 Se2 1.741162 1_555
O18 Se19 1.717240 1_555
O19 Se8 1.742662 1_555
O20 Se18 1.717222 1_555
O21 Se20 1.741654 1_555
O22 Se1 1.717236 1_555
O23 Se12 1.741162 1_555
O24 Se21 1.717236 1_555
O25 Se7 1.741654 1_554
O26 Se12 1.741162 1_555
O27 Se0 1.742662 1_555
O28 Se4 1.717226 1_555
O29 Se1 1.741652 1_554
O30 Se13 1.741639 1_555
O31 Se20 1.770370 1_555
O32 Se22 1.742662 1_555
O33 Se1 1.770374 1_655
O34 Se6 1.741652 1_556
O35 Se19 1.770370 1_555
O36 Se8 1.741162 1_555
O37 Se14 1.717226 1_555
O38 Se3 1.741162 1_555
O39 Se17 1.717222 1_555
O40 Se23 1.742662 1_555
O41 Se16 1.770378 1_555
O42 Se6 1.770374 1_555
O43 Se3 1.742662 1_555
O44 Se16 1.741654 1_566
O45 Se17 1.741654 1_544
O46 Se5 1.741654 1_555
O47 Se5 1.770370 1_555
O48 Se20 1.717240 1_555
O49 Se0 1.741162 1_555
O50 Se3 1.741162 1_555
O51 Se16 1.717222 1_555
O52 Se22 1.741162 1_555
O53 Se2 1.741162 1_555
O54 Se23 1.741162 1_555
O55 Se4 1.770351 1_545
O56 Se17 1.770378 1_555
O57 Se14 1.770351 1_555
O58 Se5 1.717240 1_555
O59 Se15 1.742662 1_555
O60 Se8 1.741162 1_555
O61 Se15 1.741162 1_555
O62 Se0 1.741162 1_555
O63 Se2 1.742662 1_555
O64 Se4 1.741639 1_455
O65 Se13 1.770351 1_555
O66 Se10 1.741654 1_555
O67 Se9 1.770351 1_565
O68 Se9 1.741639 1_655
O69 Se11 1.717236 1_555
O70 Se9 1.717226 1_555
O71 Se14 1.741639 1_555
