# generated using pymatgen
data_Ca3SiO5
_symmetry_space_group_name_H-M   'P 1'
_cell_length_a   11.74047400
_cell_length_b   13.76901639
_cell_length_c   14.32939163
_cell_angle_alpha   104.86428716
_cell_angle_beta   90.12681188
_cell_angle_gamma   94.38732701
_symmetry_Int_Tables_number   1
_chemical_formula_structural   Ca3SiO5
_chemical_formula_sum   'Ca54 Si18 O90'
_cell_volume   2231.76467051
_cell_formula_units_Z   18
loop_
 _symmetry_equiv_pos_site_id
 _symmetry_equiv_pos_as_xyz
  1  'x, y, z'
loop_
 _atom_site_type_symbol
 _atom_site_label
 _atom_site_symmetry_multiplicity
 _atom_site_fract_x
 _atom_site_fract_y
 _atom_site_fract_z
 _atom_site_occupancy
  Ca  Ca0  1  0.63974300  0.71067400  0.94560900  1
  Ca  Ca1  1  0.71056100  0.97360100  0.00384700  1
  Ca  Ca2  1  0.64417700  0.72241300  0.18011100  1
  Ca  Ca3  1  0.12726800  0.18369600  0.91912100  1
  Ca  Ca4  1  0.62205800  0.71129200  0.41405300  1
  Ca  Ca5  1  0.13845200  0.18526400  0.42667900  1
  Ca  Ca6  1  0.53489700  0.14898700  0.90819700  1
  Ca  Ca7  1  0.94632900  0.38202100  0.83403500  1
  Ca  Ca8  1  0.37794200  0.28870800  0.58594700  1
  Ca  Ca9  1  0.19304900  0.48345700  0.75305000  1
  Ca  Ca10  1  0.36025700  0.28932600  0.05439100  1
  Ca  Ca11  1  0.61787700  0.69607100  0.65260900  1
  Ca  Ca12  1  0.64568800  0.34742200  0.84727700  1
  Ca  Ca13  1  0.87273200  0.81630400  0.08087900  1
  Ca  Ca14  1  0.02010500  0.99036800  0.26065500  1
  Ca  Ca15  1  0.86154800  0.81473600  0.57332100  1
  Ca  Ca16  1  0.38212300  0.30392900  0.34739100  1
  Ca  Ca17  1  0.80695100  0.51654300  0.24695000  1
  Ca  Ca18  1  0.67779400  0.33342900  0.32172500  1
  Ca  Ca19  1  0.70123700  0.95927000  0.48750800  1
  Ca  Ca20  1  0.05367100  0.61797900  0.16596500  1
  Ca  Ca21  1  0.81012800  0.18460200  0.67220800  1
  Ca  Ca22  1  0.00000000  0.00000000  0.00000000  1
  Ca  Ca23  1  0.97989500  0.00963200  0.73934500  1
  Ca  Ca24  1  0.64948200  0.33437100  0.08190600  1
  Ca  Ca25  1  0.21408500  0.46541500  0.24129800  1
  Ca  Ca26  1  0.29876300  0.04073000  0.51249200  1
  Ca  Ca27  1  0.84587400  0.16940500  0.16562900  1
  Ca  Ca28  1  0.18987200  0.81539800  0.32779200  1
  Ca  Ca29  1  0.96641600  0.36778500  0.33433400  1
  Ca  Ca30  1  0.46249000  0.84918900  0.58458100  1
  Ca  Ca31  1  0.32220600  0.66657100  0.67827500  1
  Ca  Ca32  1  0.35582300  0.27758700  0.81988900  1
  Ca  Ca33  1  0.30343500  0.02344300  0.27681200  1
  Ca  Ca34  1  0.03358400  0.63221500  0.66566600  1
  Ca  Ca35  1  0.46510300  0.85101300  0.09180300  1
  Ca  Ca36  1  0.28943900  0.02639900  0.99615300  1
  Ca  Ca37  1  0.00000000  0.00000000  0.50000000  1
  Ca  Ca38  1  0.50000000  0.50000000  0.00000000  1
  Ca  Ca39  1  0.66751400  0.35078800  0.58940100  1
  Ca  Ca40  1  0.96843200  0.37570300  0.10400600  1
  Ca  Ca41  1  0.95106300  0.37576200  0.60312200  1
  Ca  Ca42  1  0.69656500  0.97655700  0.72318800  1
  Ca  Ca43  1  0.27553500  0.03089800  0.76321100  1
  Ca  Ca44  1  0.33248600  0.64921200  0.41059900  1
  Ca  Ca45  1  0.72446500  0.96910200  0.23678900  1
  Ca  Ca46  1  0.78591500  0.53458500  0.75870200  1
  Ca  Ca47  1  0.35431200  0.65257800  0.15272300  1
  Ca  Ca48  1  0.53751000  0.15081100  0.41541900  1
  Ca  Ca49  1  0.50000000  0.50000000  0.50000000  1
  Ca  Ca50  1  0.03156800  0.62429700  0.89599400  1
  Ca  Ca51  1  0.04893700  0.62423800  0.39687800  1
  Ca  Ca52  1  0.15412600  0.83059500  0.83437100  1
  Ca  Ca53  1  0.35051800  0.66562900  0.91809400  1
  Si  Si0  1  0.50646900  0.49563600  0.75269800  1
  Si  Si1  1  0.12605000  0.21687700  0.67843100  1
  Si  Si2  1  0.19136600  0.44906900  0.49747100  1
  Si  Si3  1  0.87395000  0.78312300  0.32156900  1
  Si  Si4  1  0.80011900  0.54633600  0.01845600  1
  Si  Si5  1  0.16021400  0.81815200  0.07900200  1
  Si  Si6  1  0.82980200  0.16598600  0.41651600  1
  Si  Si7  1  0.47386600  0.87164300  0.34390900  1
  Si  Si8  1  0.15274000  0.20455400  0.18146000  1
  Si  Si9  1  0.49353100  0.50436400  0.24730200  1
  Si  Si10  1  0.47590700  0.87804300  0.84407100  1
  Si  Si11  1  0.19988100  0.45366400  0.98154400  1
  Si  Si12  1  0.52409300  0.12195700  0.15592900  1
  Si  Si13  1  0.83978600  0.18184800  0.92099800  1
  Si  Si14  1  0.52613400  0.12835700  0.65609100  1
  Si  Si15  1  0.80863400  0.55093100  0.50252900  1
  Si  Si16  1  0.84726000  0.79544600  0.81854000  1
  Si  Si17  1  0.17019800  0.83401400  0.58348400  1
  O  O0  1  0.89588800  0.99995500  0.14030300  1
  O  O1  1  0.58189700  0.51602600  0.66076700  1
  O  O2  1  0.17982800  0.75891500  0.47397400  1
  O  O3  1  0.49554400  0.32426700  0.94482500  1
  O  O4  1  0.16081000  0.88646700  0.19229900  1
  O  O5  1  0.89054900  0.52622300  0.09776400  1
  O  O6  1  0.04860500  0.73218300  0.05892000  1
  O  O7  1  0.10945100  0.47377700  0.90223600  1
  O  O8  1  0.28181900  0.91889200  0.60538200  1
  O  O9  1  0.14497000  0.47298200  0.08972400  1
  O  O10  1  0.94830200  0.10573100  0.40255000  1
  O  O11  1  0.55804900  0.33804100  0.45123600  1
  O  O12  1  0.96718100  0.73815000  0.80535300  1
  O  O13  1  0.82017200  0.24108500  0.52602600  1
  O  O14  1  0.34706900  0.92009200  0.85196500  1
  O  O15  1  0.83919000  0.11353300  0.80770100  1
  O  O16  1  0.61175500  0.44606200  0.23908700  1
  O  O17  1  0.48840500  0.80751500  0.73300100  1
  O  O18  1  0.50445600  0.67573300  0.05517500  1
  O  O19  1  0.17439100  0.52653800  0.60441700  1
  O  O20  1  0.85978200  0.85244700  0.24480300  1
  O  O21  1  0.22232500  0.64305700  0.26900700  1
  O  O22  1  0.51185200  0.19169700  0.07842900  1
  O  O23  1  0.58511700  0.53571800  0.85348500  1
  O  O24  1  0.38756000  0.13704600  0.67525500  1
  O  O25  1  0.82735400  0.23251400  0.33575900  1
  O  O26  1  0.38824500  0.55393800  0.76091300  1
  O  O27  1  0.86282400  0.85869500  0.43026100  1
  O  O28  1  0.14720200  0.89322100  0.00657900  1
  O  O29  1  0.77272500  0.68875500  0.30213400  1
  O  O30  1  0.39690800  0.83199200  0.24318600  1
  O  O31  1  0.80245000  0.33441800  0.18174200  1
  O  O32  1  0.85503000  0.52701800  0.91027600  1
  O  O33  1  0.44347000  0.98956900  0.39006000  1
  O  O34  1  0.31311500  0.53139400  0.98264700  1
  O  O35  1  0.68688500  0.46860600  0.01735300  1
  O  O36  1  0.84007800  0.01461100  0.60807700  1
  O  O37  1  0.95139500  0.26781700  0.94108000  1
  O  O38  1  0.82560900  0.47346200  0.39558300  1
  O  O39  1  0.77767500  0.35694300  0.73099300  1
  O  O40  1  0.19755000  0.66558200  0.81825800  1
  O  O41  1  0.68401300  0.59873200  0.50156800  1
  O  O42  1  0.66309200  0.82341200  0.56673000  1
  O  O43  1  0.41488300  0.46428200  0.14651500  1
  O  O44  1  0.65293100  0.07990800  0.14803500  1
  O  O45  1  0.99972100  0.73588900  0.30745300  1
  O  O46  1  0.99103500  0.50542700  0.74101100  1
  O  O47  1  0.71818100  0.08110800  0.39461800  1
  O  O48  1  0.14021800  0.14755300  0.75519700  1
  O  O49  1  0.60309200  0.16800800  0.75681400  1
  O  O50  1  0.48028400  0.37220400  0.73392900  1
  O  O51  1  0.23306600  0.33574600  0.94872100  1
  O  O52  1  0.57851000  0.97337800  0.86953500  1
  O  O53  1  0.84242700  0.86014600  0.93355200  1
  O  O54  1  0.33337700  0.14510200  0.90645900  1
  O  O55  1  0.85279800  0.10677900  0.99342100  1
  O  O56  1  0.72081300  0.23854700  0.94203600  1
  O  O57  1  0.00027900  0.26411100  0.69254700  1
  O  O58  1  0.15757300  0.13985400  0.06644800  1
  O  O59  1  0.08548300  0.35614000  0.47241400  1
  O  O60  1  0.76693400  0.66425400  0.05127900  1
  O  O61  1  0.18267800  0.51130300  0.41371500  1
  O  O62  1  0.41810300  0.48397400  0.33923300  1
  O  O63  1  0.10411200  0.00004500  0.85969700  1
  O  O64  1  0.15843900  0.12999700  0.25497800  1
  O  O65  1  0.42149000  0.02662200  0.13046500  1
  O  O66  1  0.48814800  0.80830300  0.92157100  1
  O  O67  1  0.00896500  0.49457300  0.25898900  1
  O  O68  1  0.81732200  0.48869700  0.58628500  1
  O  O69  1  0.51971600  0.62779600  0.26607100  1
  O  O70  1  0.55653000  0.01043100  0.60994000  1
  O  O71  1  0.05169800  0.89426900  0.59745000  1
  O  O72  1  0.51159500  0.19248500  0.26699900  1
  O  O73  1  0.15992200  0.98538900  0.39192300  1
  O  O74  1  0.22727500  0.31124500  0.69786600  1
  O  O75  1  0.17264600  0.76748600  0.66424100  1
  O  O76  1  0.44195100  0.66195900  0.54876400  1
  O  O77  1  0.26189500  0.29172400  0.20739100  1
  O  O78  1  0.13717600  0.14130500  0.56973900  1
  O  O79  1  0.03281900  0.26185000  0.19464700  1
  O  O80  1  0.84156100  0.87000300  0.74502200  1
  O  O81  1  0.43995700  0.80294900  0.41995100  1
  O  O82  1  0.61244000  0.86295400  0.32474500  1
  O  O83  1  0.73810500  0.70827600  0.79260900  1
  O  O84  1  0.91451700  0.64386000  0.52758600  1
  O  O85  1  0.31598700  0.40126800  0.49843200  1
  O  O86  1  0.27918700  0.76145300  0.05796400  1
  O  O87  1  0.66662300  0.85489800  0.09354100  1
  O  O88  1  0.33690800  0.17658800  0.43327000  1
  O  O89  1  0.56004300  0.19705100  0.58004900  1
loop_
_geom_bond_atom_site_label_1
_geom_bond_atom_site_label_2
_geom_bond_distance
_geom_bond_site_symmetry_2
Ca0 O18 2.345393 1_556
Ca0 O60 2.358758 1_556
Ca0 O66 2.386261 1_555
Ca0 O23 2.466860 1_555
Ca0 O83 2.474105 1_555
Ca0 O87 2.505586 1_556
Ca1 O53 2.328392 1_554
Ca1 O44 2.339933 1_565
Ca1 O87 2.353942 1_555
Ca1 O55 2.417996 1_564
Ca1 O52 2.467938 1_554
Ca1 O0 2.861041 1_555
Ca2 O18 2.354643 1_555
Ca2 O60 2.357182 1_555
Ca2 O69 2.426867 1_555
Ca2 O87 2.454555 1_555
Ca2 O29 2.461886 1_555
Ca2 O82 2.496978 1_555
Ca3 O48 2.280716 1_555
Ca3 O51 2.291298 1_555
Ca3 O58 2.373003 1_556
Ca3 O37 2.426090 1_455
Ca3 O63 2.445882 1_555
Ca3 O54 2.513968 1_555
Ca4 O42 2.355929 1_555
Ca4 O29 2.374547 1_555
Ca4 O41 2.381029 1_555
Ca4 O69 2.405935 1_555
Ca4 O81 2.555304 1_555
Ca4 O82 2.723549 1_555
Ca4 O76 3.021571 1_555
Ca5 O78 2.281288 1_555
Ca5 O88 2.345067 1_555
Ca5 O10 2.393928 1_455
Ca5 O64 2.399344 1_555
Ca5 O59 2.405501 1_555
Ca5 O73 2.699816 1_545
Ca6 O54 2.362382 1_555
Ca6 O22 2.379201 1_556
Ca6 O49 2.383747 1_555
Ca6 O56 2.407668 1_555
Ca6 O3 2.415652 1_555
Ca6 O52 2.432910 1_545
Ca7 O7 2.281888 1_655
Ca7 O32 2.354127 1_555
Ca7 O57 2.371015 1_655
Ca7 O39 2.416805 1_555
Ca7 O46 2.442998 1_555
Ca7 O37 2.465857 1_555
Ca8 O88 2.355929 1_555
Ca8 O74 2.374547 1_555
Ca8 O85 2.381029 1_555
Ca8 O50 2.405935 1_555
Ca8 O89 2.555304 1_555
Ca8 O24 2.723549 1_555
Ca8 O11 3.021571 1_555
Ca9 O74 2.365265 1_555
Ca9 O19 2.366852 1_555
Ca9 O7 2.384634 1_555
Ca9 O26 2.410151 1_555
Ca9 O46 2.425109 1_455
Ca9 O40 2.437555 1_555
Ca10 O3 2.345393 1_554
Ca10 O51 2.358758 1_554
Ca10 O22 2.386261 1_555
Ca10 O43 2.466860 1_555
Ca10 O77 2.474105 1_555
Ca10 O54 2.505586 1_554
Ca11 O17 2.334508 1_555
Ca11 O41 2.400396 1_555
Ca11 O83 2.413166 1_555
Ca11 O42 2.416182 1_555
Ca11 O76 2.486030 1_555
Ca11 O1 2.515242 1_555
Ca12 O39 2.299418 1_555
Ca12 O3 2.305732 1_555
Ca12 O56 2.471904 1_555
Ca12 O49 2.489627 1_555
Ca12 O35 2.596623 1_556
Ca12 O50 2.626273 1_555
Ca12 O23 2.720201 1_555
Ca13 O20 2.280716 1_555
Ca13 O60 2.291298 1_555
Ca13 O53 2.373003 1_554
Ca13 O6 2.426090 1_655
Ca13 O0 2.445882 1_555
Ca13 O87 2.513968 1_555
Ca14 O0 2.292056 1_455
Ca14 O4 2.320515 1_555
Ca14 O10 2.433799 1_465
Ca14 O64 2.437962 1_565
Ca14 O73 2.511397 1_555
Ca14 O20 2.535897 1_455
Ca15 O27 2.281288 1_555
Ca15 O42 2.345067 1_555
Ca15 O71 2.393928 1_655
Ca15 O80 2.399344 1_555
Ca15 O84 2.405501 1_555
Ca15 O36 2.699816 1_565
Ca16 O72 2.334508 1_555
Ca16 O85 2.400396 1_555
Ca16 O77 2.413166 1_555
Ca16 O88 2.416182 1_555
Ca16 O11 2.486030 1_555
Ca16 O62 2.515242 1_555
Ca17 O29 2.365265 1_555
Ca17 O38 2.366852 1_555
Ca17 O5 2.384634 1_555
Ca17 O16 2.410151 1_555
Ca17 O67 2.425109 1_655
Ca17 O31 2.437555 1_555
Ca18 O11 2.321481 1_555
Ca18 O16 2.351719 1_555
Ca18 O25 2.359966 1_555
Ca18 O31 2.487882 1_555
Ca18 O38 2.506465 1_555
Ca18 O72 2.611816 1_555
Ca19 O36 2.311854 1_565
Ca19 O47 2.391935 1_565
Ca19 O42 2.439691 1_555
Ca19 O27 2.452685 1_555
Ca19 O70 2.454111 1_565
Ca19 O82 2.544795 1_555
Ca20 O5 2.281888 1_455
Ca20 O9 2.354127 1_555
Ca20 O45 2.371015 1_455
Ca20 O21 2.416805 1_555
Ca20 O67 2.442998 1_555
Ca20 O6 2.465857 1_555
Ca21 O36 2.338883 1_555
Ca21 O39 2.366412 1_555
Ca21 O57 2.393079 1_655
Ca21 O13 2.414413 1_555
Ca21 O15 2.422072 1_555
Ca21 O49 2.738704 1_555
Ca22 O0 2.355295 1_445
Ca22 O63 2.355295 1_554
Ca22 O55 2.369892 1_454
Ca22 O28 2.369892 1_545
Ca22 O58 2.558051 1_555
Ca22 O53 2.558051 1_444
Ca23 O63 2.292056 1_655
Ca23 O15 2.320515 1_555
Ca23 O71 2.433799 1_645
Ca23 O80 2.437962 1_545
Ca23 O36 2.511397 1_555
Ca23 O48 2.535897 1_655
Ca24 O35 2.284602 1_555
Ca24 O31 2.293442 1_555
Ca24 O56 2.297591 1_554
Ca24 O22 2.436469 1_555
Ca24 O16 2.442468 1_555
Ca24 O3 2.636236 1_554
Ca25 O9 2.346904 1_555
Ca25 O21 2.369613 1_555
Ca25 O61 2.424452 1_555
Ca25 O77 2.425097 1_555
Ca25 O67 2.474533 1_555
Ca25 O43 2.722401 1_555
Ca25 O62 2.734864 1_555
Ca26 O73 2.311854 1_545
Ca26 O8 2.391935 1_545
Ca26 O88 2.439691 1_555
Ca26 O78 2.452685 1_555
Ca26 O33 2.454111 1_545
Ca26 O24 2.544795 1_555
Ca27 O31 2.320368 1_555
Ca27 O25 2.385352 1_555
Ca27 O0 2.386683 1_545
Ca27 O55 2.399853 1_554
Ca27 O79 2.430501 1_655
Ca27 O44 2.474754 1_555
Ca28 O73 2.338883 1_555
Ca28 O21 2.366412 1_555
Ca28 O45 2.393079 1_455
Ca28 O2 2.414413 1_555
Ca28 O4 2.422072 1_555
Ca28 O30 2.738704 1_555
Ca29 O67 2.301910 1_655
Ca29 O38 2.310763 1_555
Ca29 O79 2.329125 1_655
Ca29 O25 2.385262 1_555
Ca29 O59 2.465670 1_655
Ca29 O31 2.833461 1_555
Ca30 O81 2.289394 1_555
Ca30 O70 2.342935 1_565
Ca30 O17 2.365362 1_555
Ca30 O8 2.382599 1_555
Ca30 O42 2.412917 1_555
Ca30 O76 2.488576 1_555
Ca31 O76 2.321481 1_555
Ca31 O26 2.351719 1_555
Ca31 O75 2.359966 1_555
Ca31 O40 2.487882 1_555
Ca31 O19 2.506465 1_555
Ca31 O17 2.611816 1_555
Ca32 O3 2.354643 1_555
Ca32 O51 2.357182 1_555
Ca32 O50 2.426867 1_555
Ca32 O54 2.454555 1_555
Ca32 O74 2.461886 1_555
Ca32 O24 2.496978 1_555
Ca33 O64 2.400742 1_555
Ca33 O33 2.459220 1_545
Ca33 O73 2.480901 1_545
Ca33 O4 2.482652 1_545
Ca33 O65 2.524149 1_555
Ca33 O88 2.659139 1_555
Ca33 O30 2.859850 1_545
Ca34 O46 2.301910 1_455
Ca34 O19 2.310763 1_555
Ca34 O12 2.329125 1_455
Ca34 O75 2.385262 1_555
Ca34 O84 2.465670 1_455
Ca34 O40 2.833461 1_555
Ca35 O87 2.362382 1_555
Ca35 O66 2.379201 1_554
Ca35 O30 2.383747 1_555
Ca35 O86 2.407668 1_555
Ca35 O18 2.415652 1_555
Ca35 O65 2.432910 1_565
Ca36 O58 2.328392 1_556
Ca36 O14 2.339933 1_545
Ca36 O54 2.353942 1_555
Ca36 O28 2.417996 1_546
Ca36 O65 2.467938 1_556
Ca36 O63 2.861041 1_555
Ca37 O10 2.368999 1_455
Ca37 O71 2.368999 1_545
Ca37 O73 2.423823 1_545
Ca37 O36 2.423823 1_455
Ca37 O78 2.427711 1_555
Ca37 O27 2.427711 1_445
Ca38 O34 2.293617 1_554
Ca38 O35 2.293617 1_555
Ca38 O18 2.341275 1_555
Ca38 O3 2.341275 1_554
Ca38 O43 2.472270 1_555
Ca38 O23 2.472270 1_554
Ca39 O11 2.319074 1_555
Ca39 O89 2.352858 1_555
Ca39 O39 2.383245 1_555
Ca39 O13 2.456866 1_555
Ca39 O68 2.496801 1_555
Ca39 O1 2.528493 1_555
Ca40 O5 2.350338 1_555
Ca40 O31 2.350828 1_555
Ca40 O67 2.418384 1_655
Ca40 O9 2.418590 1_655
Ca40 O37 2.422874 1_554
Ca40 O79 2.436700 1_655
Ca41 O46 2.317241 1_555
Ca41 O57 2.341489 1_655
Ca41 O68 2.346506 1_555
Ca41 O13 2.350765 1_555
Ca41 O59 2.426986 1_655
Ca41 O39 2.783491 1_555
Ca42 O80 2.400742 1_555
Ca42 O70 2.459220 1_565
Ca42 O36 2.480901 1_565
Ca42 O15 2.482652 1_565
Ca42 O52 2.524149 1_555
Ca42 O42 2.659139 1_555
Ca42 O49 2.859850 1_565
Ca43 O54 2.306874 1_555
Ca43 O48 2.366709 1_555
Ca43 O8 2.393184 1_545
Ca43 O14 2.416061 1_545
Ca43 O24 2.472406 1_555
Ca43 O63 2.515029 1_555
Ca44 O76 2.319074 1_555
Ca44 O81 2.352858 1_555
Ca44 O21 2.383245 1_555
Ca44 O2 2.456866 1_555
Ca44 O61 2.496801 1_555
Ca44 O62 2.528493 1_555
Ca45 O87 2.306874 1_555
Ca45 O20 2.366709 1_555
Ca45 O47 2.393184 1_565
Ca45 O44 2.416061 1_565
Ca45 O82 2.472406 1_555
Ca45 O0 2.515029 1_555
Ca46 O32 2.346904 1_555
Ca46 O39 2.369613 1_555
Ca46 O68 2.424452 1_555
Ca46 O83 2.425097 1_555
Ca46 O46 2.474533 1_555
Ca46 O23 2.722401 1_555
Ca46 O1 2.734864 1_555
Ca47 O21 2.299418 1_555
Ca47 O18 2.305732 1_555
Ca47 O86 2.471904 1_555
Ca47 O30 2.489627 1_555
Ca47 O34 2.596623 1_554
Ca47 O69 2.626273 1_555
Ca47 O43 2.720201 1_555
Ca48 O89 2.289394 1_555
Ca48 O33 2.342935 1_545
Ca48 O72 2.365362 1_555
Ca48 O47 2.382599 1_555
Ca48 O88 2.412917 1_555
Ca48 O11 2.488576 1_555
Ca49 O76 2.315355 1_555
Ca49 O11 2.315355 1_555
Ca49 O62 2.444815 1_555
Ca49 O1 2.444815 1_555
Ca49 O41 2.459814 1_555
Ca49 O85 2.459814 1_555
Ca50 O7 2.350338 1_555
Ca50 O40 2.350828 1_555
Ca50 O46 2.418384 1_455
Ca50 O32 2.418590 1_455
Ca50 O6 2.422874 1_556
Ca50 O12 2.436700 1_455
Ca51 O67 2.317241 1_555
Ca51 O45 2.341489 1_455
Ca51 O61 2.346506 1_555
Ca51 O2 2.350765 1_555
Ca51 O84 2.426986 1_455
Ca51 O21 2.783491 1_555
Ca52 O40 2.320368 1_555
Ca52 O75 2.385352 1_555
Ca52 O63 2.386683 1_565
Ca52 O28 2.399853 1_556
Ca52 O12 2.430501 1_455
Ca52 O14 2.474754 1_555
Ca53 O34 2.284602 1_555
Ca53 O40 2.293442 1_555
Ca53 O86 2.297591 1_556
Ca53 O66 2.436469 1_555
Ca53 O26 2.442468 1_555
Ca53 O18 2.636236 1_556
O1 Si0 1.659889 1_555
O2 Si17 1.652456 1_555
O4 Si5 1.654075 1_555
O5 Si4 1.642097 1_555
O6 Si5 1.669500 1_555
O7 Si11 1.642097 1_555
O8 Si17 1.660532 1_555
O9 Si11 1.645738 1_554
O10 Si6 1.660296 1_555
O12 Si16 1.653778 1_555
O13 Si6 1.652456 1_555
O14 Si10 1.654439 1_555
O15 Si13 1.654075 1_555
O16 Si9 1.645466 1_555
O17 Si10 1.651518 1_555
O19 Si2 1.649600 1_555
O20 Si3 1.646510 1_555
O22 Si12 1.656362 1_555
O23 Si0 1.658355 1_555
O24 Si14 1.658767 1_555
O25 Si6 1.651295 1_555
O26 Si0 1.645466 1_555
O27 Si3 1.647966 1_555
O28 Si5 1.656052 1_555
O29 Si3 1.659779 1_555
O30 Si7 1.646819 1_555
O32 Si4 1.645738 1_556
O33 Si7 1.655279 1_555
O34 Si11 1.639090 1_555
O35 Si4 1.639090 1_555
O37 Si13 1.669500 1_555
O38 Si15 1.649600 1_555
O41 Si15 1.651050 1_555
O43 Si9 1.658355 1_555
O44 Si12 1.654439 1_555
O45 Si3 1.650766 1_555
O47 Si6 1.660532 1_555
O48 Si1 1.646510 1_555
O49 Si14 1.646819 1_555
O50 Si0 1.655431 1_555
O51 Si11 1.647705 1_555
O52 Si10 1.678603 1_555
O53 Si16 1.663671 1_555
O55 Si13 1.656052 1_555
O56 Si13 1.642972 1_555
O57 Si1 1.650766 1_555
O58 Si8 1.663671 1_555
O59 Si2 1.682390 1_555
O60 Si4 1.647705 1_555
O61 Si2 1.650932 1_555
O62 Si9 1.659889 1_555
O64 Si8 1.653235 1_555
O65 Si12 1.678603 1_555
O66 Si10 1.656362 1_555
O68 Si15 1.650932 1_555
O69 Si9 1.655431 1_555
O70 Si14 1.655279 1_555
O71 Si17 1.660296 1_555
O72 Si12 1.651518 1_555
O74 Si1 1.659779 1_555
O75 Si17 1.651295 1_555
O77 Si8 1.659736 1_555
O78 Si1 1.647966 1_555
O79 Si8 1.653778 1_555
O80 Si16 1.653235 1_555
O81 Si7 1.647274 1_555
O82 Si7 1.658767 1_555
O83 Si16 1.659736 1_555
O84 Si15 1.682390 1_555
O85 Si2 1.651050 1_555
O86 Si5 1.642972 1_555
O89 Si14 1.647274 1_555
