# generated using pymatgen
data_Sm2Zr2O7
_symmetry_space_group_name_H-M   'P 1'
_cell_length_a   3.65463700
_cell_length_b   7.61800400
_cell_length_c   10.87117300
_cell_angle_alpha   90.00000000
_cell_angle_beta   90.00000000
_cell_angle_gamma   90.00000000
_symmetry_Int_Tables_number   1
_chemical_formula_structural   Sm2Zr2O7
_chemical_formula_sum   'Sm4 Zr4 O14'
_cell_volume   302.66475456
_cell_formula_units_Z   2
loop_
 _symmetry_equiv_pos_site_id
 _symmetry_equiv_pos_as_xyz
  1  'x, y, z'
loop_
 _atom_site_type_symbol
 _atom_site_label
 _atom_site_symmetry_multiplicity
 _atom_site_fract_x
 _atom_site_fract_y
 _atom_site_fract_z
 _atom_site_occupancy
  Sm  Sm0  1  0.50000000  0.25000000  0.72326200  1
  Sm  Sm1  1  0.00000000  0.50000000  0.00000000  1
  Sm  Sm2  1  0.00000000  0.00000000  0.00000000  1
  Sm  Sm3  1  0.50000000  0.75000000  0.27673800  1
  Zr  Zr0  1  0.50000000  0.25000000  0.25898400  1
  Zr  Zr1  1  0.00000000  0.50000000  0.50000000  1
  Zr  Zr2  1  0.50000000  0.75000000  0.74101600  1
  Zr  Zr3  1  0.00000000  0.00000000  0.50000000  1
  O  O0  1  0.00000000  0.25000000  0.36710900  1
  O  O1  1  0.50000000  0.52314200  0.61574100  1
  O  O2  1  0.00000000  0.25000000  0.60411100  1
  O  O3  1  0.00000000  0.75000000  0.87308600  1
  O  O4  1  0.50000000  0.46012400  0.86781600  1
  O  O5  1  0.50000000  0.53987600  0.13218400  1
  O  O6  1  0.50000000  0.96012400  0.13218400  1
  O  O7  1  0.00000000  0.25000000  0.12691400  1
  O  O8  1  0.00000000  0.75000000  0.39588900  1
  O  O9  1  0.50000000  0.02314200  0.38425900  1
  O  O10  1  0.50000000  0.47685800  0.38425900  1
  O  O11  1  0.50000000  0.97685800  0.61574100  1
  O  O12  1  0.00000000  0.75000000  0.63289100  1
  O  O13  1  0.50000000  0.03987600  0.86781600  1
loop_
_geom_bond_atom_site_label_1
_geom_bond_atom_site_label_2
_geom_bond_distance
_geom_bond_site_symmetry_2
O0 Zr0 2.172732 1_455
O0 Zr0 2.172732 1_555
O0 Zr3 2.390445 1_555
O0 Zr1 2.390445 1_555
O1 Zr2 2.200324 1_555
O1 Zr1 2.225611 1_655
O1 Zr1 2.225611 1_555
O1 Sm0 2.386628 1_555
O2 Zr1 2.215427 1_555
O2 Zr3 2.215427 1_555
O2 Sm0 2.239849 1_455
O2 Sm0 2.239849 1_555
O3 Zr2 2.323895 1_455
O3 Zr2 2.323895 1_555
O3 Sm2 2.351746 1_566
O3 Sm1 2.351746 1_556
O4 Sm0 2.243177 1_555
O4 Sm1 2.344425 1_556
O4 Sm1 2.344425 1_656
O4 Zr2 2.603200 1_555
O5 Sm3 2.243177 1_555
O5 Sm1 2.344425 1_555
O5 Sm1 2.344425 1_655
O5 Zr0 2.603200 1_555
O6 Sm3 2.243177 1_555
O6 Sm2 2.344425 1_565
O6 Sm2 2.344425 1_665
O6 Zr0 2.603200 1_565
O7 Zr0 2.323895 1_555
O7 Zr0 2.323895 1_455
O7 Sm2 2.351746 1_555
O7 Sm1 2.351746 1_555
O8 Zr1 2.215427 1_555
O8 Zr3 2.215427 1_565
O8 Sm3 2.239849 1_555
O8 Sm3 2.239849 1_455
O9 Zr0 2.200324 1_555
O9 Zr3 2.225611 1_655
O9 Zr3 2.225611 1_555
O9 Sm3 2.386628 1_545
O10 Zr0 2.200324 1_555
O10 Zr1 2.225611 1_655
O10 Zr1 2.225611 1_555
O10 Sm3 2.386628 1_555
O11 Zr2 2.200324 1_555
O11 Zr3 2.225611 1_665
O11 Zr3 2.225611 1_565
O11 Sm0 2.386628 1_565
O12 Zr2 2.172732 1_555
O12 Zr2 2.172732 1_455
O12 Zr1 2.390445 1_555
O12 Zr3 2.390445 1_565
O13 Sm0 2.243177 1_555
O13 Sm2 2.344425 1_556
O13 Sm2 2.344425 1_656
O13 Zr2 2.603200 1_545
