# generated using pymatgen
data_Ta(CoTe)2
_symmetry_space_group_name_H-M   'P 1'
_cell_length_a   6.50413752
_cell_length_b   6.53957208
_cell_length_c   18.68197810
_cell_angle_alpha   90.00000000
_cell_angle_beta   90.00000000
_cell_angle_gamma   90.00000000
_symmetry_Int_Tables_number   1
_chemical_formula_structural   Ta(CoTe)2
_chemical_formula_sum   'Ta8 Co16 Te16'
_cell_volume   794.62441517
_cell_formula_units_Z   8
loop_
 _symmetry_equiv_pos_site_id
 _symmetry_equiv_pos_as_xyz
  1  'x, y, z'
loop_
 _atom_site_type_symbol
 _atom_site_label
 _atom_site_symmetry_multiplicity
 _atom_site_fract_x
 _atom_site_fract_y
 _atom_site_fract_z
 _atom_site_occupancy
  Ta  Ta0  1  0.34945498  0.75000000  0.72513639  1
  Ta  Ta1  1  0.65054502  0.25000000  0.27486361  1
  Ta  Ta2  1  0.65030904  0.75000000  0.26386988  1
  Ta  Ta3  1  0.84945498  0.25000000  0.77486361  1
  Ta  Ta4  1  0.15030904  0.25000000  0.23613012  1
  Ta  Ta5  1  0.84969096  0.75000000  0.76386988  1
  Ta  Ta6  1  0.34969096  0.25000000  0.73613012  1
  Ta  Ta7  1  0.15054502  0.75000000  0.22513639  1
  Co  Co0  1  0.04476646  0.46203716  0.68433722  1
  Co  Co1  1  0.04476646  0.03796284  0.68433722  1
  Co  Co2  1  0.65458983  0.46165783  0.68417465  1
  Co  Co3  1  0.45523354  0.46203716  0.18433722  1
  Co  Co4  1  0.65458983  0.03834217  0.68417465  1
  Co  Co5  1  0.54476646  0.96203716  0.81566278  1
  Co  Co6  1  0.54476646  0.53796284  0.81566278  1
  Co  Co7  1  0.95523354  0.96203716  0.31566278  1
  Co  Co8  1  0.15458983  0.53834217  0.81582535  1
  Co  Co9  1  0.34541017  0.96165783  0.31582535  1
  Co  Co10  1  0.84541017  0.03834217  0.18417465  1
  Co  Co11  1  0.84541017  0.46165783  0.18417465  1
  Co  Co12  1  0.45523354  0.03796284  0.18433722  1
  Co  Co13  1  0.15458983  0.96165783  0.81582535  1
  Co  Co14  1  0.95523354  0.53796284  0.31566278  1
  Co  Co15  1  0.34541017  0.53834217  0.31582535  1
  Te  Te0  1  0.15140421  0.25000000  0.38522603  1
  Te  Te1  1  0.65140421  0.75000000  0.11477397  1
  Te  Te2  1  0.84947177  0.50172999  0.89964628  1
  Te  Te3  1  0.34859579  0.25000000  0.88522603  1
  Te  Te4  1  0.35030840  0.75000000  0.90479249  1
  Te  Te5  1  0.14969160  0.75000000  0.40479249  1
  Te  Te6  1  0.64969160  0.25000000  0.09520751  1
  Te  Te7  1  0.65052823  0.50172999  0.39964628  1
  Te  Te8  1  0.84859579  0.75000000  0.61477397  1
  Te  Te9  1  0.34947177  0.49827001  0.60035372  1
  Te  Te10  1  0.65052823  0.99827001  0.39964628  1
  Te  Te11  1  0.84947177  0.99827001  0.89964628  1
  Te  Te12  1  0.34947177  0.00172999  0.60035372  1
  Te  Te13  1  0.15052823  0.00172999  0.10035372  1
  Te  Te14  1  0.15052823  0.49827001  0.10035372  1
  Te  Te15  1  0.85030840  0.25000000  0.59520751  1
loop_
_geom_bond_atom_site_label_1
_geom_bond_atom_site_label_2
_geom_bond_distance
_geom_bond_site_symmetry_2
Ta0 Te9 2.853845 1_555
Ta0 Te12 2.853845 1_565
Ta1 Te7 2.853845 1_555
Ta1 Te10 2.853845 1_545
Ta2 Te1 2.785416 1_555
Ta2 Te7 3.011679 1_555
Ta2 Te10 3.011679 1_555
Ta3 Te2 2.853845 1_555
Ta3 Te11 2.853845 1_545
Ta4 Te0 2.785416 1_555
Ta4 Te13 3.011679 1_555
Ta4 Te14 3.011679 1_555
Ta5 Te8 2.785416 1_555
Ta5 Te2 3.011679 1_555
Ta5 Te11 3.011679 1_555
Ta6 Te3 2.785416 1_555
Ta6 Te12 3.011679 1_555
Ta6 Te9 3.011679 1_555
Ta7 Te14 2.853845 1_555
Ta7 Te13 2.853845 1_565
Co0 Te15 2.508993 1_455
Co0 Ta3 2.529168 1_455
Co0 Co2 2.537765 1_455
Co0 Te9 2.538808 1_555
Co0 Ta6 2.606214 1_555
Co0 Co8 2.606420 1_555
Co0 Te8 2.619761 1_455
Co0 Ta5 2.713632 1_455
Co0 Co1 2.773265 1_555
Co0 Ta0 2.838047 1_555
Co1 Te15 2.508993 1_455
Co1 Ta3 2.529168 1_455
Co1 Co4 2.537765 1_455
Co1 Te12 2.538808 1_555
Co1 Ta6 2.606214 1_555
Co1 Co13 2.606420 1_545
Co1 Te8 2.619761 1_445
Co1 Ta5 2.713632 1_445
Co1 Ta0 2.838047 1_545
Co2 Te15 2.509755 1_555
Co2 Ta3 2.528386 1_555
Co2 Te9 2.539263 1_555
Co2 Ta6 2.605898 1_555
Co2 Co6 2.606420 1_555
Co2 Te8 2.613213 1_555
Co2 Ta5 2.717095 1_555
Co2 Co4 2.768303 1_555
Co2 Ta0 2.842536 1_555
Co3 Te6 2.508993 1_555
Co3 Ta1 2.529168 1_555
Co3 Te14 2.538808 1_555
Co3 Ta4 2.606214 1_555
Co3 Te1 2.619761 1_555
Co3 Ta2 2.713632 1_555
Co3 Ta7 2.838047 1_555
Co4 Te15 2.509755 1_555
Co4 Ta3 2.528386 1_555
Co4 Te12 2.539263 1_555
Co4 Ta6 2.605898 1_555
Co4 Co5 2.606420 1_545
Co4 Te8 2.613213 1_545
Co4 Ta5 2.717095 1_545
Co4 Ta0 2.842536 1_545
Co5 Te4 2.508993 1_555
Co5 Ta0 2.529168 1_555
Co5 Te11 2.538808 1_555
Co5 Ta5 2.606214 1_555
Co5 Te3 2.619761 1_565
Co5 Ta6 2.713632 1_565
Co5 Co6 2.773265 1_555
Co5 Ta3 2.838047 1_565
Co6 Te4 2.508993 1_555
Co6 Ta0 2.529168 1_555
Co6 Co8 2.537765 1_555
Co6 Te2 2.538808 1_555
Co6 Ta5 2.606214 1_555
Co6 Te3 2.619761 1_555
Co6 Ta6 2.713632 1_555
Co6 Ta3 2.838047 1_555
Co7 Te5 2.508993 1_655
Co7 Ta7 2.529168 1_655
Co7 Co9 2.537765 1_655
Co7 Te10 2.538808 1_555
Co7 Ta2 2.606214 1_555
Co7 Te0 2.619761 1_665
Co7 Ta4 2.713632 1_665
Co7 Ta1 2.838047 1_565
Co8 Te4 2.509755 1_555
Co8 Ta0 2.528386 1_555
Co8 Te2 2.539263 1_455
Co8 Ta5 2.605898 1_455
Co8 Te3 2.613213 1_555
Co8 Ta6 2.717095 1_555
Co8 Ta3 2.842536 1_455
Co9 Te5 2.509755 1_555
Co9 Ta7 2.528386 1_555
Co9 Te10 2.539263 1_555
Co9 Ta2 2.605898 1_555
Co9 Te0 2.613213 1_565
Co9 Ta4 2.717095 1_565
Co9 Ta1 2.842536 1_565
Co10 Te6 2.509755 1_555
Co10 Ta1 2.528386 1_555
Co10 Co12 2.537765 1_555
Co10 Te13 2.539263 1_655
Co10 Ta4 2.605898 1_655
Co10 Co7 2.606420 1_545
Co10 Te1 2.613213 1_545
Co10 Ta2 2.717095 1_545
Co10 Co11 2.768303 1_555
Co10 Ta7 2.842536 1_645
Co11 Te6 2.509755 1_555
Co11 Ta1 2.528386 1_555
Co11 Co3 2.537765 1_555
Co11 Te14 2.539263 1_655
Co11 Ta4 2.605898 1_655
Co11 Co14 2.606420 1_555
Co11 Te1 2.613213 1_555
Co11 Ta2 2.717095 1_555
Co11 Ta7 2.842536 1_655
Co12 Te6 2.508993 1_555
Co12 Ta1 2.529168 1_555
Co12 Te13 2.538808 1_555
Co12 Ta4 2.606214 1_555
Co12 Co9 2.606420 1_545
Co12 Te1 2.619761 1_545
Co12 Ta2 2.713632 1_545
Co12 Co3 2.773265 1_555
Co12 Ta7 2.838047 1_545
Co13 Te4 2.509755 1_555
Co13 Ta0 2.528386 1_555
Co13 Co5 2.537765 1_555
Co13 Te11 2.539263 1_455
Co13 Ta5 2.605898 1_455
Co13 Te3 2.613213 1_565
Co13 Ta6 2.717095 1_565
Co13 Co8 2.768303 1_555
Co13 Ta3 2.842536 1_465
Co14 Te5 2.508993 1_655
Co14 Ta7 2.529168 1_655
Co14 Co15 2.537765 1_655
Co14 Te7 2.538808 1_555
Co14 Ta2 2.606214 1_555
Co14 Te0 2.619761 1_655
Co14 Ta4 2.713632 1_655
Co14 Co7 2.773265 1_555
Co14 Ta1 2.838047 1_555
Co15 Te5 2.509755 1_555
Co15 Ta7 2.528386 1_555
Co15 Te7 2.539263 1_555
Co15 Ta2 2.605898 1_555
Co15 Co3 2.606420 1_555
Co15 Te0 2.613213 1_555
Co15 Ta4 2.717095 1_555
Co15 Co9 2.768303 1_555
Co15 Ta1 2.842536 1_555
Te10 Te7 3.247159 1_555
Te10 Te7 3.292413 1_565
Te11 Te2 3.247159 1_555
Te11 Te2 3.292413 1_565
Te12 Te9 3.247159 1_555
Te12 Te9 3.292413 1_545
Te13 Te14 3.247159 1_555
Te13 Te14 3.292413 1_545
