# generated using pymatgen
data_In4Te3
_symmetry_space_group_name_H-M   'P 1'
_cell_length_a   4.47252729
_cell_length_b   12.97434307
_cell_length_c   16.00884520
_cell_angle_alpha   90.00000000
_cell_angle_beta   90.00000000
_cell_angle_gamma   90.00000000
_symmetry_Int_Tables_number   1
_chemical_formula_structural   In4Te3
_chemical_formula_sum   'In16 Te12'
_cell_volume   928.96292539
_cell_formula_units_Z   4
loop_
 _symmetry_equiv_pos_site_id
 _symmetry_equiv_pos_as_xyz
  1  'x, y, z'
loop_
 _atom_site_type_symbol
 _atom_site_label
 _atom_site_symmetry_multiplicity
 _atom_site_fract_x
 _atom_site_fract_y
 _atom_site_fract_z
 _atom_site_occupancy
  In  In0  1  -0.00000000  0.65408395  0.28502810  1
  In  In1  1  -0.00000000  0.34591605  0.71497190  1
  In  In2  1  0.00000000  0.47308402  0.18641266  1
  In  In3  1  0.00000000  0.60808755  0.57216913  1
  In  In4  1  0.50000000  0.15408395  0.21497190  1
  In  In5  1  0.50000000  0.89191245  0.07216913  1
  In  In6  1  -0.00000000  0.35436309  0.04016753  1
  In  In7  1  0.50000000  0.84591605  0.78502810  1
  In  In8  1  0.50000000  0.14563691  0.54016753  1
  In  In9  1  0.00000000  0.52691598  0.81358734  1
  In  In10  1  0.50000000  0.85436309  0.45983247  1
  In  In11  1  0.00000000  0.64563691  0.95983247  1
  In  In12  1  0.50000000  0.10808755  0.92783087  1
  In  In13  1  0.50000000  0.97308402  0.31358734  1
  In  In14  1  0.50000000  0.02691598  0.68641266  1
  In  In15  1  -0.00000000  0.39191245  0.42783087  1
  Te  Te0  1  0.50000000  0.35208128  0.92873266  1
  Te  Te1  1  0.00000000  0.86086126  0.22457512  1
  Te  Te2  1  -0.00000000  0.85208128  0.57126734  1
  Te  Te3  1  0.00000000  0.14198965  0.09857517  1
  Te  Te4  1  0.00000000  0.13913874  0.77542488  1
  Te  Te5  1  0.50000000  0.64791872  0.07126734  1
  Te  Te6  1  0.50000000  0.36086126  0.27542488  1
  Te  Te7  1  0.50000000  0.64198965  0.40142483  1
  Te  Te8  1  0.00000000  0.85801035  0.90142383  1
  Te  Te9  1  0.00000000  0.14791872  0.42873266  1
  Te  Te10  1  0.50000000  0.35801035  0.59857617  1
  Te  Te11  1  0.50000000  0.63913874  0.72457512  1
loop_
_geom_bond_atom_site_label_1
_geom_bond_atom_site_label_2
_geom_bond_distance
_geom_bond_site_symmetry_2
In0 In2 2.829687 1_555
In0 Te1 2.852020 1_555
In0 Te7 2.915077 1_555
In0 Te7 2.915077 1_455
In1 In9 2.829687 1_555
In1 Te4 2.852020 1_555
In1 Te10 2.915066 1_455
In1 Te10 2.915066 1_555
In2 In6 2.802480 1_555
In2 Te6 3.025134 1_555
In2 Te6 3.025134 1_455
In3 Te2 3.165691 1_555
In3 Te11 3.334069 1_555
In3 Te11 3.334069 1_455
In4 Te6 2.852020 1_555
In4 Te3 2.915077 1_655
In4 Te3 2.915077 1_555
In5 Te5 3.165691 1_555
In5 Te1 3.334069 1_655
In5 Te1 3.334069 1_555
In6 Te0 2.860805 1_554
In6 Te0 2.860805 1_454
In6 Te3 2.909735 1_555
In7 Te11 2.852020 1_555
In7 Te8 2.915066 1_555
In7 Te8 2.915066 1_655
In8 Te9 2.860805 1_655
In8 Te9 2.860805 1_555
In8 Te10 2.909740 1_555
In9 Te11 3.025134 1_555
In9 Te11 3.025134 1_455
In10 In13 2.802480 1_555
In10 Te2 2.860805 1_555
In10 Te2 2.860805 1_655
In10 Te7 2.909735 1_555
In11 In9 2.802480 1_555
In11 Te5 2.860805 1_456
In11 Te5 2.860805 1_556
In11 Te8 2.909740 1_555
In12 Te0 3.165691 1_555
In12 Te4 3.334069 1_555
In12 Te4 3.334069 1_655
In13 In4 2.829687 1_565
In13 Te1 3.025134 1_655
In13 Te1 3.025134 1_555
In14 In8 2.802480 1_555
In14 In7 2.829687 1_545
In14 Te4 3.025134 1_655
In14 Te4 3.025134 1_555
In15 Te9 3.165691 1_555
In15 Te6 3.334069 1_555
In15 Te6 3.334069 1_455
