# generated using pymatgen
data_CsLi(H2N)2
_symmetry_space_group_name_H-M   'P 1'
_cell_length_a   6.50275473
_cell_length_b   6.50275473
_cell_length_c   8.51075900
_cell_angle_alpha   90.00000000
_cell_angle_beta   90.00000000
_cell_angle_gamma   120.00000741
_symmetry_Int_Tables_number   1
_chemical_formula_structural   CsLi(H2N)2
_chemical_formula_sum   'Cs3 Li3 H12 N6'
_cell_volume   311.66902266
_cell_formula_units_Z   3
loop_
 _symmetry_equiv_pos_site_id
 _symmetry_equiv_pos_as_xyz
  1  'x, y, z'
loop_
 _atom_site_type_symbol
 _atom_site_label
 _atom_site_symmetry_multiplicity
 _atom_site_fract_x
 _atom_site_fract_y
 _atom_site_fract_z
 _atom_site_occupancy
  Cs  Cs0  1  0.50000000  0.50000000  0.83333300  1
  Cs  Cs1  1  0.50000000  0.00000000  0.50000000  1
  Cs  Cs2  1  0.00000000  0.50000000  0.16666700  1
  Li  Li0  1  0.00000000  0.00000000  0.33333300  1
  Li  Li1  1  0.00000000  0.00000000  0.00000000  1
  Li  Li2  1  0.00000000  0.00000000  0.66666700  1
  H  H0  1  0.39405100  0.08817100  0.12134400  1
  H  H1  1  0.91182900  0.30588000  0.78801100  1
  H  H2  1  0.69412000  0.60594900  0.45467700  1
  H  H3  1  0.60594900  0.91182900  0.12134400  1
  H  H4  1  0.08817100  0.69412000  0.78801100  1
  H  H5  1  0.30588000  0.39405100  0.45467700  1
  H  H6  1  0.08817100  0.39405100  0.54532300  1
  H  H7  1  0.30588000  0.91182900  0.87865600  1
  H  H8  1  0.60594900  0.69412000  0.21198900  1
  H  H9  1  0.91182900  0.60594900  0.54532300  1
  H  H10  1  0.69412000  0.08817100  0.87865600  1
  H  H11  1  0.39405100  0.30588000  0.21198900  1
  N  N0  1  0.14060200  0.85939800  0.83333300  1
  N  N1  1  0.14060200  0.28120400  0.50000000  1
  N  N2  1  0.71879600  0.85939800  0.16666700  1
  N  N3  1  0.85939800  0.14060200  0.83333300  1
  N  N4  1  0.85939800  0.71879600  0.50000000  1
  N  N5  1  0.28120400  0.14060200  0.16666700  1
loop_
_geom_bond_atom_site_label_1
_geom_bond_atom_site_label_2
_geom_bond_distance
_geom_bond_site_symmetry_2
Cs0 H4 3.397466 1_655
Cs0 H1 3.397466 1_455
Cs0 H7 3.397467 1_545
Cs0 H10 3.397467 1_565
Cs0 H8 3.403512 1_556
Cs0 H11 3.403512 1_556
Cs0 H5 3.403512 1_555
Cs0 H2 3.403512 1_555
Cs1 H9 3.397467 1_445
Cs1 H6 3.397467 1_655
Cs1 H5 3.397468 1_555
Cs1 H2 3.397468 1_545
Cs1 H7 3.403512 1_545
Cs1 H10 3.403512 1_555
Cs1 H3 3.403512 1_545
Cs1 H0 3.403512 1_555
Cs2 H11 3.397467 1_555
Cs2 H8 3.397467 1_455
Cs2 H0 3.397467 1_565
Cs2 H3 3.397467 1_445
Cs2 H4 3.403512 1_554
Cs2 H1 3.403512 1_454
Cs2 H6 3.403512 1_555
Cs2 H9 3.403512 1_455
Li0 N2 2.125993 1_445
Li0 N5 2.125993 1_555
Li0 N4 2.125999 1_445
Li0 N1 2.125999 1_555
Li1 N2 2.125999 1_445
Li1 N5 2.125999 1_555
Li1 N0 2.125999 1_544
Li1 N3 2.125999 1_454
Li2 N0 2.125993 1_545
Li2 N3 2.125993 1_455
Li2 N4 2.125999 1_445
Li2 N1 2.125999 1_555
H0 N5 1.026505 1_555
H1 N3 1.026502 1_555
H2 N4 1.026505 1_555
H3 N2 1.026505 1_555
H4 N0 1.026502 1_555
H5 N1 1.026505 1_555
H6 N1 1.026505 1_555
H7 N0 1.026505 1_555
H8 N2 1.026502 1_555
H9 N4 1.026505 1_555
H10 N3 1.026505 1_555
H11 N5 1.026502 1_555
