# generated using pymatgen
data_Ba3La2Ti3Cr2O15
_symmetry_space_group_name_H-M   'P 1'
_cell_length_a   5.67513002
_cell_length_b   7.98522400
_cell_length_c   14.32480664
_cell_angle_alpha   90.00006582
_cell_angle_beta   78.56650479
_cell_angle_gamma   90.00005899
_symmetry_Int_Tables_number   1
_chemical_formula_structural   Ba3La2Ti3Cr2O15
_chemical_formula_sum   'Ba6 La4 Ti6 Cr4 O30'
_cell_volume   636.27762188
_cell_formula_units_Z   2
loop_
 _symmetry_equiv_pos_site_id
 _symmetry_equiv_pos_as_xyz
  1  'x, y, z'
loop_
 _atom_site_type_symbol
 _atom_site_label
 _atom_site_symmetry_multiplicity
 _atom_site_fract_x
 _atom_site_fract_y
 _atom_site_fract_z
 _atom_site_occupancy
  Ba  Ba0  1  0.40000000  0.00000200  0.20000000  1
  Ba  Ba1  1  0.39999600  0.50000000  0.20000000  1
  Ba  Ba2  1  0.00169500  0.99999900  0.99650000  1
  Ba  Ba3  1  0.00169400  0.50000500  0.99650300  1
  Ba  Ba4  1  0.79830300  0.00001100  0.40350900  1
  Ba  Ba5  1  0.79830500  0.49999800  0.40350800  1
  La  La0  1  0.19680900  0.49998500  0.60638800  1
  La  La1  1  0.19684300  0.99999700  0.60638500  1
  La  La2  1  0.60316200  0.99999300  0.79362200  1
  La  La3  1  0.60314900  0.50001000  0.79361900  1
  Ti  Ti0  1  0.89999400  0.25000300  0.20000100  1
  Ti  Ti1  1  0.89999500  0.75000400  0.20000300  1
  Ti  Ti2  1  0.50252100  0.25000100  0.99486100  1
  Ti  Ti3  1  0.50252000  0.75000000  0.99486300  1
  Ti  Ti4  1  0.29748500  0.25000100  0.40514400  1
  Ti  Ti5  1  0.29748800  0.75000000  0.40514100  1
  Cr  Cr0  1  0.69906400  0.74999500  0.60190300  1
  Cr  Cr1  1  0.10095300  0.24999800  0.79808300  1
  Cr  Cr2  1  0.69905500  0.25000300  0.60192600  1
  Cr  Cr3  1  0.10094900  0.75000100  0.79807900  1
  O  O0  1  0.89998300  0.49999900  0.20000100  1
  O  O1  1  0.89998100  0.99999900  0.20000100  1
  O  O2  1  0.10574400  0.99999800  0.78853800  1
  O  O3  1  0.10574900  0.50000000  0.78853800  1
  O  O4  1  0.69426800  0.00000000  0.61148200  1
  O  O5  1  0.69427400  0.49999800  0.61148300  1
  O  O6  1  0.90000400  0.25000200  0.69999800  1
  O  O7  1  0.89999200  0.75000000  0.69999700  1
  O  O8  1  0.39998700  0.24999500  0.69999400  1
  O  O9  1  0.39999400  0.74999600  0.69999200  1
  O  O10  1  0.50406700  0.99999900  0.99195600  1
  O  O11  1  0.50406300  0.50000100  0.99195500  1
  O  O12  1  0.29594500  0.00000300  0.40807900  1
  O  O13  1  0.29594200  0.49999900  0.40808000  1
  O  O14  1  0.70186300  0.25000100  0.09797200  1
  O  O15  1  0.70186100  0.74999900  0.09797000  1
  O  O16  1  0.09813100  0.24999900  0.30201900  1
  O  O17  1  0.09813100  0.75000000  0.30201600  1
  O  O18  1  0.59972600  0.25000200  0.30200700  1
  O  O19  1  0.59972900  0.75000000  0.30200500  1
  O  O20  1  0.20026300  0.25000000  0.09798100  1
  O  O21  1  0.20026400  0.75000100  0.09798000  1
  O  O22  1  0.48230900  0.25000400  0.50617700  1
  O  O23  1  0.48231100  0.75000000  0.50617000  1
  O  O24  1  0.31772900  0.24999600  0.89380500  1
  O  O25  1  0.31772700  0.74999900  0.89380300  1
  O  O26  1  0.01149900  0.25000200  0.50617000  1
  O  O27  1  0.01150500  0.75000300  0.50616400  1
  O  O28  1  0.78848800  0.25000000  0.89381800  1
  O  O29  1  0.78849100  0.75000000  0.89381700  1
loop_
_geom_bond_atom_site_label_1
_geom_bond_atom_site_label_2
_geom_bond_distance
_geom_bond_site_symmetry_2
Ba0 O1 2.837460 1_545
Ba0 O1 2.837670 1_445
Ba0 O18 2.839335 1_555
Ba0 O19 2.839341 1_545
Ba0 O20 2.839461 1_555
Ba0 O21 2.839479 1_545
Ba0 O16 2.839565 1_555
Ba0 O17 2.839576 1_545
Ba0 O14 2.839610 1_555
Ba0 O15 2.839638 1_545
Ba0 O10 2.921050 1_544
Ba0 O12 2.921541 1_555
Ba1 O0 2.837494 1_555
Ba1 O0 2.837636 1_455
Ba1 O19 2.839337 1_555
Ba1 O18 2.839339 1_555
Ba1 O20 2.839457 1_555
Ba1 O21 2.839472 1_555
Ba1 O17 2.839554 1_555
Ba1 O16 2.839576 1_555
Ba1 O14 2.839622 1_555
Ba1 O15 2.839627 1_555
Ba1 O11 2.921064 1_554
Ba1 O13 2.921555 1_555
Ba2 O15 2.830700 1_456
Ba2 O14 2.830717 1_466
Ba2 O21 2.831564 1_556
Ba2 O20 2.831583 1_566
Ba2 O10 2.837724 1_455
Ba2 O10 2.838840 1_555
Ba2 O1 2.857263 1_456
Ba2 O29 2.884161 1_455
Ba2 O28 2.884177 1_465
Ba2 O24 2.884434 1_565
Ba2 O25 2.884456 1_555
Ba2 O2 2.919898 1_555
Ba3 O15 2.830646 1_456
Ba3 O14 2.830708 1_456
Ba3 O21 2.831526 1_556
Ba3 O20 2.831587 1_556
Ba3 O11 2.837754 1_455
Ba3 O11 2.838813 1_555
Ba3 O0 2.857221 1_456
Ba3 O29 2.884166 1_455
Ba3 O28 2.884217 1_455
Ba3 O25 2.884442 1_555
Ba3 O24 2.884520 1_555
Ba3 O3 2.919940 1_555
Ba4 O16 2.830728 1_655
Ba4 O17 2.830875 1_645
Ba4 O18 2.831734 1_555
Ba4 O19 2.831851 1_545
Ba4 O12 2.837886 1_655
Ba4 O12 2.838695 1_555
Ba4 O1 2.857362 1_545
Ba4 O26 2.883907 1_655
Ba4 O27 2.883971 1_645
Ba4 O22 2.884145 1_555
Ba4 O23 2.884199 1_545
Ba4 O4 2.920053 1_555
Ba5 O16 2.830779 1_655
Ba5 O17 2.830813 1_655
Ba5 O18 2.831755 1_555
Ba5 O19 2.831802 1_555
Ba5 O13 2.837864 1_655
Ba5 O13 2.838719 1_555
Ba5 O0 2.857348 1_555
Ba5 O26 2.883941 1_655
Ba5 O27 2.883953 1_655
Ba5 O23 2.884161 1_555
Ba5 O22 2.884161 1_555
Ba5 O5 2.920081 1_555
La0 O3 2.557484 1_555
La0 O6 2.779311 1_455
La0 O8 2.779467 1_555
La0 O7 2.779525 1_455
La0 O9 2.779588 1_555
La0 O22 2.783593 1_555
La0 O23 2.783834 1_555
La0 O26 2.783916 1_555
La0 O27 2.784155 1_555
La0 O13 2.784351 1_555
La0 O5 2.838385 1_455
La0 O5 2.838548 1_555
La1 O2 2.557526 1_555
La1 O8 2.779435 1_565
La1 O9 2.779460 1_555
La1 O7 2.779535 1_455
La1 O6 2.779552 1_465
La1 O23 2.783621 1_555
La1 O22 2.783633 1_565
La1 O27 2.784081 1_555
La1 O26 2.784113 1_565
La1 O12 2.784323 1_565
La1 O4 2.838327 1_565
La1 O4 2.838607 1_465
La2 O4 2.557343 1_565
La2 O7 2.779519 1_555
La2 O6 2.779640 1_565
La2 O9 2.779669 1_555
La2 O8 2.779706 1_565
La2 O25 2.783319 1_555
La2 O24 2.783376 1_565
La2 O29 2.783835 1_555
La2 O28 2.783911 1_565
La2 O10 2.784716 1_555
La2 O2 2.838246 1_555
La2 O2 2.838679 1_655
La3 O5 2.557287 1_555
La3 O7 2.779524 1_555
La3 O9 2.779548 1_555
La3 O6 2.779657 1_555
La3 O8 2.779714 1_555
La3 O25 2.783272 1_555
La3 O24 2.783421 1_555
La3 O29 2.783874 1_555
La3 O28 2.783993 1_555
La3 O11 2.784744 1_555
La3 O3 2.838134 1_555
La3 O3 2.838789 1_655
Cr0 O9 1.977252 1_555
Cr0 O7 1.977383 1_555
Cr0 O5 2.000809 1_555
Cr0 O4 2.000871 1_565
Cr0 O27 2.015141 1_655
Cr0 O23 2.015580 1_555
Cr1 O8 1.977106 1_555
Cr1 O6 1.977363 1_455
Cr1 O2 2.000799 1_545
Cr1 O3 2.000815 1_555
Cr1 O28 2.015213 1_455
Cr1 O24 2.015551 1_555
Cr2 O8 1.977081 1_555
Cr2 O6 1.977209 1_555
Cr2 O5 2.000771 1_555
Cr2 O4 2.000834 1_555
Cr2 O26 2.015277 1_655
Cr2 O22 2.015734 1_555
Cr3 O9 1.977135 1_555
Cr3 O7 1.977360 1_455
Cr3 O2 2.000772 1_555
Cr3 O3 2.000803 1_555
Cr3 O29 2.015206 1_455
Cr3 O25 2.015582 1_555
O0 Ti0 1.996274 1_555
O0 Ti1 1.996346 1_555
O1 Ti1 1.996266 1_555
O1 Ti0 1.996338 1_565
O10 Ti3 1.996715 1_555
O10 Ti2 1.996739 1_565
O11 Ti3 1.996716 1_555
O11 Ti2 1.996723 1_555
O12 Ti4 1.996715 1_555
O12 Ti5 1.996756 1_545
O13 Ti4 1.996716 1_555
O13 Ti5 1.996741 1_555
O14 Ti0 2.012952 1_555
O14 Ti2 2.030753 1_554
O15 Ti1 2.013011 1_555
O15 Ti3 2.030701 1_554
O16 Ti0 2.012844 1_455
O16 Ti4 2.030969 1_555
O17 Ti1 2.012780 1_455
O17 Ti5 2.030981 1_555
O18 Ti0 2.012905 1_555
O18 Ti4 2.029822 1_555
O19 Ti1 2.012865 1_555
O19 Ti5 2.029814 1_555
O20 Ti0 2.013021 1_455
O20 Ti2 2.029753 1_554
O21 Ti1 2.013045 1_455
O21 Ti3 2.029721 1_554
O22 Ti4 1.948500 1_555
O23 Ti5 1.948448 1_555
O24 Ti2 1.948656 1_555
O25 Ti3 1.948708 1_555
O26 Ti4 1.948661 1_555
O27 Ti5 1.948624 1_555
O28 Ti2 1.948727 1_555
O29 Ti3 1.948768 1_555
