# generated using pymatgen
data_Ag7NO8
_symmetry_space_group_name_H-M   'P 1'
_cell_length_a   7.08526227
_cell_length_b   7.08526227
_cell_length_c   7.08526227
_cell_angle_alpha   60.00000000
_cell_angle_beta   60.00000000
_cell_angle_gamma   60.00000000
_symmetry_Int_Tables_number   1
_chemical_formula_structural   Ag7NO8
_chemical_formula_sum   'Ag7 N1 O8'
_cell_volume   251.50857426
_cell_formula_units_Z   1
loop_
 _symmetry_equiv_pos_site_id
 _symmetry_equiv_pos_as_xyz
  1  'x, y, z'
loop_
 _atom_site_type_symbol
 _atom_site_label
 _atom_site_symmetry_multiplicity
 _atom_site_fract_x
 _atom_site_fract_y
 _atom_site_fract_z
 _atom_site_occupancy
  Ag  Ag0  1  0.00000000  0.00000000  0.00000000  1
  Ag  Ag1  1  0.71843900  0.28156100  0.28156100  1
  Ag  Ag2  1  0.71843900  0.71843900  0.28156100  1
  Ag  Ag3  1  0.28156100  0.71843900  0.28156100  1
  Ag  Ag4  1  0.28156100  0.28156100  0.71843900  1
  Ag  Ag5  1  0.71843900  0.28156100  0.71843900  1
  Ag  Ag6  1  0.28156100  0.71843900  0.71843900  1
  N  N0  1  0.50000000  0.50000000  0.50000000  1
  O  O0  1  0.13103200  0.13103200  0.60690500  1
  O  O1  1  0.13103200  0.60690500  0.13103200  1
  O  O2  1  0.60690500  0.13103200  0.13103200  1
  O  O3  1  0.13103200  0.13103200  0.13103200  1
  O  O4  1  0.86896800  0.86896800  0.39309500  1
  O  O5  1  0.86896800  0.39309500  0.86896800  1
  O  O6  1  0.39309500  0.86896800  0.86896800  1
  O  O7  1  0.86896800  0.86896800  0.86896800  1
loop_
_geom_bond_atom_site_label_1
_geom_bond_atom_site_label_2
_geom_bond_distance
_geom_bond_site_symmetry_2
Ag0 O2 2.274091 1_455
Ag0 O0 2.274091 1_554
Ag0 O1 2.274091 1_545
Ag0 O5 2.274091 1_454
Ag0 O6 2.274091 1_544
Ag0 O4 2.274091 1_445
Ag0 O3 2.274097 1_555
Ag0 O7 2.274097 1_444
Ag1 N0 2.188775 1_555
Ag1 O2 2.392207 1_555
Ag1 O3 2.392213 1_655
Ag1 O5 2.392213 1_554
Ag1 O4 2.392213 1_545
Ag2 N0 2.188775 1_555
Ag2 O4 2.392207 1_555
Ag2 O7 2.392213 1_554
Ag2 O2 2.392213 1_565
Ag2 O1 2.392213 1_655
Ag3 N0 2.188775 1_555
Ag3 O1 2.392207 1_555
Ag3 O3 2.392213 1_565
Ag3 O6 2.392213 1_554
Ag3 O4 2.392213 1_455
Ag4 N0 2.188775 1_555
Ag4 O0 2.392207 1_555
Ag4 O3 2.392213 1_556
Ag4 O6 2.392213 1_545
Ag4 O5 2.392213 1_455
Ag5 N0 2.188775 1_555
Ag5 O5 2.392207 1_555
Ag5 O7 2.392213 1_545
Ag5 O0 2.392213 1_655
Ag5 O2 2.392213 1_556
Ag6 N0 2.188775 1_555
Ag6 O6 2.392207 1_555
Ag6 O7 2.392213 1_455
Ag6 O1 2.392213 1_556
Ag6 O0 2.392213 1_565
