# generated using pymatgen
data_SmP3H5NO10
_symmetry_space_group_name_H-M   'P 1'
_cell_length_a   7.05823200
_cell_length_b   7.82554333
_cell_length_c   8.71226354
_cell_angle_alpha   73.46728227
_cell_angle_beta   73.82020880
_cell_angle_gamma   82.12151140
_symmetry_Int_Tables_number   1
_chemical_formula_structural   SmP3H5NO10
_chemical_formula_sum   'Sm2 P6 H10 N2 O20'
_cell_volume   442.17738591
_cell_formula_units_Z   2
loop_
 _symmetry_equiv_pos_site_id
 _symmetry_equiv_pos_as_xyz
  1  'x, y, z'
loop_
 _atom_site_type_symbol
 _atom_site_label
 _atom_site_symmetry_multiplicity
 _atom_site_fract_x
 _atom_site_fract_y
 _atom_site_fract_z
 _atom_site_occupancy
  Sm  Sm0  1  0.22954000  0.62977000  0.00746700  1
  Sm  Sm1  1  0.77046000  0.37023000  0.99253300  1
  P  P0  1  0.32634500  0.30740600  0.84015000  1
  P  P1  1  0.67365500  0.69259400  0.15985000  1
  P  P2  1  0.14965100  0.03742700  0.13436600  1
  P  P3  1  0.85034900  0.96257300  0.86563400  1
  P  P4  1  0.33150400  0.22792700  0.30784200  1
  P  P5  1  0.66849600  0.77207300  0.69215800  1
  H  H0  1  0.31038200  0.19852000  0.57244200  1
  H  H1  1  0.68961800  0.80148000  0.42755800  1
  H  H2  1  0.17991500  0.82654100  0.56990400  1
  H  H3  1  0.82008500  0.17345900  0.43009600  1
  H  H4  1  0.13870500  0.61080800  0.63387900  1
  H  H5  1  0.86129500  0.38919200  0.36612100  1
  H  H6  1  0.34933400  0.68635400  0.48162400  1
  H  H7  1  0.65066600  0.31364600  0.51837600  1
  H  H8  1  0.12743900  0.72694900  0.43968100  1
  H  H9  1  0.87256100  0.27305100  0.56031900  1
  N  N0  1  0.19863900  0.71091500  0.53164500  1
  N  N1  1  0.80136100  0.28908500  0.46835500  1
  O  O0  1  0.40761700  0.29677900  0.66309900  1
  O  O1  1  0.59238300  0.70322100  0.33690100  1
  O  O2  1  0.46326400  0.37212400  0.91903700  1
  O  O3  1  0.53673600  0.62787600  0.08096300  1
  O  O4  1  0.13061000  0.42504400  0.87046900  1
  O  O5  1  0.86939000  0.57495600  0.12953100  1
  O  O6  1  0.28087100  0.10170900  0.94715700  1
  O  O7  1  0.71912900  0.89829100  0.05284300  1
  O  O8  1  0.04068300  0.85002500  0.84106700  1
  O  O9  1  0.95931700  0.14997500  0.15893300  1
  O  O10  1  0.14161700  0.83724400  0.17129600  1
  O  O11  1  0.85838300  0.16275600  0.82870400  1
  O  O12  1  0.28229800  0.06388300  0.24722100  1
  O  O13  1  0.71770200  0.93611700  0.75277900  1
  O  O14  1  0.44747100  0.75578200  0.74821500  1
  O  O15  1  0.55252900  0.24421800  0.25178500  1
  O  O16  1  0.20334500  0.39370800  0.25232600  1
  O  O17  1  0.79665500  0.60629200  0.74767400  1
  O  O18  1  0.25807700  0.14315400  0.50011900  1
  O  O19  1  0.74192300  0.85684600  0.49988100  1
loop_
_geom_bond_atom_site_label_1
_geom_bond_atom_site_label_2
_geom_bond_distance
_geom_bond_site_symmetry_2
H0 O18 1.024647 1_555
H0 O0 1.574328 1_555
H1 O19 1.024647 1_555
H1 O1 1.574328 1_555
H2 N0 1.030347 1_555
H3 N1 1.030347 1_555
H4 N0 1.034281 1_555
H5 N1 1.034281 1_555
H6 N0 1.044744 1_555
H7 N1 1.044744 1_555
H8 N0 1.029629 1_555
H9 N1 1.029629 1_555
O0 P0 1.510672 1_555
O1 P1 1.510672 1_555
O2 P0 1.537931 1_555
O2 Sm1 2.423038 1_555
O2 Sm0 2.577603 1_556
O3 P1 1.537931 1_555
O3 Sm0 2.423038 1_555
O3 Sm1 2.577603 1_554
O4 P0 1.553144 1_555
O4 Sm1 2.511881 1_455
O4 Sm0 2.517601 1_556
O5 P1 1.553144 1_555
O5 Sm0 2.511881 1_655
O5 Sm1 2.517601 1_554
O6 P2 1.609340 1_556
O6 P0 1.638311 1_555
O7 P3 1.609340 1_554
O7 P1 1.638311 1_555
O8 P3 1.499659 1_455
O8 Sm0 2.423720 1_556
O9 P2 1.499659 1_655
O9 Sm1 2.423720 1_554
O10 P2 1.512652 1_565
O10 Sm0 2.368007 1_555
O11 P3 1.512652 1_545
O11 Sm1 2.368007 1_555
O12 P2 1.602552 1_555
O12 P4 1.630292 1_555
O13 P3 1.602552 1_555
O13 P5 1.630292 1_555
O14 P5 1.510957 1_555
O14 Sm0 2.377408 1_556
O15 P4 1.510957 1_555
O15 Sm1 2.377408 1_554
O16 P4 1.516657 1_555
O16 Sm0 2.372470 1_555
O17 P5 1.516657 1_555
O17 Sm1 2.372470 1_555
O18 P4 1.578868 1_555
O19 P5 1.578868 1_555
