# generated using pymatgen
data_Ca5ThF14
_symmetry_space_group_name_H-M   'P 1'
_cell_length_a   3.89513400
_cell_length_b   3.97481337
_cell_length_c   19.78070535
_cell_angle_alpha   90.50153517
_cell_angle_beta   90.31989652
_cell_angle_gamma   118.80791338
_symmetry_Int_Tables_number   1
_chemical_formula_structural   Ca5ThF14
_chemical_formula_sum   'Ca5 Th1 F14'
_cell_volume   268.32445051
_cell_formula_units_Z   1
loop_
 _symmetry_equiv_pos_site_id
 _symmetry_equiv_pos_as_xyz
  1  'x, y, z'
loop_
 _atom_site_type_symbol
 _atom_site_label
 _atom_site_symmetry_multiplicity
 _atom_site_fract_x
 _atom_site_fract_y
 _atom_site_fract_z
 _atom_site_occupancy
  Ca  Ca0  1  0.03517000  0.01829400  0.99481400  1
  Ca  Ca1  1  0.03882800  0.99868000  0.51480100  1
  Ca  Ca2  1  0.38694000  0.64224100  0.83107900  1
  Ca  Ca3  1  0.71403500  0.31813700  0.67305500  1
  Ca  Ca4  1  0.70751600  0.40148100  0.15570100  1
  Th  Th0  1  0.36766200  0.70150500  0.33439600  1
  F  F0  1  0.04881300  0.98055200  0.87118900  1
  F  F1  1  0.71734600  0.30829400  0.79178400  1
  F  F2  1  0.36299600  0.66167100  0.47066700  1
  F  F3  1  0.38182300  0.65171700  0.71311400  1
  F  F4  1  0.04738600  0.98464000  0.63484200  1
  F  F5  1  0.71791200  0.42080500  0.26795100  1
  F  F6  1  0.70821900  0.33243800  0.55509100  1
  F  F7  1  0.68351100  0.32743600  0.38205200  1
  F  F8  1  0.03751400  0.05640000  0.11759500  1
  F  F9  1  0.01103200  0.97453400  0.40156500  1
  F  F10  1  0.04599700  0.07152700  0.28781900  1
  F  F11  1  0.37403100  0.73474100  0.20405300  1
  F  F12  1  0.36804500  0.69075000  0.03459500  1
  F  F13  1  0.69855500  0.35082600  0.95717000  1
loop_
_geom_bond_atom_site_label_1
_geom_bond_atom_site_label_2
_geom_bond_distance
_geom_bond_site_symmetry_2
Ca0 F12 2.372507 1_546
Ca0 F13 2.386875 1_455
Ca0 F13 2.392816 1_555
Ca0 F12 2.418043 1_446
Ca0 F8 2.431782 1_556
Ca0 F13 2.431947 1_445
Ca0 F0 2.451116 1_545
Ca0 F12 2.460987 1_556
Ca1 F9 2.240881 1_555
Ca1 F4 2.376065 1_555
Ca1 F6 2.385966 1_465
Ca1 F2 2.402668 1_555
Ca1 F6 2.412080 1_565
Ca1 F2 2.457995 1_455
Ca1 F6 2.463367 1_455
Ca1 F2 2.479280 1_565
Ca2 F3 2.334193 1_555
Ca2 F1 2.379472 1_555
Ca2 F0 2.387809 1_655
Ca2 F1 2.406528 1_455
Ca2 F0 2.423272 1_555
Ca2 F0 2.447712 1_545
Ca2 F1 2.456200 1_565
Ca3 F6 2.334850 1_555
Ca3 F1 2.349279 1_555
Ca3 F4 2.380490 1_645
Ca3 F3 2.388938 1_555
Ca3 F4 2.390503 1_545
Ca3 F3 2.405521 1_655
Ca3 F4 2.450826 1_655
Ca3 F3 2.462469 1_545
Ca4 F5 2.220509 1_555
Ca4 F8 2.402166 1_555
Ca4 F8 2.406998 1_655
Ca4 F8 2.411909 1_665
Ca4 F11 2.450871 1_555
Ca4 F11 2.458717 1_655
Ca4 F11 2.523100 1_545
F2 Th0 2.701215 1_555
F5 Th0 2.508959 1_555
F5 Th0 2.567756 1_655
F7 Th0 2.363941 1_545
F7 Th0 2.527341 1_555
F7 Th0 2.536691 1_655
F9 Th0 2.514152 1_555
F9 Th0 2.557283 1_455
F10 Th0 2.368961 1_555
F10 Th0 2.509772 1_445
F10 Th0 2.523614 1_545
F11 Th0 2.582459 1_555
