# generated using pymatgen
data_LiNbO3
_symmetry_space_group_name_H-M   'P 1'
_cell_length_a   5.23959600
_cell_length_b   5.58410687
_cell_length_c   25.95779793
_cell_angle_alpha   93.00711374
_cell_angle_beta   90.00677852
_cell_angle_gamma   117.91965647
_symmetry_Int_Tables_number   1
_chemical_formula_structural   LiNbO3
_chemical_formula_sum   'Li12 Nb12 O36'
_cell_volume   669.89875396
_cell_formula_units_Z   12
loop_
 _symmetry_equiv_pos_site_id
 _symmetry_equiv_pos_as_xyz
  1  'x, y, z'
loop_
 _atom_site_type_symbol
 _atom_site_label
 _atom_site_symmetry_multiplicity
 _atom_site_fract_x
 _atom_site_fract_y
 _atom_site_fract_z
 _atom_site_occupancy
  Li  Li0  1  0.70655800  0.41145600  0.03820900  1
  Li  Li1  1  0.27531000  0.55084300  0.21611500  1
  Li  Li2  1  0.04129000  0.08249900  0.11994000  1
  Li  Li3  1  0.94126000  0.88347200  0.38186600  1
  Li  Li4  1  0.60860000  0.21601200  0.29869400  1
  Li  Li5  1  0.60784000  0.21673800  0.54875000  1
  Li  Li6  1  0.27556100  0.55003200  0.46541800  1
  Li  Li7  1  0.27444500  0.54991200  0.71537700  1
  Li  Li8  1  0.94221700  0.88339600  0.63209100  1
  Li  Li9  1  0.94159700  0.88310000  0.88210500  1
  Li  Li10  1  0.60851700  0.21646400  0.79857400  1
  Li  Li11  1  0.27789300  0.55692900  0.96542700  1
  Nb  Nb0  1  0.98172400  0.97194800  0.00272800  1
  Nb  Nb1  1  0.64844900  0.30120100  0.16992100  1
  Nb  Nb2  1  0.32862700  0.64902800  0.08775300  1
  Nb  Nb3  1  0.31149200  0.62170800  0.33588200  1
  Nb  Nb4  1  0.97719200  0.95583700  0.25211200  1
  Nb  Nb5  1  0.97721400  0.95383200  0.50268500  1
  Nb  Nb6  1  0.64341300  0.28744200  0.41930400  1
  Nb  Nb7  1  0.64380700  0.28722900  0.66935300  1
  Nb  Nb8  1  0.30982800  0.62055900  0.58605200  1
  Nb  Nb9  1  0.31177800  0.62257200  0.83569400  1
  Nb  Nb10  1  0.97674500  0.95436100  0.75261700  1
  Nb  Nb11  1  0.64638500  0.29226000  0.91855800  1
  O  O0  1  0.62633000  0.00178500  0.12405900  1
  O  O1  1  0.58392800  0.78104300  0.02062300  1
  O  O2  1  0.11787500  0.86954300  0.06236900  1
  O  O3  1  0.53276000  0.45116900  0.10439400  1
  O  O4  1  0.08107300  0.52826600  0.14550200  1
  O  O5  1  0.29301900  0.33775600  0.28972900  1
  O  O6  1  0.04958900  0.33946900  0.04054800  1
  O  O7  1  0.25002500  0.13872400  0.18780200  1
  O  O8  1  0.80149300  0.21618700  0.22902400  1
  O  O9  1  0.21923200  0.80227700  0.27095400  1
  O  O10  1  0.74772300  0.88502500  0.31218100  1
  O  O11  1  0.96031600  0.67079100  0.45648200  1
  O  O12  1  0.70593900  0.66355000  0.20787400  1
  O  O13  1  0.91589800  0.46811100  0.35462400  1
  O  O14  1  0.47068600  0.55116400  0.39590300  1
  O  O15  1  0.88595300  0.13424900  0.43800500  1
  O  O16  1  0.41380200  0.21762800  0.47934900  1
  O  O17  1  0.62715300  0.00430100  0.62315500  1
  O  O18  1  0.37762800  0.00458700  0.37304300  1
  O  O19  1  0.58182000  0.80107100  0.52137200  1
  O  O20  1  0.13735200  0.88440200  0.56277800  1
  O  O21  1  0.55271400  0.46759200  0.60470400  1
  O  O22  1  0.08030700  0.55097400  0.64609700  1
  O  O23  1  0.29352900  0.33789600  0.78972100  1
  O  O24  1  0.04395000  0.33775800  0.53982800  1
  O  O25  1  0.24838200  0.13436200  0.68798000  1
  O  O26  1  0.80389000  0.21770300  0.72941000  1
  O  O27  1  0.21957400  0.80114800  0.77106800  1
  O  O28  1  0.74703100  0.88464800  0.81261700  1
  O  O29  1  0.95860600  0.67124000  0.95789600  1
  O  O30  1  0.71056000  0.67115900  0.70646100  1
  O  O31  1  0.91537700  0.47042600  0.85424400  1
  O  O32  1  0.47150400  0.55298600  0.89559200  1
  O  O33  1  0.88763200  0.13553900  0.93694700  1
  O  O34  1  0.41872100  0.22421100  0.97861700  1
  O  O35  1  0.37728600  0.00522800  0.87302200  1
loop_
_geom_bond_atom_site_label_1
_geom_bond_atom_site_label_2
_geom_bond_distance
_geom_bond_site_symmetry_2
Li0 O3 1.994873 1_555
Li0 O6 2.018627 1_655
Li0 O34 2.028210 1_554
Li0 O1 2.494224 1_555
Li0 O2 2.500016 1_655
Li0 O29 2.592016 1_554
Li1 O12 2.053597 1_555
Li1 O9 2.064154 1_555
Li1 O4 2.065562 1_555
Li1 O7 2.321801 1_555
Li1 O5 2.327608 1_555
Li1 O8 2.342893 1_455
Li2 O7 2.004428 1_555
Li2 O0 2.007296 1_455
Li2 O2 2.017171 1_545
Li2 O4 2.453705 1_555
Li2 O3 2.480947 1_555
Li2 O6 2.561229 1_555
Li3 O18 2.075027 1_665
Li3 O10 2.076015 1_555
Li3 O15 2.081965 1_565
Li3 O13 2.331668 1_555
Li3 O14 2.332806 1_555
Li3 O11 2.350371 1_555
Li4 O8 2.071659 1_555
Li4 O5 2.078376 1_555
Li4 O13 2.084321 1_555
Li4 O10 2.323692 1_545
Li4 O9 2.330124 1_545
Li4 O18 2.341945 1_555
Li5 O16 2.069854 1_555
Li5 O24 2.074171 1_655
Li5 O21 2.078647 1_555
Li5 O20 2.332499 1_545
Li5 O19 2.332776 1_545
Li5 O17 2.345315 1_555
Li6 O11 2.072731 1_455
Li6 O14 2.072905 1_555
Li6 O19 2.080614 1_555
Li6 O16 2.330288 1_555
Li6 O15 2.334964 1_455
Li6 O24 2.345682 1_555
Li7 O22 2.067646 1_555
Li7 O30 2.073943 1_555
Li7 O27 2.075018 1_555
Li7 O25 2.332187 1_555
Li7 O26 2.332546 1_455
Li7 O23 2.342296 1_555
Li8 O20 2.068496 1_655
Li8 O17 2.072405 1_565
Li8 O25 2.079159 1_665
Li8 O22 2.330227 1_655
Li8 O21 2.334636 1_555
Li8 O30 2.344804 1_555
Li9 O33 2.063113 1_565
Li9 O35 2.071494 1_665
Li9 O28 2.074207 1_555
Li9 O31 2.319674 1_555
Li9 O32 2.324530 1_555
Li9 O29 2.370860 1_555
Li10 O26 2.065509 1_555
Li10 O23 2.073825 1_555
Li10 O31 2.081740 1_555
Li10 O28 2.328722 1_545
Li10 O27 2.332668 1_545
Li10 O35 2.344191 1_555
Li11 O1 2.030346 1_556
Li11 O29 2.063354 1_455
Li11 O32 2.081551 1_555
Li11 O34 2.337547 1_555
Li11 O33 2.361357 1_455
Li11 O6 2.365715 1_556
Nb0 O1 1.915175 1_555
Nb0 O2 1.925439 1_655
Nb0 O29 1.947586 1_554
Nb0 O6 2.099332 1_665
Nb0 O33 2.139725 1_564
Nb0 O34 2.165890 1_664
Nb1 O8 1.911734 1_555
Nb1 O7 1.915023 1_555
Nb1 O0 1.958525 1_555
Nb1 O12 2.091757 1_555
Nb1 O4 2.130931 1_655
Nb1 O3 2.141612 1_555
Nb2 O4 1.916165 1_555
Nb2 O3 1.925599 1_555
Nb2 O6 2.009410 1_555
Nb2 O0 2.031989 1_565
Nb2 O2 2.127948 1_555
Nb2 O1 2.140363 1_555
Nb3 O5 1.901518 1_555
Nb3 O13 1.909923 1_455
Nb3 O14 1.910527 1_555
Nb3 O18 2.170597 1_565
Nb3 O10 2.170898 1_555
Nb3 O9 2.173817 1_555
Nb4 O12 1.906093 1_555
Nb4 O9 1.909204 1_655
Nb4 O10 1.911320 1_555
Nb4 O8 2.159837 1_565
Nb4 O7 2.164607 1_665
Nb4 O5 2.171713 1_665
Nb5 O11 1.901144 1_555
Nb5 O19 1.908827 1_555
Nb5 O20 1.911896 1_655
Nb5 O15 2.165855 1_565
Nb5 O16 2.169805 1_665
Nb5 O24 2.174654 1_665
Nb6 O18 1.901813 1_555
Nb6 O15 1.908891 1_555
Nb6 O16 1.911461 1_555
Nb6 O14 2.167619 1_555
Nb6 O13 2.168981 1_555
Nb6 O11 2.173729 1_555
Nb7 O17 1.901017 1_555
Nb7 O25 1.908509 1_555
Nb7 O26 1.911212 1_555
Nb7 O21 2.164642 1_555
Nb7 O22 2.168755 1_655
Nb7 O30 2.174291 1_555
Nb8 O24 1.901279 1_555
Nb8 O21 1.909150 1_555
Nb8 O22 1.911271 1_555
Nb8 O20 2.166214 1_555
Nb8 O19 2.167671 1_555
Nb8 O17 2.174961 1_565
Nb9 O23 1.902331 1_555
Nb9 O32 1.906955 1_555
Nb9 O31 1.912642 1_455
Nb9 O28 2.160627 1_555
Nb9 O27 2.160652 1_555
Nb9 O35 2.172193 1_565
Nb10 O30 1.901814 1_555
Nb10 O27 1.908512 1_655
Nb10 O28 1.910812 1_555
Nb10 O26 2.164639 1_565
Nb10 O25 2.165397 1_665
Nb10 O23 2.173415 1_665
Nb11 O34 1.906809 1_555
Nb11 O35 1.907533 1_555
Nb11 O33 1.916023 1_555
Nb11 O31 2.150584 1_555
Nb11 O32 2.157536 1_555
Nb11 O29 2.174464 1_555
