# generated using pymatgen
data_Pr2Pb17Se20
_symmetry_space_group_name_H-M   'P 1'
_cell_length_a   9.80726462
_cell_length_b   9.80726462
_cell_length_c   29.17940980
_cell_angle_alpha   78.38116449
_cell_angle_beta   78.38116449
_cell_angle_gamma   25.97542342
_symmetry_Int_Tables_number   1
_chemical_formula_structural   Pr2Pb17Se20
_chemical_formula_sum   'Pr2 Pb17 Se20'
_cell_volume   1202.68437286
_cell_formula_units_Z   1
loop_
 _symmetry_equiv_pos_site_id
 _symmetry_equiv_pos_as_xyz
  1  'x, y, z'
loop_
 _atom_site_type_symbol
 _atom_site_label
 _atom_site_symmetry_multiplicity
 _atom_site_fract_x
 _atom_site_fract_y
 _atom_site_fract_z
 _atom_site_occupancy
  Pr  Pr0  1  0.40340100  0.40340100  0.90323800  1
  Pr  Pr1  1  0.59659900  0.59659900  0.09676200  1
  Pb  Pb0  1  0.69804300  0.69804300  0.94943600  1
  Pb  Pb1  1  0.20295400  0.20295400  0.20103300  1
  Pb  Pb2  1  0.30195700  0.30195700  0.05056400  1
  Pb  Pb3  1  0.80117200  0.80117200  0.29788500  1
  Pb  Pb4  1  0.90517800  0.90517800  0.14465100  1
  Pb  Pb5  1  0.39820800  0.39820800  0.40176200  1
  Pb  Pb6  1  0.49732600  0.49732600  0.25212800  1
  Pb  Pb7  1  0.00000000  0.00000000  0.50000000  1
  Pb  Pb8  1  0.10107300  0.10107300  0.35063800  1
  Pb  Pb9  1  0.70108100  0.70108100  0.44852400  1
  Pb  Pb10  1  0.60179200  0.60179200  0.59823800  1
  Pb  Pb11  1  0.19882800  0.19882800  0.70211500  1
  Pb  Pb12  1  0.29891900  0.29891900  0.55147600  1
  Pb  Pb13  1  0.89892700  0.89892700  0.64936200  1
  Pb  Pb14  1  0.79704600  0.79704600  0.79896700  1
  Pb  Pb15  1  0.50267400  0.50267400  0.74787200  1
  Pb  Pb16  1  0.09482200  0.09482200  0.85534900  1
  Se  Se0  1  0.54886000  0.54886000  0.92068200  1
  Se  Se1  1  0.15187400  0.15187400  0.02965200  1
  Se  Se2  1  0.74500800  0.74500800  0.12293500  1
  Se  Se3  1  0.84812600  0.84812600  0.97034800  1
  Se  Se4  1  0.45114000  0.45114000  0.07931800  1
  Se  Se5  1  0.34680600  0.34680600  0.22846800  1
  Se  Se6  1  0.95155400  0.95155400  0.32332900  1
  Se  Se7  1  0.05331400  0.05331400  0.16990300  1
  Se  Se8  1  0.54961100  0.54961100  0.42481600  1
  Se  Se9  1  0.64870400  0.64870400  0.27428800  1
  Se  Se10  1  0.24821900  0.24821900  0.37730700  1
  Se  Se11  1  0.14862200  0.14862200  0.52655000  1
  Se  Se12  1  0.85137800  0.85137800  0.47345000  1
  Se  Se13  1  0.75178100  0.75178100  0.62269300  1
  Se  Se14  1  0.45038900  0.45038900  0.57518400  1
  Se  Se15  1  0.35129600  0.35129600  0.72571200  1
  Se  Se16  1  0.04844600  0.04844600  0.67667100  1
  Se  Se17  1  0.94668600  0.94668600  0.83009700  1
  Se  Se18  1  0.65319400  0.65319400  0.77153200  1
  Se  Se19  1  0.25499200  0.25499200  0.87706500  1
loop_
_geom_bond_atom_site_label_1
_geom_bond_atom_site_label_2
_geom_bond_distance
_geom_bond_site_symmetry_2
Pr0 Se0 2.927991 1_555
Pr0 Se3 2.992267 1_455
Pr0 Se3 2.992267 1_545
Pr0 Se17 3.060636 1_545
Pr0 Se17 3.060636 1_455
Pr0 Se19 3.086179 1_555
Pr1 Se4 2.927991 1_555
Pr1 Se1 2.992267 1_565
Pr1 Se1 2.992267 1_655
Pr1 Se7 3.060636 1_655
Pr1 Se7 3.060636 1_565
Pr1 Se2 3.086179 1_555
Pb0 Se3 3.053553 1_555
Pb0 Se19 3.090649 1_565
Pb0 Se19 3.090649 1_655
Pb0 Se0 3.134132 1_555
Pb0 Se1 3.203375 1_656
Pb0 Se1 3.203375 1_566
Pb1 Se5 3.018268 1_555
Pb1 Se9 3.096136 1_455
Pb1 Se9 3.096136 1_545
Pb1 Se2 3.152797 1_455
Pb1 Se2 3.152797 1_545
Pb1 Se7 3.174715 1_555
Pb2 Se1 3.053553 1_555
Pb2 Se2 3.090649 1_455
Pb2 Se2 3.090649 1_545
Pb2 Se4 3.134132 1_555
Pb2 Se3 3.203375 1_544
Pb2 Se3 3.203375 1_454
Pb3 Se5 2.998557 1_565
Pb3 Se5 2.998557 1_655
Pb3 Se6 3.113590 1_555
Pb3 Se9 3.129762 1_555
Pb3 Se10 3.206800 1_565
Pb3 Se10 3.206800 1_655
Pb4 Se4 2.927760 1_655
Pb4 Se4 2.927760 1_565
Pb4 Se7 3.069446 1_665
Pb4 Se2 3.251906 1_555
Pb4 Se5 3.310049 1_655
Pb4 Se5 3.310049 1_565
Pb5 Se12 3.043177 1_545
Pb5 Se12 3.043177 1_455
Pb5 Se10 3.093994 1_555
Pb5 Se8 3.103365 1_555
Pb5 Se6 3.189180 1_455
Pb5 Se6 3.189180 1_545
Pb6 Se6 3.031256 1_545
Pb6 Se6 3.031256 1_455
Pb6 Se9 3.092307 1_555
Pb6 Se5 3.094176 1_555
Pb6 Se7 3.270838 1_565
Pb6 Se7 3.270838 1_655
Pb7 Se12 3.094954 1_445
Pb7 Se11 3.094954 1_555
Pb7 Se14 3.116109 1_545
Pb7 Se14 3.116109 1_455
Pb7 Se8 3.116109 1_545
Pb7 Se8 3.116109 1_455
Pb8 Se10 3.069147 1_555
Pb8 Se8 3.103288 1_455
Pb8 Se8 3.103288 1_545
Pb8 Se6 3.121360 1_445
Pb8 Se9 3.132372 1_455
Pb8 Se9 3.132372 1_545
Pb9 Se10 3.035493 1_655
Pb9 Se10 3.035493 1_565
Pb9 Se12 3.105550 1_555
Pb9 Se8 3.112478 1_555
Pb9 Se11 3.178573 1_655
Pb9 Se11 3.178573 1_565
Pb10 Se11 3.043177 1_565
Pb10 Se11 3.043177 1_655
Pb10 Se13 3.093994 1_555
Pb10 Se14 3.103365 1_555
Pb10 Se16 3.189180 1_565
Pb10 Se16 3.189180 1_655
Pb11 Se18 2.998557 1_455
Pb11 Se18 2.998557 1_545
Pb11 Se16 3.113590 1_555
Pb11 Se15 3.129762 1_555
Pb11 Se13 3.206800 1_455
Pb11 Se13 3.206800 1_545
Pb12 Se13 3.035493 1_455
Pb12 Se13 3.035493 1_545
Pb12 Se11 3.105550 1_555
Pb12 Se14 3.112478 1_555
Pb12 Se12 3.178573 1_545
Pb12 Se12 3.178573 1_455
Pb13 Se13 3.069147 1_555
Pb13 Se14 3.103288 1_565
Pb13 Se14 3.103288 1_655
Pb13 Se16 3.121360 1_665
Pb13 Se15 3.132372 1_565
Pb13 Se15 3.132372 1_655
Pb14 Se18 3.018268 1_555
Pb14 Se15 3.096136 1_565
Pb14 Se15 3.096136 1_655
Pb14 Se19 3.152797 1_565
Pb14 Se19 3.152797 1_655
Pb14 Se17 3.174715 1_555
Pb15 Se16 3.031256 1_565
Pb15 Se16 3.031256 1_655
Pb15 Se15 3.092307 1_555
Pb15 Se18 3.094176 1_555
Pb15 Se17 3.270838 1_545
Pb15 Se17 3.270838 1_455
Pb16 Se0 2.927760 1_545
Pb16 Se0 2.927760 1_455
Pb16 Se17 3.069446 1_445
Pb16 Se19 3.251906 1_555
Pb16 Se18 3.310049 1_545
Pb16 Se18 3.310049 1_455
