# generated using pymatgen
data_NaFe2H3(SO4)2
_symmetry_space_group_name_H-M   'P 1'
_cell_length_a   7.96637880
_cell_length_b   11.47838276
_cell_length_c   9.10900946
_cell_angle_alpha   72.92570088
_cell_angle_beta   99.80121600
_cell_angle_gamma   81.91250599
_symmetry_Int_Tables_number   1
_chemical_formula_structural   NaFe2H3(SO4)2
_chemical_formula_sum   'Na4 Fe8 H12 S8 O32'
_cell_volume   768.36385298
_cell_formula_units_Z   4
loop_
 _symmetry_equiv_pos_site_id
 _symmetry_equiv_pos_as_xyz
  1  'x, y, z'
loop_
 _atom_site_type_symbol
 _atom_site_label
 _atom_site_symmetry_multiplicity
 _atom_site_fract_x
 _atom_site_fract_y
 _atom_site_fract_z
 _atom_site_occupancy
  Na  Na0  1  0.61028900  0.21442900  0.87288900  1
  Na  Na1  1  0.11272900  0.71226400  0.37356300  1
  Na  Na2  1  0.88886600  0.28730100  0.62794000  1
  Na  Na3  1  0.38790900  0.78744300  0.12518300  1
  Fe  Fe0  1  0.24886700  0.74996200  0.74885400  1
  Fe  Fe1  1  0.00098700  0.99981200  0.50001500  1
  Fe  Fe2  1  0.49903900  0.49942300  0.99992100  1
  Fe  Fe3  1  0.75018900  0.25015400  0.25021300  1
  Fe  Fe4  1  0.42050300  0.40750000  0.40546000  1
  Fe  Fe5  1  0.91991400  0.90682400  0.90416600  1
  Fe  Fe6  1  0.07986000  0.09305600  0.09573600  1
  Fe  Fe7  1  0.58160200  0.59594000  0.59553900  1
  H  H0  1  0.41186100  0.30491000  0.19128000  1
  H  H1  1  0.91210000  0.80349800  0.69122300  1
  H  H2  1  0.08950700  0.19464300  0.30982400  1
  H  H3  1  0.58579300  0.69648700  0.80894800  1
  H  H4  1  0.09175700  0.34717300  0.38391400  1
  H  H5  1  0.59145200  0.84803600  0.88421500  1
  H  H6  1  0.40809000  0.15282600  0.11548400  1
  H  H7  1  0.90886900  0.65106800  0.61501400  1
  H  H8  1  0.21338100  0.22260500  0.50833800  1
  H  H9  1  0.71311700  0.72278200  0.00774700  1
  H  H10  1  0.28695700  0.27809000  0.99129200  1
  H  H11  1  0.78678000  0.77709900  0.49150600  1
  S  S0  1  0.22993000  0.46817800  0.68592200  1
  S  S1  1  0.73130400  0.96821000  0.18726700  1
  S  S2  1  0.26885000  0.03183000  0.81380700  1
  S  S3  1  0.76968500  0.53192200  0.31385500  1
  S  S4  1  0.87351300  0.37775500  0.91944600  1
  S  S5  1  0.37253100  0.87831400  0.41620100  1
  S  S6  1  0.62868700  0.12096400  0.58232300  1
  S  S7  1  0.12779900  0.62051800  0.08275600  1
  O  O0  1  0.32761200  0.41245900  0.86067200  1
  O  O1  1  0.83004600  0.91190400  0.36167900  1
  O  O2  1  0.16985300  0.08796100  0.63964400  1
  O  O3  1  0.66971100  0.58782300  0.14007400  1
  O  O4  1  0.85481100  0.39505300  0.34038300  1
  O  O5  1  0.35639300  0.89528300  0.84003900  1
  O  O6  1  0.64571600  0.10505900  0.16095100  1
  O  O7  1  0.14171000  0.60473600  0.65922800  1
  O  O8  1  0.37652300  0.48293600  0.59247600  1
  O  O9  1  0.87722400  0.98157400  0.09262900  1
  O  O10  1  0.12318900  0.01701300  0.90878300  1
  O  O11  1  0.62476200  0.51834900  0.41054100  1
  O  O12  1  0.71088700  0.36678000  0.99764500  1
  O  O13  1  0.21179700  0.86588800  0.49655500  1
  O  O14  1  0.78961100  0.13451100  0.50297000  1
  O  O15  1  0.28820700  0.63354400  0.00246800  1
  O  O16  1  0.57725200  0.25385700  0.59254400  1
  O  O17  1  0.07660600  0.75381400  0.09163600  1
  O  O18  1  0.92061200  0.24437400  0.90885100  1
  O  O19  1  0.41911300  0.74628900  0.40297100  1
  O  O20  1  0.70792500  0.04586300  0.75538500  1
  O  O21  1  0.20724800  0.54615400  0.25598100  1
  O  O22  1  0.79753700  0.45404600  0.74709100  1
  O  O23  1  0.29409700  0.95629800  0.24419600  1
  O  O24  1  0.49797600  0.35341200  0.21735900  1
  O  O25  1  0.99889200  0.85146600  0.71706500  1
  O  O26  1  0.00227100  0.14690200  0.28387300  1
  O  O27  1  0.50080300  0.64766200  0.78081000  1
  O  O28  1  0.20990800  0.29420900  0.41355300  1
  O  O29  1  0.70861200  0.79377300  0.91190000  1
  O  O30  1  0.29030500  0.20623500  0.08587500  1
  O  O31  1  0.79007500  0.70375400  0.58433700  1
loop_
_geom_bond_atom_site_label_1
_geom_bond_atom_site_label_2
_geom_bond_distance
_geom_bond_site_symmetry_2
Na0 O16 2.419566 1_555
Na0 O12 2.498599 1_555
Na0 O6 2.500927 1_556
Na0 O18 2.523187 1_555
Na0 O20 2.563287 1_555
Na1 O17 2.428135 1_555
Na1 O7 2.485366 1_555
Na1 O13 2.497611 1_555
Na1 O19 2.507728 1_555
Na1 O21 2.533644 1_555
Na2 O18 2.420443 1_555
Na2 O4 2.495116 1_555
Na2 O14 2.500578 1_555
Na2 O22 2.543120 1_555
Na2 O16 2.546001 1_555
Na3 O19 2.395543 1_555
Na3 O5 2.478746 1_554
Na3 O15 2.500596 1_555
Na3 O17 2.544244 1_555
Na3 O23 2.567577 1_555
Fe0 O25 2.087989 1_455
Fe0 O27 2.104509 1_555
Fe0 O13 2.236540 1_555
Fe0 O15 2.245810 1_556
Fe0 O7 2.266334 1_555
Fe0 O5 2.275838 1_555
Fe1 O13 2.122384 1_555
Fe1 O14 2.129336 1_465
Fe1 O26 2.187854 1_565
Fe1 O25 2.202494 1_455
Fe1 O2 2.237697 1_565
Fe1 O1 2.238198 1_455
Fe2 O12 2.115227 1_555
Fe2 O15 2.120903 1_556
Fe2 O24 2.189136 1_556
Fe2 O27 2.213825 1_555
Fe2 O0 2.237774 1_555
Fe2 O3 2.250770 1_556
Fe3 O26 2.106830 1_655
Fe3 O24 2.109090 1_555
Fe3 O14 2.236825 1_555
Fe3 O12 2.238601 1_554
Fe3 O6 2.254406 1_555
Fe3 O4 2.257146 1_555
Fe4 O21 2.110031 1_555
Fe4 O16 2.112971 1_555
Fe4 O24 2.139866 1_555
Fe4 O8 2.181412 1_555
Fe4 O11 2.204619 1_555
Fe4 O28 2.260695 1_555
Fe5 O20 2.104293 1_565
Fe5 O17 2.110717 1_656
Fe5 O25 2.143079 1_555
Fe5 O9 2.186448 1_556
Fe5 O10 2.192750 1_665
Fe5 O29 2.263554 1_555
Fe6 O23 2.102274 1_545
Fe6 O18 2.105375 1_454
Fe6 O26 2.139183 1_555
Fe6 O10 2.183872 1_554
Fe6 O9 2.197972 1_445
Fe6 O30 2.258742 1_555
Fe7 O27 2.113188 1_555
Fe7 O19 2.133426 1_555
Fe7 O22 2.144867 1_555
Fe7 O11 2.177973 1_555
Fe7 O31 2.204971 1_555
Fe7 O8 2.225835 1_555
H0 O24 0.983181 1_555
H1 O25 0.982057 1_555
H2 O26 0.983069 1_555
H3 O27 0.985000 1_555
H4 O28 0.992221 1_555
H5 O29 0.993340 1_555
H6 O30 0.991920 1_555
H7 O31 0.994536 1_555
H8 O28 0.995238 1_555
H9 O29 0.995427 1_554
H10 O30 0.995973 1_556
H11 O31 0.996331 1_555
O0 S0 1.545584 1_555
O1 S1 1.545646 1_555
O2 S2 1.544263 1_555
O3 S3 1.543487 1_555
O4 S3 1.551752 1_555
O5 S2 1.554285 1_565
O6 S1 1.552954 1_545
O7 S0 1.555004 1_555
O8 S0 1.557708 1_555
O9 S1 1.559382 1_555
O10 S2 1.560387 1_555
O11 S3 1.564941 1_555
O12 S4 1.584015 1_555
O13 S5 1.582675 1_555
O14 S6 1.579782 1_555
O15 S7 1.580476 1_555
O16 S6 1.556894 1_555
O17 S7 1.556332 1_555
O18 S4 1.559331 1_555
O19 S5 1.553386 1_555
O20 S6 1.528654 1_555
O21 S7 1.528412 1_555
O22 S4 1.522512 1_555
O23 S5 1.527178 1_555
