# generated using pymatgen
data_Ga3Fe
_symmetry_space_group_name_H-M   'P 1'
_cell_length_a   6.18354969
_cell_length_b   6.18354917
_cell_length_c   6.49835684
_cell_angle_alpha   90.00002583
_cell_angle_beta   90.00001171
_cell_angle_gamma   90.00029336
_symmetry_Int_Tables_number   1
_chemical_formula_structural   Ga3Fe
_chemical_formula_sum   'Ga12 Fe4'
_cell_volume   248.47301477
_cell_formula_units_Z   4
loop_
 _symmetry_equiv_pos_site_id
 _symmetry_equiv_pos_as_xyz
  1  'x, y, z'
loop_
 _atom_site_type_symbol
 _atom_site_label
 _atom_site_symmetry_multiplicity
 _atom_site_fract_x
 _atom_site_fract_y
 _atom_site_fract_z
 _atom_site_occupancy
  Ga  Ga0  1  0.34455749  0.65543948  0.76349505  1
  Ga  Ga1  1  0.15541194  0.15539946  0.73644181  1
  Ga  Ga2  1  0.65543112  0.34456612  0.23650099  1
  Ga  Ga3  1  0.65543119  0.34456547  0.76349977  1
  Ga  Ga4  1  0.49999504  -0.00001762  0.00000038  1
  Ga  Ga5  1  0.84459941  0.84458685  0.26355572  1
  Ga  Ga6  1  0.00001153  0.49999299  0.50000035  1
  Ga  Ga7  1  0.15541342  0.15540135  0.26355952  1
  Ga  Ga8  1  0.34455612  0.65544052  0.23650307  1
  Ga  Ga9  1  0.84459837  0.84458605  0.73644336  1
  Ga  Ga10  1  0.49999961  -0.00000665  0.49999982  1
  Ga  Ga11  1  -0.00001063  0.50000343  0.99999928  1
  Fe  Fe0  1  0.84318958  0.15681985  0.50000014  1
  Fe  Fe1  1  0.15681550  0.84319415  0.49999997  1
  Fe  Fe2  1  0.34316419  0.34317778  0.00000035  1
  Fe  Fe3  1  0.65683712  0.65685077  -0.00000058  1
loop_
_geom_bond_atom_site_label_1
_geom_bond_atom_site_label_2
_geom_bond_distance
_geom_bond_site_symmetry_2
Fe0 Ga6 2.333095 1_655
Fe0 Ga10 2.333201 1_555
Fe0 Ga3 2.372289 1_555
Fe0 Ga2 2.372289 1_555
Fe0 Ga1 2.467435 1_655
Fe0 Ga7 2.467438 1_655
Fe0 Ga5 2.467497 1_545
Fe0 Ga9 2.467497 1_545
Fe1 Ga10 2.333098 1_565
Fe1 Ga6 2.333206 1_555
Fe1 Ga0 2.372246 1_555
Fe1 Ga8 2.372247 1_555
Fe1 Ga1 2.467352 1_565
Fe1 Ga7 2.467357 1_565
Fe1 Ga5 2.467414 1_455
Fe1 Ga9 2.467416 1_455
Fe2 Ga11 2.333123 1_554
Fe2 Ga4 2.333252 1_555
Fe2 Ga7 2.372633 1_555
Fe2 Ga1 2.372639 1_554
Fe2 Ga8 2.467876 1_555
Fe2 Ga0 2.467883 1_554
Fe2 Ga2 2.467888 1_555
Fe2 Ga3 2.467889 1_554
Fe3 Ga4 2.332922 1_565
Fe3 Ga11 2.333052 1_654
Fe3 Ga9 2.372526 1_554
Fe3 Ga5 2.372531 1_555
Fe3 Ga0 2.467965 1_554
Fe3 Ga8 2.467970 1_555
Fe3 Ga3 2.467973 1_554
Fe3 Ga2 2.467979 1_555
