# generated using pymatgen
data_K7Th6F31
_symmetry_space_group_name_H-M   'P 1'
_cell_length_a   9.49065970
_cell_length_b   9.49104702
_cell_length_c   9.49093640
_cell_angle_alpha   107.22449202
_cell_angle_beta   107.22300314
_cell_angle_gamma   107.22677200
_symmetry_Int_Tables_number   1
_chemical_formula_structural   K7Th6F31
_chemical_formula_sum   'K7 Th6 F31'
_cell_volume   707.56533932
_cell_formula_units_Z   1
loop_
 _symmetry_equiv_pos_site_id
 _symmetry_equiv_pos_as_xyz
  1  'x, y, z'
loop_
 _atom_site_type_symbol
 _atom_site_label
 _atom_site_symmetry_multiplicity
 _atom_site_fract_x
 _atom_site_fract_y
 _atom_site_fract_z
 _atom_site_occupancy
  K  K0  1  0.81234348  0.41355454  0.27488801  1
  K  K1  1  0.71685060  0.17824740  0.57066796  1
  K  K2  1  0.57072290  0.71688236  0.17820270  1
  K  K3  1  0.50116560  0.50122142  0.50120479  1
  K  K4  1  0.41352973  0.27484358  0.81235929  1
  K  K5  1  0.27487186  0.81237033  0.41354066  1
  K  K6  1  0.17820328  0.57065874  0.71682175  1
  Th  Th0  1  0.95738677  0.87027570  0.62035238  1
  Th  Th1  1  0.87024688  0.62032361  0.95738215  1
  Th  Th2  1  0.35739071  0.04566865  0.12841145  1
  Th  Th3  1  0.62033196  0.95737764  0.87027695  1
  Th  Th4  1  0.12844431  0.35744220  0.04566701  1
  Th  Th5  1  0.04566549  0.12839998  0.35740673  1
  F  F0  1  0.78826877  0.04658078  0.15026105  1
  F  F1  1  0.94269615  0.28994031  0.47552389  1
  F  F2  1  0.95529979  0.84137054  0.20616785  1
  F  F3  1  0.97450576  0.43709457  0.84937282  1
  F  F4  1  0.69451360  0.51645765  0.05216908  1
  F  F5  1  0.54670290  0.14853095  0.01905822  1
  F  F6  1  0.84143084  0.20614462  0.95536548  1
  F  F7  1  0.90519591  0.69705711  0.75023487  1
  F  F8  1  0.84938392  0.97456377  0.43715737  1
  F  F9  1  0.73178820  0.65759023  0.42105601  1
  F  F10  1  0.57308923  0.26266078  0.33851973  1
  F  F11  1  0.65755041  0.42105548  0.73177948  1
  F  F12  1  0.51651550  0.05219188  0.69455937  1
  F  F13  1  0.75023147  0.90521406  0.69707153  1
  F  F14  1  0.34659759  0.28241410  0.09809266  1
  F  F15  1  0.69700741  0.75017522  0.90521243  1
  F  F16  1  0.28239731  0.09809797  0.34660594  1
  F  F17  1  0.47559181  0.94272068  0.28992254  1
  F  F18  1  0.33854783  0.57315856  0.26263187  1
  F  F19  1  0.08381030  0.08372716  0.08376887  1
  F  F20  1  0.42102631  0.73181101  0.65757036  1
  F  F21  1  0.26263710  0.33851569  0.57312371  1
  F  F22  1  0.14851473  0.01899350  0.54665408  1
  F  F23  1  0.09822472  0.34659515  0.28241869  1
  F  F24  1  0.15024953  0.78826774  0.04662093  1
  F  F25  1  0.43709283  0.84937253  0.97452415  1
  F  F26  1  0.28995796  0.47561685  0.94269167  1
  F  F27  1  0.01900637  0.54665476  0.14852039  1
  F  F28  1  0.04665227  0.15028927  0.78829079  1
  F  F29  1  0.05217596  0.69454530  0.51650350  1
  F  F30  1  0.20618995  0.95533263  0.84137284  1
loop_
_geom_bond_atom_site_label_1
_geom_bond_atom_site_label_2
_geom_bond_distance
_geom_bond_site_symmetry_2
F0 Th5 2.358803 1_655
F0 Th3 2.382996 1_544
F1 Th5 2.254044 1_655
F1 K1 2.626922 1_555
F1 K6 2.677126 1_655
F1 K0 2.705693 1_555
F2 Th1 2.358565 1_554
F2 Th5 2.405939 1_665
F3 Th1 2.370293 1_555
F3 Th4 2.460341 1_656
F3 K1 2.788320 1_555
F3 K6 2.803589 1_655
F4 Th1 2.236658 1_554
F4 K0 2.672517 1_555
F4 K2 2.690355 1_555
F4 K4 2.691261 1_554
F5 Th3 2.364694 1_544
F5 Th2 2.433881 1_555
F5 K0 2.753241 1_555
F5 K4 2.775823 1_554
F6 Th3 2.358536 1_545
F6 Th4 2.405883 1_656
F7 Th0 2.355250 1_555
F7 Th1 2.365736 1_555
F8 Th0 2.370271 1_555
F8 Th5 2.460357 1_665
F8 K2 2.788558 1_555
F8 K1 2.803266 1_565
F9 Th0 2.239935 1_555
F9 K2 2.675289 1_555
F9 K3 2.702298 1_555
F9 K0 2.765423 1_555
F10 Th2 2.249864 1_555
F10 K0 2.640055 1_555
F10 K1 2.696417 1_555
F10 K3 2.728678 1_555
F11 Th1 2.239927 1_555
F11 K1 2.675168 1_555
F11 K3 2.702272 1_555
F11 K4 2.765483 1_555
F12 Th3 2.236692 1_545
F12 K4 2.672488 1_555
F12 K1 2.690480 1_555
F12 K5 2.691572 1_545
F13 Th3 2.355205 1_555
F13 Th0 2.365661 1_555
F14 Th4 2.348262 1_555
F14 Th2 2.375695 1_555
F14 K4 2.948682 1_554
F15 Th1 2.355164 1_555
F15 Th3 2.365967 1_555
F16 Th2 2.348405 1_555
F16 Th5 2.375441 1_555
F16 K5 2.948772 1_545
F17 Th2 2.254070 1_565
F17 K2 2.626966 1_555
F17 K1 2.677201 1_565
F17 K5 2.706144 1_555
F18 Th4 2.249817 1_555
F18 K5 2.640192 1_555
F18 K2 2.696450 1_555
F18 K3 2.728613 1_555
F19 Th2 2.654482 1_555
F19 Th5 2.655410 1_555
F19 Th4 2.655986 1_555
F20 Th3 2.239917 1_555
F20 K6 2.675002 1_555
F20 K3 2.702112 1_555
F20 K5 2.765377 1_555
F21 Th5 2.249881 1_555
F21 K4 2.640299 1_555
F21 K6 2.696285 1_555
F21 K3 2.728379 1_555
F22 Th0 2.364622 1_445
F22 Th5 2.433886 1_555
F22 K4 2.753515 1_555
F22 K5 2.775404 1_545
F23 Th5 2.348452 1_555
F23 Th4 2.375497 1_555
F23 K0 2.950224 1_455
F24 Th2 2.358838 1_565
F24 Th1 2.382984 1_454
F25 Th3 2.370175 1_555
F25 Th2 2.460442 1_566
F25 K6 2.788636 1_555
F25 K2 2.803378 1_556
F26 Th4 2.254081 1_556
F26 K6 2.626710 1_555
F26 K2 2.677238 1_556
F26 K4 2.706184 1_555
F27 Th1 2.364786 1_454
F27 Th4 2.433857 1_555
F27 K5 2.753625 1_555
F27 K0 2.775601 1_455
F28 Th4 2.358798 1_556
F28 Th0 2.383122 1_445
F29 Th0 2.236685 1_455
F29 K5 2.672611 1_555
F29 K6 2.690360 1_555
F29 K0 2.691379 1_455
F30 Th0 2.358504 1_455
F30 Th2 2.406007 1_566
