# generated using pymatgen
data_Cu3Mo2O9
_symmetry_space_group_name_H-M   'P 1'
_cell_length_a   6.89095100
_cell_length_b   7.76066500
_cell_length_c   14.88120600
_cell_angle_alpha   90.00000000
_cell_angle_beta   90.00000000
_cell_angle_gamma   90.00000000
_symmetry_Int_Tables_number   1
_chemical_formula_structural   Cu3Mo2O9
_chemical_formula_sum   'Cu12 Mo8 O36'
_cell_volume   795.82252507
_cell_formula_units_Z   4
loop_
 _symmetry_equiv_pos_site_id
 _symmetry_equiv_pos_as_xyz
  1  'x, y, z'
loop_
 _atom_site_type_symbol
 _atom_site_label
 _atom_site_symmetry_multiplicity
 _atom_site_fract_x
 _atom_site_fract_y
 _atom_site_fract_z
 _atom_site_occupancy
  Cu  Cu0  1  0.00202200  0.16288100  0.14148900  1
  Cu  Cu1  1  0.99680600  0.29696000  0.93494800  1
  Cu  Cu2  1  0.74409700  0.50331000  0.49801400  1
  Cu  Cu3  1  0.74409700  0.00331000  0.00198600  1
  Cu  Cu4  1  0.99680600  0.79696000  0.56505200  1
  Cu  Cu5  1  0.50202300  0.83711900  0.85851100  1
  Cu  Cu6  1  0.24409700  0.99669000  0.99801400  1
  Cu  Cu7  1  0.49680600  0.20304000  0.43494800  1
  Cu  Cu8  1  0.00202200  0.66288100  0.35851100  1
  Cu  Cu9  1  0.50202300  0.33711900  0.64148900  1
  Cu  Cu10  1  0.24409700  0.49669000  0.50198600  1
  Cu  Cu11  1  0.49680600  0.70304000  0.06505200  1
  Mo  Mo0  1  0.49583500  0.26197400  0.16585900  1
  Mo  Mo1  1  0.99583500  0.23802600  0.66585900  1
  Mo  Mo2  1  0.49573400  0.84615600  0.61408100  1
  Mo  Mo3  1  0.49583500  0.76197400  0.33414100  1
  Mo  Mo4  1  0.49573400  0.34615600  0.88591900  1
  Mo  Mo5  1  0.99583500  0.73802600  0.83414100  1
  Mo  Mo6  1  0.99573400  0.65384400  0.11408100  1
  Mo  Mo7  1  0.99573400  0.15384400  0.38591900  1
  O  O0  1  0.99202800  0.03272800  0.60963800  1
  O  O1  1  0.48895700  0.06936100  0.59451700  1
  O  O2  1  0.78499000  0.36754000  0.63083200  1
  O  O3  1  0.49596100  0.41114200  0.51455900  1
  O  O4  1  0.48919600  0.29789700  0.28143900  1
  O  O5  1  0.98919600  0.20210300  0.78143900  1
  O  O6  1  0.98895700  0.93063900  0.40548300  1
  O  O7  1  0.98895700  0.43063900  0.09451700  1
  O  O8  1  0.99596100  0.58885800  0.48544100  1
  O  O9  1  0.71559200  0.14230200  0.13401600  1
  O  O10  1  0.78067600  0.25478000  0.43617900  1
  O  O11  1  0.00229700  0.19524900  0.26820500  1
  O  O12  1  0.78499000  0.86754000  0.86916800  1
  O  O13  1  0.21180800  0.74841100  0.06206800  1
  O  O14  1  0.28499000  0.13246000  0.13083200  1
  O  O15  1  0.98919600  0.70210300  0.71856100  1
  O  O16  1  0.21559200  0.85769800  0.86598400  1
  O  O17  1  0.49596100  0.91114200  0.98544100  1
  O  O18  1  0.71180800  0.25158900  0.93793200  1
  O  O19  1  0.50229700  0.30475100  0.76820500  1
  O  O20  1  0.49202800  0.96727200  0.39036200  1
  O  O21  1  0.99202800  0.53272800  0.89036200  1
  O  O22  1  0.99596100  0.08885800  0.01455900  1
  O  O23  1  0.49202800  0.46727200  0.10963800  1
  O  O24  1  0.50229700  0.80475100  0.73179500  1
  O  O25  1  0.78067600  0.75478000  0.06382100  1
  O  O26  1  0.48895700  0.56936100  0.90548300  1
  O  O27  1  0.28067600  0.74522000  0.56382100  1
  O  O28  1  0.71180800  0.75158900  0.56206800  1
  O  O29  1  0.28499000  0.63246000  0.36916800  1
  O  O30  1  0.21559200  0.35769800  0.63401600  1
  O  O31  1  0.21180800  0.24841100  0.43793200  1
  O  O32  1  0.28067600  0.24522000  0.93617900  1
  O  O33  1  0.71559200  0.64230200  0.36598400  1
  O  O34  1  0.00229700  0.69524900  0.23179500  1
  O  O35  1  0.48919600  0.79789700  0.21856100  1
loop_
_geom_bond_atom_site_label_1
_geom_bond_atom_site_label_2
_geom_bond_distance
_geom_bond_site_symmetry_2
Cu0 O11 1.902346 1_555
Cu0 O14 1.970551 1_555
Cu0 O22 1.974739 1_455
Cu0 O9 1.983346 1_455
Cu0 O7 2.194244 1_455
Cu1 O21 1.946579 1_555
Cu1 O18 1.995717 1_555
Cu1 O32 1.997005 1_655
Cu1 O22 2.002954 1_556
Cu1 O5 2.400656 1_555
Cu1 O7 2.591878 1_556
Cu2 O8 1.867627 1_555
Cu2 O3 1.869756 1_555
Cu2 O10 2.151830 1_555
Cu2 O28 2.161179 1_555
Cu2 O33 2.249982 1_555
Cu2 O2 2.257463 1_555
Cu3 O22 1.867627 1_555
Cu3 O17 1.869756 1_544
Cu3 O25 2.151830 1_545
Cu3 O18 2.161179 1_554
Cu3 O9 2.249982 1_555
Cu3 O12 2.257463 1_544
Cu4 O0 1.946579 1_565
Cu4 O28 1.995717 1_555
Cu4 O27 1.997005 1_655
Cu4 O8 2.002954 1_555
Cu4 O15 2.400656 1_555
Cu4 O6 2.591878 1_555
Cu5 O24 1.902346 1_555
Cu5 O12 1.970544 1_555
Cu5 O17 1.974739 1_555
Cu5 O16 1.983353 1_555
Cu5 O26 2.194245 1_555
Cu6 O17 1.867627 1_555
Cu6 O22 1.869756 1_466
Cu6 O32 2.151830 1_565
Cu6 O13 2.161179 1_556
Cu6 O16 2.249982 1_555
Cu6 O14 2.257463 1_566
Cu7 O20 1.946579 1_545
Cu7 O31 1.995717 1_555
Cu7 O10 1.997005 1_555
Cu7 O3 2.002954 1_555
Cu7 O4 2.400656 1_555
Cu7 O1 2.591878 1_555
Cu8 O34 1.902346 1_555
Cu8 O29 1.970551 1_555
Cu8 O8 1.974739 1_455
Cu8 O33 1.983346 1_455
Cu8 O6 2.194244 1_455
Cu9 O19 1.902346 1_555
Cu9 O2 1.970544 1_555
Cu9 O3 1.974739 1_555
Cu9 O30 1.983353 1_555
Cu9 O1 2.194245 1_555
Cu10 O3 1.867627 1_555
Cu10 O8 1.869756 1_455
Cu10 O27 2.151830 1_555
Cu10 O31 2.161179 1_555
Cu10 O30 2.249982 1_555
Cu10 O29 2.257463 1_555
Cu11 O23 1.946579 1_555
Cu11 O13 1.995717 1_555
Cu11 O25 1.997005 1_555
Cu11 O17 2.002954 1_554
Cu11 O35 2.400656 1_555
Cu11 O26 2.591878 1_554
Mo0 O4 1.743018 1_555
Mo0 O23 1.799747 1_555
Mo0 O9 1.838560 1_555
Mo0 O14 1.841992 1_555
Mo1 O5 1.743018 1_555
Mo1 O0 1.799747 1_555
Mo1 O30 1.838560 1_655
Mo1 O2 1.841992 1_555
Mo2 O1 1.757135 1_565
Mo2 O24 1.781528 1_555
Mo2 O28 1.831585 1_555
Mo2 O27 1.835536 1_555
Mo3 O35 1.743018 1_555
Mo3 O20 1.799747 1_555
Mo3 O33 1.838560 1_555
Mo3 O29 1.841992 1_555
Mo4 O26 1.757135 1_555
Mo4 O19 1.781528 1_555
Mo4 O18 1.831585 1_555
Mo4 O32 1.835536 1_555
Mo5 O15 1.743018 1_555
Mo5 O21 1.799747 1_555
Mo5 O16 1.838560 1_655
Mo5 O12 1.841992 1_555
Mo6 O7 1.757135 1_555
Mo6 O34 1.781528 1_655
Mo6 O13 1.831585 1_655
Mo6 O25 1.835536 1_555
Mo7 O6 1.757135 1_545
Mo7 O11 1.781528 1_655
Mo7 O31 1.831585 1_655
Mo7 O10 1.835536 1_555
