# generated using pymatgen
data_Ba5Fe4S11
_symmetry_space_group_name_H-M   'P 1'
_cell_length_a   7.30486300
_cell_length_b   8.79706200
_cell_length_c   15.96531000
_cell_angle_alpha   90.00000000
_cell_angle_beta   90.00000000
_cell_angle_gamma   90.00000000
_symmetry_Int_Tables_number   1
_chemical_formula_structural   Ba5Fe4S11
_chemical_formula_sum   'Ba10 Fe8 S22'
_cell_volume   1025.95209777
_cell_formula_units_Z   2
loop_
 _symmetry_equiv_pos_site_id
 _symmetry_equiv_pos_as_xyz
  1  'x, y, z'
loop_
 _atom_site_type_symbol
 _atom_site_label
 _atom_site_symmetry_multiplicity
 _atom_site_fract_x
 _atom_site_fract_y
 _atom_site_fract_z
 _atom_site_occupancy
  Ba  Ba0  1  0.02538900  0.25152300  0.50000000  1
  Ba  Ba1  1  0.02149000  0.37024600  0.80319400  1
  Ba  Ba2  1  0.97851000  0.87024600  0.69680600  1
  Ba  Ba3  1  0.02149000  0.37024600  0.19680600  1
  Ba  Ba4  1  0.53115700  0.49044100  0.67262700  1
  Ba  Ba5  1  0.97461100  0.75152300  0.00000000  1
  Ba  Ba6  1  0.53115700  0.49044100  0.32737300  1
  Ba  Ba7  1  0.97851000  0.87024600  0.30319400  1
  Ba  Ba8  1  0.46884300  0.99044100  0.17262700  1
  Ba  Ba9  1  0.46884300  0.99044100  0.82737300  1
  Fe  Fe0  1  0.05416300  0.63724500  0.50000000  1
  Fe  Fe1  1  0.94583700  0.13724500  0.00000000  1
  Fe  Fe2  1  0.48212600  0.59618700  0.11202900  1
  Fe  Fe3  1  0.51787400  0.09618700  0.38797100  1
  Fe  Fe4  1  0.51787400  0.09618700  0.61202900  1
  Fe  Fe5  1  0.62294100  0.30318000  0.00000000  1
  Fe  Fe6  1  0.37705900  0.80318000  0.50000000  1
  Fe  Fe7  1  0.48212600  0.59618700  0.88797100  1
  S  S0  1  0.74341200  0.16681900  0.69649800  1
  S  S1  1  0.05891400  0.04153800  0.11839200  1
  S  S2  1  0.58224300  0.23966300  0.50000000  1
  S  S3  1  0.74341200  0.16681900  0.30350200  1
  S  S4  1  0.74217500  0.67671600  0.17083600  1
  S  S5  1  0.25658800  0.66681900  0.80350200  1
  S  S6  1  0.08976500  0.89162500  0.50000000  1
  S  S7  1  0.46848500  0.34146500  0.11822200  1
  S  S8  1  0.65487000  0.05684100  0.00000000  1
  S  S9  1  0.53151500  0.84146500  0.61822200  1
  S  S10  1  0.94108600  0.54153800  0.38160800  1
  S  S11  1  0.25782500  0.17671600  0.32916400  1
  S  S12  1  0.25782500  0.17671600  0.67083600  1
  S  S13  1  0.34513000  0.55684100  0.50000000  1
  S  S14  1  0.91023500  0.39162500  0.00000000  1
  S  S15  1  0.25658800  0.66681900  0.19649800  1
  S  S16  1  0.74217500  0.67671600  0.82916400  1
  S  S17  1  0.94108600  0.54153800  0.61839200  1
  S  S18  1  0.05891400  0.04153800  0.88160800  1
  S  S19  1  0.53151500  0.84146500  0.38177800  1
  S  S20  1  0.41775700  0.73966300  0.00000000  1
  S  S21  1  0.46848500  0.34146500  0.88177800  1
loop_
_geom_bond_atom_site_label_1
_geom_bond_atom_site_label_2
_geom_bond_distance
_geom_bond_site_symmetry_2
Ba0 S6 3.200779 1_545
Ba0 S17 3.234345 1_455
Ba0 S10 3.234345 1_455
Ba0 S2 3.238802 1_455
Ba0 S11 3.279476 1_555
Ba0 S12 3.279476 1_555
Ba0 Fe0 3.399724 1_555
Ba0 S13 3.559409 1_555
Ba0 S0 3.826193 1_455
Ba0 S3 3.826193 1_455
Ba1 S5 3.123472 1_555
Ba1 S18 3.162866 1_555
Ba1 S0 3.198513 1_455
Ba1 S12 3.216252 1_555
Ba1 S14 3.250916 1_456
Ba1 S17 3.364610 1_455
Ba1 S16 3.406402 1_455
Ba1 S21 3.507128 1_555
Ba2 S0 3.123472 1_565
Ba2 S17 3.162866 1_555
Ba2 S5 3.198513 1_655
Ba2 S16 3.216252 1_555
Ba2 S6 3.250916 1_655
Ba2 S18 3.364610 1_665
Ba2 S12 3.406402 1_665
Ba2 S9 3.507128 1_555
Ba3 S15 3.123472 1_555
Ba3 S1 3.162866 1_555
Ba3 S3 3.198513 1_455
Ba3 S11 3.216252 1_555
Ba3 S14 3.250916 1_455
Ba3 S10 3.364610 1_455
Ba3 S4 3.406402 1_455
Ba3 S7 3.507128 1_555
Ba4 S13 3.127873 1_555
Ba4 S17 3.149394 1_555
Ba4 S9 3.207815 1_555
Ba4 S0 3.264084 1_555
Ba4 S5 3.285745 1_555
Ba4 S16 3.362610 1_555
Ba4 S12 3.406502 1_555
Ba4 S2 3.549923 1_555
Ba4 S21 3.616231 1_555
Ba5 S14 3.200779 1_555
Ba5 S1 3.234345 1_665
Ba5 S18 3.234345 1_664
Ba5 S20 3.238802 1_655
Ba5 S16 3.279476 1_554
Ba5 S4 3.279476 1_555
Ba5 Fe1 3.399724 1_565
Ba5 S8 3.559409 1_565
Ba5 S15 3.826193 1_655
Ba5 S5 3.826193 1_654
Ba6 S13 3.127873 1_555
Ba6 S10 3.149394 1_555
Ba6 S19 3.207815 1_555
Ba6 S3 3.264084 1_555
Ba6 S15 3.285745 1_555
Ba6 S4 3.362610 1_555
Ba6 S11 3.406502 1_555
Ba6 S2 3.549923 1_555
Ba6 S7 3.616231 1_555
Ba7 S3 3.123472 1_565
Ba7 S10 3.162866 1_555
Ba7 S15 3.198513 1_655
Ba7 S4 3.216252 1_555
Ba7 S6 3.250916 1_655
Ba7 S1 3.364610 1_665
Ba7 S11 3.406402 1_665
Ba7 S19 3.507128 1_555
Ba8 S8 3.127873 1_565
Ba8 S1 3.149394 1_565
Ba8 S7 3.207815 1_565
Ba8 S15 3.264084 1_555
Ba8 S3 3.285745 1_565
Ba8 S11 3.362610 1_565
Ba8 S4 3.406502 1_555
Ba8 S20 3.549923 1_555
Ba8 S19 3.616231 1_555
Ba9 S8 3.127873 1_566
Ba9 S18 3.149394 1_565
Ba9 S21 3.207815 1_565
Ba9 S5 3.264084 1_555
Ba9 S0 3.285745 1_565
Ba9 S12 3.362610 1_565
Ba9 S16 3.406502 1_555
Ba9 S20 3.549923 1_556
Ba9 S9 3.616231 1_555
Fe0 S17 2.227977 1_455
Fe0 S10 2.227977 1_455
Fe0 S13 2.240076 1_555
Fe0 S6 2.252858 1_555
Fe1 S1 2.227977 1_655
Fe1 S18 2.227977 1_654
Fe1 S8 2.240076 1_555
Fe1 S14 2.252858 1_555
Fe2 S15 2.217897 1_555
Fe2 S4 2.234257 1_555
Fe2 S20 2.239011 1_555
Fe2 S7 2.245198 1_555
Fe3 S3 2.217897 1_555
Fe3 S11 2.234257 1_555
Fe3 S2 2.239011 1_555
Fe3 S19 2.245198 1_545
Fe4 S0 2.217897 1_555
Fe4 S12 2.234257 1_555
Fe4 S2 2.239011 1_555
Fe4 S9 2.245198 1_545
Fe5 S8 2.179575 1_555
Fe5 S7 2.224616 1_555
Fe5 S21 2.224616 1_554
Fe5 S14 2.238230 1_555
Fe6 S13 2.179575 1_555
Fe6 S9 2.224616 1_555
Fe6 S19 2.224616 1_555
Fe6 S6 2.238230 1_555
Fe7 S5 2.217897 1_555
Fe7 S16 2.234257 1_555
Fe7 S20 2.239011 1_556
Fe7 S21 2.245198 1_555
