# generated using pymatgen
data_LiTiCl3
_symmetry_space_group_name_H-M   'P 1'
_cell_length_a   7.44327449
_cell_length_b   7.44327449
_cell_length_c   12.34525996
_cell_angle_alpha   71.52505696
_cell_angle_beta   71.52505696
_cell_angle_gamma   57.46468224
_symmetry_Int_Tables_number   1
_chemical_formula_structural   LiTiCl3
_chemical_formula_sum   'Li4 Ti4 Cl12'
_cell_volume   537.64645410
_cell_formula_units_Z   4
loop_
 _symmetry_equiv_pos_site_id
 _symmetry_equiv_pos_as_xyz
  1  'x, y, z'
loop_
 _atom_site_type_symbol
 _atom_site_label
 _atom_site_symmetry_multiplicity
 _atom_site_fract_x
 _atom_site_fract_y
 _atom_site_fract_z
 _atom_site_occupancy
  Li  Li0  1  0.34201300  0.34201300  0.87271700  1
  Li  Li1  1  0.87749000  0.87749000  0.36312700  1
  Li  Li2  1  0.94713400  0.94713400  0.69761300  1
  Li  Li3  1  0.43851200  0.43851200  0.18312300  1
  Ti  Ti0  1  0.70931700  0.70931700  0.97134000  1
  Ti  Ti1  1  0.88664500  0.49750300  0.16814800  1
  Ti  Ti2  1  0.49750300  0.88664500  0.16814800  1
  Ti  Ti3  1  0.15801500  0.15801500  0.44803700  1
  Cl  Cl0  1  0.58299800  0.02892200  0.80844800  1
  Cl  Cl1  1  0.02892200  0.58299800  0.80844800  1
  Cl  Cl2  1  0.07184000  0.07184000  0.29651400  1
  Cl  Cl3  1  0.83280900  0.30677300  0.57977800  1
  Cl  Cl4  1  0.30677300  0.83280900  0.57977800  1
  Cl  Cl5  1  0.30543100  0.30543100  0.07146800  1
  Cl  Cl6  1  0.05747600  0.53487800  0.31345500  1
  Cl  Cl7  1  0.53487800  0.05747600  0.31345500  1
  Cl  Cl8  1  0.33771400  0.80903000  0.05711200  1
  Cl  Cl9  1  0.80903000  0.33771400  0.05711200  1
  Cl  Cl10  1  0.55773800  0.55773800  0.30847400  1
  Cl  Cl11  1  0.84276400  0.84276400  0.05870600  1
loop_
_geom_bond_atom_site_label_1
_geom_bond_atom_site_label_2
_geom_bond_distance
_geom_bond_site_symmetry_2
Cl0 Li0 2.247529 1_555
Cl0 Li2 2.447776 1_545
Cl0 Ti0 2.519452 1_545
Cl1 Li0 2.247529 1_555
Cl1 Li2 2.447776 1_455
Cl1 Ti0 2.519452 1_455
Cl2 Li1 2.367403 1_445
Cl2 Ti3 2.507065 1_555
Cl2 Ti2 2.820342 1_545
Cl2 Ti1 2.820342 1_455
Cl3 Ti3 2.343866 1_655
Cl3 Li2 2.423300 1_545
Cl4 Ti3 2.343866 1_565
Cl4 Li2 2.423300 1_455
Cl5 Li0 2.324111 1_554
Cl5 Li3 2.578482 1_555
Cl5 Ti1 2.667397 1_455
Cl5 Ti2 2.667397 1_545
Cl6 Li1 2.338739 1_455
Cl6 Ti3 2.601018 1_555
Cl6 Li3 2.607336 1_555
Cl6 Ti1 2.656033 1_455
Cl7 Li1 2.338739 1_545
Cl7 Ti3 2.601018 1_555
Cl7 Li3 2.607336 1_555
Cl7 Ti2 2.656033 1_545
Cl8 Ti0 2.399218 1_554
Cl8 Ti2 2.429311 1_555
Cl8 Li3 2.526607 1_555
Cl9 Ti0 2.399218 1_554
Cl9 Ti1 2.429311 1_555
Cl9 Li3 2.526607 1_555
Cl10 Ti1 2.412305 1_555
Cl10 Ti2 2.412305 1_555
Cl10 Li3 2.560787 1_555
Cl11 Ti0 2.357051 1_554
Cl11 Ti2 2.390110 1_555
Cl11 Ti1 2.390110 1_555
