# generated using pymatgen
data_Li3Sn(PO3)6
_symmetry_space_group_name_H-M   'P 1'
_cell_length_a   7.21766500
_cell_length_b   7.50408627
_cell_length_c   7.56785486
_cell_angle_alpha   113.99717400
_cell_angle_beta   107.10598447
_cell_angle_gamma   96.95650746
_symmetry_Int_Tables_number   1
_chemical_formula_structural   Li3Sn(PO3)6
_chemical_formula_sum   'Li3 Sn1 P6 O18'
_cell_volume   344.02390049
_cell_formula_units_Z   1
loop_
 _symmetry_equiv_pos_site_id
 _symmetry_equiv_pos_as_xyz
  1  'x, y, z'
loop_
 _atom_site_type_symbol
 _atom_site_label
 _atom_site_symmetry_multiplicity
 _atom_site_fract_x
 _atom_site_fract_y
 _atom_site_fract_z
 _atom_site_occupancy
  Li  Li0  1  0.47439300  0.48801200  0.95780400  1
  Li  Li1  1  0.16159600  0.69315500  0.87157900  1
  Li  Li2  1  0.86251300  0.63530000  0.46367600  1
  Sn  Sn0  1  0.90634700  0.20750200  0.07251400  1
  P  P0  1  0.22720900  0.01493700  0.68720500  1
  P  P1  1  0.76417600  0.34633500  0.67212100  1
  P  P2  1  0.51137000  0.78425500  0.74239400  1
  P  P3  1  0.23266600  0.67634100  0.32226000  1
  P  P4  1  0.75253700  0.98257600  0.32438100  1
  P  P5  1  0.48917500  0.22651900  0.25904700  1
  O  O0  1  0.26877800  0.19423200  0.15532200  1
  O  O1  1  0.53743300  0.00800600  0.20747100  1
  O  O2  1  0.25703800  0.64065200  0.12367000  1
  O  O3  1  0.74607700  0.37545700  0.87613100  1
  O  O4  1  0.07133400  0.88196500  0.70801600  1
  O  O5  1  0.25289900  0.23502100  0.75898800  1
  O  O6  1  0.54467000  0.32030000  0.50942000  1
  O  O7  1  0.44239600  0.68573500  0.48887100  1
  O  O8  1  0.44671300  0.99162800  0.79884300  1
  O  O9  1  0.40246200  0.64660100  0.79895000  1
  O  O10  1  0.73197600  0.76691800  0.27439600  1
  O  O11  1  0.64226300  0.34387600  0.21520600  1
  O  O12  1  0.91415000  0.49956100  0.67032900  1
  O  O13  1  0.05940800  0.52406400  0.31095600  1
  O  O14  1  0.91729800  0.09390300  0.28692500  1
  O  O15  1  0.20847800  0.89923700  0.44061400  1
  O  O16  1  0.78787900  0.11750200  0.56743000  1
  O  O17  1  0.73952300  0.85782200  0.84422000  1
loop_
_geom_bond_atom_site_label_1
_geom_bond_atom_site_label_2
_geom_bond_distance
_geom_bond_site_symmetry_2
Li0 O5 1.987503 1_555
Li0 O9 2.019214 1_555
Li0 O3 2.372809 1_555
Li0 O2 2.402712 1_556
Li0 O10 2.436303 1_556
Li1 O12 1.895120 1_455
Li1 O9 1.999892 1_555
Li1 O2 2.042893 1_556
Li1 O4 2.267110 1_555
Li2 O4 2.004445 1_655
Li2 O10 2.120685 1_555
Li2 O13 2.126269 1_655
Li2 O12 2.160343 1_555
Li2 O11 2.213593 1_555
O0 P5 1.490885 1_555
O0 Sn0 2.528848 1_455
O1 P4 1.621924 1_545
O1 P5 1.631000 1_555
O2 P3 1.483553 1_555
O3 P1 1.516454 1_555
O3 Sn0 2.449643 1_556
O4 P0 1.498783 1_565
O5 P0 1.481167 1_555
O6 P1 1.626682 1_555
O6 P5 1.626823 1_555
O7 P3 1.632573 1_555
O7 P2 1.634239 1_555
O8 P2 1.604474 1_555
O8 P0 1.629206 1_565
O9 P2 1.492967 1_555
O10 P4 1.481531 1_555
O11 P5 1.524512 1_555
O11 Sn0 2.575071 1_555
O12 P1 1.487893 1_555
O13 P3 1.545410 1_555
O13 Sn0 2.196502 1_455
O14 P4 1.530588 1_545
O14 Sn0 2.105190 1_555
O15 P3 1.604549 1_555
O15 P0 1.661302 1_565
O16 P4 1.618666 1_545
O16 P1 1.627880 1_555
O17 P2 1.515774 1_555
O17 Sn0 2.375636 1_566
