# generated using pymatgen
data_Sc2Se3
_symmetry_space_group_name_H-M   'P 1'
_cell_length_a   7.70714822
_cell_length_b   11.65203455
_cell_length_c   6.75225088
_cell_angle_alpha   29.60807215
_cell_angle_beta   54.21242004
_cell_angle_gamma   59.44483548
_symmetry_Int_Tables_number   1
_chemical_formula_structural   Sc2Se3
_chemical_formula_sum   'Sc4 Se6'
_cell_volume   243.02473533
_cell_formula_units_Z   2
loop_
 _symmetry_equiv_pos_site_id
 _symmetry_equiv_pos_as_xyz
  1  'x, y, z'
loop_
 _atom_site_type_symbol
 _atom_site_label
 _atom_site_symmetry_multiplicity
 _atom_site_fract_x
 _atom_site_fract_y
 _atom_site_fract_z
 _atom_site_occupancy
  Sc  Sc0  1  0.99933210  0.99208798  0.01251036  1
  Sc  Sc1  1  0.49947732  0.34187810  0.98802642  1
  Sc  Sc2  1  0.49922407  0.66044337  0.01026879  1
  Sc  Sc3  1  0.99946999  0.67355271  0.99044297  1
  Se  Se0  1  0.24877100  0.99405517  0.52288199  1
  Se  Se1  1  0.25000962  0.34003814  0.47748298  1
  Se  Se2  1  0.24886755  0.66674133  0.50106794  1
  Se  Se3  1  0.74991724  0.99390968  0.49634030  1
  Se  Se4  1  0.74872982  0.34005543  0.50412969  1
  Se  Se5  1  0.74901329  0.66713909  0.50038957  1
loop_
_geom_bond_atom_site_label_1
_geom_bond_atom_site_label_2
_geom_bond_distance
_geom_bond_site_symmetry_2
Sc0 Se3 2.665104 1_555
Sc0 Se0 2.665729 1_654
Sc0 Se2 2.685916 1_655
Sc0 Se5 2.686129 1_555
Sc0 Se4 2.746621 1_564
Sc0 Se1 2.748398 1_664
Sc1 Se4 2.665478 1_555
Sc1 Se1 2.665831 1_556
Sc1 Se5 2.685066 1_555
Sc1 Se2 2.687442 1_555
Sc1 Se3 2.745596 1_546
Sc1 Se0 2.747968 1_546
Sc2 Se3 2.686675 1_554
Sc2 Se0 2.687551 1_554
Sc2 Se1 2.702542 1_555
Sc2 Se4 2.703433 1_555
Sc2 Se5 2.738466 1_554
Sc2 Se2 2.740665 1_555
Sc3 Se1 2.687093 1_656
Sc3 Se4 2.687808 1_556
Sc3 Se0 2.702802 1_655
Sc3 Se3 2.704451 1_555
Sc3 Se2 2.737210 1_655
Sc3 Se5 2.741076 1_556
