# generated using pymatgen
data_Lu4Zr3O12
_symmetry_space_group_name_H-M   'P 1'
_cell_length_a   6.26657173
_cell_length_b   6.30520310
_cell_length_c   12.56552776
_cell_angle_alpha   99.33765002
_cell_angle_beta   99.37933612
_cell_angle_gamma   99.42188809
_symmetry_Int_Tables_number   1
_chemical_formula_structural   Lu4Zr3O12
_chemical_formula_sum   'Lu8 Zr6 O24'
_cell_volume   474.05205430
_cell_formula_units_Z   2
loop_
 _symmetry_equiv_pos_site_id
 _symmetry_equiv_pos_as_xyz
  1  'x, y, z'
loop_
 _atom_site_type_symbol
 _atom_site_label
 _atom_site_symmetry_multiplicity
 _atom_site_fract_x
 _atom_site_fract_y
 _atom_site_fract_z
 _atom_site_occupancy
  Lu  Lu0  1  0.39146825  0.86316288  0.09630532  1
  Lu  Lu1  1  0.31238140  0.60779307  0.81848905  1
  Lu  Lu2  1  0.30187848  0.60982815  0.31895245  1
  Lu  Lu3  1  0.85943315  0.68871528  0.44661321  1
  Lu  Lu4  1  0.68761860  0.39220693  0.18151095  1
  Lu  Lu5  1  0.14056685  0.31128472  0.55338679  1
  Lu  Lu6  1  0.60853175  0.13683712  0.90369468  1
  Lu  Lu7  1  0.69812152  0.39017185  0.68104755  1
  Zr  Zr0  1  0.99333071  0.99439456  0.24861718  1
  Zr  Zr1  1  0.39139524  0.85641347  0.59404766  1
  Zr  Zr2  1  0.00666929  0.00560544  0.75138282  1
  Zr  Zr3  1  0.85566889  0.68047275  0.94560283  1
  Zr  Zr4  1  0.14433111  0.31952725  0.05439717  1
  Zr  Zr5  1  0.60860476  0.14358653  0.40595234  1
  O  O0  1  0.32193765  0.94103002  0.78714320  1
  O  O1  1  0.04404683  0.90226164  0.08851604  1
  O  O2  1  0.31877114  0.95544239  0.29599076  1
  O  O3  1  0.07036919  0.91774854  0.59162048  1
  O  O4  1  0.58536606  0.82012045  0.96252313  1
  O  O5  1  0.91987415  0.68819420  0.78786106  1
  O  O6  1  0.17523247  0.57457049  0.96407605  1
  O  O7  1  0.57115674  0.82787962  0.46253365  1
  O  O8  1  0.92186204  0.67956961  0.27891804  1
  O  O9  1  0.41216608  0.57055453  0.15883833  1
  O  O10  1  0.18356010  0.58743880  0.46700233  1
  O  O11  1  0.58783392  0.42944547  0.84116167  1
  O  O12  1  0.42727996  0.58095173  0.65883162  1
  O  O13  1  0.82476753  0.42542951  0.03592395  1
  O  O14  1  0.57272004  0.41904827  0.34116838  1
  O  O15  1  0.08012585  0.31180580  0.21213894  1
  O  O16  1  0.41463394  0.17987955  0.03747687  1
  O  O17  1  0.81643990  0.41256120  0.53299767  1
  O  O18  1  0.07813796  0.32043039  0.72108196  1
  O  O19  1  0.42884326  0.17212038  0.53746635  1
  O  O20  1  0.95595317  0.09773836  0.91148396  1
  O  O21  1  0.67806235  0.05896998  0.21285680  1
  O  O22  1  0.92963081  0.08225146  0.40837952  1
  O  O23  1  0.68122886  0.04455761  0.70400924  1
loop_
_geom_bond_atom_site_label_1
_geom_bond_atom_site_label_2
_geom_bond_distance
_geom_bond_site_symmetry_2
Lu0 O9 2.133931 1_555
Lu0 O21 2.173609 1_565
Lu0 O1 2.219099 1_555
Lu0 O16 2.230349 1_565
Lu0 O4 2.236437 1_554
Lu0 O6 2.320711 1_554
Lu0 O2 2.612954 1_555
Lu1 O6 2.169570 1_555
Lu1 O18 2.181676 1_555
Lu1 O0 2.192831 1_555
Lu1 O11 2.214603 1_555
Lu1 O12 2.229880 1_555
Lu1 O4 2.334328 1_555
Lu1 O5 2.572572 1_455
Lu2 O10 2.128619 1_555
Lu2 O9 2.221344 1_555
Lu2 O2 2.231969 1_555
Lu2 O15 2.232084 1_555
Lu2 O14 2.242441 1_555
Lu2 O7 2.331512 1_555
Lu2 O8 2.478239 1_455
Lu3 O7 2.157134 1_555
Lu3 O8 2.198459 1_555
Lu3 O17 2.199472 1_555
Lu3 O3 2.211074 1_655
Lu3 O10 2.215214 1_655
Lu3 O14 2.316796 1_555
Lu3 O22 2.584501 1_565
Lu4 O13 2.169570 1_555
Lu4 O8 2.181676 1_555
Lu4 O21 2.192831 1_555
Lu4 O9 2.214603 1_555
Lu4 O14 2.229880 1_555
Lu4 O16 2.334328 1_555
Lu4 O15 2.572572 1_655
Lu5 O19 2.157134 1_555
Lu5 O18 2.198459 1_555
Lu5 O10 2.199472 1_555
Lu5 O22 2.211074 1_455
Lu5 O17 2.215214 1_455
Lu5 O12 2.316796 1_555
Lu5 O3 2.584501 1_545
Lu6 O11 2.133931 1_555
Lu6 O0 2.173609 1_545
Lu6 O20 2.219099 1_555
Lu6 O4 2.230349 1_545
Lu6 O16 2.236437 1_556
Lu6 O13 2.320711 1_556
Lu6 O23 2.612954 1_555
Lu7 O17 2.128619 1_555
Lu7 O11 2.221344 1_555
Lu7 O23 2.231969 1_555
Lu7 O5 2.232084 1_555
Lu7 O12 2.242441 1_555
Lu7 O19 2.331512 1_555
Lu7 O18 2.478239 1_655
O0 Zr2 2.074675 1_565
O0 Zr1 2.522190 1_555
O1 Zr0 2.091707 1_455
O1 Zr3 2.127815 1_454
O2 Zr0 2.095125 1_455
O2 Zr5 2.135403 1_565
O3 Zr1 2.106207 1_555
O3 Zr2 2.113997 1_565
O4 Zr3 2.057826 1_555
O5 Zr3 2.092330 1_555
O5 Zr2 2.129286 1_665
O6 Zr4 2.115061 1_556
O6 Zr3 2.201504 1_455
O7 Zr1 2.146830 1_555
O7 Zr5 2.209915 1_565
O8 Zr0 2.072603 1_555
O9 Zr4 2.186953 1_555
O10 Zr1 2.200350 1_555
O11 Zr3 2.186953 1_555
O12 Zr1 2.063219 1_555
O13 Zr3 2.115061 1_554
O13 Zr4 2.201504 1_655
O14 Zr5 2.063219 1_555
O15 Zr4 2.092330 1_555
O15 Zr0 2.129286 1_445
O16 Zr4 2.057826 1_555
O17 Zr5 2.200350 1_555
O18 Zr2 2.072603 1_555
O19 Zr5 2.146830 1_555
O19 Zr1 2.209915 1_545
O20 Zr2 2.091707 1_655
O20 Zr4 2.127815 1_656
O21 Zr0 2.074675 1_545
O21 Zr5 2.522190 1_555
O22 Zr5 2.106207 1_555
O22 Zr0 2.113997 1_545
O23 Zr2 2.095125 1_655
O23 Zr1 2.135403 1_545
