# generated using pymatgen
data_Na2Hf(HO)6
_symmetry_space_group_name_H-M   'P 1'
_cell_length_a   5.90927970
_cell_length_b   5.90927970
_cell_length_c   5.90927946
_cell_angle_alpha   62.08290533
_cell_angle_beta   62.08290533
_cell_angle_gamma   62.08290818
_symmetry_Int_Tables_number   1
_chemical_formula_structural   Na2Hf(HO)6
_chemical_formula_sum   'Na2 Hf1 H6 O6'
_cell_volume   152.70503891
_cell_formula_units_Z   1
loop_
 _symmetry_equiv_pos_site_id
 _symmetry_equiv_pos_as_xyz
  1  'x, y, z'
loop_
 _atom_site_type_symbol
 _atom_site_label
 _atom_site_symmetry_multiplicity
 _atom_site_fract_x
 _atom_site_fract_y
 _atom_site_fract_z
 _atom_site_occupancy
  Na  Na0  1  0.16482000  0.16482000  0.16482000  1
  Na  Na1  1  0.83518000  0.83518000  0.83518000  1
  Hf  Hf0  1  0.50000000  0.50000000  0.50000000  1
  H  H0  1  0.64331600  0.06241300  0.34771600  1
  H  H1  1  0.34771600  0.64331600  0.06241300  1
  H  H2  1  0.06241300  0.34771600  0.64331600  1
  H  H3  1  0.35668400  0.93758700  0.65228400  1
  H  H4  1  0.65228400  0.35668400  0.93758700  1
  H  H5  1  0.93758700  0.65228400  0.35668400  1
  O  O0  1  0.70634700  0.13148600  0.42079000  1
  O  O1  1  0.42079000  0.70634700  0.13148600  1
  O  O2  1  0.13148600  0.42079000  0.70634700  1
  O  O3  1  0.29365300  0.86851400  0.57921000  1
  O  O4  1  0.57921000  0.29365300  0.86851400  1
  O  O5  1  0.86851400  0.57921000  0.29365300  1
loop_
_geom_bond_atom_site_label_1
_geom_bond_atom_site_label_2
_geom_bond_distance
_geom_bond_site_symmetry_2
Na0 O2 2.459710 1_554
Na0 O0 2.459710 1_455
Na0 O1 2.459710 1_545
Na0 O3 2.474741 1_545
Na0 O4 2.474741 1_554
Na0 O5 2.474741 1_455
Na1 O5 2.459710 1_556
Na1 O3 2.459710 1_655
Na1 O4 2.459710 1_565
Na1 O0 2.474741 1_565
Na1 O1 2.474741 1_556
Na1 O2 2.474741 1_655
Hf0 O1 2.093249 1_555
Hf0 O4 2.093249 1_555
Hf0 O2 2.093249 1_555
Hf0 O5 2.093249 1_555
Hf0 O3 2.093249 1_555
Hf0 O0 2.093249 1_555
H0 O0 0.974581 1_555
H1 O1 0.974581 1_555
H2 O2 0.974581 1_555
H3 O3 0.974581 1_555
H4 O4 0.974581 1_555
H5 O5 0.974581 1_555
