# generated using pymatgen
data_Co2SnC8(ClO4)2
_symmetry_space_group_name_H-M   'P 1'
_cell_length_a   11.53522500
_cell_length_b   11.80953900
_cell_length_c   12.81134229
_cell_angle_alpha   71.67119680
_cell_angle_beta   90.00000000
_cell_angle_gamma   90.00000000
_symmetry_Int_Tables_number   1
_chemical_formula_structural   Co2SnC8(ClO4)2
_chemical_formula_sum   'Co8 Sn4 C32 Cl8 O32'
_cell_volume   1656.69387439
_cell_formula_units_Z   4
loop_
 _symmetry_equiv_pos_site_id
 _symmetry_equiv_pos_as_xyz
  1  'x, y, z'
loop_
 _atom_site_type_symbol
 _atom_site_label
 _atom_site_symmetry_multiplicity
 _atom_site_fract_x
 _atom_site_fract_y
 _atom_site_fract_z
 _atom_site_occupancy
  Co  Co0  1  0.18718500  0.57230000  0.32643100  1
  Co  Co1  1  0.67292000  0.01191400  0.29070800  1
  Co  Co2  1  0.68718500  0.42770000  0.17356900  1
  Co  Co3  1  0.32708000  0.98808600  0.70929200  1
  Co  Co4  1  0.31281500  0.57230000  0.82643100  1
  Co  Co5  1  0.17292000  0.98808600  0.20929200  1
  Co  Co6  1  0.81281500  0.42770000  0.67356900  1
  Co  Co7  1  0.82708000  0.01191400  0.79070800  1
  Sn  Sn0  1  0.66862400  0.22107300  0.14659000  1
  Sn  Sn1  1  0.33137600  0.77892700  0.85341000  1
  Sn  Sn2  1  0.16862400  0.77892700  0.35341000  1
  Sn  Sn3  1  0.83137600  0.22107300  0.64659000  1
  C  C0  1  0.30310600  0.43039300  0.80586800  1
  C  C1  1  0.82652600  0.86615000  0.88819500  1
  C  C2  1  0.67347400  0.86615000  0.38819500  1
  C  C3  1  0.06144200  0.61746700  0.24164000  1
  C  C4  1  0.56144200  0.38253300  0.25836000  1
  C  C5  1  0.19689400  0.43039300  0.30586800  1
  C  C6  1  0.95923100  0.05720600  0.83897100  1
  C  C7  1  0.69689400  0.56960700  0.19413200  1
  C  C8  1  0.68911600  0.05715400  0.82846600  1
  C  C9  1  0.66961100  0.38042000  0.72247200  1
  C  C10  1  0.31088400  0.94284600  0.17153400  1
  C  C11  1  0.93855800  0.38253300  0.75836000  1
  C  C12  1  0.81088400  0.05715400  0.32846600  1
  C  C13  1  0.33038900  0.61958000  0.27752800  1
  C  C14  1  0.32883100  0.03757200  0.82852700  1
  C  C15  1  0.16985200  0.51824400  0.47308200  1
  C  C16  1  0.17116900  0.03757200  0.32852700  1
  C  C17  1  0.04076900  0.94279400  0.16102900  1
  C  C18  1  0.80310600  0.56960700  0.69413200  1
  C  C19  1  0.66985200  0.48175600  0.02691800  1
  C  C20  1  0.45923100  0.94279400  0.66102900  1
  C  C21  1  0.18911600  0.94284600  0.67153400  1
  C  C22  1  0.83038900  0.38042000  0.22247200  1
  C  C23  1  0.32652600  0.13385000  0.61180500  1
  C  C24  1  0.16961100  0.61958000  0.77752800  1
  C  C25  1  0.33014800  0.51824400  0.97308200  1
  C  C26  1  0.54076900  0.05720600  0.33897100  1
  C  C27  1  0.83014800  0.48175600  0.52691800  1
  C  C28  1  0.82883100  0.96242800  0.67147300  1
  C  C29  1  0.67116900  0.96242800  0.17147300  1
  C  C30  1  0.17347400  0.13385000  0.11180500  1
  C  C31  1  0.43855800  0.61746700  0.74164000  1
  Cl  Cl0  1  0.68442800  0.21936700  0.51447100  1
  Cl  Cl1  1  0.99580900  0.77125800  0.45769300  1
  Cl  Cl2  1  0.00419100  0.22874200  0.54230700  1
  Cl  Cl3  1  0.18442800  0.78063300  0.98552900  1
  Cl  Cl4  1  0.50419100  0.77125800  0.95769300  1
  Cl  Cl5  1  0.49580900  0.22874200  0.04230700  1
  Cl  Cl6  1  0.81557200  0.21936700  0.01447100  1
  Cl  Cl7  1  0.31557200  0.78063300  0.48552900  1
  O  O0  1  0.07537500  0.64387500  0.74782100  1
  O  O1  1  0.54550900  0.91887800  0.62666200  1
  O  O2  1  0.09889100  0.91765400  0.64632300  1
  O  O3  1  0.47943200  0.35944500  0.31316100  1
  O  O4  1  0.57537500  0.35612500  0.75217900  1
  O  O5  1  0.92462500  0.35612500  0.25217900  1
  O  O6  1  0.16021200  0.47933700  0.56761600  1
  O  O7  1  0.40110900  0.91765400  0.14632300  1
  O  O8  1  0.82769500  0.92611800  0.59761400  1
  O  O9  1  0.66021200  0.52066300  0.93238400  1
  O  O10  1  0.32769500  0.07388200  0.90238600  1
  O  O11  1  0.17271500  0.22911100  0.04985700  1
  O  O12  1  0.67271500  0.77088900  0.45014300  1
  O  O13  1  0.17230500  0.07388200  0.40238600  1
  O  O14  1  0.82728500  0.77088900  0.95014300  1
  O  O15  1  0.33978800  0.47933700  0.06761600  1
  O  O16  1  0.95449100  0.91887800  0.12666200  1
  O  O17  1  0.29698100  0.33902100  0.79111200  1
  O  O18  1  0.45449100  0.08112200  0.37333800  1
  O  O19  1  0.59889100  0.08234600  0.85367700  1
  O  O20  1  0.32728500  0.22911100  0.54985700  1
  O  O21  1  0.90110900  0.08234600  0.35367700  1
  O  O22  1  0.83978800  0.52066300  0.43238400  1
  O  O23  1  0.02056800  0.35944500  0.81316100  1
  O  O24  1  0.20301900  0.33902100  0.29111200  1
  O  O25  1  0.79698100  0.66097900  0.70888800  1
  O  O26  1  0.70301900  0.66097900  0.20888800  1
  O  O27  1  0.97943200  0.64055500  0.18683900  1
  O  O28  1  0.42462500  0.64387500  0.24782100  1
  O  O29  1  0.67230500  0.92611800  0.09761400  1
  O  O30  1  0.04550900  0.08112200  0.87333800  1
  O  O31  1  0.52056800  0.64055500  0.68683900  1
loop_
_geom_bond_atom_site_label_1
_geom_bond_atom_site_label_2
_geom_bond_distance
_geom_bond_site_symmetry_2
C0 O17 1.154729 1_555
C0 Co4 1.779917 1_555
C1 O14 1.154988 1_555
C1 Co7 1.780716 1_565
C2 O12 1.154988 1_555
C2 Co1 1.780716 1_565
C3 O27 1.158352 1_455
C3 Co0 1.789968 1_555
C4 O3 1.158352 1_555
C4 Co2 1.789968 1_555
C5 O24 1.154729 1_555
C5 Co0 1.779917 1_555
C6 O30 1.158589 1_655
C6 Co7 1.788905 1_555
C7 O26 1.154729 1_555
C7 Co2 1.779917 1_555
C8 O19 1.156053 1_555
C8 Co7 1.792952 1_555
C9 O4 1.157640 1_555
C9 Co6 1.792486 1_555
C10 O7 1.156053 1_555
C10 Co5 1.792952 1_555
C11 O23 1.158352 1_655
C11 Co6 1.789968 1_555
C12 O21 1.156053 1_555
C12 Co1 1.792952 1_555
C13 O28 1.157640 1_555
C13 Co0 1.792486 1_555
C14 O10 1.155246 1_555
C14 Co3 1.799123 1_545
C15 O6 1.157703 1_555
C15 Co0 1.795282 1_555
C16 O13 1.155246 1_555
C16 Co5 1.799123 1_545
C17 O16 1.158589 1_455
C17 Co5 1.788905 1_555
C18 O25 1.154729 1_555
C18 Co6 1.779917 1_555
C19 O9 1.157703 1_554
C19 Co2 1.795282 1_555
C20 O1 1.158589 1_555
C20 Co3 1.788905 1_555
C21 O2 1.156053 1_555
C21 Co3 1.792952 1_555
C22 O5 1.157640 1_555
C22 Co2 1.792486 1_555
C23 O20 1.154988 1_555
C23 Co3 1.780716 1_545
C24 O0 1.157640 1_555
C24 Co4 1.792486 1_555
C25 O15 1.157703 1_556
C25 Co4 1.795282 1_555
C26 O18 1.158589 1_555
C26 Co1 1.788905 1_555
C27 O22 1.157703 1_555
C27 Co6 1.795282 1_555
C28 O8 1.155246 1_555
C28 Co7 1.799123 1_565
C29 O29 1.155246 1_555
C29 Co1 1.799123 1_565
C30 O11 1.154988 1_555
C30 Co5 1.780716 1_545
C31 O31 1.158352 1_555
C31 Co4 1.789968 1_555
Cl0 Sn3 2.400023 1_555
Cl1 Sn2 2.385559 1_655
Cl2 Sn3 2.385559 1_455
Cl3 Sn1 2.400023 1_555
Cl4 Sn1 2.385559 1_555
Cl5 Sn0 2.385559 1_555
Cl6 Sn0 2.400023 1_555
Cl7 Sn2 2.400023 1_555
