# generated using pymatgen
data_Mg11AlFeSi11O36
_symmetry_space_group_name_H-M   'P 1'
_cell_length_a   4.95098107
_cell_length_b   6.92278003
_cell_length_c   14.33923159
_cell_angle_alpha   90.00221680
_cell_angle_beta   90.08483525
_cell_angle_gamma   90.10637800
_symmetry_Int_Tables_number   1
_chemical_formula_structural   Mg11AlFeSi11O36
_chemical_formula_sum   'Mg11 Al1 Fe1 Si11 O36'
_cell_volume   491.46936558
_cell_formula_units_Z   1
loop_
 _symmetry_equiv_pos_site_id
 _symmetry_equiv_pos_as_xyz
  1  'x, y, z'
loop_
 _atom_site_type_symbol
 _atom_site_label
 _atom_site_symmetry_multiplicity
 _atom_site_fract_x
 _atom_site_fract_y
 _atom_site_fract_z
 _atom_site_occupancy
  Mg  Mg0  1  0.05741423  0.74404620  0.99640915  1
  Mg  Mg1  1  0.55668698  0.74801883  0.83678009  1
  Mg  Mg2  1  0.44417637  0.25281858  0.82763031  1
  Mg  Mg3  1  0.94224784  0.24900840  0.67202043  1
  Mg  Mg4  1  0.05869197  0.75007521  0.65982311  1
  Mg  Mg5  1  0.55750910  0.75040366  0.50575839  1
  Mg  Mg6  1  0.44231177  0.24989398  0.49437526  1
  Mg  Mg7  1  0.94120335  0.24996685  0.34009324  1
  Mg  Mg8  1  0.05639972  0.75168109  0.32921963  1
  Mg  Mg9  1  0.55627216  0.74829402  0.17247450  1
  Mg  Mg10  1  0.44037478  0.25136759  0.16259540  1
  Al  Al0  1  0.49893051  0.50333800  0.99886506  1
  Fe  Fe0  1  0.93346252  0.25716957  0.00567376  1
  Si  Si0  1  0.00190716  0.99552843  0.83298928  1
  Si  Si1  1  0.00576439  0.50555829  0.83162087  1
  Si  Si2  1  0.50120573  0.49910485  0.66600555  1
  Si  Si3  1  0.50049059  0.00058331  0.66681726  1
  Si  Si4  1  0.99980358  0.50000089  0.50010182  1
  Si  Si5  1  0.99977484  0.00024081  0.50021045  1
  Si  Si6  1  0.49907364  0.50029994  0.33406342  1
  Si  Si7  1  0.49969462  0.00039202  0.33346290  1
  Si  Si8  1  0.99882101  0.00120976  0.16807569  1
  Si  Si9  1  0.99595587  0.49803032  0.16931904  1
  Si  Si10  1  0.49953118  0.99656417  0.99818210  1
  O  O0  1  0.54038320  0.23835225  0.96429049  1
  O  O1  1  0.80174457  0.94001231  0.93402789  1
  O  O2  1  0.81518402  0.54755174  0.93223110  1
  O  O3  1  0.29974073  0.55221518  0.89257079  1
  O  O4  1  0.29785357  0.94269295  0.89787322  1
  O  O5  1  0.03467363  0.24575583  0.87006197  1
  O  O6  1  0.96321200  0.75132887  0.79564536  1
  O  O7  1  0.70587948  0.44579623  0.76631447  1
  O  O8  1  0.70291873  0.05423236  0.76776977  1
  O  O9  1  0.20202990  0.44414335  0.73062541  1
  O  O10  1  0.20320806  0.05468004  0.73255991  1
  O  O11  1  0.46505497  0.74981987  0.70022454  1
  O  O12  1  0.53504737  0.24966395  0.63147020  1
  O  O13  1  0.79809236  0.55385184  0.60041432  1
  O  O14  1  0.79825426  0.94703267  0.60105419  1
  O  O15  1  0.29838353  0.55330922  0.56512120  1
  O  O16  1  0.29775614  0.94697561  0.56559083  1
  O  O17  1  0.03431277  0.24992530  0.53426846  1
  O  O18  1  0.96529903  0.75034303  0.46583325  1
  O  O19  1  0.70179242  0.05338375  0.43451790  1
  O  O20  1  0.70134904  0.44671733  0.43477130  1
  O  O21  1  0.20125441  0.05276643  0.39874949  1
  O  O22  1  0.20128749  0.44681975  0.39917421  1
  O  O23  1  0.46452959  0.75048161  0.36813554  1
  O  O24  1  0.53440136  0.25038412  0.29966588  1
  O  O25  1  0.79767595  0.55472088  0.26949282  1
  O  O26  1  0.79625469  0.94672480  0.26799870  1
  O  O27  1  0.29748466  0.55316798  0.23272655  1
  O  O28  1  0.29987012  0.94741120  0.23148240  1
  O  O29  1  0.03625440  0.24843227  0.20474955  1
  O  O30  1  0.96335270  0.75305542  0.13342518  1
  O  O31  1  0.70741711  0.06106739  0.10000312  1
  O  O32  1  0.70551660  0.44338746  0.10507927  1
  O  O33  1  0.18643682  0.44600466  0.06794386  1
  O  O34  1  0.19707752  0.06247516  0.06506134  1
  O  O35  1  0.46131390  0.76172239  0.03650782  1
loop_
_geom_bond_atom_site_label_1
_geom_bond_atom_site_label_2
_geom_bond_distance
_geom_bond_site_symmetry_2
Mg0 O30 2.020801 1_456
Mg0 O2 2.031283 1_455
Mg0 O1 2.060578 1_455
Mg0 O35 2.083281 1_556
Mg0 O4 2.302964 1_555
Mg0 O3 2.330465 1_555
Mg0 O33 2.391745 1_556
Mg0 O34 2.509743 1_566
Mg1 O11 2.009359 1_555
Mg1 O3 2.022971 1_555
Mg1 O4 2.058038 1_555
Mg1 O6 2.098269 1_555
Mg1 O1 2.274202 1_555
Mg1 O2 2.332115 1_555
Mg1 O7 2.439617 1_555
Mg1 O8 2.448209 1_565
Mg2 O0 2.018509 1_555
Mg2 O7 2.057575 1_555
Mg2 O8 2.068212 1_555
Mg2 O5 2.118110 1_555
Mg2 O9 2.264395 1_555
Mg2 O10 2.269840 1_555
Mg2 O3 2.383637 1_555
Mg2 O4 2.478950 1_545
Mg3 O17 2.027832 1_655
Mg3 O9 2.043420 1_655
Mg3 O10 2.058131 1_655
Mg3 O12 2.097404 1_555
Mg3 O7 2.250346 1_555
Mg3 O8 2.259704 1_555
Mg3 O14 2.430256 1_545
Mg3 O13 2.453748 1_555
Mg4 O6 2.004837 1_455
Mg4 O13 2.055675 1_455
Mg4 O14 2.057977 1_455
Mg4 O11 2.092823 1_555
Mg4 O16 2.254691 1_555
Mg4 O15 2.262398 1_555
Mg4 O9 2.454275 1_555
Mg4 O10 2.457325 1_565
Mg5 O23 2.025723 1_555
Mg5 O15 2.056452 1_555
Mg5 O16 2.061911 1_555
Mg5 O18 2.099376 1_555
Mg5 O13 2.261384 1_555
Mg5 O14 2.264917 1_555
Mg5 O19 2.439250 1_565
Mg5 O20 2.443503 1_555
Mg6 O12 2.018080 1_555
Mg6 O20 2.056375 1_555
Mg6 O19 2.060934 1_555
Mg6 O17 2.100246 1_555
Mg6 O22 2.268784 1_555
Mg6 O21 2.270649 1_555
Mg6 O16 2.439127 1_545
Mg6 O15 2.440576 1_555
Mg7 O29 1.997675 1_655
Mg7 O22 2.055021 1_655
Mg7 O21 2.057234 1_655
Mg7 O24 2.095017 1_555
Mg7 O19 2.255924 1_555
Mg7 O20 2.262552 1_555
Mg7 O26 2.445959 1_545
Mg7 O25 2.446313 1_555
Mg8 O18 2.010857 1_455
Mg8 O25 2.055145 1_455
Mg8 O26 2.062978 1_455
Mg8 O23 2.095515 1_555
Mg8 O27 2.288794 1_555
Mg8 O28 2.291783 1_555
Mg8 O21 2.417650 1_565
Mg8 O22 2.445115 1_555
Mg9 O35 2.007062 1_555
Mg9 O27 2.051753 1_555
Mg9 O28 2.058425 1_555
Mg9 O30 2.092784 1_555
Mg9 O25 2.271730 1_555
Mg9 O26 2.272422 1_555
Mg9 O32 2.437854 1_555
Mg9 O31 2.514895 1_565
Mg10 O24 2.019206 1_555
Mg10 O32 2.041393 1_555
Mg10 O31 2.073405 1_555
Mg10 O29 2.091025 1_555
Mg10 O34 2.259633 1_555
Mg10 O33 2.289034 1_555
Mg10 O28 2.425726 1_545
Mg10 O27 2.425771 1_555
Al0 O3 1.845806 1_555
Al0 O2 1.860355 1_555
Al0 O35 1.878052 1_556
Al0 O33 1.880069 1_556
Al0 O32 1.880161 1_556
Al0 O0 1.911728 1_555
Fe0 O5 2.010400 1_654
Fe0 O33 2.016289 1_655
Fe0 O0 2.037682 1_554
Fe0 O34 2.061205 1_655
Fe0 O31 2.219016 1_555
Fe0 O32 2.230991 1_555
Fe0 O2 2.344309 1_554
Fe0 O1 2.508774 1_544
O0 Si10 1.754406 1_545
O1 Si0 1.797704 1_655
O1 Si10 1.801256 1_555
O2 Si1 1.749612 1_655
O3 Si1 1.726563 1_555
O4 Si0 1.773208 1_555
O4 Si10 1.788650 1_555
O5 Si0 1.818872 1_545
O5 Si1 1.886776 1_555
O6 Si0 1.783197 1_655
O6 Si1 1.790639 1_655
O7 Si2 1.796946 1_555
O7 Si1 1.801685 1_655
O8 Si0 1.796987 1_645
O8 Si3 1.797818 1_555
O9 Si2 1.788672 1_555
O9 Si1 1.796637 1_555
O10 Si3 1.789238 1_555
O10 Si0 1.799328 1_545
O11 Si3 1.809161 1_565
O11 Si2 1.812900 1_555
O12 Si2 1.804573 1_555
O12 Si3 1.805191 1_555
O13 Si2 1.786291 1_555
O13 Si4 1.791904 1_555
O14 Si3 1.790563 1_565
O14 Si5 1.795846 1_565
O15 Si4 1.784533 1_455
O15 Si2 1.799713 1_555
O16 Si5 1.785874 1_465
O16 Si3 1.801763 1_565
O17 Si5 1.803907 1_455
O17 Si4 1.807553 1_455
O18 Si5 1.806536 1_565
O18 Si4 1.809715 1_555
O19 Si5 1.788052 1_555
O19 Si7 1.797163 1_555
O20 Si4 1.786314 1_555
O20 Si6 1.795274 1_555
O21 Si7 1.788053 1_555
O21 Si5 1.801920 1_455
O22 Si6 1.784513 1_555
O22 Si4 1.797412 1_455
O23 Si6 1.808007 1_555
O23 Si7 1.808276 1_565
O24 Si7 1.805190 1_555
O24 Si6 1.807892 1_555
O25 Si9 1.785096 1_555
O25 Si6 1.785166 1_555
O26 Si7 1.783558 1_565
O26 Si8 1.789957 1_565
O27 Si9 1.787414 1_455
O27 Si6 1.799629 1_555
O28 Si8 1.784654 1_465
O28 Si7 1.801667 1_565
O29 Si8 1.799577 1_455
O29 Si9 1.812360 1_455
O30 Si8 1.796526 1_565
O30 Si9 1.846286 1_555
O31 Si8 1.789990 1_555
O31 Si10 1.839627 1_544
O32 Si9 1.747389 1_555
O33 Si9 1.771285 1_455
O34 Si8 1.824311 1_455
O34 Si10 1.837651 1_544
O35 Si10 1.726309 1_554
