# generated using pymatgen
data_H7NO6
_symmetry_space_group_name_H-M   'P 1'
_cell_length_a   3.59130000
_cell_length_b   9.87772000
_cell_length_c   14.22042700
_cell_angle_alpha   90.00000000
_cell_angle_beta   90.00000000
_cell_angle_gamma   90.00000000
_symmetry_Int_Tables_number   1
_chemical_formula_structural   H7NO6
_chemical_formula_sum   'H28 N4 O24'
_cell_volume   504.45337732
_cell_formula_units_Z   4
loop_
 _symmetry_equiv_pos_site_id
 _symmetry_equiv_pos_as_xyz
  1  'x, y, z'
loop_
 _atom_site_type_symbol
 _atom_site_label
 _atom_site_symmetry_multiplicity
 _atom_site_fract_x
 _atom_site_fract_y
 _atom_site_fract_z
 _atom_site_occupancy
  H  H0  1  0.77202400  0.56460800  0.19434700  1
  H  H1  1  0.46078200  0.63573700  0.12827500  1
  H  H2  1  0.27202400  0.93539200  0.80565300  1
  H  H3  1  0.96078200  0.86426300  0.87172500  1
  H  H4  1  0.22797600  0.06460800  0.30565300  1
  H  H5  1  0.53921800  0.13573700  0.37172500  1
  H  H6  1  0.72797600  0.43539200  0.69434700  1
  H  H7  1  0.03921800  0.36426300  0.62827500  1
  H  H8  1  0.58729700  0.59445700  0.46325300  1
  H  H9  1  0.63390400  0.43330600  0.44057200  1
  H  H10  1  0.68882600  0.47807000  0.55727700  1
  H  H11  1  0.08729700  0.90554300  0.53674700  1
  H  H12  1  0.13390400  0.06669400  0.55942800  1
  H  H13  1  0.18882600  0.02193000  0.44272300  1
  H  H14  1  0.41270300  0.09445700  0.03674700  1
  H  H15  1  0.31117400  0.97807000  0.94272300  1
  H  H16  1  0.36609600  0.93330600  0.05942800  1
  H  H17  1  0.91270300  0.40554300  0.96325300  1
  H  H18  1  0.81117400  0.52193000  0.05727700  1
  H  H19  1  0.86609600  0.56669400  0.94057200  1
  H  H20  1  0.01981600  0.26889100  0.41577700  1
  H  H21  1  0.88098900  0.30636600  0.31617300  1
  H  H22  1  0.51981600  0.23110900  0.58422300  1
  H  H23  1  0.38098900  0.19363400  0.68382700  1
  H  H24  1  0.11901100  0.80636600  0.18382700  1
  H  H25  1  0.98018400  0.76889100  0.08422300  1
  H  H26  1  0.48018400  0.73110900  0.91577700  1
  H  H27  1  0.61901100  0.69363400  0.81617300  1
  N  N0  1  0.83648700  0.72155200  0.33299200  1
  N  N1  1  0.33648700  0.77844800  0.66700800  1
  N  N2  1  0.16351300  0.22155200  0.16700800  1
  N  N3  1  0.66351300  0.27844800  0.83299200  1
  O  O0  1  0.92195100  0.60337400  0.30444100  1
  O  O1  1  0.42195100  0.89662600  0.69555900  1
  O  O2  1  0.07804900  0.10337400  0.19555900  1
  O  O3  1  0.57804900  0.39662600  0.80444100  1
  O  O4  1  0.90328200  0.82493400  0.28263100  1
  O  O5  1  0.40328200  0.67506600  0.71736900  1
  O  O6  1  0.09671800  0.32493400  0.21736900  1
  O  O7  1  0.59671800  0.17506600  0.78263100  1
  O  O8  1  0.68345200  0.73713300  0.41242200  1
  O  O9  1  0.18345200  0.76286700  0.58757800  1
  O  O10  1  0.31654800  0.23713300  0.08757800  1
  O  O11  1  0.81654800  0.26286700  0.91242200  1
  O  O12  1  0.63705300  0.55858400  0.13300500  1
  O  O13  1  0.13705300  0.94141600  0.86699500  1
  O  O14  1  0.36294700  0.05858400  0.36699500  1
  O  O15  1  0.86294700  0.44141600  0.63300500  1
  O  O16  1  0.53650100  0.49904000  0.48862500  1
  O  O17  1  0.03650100  0.00096000  0.51137500  1
  O  O18  1  0.46349900  0.99904000  0.01137500  1
  O  O19  1  0.96349900  0.50096000  0.98862500  1
  O  O20  1  0.78902800  0.29128600  0.38348600  1
  O  O21  1  0.28902800  0.20871400  0.61651400  1
  O  O22  1  0.21097200  0.79128600  0.11651400  1
  O  O23  1  0.71097200  0.70871400  0.88348600  1
loop_
_geom_bond_atom_site_label_1
_geom_bond_atom_site_label_2
_geom_bond_distance
_geom_bond_site_symmetry_2
H0 O12 0.999710 1_555
H0 O0 1.699291 1_555
H1 O12 0.993004 1_555
H2 O13 0.999710 1_555
H2 O1 1.699291 1_555
H3 O13 0.993004 1_655
H4 O14 0.999710 1_555
H4 O2 1.699291 1_555
H5 O14 0.993004 1_555
H6 O15 0.999710 1_555
H6 O3 1.699291 1_555
H7 O15 0.993004 1_455
H8 O16 1.025557 1_555
H8 O8 1.621082 1_555
H9 O16 1.005436 1_555
H10 O16 1.138090 1_555
H10 O15 1.296839 1_555
H11 O17 1.025557 1_565
H11 O9 1.621082 1_555
H12 O17 1.005436 1_555
H13 O17 1.138090 1_555
H13 O14 1.296839 1_555
H14 O18 1.025557 1_545
H14 O10 1.621082 1_555
H15 O18 1.138090 1_556
H15 O13 1.296839 1_555
H16 O18 1.005436 1_555
H17 O19 1.025557 1_555
H17 O11 1.621082 1_555
H18 O19 1.138090 1_554
H18 O12 1.296839 1_555
H19 O19 1.005436 1_555
H20 O20 0.973010 1_455
H21 O20 1.023488 1_555
H21 O6 1.614929 1_655
H22 O21 0.973010 1_555
H23 O21 1.023488 1_555
H23 O7 1.614929 1_555
H24 O22 1.023488 1_555
H24 O4 1.614929 1_455
H25 O22 0.973010 1_655
H26 O23 0.973010 1_555
H27 O23 1.023488 1_555
H27 O5 1.614929 1_555
N0 O8 1.265534 1_555
N0 O4 1.270128 1_555
N0 O0 1.273461 1_555
N1 O9 1.265534 1_555
N1 O5 1.270128 1_555
N1 O1 1.273461 1_555
N2 O10 1.265534 1_555
N2 O6 1.270128 1_555
N2 O2 1.273461 1_555
N3 O11 1.265534 1_555
N3 O7 1.270128 1_555
N3 O3 1.273461 1_555
