# generated using pymatgen
data_K2Pt(NO2)4
_symmetry_space_group_name_H-M   'P 1'
_cell_length_a   13.51016500
_cell_length_b   8.13768200
_cell_length_c   9.97319630
_cell_angle_alpha   88.96399788
_cell_angle_beta   90.00000000
_cell_angle_gamma   90.00000000
_symmetry_Int_Tables_number   1
_chemical_formula_structural   K2Pt(NO2)4
_chemical_formula_sum   'K8 Pt4 N16 O32'
_cell_volume   1096.28819085
_cell_formula_units_Z   4
loop_
 _symmetry_equiv_pos_site_id
 _symmetry_equiv_pos_as_xyz
  1  'x, y, z'
loop_
 _atom_site_type_symbol
 _atom_site_label
 _atom_site_symmetry_multiplicity
 _atom_site_fract_x
 _atom_site_fract_y
 _atom_site_fract_z
 _atom_site_occupancy
  K  K0  1  0.82608000  0.63045200  0.24512900  1
  K  K1  1  0.85175700  0.47769300  0.72125600  1
  K  K2  1  0.64824300  0.97769300  0.72125600  1
  K  K3  1  0.32608000  0.86954800  0.75487100  1
  K  K4  1  0.35175700  0.02230700  0.27874400  1
  K  K5  1  0.67392000  0.13045200  0.24512900  1
  K  K6  1  0.14824300  0.52230700  0.27874400  1
  K  K7  1  0.17392000  0.36954800  0.75487100  1
  Pt  Pt0  1  0.50000000  0.50000000  0.50000000  1
  Pt  Pt1  1  0.00000000  0.00000000  0.00000000  1
  Pt  Pt2  1  0.50000000  0.50000000  0.00000000  1
  Pt  Pt3  1  0.00000000  0.00000000  0.50000000  1
  N  N0  1  0.48229300  0.73482800  0.93285800  1
  N  N1  1  0.85328200  0.99913700  0.94107500  1
  N  N2  1  0.35692800  0.50546100  0.56555800  1
  N  N3  1  0.47656000  0.73468300  0.42884700  1
  N  N4  1  0.85692800  0.99453900  0.43444200  1
  N  N5  1  0.64307200  0.49453900  0.43444200  1
  N  N6  1  0.98229300  0.76517200  0.06714200  1
  N  N7  1  0.51770700  0.26517200  0.06714200  1
  N  N8  1  0.35328200  0.50086300  0.05892500  1
  N  N9  1  0.14671800  0.00086300  0.05892500  1
  N  N10  1  0.01770700  0.23482800  0.93285800  1
  N  N11  1  0.64671800  0.49913700  0.94107500  1
  N  N12  1  0.52344000  0.26531700  0.57115300  1
  N  N13  1  0.14307200  0.00546100  0.56555800  1
  N  N14  1  0.97656000  0.76531700  0.57115300  1
  N  N15  1  0.02344000  0.23468300  0.42884700  1
  O  O0  1  0.71447800  0.47123500  0.02494900  1
  O  O1  1  0.43241900  0.83405400  0.50345600  1
  O  O2  1  0.84091300  0.95919200  0.31407100  1
  O  O3  1  0.21465900  0.97885200  0.48938400  1
  O  O4  1  0.06935300  0.33339400  0.99797500  1
  O  O5  1  0.16763900  0.97771700  0.18028000  1
  O  O6  1  0.99868100  0.27842600  0.31270500  1
  O  O7  1  0.93064700  0.66660600  0.00202500  1
  O  O8  1  0.66763900  0.52228300  0.81972000  1
  O  O9  1  0.50131900  0.77842600  0.31270500  1
  O  O10  1  0.06758100  0.33405400  0.50345600  1
  O  O11  1  0.48354700  0.22103900  0.17984200  1
  O  O12  1  0.56935300  0.16660600  0.00202500  1
  O  O13  1  0.21447800  0.02876500  0.97505100  1
  O  O14  1  0.93241900  0.66594600  0.49654400  1
  O  O15  1  0.28552200  0.52876500  0.97505100  1
  O  O16  1  0.01645300  0.72103900  0.17984200  1
  O  O17  1  0.15908700  0.04080800  0.68592900  1
  O  O18  1  0.34091300  0.54080800  0.68592900  1
  O  O19  1  0.00131900  0.72157400  0.68729500  1
  O  O20  1  0.83236100  0.02228300  0.81972000  1
  O  O21  1  0.56758100  0.16594600  0.49654400  1
  O  O22  1  0.43064700  0.83339400  0.99797500  1
  O  O23  1  0.51645300  0.77896100  0.82015800  1
  O  O24  1  0.78534100  0.02114800  0.51061600  1
  O  O25  1  0.65908700  0.45919200  0.31407100  1
  O  O26  1  0.71465900  0.52114800  0.51061600  1
  O  O27  1  0.98354700  0.27896100  0.82015800  1
  O  O28  1  0.78552200  0.97123500  0.02494900  1
  O  O29  1  0.49868100  0.22157400  0.68729500  1
  O  O30  1  0.33236100  0.47771700  0.18028000  1
  O  O31  1  0.28534100  0.47885200  0.48938400  1
loop_
_geom_bond_atom_site_label_1
_geom_bond_atom_site_label_2
_geom_bond_distance
_geom_bond_site_symmetry_2
K0 O25 2.733202 1_555
K0 O16 2.750464 1_655
K0 O2 2.781371 1_555
K0 O7 2.816887 1_555
K0 O14 2.908730 1_555
K0 O0 2.979417 1_555
K0 O26 3.159524 1_555
K1 O27 2.588596 1_555
K1 O8 2.701177 1_555
K1 O26 2.818166 1_555
K1 O19 2.848158 1_655
K1 O14 2.903926 1_555
K2 O23 2.588596 1_555
K2 O20 2.701177 1_565
K2 O24 2.818166 1_565
K2 O29 2.848158 1_565
K2 O21 2.903926 1_565
K3 O17 2.733202 1_565
K3 O23 2.750464 1_555
K3 O18 2.781371 1_555
K3 O22 2.816887 1_555
K3 O1 2.908730 1_555
K3 O13 2.979417 1_565
K3 O3 3.159524 1_555
K4 O11 2.588596 1_555
K4 O5 2.701177 1_545
K4 O3 2.818166 1_545
K4 O9 2.848158 1_545
K4 O1 2.903926 1_545
K5 O2 2.733202 1_545
K5 O11 2.750464 1_555
K5 O25 2.781371 1_555
K5 O12 2.816887 1_555
K5 O21 2.908730 1_555
K5 O28 2.979417 1_545
K5 O24 3.159524 1_555
K6 O16 2.588596 1_555
K6 O30 2.701177 1_555
K6 O31 2.818166 1_555
K6 O6 2.848158 1_455
K6 O10 2.903926 1_555
K7 O18 2.733202 1_555
K7 O27 2.750464 1_455
K7 O17 2.781371 1_555
K7 O4 2.816887 1_555
K7 O10 2.908730 1_555
K7 O15 2.979417 1_555
K7 O31 3.159524 1_555
N0 O22 1.253316 1_555
N0 O23 1.261231 1_555
N0 Pt2 2.027584 1_556
N1 O20 1.253771 1_565
N1 O28 1.257956 1_556
N1 Pt1 2.067513 1_666
N2 O31 1.251144 1_555
N2 O18 1.258253 1_555
N2 Pt0 2.041253 1_555
N3 O9 1.251146 1_555
N3 O1 1.258959 1_555
N3 Pt0 2.049899 1_555
N4 O24 1.251144 1_565
N4 O2 1.258253 1_555
N4 Pt3 2.041253 1_665
N5 O26 1.251144 1_555
N5 O25 1.258253 1_555
N5 Pt0 2.041253 1_555
N6 O7 1.253316 1_555
N6 O16 1.261231 1_655
N6 Pt1 2.027584 1_665
N7 O12 1.253316 1_555
N7 O11 1.261231 1_555
N7 Pt2 2.027584 1_555
N8 O30 1.253771 1_555
N8 O15 1.257956 1_554
N8 Pt2 2.067513 1_555
N9 O5 1.253771 1_545
N9 O13 1.257956 1_554
N9 Pt1 2.067513 1_555
N10 O4 1.253316 1_555
N10 O27 1.261231 1_455
N10 Pt1 2.027584 1_556
N11 O8 1.253771 1_555
N11 O0 1.257956 1_556
N11 Pt2 2.067513 1_556
N12 O29 1.251146 1_555
N12 O21 1.258959 1_555
N12 Pt0 2.049899 1_555
N13 O3 1.251144 1_545
N13 O17 1.258253 1_555
N13 Pt3 2.041253 1_555
N14 O19 1.251146 1_655
N14 O14 1.258959 1_555
N14 Pt3 2.049899 1_665
N15 O6 1.251146 1_455
N15 O10 1.258959 1_555
N15 Pt3 2.049899 1_555
