# generated using pymatgen
data_Na3P2H4O7
_symmetry_space_group_name_H-M   'P 1'
_cell_length_a   6.07224300
_cell_length_b   6.25316705
_cell_length_c   11.51080515
_cell_angle_alpha   99.35016498
_cell_angle_beta   95.49294530
_cell_angle_gamma   117.59808205
_symmetry_Int_Tables_number   1
_chemical_formula_structural   Na3P2H4O7
_chemical_formula_sum   'Na6 P4 H8 O14'
_cell_volume   374.81888695
_cell_formula_units_Z   2
loop_
 _symmetry_equiv_pos_site_id
 _symmetry_equiv_pos_as_xyz
  1  'x, y, z'
loop_
 _atom_site_type_symbol
 _atom_site_label
 _atom_site_symmetry_multiplicity
 _atom_site_fract_x
 _atom_site_fract_y
 _atom_site_fract_z
 _atom_site_occupancy
  Na  Na0  1  0.92609900  0.82745300  0.12017600  1
  Na  Na1  1  0.07390100  0.17254700  0.87982400  1
  Na  Na2  1  0.72672000  0.69646700  0.41286700  1
  Na  Na3  1  0.27328000  0.30353300  0.58713300  1
  Na  Na4  1  0.32881000  0.49280400  0.14423700  1
  Na  Na5  1  0.67119000  0.50719600  0.85576300  1
  P  P0  1  0.65576000  0.16581400  0.07142800  1
  P  P1  1  0.34424000  0.83418600  0.92857200  1
  P  P2  1  0.59555400  0.07651300  0.24969000  1
  P  P3  1  0.40444600  0.92348700  0.75031000  1
  H  H0  1  0.21606800  0.80656500  0.51255200  1
  H  H1  1  0.78393200  0.19343500  0.48744800  1
  H  H2  1  0.23993200  0.90008100  0.38861500  1
  H  H3  1  0.76006800  0.09991900  0.61138500  1
  H  H4  1  0.26692000  0.24318900  0.32986200  1
  H  H5  1  0.73308000  0.75681100  0.67013800  1
  H  H6  1  0.10104800  0.37630900  0.35775500  1
  H  H7  1  0.89895200  0.62369100  0.64224500  1
  O  O0  1  0.62797900  0.39323100  0.05933100  1
  O  O1  1  0.37202100  0.60676900  0.94066900  1
  O  O2  1  0.66779600  0.87084900  0.24849400  1
  O  O3  1  0.33220400  0.12915100  0.75150600  1
  O  O4  1  0.91339000  0.18418500  0.05717600  1
  O  O5  1  0.08661000  0.81581500  0.94282400  1
  O  O6  1  0.31082600  0.98239800  0.25106200  1
  O  O7  1  0.68917400  0.01760200  0.74893800  1
  O  O8  1  0.77118800  0.31784500  0.34531300  1
  O  O9  1  0.22881200  0.68215500  0.65468700  1
  O  O10  1  0.17384800  0.90310000  0.46410100  1
  O  O11  1  0.82615200  0.09690000  0.53589900  1
  O  O12  1  0.27777800  0.40452200  0.36395600  1
  O  O13  1  0.72222200  0.59547800  0.63604400  1
loop_
_geom_bond_atom_site_label_1
_geom_bond_atom_site_label_2
_geom_bond_distance
_geom_bond_site_symmetry_2
Na0 O6 2.328280 1_655
Na0 O2 2.328747 1_555
Na0 O5 2.349726 1_654
Na0 O0 2.392769 1_555
Na0 O4 2.486425 1_565
Na1 O7 2.328280 1_455
Na1 O3 2.328747 1_555
Na1 O4 2.349726 1_456
Na1 O1 2.392769 1_555
Na1 O5 2.486425 1_545
Na2 O10 2.363127 1_655
Na2 O2 2.408170 1_555
Na2 O12 2.417104 1_555
Na2 O11 2.433787 1_565
Na2 O8 2.513434 1_555
Na2 O13 2.742922 1_555
Na3 O11 2.363127 1_455
Na3 O3 2.408170 1_555
Na3 O13 2.417104 1_555
Na3 O10 2.433787 1_545
Na3 O9 2.513434 1_555
Na3 O12 2.742922 1_555
Na4 O2 2.315672 1_555
Na4 O4 2.338573 1_455
Na4 O0 2.415201 1_555
Na4 O1 2.560176 1_554
Na4 O12 2.691199 1_555
Na5 O3 2.315672 1_555
Na5 O5 2.338573 1_655
Na5 O1 2.415201 1_555
Na5 O0 2.560176 1_556
Na5 O13 2.691199 1_555
H0 O10 0.983141 1_555
H1 O11 0.983141 1_555
H2 O10 0.992379 1_555
H3 O11 0.992379 1_555
H4 O12 0.990402 1_555
H5 O13 0.990402 1_555
H6 O12 0.996841 1_555
H7 O13 0.996841 1_555
O0 P0 1.533709 1_555
O1 P1 1.533709 1_555
O2 P2 1.537745 1_565
O3 P3 1.537745 1_545
O4 P0 1.541486 1_555
O5 P1 1.541486 1_555
O6 P2 1.549619 1_565
O7 P3 1.549619 1_545
O8 P2 1.539685 1_555
O9 P3 1.539685 1_555
