# generated using pymatgen
data_Sc6Pb5
_symmetry_space_group_name_H-M   'P 1'
_cell_length_a   6.25546423
_cell_length_b   8.96131802
_cell_length_c   11.11625136
_cell_angle_alpha   113.77041359
_cell_angle_beta   106.34173601
_cell_angle_gamma   89.99999933
_symmetry_Int_Tables_number   1
_chemical_formula_structural   Sc6Pb5
_chemical_formula_sum   'Sc12 Pb10'
_cell_volume   542.66163112
_cell_formula_units_Z   2
loop_
 _symmetry_equiv_pos_site_id
 _symmetry_equiv_pos_as_xyz
  1  'x, y, z'
loop_
 _atom_site_type_symbol
 _atom_site_label
 _atom_site_symmetry_multiplicity
 _atom_site_fract_x
 _atom_site_fract_y
 _atom_site_fract_z
 _atom_site_occupancy
  Sc  Sc0  1  0.44499020  0.69499020  0.38998039  1
  Sc  Sc1  1  0.64217092  0.03036604  0.28434283  1
  Sc  Sc2  1  0.94015873  0.20593260  0.88031846  1
  Sc  Sc3  1  0.14217192  0.25397679  0.28434283  1
  Sc  Sc4  1  0.85782908  0.74602321  0.71565717  1
  Sc  Sc5  1  0.55984127  0.32561514  0.11968154  1
  Sc  Sc6  1  0.44015873  0.67438486  0.88031846  1
  Sc  Sc7  1  0.55500980  0.30500980  0.61001961  1
  Sc  Sc8  1  0.05984127  0.79406740  0.11968154  1
  Sc  Sc9  1  0.05500980  0.30500980  0.61001961  1
  Sc  Sc10  1  0.35782908  0.96963396  0.71565717  1
  Sc  Sc11  1  0.94499020  0.69499020  0.38998039  1
  Pb  Pb0  1  0.57548510  0.67635791  0.15097020  1
  Pb  Pb1  1  0.79350934  0.98937585  0.58702067  1
  Pb  Pb2  1  0.07548510  0.47461229  0.15097020  1
  Pb  Pb3  1  0.25000000  0.00000000  -0.00000000  1
  Pb  Pb4  1  0.29350934  0.59764382  0.58702067  1
  Pb  Pb5  1  0.42451490  0.32364209  0.84902980  1
  Pb  Pb6  1  0.70649066  0.40235618  0.41297933  1
  Pb  Pb7  1  0.20649066  0.01062415  0.41297933  1
  Pb  Pb8  1  0.92451490  0.52538771  0.84902980  1
  Pb  Pb9  1  0.75000000  0.00000000  -0.00000000  1
loop_
_geom_bond_atom_site_label_1
_geom_bond_atom_site_label_2
_geom_bond_distance
_geom_bond_site_symmetry_2
Pb0 Sc6 2.879704 1_554
Pb0 Sc1 2.880361 1_565
Pb0 Sc11 2.935335 1_555
Pb0 Sc0 2.935335 1_555
Pb0 Sc5 3.018161 1_555
Pb0 Sc8 3.361922 1_555
Pb0 Sc8 3.361928 1_655
Pb1 Sc2 2.907560 1_565
Pb1 Sc4 3.025308 1_555
Pb1 Sc0 3.027340 1_555
Pb1 Sc11 3.027347 1_555
Pb1 Sc7 3.150124 1_565
Pb1 Sc9 3.150130 1_665
Pb1 Sc1 3.399390 1_565
Pb1 Sc10 3.449751 1_555
Pb1 Sc10 3.449768 1_655
Pb2 Sc2 2.879708 1_454
Pb2 Sc3 2.880360 1_555
Pb2 Sc0 2.935335 1_555
Pb2 Sc11 2.935335 1_455
Pb2 Sc8 3.018169 1_555
Pb2 Sc5 3.361919 1_455
Pb2 Sc5 3.361924 1_555
Pb3 Sc8 3.075771 1_545
Pb3 Sc2 3.075774 1_454
Pb3 Sc6 3.075778 1_544
Pb3 Sc5 3.075781 1_555
Pb3 Sc1 3.320574 1_555
Pb3 Sc4 3.320575 1_444
Pb3 Sc3 3.320575 1_555
Pb3 Sc10 3.320577 1_544
Pb4 Sc6 2.907560 1_555
Pb4 Sc10 3.025316 1_555
Pb4 Sc11 3.027345 1_455
Pb4 Sc0 3.027352 1_555
Pb4 Sc9 3.150116 1_555
Pb4 Sc7 3.150122 1_555
Pb4 Sc3 3.399385 1_555
Pb4 Sc4 3.449753 1_455
Pb4 Sc4 3.449770 1_555
Pb5 Sc5 2.879704 1_556
Pb5 Sc10 2.880361 1_545
Pb5 Sc9 2.935335 1_555
Pb5 Sc7 2.935335 1_555
Pb5 Sc6 3.018161 1_555
Pb5 Sc2 3.361922 1_555
Pb5 Sc2 3.361928 1_455
Pb6 Sc5 2.907560 1_555
Pb6 Sc1 3.025316 1_555
Pb6 Sc9 3.027345 1_655
Pb6 Sc7 3.027352 1_555
Pb6 Sc11 3.150116 1_555
Pb6 Sc0 3.150122 1_555
Pb6 Sc4 3.399385 1_555
Pb6 Sc3 3.449759 1_655
Pb6 Sc3 3.449764 1_555
Pb7 Sc8 2.907560 1_545
Pb7 Sc3 3.025308 1_555
Pb7 Sc7 3.027340 1_555
Pb7 Sc9 3.027347 1_555
Pb7 Sc0 3.150124 1_545
Pb7 Sc11 3.150130 1_445
Pb7 Sc10 3.399390 1_545
Pb7 Sc1 3.449751 1_555
Pb7 Sc1 3.449768 1_455
Pb8 Sc8 2.879708 1_656
Pb8 Sc4 2.880360 1_555
Pb8 Sc7 2.935335 1_555
Pb8 Sc9 2.935335 1_655
Pb8 Sc2 3.018169 1_555
Pb8 Sc6 3.361919 1_655
Pb8 Sc6 3.361924 1_555
Pb9 Sc2 3.075771 1_554
Pb9 Sc8 3.075774 1_645
Pb9 Sc5 3.075778 1_555
Pb9 Sc6 3.075781 1_544
Pb9 Sc10 3.320574 1_544
Pb9 Sc3 3.320577 1_655
Pb9 Sc1 3.320577 1_555
Pb9 Sc4 3.320578 1_544
