# generated using pymatgen
data_U(OF)2
_symmetry_space_group_name_H-M   'P 1'
_cell_length_a   11.04391845
_cell_length_b   3.99673850
_cell_length_c   5.79139274
_cell_angle_alpha   128.53223714
_cell_angle_beta   162.45431079
_cell_angle_gamma   49.20529255
_symmetry_Int_Tables_number   1
_chemical_formula_structural   U(OF)2
_chemical_formula_sum   'U1 O2 F2'
_cell_volume   58.34159122
_cell_formula_units_Z   1
loop_
 _symmetry_equiv_pos_site_id
 _symmetry_equiv_pos_as_xyz
  1  'x, y, z'
loop_
 _atom_site_type_symbol
 _atom_site_label
 _atom_site_symmetry_multiplicity
 _atom_site_fract_x
 _atom_site_fract_y
 _atom_site_fract_z
 _atom_site_occupancy
  U  U0  1  0.00000000  0.00000000  0.00000000  1
  O  O0  1  0.36691567  0.31615806  0.00000002  1
  O  O1  1  0.63308433  0.68384194  0.99999998  1
  F  F0  1  0.13797653  0.20215084  0.99999998  1
  F  F1  1  0.86202347  0.79784916  0.00000002  1
loop_
_geom_bond_atom_site_label_1
_geom_bond_atom_site_label_2
_geom_bond_distance
_geom_bond_site_symmetry_2
O0 U0 2.092439 1_554
O0 U0 2.092440 1_656
O1 U0 2.092439 1_667
O1 U0 2.092440 1_565
F0 U0 2.140908 1_556
F0 U0 2.478104 1_566
F1 U0 2.140908 1_665
F1 U0 2.478104 1_655
