# generated using pymatgen
data_Y16Ti16O35
_symmetry_space_group_name_H-M   'P 1'
_cell_length_a   7.04152500
_cell_length_b   7.05770058
_cell_length_c   23.29404817
_cell_angle_alpha   82.48316008
_cell_angle_beta   81.87727669
_cell_angle_gamma   60.32150211
_symmetry_Int_Tables_number   1
_chemical_formula_structural   Y16Ti16O35
_chemical_formula_sum   'Y16 Ti16 O35'
_cell_volume   993.19507444
_cell_formula_units_Z   1
loop_
 _symmetry_equiv_pos_site_id
 _symmetry_equiv_pos_as_xyz
  1  'x, y, z'
loop_
 _atom_site_type_symbol
 _atom_site_label
 _atom_site_symmetry_multiplicity
 _atom_site_fract_x
 _atom_site_fract_y
 _atom_site_fract_z
 _atom_site_occupancy
  Y  Y0  1  0.99115500  0.00084800  0.00187600  1
  Y  Y1  1  0.62573800  0.11958200  0.12498300  1
  Y  Y2  1  0.23641300  0.25624100  0.24867300  1
  Y  Y3  1  0.76035400  0.24989000  0.25080700  1
  Y  Y4  1  0.88858800  0.37105700  0.37211200  1
  Y  Y5  1  0.76315100  0.73679700  0.24656800  1
  Y  Y6  1  0.50217800  0.50839900  0.49907200  1
  Y  Y7  1  0.14950600  0.61214100  0.62225500  1
  Y  Y8  1  0.01933200  0.50411700  0.49826300  1
  Y  Y9  1  0.02314500  0.98927300  0.50187100  1
  Y  Y10  1  0.74447600  0.74534200  0.75222300  1
  Y  Y11  1  0.27481000  0.73500400  0.74819700  1
  Y  Y12  1  0.39412800  0.85875600  0.87241400  1
  Y  Y13  1  0.25326000  0.24095600  0.75018100  1
  Y  Y14  1  0.50790400  0.99039000  0.00094300  1
  Y  Y15  1  0.49574400  0.48870300  0.99564300  1
  Ti  Ti0  1  0.12140600  0.13288500  0.12498800  1
  Ti  Ti1  1  0.64658400  0.60946100  0.12384600  1
  Ti  Ti2  1  0.36839300  0.39484700  0.37054000  1
  Ti  Ti3  1  0.24515900  0.74403600  0.25529300  1
  Ti  Ti4  1  0.11533300  0.60326900  0.12113000  1
  Ti  Ti5  1  0.92006600  0.86248800  0.36129200  1
  Ti  Ti6  1  0.60166700  0.64968500  0.62326800  1
  Ti  Ti7  1  0.48569500  0.00576900  0.50580700  1
  Ti  Ti8  1  0.37037700  0.87299700  0.37087600  1
  Ti  Ti9  1  0.19235300  0.05490900  0.62508200  1
  Ti  Ti10  1  0.84967200  0.89292900  0.87615700  1
  Ti  Ti11  1  0.74969700  0.25645800  0.75646200  1
  Ti  Ti12  1  0.61503000  0.11955300  0.62876300  1
  Ti  Ti13  1  0.44338000  0.29322800  0.87364600  1
  Ti  Ti14  1  0.00484900  0.49007200  0.00056000  1
  Ti  Ti15  1  0.85994100  0.36170500  0.86938800  1
  O  O0  1  0.65125500  0.15773000  0.03232400  1
  O  O1  1  0.80043100  0.75131600  0.14739800  1
  O  O2  1  0.54553400  0.61152600  0.21582100  1
  O  O3  1  0.43176800  0.52766800  0.10537700  1
  O  O4  1  0.13265400  0.60875900  0.21214500  1
  O  O5  1  0.42611900  0.95052200  0.10163900  1
  O  O6  1  0.05133500  0.56316600  0.40108200  1
  O  O7  1  0.12362100  0.04105300  0.20951800  1
  O  O8  1  0.01456400  0.95739200  0.10031400  1
  O  O9  1  0.04994000  0.99384900  0.40287800  1
  O  O10  1  0.78703400  0.87369100  0.48902900  1
  O  O11  1  0.68280100  0.77906500  0.34816600  1
  O  O12  1  0.40106400  0.84941100  0.46006000  1
  O  O13  1  0.58775600  0.09674100  0.22279000  1
  O  O14  1  0.68373900  0.19386000  0.34857200  1
  O  O15  1  0.40119900  0.29738400  0.46254200  1
  O  O16  1  0.17036600  0.16332300  0.54263000  1
  O  O17  1  0.27829800  0.18832300  0.34621000  1
  O  O18  1  0.28938300  0.24755300  0.64758000  1
  O  O19  1  0.04540000  0.09511200  0.71621900  1
  O  O20  1  0.93415100  0.99041300  0.60607700  1
  O  O21  1  0.63893300  0.08912200  0.71033300  1
  O  O22  1  0.87935300  0.58499700  0.59183100  1
  O  O23  1  0.63770700  0.53911900  0.70624800  1
  O  O24  1  0.53446100  0.42663600  0.59894300  1
  O  O25  1  0.43639600  0.38923200  0.79113300  1
  O  O26  1  0.53885700  0.49159200  0.89408800  1
  O  O27  1  0.29542200  0.34571200  0.96019900  1
  O  O28  1  0.18291000  0.23537800  0.85562800  1
  O  O29  1  0.87226400  0.36688400  0.96360000  1
  O  O30  1  0.12156900  0.83794200  0.83854200  1
  O  O31  1  0.08533600  0.59924500  0.71839500  1
  O  O32  1  0.87510300  0.78785800  0.95959400  1
  O  O33  1  0.78120300  0.68193900  0.85104900  1
  O  O34  1  0.33633800  0.84484900  0.96801500  1
loop_
_geom_bond_atom_site_label_1
_geom_bond_atom_site_label_2
_geom_bond_distance
_geom_bond_site_symmetry_2
O0 Y1 2.133014 1_555
O0 Y0 2.135166 1_555
O0 Y14 2.136126 1_545
O0 Y15 2.143561 1_554
O1 Ti1 1.965347 1_555
O1 Ti4 1.967870 1_655
O1 Y1 2.280690 1_565
O1 Y5 2.282362 1_555
O2 Ti3 1.977442 1_555
O2 Ti1 2.159582 1_555
O2 Y3 2.334006 1_555
O2 Y5 2.336704 1_555
O3 Ti1 1.979888 1_555
O3 Ti4 2.006742 1_555
O3 Y1 2.511165 1_555
O3 Y15 2.558964 1_554
O4 Ti3 1.942783 1_555
O4 Ti4 2.147202 1_555
O4 Y2 2.295545 1_555
O4 Y5 2.345415 1_455
O5 Ti0 1.916981 1_565
O5 Ti1 2.161582 1_555
O5 Y14 2.349214 1_555
O5 Y1 2.396186 1_565
O6 Ti5 1.993085 1_455
O6 Ti2 2.011881 1_555
O6 Y8 2.247441 1_555
O6 Y4 2.367190 1_455
O7 Ti0 1.990533 1_555
O7 Ti3 2.039656 1_545
O7 Y2 2.351773 1_555
O7 Y3 2.362784 1_455
O8 Ti0 1.913535 1_565
O8 Ti4 2.238097 1_555
O8 Y0 2.291707 1_465
O8 Y1 2.400147 1_465
O9 Ti5 1.989764 1_455
O9 Ti8 2.039516 1_555
O9 Y9 2.284215 1_555
O9 Y4 2.372244 1_465
O10 Ti7 1.851042 1_565
O10 Y9 2.250895 1_655
O10 Y8 2.291933 1_655
O11 Ti8 1.969195 1_555
O11 Ti5 2.096892 1_555
O11 Y5 2.376810 1_555
O11 Y4 2.525683 1_555
O12 Ti7 1.961335 1_565
O12 Ti8 2.095467 1_555
O12 Y6 2.244759 1_555
O12 Y9 2.433603 1_555
O13 Y2 2.179344 1_555
O13 Y3 2.186521 1_555
O13 Y5 2.236934 1_545
O13 Y1 2.250039 1_555
O14 Ti2 1.988561 1_555
O14 Ti5 2.104924 1_545
O14 Y3 2.293941 1_555
O14 Y4 2.476823 1_555
O15 Ti7 2.004927 1_555
O15 Ti2 2.171692 1_555
O15 Y6 2.235802 1_555
O15 Y8 2.419051 1_555
O16 Ti9 1.969903 1_555
O16 Ti7 2.041751 1_555
O16 Y8 2.260841 1_555
O16 Y9 2.308541 1_545
O17 Ti8 2.011242 1_545
O17 Ti2 2.020311 1_555
O17 Y2 2.289826 1_555
O17 Y4 2.405987 1_455
O18 Ti9 1.948732 1_555
O18 Ti12 2.008618 1_555
O18 Y7 2.279592 1_555
O18 Y13 2.364266 1_555
O19 Ti11 1.972498 1_455
O19 Ti9 2.214554 1_555
O19 Y11 2.324408 1_545
O19 Y13 2.420704 1_555
O20 Ti12 1.980335 1_565
O20 Ti9 2.192836 1_665
O20 Y7 2.336290 1_655
O20 Y9 2.419751 1_655
O21 Ti12 1.905945 1_555
O21 Ti11 2.153770 1_555
O21 Y10 2.278434 1_545
O21 Y13 2.459908 1_555
O22 Ti6 1.834897 1_555
O22 Y7 2.221493 1_655
O22 Y8 2.282366 1_655
O23 Ti6 1.989339 1_555
O23 Ti11 2.015463 1_555
O23 Y11 2.354869 1_555
O23 Y10 2.355725 1_555
O24 Ti12 2.000359 1_555
O24 Ti6 2.017432 1_555
O24 Y6 2.337758 1_555
O24 Y7 2.369051 1_555
O25 Ti13 1.951619 1_555
O25 Ti11 2.011136 1_555
O25 Y11 2.276757 1_555
O25 Y13 2.369234 1_555
O26 Ti13 1.958485 1_555
O26 Ti15 2.000281 1_555
O26 Y12 2.279572 1_555
O26 Y15 2.340798 1_555
O27 Ti14 1.936768 1_556
O27 Ti13 2.123027 1_555
O27 Y14 2.343335 1_546
O27 Y15 2.376263 1_555
O28 Ti15 1.982550 1_455
O28 Ti13 2.170421 1_555
O28 Y12 2.325488 1_545
O28 Y13 2.435253 1_555
O29 Ti14 1.896184 1_656
O29 Ti15 2.214268 1_555
O29 Y0 2.374078 1_556
O29 Y15 2.382641 1_555
O30 Ti10 1.860928 1_455
O30 Y12 2.250558 1_555
O30 Y11 2.259001 1_555
O31 Y10 2.161555 1_455
O31 Y11 2.209454 1_555
O31 Y7 2.220183 1_555
O31 Y13 2.266566 1_555
O32 Ti10 1.987276 1_555
O32 Ti14 1.995644 1_656
O32 Y14 2.377596 1_556
O32 Y0 2.393486 1_566
O33 Ti10 1.952036 1_555
O33 Ti15 2.042412 1_555
O33 Y10 2.313160 1_555
O33 Y12 2.375884 1_555
O34 Y0 2.185776 1_466
O34 Y14 2.190833 1_556
O34 Y12 2.204709 1_555
O34 Y15 2.231394 1_555
