# generated using pymatgen
data_Ag3SI
_symmetry_space_group_name_H-M   'P 1'
_cell_length_a   10.15182148
_cell_length_b   7.09353404
_cell_length_c   7.01098541
_cell_angle_alpha   58.88260302
_cell_angle_beta   43.45932273
_cell_angle_gamma   44.64430486
_symmetry_Int_Tables_number   1
_chemical_formula_structural   Ag3SI
_chemical_formula_sum   'Ag6 S2 I2'
_cell_volume   244.03083760
_cell_formula_units_Z   2
loop_
 _symmetry_equiv_pos_site_id
 _symmetry_equiv_pos_as_xyz
  1  'x, y, z'
loop_
 _atom_site_type_symbol
 _atom_site_label
 _atom_site_symmetry_multiplicity
 _atom_site_fract_x
 _atom_site_fract_y
 _atom_site_fract_z
 _atom_site_occupancy
  Ag  Ag0  1  0.06686100  0.49908400  0.00307000  1
  Ag  Ag1  1  0.05184100  0.38399300  0.49311500  1
  Ag  Ag2  1  0.54375900  0.00937400  0.49753600  1
  Ag  Ag3  1  0.57621600  0.48956000  0.00498500  1
  Ag  Ag4  1  0.43584800  0.61612100  0.49528600  1
  Ag  Ag5  1  0.93875000  0.00766700  0.49240600  1
  S  S0  1  0.23427200  0.50387600  0.50348900  1
  S  S1  1  0.73146300  0.51107000  0.50529100  1
  I  I0  1  0.00877600  0.99971400  0.99778400  1
  I  I1  1  0.50947600  0.00055400  0.99741700  1
loop_
_geom_bond_atom_site_label_1
_geom_bond_atom_site_label_2
_geom_bond_distance
_geom_bond_site_symmetry_2
Ag0 S0 2.544586 1_554
Ag0 S1 2.547822 1_455
Ag0 I0 3.142657 1_554
Ag0 I1 3.157981 1_554
Ag1 S0 2.580493 1_555
Ag1 S1 2.627298 1_455
Ag1 I1 3.067491 1_554
Ag1 I0 3.101947 1_545
Ag2 S0 2.540871 1_555
Ag2 S1 2.548660 1_545
Ag2 I0 3.215953 1_644
Ag2 I1 3.231299 1_555
Ag3 S0 2.554990 1_555
Ag3 S1 2.560221 1_554
Ag3 I0 3.083301 1_644
Ag3 I1 3.155861 1_564
Ag4 S1 2.575999 1_555
Ag4 S0 2.631575 1_555
Ag4 I1 3.074663 1_564
Ag4 I0 3.091905 1_555
Ag5 S1 2.559783 1_555
Ag5 S0 2.563783 1_645
Ag5 I0 3.016689 1_644
Ag5 I1 3.042774 1_555
