# generated using pymatgen
data_Ti5Fe7O18
_symmetry_space_group_name_H-M   'P 1'
_cell_length_a   5.15360700
_cell_length_b   5.55488775
_cell_length_c   11.79541828
_cell_angle_alpha   97.61007474
_cell_angle_beta   102.57541427
_cell_angle_gamma   90.07490378
_symmetry_Int_Tables_number   1
_chemical_formula_structural   Ti5Fe7O18
_chemical_formula_sum   'Ti5 Fe7 O18'
_cell_volume   326.51365005
_cell_formula_units_Z   1
loop_
 _symmetry_equiv_pos_site_id
 _symmetry_equiv_pos_as_xyz
  1  'x, y, z'
loop_
 _atom_site_type_symbol
 _atom_site_label
 _atom_site_symmetry_multiplicity
 _atom_site_fract_x
 _atom_site_fract_y
 _atom_site_fract_z
 _atom_site_occupancy
  Ti  Ti0  1  0.38003400  0.67043900  0.76292500  1
  Ti  Ti1  1  0.94635400  0.65468100  0.90249700  1
  Ti  Ti2  1  0.12137900  0.83470600  0.24029600  1
  Ti  Ti3  1  0.60853500  0.33310100  0.23255800  1
  Ti  Ti4  1  0.29645900  0.98693300  0.57226400  1
  Fe  Fe0  1  0.71395500  0.01829100  0.43534300  1
  Fe  Fe1  1  0.78212000  0.49442100  0.56747600  1
  Fe  Fe2  1  0.45941600  0.16432700  0.90463600  1
  Fe  Fe3  1  0.88789800  0.16711200  0.76412000  1
  Fe  Fe4  1  0.05332900  0.33908100  0.09509000  1
  Fe  Fe5  1  0.54271200  0.83613500  0.09377500  1
  Fe  Fe6  1  0.20835100  0.50335000  0.43066800  1
  O  O0  1  0.90498700  0.07602200  0.17220100  1
  O  O1  1  0.82486900  0.34378500  0.38476800  1
  O  O2  1  0.69949400  0.52603900  0.73923100  1
  O  O3  1  0.54691100  0.75958700  0.49760900  1
  O  O4  1  0.49576400  0.01296300  0.72339600  1
  O  O5  1  0.39036800  0.19499000  0.07568000  1
  O  O6  1  0.97184300  0.13671100  0.59240500  1
  O  O7  1  0.83279500  0.32335900  0.93916700  1
  O  O8  1  0.22117100  0.43786600  0.82862200  1
  O  O9  1  0.78760900  0.56960800  0.17560000  1
  O  O10  1  0.15574100  0.68863900  0.06210400  1
  O  O11  1  0.03594700  0.85741100  0.38732500  1
  O  O12  1  0.63883000  0.80620200  0.92664500  1
  O  O13  1  0.45903600  0.98408400  0.27312200  1
  O  O14  1  0.44257600  0.23173100  0.50648200  1
  O  O15  1  0.30323400  0.49189600  0.26079300  1
  O  O16  1  0.16787200  0.65577000  0.61118300  1
  O  O17  1  0.12041000  0.90075800  0.84201900  1
loop_
_geom_bond_atom_site_label_1
_geom_bond_atom_site_label_2
_geom_bond_distance
_geom_bond_site_symmetry_2
Fe0 O3 1.974171 1_545
Fe0 O11 2.037696 1_645
Fe0 O13 2.057135 1_545
Fe0 O6 2.057677 1_555
Fe0 O14 2.077915 1_555
Fe0 O1 2.093619 1_555
Fe1 O3 2.051668 1_555
Fe1 O16 2.109018 1_655
Fe1 O2 2.144327 1_555
Fe1 O14 2.208175 1_555
Fe1 O6 2.241749 1_555
Fe1 O1 2.263370 1_555
Fe2 O7 2.051342 1_555
Fe2 O5 2.108993 1_556
Fe2 O8 2.122881 1_555
Fe2 O17 2.210535 1_545
Fe2 O12 2.217407 1_545
Fe2 O4 2.238516 1_555
Fe3 O17 2.086753 1_645
Fe3 O4 2.124107 1_555
Fe3 O6 2.146925 1_555
Fe3 O7 2.208727 1_555
Fe3 O8 2.216313 1_655
Fe3 O2 2.245029 1_555
Fe4 O7 1.931039 1_454
Fe4 O5 1.959181 1_555
Fe4 O0 2.049130 1_455
Fe4 O10 2.118304 1_555
Fe4 O15 2.158950 1_555
Fe4 O9 2.160029 1_455
Fe5 O10 2.092441 1_555
Fe5 O12 2.120835 1_554
Fe5 O9 2.137598 1_555
Fe5 O5 2.163197 1_565
Fe5 O0 2.243241 1_565
Fe5 O13 2.296584 1_555
Fe6 O1 2.094512 1_455
Fe6 O14 2.103662 1_555
Fe6 O15 2.156648 1_555
Fe6 O3 2.188539 1_555
Fe6 O11 2.234297 1_555
Fe6 O16 2.238410 1_555
O0 Ti2 1.893342 1_645
O0 Ti3 2.256189 1_555
O1 Ti3 1.889417 1_555
O2 Ti0 1.891162 1_555
O2 Ti1 2.098601 1_555
O3 Ti4 2.059354 1_555
O4 Ti4 1.840606 1_545
O4 Ti0 2.132234 1_545
O5 Ti3 1.998159 1_555
O6 Ti4 1.916183 1_645
O7 Ti1 2.057944 1_555
O8 Ti0 1.865079 1_555
O8 Ti1 2.116519 1_455
O9 Ti3 1.878741 1_555
O9 Ti2 2.198596 1_655
O10 Ti1 1.940389 1_454
O10 Ti2 2.195048 1_555
O11 Ti2 1.868730 1_555
O11 Ti4 2.320619 1_555
O12 Ti1 1.854157 1_555
O12 Ti0 2.137050 1_555
O13 Ti2 1.866631 1_555
O13 Ti3 2.232399 1_565
O14 Ti4 1.884000 1_545
O15 Ti3 1.875790 1_555
O15 Ti2 2.142662 1_555
O16 Ti0 1.874757 1_555
O16 Ti4 2.094488 1_555
O17 Ti1 1.927623 1_455
O17 Ti0 2.128236 1_555
