# generated using pymatgen
data_Na6Al4Fe(Si4O13)2
_symmetry_space_group_name_H-M   'P 1'
_cell_length_a   7.97901570
_cell_length_b   8.44918558
_cell_length_c   10.54585679
_cell_angle_alpha   110.98525266
_cell_angle_beta   89.94083237
_cell_angle_gamma   118.17668785
_symmetry_Int_Tables_number   1
_chemical_formula_structural   Na6Al4Fe(Si4O13)2
_chemical_formula_sum   'Na6 Al4 Fe1 Si8 O26'
_cell_volume   572.81053377
_cell_formula_units_Z   1
loop_
 _symmetry_equiv_pos_site_id
 _symmetry_equiv_pos_as_xyz
  1  'x, y, z'
loop_
 _atom_site_type_symbol
 _atom_site_label
 _atom_site_symmetry_multiplicity
 _atom_site_fract_x
 _atom_site_fract_y
 _atom_site_fract_z
 _atom_site_occupancy
  Na  Na0  1  0.14758870  0.30212524  0.87977178  1
  Na  Na1  1  0.27901839  0.54118090  0.55847330  1
  Na  Na2  1  0.48131859  0.93513927  0.16639918  1
  Na  Na3  1  0.54382456  0.06591578  0.83299841  1
  Na  Na4  1  0.73702676  0.45839066  0.44154800  1
  Na  Na5  1  0.84508041  0.69869998  0.12134119  1
  Al  Al0  1  0.15875714  0.70494540  0.34614041  1
  Al  Al1  1  0.45382846  0.29563560  0.65404519  1
  Al  Al2  1  0.74960279  0.88356147  0.65388059  1
  Al  Al3  1  0.86688478  0.11622398  0.34609359  1
  Fe  Fe0  1  0.98530537  -0.00019302  0.99981503  1
  Si  Si0  1  0.14246353  0.88364824  0.65506976  1
  Si  Si1  1  0.15118732  0.70343049  0.86940585  1
  Si  Si2  1  0.25996257  0.11633731  0.34491885  1
  Si  Si3  1  0.53521685  0.70118035  0.87077001  1
  Si  Si4  1  0.54915806  0.69969495  0.34710655  1
  Si  Si5  1  0.44859497  0.29548863  0.12992838  1
  Si  Si6  1  0.83601169  0.29991377  0.12986237  1
  Si  Si7  1  0.84896460  0.29970902  0.65267645  1
  O  O0  1  0.06141910  0.79884661  0.98473683  1
  O  O1  1  0.06296287  0.72048056  0.49678081  1
  O  O2  1  0.02259394  0.46327137  0.79118349  1
  O  O3  1  0.27261490  0.92481526  0.32573290  1
  O  O4  1  0.19544727  0.78425990  0.74595168  1
  O  O5  1  0.04236087  0.05759032  0.28857752  1
  O  O6  1  0.32549977  0.63008670  0.35968065  1
  O  O7  1  0.36384052  0.74814584  0.93585472  1
  O  O8  1  0.26422353  0.19840796  0.01364886  1
  O  O9  1  0.34362925  0.28009867  0.50307536  1
  O  O10  1  0.58063807  0.78327112  0.74873476  1
  O  O11  1  0.43042591  0.46364324  0.79708570  1
  O  O12  1  0.65439369  0.90120935  0.32522810  1
  O  O13  1  0.34633647  0.07567670  0.67446275  1
  O  O14  1  0.55865250  0.53558182  0.20836753  1
  O  O15  1  0.41186625  0.21499012  0.25348600  1
  O  O16  1  0.65929681  0.71033366  0.48158731  1
  O  O17  1  0.71176180  0.80689705  0.99795993  1
  O  O18  1  0.61763886  0.25175371  0.06421765  1
  O  O19  1  0.69532253  0.36983265  0.64033822  1
  O  O20  1  0.98341632  0.94214759  0.71171728  1
  O  O21  1  0.79918892  0.21761399  0.25180738  1
  O  O22  1  0.75141946  0.09804557  0.67431872  1
  O  O23  1  0.96721755  0.53748566  0.20343459  1
  O  O24  1  0.94909189  0.28905215  0.51837672  1
  O  O25  1  0.90894342  0.19543644  0.00340965  1
loop_
_geom_bond_atom_site_label_1
_geom_bond_atom_site_label_2
_geom_bond_distance
_geom_bond_site_symmetry_2
Na0 O8 2.299220 1_556
Na0 O25 2.313909 1_456
Na0 O11 2.378135 1_555
Na0 O2 2.432432 1_555
Na0 O20 2.547353 1_445
Na1 O9 2.371393 1_555
Na1 O24 2.389132 1_455
Na1 O6 2.441339 1_555
Na1 O10 2.534395 1_555
Na1 O4 2.637042 1_555
Na2 O7 2.267328 1_554
Na2 O12 2.348922 1_555
Na2 O3 2.359266 1_555
Na2 O21 2.385083 1_565
Na2 O15 2.534259 1_565
Na2 O17 2.864691 1_554
Na2 O18 2.969015 1_565
Na3 O18 2.268354 1_556
Na3 O13 2.347761 1_555
Na3 O22 2.347910 1_555
Na3 O10 2.391854 1_545
Na3 O4 2.534985 1_545
Na4 O1 2.376337 1_655
Na4 O16 2.386807 1_555
Na4 O19 2.439775 1_555
Na4 O21 2.534513 1_555
Na4 O15 2.635212 1_555
Na5 O0 2.293380 1_654
Na5 O17 2.330991 1_554
Na5 O23 2.377948 1_555
Na5 O14 2.427328 1_555
Na5 O5 2.539838 1_665
Al0 O3 1.736348 1_555
Al0 O23 1.743555 1_455
Al0 O6 1.746509 1_555
Al0 O1 1.751595 1_555
Al1 O13 1.736899 1_555
Al1 O11 1.743976 1_555
Al1 O19 1.746520 1_555
Al1 O9 1.751957 1_555
Al2 O20 1.735367 1_555
Al2 O22 1.739604 1_565
Al2 O10 1.749777 1_555
Al2 O16 1.750647 1_555
Al3 O5 1.735444 1_655
Al3 O12 1.740409 1_545
Al3 O24 1.749637 1_555
Al3 O21 1.750008 1_555
Fe0 O25 2.002736 1_556
Fe0 O17 2.009587 1_545
Fe0 O0 2.014300 1_645
Fe0 O8 2.021991 1_656
O0 Si1 1.575907 1_555
O1 Si0 1.617872 1_555
O2 Si1 1.639305 1_555
O2 Si7 1.647110 1_455
O3 Si2 1.609174 1_565
O4 Si1 1.641427 1_555
O4 Si0 1.647745 1_555
O5 Si2 1.609651 1_555
O6 Si4 1.616281 1_555
O7 Si1 1.649314 1_555
O7 Si3 1.677443 1_555
O8 Si5 1.576199 1_555
O9 Si2 1.618345 1_555
O10 Si3 1.633925 1_555
O11 Si3 1.621878 1_555
O12 Si4 1.608750 1_555
O13 Si0 1.609643 1_545
O14 Si5 1.639466 1_555
O14 Si4 1.647733 1_555
O15 Si5 1.640762 1_555
O15 Si2 1.647042 1_555
O16 Si4 1.621223 1_555
O17 Si3 1.593363 1_555
O18 Si5 1.649663 1_555
O18 Si6 1.676883 1_555
O19 Si7 1.616268 1_555
O20 Si0 1.609645 1_655
O21 Si6 1.634161 1_555
O22 Si7 1.608379 1_555
O23 Si6 1.621360 1_555
O24 Si7 1.620665 1_555
O25 Si6 1.592668 1_555
