# generated using pymatgen
data_Zn4B2O7
_symmetry_space_group_name_H-M   'P 1'
_cell_length_a   8.28832056
_cell_length_b   8.28832056
_cell_length_c   9.99078595
_cell_angle_alpha   66.42605218
_cell_angle_beta   66.42605218
_cell_angle_gamma   60.15638159
_symmetry_Int_Tables_number   1
_chemical_formula_structural   Zn4B2O7
_chemical_formula_sum   'Zn12 B6 O21'
_cell_volume   527.91971073
_cell_formula_units_Z   3
loop_
 _symmetry_equiv_pos_site_id
 _symmetry_equiv_pos_as_xyz
  1  'x, y, z'
loop_
 _atom_site_type_symbol
 _atom_site_label
 _atom_site_symmetry_multiplicity
 _atom_site_fract_x
 _atom_site_fract_y
 _atom_site_fract_z
 _atom_site_occupancy
  Zn  Zn0  1  0.42917900  0.35964200  0.66196300  1
  Zn  Zn1  1  0.84966000  0.31057700  0.64105500  1
  Zn  Zn2  1  0.81170800  0.92790900  0.66461300  1
  Zn  Zn3  1  0.30205100  0.43702900  0.19640900  1
  Zn  Zn4  1  0.30760600  0.85634800  0.16254900  1
  Zn  Zn5  1  0.07209100  0.18829200  0.33538700  1
  Zn  Zn6  1  0.92995800  0.78198900  0.17140500  1
  Zn  Zn7  1  0.68942300  0.15034000  0.35894500  1
  Zn  Zn8  1  0.64035800  0.57082100  0.33803700  1
  Zn  Zn9  1  0.21801100  0.07004200  0.82859500  1
  Zn  Zn10  1  0.14365200  0.69239400  0.83745100  1
  Zn  Zn11  1  0.56297100  0.69794900  0.80359100  1
  B  B0  1  0.25250900  0.26993500  0.99932800  1
  B  B1  1  0.83324500  0.16675500  0.00000000  1
  B  B2  1  0.73006500  0.74749100  0.00067200  1
  B  B3  1  0.27081400  0.25010400  0.50077000  1
  B  B4  1  0.22990100  0.77009900  0.50000000  1
  B  B5  1  0.74989600  0.72918600  0.49923000  1
  O  O0  1  0.81045900  0.31063000  0.32375300  1
  O  O1  1  0.68937000  0.18954100  0.67624700  1
  O  O2  1  0.27546600  0.40850000  0.86712200  1
  O  O3  1  0.90286900  0.22735900  0.86090200  1
  O  O4  1  0.24244400  0.10623600  0.00106900  1
  O  O5  1  0.71294100  0.76130400  0.86355100  1
  O  O6  1  0.23869600  0.28705900  0.13644900  1
  O  O7  1  0.77264100  0.09713100  0.13909800  1
  O  O8  1  0.89376400  0.75755600  0.99893100  1
  O  O9  1  0.41172100  0.27123000  0.36772100  1
  O  O10  1  0.59150000  0.72453400  0.13287800  1
  O  O11  1  0.10447500  0.25580000  0.49456800  1
  O  O12  1  0.20288200  0.90804600  0.36558800  1
  O  O13  1  0.77211800  0.69980800  0.36544700  1
  O  O14  1  0.30019200  0.22788200  0.63455300  1
  O  O15  1  0.74420000  0.89552500  0.50543200  1
  O  O16  1  0.39685700  0.60314300  0.50000000  1
  O  O17  1  0.09195300  0.79711800  0.63441200  1
  O  O18  1  0.72877000  0.58827900  0.63227900  1
  O  O19  1  0.29856700  0.80898500  0.83307000  1
  O  O20  1  0.19101500  0.70143300  0.16693000  1
loop_
_geom_bond_atom_site_label_1
_geom_bond_atom_site_label_2
_geom_bond_distance
_geom_bond_site_symmetry_2
B0 O2 1.379466 1_555
B0 O6 1.387048 1_556
B0 O4 1.393109 1_556
B1 O7 1.266993 1_555
B1 O3 1.266993 1_554
B2 O10 1.379466 1_555
B2 O5 1.387048 1_554
B2 O8 1.393109 1_554
B3 O14 1.377853 1_555
B3 O11 1.381308 1_555
B3 O9 1.391826 1_555
B4 O12 1.385041 1_555
B4 O17 1.385044 1_555
B4 O16 1.387054 1_555
B5 O13 1.377853 1_555
B5 O15 1.381308 1_555
B5 O18 1.391826 1_555
O0 Zn7 1.888311 1_555
O0 Zn5 1.913883 1_655
O0 Zn8 1.928198 1_555
O1 Zn1 1.888311 1_555
O1 Zn2 1.913883 1_545
O1 Zn0 1.928198 1_555
O2 Zn10 1.990148 1_555
O2 Zn0 2.012482 1_555
O3 Zn1 2.180569 1_555
O3 Zn9 2.213477 1_655
O4 Zn9 1.962982 1_554
O4 Zn4 2.023634 1_545
O5 Zn11 1.917410 1_555
O5 Zn2 2.038545 1_555
O6 Zn3 1.917410 1_555
O6 Zn5 2.038545 1_555
O7 Zn7 2.180569 1_555
O7 Zn6 2.213477 1_545
O8 Zn6 1.962982 1_556
O8 Zn10 2.023634 1_655
O9 Zn3 1.940089 1_555
O9 Zn7 1.980636 1_555
O10 Zn4 1.990148 1_555
O10 Zn8 2.012482 1_555
O11 Zn1 1.978213 1_455
O11 Zn5 2.029030 1_555
O12 Zn5 1.963776 1_565
O12 Zn4 1.992142 1_555
O13 Zn6 1.932817 1_555
O13 Zn8 2.011448 1_555
O14 Zn9 1.932817 1_555
O14 Zn0 2.011448 1_555
O15 Zn7 1.978213 1_565
O15 Zn2 2.029030 1_555
O16 Zn0 1.989923 1_555
O16 Zn8 1.989923 1_555
O17 Zn2 1.963769 1_455
O17 Zn10 1.992145 1_555
O18 Zn11 1.940089 1_555
O18 Zn1 1.980636 1_555
O19 Zn11 1.851889 1_555
O19 Zn9 1.907397 1_565
O19 Zn10 1.934030 1_555
O20 Zn3 1.851889 1_555
O20 Zn6 1.907397 1_455
O20 Zn4 1.934030 1_555
