# generated using pymatgen
data_Cs4Re6Se13
_symmetry_space_group_name_H-M   'P 1'
_cell_length_a   10.41762579
_cell_length_b   10.41762579
_cell_length_c   14.37796884
_cell_angle_alpha   84.59897571
_cell_angle_beta   84.59897571
_cell_angle_gamma   119.87973593
_symmetry_Int_Tables_number   1
_chemical_formula_structural   Cs4Re6Se13
_chemical_formula_sum   'Cs8 Re12 Se26'
_cell_volume   1328.87610690
_cell_formula_units_Z   2
loop_
 _symmetry_equiv_pos_site_id
 _symmetry_equiv_pos_as_xyz
  1  'x, y, z'
loop_
 _atom_site_type_symbol
 _atom_site_label
 _atom_site_symmetry_multiplicity
 _atom_site_fract_x
 _atom_site_fract_y
 _atom_site_fract_z
 _atom_site_occupancy
  Cs  Cs0  1  0.33725663  0.09660093  0.58196562  1
  Cs  Cs1  1  0.09660093  0.33725663  0.08196562  1
  Cs  Cs2  1  0.27972721  0.31803435  0.77814628  1
  Cs  Cs3  1  0.31803435  0.27972721  0.27814628  1
  Cs  Cs4  1  0.66274337  0.90339907  0.41803438  1
  Cs  Cs5  1  0.90339907  0.66274337  0.91803438  1
  Cs  Cs6  1  0.68196565  0.72027279  0.72185372  1
  Cs  Cs7  1  0.72027279  0.68196565  0.22185372  1
  Re  Re0  1  0.68388783  0.00655111  0.97792734  1
  Re  Re1  1  0.41838847  0.85178724  0.92509806  1
  Re  Re2  1  0.31611217  0.99344889  0.02207266  1
  Re  Re3  1  0.58161153  0.14821276  0.07490194  1
  Re  Re4  1  0.85178724  0.41838847  0.42509806  1
  Re  Re5  1  0.14821276  0.58161153  0.57490194  1
  Re  Re6  1  0.00655111  0.68388783  0.47792734  1
  Re  Re7  1  0.14830207  0.56180779  0.39341032  1
  Re  Re8  1  0.99344889  0.31611217  0.52207266  1
  Re  Re9  1  0.85169793  0.43819221  0.60658968  1
  Re  Re10  1  0.56180779  0.14830207  0.89341032  1
  Re  Re11  1  0.43819221  0.85169793  0.10658968  1
  Se  Se0  1  0.18725531  0.71045988  0.05361897  1
  Se  Se1  1  0.69613002  0.00985536  0.15280510  1
  Se  Se2  1  0.34379366  0.99189861  0.19559731  1
  Se  Se3  1  0.71045988  0.18725531  0.55361897  1
  Se  Se4  1  0.63980693  0.36019307  0.75000000  1
  Se  Se5  1  0.46073617  0.27961197  0.99290494  1
  Se  Se6  1  0.65620634  0.00810139  0.80440269  1
  Se  Se7  1  0.28954012  0.81274469  0.44638103  1
  Se  Se8  1  0.00985536  0.69613002  0.65280510  1
  Se  Se9  1  0.94941745  0.02807900  0.93228706  1
  Se  Se10  1  0.72714010  0.36420879  0.16668450  1
  Se  Se11  1  0.05058255  0.97192100  0.06771294  1
  Se  Se12  1  0.72038803  0.53926383  0.50709506  1
  Se  Se13  1  0.30386998  0.99014464  0.84719490  1
  Se  Se14  1  0.81274469  0.28954012  0.94638103  1
  Se  Se15  1  0.00810139  0.65620634  0.30440269  1
  Se  Se16  1  0.36420879  0.72714010  0.66668450  1
  Se  Se17  1  0.36019307  0.63980693  0.25000000  1
  Se  Se18  1  0.99189861  0.34379366  0.69559731  1
  Se  Se19  1  0.27961197  0.46073617  0.49290494  1
  Se  Se20  1  0.53926383  0.72038803  0.00709506  1
  Se  Se21  1  0.27285990  0.63579121  0.83331550  1
  Se  Se22  1  0.02807900  0.94941745  0.43228706  1
  Se  Se23  1  0.63579121  0.27285990  0.33331550  1
  Se  Se24  1  0.97192100  0.05058255  0.56771294  1
  Se  Se25  1  0.99014464  0.30386998  0.34719490  1
loop_
_geom_bond_atom_site_label_1
_geom_bond_atom_site_label_2
_geom_bond_distance
_geom_bond_site_symmetry_2
Cs0 Se3 3.484906 1_555
Cs0 Se7 3.548929 1_545
Cs0 Se24 3.619987 1_455
Cs0 Se22 3.789730 1_545
Cs0 Se8 3.800549 1_545
Cs0 Se13 3.803050 1_545
Cs0 Cs2 3.990107 1_555
Cs0 Se16 4.078626 1_545
Cs0 Se23 4.099554 1_555
Cs0 Se4 4.167814 1_555
Cs0 Se19 4.229713 1_555
Cs0 Se12 4.274691 1_555
Cs1 Se0 3.484906 1_555
Cs1 Se14 3.548929 1_454
Cs1 Se11 3.619987 1_545
Cs1 Se9 3.789730 1_454
Cs1 Se1 3.800549 1_455
Cs1 Se25 3.803050 1_455
Cs1 Cs3 3.990107 1_555
Cs1 Se10 4.078626 1_455
Cs1 Se21 4.099554 1_554
Cs1 Se17 4.167814 1_555
Cs1 Se5 4.229713 1_554
Cs1 Se20 4.274691 1_555
Cs2 Se18 3.447229 1_455
Cs2 Se21 3.508818 1_555
Cs2 Se4 3.530899 1_555
Cs2 Se9 3.581134 1_455
Cs2 Se13 3.602968 1_545
Cs2 Se5 3.855641 1_555
Cs2 Se16 4.027184 1_555
Cs3 Se2 3.447229 1_545
Cs3 Se23 3.508818 1_555
Cs3 Se17 3.530899 1_555
Cs3 Se22 3.581134 1_545
Cs3 Se25 3.602968 1_455
Cs3 Se19 3.855641 1_555
Cs3 Se10 4.027184 1_555
Cs4 Se7 3.484906 1_555
Cs4 Se3 3.548929 1_565
Cs4 Se22 3.619987 1_655
Cs4 Se24 3.789730 1_565
Cs4 Se25 3.800549 1_565
Cs4 Se1 3.803050 1_565
Cs4 Cs7 3.990107 1_555
Cs4 Se23 4.078626 1_565
Cs4 Se16 4.099554 1_555
Cs4 Se17 4.167814 1_555
Cs4 Se12 4.229713 1_555
Cs4 Se19 4.274691 1_555
Cs5 Se14 3.484906 1_555
Cs5 Se0 3.548929 1_656
Cs5 Se9 3.619987 1_565
Cs5 Se11 3.789730 1_656
Cs5 Se13 3.800549 1_655
Cs5 Se8 3.803050 1_655
Cs5 Cs6 3.990107 1_555
Cs5 Se21 4.078626 1_655
Cs5 Se10 4.099554 1_556
Cs5 Se4 4.167814 1_555
Cs5 Se20 4.229713 1_556
Cs5 Se5 4.274691 1_555
Cs6 Se6 3.447229 1_565
Cs6 Se16 3.508818 1_555
Cs6 Se4 3.530899 1_555
Cs6 Se24 3.581134 1_565
Cs6 Se8 3.602968 1_655
Cs6 Se12 3.855641 1_555
Cs6 Se21 4.027184 1_555
Cs7 Se15 3.447229 1_655
Cs7 Se10 3.508818 1_555
Cs7 Se17 3.530899 1_555
Cs7 Se11 3.581134 1_655
Cs7 Se1 3.602968 1_565
Cs7 Se20 3.855641 1_555
Cs7 Se23 4.027184 1_555
Re0 Se14 2.527739 1_555
Re0 Se1 2.532169 1_556
Re0 Se6 2.537835 1_555
Re0 Se20 2.550209 1_546
Re0 Se9 2.673046 1_555
Re1 Se13 2.533044 1_555
Re1 Se6 2.537742 1_565
Re1 Se0 2.549138 1_556
Re1 Se20 2.557834 1_556
Re1 Se21 2.576782 1_555
Re2 Se0 2.527739 1_555
Re2 Se13 2.532169 1_554
Re2 Se2 2.537835 1_555
Re2 Se5 2.550209 1_564
Re2 Se11 2.673046 1_555
Re3 Se1 2.533044 1_555
Re3 Se2 2.537742 1_545
Re3 Se14 2.549138 1_554
Re3 Se5 2.557834 1_554
Re3 Se10 2.576782 1_555
Re4 Se25 2.533044 1_555
Re4 Se15 2.537742 1_655
Re4 Se3 2.549138 1_555
Re4 Se12 2.557834 1_555
Re4 Se23 2.576782 1_555
Re5 Se8 2.533044 1_555
Re5 Se18 2.537742 1_455
Re5 Se7 2.549138 1_555
Re5 Se19 2.557834 1_555
Re5 Se16 2.576782 1_555
Re6 Se7 2.527739 1_555
Re6 Se8 2.532169 1_555
Re6 Se15 2.537835 1_555
Re6 Se12 2.550209 1_455
Re6 Se22 2.673046 1_555
Re7 Se15 2.506817 1_555
Re7 Se7 2.516386 1_555
Re7 Se25 2.551023 1_455
Re7 Se19 2.558565 1_555
Re7 Se17 2.612496 1_555
Re8 Se3 2.527739 1_555
Re8 Se25 2.532169 1_555
Re8 Se18 2.537835 1_555
Re8 Se19 2.550209 1_655
Re8 Se24 2.673046 1_555
Re9 Se18 2.506817 1_555
Re9 Se3 2.516386 1_555
Re9 Se8 2.551023 1_655
Re9 Se12 2.558565 1_555
Re9 Se4 2.612496 1_555
Re10 Se6 2.506817 1_555
Re10 Se14 2.516386 1_555
Re10 Se13 2.551023 1_545
Re10 Se5 2.558565 1_555
Re10 Se4 2.612496 1_555
Re11 Se2 2.506817 1_555
Re11 Se0 2.516386 1_555
Re11 Se1 2.551023 1_565
Re11 Se20 2.558565 1_555
Re11 Se17 2.612496 1_555
Se10 Se23 2.406331 1_555
Se11 Se9 2.455717 1_464
Se16 Se21 2.406331 1_555
Se22 Se24 2.455717 1_465
