# generated using pymatgen
data_Bi2O3
_symmetry_space_group_name_H-M   'P 1'
_cell_length_a   8.99506900
_cell_length_b   9.04747678
_cell_length_c   37.22627868
_cell_angle_alpha   94.51918591
_cell_angle_beta   94.54207636
_cell_angle_gamma   109.44262517
_symmetry_Int_Tables_number   1
_chemical_formula_structural   Bi2O3
_chemical_formula_sum   'Bi64 O96'
_cell_volume   2829.96760024
_cell_formula_units_Z   32
loop_
 _symmetry_equiv_pos_site_id
 _symmetry_equiv_pos_as_xyz
  1  'x, y, z'
loop_
 _atom_site_type_symbol
 _atom_site_label
 _atom_site_symmetry_multiplicity
 _atom_site_fract_x
 _atom_site_fract_y
 _atom_site_fract_z
 _atom_site_occupancy
  Bi  Bi0  1  0.00951300  0.71425400  0.06064600  1
  Bi  Bi1  1  0.59172800  0.76983600  0.03985400  1
  Bi  Bi2  1  0.21877000  0.54662400  0.12820500  1
  Bi  Bi3  1  0.85299400  0.34997900  0.17139400  1
  Bi  Bi4  1  0.61586100  0.31046200  0.26653200  1
  Bi  Bi5  1  0.22574400  0.39961900  0.03169600  1
  Bi  Bi6  1  0.57168800  0.59741300  0.19965900  1
  Bi  Bi7  1  0.60750800  0.46530800  0.10335900  1
  Bi  Bi8  1  0.20652200  0.36957300  0.24006100  1
  Bi  Bi9  1  0.83206100  0.14141100  0.33383100  1
  Bi  Bi10  1  0.97118000  0.10104900  0.09565300  1
  Bi  Bi11  1  0.33750800  0.17921000  0.16047900  1
  Bi  Bi12  1  0.44361400  0.94794100  0.37235900  1
  Bi  Bi13  1  0.20444700  0.90287200  0.46393200  1
  Bi  Bi14  1  0.77882700  0.28908200  0.03197100  1
  Bi  Bi15  1  0.83076200  0.02450300  0.23142200  1
  Bi  Bi16  1  0.20995700  0.06891400  0.30326900  1
  Bi  Bi17  1  0.36081000  0.05365800  0.05932800  1
  Bi  Bi18  1  0.81345400  0.98510400  0.43755400  1
  Bi  Bi19  1  0.99577600  0.79783300  0.16634100  1
  Bi  Bi20  1  0.56405800  0.70690400  0.30029900  1
  Bi  Bi21  1  0.42709600  0.74268700  0.52948800  1
  Bi  Bi22  1  0.94521900  0.77598600  0.36243300  1
  Bi  Bi23  1  0.05070900  0.55507400  0.57211500  1
  Bi  Bi24  1  0.81578600  0.51057300  0.66678100  1
  Bi  Bi25  1  0.58353600  0.92636000  0.13656700  1
  Bi  Bi26  1  0.37570100  0.89349000  0.23010900  1
  Bi  Bi27  1  0.44638100  0.62641600  0.43266800  1
  Bi  Bi28  1  0.77339600  0.79867800  0.59971400  1
  Bi  Bi29  1  0.97559600  0.64468800  0.25951200  1
  Bi  Bi30  1  0.80935500  0.66506200  0.50012400  1
  Bi  Bi31  1  0.40626400  0.56961100  0.64000700  1
  Bi  Bi32  1  0.59399400  0.40757400  0.36601200  1
  Bi  Bi33  1  0.03179900  0.34102600  0.73378200  1
  Bi  Bi34  1  0.16813600  0.30817000  0.49906600  1
  Bi  Bi35  1  0.64361200  0.14882300  0.77257900  1
  Bi  Bi36  1  0.53973100  0.37809100  0.56105700  1
  Bi  Bi37  1  0.40217700  0.10421600  0.86481300  1
  Bi  Bi38  1  0.17966400  0.51285900  0.33891900  1
  Bi  Bi39  1  0.03144700  0.22545400  0.63155500  1
  Bi  Bi40  1  0.97442700  0.46990400  0.42776000  1
  Bi  Bi41  1  0.39929900  0.40138000  0.80019200  1
  Bi  Bi42  1  0.41027500  0.26905800  0.70328000  1
  Bi  Bi43  1  0.01457300  0.18804800  0.83824900  1
  Bi  Bi44  1  0.56820900  0.24425000  0.46088300  1
  Bi  Bi45  1  0.19619400  0.99996500  0.56723300  1
  Bi  Bi46  1  0.62591400  0.93505500  0.93017200  1
  Bi  Bi47  1  0.76470700  0.90753400  0.70029000  1
  Bi  Bi48  1  0.14635500  0.97688500  0.76265300  1
  Bi  Bi49  1  0.24017100  0.75602600  0.97523000  1
  Bi  Bi50  1  0.78128300  0.11911400  0.53734200  1
  Bi  Bi51  1  0.57635200  0.09303600  0.63047600  1
  Bi  Bi52  1  0.64595100  0.82834900  0.83285200  1
  Bi  Bi53  1  0.19805800  0.20098400  0.40017900  1
  Bi  Bi54  1  0.01023500  0.85897900  0.89757600  1
  Bi  Bi55  1  0.17517100  0.84535800  0.66022100  1
  Bi  Bi56  1  0.79432600  0.60873400  0.76599900  1
  Bi  Bi57  1  0.37073000  0.50884400  0.90239300  1
  Bi  Bi58  1  0.76426000  0.60533300  0.96524600  1
  Bi  Bi59  1  0.38015700  0.71281500  0.73844500  1
  Bi  Bi60  1  0.17780000  0.66559800  0.82720500  1
  Bi  Bi61  1  0.76134600  0.44234900  0.86111100  1
  Bi  Bi62  1  0.42031400  0.21835000  0.96629900  1
  Bi  Bi63  1  0.97167500  0.32523100  0.93775800  1
  O  O0  1  0.84957100  0.84746200  0.07315200  1
  O  O1  1  0.31872700  0.69114800  0.02459100  1
  O  O2  1  0.00412100  0.63460800  0.12324200  1
  O  O3  1  0.99258500  0.60035600  0.19985500  1
  O  O4  1  0.45144100  0.45052500  0.27371600  1
  O  O5  1  0.10447500  0.46611100  0.07383100  1
  O  O6  1  0.69951200  0.67797400  0.15523600  1
  O  O7  1  0.29878100  0.29747200  0.34956500  1
  O  O8  1  0.48972500  0.60044700  0.07625400  1
  O  O9  1  0.78856800  0.52444800  0.04802300  1
  O  O10  1  0.91771100  0.28734000  0.22274400  1
  O  O11  1  0.08181900  0.34647300  0.15089300  1
  O  O12  1  0.60165800  0.24019200  0.32405200  1
  O  O13  1  0.37977900  0.38232600  0.12669500  1
  O  O14  1  0.56398600  0.20039000  0.39991800  1
  O  O15  1  0.05387900  0.05472100  0.47364400  1
  O  O16  1  0.61207500  0.38020600  0.20095400  1
  O  O17  1  0.82165000  0.07460300  0.14694000  1
  O  O18  1  0.71112100  0.07299100  0.27503400  1
  O  O19  1  0.16253900  0.16500200  0.05362000  1
  O  O20  1  0.94572500  0.19965000  0.40012700  1
  O  O21  1  0.52466400  0.27923900  0.05241100  1
  O  O22  1  0.09134100  0.20119600  0.27522900  1
  O  O23  1  0.49829100  0.12537500  0.12767800  1
  O  O24  1  0.39222800  0.12990400  0.24915200  1
  O  O25  1  0.51957200  0.88890600  0.42262700  1
  O  O26  1  0.13237500  0.01398000  0.12399800  1
  O  O27  1  0.66992800  0.93533900  0.34957200  1
  O  O28  1  0.20250800  0.83499600  0.52423500  1
  O  O29  1  0.98027800  0.98000200  0.32656300  1
  O  O30  1  0.19137700  0.79951300  0.60045300  1
  O  O31  1  0.65096200  0.65036600  0.67370900  1
  O  O32  1  0.19812100  0.94907800  0.40078500  1
  O  O33  1  0.41856600  0.66720900  0.34703500  1
  O  O34  1  0.26673100  0.89178300  0.17792400  1
  O  O35  1  0.31529100  0.67237500  0.47487500  1
  O  O36  1  0.74427800  0.73271300  0.24306900  1
  O  O37  1  0.90295900  0.88612500  0.55637900  1
  O  O38  1  0.58896100  0.96909300  0.07237200  1
  O  O39  1  0.12445500  0.87618300  0.25336900  1
  O  O40  1  0.68689900  0.80009600  0.47546300  1
  O  O41  1  0.59627800  0.97320800  0.19952500  1
  O  O42  1  0.09814400  0.71970100  0.32790100  1
  O  O43  1  0.11684600  0.48749800  0.62281700  1
  O  O44  1  0.98516500  0.72079800  0.45008500  1
  O  O45  1  0.72587200  0.61190900  0.32479800  1
  O  O46  1  0.27943300  0.54400000  0.55114400  1
  O  O47  1  0.80153400  0.44023400  0.72426500  1
  O  O48  1  0.57732200  0.57793200  0.52645500  1
  O  O49  1  0.76354700  0.40179700  0.80046500  1
  O  O50  1  0.24981000  0.25172800  0.87446200  1
  O  O51  1  0.81582300  0.58208900  0.60130300  1
  O  O52  1  0.01984100  0.26843600  0.54726100  1
  O  O53  1  0.91097100  0.27294000  0.67514900  1
  O  O54  1  0.86838800  0.49740200  0.37736000  1
  O  O55  1  0.35196900  0.35186900  0.45026200  1
  O  O56  1  0.14588900  0.40124800  0.80015000  1
  O  O57  1  0.49934500  0.49735300  0.74949600  1
  O  O58  1  0.72033300  0.47133300  0.45317300  1
  O  O59  1  0.19259400  0.56686000  0.27161500  1
  O  O60  1  0.29156400  0.40137700  0.67525600  1
  O  O61  1  0.20267800  0.56410800  0.40035000  1
  O  O62  1  0.69695400  0.31956300  0.52810000  1
  O  O63  1  0.59233700  0.32995000  0.64910200  1
  O  O64  1  0.71728400  0.08952300  0.82287500  1
  O  O65  1  0.32911600  0.21600200  0.52570000  1
  O  O66  1  0.87005500  0.13513700  0.74955000  1
  O  O67  1  0.40228700  0.04056300  0.92404300  1
  O  O68  1  0.18025300  0.17984300  0.72648400  1
  O  O69  1  0.37740900  0.00343000  0.99987300  1
  O  O70  1  0.39727900  0.14915200  0.80002600  1
  O  O71  1  0.46856400  0.08934800  0.57810600  1
  O  O72  1  0.61816900  0.86808600  0.74697300  1
  O  O73  1  0.51590000  0.87296800  0.87519100  1
  O  O74  1  0.94411600  0.93315500  0.64356600  1
  O  O75  1  0.32445400  0.07586400  0.65336700  1
  O  O76  1  0.78857100  0.16731200  0.47309300  1
  O  O77  1  0.89008400  0.00095300  0.87558300  1
  O  O78  1  0.79646700  0.17346500  0.59995200  1
  O  O79  1  0.29770700  0.91921600  0.72777000  1
  O  O80  1  0.18411900  0.91792200  0.85041100  1
  O  O81  1  0.92566100  0.81161400  0.72486800  1
  O  O82  1  0.47459400  0.73492700  0.94978700  1
  O  O83  1  0.78255400  0.78016200  0.92592800  1
  O  O84  1  0.00109400  0.73191600  0.99939500  1
  O  O85  1  0.06829900  0.69751200  0.77765700  1
  O  O86  1  0.21524900  0.45612600  0.94756700  1
  O  O87  1  0.55739200  0.55255900  0.84958700  1
  O  O88  1  0.92008600  0.67044300  0.85393400  1
  O  O89  1  0.39230900  0.76640200  0.67180100  1
  O  O90  1  0.40291300  0.76325700  0.80022700  1
  O  O91  1  0.89776000  0.52339400  0.92828800  1
  O  O92  1  0.52903300  0.40974600  0.92730100  1
  O  O93  1  0.67245100  0.28293900  0.97837100  1
  O  O94  1  0.98369200  0.36707000  0.87355300  1
  O  O95  1  0.99284600  0.36197500  0.00010900  1
loop_
_geom_bond_atom_site_label_1
_geom_bond_atom_site_label_2
_geom_bond_distance
_geom_bond_site_symmetry_2
Bi0 O9 2.138338 1_455
Bi0 O0 2.216085 1_455
Bi0 O84 2.295314 1_554
Bi0 O2 2.492140 1_555
Bi0 O5 2.719338 1_555
Bi1 O38 2.099219 1_555
Bi1 O8 2.148190 1_555
Bi1 O1 2.326234 1_555
Bi1 O0 2.394172 1_555
Bi2 O11 2.104949 1_555
Bi2 O5 2.150403 1_555
Bi2 O2 2.320690 1_555
Bi2 O13 2.396510 1_555
Bi3 O10 2.127970 1_555
Bi3 O11 2.260193 1_655
Bi3 O3 2.312609 1_555
Bi3 O17 2.499972 1_555
Bi3 O16 2.589739 1_555
Bi4 O24 2.138549 1_555
Bi4 O4 2.263103 1_555
Bi4 O12 2.282384 1_555
Bi4 O16 2.569591 1_555
Bi4 O18 2.596211 1_555
Bi5 O5 2.138046 1_555
Bi5 O95 2.226914 1_455
Bi5 O19 2.244602 1_555
Bi5 O1 2.530373 1_555
Bi5 O8 2.778520 1_555
Bi6 O16 2.117461 1_555
Bi6 O6 2.126307 1_555
Bi6 O36 2.132092 1_555
Bi7 O8 2.126726 1_555
Bi7 O13 2.207989 1_555
Bi7 O21 2.329011 1_555
Bi7 O6 2.493543 1_555
Bi7 O9 2.703168 1_555
Bi8 O59 2.103162 1_555
Bi8 O22 2.141600 1_555
Bi8 O4 2.302958 1_555
Bi8 O10 2.467895 1_455
Bi9 O27 2.108021 1_545
Bi9 O29 2.296584 1_545
Bi9 O18 2.306189 1_555
Bi9 O12 2.528107 1_555
Bi9 O20 2.539795 1_555
Bi10 O26 2.117880 1_655
Bi10 O0 2.245744 1_545
Bi10 O19 2.377442 1_655
Bi10 O17 2.403323 1_555
Bi10 O11 2.763111 1_655
Bi11 O23 2.115373 1_555
Bi11 O26 2.220505 1_555
Bi11 O13 2.253471 1_555
Bi11 O34 2.611329 1_545
Bi11 O16 2.768711 1_555
Bi12 O25 2.109926 1_555
Bi12 O14 2.291306 1_565
Bi12 O27 2.299883 1_555
Bi12 O32 2.525797 1_555
Bi12 O33 2.568797 1_555
Bi13 O44 2.100470 1_455
Bi13 O15 2.256211 1_565
Bi13 O28 2.373421 1_555
Bi13 O32 2.419388 1_555
Bi13 O35 2.638708 1_555
Bi14 O93 2.131838 1_554
Bi14 O9 2.136903 1_555
Bi14 O95 2.277621 1_555
Bi14 O21 2.442200 1_555
Bi15 O18 2.113100 1_555
Bi15 O41 2.222359 1_545
Bi15 O10 2.300850 1_555
Bi15 O36 2.574716 1_545
Bi15 O22 2.682959 1_655
Bi16 O22 2.128596 1_555
Bi16 O29 2.225893 1_445
Bi16 O39 2.335215 1_545
Bi16 O7 2.450524 1_555
Bi16 O24 2.673410 1_555
Bi17 O21 2.131762 1_555
Bi17 O69 2.250880 1_554
Bi17 O19 2.326043 1_555
Bi17 O38 2.445167 1_545
Bi17 O23 2.670517 1_555
Bi18 O76 2.113495 1_565
Bi18 O15 2.319129 1_665
Bi18 O40 2.333958 1_555
Bi18 O25 2.492745 1_555
Bi18 O20 2.505175 1_565
Bi19 O2 2.116634 1_655
Bi19 O3 2.252180 1_555
Bi19 O34 2.290259 1_655
Bi19 O6 2.505920 1_555
Bi19 O26 2.647936 1_665
Bi20 O45 2.105963 1_555
Bi20 O33 2.239380 1_555
Bi20 O4 2.302420 1_555
Bi20 O27 2.521612 1_555
Bi20 O36 2.755851 1_555
Bi21 O46 2.110448 1_555
Bi21 O35 2.143782 1_555
Bi21 O48 2.323632 1_555
Bi21 O28 2.429661 1_555
Bi22 O42 2.108854 1_655
Bi22 O45 2.311707 1_555
Bi22 O29 2.314556 1_555
Bi22 O54 2.502225 1_555
Bi22 O32 2.535242 1_655
Bi23 O43 2.129863 1_555
Bi23 O30 2.272199 1_555
Bi23 O46 2.287274 1_555
Bi23 O51 2.523862 1_455
Bi23 O52 2.600082 1_555
Bi24 O63 2.139602 1_555
Bi24 O31 2.263135 1_555
Bi24 O47 2.281317 1_555
Bi24 O51 2.570720 1_555
Bi24 O53 2.596399 1_555
Bi25 O17 2.100115 1_565
Bi25 O23 2.216394 1_565
Bi25 O41 2.335434 1_555
Bi25 O38 2.452393 1_555
Bi26 O34 2.102029 1_555
Bi26 O24 2.152306 1_565
Bi26 O41 2.299484 1_555
Bi26 O39 2.444888 1_555
Bi27 O35 2.132820 1_555
Bi27 O61 2.285464 1_555
Bi27 O25 2.313258 1_555
Bi27 O55 2.502072 1_555
Bi27 O40 2.546409 1_555
Bi28 O37 2.114630 1_555
Bi28 O51 2.121712 1_555
Bi28 O74 2.132959 1_555
Bi29 O39 2.118699 1_655
Bi29 O3 2.251756 1_555
Bi29 O59 2.309650 1_655
Bi29 O36 2.513287 1_555
Bi29 O42 2.634837 1_655
Bi30 O40 2.112145 1_555
Bi30 O58 2.264822 1_555
Bi30 O48 2.299761 1_555
Bi30 O44 2.511729 1_555
Bi30 O37 2.652226 1_555
Bi31 O89 2.104015 1_555
Bi31 O60 2.141681 1_555
Bi31 O31 2.302207 1_555
Bi31 O43 2.472337 1_555
Bi32 O12 2.109927 1_555
Bi32 O14 2.295579 1_555
Bi32 O54 2.318683 1_555
Bi32 O7 2.510784 1_555
Bi32 O45 2.540495 1_555
Bi33 O66 2.105841 1_455
Bi33 O68 2.296745 1_555
Bi33 O53 2.300333 1_455
Bi33 O47 2.528398 1_455
Bi33 O56 2.543252 1_555
Bi34 O65 2.117062 1_555
Bi34 O15 2.268287 1_555
Bi34 O52 2.299761 1_555
Bi34 O55 2.518965 1_555
Bi34 O46 2.632859 1_555
Bi35 O64 2.105020 1_555
Bi35 O49 2.298782 1_555
Bi35 O66 2.307997 1_555
Bi35 O70 2.513197 1_555
Bi35 O72 2.570862 1_545
Bi36 O62 2.111073 1_555
Bi36 O65 2.218887 1_555
Bi36 O48 2.252023 1_555
Bi36 O71 2.617160 1_555
Bi36 O51 2.782483 1_555
Bi37 O80 2.113231 1_545
Bi37 O50 2.238026 1_555
Bi37 O67 2.322377 1_555
Bi37 O70 2.476594 1_555
Bi37 O73 2.657555 1_545
Bi38 O33 2.119493 1_555
Bi38 O61 2.276300 1_555
Bi38 O42 2.279238 1_555
Bi38 O7 2.558717 1_555
Bi38 O59 2.594393 1_555
Bi39 O53 2.114522 1_455
Bi39 O78 2.220353 1_455
Bi39 O43 2.294655 1_555
Bi39 O74 2.582579 1_445
Bi39 O60 2.676624 1_555
Bi40 O54 2.107113 1_555
Bi40 O61 2.299314 1_655
Bi40 O44 2.323093 1_555
Bi40 O20 2.498948 1_555
Bi40 O58 2.545444 1_555
Bi41 O57 2.265492 1_555
Bi41 O87 2.273516 1_555
Bi41 O70 2.275560 1_555
Bi41 O56 2.278920 1_555
Bi42 O60 2.129114 1_555
Bi42 O68 2.227066 1_555
Bi42 O75 2.338018 1_555
Bi42 O57 2.447066 1_555
Bi42 O63 2.674079 1_555
Bi43 O94 2.109429 1_455
Bi43 O50 2.289284 1_555
Bi43 O77 2.325119 1_455
Bi43 O56 2.511400 1_555
Bi43 O64 2.522586 1_455
Bi44 O58 2.111737 1_555
Bi44 O14 2.268024 1_555
Bi44 O76 2.333639 1_555
Bi44 O55 2.467275 1_555
Bi44 O62 2.610298 1_555
Bi45 O28 2.118346 1_555
Bi45 O30 2.264926 1_555
Bi45 O71 2.300568 1_565
Bi45 O37 2.477585 1_455
Bi45 O65 2.617955 1_565
Bi46 O82 2.095087 1_555
Bi46 O73 2.147538 1_555
Bi46 O83 2.299777 1_555
Bi46 O67 2.499904 1_565
Bi47 O81 2.106689 1_555
Bi47 O72 2.243267 1_555
Bi47 O31 2.309031 1_555
Bi47 O66 2.516298 1_565
Bi47 O74 2.735845 1_555
Bi48 O79 2.111419 1_555
Bi48 O68 2.315083 1_565
Bi48 O81 2.324955 1_455
Bi48 O70 2.505635 1_565
Bi48 O85 2.509371 1_555
Bi49 O1 2.112062 1_556
Bi49 O69 2.243509 1_565
Bi49 O84 2.346605 1_555
Bi49 O82 2.436338 1_555
Bi49 O86 2.755196 1_555
Bi50 O52 2.105259 1_655
Bi50 O62 2.226108 1_555
Bi50 O78 2.327457 1_555
Bi50 O76 2.466797 1_555
Bi50 O37 2.791434 1_545
Bi51 O71 2.100168 1_555
Bi51 O63 2.154240 1_555
Bi51 O78 2.295291 1_555
Bi51 O75 2.444717 1_555
Bi52 O73 2.126439 1_555
Bi52 O90 2.282707 1_555
Bi52 O64 2.302160 1_565
Bi52 O87 2.499806 1_555
Bi52 O77 2.561980 1_565
Bi53 O20 2.265610 1_455
Bi53 O7 2.266290 1_555
Bi53 O55 2.277758 1_555
Bi53 O32 2.281190 1_545
Bi54 O77 2.106677 1_465
Bi54 O88 2.154168 1_455
Bi54 O83 2.303367 1_455
Bi54 O80 2.416768 1_555
Bi55 O75 2.119279 1_565
Bi55 O30 2.256068 1_555
Bi55 O89 2.314095 1_555
Bi55 O74 2.511479 1_455
Bi55 O79 2.605862 1_555
Bi56 O47 2.109621 1_555
Bi56 O49 2.306063 1_555
Bi56 O85 2.316182 1_655
Bi56 O57 2.509487 1_555
Bi56 O81 2.528854 1_555
Bi57 O92 2.112598 1_555
Bi57 O86 2.250837 1_555
Bi57 O50 2.330429 1_555
Bi57 O82 2.463254 1_555
Bi57 O87 2.653872 1_555
Bi58 O91 2.139637 1_555
Bi58 O83 2.213834 1_555
Bi58 O84 2.276713 1_655
Bi58 O92 2.498750 1_555
Bi59 O72 2.116060 1_555
Bi59 O79 2.277593 1_555
Bi59 O90 2.288585 1_555
Bi59 O57 2.562540 1_555
Bi59 O89 2.568877 1_555
Bi60 O85 2.107412 1_555
Bi60 O90 2.271648 1_555
Bi60 O80 2.357155 1_555
Bi60 O56 2.436098 1_555
Bi60 O88 2.606134 1_455
Bi61 O88 2.134151 1_555
Bi61 O49 2.261251 1_555
Bi61 O94 2.342714 1_555
Bi61 O87 2.388419 1_555
Bi61 O91 2.631183 1_555
Bi62 O67 2.115492 1_555
Bi62 O93 2.145250 1_555
Bi62 O69 2.334917 1_555
Bi62 O92 2.357159 1_555
Bi63 O86 2.100939 1_655
Bi63 O91 2.153318 1_555
Bi63 O95 2.302285 1_556
Bi63 O94 2.454357 1_555
