# generated using pymatgen
data_MoSe2Cl4O
_symmetry_space_group_name_H-M   'P 1'
_cell_length_a   7.97391182
_cell_length_b   16.21087795
_cell_length_c   28.35458778
_cell_angle_alpha   102.93402898
_cell_angle_beta   90.00000000
_cell_angle_gamma   90.00000000
_symmetry_Int_Tables_number   1
_chemical_formula_structural   MoSe2Cl4O
_chemical_formula_sum   'Mo16 Se32 Cl64 O16'
_cell_volume   3572.23793587
_cell_formula_units_Z   16
loop_
 _symmetry_equiv_pos_site_id
 _symmetry_equiv_pos_as_xyz
  1  'x, y, z'
loop_
 _atom_site_type_symbol
 _atom_site_label
 _atom_site_symmetry_multiplicity
 _atom_site_fract_x
 _atom_site_fract_y
 _atom_site_fract_z
 _atom_site_occupancy
  Mo  Mo0  1  0.88245984  0.08370944  0.06240232  1
  Mo  Mo1  1  0.61754016  0.08370944  0.56240232  1
  Mo  Mo2  1  0.28249514  0.67466312  0.77803183  1
  Mo  Mo3  1  0.21750486  0.67466312  0.27803183  1
  Mo  Mo4  1  0.38245984  0.91629056  0.43759768  1
  Mo  Mo5  1  0.91113371  0.60640312  0.55438832  1
  Mo  Mo6  1  0.71750486  0.32533688  0.22196817  1
  Mo  Mo7  1  0.78249514  0.32533688  0.72196817  1
  Mo  Mo8  1  0.11754016  0.91629056  0.93759768  1
  Mo  Mo9  1  0.78972453  0.81572163  0.24010663  1
  Mo  Mo10  1  0.21027547  0.18427837  0.75989337  1
  Mo  Mo11  1  0.08886629  0.39359688  0.44561168  1
  Mo  Mo12  1  0.71027547  0.81572163  0.74010663  1
  Mo  Mo13  1  0.41113371  0.39359688  0.94561168  1
  Mo  Mo14  1  0.58886629  0.60640312  0.05438832  1
  Mo  Mo15  1  0.28972453  0.18427837  0.25989337  1
  Se  Se0  1  0.22458652  0.43767543  0.65194968  1
  Se  Se1  1  0.72458652  0.56232457  0.84805032  1
  Se  Se2  1  0.51324142  0.03787627  0.85143724  1
  Se  Se3  1  0.27541348  0.43767543  0.15194968  1
  Se  Se4  1  0.49046096  0.86863969  0.07317798  1
  Se  Se5  1  0.73222716  0.18608733  0.40904361  1
  Se  Se6  1  0.55608122  0.37263526  0.58365788  1
  Se  Se7  1  0.47763149  0.49934850  0.63640655  1
  Se  Se8  1  0.76571173  0.09640823  0.83245717  1
  Se  Se9  1  0.94391878  0.37263526  0.08365788  1
  Se  Se10  1  0.77541348  0.56232457  0.34805032  1
  Se  Se11  1  0.00953904  0.86863969  0.57317798  1
  Se  Se12  1  0.73428827  0.09640823  0.33245717  1
  Se  Se13  1  0.48675858  0.96212373  0.14856276  1
  Se  Se14  1  0.26777284  0.81391267  0.59095639  1
  Se  Se15  1  0.99046096  0.13136031  0.42682202  1
  Se  Se16  1  0.23428827  0.90359177  0.16754283  1
  Se  Se17  1  0.97763149  0.50065150  0.86359345  1
  Se  Se18  1  0.76777284  0.18608733  0.90904361  1
  Se  Se19  1  0.50953904  0.13136031  0.92682202  1
  Se  Se20  1  0.19735605  0.31218610  0.09903085  1
  Se  Se21  1  0.05608122  0.62736474  0.91634212  1
  Se  Se22  1  0.52236851  0.50065150  0.36359345  1
  Se  Se23  1  0.98675858  0.03787627  0.35143724  1
  Se  Se24  1  0.30264395  0.31218610  0.59903085  1
  Se  Se25  1  0.80264395  0.68781390  0.90096915  1
  Se  Se26  1  0.69735605  0.68781390  0.40096915  1
  Se  Se27  1  0.44391878  0.62736474  0.41634212  1
  Se  Se28  1  0.23222716  0.81391267  0.09095639  1
  Se  Se29  1  0.01324142  0.96212373  0.64856276  1
  Se  Se30  1  0.02236851  0.49934850  0.13640655  1
  Se  Se31  1  0.26571173  0.90359177  0.66754283  1
  Cl  Cl0  1  0.51648802  0.68972413  0.99651948  1
  Cl  Cl1  1  0.05411544  0.80764437  0.98224842  1
  Cl  Cl2  1  0.83923062  0.49584070  0.59701720  1
  Cl  Cl3  1  0.57504647  0.29658160  0.14483553  1
  Cl  Cl4  1  0.07504647  0.70341840  0.35516447  1
  Cl  Cl5  1  0.15103933  0.32713980  0.75600403  1
  Cl  Cl6  1  0.82815917  0.46948605  0.46725757  1
  Cl  Cl7  1  0.25942047  0.63907373  0.19113671  1
  Cl  Cl8  1  0.01648802  0.31027587  0.50348052  1
  Cl  Cl9  1  0.17630165  0.04767901  0.91252568  1
  Cl  Cl10  1  0.67184083  0.46948605  0.96725757  1
  Cl  Cl11  1  0.35816935  0.03633557  0.25634592  1
  Cl  Cl12  1  0.48351198  0.31027587  0.00348052  1
  Cl  Cl13  1  0.33923062  0.50415930  0.90298280  1
  Cl  Cl14  1  0.37539022  0.37120028  0.45693647  1
  Cl  Cl15  1  0.09580722  0.90414572  0.45250042  1
  Cl  Cl16  1  0.14694854  0.53114607  0.27163941  1
  Cl  Cl17  1  0.23287067  0.14844830  0.67497106  1
  Cl  Cl18  1  0.75942047  0.36092627  0.30886329  1
  Cl  Cl19  1  0.64183065  0.96366443  0.74365408  1
  Cl  Cl20  1  0.85816935  0.96366443  0.24365408  1
  Cl  Cl21  1  0.83877248  0.18132774  0.72882287  1
  Cl  Cl22  1  0.12460978  0.37120028  0.95693647  1
  Cl  Cl23  1  0.98351198  0.68972413  0.49651948  1
  Cl  Cl24  1  0.34896067  0.32713980  0.25600403  1
  Cl  Cl25  1  0.62460978  0.62879972  0.54306353  1
  Cl  Cl26  1  0.34258617  0.02660190  0.53934496  1
  Cl  Cl27  1  0.82369835  0.95232099  0.08747432  1
  Cl  Cl28  1  0.92495353  0.29658160  0.64483553  1
  Cl  Cl29  1  0.32815917  0.53051395  0.03274243  1
  Cl  Cl30  1  0.17184083  0.53051395  0.53274243  1
  Cl  Cl31  1  0.87539022  0.62879972  0.04306353  1
  Cl  Cl32  1  0.76712933  0.85155170  0.32502894  1
  Cl  Cl33  1  0.64694854  0.46885393  0.22836059  1
  Cl  Cl34  1  0.84258617  0.97339810  0.96065504  1
  Cl  Cl35  1  0.65103933  0.67286020  0.74399597  1
  Cl  Cl36  1  0.67630165  0.95232099  0.58747432  1
  Cl  Cl37  1  0.74057953  0.36092627  0.80886329  1
  Cl  Cl38  1  0.15741383  0.02660190  0.03934496  1
  Cl  Cl39  1  0.26712933  0.14844830  0.17497106  1
  Cl  Cl40  1  0.59580722  0.09585428  0.04749958  1
  Cl  Cl41  1  0.92387460  0.78651706  0.16095338  1
  Cl  Cl42  1  0.14183065  0.03633557  0.75634592  1
  Cl  Cl43  1  0.55411544  0.19235563  0.51775158  1
  Cl  Cl44  1  0.24057953  0.63907373  0.69113671  1
  Cl  Cl45  1  0.44588456  0.80764437  0.48224842  1
  Cl  Cl46  1  0.73287067  0.85155170  0.82502894  1
  Cl  Cl47  1  0.84896067  0.67286020  0.24399597  1
  Cl  Cl48  1  0.33877248  0.81867226  0.77117713  1
  Cl  Cl49  1  0.85305146  0.46885393  0.72836059  1
  Cl  Cl50  1  0.66076938  0.49584070  0.09701720  1
  Cl  Cl51  1  0.40419278  0.90414572  0.95250042  1
  Cl  Cl52  1  0.42495353  0.70341840  0.85516447  1
  Cl  Cl53  1  0.07612540  0.21348294  0.83904662  1
  Cl  Cl54  1  0.42387460  0.21348294  0.33904662  1
  Cl  Cl55  1  0.94588456  0.19235563  0.01775158  1
  Cl  Cl56  1  0.57612540  0.78651706  0.66095338  1
  Cl  Cl57  1  0.35305146  0.53114607  0.77163941  1
  Cl  Cl58  1  0.16122752  0.81867226  0.27117713  1
  Cl  Cl59  1  0.90419278  0.09585428  0.54749958  1
  Cl  Cl60  1  0.66122752  0.18132774  0.22882287  1
  Cl  Cl61  1  0.65741383  0.97339810  0.46065504  1
  Cl  Cl62  1  0.32369835  0.04767901  0.41252568  1
  Cl  Cl63  1  0.16076938  0.50415930  0.40298280  1
  O  O0  1  0.08576237  0.18866332  0.27733637  1
  O  O1  1  0.08740792  0.85375658  0.88206928  1
  O  O2  1  0.91423763  0.81133668  0.72266363  1
  O  O3  1  0.46257436  0.31888355  0.89589604  1
  O  O4  1  0.91259208  0.14624342  0.11793072  1
  O  O5  1  0.58225011  0.31989175  0.70253702  1
  O  O6  1  0.53742564  0.68111645  0.10410396  1
  O  O7  1  0.08225011  0.68010825  0.79746298  1
  O  O8  1  0.03742564  0.31888355  0.39589604  1
  O  O9  1  0.58740792  0.14624342  0.61793072  1
  O  O10  1  0.58576237  0.81133668  0.22266363  1
  O  O11  1  0.41423763  0.18866332  0.77733637  1
  O  O12  1  0.41259208  0.85375658  0.38206928  1
  O  O13  1  0.41774989  0.68010825  0.29746298  1
  O  O14  1  0.96257436  0.68111645  0.60410396  1
  O  O15  1  0.91774989  0.31989175  0.20253702  1
loop_
_geom_bond_atom_site_label_1
_geom_bond_atom_site_label_2
_geom_bond_distance
_geom_bond_site_symmetry_2
Mo0 O4 1.688157 1_555
Mo1 O9 1.688157 1_555
Mo2 O7 1.684977 1_555
Mo3 O13 1.684977 1_555
Mo4 O12 1.688157 1_555
Mo5 O14 1.690572 1_555
Mo6 O15 1.684977 1_555
Mo7 O5 1.684977 1_555
Mo8 O1 1.688157 1_555
Mo9 O10 1.696771 1_555
Mo10 O11 1.696771 1_555
Mo11 O8 1.690572 1_555
Mo12 O2 1.696771 1_555
Mo13 O3 1.690572 1_555
Mo14 O6 1.690572 1_555
Mo15 O0 1.696771 1_555
Se0 Se24 2.326109 1_555
Se0 Se7 2.337173 1_555
Se1 Se25 2.326109 1_555
Se1 Se17 2.337173 1_555
Se2 Se8 2.339108 1_555
Se3 Se30 2.337173 1_555
Se6 Se7 2.339328 1_555
Se10 Se26 2.326109 1_555
Se10 Se22 2.337173 1_555
Se11 Se29 2.327297 1_555
Se11 Se14 2.341245 1_555
Se12 Se5 2.327280 1_555
Se12 Se23 2.339108 1_555
Se13 Se4 2.327297 1_555
Se13 Se16 2.339108 1_555
Se14 Se31 2.327280 1_555
Se15 Se23 2.327297 1_555
Se15 Se5 2.341245 1_555
Se16 Se28 2.327280 1_555
Se17 Se21 2.339328 1_655
Se18 Se8 2.327280 1_555
Se18 Se19 2.341245 1_555
Se19 Se2 2.327297 1_555
Se20 Se3 2.326109 1_555
Se20 Se9 2.329264 1_455
Se21 Se25 2.329264 1_455
Se22 Se27 2.339328 1_555
Se24 Se6 2.329264 1_555
Se26 Se27 2.329264 1_555
Se28 Se4 2.341245 1_555
Se29 Se31 2.339108 1_555
Se30 Se9 2.339328 1_455
Cl0 Mo14 2.417028 1_556
Cl1 Mo8 2.441080 1_555
Cl2 Mo5 2.443756 1_555
Cl2 Se6 2.981876 1_555
Cl3 Mo6 2.415480 1_555
Cl4 Mo3 2.415480 1_555
Cl5 Mo10 2.390196 1_555
Cl5 Mo7 3.091242 1_455
Cl6 Mo11 2.423592 1_655
Cl6 Mo5 3.002174 1_555
Cl7 Mo3 2.424645 1_555
Cl8 Mo11 2.417028 1_555
Cl9 Mo8 2.437075 1_545
Cl9 Se19 2.969700 1_555
Cl10 Mo13 2.423592 1_555
Cl10 Mo14 3.002174 1_556
Cl11 Mo15 2.439622 1_555
Cl12 Mo13 2.417028 1_554
Cl13 Mo13 2.443756 1_555
Cl13 Se21 2.981876 1_555
Cl14 Mo11 2.346710 1_555
Cl15 Mo4 2.340765 1_555
Cl16 Mo3 2.360802 1_555
Cl17 Mo10 2.354122 1_555
Cl18 Mo6 2.424645 1_555
Cl19 Mo12 2.439622 1_555
Cl20 Mo9 2.439622 1_555
Cl21 Mo7 2.427392 1_555
Cl21 Mo10 3.087876 1_655
Cl22 Mo13 2.346710 1_555
Cl23 Mo5 2.417028 1_555
Cl24 Mo15 2.390196 1_555
Cl24 Mo6 3.091242 1_555
Cl25 Mo5 2.346710 1_555
Cl26 Mo1 2.412551 1_555
Cl26 Mo4 3.051662 1_545
Cl27 Mo0 2.437075 1_565
Cl27 Se4 2.969700 1_555
Cl28 Mo7 2.415480 1_555
Cl29 Mo14 2.423592 1_555
Cl29 Mo13 3.002174 1_554
Cl30 Mo5 2.423592 1_455
Cl30 Mo11 3.002174 1_555
Cl31 Mo14 2.346710 1_555
Cl32 Mo9 2.354122 1_555
Cl33 Mo6 2.360802 1_555
Cl34 Mo8 2.412551 1_655
Cl34 Mo0 3.051662 1_566
Cl35 Mo12 2.390196 1_555
Cl35 Mo2 3.091242 1_555
Cl36 Mo1 2.437075 1_565
Cl36 Se11 2.969700 1_655
Cl37 Mo7 2.424645 1_555
Cl38 Mo0 2.412551 1_455
Cl38 Mo8 3.051662 1_544
Cl39 Mo15 2.354122 1_555
Cl40 Mo0 2.340765 1_555
Cl41 Mo9 2.435135 1_555
Cl42 Mo10 2.439622 1_555
Cl43 Mo1 2.441080 1_555
Cl44 Mo2 2.424645 1_555
Cl45 Mo4 2.441080 1_555
Cl46 Mo12 2.354122 1_555
Cl47 Mo9 2.390196 1_555
Cl47 Mo3 3.091242 1_655
Cl48 Mo2 2.427392 1_555
Cl48 Mo12 3.087876 1_555
Cl49 Mo7 2.360802 1_555
Cl50 Mo14 2.443756 1_555
Cl50 Se9 2.981876 1_555
Cl51 Mo8 2.340765 1_555
Cl52 Mo2 2.415480 1_555
Cl53 Mo10 2.435135 1_555
Cl54 Mo15 2.435135 1_555
Cl55 Mo0 2.441080 1_555
Cl56 Mo12 2.435135 1_555
Cl57 Mo2 2.360802 1_555
Cl58 Mo3 2.427392 1_555
Cl58 Mo9 3.087876 1_455
Cl59 Mo1 2.340765 1_555
Cl60 Mo6 2.427392 1_555
Cl60 Mo15 3.087876 1_555
Cl61 Mo4 2.412551 1_555
Cl61 Mo1 3.051662 1_565
Cl62 Mo4 2.437075 1_545
Cl62 Se15 2.969700 1_455
Cl63 Mo11 2.443756 1_555
Cl63 Se27 2.981876 1_555
