# generated using pymatgen
data_Ca8MgSi4(ClO8)2
_symmetry_space_group_name_H-M   'P 1'
_cell_length_a   10.81299158
_cell_length_b   11.28351578
_cell_length_c   11.20609968
_cell_angle_alpha   58.98237064
_cell_angle_beta   60.22805409
_cell_angle_gamma   61.14419590
_symmetry_Int_Tables_number   1
_chemical_formula_structural   Ca8MgSi4(ClO8)2
_chemical_formula_sum   'Ca16 Mg2 Si8 Cl4 O32'
_cell_volume   968.68306278
_cell_formula_units_Z   2
loop_
 _symmetry_equiv_pos_site_id
 _symmetry_equiv_pos_as_xyz
  1  'x, y, z'
loop_
 _atom_site_type_symbol
 _atom_site_label
 _atom_site_symmetry_multiplicity
 _atom_site_fract_x
 _atom_site_fract_y
 _atom_site_fract_z
 _atom_site_occupancy
  Ca  Ca0  1  0.10977000  0.68413900  0.07358400  1
  Ca  Ca1  1  0.12001800  0.17279000  0.63837100  1
  Ca  Ca2  1  0.89615100  0.52815000  0.52503500  1
  Ca  Ca3  1  0.08670700  0.64998200  0.68789800  1
  Ca  Ca4  1  0.74478900  0.13378800  0.99733100  1
  Ca  Ca5  1  0.50540000  0.50970800  0.96743800  1
  Ca  Ca6  1  0.52398800  0.00861300  0.41296700  1
  Ca  Ca7  1  0.30367600  0.36580200  0.95336100  1
  Ca  Ca8  1  0.32222900  0.90316200  0.35882300  1
  Ca  Ca9  1  0.51296200  0.56982400  0.47470800  1
  Ca  Ca10  1  0.71319000  0.63712600  0.10215200  1
  Ca  Ca11  1  0.69813500  0.06230800  0.62027700  1
  Ca  Ca12  1  0.39601000  0.87740200  0.80759500  1
  Ca  Ca13  1  0.86746900  0.36195700  0.36310800  1
  Ca  Ca14  1  0.95550300  0.32952800  0.90300600  1
  Ca  Ca15  1  0.90439700  0.90381700  0.32780200  1
  Mg  Mg0  1  0.12453500  0.12071700  0.15222700  1
  Mg  Mg1  1  0.85887400  0.89210800  0.85885700  1
  Si  Si0  1  0.23892400  0.28263400  0.27470900  1
  Si  Si1  1  0.30940600  0.26532300  0.76591400  1
  Si  Si2  1  0.31976800  0.77928900  0.17714300  1
  Si  Si3  1  0.73058000  0.27255200  0.21791000  1
  Si  Si4  1  0.24919900  0.78622700  0.71185400  1
  Si  Si5  1  0.62135700  0.25424900  0.75582600  1
  Si  Si6  1  0.74593400  0.78577600  0.25172400  1
  Si  Si7  1  0.78390600  0.69810600  0.75446900  1
  Cl  Cl0  1  0.01749200  0.49317100  0.07027800  1
  Cl  Cl1  1  0.99550700  0.04116400  0.48340500  1
  Cl  Cl2  1  0.05389400  0.99674000  0.95100400  1
  Cl  Cl3  1  0.46662100  0.91410900  0.00454700  1
  O  O0  1  0.24169300  0.17531300  0.21061800  1
  O  O1  1  0.29759700  0.41794900  0.13446600  1
  O  O2  1  0.19900900  0.23016200  0.94183100  1
  O  O3  1  0.17159800  0.90308100  0.23654400  1
  O  O4  1  0.27685800  0.44130200  0.70234600  1
  O  O5  1  0.07148700  0.79595000  0.80200500  1
  O  O6  1  0.69627700  0.40447900  0.26254800  1
  O  O7  1  0.29642200  0.72449500  0.58499600  1
  O  O8  1  0.48654900  0.20296800  0.77203800  1
  O  O9  1  0.41255500  0.68627800  0.29028500  1
  O  O10  1  0.90972400  0.17440500  0.18854600  1
  O  O11  1  0.29074900  0.94005600  0.62595900  1
  O  O12  1  0.32904900  0.67716300  0.84071500  1
  O  O13  1  0.67779100  0.34980800  0.58186700  1
  O  O14  1  0.74738300  0.59938700  0.32039900  1
  O  O15  1  0.55347700  0.32964100  0.87569300  1
  O  O16  1  0.55636000  0.82451200  0.35463900  1
  O  O17  1  0.75007200  0.10026900  0.80127400  1
  O  O18  1  0.78750900  0.81767200  0.07299500  1
  O  O19  1  0.69585700  0.32074700  0.06832300  1
  O  O20  1  0.73206900  0.96792400  0.22180200  1
  O  O21  1  0.08318400  0.33139000  0.40213300  1
  O  O22  1  0.92195400  0.33261600  0.72531200  1
  O  O23  1  0.53667400  0.01859900  0.59936500  1
  O  O24  1  0.30960400  0.70895300  0.09009300  1
  O  O25  1  0.28304100  0.19358300  0.69248200  1
  O  O26  1  0.91212700  0.71864800  0.29000400  1
  O  O27  1  0.68919400  0.92947200  0.52896500  1
  O  O28  1  0.61809900  0.68858400  0.80541500  1
  O  O29  1  0.86769800  0.56189400  0.87658500  1
  O  O30  1  0.91126900  0.68352400  0.59240400  1
  O  O31  1  0.78368300  0.83632100  0.77243000  1
loop_
_geom_bond_atom_site_label_1
_geom_bond_atom_site_label_2
_geom_bond_distance
_geom_bond_site_symmetry_2
Ca0 O26 2.371373 1_455
Ca0 O24 2.411643 1_555
Ca0 O12 2.514904 1_554
Ca0 O1 2.643466 1_555
Ca0 O5 2.795523 1_554
Ca0 Cl0 2.798990 1_555
Ca0 Cl2 2.909834 1_554
Ca0 O18 3.059024 1_455
Ca1 O22 2.190631 1_455
Ca1 O25 2.266585 1_555
Ca1 O11 2.401195 1_545
Ca1 O21 2.417858 1_555
Ca1 Cl2 2.905507 1_545
Ca2 O22 2.215203 1_555
Ca2 O30 2.330982 1_555
Ca2 O26 2.378858 1_555
Ca2 O21 2.639560 1_655
Ca2 O14 3.001350 1_555
Ca3 O4 2.250076 1_555
Ca3 O7 2.328741 1_555
Ca3 O30 2.406792 1_455
Ca3 O5 2.464700 1_555
Ca3 O29 2.490003 1_455
Ca4 O20 2.214061 1_546
Ca4 O19 2.365862 1_556
Ca4 O17 2.384145 1_555
Ca4 O15 2.510844 1_555
Ca4 Cl2 2.819137 1_645
Ca5 O28 2.292443 1_555
Ca5 O19 2.378029 1_556
Ca5 O12 2.381000 1_555
Ca5 O1 2.386591 1_556
Ca5 O15 2.461292 1_555
Ca5 O24 2.669540 1_556
Ca6 O23 2.221848 1_555
Ca6 O20 2.256581 1_545
Ca6 O27 2.290912 1_545
Ca6 O16 2.309815 1_545
Ca6 O11 2.580311 1_545
Ca7 O15 2.277599 1_555
Ca7 O1 2.351640 1_556
Ca7 O2 2.379271 1_555
Ca7 O0 2.542740 1_556
Ca7 O4 2.612315 1_555
Ca7 Cl0 2.641888 1_556
Ca8 O16 2.226093 1_555
Ca8 O7 2.267278 1_555
Ca8 O9 2.533331 1_555
Ca8 O0 2.558436 1_565
Ca8 O3 2.598023 1_555
Ca8 Cl1 2.981153 1_465
Ca9 O9 2.286708 1_555
Ca9 O14 2.322784 1_555
Ca9 O7 2.336783 1_555
Ca9 O13 2.358818 1_555
Ca9 O16 2.641737 1_555
Ca9 O4 2.901977 1_555
Ca10 O6 2.330097 1_555
Ca10 O18 2.352895 1_555
Ca10 O14 2.443805 1_555
Ca10 O29 2.559263 1_554
Ca10 Cl0 2.804430 1_655
Ca10 O9 2.824621 1_555
Ca10 Cl3 3.066380 1_555
Ca11 O23 2.168584 1_555
Ca11 O31 2.252512 1_545
Ca11 O27 2.263121 1_545
Ca11 O8 2.461399 1_555
Ca11 O17 2.621352 1_555
Ca11 Cl1 2.736346 1_555
Ca11 O13 2.953551 1_555
Ca12 O23 2.297729 1_565
Ca12 O28 2.315968 1_555
Ca12 O11 2.445258 1_555
Ca12 O12 2.492948 1_555
Ca12 O24 2.661352 1_556
Ca12 O25 2.915420 1_565
Ca12 Cl3 2.923436 1_556
Ca12 Cl2 3.098206 1_555
Ca13 O14 2.242867 1_555
Ca13 O13 2.273050 1_555
Ca13 O6 2.362993 1_555
Ca13 O21 2.414939 1_655
Ca13 Cl0 2.759769 1_655
Ca13 Cl1 2.970463 1_555
Ca14 O22 2.175220 1_555
Ca14 O29 2.222581 1_555
Ca14 O2 2.482879 1_655
Ca14 O19 2.497639 1_556
Ca14 O10 2.653027 1_556
Ca14 Cl2 3.186240 1_645
Ca15 O26 2.293503 1_555
Ca15 O27 2.322339 1_555
Ca15 O20 2.327664 1_555
Ca15 O3 2.538682 1_655
Ca15 O10 2.632601 1_565
Ca15 O30 2.724118 1_555
Mg0 O2 1.950895 1_554
Mg0 O10 1.971020 1_455
Mg0 O3 2.015487 1_545
Mg0 O0 2.098669 1_555
Mg1 O5 1.928380 1_655
Mg1 O18 1.941316 1_556
Mg1 O17 1.960108 1_565
Mg1 O31 1.974734 1_555
Cl1 Mg0 3.026357 1_655
Cl3 Si2 2.196757 1_555
O0 Si0 1.680217 1_555
O1 Si0 1.635664 1_555
O2 Si1 1.668128 1_555
O3 Si2 1.643213 1_555
O4 Si1 1.640376 1_555
O5 Si4 1.645608 1_555
O6 Si3 1.629092 1_555
O7 Si4 1.650197 1_555
O8 Si5 1.713308 1_555
O8 Si1 1.717165 1_555
O9 Si2 1.609715 1_555
O10 Si3 1.661013 1_555
O11 Si4 1.656048 1_555
O12 Si4 1.651157 1_555
O13 Si5 1.619448 1_555
O14 Si6 1.824210 1_555
O15 Si5 1.631736 1_555
O16 Si6 1.740687 1_555
O17 Si5 1.634966 1_555
O18 Si6 1.691792 1_555
O19 Si3 1.653819 1_555
O20 Si6 1.844265 1_555
O21 Si0 1.644647 1_555
O23 O27 1.509410 1_545
O24 Si2 1.606879 1_555
O25 Si1 1.598713 1_555
O26 Si6 1.761813 1_555
O28 Si7 1.630361 1_555
O29 Si7 1.665947 1_555
O30 Si7 1.681477 1_555
O31 Si7 1.670960 1_555
