# generated using pymatgen
data_Ca2FeClO3
_symmetry_space_group_name_H-M   'P 1'
_cell_length_a   3.90141700
_cell_length_b   3.90141700
_cell_length_c   13.68039300
_cell_angle_alpha   90.00000000
_cell_angle_beta   90.00000000
_cell_angle_gamma   90.00000000
_symmetry_Int_Tables_number   1
_chemical_formula_structural   Ca2FeClO3
_chemical_formula_sum   'Ca4 Fe2 Cl2 O6'
_cell_volume   208.23000891
_cell_formula_units_Z   2
loop_
 _symmetry_equiv_pos_site_id
 _symmetry_equiv_pos_as_xyz
  1  'x, y, z'
loop_
 _atom_site_type_symbol
 _atom_site_label
 _atom_site_symmetry_multiplicity
 _atom_site_fract_x
 _atom_site_fract_y
 _atom_site_fract_z
 _atom_site_occupancy
  Ca  Ca0  1  0.00000000  0.50000000  0.34062000  1
  Ca  Ca1  1  0.00000000  0.50000000  0.09429200  1
  Ca  Ca2  1  0.50000000  0.00000000  0.90570800  1
  Ca  Ca3  1  0.50000000  0.00000000  0.65938000  1
  Fe  Fe0  1  0.00000000  0.50000000  0.79099600  1
  Fe  Fe1  1  0.50000000  0.00000000  0.20900400  1
  Cl  Cl0  1  0.00000000  0.50000000  0.57609000  1
  Cl  Cl1  1  0.50000000  0.00000000  0.42391000  1
  O  O0  1  0.50000000  0.50000000  0.76664500  1
  O  O1  1  0.50000000  0.00000000  0.06867200  1
  O  O2  1  0.00000000  0.50000000  0.93132800  1
  O  O3  1  0.50000000  0.50000000  0.23335500  1
  O  O4  1  0.00000000  0.00000000  0.76664500  1
  O  O5  1  0.00000000  0.00000000  0.23335500  1
loop_
_geom_bond_atom_site_label_1
_geom_bond_atom_site_label_2
_geom_bond_distance
_geom_bond_site_symmetry_2
Ca0 O5 2.441026 1_555
Ca0 O5 2.441026 1_565
Ca0 O3 2.441026 1_555
Ca0 O3 2.441026 1_455
Ca0 Cl1 2.984770 1_565
Ca0 Cl1 2.984770 1_455
Ca0 Cl1 2.984770 1_465
Ca0 Cl1 2.984770 1_555
Ca0 Cl0 3.221322 1_555
Ca1 O2 2.229412 1_554
Ca1 O3 2.724799 1_555
Ca1 O3 2.724799 1_455
Ca1 O5 2.724799 1_555
Ca1 O5 2.724799 1_565
Ca1 O1 2.780894 1_565
Ca1 O1 2.780894 1_465
Ca1 O1 2.780894 1_455
Ca1 O1 2.780894 1_555
Ca2 O1 2.229412 1_556
Ca2 O4 2.724799 1_555
Ca2 O4 2.724799 1_655
Ca2 O0 2.724799 1_545
Ca2 O0 2.724799 1_555
Ca2 O2 2.780894 1_655
Ca2 O2 2.780894 1_645
Ca2 O2 2.780894 1_555
Ca2 O2 2.780894 1_545
Ca3 O0 2.441026 1_555
Ca3 O4 2.441026 1_555
Ca3 O4 2.441026 1_655
Ca3 O0 2.441026 1_545
Ca3 Cl0 2.984770 1_645
Ca3 Cl0 2.984770 1_545
Ca3 Cl0 2.984770 1_555
Ca3 Cl0 2.984770 1_655
Ca3 Cl1 3.221322 1_555
Fe0 O2 1.919797 1_555
Fe0 O4 1.978949 1_565
Fe0 O0 1.978949 1_455
Fe0 O0 1.978949 1_555
Fe0 O4 1.978949 1_555
Fe1 O1 1.919797 1_555
Fe1 O3 1.978949 1_545
Fe1 O5 1.978949 1_655
Fe1 O5 1.978949 1_555
Fe1 O3 1.978949 1_555
Cl0 Fe0 2.939999 1_555
Cl1 Fe1 2.939999 1_555
