# generated using pymatgen
data_RbAl6H20N5F24
_symmetry_space_group_name_H-M   'P 1'
_cell_length_a   5.33835400
_cell_length_b   5.37908076
_cell_length_c   18.60950673
_cell_angle_alpha   88.69767767
_cell_angle_beta   89.56456097
_cell_angle_gamma   89.01197317
_symmetry_Int_Tables_number   1
_chemical_formula_structural   RbAl6H20N5F24
_chemical_formula_sum   'Rb1 Al6 H20 N5 F24'
_cell_volume   534.14876903
_cell_formula_units_Z   1
loop_
 _symmetry_equiv_pos_site_id
 _symmetry_equiv_pos_as_xyz
  1  'x, y, z'
loop_
 _atom_site_type_symbol
 _atom_site_label
 _atom_site_symmetry_multiplicity
 _atom_site_fract_x
 _atom_site_fract_y
 _atom_site_fract_z
 _atom_site_occupancy
  Rb  Rb0  1  0.60873800  0.91591800  0.17097300  1
  Al  Al0  1  0.77662200  0.15087800  0.66354800  1
  Al  Al1  1  0.01478400  0.01380400  0.00561600  1
  Al  Al2  1  0.08698200  0.83029600  0.32808300  1
  Al  Al3  1  0.25999800  0.64228600  0.65280500  1
  Al  Al4  1  0.50657400  0.51172700  0.99989400  1
  Al  Al5  1  0.60666700  0.33739500  0.33832200  1
  H  H0  1  0.88668400  0.48039500  0.82396200  1
  H  H1  1  0.42714100  0.17743200  0.88481300  1
  H  H2  1  0.07052800  0.15911100  0.47930600  1
  H  H3  1  0.28607800  0.19517100  0.76026900  1
  H  H4  1  0.59828800  0.04760800  0.82119200  1
  H  H5  1  0.65149200  0.96395600  0.90489800  1
  H  H6  1  0.16805100  0.16654200  0.78012800  1
  H  H7  1  0.44289600  0.79187600  0.74300500  1
  H  H8  1  0.37900400  0.87299100  0.86847600  1
  H  H9  1  0.48587900  0.75007400  0.41555700  1
  H  H10  1  0.09215000  0.85354500  0.41162800  1
  H  H11  1  0.97451400  0.68445100  0.52395900  1
  H  H12  1  0.68058100  0.80411300  0.52444100  1
  H  H13  1  0.72629300  0.49603400  0.51077100  1
  H  H14  1  0.78028100  0.61531700  0.59087600  1
  H  H15  1  0.52445600  0.44061500  0.15299400  1
  H  H16  1  0.14320800  0.54028100  0.19389600  1
  H  H17  1  0.88534300  0.37522100  0.20063900  1
  H  H18  1  0.11126000  0.26150200  0.14789300  1
  H  H19  1  0.14538900  0.26548800  0.23849300  1
  N  N0  1  0.99892000  0.55140900  0.86415900  1
  N  N1  1  0.21842400  0.23497900  0.50762500  1
  N  N2  1  0.50787000  0.01069600  0.87017500  1
  N  N3  1  0.78927900  0.64928700  0.53685500  1
  N  N4  1  0.07710000  0.36165100  0.19429600  1
  F  F0  1  0.52858400  0.51053700  0.90839800  1
  F  F1  1  0.31776800  0.66395400  0.75831600  1
  F  F2  1  0.01767700  0.41286700  0.66059500  1
  F  F3  1  0.51253800  0.40981400  0.65838200  1
  F  F4  1  0.76527600  0.13553600  0.57273900  1
  F  F5  1  0.65810600  0.35914200  0.42642300  1
  F  F6  1  0.98303500  0.04109000  0.91507700  1
  F  F7  1  0.35953400  0.12874100  0.31553800  1
  F  F8  1  0.76561700  0.17036000  0.75652400  1
  F  F9  1  0.83978500  0.10355100  0.31029800  1
  F  F10  1  0.02245900  0.88833900  0.66941000  1
  F  F11  1  0.13375100  0.83789000  0.23454900  1
  F  F12  1  0.52450700  0.89571900  0.67468100  1
  F  F13  1  0.04244700  0.00507300  0.10072700  1
  F  F14  1  0.28208200  0.71251200  0.56352600  1
  F  F15  1  0.74843800  0.77057700  0.01497700  1
  F  F16  1  0.58566500  0.88699800  0.42631300  1
  F  F17  1  0.26393400  0.76333900  0.00155700  1
  F  F18  1  0.36809400  0.59036800  0.33108100  1
  F  F19  1  0.84819200  0.58117900  0.31430000  1
  F  F20  1  0.58204900  0.39216900  0.21149200  1
  F  F21  1  0.45320800  0.51839700  0.10119800  1
  F  F22  1  0.75108700  0.27083200  0.02006200  1
  F  F23  1  0.26495800  0.26430000  0.00482200  1
loop_
_geom_bond_atom_site_label_1
_geom_bond_atom_site_label_2
_geom_bond_distance
_geom_bond_site_symmetry_2
Al0 F4 1.695389 1_555
Al0 F8 1.736272 1_555
Al0 F10 1.913066 1_645
Al0 F2 1.924300 1_655
Al0 F12 1.945423 1_545
Al0 F3 1.965949 1_555
Al1 F6 1.697454 1_454
Al1 F13 1.776727 1_555
Al1 F17 1.879144 1_545
Al1 F23 1.913183 1_555
Al1 F15 1.952890 1_445
Al1 F22 1.977232 1_455
Al2 H10 1.563074 1_555
Al2 F11 1.756212 1_555
Al2 F19 1.888365 1_455
Al2 F18 1.962645 1_555
Al2 F9 1.982189 1_465
Al2 F7 2.192487 1_565
Al3 F14 1.699118 1_555
Al3 F2 1.805932 1_555
Al3 F3 1.824850 1_555
Al3 F10 1.846616 1_555
Al3 F1 1.996222 1_555
Al3 F12 2.029374 1_555
Al4 F0 1.706003 1_555
Al4 F22 1.857620 1_556
Al4 F17 1.857793 1_556
Al4 F23 1.869574 1_556
Al4 F21 1.905532 1_556
Al4 F15 1.941610 1_556
Al5 F5 1.671458 1_555
Al5 F7 1.805877 1_555
Al5 F9 1.835448 1_555
Al5 F18 1.851043 1_555
Al5 F19 1.898619 1_555
H0 N0 1.045070 1_555
H1 N2 1.029722 1_555
H2 N1 1.046343 1_555
H3 H6 0.744649 1_555
H4 N2 1.044854 1_555
H5 N2 1.030578 1_565
H8 N2 1.020732 1_565
H11 N3 1.035363 1_555
H12 N3 1.029708 1_555
H13 N3 1.028825 1_555
H14 N3 1.018603 1_555
H16 N4 1.029170 1_555
H17 N4 1.031084 1_655
H18 N4 1.041404 1_555
H19 N4 1.027453 1_555
F1 H7 1.002453 1_555
F8 H4 1.627898 1_555
F11 Rb0 2.823824 1_555
F12 H7 1.444354 1_555
F13 Rb0 2.695041 1_445
F16 H9 0.942417 1_555
F20 H15 1.156268 1_555
F20 Rb0 2.687981 1_545
F21 H15 1.109311 1_555
F21 Rb0 2.674236 1_555
