# generated using pymatgen
data_Li5Ca7Sn11
_symmetry_space_group_name_H-M   'P 1'
_cell_length_a   8.87102787
_cell_length_b   8.87102787
_cell_length_c   32.03243700
_cell_angle_alpha   90.00000000
_cell_angle_beta   90.00000000
_cell_angle_gamma   149.75636407
_symmetry_Int_Tables_number   1
_chemical_formula_structural   Li5Ca7Sn11
_chemical_formula_sum   'Li10 Ca14 Sn22'
_cell_volume   1269.67003737
_cell_formula_units_Z   2
loop_
 _symmetry_equiv_pos_site_id
 _symmetry_equiv_pos_as_xyz
  1  'x, y, z'
loop_
 _atom_site_type_symbol
 _atom_site_label
 _atom_site_symmetry_multiplicity
 _atom_site_fract_x
 _atom_site_fract_y
 _atom_site_fract_z
 _atom_site_occupancy
  Li  Li0  1  0.29166200  0.70833800  0.52791800  1
  Li  Li1  1  0.70833800  0.29166200  0.02791800  1
  Li  Li2  1  0.34215800  0.65784200  0.25000000  1
  Li  Li3  1  0.65784200  0.34215800  0.75000000  1
  Li  Li4  1  0.70833800  0.29166200  0.47208200  1
  Li  Li5  1  0.21160000  0.78840000  0.61644000  1
  Li  Li6  1  0.29166200  0.70833800  0.97208200  1
  Li  Li7  1  0.78840000  0.21160000  0.38356000  1
  Li  Li8  1  0.78840000  0.21160000  0.11644000  1
  Li  Li9  1  0.21160000  0.78840000  0.88356000  1
  Ca  Ca0  1  0.89356400  0.10643600  0.89881800  1
  Ca  Ca1  1  0.10643600  0.89356400  0.10118200  1
  Ca  Ca2  1  0.95440000  0.04560000  0.31650400  1
  Ca  Ca3  1  0.04560000  0.95440000  0.68349600  1
  Ca  Ca4  1  0.09663100  0.90336900  0.53018100  1
  Ca  Ca5  1  0.90336900  0.09663100  0.46981900  1
  Ca  Ca6  1  0.10643600  0.89356400  0.39881800  1
  Ca  Ca7  1  0.14877300  0.85122700  0.25000000  1
  Ca  Ca8  1  0.09663100  0.90336900  0.96981900  1
  Ca  Ca9  1  0.90336900  0.09663100  0.03018100  1
  Ca  Ca10  1  0.04560000  0.95440000  0.81650400  1
  Ca  Ca11  1  0.85122700  0.14877300  0.75000000  1
  Ca  Ca12  1  0.95440000  0.04560000  0.18349600  1
  Ca  Ca13  1  0.89356400  0.10643600  0.60118200  1
  Sn  Sn0  1  0.76933800  0.23066200  0.29443000  1
  Sn  Sn1  1  0.60851500  0.39148500  0.32519700  1
  Sn  Sn2  1  0.60851500  0.39148500  0.17480300  1
  Sn  Sn3  1  0.42867000  0.57133000  0.10789700  1
  Sn  Sn4  1  0.72057900  0.27942100  0.56163300  1
  Sn  Sn5  1  0.54527300  0.45472700  0.46153900  1
  Sn  Sn6  1  0.39148500  0.60851500  0.67480300  1
  Sn  Sn7  1  0.45472700  0.54527300  0.96153900  1
  Sn  Sn8  1  0.23066200  0.76933800  0.79443000  1
  Sn  Sn9  1  0.57133000  0.42867000  0.60789700  1
  Sn  Sn10  1  0.72057900  0.27942100  0.93836700  1
  Sn  Sn11  1  0.42867000  0.57133000  0.39210300  1
  Sn  Sn12  1  0.49048800  0.50951200  0.75000000  1
  Sn  Sn13  1  0.57133000  0.42867000  0.89210300  1
  Sn  Sn14  1  0.23066200  0.76933800  0.70557000  1
  Sn  Sn15  1  0.54527300  0.45472700  0.03846100  1
  Sn  Sn16  1  0.76933800  0.23066200  0.20557000  1
  Sn  Sn17  1  0.45472700  0.54527300  0.53846100  1
  Sn  Sn18  1  0.27942100  0.72057900  0.43836700  1
  Sn  Sn19  1  0.39148500  0.60851500  0.82519700  1
  Sn  Sn20  1  0.27942100  0.72057900  0.06163300  1
  Sn  Sn21  1  0.50951200  0.49048800  0.25000000  1
loop_
_geom_bond_atom_site_label_1
_geom_bond_atom_site_label_2
_geom_bond_distance
_geom_bond_site_symmetry_2
Li0 Sn17 2.813274 1_555
Li0 Sn4 2.829163 1_565
Li0 Sn4 2.829163 1_455
Li0 Sn18 2.876189 1_555
Li1 Sn15 2.813274 1_555
Li1 Sn20 2.829163 1_655
Li1 Sn20 2.829163 1_545
Li1 Sn10 2.876189 1_554
Li2 Sn21 2.866390 1_555
Li2 Sn16 2.989423 1_565
Li2 Sn0 2.989423 1_565
Li2 Sn16 2.989423 1_455
Li2 Sn0 2.989423 1_455
Li3 Sn12 2.866390 1_555
Li3 Sn14 2.989423 1_655
Li3 Sn8 2.989423 1_655
Li3 Sn14 2.989423 1_545
Li3 Sn8 2.989423 1_545
Li4 Sn5 2.813274 1_555
Li4 Sn18 2.829163 1_655
Li4 Sn18 2.829163 1_545
Li4 Sn4 2.876189 1_555
Li5 Sn14 2.873658 1_555
Li5 Sn4 2.908836 1_565
Li5 Sn4 2.908836 1_455
Li5 Sn9 3.347006 1_565
Li5 Sn9 3.347006 1_455
Li6 Sn7 2.813274 1_555
Li6 Sn10 2.829163 1_565
Li6 Sn10 2.829163 1_455
Li6 Sn20 2.876189 1_556
Li7 Sn0 2.873658 1_555
Li7 Sn18 2.908836 1_545
Li7 Sn18 2.908836 1_655
Li7 Sn11 3.347006 1_655
Li7 Sn11 3.347006 1_545
Li8 Sn16 2.873658 1_555
Li8 Sn20 2.908836 1_545
Li8 Sn20 2.908836 1_655
Li8 Sn3 3.347006 1_655
Li8 Sn3 3.347006 1_545
Li9 Sn8 2.873658 1_555
Li9 Sn10 2.908836 1_565
Li9 Sn10 2.908836 1_455
Li9 Sn13 3.347006 1_565
Li9 Sn13 3.347006 1_455
Ca0 Sn10 3.222315 1_555
Ca0 Sn7 3.238746 1_545
Ca0 Sn7 3.238746 1_655
Ca0 Sn19 3.304270 1_545
Ca0 Sn19 3.304270 1_655
Ca0 Sn13 3.830425 1_545
Ca0 Sn13 3.830425 1_655
Ca1 Sn20 3.222315 1_555
Ca1 Sn15 3.238746 1_455
Ca1 Sn15 3.238746 1_565
Ca1 Sn2 3.304270 1_455
Ca1 Sn2 3.304270 1_565
Ca1 Sn3 3.830425 1_455
Ca1 Sn3 3.830425 1_565
Ca2 Sn0 3.247597 1_555
Ca2 Sn21 3.284004 1_545
Ca2 Sn21 3.284004 1_655
Ca2 Sn11 3.378461 1_655
Ca2 Sn11 3.378461 1_545
Ca2 Sn1 3.521471 1_545
Ca2 Sn1 3.521471 1_655
Ca3 Sn14 3.247597 1_555
Ca3 Sn12 3.284004 1_455
Ca3 Sn12 3.284004 1_565
Ca3 Sn9 3.378461 1_565
Ca3 Sn9 3.378461 1_455
Ca3 Sn6 3.521471 1_455
Ca3 Sn6 3.521471 1_565
Ca4 Sn4 3.298100 1_455
Ca4 Sn4 3.298100 1_565
Ca4 Sn5 3.311179 1_455
Ca4 Sn5 3.311179 1_565
Ca4 Sn17 3.366477 1_565
Ca4 Sn17 3.366477 1_455
Ca4 Sn9 3.426457 1_565
Ca4 Sn9 3.426457 1_455
Ca5 Sn18 3.298100 1_545
Ca5 Sn18 3.298100 1_655
Ca5 Sn17 3.311179 1_545
Ca5 Sn17 3.311179 1_655
Ca5 Sn5 3.366477 1_655
Ca5 Sn5 3.366477 1_545
Ca5 Sn11 3.426457 1_545
Ca5 Sn11 3.426457 1_655
Ca6 Sn18 3.222315 1_555
Ca6 Sn5 3.238746 1_455
Ca6 Sn5 3.238746 1_565
Ca6 Sn1 3.304270 1_455
Ca6 Sn1 3.304270 1_565
Ca6 Sn11 3.830425 1_455
Ca6 Sn11 3.830425 1_565
Ca7 Sn21 3.323375 1_565
Ca7 Sn21 3.323375 1_455
Ca7 Sn1 3.410723 1_455
Ca7 Sn2 3.410723 1_455
Ca7 Sn1 3.410723 1_565
Ca7 Sn2 3.410723 1_565
Ca7 Sn16 3.412517 1_455
Ca7 Sn0 3.412517 1_455
Ca7 Sn16 3.412517 1_565
Ca7 Sn0 3.412517 1_565
Ca8 Sn10 3.298100 1_455
Ca8 Sn10 3.298100 1_565
Ca8 Sn15 3.311179 1_456
Ca8 Sn15 3.311179 1_566
Ca8 Sn7 3.366477 1_565
Ca8 Sn7 3.366477 1_455
Ca8 Sn13 3.426457 1_565
Ca8 Sn13 3.426457 1_455
Ca9 Sn20 3.298100 1_545
Ca9 Sn20 3.298100 1_655
Ca9 Sn7 3.311179 1_544
Ca9 Sn7 3.311179 1_654
Ca9 Sn15 3.366477 1_655
Ca9 Sn15 3.366477 1_545
Ca9 Sn3 3.426457 1_545
Ca9 Sn3 3.426457 1_655
Ca10 Sn8 3.247597 1_555
Ca10 Sn12 3.284004 1_455
Ca10 Sn12 3.284004 1_565
Ca10 Sn13 3.378461 1_565
Ca10 Sn13 3.378461 1_455
Ca10 Sn19 3.521471 1_455
Ca10 Sn19 3.521471 1_565
Ca11 Sn12 3.323375 1_545
Ca11 Sn12 3.323375 1_655
Ca11 Sn19 3.410723 1_545
Ca11 Sn6 3.410723 1_545
Ca11 Sn6 3.410723 1_655
Ca11 Sn19 3.410723 1_655
Ca11 Sn14 3.412517 1_545
Ca11 Sn8 3.412517 1_545
Ca11 Sn8 3.412517 1_655
Ca11 Sn14 3.412517 1_655
Ca12 Sn16 3.247597 1_555
Ca12 Sn21 3.284004 1_545
Ca12 Sn21 3.284004 1_655
Ca12 Sn3 3.378461 1_655
Ca12 Sn3 3.378461 1_545
Ca12 Sn2 3.521471 1_545
Ca12 Sn2 3.521471 1_655
Ca13 Sn4 3.222315 1_555
Ca13 Sn17 3.238746 1_545
Ca13 Sn17 3.238746 1_655
Ca13 Sn6 3.304270 1_655
Ca13 Sn6 3.304270 1_545
Ca13 Sn9 3.830425 1_545
Ca13 Sn9 3.830425 1_655
Sn0 Sn16 2.846402 1_555
Sn0 Sn1 2.925530 1_555
Sn1 Sn21 2.945747 1_555
Sn2 Sn21 2.945747 1_555
Sn4 Sn9 2.954794 1_555
Sn10 Sn13 2.954794 1_555
Sn11 Sn18 2.954794 1_555
Sn11 Sn5 2.989258 1_555
Sn12 Sn6 2.945747 1_555
Sn12 Sn19 2.945747 1_555
Sn13 Sn7 2.989258 1_555
Sn14 Sn8 2.846402 1_555
Sn14 Sn6 2.925530 1_555
Sn15 Sn7 2.911428 1_554
Sn15 Sn3 2.989258 1_555
Sn16 Sn2 2.925530 1_555
Sn17 Sn5 2.911428 1_555
Sn17 Sn9 2.989258 1_555
Sn19 Sn8 2.925530 1_555
Sn20 Sn3 2.954794 1_555
