# generated using pymatgen
data_P3CN4Cl7
_symmetry_space_group_name_H-M   'P 1'
_cell_length_a   13.00942400
_cell_length_b   10.60821500
_cell_length_c   10.77282679
_cell_angle_alpha   68.74226291
_cell_angle_beta   90.00000000
_cell_angle_gamma   90.00000000
_symmetry_Int_Tables_number   1
_chemical_formula_structural   P3CN4Cl7
_chemical_formula_sum   'P12 C4 N16 Cl28'
_cell_volume   1385.56475372
_cell_formula_units_Z   4
loop_
 _symmetry_equiv_pos_site_id
 _symmetry_equiv_pos_as_xyz
  1  'x, y, z'
loop_
 _atom_site_type_symbol
 _atom_site_label
 _atom_site_symmetry_multiplicity
 _atom_site_fract_x
 _atom_site_fract_y
 _atom_site_fract_z
 _atom_site_occupancy
  P  P0  1  0.35095500  0.72596200  0.26126900  1
  P  P1  1  0.39543700  0.57293700  0.75944800  1
  P  P2  1  0.29321600  0.54732000  0.52533800  1
  P  P3  1  0.79321600  0.95268000  0.47466200  1
  P  P4  1  0.85095500  0.77403800  0.73873100  1
  P  P5  1  0.64904500  0.27403800  0.73873100  1
  P  P6  1  0.70678400  0.45268000  0.47466200  1
  P  P7  1  0.10456300  0.07293700  0.75944800  1
  P  P8  1  0.14904500  0.22596200  0.26126900  1
  P  P9  1  0.89543700  0.92706300  0.24055200  1
  P  P10  1  0.20678400  0.04732000  0.52533800  1
  P  P11  1  0.60456300  0.42706300  0.24055200  1
  C  C0  1  0.52099900  0.66693300  0.15117700  1
  C  C1  1  0.47900100  0.33306700  0.84882300  1
  C  C2  1  0.97900100  0.16693300  0.15117700  1
  C  C3  1  0.02099900  0.83306700  0.84882300  1
  N  N0  1  0.13739100  0.10897700  0.60933500  1
  N  N1  1  0.90709400  0.08357800  0.14260900  1
  N  N2  1  0.22519300  0.14071200  0.37464200  1
  N  N3  1  0.72519300  0.35928800  0.62535800  1
  N  N4  1  0.86260900  0.89102300  0.39066500  1
  N  N5  1  0.94420700  0.86083600  0.76351300  1
  N  N6  1  0.27480700  0.64071200  0.37464200  1
  N  N7  1  0.09290600  0.91642200  0.85739100  1
  N  N8  1  0.55579300  0.36083600  0.76351300  1
  N  N9  1  0.44420700  0.63916400  0.23648700  1
  N  N10  1  0.63739100  0.39102300  0.39066500  1
  N  N11  1  0.36260900  0.60897700  0.60933500  1
  N  N12  1  0.40709400  0.41642200  0.85739100  1
  N  N13  1  0.05579300  0.13916400  0.23648700  1
  N  N14  1  0.59290600  0.58357800  0.14260900  1
  N  N15  1  0.77480700  0.85928800  0.62535800  1
  Cl  Cl0  1  0.90460300  0.61171500  0.70045000  1
  Cl  Cl1  1  0.34957200  0.36573800  0.53583200  1
  Cl  Cl2  1  0.73505300  0.18949300  0.90311600  1
  Cl  Cl3  1  0.26494700  0.81050700  0.09688400  1
  Cl  Cl4  1  0.52307800  0.67994400  0.75960900  1
  Cl  Cl5  1  0.47692200  0.32005600  0.24039100  1
  Cl  Cl6  1  0.15042800  0.86573800  0.53583200  1
  Cl  Cl7  1  0.09539700  0.38828500  0.29955000  1
  Cl  Cl8  1  0.40460300  0.88828500  0.29955000  1
  Cl  Cl9  1  0.03382900  0.66773800  0.96919800  1
  Cl  Cl10  1  0.96617100  0.33226200  0.03080200  1
  Cl  Cl11  1  0.76494700  0.68949300  0.90311600  1
  Cl  Cl12  1  0.79233600  0.85251800  0.14604500  1
  Cl  Cl13  1  0.20766400  0.14748200  0.85395500  1
  Cl  Cl14  1  0.59539700  0.11171500  0.70045000  1
  Cl  Cl15  1  0.29233600  0.64748200  0.85395500  1
  Cl  Cl16  1  0.46617100  0.16773800  0.96919800  1
  Cl  Cl17  1  0.15144500  0.49913600  0.60637700  1
  Cl  Cl18  1  0.70766400  0.35251800  0.14604500  1
  Cl  Cl19  1  0.53382900  0.83226200  0.03080200  1
  Cl  Cl20  1  0.02307800  0.82005600  0.24039100  1
  Cl  Cl21  1  0.84957200  0.13426200  0.46416800  1
  Cl  Cl22  1  0.65042800  0.63426200  0.46416800  1
  Cl  Cl23  1  0.23505300  0.31050700  0.09688400  1
  Cl  Cl24  1  0.84855500  0.50086400  0.39362300  1
  Cl  Cl25  1  0.97692200  0.17994400  0.75960900  1
  Cl  Cl26  1  0.65144500  0.00086400  0.39362300  1
  Cl  Cl27  1  0.34855500  0.99913600  0.60637700  1
loop_
_geom_bond_atom_site_label_1
_geom_bond_atom_site_label_2
_geom_bond_distance
_geom_bond_site_symmetry_2
C0 N14 1.313278 1_555
C0 N9 1.316481 1_555
C0 Cl19 1.770953 1_555
C1 N12 1.313278 1_555
C1 N8 1.316481 1_555
C1 Cl16 1.770953 1_555
C2 N1 1.313278 1_555
C2 N13 1.316481 1_655
C2 Cl10 1.770953 1_555
C3 N7 1.313278 1_555
C3 N5 1.316481 1_455
C3 Cl9 1.770953 1_555
N0 P10 1.578220 1_555
N0 P7 1.579679 1_555
N1 P9 1.619475 1_545
N2 P8 1.577970 1_555
N2 P10 1.583704 1_555
N3 P5 1.577970 1_555
N3 P6 1.583704 1_555
N4 P3 1.578220 1_555
N4 P9 1.579679 1_555
N5 P4 1.602838 1_555
N6 P0 1.577970 1_555
N6 P2 1.583704 1_555
N7 P7 1.619475 1_565
N8 P5 1.602838 1_555
N9 P0 1.602838 1_555
N10 P6 1.578220 1_555
N10 P11 1.579679 1_555
N11 P2 1.578220 1_555
N11 P1 1.579679 1_555
N12 P1 1.619475 1_555
N13 P8 1.602838 1_555
N14 P11 1.619475 1_555
N15 P4 1.577970 1_555
N15 P3 1.583704 1_555
Cl0 P4 2.034022 1_555
Cl1 P2 2.025556 1_555
Cl2 P5 2.010152 1_555
Cl3 P0 2.010152 1_555
Cl4 P1 2.011811 1_555
Cl5 P11 2.011811 1_555
Cl6 P10 2.025556 1_565
Cl7 P8 2.034022 1_555
Cl8 P0 2.034022 1_555
Cl11 P4 2.010152 1_555
Cl12 P9 2.011154 1_555
Cl13 P7 2.011154 1_555
Cl14 P5 2.034022 1_555
Cl15 P1 2.011154 1_555
Cl17 P2 2.025219 1_555
Cl18 P11 2.011154 1_555
Cl20 P9 2.011811 1_455
Cl21 P3 2.025556 1_545
Cl22 P6 2.025556 1_555
Cl23 P8 2.010152 1_555
Cl24 P6 2.025219 1_555
Cl25 P7 2.011811 1_655
Cl26 P3 2.025219 1_545
Cl27 P10 2.025219 1_565
