# generated using pymatgen
data_V12P7
_symmetry_space_group_name_H-M   'P 1'
_cell_length_a   9.27554180
_cell_length_b   9.27554181
_cell_length_c   3.21755640
_cell_angle_alpha   90.00000000
_cell_angle_beta   90.00000000
_cell_angle_gamma   119.99999807
_symmetry_Int_Tables_number   1
_chemical_formula_structural   V12P7
_chemical_formula_sum   'V12 P7'
_cell_volume   239.73717462
_cell_formula_units_Z   1
loop_
 _symmetry_equiv_pos_site_id
 _symmetry_equiv_pos_as_xyz
  1  'x, y, z'
loop_
 _atom_site_type_symbol
 _atom_site_label
 _atom_site_symmetry_multiplicity
 _atom_site_fract_x
 _atom_site_fract_y
 _atom_site_fract_z
 _atom_site_occupancy
  V  V0  1  0.19733615  0.99630763  0.25000000  1
  V  V1  1  0.13286974  0.62224196  0.25000000  1
  V  V2  1  0.00369237  0.20102952  0.25000000  1
  V  V3  1  0.48937222  0.86713026  0.25000000  1
  V  V4  1  0.26544247  0.25271836  0.75000000  1
  V  V5  1  0.37775804  0.51062778  0.25000000  1
  V  V6  1  0.79897048  0.80266385  0.25000000  1
  V  V7  1  0.62735133  0.49705521  0.75000000  1
  V  V8  1  0.50294479  0.13029512  0.75000000  1
  V  V9  1  0.98727589  0.73455753  0.75000000  1
  V  V10  1  0.86970488  0.37264867  0.75000000  1
  V  V11  1  0.74728164  0.01272411  0.75000000  1
  P  P0  1  0.28477848  0.84330571  0.75000000  1
  P  P1  1  0.15669429  0.44147376  0.75000000  1
  P  P2  1  0.55852624  0.71522152  0.75000000  1
  P  P3  1  0.46286542  0.29244637  0.25000000  1
  P  P4  1  -0.00000000  -0.00000000  0.75000000  1
  P  P5  1  0.82957995  0.53713458  0.25000000  1
  P  P6  1  0.70755363  0.17042005  0.25000000  1
loop_
_geom_bond_atom_site_label_1
_geom_bond_atom_site_label_2
_geom_bond_distance
_geom_bond_site_symmetry_2
P0 V8 2.407142 1_565
P0 V3 2.412253 1_555
P0 V3 2.412253 1_556
P0 V9 2.418429 1_455
P0 V1 2.426692 1_555
P0 V1 2.426692 1_556
P0 V0 2.532020 1_555
P0 V0 2.532020 1_556
P1 V10 2.407137 1_455
P1 V1 2.412247 1_555
P1 V1 2.412247 1_556
P1 V4 2.418438 1_555
P1 V5 2.426693 1_555
P1 V5 2.426693 1_556
P1 V2 2.532020 1_556
P1 V2 2.532020 1_555
P2 V7 2.407155 1_555
P2 V5 2.412251 1_555
P2 V5 2.412251 1_556
P2 V11 2.418431 1_565
P2 V3 2.426687 1_555
P2 V3 2.426687 1_556
P2 V6 2.532020 1_555
P2 V6 2.532020 1_556
P3 V4 2.324322 1_555
P3 V4 2.324322 1_554
P3 V8 2.355345 1_555
P3 V8 2.355345 1_554
P3 V7 2.371123 1_554
P3 V7 2.371123 1_555
P3 V5 2.513231 1_555
P3 V0 2.616467 1_545
P4 V11 2.405284 1_455
P4 V9 2.405284 1_445
P4 V4 2.405284 1_555
P4 V0 2.449978 1_546
P4 V0 2.449978 1_545
P4 V6 2.449982 1_445
P4 V6 2.449982 1_446
P4 V2 2.449985 1_555
P4 V2 2.449985 1_556
P5 V9 2.324324 1_554
P5 V9 2.324324 1_555
P5 V7 2.355331 1_555
P5 V7 2.355331 1_554
P5 V10 2.371132 1_554
P5 V10 2.371132 1_555
P5 V1 2.513240 1_655
P5 V6 2.616466 1_555
P6 V11 2.324329 1_555
P6 V11 2.324329 1_554
P6 V10 2.355336 1_555
P6 V10 2.355336 1_554
P6 V8 2.371119 1_555
P6 V8 2.371119 1_554
P6 V3 2.513238 1_545
P6 V2 2.616466 1_655
