# generated using pymatgen
data_NaNi4F10
_symmetry_space_group_name_H-M   'P 1'
_cell_length_a   3.98440062
_cell_length_b   8.36182600
_cell_length_c   6.60204635
_cell_angle_alpha   90.00000000
_cell_angle_beta   89.43377133
_cell_angle_gamma   90.00000000
_symmetry_Int_Tables_number   1
_chemical_formula_structural   NaNi4F10
_chemical_formula_sum   'Na1 Ni4 F10'
_cell_volume   219.94874380
_cell_formula_units_Z   1
loop_
 _symmetry_equiv_pos_site_id
 _symmetry_equiv_pos_as_xyz
  1  'x, y, z'
loop_
 _atom_site_type_symbol
 _atom_site_label
 _atom_site_symmetry_multiplicity
 _atom_site_fract_x
 _atom_site_fract_y
 _atom_site_fract_z
 _atom_site_occupancy
  Na  Na0  1  0.50000000  0.73440800  0.50000000  1
  Ni  Ni0  1  0.00000000  0.22101400  0.00000000  1
  Ni  Ni1  1  0.00000000  0.05838600  0.50000000  1
  Ni  Ni2  1  0.50000000  0.52196400  0.00000000  1
  Ni  Ni3  1  0.50000000  0.34451200  0.50000000  1
  F  F0  1  0.00000000  0.30438400  0.50000000  1
  F  F1  1  0.48695500  0.51250500  0.29879400  1
  F  F2  1  0.01339100  0.06529200  0.21022400  1
  F  F3  1  0.50000000  0.10458300  0.50000000  1
  F  F4  1  0.50000000  0.26938000  0.00000000  1
  F  F5  1  0.50000000  0.74027800  0.00000000  1
  F  F6  1  0.98660900  0.06529200  0.78977600  1
  F  F7  1  0.51304500  0.51250500  0.70120600  1
  F  F8  1  0.00000000  0.46186400  0.00000000  1
  F  F9  1  0.00000000  0.83363300  0.50000000  1
loop_
_geom_bond_atom_site_label_1
_geom_bond_atom_site_label_2
_geom_bond_distance
_geom_bond_site_symmetry_2
F0 Ni3 2.020260 1_555
F0 Ni3 2.020260 1_455
F0 Ni1 2.056992 1_555
F1 Ni3 1.934399 1_555
F1 Ni2 1.974408 1_555
F1 Na0 2.282886 1_555
F2 Ni0 1.904237 1_555
F2 Ni1 1.914203 1_555
F3 Ni3 2.006245 1_555
F3 Ni1 2.029306 1_655
F3 Ni1 2.029306 1_555
F4 Ni0 2.032836 1_655
F4 Ni0 2.032836 1_555
F4 Ni2 2.112063 1_555
F5 Ni2 1.825504 1_555
F6 Ni0 1.904237 1_656
F6 Ni1 1.914203 1_655
F7 Ni3 1.934399 1_555
F7 Ni2 1.974408 1_556
F7 Na0 2.282886 1_555
F8 Ni0 2.013946 1_555
F8 Ni2 2.054608 1_555
F8 Ni2 2.054608 1_455
F9 Ni1 1.879345 1_565
F9 Na0 2.158070 1_555
F9 Na0 2.158070 1_455
