# generated using pymatgen
data_Ce2Fe17
_symmetry_space_group_name_H-M   'P 1'
_cell_length_a   6.43143158
_cell_length_b   6.43143085
_cell_length_c   6.43143070
_cell_angle_alpha   81.84911513
_cell_angle_beta   81.84911524
_cell_angle_gamma   81.84911733
_symmetry_Int_Tables_number   1
_chemical_formula_structural   Ce2Fe17
_chemical_formula_sum   'Ce2 Fe17'
_cell_volume   258.66013673
_cell_formula_units_Z   1
loop_
 _symmetry_equiv_pos_site_id
 _symmetry_equiv_pos_as_xyz
  1  'x, y, z'
loop_
 _atom_site_type_symbol
 _atom_site_label
 _atom_site_symmetry_multiplicity
 _atom_site_fract_x
 _atom_site_fract_y
 _atom_site_fract_z
 _atom_site_occupancy
  Ce  Ce0  1  0.65824600  0.65824600  0.65824600  1
  Ce  Ce1  1  0.34175400  0.34175400  0.34175400  1
  Fe  Fe0  1  0.34213600  0.34213600  0.84368500  1
  Fe  Fe1  1  0.34213600  0.84368500  0.34213600  1
  Fe  Fe2  1  0.09521800  0.09521800  0.09521800  1
  Fe  Fe3  1  0.90478200  0.90478200  0.90478200  1
  Fe  Fe4  1  0.00000000  0.00000000  0.50000000  1
  Fe  Fe5  1  0.50000000  0.00000000  0.00000000  1
  Fe  Fe6  1  0.00000000  0.50000000  0.00000000  1
  Fe  Fe7  1  0.29588200  0.70411800  0.00000000  1
  Fe  Fe8  1  0.00000000  0.29588200  0.70411800  1
  Fe  Fe9  1  0.70411800  0.00000000  0.29588200  1
  Fe  Fe10  1  0.70411800  0.29588200  0.00000000  1
  Fe  Fe11  1  0.00000000  0.70411800  0.29588200  1
  Fe  Fe12  1  0.29588200  0.00000000  0.70411800  1
  Fe  Fe13  1  0.65786400  0.15631500  0.65786400  1
  Fe  Fe14  1  0.65786400  0.65786400  0.15631500  1
  Fe  Fe15  1  0.15631500  0.65786400  0.65786400  1
  Fe  Fe16  1  0.84368500  0.34213600  0.34213600  1
loop_
_geom_bond_atom_site_label_1
_geom_bond_atom_site_label_2
_geom_bond_distance
_geom_bond_site_symmetry_2
Ce0 Fe9 2.980908 1_565
Ce0 Fe10 2.980908 1_556
Ce0 Fe11 2.980909 1_655
Ce0 Fe7 2.980909 1_556
Ce0 Fe8 2.980909 1_655
Ce0 Fe12 2.980909 1_565
Ce0 Fe16 3.079907 1_555
Ce0 Fe0 3.079907 1_555
Ce0 Fe1 3.079907 1_555
Ce0 Fe3 3.111407 1_555
Ce0 Fe14 3.202602 1_556
Ce0 Fe13 3.202602 1_565
Ce0 Fe15 3.202602 1_655
Ce0 Fe14 3.228833 1_555
Ce0 Fe13 3.228833 1_555
Ce0 Fe15 3.228834 1_555
Ce0 Fe5 3.286212 1_566
Ce0 Fe4 3.286213 1_665
Ce0 Fe6 3.286213 1_656
Ce1 Fe12 2.980908 1_555
Ce1 Fe7 2.980908 1_555
Ce1 Fe8 2.980909 1_555
Ce1 Fe10 2.980909 1_555
Ce1 Fe11 2.980909 1_555
Ce1 Fe9 2.980909 1_555
Ce1 Fe15 3.079907 1_555
Ce1 Fe14 3.079907 1_555
Ce1 Fe13 3.079907 1_555
Ce1 Fe2 3.111407 1_555
Ce1 Fe0 3.202602 1_554
Ce1 Fe1 3.202602 1_545
Ce1 Fe16 3.202602 1_455
Ce1 Fe0 3.228833 1_555
Ce1 Fe1 3.228833 1_555
Ce1 Fe16 3.228834 1_555
Ce1 Fe5 3.286212 1_555
Ce1 Fe4 3.286213 1_555
Ce1 Fe6 3.286213 1_555
Fe0 Fe5 2.431466 1_556
Fe0 Fe6 2.431466 1_556
Fe0 Fe15 2.451226 1_555
Fe0 Fe13 2.451226 1_555
Fe0 Fe12 2.560757 1_555
Fe0 Fe8 2.560757 1_555
Fe0 Fe7 2.627078 1_556
Fe0 Fe10 2.627078 1_556
Fe0 Fe2 2.630379 1_556
Fe1 Fe5 2.431466 1_565
Fe1 Fe4 2.431466 1_565
Fe1 Fe15 2.451226 1_555
Fe1 Fe14 2.451226 1_555
Fe1 Fe7 2.560757 1_555
Fe1 Fe11 2.560757 1_555
Fe1 Fe12 2.627077 1_565
Fe1 Fe9 2.627078 1_565
Fe1 Fe2 2.630379 1_565
Fe2 Fe3 2.403397 1_444
Fe2 Fe4 2.594140 1_555
Fe2 Fe6 2.594140 1_555
Fe2 Fe5 2.594140 1_555
Fe2 Fe8 2.767606 1_554
Fe2 Fe7 2.767607 1_545
Fe2 Fe9 2.767607 1_455
Fe3 Fe4 2.594140 1_665
Fe3 Fe6 2.594140 1_656
Fe3 Fe5 2.594140 1_566
Fe3 Fe8 2.767606 1_665
Fe3 Fe9 2.767607 1_566
Fe3 Fe7 2.767607 1_656
Fe4 Fe8 2.460272 1_555
Fe4 Fe9 2.460272 1_455
Fe5 Fe9 2.460272 1_555
Fe5 Fe7 2.460272 1_545
Fe6 Fe8 2.460272 1_554
Fe6 Fe7 2.460272 1_555
Fe10 Fe5 2.460272 1_555
Fe10 Fe6 2.460272 1_655
Fe10 Fe9 2.493104 1_555
Fe10 Fe8 2.493104 1_654
Fe10 Fe13 2.560757 1_554
Fe10 Fe16 2.560757 1_555
Fe10 Fe14 2.627078 1_555
Fe10 Fe3 2.767607 1_544
Fe10 Fe2 2.767607 1_655
Fe11 Fe6 2.460272 1_555
Fe11 Fe4 2.460272 1_565
Fe11 Fe7 2.493104 1_555
Fe11 Fe9 2.493104 1_465
Fe11 Fe14 2.560757 1_455
Fe11 Fe15 2.627078 1_555
Fe11 Fe16 2.627078 1_455
Fe11 Fe3 2.767606 1_454
Fe11 Fe2 2.767606 1_565
Fe12 Fe5 2.460272 1_556
Fe12 Fe4 2.460272 1_555
Fe12 Fe7 2.493104 1_546
Fe12 Fe8 2.493104 1_555
Fe12 Fe15 2.560757 1_545
Fe12 Fe13 2.627078 1_555
Fe12 Fe2 2.767607 1_556
Fe12 Fe3 2.767607 1_445
Fe13 Fe5 2.431466 1_556
Fe13 Fe4 2.431466 1_655
Fe13 Fe16 2.451226 1_555
Fe13 Fe8 2.560757 1_655
Fe13 Fe9 2.627077 1_555
Fe13 Fe3 2.630379 1_545
Fe14 Fe5 2.431466 1_565
Fe14 Fe6 2.431466 1_655
Fe14 Fe16 2.451226 1_555
Fe14 Fe9 2.560757 1_565
Fe14 Fe7 2.627078 1_555
Fe14 Fe3 2.630379 1_554
Fe15 Fe6 2.431466 1_556
Fe15 Fe4 2.431466 1_565
Fe15 Fe7 2.560757 1_556
Fe15 Fe8 2.627078 1_555
Fe15 Fe3 2.630379 1_455
Fe16 Fe6 2.431466 1_655
Fe16 Fe4 2.431466 1_655
Fe16 Fe9 2.560757 1_555
Fe16 Fe8 2.627078 1_655
Fe16 Fe2 2.630379 1_655
