# generated using pymatgen
data_NbCrO4
_symmetry_space_group_name_H-M   'P 1'
_cell_length_a   3.09895800
_cell_length_b   13.15015956
_cell_length_c   6.70521006
_cell_angle_alpha   90.00014088
_cell_angle_beta   89.99997838
_cell_angle_gamma   89.99997821
_symmetry_Int_Tables_number   1
_chemical_formula_structural   NbCrO4
_chemical_formula_sum   'Nb4 Cr4 O16'
_cell_volume   273.24932671
_cell_formula_units_Z   4
loop_
 _symmetry_equiv_pos_site_id
 _symmetry_equiv_pos_as_xyz
  1  'x, y, z'
loop_
 _atom_site_type_symbol
 _atom_site_label
 _atom_site_symmetry_multiplicity
 _atom_site_fract_x
 _atom_site_fract_y
 _atom_site_fract_z
 _atom_site_occupancy
  Nb  Nb0  1  0.00000100  0.99998200  0.00000000  1
  Nb  Nb1  1  0.00000200  0.25004300  0.50000100  1
  Nb  Nb2  1  0.00000100  0.49995900  0.00000100  1
  Nb  Nb3  1  0.00000100  0.75001900  0.50000100  1
  Cr  Cr0  1  0.49999400  0.74998800  0.99999600  1
  Cr  Cr1  1  0.49998500  0.00000800  0.49998900  1
  Cr  Cr2  1  0.49998500  0.24997800  0.00000200  1
  Cr  Cr3  1  0.50002100  0.50001200  0.49999900  1
  O  O0  1  0.00000000  0.34839500  0.00000000  1
  O  O1  1  0.00000200  0.59838700  0.50000000  1
  O  O2  1  0.00000000  0.84840000  0.00000000  1
  O  O3  1  0.99999900  0.09840000  0.50000000  1
  O  O4  1  0.00000000  0.15161600  0.00000100  1
  O  O5  1  0.00000200  0.40160300  0.50000200  1
  O  O6  1  0.00000100  0.65160400  0.00000100  1
  O  O7  1  0.00000000  0.90159900  0.50000100  1
  O  O8  1  0.50000000  0.24999900  0.69524000  1
  O  O9  1  0.50000100  0.50000300  0.19524100  1
  O  O10  1  0.50000000  0.74999100  0.69523800  1
  O  O11  1  0.50000000  0.00001100  0.19523800  1
  O  O12  1  0.50000000  0.24999800  0.30476100  1
  O  O13  1  0.50000100  0.50000300  0.80476000  1
  O  O14  1  0.50000100  0.74999000  0.30476400  1
  O  O15  1  0.50000100  0.00001100  0.80476300  1
loop_
_geom_bond_atom_site_label_1
_geom_bond_atom_site_label_2
_geom_bond_distance
_geom_bond_site_symmetry_2
Nb0 O2 1.993327 1_555
Nb0 O4 1.994011 1_565
Nb0 O15 2.028458 1_564
Nb0 O15 2.028458 1_464
Nb0 O11 2.028460 1_565
Nb0 O11 2.028464 1_465
Nb1 O5 1.993038 1_555
Nb1 O3 1.994130 1_455
Nb1 O8 2.028462 1_555
Nb1 O12 2.028466 1_555
Nb1 O8 2.028471 1_455
Nb1 O12 2.028476 1_455
Nb2 O0 1.993091 1_555
Nb2 O6 1.994156 1_555
Nb2 O9 2.028471 1_455
Nb2 O9 2.028471 1_555
Nb2 O13 2.028475 1_554
Nb2 O13 2.028476 1_454
Nb3 O7 1.993301 1_555
Nb3 O1 1.993985 1_555
Nb3 O10 2.028456 1_555
Nb3 O14 2.028458 1_555
Nb3 O14 2.028458 1_455
Nb3 O10 2.028460 1_455
Cr0 O6 2.018576 1_556
Cr0 O6 2.018608 1_656
Cr0 O2 2.018813 1_556
Cr0 O2 2.018843 1_656
Cr0 O10 2.043466 1_555
Cr0 O14 2.043533 1_556
Cr1 O3 2.018626 1_455
Cr1 O3 2.018693 1_555
Cr1 O7 2.018767 1_545
Cr1 O7 2.018838 1_645
Cr1 O11 2.043419 1_555
Cr1 O15 2.043574 1_555
Cr2 O4 2.018371 1_555
Cr2 O4 2.018442 1_655
Cr2 O0 2.018834 1_555
Cr2 O0 2.018906 1_655
Cr2 O12 2.043473 1_555
Cr2 O8 2.043493 1_554
Cr3 O1 2.018471 1_655
Cr3 O1 2.018561 1_555
Cr3 O5 2.018757 1_655
Cr3 O5 2.018848 1_555
Cr3 O9 2.043466 1_555
Cr3 O13 2.043487 1_555
