# generated using pymatgen
data_H3ClO5
_symmetry_space_group_name_H-M   'P 1'
_cell_length_a   5.59796800
_cell_length_b   7.26262900
_cell_length_c   9.02457500
_cell_angle_alpha   90.00000000
_cell_angle_beta   90.00000000
_cell_angle_gamma   90.00000000
_symmetry_Int_Tables_number   1
_chemical_formula_structural   H3ClO5
_chemical_formula_sum   'H12 Cl4 O20'
_cell_volume   366.90280297
_cell_formula_units_Z   4
loop_
 _symmetry_equiv_pos_site_id
 _symmetry_equiv_pos_as_xyz
  1  'x, y, z'
loop_
 _atom_site_type_symbol
 _atom_site_label
 _atom_site_symmetry_multiplicity
 _atom_site_fract_x
 _atom_site_fract_y
 _atom_site_fract_z
 _atom_site_occupancy
  H  H0  1  0.89529500  0.11277600  0.14810600  1
  H  H1  1  0.60470500  0.11277600  0.14810600  1
  H  H2  1  0.75000000  0.25391900  0.26061200  1
  H  H3  1  0.75000000  0.24608100  0.76061200  1
  H  H4  1  0.60470500  0.38722400  0.64810600  1
  H  H5  1  0.89529500  0.38722400  0.64810600  1
  H  H6  1  0.25000000  0.74608100  0.73938800  1
  H  H7  1  0.10470500  0.88722400  0.85189400  1
  H  H8  1  0.39529500  0.88722400  0.85189400  1
  H  H9  1  0.25000000  0.75391900  0.23938800  1
  H  H10  1  0.39529500  0.61277600  0.35189400  1
  H  H11  1  0.10470500  0.61277600  0.35189400  1
  Cl  Cl0  1  0.25000000  0.29484100  0.91615500  1
  Cl  Cl1  1  0.25000000  0.20515900  0.41615500  1
  Cl  Cl2  1  0.75000000  0.70515900  0.08384500  1
  Cl  Cl3  1  0.75000000  0.79484100  0.58384500  1
  O  O0  1  0.25000000  0.41753700  0.78717900  1
  O  O1  1  0.25000000  0.08246300  0.28717900  1
  O  O2  1  0.75000000  0.58246300  0.21282100  1
  O  O3  1  0.75000000  0.91753700  0.71282100  1
  O  O4  1  0.25000000  0.39749900  0.05258100  1
  O  O5  1  0.25000000  0.10250100  0.55258100  1
  O  O6  1  0.75000000  0.60250100  0.94741900  1
  O  O7  1  0.75000000  0.89749900  0.44741900  1
  O  O8  1  0.03709800  0.17508000  0.90845200  1
  O  O9  1  0.46290200  0.32492000  0.40845200  1
  O  O10  1  0.53709800  0.82492000  0.09154800  1
  O  O11  1  0.96290200  0.67508000  0.59154800  1
  O  O12  1  0.96290200  0.82492000  0.09154800  1
  O  O13  1  0.53709800  0.67508000  0.59154800  1
  O  O14  1  0.46290200  0.17508000  0.90845200  1
  O  O15  1  0.03709800  0.32492000  0.40845200  1
  O  O16  1  0.75000000  0.18858100  0.16361800  1
  O  O17  1  0.75000000  0.31141900  0.66361800  1
  O  O18  1  0.25000000  0.81141900  0.83638200  1
  O  O19  1  0.25000000  0.68858100  0.33638200  1
loop_
_geom_bond_atom_site_label_1
_geom_bond_atom_site_label_2
_geom_bond_distance
_geom_bond_site_symmetry_2
H0 O16 0.992091 1_555
H1 O16 0.992091 1_555
H2 O16 0.995679 1_555
H3 O17 0.995679 1_555
H4 O17 0.992091 1_555
H5 O17 0.992091 1_555
H6 O18 0.995679 1_555
H7 O18 0.992091 1_555
H8 O18 0.992091 1_555
H9 O19 0.995679 1_555
H10 O19 0.992091 1_555
H11 O19 0.992091 1_555
Cl0 O4 1.439337 1_556
Cl0 O0 1.465892 1_555
Cl0 O14 1.477085 1_555
Cl0 O8 1.477085 1_555
Cl1 O5 1.439337 1_555
Cl1 O1 1.465892 1_555
Cl1 O9 1.477085 1_555
Cl1 O15 1.477085 1_555
Cl2 O6 1.439337 1_554
Cl2 O2 1.465892 1_555
Cl2 O10 1.477085 1_555
Cl2 O12 1.477085 1_555
Cl3 O7 1.439337 1_555
Cl3 O3 1.465892 1_555
Cl3 O11 1.477085 1_555
Cl3 O13 1.477085 1_555
