# generated using pymatgen
data_Sr10Cu5Bi10O29
_symmetry_space_group_name_H-M   'P 1'
_cell_length_a   5.42379700
_cell_length_b   13.97913184
_cell_length_c   25.23133585
_cell_angle_alpha   81.84118100
_cell_angle_beta   83.92255263
_cell_angle_gamma   79.06694503
_symmetry_Int_Tables_number   1
_chemical_formula_structural   Sr10Cu5Bi10O29
_chemical_formula_sum   'Sr20 Cu10 Bi20 O58'
_cell_volume   1853.15957912
_cell_formula_units_Z   2
loop_
 _symmetry_equiv_pos_site_id
 _symmetry_equiv_pos_as_xyz
  1  'x, y, z'
loop_
 _atom_site_type_symbol
 _atom_site_label
 _atom_site_symmetry_multiplicity
 _atom_site_fract_x
 _atom_site_fract_y
 _atom_site_fract_z
 _atom_site_occupancy
  Sr  Sr0  1  0.81613100  0.83960600  0.51008200  1
  Sr  Sr1  1  0.80354500  0.42083400  0.93064600  1
  Sr  Sr2  1  0.17402700  0.74587600  0.87134000  1
  Sr  Sr3  1  0.15577400  0.57770700  0.07246900  1
  Sr  Sr4  1  0.30727100  0.50785400  0.82952600  1
  Sr  Sr5  1  0.79422700  0.05935200  0.32187700  1
  Sr  Sr6  1  0.28992900  0.33842200  0.03015600  1
  Sr  Sr7  1  0.28544000  0.15945200  0.22628200  1
  Sr  Sr8  1  0.16937800  0.15997200  0.48661900  1
  Sr  Sr9  1  0.29670400  0.95173000  0.41610000  1
  Sr  Sr10  1  0.64536700  0.49185300  0.17254900  1
  Sr  Sr11  1  0.79142100  0.25265700  0.12905300  1
  Sr  Sr12  1  0.81982400  0.61602500  0.71798900  1
  Sr  Sr13  1  0.67409300  0.04374700  0.58058100  1
  Sr  Sr14  1  0.15675800  0.38418300  0.28211000  1
  Sr  Sr15  1  0.67126400  0.83763300  0.77334100  1
  Sr  Sr16  1  0.65898900  0.66014400  0.97113500  1
  Sr  Sr17  1  0.31757600  0.72856200  0.60836100  1
  Sr  Sr18  1  0.65952800  0.27203100  0.38886300  1
  Sr  Sr19  1  0.17397000  0.94063900  0.67690800  1
  Cu  Cu0  1  0.22180500  0.17458300  0.35499300  1
  Cu  Cu1  1  0.24187700  0.94007000  0.54702800  1
  Cu  Cu2  1  0.75014100  0.82421700  0.64421100  1
  Cu  Cu3  1  0.21573600  0.37495600  0.15505700  1
  Cu  Cu4  1  0.23372400  0.54115100  0.94939300  1
  Cu  Cu5  1  0.72385900  0.45882900  0.05187500  1
  Cu  Cu6  1  0.73112500  0.05808500  0.45129300  1
  Cu  Cu7  1  0.74506200  0.62379400  0.84521100  1
  Cu  Cu8  1  0.71667100  0.27889200  0.25560200  1
  Cu  Cu9  1  0.24965300  0.72013800  0.74383000  1
  Bi  Bi0  1  0.87986300  0.97683200  0.18033500  1
  Bi  Bi1  1  0.05799600  0.45949400  0.42767900  1
  Bi  Bi2  1  0.54024200  0.38307500  0.68469300  1
  Bi  Bi3  1  0.86625200  0.31791900  0.78201500  1
  Bi  Bi4  1  0.60996800  0.58342700  0.31809300  1
  Bi  Bi5  1  0.60300500  0.34543700  0.53143200  1
  Bi  Bi6  1  0.42682000  0.23192700  0.89269100  1
  Bi  Bi7  1  0.88141200  0.14984600  0.98970700  1
  Bi  Bi8  1  0.46775000  0.65736300  0.46638500  1
  Bi  Bi9  1  0.04260900  0.02152200  0.82146400  1
  Bi  Bi10  1  0.55143000  0.76755400  0.10929200  1
  Bi  Bi11  1  0.05176800  0.22948800  0.63109400  1
  Bi  Bi12  1  0.95239500  0.67192500  0.22460800  1
  Bi  Bi13  1  0.42294900  0.88066300  0.27334800  1
  Bi  Bi14  1  0.42147500  0.06607300  0.08703300  1
  Bi  Bi15  1  0.93101700  0.53812900  0.57024200  1
  Bi  Bi16  1  0.57239900  0.93195100  0.91592400  1
  Bi  Bi17  1  0.57906600  0.11412400  0.73409300  1
  Bi  Bi18  1  0.02491000  0.84926300  0.01267100  1
  Bi  Bi19  1  0.88669000  0.77591200  0.36680100  1
  O  O0  1  0.47645400  0.30795700  0.81038200  1
  O  O1  1  0.83825900  0.10905300  0.21280100  1
  O  O2  1  0.83805800  0.46287900  0.79846900  1
  O  O3  1  0.11223100  0.54013600  0.19401900  1
  O  O4  1  0.91956600  0.65740100  0.61048300  1
  O  O5  1  0.49878700  0.66907800  0.79300800  1
  O  O6  1  0.47980000  0.49781600  0.99991900  1
  O  O7  1  0.59266500  0.63291700  0.08008500  1
  O  O8  1  0.99583600  0.88389200  0.59640900  1
  O  O9  1  0.46970900  0.22410000  0.30353800  1
  O  O10  1  0.18723300  0.33450700  0.39202400  1
  O  O11  1  0.30168400  0.01120900  0.30681400  1
  O  O12  1  0.59843100  0.69130700  0.18889300  1
  O  O13  1  0.96103200  0.23279000  0.30712700  1
  O  O14  1  0.30240600  0.19917900  0.11841900  1
  O  O15  1  0.96278500  0.33075200  0.20695000  1
  O  O16  1  0.47838600  0.11506500  0.40276500  1
  O  O17  1  0.81955800  0.88992300  0.26956600  1
  O  O18  1  0.98336400  0.00041500  0.50015800  1
  O  O19  1  0.61760400  0.99381600  0.69204500  1
  O  O20  1  0.60761700  0.21146800  0.50483700  1
  O  O21  1  0.81720400  0.06760300  0.09127400  1
  O  O22  1  0.48556900  0.99941600  0.49916800  1
  O  O23  1  0.61517500  0.80183100  0.88158700  1
  O  O24  1  0.48350000  0.79572000  0.35959200  1
  O  O25  1  0.97775000  0.11918000  0.40522600  1
  O  O26  1  0.48973600  0.58084600  0.89706000  1
  O  O27  1  0.49949200  0.76518500  0.69173000  1
  O  O28  1  0.83617000  0.45555900  0.64647800  1
  O  O29  1  0.00503600  0.66683400  0.79405100  1
  O  O30  1  0.97564800  0.53857400  0.35070000  1
  O  O31  1  0.69174700  0.41713400  0.45007800  1
  O  O32  1  0.46798200  0.41561200  0.10289100  1
  O  O33  1  0.98645800  0.58357600  0.89770300  1
  O  O34  1  0.97196800  0.93570200  0.90500300  1
  O  O35  1  0.64251100  0.02178400  0.81394100  1
  O  O36  1  0.15157700  0.71776400  0.98094300  1
  O  O37  1  0.84769600  0.28387900  0.01889600  1
  O  O38  1  0.30616700  0.36844700  0.91981100  1
  O  O39  1  0.48089000  0.14818800  0.00030500  1
  O  O40  1  0.97658600  0.50263200  0.00120200  1
  O  O41  1  0.50152300  0.88253500  0.59439800  1
  O  O42  1  0.11855000  0.09704700  0.60045700  1
  O  O43  1  0.46748000  0.33232300  0.20608900  1
  O  O44  1  0.96837400  0.41810100  0.10352200  1
  O  O45  1  0.16006400  0.89220000  0.78675600  1
  O  O46  1  0.81854800  0.22807800  0.90513400  1
  O  O47  1  0.63367400  0.85284900  0.99802300  1
  O  O48  1  0.99318500  0.77628900  0.69639000  1
  O  O49  1  0.95240100  0.77319800  0.09398000  1
  O  O50  1  0.62904200  0.25072300  0.64278800  1
  O  O51  1  0.47835500  0.98146400  0.18155300  1
  O  O52  1  0.84322300  0.69017000  0.44999200  1
  O  O53  1  0.84982600  0.90503800  0.40128500  1
  O  O54  1  0.32164400  0.78688600  0.49849600  1
  O  O55  1  0.97583300  0.11706900  0.72915600  1
  O  O56  1  0.54954700  0.58357000  0.54798600  1
  O  O57  1  0.99826800  0.30971100  0.54837200  1
loop_
_geom_bond_atom_site_label_1
_geom_bond_atom_site_label_2
_geom_bond_distance
_geom_bond_site_symmetry_2
Cu0 O9 1.923775 1_555
Cu0 O16 1.926945 1_555
Cu0 O25 1.927032 1_455
Cu0 O13 1.940972 1_455
Cu0 O10 2.510543 1_555
Cu0 O11 2.680011 1_555
Cu1 O22 1.920178 1_555
Cu1 O18 1.922335 1_465
Cu1 O41 1.926794 1_555
Cu1 O8 1.928129 1_455
Cu1 O54 2.559846 1_555
Cu1 O42 2.678076 1_565
Cu2 O48 1.924056 1_555
Cu2 O41 1.927084 1_555
Cu2 O8 1.929297 1_555
Cu2 O27 1.940681 1_555
Cu2 O4 2.567377 1_555
Cu3 O32 1.904872 1_555
Cu3 O15 1.920942 1_455
Cu3 O44 1.922081 1_455
Cu3 O43 1.929570 1_555
Cu3 O3 2.578587 1_555
Cu3 O14 2.688491 1_555
Cu4 O6 1.899451 1_555
Cu4 O40 1.908630 1_456
Cu4 O26 1.917190 1_555
Cu4 O33 1.923644 1_455
Cu4 O38 2.574809 1_555
Cu4 O36 2.644453 1_555
Cu5 O40 1.900956 1_555
Cu5 O44 1.910504 1_555
Cu5 O6 1.912795 1_554
Cu5 O32 1.914936 1_555
Cu5 O7 2.581260 1_555
Cu5 O37 2.638352 1_555
Cu6 O16 1.917600 1_555
Cu6 O25 1.921480 1_555
Cu6 O22 1.923038 1_545
Cu6 O18 1.923120 1_555
Cu6 O53 2.579841 1_545
Cu6 O20 2.637624 1_555
Cu7 O33 1.913392 1_555
Cu7 O26 1.923147 1_555
Cu7 O29 1.931954 1_655
Cu7 O5 1.932606 1_555
Cu7 O2 2.627164 1_555
Cu7 O23 2.716466 1_555
Cu8 O15 1.892579 1_555
Cu8 O9 1.904443 1_555
Cu8 O43 1.911819 1_555
Cu8 O13 1.914440 1_555
Cu8 O1 2.687193 1_555
Cu9 O5 1.900736 1_555
Cu9 O48 1.911951 1_455
Cu9 O29 1.916296 1_555
Cu9 O27 1.916341 1_555
Cu9 O45 2.716465 1_555
Bi0 O1 2.090618 1_565
Bi0 O51 2.163426 1_555
Bi0 O17 2.422873 1_555
Bi0 O21 2.442129 1_565
Bi1 O10 2.049745 1_555
Bi1 O30 2.140322 1_455
Bi1 O31 2.174756 1_455
Bi2 O28 2.131786 1_555
Bi2 O50 2.209617 1_555
Bi3 O2 2.099975 1_555
Bi3 O0 2.182757 1_555
Bi4 O30 2.175121 1_555
Bi5 O20 2.072085 1_555
Bi5 O57 2.180689 1_555
Bi5 O31 2.199886 1_555
Bi6 O38 2.083432 1_555
Bi6 O46 2.169953 1_555
Bi6 O0 2.208777 1_555
Bi6 O39 2.822249 1_556
Bi7 O37 2.078375 1_556
Bi7 O39 2.164598 1_556
Bi7 O46 2.283852 1_555
Bi7 O21 2.671514 1_556
Bi8 O54 2.073382 1_555
Bi8 O52 2.156564 1_555
Bi8 O56 2.217433 1_555
Bi9 O45 2.082134 1_545
Bi9 O35 2.197537 1_455
Bi9 O34 2.305319 1_445
Bi9 O55 2.540043 1_455
Bi10 O7 2.081952 1_555
Bi10 O12 2.152352 1_555
Bi10 O49 2.182590 1_555
Bi11 O42 2.061314 1_555
Bi11 O57 2.244690 1_455
Bi11 O50 2.248435 1_455
Bi11 O55 2.772587 1_455
Bi12 O3 2.096988 1_655
Bi12 O12 2.161230 1_555
Bi13 O11 2.083364 1_565
Bi13 O17 2.170682 1_555
Bi13 O24 2.350115 1_555
Bi13 O51 2.554834 1_555
Bi14 O14 2.088191 1_555
Bi14 O21 2.164587 1_555
Bi14 O39 2.342658 1_555
Bi14 O51 2.529514 1_545
Bi15 O4 2.059753 1_555
Bi15 O56 2.155436 1_555
Bi15 O28 2.163900 1_555
Bi16 O23 2.087512 1_555
Bi16 O34 2.165158 1_555
Bi16 O47 2.231681 1_555
Bi16 O35 2.720217 1_565
Bi17 O19 2.079387 1_545
Bi17 O55 2.150264 1_555
Bi17 O35 2.254712 1_555
Bi17 O50 2.800455 1_555
Bi18 O36 2.077058 1_554
Bi18 O47 2.182288 1_454
Bi18 O49 2.205160 1_455
Bi18 O34 2.832728 1_454
Bi19 O53 2.080223 1_555
Bi19 O24 2.175358 1_555
Bi19 O52 2.277370 1_555
Bi19 O17 2.747892 1_555
O0 Sr4 2.863658 1_555
O1 Sr11 2.697356 1_555
O1 Sr7 2.717649 1_655
O1 Sr5 2.737705 1_555
O1 Sr7 2.941614 1_555
O2 Sr12 2.728504 1_555
O2 Sr4 2.876258 1_555
O2 Sr4 2.941929 1_655
O2 Sr1 3.294832 1_555
O3 Sr10 2.853464 1_555
O3 Sr10 2.864171 1_455
O3 Sr14 2.879218 1_555
O3 Sr3 3.028829 1_555
O4 Sr17 2.535253 1_655
O4 Sr12 2.710651 1_555
O4 Sr17 3.231560 1_555
O5 Sr12 2.524966 1_555
O5 Sr15 2.660684 1_555
O5 Sr4 2.665221 1_555
O5 Sr2 2.703557 1_555
O6 Sr1 2.542355 1_555
O6 Sr6 2.613228 1_556
O6 Sr16 2.615461 1_555
O6 Sr3 2.615586 1_556
O7 Sr3 2.660800 1_555
O7 Sr16 2.715988 1_554
O7 Sr10 2.834562 1_555
O7 Sr3 2.997388 1_655
O8 Sr17 2.517793 1_655
O8 Sr13 2.571654 1_565
O8 Sr19 2.617571 1_655
O8 Sr0 2.671843 1_555
O9 Sr14 2.567359 1_555
O9 Sr7 2.621142 1_555
O9 Sr5 2.635990 1_555
O9 Sr18 2.698915 1_555
O10 Sr18 2.541447 1_555
O10 Sr14 2.776242 1_555
O10 Sr18 3.158704 1_455
O10 Sr8 3.169648 1_555
O11 Sr7 2.684110 1_555
O11 Sr5 2.705779 1_455
O11 Sr9 2.763601 1_545
O11 Sr5 2.950186 1_555
O12 Sr10 2.836154 1_555
O13 Sr14 2.517031 1_655
O13 Sr18 2.548518 1_555
O13 Sr5 2.709229 1_555
O13 Sr7 2.730786 1_655
O14 Sr7 2.694617 1_555
O14 Sr11 2.724979 1_455
O14 Sr6 2.739433 1_555
O14 Sr11 2.936903 1_555
O15 Sr14 2.526578 1_655
O15 Sr10 2.660822 1_555
O15 Sr7 2.700800 1_655
O15 Sr11 2.701734 1_555
O16 Sr18 2.535614 1_555
O16 Sr9 2.619697 1_545
O16 Sr8 2.628019 1_555
O16 Sr5 2.628920 1_555
O17 Sr5 2.845358 1_565
O18 Sr0 2.550366 1_545
O18 Sr13 2.557530 1_555
O18 Sr8 2.583394 1_655
O18 Sr9 2.656574 1_645
O19 Sr19 2.727972 1_555
O19 Sr15 2.770056 1_555
O19 Sr13 2.798583 1_565
O19 Sr19 2.964813 1_655
O20 Sr8 2.711747 1_555
O20 Sr13 2.798739 1_555
O20 Sr18 2.927689 1_555
O20 Sr8 2.996387 1_655
O21 Sr11 2.855634 1_555
O22 Sr8 2.555782 1_565
O22 Sr0 2.586834 1_555
O22 Sr13 2.587581 1_565
O22 Sr9 2.645138 1_555
O23 Sr15 2.701162 1_555
O23 Sr2 2.702223 1_555
O23 Sr16 2.783774 1_555
O23 Sr2 2.976300 1_655
O24 Sr9 2.748474 1_555
O25 Sr18 2.493311 1_555
O25 Sr8 2.575284 1_655
O25 Sr9 2.632395 1_645
O25 Sr5 2.714989 1_555
O26 Sr4 2.481471 1_555
O26 Sr16 2.627183 1_555
O26 Sr1 2.634709 1_555
O26 Sr2 2.643350 1_555
O27 Sr12 2.506547 1_555
O27 Sr17 2.568489 1_555
O27 Sr15 2.736755 1_555
O27 Sr19 2.740371 1_555
O28 Sr12 3.055281 1_555
O29 Sr12 2.502496 1_455
O29 Sr4 2.606066 1_555
O29 Sr2 2.690378 1_555
O29 Sr15 2.730866 1_455
O30 Sr14 2.917878 1_655
O31 Sr18 2.758885 1_555
O32 Sr10 2.535595 1_555
O32 Sr6 2.607213 1_555
O32 Sr3 2.630060 1_555
O32 Sr11 2.646676 1_555
O33 Sr4 2.508309 1_655
O33 Sr16 2.622604 1_555
O33 Sr2 2.632268 1_655
O33 Sr1 2.644901 1_555
O34 Sr2 2.881592 1_655
O35 Sr15 2.874535 1_545
O36 Sr16 2.712118 1_555
O36 Sr2 2.730431 1_555
O36 Sr3 2.806719 1_556
O36 Sr16 2.976723 1_455
O37 Sr6 2.704581 1_655
O37 Sr1 2.722087 1_554
O37 Sr11 2.745059 1_555
O37 Sr6 2.969601 1_555
O38 Sr1 2.680392 1_455
O38 Sr6 2.750608 1_556
O38 Sr4 2.780043 1_555
O38 Sr1 2.975041 1_555
O39 Sr6 2.840858 1_555
O40 Sr3 2.563578 1_655
O40 Sr1 2.587704 1_554
O40 Sr16 2.599025 1_554
O40 Sr6 2.645465 1_655
O41 Sr17 2.505451 1_555
O41 Sr13 2.566002 1_565
O41 Sr0 2.646309 1_555
O41 Sr19 2.701751 1_555
O42 Sr19 2.695956 1_545
O42 Sr13 2.767892 1_455
O42 Sr8 2.882182 1_555
O42 Sr13 2.969887 1_555
O43 Sr14 2.508323 1_555
O43 Sr10 2.593831 1_555
O43 Sr11 2.693392 1_555
O43 Sr7 2.742885 1_555
O44 Sr10 2.518717 1_555
O44 Sr3 2.611601 1_655
O44 Sr6 2.621784 1_655
O44 Sr11 2.640678 1_555
O45 Sr15 2.730622 1_555
O45 Sr2 2.735107 1_555
O45 Sr19 2.754715 1_555
O45 Sr15 2.958959 1_455
O46 Sr1 2.842478 1_555
O47 Sr16 2.845106 1_555
O48 Sr12 2.558184 1_555
O48 Sr15 2.596250 1_555
O48 Sr19 2.629331 1_655
O48 Sr17 2.760766 1_655
O49 Sr3 2.851360 1_655
O51 Sr7 2.849326 1_565
O52 Sr0 2.723880 1_555
O53 Sr9 2.702156 1_655
O53 Sr5 2.722695 1_565
O53 Sr0 2.765879 1_555
O53 Sr9 2.941924 1_555
O54 Sr0 2.696482 1_455
O54 Sr17 2.775215 1_555
O54 Sr9 2.869157 1_555
O54 Sr0 2.966249 1_555
O55 Sr19 2.931394 1_645
O56 Sr17 2.741337 1_555
O57 Sr8 2.748314 1_655
