# generated using pymatgen
data_MnAg4(SbS3)2
_symmetry_space_group_name_H-M   'P 1'
_cell_length_a   8.01126500
_cell_length_b   6.73285700
_cell_length_c   12.46909992
_cell_angle_alpha   58.92229286
_cell_angle_beta   90.00000000
_cell_angle_gamma   90.00000000
_symmetry_Int_Tables_number   1
_chemical_formula_structural   MnAg4(SbS3)2
_chemical_formula_sum   'Mn2 Ag8 Sb4 S12'
_cell_volume   576.03216115
_cell_formula_units_Z   2
loop_
 _symmetry_equiv_pos_site_id
 _symmetry_equiv_pos_as_xyz
  1  'x, y, z'
loop_
 _atom_site_type_symbol
 _atom_site_label
 _atom_site_symmetry_multiplicity
 _atom_site_fract_x
 _atom_site_fract_y
 _atom_site_fract_z
 _atom_site_occupancy
  Mn  Mn0  1  0.50000000  0.50000000  0.50000000  1
  Mn  Mn1  1  0.00000000  0.50000000  0.00000000  1
  Ag  Ag0  1  0.96770000  0.76622800  0.47238500  1
  Ag  Ag1  1  0.53230000  0.76622800  0.97238500  1
  Ag  Ag2  1  0.03230000  0.23377200  0.52761500  1
  Ag  Ag3  1  0.70373000  0.25172600  0.81700500  1
  Ag  Ag4  1  0.20373000  0.74827400  0.68299500  1
  Ag  Ag5  1  0.29627000  0.74827400  0.18299500  1
  Ag  Ag6  1  0.79627000  0.25172600  0.31700500  1
  Ag  Ag7  1  0.46770000  0.23377200  0.02761500  1
  Sb  Sb0  1  0.14968300  0.16171100  0.81136400  1
  Sb  Sb1  1  0.35031700  0.16171100  0.31136400  1
  Sb  Sb2  1  0.85031700  0.83828900  0.18863600  1
  Sb  Sb3  1  0.64968300  0.83828900  0.68863600  1
  S  S0  1  0.90704400  0.59651000  0.78060300  1
  S  S1  1  0.74189100  0.23753100  0.10573600  1
  S  S2  1  0.40704400  0.40349000  0.71939700  1
  S  S3  1  0.09295600  0.40349000  0.21939700  1
  S  S4  1  0.59295600  0.59651000  0.28060300  1
  S  S5  1  0.17456800  0.15675000  0.01396500  1
  S  S6  1  0.67456800  0.84325000  0.48603500  1
  S  S7  1  0.82543200  0.84325000  0.98603500  1
  S  S8  1  0.32543200  0.15675000  0.51396500  1
  S  S9  1  0.75810900  0.23753100  0.60573600  1
  S  S10  1  0.25810900  0.76246900  0.89426400  1
  S  S11  1  0.24189100  0.76246900  0.39426400  1
loop_
_geom_bond_atom_site_label_1
_geom_bond_atom_site_label_2
_geom_bond_distance
_geom_bond_site_symmetry_2
Mn0 S2 2.574014 1_555
Mn0 S4 2.574014 1_555
Mn0 S11 2.594509 1_555
Mn0 S9 2.594509 1_555
Mn0 S6 2.629003 1_555
Mn0 S8 2.629003 1_555
Mn1 S0 2.574014 1_454
Mn1 S3 2.574014 1_555
Mn1 S10 2.594509 1_554
Mn1 S1 2.594509 1_455
Mn1 S7 2.629003 1_454
Mn1 S5 2.629003 1_555
Ag0 S11 2.408337 1_655
Ag0 S6 2.429774 1_555
Ag1 S10 2.408337 1_555
Ag1 S7 2.429774 1_555
Ag2 S9 2.408337 1_455
Ag2 S8 2.429774 1_555
Ag3 S2 2.625030 1_555
Ag3 S7 2.640485 1_545
Ag3 S0 2.675821 1_555
Ag3 S9 2.720030 1_555
Ag4 S0 2.625030 1_455
Ag4 S8 2.640485 1_565
Ag4 S2 2.675821 1_555
Ag4 S10 2.720030 1_555
Ag5 S4 2.625030 1_555
Ag5 S5 2.640485 1_565
Ag5 S3 2.675821 1_555
Ag5 S11 2.720030 1_555
Ag6 S3 2.625030 1_655
Ag6 S6 2.640485 1_545
Ag6 S4 2.675821 1_555
Ag6 S1 2.720030 1_555
Ag7 S1 2.408337 1_555
Ag7 S5 2.429774 1_555
S0 Sb3 2.507729 1_555
S1 Sb2 2.485953 1_545
S2 Sb0 2.507729 1_555
S3 Sb1 2.507729 1_555
S4 Sb2 2.507729 1_555
S5 Sb0 2.517081 1_554
S6 Sb3 2.517081 1_555
S7 Sb2 2.517081 1_556
S8 Sb1 2.517081 1_555
S9 Sb3 2.485953 1_545
S10 Sb0 2.485953 1_565
S11 Sb1 2.485953 1_565
