# generated using pymatgen
data_CsSc3(CuTe3)2
_symmetry_space_group_name_H-M   'P 1'
_cell_length_a   9.18986144
_cell_length_b   9.18986144
_cell_length_c   10.40116105
_cell_angle_alpha   67.61966221
_cell_angle_beta   67.61966221
_cell_angle_gamma   26.14493802
_symmetry_Int_Tables_number   1
_chemical_formula_structural   CsSc3(CuTe3)2
_chemical_formula_sum   'Cs1 Sc3 Cu2 Te6'
_cell_volume   356.27280259
_cell_formula_units_Z   1
loop_
 _symmetry_equiv_pos_site_id
 _symmetry_equiv_pos_as_xyz
  1  'x, y, z'
loop_
 _atom_site_type_symbol
 _atom_site_label
 _atom_site_symmetry_multiplicity
 _atom_site_fract_x
 _atom_site_fract_y
 _atom_site_fract_z
 _atom_site_occupancy
  Cs  Cs0  1  0.00000000  0.00000000  0.00000000  1
  Sc  Sc0  1  0.28826100  0.28826100  0.63834500  1
  Sc  Sc1  1  0.71173900  0.71173900  0.36165500  1
  Sc  Sc2  1  0.00000000  0.00000000  0.50000000  1
  Cu  Cu0  1  0.27705700  0.27705700  0.91791000  1
  Cu  Cu1  1  0.72294300  0.72294300  0.08209000  1
  Te  Te0  1  0.57152300  0.57152300  0.29019900  1
  Te  Te1  1  0.14020700  0.14020700  0.57909600  1
  Te  Te2  1  0.70266800  0.70266800  0.85419900  1
  Te  Te3  1  0.85979300  0.85979300  0.42090400  1
  Te  Te4  1  0.42847700  0.42847700  0.70980100  1
  Te  Te5  1  0.29733200  0.29733200  0.14580100  1
loop_
_geom_bond_atom_site_label_1
_geom_bond_atom_site_label_2
_geom_bond_distance
_geom_bond_site_symmetry_2
Cs0 Te2 3.935004 1_454
Cs0 Te2 3.935004 1_544
Cs0 Te5 3.935004 1_455
Cs0 Te5 3.935004 1_545
Cs0 Te3 4.108026 1_445
Cs0 Te1 4.108026 1_554
Cs0 Te0 4.253541 1_455
Cs0 Te4 4.253541 1_544
Cs0 Te4 4.253541 1_454
Cs0 Te0 4.253541 1_545
Sc0 Te4 2.883191 1_555
Sc0 Te1 2.946667 1_555
Sc0 Te3 2.968393 1_545
Sc0 Te3 2.968393 1_455
Sc0 Te2 3.003299 1_455
Sc0 Te2 3.003299 1_545
Sc1 Te0 2.883191 1_555
Sc1 Te3 2.946667 1_555
Sc1 Te1 2.968393 1_565
Sc1 Te1 2.968393 1_655
Sc1 Te5 3.003299 1_565
Sc1 Te5 3.003299 1_655
Sc2 Te0 2.921926 1_455
Sc2 Te4 2.921926 1_455
Sc2 Te0 2.921926 1_545
Sc2 Te4 2.921926 1_545
Sc2 Te1 2.931257 1_555
Sc2 Te3 2.931257 1_445
Cu0 Te5 2.534338 1_556
Cu0 Cu1 2.623339 1_456
Cu0 Cu1 2.623339 1_546
Cu0 Te2 2.687632 1_455
Cu0 Te2 2.687632 1_545
Cu0 Te4 2.728943 1_555
Cu0 Sc0 2.835411 1_555
Cu1 Te2 2.534338 1_554
Cu1 Te5 2.687632 1_655
Cu1 Te5 2.687632 1_565
Cu1 Te0 2.728943 1_555
Cu1 Sc1 2.835411 1_555
