# generated using pymatgen
data_Tl2HPtC5N5O
_symmetry_space_group_name_H-M   'P 1'
_cell_length_a   20.62945000
_cell_length_b   6.78169200
_cell_length_c   9.21058803
_cell_angle_alpha   64.13173194
_cell_angle_beta   90.00000000
_cell_angle_gamma   90.00000000
_symmetry_Int_Tables_number   1
_chemical_formula_structural   Tl2HPtC5N5O
_chemical_formula_sum   'Tl8 H4 Pt4 C20 N20 O4'
_cell_volume   1159.46820102
_cell_formula_units_Z   4
loop_
 _symmetry_equiv_pos_site_id
 _symmetry_equiv_pos_as_xyz
  1  'x, y, z'
loop_
 _atom_site_type_symbol
 _atom_site_label
 _atom_site_symmetry_multiplicity
 _atom_site_fract_x
 _atom_site_fract_y
 _atom_site_fract_z
 _atom_site_occupancy
  Tl  Tl0  1  0.28171200  0.73539300  0.82359000  1
  Tl  Tl1  1  0.78171200  0.26460700  0.67641000  1
  Tl  Tl2  1  0.21828800  0.73539300  0.32359000  1
  Tl  Tl3  1  0.41784400  0.36019000  0.70872900  1
  Tl  Tl4  1  0.91784400  0.63981000  0.79127100  1
  Tl  Tl5  1  0.58215600  0.63981000  0.29127100  1
  Tl  Tl6  1  0.08215600  0.36019000  0.20872900  1
  Tl  Tl7  1  0.71828800  0.26460700  0.17641000  1
  H  H0  1  0.08420400  0.58679900  0.44655600  1
  H  H1  1  0.58420400  0.41320100  0.05344400  1
  H  H2  1  0.41579600  0.58679900  0.94655600  1
  H  H3  1  0.91579600  0.41320100  0.55344400  1
  Pt  Pt0  1  0.11947400  0.22858100  0.69231900  1
  Pt  Pt1  1  0.38052600  0.22858100  0.19231900  1
  Pt  Pt2  1  0.88052600  0.77141900  0.30768100  1
  Pt  Pt3  1  0.61947400  0.77141900  0.80768100  1
  C  C0  1  0.08592800  0.43223800  0.78283300  1
  C  C1  1  0.21210300  0.32067800  0.70330400  1
  C  C2  1  0.12615900  0.98662800  0.91355100  1
  C  C3  1  0.41407200  0.43223800  0.28283300  1
  C  C4  1  0.28789700  0.32067800  0.20330400  1
  C  C5  1  0.37384100  0.98662800  0.41355100  1
  C  C6  1  0.02690700  0.15425500  0.66736000  1
  C  C7  1  0.97309300  0.84574500  0.33264000  1
  C  C8  1  0.52690700  0.84574500  0.83264000  1
  C  C9  1  0.58592800  0.56776200  0.71716700  1
  C  C10  1  0.34856800  0.03151000  0.09465700  1
  C  C11  1  0.71210300  0.67932200  0.79669600  1
  C  C12  1  0.62615900  0.01337200  0.58644900  1
  C  C13  1  0.65143200  0.96849000  0.90534300  1
  C  C14  1  0.15143200  0.03151000  0.59465700  1
  C  C15  1  0.47309300  0.15425500  0.16736000  1
  C  C16  1  0.78789700  0.67932200  0.29669600  1
  C  C17  1  0.91407200  0.56776200  0.21716700  1
  C  C18  1  0.87384100  0.01337200  0.08644900  1
  C  C19  1  0.84856800  0.96849000  0.40534300  1
  N  N0  1  0.47258800  0.87638000  0.85346100  1
  N  N1  1  0.52741200  0.12362000  0.14653900  1
  N  N2  1  0.86748700  0.15311500  0.95508900  1
  N  N3  1  0.76554000  0.61980800  0.79817200  1
  N  N4  1  0.36748700  0.84688500  0.54491100  1
  N  N5  1  0.17145400  0.93163300  0.52805800  1
  N  N6  1  0.67145400  0.06836700  0.97194200  1
  N  N7  1  0.13251300  0.84688500  0.04491100  1
  N  N8  1  0.97258800  0.12362000  0.64653900  1
  N  N9  1  0.43732300  0.54006500  0.33990800  1
  N  N10  1  0.26554000  0.38019200  0.70182800  1
  N  N11  1  0.63251300  0.15311500  0.45508900  1
  N  N12  1  0.73446000  0.61980800  0.29817200  1
  N  N13  1  0.23446000  0.38019200  0.20182800  1
  N  N14  1  0.93732300  0.45993500  0.16009200  1
  N  N15  1  0.56267700  0.45993500  0.66009200  1
  N  N16  1  0.02741200  0.87638000  0.35346100  1
  N  N17  1  0.32854600  0.93163300  0.02805800  1
  N  N18  1  0.06267700  0.54006500  0.83990800  1
  N  N19  1  0.82854600  0.06836700  0.47194200  1
  O  O0  1  0.38407300  0.47370200  0.95458900  1
  O  O1  1  0.88407300  0.52629800  0.54541100  1
  O  O2  1  0.11592700  0.47370200  0.45458900  1
  O  O3  1  0.61592700  0.52629800  0.04541100  1
loop_
_geom_bond_atom_site_label_1
_geom_bond_atom_site_label_2
_geom_bond_distance
_geom_bond_site_symmetry_2
H0 O2 0.986156 1_555
H1 O3 0.986156 1_555
H2 O0 0.986156 1_555
H3 O1 0.986156 1_555
C0 N18 1.173282 1_555
C0 Pt0 2.021446 1_555
C1 N10 1.171976 1_555
C1 Pt0 2.026562 1_555
C2 N7 1.174148 1_556
C2 Pt0 1.986443 1_565
C3 N9 1.173282 1_555
C3 Pt1 2.021446 1_555
C4 N13 1.171976 1_555
C4 Pt1 2.026562 1_555
C5 N4 1.174148 1_555
C5 Pt1 1.986443 1_565
C6 N8 1.170635 1_455
C6 Pt0 2.013611 1_555
C7 N16 1.170635 1_655
C7 Pt2 2.013611 1_555
C8 N0 1.170635 1_555
C8 Pt3 2.013611 1_555
C9 N15 1.173282 1_555
C9 Pt3 2.021446 1_555
C10 N17 1.169711 1_545
C10 Pt1 2.019652 1_555
C11 N3 1.171976 1_555
C11 Pt3 2.026562 1_555
C12 N11 1.174148 1_555
C12 Pt3 1.986443 1_545
C13 N6 1.169711 1_565
C13 Pt3 2.019652 1_555
C14 N5 1.169711 1_545
C14 Pt0 2.019652 1_555
C15 N1 1.170635 1_555
C15 Pt1 2.013611 1_555
C16 N12 1.171976 1_555
C16 Pt2 2.026562 1_555
C17 N14 1.173282 1_555
C17 Pt2 2.021446 1_555
C18 N2 1.174148 1_554
C18 Pt2 1.986443 1_545
C19 N19 1.169711 1_565
C19 Pt2 2.019652 1_555
O0 Pt1 2.094517 1_556
O0 Tl0 2.682528 1_555
O0 Tl3 2.779774 1_555
O1 Pt2 2.094517 1_555
O1 Tl1 2.682528 1_555
O1 Tl4 2.779774 1_555
O2 Pt0 2.094517 1_555
O2 Tl2 2.682528 1_555
O2 Tl6 2.779774 1_555
O3 Pt3 2.094517 1_554
O3 Tl7 2.682528 1_555
O3 Tl5 2.779774 1_555
