# generated using pymatgen
data_InCu(WO4)2
_symmetry_space_group_name_H-M   'P 1'
_cell_length_a   7.67551901
_cell_length_b   7.67551901
_cell_length_c   5.08392207
_cell_angle_alpha   88.58172000
_cell_angle_beta   88.58172000
_cell_angle_gamma   100.93500357
_symmetry_Int_Tables_number   1
_chemical_formula_structural   InCu(WO4)2
_chemical_formula_sum   'In2 Cu2 W4 O16'
_cell_volume   293.85145741
_cell_formula_units_Z   2
loop_
 _symmetry_equiv_pos_site_id
 _symmetry_equiv_pos_as_xyz
  1  'x, y, z'
loop_
 _atom_site_type_symbol
 _atom_site_label
 _atom_site_symmetry_multiplicity
 _atom_site_fract_x
 _atom_site_fract_y
 _atom_site_fract_z
 _atom_site_occupancy
  In  In0  1  0.16744000  0.83256000  0.75000000  1
  In  In1  1  0.83256000  0.16744000  0.25000000  1
  Cu  Cu0  1  0.65028600  0.34971400  0.75000000  1
  Cu  Cu1  1  0.34971400  0.65028600  0.25000000  1
  W  W0  1  0.82991000  0.65929300  0.25590600  1
  W  W1  1  0.17009000  0.34070700  0.74409400  1
  W  W2  1  0.65929300  0.82991000  0.75590600  1
  W  W3  1  0.34070700  0.17009000  0.24409400  1
  O  O0  1  0.94496500  0.31101100  0.89704800  1
  O  O1  1  0.59495300  0.69539400  0.44427200  1
  O  O2  1  0.30460600  0.40504700  0.05572800  1
  O  O3  1  0.80491900  0.43290200  0.40498400  1
  O  O4  1  0.19508100  0.56709800  0.59501600  1
  O  O5  1  0.43290200  0.80491900  0.90498400  1
  O  O6  1  0.31101100  0.94496500  0.39704800  1
  O  O7  1  0.19688400  0.09064900  0.93221700  1
  O  O8  1  0.69539400  0.59495300  0.94427200  1
  O  O9  1  0.80311600  0.90935100  0.06778300  1
  O  O10  1  0.40504700  0.30460600  0.55572800  1
  O  O11  1  0.68898900  0.05503500  0.60295200  1
  O  O12  1  0.05503500  0.68898900  0.10295200  1
  O  O13  1  0.09064900  0.19688400  0.43221700  1
  O  O14  1  0.56709800  0.19508100  0.09501600  1
  O  O15  1  0.90935100  0.80311600  0.56778300  1
loop_
_geom_bond_atom_site_label_1
_geom_bond_atom_site_label_2
_geom_bond_distance
_geom_bond_site_symmetry_2
In0 O12 2.154833 1_556
In0 O6 2.154833 1_555
In0 O15 2.182850 1_455
In0 O7 2.182850 1_565
In0 O5 2.247819 1_555
In0 O4 2.247819 1_555
In1 O11 2.154833 1_555
In1 O0 2.154833 1_554
In1 O13 2.182850 1_655
In1 O9 2.182850 1_545
In1 O3 2.247819 1_555
In1 O14 2.247819 1_555
Cu0 O3 2.108797 1_555
Cu0 O14 2.108797 1_556
Cu0 O8 2.121379 1_555
Cu0 O10 2.121379 1_555
Cu0 O11 2.467905 1_555
Cu0 O0 2.467905 1_555
Cu1 O5 2.108797 1_554
Cu1 O4 2.108797 1_555
Cu1 O1 2.121379 1_555
Cu1 O2 2.121379 1_555
Cu1 O12 2.467905 1_555
Cu1 O6 2.467905 1_555
O0 W1 1.848709 1_655
O1 W2 1.935520 1_555
O1 W0 2.088874 1_555
O2 W1 1.935520 1_554
O2 W3 2.088874 1_555
O3 W0 1.852526 1_555
O4 W1 1.852526 1_555
O5 W2 1.852526 1_555
O6 W3 1.848709 1_565
O7 W3 1.995884 1_556
O7 W1 2.170123 1_555
O8 W0 1.935520 1_556
O8 W2 2.088874 1_555
O9 W2 1.995884 1_554
O9 W0 2.170123 1_555
O10 W3 1.935520 1_555
O10 W1 2.088874 1_555
O11 W2 1.848709 1_545
O12 W0 1.848709 1_455
O13 W1 1.995884 1_555
O13 W3 2.170123 1_555
O14 W3 1.852526 1_555
O15 W0 1.995884 1_555
O15 W2 2.170123 1_555
