# generated using pymatgen
data_CuBiPbS3
_symmetry_space_group_name_H-M   'P 1'
_cell_length_a   4.06514300
_cell_length_b   11.33537200
_cell_length_c   11.85056500
_cell_angle_alpha   90.00000000
_cell_angle_beta   90.00000000
_cell_angle_gamma   90.00000000
_symmetry_Int_Tables_number   1
_chemical_formula_structural   CuBiPbS3
_chemical_formula_sum   'Cu4 Bi4 Pb4 S12'
_cell_volume   546.07294659
_cell_formula_units_Z   4
loop_
 _symmetry_equiv_pos_site_id
 _symmetry_equiv_pos_as_xyz
  1  'x, y, z'
loop_
 _atom_site_type_symbol
 _atom_site_label
 _atom_site_symmetry_multiplicity
 _atom_site_fract_x
 _atom_site_fract_y
 _atom_site_fract_z
 _atom_site_occupancy
  Cu  Cu0  1  0.75000000  0.79244000  0.76622800  1
  Cu  Cu1  1  0.75000000  0.70756000  0.26622800  1
  Cu  Cu2  1  0.25000000  0.29244000  0.73377200  1
  Cu  Cu3  1  0.25000000  0.20756000  0.23377200  1
  Bi  Bi0  1  0.75000000  0.31739900  0.98296500  1
  Bi  Bi1  1  0.25000000  0.81739900  0.51703500  1
  Bi  Bi2  1  0.25000000  0.68260100  0.01703500  1
  Bi  Bi3  1  0.75000000  0.18260100  0.48296500  1
  Pb  Pb0  1  0.25000000  0.01063100  0.83250900  1
  Pb  Pb1  1  0.75000000  0.51063100  0.66749100  1
  Pb  Pb2  1  0.75000000  0.98936900  0.16749100  1
  Pb  Pb3  1  0.25000000  0.48936900  0.33250900  1
  S  S0  1  0.25000000  0.44318500  0.87836700  1
  S  S1  1  0.75000000  0.20116200  0.78498300  1
  S  S2  1  0.25000000  0.05681500  0.37836700  1
  S  S3  1  0.75000000  0.94318500  0.62163300  1
  S  S4  1  0.25000000  0.35570800  0.54719000  1
  S  S5  1  0.25000000  0.79883800  0.21501700  1
  S  S6  1  0.75000000  0.29883800  0.28498300  1
  S  S7  1  0.25000000  0.70116200  0.71501700  1
  S  S8  1  0.75000000  0.55681500  0.12163300  1
  S  S9  1  0.75000000  0.85570800  0.95281000  1
  S  S10  1  0.25000000  0.14429200  0.04719000  1
  S  S11  1  0.75000000  0.64429200  0.45281000  1
loop_
_geom_bond_atom_site_label_1
_geom_bond_atom_site_label_2
_geom_bond_distance
_geom_bond_site_symmetry_2
Cu0 S9 2.324500 1_555
Cu0 S7 2.360125 1_555
Cu0 S7 2.360125 1_655
Cu0 S3 2.419922 1_555
Cu1 S11 2.324500 1_555
Cu1 S5 2.360125 1_555
Cu1 S5 2.360125 1_655
Cu1 S8 2.419922 1_555
Cu2 S4 2.324500 1_555
Cu2 S1 2.360125 1_555
Cu2 S1 2.360125 1_455
Cu2 S0 2.419922 1_555
Cu3 S10 2.324500 1_555
Cu3 S6 2.360125 1_555
Cu3 S6 2.360125 1_455
Cu3 S2 2.419922 1_555
Bi0 S1 2.690853 1_555
Bi0 S0 2.775034 1_655
Bi0 S0 2.775034 1_555
Bi0 S10 2.925915 1_656
Bi0 S10 2.925915 1_556
Bi0 S8 3.172618 1_556
Bi1 S7 2.690853 1_555
Bi1 S3 2.775034 1_555
Bi1 S3 2.775034 1_455
Bi1 S11 2.925915 1_455
Bi1 S11 2.925915 1_555
Bi1 S2 3.172618 1_565
Bi2 S5 2.690853 1_555
Bi2 S8 2.775034 1_455
Bi2 S8 2.775034 1_555
Bi2 S9 2.925915 1_454
Bi2 S9 2.925915 1_554
Bi2 S0 3.172618 1_554
Bi3 S6 2.690853 1_555
Bi3 S2 2.775034 1_555
Bi3 S2 2.775034 1_655
Bi3 S4 2.925915 1_555
Bi3 S4 2.925915 1_655
Bi3 S3 3.172618 1_545
Pb0 S10 2.961067 1_556
Pb0 S1 3.018779 1_555
Pb0 S1 3.018779 1_455
Pb0 S9 3.041004 1_545
Pb0 S9 3.041004 1_445
Pb1 S11 2.961067 1_555
Pb1 S7 3.018779 1_555
Pb1 S7 3.018779 1_655
Pb1 S4 3.041004 1_555
Pb1 S4 3.041004 1_655
Pb2 S9 2.961067 1_554
Pb2 S5 3.018779 1_555
Pb2 S5 3.018779 1_655
Pb2 S10 3.041004 1_565
Pb2 S10 3.041004 1_665
Pb3 S4 2.961067 1_555
Pb3 S6 3.018779 1_555
Pb3 S6 3.018779 1_455
Pb3 S11 3.041004 1_555
Pb3 S11 3.041004 1_455
