# generated using pymatgen
data_PH8IN4
_symmetry_space_group_name_H-M   'P 1'
_cell_length_a   8.50250800
_cell_length_b   8.50250800
_cell_length_c   5.22290800
_cell_angle_alpha   90.00000000
_cell_angle_beta   90.00000000
_cell_angle_gamma   90.00000000
_symmetry_Int_Tables_number   1
_chemical_formula_structural   PH8IN4
_chemical_formula_sum   'P2 H16 I2 N8'
_cell_volume   377.57781976
_cell_formula_units_Z   2
loop_
 _symmetry_equiv_pos_site_id
 _symmetry_equiv_pos_as_xyz
  1  'x, y, z'
loop_
 _atom_site_type_symbol
 _atom_site_label
 _atom_site_symmetry_multiplicity
 _atom_site_fract_x
 _atom_site_fract_y
 _atom_site_fract_z
 _atom_site_occupancy
  P  P0  1  0.50000000  0.00000000  0.50000000  1
  P  P1  1  0.00000000  0.50000000  0.50000000  1
  H  H0  1  0.92536300  0.71803100  0.26893400  1
  H  H1  1  0.57463700  0.21803100  0.26893400  1
  H  H2  1  0.42536300  0.78196900  0.26893400  1
  H  H3  1  0.07463700  0.28196900  0.26893400  1
  H  H4  1  0.57463700  0.78196900  0.73106600  1
  H  H5  1  0.92536300  0.28196900  0.73106600  1
  H  H6  1  0.07463700  0.71803100  0.73106600  1
  H  H7  1  0.42536300  0.21803100  0.73106600  1
  H  H8  1  0.71803100  0.92536300  0.73106600  1
  H  H9  1  0.21803100  0.57463700  0.73106600  1
  H  H10  1  0.78196900  0.42536300  0.73106600  1
  H  H11  1  0.28196900  0.07463700  0.73106600  1
  H  H12  1  0.78196900  0.57463700  0.26893400  1
  H  H13  1  0.28196900  0.92536300  0.26893400  1
  H  H14  1  0.71803100  0.07463700  0.26893400  1
  H  H15  1  0.21803100  0.42536300  0.26893400  1
  I  I0  1  0.00000000  0.00000000  0.00000000  1
  I  I1  1  0.50000000  0.50000000  0.00000000  1
  N  N0  1  0.87898300  0.37898300  0.64678600  1
  N  N1  1  0.62101700  0.87898300  0.64678600  1
  N  N2  1  0.37898300  0.12101700  0.64678600  1
  N  N3  1  0.12101700  0.62101700  0.64678600  1
  N  N4  1  0.62101700  0.12101700  0.35321400  1
  N  N5  1  0.87898300  0.62101700  0.35321400  1
  N  N6  1  0.12101700  0.37898300  0.35321400  1
  N  N7  1  0.37898300  0.87898300  0.35321400  1
loop_
_geom_bond_atom_site_label_1
_geom_bond_atom_site_label_2
_geom_bond_distance
_geom_bond_site_symmetry_2
H0 N5 1.014727 1_555
H1 N4 1.014727 1_555
H2 N7 1.014727 1_555
H3 N6 1.014727 1_555
H4 N1 1.014727 1_555
H5 N0 1.014727 1_555
H6 N3 1.014727 1_555
H7 N2 1.014727 1_555
H8 N1 1.014727 1_555
H9 N3 1.014727 1_555
H10 N0 1.014727 1_555
H11 N2 1.014727 1_555
H12 N5 1.014727 1_555
H13 N7 1.014727 1_555
H14 N4 1.014727 1_555
H15 N6 1.014727 1_555
N0 P1 1.644755 1_655
N1 P0 1.644755 1_565
N2 P0 1.644755 1_555
N3 P1 1.644755 1_555
N4 P0 1.644755 1_555
N5 P1 1.644755 1_655
N6 P1 1.644755 1_555
N7 P0 1.644755 1_565
