# generated using pymatgen
data_CoP2O7
_symmetry_space_group_name_H-M   'P 1'
_cell_length_a   8.15072700
_cell_length_b   5.03689900
_cell_length_c   14.84397394
_cell_angle_alpha   71.27483459
_cell_angle_beta   90.00000000
_cell_angle_gamma   90.00000000
_symmetry_Int_Tables_number   1
_chemical_formula_structural   CoP2O7
_chemical_formula_sum   'Co4 P8 O28'
_cell_volume   577.15380385
_cell_formula_units_Z   4
loop_
 _symmetry_equiv_pos_site_id
 _symmetry_equiv_pos_as_xyz
  1  'x, y, z'
loop_
 _atom_site_type_symbol
 _atom_site_label
 _atom_site_symmetry_multiplicity
 _atom_site_fract_x
 _atom_site_fract_y
 _atom_site_fract_z
 _atom_site_occupancy
  Co  Co0  1  0.35032600  0.09029400  0.61237500  1
  Co  Co1  1  0.14967400  0.09029400  0.11237500  1
  Co  Co2  1  0.85032600  0.90970600  0.88762500  1
  Co  Co3  1  0.64967400  0.90970600  0.38762500  1
  P  P0  1  0.70152600  0.28363700  0.52746400  1
  P  P1  1  0.53031900  0.07800900  0.17378800  1
  P  P2  1  0.96968100  0.07800900  0.67378800  1
  P  P3  1  0.79847400  0.28363700  0.02746400  1
  P  P4  1  0.46968100  0.92199100  0.82621200  1
  P  P5  1  0.29847400  0.71636300  0.47253600  1
  P  P6  1  0.03031900  0.92199100  0.32621200  1
  P  P7  1  0.20152600  0.71636300  0.97253600  1
  O  O0  1  0.38182200  0.79578700  0.92800300  1
  O  O1  1  0.54625300  0.75835200  0.21115700  1
  O  O2  1  0.32071400  0.40101000  0.49254700  1
  O  O3  1  0.42082300  0.88980100  0.39681700  1
  O  O4  1  0.14439300  0.18858100  0.65535200  1
  O  O5  1  0.82071400  0.59899000  0.00745300  1
  O  O6  1  0.88182200  0.20421300  0.57199700  1
  O  O7  1  0.79740800  0.20812200  0.93559700  1
  O  O8  1  0.62643200  0.16823400  0.24843500  1
  O  O9  1  0.64439300  0.81141900  0.84464800  1
  O  O10  1  0.57917700  0.11019900  0.60318300  1
  O  O11  1  0.67928600  0.59899000  0.50745300  1
  O  O12  1  0.07917700  0.88980100  0.89681700  1
  O  O13  1  0.92082300  0.11019900  0.10318300  1
  O  O14  1  0.87356800  0.16823400  0.74843500  1
  O  O15  1  0.37356800  0.83176600  0.75156500  1
  O  O16  1  0.29740800  0.79187800  0.56440300  1
  O  O17  1  0.45374700  0.24164800  0.78884300  1
  O  O18  1  0.95374700  0.75835200  0.71115700  1
  O  O19  1  0.04625300  0.24164800  0.28884300  1
  O  O20  1  0.11817800  0.79578700  0.42800300  1
  O  O21  1  0.70259200  0.20812200  0.43559700  1
  O  O22  1  0.61817800  0.20421300  0.07199700  1
  O  O23  1  0.12643200  0.83176600  0.25156500  1
  O  O24  1  0.17928600  0.40101000  0.99254700  1
  O  O25  1  0.35560700  0.18858100  0.15535200  1
  O  O26  1  0.85560700  0.81141900  0.34464800  1
  O  O27  1  0.20259200  0.79187800  0.06440300  1
loop_
_geom_bond_atom_site_label_1
_geom_bond_atom_site_label_2
_geom_bond_distance
_geom_bond_site_symmetry_2
Co0 O10 1.870625 1_555
Co0 O16 1.907780 1_545
Co0 O4 1.916303 1_555
Co0 O2 1.970819 1_555
Co0 O15 2.067129 1_545
Co1 O13 1.870625 1_455
Co1 O27 1.907780 1_545
Co1 O25 1.916303 1_555
Co1 O24 1.970819 1_554
Co1 O23 2.067129 1_545
Co2 O12 1.870625 1_655
Co2 O7 1.907780 1_565
Co2 O9 1.916303 1_555
Co2 O5 1.970819 1_556
Co2 O14 2.067129 1_565
Co3 O3 1.870625 1_555
Co3 O21 1.907780 1_565
Co3 O26 1.916303 1_555
Co3 O11 1.970819 1_555
Co3 O8 2.067129 1_565
O0 P4 1.607259 1_555
O0 P7 1.608349 1_555
O1 P1 1.530846 1_565
O2 P5 1.530090 1_555
O3 P5 1.546129 1_555
O4 P2 1.521537 1_455
O5 P3 1.530090 1_555
O6 P2 1.607259 1_555
O6 P0 1.608349 1_555
O7 P3 1.528848 1_556
O8 P1 1.539915 1_555
O9 P4 1.521537 1_555
O10 P0 1.546129 1_555
O11 P0 1.530090 1_555
O12 P7 1.546129 1_555
O13 P3 1.546129 1_555
O14 P2 1.539915 1_555
O15 P4 1.539915 1_555
O16 P5 1.528848 1_555
O17 P4 1.530846 1_545
O18 P2 1.530846 1_565
O19 P6 1.530846 1_545
O20 P6 1.607259 1_555
O20 P5 1.608349 1_555
O21 P0 1.528848 1_555
O22 P1 1.607259 1_555
O22 P3 1.608349 1_555
O23 P6 1.539915 1_555
O24 P7 1.530090 1_555
O25 P1 1.521537 1_555
O26 P6 1.521537 1_655
O27 P7 1.528848 1_554
