# generated using pymatgen
data_MnSi6Pb8O21
_symmetry_space_group_name_H-M   'P 1'
_cell_length_a   14.37011649
_cell_length_b   14.37011649
_cell_length_c   14.37011698
_cell_angle_alpha   41.26415006
_cell_angle_beta   41.26415006
_cell_angle_gamma   41.26415083
_symmetry_Int_Tables_number   1
_chemical_formula_structural   MnSi6Pb8O21
_chemical_formula_sum   'Mn2 Si12 Pb16 O42'
_cell_volume   1165.89394186
_cell_formula_units_Z   2
loop_
 _symmetry_equiv_pos_site_id
 _symmetry_equiv_pos_as_xyz
  1  'x, y, z'
loop_
 _atom_site_type_symbol
 _atom_site_label
 _atom_site_symmetry_multiplicity
 _atom_site_fract_x
 _atom_site_fract_y
 _atom_site_fract_z
 _atom_site_occupancy
  Mn  Mn0  1  0.75000000  0.75000000  0.75000000  1
  Mn  Mn1  1  0.25000000  0.25000000  0.25000000  1
  Si  Si0  1  0.16408200  0.93239800  0.54203100  1
  Si  Si1  1  0.83591800  0.06760200  0.45796900  1
  Si  Si2  1  0.56760200  0.33591800  0.95796900  1
  Si  Si3  1  0.54203100  0.16408200  0.93239800  1
  Si  Si4  1  0.33591800  0.95796900  0.56760200  1
  Si  Si5  1  0.06760200  0.45796800  0.83591800  1
  Si  Si6  1  0.66408200  0.04203100  0.43239800  1
  Si  Si7  1  0.95796900  0.56760200  0.33591800  1
  Si  Si8  1  0.93239800  0.54203100  0.16408200  1
  Si  Si9  1  0.04203100  0.43239800  0.66408200  1
  Si  Si10  1  0.43239800  0.66408200  0.04203100  1
  Si  Si11  1  0.45796800  0.83591800  0.06760200  1
  Pb  Pb0  1  0.28374400  0.52913900  0.80399200  1
  Pb  Pb1  1  0.66240900  0.66240900  0.66240900  1
  Pb  Pb2  1  0.19600800  0.71625600  0.47086100  1
  Pb  Pb3  1  0.97086100  0.21625600  0.69600800  1
  Pb  Pb4  1  0.30399200  0.02913900  0.78374400  1
  Pb  Pb5  1  0.33759100  0.33759100  0.33759100  1
  Pb  Pb6  1  0.80399200  0.28374400  0.52913900  1
  Pb  Pb7  1  0.02913900  0.78374400  0.30399200  1
  Pb  Pb8  1  0.47086100  0.19600800  0.71625600  1
  Pb  Pb9  1  0.69600800  0.97086100  0.21625600  1
  Pb  Pb10  1  0.21625600  0.69600800  0.97086100  1
  Pb  Pb11  1  0.83759100  0.83759100  0.83759100  1
  Pb  Pb12  1  0.16240900  0.16240900  0.16240900  1
  Pb  Pb13  1  0.78374400  0.30399200  0.02913900  1
  Pb  Pb14  1  0.71625600  0.47086100  0.19600800  1
  Pb  Pb15  1  0.52913900  0.80399200  0.28374400  1
  O  O0  1  0.62547400  0.25000000  0.87452600  1
  O  O1  1  0.46545800  0.52399200  0.88103100  1
  O  O2  1  0.87452600  0.62547400  0.25000000  1
  O  O3  1  0.35237800  0.25137200  0.02989500  1
  O  O4  1  0.53454200  0.47600800  0.11896900  1
  O  O5  1  0.23252700  0.41480100  0.79902000  1
  O  O6  1  0.20098000  0.76747300  0.58519900  1
  O  O7  1  0.02399200  0.96545800  0.38103100  1
  O  O8  1  0.61896900  0.97600800  0.03454200  1
  O  O9  1  0.02989500  0.35237800  0.25137200  1
  O  O10  1  0.25000000  0.87452600  0.62547400  1
  O  O11  1  0.26747300  0.70098000  0.08519900  1
  O  O12  1  0.24862800  0.14762200  0.47010500  1
  O  O13  1  0.64762200  0.74862800  0.97010500  1
  O  O14  1  0.12547400  0.37452600  0.75000000  1
  O  O15  1  0.38103100  0.02399200  0.96545800  1
  O  O16  1  0.29902000  0.91480100  0.73252700  1
  O  O17  1  0.79902000  0.23252700  0.41480100  1
  O  O18  1  0.37452600  0.75000000  0.12547400  1
  O  O19  1  0.52989500  0.75137200  0.85237800  1
  O  O20  1  0.97010500  0.64762200  0.74862800  1
  O  O21  1  0.76747300  0.58519900  0.20098000  1
  O  O22  1  0.25137200  0.02989500  0.35237800  1
  O  O23  1  0.14762200  0.47010500  0.24862800  1
  O  O24  1  0.41480100  0.79902000  0.23252700  1
  O  O25  1  0.91480100  0.73252700  0.29902000  1
  O  O26  1  0.03454200  0.61896900  0.97600800  1
  O  O27  1  0.97600800  0.03454200  0.61896900  1
  O  O28  1  0.58519900  0.20098000  0.76747300  1
  O  O29  1  0.11896900  0.53454200  0.47600800  1
  O  O30  1  0.73252700  0.29902000  0.91480100  1
  O  O31  1  0.74862800  0.97010500  0.64762200  1
  O  O32  1  0.88103100  0.46545800  0.52399200  1
  O  O33  1  0.47010500  0.24862800  0.14762200  1
  O  O34  1  0.47600800  0.11896900  0.53454200  1
  O  O35  1  0.70098000  0.08519900  0.26747300  1
  O  O36  1  0.75137200  0.85237800  0.52989500  1
  O  O37  1  0.75000000  0.12547400  0.37452600  1
  O  O38  1  0.52399200  0.88103100  0.46545800  1
  O  O39  1  0.96545800  0.38103100  0.02399200  1
  O  O40  1  0.85237800  0.52989500  0.75137200  1
  O  O41  1  0.08519900  0.26747300  0.70098000  1
loop_
_geom_bond_atom_site_label_1
_geom_bond_atom_site_label_2
_geom_bond_distance
_geom_bond_site_symmetry_2
Mn0 O19 2.263468 1_555
Mn0 O31 2.263468 1_555
Mn0 O20 2.263468 1_555
Mn0 O40 2.263468 1_555
Mn0 O13 2.263468 1_555
Mn0 O36 2.263468 1_555
Mn1 O33 2.263468 1_555
Mn1 O22 2.263468 1_555
Mn1 O23 2.263468 1_555
Mn1 O9 2.263468 1_555
Mn1 O3 2.263468 1_555
Mn1 O12 2.263468 1_555
O0 Si3 1.684247 1_555
O0 Si2 1.684247 1_555
O1 Si2 1.632461 1_555
O1 Pb10 2.267248 1_555
O1 Pb1 2.745553 1_555
O2 Si7 1.684247 1_555
O2 Si8 1.684247 1_555
O3 Si3 1.651134 1_554
O3 Pb12 2.546474 1_555
O3 Pb0 2.618867 1_554
O4 Si10 1.632461 1_555
O4 Pb13 2.267248 1_555
O4 Pb5 2.745553 1_555
O5 Si5 1.636443 1_555
O5 Pb0 2.306494 1_555
O5 Pb8 2.517782 1_555
O6 Si0 1.636436 1_555
O6 Pb2 2.306494 1_555
O6 Pb0 2.517782 1_555
O7 Si1 1.632461 1_465
O7 Pb2 2.267248 1_555
O7 Pb12 2.745553 1_565
O8 Si3 1.632461 1_564
O8 Pb15 2.267248 1_555
O8 Pb11 2.745553 1_554
O9 Si8 1.651134 1_455
O9 Pb12 2.546474 1_555
O9 Pb6 2.618867 1_455
O10 Si4 1.684247 1_555
O10 Si0 1.684247 1_555
O11 Si10 1.636436 1_555
O11 Pb10 2.306494 1_554
O11 Pb7 2.517782 1_555
O12 Si4 1.651134 1_545
O12 Pb5 2.546474 1_555
O12 Pb3 2.618867 1_455
O13 Si11 1.651140 1_556
O13 Pb11 2.546474 1_555
O13 Pb14 2.618867 1_556
O14 Si5 1.684234 1_555
O14 Si9 1.684247 1_555
O15 Si11 1.632459 1_546
O15 Pb8 2.267248 1_555
O15 Pb12 2.745553 1_556
O16 Si4 1.636436 1_555
O16 Pb4 2.306494 1_565
O16 Pb10 2.517781 1_555
O17 Si1 1.636436 1_555
O17 Pb6 2.306494 1_555
O17 Pb14 2.517782 1_555
O18 Si11 1.684234 1_555
O18 Si10 1.684247 1_555
O19 Si10 1.651134 1_556
O19 Pb1 2.546474 1_555
O19 Pb4 2.618867 1_565
O20 Si5 1.651140 1_655
O20 Pb11 2.546474 1_555
O20 Pb2 2.618867 1_655
O21 Si8 1.636436 1_555
O21 Pb14 2.306494 1_555
O21 Pb15 2.517782 1_555
O22 Si0 1.651134 1_545
O22 Pb12 2.546474 1_555
O22 Pb15 2.618867 1_545
O23 Si7 1.651134 1_455
O23 Pb5 2.546474 1_555
O23 Pb10 2.618867 1_554
O24 Si11 1.636443 1_555
O24 Pb15 2.306494 1_555
O24 Pb2 2.517781 1_555
O25 Si7 1.636436 1_555
O25 Pb7 2.306494 1_655
O25 Pb9 2.517782 1_555
O26 Si8 1.632461 1_456
O26 Pb0 2.267248 1_555
O26 Pb11 2.745553 1_455
O27 Si0 1.632461 1_645
O27 Pb6 2.267248 1_555
O27 Pb11 2.745553 1_545
O28 Si3 1.636436 1_555
O28 Pb8 2.306494 1_555
O28 Pb6 2.517781 1_555
O29 Si9 1.632461 1_555
O29 Pb7 2.267248 1_555
O29 Pb5 2.745553 1_555
O30 Si2 1.636436 1_555
O30 Pb13 2.306494 1_556
O30 Pb3 2.517782 1_555
O31 Si1 1.651134 1_565
O31 Pb11 2.546474 1_555
O31 Pb8 2.618867 1_565
O32 Si7 1.632461 1_555
O32 Pb3 2.267248 1_555
O32 Pb1 2.745553 1_555
O33 Si2 1.651134 1_554
O33 Pb5 2.546474 1_555
O33 Pb9 2.618867 1_545
O34 Si6 1.632461 1_555
O34 Pb4 2.267248 1_555
O34 Pb5 2.745553 1_555
O35 Si6 1.636436 1_555
O35 Pb9 2.306494 1_545
O35 Pb13 2.517781 1_555
O36 Si6 1.651134 1_565
O36 Pb1 2.546474 1_555
O36 Pb7 2.618867 1_655
O37 Si6 1.684247 1_555
O37 Si1 1.684247 1_555
O38 Si4 1.632461 1_555
O38 Pb9 2.267248 1_555
O38 Pb1 2.745553 1_555
O39 Si5 1.632459 1_654
O39 Pb14 2.267248 1_555
O39 Pb12 2.745553 1_655
O40 Si9 1.651134 1_655
O40 Pb1 2.546474 1_555
O40 Pb13 2.618867 1_556
O41 Si9 1.636436 1_555
O41 Pb3 2.306494 1_455
O41 Pb4 2.517782 1_555
