# generated using pymatgen
data_Na3Sr4Nd3Ti10O30
_symmetry_space_group_name_H-M   'P 1'
_cell_length_a   5.51325300
_cell_length_b   5.51670736
_cell_length_c   19.89413166
_cell_angle_alpha   97.91678863
_cell_angle_beta   97.87624857
_cell_angle_gamma   89.52653417
_symmetry_Int_Tables_number   1
_chemical_formula_structural   Na3Sr4Nd3Ti10O30
_chemical_formula_sum   'Na3 Sr4 Nd3 Ti10 O30'
_cell_volume   593.62472491
_cell_formula_units_Z   1
loop_
 _symmetry_equiv_pos_site_id
 _symmetry_equiv_pos_as_xyz
  1  'x, y, z'
loop_
 _atom_site_type_symbol
 _atom_site_label
 _atom_site_symmetry_multiplicity
 _atom_site_fract_x
 _atom_site_fract_y
 _atom_site_fract_z
 _atom_site_occupancy
  Na  Na0  1  0.85837300  0.35051600  0.69953800  1
  Na  Na1  1  0.25153600  0.75663200  0.50062100  1
  Na  Na2  1  0.64420700  0.14873300  0.30288700  1
  Sr  Sr0  1  0.45167900  0.95446200  0.89970300  1
  Sr  Sr1  1  0.95234500  0.45176000  0.89747200  1
  Sr  Sr2  1  0.04982200  0.54827400  0.10027500  1
  Sr  Sr3  1  0.54934400  0.05094400  0.10084700  1
  Nd  Nd0  1  0.34361500  0.84224600  0.69719900  1
  Nd  Nd1  1  0.73770100  0.24172500  0.49772800  1
  Nd  Nd2  1  0.13883900  0.63834100  0.30008200  1
  Ti  Ti0  1  0.50173700  0.50366600  0.99975400  1
  Ti  Ti1  1  0.39997500  0.40318500  0.79661500  1
  Ti  Ti2  1  0.30028700  0.29497300  0.59892200  1
  Ti  Ti3  1  0.79766400  0.79620400  0.59804200  1
  Ti  Ti4  1  0.69412000  0.69314300  0.40064000  1
  Ti  Ti5  1  0.90103700  0.89961900  0.79551400  1
  Ti  Ti6  1  0.18958100  0.19542800  0.40067300  1
  Ti  Ti7  1  0.09766600  0.09598400  0.20229500  1
  Ti  Ti8  1  0.59710600  0.59803300  0.20269400  1
  Ti  Ti9  1  0.00085200  0.00297500  0.99893400  1
  O  O0  1  0.23087100  0.72976000  0.99221000  1
  O  O1  1  0.47172900  0.42643100  0.89901000  1
  O  O2  1  0.60854000  0.10765700  0.78477700  1
  O  O3  1  0.92949200  0.97089800  0.89929500  1
  O  O4  1  0.89132300  0.80819100  0.69811200  1
  O  O5  1  0.73531000  0.76666300  0.00103500  1
  O  O6  1  0.99894900  0.50096000  0.58156700  1
  O  O7  1  0.66708900  0.62634000  0.79758900  1
  O  O8  1  0.30800700  0.39477200  0.69828100  1
  O  O9  1  0.29622500  0.21176000  0.50036200  1
  O  O10  1  0.12757800  0.16519100  0.79711000  1
  O  O11  1  0.40004400  0.90231400  0.38466200  1
  O  O12  1  0.09336500  0.00932500  0.60280300  1
  O  O13  1  0.71496100  0.80293300  0.50039600  1
  O  O14  1  0.69618100  0.62286600  0.30266500  1
  O  O15  1  0.50978500  0.59155400  0.60091400  1
  O  O16  1  0.17928200  0.67920200  0.80872200  1
  O  O17  1  0.82213800  0.32251100  0.19198800  1
  O  O18  1  0.49269200  0.41461900  0.40373200  1
  O  O19  1  0.12236800  0.19840500  0.30261900  1
  O  O20  1  0.90898600  0.99621700  0.40260400  1
  O  O21  1  0.59162700  0.09324300  0.61388900  1
  O  O22  1  0.89122300  0.81754200  0.20504800  1
  O  O23  1  0.53366800  0.57546800  0.10227500  1
  O  O24  1  0.31843400  0.39022500  0.20460400  1
  O  O25  1  0.99244600  0.49473500  0.41500600  1
  O  O26  1  0.26816300  0.23515300  0.00178400  1
  O  O27  1  0.07525800  0.03141500  0.10245500  1
  O  O28  1  0.38272900  0.88262400  0.21510300  1
  O  O29  1  0.77012000  0.26910800  0.00829700  1
loop_
_geom_bond_atom_site_label_1
_geom_bond_atom_site_label_2
_geom_bond_distance
_geom_bond_site_symmetry_2
Na0 O21 2.400427 1_555
Na0 O8 2.496814 1_655
Na0 O4 2.537212 1_555
Na0 O10 2.597698 1_655
Na0 O7 2.636701 1_555
Na0 O6 2.800589 1_555
Na0 O2 2.804338 1_555
Na0 O12 2.927473 1_655
Na0 O4 2.992325 1_545
Na0 O15 2.992380 1_555
Na0 O16 3.008503 1_655
Na0 O8 3.039061 1_555
Na1 O25 2.391301 1_455
Na1 O9 2.525673 1_565
Na1 O12 2.553676 1_565
Na1 O15 2.556963 1_555
Na1 O13 2.570490 1_555
Na1 O11 2.770803 1_555
Na1 O6 2.791894 1_455
Na2 O28 2.433509 1_545
Na2 O20 2.533800 1_545
Na2 O18 2.550037 1_555
Na2 O14 2.634328 1_555
Na2 O19 2.653485 1_655
Na2 O11 2.747066 1_545
Na2 O17 2.817840 1_555
Na2 O19 2.887142 1_555
Na2 O14 2.912271 1_545
Na2 O24 2.922209 1_555
Na2 O22 2.947402 1_545
Nd0 O2 2.438841 1_565
Nd0 O12 2.454677 1_565
Nd0 O15 2.480202 1_555
Nd0 O8 2.481272 1_555
Nd0 O4 2.504948 1_455
Nd0 O21 2.796152 1_565
Nd0 O10 2.860370 1_565
Nd1 O6 2.370709 1_555
Nd1 O13 2.433207 1_545
Nd1 O9 2.449136 1_555
Nd1 O18 2.451312 1_555
Nd1 O20 2.463730 1_545
Nd1 O21 2.775307 1_555
Nd1 O25 2.815606 1_555
Nd2 O11 2.391944 1_555
Nd2 O19 2.437161 1_555
Nd2 O14 2.450494 1_455
Nd2 O22 2.490110 1_455
Nd2 O24 2.497746 1_555
Nd2 O25 2.742541 1_455
Nd2 O28 2.786177 1_555
Nd2 O17 2.949223 1_455
Nd2 O18 3.023230 1_555
Nd2 O20 3.036680 1_455
Nd2 O14 3.066827 1_555
Nd2 O19 3.083952 1_565
O0 Ti0 1.941064 1_555
O0 Ti9 1.963991 1_565
O0 Sr1 2.590709 1_455
O0 Sr0 2.770001 1_555
O0 Sr2 2.796109 1_556
O0 Sr3 2.974881 1_566
O1 Ti0 1.975055 1_555
O1 Ti1 2.007628 1_555
O1 Sr0 2.608985 1_545
O1 Sr1 2.659172 1_555
O1 Sr1 2.861926 1_455
O1 Sr0 2.912382 1_555
O2 Ti5 1.976324 1_545
O2 Ti1 1.993276 1_555
O2 Sr0 2.788517 1_545
O2 Sr1 3.153614 1_555
O3 Ti9 1.950930 1_665
O3 Ti5 2.032376 1_555
O3 Sr0 2.637775 1_555
O3 Sr1 2.662270 1_565
O3 Sr1 2.861114 1_555
O3 Sr0 2.878562 1_655
O4 Ti5 1.927390 1_555
O4 Ti3 1.979110 1_555
O5 Ti0 1.943112 1_554
O5 Ti9 1.976843 1_664
O5 Sr3 2.669679 1_565
O5 Sr0 2.695759 1_554
O5 Sr2 2.835228 1_655
O5 Sr1 2.889619 1_554
O6 Ti3 1.978534 1_555
O6 Ti2 2.022451 1_655
O7 Ti1 1.923605 1_555
O7 Ti5 2.000514 1_555
O7 Sr1 2.644826 1_555
O7 Sr0 2.902869 1_555
O8 Ti1 1.946731 1_555
O8 Ti2 1.972223 1_555
O9 Ti2 1.948338 1_555
O9 Ti6 1.979664 1_555
O10 Ti5 1.927169 1_445
O10 Ti1 2.004870 1_555
O10 Sr1 2.655754 1_455
O10 Sr0 2.886132 1_545
O11 Ti4 1.997535 1_555
O11 Ti6 1.997750 1_565
O12 Ti2 1.969275 1_555
O12 Ti3 2.001944 1_445
O13 Ti3 1.939004 1_555
O13 Ti4 1.981429 1_555
O14 Ti4 1.935812 1_555
O14 Ti8 1.975107 1_555
O15 Ti3 1.967022 1_555
O15 Ti2 2.003359 1_555
O16 Ti1 1.950836 1_555
O16 Ti5 1.961535 1_455
O16 Sr0 2.524470 1_555
O16 Sr1 2.738385 1_455
O17 Ti8 1.961376 1_555
O17 Ti7 1.965993 1_655
O17 Sr3 2.517061 1_555
O17 Sr2 2.781264 1_655
O18 Ti4 1.915971 1_555
O18 Ti6 2.060053 1_555
O19 Ti6 1.937376 1_555
O19 Ti7 1.984283 1_555
O20 Ti6 1.912707 1_665
O20 Ti4 2.049968 1_555
O21 Ti2 1.959034 1_555
O21 Ti3 2.000018 1_545
O22 Ti7 1.930580 1_665
O22 Ti8 2.023376 1_555
O22 Sr2 2.634559 1_655
O22 Sr3 3.021961 1_565
O23 Ti8 1.967115 1_555
O23 Ti0 2.006969 1_554
O23 Sr3 2.629387 1_565
O23 Sr2 2.667560 1_555
O23 Sr2 2.853832 1_655
O23 Sr3 2.890563 1_555
O24 Ti8 1.932179 1_555
O24 Ti7 2.028612 1_555
O24 Sr2 2.626020 1_555
O24 Sr3 3.000214 1_555
O25 Ti4 1.978010 1_555
O25 Ti6 1.978526 1_655
O26 Ti9 1.950398 1_554
O26 Ti0 1.979007 1_554
O26 Sr3 2.647300 1_555
O26 Sr0 2.686387 1_544
O26 Sr2 2.819908 1_555
O26 Sr1 2.902501 1_454
O27 Ti7 1.955974 1_555
O27 Ti9 2.028494 1_554
O27 Sr3 2.621616 1_555
O27 Sr2 2.664262 1_545
O27 Sr2 2.859648 1_555
O27 Sr3 2.896563 1_455
O28 Ti7 1.965364 1_565
O28 Ti8 1.966040 1_555
O28 Sr3 2.835571 1_565
O28 Sr2 3.120182 1_555
O29 Ti9 1.940922 1_654
O29 Ti0 1.962832 1_554
O29 Sr2 2.566647 1_655
O29 Sr3 2.751176 1_555
O29 Sr1 2.849814 1_554
O29 Sr0 2.956422 1_544
