# generated using pymatgen
data_CuH11C5NO6
_symmetry_space_group_name_H-M   'P 1'
_cell_length_a   8.22215761
_cell_length_b   8.22215761
_cell_length_c   8.91104195
_cell_angle_alpha   61.95670073
_cell_angle_beta   61.95670073
_cell_angle_gamma   65.11690073
_symmetry_Int_Tables_number   1
_chemical_formula_structural   CuH11C5NO6
_chemical_formula_sum   'Cu2 H22 C10 N2 O12'
_cell_volume   453.57876969
_cell_formula_units_Z   2
loop_
 _symmetry_equiv_pos_site_id
 _symmetry_equiv_pos_as_xyz
  1  'x, y, z'
loop_
 _atom_site_type_symbol
 _atom_site_label
 _atom_site_symmetry_multiplicity
 _atom_site_fract_x
 _atom_site_fract_y
 _atom_site_fract_z
 _atom_site_occupancy
  Cu  Cu0  1  0.00000000  0.50000000  0.00000000  1
  Cu  Cu1  1  0.50000000  0.00000000  0.50000000  1
  H  H0  1  0.67959600  0.44972600  0.74076800  1
  H  H1  1  0.55027400  0.32040400  0.75923200  1
  H  H2  1  0.32040400  0.55027400  0.25923200  1
  H  H3  1  0.44972600  0.67959600  0.24076800  1
  H  H4  1  0.97354500  0.27194100  0.57535700  1
  H  H5  1  0.72805900  0.02645500  0.92464300  1
  H  H6  1  0.02645500  0.72805900  0.42464300  1
  H  H7  1  0.27194100  0.97354500  0.07535700  1
  H  H8  1  0.84317300  0.13831000  0.58756700  1
  H  H9  1  0.86169000  0.15682700  0.91243300  1
  H  H10  1  0.15682700  0.86169000  0.41243300  1
  H  H11  1  0.13831000  0.84317300  0.08756700  1
  H  H12  1  0.79842300  0.38899000  0.46514400  1
  H  H13  1  0.61101000  0.20157700  0.03485600  1
  H  H14  1  0.20157700  0.61101000  0.53485600  1
  H  H15  1  0.38899000  0.79842300  0.96514400  1
  H  H16  1  0.66353300  0.33646700  0.25000000  1
  H  H17  1  0.33646700  0.66353300  0.75000000  1
  H  H18  1  0.23895700  0.18455200  0.22777700  1
  H  H19  1  0.81544800  0.76104300  0.27222300  1
  H  H20  1  0.76104300  0.81544800  0.77222300  1
  H  H21  1  0.18455200  0.23895700  0.72777700  1
  C  C0  1  0.24069300  0.32128000  0.22273800  1
  C  C1  1  0.67872000  0.75930700  0.27726200  1
  C  C2  1  0.75930700  0.67872000  0.77726200  1
  C  C3  1  0.32128000  0.24069300  0.72273800  1
  C  C4  1  0.78851200  0.21148800  0.25000000  1
  C  C5  1  0.21148800  0.78851200  0.75000000  1
  C  C6  1  0.83492900  0.27659600  0.58304200  1
  C  C7  1  0.72340400  0.16507100  0.91695800  1
  C  C8  1  0.16507100  0.72340400  0.41695800  1
  C  C9  1  0.27659600  0.83492900  0.08304200  1
  N  N0  1  0.68632300  0.31367700  0.75000000  1
  N  N1  1  0.31367700  0.68632300  0.25000000  1
  O  O0  1  0.95466700  0.23808600  0.16067800  1
  O  O1  1  0.76191400  0.04533300  0.33932200  1
  O  O2  1  0.04533300  0.76191400  0.83932200  1
  O  O3  1  0.23808600  0.95466700  0.66067800  1
  O  O4  1  0.14492800  0.47677500  0.13744500  1
  O  O5  1  0.52322500  0.85507200  0.36255500  1
  O  O6  1  0.85507200  0.52322500  0.86255500  1
  O  O7  1  0.47677500  0.14492800  0.63744500  1
  O  O8  1  0.33663700  0.31684600  0.30199500  1
  O  O9  1  0.68315400  0.66336300  0.19800500  1
  O  O10  1  0.66336300  0.68315400  0.69800500  1
  O  O11  1  0.31684600  0.33663700  0.80199500  1
loop_
_geom_bond_atom_site_label_1
_geom_bond_atom_site_label_2
_geom_bond_distance
_geom_bond_site_symmetry_2
Cu0 O4 1.979244 1_555
Cu0 O6 1.979244 1_454
Cu0 O2 2.025090 1_554
Cu0 O0 2.025090 1_455
Cu0 O11 2.581829 1_554
Cu0 O9 2.581829 1_455
Cu1 O7 1.979244 1_555
Cu1 O5 1.979244 1_545
Cu1 O1 2.025090 1_555
Cu1 O3 2.025090 1_545
Cu1 O8 2.581829 1_555
Cu1 O10 2.581829 1_545
H0 N0 1.061514 1_555
H1 N0 1.061514 1_555
H2 N1 1.061514 1_555
H3 N1 1.061514 1_555
C0 H18 1.109721 1_555
C0 O8 1.264083 1_555
C0 O4 1.278319 1_555
C1 H19 1.109721 1_555
C1 O9 1.264083 1_555
C1 O5 1.278319 1_555
C2 H20 1.109721 1_555
C2 O10 1.264083 1_555
C2 O6 1.278319 1_555
C3 H21 1.109721 1_555
C3 O11 1.264083 1_555
C3 O7 1.278319 1_555
C4 H16 1.106023 1_555
C4 O1 1.270055 1_555
C4 O0 1.270055 1_555
C5 H17 1.106023 1_555
C5 O2 1.270055 1_555
C5 O3 1.270055 1_555
C6 H8 1.092526 1_555
C6 H4 1.094298 1_555
C6 H12 1.094547 1_555
C6 N0 1.484282 1_555
C7 H9 1.092526 1_555
C7 H5 1.094298 1_555
C7 H13 1.094547 1_556
C7 N0 1.484282 1_555
C8 H10 1.092526 1_555
C8 H6 1.094298 1_555
C8 H14 1.094547 1_555
C8 N1 1.484282 1_555
C9 H11 1.092526 1_555
C9 H7 1.094298 1_555
C9 H15 1.094547 1_554
C9 N1 1.484282 1_555
