# generated using pymatgen
data_OsC4ClO4
_symmetry_space_group_name_H-M   'P 1'
_cell_length_a   9.48153700
_cell_length_b   9.94221500
_cell_length_c   16.06322700
_cell_angle_alpha   90.00000000
_cell_angle_beta   90.00000000
_cell_angle_gamma   90.00000000
_symmetry_Int_Tables_number   1
_chemical_formula_structural   OsC4ClO4
_chemical_formula_sum   'Os8 C32 Cl8 O32'
_cell_volume   1514.23992007
_cell_formula_units_Z   8
loop_
 _symmetry_equiv_pos_site_id
 _symmetry_equiv_pos_as_xyz
  1  'x, y, z'
loop_
 _atom_site_type_symbol
 _atom_site_label
 _atom_site_symmetry_multiplicity
 _atom_site_fract_x
 _atom_site_fract_y
 _atom_site_fract_z
 _atom_site_occupancy
  Os  Os0  1  0.02742500  0.52501900  0.36241500  1
  Os  Os1  1  0.52742500  0.97498100  0.63758500  1
  Os  Os2  1  0.31515800  0.50358100  0.43636400  1
  Os  Os3  1  0.68484200  0.00358100  0.06363600  1
  Os  Os4  1  0.18484200  0.49641900  0.93636400  1
  Os  Os5  1  0.81515800  0.99641900  0.56363600  1
  Os  Os6  1  0.47257500  0.47498100  0.86241500  1
  Os  Os7  1  0.97257500  0.02501900  0.13758500  1
  C  C0  1  0.44220200  0.28530600  0.85952600  1
  C  C1  1  0.27490800  0.62121300  0.01579400  1
  C  C2  1  0.87171200  0.85625900  0.64368700  1
  C  C3  1  0.03631300  0.02681800  0.02030500  1
  C  C4  1  0.62828800  0.14374100  0.14368700  1
  C  C5  1  0.16247100  0.03493400  0.18177000  1
  C  C6  1  0.46368700  0.97318200  0.52030500  1
  C  C7  1  0.35171600  0.36026800  0.36065100  1
  C  C8  1  0.37508200  0.49304500  0.75504500  1
  C  C9  1  0.66247100  0.46506600  0.81823000  1
  C  C10  1  0.87508200  0.00695500  0.24495500  1
  C  C11  1  0.33752900  0.96506600  0.68177000  1
  C  C12  1  0.94220200  0.21469400  0.14047400  1
  C  C13  1  0.50122000  0.48881800  0.48503700  1
  C  C14  1  0.99878000  0.51118200  0.98503700  1
  C  C15  1  0.55779800  0.78530600  0.64047400  1
  C  C16  1  0.14828400  0.63973200  0.86065100  1
  C  C17  1  0.53631300  0.47318200  0.97969500  1
  C  C18  1  0.05779800  0.71469400  0.35952600  1
  C  C19  1  0.22509200  0.37878700  0.51579400  1
  C  C20  1  0.77490800  0.87878700  0.98420600  1
  C  C21  1  0.72509200  0.12121300  0.48420600  1
  C  C22  1  0.00122000  0.01118200  0.51496300  1
  C  C23  1  0.83752900  0.53493400  0.31823000  1
  C  C24  1  0.12491800  0.50695500  0.25504500  1
  C  C25  1  0.64828400  0.86026800  0.13934900  1
  C  C26  1  0.12828800  0.35625900  0.85631300  1
  C  C27  1  0.49878000  0.98881800  0.01496300  1
  C  C28  1  0.96368700  0.52681800  0.47969500  1
  C  C29  1  0.37171200  0.64374100  0.35631300  1
  C  C30  1  0.85171600  0.13973200  0.63934900  1
  C  C31  1  0.62491800  0.99304500  0.74495500  1
  Cl  Cl0  1  0.99146200  0.77744800  0.13407000  1
  Cl  Cl1  1  0.74733500  0.19176700  0.97058200  1
  Cl  Cl2  1  0.00853800  0.27744800  0.36593000  1
  Cl  Cl3  1  0.75266500  0.80823300  0.47058200  1
  Cl  Cl4  1  0.49146200  0.72255200  0.86593000  1
  Cl  Cl5  1  0.50853800  0.22255200  0.63407000  1
  Cl  Cl6  1  0.24733500  0.30823300  0.02941800  1
  Cl  Cl7  1  0.25266500  0.69176700  0.52941800  1
  O  O0  1  0.07401600  0.02395500  0.95220400  1
  O  O1  1  0.67418800  0.19331700  0.43675400  1
  O  O2  1  0.09698100  0.27092700  0.81137500  1
  O  O3  1  0.57843200  0.67082300  0.64710900  1
  O  O4  1  0.62257100  0.77181200  0.18367800  1
  O  O5  1  0.42598400  0.97604500  0.45220400  1
  O  O6  1  0.31470100  0.50221200  0.69298100  1
  O  O7  1  0.88518800  0.52432500  0.00943000  1
  O  O8  1  0.32581200  0.69331700  0.06324600  1
  O  O9  1  0.61481200  0.47567500  0.50943000  1
  O  O10  1  0.77676600  0.45629500  0.79344300  1
  O  O11  1  0.92598400  0.52395500  0.54779600  1
  O  O12  1  0.42156800  0.17082300  0.85289100  1
  O  O13  1  0.68529900  0.00221200  0.80701900  1
  O  O14  1  0.57401600  0.47604500  0.04779600  1
  O  O15  1  0.59698100  0.22907300  0.18862500  1
  O  O16  1  0.22323400  0.95629500  0.70655700  1
  O  O17  1  0.11481200  0.02432500  0.49057000  1
  O  O18  1  0.82581200  0.80668300  0.93675400  1
  O  O19  1  0.18529900  0.49778800  0.19298100  1
  O  O20  1  0.37742900  0.27181200  0.31632200  1
  O  O21  1  0.27676600  0.04370500  0.20655700  1
  O  O22  1  0.17418800  0.30668300  0.56324600  1
  O  O23  1  0.87742900  0.22818800  0.68367800  1
  O  O24  1  0.38518800  0.97567500  0.99057000  1
  O  O25  1  0.81470100  0.99778800  0.30701900  1
  O  O26  1  0.12257100  0.72818800  0.81632200  1
  O  O27  1  0.72323400  0.54370500  0.29344300  1
  O  O28  1  0.92156800  0.32917700  0.14710900  1
  O  O29  1  0.07843200  0.82917700  0.35289100  1
  O  O30  1  0.90301900  0.77092700  0.68862500  1
  O  O31  1  0.40301900  0.72907300  0.31137500  1
loop_
_geom_bond_atom_site_label_1
_geom_bond_atom_site_label_2
_geom_bond_distance
_geom_bond_site_symmetry_2
C0 O12 1.159814 1_555
C0 Os6 1.908216 1_555
C1 O8 1.152326 1_555
C1 Os4 1.973978 1_554
C2 O30 1.152798 1_555
C2 Os5 1.970496 1_555
C3 O0 1.151203 1_554
C3 Os7 1.978535 1_455
C4 O15 1.152798 1_555
C4 Os3 1.970496 1_555
C5 O21 1.157810 1_555
C5 Os7 1.937857 1_455
C6 O5 1.151203 1_555
C6 Os1 1.978535 1_555
C7 O20 1.157543 1_555
C7 Os2 1.905118 1_555
C8 O6 1.153245 1_555
C8 Os6 1.965034 1_555
C9 O10 1.157810 1_555
C9 Os6 1.937857 1_555
C10 O25 1.153245 1_545
C10 Os7 1.965034 1_555
C11 O16 1.157810 1_555
C11 Os1 1.937857 1_555
C12 O28 1.159814 1_555
C12 Os7 1.908216 1_555
C13 O9 1.153513 1_555
C13 Os2 1.935217 1_555
C14 O7 1.153513 1_556
C14 Os4 1.935217 1_655
C15 O3 1.159814 1_555
C15 Os1 1.908216 1_555
C16 O26 1.157543 1_555
C16 Os4 1.905118 1_555
C17 O14 1.151203 1_556
C17 Os6 1.978535 1_555
C18 O29 1.159814 1_555
C18 Os0 1.908216 1_555
C19 O22 1.152326 1_555
C19 Os2 1.973978 1_555
C20 O18 1.152326 1_555
C20 Os3 1.973978 1_566
C21 O1 1.152326 1_555
C21 Os5 1.973978 1_545
C22 O17 1.153513 1_555
C22 Os5 1.935217 1_445
C23 O27 1.157810 1_555
C23 Os0 1.937857 1_655
C24 O19 1.153245 1_555
C24 Os0 1.965034 1_555
C25 O4 1.157543 1_555
C25 Os3 1.905118 1_565
C26 O2 1.152798 1_555
C26 Os4 1.970496 1_555
C27 O24 1.153513 1_554
C27 Os3 1.935217 1_565
C28 O11 1.151203 1_555
C28 Os0 1.978535 1_655
C29 O31 1.152798 1_555
C29 Os2 1.970496 1_555
C30 O23 1.157543 1_555
C30 Os5 1.905118 1_545
C31 O13 1.153245 1_565
C31 Os1 1.965034 1_555
Cl0 Os7 2.468556 1_565
Cl1 Os3 2.466972 1_556
Cl2 Os0 2.468556 1_555
Cl3 Os5 2.466972 1_555
Cl4 Os6 2.468556 1_555
Cl5 Os1 2.468556 1_545
Cl6 Os4 2.466972 1_554
Cl7 Os2 2.466972 1_555
