# generated using pymatgen
data_Pr6MnS10
_symmetry_space_group_name_H-M   'P 1'
_cell_length_a   7.44239800
_cell_length_b   7.45521514
_cell_length_c   30.63270209
_cell_angle_alpha   94.21046578
_cell_angle_beta   95.14043786
_cell_angle_gamma   108.77544273
_symmetry_Int_Tables_number   1
_chemical_formula_structural   Pr6MnS10
_chemical_formula_sum   'Pr24 Mn4 S40'
_cell_volume   1593.27921703
_cell_formula_units_Z   4
loop_
 _symmetry_equiv_pos_site_id
 _symmetry_equiv_pos_as_xyz
  1  'x, y, z'
loop_
 _atom_site_type_symbol
 _atom_site_label
 _atom_site_symmetry_multiplicity
 _atom_site_fract_x
 _atom_site_fract_y
 _atom_site_fract_z
 _atom_site_occupancy
  Pr  Pr0  1  0.82026400  0.19655900  0.02574400  1
  Pr  Pr1  1  0.00389400  0.63638800  0.12605900  1
  Pr  Pr2  1  0.42314900  0.79211500  0.22438300  1
  Pr  Pr3  1  0.46673300  0.58909100  0.07633800  1
  Pr  Pr4  1  0.60364700  0.23742700  0.32582700  1
  Pr  Pr5  1  0.02334700  0.38281500  0.43114100  1
  Pr  Pr6  1  0.82356600  0.08100700  0.15071100  1
  Pr  Pr7  1  0.07475300  0.20063800  0.27216100  1
  Pr  Pr8  1  0.18608600  0.82557400  0.52440600  1
  Pr  Pr9  1  0.63429500  0.00646300  0.62394100  1
  Pr  Pr10  1  0.42412700  0.67467700  0.34949900  1
  Pr  Pr11  1  0.67732200  0.81067300  0.47288500  1
  Pr  Pr12  1  0.01203500  0.87886200  0.37332400  1
  Pr  Pr13  1  0.80269900  0.42927300  0.72447100  1
  Pr  Pr14  1  0.22522100  0.59817900  0.82649100  1
  Pr  Pr15  1  0.26943200  0.39674600  0.66978700  1
  Pr  Pr16  1  0.59646300  0.45740300  0.56945500  1
  Pr  Pr17  1  0.40074000  0.01941700  0.92453800  1
  Pr  Pr18  1  0.62840200  0.87566900  0.75398200  1
  Pr  Pr19  1  0.18981800  0.07619500  0.77923500  1
  Pr  Pr20  1  0.07980300  0.82311100  0.64863900  1
  Pr  Pr21  1  0.21447500  0.45679900  0.94952900  1
  Pr  Pr22  1  0.80531400  0.68574500  0.97393600  1
  Pr  Pr23  1  0.68285600  0.42812300  0.85286600  1
  Mn  Mn0  1  0.40621600  0.25714100  0.17220500  1
  Mn  Mn1  1  0.28331800  0.03145300  0.05124500  1
  Mn  Mn2  1  0.85705500  0.60231300  0.24813800  1
  Mn  Mn3  1  0.47141300  0.23901100  0.45667700  1
  S  S0  1  0.18231300  0.28720800  0.10716600  1
  S  S1  1  0.67197600  0.31231700  0.10066500  1
  S  S2  1  0.66550600  0.64532300  0.17723800  1
  S  S3  1  0.26953100  0.91517900  0.29997100  1
  S  S4  1  0.12751700  0.98866000  0.19505000  1
  S  S5  1  0.84193500  0.85514100  0.07274500  1
  S  S6  1  0.65507700  0.17928700  0.22516200  1
  S  S7  1  0.08101200  0.57239400  0.03071200  1
  S  S8  1  0.38850900  0.89031100  0.12294400  1
  S  S9  1  0.98231500  0.49599300  0.31988800  1
  S  S10  1  0.26623100  0.26654100  0.37246900  1
  S  S11  1  0.84600000  0.50846700  0.49812400  1
  S  S12  1  0.71199800  0.56849600  0.39603300  1
  S  S13  1  0.44712000  0.45967000  0.27164600  1
  S  S14  1  0.27641200  0.75933700  0.42676800  1
  S  S15  1  0.06682600  0.47474000  0.20395100  1
  S  S16  1  0.56278800  0.08602900  0.52184400  1
  S  S17  1  0.84776700  0.84130900  0.57139900  1
  S  S18  1  0.45826600  0.10072100  0.70148200  1
  S  S19  1  0.30375100  0.14109200  0.60040200  1
  S  S20  1  0.76299300  0.89094700  0.29673000  1
  S  S21  1  0.06080200  0.04914000  0.46642300  1
  S  S22  1  0.89104500  0.39935600  0.63183200  1
  S  S23  1  0.68184100  0.06092700  0.40059100  1
  S  S24  1  0.45954400  0.45699600  0.77092500  1
  S  S25  1  0.05461200  0.69243000  0.90170200  1
  S  S26  1  0.90252900  0.73988300  0.79903200  1
  S  S27  1  0.37089700  0.49071400  0.49447600  1
  S  S28  1  0.65535300  0.66793700  0.67280100  1
  S  S29  1  0.47582100  0.98445400  0.82924500  1
  S  S30  1  0.31435800  0.66519200  0.60038900  1
  S  S31  1  0.19431000  0.68708800  0.72902300  1
  S  S32  1  0.08814100  0.06170800  0.98347400  1
  S  S33  1  0.51136200  0.37139200  0.00011900  1
  S  S34  1  0.95736200  0.09915200  0.69950400  1
  S  S35  1  0.26775800  0.26359400  0.86986100  1
  S  S36  1  0.89971100  0.25711800  0.79836800  1
  S  S37  1  0.78895000  0.28941900  0.93272100  1
  S  S38  1  0.54188400  0.69725100  0.90161200  1
  S  S39  1  0.48143800  0.86321800  0.00289800  1
loop_
_geom_bond_atom_site_label_1
_geom_bond_atom_site_label_2
_geom_bond_distance
_geom_bond_site_symmetry_2
Pr0 S1 2.829496 1_555
Pr0 S7 2.832697 1_655
Pr0 S32 2.867683 1_654
Pr0 S39 2.901531 1_545
Pr0 S37 2.987980 1_554
Pr0 S5 3.055896 1_545
Pr0 S33 3.058777 1_555
Pr0 S0 3.363633 1_655
Pr1 S15 2.819610 1_555
Pr1 S1 2.842940 1_455
Pr1 S5 2.843152 1_455
Pr1 S8 2.893736 1_555
Pr1 S7 3.059373 1_555
Pr1 S4 3.080791 1_555
Pr1 S2 3.099172 1_455
Pr1 S0 3.319114 1_555
Pr2 S2 2.835850 1_555
Pr2 S6 2.843745 1_565
Pr2 S3 2.889269 1_555
Pr2 S15 2.910106 1_555
Pr2 S13 3.005976 1_555
Pr2 S20 3.067189 1_555
Pr2 S4 3.116049 1_555
Pr2 S8 3.251153 1_555
Pr3 S8 2.817780 1_555
Pr3 S0 2.835720 1_555
Pr3 S33 2.850480 1_555
Pr3 S5 2.874987 1_555
Pr3 S1 3.032651 1_555
Pr3 S7 3.038952 1_555
Pr3 S39 3.134460 1_555
Pr3 S2 3.241707 1_555
Pr4 S23 2.830523 1_555
Pr4 S3 2.846825 1_545
Pr4 S13 2.856001 1_555
Pr4 S9 2.887484 1_555
Pr4 S12 2.999315 1_555
Pr4 S10 3.056599 1_555
Pr4 S6 3.156780 1_555
Pr4 S20 3.270538 1_545
Pr5 S11 2.797993 1_455
Pr5 S14 2.853403 1_555
Pr5 S21 2.867269 1_555
Pr5 S23 2.900380 1_455
Pr5 S10 2.934499 1_555
Pr5 S27 2.938345 1_555
Pr5 S12 3.206101 1_455
Pr5 S9 3.580663 1_455
Pr6 S1 2.815577 1_555
Pr6 S4 2.832884 1_645
Pr6 S6 2.858162 1_555
Pr6 S5 2.859076 1_545
Pr6 S0 3.093261 1_655
Pr6 S8 3.097448 1_545
Pr6 S15 3.146564 1_655
Pr6 S2 3.270112 1_545
Pr7 S13 2.824347 1_555
Pr7 S9 2.853406 1_455
Pr7 S4 2.872079 1_545
Pr7 S20 2.898316 1_445
Pr7 S15 3.037705 1_555
Pr7 S3 3.063817 1_545
Pr7 S10 3.202601 1_555
Pr7 S6 3.270200 1_455
Pr8 S21 2.817894 1_565
Pr8 S11 2.854285 1_455
Pr8 S16 2.862523 1_565
Pr8 S30 2.916135 1_555
Pr8 S19 3.037101 1_565
Pr8 S17 3.039848 1_455
Pr8 S14 3.162031 1_555
Pr8 S27 3.326398 1_555
Pr9 S17 2.838493 1_545
Pr9 S30 2.861161 1_545
Pr9 S22 2.915425 1_555
Pr9 S18 2.959265 1_555
Pr9 S19 2.992816 1_555
Pr9 S34 3.052007 1_555
Pr9 S28 3.066179 1_545
Pr9 S16 3.254805 1_555
Pr10 S14 2.811228 1_555
Pr10 S12 2.821141 1_555
Pr10 S13 2.823918 1_555
Pr10 S3 2.873163 1_555
Pr10 S10 3.048796 1_555
Pr10 S23 3.108894 1_565
Pr10 S9 3.142877 1_455
Pr10 S20 3.173107 1_555
Pr11 S16 2.844890 1_565
Pr11 S21 2.869136 1_665
Pr11 S27 2.885899 1_555
Pr11 S12 2.941636 1_555
Pr11 S23 2.994310 1_565
Pr11 S11 3.025274 1_555
Pr11 S14 3.078152 1_555
Pr11 S17 3.129607 1_555
Pr12 S12 2.830687 1_455
Pr12 S14 2.848036 1_555
Pr12 S20 2.882319 1_455
Pr12 S10 2.904028 1_565
Pr12 S21 2.977039 1_565
Pr12 S3 3.053166 1_555
Pr12 S9 3.117433 1_455
Pr12 S23 3.305678 1_465
Pr13 S36 2.832485 1_555
Pr13 S28 2.869178 1_555
Pr13 S18 2.906554 1_555
Pr13 S31 2.913760 1_655
Pr13 S22 2.978403 1_555
Pr13 S26 2.990445 1_555
Pr13 S24 3.088348 1_555
Pr13 S34 3.109977 1_555
Pr14 S29 2.873564 1_555
Pr14 S25 2.876599 1_555
Pr14 S36 2.900934 1_455
Pr14 S24 2.914934 1_555
Pr14 S26 2.998828 1_455
Pr14 S35 3.001144 1_555
Pr14 S38 3.008845 1_555
Pr14 S31 3.110049 1_555
Pr15 S19 2.833944 1_555
Pr15 S34 2.916099 1_455
Pr15 S28 2.921059 1_555
Pr15 S31 2.945266 1_555
Pr15 S22 2.955419 1_455
Pr15 S30 2.992937 1_555
Pr15 S18 3.139260 1_555
Pr15 S24 3.225388 1_555
Pr16 S27 2.795784 1_555
Pr16 S17 2.863982 1_555
Pr16 S19 2.932032 1_555
Pr16 S22 2.937078 1_555
Pr16 S16 2.958097 1_555
Pr16 S11 2.960176 1_555
Pr16 S30 3.152830 1_555
Pr16 S28 3.355092 1_555
Pr17 S39 2.842693 1_546
Pr17 S35 2.899841 1_555
Pr17 S25 2.907267 1_545
Pr17 S37 2.917988 1_555
Pr17 S38 2.978923 1_545
Pr17 S29 3.029115 1_545
Pr17 S32 3.148419 1_555
Pr17 S33 3.209282 1_556
Pr18 S29 2.837262 1_555
Pr18 S26 2.849832 1_555
Pr18 S28 2.889053 1_555
Pr18 S18 2.898898 1_565
Pr18 S36 3.042508 1_565
Pr18 S24 3.069350 1_555
Pr18 S31 3.078018 1_555
Pr18 S34 3.173235 1_565
Pr19 S29 2.802146 1_545
Pr19 S26 2.868883 1_445
Pr19 S34 2.912441 1_455
Pr19 S35 2.935207 1_555
Pr19 S24 2.946746 1_555
Pr19 S36 2.968136 1_455
Pr19 S31 3.193508 1_545
Pr19 S18 3.221711 1_555
Pr20 S17 2.839835 1_455
Pr20 S30 2.854425 1_555
Pr20 S31 2.892209 1_555
Pr20 S34 2.912740 1_465
Pr20 S19 2.998900 1_565
Pr20 S22 2.998950 1_455
Pr20 S18 3.126627 1_565
Pr20 S28 3.171312 1_455
Pr21 S25 2.838812 1_555
Pr21 S33 2.850627 1_556
Pr21 S35 2.865776 1_555
Pr21 S7 2.931330 1_556
Pr21 S37 2.986843 1_455
Pr21 S32 3.079508 1_555
Pr21 S38 3.085615 1_555
Pr21 S39 3.258244 1_556
Pr22 S38 2.849086 1_555
Pr22 S33 2.865612 1_556
Pr22 S32 2.888579 1_665
Pr22 S7 2.939653 1_656
Pr22 S25 3.005558 1_655
Pr22 S37 3.087405 1_555
Pr22 S5 3.146412 1_556
Pr22 S39 3.257543 1_556
Pr23 S37 2.868352 1_555
Pr23 S36 2.917498 1_555
Pr23 S38 2.924381 1_555
Pr23 S24 2.944666 1_555
Pr23 S25 3.015237 1_655
Pr23 S35 3.043383 1_555
Pr23 S26 3.065014 1_555
Pr23 S29 3.163274 1_545
Mn0 S0 2.550980 1_555
Mn0 S4 2.567412 1_545
Mn0 S6 2.586637 1_555
Mn0 S2 2.899831 1_555
Mn0 S8 2.983277 1_545
Mn0 S1 3.044524 1_555
Mn0 S13 3.242536 1_555
Mn1 S32 2.491984 1_554
Mn1 S8 2.665617 1_545
Mn1 S39 2.692503 1_545
Mn1 S0 2.794425 1_555
Mn1 S1 3.145485 1_555
Mn1 S33 3.169595 1_555
Mn2 S15 2.513861 1_655
Mn2 S9 2.586968 1_555
Mn2 S2 2.587232 1_555
Mn2 S20 2.832341 1_555
Mn2 S6 3.022233 1_555
Mn2 S13 3.061875 1_555
Mn3 S27 2.482212 1_555
Mn3 S16 2.517647 1_555
Mn3 S10 2.932839 1_555
Mn3 S23 2.941546 1_555
Mn3 S11 2.967424 1_555
Mn3 S21 2.978679 1_555
