# generated using pymatgen
data_Te3Au2
_symmetry_space_group_name_H-M   'P 1'
_cell_length_a   10.78371300
_cell_length_b   12.26366283
_cell_length_c   13.59401039
_cell_angle_alpha   109.47229208
_cell_angle_beta   104.25164628
_cell_angle_gamma   96.61139844
_symmetry_Int_Tables_number   1
_chemical_formula_structural   Te3Au2
_chemical_formula_sum   'Te36 Au24'
_cell_volume   1604.07660012
_cell_formula_units_Z   12
loop_
 _symmetry_equiv_pos_site_id
 _symmetry_equiv_pos_as_xyz
  1  'x, y, z'
loop_
 _atom_site_type_symbol
 _atom_site_label
 _atom_site_symmetry_multiplicity
 _atom_site_fract_x
 _atom_site_fract_y
 _atom_site_fract_z
 _atom_site_occupancy
  Te  Te0  1  0.24383100  0.18594300  0.11468800  1
  Te  Te1  1  0.11600000  0.22643700  0.40372200  1
  Te  Te2  1  0.08112000  0.08090600  0.57984500  1
  Te  Te3  1  0.47294700  0.40491600  0.28493200  1
  Te  Te4  1  0.49570100  0.24614000  0.45283800  1
  Te  Te5  1  0.27165100  0.63657700  0.23534500  1
  Te  Te6  1  0.24319300  0.51248900  0.39254400  1
  Te  Te7  1  0.37087500  0.31154100  0.73344900  1
  Te  Te8  1  0.03156500  0.75755500  0.32286200  1
  Te  Te9  1  0.13132200  0.56914500  0.66740200  1
  Te  Te10  1  0.15869200  0.40760200  0.83366700  1
  Te  Te11  1  0.41005000  0.94505500  0.22170600  1
  Te  Te12  1  0.31566400  0.97097100  0.48350100  1
  Te  Te13  1  0.29579600  0.85281400  0.63480000  1
  Te  Te14  1  0.40178300  0.64453300  0.00142100  1
  Te  Te15  1  0.20747200  0.88872000  0.89879900  1
  Te  Te16  1  0.00197600  0.58988700  0.92779400  1
  Te  Te17  1  0.56272000  0.91664900  0.95408100  1
  Te  Te18  1  0.80597100  0.81602300  0.85220400  1
  Te  Te19  1  0.90915900  0.76309000  0.58913700  1
  Te  Te20  1  0.50180000  0.59300800  0.70854400  1
  Te  Te21  1  0.53766500  0.72965900  0.53751300  1
  Te  Te22  1  0.74254500  0.32586400  0.76308900  1
  Te  Te23  1  0.71819400  0.46580700  0.59824500  1
  Te  Te24  1  0.66790000  0.72655000  0.28678600  1
  Te  Te25  1  0.95493800  0.09380400  0.80713800  1
  Te  Te26  1  0.88981200  0.32631400  0.51684500  1
  Te  Te27  1  0.85934800  0.48228100  0.34442400  1
  Te  Te28  1  0.78468500  0.67726500  0.01354100  1
  Te  Te29  1  0.56845400  0.07105500  0.79544900  1
  Te  Te30  1  0.69646300  0.01016500  0.51088200  1
  Te  Te31  1  0.63368300  0.24245200  0.19012700  1
  Te  Te32  1  0.60167400  0.40331800  0.03568300  1
  Te  Te33  1  0.83164200  0.99960300  0.25228900  1
  Te  Te34  1  0.84890800  0.13906900  0.09743300  1
  Te  Te35  1  0.99409700  0.41220900  0.07924400  1
  Au  Au0  1  0.41855100  0.06808900  0.03837300  1
  Au  Au1  1  0.25481400  0.07703600  0.30759900  1
  Au  Au2  1  0.04432600  0.32367900  0.24651700  1
  Au  Au3  1  0.42638500  0.50886000  0.13207700  1
  Au  Au4  1  0.20758000  0.76420000  0.07639900  1
  Au  Au5  1  0.30824400  0.40766000  0.55941200  1
  Au  Au6  1  0.37792900  0.18575600  0.88126400  1
  Au  Au7  1  0.03859800  0.88233300  0.17987900  1
  Au  Au8  1  0.08937300  0.65251200  0.49140200  1
  Au  Au9  1  0.19781100  0.30172900  0.97819900  1
  Au  Au10  1  0.47232000  0.83133400  0.37697000  1
  Au  Au11  1  0.35341000  0.74017200  0.80463400  1
  Au  Au12  1  0.14665300  0.98677000  0.73911100  1
  Au  Au13  1  0.73551300  0.91340700  0.68720900  1
  Au  Au14  1  0.95035200  0.67148000  0.75560600  1
  Au  Au15  1  0.88360000  0.89908900  0.42843200  1
  Au  Au16  1  0.57249700  0.49835800  0.87064700  1
  Au  Au17  1  0.78303600  0.24032400  0.93620300  1
  Au  Au18  1  0.68487200  0.58559000  0.43965500  1
  Au  Au19  1  0.62105200  0.82143900  0.11943400  1
  Au  Au20  1  0.92868000  0.22601200  0.67592900  1
  Au  Au21  1  0.82974600  0.57201600  0.17646400  1
  Au  Au22  1  0.52292300  0.15749400  0.62227700  1
  Au  Au23  1  0.67544000  0.13925100  0.35633900  1
loop_
_geom_bond_atom_site_label_1
_geom_bond_atom_site_label_2
_geom_bond_distance
_geom_bond_site_symmetry_2
Te0 Te3 3.191440 1_555
Te16 Te28 3.014605 1_456
Te18 Te28 3.225643 1_556
Te20 Te23 3.335951 1_555
Te22 Te23 3.227076 1_555
Te23 Te26 2.837467 1_555
Te23 Te4 3.089895 1_555
Au0 Te17 2.702301 1_544
Au0 Te0 2.702767 1_555
Au0 Te15 2.749172 1_544
Au0 Te31 2.787570 1_555
Au0 Au6 2.928355 1_554
Au0 Te11 3.329255 1_545
Au1 Te11 2.666794 1_545
Au1 Te1 2.702533 1_555
Au1 Au7 2.848371 1_545
Au1 Te4 2.907104 1_555
Au1 Te12 3.055829 1_545
Au1 Te0 3.300553 1_555
Au2 Te34 2.722752 1_455
Au2 Te6 2.756298 1_555
Au2 Te1 2.772113 1_555
Au2 Te35 2.796023 1_455
Au2 Te27 3.163591 1_455
Au2 Te0 3.377909 1_555
Au3 Te5 2.738140 1_555
Au3 Te3 2.755797 1_555
Au3 Te32 2.760014 1_555
Au3 Te14 2.798810 1_555
Au3 Au9 3.062816 1_554
Au3 Te24 3.208129 1_555
Au4 Te16 2.718605 1_554
Au4 Te11 2.725576 1_555
Au4 Au7 2.812401 1_555
Au4 Te14 2.887873 1_555
Au4 Te5 3.060112 1_555
Au4 Te15 3.258496 1_554
Au5 Te1 2.712789 1_555
Au5 Te20 2.717559 1_555
Au5 Te6 2.942606 1_555
Au5 Te7 2.949380 1_555
Au5 Te9 3.166672 1_555
Au5 Te4 3.249574 1_555
Au6 Au9 2.859849 1_555
Au6 Te29 2.883117 1_555
Au6 Te7 2.905401 1_555
Au6 Te32 3.104306 1_556
Au7 Te8 2.855564 1_555
Au7 Te33 2.982424 1_455
Au7 Te28 3.241852 1_455
Au8 Te6 2.778691 1_555
Au8 Te19 2.838630 1_455
Au8 Te27 2.844257 1_455
Au8 Te9 2.859828 1_555
Au8 Te13 2.863751 1_555
Au8 Te8 2.957506 1_555
Au9 Te10 2.672623 1_555
Au9 Te0 2.677802 1_556
Au9 Te35 3.078754 1_456
Au9 Te25 3.206143 1_455
Au10 Te5 2.790484 1_555
Au10 Te30 2.813749 1_565
Au10 Te21 2.841429 1_555
Au10 Te12 2.846210 1_555
Au10 Te11 2.886370 1_555
Au10 Te24 2.906777 1_555
Au11 Te15 2.744335 1_555
Au11 Te17 2.755354 1_555
Au11 Te20 2.765239 1_555
Au11 Te9 2.765851 1_555
Au11 Te13 3.040096 1_555
Au11 Te14 3.217099 1_556
Au12 Te13 2.733933 1_555
Au12 Te25 2.758485 1_465
Au12 Te2 2.760544 1_565
Au12 Te15 2.794512 1_555
Au12 Au6 2.998513 1_565
Au12 Te19 3.212981 1_455
Au13 Te21 2.732942 1_555
Au13 Te25 2.764389 1_565
Au13 Te18 2.861850 1_555
Au13 Te30 2.974106 1_565
Au13 Te19 3.011248 1_555
Au13 Te29 3.059231 1_565
Au14 Te18 2.716797 1_555
Au14 Te9 2.744819 1_655
Au14 Te16 2.799714 1_655
Au14 Te19 2.809911 1_555
Au14 Te23 3.085048 1_555
Au14 Te15 3.280074 1_655
Au15 Te2 2.726392 1_665
Au15 Te24 2.745999 1_555
Au15 Te8 2.778984 1_655
Au15 Te30 2.813011 1_565
Au15 Te33 3.005546 1_555
Au15 Te19 3.141474 1_555
Au16 Te7 2.731723 1_555
Au16 Te28 2.763512 1_556
Au16 Te20 2.804729 1_555
Au16 Te32 2.823299 1_556
Au16 Te14 3.163787 1_556
Au16 Te22 3.182246 1_555
Au17 Te35 2.718124 1_556
Au17 Te29 2.718578 1_555
Au17 Te22 2.841593 1_555
Au17 Te34 2.846304 1_556
Au17 Te25 3.163847 1_555
Au17 Te32 3.170111 1_556
Au18 Te27 2.734188 1_555
Au18 Te21 2.744054 1_555
Au18 Te3 2.813603 1_555
Au18 Te19 2.852415 1_555
Au18 Te23 2.964176 1_555
Au18 Te24 3.101774 1_555
Au19 Te33 2.720314 1_555
Au19 Te14 2.738995 1_555
Au19 Te17 2.834511 1_554
Au19 Te24 2.849464 1_555
Au19 Te28 2.929894 1_555
Au19 Te11 3.217945 1_555
Au20 Te25 2.770470 1_555
Au20 Te22 2.775247 1_555
Au20 Te2 2.785004 1_655
Au20 Te26 2.794905 1_555
Au20 Te10 2.938590 1_655
Au20 Te30 3.171667 1_555
Au21 Te8 2.753664 1_655
Au21 Te32 2.804071 1_555
Au21 Te27 2.814857 1_555
Au21 Te28 2.885793 1_555
Au21 Te35 2.992472 1_555
Au21 Te24 3.007045 1_555
Au22 Te22 2.746527 1_555
Au22 Te12 2.767027 1_545
Au22 Te4 2.825505 1_555
Au22 Te29 2.849754 1_555
Au22 Te7 2.927665 1_555
Au22 Te30 3.067499 1_555
Au23 Te4 2.808291 1_555
Au23 Te33 2.827251 1_545
Au23 Te26 2.885448 1_555
Au23 Te31 2.906316 1_555
Au23 Te30 3.006088 1_555
Au23 Te11 3.187085 1_545
