# generated using pymatgen
data_Ba3NdRu2O9
_symmetry_space_group_name_H-M   'P 1'
_cell_length_a   6.00984350
_cell_length_b   6.00984350
_cell_length_c   14.92030100
_cell_angle_alpha   90.00000000
_cell_angle_beta   90.00000000
_cell_angle_gamma   119.99999450
_symmetry_Int_Tables_number   1
_chemical_formula_structural   Ba3NdRu2O9
_chemical_formula_sum   'Ba6 Nd2 Ru4 O18'
_cell_volume   466.69652393
_cell_formula_units_Z   2
loop_
 _symmetry_equiv_pos_site_id
 _symmetry_equiv_pos_as_xyz
  1  'x, y, z'
loop_
 _atom_site_type_symbol
 _atom_site_label
 _atom_site_symmetry_multiplicity
 _atom_site_fract_x
 _atom_site_fract_y
 _atom_site_fract_z
 _atom_site_occupancy
  Ba  Ba0  1  0.33333300  0.66666700  0.60288100  1
  Ba  Ba1  1  0.00000000  0.00000000  0.25000000  1
  Ba  Ba2  1  0.66666700  0.33333300  0.39711900  1
  Ba  Ba3  1  0.66666700  0.33333300  0.10288100  1
  Ba  Ba4  1  0.33333300  0.66666700  0.89711900  1
  Ba  Ba5  1  0.00000000  0.00000000  0.75000000  1
  Nd  Nd0  1  0.00000000  0.00000000  0.50000000  1
  Nd  Nd1  1  0.00000000  0.00000000  0.00000000  1
  Ru  Ru0  1  0.33333300  0.66666700  0.33364700  1
  Ru  Ru1  1  0.66666700  0.33333300  0.83364700  1
  Ru  Ru2  1  0.66666700  0.33333300  0.66635300  1
  Ru  Ru3  1  0.33333300  0.66666700  0.16635300  1
  O  O0  1  0.17813800  0.82186200  0.09266600  1
  O  O1  1  0.17813800  0.35627600  0.09266600  1
  O  O2  1  0.64372400  0.82186200  0.09266600  1
  O  O3  1  0.35627600  0.17813800  0.59266600  1
  O  O4  1  0.82186200  0.64372400  0.90733400  1
  O  O5  1  0.82186200  0.17813800  0.59266600  1
  O  O6  1  0.82186200  0.64372400  0.59266600  1
  O  O7  1  0.17813800  0.82186200  0.40733400  1
  O  O8  1  0.64372400  0.82186200  0.40733400  1
  O  O9  1  0.35627600  0.17813800  0.90733400  1
  O  O10  1  0.82186200  0.17813800  0.90733400  1
  O  O11  1  0.17813800  0.35627600  0.40733400  1
  O  O12  1  0.49096200  0.98192400  0.25000000  1
  O  O13  1  0.50903800  0.49096200  0.75000000  1
  O  O14  1  0.98192400  0.49096200  0.75000000  1
  O  O15  1  0.01807600  0.50903800  0.25000000  1
  O  O16  1  0.49096200  0.50903800  0.25000000  1
  O  O17  1  0.50903800  0.01807600  0.75000000  1
loop_
_geom_bond_atom_site_label_1
_geom_bond_atom_site_label_2
_geom_bond_distance
_geom_bond_site_symmetry_2
Ba0 O14 2.857170 1_455
Ba0 O17 2.857170 1_565
Ba0 O13 2.857173 1_555
Ba0 O3 3.011150 1_565
Ba0 O6 3.011150 1_455
Ba0 O5 3.011153 1_565
Ba0 O5 3.011153 1_455
Ba0 O6 3.011156 1_555
Ba0 O3 3.011156 1_555
Ba0 O7 3.335008 1_555
Ba0 O8 3.335011 1_555
Ba0 O11 3.335011 1_555
Ba1 O7 2.991497 1_545
Ba1 O0 2.991497 1_545
Ba1 O1 2.991497 1_555
Ba1 O8 2.991497 1_445
Ba1 O2 2.991497 1_445
Ba1 O11 2.991497 1_555
Ba1 O15 3.006394 1_545
Ba1 O12 3.006394 1_545
Ba1 O15 3.006394 1_555
Ba1 O12 3.006394 1_445
Ba1 O16 3.006394 1_555
Ba1 O16 3.006394 1_445
Ba2 O12 2.857170 1_545
Ba2 O15 2.857170 1_655
Ba2 O16 2.857173 1_555
Ba2 O11 3.011150 1_655
Ba2 O8 3.011150 1_545
Ba2 O7 3.011153 1_655
Ba2 O7 3.011153 1_545
Ba2 O8 3.011156 1_555
Ba2 O11 3.011156 1_555
Ba2 O5 3.335008 1_555
Ba2 O6 3.335011 1_555
Ba2 O3 3.335011 1_555
Ba3 O12 2.857170 1_545
Ba3 O15 2.857170 1_655
Ba3 O16 2.857173 1_555
Ba3 O1 3.011150 1_655
Ba3 O2 3.011150 1_545
Ba3 O0 3.011153 1_655
Ba3 O0 3.011153 1_545
Ba3 O1 3.011156 1_555
Ba3 O2 3.011156 1_555
Ba3 O10 3.335008 1_554
Ba3 O4 3.335011 1_554
Ba3 O9 3.335011 1_554
Ba4 O14 2.857170 1_455
Ba4 O17 2.857170 1_565
Ba4 O13 2.857173 1_555
Ba4 O9 3.011150 1_565
Ba4 O4 3.011150 1_455
Ba4 O10 3.011153 1_565
Ba4 O10 3.011153 1_455
Ba4 O4 3.011156 1_555
Ba4 O9 3.011156 1_555
Ba4 O0 3.335008 1_556
Ba4 O2 3.335011 1_556
Ba4 O1 3.335011 1_556
Ba5 O5 2.991497 1_455
Ba5 O10 2.991497 1_455
Ba5 O4 2.991497 1_445
Ba5 O9 2.991497 1_555
Ba5 O3 2.991497 1_555
Ba5 O6 2.991497 1_445
Ba5 O14 3.006394 1_455
Ba5 O17 3.006394 1_455
Ba5 O17 3.006394 1_555
Ba5 O14 3.006394 1_445
Ba5 O13 3.006394 1_555
Ba5 O13 3.006394 1_445
Nd0 O5 2.313013 1_455
Nd0 O7 2.313013 1_545
Nd0 O8 2.313013 1_445
Nd0 O3 2.313013 1_555
Nd0 O6 2.313013 1_445
Nd0 O11 2.313013 1_555
Nd1 O10 2.313013 1_454
Nd1 O0 2.313013 1_545
Nd1 O1 2.313013 1_555
Nd1 O2 2.313013 1_445
Nd1 O4 2.313013 1_444
Nd1 O9 2.313013 1_554
O0 Ru3 1.954105 1_555
O1 Ru3 1.954109 1_555
O2 Ru3 1.954109 1_555
O3 Ru2 1.954109 1_555
O4 Ru1 1.954109 1_555
O5 Ru2 1.954105 1_555
O6 Ru2 1.954109 1_555
O7 Ru0 1.954105 1_555
O8 Ru0 1.954109 1_555
O9 Ru1 1.954109 1_555
O10 Ru1 1.954105 1_555
O11 Ru0 1.954109 1_555
O12 Ru3 2.061519 1_555
O12 Ru0 2.061519 1_555
O13 Ru1 2.061523 1_555
O13 Ru2 2.061523 1_555
O14 Ru1 2.061519 1_555
O14 Ru2 2.061519 1_555
O15 Ru3 2.061519 1_555
O15 Ru0 2.061519 1_555
O16 Ru3 2.061523 1_555
O16 Ru0 2.061523 1_555
O17 Ru1 2.061519 1_555
O17 Ru2 2.061519 1_555
