# generated using pymatgen
data_Cu2WO4
_symmetry_space_group_name_H-M   'P 1'
_cell_length_a   7.35723900
_cell_length_b   7.54788969
_cell_length_c   7.99945475
_cell_angle_alpha   97.89028014
_cell_angle_beta   102.87218087
_cell_angle_gamma   94.61653622
_symmetry_Int_Tables_number   1
_chemical_formula_structural   Cu2WO4
_chemical_formula_sum   'Cu8 W4 O16'
_cell_volume   426.11236144
_cell_formula_units_Z   4
loop_
 _symmetry_equiv_pos_site_id
 _symmetry_equiv_pos_as_xyz
  1  'x, y, z'
loop_
 _atom_site_type_symbol
 _atom_site_label
 _atom_site_symmetry_multiplicity
 _atom_site_fract_x
 _atom_site_fract_y
 _atom_site_fract_z
 _atom_site_occupancy
  Cu  Cu0  1  0.27774300  0.04737100  0.54157300  1
  Cu  Cu1  1  0.63962300  0.14867500  0.70476100  1
  Cu  Cu2  1  0.36037700  0.85132500  0.29523900  1
  Cu  Cu3  1  0.48734400  0.82341600  0.63868600  1
  Cu  Cu4  1  0.72225700  0.95262900  0.45842700  1
  Cu  Cu5  1  0.37958500  0.59963900  0.87276000  1
  Cu  Cu6  1  0.51265600  0.17658400  0.36131400  1
  Cu  Cu7  1  0.62041500  0.40036100  0.12724000  1
  W  W0  1  0.99164600  0.24363300  0.26764300  1
  W  W1  1  0.00835400  0.75636700  0.73235700  1
  W  W2  1  0.24091500  0.15672000  0.00824600  1
  W  W3  1  0.75908500  0.84328000  0.99175400  1
  O  O0  1  0.61290400  0.98835000  0.86203300  1
  O  O1  1  0.68263000  0.28763400  0.55205400  1
  O  O2  1  0.86216800  0.43618600  0.27296400  1
  O  O3  1  0.38709600  0.01165000  0.13796700  1
  O  O4  1  0.31737000  0.71236600  0.44794600  1
  O  O5  1  0.23807800  0.31260000  0.23522900  1
  O  O6  1  0.82470900  0.01248600  0.20869500  1
  O  O7  1  0.39299200  0.32833900  0.94609200  1
  O  O8  1  0.98056700  0.17681000  0.99869800  1
  O  O9  1  0.13783200  0.56381400  0.72703600  1
  O  O10  1  0.91092100  0.79481500  0.51444700  1
  O  O11  1  0.76192200  0.68740000  0.76477100  1
  O  O12  1  0.17529100  0.98751400  0.79130500  1
  O  O13  1  0.60700800  0.67166100  0.05390800  1
  O  O14  1  0.01943300  0.82319000  0.00130200  1
  O  O15  1  0.08907900  0.20518500  0.48555300  1
loop_
_geom_bond_atom_site_label_1
_geom_bond_atom_site_label_2
_geom_bond_distance
_geom_bond_site_symmetry_2
Cu0 O15 1.918833 1_555
Cu0 O12 2.372143 1_545
Cu1 O1 1.778483 1_555
Cu1 O0 1.890952 1_545
Cu2 O4 1.778483 1_555
Cu2 O3 1.890952 1_565
Cu3 O4 1.795692 1_555
Cu3 O0 2.015967 1_555
Cu3 O11 2.421267 1_555
Cu4 O10 1.918833 1_555
Cu4 O6 2.372143 1_565
Cu5 O9 1.872907 1_555
Cu5 O13 1.937005 1_556
Cu5 O7 2.209895 1_555
Cu6 O1 1.795692 1_555
Cu6 O3 2.015967 1_555
Cu6 O5 2.421267 1_555
Cu7 O2 1.872907 1_555
Cu7 O7 1.937005 1_554
Cu7 O13 2.209895 1_555
O0 W3 1.853842 1_555
O2 W0 1.801523 1_555
O3 W2 1.853842 1_555
O5 W0 1.928727 1_455
O5 W2 2.028782 1_555
O6 W3 1.948017 1_544
O6 W0 1.986417 1_555
O7 W2 1.835324 1_556
O8 W2 1.918984 1_656
O8 W0 2.122956 1_556
O9 W1 1.801523 1_555
O10 W1 1.803416 1_655
O11 W1 1.928727 1_655
O11 W3 2.028782 1_555
O12 W2 1.948017 1_566
O12 W1 1.986417 1_555
O13 W3 1.835324 1_554
O14 W3 1.918984 1_454
O14 W1 2.122956 1_554
O15 W0 1.803416 1_455
