# generated using pymatgen
data_Li7(Mo3S4)4
_symmetry_space_group_name_H-M   'P 1'
_cell_length_a   6.65767575
_cell_length_b   6.68205940
_cell_length_c   13.36947678
_cell_angle_alpha   95.02086658
_cell_angle_beta   94.24085807
_cell_angle_gamma   95.13205181
_symmetry_Int_Tables_number   1
_chemical_formula_structural   Li7(Mo3S4)4
_chemical_formula_sum   'Li7 Mo12 S16'
_cell_volume   588.10244498
_cell_formula_units_Z   1
loop_
 _symmetry_equiv_pos_site_id
 _symmetry_equiv_pos_as_xyz
  1  'x, y, z'
loop_
 _atom_site_type_symbol
 _atom_site_label
 _atom_site_symmetry_multiplicity
 _atom_site_fract_x
 _atom_site_fract_y
 _atom_site_fract_z
 _atom_site_occupancy
  Li  Li0  1  0.05192486  0.09497033  0.43879826  1
  Li  Li1  1  0.38840909  0.95951780  0.00994363  1
  Li  Li2  1  0.56958449  0.01391321  0.49323907  1
  Li  Li3  1  0.91761047  0.13855633  0.97111394  1
  Li  Li4  1  0.97887196  0.61004281  0.51702696  1
  Li  Li5  1  0.97860649  0.01445980  0.70969124  1
  Li  Li6  1  0.97437169  0.01395044  0.19843665  1
  Mo  Mo0  1  0.23690488  0.40936965  0.77467417  1
  Mo  Mo1  1  0.23654692  0.41272453  0.27333914  1
  Mo  Mo2  1  0.45529045  0.76410042  0.79660541  1
  Mo  Mo3  1  0.41339922  0.54162395  0.61898151  1
  Mo  Mo4  1  0.45516205  0.76362073  0.29411732  1
  Mo  Mo5  1  0.41122270  0.54335091  0.11680058  1
  Mo  Mo6  1  0.58922966  0.45655055  0.88487058  1
  Mo  Mo7  1  0.54635536  0.23269701  0.70725543  1
  Mo  Mo8  1  0.58834544  0.45451138  0.38197116  1
  Mo  Mo9  1  0.54573911  0.23565140  0.20457751  1
  Mo  Mo10  1  0.76465126  0.58767326  0.72971894  1
  Mo  Mo11  1  0.76643234  0.58889786  0.22629432  1
  S  S0  1  0.13175830  0.70705426  0.69052120  1
  S  S1  1  0.13389183  0.70720079  0.18864314  1
  S  S2  1  0.28628618  0.61755085  0.93626055  1
  S  S3  1  0.21719319  0.20783838  0.60785061  1
  S  S4  1  0.29124060  0.62429449  0.43622875  1
  S  S5  1  0.21161774  0.21232290  0.10558305  1
  S  S6  1  0.37779816  0.13026806  0.85691832  1
  S  S7  1  0.37360645  0.12815652  0.35514439  1
  S  S8  1  0.62615876  0.86810906  0.64700799  1
  S  S9  1  0.62444430  0.87078046  0.14361439  1
  S  S10  1  0.78331520  0.78845703  0.89382143  1
  S  S11  1  0.71239590  0.37175367  0.56401551  1
  S  S12  1  0.79027794  0.79186507  0.39332315  1
  S  S13  1  0.71592432  0.37789238  0.06584554  1
  S  S14  1  0.87085317  0.28968075  0.81267088  1
  S  S15  1  0.87057953  0.28858795  0.31159528  1
loop_
_geom_bond_atom_site_label_1
_geom_bond_atom_site_label_2
_geom_bond_distance
_geom_bond_site_symmetry_2
Li0 S3 2.464363 1_555
Li0 S7 2.489856 1_555
Li0 S15 2.526768 1_455
Li0 S12 2.550062 1_445
Li1 S2 2.425512 1_554
Li1 S6 2.427754 1_564
Li1 S9 2.439593 1_555
Li1 S5 2.464576 1_565
Li2 S8 2.370473 1_545
Li2 S7 2.400502 1_555
Li2 S12 2.545220 1_545
Li2 S11 2.565341 1_555
Li3 S14 2.436592 1_555
Li3 S13 2.499170 1_556
Li3 S10 2.531002 1_545
Li3 S5 2.541307 1_656
Li4 S4 2.411584 1_655
Li4 S11 2.431454 1_555
Li4 S12 2.470903 1_555
Li4 S0 2.471044 1_655
Li5 S0 2.376106 1_645
Li5 S14 2.393987 1_555
Li5 S3 2.511427 1_655
Li5 S8 2.513925 1_545
Li6 S1 2.389445 1_645
Li6 S5 2.448762 1_655
Li6 S15 2.455516 1_555
Li6 S9 2.471019 1_545
Mo0 S2 2.448941 1_555
Mo0 S6 2.467065 1_555
Mo0 S3 2.490879 1_555
Mo0 S0 2.497381 1_555
Mo0 S14 2.596621 1_455
Mo1 S4 2.474980 1_555
Mo1 S1 2.477358 1_555
Mo1 S7 2.484221 1_555
Mo1 S5 2.496080 1_555
Mo1 S15 2.604446 1_455
Mo2 S10 2.442274 1_555
Mo2 S0 2.470445 1_555
Mo2 S2 2.478851 1_555
Mo2 S8 2.493117 1_555
Mo2 S6 2.616296 1_565
Mo3 S3 2.468805 1_555
Mo3 S0 2.470554 1_555
Mo3 S8 2.476237 1_555
Mo3 S11 2.503119 1_555
Mo3 S4 2.638009 1_555
Mo4 S1 2.454008 1_555
Mo4 S4 2.470241 1_555
Mo4 S12 2.493139 1_555
Mo4 S9 2.504966 1_555
Mo4 S7 2.616895 1_565
Mo5 S1 2.443410 1_555
Mo5 S5 2.463286 1_555
Mo5 S9 2.482415 1_555
Mo5 S13 2.505093 1_555
Mo5 S2 2.598093 1_554
Mo6 S10 2.453710 1_555
Mo6 S6 2.470847 1_555
Mo6 S14 2.478673 1_555
Mo6 S2 2.482148 1_555
Mo6 S13 2.615718 1_556
Mo7 S3 2.462067 1_555
Mo7 S14 2.471269 1_555
Mo7 S6 2.483111 1_555
Mo7 S11 2.488691 1_555
Mo7 S8 2.611039 1_545
Mo8 S15 2.469176 1_555
Mo8 S7 2.481455 1_555
Mo8 S4 2.489080 1_555
Mo8 S12 2.505934 1_555
Mo8 S11 2.632766 1_555
Mo9 S13 2.460501 1_555
Mo9 S15 2.483210 1_555
Mo9 S5 2.488104 1_555
Mo9 S7 2.515639 1_555
Mo9 S9 2.612861 1_545
Mo10 S10 2.458367 1_555
Mo10 S8 2.470916 1_555
Mo10 S14 2.493430 1_555
Mo10 S11 2.519378 1_555
Mo10 S0 2.607356 1_655
Mo11 S13 2.445742 1_555
Mo11 S9 2.488316 1_555
Mo11 S12 2.496037 1_555
Mo11 S15 2.518074 1_555
Mo11 S1 2.601748 1_655
