# generated using pymatgen
data_NaCe(GaSe2)4
_symmetry_space_group_name_H-M   'P 1'
_cell_length_a   12.49830969
_cell_length_b   12.49831039
_cell_length_c   12.54061202
_cell_angle_alpha   105.40059158
_cell_angle_beta   105.40059245
_cell_angle_gamma   117.84428512
_symmetry_Int_Tables_number   1
_chemical_formula_structural   NaCe(GaSe2)4
_chemical_formula_sum   'Na4 Ce4 Ga16 Se32'
_cell_volume   1485.32955201
_cell_formula_units_Z   4
loop_
 _symmetry_equiv_pos_site_id
 _symmetry_equiv_pos_as_xyz
  1  'x, y, z'
loop_
 _atom_site_type_symbol
 _atom_site_label
 _atom_site_symmetry_multiplicity
 _atom_site_fract_x
 _atom_site_fract_y
 _atom_site_fract_z
 _atom_site_occupancy
  Na  Na0  1  0.62196392  0.87196392  0.74392784  1
  Na  Na1  1  0.12803608  0.37803608  0.75607216  1
  Na  Na2  1  0.87196392  0.62196392  0.24392784  1
  Na  Na3  1  0.37803608  0.12803608  0.25607216  1
  Ce  Ce0  1  0.37500000  0.62500000  0.25000000  1
  Ce  Ce1  1  0.12500000  0.87500000  0.75000000  1
  Ce  Ce2  1  0.87500000  0.12500000  0.25000000  1
  Ce  Ce3  1  0.62500000  0.37500000  0.75000000  1
  Ga  Ga0  1  0.38840975  0.86836267  0.00452450  1
  Ga  Ga1  1  0.61159025  0.13163733  0.99547550  1
  Ga  Ga2  1  0.36053164  0.47057536  0.49890461  1
  Ga  Ga3  1  0.36162704  0.97167075  0.50109539  1
  Ga  Ga4  1  0.13163733  0.61159025  0.49547550  1
  Ga  Ga5  1  0.63837296  0.02832925  0.49890461  1
  Ga  Ga6  1  0.52942464  0.63946836  0.00109539  1
  Ga  Ga7  1  0.47057536  0.36053164  0.99890461  1
  Ga  Ga8  1  0.63946836  0.52942464  0.50109539  1
  Ga  Ga9  1  0.86836267  0.38840975  0.50452450  1
  Ga  Ga10  1  0.13616183  0.11611475  0.50452450  1
  Ga  Ga11  1  0.86383817  0.88388525  0.49547550  1
  Ga  Ga12  1  0.88388525  0.86383817  0.99547550  1
  Ga  Ga13  1  0.97167075  0.36162704  0.00109539  1
  Ga  Ga14  1  0.02832925  0.63837296  0.99890461  1
  Ga  Ga15  1  0.11611475  0.13616183  0.00452450  1
  Se  Se0  1  0.90927162  0.41242953  0.82632780  1
  Se  Se1  1  0.65748458  0.34251041  0.99586354  1
  Se  Se2  1  0.34664687  0.16162104  0.50413646  1
  Se  Se3  1  0.58757047  0.09072838  0.67367220  1
  Se  Se4  1  0.65748959  0.34251542  0.50413646  1
  Se  Se5  1  0.08973172  0.59369163  0.67289473  1
  Se  Se6  1  0.91683699  0.92079690  0.32710527  1
  Se  Se7  1  0.59369163  0.08973172  0.17289473  1
  Se  Se8  1  0.81704583  0.14919145  0.99810479  1
  Se  Se9  1  0.58610174  0.58294382  0.67367220  1
  Se  Se10  1  0.18295417  0.85080855  0.00189521  1
  Se  Se11  1  0.16162104  0.34664687  0.00413646  1
  Se  Se12  1  0.85080855  0.18295417  0.50189521  1
  Se  Se13  1  0.31894104  0.15108666  0.00189521  1
  Se  Se14  1  0.40630837  0.91026828  0.82710527  1
  Se  Se15  1  0.41389826  0.41705618  0.32632780  1
  Se  Se16  1  0.41705618  0.41389826  0.82632780  1
  Se  Se17  1  0.09072838  0.58757047  0.17367220  1
  Se  Se18  1  0.58294382  0.58610174  0.17367220  1
  Se  Se19  1  0.83837896  0.65335313  0.99586354  1
  Se  Se20  1  0.07920310  0.08316301  0.17289473  1
  Se  Se21  1  0.08316301  0.07920310  0.67289473  1
  Se  Se22  1  0.34251041  0.65748458  0.49586354  1
  Se  Se23  1  0.91026828  0.40630837  0.32710527  1
  Se  Se24  1  0.34251542  0.65748959  0.00413646  1
  Se  Se25  1  0.68105896  0.84891334  0.99810479  1
  Se  Se26  1  0.15108666  0.31894104  0.50189521  1
  Se  Se27  1  0.92079690  0.91683699  0.82710527  1
  Se  Se28  1  0.84891334  0.68105896  0.49810479  1
  Se  Se29  1  0.41242953  0.90927162  0.32632780  1
  Se  Se30  1  0.65335313  0.83837896  0.49586354  1
  Se  Se31  1  0.14919145  0.81704583  0.49810479  1
loop_
_geom_bond_atom_site_label_1
_geom_bond_atom_site_label_2
_geom_bond_distance
_geom_bond_site_symmetry_2
Na0 Se22 3.180590 1_555
Na0 Se30 3.180590 1_555
Na0 Se8 3.197650 1_565
Na0 Se25 3.197650 1_555
Na0 Se3 3.257764 1_565
Na0 Se9 3.257764 1_555
Na0 Se27 3.318955 1_555
Na0 Se14 3.318955 1_555
Na1 Se24 3.180590 1_556
Na1 Se11 3.180590 1_556
Na1 Se12 3.197650 1_455
Na1 Se26 3.197650 1_555
Na1 Se16 3.257764 1_555
Na1 Se0 3.257764 1_455
Na1 Se5 3.318955 1_555
Na1 Se21 3.318955 1_555
Na2 Se1 3.180590 1_554
Na2 Se19 3.180590 1_554
Na2 Se31 3.197650 1_655
Na2 Se28 3.197650 1_555
Na2 Se18 3.257764 1_555
Na2 Se17 3.257764 1_655
Na2 Se23 3.318955 1_555
Na2 Se6 3.318955 1_555
Na3 Se4 3.180590 1_555
Na3 Se2 3.180590 1_555
Na3 Se10 3.197650 1_545
Na3 Se13 3.197650 1_555
Na3 Se29 3.257764 1_545
Na3 Se15 3.257764 1_555
Na3 Se20 3.318955 1_555
Na3 Se7 3.318955 1_555
Ce0 Se30 3.160766 1_555
Ce0 Se11 3.160767 1_555
Ce0 Se22 3.160767 1_555
Ce0 Se24 3.160767 1_555
Ce0 Se17 3.187716 1_555
Ce0 Se18 3.187716 1_555
Ce0 Se15 3.187716 1_555
Ce0 Se29 3.187716 1_555
Ce1 Se14 3.164005 1_555
Ce1 Se27 3.164005 1_455
Ce1 Se21 3.164005 1_565
Ce1 Se5 3.164005 1_555
Ce1 Se28 3.176701 1_455
Ce1 Se13 3.176701 1_566
Ce1 Se10 3.176701 1_556
Ce1 Se31 3.176701 1_555
Ce2 Se7 3.164005 1_555
Ce2 Se20 3.164005 1_655
Ce2 Se6 3.164005 1_545
Ce2 Se23 3.164005 1_555
Ce2 Se26 3.176701 1_655
Ce2 Se25 3.176701 1_544
Ce2 Se8 3.176701 1_554
Ce2 Se12 3.176701 1_555
Ce3 Se2 3.160766 1_555
Ce3 Se19 3.160767 1_555
Ce3 Se4 3.160767 1_555
Ce3 Se1 3.160767 1_555
Ce3 Se0 3.187716 1_555
Ce3 Se16 3.187716 1_555
Ce3 Se9 3.187716 1_555
Ce3 Se3 3.187716 1_555
Ga0 Se24 2.419652 1_555
Ga0 Se14 2.459387 1_554
Ga0 Se10 2.463326 1_555
Ga0 Se7 2.466708 1_565
Ga1 Se1 2.419652 1_555
Ga1 Se7 2.459387 1_556
Ga1 Se8 2.463326 1_555
Ga1 Se14 2.466708 1_545
Ga2 Se26 2.429218 1_555
Ga2 Se15 2.447596 1_555
Ga2 Se22 2.458368 1_555
Ga2 Se9 2.471587 1_555
Ga3 Se31 2.429218 1_555
Ga3 Se3 2.447595 1_565
Ga3 Se2 2.458369 1_565
Ga3 Se29 2.471587 1_555
Ga4 Se22 2.419651 1_555
Ga4 Se5 2.459387 1_555
Ga4 Se31 2.463326 1_555
Ga4 Se23 2.466708 1_455
Ga5 Se12 2.429218 1_555
Ga5 Se29 2.447595 1_545
Ga5 Se30 2.458369 1_545
Ga5 Se3 2.471587 1_555
Ga6 Se25 2.429218 1_554
Ga6 Se18 2.447596 1_555
Ga6 Se24 2.458368 1_555
Ga6 Se16 2.471587 1_554
Ga7 Se13 2.429218 1_556
Ga7 Se16 2.447596 1_555
Ga7 Se1 2.458368 1_555
Ga7 Se18 2.471587 1_556
Ga8 Se28 2.429218 1_555
Ga8 Se9 2.447596 1_555
Ga8 Se4 2.458368 1_555
Ga8 Se15 2.471587 1_555
Ga9 Se4 2.419651 1_555
Ga9 Se23 2.459387 1_555
Ga9 Se12 2.463326 1_555
Ga9 Se5 2.466708 1_655
Ga10 Se2 2.419651 1_555
Ga10 Se6 2.459387 1_445
Ga10 Se26 2.463326 1_555
Ga10 Se21 2.466708 1_555
Ga11 Se30 2.419651 1_555
Ga11 Se21 2.459387 1_665
Ga11 Se28 2.463326 1_555
Ga11 Se6 2.466708 1_555
Ga12 Se19 2.419652 1_555
Ga12 Se20 2.459387 1_666
Ga12 Se25 2.463326 1_555
Ga12 Se27 2.466708 1_555
Ga13 Se8 2.429218 1_554
Ga13 Se17 2.447596 1_655
Ga13 Se11 2.458368 1_655
Ga13 Se0 2.471587 1_554
Ga14 Se10 2.429218 1_556
Ga14 Se0 2.447596 1_455
Ga14 Se19 2.458368 1_455
Ga14 Se17 2.471587 1_556
Ga15 Se11 2.419652 1_555
Ga15 Se27 2.459387 1_444
Ga15 Se13 2.463326 1_555
Ga15 Se20 2.466708 1_555
