# generated using pymatgen
data_Fe(CuS)2
_symmetry_space_group_name_H-M   'P 1'
_cell_length_a   7.63919700
_cell_length_b   7.63919700
_cell_length_c   7.63919700
_cell_angle_alpha   60.00000000
_cell_angle_beta   60.00000000
_cell_angle_gamma   60.00000000
_symmetry_Int_Tables_number   1
_chemical_formula_structural   Fe(CuS)2
_chemical_formula_sum   'Fe4 Cu8 S8'
_cell_volume   315.23042764
_cell_formula_units_Z   4
loop_
 _symmetry_equiv_pos_site_id
 _symmetry_equiv_pos_as_xyz
  1  'x, y, z'
loop_
 _atom_site_type_symbol
 _atom_site_label
 _atom_site_symmetry_multiplicity
 _atom_site_fract_x
 _atom_site_fract_y
 _atom_site_fract_z
 _atom_site_occupancy
  Fe  Fe0  1  0.62417700  0.62417700  0.12746800  1
  Fe  Fe1  1  0.12746800  0.62417700  0.62417700  1
  Fe  Fe2  1  0.62417700  0.62417700  0.62417700  1
  Fe  Fe3  1  0.62417700  0.12746800  0.62417700  1
  Cu  Cu0  1  0.36109200  0.87963600  0.87963600  1
  Cu  Cu1  1  0.13023500  0.13023500  0.60929500  1
  Cu  Cu2  1  0.87963600  0.87963600  0.87963600  1
  Cu  Cu3  1  0.87963600  0.87963600  0.36109200  1
  Cu  Cu4  1  0.87963600  0.36109200  0.87963600  1
  Cu  Cu5  1  0.60929500  0.13023500  0.13023500  1
  Cu  Cu6  1  0.13023500  0.13023500  0.13023500  1
  Cu  Cu7  1  0.13023500  0.60929500  0.13023500  1
  S  S0  1  0.74358800  0.25641200  0.25641200  1
  S  S1  1  0.25641200  0.25641200  0.74358800  1
  S  S2  1  0.25641200  0.74358800  0.74358800  1
  S  S3  1  0.74358800  0.74358800  0.25641200  1
  S  S4  1  0.75000000  0.75000000  0.75000000  1
  S  S5  1  0.25641200  0.74358800  0.25641200  1
  S  S6  1  0.25000000  0.25000000  0.25000000  1
  S  S7  1  0.74358800  0.25641200  0.74358800  1
loop_
_geom_bond_atom_site_label_1
_geom_bond_atom_site_label_2
_geom_bond_distance
_geom_bond_site_symmetry_2
Fe0 S5 2.294275 1_555
Fe0 S0 2.294275 1_555
Fe0 S3 2.294281 1_555
Fe0 S4 2.354411 1_554
Fe1 S5 2.294275 1_555
Fe1 S1 2.294275 1_555
Fe1 S2 2.294281 1_555
Fe1 S4 2.354411 1_455
Fe2 S3 2.294275 1_555
Fe2 S7 2.294275 1_555
Fe2 S2 2.294275 1_555
Fe2 S4 2.354417 1_555
Fe3 S0 2.294275 1_555
Fe3 S1 2.294275 1_555
Fe3 S7 2.294281 1_555
Fe3 S4 2.354411 1_545
Cu0 S1 2.354163 1_565
Cu0 S5 2.354163 1_556
Cu0 S2 2.354163 1_555
Cu0 S4 2.425766 1_555
Cu1 S6 2.241059 1_555
Cu1 S1 2.411929 1_555
Cu1 S2 2.411929 1_545
Cu1 S7 2.411929 1_455
Cu2 S2 2.354163 1_655
Cu2 S7 2.354163 1_565
Cu2 S3 2.354163 1_556
Cu2 S4 2.425766 1_555
Cu3 S0 2.354163 1_565
Cu3 S5 2.354163 1_655
Cu3 S3 2.354163 1_555
Cu3 S4 2.425766 1_555
Cu4 S1 2.354163 1_655
Cu4 S0 2.354163 1_556
Cu4 S7 2.354163 1_555
Cu4 S4 2.425766 1_555
Cu5 S6 2.241059 1_555
Cu5 S0 2.411929 1_555
Cu5 S3 2.411929 1_545
Cu5 S7 2.411929 1_554
Cu6 S6 2.241059 1_555
Cu6 S1 2.411929 1_554
Cu6 S0 2.411929 1_455
Cu6 S5 2.411929 1_545
Cu7 S6 2.241059 1_555
Cu7 S5 2.411929 1_555
Cu7 S3 2.411929 1_455
Cu7 S2 2.411929 1_554
