# generated using pymatgen
data_As3H9RhC3(BrO)3
_symmetry_space_group_name_H-M   'P 1'
_cell_length_a   9.23499900
_cell_length_b   9.34493300
_cell_length_c   17.28579063
_cell_angle_alpha   67.31894440
_cell_angle_beta   90.00000000
_cell_angle_gamma   90.00000000
_symmetry_Int_Tables_number   1
_chemical_formula_structural   As3H9RhC3(BrO)3
_chemical_formula_sum   'As12 H36 Rh4 C12 Br12 O12'
_cell_volume   1376.40625927
_cell_formula_units_Z   4
loop_
 _symmetry_equiv_pos_site_id
 _symmetry_equiv_pos_as_xyz
  1  'x, y, z'
loop_
 _atom_site_type_symbol
 _atom_site_label
 _atom_site_symmetry_multiplicity
 _atom_site_fract_x
 _atom_site_fract_y
 _atom_site_fract_z
 _atom_site_occupancy
  As  As0  1  0.85608300  0.27155100  0.07047000  1
  As  As1  1  0.08012000  0.55019900  0.11976400  1
  As  As2  1  0.71572900  0.62145400  0.52503500  1
  As  As3  1  0.41988000  0.55019900  0.61976400  1
  As  As4  1  0.21572900  0.37854600  0.97496500  1
  As  As5  1  0.58012000  0.44980100  0.38023600  1
  As  As6  1  0.78427100  0.62145400  0.02503500  1
  As  As7  1  0.64391700  0.27155100  0.57047000  1
  As  As8  1  0.91988000  0.44980100  0.88023600  1
  As  As9  1  0.35608300  0.72844900  0.42953000  1
  As  As10  1  0.28427100  0.37854600  0.47496500  1
  As  As11  1  0.14391700  0.72844900  0.92953000  1
  H  H0  1  0.73730700  0.40985800  0.78354200  1
  H  H1  1  0.24567700  0.98299200  0.41098900  1
  H  H2  1  0.58462400  0.81775700  0.98558500  1
  H  H3  1  0.25432300  0.98299200  0.91098900  1
  H  H4  1  0.60247200  0.29311300  0.29191700  1
  H  H5  1  0.87167700  0.12674100  0.63053900  1
  H  H6  1  0.89752800  0.29311300  0.79191700  1
  H  H7  1  0.60008400  0.49921000  0.22844200  1
  H  H8  1  0.78470200  0.02598500  0.18939000  1
  H  H9  1  0.76269300  0.40985800  0.28354200  1
  H  H10  1  0.97680700  0.63465000  0.56303000  1
  H  H11  1  0.91537600  0.81775700  0.48558500  1
  H  H12  1  0.26269300  0.59014200  0.21645800  1
  H  H13  1  0.86563400  0.76250600  0.59451000  1
  H  H14  1  0.71529800  0.02598500  0.68939000  1
  H  H15  1  0.10008400  0.50079000  0.27155800  1
  H  H16  1  0.39752800  0.70688700  0.70808300  1
  H  H17  1  0.89991600  0.49921000  0.72844200  1
  H  H18  1  0.10247200  0.70688700  0.20808300  1
  H  H19  1  0.63436600  0.76250600  0.09451000  1
  H  H20  1  0.47680700  0.36535000  0.93697000  1
  H  H21  1  0.12832300  0.87325900  0.36946100  1
  H  H22  1  0.13436600  0.23749400  0.40549000  1
  H  H23  1  0.37167700  0.87325900  0.86946100  1
  H  H24  1  0.02319300  0.36535000  0.43697000  1
  H  H25  1  0.28470200  0.97401500  0.31061000  1
  H  H26  1  0.23730700  0.59014200  0.71645800  1
  H  H27  1  0.41537600  0.18224300  0.01441500  1
  H  H28  1  0.08462400  0.18224300  0.51441500  1
  H  H29  1  0.36563400  0.23749400  0.90549000  1
  H  H30  1  0.62832300  0.12674100  0.13053900  1
  H  H31  1  0.74567700  0.01700800  0.08901100  1
  H  H32  1  0.52319300  0.63465000  0.06303000  1
  H  H33  1  0.75432300  0.01700800  0.58901100  1
  H  H34  1  0.39991600  0.50079000  0.77155800  1
  H  H35  1  0.21529800  0.97401500  0.81061000  1
  Rh  Rh0  1  0.59946600  0.69603000  0.39180300  1
  Rh  Rh1  1  0.90053400  0.69603000  0.89180300  1
  Rh  Rh2  1  0.40053400  0.30397000  0.60819700  1
  Rh  Rh3  1  0.09946600  0.30397000  0.10819700  1
  C  C0  1  0.64399600  0.40773900  0.28427200  1
  C  C1  1  0.26080300  0.91236400  0.87306400  1
  C  C2  1  0.73919700  0.08763600  0.12693600  1
  C  C3  1  0.11010100  0.27854000  0.45565400  1
  C  C4  1  0.38989900  0.27854000  0.95565400  1
  C  C5  1  0.85600400  0.40773900  0.78427200  1
  C  C6  1  0.61010100  0.72146000  0.04434600  1
  C  C7  1  0.23919700  0.91236400  0.37306400  1
  C  C8  1  0.88989900  0.72146000  0.54434600  1
  C  C9  1  0.35600400  0.59226100  0.71572800  1
  C  C10  1  0.76080300  0.08763600  0.62693600  1
  C  C11  1  0.14399600  0.59226100  0.21572800  1
  Br  Br0  1  0.64132600  0.68870100  0.84191000  1
  Br  Br1  1  0.14132600  0.31129900  0.65809000  1
  Br  Br2  1  0.12780300  0.03459500  0.10448100  1
  Br  Br3  1  0.35867400  0.31129900  0.15809000  1
  Br  Br4  1  0.85867400  0.68870100  0.34191000  1
  Br  Br5  1  0.62780300  0.96540500  0.39551900  1
  Br  Br6  1  0.51170400  0.20680700  0.75524400  1
  Br  Br7  1  0.37219700  0.03459500  0.60448100  1
  Br  Br8  1  0.87219700  0.96540500  0.89551900  1
  Br  Br9  1  0.01170400  0.79319300  0.74475600  1
  Br  Br10  1  0.98829600  0.20680700  0.25524400  1
  Br  Br11  1  0.48829600  0.79319300  0.24475600  1
  O  O0  1  0.72933000  0.41951000  0.07249700  1
  O  O1  1  0.27067000  0.58049000  0.92750300  1
  O  O2  1  0.10227100  0.37141600  0.89073600  1
  O  O3  1  0.32941600  0.70839000  0.53733000  1
  O  O4  1  0.77067000  0.41951000  0.57249700  1
  O  O5  1  0.17058400  0.70839000  0.03733000  1
  O  O6  1  0.67058400  0.29161000  0.46267000  1
  O  O7  1  0.39772900  0.37141600  0.39073600  1
  O  O8  1  0.89772900  0.62858400  0.10926400  1
  O  O9  1  0.60227100  0.62858400  0.60926400  1
  O  O10  1  0.82941600  0.29161000  0.96267000  1
  O  O11  1  0.22933000  0.58049000  0.42750300  1
loop_
_geom_bond_atom_site_label_1
_geom_bond_atom_site_label_2
_geom_bond_distance
_geom_bond_site_symmetry_2
As0 O10 1.816232 1_554
As0 O0 1.822245 1_555
As0 C2 1.943711 1_555
As0 Rh3 2.391930 1_655
As1 O5 1.813619 1_555
As1 O8 1.817721 1_455
As1 C11 1.938294 1_555
As1 Rh3 2.391919 1_555
As2 O9 1.815748 1_555
As2 O4 1.815998 1_555
As2 C8 1.952571 1_555
As2 Rh0 2.388434 1_555
As3 O3 1.813619 1_555
As3 O9 1.817721 1_555
As3 C9 1.938294 1_555
As3 Rh2 2.391919 1_555
As4 O2 1.815748 1_555
As4 O1 1.815998 1_555
As4 C4 1.952571 1_555
As4 Rh3 2.388434 1_556
As5 O6 1.813619 1_555
As5 O7 1.817721 1_555
As5 C0 1.938294 1_555
As5 Rh0 2.391919 1_555
As6 O8 1.815748 1_555
As6 O0 1.815998 1_555
As6 C6 1.952571 1_555
As6 Rh1 2.388434 1_554
As7 O6 1.816232 1_555
As7 O4 1.822245 1_555
As7 C10 1.943711 1_555
As7 Rh2 2.391930 1_555
As8 O10 1.813619 1_555
As8 O2 1.817721 1_655
As8 C5 1.938294 1_555
As8 Rh1 2.391919 1_555
As9 O3 1.816232 1_555
As9 O11 1.822245 1_555
As9 C7 1.943711 1_555
As9 Rh0 2.391930 1_555
As10 O7 1.815748 1_555
As10 O11 1.815998 1_555
As10 C3 1.952571 1_555
As10 Rh2 2.388434 1_555
As11 O5 1.816232 1_556
As11 O1 1.822245 1_555
As11 C1 1.943711 1_555
As11 Rh1 2.391930 1_455
C0 H7 1.091001 1_555
C0 H9 1.096330 1_555
C0 H4 1.096703 1_555
C1 H35 1.092851 1_555
C1 H3 1.096653 1_555
C1 H23 1.096990 1_555
C2 H8 1.092851 1_555
C2 H31 1.096653 1_555
C2 H30 1.096990 1_555
C3 H28 1.091766 1_555
C3 H24 1.097502 1_555
C3 H22 1.098068 1_555
C4 H27 1.091766 1_556
C4 H20 1.097502 1_555
C4 H29 1.098068 1_555
C5 H17 1.091001 1_555
C5 H0 1.096330 1_555
C5 H6 1.096703 1_555
C6 H2 1.091766 1_554
C6 H32 1.097502 1_555
C6 H19 1.098068 1_555
C7 H25 1.092851 1_555
C7 H1 1.096653 1_555
C7 H21 1.096990 1_555
C8 H11 1.091766 1_555
C8 H10 1.097502 1_555
C8 H13 1.098068 1_555
C9 H34 1.091001 1_555
C9 H26 1.096330 1_555
C9 H16 1.096703 1_555
C10 H14 1.092851 1_555
C10 H33 1.096653 1_555
C10 H5 1.096990 1_555
C11 H15 1.091001 1_555
C11 H12 1.096330 1_555
C11 H18 1.096703 1_555
Br0 Rh1 2.554262 1_555
Br1 Rh2 2.554262 1_555
Br2 Rh3 2.556182 1_555
Br3 Rh3 2.554262 1_555
Br4 Rh0 2.554262 1_555
Br5 Rh0 2.556182 1_555
Br6 Rh2 2.561140 1_555
Br7 Rh2 2.556182 1_555
Br8 Rh1 2.556182 1_555
Br9 Rh1 2.561140 1_455
Br10 Rh3 2.561140 1_655
Br11 Rh0 2.561140 1_555
