# generated using pymatgen
data_U5Re3C8
_symmetry_space_group_name_H-M   'P 1'
_cell_length_a   11.40374963
_cell_length_b   11.40374963
_cell_length_c   3.28600681
_cell_angle_alpha   90.00000000
_cell_angle_beta   90.00000000
_cell_angle_gamma   90.00000000
_symmetry_Int_Tables_number   1
_chemical_formula_structural   U5Re3C8
_chemical_formula_sum   'U10 Re6 C16'
_cell_volume   427.33041709
_cell_formula_units_Z   2
loop_
 _symmetry_equiv_pos_site_id
 _symmetry_equiv_pos_as_xyz
  1  'x, y, z'
loop_
 _atom_site_type_symbol
 _atom_site_label
 _atom_site_symmetry_multiplicity
 _atom_site_fract_x
 _atom_site_fract_y
 _atom_site_fract_z
 _atom_site_occupancy
  U  U0  1  -0.00000000  0.50000000  0.00000000  1
  U  U1  1  0.27204928  0.54199694  0.50000000  1
  U  U2  1  0.72795072  0.45800306  0.50000000  1
  U  U3  1  0.54199694  0.72795072  0.50000000  1
  U  U4  1  0.77204928  0.95800306  0.50000000  1
  U  U5  1  0.22795072  0.04199694  0.50000000  1
  U  U6  1  0.95800306  0.22795072  0.50000000  1
  U  U7  1  0.45800306  0.27204928  0.50000000  1
  U  U8  1  0.50000000  -0.00000000  0.00000000  1
  U  U9  1  0.04199694  0.77204928  0.50000000  1
  Re  Re0  1  0.20550809  0.29449191  0.00000000  1
  Re  Re1  1  0.70550809  0.20550809  0.00000000  1
  Re  Re2  1  0.29449191  0.79449191  -0.00000000  1
  Re  Re3  1  0.50000000  0.50000000  0.00000000  1
  Re  Re4  1  0.79449191  0.70550809  -0.00000000  1
  Re  Re5  1  -0.00000000  -0.00000000  0.00000000  1
  C  C0  1  0.34779372  0.40203236  0.00000000  1
  C  C1  1  0.61885679  0.11885679  0.50000000  1
  C  C2  1  0.90203236  0.84779372  -0.00000000  1
  C  C3  1  0.65094626  0.84905374  -0.00000000  1
  C  C4  1  0.34905374  0.15094626  0.00000000  1
  C  C5  1  0.11885679  0.38114321  0.50000000  1
  C  C6  1  0.15220628  0.90203236  -0.00000000  1
  C  C7  1  0.84905374  0.34905374  -0.00000000  1
  C  C8  1  0.65220628  0.59796764  -0.00000000  1
  C  C9  1  0.59796764  0.34779372  0.00000000  1
  C  C10  1  0.88114321  0.61885679  0.50000000  1
  C  C11  1  0.84779372  0.09796764  0.00000000  1
  C  C12  1  0.38114321  0.88114321  0.50000000  1
  C  C13  1  0.15094626  0.65094626  0.00000000  1
  C  C14  1  0.09796764  0.15220628  0.00000000  1
  C  C15  1  0.40203236  0.65220628  -0.00000000  1
loop_
_geom_bond_atom_site_label_1
_geom_bond_atom_site_label_2
_geom_bond_distance
_geom_bond_site_symmetry_2
C0 Re0 2.033904 1_555
C0 Re3 2.064186 1_555
C0 U1 2.448094 1_554
C0 U1 2.448094 1_555
C0 U7 2.544838 1_554
C0 U7 2.544838 1_555
C1 Re1 2.156928 1_555
C1 Re1 2.156928 1_556
C1 U8 2.524629 1_555
C1 U8 2.524629 1_556
C1 U4 2.533118 1_545
C1 U7 2.533118 1_555
C2 Re4 2.033904 1_555
C2 Re5 2.064186 1_665
C2 U9 2.448094 1_655
C2 U9 2.448094 1_654
C2 U4 2.544838 1_554
C2 U4 2.544838 1_555
C3 Re4 2.315009 1_555
C3 U8 2.434361 1_565
C3 U3 2.479987 1_554
C3 U3 2.479987 1_555
C3 U4 2.479987 1_554
C3 U4 2.479987 1_555
C4 Re0 2.315009 1_555
C4 U8 2.434361 1_555
C4 U5 2.479987 1_554
C4 U7 2.479987 1_554
C4 U7 2.479987 1_555
C4 U5 2.479987 1_555
C5 Re0 2.156928 1_556
C5 Re0 2.156928 1_555
C5 U0 2.524629 1_556
C5 U0 2.524629 1_555
C5 U1 2.533118 1_555
C5 U6 2.533118 1_455
C6 Re2 2.033904 1_555
C6 Re5 2.064186 1_565
C6 U5 2.448094 1_565
C6 U5 2.448094 1_564
C6 U9 2.544838 1_555
C6 U9 2.544838 1_554
C7 Re1 2.315009 1_555
C7 U0 2.434361 1_655
C7 U2 2.479987 1_554
C7 U2 2.479987 1_555
C7 U6 2.479987 1_555
C7 U6 2.479987 1_554
C8 Re4 2.033904 1_555
C8 Re3 2.064186 1_555
C8 U2 2.448094 1_555
C8 U2 2.448094 1_554
C8 U3 2.544838 1_555
C8 U3 2.544838 1_554
C9 Re1 2.033904 1_555
C9 Re3 2.064186 1_555
C9 U7 2.448094 1_555
C9 U7 2.448094 1_554
C9 U2 2.544838 1_555
C9 U2 2.544838 1_554
C10 Re4 2.156928 1_556
C10 Re4 2.156928 1_555
C10 U0 2.524629 1_655
C10 U0 2.524629 1_656
C10 U9 2.533118 1_655
C10 U2 2.533118 1_555
C11 Re1 2.033904 1_555
C11 Re5 2.064186 1_655
C11 U4 2.448094 1_544
C11 U4 2.448094 1_545
C11 U6 2.544838 1_555
C11 U6 2.544838 1_554
C12 Re2 2.156928 1_556
C12 Re2 2.156928 1_555
C12 U8 2.524629 1_566
C12 U8 2.524629 1_565
C12 U5 2.533118 1_565
C12 U3 2.533118 1_555
C13 Re2 2.315009 1_555
C13 U0 2.434361 1_555
C13 U9 2.479987 1_554
C13 U9 2.479987 1_555
C13 U1 2.479987 1_554
C13 U1 2.479987 1_555
C14 Re0 2.033904 1_555
C14 Re5 2.064186 1_555
C14 U6 2.448094 1_455
C14 U6 2.448094 1_454
C14 U5 2.544838 1_554
C14 U5 2.544838 1_555
C15 Re2 2.033904 1_555
C15 Re3 2.064186 1_555
C15 U3 2.448094 1_555
C15 U3 2.448094 1_554
C15 U1 2.544838 1_554
C15 U1 2.544838 1_555
