# generated using pymatgen
data_Na3Pb2S3ClO12
_symmetry_space_group_name_H-M   'P 1'
_cell_length_a   7.17944000
_cell_length_b   9.96277500
_cell_length_c   10.01750409
_cell_angle_alpha   60.18189043
_cell_angle_beta   90.00000000
_cell_angle_gamma   90.00000000
_symmetry_Int_Tables_number   1
_chemical_formula_structural   Na3Pb2S3ClO12
_chemical_formula_sum   'Na6 Pb4 S6 Cl2 O24'
_cell_volume   621.66173253
_cell_formula_units_Z   2
loop_
 _symmetry_equiv_pos_site_id
 _symmetry_equiv_pos_as_xyz
  1  'x, y, z'
loop_
 _atom_site_type_symbol
 _atom_site_label
 _atom_site_symmetry_multiplicity
 _atom_site_fract_x
 _atom_site_fract_y
 _atom_site_fract_z
 _atom_site_occupancy
  Na  Na0  1  0.25000000  0.73674400  0.00286400  1
  Na  Na1  1  0.00260700  0.66047700  0.67523600  1
  Na  Na2  1  0.49739300  0.66047700  0.67523600  1
  Na  Na3  1  0.50260700  0.33952300  0.32476400  1
  Na  Na4  1  0.99739300  0.33952300  0.32476400  1
  Na  Na5  1  0.75000000  0.26325600  0.99713600  1
  Pb  Pb0  1  0.25000000  0.01062600  0.24092800  1
  Pb  Pb1  1  0.75000000  0.74248500  0.25328700  1
  Pb  Pb2  1  0.25000000  0.25751500  0.74671300  1
  Pb  Pb3  1  0.75000000  0.98937400  0.75907200  1
  S  S0  1  0.75000000  0.96687700  0.41260200  1
  S  S1  1  0.75000000  0.62309100  0.96457800  1
  S  S2  1  0.25000000  0.58663000  0.38180600  1
  S  S3  1  0.75000000  0.41337000  0.61819400  1
  S  S4  1  0.25000000  0.37690900  0.03542200  1
  S  S5  1  0.25000000  0.03312300  0.58739800  1
  Cl  Cl0  1  0.00000000  0.00000000  0.00000000  1
  Cl  Cl1  1  0.50000000  0.00000000  0.00000000  1
  O  O0  1  0.25000000  0.86553600  0.64506900  1
  O  O1  1  0.58220700  0.72834200  0.91540300  1
  O  O2  1  0.91779300  0.72834200  0.91540300  1
  O  O3  1  0.75000000  0.87656500  0.58574100  1
  O  O4  1  0.58310300  0.91676400  0.35777500  1
  O  O5  1  0.91689700  0.91676400  0.35777500  1
  O  O6  1  0.75000000  0.53374300  0.88242900  1
  O  O7  1  0.25000000  0.48083800  0.86550300  1
  O  O8  1  0.25000000  0.64122500  0.49507200  1
  O  O9  1  0.75000000  0.58832200  0.53600200  1
  O  O10  1  0.08261500  0.64163700  0.28032200  1
  O  O11  1  0.41738500  0.64163700  0.28032200  1
  O  O12  1  0.58261500  0.35836300  0.71967800  1
  O  O13  1  0.91738500  0.35836300  0.71967800  1
  O  O14  1  0.25000000  0.41167800  0.46399800  1
  O  O15  1  0.75000000  0.35877500  0.50492800  1
  O  O16  1  0.75000000  0.51916200  0.13449700  1
  O  O17  1  0.25000000  0.46625700  0.11757100  1
  O  O18  1  0.08310300  0.08323600  0.64222500  1
  O  O19  1  0.41689700  0.08323600  0.64222500  1
  O  O20  1  0.25000000  0.12343500  0.41425900  1
  O  O21  1  0.08220700  0.27165800  0.08459700  1
  O  O22  1  0.41779300  0.27165800  0.08459700  1
  O  O23  1  0.75000000  0.13446400  0.35493100  1
loop_
_geom_bond_atom_site_label_1
_geom_bond_atom_site_label_2
_geom_bond_distance
_geom_bond_site_symmetry_2
Na0 O17 2.345813 1_555
Na0 O1 2.556575 1_554
Na0 O2 2.556575 1_454
Na0 O10 2.729127 1_555
Na0 O11 2.729127 1_555
Na1 O6 2.566124 1_455
Na1 O7 2.568688 1_555
Na1 O9 2.597762 1_455
Na1 O8 2.606341 1_555
Na1 O0 2.608774 1_555
Na1 O3 2.609229 1_455
Na1 O2 2.869472 1_455
Na1 O13 2.880867 1_455
Na1 O5 2.989362 1_455
Na2 O6 2.566124 1_555
Na2 O7 2.568688 1_555
Na2 O9 2.597762 1_555
Na2 O8 2.606341 1_555
Na2 O0 2.608774 1_555
Na2 O3 2.609229 1_555
Na2 O1 2.869472 1_555
Na2 O12 2.880867 1_555
Na2 O4 2.989362 1_555
Na3 O17 2.566124 1_555
Na3 O16 2.568688 1_555
Na3 O14 2.597762 1_555
Na3 O15 2.606341 1_555
Na3 O23 2.608774 1_555
Na3 O20 2.609229 1_555
Na3 O22 2.869472 1_555
Na3 O11 2.880867 1_555
Na3 O19 2.989362 1_555
Na4 O17 2.566124 1_655
Na4 O16 2.568688 1_555
Na4 O14 2.597762 1_655
Na4 O15 2.606341 1_555
Na4 O23 2.608774 1_555
Na4 O20 2.609229 1_655
Na4 O21 2.869472 1_655
Na4 O10 2.880867 1_655
Na4 O18 2.989362 1_655
Na5 O6 2.345813 1_555
Na5 O21 2.556575 1_656
Na5 O22 2.556575 1_556
Na5 O12 2.729127 1_555
Na5 O13 2.729127 1_555
Cl0 Pb0 3.051524 1_555
Cl0 Pb3 3.051524 1_444
Cl0 Pb1 3.125342 1_445
Cl0 Pb2 3.125342 1_554
Cl0 Na5 3.166447 1_454
Cl0 Na0 3.166447 1_545
Cl1 Pb0 3.051524 1_555
Cl1 Pb3 3.051524 1_544
Cl1 Pb2 3.125342 1_554
Cl1 Pb1 3.125342 1_545
Cl1 Na5 3.166447 1_554
Cl1 Na0 3.166447 1_545
O0 S5 1.470428 1_565
O1 S1 1.509871 1_555
O1 Pb3 2.572274 1_555
O2 S1 1.509871 1_555
O2 Pb3 2.572274 1_555
O3 S0 1.505261 1_555
O3 Pb3 2.493740 1_555
O4 S0 1.503119 1_555
O4 Pb0 2.622070 1_565
O4 Pb1 2.711733 1_555
O5 S0 1.503119 1_555
O5 Pb0 2.622070 1_665
O5 Pb1 2.711733 1_555
O6 S1 1.482594 1_555
O7 S4 1.488860 1_556
O8 S2 1.482233 1_555
O9 S3 1.512869 1_555
O9 Pb1 2.460465 1_555
O10 S2 1.491285 1_555
O10 Pb1 2.552392 1_455
O11 S2 1.491285 1_555
O11 Pb1 2.552392 1_555
O12 S3 1.491285 1_555
O12 Pb2 2.552392 1_555
O13 S3 1.491285 1_555
O13 Pb2 2.552392 1_655
O14 S2 1.512869 1_555
O14 Pb2 2.460465 1_555
O15 S3 1.482233 1_555
O16 S1 1.488860 1_554
O17 S4 1.482594 1_555
O18 S5 1.503119 1_555
O18 Pb3 2.622070 1_445
O18 Pb2 2.711733 1_555
O19 S5 1.503119 1_555
O19 Pb3 2.622070 1_545
O19 Pb2 2.711733 1_555
O20 S5 1.505261 1_555
O20 Pb0 2.493740 1_555
O21 S4 1.509871 1_555
O21 Pb0 2.572274 1_555
O22 S4 1.509871 1_555
O22 Pb0 2.572274 1_555
O23 S0 1.470428 1_545
