# generated using pymatgen
data_Li11Sc7Ti(PO4)12
_symmetry_space_group_name_H-M   'P 1'
_cell_length_a   9.49872600
_cell_length_b   9.95544476
_cell_length_c   10.18287401
_cell_angle_alpha   89.96207261
_cell_angle_beta   92.50878192
_cell_angle_gamma   96.16086946
_symmetry_Int_Tables_number   1
_chemical_formula_structural   Li11Sc7Ti(PO4)12
_chemical_formula_sum   'Li11 Sc7 Ti1 P12 O48'
_cell_volume   956.44678006
_cell_formula_units_Z   1
loop_
 _symmetry_equiv_pos_site_id
 _symmetry_equiv_pos_as_xyz
  1  'x, y, z'
loop_
 _atom_site_type_symbol
 _atom_site_label
 _atom_site_symmetry_multiplicity
 _atom_site_fract_x
 _atom_site_fract_y
 _atom_site_fract_z
 _atom_site_occupancy
  Li  Li0  1  0.21939400  0.26960800  0.75126200  1
  Li  Li1  1  0.93646000  0.17779300  0.83696500  1
  Li  Li2  1  0.34916400  0.65066300  0.69201900  1
  Li  Li3  1  0.64057300  0.69692700  0.74671000  1
  Li  Li4  1  0.24237300  0.43130200  0.54122300  1
  Li  Li5  1  0.63446800  0.60936500  0.51957800  1
  Li  Li6  1  0.33270800  0.25068000  0.25486000  1
  Li  Li7  1  0.69392200  0.20576700  0.33579300  1
  Li  Li8  1  0.74427100  0.76592800  0.21562000  1
  Li  Li9  1  0.18817600  0.78064000  0.13527900  1
  Li  Li10  1  0.76308300  0.15172400  0.04875200  1
  Sc  Sc0  1  0.98166100  0.63962200  0.74923000  1
  Sc  Sc1  1  0.51832800  0.41287500  0.77993400  1
  Sc  Sc2  1  0.57512000  0.05601300  0.75886900  1
  Sc  Sc3  1  0.44915800  0.95920000  0.25435600  1
  Sc  Sc4  1  0.59359500  0.51410400  0.25130200  1
  Sc  Sc5  1  0.01571800  0.08590700  0.28492800  1
  Sc  Sc6  1  0.98952900  0.41736600  0.26022300  1
  Ti  Ti0  1  0.20038700  0.94640900  0.74477600  1
  P  P0  1  0.50333600  0.74940700  0.00130200  1
  P  P1  1  0.79298300  0.87389000  0.92124200  1
  P  P2  1  0.24405400  0.53499300  0.97631400  1
  P  P3  1  0.75731000  0.35391400  0.58775400  1
  P  P4  1  0.32792000  0.13378400  0.49273900  1
  P  P5  1  0.94982500  0.25587100  0.54418300  1
  P  P6  1  0.00896900  0.83551600  0.49523200  1
  P  P7  1  0.70099300  0.90847600  0.51952600  1
  P  P8  1  0.26575100  0.64696900  0.37465900  1
  P  P9  1  0.75951000  0.41126800  0.00446000  1
  P  P10  1  0.19185300  0.08811300  0.02934000  1
  P  P11  1  0.42133100  0.14969000  0.99282900  1
  O  O0  1  0.57258200  0.12273700  0.94710100  1
  O  O1  1  0.38780900  0.27657400  0.91206700  1
  O  O2  1  0.84502600  0.30723200  0.94803000  1
  O  O3  1  0.11824100  0.06244000  0.88765800  1
  O  O4  1  0.61568800  0.82807500  0.90063000  1
  O  O5  1  0.40151400  0.66472000  0.90155600  1
  O  O6  1  0.38104100  0.99057800  0.81629900  1
  O  O7  1  0.69416100  0.49815300  0.89829700  1
  O  O8  1  0.84633400  0.77134100  0.82570400  1
  O  O9  1  0.16010700  0.77416300  0.77821000  1
  O  O10  1  0.15639900  0.49642500  0.82724300  1
  O  O11  1  0.79493300  0.01819600  0.86636000  1
  O  O12  1  0.52278000  0.55302900  0.66543500  1
  O  O13  1  0.33265900  0.00484100  0.57775000  1
  O  O14  1  0.64618600  0.27659200  0.68353100  1
  O  O15  1  0.32939100  0.25813200  0.58283600  1
  O  O16  1  0.26798100  0.46282000  0.73723100  1
  O  O17  1  0.70846700  0.03212000  0.60839900  1
  O  O18  1  0.82711600  0.48201100  0.65967800  1
  O  O19  1  0.02635500  0.23618100  0.67623600  1
  O  O20  1  0.61107800  0.79488000  0.58269900  1
  O  O21  1  0.25692900  0.65829600  0.52130800  1
  O  O22  1  0.97141400  0.69689600  0.56685100  1
  O  O23  1  0.05462800  0.94244200  0.60827200  1
  O  O24  1  0.03257100  0.36781900  0.45875700  1
  O  O25  1  0.91412800  0.13063900  0.45621300  1
  O  O26  1  0.68854900  0.37537100  0.44967500  1
  O  O27  1  0.44951300  0.14036800  0.39518600  1
  O  O28  1  0.83867200  0.87156300  0.45931800  1
  O  O29  1  0.13280900  0.58831800  0.29551900  1
  O  O30  1  0.19568000  0.12761500  0.39071700  1
  O  O31  1  0.83287400  0.54225700  0.22871600  1
  O  O32  1  0.32514900  0.77862100  0.30589400  1
  O  O33  1  0.64903900  0.66395900  0.34970200  1
  O  O34  1  0.36854400  0.52100100  0.37666200  1
  O  O35  1  0.63205700  0.97990700  0.38604300  1
  O  O36  1  0.15830000  0.97059900  0.12830800  1
  O  O37  1  0.88321600  0.50985800  0.09358300  1
  O  O38  1  0.15196300  0.21402100  0.10182800  1
  O  O39  1  0.90152700  0.22509100  0.22115000  1
  O  O40  1  0.37313400  0.44917000  0.24723800  1
  O  O41  1  0.66572700  0.94857200  0.24845300  1
  O  O42  1  0.65200100  0.36182500  0.10621300  1
  O  O43  1  0.45024100  0.14555800  0.14733100  1
  O  O44  1  0.84130100  0.86679800  0.06317800  1
  O  O45  1  0.14272600  0.62945400  0.02400800  1
  O  O46  1  0.58698300  0.66410800  0.09185400  1
  O  O47  1  0.42915500  0.85584700  0.07181400  1
loop_
_geom_bond_atom_site_label_1
_geom_bond_atom_site_label_2
_geom_bond_distance
_geom_bond_site_symmetry_2
Li0 O16 1.936019 1_555
Li0 O19 1.950209 1_555
Li0 O15 2.056433 1_555
Li0 O1 2.234328 1_555
Li1 O19 1.939148 1_655
Li1 O11 1.999355 1_555
Li1 O2 2.005509 1_555
Li1 O3 2.216645 1_655
Li2 O21 1.917270 1_555
Li2 O16 2.006028 1_555
Li2 O12 2.030065 1_555
Li2 O5 2.170726 1_555
Li2 O9 2.473903 1_555
Li3 O12 1.888268 1_555
Li3 O20 1.958113 1_555
Li3 O4 2.078106 1_555
Li3 O8 2.137329 1_555
Li3 O7 2.588654 1_555
Li4 O16 2.020713 1_555
Li4 O15 2.027093 1_555
Li4 O24 2.158682 1_555
Li4 O34 2.232903 1_555
Li4 O21 2.258725 1_555
Li5 O33 1.819457 1_555
Li5 O12 1.911838 1_555
Li5 O20 1.993896 1_555
Li5 O26 2.547207 1_555
Li6 O40 1.974288 1_555
Li6 O43 1.974805 1_555
Li6 O27 2.144649 1_555
Li6 O30 2.218586 1_555
Li6 O38 2.267404 1_555
Li7 O26 2.055390 1_555
Li7 O35 2.324705 1_545
Li7 O39 2.325586 1_555
Li7 O27 2.444861 1_555
Li7 O25 2.558939 1_555
Li8 O33 1.903190 1_555
Li8 O44 2.047448 1_555
Li8 O41 2.070854 1_555
Li8 O46 2.088010 1_555
Li8 O31 2.465060 1_555
Li9 O45 1.885620 1_555
Li9 O36 1.942983 1_555
Li9 O32 2.125853 1_555
Li9 O47 2.445144 1_555
Li9 O29 2.541612 1_555
Li10 O2 1.965626 1_554
Li10 O0 2.037989 1_554
Li10 O39 2.222174 1_555
Li10 O11 2.333859 1_554
Li10 O42 2.521914 1_555
O0 P11 1.579362 1_555
O0 Sc2 2.030986 1_555
O1 P11 1.560572 1_555
O1 Sc1 2.229614 1_555
O2 P9 1.511610 1_556
O3 P10 1.584146 1_556
O3 Ti0 2.086898 1_545
O4 P0 1.648784 1_556
O4 P1 1.700739 1_555
O4 Sc2 2.741590 1_565
O5 P0 1.554994 1_556
O5 P2 2.041628 1_555
O6 Ti0 1.843215 1_555
O6 Sc2 2.000244 1_565
O7 P9 1.535388 1_556
O7 Sc1 2.117489 1_555
O8 P1 1.549534 1_555
O8 Sc0 2.104544 1_555
O9 Ti0 1.752882 1_555
O9 Sc0 2.055141 1_455
O10 O16 1.495650 1_555
O10 P2 1.722327 1_555
O10 Sc0 2.410232 1_455
O11 P1 1.539709 1_545
O11 Sc2 2.380637 1_555
O12 Sc1 1.815909 1_555
O13 P4 1.551372 1_555
O13 Ti0 2.199682 1_545
O13 Sc2 2.888374 1_555
O14 P3 1.603939 1_555
O14 Sc1 2.176980 1_555
O14 Sc2 2.364611 1_555
O15 P4 1.539827 1_555
O16 Sc1 2.500814 1_555
O17 P7 1.521945 1_545
O17 Sc2 2.060016 1_555
O18 P3 1.542588 1_555
O18 Sc0 2.199741 1_555
O19 P5 1.523052 1_455
O20 P7 1.503999 1_555
O21 P8 1.504298 1_555
O22 P6 1.574597 1_655
O22 Sc0 1.943773 1_555
O23 P6 1.582732 1_555
O23 Ti0 1.915838 1_555
O24 P5 1.577057 1_455
O24 Sc6 2.113557 1_455
O25 P5 1.534900 1_555
O25 Sc5 2.100535 1_655
O26 P3 1.548654 1_555
O26 Sc4 2.627867 1_555
O27 P4 1.552148 1_555
O27 Sc3 2.304608 1_545
O28 P7 1.547529 1_555
O28 P6 1.718082 1_655
O29 P8 1.529134 1_555
O29 Sc6 2.082964 1_455
O30 P4 1.590641 1_555
O30 Sc5 1.985438 1_555
O31 O37 1.522330 1_555
O31 Sc6 2.053739 1_555
O31 Sc4 2.281715 1_555
O32 P8 1.549551 1_555
O32 Sc3 2.119708 1_555
O33 Sc4 1.814987 1_555
O34 O40 1.504372 1_555
O34 P8 1.669583 1_555
O34 Sc4 2.544504 1_555
O35 O41 1.491240 1_555
O35 P7 1.674143 1_555
O35 Sc3 2.139727 1_555
O36 P10 1.559614 1_565
O36 Sc5 2.494148 1_565
O37 P9 1.681659 1_555
O37 Sc6 2.189641 1_555
O38 P10 1.545074 1_555
O38 Sc5 2.575202 1_555
O39 Sc5 1.943711 1_655
O39 Sc6 2.037055 1_555
O40 Sc4 2.122908 1_555
O41 Sc3 2.074643 1_555
O42 P9 1.530614 1_555
O42 Sc4 2.245903 1_555
O43 P11 1.586446 1_554
O43 Sc3 2.150367 1_545
O44 P1 1.501105 1_554
O45 P2 1.510764 1_554
O46 P0 1.510726 1_555
O46 Sc4 2.208677 1_555
O47 P0 1.529862 1_555
O47 Sc3 2.116503 1_555
