# generated using pymatgen
data_Nb12I21Br
_symmetry_space_group_name_H-M   'P 1'
_cell_length_a   11.71366000
_cell_length_b   13.86182100
_cell_length_c   15.52193500
_cell_angle_alpha   90.00000000
_cell_angle_beta   90.00000000
_cell_angle_gamma   90.00000000
_symmetry_Int_Tables_number   1
_chemical_formula_structural   Nb12I21Br
_chemical_formula_sum   'Nb24 I42 Br2'
_cell_volume   2520.33784597
_cell_formula_units_Z   2
loop_
 _symmetry_equiv_pos_site_id
 _symmetry_equiv_pos_as_xyz
  1  'x, y, z'
loop_
 _atom_site_type_symbol
 _atom_site_label
 _atom_site_symmetry_multiplicity
 _atom_site_fract_x
 _atom_site_fract_y
 _atom_site_fract_z
 _atom_site_occupancy
  Nb  Nb0  1  0.81851100  0.62098200  0.29881600  1
  Nb  Nb1  1  0.81851100  0.12098200  0.70118400  1
  Nb  Nb2  1  0.85080600  0.52053900  0.14210600  1
  Nb  Nb3  1  0.85080600  0.02053900  0.85789400  1
  Nb  Nb4  1  0.87970700  0.92035100  0.70078500  1
  Nb  Nb5  1  0.87970700  0.42035100  0.29921500  1
  Nb  Nb6  1  0.12029300  0.92035100  0.29921500  1
  Nb  Nb7  1  0.12029300  0.42035100  0.70078500  1
  Nb  Nb8  1  0.14919400  0.02053900  0.14210600  1
  Nb  Nb9  1  0.14919400  0.52053900  0.85789400  1
  Nb  Nb10  1  0.18148900  0.62098200  0.70118400  1
  Nb  Nb11  1  0.18148900  0.12098200  0.29881600  1
  Nb  Nb12  1  0.31548800  0.87771500  0.19642600  1
  Nb  Nb13  1  0.31548800  0.37771500  0.80357400  1
  Nb  Nb14  1  0.34609200  0.47709700  0.64752400  1
  Nb  Nb15  1  0.34609200  0.97709700  0.35247600  1
  Nb  Nb16  1  0.37530700  0.57867300  0.80391400  1
  Nb  Nb17  1  0.37530700  0.07867300  0.19608600  1
  Nb  Nb18  1  0.62469300  0.57867300  0.19608600  1
  Nb  Nb19  1  0.62469300  0.07867300  0.80391400  1
  Nb  Nb20  1  0.65390800  0.97709700  0.64752400  1
  Nb  Nb21  1  0.65390800  0.47709700  0.35247600  1
  Nb  Nb22  1  0.68451200  0.87771500  0.80357400  1
  Nb  Nb23  1  0.68451200  0.37771500  0.19642600  1
  I  I0  1  0.78351900  0.72140900  0.13577800  1
  I  I1  1  0.78351900  0.22140900  0.86422200  1
  I  I2  1  0.84395200  0.52175100  0.46282300  1
  I  I3  1  0.84395200  0.02175100  0.53717700  1
  I  I4  1  0.90668900  0.31859700  0.13631400  1
  I  I5  1  0.90668900  0.81859700  0.86368600  1
  I  I6  1  0.92459800  0.80260000  0.36904300  1
  I  I7  1  0.92459800  0.30260000  0.63095700  1
  I  I8  1  0.95403000  0.06350600  0.25086600  1
  I  I9  1  0.95403000  0.56350600  0.74913400  1
  I  I10  1  0.04597000  0.56350600  0.25086600  1
  I  I11  1  0.04597000  0.06350600  0.74913400  1
  I  I12  1  0.07540200  0.80260000  0.63095700  1
  I  I13  1  0.07540200  0.30260000  0.36904300  1
  I  I14  1  0.09331100  0.81859700  0.13631400  1
  I  I15  1  0.09331100  0.31859700  0.86368600  1
  I  I16  1  0.15604800  0.52175100  0.53717700  1
  I  I17  1  0.15604800  0.02175100  0.46282300  1
  I  I18  1  0.21648100  0.22140900  0.13577800  1
  I  I19  1  0.21648100  0.72140900  0.86422200  1
  I  I20  1  0.27774500  0.27610600  0.64155300  1
  I  I21  1  0.27774500  0.77610600  0.35844700  1
  I  I22  1  0.34061000  0.97690200  0.03258700  1
  I  I23  1  0.34061000  0.47690200  0.96741300  1
  I  I24  1  0.40422500  0.67851900  0.64021400  1
  I  I25  1  0.40422500  0.17851900  0.35978600  1
  I  I26  1  0.42751900  0.69733700  0.12868700  1
  I  I27  1  0.42751900  0.19733700  0.87131300  1
  I  I28  1  0.45758500  0.43636500  0.24391700  1
  I  I29  1  0.45758500  0.93636500  0.75608300  1
  I  I30  1  0.50000000  0.92750800  0.50000000  1
  I  I31  1  0.50000000  0.42750800  0.50000000  1
  I  I32  1  0.54241500  0.43636500  0.75608300  1
  I  I33  1  0.54241500  0.93636500  0.24391700  1
  I  I34  1  0.57248100  0.69733700  0.87131300  1
  I  I35  1  0.57248100  0.19733700  0.12868700  1
  I  I36  1  0.59577500  0.17851900  0.64021400  1
  I  I37  1  0.59577500  0.67851900  0.35978600  1
  I  I38  1  0.65939000  0.97690200  0.96741300  1
  I  I39  1  0.65939000  0.47690200  0.03258700  1
  I  I40  1  0.72225500  0.77610600  0.64155300  1
  I  I41  1  0.72225500  0.27610600  0.35844700  1
  Br  Br0  1  0.00000000  0.55739400  0.00000000  1
  Br  Br1  1  0.00000000  0.05739400  0.00000000  1
loop_
_geom_bond_atom_site_label_1
_geom_bond_atom_site_label_2
_geom_bond_distance
_geom_bond_site_symmetry_2
I0 Nb18 2.872677 1_555
I0 Nb2 2.895494 1_555
I0 Nb0 2.917228 1_555
I1 Nb19 2.872677 1_555
I1 Nb3 2.895494 1_555
I1 Nb1 2.917228 1_555
I2 Nb21 2.876177 1_555
I2 Nb0 2.908864 1_555
I2 Nb5 2.932613 1_555
I3 Nb20 2.876177 1_545
I3 Nb1 2.908864 1_555
I3 Nb4 2.932613 1_545
I4 Nb2 2.876207 1_555
I4 Nb23 2.883605 1_555
I4 Nb5 2.912542 1_555
I5 Nb3 2.876207 1_565
I5 Nb22 2.883605 1_555
I5 Nb4 2.912542 1_555
I6 Nb0 3.011734 1_555
I6 Nb6 3.015567 1_655
I7 Nb1 3.011734 1_555
I7 Nb7 3.015567 1_655
I8 Nb11 2.878823 1_655
I8 Nb6 2.879922 1_645
I8 Nb8 2.903589 1_655
I9 Nb10 2.878823 1_655
I9 Nb7 2.879922 1_655
I9 Nb9 2.903589 1_655
I10 Nb0 2.878823 1_455
I10 Nb5 2.879922 1_455
I10 Nb2 2.903589 1_455
I11 Nb1 2.878823 1_455
I11 Nb4 2.879922 1_445
I11 Nb3 2.903589 1_455
I12 Nb10 3.011734 1_555
I12 Nb4 3.015567 1_455
I13 Nb11 3.011734 1_555
I13 Nb5 3.015567 1_455
I14 Nb8 2.876207 1_565
I14 Nb12 2.883605 1_555
I14 Nb6 2.912542 1_555
I15 Nb9 2.876207 1_555
I15 Nb13 2.883605 1_555
I15 Nb7 2.912542 1_555
I16 Nb14 2.876177 1_555
I16 Nb10 2.908864 1_555
I16 Nb7 2.932613 1_555
I17 Nb15 2.876177 1_545
I17 Nb11 2.908864 1_555
I17 Nb6 2.932613 1_545
I18 Nb17 2.872677 1_555
I18 Nb8 2.895494 1_555
I18 Nb11 2.917228 1_555
I19 Nb16 2.872677 1_555
I19 Nb9 2.895494 1_555
I19 Nb10 2.917228 1_555
I20 Nb7 2.871388 1_555
I20 Nb14 2.900328 1_555
I20 Nb13 2.916147 1_555
I21 Nb6 2.871388 1_555
I21 Nb15 2.900328 1_555
I21 Nb12 2.916147 1_555
I22 Nb8 2.878036 1_565
I22 Nb12 2.905913 1_555
I22 Nb17 2.931873 1_565
I23 Nb9 2.878036 1_555
I23 Nb13 2.905913 1_555
I23 Nb16 2.931873 1_555
I24 Nb14 2.876153 1_555
I24 Nb10 2.887715 1_555
I24 Nb16 2.913196 1_555
I25 Nb15 2.876153 1_545
I25 Nb11 2.887715 1_555
I25 Nb17 2.913196 1_555
I26 Nb12 3.013217 1_555
I26 Nb18 3.022340 1_555
I27 Nb13 3.013217 1_555
I27 Nb19 3.022340 1_555
I28 Nb23 2.875777 1_555
I28 Nb18 2.876480 1_555
I28 Nb21 2.906306 1_555
I29 Nb22 2.875777 1_555
I29 Nb19 2.876480 1_565
I29 Nb20 2.906306 1_555
I30 Nb15 2.994352 1_555
I30 Nb20 2.994352 1_555
I31 Nb14 2.994352 1_555
I31 Nb21 2.994352 1_555
I32 Nb13 2.875777 1_555
I32 Nb16 2.876480 1_555
I32 Nb14 2.906306 1_555
I33 Nb12 2.875777 1_555
I33 Nb17 2.876480 1_565
I33 Nb15 2.906306 1_555
I34 Nb22 3.013217 1_555
I34 Nb16 3.022340 1_555
I35 Nb23 3.013217 1_555
I35 Nb17 3.022340 1_555
I36 Nb20 2.876153 1_545
I36 Nb1 2.887715 1_555
I36 Nb19 2.913196 1_555
I37 Nb21 2.876153 1_555
I37 Nb0 2.887715 1_555
I37 Nb18 2.913196 1_555
I38 Nb3 2.878036 1_565
I38 Nb22 2.905913 1_555
I38 Nb19 2.931873 1_565
I39 Nb2 2.878036 1_555
I39 Nb23 2.905913 1_555
I39 Nb18 2.931873 1_555
I40 Nb4 2.871388 1_555
I40 Nb20 2.900328 1_555
I40 Nb22 2.916147 1_555
I41 Nb5 2.871388 1_555
I41 Nb21 2.900328 1_555
I41 Nb23 2.916147 1_555
Br0 Nb9 2.860158 1_554
Br0 Nb2 2.860158 1_455
Br1 Nb8 2.860158 1_555
Br1 Nb3 2.860158 1_454
