# generated using pymatgen
data_ThAl2
_symmetry_space_group_name_H-M   'P 1'
_cell_length_a   4.39740507
_cell_length_b   4.39740588
_cell_length_c   4.19706222
_cell_angle_alpha   90.00000000
_cell_angle_beta   90.00000000
_cell_angle_gamma   120.00000147
_symmetry_Int_Tables_number   1
_chemical_formula_structural   ThAl2
_chemical_formula_sum   'Th1 Al2'
_cell_volume   70.28603732
_cell_formula_units_Z   1
loop_
 _symmetry_equiv_pos_site_id
 _symmetry_equiv_pos_as_xyz
  1  'x, y, z'
loop_
 _atom_site_type_symbol
 _atom_site_label
 _atom_site_symmetry_multiplicity
 _atom_site_fract_x
 _atom_site_fract_y
 _atom_site_fract_z
 _atom_site_occupancy
  Th  Th0  1  0.00000000  0.00000000  -0.00000000  1
  Al  Al0  1  0.33333300  0.66666700  0.50000000  1
  Al  Al1  1  0.66666700  0.33333300  0.50000000  1
loop_
_geom_bond_atom_site_label_1
_geom_bond_atom_site_label_2
_geom_bond_distance
_geom_bond_site_symmetry_2
Al0 Al1 2.538840 1_455
Al0 Al1 2.538841 1_565
Al0 Al1 2.538848 1_555
Al0 Th0 3.293865 1_565
Al0 Th0 3.293865 1_566
Al0 Th0 3.293867 1_665
Al0 Th0 3.293867 1_666
Al0 Th0 3.293868 1_556
Al0 Th0 3.293868 1_555
Al1 Th0 3.293865 1_655
Al1 Th0 3.293865 1_656
Al1 Th0 3.293867 1_555
Al1 Th0 3.293867 1_556
Al1 Th0 3.293868 1_665
Al1 Th0 3.293868 1_666
