# generated using pymatgen
data_Ti3Fe7O15
_symmetry_space_group_name_H-M   'P 1'
_cell_length_a   5.15915500
_cell_length_b   5.54453634
_cell_length_c   21.37432171
_cell_angle_alpha   95.46096703
_cell_angle_beta   89.67619112
_cell_angle_gamma   117.41905053
_symmetry_Int_Tables_number   1
_chemical_formula_structural   Ti3Fe7O15
_chemical_formula_sum   'Ti6 Fe14 O30'
_cell_volume   539.76246507
_cell_formula_units_Z   2
loop_
 _symmetry_equiv_pos_site_id
 _symmetry_equiv_pos_as_xyz
  1  'x, y, z'
loop_
 _atom_site_type_symbol
 _atom_site_label
 _atom_site_symmetry_multiplicity
 _atom_site_fract_x
 _atom_site_fract_y
 _atom_site_fract_z
 _atom_site_occupancy
  Ti  Ti0  1  0.50399800  0.01171500  0.93061600  1
  Ti  Ti1  1  0.10372600  0.21744200  0.73072500  1
  Ti  Ti2  1  0.98706600  0.98154200  0.56831900  1
  Ti  Ti3  1  0.60631100  0.18785100  0.36972600  1
  Ti  Ti4  1  0.59347800  0.21241600  0.22977500  1
  Ti  Ti5  1  0.20376400  0.41093700  0.03182300  1
  Fe  Fe0  1  0.79819500  0.60043900  0.97105100  1
  Fe  Fe1  1  0.39840700  0.79857600  0.77196100  1
  Fe  Fe2  1  0.09803300  0.19256400  0.87141100  1
  Fe  Fe3  1  0.79942200  0.60499200  0.82852100  1
  Fe  Fe4  1  0.70096600  0.40249600  0.52805700  1
  Fe  Fe5  1  0.70174300  0.39265600  0.66953600  1
  Fe  Fe6  1  0.40652600  0.80592900  0.63016200  1
  Fe  Fe7  1  0.30234300  0.60096500  0.32895000  1
  Fe  Fe8  1  0.29837900  0.59383600  0.47029800  1
  Fe  Fe9  1  0.19418600  0.39259800  0.17132500  1
  Fe  Fe10  1  0.00891700  0.00881500  0.42918100  1
  Fe  Fe11  1  0.90388500  0.80313600  0.13064000  1
  Fe  Fe12  1  0.89717500  0.80182600  0.27164500  1
  Fe  Fe13  1  0.49592300  0.99645600  0.07067500  1
  O  O0  1  0.10148600  0.84818100  0.90517400  1
  O  O1  1  0.65211700  0.90008800  0.85602700  1
  O  O2  1  0.50738700  0.76625500  0.98267600  1
  O  O3  1  0.05666100  0.42805000  0.81005800  1
  O  O4  1  0.96009900  0.28952800  0.95279400  1
  O  O5  1  0.69757300  0.05237300  0.70950000  1
  O  O6  1  0.53128000  0.35510500  0.88540600  1
  O  O7  1  0.23858800  0.09826100  0.65067300  1
  O  O8  1  0.10788600  0.96619700  0.78400200  1
  O  O9  1  0.67269800  0.64046500  0.61258700  1
  O  O10  1  0.55027400  0.48484700  0.74936400  1
  O  O11  1  0.24014600  0.23282100  0.51670000  1
  O  O12  1  0.13018000  0.55587400  0.68717400  1
  O  O13  1  0.85703800  0.31207800  0.44541600  1
  O  O14  1  0.74251500  0.14780500  0.59173300  1
  O  O15  1  0.27118600  0.84102400  0.41244700  1
  O  O16  1  0.16966300  0.71939900  0.55060800  1
  O  O17  1  0.84693800  0.42075800  0.31354800  1
  O  O18  1  0.72807500  0.77721300  0.49149600  1
  O  O19  1  0.44128100  0.49034400  0.24714300  1
  O  O20  1  0.35376600  0.34855700  0.39549700  1
  O  O21  1  0.84696100  0.05228000  0.20574000  1
  O  O22  1  0.76055000  0.91212700  0.35380900  1
  O  O23  1  0.47561900  0.62046000  0.10831400  1
  O  O24  1  0.35530700  0.98455000  0.28819600  1
  O  O25  1  0.04283400  0.68473700  0.05343100  1
  O  O26  1  0.92965500  0.55880200  0.18961600  1
  O  O27  1  0.43792300  0.24012400  0.00631300  1
  O  O28  1  0.34374100  0.09296700  0.15594000  1
  O  O29  1  0.94812700  0.16154400  0.08422400  1
loop_
_geom_bond_atom_site_label_1
_geom_bond_atom_site_label_2
_geom_bond_distance
_geom_bond_site_symmetry_2
Fe0 O25 2.058416 1_656
Fe0 O2 2.092997 1_555
Fe0 O0 2.163697 1_655
Fe0 O27 2.205635 1_556
Fe0 O6 2.219704 1_555
Fe0 O4 2.239664 1_555
Fe1 O8 2.099896 1_555
Fe1 O1 2.101035 1_555
Fe1 O5 2.116308 1_565
Fe1 O12 2.204367 1_555
Fe1 O3 2.226754 1_555
Fe1 O10 2.228000 1_555
Fe2 O4 1.995417 1_455
Fe2 O6 1.999689 1_555
Fe2 O3 2.013889 1_555
Fe2 O0 2.112070 1_545
Fe2 O1 2.121680 1_445
Fe2 O8 2.163285 1_545
Fe3 O6 1.961663 1_555
Fe3 O10 1.995008 1_555
Fe3 O3 1.999757 1_655
Fe3 O1 2.134786 1_555
Fe3 O0 2.145734 1_655
Fe3 O8 2.204362 1_655
Fe4 O13 2.051091 1_555
Fe4 O11 2.121167 1_555
Fe4 O14 2.130823 1_555
Fe4 O9 2.178780 1_555
Fe4 O18 2.233155 1_555
Fe4 O16 2.259577 1_655
Fe5 O9 1.975347 1_555
Fe5 O12 1.987223 1_655
Fe5 O10 1.992514 1_555
Fe5 O14 2.117109 1_555
Fe5 O5 2.135174 1_555
Fe5 O7 2.197733 1_555
Fe6 O12 1.980223 1_555
Fe6 O16 1.985736 1_555
Fe6 O9 1.989315 1_555
Fe6 O14 2.127583 1_565
Fe6 O5 2.166931 1_565
Fe6 O7 2.173442 1_565
Fe7 O19 2.033249 1_555
Fe7 O17 2.100227 1_455
Fe7 O15 2.173532 1_555
Fe7 O20 2.185693 1_555
Fe7 O22 2.220508 1_555
Fe7 O24 2.274081 1_555
Fe8 O15 1.982089 1_555
Fe8 O18 2.000334 1_555
Fe8 O16 2.014379 1_555
Fe8 O20 2.103867 1_555
Fe8 O13 2.118341 1_455
Fe8 O11 2.213875 1_555
Fe9 O19 1.940343 1_555
Fe9 O26 1.987033 1_455
Fe9 O23 2.032377 1_555
Fe9 O21 2.108736 1_455
Fe9 O28 2.130057 1_555
Fe9 O29 2.189450 1_455
Fe10 O22 1.936746 1_445
Fe10 O15 1.978591 1_545
Fe10 O18 2.027939 1_445
Fe10 O20 2.095022 1_555
Fe10 O13 2.158930 1_455
Fe10 O11 2.164138 1_555
Fe11 O25 1.970313 1_655
Fe11 O26 1.983632 1_555
Fe11 O23 1.998572 1_555
Fe11 O28 2.124704 1_665
Fe11 O21 2.125426 1_565
Fe11 O29 2.222682 1_565
Fe12 O22 2.033148 1_555
Fe12 O24 2.115157 1_655
Fe12 O26 2.161663 1_555
Fe12 O21 2.165087 1_565
Fe12 O19 2.211249 1_555
Fe12 O17 2.277431 1_555
Fe13 O29 2.086861 1_565
Fe13 O28 2.099846 1_565
Fe13 O27 2.130277 1_565
Fe13 O25 2.180546 1_555
Fe13 O2 2.186726 1_554
Fe13 O23 2.263057 1_555
O0 Ti0 1.901313 1_565
O1 Ti0 1.934628 1_565
O2 Ti0 1.844210 1_565
O2 Ti5 2.229701 1_556
O3 Ti1 2.043894 1_555
O4 Ti5 1.978643 1_656
O4 Ti0 2.160986 1_555
O5 Ti1 1.897274 1_655
O6 Ti0 2.163430 1_555
O7 Ti1 2.010786 1_555
O7 Ti2 2.058342 1_445
O8 Ti1 1.888792 1_565
O9 Ti2 2.144877 1_555
O10 Ti1 2.101567 1_555
O11 Ti2 1.861212 1_445
O12 Ti1 2.121645 1_555
O13 Ti3 1.938041 1_555
O14 Ti2 1.915289 1_545
O15 Ti3 2.185248 1_565
O16 Ti2 2.072582 1_455
O17 Ti3 1.858070 1_555
O17 Ti4 2.119462 1_555
O18 Ti2 2.010398 1_555
O19 Ti4 2.032535 1_555
O20 Ti3 1.939759 1_555
O21 Ti4 1.933252 1_555
O22 Ti3 2.025931 1_565
O23 Ti5 2.038021 1_555
O24 Ti4 1.875767 1_565
O24 Ti3 2.071624 1_565
O25 Ti5 2.056770 1_555
O26 Ti4 2.159298 1_555
O27 Ti5 1.897809 1_555
O27 Ti0 2.083082 1_554
O28 Ti4 1.904590 1_555
O29 Ti5 1.872013 1_655
