# generated using pymatgen
data_H2S
_symmetry_space_group_name_H-M   'P 1'
_cell_length_a   4.14585307
_cell_length_b   13.12324954
_cell_length_c   6.63669493
_cell_angle_alpha   90.00000000
_cell_angle_beta   90.00000000
_cell_angle_gamma   90.00000000
_symmetry_Int_Tables_number   1
_chemical_formula_structural   H2S
_chemical_formula_sum   'H16 S8'
_cell_volume   361.08308842
_cell_formula_units_Z   8
loop_
 _symmetry_equiv_pos_site_id
 _symmetry_equiv_pos_as_xyz
  1  'x, y, z'
loop_
 _atom_site_type_symbol
 _atom_site_label
 _atom_site_symmetry_multiplicity
 _atom_site_fract_x
 _atom_site_fract_y
 _atom_site_fract_z
 _atom_site_occupancy
  H  H0  1  0.17609305  0.27916744  0.75000000  1
  H  H1  1  0.82390695  0.72083256  0.25000000  1
  H  H2  1  0.17609305  0.22083256  0.25000000  1
  H  H3  1  0.82390695  0.77916744  0.75000000  1
  H  H4  1  0.19426601  0.42911447  0.75000000  1
  H  H5  1  0.80573399  0.57088553  0.25000000  1
  H  H6  1  0.19426601  0.07088553  0.25000000  1
  H  H7  1  0.80573399  0.92911447  0.75000000  1
  H  H8  1  0.68306886  0.12339868  0.60158806  1
  H  H9  1  0.31693114  0.87660132  0.10158806  1
  H  H10  1  0.68306886  0.37660132  0.39841194  1
  H  H11  1  0.31693114  0.62339868  0.89841194  1
  H  H12  1  0.31693114  0.87660132  0.39841194  1
  H  H13  1  0.68306886  0.12339868  0.89841194  1
  H  H14  1  0.31693114  0.62339868  0.60158806  1
  H  H15  1  0.68306886  0.37660132  0.10158806  1
  S  S0  1  0.96272400  0.35691115  0.75000000  1
  S  S1  1  0.03727600  0.64308885  0.25000000  1
  S  S2  1  0.96272400  0.14308885  0.25000000  1
  S  S3  1  0.03727600  0.85691115  0.75000000  1
  S  S4  1  0.46906615  0.10400671  0.75000000  1
  S  S5  1  0.53093385  0.89599329  0.25000000  1
  S  S6  1  0.46906615  0.39599329  0.25000000  1
  S  S7  1  0.53093385  0.60400671  0.75000000  1
loop_
_geom_bond_atom_site_label_1
_geom_bond_atom_site_label_2
_geom_bond_distance
_geom_bond_site_symmetry_2
H0 S0 1.350341 1_455
H1 S1 1.350341 1_655
H2 S2 1.350341 1_455
H3 S3 1.350341 1_655
H4 S0 1.348821 1_455
H5 S1 1.348821 1_655
H6 S2 1.348821 1_455
H7 S3 1.348821 1_655
H8 S4 1.349846 1_555
H9 S5 1.349846 1_555
H10 S6 1.349846 1_555
H11 S7 1.349846 1_555
H12 S5 1.349846 1_555
H13 S4 1.349846 1_555
H14 S7 1.349846 1_555
H15 S6 1.349846 1_555
