# generated using pymatgen
data_C
_symmetry_space_group_name_H-M   'P 1'
_cell_length_a   10.08012649
_cell_length_b   10.08012548
_cell_length_c   10.08012705
_cell_angle_alpha   60.00000095
_cell_angle_beta   60.00000425
_cell_angle_gamma   59.99999953
_symmetry_Int_Tables_number   1
_chemical_formula_structural   C
_chemical_formula_sum   C60
_cell_volume   724.24072765
_cell_formula_units_Z   60
loop_
 _symmetry_equiv_pos_site_id
 _symmetry_equiv_pos_as_xyz
  1  'x, y, z'
loop_
 _atom_site_type_symbol
 _atom_site_label
 _atom_site_symmetry_multiplicity
 _atom_site_fract_x
 _atom_site_fract_y
 _atom_site_fract_z
 _atom_site_occupancy
  C  C0  1  0.70884509  0.39238127  0.92881515  1
  C  C1  1  0.03004251  0.07118485  0.60761873  1
  C  C2  1  0.77107373  0.80589090  0.39276179  1
  C  C3  1  0.39238127  0.92881515  0.70884509  1
  C  C4  1  0.03004251  0.29115491  0.07118485  1
  C  C5  1  0.60723821  0.96972642  0.22892627  1
  C  C6  1  0.92881515  0.70884509  0.39238127  1
  C  C7  1  0.60723821  0.22892627  0.19410910  1
  C  C8  1  0.70815225  0.29184775  0.19429796  1
  C  C9  1  0.60723821  0.19410910  0.96972642  1
  C  C10  1  0.03004251  0.60761873  0.29115491  1
  C  C11  1  0.39276179  0.80589090  0.03027358  1
  C  C12  1  0.70815225  0.80570204  0.29184775  1
  C  C13  1  0.07118485  0.60761873  0.03004251  1
  C  C14  1  0.70884509  0.92881515  0.96995749  1
  C  C15  1  0.07118485  0.29115491  0.60761873  1
  C  C16  1  0.22892627  0.60723821  0.96972642  1
  C  C17  1  0.39238127  0.96995749  0.92881515  1
  C  C18  1  0.60761873  0.03004251  0.07118485  1
  C  C19  1  0.60761873  0.29115491  0.03004251  1
  C  C20  1  0.77107373  0.03027358  0.80589090  1
  C  C21  1  0.29115491  0.03004251  0.60761873  1
  C  C22  1  0.29184775  0.19429796  0.70815225  1
  C  C23  1  0.96972642  0.22892627  0.60723821  1
  C  C24  1  0.39276179  0.03027358  0.77107373  1
  C  C25  1  0.96995749  0.39238127  0.70884509  1
  C  C26  1  0.96995749  0.92881515  0.39238127  1
  C  C27  1  0.29184775  0.70815225  0.80570204  1
  C  C28  1  0.39276179  0.77107373  0.80589090  1
  C  C29  1  0.29115491  0.07118485  0.03004251  1
  C  C30  1  0.03027358  0.80589090  0.77107373  1
  C  C31  1  0.03027358  0.39276179  0.80589090  1
  C  C32  1  0.19410910  0.96972642  0.60723821  1
  C  C33  1  0.19429796  0.80570204  0.70815225  1
  C  C34  1  0.19410910  0.22892627  0.96972642  1
  C  C35  1  0.29115491  0.60761873  0.07118485  1
  C  C36  1  0.70815225  0.19429796  0.80570204  1
  C  C37  1  0.77107373  0.39276179  0.03027358  1
  C  C38  1  0.96972642  0.19410910  0.22892627  1
  C  C39  1  0.80589090  0.39276179  0.77107373  1
  C  C40  1  0.92881515  0.96995749  0.70884509  1
  C  C41  1  0.80589090  0.03027358  0.39276179  1
  C  C42  1  0.80570204  0.19429796  0.29184775  1
  C  C43  1  0.96972642  0.60723821  0.19410910  1
  C  C44  1  0.19429796  0.29184775  0.80570204  1
  C  C45  1  0.19410910  0.60723821  0.22892627  1
  C  C46  1  0.70884509  0.96995749  0.39238127  1
  C  C47  1  0.92881515  0.39238127  0.96995749  1
  C  C48  1  0.22892627  0.96972642  0.19410910  1
  C  C49  1  0.80570204  0.70815225  0.19429796  1
  C  C50  1  0.19429796  0.70815225  0.29184775  1
  C  C51  1  0.07118485  0.03004251  0.29115491  1
  C  C52  1  0.60761873  0.07118485  0.29115491  1
  C  C53  1  0.80589090  0.77107373  0.03027358  1
  C  C54  1  0.03027358  0.77107373  0.39276179  1
  C  C55  1  0.96995749  0.70884509  0.92881515  1
  C  C56  1  0.22892627  0.19410910  0.60723821  1
  C  C57  1  0.29184775  0.80570204  0.19429796  1
  C  C58  1  0.39238127  0.70884509  0.96995749  1
  C  C59  1  0.80570204  0.29184775  0.70815225  1
loop_
_geom_bond_atom_site_label_1
_geom_bond_atom_site_label_2
_geom_bond_distance
_geom_bond_site_symmetry_2
C0 C39 1.388321 1_555
C0 C19 1.443027 1_556
C0 C37 1.444742 1_556
C1 C23 1.388320 1_455
C1 C40 1.443042 1_445
C1 C32 1.444734 1_545
C2 C6 1.388321 1_555
C2 C46 1.444732 1_555
C4 C47 1.443042 1_454
C5 C52 1.444742 1_565
C7 C8 1.444078 1_555
C10 C43 1.388329 1_455
C10 C6 1.443027 1_455
C10 C45 1.444732 1_555
C11 C58 1.388329 1_554
C11 C57 1.444078 1_555
C11 C17 1.444734 1_554
C12 C49 1.390616 1_555
C12 C5 1.444078 1_555
C12 C2 1.444078 1_555
C13 C16 1.388320 1_554
C13 C55 1.443042 1_454
C13 C43 1.444734 1_455
C14 C53 1.388323 1_556
C14 C18 1.443042 1_566
C14 C20 1.444736 1_565
C15 C56 1.388321 1_555
C15 C25 1.443027 1_455
C15 C23 1.444742 1_455
C16 C27 1.444078 1_555
C16 C35 1.444742 1_556
C17 C24 1.388320 1_565
C17 C29 1.443042 1_566
C18 C5 1.388320 1_545
C18 C9 1.444734 1_554
C19 C9 1.388329 1_554
C19 C7 1.444732 1_555
C20 C40 1.388323 1_545
C20 C36 1.444078 1_555
C21 C32 1.388329 1_545
C21 C3 1.443027 1_545
C21 C56 1.444732 1_555
C22 C44 1.390616 1_555
C22 C24 1.444078 1_555
C22 C56 1.444078 1_555
C23 C59 1.444078 1_555
C24 C3 1.444742 1_545
C25 C31 1.388329 1_655
C25 C39 1.444732 1_555
C26 C54 1.388320 1_655
C26 C51 1.443042 1_665
C26 C41 1.444734 1_565
C27 C33 1.390616 1_555
C27 C28 1.444078 1_555
C28 C3 1.388321 1_555
C28 C58 1.444732 1_555
C29 C34 1.388323 1_554
C29 C48 1.444736 1_545
C30 C55 1.388323 1_455
C30 C33 1.444078 1_555
C30 C40 1.444736 1_455
C31 C44 1.444078 1_555
C31 C47 1.444734 1_455
C32 C33 1.444078 1_555
C34 C44 1.444078 1_555
C34 C4 1.444736 1_556
C35 C45 1.388321 1_555
C35 C58 1.443027 1_554
C36 C59 1.390616 1_555
C36 C9 1.444078 1_555
C37 C47 1.388320 1_554
C37 C8 1.444078 1_555
C38 C4 1.388323 1_655
C38 C42 1.444078 1_555
C38 C51 1.444736 1_655
C39 C59 1.444078 1_555
C41 C46 1.388329 1_545
C41 C42 1.444078 1_555
C42 C8 1.390616 1_555
C43 C49 1.444078 1_555
C45 C50 1.444078 1_555
C46 C52 1.443027 1_565
C48 C51 1.388323 1_565
C48 C57 1.444078 1_555
C49 C53 1.444078 1_555
C50 C57 1.390616 1_555
C50 C54 1.444078 1_555
C52 C7 1.388321 1_555
C53 C55 1.444736 1_554
C54 C6 1.444742 1_455
