# generated using pymatgen
data_AlH20Ru(Cl3O5)2
_symmetry_space_group_name_H-M   'P 1'
_cell_length_a   11.56478100
_cell_length_b   7.10269100
_cell_length_c   12.41626259
_cell_angle_alpha   57.46979266
_cell_angle_beta   90.00000000
_cell_angle_gamma   90.00000000
_symmetry_Int_Tables_number   1
_chemical_formula_structural   AlH20Ru(Cl3O5)2
_chemical_formula_sum   'Al2 H40 Ru2 Cl12 O20'
_cell_volume   859.87329552
_cell_formula_units_Z   2
loop_
 _symmetry_equiv_pos_site_id
 _symmetry_equiv_pos_as_xyz
  1  'x, y, z'
loop_
 _atom_site_type_symbol
 _atom_site_label
 _atom_site_symmetry_multiplicity
 _atom_site_fract_x
 _atom_site_fract_y
 _atom_site_fract_z
 _atom_site_occupancy
  Al  Al0  1  0.50000000  0.00000000  0.50000000  1
  Al  Al1  1  0.00000000  0.00000000  0.00000000  1
  H  H0  1  0.86378200  0.24381700  0.81275300  1
  H  H1  1  0.32858700  0.96143100  0.88549600  1
  H  H2  1  0.15721600  0.30137300  0.20791000  1
  H  H3  1  0.80165300  0.82575200  0.10220900  1
  H  H4  1  0.84278400  0.69862700  0.79209000  1
  H  H5  1  0.54997400  0.77390900  0.39692000  1
  H  H6  1  0.90531100  0.65033800  0.18582200  1
  H  H7  1  0.65721600  0.69862700  0.29209000  1
  H  H8  1  0.95002600  0.77390900  0.89692000  1
  H  H9  1  0.61163500  0.87908400  0.07970100  1
  H  H10  1  0.45002600  0.22609100  0.60308000  1
  H  H11  1  0.40531100  0.34966200  0.31417800  1
  H  H12  1  0.03741100  0.98039800  0.80135400  1
  H  H13  1  0.28579200  0.40929100  0.57070300  1
  H  H14  1  0.38836500  0.12091600  0.92029900  1
  H  H15  1  0.87073300  0.34751400  0.90230100  1
  H  H16  1  0.46258900  0.98039800  0.30135400  1
  H  H17  1  0.30165300  0.17424800  0.39779100  1
  H  H18  1  0.96258900  0.01960200  0.19864600  1
  H  H19  1  0.71420800  0.59070900  0.42929700  1
  H  H20  1  0.13621800  0.75618300  0.18724700  1
  H  H21  1  0.63621800  0.24381700  0.31275300  1
  H  H22  1  0.34278400  0.30137300  0.70791000  1
  H  H23  1  0.82858700  0.03856900  0.61450400  1
  H  H24  1  0.17141300  0.96143100  0.38549600  1
  H  H25  1  0.21420800  0.40929100  0.07070300  1
  H  H26  1  0.04997400  0.22609100  0.10308000  1
  H  H27  1  0.78579200  0.59070900  0.92929700  1
  H  H28  1  0.37073300  0.65248600  0.59769900  1
  H  H29  1  0.09468900  0.34966200  0.81417800  1
  H  H30  1  0.62926700  0.34751400  0.40230100  1
  H  H31  1  0.53741100  0.01960200  0.69864600  1
  H  H32  1  0.67141300  0.03856900  0.11450400  1
  H  H33  1  0.11163500  0.12091600  0.42029900  1
  H  H34  1  0.12926700  0.65248600  0.09769900  1
  H  H35  1  0.88836500  0.87908400  0.57970100  1
  H  H36  1  0.19834700  0.17424800  0.89779100  1
  H  H37  1  0.36378200  0.75618300  0.68724700  1
  H  H38  1  0.69834700  0.82575200  0.60220900  1
  H  H39  1  0.59468900  0.65033800  0.68582200  1
  Ru  Ru0  1  0.00000000  0.50000000  0.50000000  1
  Ru  Ru1  1  0.50000000  0.50000000  0.00000000  1
  Cl  Cl0  1  0.56561600  0.37984600  0.86520000  1
  Cl  Cl1  1  0.17069600  0.66193600  0.37362000  1
  Cl  Cl2  1  0.06561600  0.62015400  0.63480000  1
  Cl  Cl3  1  0.60374300  0.84027200  0.87744400  1
  Cl  Cl4  1  0.10374300  0.15972800  0.62255600  1
  Cl  Cl5  1  0.82930400  0.33806400  0.62638000  1
  Cl  Cl6  1  0.43438400  0.62015400  0.13480000  1
  Cl  Cl7  1  0.93438400  0.37984600  0.36520000  1
  Cl  Cl8  1  0.67069600  0.33806400  0.12638000  1
  Cl  Cl9  1  0.39625700  0.15972800  0.12255600  1
  Cl  Cl10  1  0.89625700  0.84027200  0.37744400  1
  Cl  Cl11  1  0.32930400  0.66193600  0.87362000  1
  O  O0  1  0.82633600  0.88505300  0.63198500  1
  O  O1  1  0.61786000  0.20868300  0.40016100  1
  O  O2  1  0.11498800  0.21619800  0.90058000  1
  O  O3  1  0.64081000  0.59860500  0.38622900  1
  O  O4  1  0.32633600  0.11494700  0.86801500  1
  O  O5  1  0.67366400  0.88505300  0.13198500  1
  O  O6  1  0.50415400  0.10897900  0.61006300  1
  O  O7  1  0.11786000  0.79131700  0.09983900  1
  O  O8  1  0.14081000  0.40139500  0.11377100  1
  O  O9  1  0.38501200  0.21619800  0.40058000  1
  O  O10  1  0.49584600  0.89102100  0.38993700  1
  O  O11  1  0.99584600  0.10897900  0.11006300  1
  O  O12  1  0.61498800  0.78380200  0.59942000  1
  O  O13  1  0.88501200  0.78380200  0.09942000  1
  O  O14  1  0.00415400  0.89102100  0.88993700  1
  O  O15  1  0.85919000  0.59860500  0.88622900  1
  O  O16  1  0.88214000  0.20868300  0.90016100  1
  O  O17  1  0.38214000  0.79131700  0.59983900  1
  O  O18  1  0.17366400  0.11494700  0.36801500  1
  O  O19  1  0.35919000  0.40139500  0.61377100  1
loop_
_geom_bond_atom_site_label_1
_geom_bond_atom_site_label_2
_geom_bond_distance
_geom_bond_site_symmetry_2
Al0 O6 1.899107 1_555
Al0 O10 1.899107 1_545
Al0 O12 1.900413 1_545
Al0 O9 1.900413 1_555
Al0 O1 1.901413 1_555
Al0 O17 1.901413 1_545
Al1 O11 1.899107 1_455
Al1 O14 1.899107 1_544
Al1 O2 1.900413 1_554
Al1 O13 1.900413 1_445
Al1 O16 1.901413 1_454
Al1 O7 1.901413 1_545
H0 O16 0.996950 1_555
H1 O4 0.991049 1_565
H2 O8 1.006904 1_555
H3 O13 1.015099 1_555
H3 O5 1.634763 1_555
H4 O15 1.006904 1_555
H5 O10 1.006832 1_555
H6 O13 1.005425 1_555
H7 O3 1.006904 1_555
H8 O14 1.006832 1_655
H9 O5 0.983573 1_555
H10 O6 1.006832 1_555
H11 O9 1.005425 1_555
H12 O14 1.004842 1_555
H13 O19 0.988614 1_555
H14 O4 0.983573 1_555
H15 O16 1.009271 1_555
H16 O10 1.004842 1_555
H17 O9 1.015099 1_555
H17 O18 1.634763 1_555
H18 O11 1.004842 1_555
H19 O3 0.988614 1_555
H20 O7 0.996950 1_555
H21 O1 0.996950 1_555
H22 O19 1.006904 1_555
H23 O0 0.991049 1_545
H24 O18 0.991049 1_565
H25 O8 0.988614 1_555
H26 O11 1.006832 1_455
H27 O15 0.988614 1_555
H28 O17 1.009271 1_555
H29 O2 1.005425 1_555
H30 O1 1.009271 1_555
H31 O6 1.004842 1_555
H32 O5 0.991049 1_545
H33 O18 0.983573 1_555
H34 O7 1.009271 1_555
H35 O0 0.983573 1_555
H36 O2 1.015099 1_555
H36 O4 1.634763 1_555
H37 O17 0.996950 1_555
H38 O12 1.015099 1_555
H38 O0 1.634763 1_555
H39 O12 1.005425 1_555
Cl0 H39 2.040248 1_555
Cl0 Ru1 2.375218 1_556
Cl1 H20 2.072671 1_555
Cl1 Ru0 2.396049 1_555
Cl2 H29 2.040248 1_555
Cl2 Ru0 2.375218 1_555
Cl3 H31 2.024382 1_565
Cl3 Ru1 2.375039 1_556
Cl4 H12 2.024382 1_545
Cl4 Ru0 2.375039 1_555
Cl5 H0 2.072671 1_555
Cl5 Ru0 2.396049 1_655
Cl6 H11 2.040248 1_555
Cl6 Ru1 2.375218 1_555
Cl7 H6 2.040248 1_555
Cl7 Ru0 2.375218 1_655
Cl8 H21 2.072671 1_555
Cl8 Ru1 2.396049 1_555
Cl9 H16 2.024382 1_545
Cl9 Ru1 2.375039 1_555
Cl10 H18 2.024382 1_565
Cl10 Ru0 2.375039 1_655
Cl11 H37 2.072671 1_555
Cl11 Ru1 2.396049 1_556
