# generated using pymatgen
data_K2YbTi(PO4)3
_symmetry_space_group_name_H-M   'P 1'
_cell_length_a   10.31628400
_cell_length_b   10.39145536
_cell_length_c   20.68917465
_cell_angle_alpha   90.04092530
_cell_angle_beta   90.02077297
_cell_angle_gamma   90.18360784
_symmetry_Int_Tables_number   1
_chemical_formula_structural   K2YbTi(PO4)3
_chemical_formula_sum   'K16 Yb8 Ti8 P24 O96'
_cell_volume   2217.89234425
_cell_formula_units_Z   8
loop_
 _symmetry_equiv_pos_site_id
 _symmetry_equiv_pos_as_xyz
  1  'x, y, z'
loop_
 _atom_site_type_symbol
 _atom_site_label
 _atom_site_symmetry_multiplicity
 _atom_site_fract_x
 _atom_site_fract_y
 _atom_site_fract_z
 _atom_site_occupancy
  Yb  Yb0  1  0.90215200  0.39676400  0.69940200  1
  Yb  Yb1  1  0.90458800  0.39378200  0.20147400  1
  Yb  Yb2  1  0.82778100  0.16020600  0.41312600  1
  Yb  Yb3  1  0.59160000  0.60778800  0.94907900  1
  Yb  Yb4  1  0.33313200  0.32704300  0.08111900  1
  Yb  Yb5  1  0.33470200  0.33014200  0.58457800  1
  Yb  Yb6  1  0.16656600  0.67274400  0.83170600  1
  Yb  Yb7  1  0.16761600  0.66890500  0.33052500  1
  K  K0  1  0.95544600  0.54291800  0.52368800  1
  K  K1  1  0.95156100  0.54646600  0.02397100  1
  K  K2  1  0.81961300  0.81311800  0.84192400  1
  K  K3  1  0.82446400  0.81917800  0.34077300  1
  K  K4  1  0.68180100  0.18494900  0.59044100  1
  K  K5  1  0.68020700  0.18740000  0.09117600  1
  K  K6  1  0.54717200  0.45350100  0.77357400  1
  K  K7  1  0.54739900  0.45175000  0.27252900  1
  K  K8  1  0.45285600  0.95275000  0.97633700  1
  K  K9  1  0.45422700  0.95681000  0.47634700  1
  K  K10  1  0.31570100  0.67489100  0.66012300  1
  K  K11  1  0.31708800  0.67550900  0.16009800  1
  K  K12  1  0.17718600  0.32243400  0.40993400  1
  K  K13  1  0.18372400  0.32518700  0.90975600  1
  K  K14  1  0.04704600  0.04771600  0.72686800  1
  K  K15  1  0.04602300  0.04796400  0.22735300  1
  Ti  Ti0  1  0.83546600  0.16607000  0.91653900  1
  Ti  Ti1  1  0.66507500  0.83463400  0.66723500  1
  Ti  Ti2  1  0.66375400  0.83386300  0.16634500  1
  Ti  Ti3  1  0.60468900  0.60881400  0.44737300  1
  Ti  Ti4  1  0.39397000  0.10302700  0.80339100  1
  Ti  Ti5  1  0.39642400  0.10488600  0.30362800  1
  Ti  Ti6  1  0.10899400  0.89584200  0.55319000  1
  Ti  Ti7  1  0.10572400  0.89692200  0.05345800  1
  P  P0  1  0.97912100  0.72114400  0.68035300  1
  P  P1  1  0.97829900  0.72129100  0.18070200  1
  P  P2  1  0.86910100  0.47434400  0.85856200  1
  P  P3  1  0.86456800  0.49173600  0.35889800  1
  P  P4  1  0.78888900  0.86704900  0.51218600  1
  P  P5  1  0.79504600  0.88259700  0.01087000  1
  P  P6  1  0.70462600  0.11706700  0.76090900  1
  P  P7  1  0.70084100  0.11212300  0.25513800  1
  P  P8  1  0.62603500  0.52909200  0.60340900  1
  P  P9  1  0.62990800  0.52508300  0.10837200  1
  P  P10  1  0.52176200  0.27855800  0.93056800  1
  P  P11  1  0.51273100  0.29436100  0.43450600  1
  P  P12  1  0.48750500  0.79742600  0.80625700  1
  P  P13  1  0.49294900  0.79365000  0.31083200  1
  P  P14  1  0.37878900  0.00846700  0.64712600  1
  P  P15  1  0.37867100  0.00805600  0.14790800  1
  P  P16  1  0.28061100  0.63638200  0.99664100  1
  P  P17  1  0.29114200  0.63115500  0.49315900  1
  P  P18  1  0.21775400  0.36398200  0.74698200  1
  P  P19  1  0.21887700  0.36288500  0.24609500  1
  P  P20  1  0.13194300  0.98771000  0.39612700  1
  P  P21  1  0.12112500  0.99156700  0.89712600  1
  P  P22  1  0.01840100  0.20115900  0.55975000  1
  P  P23  1  0.01191500  0.20319000  0.05666900  1
  O  O0  1  0.99948200  0.54518200  0.86810100  1
  O  O1  1  0.98034500  0.58173900  0.36924900  1
  O  O2  1  0.98618000  0.58308600  0.65580200  1
  O  O3  1  0.98454500  0.58295600  0.15648200  1
  O  O4  1  0.95862200  0.27020000  0.61778000  1
  O  O5  1  0.94638500  0.27848700  0.11055100  1
  O  O6  1  0.93609500  0.83103600  0.51245900  1
  O  O7  1  0.94153600  0.84350300  0.01250300  1
  O  O8  1  0.92624600  0.22570100  0.50327900  1
  O  O9  1  0.91929600  0.21538000  0.99615900  1
  O  O10  1  0.88704600  0.32874700  0.87904600  1
  O  O11  1  0.90047300  0.35529100  0.37861300  1
  O  O12  1  0.83501300  0.76457400  0.69076700  1
  O  O13  1  0.83415600  0.76556800  0.19013400  1
  O  O14  1  0.81930000  0.48380000  0.78942300  1
  O  O15  1  0.81301700  0.49715000  0.28982300  1
  O  O16  1  0.77966600  0.22273700  0.72603700  1
  O  O17  1  0.77647300  0.22130600  0.22371800  1
  O  O18  1  0.78035900  0.00820400  0.96999000  1
  O  O19  1  0.76087500  0.98657600  0.47235800  1
  O  O20  1  0.77461800  0.54166300  0.90457700  1
  O  O21  1  0.75449600  0.54551300  0.40538600  1
  O  O22  1  0.75885100  0.09354900  0.83054000  1
  O  O23  1  0.75240700  0.07330800  0.32100600  1
  O  O24  1  0.73817700  0.88820900  0.58270600  1
  O  O25  1  0.74085100  0.90406700  0.08065800  1
  O  O26  1  0.73795800  0.46146900  0.63682900  1
  O  O27  1  0.72563700  0.45879700  0.15350400  1
  O  O28  1  0.71935500  0.99180300  0.71912700  1
  O  O29  1  0.71106600  0.99356600  0.20841400  1
  O  O30  1  0.71938500  0.77838800  0.97593500  1
  O  O31  1  0.71008200  0.75500500  0.47979100  1
  O  O32  1  0.65442900  0.52956900  0.52884400  1
  O  O33  1  0.67773200  0.51751700  0.03877100  1
  O  O34  1  0.66618100  0.23427500  0.93981000  1
  O  O35  1  0.64708100  0.24625300  0.45293400  1
  O  O36  1  0.61147500  0.67000000  0.12960100  1
  O  O37  1  0.60964300  0.67031100  0.62841600  1
  O  O38  1  0.57996000  0.78377900  0.74595400  1
  O  O39  1  0.58802400  0.78021700  0.25184800  1
  O  O40  1  0.55816800  0.15617500  0.76253100  1
  O  O41  1  0.55489700  0.15334100  0.25923400  1
  O  O42  1  0.55381000  0.72281300  0.86017100  1
  O  O43  1  0.55538200  0.71410800  0.36747000  1
  O  O44  1  0.51575400  0.41688000  0.90588900  1
  O  O45  1  0.51735000  0.44165100  0.41623700  1
  O  O46  1  0.50044700  0.45361000  0.11831200  1
  O  O47  1  0.50202300  0.45408300  0.61705000  1
  O  O48  1  0.49585900  0.91225000  0.14160400  1
  O  O49  1  0.49812800  0.91598800  0.64045000  1
  O  O50  1  0.47830000  0.94150900  0.82787900  1
  O  O51  1  0.48513700  0.93759500  0.33249300  1
  O  O52  1  0.45750000  0.18594400  0.87967100  1
  O  O53  1  0.45866800  0.21429600  0.37573000  1
  O  O54  1  0.41842100  0.69154400  0.00044900  1
  O  O55  1  0.43865400  0.67048000  0.48917100  1
  O  O56  1  0.44723400  0.25733800  0.99334900  1
  O  O57  1  0.41761100  0.26968500  0.48985700  1
  O  O58  1  0.41616000  0.13897300  0.12166900  1
  O  O59  1  0.41681900  0.13981000  0.62092800  1
  O  O60  1  0.35372000  0.74642500  0.78770200  1
  O  O61  1  0.36119900  0.74113400  0.29192600  1
  O  O62  1  0.33404300  0.01551700  0.71927900  1
  O  O63  1  0.33506100  0.01456100  0.22050000  1
  O  O64  1  0.31128700  0.25574400  0.77331800  1
  O  O65  1  0.31036100  0.25267500  0.27245300  1
  O  O66  1  0.26933900  0.52028800  0.54024100  1
  O  O67  1  0.26268600  0.51885700  0.04062400  1
  O  O68  1  0.26681600  0.94649800  0.10662700  1
  O  O69  1  0.26703400  0.94623100  0.60609100  1
  O  O70  1  0.25638200  0.40237600  0.67842300  1
  O  O71  1  0.25666000  0.39863600  0.17735100  1
  O  O72  1  0.24373900  0.60084000  0.92744200  1
  O  O73  1  0.24209800  0.59742500  0.42613000  1
  O  O74  1  0.23222800  0.05395800  0.85602500  1
  O  O75  1  0.25189900  0.04403000  0.35782800  1
  O  O76  1  0.23634400  0.48093600  0.79162900  1
  O  O77  1  0.23920800  0.47833400  0.29086500  1
  O  O78  1  0.21339400  0.74834800  0.52240600  1
  O  O79  1  0.18685900  0.74407600  0.02338900  1
  O  O80  1  0.16537400  0.98480300  0.96945100  1
  O  O81  1  0.16858800  0.98092200  0.46975500  1
  O  O82  1  0.15340500  0.24926100  0.54301100  1
  O  O83  1  0.14524900  0.25328500  0.03761500  1
  O  O84  1  0.08418600  0.85977300  0.87136800  1
  O  O85  1  0.09695300  0.85429200  0.37187300  1
  O  O86  1  0.05434400  0.74361000  0.74286900  1
  O  O87  1  0.05377100  0.74336900  0.24309700  1
  O  O88  1  0.07930000  0.31055200  0.74931700  1
  O  O89  1  0.08065900  0.30943300  0.24956700  1
  O  O90  1  0.04376100  0.81154300  0.62819400  1
  O  O91  1  0.04215200  0.81387700  0.12962400  1
  O  O92  1  0.02487900  0.05323100  0.57747300  1
  O  O93  1  0.02111900  0.05885600  0.07819200  1
  O  O94  1  0.00109700  0.08358000  0.89056500  1
  O  O95  1  0.02161100  0.08212300  0.38451300  1
loop_
_geom_bond_atom_site_label_1
_geom_bond_atom_site_label_2
_geom_bond_distance
_geom_bond_site_symmetry_2
K0 O2 2.782578 1_555
K0 O6 3.010389 1_555
K0 O32 3.109901 1_555
K0 O21 3.207128 1_555
K0 O1 3.231082 1_555
K0 O66 3.265390 1_655
K0 O8 3.335639 1_555
K1 O3 2.787945 1_555
K1 O33 2.856503 1_555
K1 O20 3.071194 1_554
K1 O7 3.097975 1_555
K1 O79 3.174462 1_655
K1 O67 3.241625 1_655
K1 O0 3.262696 1_554
K1 O5 3.312438 1_555
K2 O84 2.836495 1_655
K2 O42 2.920100 1_555
K2 O30 2.981218 1_555
K2 O22 2.992136 1_565
K2 O20 3.138463 1_555
K2 O12 3.171500 1_555
K2 O38 3.184097 1_555
K2 O86 3.255489 1_655
K2 O28 3.314979 1_555
K2 O18 3.360399 1_565
K2 O0 3.394561 1_555
K3 O23 2.776231 1_565
K3 O85 2.905351 1_655
K3 O1 3.007938 1_555
K3 O43 3.030757 1_555
K3 O39 3.080208 1_555
K3 O13 3.167273 1_555
K3 O31 3.179557 1_555
K3 O87 3.211469 1_655
K3 O21 3.223052 1_555
K3 O19 3.296885 1_555
K4 O59 2.843246 1_555
K4 O35 2.937842 1_555
K4 O16 3.006230 1_555
K4 O4 3.040066 1_555
K4 O26 3.081944 1_555
K4 O8 3.128593 1_555
K4 O24 3.143733 1_545
K4 O19 3.299731 1_545
K4 O28 3.358377 1_545
K4 O47 3.405297 1_555
K5 O58 2.839761 1_555
K5 O5 2.928982 1_555
K5 O17 2.936729 1_555
K5 O25 3.019653 1_545
K5 O27 3.134003 1_555
K5 O9 3.167397 1_554
K5 O29 3.170533 1_545
K5 O34 3.172958 1_554
K5 O56 3.226572 1_554
K5 O18 3.290702 1_554
K5 O46 3.382023 1_555
K6 O44 2.782993 1_555
K6 O14 2.842777 1_555
K6 O40 3.100364 1_555
K6 O64 3.180035 1_555
K6 O76 3.241852 1_555
K6 O47 3.271522 1_555
K6 O42 3.322343 1_555
K7 O15 2.801785 1_555
K7 O45 2.991310 1_555
K7 O27 3.074590 1_555
K7 O41 3.114094 1_555
K7 O65 3.197929 1_555
K7 O77 3.214821 1_555
K7 O46 3.227086 1_555
K8 O54 2.781801 1_556
K8 O80 2.988809 1_555
K8 O50 3.084925 1_555
K8 O52 3.143298 1_565
K8 O56 3.185087 1_565
K8 O30 3.297745 1_555
K8 O68 3.310156 1_556
K9 O81 2.961267 1_555
K9 O55 2.991190 1_555
K9 O51 2.999948 1_555
K9 O19 3.178674 1_555
K10 O60 2.769106 1_555
K10 O70 2.920218 1_555
K10 O66 2.991650 1_555
K10 O69 3.076545 1_555
K10 O37 3.103272 1_555
K10 O47 3.127330 1_555
K10 O78 3.133834 1_555
K10 O49 3.155319 1_555
K10 O90 3.216934 1_555
K10 O86 3.274798 1_555
K11 O61 2.846991 1_555
K11 O71 2.963772 1_555
K11 O67 3.010336 1_555
K11 O68 3.071788 1_555
K11 O48 3.093939 1_555
K11 O36 3.102754 1_555
K11 O46 3.109459 1_555
K11 O79 3.212272 1_555
K11 O91 3.245881 1_555
K11 O87 3.292266 1_555
K12 O82 2.867236 1_555
K12 O11 2.948005 1_455
K12 O73 2.951702 1_555
K12 O95 3.010022 1_555
K12 O77 3.017054 1_555
K12 O57 3.032085 1_555
K12 O75 3.183746 1_555
K12 O53 3.196420 1_555
K12 O65 3.241867 1_555
K13 O83 2.777604 1_556
K13 O72 2.951132 1_555
K13 O76 2.981268 1_555
K13 O74 3.071621 1_555
K13 O0 3.100150 1_455
K13 O10 3.125983 1_455
K13 O94 3.158844 1_555
K13 O64 3.197895 1_555
K13 O52 3.237930 1_555
K13 O56 3.299806 1_555
K14 O88 2.788979 1_555
K14 O62 2.984831 1_555
K14 O92 3.099809 1_555
K14 O86 3.178761 1_545
K14 O90 3.191249 1_545
K14 O74 3.284730 1_555
K14 O16 3.308898 1_455
K14 O4 3.360121 1_455
K14 O28 3.431947 1_445
K14 O94 3.440087 1_555
K15 O89 2.777246 1_555
K15 O63 3.006422 1_555
K15 O93 3.098779 1_555
K15 O91 3.162147 1_545
K15 O87 3.183389 1_545
K15 O95 3.280436 1_555
K15 O17 3.318884 1_455
O0 P2 1.543766 1_555
O0 Yb6 2.298455 1_655
O1 P3 1.529546 1_555
O1 Yb7 2.277202 1_655
O2 P0 1.523518 1_555
O2 Yb0 2.303506 1_555
O3 P1 1.523563 1_555
O3 Yb1 2.324648 1_555
O4 P22 1.529247 1_655
O4 Yb0 2.218832 1_555
O5 P23 1.521395 1_655
O5 Yb1 2.271701 1_555
O6 P4 1.565222 1_555
O6 Ti6 2.082194 1_655
O7 P5 1.566498 1_555
O7 Ti7 1.971637 1_655
O8 P22 1.528088 1_655
O8 Yb2 2.228532 1_555
O9 P23 1.579996 1_656
O9 Ti0 1.928441 1_555
O10 P2 1.582906 1_555
O10 Ti0 1.933620 1_555
O11 P3 1.522494 1_555
O11 Yb2 2.274764 1_555
O12 P0 1.569918 1_555
O12 Ti1 1.961780 1_555
O13 P1 1.570182 1_555
O13 Ti2 1.960618 1_555
O14 P2 1.523064 1_555
O14 Yb0 2.240761 1_555
O15 P3 1.525807 1_555
O15 Yb1 2.322120 1_555
O16 P6 1.523694 1_555
O16 Yb0 2.271105 1_555
O17 P7 1.521297 1_555
O17 Yb1 2.270969 1_555
O18 P5 1.563551 1_546
O18 Ti0 2.057737 1_555
O19 P4 1.519478 1_555
O19 Yb2 2.286774 1_565
O20 P2 1.532920 1_555
O20 Yb3 2.212086 1_555
O21 P3 1.590870 1_555
O21 Ti3 1.892717 1_555
O22 P6 1.564864 1_555
O22 Ti0 2.086046 1_555
O23 P7 1.518029 1_555
O23 Yb2 2.245975 1_555
O24 P4 1.565746 1_555
O24 Ti1 1.984124 1_555
O25 P5 1.564610 1_555
O25 Ti2 2.075268 1_555
O26 P8 1.519984 1_555
O26 Yb0 2.237006 1_555
O27 P9 1.525200 1_555
O27 Yb1 2.203895 1_555
O28 P6 1.569857 1_565
O28 Ti1 2.030954 1_555
O29 P7 1.569261 1_565
O29 Ti2 1.934504 1_555
O30 P5 1.515698 1_556
O30 Yb3 2.274289 1_555
O31 P4 1.567859 1_555
O31 Ti3 1.981714 1_555
O32 P8 1.570364 1_555
O32 Ti3 1.945922 1_555
O33 P9 1.524387 1_555
O33 Yb3 2.262644 1_554
O34 P10 1.572365 1_555
O34 Ti0 1.947323 1_555
O35 P11 1.523344 1_555
O35 Yb2 2.227920 1_555
O36 P9 1.580427 1_555
O36 Ti2 1.939121 1_555
O37 P8 1.565347 1_555
O37 Ti1 1.969577 1_555
O38 P12 1.577295 1_555
O38 Ti1 1.924060 1_555
O39 P13 1.572324 1_555
O39 Ti2 2.012473 1_555
O40 P6 1.566224 1_555
O40 Ti4 1.970965 1_555
O41 P7 1.568961 1_555
O41 Ti5 1.940707 1_555
O42 P12 1.522272 1_555
O42 Yb3 2.229303 1_555
O43 P13 1.573334 1_555
O43 Ti3 2.047997 1_555
O44 P10 1.527142 1_555
O44 Yb3 2.309374 1_555
O45 P11 1.577375 1_555
O45 Ti3 2.057217 1_555
O46 P9 1.540026 1_555
O46 Yb4 2.298753 1_555
O47 P8 1.522530 1_555
O47 Yb5 2.252399 1_555
O48 P15 1.573959 1_565
O48 Ti2 1.983561 1_555
O49 P14 1.570284 1_565
O49 Ti1 1.999326 1_555
O50 P12 1.565510 1_555
O50 Ti4 1.959805 1_565
O51 P13 1.563517 1_555
O51 Ti5 2.056093 1_565
O52 P10 1.571146 1_555
O52 Ti4 1.912133 1_555
O53 P11 1.573875 1_555
O53 Ti5 1.980505 1_555
O54 P16 1.533169 1_554
O54 Yb3 2.255856 1_554
O55 P17 1.576627 1_555
O55 Ti3 2.024763 1_555
O56 P10 1.525422 1_555
O56 Yb4 2.283164 1_556
O57 P11 1.529607 1_555
O57 Yb5 2.229252 1_555
O58 P15 1.514215 1_555
O58 Yb4 2.295520 1_555
O59 P14 1.519303 1_555
O59 Yb5 2.281980 1_555
O60 P12 1.525691 1_555
O60 Yb6 2.266185 1_555
O61 P13 1.514168 1_555
O61 Yb7 2.276340 1_555
O62 P14 1.564424 1_555
O62 Ti4 2.056893 1_555
O63 P15 1.569434 1_555
O63 Ti5 2.057353 1_555
O64 P18 1.581282 1_555
O64 Ti4 1.908615 1_555
O65 P19 1.583388 1_555
O65 Ti5 1.890113 1_555
O66 P17 1.525386 1_555
O66 Yb5 2.282751 1_555
O67 P16 1.534266 1_554
O67 Yb4 2.283474 1_555
O68 P15 1.569696 1_565
O68 Ti7 2.056609 1_555
O69 P14 1.569049 1_565
O69 Ti6 2.030426 1_555
O70 P18 1.526472 1_555
O70 Yb5 2.233585 1_555
O71 P19 1.520851 1_555
O71 Yb4 2.267720 1_555
O72 P16 1.526016 1_555
O72 Yb6 2.262759 1_555
O73 P17 1.516458 1_555
O73 Yb7 2.249271 1_555
O74 P21 1.566481 1_545
O74 Ti4 2.055875 1_555
O75 P20 1.580668 1_545
O75 Ti5 1.968880 1_555
O76 P18 1.537466 1_555
O76 Yb6 2.277205 1_555
O77 P19 1.528999 1_555
O77 Yb7 2.268892 1_555
O78 P17 1.580528 1_555
O78 Ti6 1.981007 1_555
O79 P16 1.581293 1_554
O79 Ti7 1.902041 1_555
O80 P21 1.565959 1_555
O80 Ti7 2.057387 1_556
O81 P20 1.571066 1_555
O81 Ti6 2.034415 1_555
O82 P22 1.518435 1_555
O82 Yb5 2.220757 1_555
O83 P23 1.521353 1_555
O83 Yb4 2.267735 1_555
O84 P21 1.516672 1_555
O84 Yb6 2.276316 1_555
O85 P20 1.516538 1_555
O85 Yb7 2.231925 1_555
O86 P0 1.525544 1_455
O86 Yb6 2.294898 1_555
O87 P1 1.524128 1_455
O87 Yb7 2.292638 1_555
O88 P18 1.531578 1_555
O88 Yb0 2.284575 1_455
O89 P19 1.530331 1_555
O89 Yb1 2.251165 1_455
O90 P0 1.577841 1_455
O90 Ti6 1.904508 1_555
O91 P1 1.572960 1_455
O91 Ti7 1.912342 1_555
O92 P22 1.582184 1_555
O92 Ti6 1.920547 1_545
O93 P23 1.568011 1_555
O93 Ti7 1.965641 1_545
O94 P21 1.572750 1_545
O94 Ti0 1.988113 1_455
O95 P20 1.524173 1_545
O95 Yb2 2.240044 1_455
