# generated using pymatgen
data_Fe2SiO4
_symmetry_space_group_name_H-M   'P 1'
_cell_length_a   5.88560933
_cell_length_b   5.88560933
_cell_length_c   14.89682700
_cell_angle_alpha   90.00000000
_cell_angle_beta   90.00000000
_cell_angle_gamma   119.99999244
_symmetry_Int_Tables_number   1
_chemical_formula_structural   Fe2SiO4
_chemical_formula_sum   'Fe12 Si6 O24'
_cell_volume   446.89685834
_cell_formula_units_Z   6
loop_
 _symmetry_equiv_pos_site_id
 _symmetry_equiv_pos_as_xyz
  1  'x, y, z'
loop_
 _atom_site_type_symbol
 _atom_site_label
 _atom_site_symmetry_multiplicity
 _atom_site_fract_x
 _atom_site_fract_y
 _atom_site_fract_z
 _atom_site_occupancy
  Fe  Fe0  1  0.66666700  0.33333300  0.92746600  1
  Fe  Fe1  1  0.16572100  0.83427900  0.79311200  1
  Fe  Fe2  1  0.33333300  0.66666700  0.59173200  1
  Fe  Fe3  1  0.66855800  0.83427900  0.79311200  1
  Fe  Fe4  1  0.16572100  0.33144200  0.79311200  1
  Fe  Fe5  1  0.83439600  0.16560400  0.45194000  1
  Fe  Fe6  1  0.33120800  0.16560400  0.45194000  1
  Fe  Fe7  1  0.49882100  0.50117900  0.12876100  1
  Fe  Fe8  1  0.83439600  0.66879200  0.45194000  1
  Fe  Fe9  1  0.66666700  0.33333300  0.28790400  1
  Fe  Fe10  1  0.00235800  0.50117900  0.12876100  1
  Fe  Fe11  1  0.49882100  0.99764200  0.12876100  1
  Si  Si0  1  0.00000000  0.00000000  0.99568200  1
  Si  Si1  1  0.66666700  0.33333300  0.65609000  1
  Si  Si2  1  0.33333300  0.66666700  0.94541600  1
  Si  Si3  1  0.33333300  0.66666700  0.33146400  1
  Si  Si4  1  0.00000000  0.00000000  0.25138500  1
  Si  Si5  1  0.00000000  0.00000000  0.60778500  1
  O  O0  1  0.47825600  0.95651300  0.88942600  1
  O  O1  1  0.04348700  0.52174400  0.88942600  1
  O  O2  1  0.33333300  0.66666700  0.72301200  1
  O  O3  1  0.14285400  0.28570900  0.54686000  1
  O  O4  1  0.82850800  0.17149200  0.69423200  1
  O  O5  1  0.47825600  0.52174400  0.88942600  1
  O  O6  1  0.34298400  0.17149200  0.69423200  1
  O  O7  1  0.00000000  0.00000000  0.88250400  1
  O  O8  1  0.71429100  0.85714600  0.54686000  1
  O  O9  1  0.00000000  0.00000000  0.36249400  1
  O  O10  1  0.48712400  0.51287600  0.37019400  1
  O  O11  1  0.84629100  0.69258100  0.21391400  1
  O  O12  1  0.14285400  0.85714600  0.54686000  1
  O  O13  1  0.82850800  0.65701600  0.69423200  1
  O  O14  1  0.66666700  0.33333300  0.54549300  1
  O  O15  1  0.02575100  0.51287600  0.37019400  1
  O  O16  1  0.30741900  0.15370900  0.21391400  1
  O  O17  1  0.66666700  0.33333300  0.06079300  1
  O  O18  1  0.16038400  0.83961600  0.03190700  1
  O  O19  1  0.84629100  0.15370900  0.21391400  1
  O  O20  1  0.48712400  0.97424900  0.37019400  1
  O  O21  1  0.33333300  0.66666700  0.21799100  1
  O  O22  1  0.67923200  0.83961600  0.03190700  1
  O  O23  1  0.16038400  0.32076800  0.03190700  1
loop_
_geom_bond_atom_site_label_1
_geom_bond_atom_site_label_2
_geom_bond_distance
_geom_bond_site_symmetry_2
Fe0 O17 1.986149 1_556
Fe0 O1 2.002536 1_655
Fe0 O0 2.002536 1_545
Fe0 O5 2.002545 1_555
Fe1 O2 2.002507 1_555
Fe1 O7 2.151126 1_565
Fe1 O0 2.153231 1_555
Fe1 O1 2.153231 1_555
Fe1 O13 2.264201 1_455
Fe1 O6 2.264201 1_565
Fe2 O2 1.955655 1_555
Fe2 O12 2.053612 1_555
Fe2 O3 2.053612 1_555
Fe2 O8 2.053612 1_555
Fe3 O2 2.002511 1_555
Fe3 O7 2.151127 1_665
Fe3 O5 2.153232 1_555
Fe3 O0 2.153235 1_555
Fe3 O13 2.264201 1_555
Fe3 O4 2.264201 1_565
Fe4 O2 2.002511 1_555
Fe4 O7 2.151127 1_555
Fe4 O5 2.153232 1_555
Fe4 O1 2.153235 1_555
Fe4 O6 2.264201 1_555
Fe4 O4 2.264201 1_455
Fe5 O3 2.124072 1_655
Fe5 O8 2.124072 1_545
Fe5 O9 2.150688 1_655
Fe5 O20 2.151040 1_545
Fe5 O15 2.151040 1_655
Fe5 O14 2.205869 1_555
Fe6 O12 2.124073 1_545
Fe6 O3 2.124076 1_555
Fe6 O9 2.150688 1_555
Fe6 O20 2.151036 1_545
Fe6 O10 2.151040 1_555
Fe6 O14 2.205873 1_555
Fe7 O17 1.988182 1_555
Fe7 O21 2.147767 1_555
Fe7 O11 2.180979 1_555
Fe7 O16 2.180979 1_555
Fe7 O22 2.249852 1_555
Fe7 O23 2.249852 1_555
Fe8 O12 2.124073 1_655
Fe8 O8 2.124076 1_555
Fe8 O9 2.150688 1_665
Fe8 O15 2.151036 1_655
Fe8 O10 2.151040 1_555
Fe8 O14 2.205873 1_555
Fe9 O19 2.137259 1_555
Fe9 O16 2.137259 1_555
Fe9 O11 2.137259 1_555
Fe9 O20 2.202877 1_545
Fe9 O15 2.202877 1_655
Fe9 O10 2.202885 1_555
Fe10 O17 1.988178 1_455
Fe10 O21 2.147763 1_555
Fe10 O11 2.180975 1_455
Fe10 O19 2.180980 1_455
Fe10 O23 2.249852 1_555
Fe10 O18 2.249852 1_555
Fe11 O17 1.988178 1_565
Fe11 O21 2.147763 1_555
Fe11 O16 2.180975 1_565
Fe11 O19 2.180980 1_565
Fe11 O22 2.249852 1_555
Fe11 O18 2.249852 1_555
O0 Si2 1.696556 1_555
O1 Si2 1.696556 1_555
O3 Si5 1.715949 1_555
O4 Si1 1.744936 1_555
O4 Si5 2.171328 1_655
O5 Si2 1.696556 1_555
O6 Si1 1.744941 1_555
O6 Si5 2.171328 1_555
O7 Si0 1.685993 1_555
O8 Si5 1.715949 1_665
O9 Si4 1.655172 1_555
O10 Si3 1.670565 1_555
O11 Si4 1.663398 1_665
O12 Si5 1.715944 1_565
O13 Si1 1.744941 1_555
O13 Si5 2.171328 1_665
O14 Si1 1.647544 1_555
O15 Si3 1.670565 1_555
O16 Si4 1.663398 1_555
O18 Si0 1.721736 1_564
O18 Si2 2.183691 1_554
O19 Si4 1.663393 1_655
O20 Si3 1.670565 1_555
O21 Si3 1.690388 1_555
O22 Si0 1.721737 1_664
O22 Si2 2.183695 1_554
O23 Si0 1.721737 1_554
O23 Si2 2.183695 1_554
