# generated using pymatgen
data_K2Zn(CN)4
_symmetry_space_group_name_H-M   'P 1'
_cell_length_a   8.97873726
_cell_length_b   8.97873726
_cell_length_c   8.97873726
_cell_angle_alpha   60.00000000
_cell_angle_beta   60.00000000
_cell_angle_gamma   60.00000000
_symmetry_Int_Tables_number   1
_chemical_formula_structural   K2Zn(CN)4
_chemical_formula_sum   'K4 Zn2 C8 N8'
_cell_volume   511.83595575
_cell_formula_units_Z   2
loop_
 _symmetry_equiv_pos_site_id
 _symmetry_equiv_pos_as_xyz
  1  'x, y, z'
loop_
 _atom_site_type_symbol
 _atom_site_label
 _atom_site_symmetry_multiplicity
 _atom_site_fract_x
 _atom_site_fract_y
 _atom_site_fract_z
 _atom_site_occupancy
  K  K0  1  0.12500000  0.62500000  0.12500000  1
  K  K1  1  0.12500000  0.12500000  0.62500000  1
  K  K2  1  0.12500000  0.12500000  0.12500000  1
  K  K3  1  0.62500000  0.12500000  0.12500000  1
  Zn  Zn0  1  0.75000000  0.75000000  0.75000000  1
  Zn  Zn1  1  0.50000000  0.50000000  0.50000000  1
  C  C0  1  0.40848300  0.40848300  0.40848300  1
  C  C1  1  0.84151700  0.47544900  0.84151700  1
  C  C2  1  0.40848300  0.40848300  0.77455100  1
  C  C3  1  0.77455100  0.40848300  0.40848300  1
  C  C4  1  0.84151700  0.84151700  0.84151700  1
  C  C5  1  0.47544900  0.84151700  0.84151700  1
  C  C6  1  0.40848300  0.77455100  0.40848300  1
  C  C7  1  0.84151700  0.84151700  0.47544900  1
  N  N0  1  0.31538000  0.89487300  0.89487300  1
  N  N1  1  0.89487300  0.89487300  0.89487300  1
  N  N2  1  0.93462000  0.35512700  0.35512700  1
  N  N3  1  0.89487300  0.31538000  0.89487300  1
  N  N4  1  0.35512700  0.35512700  0.35512700  1
  N  N5  1  0.35512700  0.35512700  0.93462000  1
  N  N6  1  0.35512700  0.93462000  0.35512700  1
  N  N7  1  0.89487300  0.89487300  0.31538000  1
loop_
_geom_bond_atom_site_label_1
_geom_bond_atom_site_label_2
_geom_bond_distance
_geom_bond_site_symmetry_2
K0 N0 2.943824 1_554
K0 N7 2.943824 1_455
K0 N5 2.943824 1_554
K0 N2 2.943824 1_455
K0 N4 2.943830 1_555
K0 N1 2.943830 1_454
K1 N0 2.943824 1_545
K1 N3 2.943824 1_455
K1 N2 2.943824 1_455
K1 N6 2.943824 1_545
K1 N4 2.943830 1_555
K1 N1 2.943830 1_445
K2 N2 2.943831 1_455
K2 N6 2.943831 1_545
K2 N5 2.943831 1_554
K2 N3 2.943831 1_454
K2 N7 2.943831 1_445
K2 N0 2.943831 1_544
K3 N3 2.943824 1_554
K3 N7 2.943824 1_545
K3 N5 2.943824 1_554
K3 N6 2.943824 1_545
K3 N4 2.943830 1_555
K3 N1 2.943830 1_544
C0 N4 1.173476 1_555
C0 Zn1 2.012763 1_555
C1 N3 1.173483 1_555
C1 Zn0 2.012763 1_555
C2 N5 1.173483 1_555
C2 Zn1 2.012763 1_555
C3 N2 1.173483 1_555
C3 Zn1 2.012763 1_555
C4 N1 1.173476 1_555
C4 Zn0 2.012763 1_555
C5 N0 1.173483 1_555
C5 Zn0 2.012763 1_555
C6 N6 1.173483 1_555
C6 Zn1 2.012763 1_555
C7 N7 1.173483 1_555
C7 Zn0 2.012763 1_555
