# generated using pymatgen
data_Ca5Mg5P5O21F4
_symmetry_space_group_name_H-M   'P 1'
_cell_length_a   5.51042379
_cell_length_b   5.51042379
_cell_length_c   65.32242131
_cell_angle_alpha   89.61521031
_cell_angle_beta   89.61521031
_cell_angle_gamma   106.81330671
_symmetry_Int_Tables_number   1
_chemical_formula_structural   Ca5Mg5P5O21F4
_chemical_formula_sum   'Ca20 Mg20 P20 O84 F16'
_cell_volume   1898.58984304
_cell_formula_units_Z   4
loop_
 _symmetry_equiv_pos_site_id
 _symmetry_equiv_pos_as_xyz
  1  'x, y, z'
loop_
 _atom_site_type_symbol
 _atom_site_label
 _atom_site_symmetry_multiplicity
 _atom_site_fract_x
 _atom_site_fract_y
 _atom_site_fract_z
 _atom_site_occupancy
  Ca  Ca0  1  0.13776400  0.05977500  0.89972700  1
  Ca  Ca1  1  0.74078700  0.65920300  0.79999800  1
  Ca  Ca2  1  0.33860000  0.26125800  0.69994900  1
  Ca  Ca3  1  0.93861300  0.86141800  0.59999800  1
  Ca  Ca4  1  0.53858000  0.46142000  0.50000000  1
  Ca  Ca5  1  0.26222500  0.54022400  0.85028000  1
  Ca  Ca6  1  0.13858200  0.06138700  0.40000200  1
  Ca  Ca7  1  0.85974000  0.13758000  0.74967200  1
  Ca  Ca8  1  0.73874200  0.66140000  0.30005100  1
  Ca  Ca9  1  0.46138500  0.73858100  0.64999200  1
  Ca  Ca10  1  0.34079700  0.25921300  0.20000200  1
  Ca  Ca11  1  0.06144300  0.33860000  0.54999600  1
  Ca  Ca12  1  0.94022500  0.86223600  0.10027300  1
  Ca  Ca13  1  0.66140000  0.93855700  0.45000400  1
  Ca  Ca14  1  0.53926000  0.46074000  0.00000000  1
  Ca  Ca15  1  0.26141900  0.53861500  0.35000800  1
  Ca  Ca16  1  0.86242000  0.14026000  0.25032800  1
  Ca  Ca17  1  0.45977600  0.73777500  0.14972000  1
  Ca  Ca18  1  0.05928200  0.34106500  0.05004400  1
  Ca  Ca19  1  0.65893500  0.94071800  0.94995600  1
  Mg  Mg0  1  0.69996300  0.30002500  0.87499900  1
  Mg  Mg1  1  0.49759600  0.09788600  0.82548900  1
  Mg  Mg2  1  0.30197100  0.90236300  0.77447200  1
  Mg  Mg3  1  0.09958200  0.69918300  0.72484900  1
  Mg  Mg4  1  0.89987200  0.49994300  0.67495900  1
  Mg  Mg5  1  0.70000700  0.29995400  0.62499300  1
  Mg  Mg6  1  0.49996500  0.09997900  0.57499700  1
  Mg  Mg7  1  0.29998800  0.89997500  0.52499800  1
  Mg  Mg8  1  0.10002500  0.70001200  0.47500200  1
  Mg  Mg9  1  0.90002100  0.50003500  0.42500300  1
  Mg  Mg10  1  0.70004600  0.29999300  0.37500700  1
  Mg  Mg11  1  0.50005700  0.10012800  0.32504100  1
  Mg  Mg12  1  0.30081700  0.90041800  0.27515100  1
  Mg  Mg13  1  0.09763700  0.69802900  0.22552800  1
  Mg  Mg14  1  0.90211400  0.50240400  0.17451100  1
  Mg  Mg15  1  0.69997500  0.30003700  0.12500100  1
  Mg  Mg16  1  0.49804000  0.09765000  0.07550900  1
  Mg  Mg17  1  0.30273300  0.90274500  0.02461800  1
  Mg  Mg18  1  0.09725500  0.69726700  0.97538200  1
  Mg  Mg19  1  0.90235000  0.50196000  0.92449100  1
  P  P0  1  0.92043100  0.87814600  0.85030700  1
  P  P1  1  0.52145900  0.47939500  0.74962800  1
  P  P2  1  0.12111900  0.07887400  0.64998800  1
  P  P3  1  0.72110900  0.67886900  0.54996900  1
  P  P4  1  0.47954100  0.72179800  0.89968700  1
  P  P5  1  0.32113100  0.27889100  0.45003100  1
  P  P6  1  0.07930700  0.32068800  0.79999400  1
  P  P7  1  0.92112600  0.87888100  0.35001200  1
  P  P8  1  0.67845700  0.92082900  0.69990800  1
  P  P9  1  0.52060500  0.47854100  0.25037200  1
  P  P10  1  0.27888600  0.52112700  0.59998000  1
  P  P11  1  0.12185400  0.07956900  0.14969300  1
  P  P12  1  0.87889800  0.12110200  0.50000000  1
  P  P13  1  0.72105600  0.67951000  0.05005500  1
  P  P14  1  0.47887300  0.72111400  0.40002000  1
  P  P15  1  0.32049000  0.27894400  0.94994500  1
  P  P16  1  0.07917100  0.32154300  0.30009200  1
  P  P17  1  0.67931200  0.92069300  0.20000600  1
  P  P18  1  0.27820200  0.52045900  0.10031300  1
  P  P19  1  0.87900300  0.12099700  0.00000000  1
  O  O0  1  0.26879500  0.72321300  0.91576600  1
  O  O1  1  0.97676000  0.13606300  0.86175300  1
  O  O2  1  0.86482700  0.31987400  0.81580200  1
  O  O3  1  0.92533700  0.66647100  0.86611500  1
  O  O4  1  0.66193000  0.82293800  0.83913500  1
  O  O5  1  0.57681500  0.73795000  0.76081300  1
  O  O6  1  0.46580200  0.92212000  0.71577700  1
  O  O7  1  0.48681400  0.91313200  0.79998700  1
  O  O8  1  0.52304900  0.26868700  0.76571100  1
  O  O9  1  0.26350200  0.42293500  0.73820800  1
  O  O10  1  0.73811700  0.77713900  0.91085700  1
  O  O11  1  0.17552100  0.33569800  0.66157100  1
  O  O12  1  0.47459700  0.93359100  0.88389100  1
  O  O13  1  0.06629600  0.52245400  0.61584600  1
  O  O14  1  0.12244600  0.86634000  0.66584000  1
  O  O15  1  0.42320100  0.46405300  0.88825400  1
  O  O16  1  0.86430500  0.02444900  0.63840700  1
  O  O17  1  0.33469500  0.37837200  0.81170200  1
  O  O18  1  0.77551700  0.93578100  0.56159200  1
  O  O19  1  0.08006500  0.53525100  0.78419600  1
  O  O20  1  0.13122800  0.87678200  0.83424400  1
  O  O21  1  0.66630100  0.12247000  0.51584300  1
  O  O22  1  0.72246500  0.46622000  0.56585100  1
  O  O23  1  0.02160600  0.06533000  0.78827900  1
  O  O24  1  0.46439400  0.62448800  0.53842000  1
  O  O25  1  0.93533300  0.97519100  0.71154000  1
  O  O26  1  0.37551200  0.53560600  0.46158000  1
  O  O27  1  0.67730600  0.13347100  0.68411000  1
  O  O28  1  0.73298700  0.47429400  0.73382100  1
  O  O29  1  0.26645600  0.72249900  0.41583700  1
  O  O30  1  0.32251700  0.06646000  0.46583400  1
  O  O31  1  0.62423900  0.66423800  0.68836400  1
  O  O32  1  0.06421900  0.22448300  0.43840800  1
  O  O33  1  0.53575500  0.57548800  0.61159000  1
  O  O34  1  0.97555100  0.13569500  0.36159300  1
  O  O35  1  0.27750100  0.73354400  0.58416300  1
  O  O36  1  0.33366500  0.07745300  0.63415100  1
  O  O37  1  0.86652900  0.32269400  0.31589000  1
  O  O38  1  0.92254700  0.66633500  0.36584900  1
  O  O39  1  0.22449800  0.26433600  0.58841600  1
  O  O40  1  0.66430200  0.82447900  0.33842900  1
  O  O41  1  0.13568900  0.17551200  0.51158700  1
  O  O42  1  0.57706500  0.73649800  0.26179200  1
  O  O43  1  0.87753000  0.33369900  0.48415700  1
  O  O44  1  0.93354000  0.67748300  0.53416600  1
  O  O45  1  0.46474900  0.91993500  0.21580400  1
  O  O46  1  0.52570600  0.26701300  0.26617900  1
  O  O47  1  0.82448800  0.86431100  0.48841300  1
  O  O48  1  0.26205000  0.42318500  0.23918700  1
  O  O49  1  0.73566400  0.77550200  0.41158400  1
  O  O50  1  0.17706200  0.33807000  0.16086500  1
  O  O51  1  0.47754600  0.93370400  0.38415400  1
  O  O52  1  0.53378000  0.27753500  0.43414900  1
  O  O53  1  0.06640900  0.52540300  0.11610900  1
  O  O54  1  0.08686800  0.51318600  0.20001300  1
  O  O55  1  0.12321800  0.86877200  0.16575600  1
  O  O56  1  0.42451200  0.46424500  0.38841000  1
  O  O57  1  0.86393700  0.02324000  0.13824700  1
  O  O58  1  0.33576200  0.37576100  0.31163600  1
  O  O59  1  0.77872100  0.93484900  0.06174800  1
  O  O60  1  0.07788000  0.53419800  0.28422300  1
  O  O61  1  0.13366000  0.87755400  0.33416000  1
  O  O62  1  0.66923500  0.12637900  0.01605100  1
  O  O63  1  0.72008700  0.46495600  0.06585400  1
  O  O64  1  0.02480900  0.06466700  0.28846000  1
  O  O65  1  0.46577800  0.62191800  0.03832500  1
  O  O66  1  0.93467000  0.97839400  0.21172100  1
  O  O67  1  0.37808200  0.53422200  0.96167500  1
  O  O68  1  0.68012600  0.13517300  0.18419800  1
  O  O69  1  0.73131300  0.47695100  0.23428900  1
  O  O70  1  0.31970300  0.06430500  0.96574400  1
  O  O71  1  0.62162800  0.66530500  0.18829800  1
  O  O72  1  0.06515100  0.22127900  0.93825200  1
  O  O73  1  0.53594700  0.57679900  0.11174600  1
  O  O74  1  0.27678700  0.73120500  0.08423400  1
  O  O75  1  0.31309300  0.08694200  0.05005800  1
  O  O76  1  0.33352900  0.07466300  0.13388500  1
  O  O77  1  0.22286100  0.26188300  0.08914300  1
  O  O78  1  0.13869900  0.17848600  0.01101300  1
  O  O79  1  0.87362100  0.33076500  0.98394900  1
  O  O80  1  0.91305800  0.68690700  0.94994200  1
  O  O81  1  0.93569500  0.68029700  0.03425600  1
  O  O82  1  0.82151400  0.86130100  0.98898700  1
  O  O83  1  0.53504400  0.27991300  0.93414600  1
  F  F0  1  0.88492600  0.31274800  0.89986600  1
  F  F1  1  0.51505700  0.28715400  0.85009800  1
  F  F2  1  0.08534800  0.51463000  0.69992200  1
  F  F3  1  0.11311300  0.88482200  0.74982700  1
  F  F4  1  0.68516600  0.11481400  0.59999400  1
  F  F5  1  0.71476800  0.48520300  0.64997900  1
  F  F6  1  0.28520800  0.71479200  0.50000000  1
  F  F7  1  0.31479400  0.08515100  0.54999200  1
  F  F8  1  0.88518600  0.31483400  0.40000600  1
  F  F9  1  0.91484900  0.68520600  0.45000800  1
  F  F10  1  0.48537000  0.91465200  0.30007800  1
  F  F11  1  0.51479700  0.28523200  0.35002100  1
  F  F12  1  0.11517800  0.88688700  0.25017300  1
  F  F13  1  0.68725200  0.11507400  0.10013400  1
  F  F14  1  0.71284600  0.48494300  0.14990200  1
  F  F15  1  0.28656000  0.71344000  0.00000000  1
loop_
_geom_bond_atom_site_label_1
_geom_bond_atom_site_label_2
_geom_bond_distance
_geom_bond_site_symmetry_2
Ca0 F0 2.237851 1_455
Ca0 O12 2.393560 1_545
Ca0 O10 2.404808 1_445
Ca0 O0 2.411908 1_545
Ca0 O15 2.435800 1_555
Ca0 O1 2.710775 1_455
Ca0 O72 2.740016 1_555
Ca1 O7 2.247084 1_555
Ca1 O19 2.397827 1_655
Ca1 O2 2.398373 1_555
Ca1 O17 2.438145 1_555
Ca1 O23 2.438559 1_665
Ca1 O4 2.789544 1_555
Ca1 O5 2.792764 1_555
Ca2 F2 2.241430 1_555
Ca2 O27 2.407069 1_555
Ca2 O6 2.407130 1_545
Ca2 O31 2.433227 1_555
Ca2 O25 2.435387 1_445
Ca2 O9 2.727658 1_555
Ca2 O11 2.736835 1_555
Ca3 F4 2.242398 1_565
Ca3 O35 2.408066 1_655
Ca3 O13 2.408241 1_655
Ca3 O39 2.433437 1_665
Ca3 O33 2.433489 1_555
Ca3 O16 2.738419 1_565
Ca3 O18 2.738447 1_555
Ca4 F6 2.241960 1_555
Ca4 O21 2.408144 1_555
Ca4 O43 2.408144 1_555
Ca4 O47 2.433476 1_555
Ca4 O41 2.433476 1_555
Ca4 O24 2.738995 1_555
Ca4 O26 2.738995 1_555
Ca5 F1 2.238267 1_555
Ca5 O3 2.393971 1_455
Ca5 O4 2.405490 1_555
Ca5 O20 2.411706 1_555
Ca5 O1 2.435390 1_455
Ca5 O15 2.710560 1_555
Ca5 O17 2.743732 1_555
Ca6 F8 2.242398 1_455
Ca6 O29 2.408066 1_545
Ca6 O51 2.408241 1_545
Ca6 O49 2.433437 1_445
Ca6 O56 2.433489 1_555
Ca6 O34 2.738419 1_455
Ca6 O32 2.738447 1_555
Ca7 F3 2.239272 1_645
Ca7 O28 2.395043 1_555
Ca7 O5 2.405557 1_545
Ca7 O8 2.412734 1_555
Ca7 O9 2.433391 1_655
Ca7 O25 2.722192 1_545
Ca7 O23 2.745221 1_655
Ca8 F10 2.241430 1_555
Ca8 O37 2.407069 1_555
Ca8 O60 2.407130 1_655
Ca8 O58 2.433227 1_555
Ca8 O64 2.435387 1_665
Ca8 O42 2.727658 1_555
Ca8 O40 2.736835 1_555
Ca9 F5 2.242035 1_555
Ca9 O36 2.407717 1_565
Ca9 O14 2.408340 1_555
Ca9 O11 2.433195 1_555
Ca9 O16 2.433468 1_565
Ca9 O31 2.735880 1_555
Ca9 O33 2.738210 1_555
Ca10 O54 2.247084 1_555
Ca10 O45 2.397827 1_545
Ca10 O68 2.398373 1_555
Ca10 O71 2.438145 1_555
Ca10 O66 2.438559 1_445
Ca10 O50 2.789544 1_555
Ca10 O48 2.792764 1_555
Ca11 F7 2.242208 1_555
Ca11 O44 2.407987 1_455
Ca11 O22 2.408322 1_455
Ca11 O18 2.433404 1_445
Ca11 O24 2.433457 1_555
Ca11 O41 2.738456 1_555
Ca11 O39 2.739071 1_555
Ca12 F13 2.237851 1_565
Ca12 O53 2.393560 1_655
Ca12 O77 2.404808 1_665
Ca12 O74 2.411908 1_655
Ca12 O73 2.435800 1_555
Ca12 O57 2.710775 1_565
Ca12 O59 2.740016 1_555
Ca13 F9 2.242208 1_555
Ca13 O30 2.407987 1_565
Ca13 O52 2.408322 1_565
Ca13 O32 2.433404 1_665
Ca13 O26 2.433457 1_555
Ca13 O47 2.738456 1_555
Ca13 O49 2.739071 1_555
Ca14 F15 2.236014 1_555
Ca14 O62 2.398863 1_555
Ca14 O79 2.398863 1_554
Ca14 O78 2.405455 1_555
Ca14 O82 2.405455 1_554
Ca14 O65 2.728462 1_555
Ca14 O67 2.728462 1_554
Ca15 F11 2.242035 1_555
Ca15 O38 2.407717 1_455
Ca15 O61 2.408340 1_555
Ca15 O40 2.433195 1_555
Ca15 O34 2.433468 1_455
Ca15 O58 2.735880 1_555
Ca15 O56 2.738210 1_555
Ca16 F12 2.239272 1_645
Ca16 O46 2.395043 1_555
Ca16 O48 2.405557 1_655
Ca16 O69 2.412734 1_555
Ca16 O42 2.433391 1_545
Ca16 O64 2.722192 1_655
Ca16 O66 2.745221 1_545
Ca17 F14 2.238267 1_555
Ca17 O76 2.393971 1_565
Ca17 O50 2.405490 1_555
Ca17 O55 2.411706 1_555
Ca17 O57 2.435390 1_565
Ca17 O73 2.710560 1_555
Ca17 O71 2.743732 1_555
Ca18 O75 2.247225 1_555
Ca18 O81 2.396187 1_455
Ca18 O63 2.397485 1_455
Ca18 O59 2.438100 1_445
Ca18 O65 2.440117 1_555
Ca18 O78 2.781559 1_555
Ca18 O77 2.787381 1_555
Ca19 O80 2.247225 1_555
Ca19 O70 2.396187 1_565
Ca19 O83 2.397485 1_565
Ca19 O72 2.438100 1_665
Ca19 O67 2.440117 1_555
Ca19 O82 2.781559 1_555
Ca19 O10 2.787381 1_555
Mg0 O3 2.116695 1_555
Mg0 O12 2.116768 1_545
Mg0 O1 2.163663 1_555
Mg0 O15 2.163966 1_555
Mg1 O7 1.950431 1_545
Mg1 O20 2.106990 1_545
Mg1 O2 2.128869 1_555
Mg1 O4 2.167134 1_545
Mg1 O17 2.191009 1_555
Mg2 O7 1.951423 1_555
Mg2 O8 2.106858 1_565
Mg2 O19 2.128916 1_555
Mg2 O5 2.167284 1_555
Mg2 O23 2.191221 1_565
Mg3 O6 2.114888 1_555
Mg3 O28 2.118038 1_455
Mg3 O25 2.162718 1_455
Mg3 O9 2.163981 1_555
Mg4 O14 2.115879 1_655
Mg4 O27 2.116758 1_555
Mg4 O11 2.163150 1_655
Mg4 O31 2.163697 1_555
Mg5 O13 2.115786 1_655
Mg5 O36 2.116212 1_555
Mg5 O33 2.163049 1_555
Mg5 O16 2.163365 1_555
Mg6 O22 2.115561 1_555
Mg6 O35 2.116695 1_545
Mg6 O18 2.162997 1_545
Mg6 O39 2.163528 1_555
Mg7 O21 2.116023 1_565
Mg7 O44 2.116833 1_455
Mg7 O41 2.163435 1_565
Mg7 O24 2.163866 1_555
Mg8 O43 2.116023 1_455
Mg8 O30 2.116833 1_565
Mg8 O47 2.163435 1_455
Mg8 O26 2.163866 1_555
Mg9 O52 2.115561 1_555
Mg9 O29 2.116695 1_655
Mg9 O32 2.162997 1_655
Mg9 O49 2.163528 1_555
Mg10 O51 2.115786 1_545
Mg10 O38 2.116212 1_555
Mg10 O56 2.163049 1_555
Mg10 O34 2.163365 1_555
Mg11 O61 2.115879 1_545
Mg11 O37 2.116758 1_555
Mg11 O40 2.163150 1_545
Mg11 O58 2.163697 1_555
Mg12 O60 2.114888 1_555
Mg12 O46 2.118038 1_565
Mg12 O64 2.162718 1_565
Mg12 O42 2.163981 1_555
Mg13 O54 1.951423 1_555
Mg13 O69 2.106858 1_455
Mg13 O45 2.128916 1_555
Mg13 O48 2.167284 1_555
Mg13 O66 2.191221 1_455
Mg14 O54 1.950431 1_655
Mg14 O55 2.106990 1_655
Mg14 O68 2.128869 1_555
Mg14 O50 2.167134 1_655
Mg14 O71 2.191009 1_555
Mg15 O76 2.116695 1_555
Mg15 O53 2.116768 1_655
Mg15 O57 2.163663 1_555
Mg15 O73 2.163966 1_555
Mg16 O75 1.948174 1_555
Mg16 O74 2.107060 1_545
Mg16 O63 2.128690 1_555
Mg16 O77 2.167507 1_555
Mg16 O59 2.190858 1_545
Mg17 O75 1.945633 1_565
Mg17 O62 2.108619 1_565
Mg17 O81 2.127877 1_455
Mg17 O78 2.168584 1_565
Mg17 O65 2.190911 1_555
Mg18 O80 1.945633 1_455
Mg18 O79 2.108619 1_455
Mg18 O70 2.127877 1_565
Mg18 O82 2.168584 1_455
Mg18 O67 2.190911 1_555
Mg19 O80 1.948174 1_555
Mg19 O0 2.107060 1_655
Mg19 O83 2.128690 1_555
Mg19 O10 2.167507 1_555
Mg19 O72 2.190858 1_655
O0 P4 1.562310 1_555
O1 P0 1.561235 1_545
O2 P6 1.563210 1_655
O3 P0 1.558846 1_555
O4 P0 1.555776 1_555
O5 P1 1.556384 1_555
O6 P8 1.560884 1_555
O8 P1 1.562547 1_555
O9 P1 1.560555 1_555
O10 P4 1.556022 1_555
O11 P2 1.561144 1_555
O12 P4 1.558868 1_555
O13 P10 1.560532 1_555
O14 P2 1.559699 1_565
O15 P4 1.560007 1_555
O16 P2 1.561024 1_655
O17 P6 1.557360 1_555
O18 P3 1.562843 1_555
O19 P6 1.563194 1_555
O20 P0 1.561758 1_455
O21 P12 1.559622 1_555
O22 P3 1.561500 1_555
O23 P6 1.557443 1_555
O24 P3 1.559546 1_555
O25 P8 1.562980 1_555
O26 P5 1.559546 1_555
O27 P8 1.557603 1_545
O28 P1 1.558453 1_555
O29 P14 1.557783 1_555
O30 P5 1.557240 1_555
O31 P8 1.558862 1_555
O32 P5 1.562843 1_555
O33 P10 1.562239 1_555
O34 P7 1.561024 1_545
O35 P10 1.557783 1_555
O36 P2 1.559220 1_555
O37 P16 1.557603 1_655
O38 P7 1.559220 1_555
O39 P10 1.560383 1_555
O40 P7 1.561144 1_555
O41 P12 1.561114 1_455
O42 P9 1.560555 1_555
O43 P12 1.559622 1_555
O44 P3 1.557240 1_555
O45 P17 1.563194 1_555
O46 P9 1.558453 1_555
O47 P12 1.561114 1_565
O48 P9 1.556384 1_555
O49 P14 1.560383 1_555
O50 P11 1.555776 1_555
O51 P14 1.560532 1_555
O52 P5 1.561500 1_555
O53 P18 1.558868 1_555
O55 P11 1.561758 1_565
O56 P14 1.562239 1_555
O57 P11 1.561235 1_655
O58 P16 1.558862 1_555
O59 P13 1.556648 1_555
O60 P16 1.560884 1_555
O61 P7 1.559699 1_455
O62 P19 1.562150 1_555
O63 P13 1.562943 1_555
O64 P16 1.562980 1_555
O65 P13 1.557590 1_555
O66 P17 1.557443 1_555
O67 P15 1.557590 1_555
O68 P17 1.563210 1_545
O69 P9 1.562547 1_555
O70 P15 1.563516 1_555
O71 P17 1.557360 1_555
O72 P15 1.556648 1_555
O73 P18 1.560007 1_555
O74 P18 1.562310 1_555
O76 P11 1.558846 1_555
O77 P18 1.556022 1_555
O78 P19 1.555756 1_455
O79 P19 1.562150 1_556
O81 P13 1.563516 1_555
O82 P19 1.555756 1_566
O83 P15 1.562943 1_555
F0 Mg19 1.910623 1_555
F0 Mg0 1.914353 1_555
F1 Mg1 1.909884 1_555
F1 Mg0 1.915990 1_555
F2 Mg3 1.915598 1_555
F2 Mg4 1.920011 1_455
F3 Mg2 1.910617 1_555
F3 Mg3 1.922006 1_555
F4 Mg5 1.920956 1_555
F4 Mg6 1.921025 1_555
F5 Mg4 1.919851 1_555
F5 Mg5 1.920593 1_555
F6 Mg7 1.921060 1_555
F6 Mg8 1.921060 1_555
F7 Mg7 1.920802 1_545
F7 Mg6 1.921388 1_555
F8 Mg10 1.920956 1_555
F8 Mg9 1.921025 1_555
F9 Mg8 1.920802 1_655
F9 Mg9 1.921388 1_555
F10 Mg12 1.915598 1_555
F10 Mg11 1.920011 1_565
F11 Mg11 1.919851 1_555
F11 Mg10 1.920593 1_555
F12 Mg13 1.910617 1_555
F12 Mg12 1.922006 1_555
F13 Mg16 1.910623 1_555
F13 Mg15 1.914353 1_555
F14 Mg14 1.909884 1_555
F14 Mg15 1.915990 1_555
F15 Mg17 1.911227 1_555
F15 Mg18 1.911227 1_554
