# generated using pymatgen
data_NaH2CSO4F3
_symmetry_space_group_name_H-M   'P 1'
_cell_length_a   5.49687600
_cell_length_b   6.53590400
_cell_length_c   17.69202400
_cell_angle_alpha   90.00000000
_cell_angle_beta   90.00000000
_cell_angle_gamma   90.00000000
_symmetry_Int_Tables_number   1
_chemical_formula_structural   NaH2CSO4F3
_chemical_formula_sum   'Na4 H8 C4 S4 O16 F12'
_cell_volume   635.62229871
_cell_formula_units_Z   4
loop_
 _symmetry_equiv_pos_site_id
 _symmetry_equiv_pos_as_xyz
  1  'x, y, z'
loop_
 _atom_site_type_symbol
 _atom_site_label
 _atom_site_symmetry_multiplicity
 _atom_site_fract_x
 _atom_site_fract_y
 _atom_site_fract_z
 _atom_site_occupancy
  Na  Na0  1  0.75000000  0.93502200  0.26324700  1
  Na  Na1  1  0.75000000  0.43502200  0.23675300  1
  Na  Na2  1  0.25000000  0.06497800  0.73675300  1
  Na  Na3  1  0.25000000  0.56497800  0.76324700  1
  H  H0  1  0.60614100  0.25488900  0.37527100  1
  H  H1  1  0.89385900  0.75488900  0.12472900  1
  H  H2  1  0.10614100  0.74511100  0.62472900  1
  H  H3  1  0.39385900  0.24511100  0.87527100  1
  H  H4  1  0.39385900  0.74511100  0.62472900  1
  H  H5  1  0.10614100  0.24511100  0.87527100  1
  H  H6  1  0.89385900  0.25488900  0.37527100  1
  H  H7  1  0.60614100  0.75488900  0.12472900  1
  C  C0  1  0.25000000  0.77707200  0.42906100  1
  C  C1  1  0.25000000  0.27707200  0.07093900  1
  C  C2  1  0.75000000  0.22292800  0.57093900  1
  C  C3  1  0.75000000  0.72292800  0.92906100  1
  S  S0  1  0.25000000  0.61219900  0.34296600  1
  S  S1  1  0.25000000  0.11219900  0.15703400  1
  S  S2  1  0.75000000  0.38780100  0.65703400  1
  S  S3  1  0.75000000  0.88780100  0.84296600  1
  O  O0  1  0.75000000  0.21266300  0.34679100  1
  O  O1  1  0.75000000  0.71266300  0.15320900  1
  O  O2  1  0.25000000  0.78733700  0.65320900  1
  O  O3  1  0.25000000  0.28733700  0.84679100  1
  O  O4  1  0.25000000  0.40375200  0.37279800  1
  O  O5  1  0.25000000  0.90375200  0.12720200  1
  O  O6  1  0.75000000  0.59624800  0.62720200  1
  O  O7  1  0.75000000  0.09624800  0.87279800  1
  O  O8  1  0.47333400  0.67127700  0.30386400  1
  O  O9  1  0.02666600  0.17127700  0.19613600  1
  O  O10  1  0.97333400  0.32872300  0.69613600  1
  O  O11  1  0.52666600  0.82872300  0.80386400  1
  O  O12  1  0.52666600  0.32872300  0.69613600  1
  O  O13  1  0.97333400  0.82872300  0.80386400  1
  O  O14  1  0.02666600  0.67127700  0.30386400  1
  O  O15  1  0.47333400  0.17127700  0.19613600  1
  F  F0  1  0.25000000  0.97787300  0.40948100  1
  F  F1  1  0.25000000  0.47787300  0.09051900  1
  F  F2  1  0.75000000  0.02212700  0.59051900  1
  F  F3  1  0.75000000  0.52212700  0.90948100  1
  F  F4  1  0.45000300  0.73964600  0.47171400  1
  F  F5  1  0.04999700  0.23964600  0.02828600  1
  F  F6  1  0.95000300  0.26035400  0.52828600  1
  F  F7  1  0.54999700  0.76035400  0.97171400  1
  F  F8  1  0.54999700  0.26035400  0.52828600  1
  F  F9  1  0.95000300  0.76035400  0.97171400  1
  F  F10  1  0.04999700  0.73964600  0.47171400  1
  F  F11  1  0.45000300  0.23964600  0.02828600  1
loop_
_geom_bond_atom_site_label_1
_geom_bond_atom_site_label_2
_geom_bond_distance
_geom_bond_site_symmetry_2
Na0 O0 2.340421 1_565
Na0 O8 2.408472 1_555
Na0 O14 2.408472 1_655
Na0 O1 2.429432 1_555
Na0 O9 2.471224 1_665
Na0 O15 2.471224 1_565
Na1 O1 2.340421 1_555
Na1 O15 2.408472 1_555
Na1 O9 2.408472 1_655
Na1 O0 2.429432 1_555
Na1 O8 2.471224 1_555
Na1 O14 2.471224 1_655
Na2 O2 2.340421 1_545
Na2 O10 2.408472 1_455
Na2 O12 2.408472 1_555
Na2 O3 2.429432 1_555
Na2 O11 2.471224 1_545
Na2 O13 2.471224 1_445
Na3 O3 2.340421 1_555
Na3 O13 2.408472 1_455
Na3 O11 2.408472 1_555
Na3 O2 2.429432 1_555
Na3 O12 2.471224 1_555
Na3 O10 2.471224 1_455
H0 O0 0.977434 1_555
H1 O1 0.977434 1_555
H2 O2 0.977434 1_555
H3 O3 0.977434 1_555
H4 O2 0.977434 1_555
H5 O3 0.977434 1_555
H6 O0 0.977434 1_555
H7 O1 0.977434 1_555
C0 F10 1.355709 1_555
C0 F4 1.355709 1_555
C0 F0 1.357364 1_555
C1 F5 1.355709 1_555
C1 F11 1.355709 1_555
C1 F1 1.357364 1_555
C2 F6 1.355709 1_555
C2 F8 1.355709 1_555
C2 F2 1.357364 1_555
C3 F9 1.355709 1_555
C3 F7 1.355709 1_555
C3 F3 1.357364 1_555
O4 S0 1.461050 1_555
O5 S1 1.461050 1_565
O6 S2 1.461050 1_555
O7 S3 1.461050 1_545
O8 S0 1.461086 1_555
O9 S1 1.461086 1_555
O10 S2 1.461086 1_555
O11 S3 1.461086 1_555
O12 S2 1.461086 1_555
O13 S3 1.461086 1_555
O14 S0 1.461086 1_555
O15 S1 1.461086 1_555
