# generated using pymatgen
data_NaLa2RuO6
_symmetry_space_group_name_H-M   'P 1'
_cell_length_a   6.01683200
_cell_length_b   5.63976900
_cell_length_c   9.81770555
_cell_angle_alpha   55.57477901
_cell_angle_beta   90.00000000
_cell_angle_gamma   90.00000000
_symmetry_Int_Tables_number   1
_chemical_formula_structural   NaLa2RuO6
_chemical_formula_sum   'Na2 La4 Ru2 O12'
_cell_volume   274.80329537
_cell_formula_units_Z   2
loop_
 _symmetry_equiv_pos_site_id
 _symmetry_equiv_pos_as_xyz
  1  'x, y, z'
loop_
 _atom_site_type_symbol
 _atom_site_label
 _atom_site_symmetry_multiplicity
 _atom_site_fract_x
 _atom_site_fract_y
 _atom_site_fract_z
 _atom_site_occupancy
  Na  Na0  1  0.00000000  0.00000000  0.00000000  1
  Na  Na1  1  0.50000000  0.00000000  0.50000000  1
  La  La0  1  0.43239200  0.77148300  0.24659200  1
  La  La1  1  0.93239200  0.22851700  0.25340800  1
  La  La2  1  0.56760800  0.22851700  0.75340800  1
  La  La3  1  0.06760800  0.77148300  0.74659200  1
  Ru  Ru0  1  0.50000000  0.50000000  0.00000000  1
  Ru  Ru1  1  0.00000000  0.50000000  0.50000000  1
  O  O0  1  0.72165500  0.73331300  0.43259300  1
  O  O1  1  0.22165500  0.26668700  0.06740700  1
  O  O2  1  0.27834500  0.26668700  0.56740700  1
  O  O3  1  0.77834500  0.73331300  0.93259300  1
  O  O4  1  0.04898900  0.61441300  0.27038300  1
  O  O5  1  0.54898900  0.38558700  0.22961700  1
  O  O6  1  0.95101100  0.38558700  0.72961700  1
  O  O7  1  0.45101100  0.61441300  0.77038300  1
  O  O8  1  0.32659200  0.83976900  0.94914000  1
  O  O9  1  0.82659200  0.16023100  0.55086000  1
  O  O10  1  0.67340800  0.16023100  0.05086000  1
  O  O11  1  0.17340800  0.83976900  0.44914000  1
loop_
_geom_bond_atom_site_label_1
_geom_bond_atom_site_label_2
_geom_bond_distance
_geom_bond_site_symmetry_2
Na0 O4 2.309886 1_545
Na0 O6 2.309886 1_454
Na0 O10 2.331854 1_455
Na0 O8 2.331854 1_544
Na0 O1 2.367317 1_555
Na0 O3 2.367317 1_444
Na1 O5 2.309886 1_555
Na1 O7 2.309886 1_545
Na1 O9 2.331854 1_555
Na1 O11 2.331854 1_545
Na1 O2 2.367317 1_555
Na1 O0 2.367317 1_545
La0 O5 2.380461 1_555
La0 O10 2.416380 1_565
La0 O4 2.434539 1_555
La0 O0 2.442474 1_555
La0 O1 2.635782 1_565
La0 O11 2.719696 1_555
La0 O8 2.794651 1_554
La0 O2 2.957367 1_555
La1 O4 2.380461 1_655
La1 O11 2.416380 1_645
La1 O5 2.434539 1_555
La1 O1 2.442474 1_655
La1 O0 2.635782 1_545
La1 O10 2.719696 1_555
La1 O9 2.794651 1_555
La1 O3 2.957367 1_554
La2 O7 2.380461 1_555
La2 O8 2.416380 1_545
La2 O6 2.434539 1_555
La2 O2 2.442474 1_555
La2 O3 2.635782 1_545
La2 O9 2.719696 1_555
La2 O10 2.794651 1_556
La2 O0 2.957367 1_555
La3 O6 2.380461 1_455
La3 O9 2.416380 1_465
La3 O7 2.434539 1_555
La3 O3 2.442474 1_455
La3 O2 2.635782 1_565
La3 O8 2.719696 1_555
La3 O11 2.794651 1_555
La3 O1 2.957367 1_556
O0 Ru1 1.997398 1_655
O1 Ru0 1.997398 1_555
O2 Ru1 1.997398 1_555
O3 Ru0 1.997398 1_556
O4 Ru1 1.985065 1_555
O5 Ru0 1.985065 1_555
O6 Ru1 1.985065 1_655
O7 Ru0 1.985065 1_556
O8 Ru0 1.981917 1_556
O9 Ru1 1.981917 1_655
O10 Ru0 1.981917 1_555
O11 Ru1 1.981917 1_555
