# generated using pymatgen
data_Ca4GdB3O10
_symmetry_space_group_name_H-M   'P 1'
_cell_length_a   9.05739407
_cell_length_b   9.05739407
_cell_length_c   3.58311286
_cell_angle_alpha   84.95874547
_cell_angle_beta   84.95874547
_cell_angle_gamma   126.51919614
_symmetry_Int_Tables_number   1
_chemical_formula_structural   Ca4GdB3O10
_chemical_formula_sum   'Ca4 Gd1 B3 O10'
_cell_volume   231.68284913
_cell_formula_units_Z   1
loop_
 _symmetry_equiv_pos_site_id
 _symmetry_equiv_pos_as_xyz
  1  'x, y, z'
loop_
 _atom_site_type_symbol
 _atom_site_label
 _atom_site_symmetry_multiplicity
 _atom_site_fract_x
 _atom_site_fract_y
 _atom_site_fract_z
 _atom_site_occupancy
  Ca  Ca0  1  0.44550000  0.08175700  0.34248900  1
  Ca  Ca1  1  0.08175700  0.44550000  0.34248900  1
  Ca  Ca2  1  0.52871300  0.75441200  0.67259700  1
  Ca  Ca3  1  0.75441200  0.52871300  0.67259700  1
  Gd  Gd0  1  0.00112900  0.00112900  0.99789700  1
  B  B0  1  0.14388400  0.75406600  0.91966900  1
  B  B1  1  0.75406600  0.14388400  0.91966900  1
  B  B2  1  0.37527900  0.37527900  0.29881000  1
  O  O0  1  0.20108100  0.20108100  0.39301600  1
  O  O1  1  0.23688300  0.69751400  0.72841400  1
  O  O2  1  0.82813000  0.82813000  0.57823700  1
  O  O3  1  0.53543000  0.38650000  0.25201000  1
  O  O4  1  0.38650000  0.53543000  0.25201000  1
  O  O5  1  0.61942500  0.96424600  0.11690900  1
  O  O6  1  0.96424600  0.61942500  0.11690900  1
  O  O7  1  0.94336300  0.22958600  0.91833200  1
  O  O8  1  0.22958600  0.94336300  0.91833200  1
  O  O9  1  0.69751400  0.23688300  0.72841400  1
loop_
_geom_bond_atom_site_label_1
_geom_bond_atom_site_label_2
_geom_bond_distance
_geom_bond_site_symmetry_2
Ca0 O3 2.346836 1_555
Ca0 O8 2.360443 1_545
Ca0 O8 2.375936 1_544
Ca0 O9 2.485082 1_555
Ca0 O5 2.488111 1_545
Ca0 O9 2.604346 1_554
Ca1 O4 2.346836 1_555
Ca1 O7 2.360443 1_455
Ca1 O7 2.375936 1_454
Ca1 O1 2.485082 1_555
Ca1 O6 2.488111 1_455
Ca1 O1 2.604346 1_554
Ca2 O5 2.332496 1_555
Ca2 O2 2.357711 1_555
Ca2 O1 2.357950 1_555
Ca2 O4 2.380951 1_556
Ca2 O4 2.385356 1_555
Ca2 O5 2.392657 1_556
Ca3 O6 2.332496 1_555
Ca3 O2 2.357711 1_555
Ca3 O9 2.357950 1_555
Ca3 O3 2.380951 1_556
Ca3 O3 2.385356 1_555
Ca3 O6 2.392657 1_556
Gd0 O2 2.253341 1_445
Gd0 O2 2.273110 1_446
Gd0 O0 2.358323 1_556
Gd0 O7 2.418221 1_455
Gd0 O8 2.418221 1_545
Gd0 O0 2.444149 1_555
B0 O1 1.383926 1_555
B0 O6 1.385222 1_456
B0 O8 1.398609 1_555
B1 O9 1.383926 1_555
B1 O5 1.385222 1_546
B1 O7 1.398609 1_555
B2 O3 1.386124 1_555
B2 O4 1.386124 1_555
B2 O0 1.393804 1_555
