# generated using pymatgen
data_HfO2
_symmetry_space_group_name_H-M   'P 1'
_cell_length_a   5.00476369
_cell_length_b   5.03268505
_cell_length_c   5.21946336
_cell_angle_alpha   90.00000000
_cell_angle_beta   90.00000000
_cell_angle_gamma   90.00000000
_symmetry_Int_Tables_number   1
_chemical_formula_structural   HfO2
_chemical_formula_sum   'Hf4 O8'
_cell_volume   131.46470831
_cell_formula_units_Z   4
loop_
 _symmetry_equiv_pos_site_id
 _symmetry_equiv_pos_as_xyz
  1  'x, y, z'
loop_
 _atom_site_type_symbol
 _atom_site_label
 _atom_site_symmetry_multiplicity
 _atom_site_fract_x
 _atom_site_fract_y
 _atom_site_fract_z
 _atom_site_occupancy
  Hf  Hf0  1  0.26747918  0.24144035  0.03300600  1
  Hf  Hf1  1  0.26747918  0.74144035  0.46699400  1
  Hf  Hf2  1  0.73252082  0.24144035  0.53300600  1
  Hf  Hf3  1  0.73252082  0.74144035  0.96699400  1
  O  O0  1  0.07135460  0.37926726  0.36787255  1
  O  O1  1  0.07135460  0.87926726  0.13212745  1
  O  O2  1  0.46011695  0.49229239  0.73394852  1
  O  O3  1  0.46011695  0.99229239  0.76605148  1
  O  O4  1  0.53988305  0.99229239  0.26605148  1
  O  O5  1  0.53988305  0.49229239  0.23394852  1
  O  O6  1  0.92864540  0.37926726  0.86787255  1
  O  O7  1  0.92864540  0.87926726  0.63212745  1
loop_
_geom_bond_atom_site_label_1
_geom_bond_atom_site_label_2
_geom_bond_distance
_geom_bond_site_symmetry_2
Hf0 O6 2.024772 1_454
Hf0 O3 2.107884 1_544
Hf0 O0 2.121197 1_555
Hf0 O5 2.133646 1_555
Hf0 O1 2.133861 1_545
Hf0 O4 2.215946 1_545
Hf0 O2 2.227055 1_554
Hf1 O7 2.024772 1_455
Hf1 O2 2.107884 1_555
Hf1 O1 2.121197 1_555
Hf1 O4 2.133646 1_555
Hf1 O0 2.133861 1_555
Hf1 O5 2.215946 1_555
Hf1 O3 2.227055 1_555
Hf2 O0 2.024772 1_655
Hf2 O4 2.107884 1_545
Hf2 O6 2.121197 1_555
Hf2 O2 2.133646 1_555
Hf2 O7 2.133861 1_545
Hf2 O3 2.215946 1_545
Hf2 O5 2.227055 1_555
Hf3 O1 2.024772 1_656
Hf3 O5 2.107884 1_556
Hf3 O7 2.121197 1_555
Hf3 O3 2.133646 1_555
Hf3 O6 2.133861 1_555
Hf3 O2 2.215946 1_555
Hf3 O4 2.227055 1_556
