# generated using pymatgen
data_Li4MoO5
_symmetry_space_group_name_H-M   'P 1'
_cell_length_a   5.02621612
_cell_length_b   5.02621398
_cell_length_c   5.02622910
_cell_angle_alpha   100.05114784
_cell_angle_beta   100.05115543
_cell_angle_gamma   130.61274179
_symmetry_Int_Tables_number   1
_chemical_formula_structural   Li4MoO5
_chemical_formula_sum   'Li4 Mo1 O5'
_cell_volume   87.57704024
_cell_formula_units_Z   1
loop_
 _symmetry_equiv_pos_site_id
 _symmetry_equiv_pos_as_xyz
  1  'x, y, z'
loop_
 _atom_site_type_symbol
 _atom_site_label
 _atom_site_symmetry_multiplicity
 _atom_site_fract_x
 _atom_site_fract_y
 _atom_site_fract_z
 _atom_site_occupancy
  Li  Li0  1  0.81475820  0.60013565  0.41096098  1
  Li  Li1  1  0.60018724  0.18920066  0.78539220  1
  Li  Li2  1  0.40382426  0.81480062  0.21462882  1
  Li  Li3  1  0.18919426  0.40380416  0.58903401  1
  Mo  Mo0  1  0.04957840  0.04958095  -0.00000310  1
  O  O0  1  0.26031166  0.07432381  0.36327328  1
  O  O1  1  0.07431950  0.71104757  0.81400579  1
  O  O2  1  0.89703546  0.26031602  0.18598693  1
  O  O3  1  0.71104448  0.89704014  0.63672225  1
  O  O4  1  0.48144754  0.48145042  -0.00000116  1
loop_
_geom_bond_atom_site_label_1
_geom_bond_atom_site_label_2
_geom_bond_distance
_geom_bond_site_symmetry_2
Li0 O1 1.962930 1_655
Li0 O0 2.047210 1_665
Li0 O3 2.101068 1_555
Li0 O4 2.118974 1_555
Li0 O0 2.183003 1_555
Li0 O2 2.185312 1_555
Li1 O3 1.962845 1_545
Li1 O1 2.047085 1_655
Li1 O2 2.100919 1_556
Li1 O4 2.119045 1_556
Li1 O1 2.183142 1_545
Li1 O0 2.185463 1_555
Li2 O0 1.962882 1_565
Li2 O2 2.047090 1_565
Li2 O1 2.101075 1_554
Li2 O4 2.119030 1_555
Li2 O2 2.183135 1_455
Li2 O3 2.185322 1_555
Li3 O2 1.962976 1_455
Li3 O3 2.047140 1_555
Li3 O0 2.100987 1_555
Li3 O4 2.118949 1_556
Li3 O3 2.183062 1_445
Li3 O1 2.185395 1_555
Mo0 O4 1.813659 1_555
Mo0 O1 1.882935 1_544
Mo0 O3 1.882944 1_444
Mo0 O0 1.882945 1_555
Mo0 O2 1.882946 1_455
Mo0 O4 2.385905 1_445
