# generated using pymatgen
data_SiO2
_symmetry_space_group_name_H-M   'P 1'
_cell_length_a   7.14179583
_cell_length_b   7.14179583
_cell_length_c   8.82087107
_cell_angle_alpha   90.00000000
_cell_angle_beta   90.00000000
_cell_angle_gamma   90.00000000
_symmetry_Int_Tables_number   1
_chemical_formula_structural   SiO2
_chemical_formula_sum   'Si8 O16'
_cell_volume   449.91071366
_cell_formula_units_Z   8
loop_
 _symmetry_equiv_pos_site_id
 _symmetry_equiv_pos_as_xyz
  1  'x, y, z'
loop_
 _atom_site_type_symbol
 _atom_site_label
 _atom_site_symmetry_multiplicity
 _atom_site_fract_x
 _atom_site_fract_y
 _atom_site_fract_z
 _atom_site_occupancy
  Si  Si0  1  0.78193848  0.50000000  0.18090690  1
  Si  Si1  1  0.50000000  0.78193848  0.68090690  1
  Si  Si2  1  0.50000000  0.21806152  0.68090690  1
  Si  Si3  1  0.78193848  0.50000000  0.81909310  1
  Si  Si4  1  0.21806152  0.50000000  0.81909310  1
  Si  Si5  1  0.21806152  0.50000000  0.18090690  1
  Si  Si6  1  0.50000000  0.78193848  0.31909310  1
  Si  Si7  1  0.50000000  0.21806152  0.31909310  1
  O  O0  1  0.68526456  0.31473544  0.25000000  1
  O  O1  1  0.68526456  0.68526456  0.75000000  1
  O  O2  1  0.31473544  0.31473544  0.75000000  1
  O  O3  1  0.31473544  0.68526456  0.25000000  1
  O  O4  1  0.31473544  0.68526456  0.75000000  1
  O  O5  1  0.31473544  0.31473544  0.25000000  1
  O  O6  1  0.68526456  0.68526456  0.25000000  1
  O  O7  1  0.68526456  0.31473544  0.75000000  1
  O  O8  1  0.75638659  0.50000000  -0.00000000  1
  O  O9  1  0.50000000  0.75638659  0.50000000  1
  O  O10  1  0.50000000  0.24361341  0.50000000  1
  O  O11  1  0.24361341  0.50000000  -0.00000000  1
  O  O12  1  0.00000000  0.50000000  0.22473513  1
  O  O13  1  0.50000000  0.00000000  0.72473513  1
  O  O14  1  0.00000000  0.50000000  0.77526487  1
  O  O15  1  0.50000000  0.00000000  0.27526487  1
loop_
_geom_bond_atom_site_label_1
_geom_bond_atom_site_label_2
_geom_bond_distance
_geom_bond_site_symmetry_2
O0 Si7 1.612074 1_555
O0 Si0 1.612074 1_555
O1 Si1 1.612074 1_555
O1 Si3 1.612074 1_555
O2 Si2 1.612074 1_555
O2 Si4 1.612074 1_555
O3 Si6 1.612074 1_555
O3 Si5 1.612074 1_555
O4 Si1 1.612074 1_555
O4 Si4 1.612074 1_555
O5 Si7 1.612074 1_555
O5 Si5 1.612074 1_555
O6 Si6 1.612074 1_555
O6 Si0 1.612074 1_555
O7 Si3 1.612074 1_555
O7 Si2 1.612074 1_555
O8 Si0 1.606157 1_555
O8 Si3 1.606157 1_554
O9 Si1 1.606157 1_555
O9 Si6 1.606157 1_555
O10 Si2 1.606157 1_555
O10 Si7 1.606157 1_555
O11 Si5 1.606157 1_555
O11 Si4 1.606157 1_554
O12 Si5 1.604619 1_555
O12 Si0 1.604619 1_455
O13 Si2 1.604619 1_555
O13 Si1 1.604619 1_545
O14 Si3 1.604619 1_455
O14 Si4 1.604619 1_555
O15 Si6 1.604619 1_545
O15 Si7 1.604619 1_555
