# generated using pymatgen
data_Cu2Bi4Pb2S9
_symmetry_space_group_name_H-M   'P 1'
_cell_length_a   4.04120900
_cell_length_b   11.84662800
_cell_length_c   33.61324600
_cell_angle_alpha   90.00000000
_cell_angle_beta   90.00000000
_cell_angle_gamma   90.00000000
_symmetry_Int_Tables_number   1
_chemical_formula_structural   Cu2Bi4Pb2S9
_chemical_formula_sum   'Cu8 Bi16 Pb8 S36'
_cell_volume   1609.22405797
_cell_formula_units_Z   4
loop_
 _symmetry_equiv_pos_site_id
 _symmetry_equiv_pos_as_xyz
  1  'x, y, z'
loop_
 _atom_site_type_symbol
 _atom_site_label
 _atom_site_symmetry_multiplicity
 _atom_site_fract_x
 _atom_site_fract_y
 _atom_site_fract_z
 _atom_site_occupancy
  Cu  Cu0  1  0.75000000  0.76759500  0.56806000  1
  Cu  Cu1  1  0.25000000  0.73026000  0.40308200  1
  Cu  Cu2  1  0.75000000  0.26759500  0.93194000  1
  Cu  Cu3  1  0.25000000  0.73240500  0.06806000  1
  Cu  Cu4  1  0.25000000  0.23026000  0.09691800  1
  Cu  Cu5  1  0.25000000  0.23240500  0.43194000  1
  Cu  Cu6  1  0.75000000  0.26974000  0.59691800  1
  Cu  Cu7  1  0.75000000  0.76974000  0.90308200  1
  Bi  Bi0  1  0.75000000  0.97965100  0.39251300  1
  Bi  Bi1  1  0.25000000  0.51454100  0.56345100  1
  Bi  Bi2  1  0.25000000  0.01454100  0.93654900  1
  Bi  Bi3  1  0.75000000  0.98545900  0.06345100  1
  Bi  Bi4  1  0.25000000  0.02034900  0.60748700  1
  Bi  Bi5  1  0.25000000  0.52034900  0.89251300  1
  Bi  Bi6  1  0.25000000  0.01631400  0.27561900  1
  Bi  Bi7  1  0.25000000  0.84663200  0.82068500  1
  Bi  Bi8  1  0.25000000  0.51631400  0.22438100  1
  Bi  Bi9  1  0.25000000  0.34663200  0.67931500  1
  Bi  Bi10  1  0.75000000  0.48368600  0.77561900  1
  Bi  Bi11  1  0.75000000  0.98368600  0.72438100  1
  Bi  Bi12  1  0.75000000  0.47965100  0.10748700  1
  Bi  Bi13  1  0.75000000  0.48545900  0.43654900  1
  Bi  Bi14  1  0.75000000  0.65336800  0.32068500  1
  Bi  Bi15  1  0.75000000  0.15336800  0.17931500  1
  Pb  Pb0  1  0.75000000  0.67395100  0.66562800  1
  Pb  Pb1  1  0.75000000  0.66956500  0.99753000  1
  Pb  Pb2  1  0.25000000  0.83043500  0.49753000  1
  Pb  Pb3  1  0.25000000  0.32604900  0.33437200  1
  Pb  Pb4  1  0.25000000  0.33043500  0.00247000  1
  Pb  Pb5  1  0.25000000  0.82604900  0.16562800  1
  Pb  Pb6  1  0.75000000  0.17395100  0.83437200  1
  Pb  Pb7  1  0.75000000  0.16956500  0.50247000  1
  S  S0  1  0.75000000  0.27948300  0.06653300  1
  S  S1  1  0.25000000  0.04780000  0.12408400  1
  S  S2  1  0.75000000  0.78563700  0.10050100  1
  S  S3  1  0.25000000  0.21436300  0.89949900  1
  S  S4  1  0.25000000  0.21117200  0.23138700  1
  S  S5  1  0.25000000  0.37199400  0.14924400  1
  S  S6  1  0.25000000  0.54533000  0.04885700  1
  S  S7  1  0.75000000  0.61809500  0.52057600  1
  S  S8  1  0.75000000  0.95220000  0.87591600  1
  S  S9  1  0.75000000  0.45220000  0.62408400  1
  S  S10  1  0.75000000  0.95467000  0.54885700  1
  S  S11  1  0.25000000  0.54780000  0.37591600  1
  S  S12  1  0.75000000  0.62800600  0.85075600  1
  S  S13  1  0.25000000  0.22051700  0.56653300  1
  S  S14  1  0.75000000  0.11809500  0.97942400  1
  S  S15  1  0.75000000  0.12800600  0.64924400  1
  S  S16  1  0.25000000  0.38113400  0.81701400  1
  S  S17  1  0.25000000  0.04533000  0.45114300  1
  S  S18  1  0.75000000  0.45467000  0.95114300  1
  S  S19  1  0.25000000  0.04594200  0.78641800  1
  S  S20  1  0.75000000  0.11886600  0.31701400  1
  S  S21  1  0.25000000  0.54594200  0.71358200  1
  S  S22  1  0.75000000  0.77948300  0.43346700  1
  S  S23  1  0.75000000  0.61886600  0.18298600  1
  S  S24  1  0.25000000  0.87199400  0.35075600  1
  S  S25  1  0.25000000  0.38190500  0.47942400  1
  S  S26  1  0.75000000  0.78882800  0.76861300  1
  S  S27  1  0.25000000  0.88190500  0.02057600  1
  S  S28  1  0.25000000  0.71436300  0.60050100  1
  S  S29  1  0.75000000  0.45405800  0.28641800  1
  S  S30  1  0.75000000  0.28563700  0.39949900  1
  S  S31  1  0.25000000  0.71117200  0.26861300  1
  S  S32  1  0.75000000  0.28882800  0.73138700  1
  S  S33  1  0.75000000  0.95405800  0.21358200  1
  S  S34  1  0.25000000  0.72051700  0.93346700  1
  S  S35  1  0.25000000  0.88113400  0.68298600  1
loop_
_geom_bond_atom_site_label_1
_geom_bond_atom_site_label_2
_geom_bond_distance
_geom_bond_site_symmetry_2
Cu0 S10 2.308293 1_555
Cu0 S28 2.381092 1_555
Cu0 S28 2.381092 1_655
Cu0 S7 2.384156 1_555
Cu0 Pb2 3.202726 1_555
Cu0 Pb2 3.202726 1_655
Cu1 S22 2.337950 1_555
Cu1 S22 2.337950 1_455
Cu1 S11 2.346499 1_555
Cu1 S24 2.431629 1_555
Cu2 S18 2.308293 1_555
Cu2 S3 2.381092 1_555
Cu2 S3 2.381092 1_655
Cu2 S14 2.384156 1_555
Cu2 Pb4 3.202726 1_656
Cu2 Pb4 3.202726 1_556
Cu3 S6 2.308293 1_555
Cu3 S2 2.381092 1_455
Cu3 S2 2.381092 1_555
Cu3 S27 2.384156 1_555
Cu3 Pb1 3.202726 1_554
Cu3 Pb1 3.202726 1_454
Cu4 S0 2.337950 1_455
Cu4 S0 2.337950 1_555
Cu4 S1 2.346499 1_555
Cu4 S5 2.431629 1_555
Cu5 S17 2.308293 1_555
Cu5 S30 2.381092 1_455
Cu5 S30 2.381092 1_555
Cu5 S25 2.384156 1_555
Cu5 Pb7 3.202726 1_455
Cu5 Pb7 3.202726 1_555
Cu6 S13 2.337950 1_555
Cu6 S13 2.337950 1_655
Cu6 S9 2.346499 1_555
Cu6 S15 2.431629 1_555
Cu7 S34 2.337950 1_655
Cu7 S34 2.337950 1_555
Cu7 S8 2.346499 1_555
Cu7 S12 2.431629 1_555
Bi0 S22 2.741926 1_555
Bi0 S24 2.771187 1_555
Bi0 S24 2.771187 1_655
Bi0 S17 2.927811 1_665
Bi0 S17 2.927811 1_565
Bi0 S20 3.026584 1_565
Bi1 S28 2.674820 1_555
Bi1 S7 2.768531 1_455
Bi1 S7 2.768531 1_555
Bi1 S9 2.963445 1_555
Bi1 S9 2.963445 1_455
Bi1 S25 3.232074 1_555
Bi2 S3 2.674820 1_555
Bi2 S14 2.768531 1_455
Bi2 S14 2.768531 1_555
Bi2 S8 2.963445 1_445
Bi2 S8 2.963445 1_545
Bi2 S27 3.232074 1_546
Bi3 S2 2.674820 1_555
Bi3 S27 2.768531 1_555
Bi3 S27 2.768531 1_655
Bi3 S1 2.963445 1_565
Bi3 S1 2.963445 1_665
Bi3 S14 3.232074 1_564
Bi4 S13 2.741926 1_555
Bi4 S15 2.771187 1_455
Bi4 S15 2.771187 1_555
Bi4 S10 2.927811 1_545
Bi4 S10 2.927811 1_445
Bi4 S35 3.026584 1_545
Bi5 S34 2.741926 1_555
Bi5 S12 2.771187 1_455
Bi5 S12 2.771187 1_555
Bi5 S18 2.927811 1_555
Bi5 S18 2.927811 1_455
Bi5 S16 3.026584 1_555
Bi6 S20 2.737675 1_455
Bi6 S20 2.737675 1_555
Bi6 S4 2.745774 1_555
Bi6 S33 2.995849 1_545
Bi6 S33 2.995849 1_445
Bi6 S24 3.049875 1_545
Bi7 S19 2.627116 1_565
Bi7 S26 2.759593 1_555
Bi7 S26 2.759593 1_455
Bi7 S8 3.015538 1_455
Bi7 S8 3.015538 1_555
Bi8 S23 2.737675 1_555
Bi8 S23 2.737675 1_455
Bi8 S31 2.745774 1_555
Bi8 S29 2.995849 1_455
Bi8 S29 2.995849 1_555
Bi8 S5 3.049875 1_555
Bi9 S21 2.627116 1_555
Bi9 S32 2.759593 1_455
Bi9 S32 2.759593 1_555
Bi9 S9 3.015538 1_555
Bi9 S9 3.015538 1_455
Bi10 S16 2.737675 1_555
Bi10 S16 2.737675 1_655
Bi10 S32 2.745774 1_555
Bi10 S21 2.995849 1_555
Bi10 S21 2.995849 1_655
Bi10 S12 3.049875 1_555
Bi11 S35 2.737675 1_555
Bi11 S35 2.737675 1_655
Bi11 S26 2.745774 1_555
Bi11 S19 2.995849 1_565
Bi11 S19 2.995849 1_665
Bi11 S15 3.049875 1_565
Bi12 S0 2.741926 1_555
Bi12 S5 2.771187 1_655
Bi12 S5 2.771187 1_555
Bi12 S6 2.927811 1_655
Bi12 S6 2.927811 1_555
Bi12 S23 3.026584 1_555
Bi13 S30 2.674820 1_555
Bi13 S25 2.768531 1_555
Bi13 S25 2.768531 1_655
Bi13 S11 2.963445 1_655
Bi13 S11 2.963445 1_555
Bi13 S7 3.232074 1_555
Bi14 S29 2.627116 1_555
Bi14 S31 2.759593 1_655
Bi14 S31 2.759593 1_555
Bi14 S11 3.015538 1_655
Bi14 S11 3.015538 1_555
Bi15 S33 2.627116 1_545
Bi15 S4 2.759593 1_555
Bi15 S4 2.759593 1_655
Bi15 S1 3.015538 1_655
Bi15 S1 3.015538 1_555
Pb0 S9 2.975088 1_555
Pb0 S21 2.996786 1_555
Pb0 S21 2.996786 1_655
Pb0 S28 3.017338 1_655
Pb0 S28 3.017338 1_555
Pb1 S18 2.985324 1_555
Pb1 S34 3.013996 1_555
Pb1 S34 3.013996 1_655
Pb1 S6 3.037348 1_556
Pb1 S6 3.037348 1_656
Pb2 S17 2.985324 1_565
Pb2 S22 3.013996 1_555
Pb2 S22 3.013996 1_455
Pb2 S10 3.037348 1_555
Pb2 S10 3.037348 1_455
Pb3 S11 2.975088 1_555
Pb3 S29 2.996786 1_455
Pb3 S29 2.996786 1_555
Pb3 S30 3.017338 1_455
Pb3 S30 3.017338 1_555
Pb4 S6 2.985324 1_555
Pb4 S0 3.013996 1_555
Pb4 S0 3.013996 1_455
Pb4 S18 3.037348 1_554
Pb4 S18 3.037348 1_454
Pb5 S1 2.975088 1_565
Pb5 S33 2.996786 1_455
Pb5 S33 2.996786 1_555
Pb5 S2 3.017338 1_455
Pb5 S2 3.017338 1_555
Pb6 S8 2.975088 1_545
Pb6 S19 2.996786 1_555
Pb6 S19 2.996786 1_655
Pb6 S3 3.017338 1_655
Pb6 S3 3.017338 1_555
Pb7 S10 2.985324 1_545
Pb7 S13 3.013996 1_655
Pb7 S13 3.013996 1_555
Pb7 S17 3.037348 1_655
Pb7 S17 3.037348 1_555
