# generated using pymatgen
data_SiO2
_symmetry_space_group_name_H-M   'P 1'
_cell_length_a   11.40781991
_cell_length_b   11.40781991
_cell_length_c   9.71571105
_cell_angle_alpha   90.00000000
_cell_angle_beta   90.00000000
_cell_angle_gamma   105.67593475
_symmetry_Int_Tables_number   1
_chemical_formula_structural   SiO2
_chemical_formula_sum   'Si24 O48'
_cell_volume   1217.35819487
_cell_formula_units_Z   24
loop_
 _symmetry_equiv_pos_site_id
 _symmetry_equiv_pos_as_xyz
  1  'x, y, z'
loop_
 _atom_site_type_symbol
 _atom_site_label
 _atom_site_symmetry_multiplicity
 _atom_site_fract_x
 _atom_site_fract_y
 _atom_site_fract_z
 _atom_site_occupancy
  Si  Si0  1  0.48395770  0.65660044  0.37166388  1
  Si  Si1  1  0.34339956  0.51604230  0.62833612  1
  Si  Si2  1  0.15660044  0.98395770  0.12833612  1
  Si  Si3  1  0.01604230  0.84339956  0.87166388  1
  Si  Si4  1  0.51604230  0.34339956  0.62833612  1
  Si  Si5  1  0.65660044  0.48395770  0.37166388  1
  Si  Si6  1  0.84339956  0.01604230  0.87166388  1
  Si  Si7  1  0.98395770  0.15660044  0.12833612  1
  Si  Si8  1  0.35633777  0.71323007  0.84228595  1
  Si  Si9  1  0.28676993  0.64366223  0.15771405  1
  Si  Si10  1  0.21323007  0.85633777  0.65771405  1
  Si  Si11  1  0.14366223  0.78676993  0.34228595  1
  Si  Si12  1  0.64366223  0.28676993  0.15771405  1
  Si  Si13  1  0.71323007  0.35633777  0.84228595  1
  Si  Si14  1  0.78676993  0.14366223  0.34228595  1
  Si  Si15  1  0.85633777  0.21323007  0.65771405  1
  Si  Si16  1  0.44092929  0.04669133  0.13010811  1
  Si  Si17  1  0.95330867  0.55907071  0.86989189  1
  Si  Si18  1  0.54669133  0.94092929  0.36989189  1
  Si  Si19  1  0.05907071  0.45330867  0.63010811  1
  Si  Si20  1  0.55907071  0.95330867  0.86989189  1
  Si  Si21  1  0.04669133  0.44092929  0.13010811  1
  Si  Si22  1  0.45330867  0.05907071  0.63010811  1
  Si  Si23  1  0.94092929  0.54669133  0.36989189  1
  O  O0  1  0.41119628  0.63023246  0.22692102  1
  O  O1  1  0.36976754  0.58880272  0.77307898  1
  O  O2  1  0.13023246  0.91119728  0.27307898  1
  O  O3  1  0.08880272  0.86976754  0.72692102  1
  O  O4  1  0.58880372  0.36976754  0.77307898  1
  O  O5  1  0.63023246  0.41119728  0.22692102  1
  O  O6  1  0.86976754  0.08880272  0.72692102  1
  O  O7  1  0.91119628  0.13023246  0.27307898  1
  O  O8  1  0.39506375  0.60493625  0.50000000  1
  O  O9  1  0.10493625  0.89506375  -0.00000000  1
  O  O10  1  0.60493625  0.39506375  0.50000000  1
  O  O11  1  0.89506375  0.10493625  -0.00000000  1
  O  O12  1  0.59379323  0.59379323  0.36711947  1
  O  O13  1  0.40620677  0.40620677  0.63288053  1
  O  O14  1  0.09379323  0.09379323  0.13288053  1
  O  O15  1  0.90620677  0.90620677  0.86711947  1
  O  O16  1  0.54025003  0.80051662  0.39394240  1
  O  O17  1  0.19948338  0.45974997  0.60605760  1
  O  O18  1  0.30051662  0.04025003  0.10605760  1
  O  O19  1  0.95974997  0.69948338  0.89394240  1
  O  O20  1  0.45974997  0.19948338  0.60605760  1
  O  O21  1  0.80051662  0.54025003  0.39394240  1
  O  O22  1  0.69948338  0.95974997  0.89394240  1
  O  O23  1  0.04025003  0.30051662  0.10605760  1
  O  O24  1  0.48685279  0.81377671  0.83682887  1
  O  O25  1  0.18622329  0.51314721  0.16317113  1
  O  O26  1  0.31377671  0.98685279  0.66317113  1
  O  O27  1  0.01314721  0.68622329  0.33682887  1
  O  O28  1  0.51314721  0.18622329  0.16317113  1
  O  O29  1  0.81377671  0.48685279  0.83682887  1
  O  O30  1  0.68622329  0.01314721  0.33682887  1
  O  O31  1  0.98685279  0.31377671  0.66317113  1
  O  O32  1  0.26061061  0.76061061  0.75000000  1
  O  O33  1  0.23938939  0.73938939  0.25000000  1
  O  O34  1  0.73938939  0.23938939  0.25000000  1
  O  O35  1  0.76061061  0.26061061  0.75000000  1
  O  O36  1  0.31006192  0.68993808  -0.00000000  1
  O  O37  1  0.18993808  0.81006192  0.50000000  1
  O  O38  1  0.68993808  0.31006192  -0.00000000  1
  O  O39  1  0.81006192  0.18993808  0.50000000  1
  O  O40  1  0.50000000  0.00000000  -0.00000000  1
  O  O41  1  0.00000000  0.50000000  -0.00000000  1
  O  O42  1  0.50000000  0.00000000  0.50000000  1
  O  O43  1  0.00000000  0.50000000  0.50000000  1
  O  O44  1  0.45401199  0.95401199  0.25000000  1
  O  O45  1  0.04598801  0.54598801  0.75000000  1
  O  O46  1  0.54598801  0.04598801  0.75000000  1
  O  O47  1  0.95401199  0.45401199  0.25000000  1
loop_
_geom_bond_atom_site_label_1
_geom_bond_atom_site_label_2
_geom_bond_distance
_geom_bond_site_symmetry_2
O0 Si9 1.614897 1_555
O0 Si0 1.619309 1_555
O1 Si8 1.614908 1_555
O1 Si1 1.619303 1_555
O2 Si11 1.614908 1_555
O2 Si2 1.619303 1_555
O3 Si10 1.614908 1_555
O3 Si3 1.619303 1_555
O4 Si13 1.614897 1_555
O4 Si4 1.619309 1_555
O5 Si12 1.614908 1_555
O5 Si5 1.619303 1_555
O6 Si15 1.614908 1_555
O6 Si6 1.619303 1_555
O7 Si14 1.614897 1_555
O7 Si7 1.619309 1_555
O8 Si0 1.614762 1_555
O8 Si1 1.614762 1_555
O9 Si2 1.614762 1_555
O9 Si3 1.614762 1_554
O10 Si5 1.614762 1_555
O10 Si4 1.614762 1_555
O11 Si7 1.614762 1_555
O11 Si6 1.614762 1_554
O12 Si5 1.603253 1_555
O12 Si0 1.603253 1_555
O13 Si4 1.603253 1_555
O13 Si1 1.603253 1_555
O14 Si2 1.603253 1_545
O14 Si7 1.603253 1_455
O15 Si3 1.603253 1_655
O15 Si6 1.603253 1_565
O16 Si18 1.600677 1_555
O16 Si0 1.607766 1_555
O17 Si19 1.600677 1_555
O17 Si1 1.607766 1_555
O18 Si16 1.600677 1_555
O18 Si2 1.607766 1_545
O19 Si17 1.600677 1_555
O19 Si3 1.607766 1_655
O20 Si22 1.600677 1_555
O20 Si4 1.607766 1_555
O21 Si23 1.600677 1_555
O21 Si5 1.607766 1_555
O22 Si20 1.600677 1_555
O22 Si6 1.607766 1_565
O23 Si21 1.600677 1_555
O23 Si7 1.607766 1_455
O24 Si20 1.614605 1_555
O24 Si8 1.616288 1_555
O25 Si21 1.614605 1_555
O25 Si9 1.616288 1_555
O26 Si22 1.614605 1_565
O26 Si10 1.616288 1_555
O27 Si23 1.614605 1_455
O27 Si11 1.616288 1_555
O28 Si16 1.614605 1_555
O28 Si12 1.616288 1_555
O29 Si17 1.614605 1_555
O29 Si13 1.616288 1_555
O30 Si18 1.614605 1_545
O30 Si14 1.616288 1_555
O31 Si19 1.614605 1_655
O31 Si15 1.616288 1_555
O32 Si8 1.614807 1_555
O32 Si10 1.614807 1_555
O33 Si9 1.614807 1_555
O33 Si11 1.614807 1_555
O34 Si14 1.614807 1_555
O34 Si12 1.614807 1_555
O35 Si13 1.614807 1_555
O35 Si15 1.614807 1_555
O36 Si8 1.619087 1_554
O36 Si9 1.619087 1_555
O37 Si11 1.619087 1_555
O37 Si10 1.619087 1_555
O38 Si13 1.619087 1_554
O38 Si12 1.619087 1_555
O39 Si14 1.619087 1_555
O39 Si15 1.619087 1_555
O40 Si16 1.590505 1_555
O40 Si20 1.590505 1_544
O41 Si21 1.590505 1_555
O41 Si17 1.590505 1_454
O42 Si22 1.590505 1_555
O42 Si18 1.590505 1_545
O43 Si19 1.590505 1_555
O43 Si23 1.590505 1_455
O44 Si18 1.606923 1_555
O44 Si16 1.606923 1_565
O45 Si19 1.606923 1_555
O45 Si17 1.606923 1_455
O46 Si22 1.606923 1_555
O46 Si20 1.606923 1_545
O47 Si21 1.606923 1_655
O47 Si23 1.606923 1_555
