# generated using pymatgen
data_Li4H3ClO3
_symmetry_space_group_name_H-M   'P 1'
_cell_length_a   7.55249000
_cell_length_b   5.51162400
_cell_length_c   6.33844542
_cell_angle_alpha   85.61741920
_cell_angle_beta   90.00000000
_cell_angle_gamma   90.00000000
_symmetry_Int_Tables_number   1
_chemical_formula_structural   Li4H3ClO3
_chemical_formula_sum   'Li8 H6 Cl2 O6'
_cell_volume   263.07572298
_cell_formula_units_Z   2
loop_
 _symmetry_equiv_pos_site_id
 _symmetry_equiv_pos_as_xyz
  1  'x, y, z'
loop_
 _atom_site_type_symbol
 _atom_site_label
 _atom_site_symmetry_multiplicity
 _atom_site_fract_x
 _atom_site_fract_y
 _atom_site_fract_z
 _atom_site_occupancy
  Li  Li0  1  0.75000000  0.92809800  0.91775800  1
  Li  Li1  1  0.25000000  0.07190200  0.08224200  1
  Li  Li2  1  0.75000000  0.60951100  0.66831000  1
  Li  Li3  1  0.25000000  0.39048900  0.33169000  1
  Li  Li4  1  0.51545800  0.35331500  0.85685500  1
  Li  Li5  1  0.01545800  0.64668500  0.14314500  1
  Li  Li6  1  0.48454200  0.64668500  0.14314500  1
  Li  Li7  1  0.98454200  0.35331500  0.85685500  1
  H  H0  1  0.75000000  0.17856300  0.61899700  1
  H  H1  1  0.25000000  0.82143700  0.38100300  1
  H  H2  1  0.53584400  0.19172500  0.22836600  1
  H  H3  1  0.03584400  0.80827500  0.77163400  1
  H  H4  1  0.46415600  0.80827500  0.77163400  1
  H  H5  1  0.96415600  0.19172500  0.22836600  1
  Cl  Cl0  1  0.75000000  0.82184700  0.31755700  1
  Cl  Cl1  1  0.25000000  0.17815300  0.68244300  1
  O  O0  1  0.75000000  0.25165800  0.75405100  1
  O  O1  1  0.25000000  0.74834200  0.24594900  1
  O  O2  1  0.55486000  0.71063200  0.84703800  1
  O  O3  1  0.05486000  0.28936800  0.15296200  1
  O  O4  1  0.44514000  0.28936800  0.15296200  1
  O  O5  1  0.94514000  0.71063200  0.84703800  1
loop_
_geom_bond_atom_site_label_1
_geom_bond_atom_site_label_2
_geom_bond_distance
_geom_bond_site_symmetry_2
Li0 O5 1.972747 1_555
Li0 O2 1.972747 1_555
Li0 O0 1.993541 1_565
Li1 O4 1.972747 1_555
Li1 O3 1.972747 1_555
Li1 O1 1.993541 1_545
Li2 O5 1.965339 1_555
Li2 O2 1.965339 1_555
Li2 O0 2.005418 1_555
Li3 O4 1.965339 1_555
Li3 O3 1.965339 1_555
Li3 O1 2.005418 1_555
Li4 O4 1.956467 1_556
Li4 O0 1.982954 1_555
Li4 O2 1.988020 1_555
Li5 O5 1.956467 1_454
Li5 O1 1.982954 1_555
Li5 O3 1.988020 1_555
Li6 O2 1.956467 1_554
Li6 O1 1.982954 1_555
Li6 O4 1.988020 1_555
Li7 O3 1.956467 1_656
Li7 O0 1.982954 1_555
Li7 O5 1.988020 1_555
H0 O0 0.973553 1_555
H1 O1 0.973553 1_555
H2 O4 0.973668 1_555
H3 O5 0.973668 1_455
H4 O2 0.973668 1_555
H5 O3 0.973668 1_655
Cl0 Li2 2.432023 1_555
Cl0 Li5 2.517299 1_655
Cl0 Li6 2.517299 1_555
Cl0 Li0 2.556917 1_554
Cl1 Li3 2.432023 1_555
Cl1 Li4 2.517299 1_555
Cl1 Li7 2.517299 1_455
Cl1 Li1 2.556917 1_556
