# generated using pymatgen
data_MgSiO3
_symmetry_space_group_name_H-M   'P 1'
_cell_length_a   4.87025800
_cell_length_b   10.13271800
_cell_length_c   10.95624600
_cell_angle_alpha   90.00000000
_cell_angle_beta   90.00000000
_cell_angle_gamma   90.00000000
_symmetry_Int_Tables_number   1
_chemical_formula_structural   MgSiO3
_chemical_formula_sum   'Mg8 Si8 O24'
_cell_volume   540.67924592
_cell_formula_units_Z   8
loop_
 _symmetry_equiv_pos_site_id
 _symmetry_equiv_pos_as_xyz
  1  'x, y, z'
loop_
 _atom_site_type_symbol
 _atom_site_label
 _atom_site_symmetry_multiplicity
 _atom_site_fract_x
 _atom_site_fract_y
 _atom_site_fract_z
 _atom_site_occupancy
  Mg  Mg0  1  0.28714500  0.97336300  0.46563400  1
  Mg  Mg1  1  0.65133900  0.25592800  0.02678300  1
  Mg  Mg2  1  0.84866100  0.75592800  0.52678300  1
  Mg  Mg3  1  0.15133900  0.25592800  0.47321700  1
  Mg  Mg4  1  0.71285500  0.47336300  0.53436600  1
  Mg  Mg5  1  0.21285500  0.47336300  0.96563400  1
  Mg  Mg6  1  0.78714500  0.97336300  0.03436600  1
  Mg  Mg7  1  0.34866100  0.75592800  0.97321700  1
  Si  Si0  1  0.57079100  0.25902200  0.32871000  1
  Si  Si1  1  0.07079100  0.25902200  0.17129000  1
  Si  Si2  1  0.89212600  0.17617400  0.66728000  1
  Si  Si3  1  0.39212600  0.17617400  0.83272000  1
  Si  Si4  1  0.60787400  0.67617400  0.16728000  1
  Si  Si5  1  0.42920900  0.75902200  0.67129000  1
  Si  Si6  1  0.92920900  0.75902200  0.82871000  1
  Si  Si7  1  0.10787400  0.67617400  0.33272000  1
  O  O0  1  0.41269900  0.27800100  0.19020300  1
  O  O1  1  0.47016900  0.37107100  0.42435600  1
  O  O2  1  0.92515700  0.32658300  0.61023800  1
  O  O3  1  0.43152000  0.65224800  0.29496400  1
  O  O4  1  0.58730100  0.77800100  0.80979700  1
  O  O5  1  0.93152000  0.65224800  0.20503600  1
  O  O6  1  0.93940900  0.12500200  0.12042700  1
  O  O7  1  0.43940900  0.12500200  0.37957300  1
  O  O8  1  0.97016900  0.37107100  0.07564400  1
  O  O9  1  0.56848000  0.15224800  0.70503600  1
  O  O10  1  0.02983100  0.87107100  0.92435600  1
  O  O11  1  0.08730100  0.77800100  0.69020300  1
  O  O12  1  0.42515700  0.32658300  0.88976200  1
  O  O13  1  0.06059100  0.62500200  0.87957300  1
  O  O14  1  0.98250700  0.58670800  0.44382600  1
  O  O15  1  0.01749300  0.08670800  0.55617400  1
  O  O16  1  0.56059100  0.62500200  0.62042700  1
  O  O17  1  0.57484300  0.82658300  0.11023800  1
  O  O18  1  0.52983100  0.87107100  0.57564400  1
  O  O19  1  0.06848000  0.15224800  0.79496400  1
  O  O20  1  0.51749300  0.08670800  0.94382600  1
  O  O21  1  0.91269900  0.27800100  0.30979700  1
  O  O22  1  0.07484300  0.82658300  0.38976200  1
  O  O23  1  0.48250700  0.58670800  0.05617400  1
loop_
_geom_bond_atom_site_label_1
_geom_bond_atom_site_label_2
_geom_bond_distance
_geom_bond_site_symmetry_2
Mg0 O7 1.949325 1_565
Mg0 O18 1.980923 1_555
Mg0 O22 1.993013 1_555
Mg0 O15 2.006925 1_565
Mg1 O12 1.994920 1_554
Mg1 O8 2.014680 1_555
Mg1 O20 2.047212 1_554
Mg1 O0 2.146300 1_555
Mg1 O6 2.186539 1_555
Mg2 O22 1.994920 1_655
Mg2 O18 2.014680 1_555
Mg2 O14 2.047212 1_555
Mg2 O11 2.146300 1_655
Mg2 O16 2.186539 1_555
Mg3 O2 1.994920 1_455
Mg3 O1 2.014680 1_555
Mg3 O15 2.047212 1_555
Mg3 O21 2.146300 1_455
Mg3 O7 2.186539 1_555
Mg4 O16 1.949325 1_555
Mg4 O1 1.980923 1_555
Mg4 O2 1.993013 1_555
Mg4 O14 2.006925 1_555
Mg5 O13 1.949325 1_555
Mg5 O8 1.980923 1_456
Mg5 O12 1.993013 1_555
Mg5 O23 2.006925 1_556
Mg6 O6 1.949325 1_565
Mg6 O10 1.980923 1_654
Mg6 O17 1.993013 1_555
Mg6 O20 2.006925 1_564
Mg7 O17 1.994920 1_556
Mg7 O10 2.014680 1_555
Mg7 O23 2.047212 1_556
Mg7 O4 2.146300 1_555
Mg7 O13 2.186539 1_555
O0 Si1 1.689007 1_555
O0 Si0 1.712501 1_555
O1 Si0 1.620906 1_555
O2 Si2 1.655052 1_555
O3 Si7 1.647551 1_555
O3 Si4 1.659365 1_555
O4 Si6 1.689007 1_555
O4 Si5 1.712501 1_555
O5 Si4 1.647551 1_555
O5 Si7 1.659365 1_655
O6 Si1 1.601281 1_655
O7 Si0 1.601281 1_555
O8 Si1 1.620906 1_655
O9 Si2 1.647551 1_555
O9 Si3 1.659365 1_555
O10 Si6 1.620906 1_455
O11 Si5 1.689007 1_555
O11 Si6 1.712501 1_455
O12 Si3 1.655052 1_555
O13 Si6 1.601281 1_455
O14 Si7 1.635980 1_655
O15 Si2 1.635980 1_455
O16 Si5 1.601281 1_555
O17 Si4 1.655052 1_555
O18 Si5 1.620906 1_555
O19 Si3 1.647551 1_555
O19 Si2 1.659365 1_455
O20 Si3 1.635980 1_555
O21 Si0 1.689007 1_555
O21 Si1 1.712501 1_655
O22 Si7 1.655052 1_555
O23 Si4 1.635980 1_555
