# generated using pymatgen
data_C(ClF)2
_symmetry_space_group_name_H-M   'P 1'
_cell_length_a   9.56726126
_cell_length_b   8.40025646
_cell_length_c   5.94042902
_cell_angle_alpha   81.75021434
_cell_angle_beta   60.33513640
_cell_angle_gamma   37.91464926
_symmetry_Int_Tables_number   1
_chemical_formula_structural   C(ClF)2
_chemical_formula_sum   'C2 Cl4 F4'
_cell_volume   226.00896447
_cell_formula_units_Z   2
loop_
 _symmetry_equiv_pos_site_id
 _symmetry_equiv_pos_as_xyz
  1  'x, y, z'
loop_
 _atom_site_type_symbol
 _atom_site_label
 _atom_site_symmetry_multiplicity
 _atom_site_fract_x
 _atom_site_fract_y
 _atom_site_fract_z
 _atom_site_occupancy
  C  C0  1  0.99633800  0.00939200  0.00482600  1
  C  C1  1  0.24134800  0.25401900  0.26267700  1
  Cl  Cl0  1  0.91289600  0.01568800  0.33935100  1
  Cl  Cl1  1  0.71194500  0.35981500  0.02885900  1
  Cl  Cl2  1  0.90161700  0.52849600  0.33546400  1
  Cl  Cl3  1  0.21589300  0.35174400  0.53781000  1
  F  F0  1  0.25984300  0.86895100  0.82751800  1
  F  F1  1  0.03812600  0.83818400  0.87633300  1
  F  F2  1  0.41688700  0.21474300  0.00116200  1
  F  F3  1  0.37292600  0.99796400  0.21432300  1
loop_
_geom_bond_atom_site_label_1
_geom_bond_atom_site_label_2
_geom_bond_distance
_geom_bond_site_symmetry_2
C0 F0 1.375559 1_644
C0 F1 1.384410 1_644
C0 Cl0 1.726954 1_555
C0 Cl1 1.785268 1_555
C1 F3 1.356740 1_545
C1 F2 1.425836 1_555
C1 Cl3 1.755021 1_555
C1 Cl2 1.771400 1_455
