# generated using pymatgen
data_Fe4Te2(CO)11
_symmetry_space_group_name_H-M   'P 1'
_cell_length_a   6.90570300
_cell_length_b   15.90082000
_cell_length_c   17.49653000
_cell_angle_alpha   90.00000000
_cell_angle_beta   90.00000000
_cell_angle_gamma   90.00000000
_symmetry_Int_Tables_number   1
_chemical_formula_structural   Fe4Te2(CO)11
_chemical_formula_sum   'Fe16 Te8 C44 O44'
_cell_volume   1921.22992859
_cell_formula_units_Z   4
loop_
 _symmetry_equiv_pos_site_id
 _symmetry_equiv_pos_as_xyz
  1  'x, y, z'
loop_
 _atom_site_type_symbol
 _atom_site_label
 _atom_site_symmetry_multiplicity
 _atom_site_fract_x
 _atom_site_fract_y
 _atom_site_fract_z
 _atom_site_occupancy
  Fe  Fe0  1  0.18151700  0.32504900  0.15457700  1
  Fe  Fe1  1  0.32566200  0.33412700  0.80867400  1
  Fe  Fe2  1  0.17433800  0.16587300  0.80867400  1
  Fe  Fe3  1  0.31848300  0.32504900  0.65457700  1
  Fe  Fe4  1  0.18151700  0.17495100  0.65457700  1
  Fe  Fe5  1  0.82566200  0.83412700  0.19132600  1
  Fe  Fe6  1  0.81848300  0.67495100  0.84542300  1
  Fe  Fe7  1  0.17433800  0.33412700  0.30867400  1
  Fe  Fe8  1  0.81848300  0.82504900  0.34542300  1
  Fe  Fe9  1  0.31848300  0.17495100  0.15457700  1
  Fe  Fe10  1  0.67433800  0.66587300  0.19132600  1
  Fe  Fe11  1  0.82566200  0.66587300  0.69132600  1
  Fe  Fe12  1  0.32566200  0.16587300  0.30867400  1
  Fe  Fe13  1  0.68151700  0.82504900  0.84542300  1
  Fe  Fe14  1  0.68151700  0.67495100  0.34542300  1
  Fe  Fe15  1  0.67433800  0.83412700  0.69132600  1
  Te  Te0  1  0.48904100  0.20920100  0.73897600  1
  Te  Te1  1  0.51095900  0.70920100  0.76102400  1
  Te  Te2  1  0.48904100  0.29079900  0.23897600  1
  Te  Te3  1  0.01095900  0.20920100  0.23897600  1
  Te  Te4  1  0.51095900  0.79079900  0.26102400  1
  Te  Te5  1  0.01095900  0.29079900  0.73897600  1
  Te  Te6  1  0.98904100  0.70920100  0.26102400  1
  Te  Te7  1  0.98904100  0.79079900  0.76102400  1
  C  C0  1  0.70065200  0.58750400  0.89015800  1
  C  C1  1  0.45509900  0.64522900  0.38763500  1
  C  C2  1  0.47953900  0.83055000  0.62387900  1
  C  C3  1  0.20065200  0.41249600  0.60984200  1
  C  C4  1  0.97953900  0.33055000  0.37612100  1
  C  C5  1  0.59867500  0.57397500  0.24061300  1
  C  C6  1  0.04490100  0.64522900  0.88763500  1
  C  C7  1  0.95509900  0.14522900  0.61236500  1
  C  C8  1  0.82558000  0.61477500  0.12234000  1
  C  C9  1  0.02046100  0.83055000  0.12387900  1
  C  C10  1  0.79934800  0.91249600  0.89015800  1
  C  C11  1  0.90132500  0.57397500  0.74061300  1
  C  C12  1  0.40132500  0.42602500  0.75938700  1
  C  C13  1  0.54490100  0.14522900  0.11236500  1
  C  C14  1  0.59867500  0.92602500  0.74061300  1
  C  C15  1  0.09867500  0.07397500  0.75938700  1
  C  C16  1  0.32558000  0.11477500  0.87766000  1
  C  C17  1  0.02046100  0.66945000  0.62387900  1
  C  C18  1  0.29934800  0.41249600  0.10984200  1
  C  C19  1  0.75000000  0.75000000  0.42749000  1
  C  C20  1  0.67442000  0.61477500  0.62234000  1
  C  C21  1  0.17442000  0.11477500  0.37766000  1
  C  C22  1  0.17442000  0.38522500  0.87766000  1
  C  C23  1  0.25000000  0.25000000  0.57251000  1
  C  C24  1  0.54490100  0.35477100  0.61236500  1
  C  C25  1  0.32558000  0.38522500  0.37766000  1
  C  C26  1  0.52046100  0.16945000  0.37612100  1
  C  C27  1  0.45509900  0.85477100  0.88763500  1
  C  C28  1  0.04490100  0.85477100  0.38763500  1
  C  C29  1  0.97953900  0.16945000  0.87612100  1
  C  C30  1  0.20065200  0.08750400  0.10984200  1
  C  C31  1  0.40132500  0.07397500  0.25938700  1
  C  C32  1  0.90132500  0.92602500  0.24061300  1
  C  C33  1  0.47953900  0.66945000  0.12387900  1
  C  C34  1  0.82558000  0.88522500  0.62234000  1
  C  C35  1  0.70065200  0.91249600  0.39015800  1
  C  C36  1  0.67442000  0.88522500  0.12234000  1
  C  C37  1  0.29934800  0.08750400  0.60984200  1
  C  C38  1  0.79934800  0.58750400  0.39015800  1
  C  C39  1  0.25000000  0.25000000  0.07251000  1
  C  C40  1  0.75000000  0.75000000  0.92749000  1
  C  C41  1  0.52046100  0.33055000  0.87612100  1
  C  C42  1  0.09867500  0.42602500  0.25938700  1
  C  C43  1  0.95509900  0.35477100  0.11236500  1
  O  O0  1  0.30925200  0.62673000  0.41588900  1
  O  O1  1  0.19074800  0.87327000  0.41588900  1
  O  O2  1  0.64570400  0.16879800  0.42027800  1
  O  O3  1  0.75000000  0.75000000  0.49540700  1
  O  O4  1  0.85429600  0.16879800  0.92027800  1
  O  O5  1  0.25000000  0.25000000  0.00459300  1
  O  O6  1  0.87401400  0.96834000  0.92084200  1
  O  O7  1  0.54354100  0.99417900  0.75409800  1
  O  O8  1  0.91930600  0.58021200  0.07715200  1
  O  O9  1  0.95645900  0.99417900  0.25409800  1
  O  O10  1  0.37401400  0.46834000  0.07915800  1
  O  O11  1  0.85429600  0.33120200  0.42027800  1
  O  O12  1  0.91930600  0.91978800  0.57715200  1
  O  O13  1  0.45645900  0.00582100  0.24590200  1
  O  O14  1  0.87401400  0.53166000  0.42084200  1
  O  O15  1  0.37401400  0.03166000  0.57915800  1
  O  O16  1  0.41930600  0.41978800  0.42284800  1
  O  O17  1  0.08069400  0.41978800  0.92284800  1
  O  O18  1  0.25000000  0.25000000  0.50459300  1
  O  O19  1  0.69074800  0.37327000  0.58411100  1
  O  O20  1  0.35429600  0.83120200  0.57972200  1
  O  O21  1  0.35429600  0.66879800  0.07972200  1
  O  O22  1  0.04354100  0.49417900  0.24590200  1
  O  O23  1  0.95645900  0.50582100  0.75409800  1
  O  O24  1  0.62598600  0.53166000  0.92084200  1
  O  O25  1  0.58069400  0.58021200  0.57715200  1
  O  O26  1  0.41930600  0.08021200  0.92284800  1
  O  O27  1  0.80925200  0.12673000  0.58411100  1
  O  O28  1  0.54354100  0.50582100  0.25409800  1
  O  O29  1  0.80925200  0.37327000  0.08411100  1
  O  O30  1  0.14570400  0.83120200  0.07972200  1
  O  O31  1  0.04354100  0.00582100  0.74590200  1
  O  O32  1  0.58069400  0.91978800  0.07715200  1
  O  O33  1  0.45645900  0.49417900  0.74590200  1
  O  O34  1  0.64570400  0.33120200  0.92027800  1
  O  O35  1  0.12598600  0.03166000  0.07915800  1
  O  O36  1  0.62598600  0.96834000  0.42084200  1
  O  O37  1  0.08069400  0.08021200  0.42284800  1
  O  O38  1  0.69074800  0.12673000  0.08411100  1
  O  O39  1  0.19074800  0.62673000  0.91588900  1
  O  O40  1  0.12598600  0.46834000  0.57915800  1
  O  O41  1  0.14570400  0.66879800  0.57972200  1
  O  O42  1  0.30925200  0.87327000  0.91588900  1
  O  O43  1  0.75000000  0.75000000  0.99540700  1
loop_
_geom_bond_atom_site_label_1
_geom_bond_atom_site_label_2
_geom_bond_distance
_geom_bond_site_symmetry_2
Fe0 Te3 2.638396 1_555
Fe0 Te2 2.643327 1_555
Fe1 Te5 2.585491 1_555
Fe1 Te0 2.589584 1_555
Fe2 Te0 2.585491 1_555
Fe2 Te5 2.589584 1_555
Fe3 Te0 2.638396 1_555
Fe3 Te5 2.643327 1_555
Fe4 Te5 2.638396 1_555
Fe4 Te0 2.643327 1_555
Fe5 Te4 2.585491 1_555
Fe5 Te6 2.589584 1_555
Fe6 Te7 2.638396 1_555
Fe6 Te1 2.643327 1_555
Fe7 Te2 2.585491 1_555
Fe7 Te3 2.589584 1_555
Fe8 Te6 2.638396 1_555
Fe8 Te4 2.643327 1_555
Fe9 Te2 2.638396 1_555
Fe9 Te3 2.643327 1_555
Fe10 Te6 2.585491 1_555
Fe10 Te4 2.589584 1_555
Fe11 Te1 2.585491 1_555
Fe11 Te7 2.589584 1_555
Fe12 Te3 2.585491 1_555
Fe12 Te2 2.589584 1_555
Fe13 Te1 2.638396 1_555
Fe13 Te7 2.643327 1_555
Fe14 Te4 2.638396 1_555
Fe14 Te6 2.643327 1_555
Fe15 Te7 2.585491 1_555
Fe15 Te1 2.589584 1_555
C0 O24 1.158693 1_555
C0 Fe6 1.791139 1_555
C1 O0 1.159873 1_555
C1 Fe14 1.792651 1_555
C2 O20 1.159761 1_555
C2 Fe15 1.790383 1_555
C3 O40 1.158693 1_555
C3 Fe3 1.791139 1_555
C4 O11 1.159761 1_555
C4 Fe7 1.790383 1_655
C5 O28 1.172623 1_555
C5 Fe10 1.775366 1_555
C6 O39 1.159873 1_555
C6 Fe6 1.792651 1_455
C7 O27 1.159873 1_555
C7 Fe4 1.792651 1_655
C8 O8 1.160200 1_555
C8 Fe10 1.791056 1_555
C9 O30 1.159761 1_555
C9 Fe5 1.790383 1_455
C10 O6 1.158693 1_555
C10 Fe13 1.791139 1_555
C11 O23 1.172623 1_555
C11 Fe11 1.775366 1_555
C12 O33 1.172623 1_555
C12 Fe1 1.775366 1_555
C13 O38 1.159873 1_555
C13 Fe9 1.792651 1_555
C14 O7 1.172623 1_555
C14 Fe15 1.775366 1_555
C15 O31 1.172623 1_555
C15 Fe2 1.775366 1_555
C16 O26 1.160200 1_555
C16 Fe2 1.791056 1_555
C17 O41 1.159761 1_555
C17 Fe11 1.790383 1_455
C18 O10 1.158693 1_555
C18 Fe0 1.791139 1_555
C19 O3 1.188312 1_555
C19 Fe8 1.926004 1_555
C19 Fe14 1.926004 1_555
C20 O25 1.160200 1_555
C20 Fe11 1.791056 1_555
C21 O37 1.160200 1_555
C21 Fe12 1.791056 1_555
C22 O17 1.160200 1_555
C22 Fe1 1.791056 1_555
C23 O18 1.188312 1_555
C23 Fe3 1.926004 1_555
C23 Fe4 1.926004 1_555
C24 O19 1.159873 1_555
C24 Fe3 1.792651 1_555
C25 O16 1.160200 1_555
C25 Fe7 1.791056 1_555
C26 O2 1.159761 1_555
C26 Fe12 1.790383 1_555
C27 O42 1.159873 1_555
C27 Fe13 1.792651 1_555
C28 O1 1.159873 1_555
C28 Fe8 1.792651 1_455
C29 O4 1.159761 1_555
C29 Fe2 1.790383 1_655
C30 O35 1.158693 1_555
C30 Fe9 1.791139 1_555
C31 O13 1.172623 1_555
C31 Fe12 1.775366 1_555
C32 O9 1.172623 1_555
C32 Fe5 1.775366 1_555
C33 O21 1.159761 1_555
C33 Fe10 1.790383 1_555
C34 O12 1.160200 1_555
C34 Fe15 1.791056 1_555
C35 O36 1.158693 1_555
C35 Fe8 1.791139 1_555
C36 O32 1.160200 1_555
C36 Fe5 1.791056 1_555
C37 O15 1.158693 1_555
C37 Fe4 1.791139 1_555
C38 O14 1.158693 1_555
C38 Fe14 1.791139 1_555
C39 O5 1.188312 1_555
C39 Fe9 1.926004 1_555
C39 Fe0 1.926004 1_555
C40 O43 1.188312 1_555
C40 Fe13 1.926004 1_555
C40 Fe6 1.926004 1_555
C41 O34 1.159761 1_555
C41 Fe1 1.790383 1_555
C42 O22 1.172623 1_555
C42 Fe7 1.775366 1_555
C43 O29 1.159873 1_555
C43 Fe0 1.792651 1_655
