# generated using pymatgen
data_Ce8Nd2O19
_symmetry_space_group_name_H-M   'P 1'
_cell_length_a   3.88096339
_cell_length_b   38.89138722
_cell_length_c   37.10695042
_cell_angle_alpha   5.20029998
_cell_angle_beta   58.49377315
_cell_angle_gamma   60.09166418
_symmetry_Int_Tables_number   1
_chemical_formula_structural   Ce8Nd2O19
_chemical_formula_sum   'Ce8 Nd2 O19'
_cell_volume   415.18468512
_cell_formula_units_Z   1
loop_
 _symmetry_equiv_pos_site_id
 _symmetry_equiv_pos_as_xyz
  1  'x, y, z'
loop_
 _atom_site_type_symbol
 _atom_site_label
 _atom_site_symmetry_multiplicity
 _atom_site_fract_x
 _atom_site_fract_y
 _atom_site_fract_z
 _atom_site_occupancy
  Ce  Ce0  1  0.99144500  0.19293300  0.00902400  1
  Ce  Ce1  1  0.00464300  0.39979900  0.00028000  1
  Ce  Ce2  1  0.00205200  0.29945400  0.00112300  1
  Ce  Ce3  1  0.00467400  0.50111500  0.99872400  1
  Ce  Ce4  1  0.00338400  0.59974400  0.99972800  1
  Ce  Ce5  1  0.00385700  0.80572300  0.99289300  1
  Ce  Ce6  1  0.00081700  0.70064400  0.99862300  1
  Ce  Ce7  1  0.01387900  0.90976200  0.98736200  1
  Nd  Nd0  1  0.03655400  0.02578600  0.96689900  1
  Nd  Nd1  1  0.96652000  0.07190300  0.03444200  1
  O  O0  1  0.25296900  0.09826400  0.25224700  1
  O  O1  1  0.25497500  0.19987200  0.25025300  1
  O  O2  1  0.25611800  0.30286000  0.24651100  1
  O  O3  1  0.25140300  0.39783800  0.25178600  1
  O  O4  1  0.25418300  0.50669600  0.24160000  1
  O  O5  1  0.74901400  0.00186300  0.74739000  1
  O  O6  1  0.25147800  0.60180200  0.24776000  1
  O  O7  1  0.28924400  0.72756000  0.21459500  1
  O  O8  1  0.76756400  0.11579800  0.73036600  1
  O  O9  1  0.74178200  0.18934800  0.76232700  1
  O  O10  1  0.74855900  0.29751000  0.75197900  1
  O  O11  1  0.21262500  0.87078700  0.28621100  1
  O  O12  1  0.76076600  0.40814500  0.73923800  1
  O  O13  1  0.25632000  0.00587700  0.24368400  1
  O  O14  1  0.74000600  0.49294700  0.76001900  1
  O  O15  1  0.75384600  0.59886400  0.75133800  1
  O  O16  1  0.75682900  0.70093300  0.74873400  1
  O  O17  1  0.75339800  0.79968200  0.75031300  1
  O  O18  1  0.75417400  0.89960000  0.74947000  1
loop_
_geom_bond_atom_site_label_1
_geom_bond_atom_site_label_2
_geom_bond_distance
_geom_bond_site_symmetry_2
Ce0 O11 2.295939 1_654
Ce0 O11 2.309240 1_645
Ce0 O13 2.333711 1_555
Ce0 O13 2.351290 1_655
Ce0 O14 2.383561 1_545
Ce0 O14 2.409384 1_554
Ce0 O12 2.444954 1_654
Ce0 O12 2.465593 1_554
Ce1 O16 2.372198 1_454
Ce1 O0 2.372901 1_555
Ce1 O0 2.373768 1_564
Ce1 O16 2.375103 1_445
Ce1 O15 2.378074 1_554
Ce1 O15 2.378158 1_454
Ce1 O1 2.379569 1_455
Ce1 O1 2.382054 1_555
Ce2 O14 2.342400 1_454
Ce2 O14 2.342785 1_554
Ce2 O15 2.367791 1_454
Ce2 O0 2.377706 1_455
Ce2 O0 2.380354 1_555
Ce2 O15 2.380694 1_445
Ce2 O13 2.389306 1_555
Ce2 O13 2.403770 1_564
Ce3 O2 2.369256 1_556
Ce3 O1 2.375171 1_565
Ce3 O2 2.376008 1_456
Ce3 O1 2.376156 1_556
Ce3 O16 2.378201 1_455
Ce3 O17 2.380324 1_455
Ce3 O17 2.385079 1_446
Ce3 O16 2.387459 1_555
Ce4 O17 2.362900 1_455
Ce4 O18 2.368438 1_455
Ce4 O2 2.373450 1_556
Ce4 O3 2.378116 1_556
Ce4 O18 2.379199 1_446
Ce4 O17 2.380658 1_555
Ce4 O3 2.386907 1_456
Ce4 O2 2.390243 1_565
Ce5 O8 2.340697 1_456
Ce5 O8 2.342762 1_465
Ce5 O5 2.365223 1_565
Ce5 O5 2.374700 1_465
Ce5 O4 2.384179 1_565
Ce5 O4 2.386479 1_556
Ce5 O6 2.388424 1_456
Ce5 O6 2.402124 1_556
Ce6 O4 2.359429 1_556
Ce6 O4 2.369969 1_456
Ce6 O3 2.369996 1_565
Ce6 O18 2.375211 1_455
Ce6 O5 2.376139 1_456
Ce6 O3 2.379096 1_556
Ce6 O5 2.383859 1_465
Ce6 O18 2.391275 1_555
Ce7 O7 2.302291 1_456
Ce7 O7 2.304696 1_556
Ce7 O6 2.336354 1_556
Ce7 O6 2.347533 1_565
Ce7 O8 2.392547 1_565
Ce7 O8 2.398474 1_465
Ce7 O9 2.448384 1_465
Ce7 O9 2.461565 1_456
Nd0 O9 2.244641 1_455
Nd0 O9 2.246765 1_555
Nd0 O7 2.387424 1_555
Nd0 O7 2.389968 1_546
Nd0 O10 2.490532 1_455
Nd0 O10 2.496546 1_446
Nd1 O12 2.244754 1_545
Nd1 O12 2.247709 1_554
Nd1 O11 2.388028 1_645
Nd1 O11 2.393076 1_545
Nd1 O10 2.488091 1_654
Nd1 O10 2.500463 1_554
