# generated using pymatgen
data_K2ZrCdH16(CO3)8
_symmetry_space_group_name_H-M   'P 1'
_cell_length_a   9.23941705
_cell_length_b   9.23941705
_cell_length_c   9.23941705
_cell_angle_alpha   103.72416908
_cell_angle_beta   103.72416908
_cell_angle_gamma   121.70218473
_symmetry_Int_Tables_number   1
_chemical_formula_structural   K2ZrCdH16(CO3)8
_chemical_formula_sum   'K2 Zr1 Cd1 H16 C8 O24'
_cell_volume   586.06842940
_cell_formula_units_Z   1
loop_
 _symmetry_equiv_pos_site_id
 _symmetry_equiv_pos_as_xyz
  1  'x, y, z'
loop_
 _atom_site_type_symbol
 _atom_site_label
 _atom_site_symmetry_multiplicity
 _atom_site_fract_x
 _atom_site_fract_y
 _atom_site_fract_z
 _atom_site_occupancy
  K  K0  1  0.50000000  0.50000000  0.00000000  1
  K  K1  1  0.75000000  0.25000000  0.50000000  1
  Zr  Zr0  1  0.25000000  0.75000000  0.50000000  1
  Cd  Cd0  1  0.00000000  0.00000000  0.00000000  1
  H  H0  1  0.39276800  0.22692400  0.65577000  1
  H  H1  1  0.57115400  0.73699800  0.34423000  1
  H  H2  1  0.26300200  0.60723200  0.83415600  1
  H  H3  1  0.77307600  0.42884600  0.16584400  1
  H  H4  1  0.46847400  0.38288700  0.58999500  1
  H  H5  1  0.79289100  0.87847800  0.41000500  1
  H  H6  1  0.12152200  0.53152600  0.91441300  1
  H  H7  1  0.61711300  0.20710900  0.08558700  1
  H  H8  1  0.63390800  0.55008500  0.42714300  1
  H  H9  1  0.12294100  0.20676500  0.57285700  1
  H  H10  1  0.79323500  0.36609200  0.91617600  1
  H  H11  1  0.44991500  0.87705900  0.08382400  1
  H  H12  1  0.48394800  0.32770600  0.33275000  1
  H  H13  1  0.99495600  0.15119800  0.66725000  1
  H  H14  1  0.84880200  0.51605200  0.84375800  1
  H  H15  1  0.67229400  0.00504400  0.15624200  1
  C  C0  1  0.55905900  0.79453300  0.77594700  1
  C  C1  1  0.01858600  0.78311200  0.22405300  1
  C  C2  1  0.21688800  0.44094100  0.23547400  1
  C  C3  1  0.20546700  0.98141400  0.76452600  1
  C  C4  1  0.67212100  0.94772300  0.72241600  1
  C  C5  1  0.22530700  0.94970500  0.27758400  1
  C  C6  1  0.05029500  0.32787900  0.27560200  1
  C  C7  1  0.05227700  0.77469300  0.72439800  1
  O  O0  1  0.37740900  0.69406000  0.69428400  1
  O  O1  1  0.99977700  0.68312600  0.30571600  1
  O  O2  1  0.31687400  0.62259100  0.31665100  1
  O  O3  1  0.30594000  0.00022300  0.68334900  1
  O  O4  1  0.64380800  0.77850700  0.88951100  1
  O  O5  1  0.88899600  0.75429700  0.11048900  1
  O  O6  1  0.24570300  0.35619200  0.13469900  1
  O  O7  1  0.22149300  0.11100400  0.86530100  1
  O  O8  1  0.84943000  0.05315200  0.79203900  1
  O  O9  1  0.26111400  0.05739200  0.20796100  1
  O  O10  1  0.94260800  0.15057000  0.20372200  1
  O  O11  1  0.94684800  0.73888600  0.79627800  1
  O  O12  1  0.56948600  0.95299500  0.60717500  1
  O  O13  1  0.34582000  0.96231100  0.39282500  1
  O  O14  1  0.03768900  0.43051400  0.38350900  1
  O  O15  1  0.04700500  0.65418000  0.61649100  1
  O  O16  1  0.39116800  0.33068000  0.64808800  1
  O  O17  1  0.68259200  0.74308000  0.35191200  1
  O  O18  1  0.25692000  0.60883200  0.93951200  1
  O  O19  1  0.66932000  0.31740800  0.06048800  1
  O  O20  1  0.58445200  0.43256900  0.44130600  1
  O  O21  1  0.99126200  0.14314600  0.55869400  1
  O  O22  1  0.85685400  0.41554800  0.84811700  1
  O  O23  1  0.56743100  0.00873800  0.15188300  1
loop_
_geom_bond_atom_site_label_1
_geom_bond_atom_site_label_2
_geom_bond_distance
_geom_bond_site_symmetry_2
K0 O4 2.779525 1_554
K0 O5 2.779525 1_555
K0 O6 2.779525 1_555
K0 O7 2.779525 1_554
K0 O16 2.900387 1_554
K0 O17 2.900387 1_555
K0 O18 2.900387 1_554
K0 O19 2.900387 1_555
K1 O21 2.869008 1_555
K1 O23 2.869015 1_555
K1 O20 2.869017 1_555
K1 O22 2.869017 1_555
K1 O15 2.924962 1_655
K1 O12 2.924962 1_545
K1 O13 2.924962 1_545
K1 O14 2.924962 1_655
Cd0 O8 2.401230 1_454
Cd0 O9 2.401232 1_555
Cd0 O11 2.401236 1_444
Cd0 O10 2.401236 1_455
Cd0 O4 2.529228 1_444
Cd0 O7 2.529228 1_554
Cd0 O5 2.529228 1_445
Cd0 O6 2.529228 1_555
H0 O16 0.985362 1_555
H1 O17 0.985362 1_555
H2 O18 0.985362 1_555
H3 O19 0.985362 1_555
H4 O16 0.986708 1_555
H5 O17 0.986701 1_555
H6 O18 0.986701 1_555
H7 O19 0.986701 1_555
H8 O20 0.989536 1_555
H9 O21 0.989536 1_455
H10 O22 0.989527 1_555
H11 O23 0.989535 1_565
H12 O20 0.978971 1_555
H13 O21 0.978968 1_555
H14 O22 0.978971 1_555
H15 O23 0.978976 1_555
C0 O4 1.241672 1_555
C0 O0 1.295055 1_555
C1 O5 1.241672 1_455
C1 O1 1.295049 1_455
C2 O6 1.241672 1_555
C2 O2 1.295056 1_555
C3 O7 1.241672 1_565
C3 O3 1.295056 1_565
C4 O8 1.253759 1_565
C4 O12 1.276477 1_555
C5 O9 1.253766 1_565
C5 O13 1.276477 1_555
C6 O10 1.253758 1_455
C6 O14 1.276477 1_555
C7 O11 1.253758 1_455
C7 O15 1.276477 1_555
O0 Zr0 2.225356 1_555
O1 Zr0 2.225353 1_655
O2 Zr0 2.225349 1_555
O3 Zr0 2.225349 1_545
O12 Zr0 2.263795 1_555
O13 Zr0 2.263795 1_555
O14 Zr0 2.263795 1_555
O15 Zr0 2.263795 1_555
