# generated using pymatgen
data_Nb3Te4ClO15
_symmetry_space_group_name_H-M   'P 1'
_cell_length_a   7.97047900
_cell_length_b   10.43363160
_cell_length_c   19.65221413
_cell_angle_alpha   85.54770045
_cell_angle_beta   78.31271999
_cell_angle_gamma   67.58055780
_symmetry_Int_Tables_number   1
_chemical_formula_structural   Nb3Te4ClO15
_chemical_formula_sum   'Nb12 Te16 Cl4 O60'
_cell_volume   1479.45110882
_cell_formula_units_Z   4
loop_
 _symmetry_equiv_pos_site_id
 _symmetry_equiv_pos_as_xyz
  1  'x, y, z'
loop_
 _atom_site_type_symbol
 _atom_site_label
 _atom_site_symmetry_multiplicity
 _atom_site_fract_x
 _atom_site_fract_y
 _atom_site_fract_z
 _atom_site_occupancy
  Nb  Nb0  1  0.51317500  0.25563400  0.49066800  1
  Nb  Nb1  1  0.98206400  0.75298300  0.50573300  1
  Nb  Nb2  1  0.24016700  0.75347600  0.99034400  1
  Nb  Nb3  1  0.73762700  0.74805400  0.99422300  1
  Nb  Nb4  1  0.87653600  0.73979600  0.25202200  1
  Nb  Nb5  1  0.75701400  0.24701700  0.01026600  1
  Nb  Nb6  1  0.36978200  0.75825200  0.24728300  1
  Nb  Nb7  1  0.26095700  0.25126300  0.00496000  1
  Nb  Nb8  1  0.63126200  0.23924000  0.75337100  1
  Nb  Nb9  1  0.01864100  0.24849900  0.49366400  1
  Nb  Nb10  1  0.12516000  0.25861600  0.74746300  1
  Nb  Nb11  1  0.48642600  0.74793400  0.50889800  1
  Te  Te0  1  0.23220800  0.53393800  0.62638400  1
  Te  Te1  1  0.99047700  0.03582700  0.37072600  1
  Te  Te2  1  0.10331000  0.53628400  0.87095200  1
  Te  Te3  1  0.26858500  0.49753000  0.35609100  1
  Te  Te4  1  0.10905700  0.03223700  0.12532700  1
  Te  Te5  1  0.62588400  0.00292400  0.14387900  1
  Te  Te6  1  0.89722500  0.46349300  0.12890100  1
  Te  Te7  1  0.62416700  0.50191900  0.86275200  1
  Te  Te8  1  0.51522600  0.00233800  0.36217400  1
  Te  Te9  1  0.00785100  0.96603400  0.62869700  1
  Te  Te10  1  0.37297900  0.49731700  0.13769500  1
  Te  Te11  1  0.76697000  0.46674700  0.37538200  1
  Te  Te12  1  0.89235900  0.96590100  0.87617400  1
  Te  Te13  1  0.49014500  0.99954000  0.63721200  1
  Te  Te14  1  0.72695500  0.50346400  0.64346200  1
  Te  Te15  1  0.37533100  0.99488400  0.85529500  1
  Cl  Cl0  1  0.54131900  0.25445500  0.24931600  1
  Cl  Cl1  1  0.94864500  0.74724000  0.75009100  1
  Cl  Cl2  1  0.04543600  0.25483800  0.24979400  1
  Cl  Cl3  1  0.45366800  0.75265100  0.75181700  1
  O  O0  1  0.75944200  0.74528200  0.50192800  1
  O  O1  1  0.15598200  0.09994600  0.81807800  1
  O  O2  1  0.59786800  0.40912400  0.07613100  1
  O  O3  1  0.86589600  0.88891600  0.58985500  1
  O  O4  1  0.86205900  0.37541600  0.56992900  1
  O  O5  1  0.13561400  0.62678100  0.42921600  1
  O  O6  1  0.73690200  0.36900000  0.92876900  1
  O  O7  1  0.25967200  0.88140200  0.90737100  1
  O  O8  1  0.78775600  0.09738500  0.68142500  1
  O  O9  1  0.97530600  0.91550700  0.44680800  1
  O  O10  1  0.42096300  0.91048800  0.57390000  1
  O  O11  1  0.51432000  0.39164600  0.82714800  1
  O  O12  1  0.07506800  0.39997200  0.81856800  1
  O  O13  1  0.59613600  0.58392200  0.44882300  1
  O  O14  1  0.12858600  0.91639400  0.05113900  1
  O  O15  1  0.20653500  0.89942000  0.31831900  1
  O  O16  1  0.87013700  0.08285100  0.95027500  1
  O  O17  1  0.44327100  0.38116900  0.40806500  1
  O  O18  1  0.57486200  0.39979300  0.68278900  1
  O  O19  1  0.24112700  0.75458800  0.53410100  1
  O  O20  1  0.84293600  0.60813000  0.32713300  1
  O  O21  1  0.46689800  0.86787600  0.42642200  1
  O  O22  1  0.31248900  0.12458300  0.92839200  1
  O  O23  1  0.93097100  0.59728800  0.18117300  1
  O  O24  1  0.69175800  0.87757300  0.06935400  1
  O  O25  1  0.15455300  0.38846800  0.08923900  1
  O  O26  1  0.24405100  0.25002000  0.49794400  1
  O  O27  1  0.55026600  0.62027300  0.59227500  1
  O  O28  1  0.84558900  0.89942000  0.18137600  1
  O  O29  1  0.75848900  0.25075800  0.46306000  1
  O  O30  1  0.77033300  0.89048300  0.32711700  1
  O  O31  1  0.97294300  0.40941400  0.42211000  1
  O  O32  1  0.02657200  0.59635900  0.57978300  1
  O  O33  1  0.28168100  0.89124700  0.17196800  1
  O  O34  1  0.26018400  0.63027800  0.07121300  1
  O  O35  1  0.40153500  0.41761500  0.55169000  1
  O  O36  1  0.69837700  0.90682600  0.92178500  1
  O  O37  1  0.72169900  0.10693300  0.82786200  1
  O  O38  1  0.48356100  0.60681100  0.17356800  1
  O  O39  1  0.42280000  0.60057200  0.31828700  1
  O  O40  1  0.87963400  0.29044300  0.74738000  1
  O  O41  1  0.40050500  0.59137100  0.92466600  1
  O  O42  1  0.15512200  0.39186500  0.67234300  1
  O  O43  1  0.84476900  0.61154800  0.91015800  1
  O  O44  1  0.12317800  0.70445500  0.25164900  1
  O  O45  1  0.53749500  0.13294000  0.57165800  1
  O  O46  1  0.73622600  0.12142900  0.09386400  1
  O  O47  1  0.49272600  0.24835500  0.00237300  1
  O  O48  1  0.29933600  0.09518200  0.07933300  1
  O  O49  1  0.50405700  0.75408000  0.99720100  1
  O  O50  1  0.01892800  0.08916600  0.55344900  1
  O  O51  1  0.23365300  0.10798200  0.67245600  1
  O  O52  1  0.02626900  0.74919400  0.96376400  1
  O  O53  1  0.16748000  0.41349700  0.94597300  1
  O  O54  1  0.13390900  0.11389200  0.40860800  1
  O  O55  1  0.58150900  0.79442400  0.24585100  1
  O  O56  1  0.83191700  0.58805300  0.05436000  1
  O  O57  1  0.42053300  0.20367600  0.75198400  1
  O  O58  1  0.97175100  0.25312600  0.03481500  1
  O  O59  1  0.58528200  0.09007900  0.42540400  1
loop_
_geom_bond_atom_site_label_1
_geom_bond_atom_site_label_2
_geom_bond_distance
_geom_bond_site_symmetry_2
Nb0 O29 1.902277 1_555
Nb0 O35 1.954850 1_555
Nb0 O45 1.956787 1_555
Nb0 O17 2.034910 1_555
Nb0 O59 2.060854 1_555
Nb0 O26 2.143683 1_555
Nb1 O0 1.823183 1_555
Nb1 O5 1.955879 1_655
Nb1 O9 1.967247 1_555
Nb1 O32 2.076488 1_655
Nb1 O3 2.084238 1_555
Nb1 O19 2.251424 1_655
Nb2 O52 1.898407 1_555
Nb2 O34 1.957697 1_556
Nb2 O14 1.959468 1_556
Nb2 O41 2.044933 1_555
Nb2 O7 2.045046 1_555
Nb2 O49 2.137117 1_555
Nb3 O49 1.827655 1_555
Nb3 O56 1.960851 1_556
Nb3 O24 1.963181 1_556
Nb3 O36 2.070659 1_555
Nb3 O43 2.086404 1_555
Nb3 O52 2.261221 1_655
Nb4 O44 1.855336 1_655
Nb4 O23 1.980469 1_555
Nb4 O20 1.985805 1_555
Nb4 O30 2.050687 1_555
Nb4 O28 2.056333 1_555
Nb4 O55 2.225226 1_555
Nb5 O58 1.894403 1_555
Nb5 O16 1.960001 1_554
Nb5 O6 1.960244 1_554
Nb5 O46 2.040737 1_555
Nb5 O2 2.045339 1_555
Nb5 O47 2.138041 1_555
Nb6 O55 1.859037 1_555
Nb6 O15 1.983128 1_555
Nb6 O33 1.992051 1_555
Nb6 O38 2.036623 1_555
Nb6 O39 2.045596 1_555
Nb6 O44 2.225206 1_555
Nb7 O47 1.826334 1_555
Nb7 O22 1.955554 1_554
Nb7 O53 1.961482 1_554
Nb7 O48 2.076881 1_555
Nb7 O25 2.093987 1_555
Nb7 O58 2.253400 1_455
Nb8 O57 1.858771 1_555
Nb8 O37 1.980660 1_555
Nb8 O8 1.986897 1_555
Nb8 O11 2.044361 1_555
Nb8 O18 2.061483 1_555
Nb8 O40 2.218279 1_555
Nb9 O26 1.821639 1_555
Nb9 O50 1.959336 1_555
Nb9 O4 1.961418 1_455
Nb9 O31 2.074453 1_455
Nb9 O54 2.090136 1_555
Nb9 O29 2.264421 1_455
Nb10 O40 1.856203 1_455
Nb10 O12 1.982938 1_555
Nb10 O42 1.990234 1_555
Nb10 O51 2.048739 1_555
Nb10 O1 2.048922 1_555
Nb10 O57 2.219573 1_555
Nb11 O19 1.892677 1_555
Nb11 O13 1.959808 1_555
Nb11 O21 1.963703 1_555
Nb11 O10 2.042530 1_555
Nb11 O27 2.049352 1_555
Nb11 O0 2.142126 1_555
O1 Te15 1.930005 1_545
O2 Te10 1.886690 1_555
O3 Te9 1.910484 1_655
O4 Te14 1.898606 1_555
O5 Te3 1.897545 1_555
O6 Te7 1.912150 1_555
O7 Te15 1.887146 1_555
O8 Te9 1.918222 1_645
O9 Te1 1.891367 1_565
O10 Te13 1.887770 1_555
O11 Te7 1.929105 1_555
O12 Te2 1.923174 1_555
O13 Te11 1.907812 1_555
O14 Te4 1.910206 1_565
O15 Te1 1.921303 1_465
O16 Te12 1.909839 1_545
O17 Te3 1.884164 1_555
O18 Te14 1.930722 1_555
O20 Te11 1.916572 1_555
O21 Te8 1.910738 1_565
O22 Te15 1.907615 1_545
O23 Te6 1.922842 1_555
O24 Te5 1.895587 1_565
O25 Te6 1.910344 1_455
O27 Te14 1.885462 1_555
O28 Te5 1.931984 1_565
O30 Te8 1.928294 1_565
O31 Te11 1.916438 1_555
O32 Te0 1.910643 1_555
O33 Te4 1.911793 1_565
O34 Te10 1.919090 1_555
O35 Te0 1.916708 1_555
O36 Te12 1.911421 1_555
O37 Te12 1.922633 1_545
O38 Te10 1.929717 1_555
O39 Te3 1.932007 1_555
O41 Te7 1.886257 1_555
O42 Te0 1.911178 1_555
O43 Te2 1.916542 1_655
O45 Te13 1.914324 1_545
O46 Te5 1.886507 1_555
O48 Te4 1.913278 1_555
O50 Te9 1.893083 1_545
O51 Te13 1.929501 1_545
O53 Te2 1.894452 1_555
O54 Te1 1.916718 1_455
O56 Te6 1.898213 1_555
O59 Te8 1.881902 1_555
