# generated using pymatgen
data_Te40Rh31
_symmetry_space_group_name_H-M   'P 1'
_cell_length_a   12.22014700
_cell_length_b   12.59011096
_cell_length_c   12.69066126
_cell_angle_alpha   82.98822877
_cell_angle_beta   112.89453913
_cell_angle_gamma   111.37923692
_symmetry_Int_Tables_number   1
_chemical_formula_structural   Te40Rh31
_chemical_formula_sum   'Te40 Rh31'
_cell_volume   1674.46876153
_cell_formula_units_Z   1
loop_
 _symmetry_equiv_pos_site_id
 _symmetry_equiv_pos_as_xyz
  1  'x, y, z'
loop_
 _atom_site_type_symbol
 _atom_site_label
 _atom_site_symmetry_multiplicity
 _atom_site_fract_x
 _atom_site_fract_y
 _atom_site_fract_z
 _atom_site_occupancy
  Te  Te0  1  0.78516300  0.47648800  0.66896600  1
  Te  Te1  1  0.53221900  0.67264300  0.85084500  1
  Te  Te2  1  0.43546000  0.92752400  0.88427600  1
  Te  Te3  1  0.98162000  0.02303400  0.77485100  1
  Te  Te4  1  0.56014500  0.67536000  0.48337100  1
  Te  Te5  1  0.01283500  0.30353900  0.83835900  1
  Te  Te6  1  0.72660400  0.24925600  0.85990300  1
  Te  Te7  1  0.54654500  0.87899500  0.34186700  1
  Te  Te8  1  0.58132000  0.40287000  0.87763200  1
  Te  Te9  1  0.33471600  0.07058600  0.35140900  1
  Te  Te10  1  0.93944000  0.14780000  0.32618500  1
  Te  Te11  1  0.81635200  0.80743300  0.88956400  1
  Te  Te12  1  0.21763600  0.97234300  0.00292700  1
  Te  Te13  1  0.96055000  0.61303400  0.47131300  1
  Te  Te14  1  0.11621200  0.14414900  0.57679700  1
  Te  Te15  1  0.76151100  0.37458600  0.17922200  1
  Te  Te16  1  0.73513600  0.18357200  0.47380900  1
  Te  Te17  1  0.30112300  0.25832900  0.85855200  1
  Te  Te18  1  0.01254600  0.32888300  0.11331900  1
  Te  Te19  1  0.35108300  0.49225100  0.63588000  1
  Te  Te20  1  0.64507800  0.49851000  0.36079100  1
  Te  Te21  1  0.99272600  0.67525300  0.88841200  1
  Te  Te22  1  0.70192800  0.74185100  0.16075400  1
  Te  Te23  1  0.26908200  0.81305000  0.53307000  1
  Te  Te24  1  0.23546500  0.63115200  0.82011400  1
  Te  Te25  1  0.89008600  0.85249300  0.43118300  1
  Te  Te26  1  0.03934600  0.38560400  0.53070500  1
  Te  Te27  1  0.78839400  0.02328000  0.99707900  1
  Te  Te28  1  0.17876900  0.18025800  0.11487200  1
  Te  Te29  1  0.05789300  0.85132300  0.67518500  1
  Te  Te30  1  0.66050300  0.92435300  0.64662400  1
  Te  Te31  1  0.42138100  0.60019700  0.10442500  1
  Te  Te32  1  0.45650600  0.12557300  0.66106800  1
  Te  Te33  1  0.27928700  0.74966100  0.14870400  1
  Te  Te34  1  0.97939400  0.70128900  0.15341900  1
  Te  Te35  1  0.43758300  0.32169900  0.51714000  1
  Te  Te36  1  0.01538000  0.97282500  0.22905700  1
  Te  Te37  1  0.56750900  0.08244600  0.11293300  1
  Te  Te38  1  0.46373200  0.33574000  0.14175900  1
  Te  Te39  1  0.20905700  0.52130200  0.33044400  1
  Rh  Rh0  1  0.99936000  0.99523600  0.00091600  1
  Rh  Rh1  1  0.46008600  0.48783900  0.96056900  1
  Rh  Rh2  1  0.97534000  0.20759300  0.65521300  1
  Rh  Rh3  1  0.80732800  0.48319100  0.88021700  1
  Rh  Rh4  1  0.46014800  0.72503400  0.61856000  1
  Rh  Rh5  1  0.22452400  0.04310400  0.79995300  1
  Rh  Rh6  1  0.94148600  0.49771300  0.10851700  1
  Rh  Rh7  1  0.78483500  0.65597800  0.52855000  1
  Rh  Rh8  1  0.82670800  0.10885600  0.81025000  1
  Rh  Rh9  1  0.49680400  0.85554500  0.11573800  1
  Rh  Rh10  1  0.98409400  0.36448400  0.30561000  1
  Rh  Rh11  1  0.06283200  0.50469000  0.89956700  1
  Rh  Rh12  1  0.61429700  0.88895800  0.83215400  1
  Rh  Rh13  1  0.21606600  0.42709400  0.77116800  1
  Rh  Rh14  1  0.80298300  0.39174900  0.39654300  1
  Rh  Rh15  1  0.49962300  0.15700300  0.87841300  1
  Rh  Rh16  1  0.24133700  0.35418400  0.99767400  1
  Rh  Rh17  1  0.03484200  0.79333300  0.35089400  1
  Rh  Rh18  1  0.67250500  0.21817100  0.63709800  1
  Rh  Rh19  1  0.52719200  0.01655000  0.47762800  1
  Rh  Rh20  1  0.33331700  0.78593600  0.37067500  1
  Rh  Rh21  1  0.73267700  0.63745700  0.00923000  1
  Rh  Rh22  1  0.53917800  0.26598600  0.39010100  1
  Rh  Rh23  1  0.19694600  0.60529400  0.60505100  1
  Rh  Rh24  1  0.81204000  0.58069600  0.24386700  1
  Rh  Rh25  1  0.38488000  0.11623100  0.16702500  1
  Rh  Rh26  1  0.01049500  0.63250000  0.69497000  1
  Rh  Rh27  1  0.17482200  0.89030900  0.18943600  1
  Rh  Rh28  1  0.21105400  0.33887600  0.46948500  1
  Rh  Rh29  1  0.77208500  0.96206900  0.19425500  1
  Rh  Rh30  1  0.20279900  0.51780100  0.12388800  1
loop_
_geom_bond_atom_site_label_1
_geom_bond_atom_site_label_2
_geom_bond_distance
_geom_bond_site_symmetry_2
Te6 Te8 3.140620 1_555
Te10 Te14 3.078107 1_655
Te17 Te8 3.164480 1_555
Te25 Te29 2.977268 1_655
Rh0 Te28 2.637506 1_665
Rh0 Te11 2.662817 1_554
Rh0 Te27 2.708333 1_564
Rh0 Te12 2.775665 1_655
Rh0 Te3 2.779643 1_564
Rh0 Te36 2.810745 1_655
Rh1 Te1 2.607346 1_555
Rh1 Te8 2.662836 1_555
Rh1 Te31 2.710701 1_556
Rh1 Rh16 2.775866 1_555
Rh1 Te38 2.804243 1_556
Rh1 Rh13 2.909235 1_555
Rh1 Te17 2.943354 1_555
Rh1 Rh21 3.022342 1_556
Rh2 Te5 2.554323 1_655
Rh2 Te3 2.624558 1_555
Rh2 Te26 2.636344 1_655
Rh2 Te14 2.668590 1_655
Rh2 Te16 2.876172 1_555
Rh3 Te8 2.559857 1_555
Rh3 Te0 2.596414 1_555
Rh3 Te21 2.621971 1_555
Rh3 Rh6 2.707475 1_556
Rh3 Te6 2.753800 1_555
Rh4 Te4 2.697799 1_555
Rh4 Te23 2.734673 1_555
Rh4 Te30 2.734760 1_555
Rh4 Te19 2.763481 1_555
Rh4 Te1 2.798095 1_555
Rh5 Te17 2.621610 1_555
Rh5 Te12 2.643795 1_546
Rh5 Te29 2.706221 1_545
Rh5 Te3 2.777290 1_455
Rh5 Te14 2.970188 1_555
Rh5 Te2 3.180461 1_545
Rh6 Te34 2.528646 1_555
Rh6 Te18 2.559066 1_655
Rh6 Te15 2.599116 1_555
Rh7 Te20 2.666948 1_555
Rh7 Te4 2.675225 1_555
Rh7 Te0 2.701856 1_555
Rh7 Te25 2.733604 1_555
Rh7 Te13 2.754373 1_555
Rh8 Te5 2.612655 1_655
Rh8 Te27 2.621807 1_555
Rh8 Te3 2.687832 1_555
Rh8 Te6 2.732454 1_555
Rh8 Te30 2.879132 1_545
Rh9 Te37 2.666108 1_565
Rh9 Te33 2.676417 1_555
Rh9 Te7 2.722271 1_555
Rh9 Te2 2.853705 1_554
Rh9 Te31 3.009127 1_555
Rh9 Te22 3.156062 1_555
Rh10 Te10 2.580687 1_555
Rh10 Te15 2.606741 1_555
Rh10 Te39 2.659973 1_655
Rh10 Te26 2.690841 1_655
Rh10 Te18 2.705122 1_655
Rh10 Rh28 2.849839 1_655
Rh11 Te5 2.524520 1_555
Rh11 Te21 2.556959 1_455
Rh11 Te24 2.610816 1_555
Rh11 Rh30 2.679038 1_556
Rh11 Rh3 2.947168 1_455
Rh12 Te1 2.552487 1_555
Rh12 Te27 2.557971 1_565
Rh12 Te30 2.579896 1_555
Rh12 Te2 2.725096 1_555
Rh12 Te11 2.818944 1_555
Rh13 Te24 2.621714 1_555
Rh13 Te17 2.638722 1_555
Rh13 Te19 2.686327 1_555
Rh13 Te5 2.796778 1_555
Rh13 Te26 2.947558 1_555
Rh14 Te20 2.607084 1_555
Rh14 Te15 2.624489 1_555
Rh14 Te16 2.634229 1_555
Rh14 Te26 2.748093 1_655
Rh14 Te13 2.771724 1_555
Rh15 Te32 2.650630 1_555
Rh15 Te6 2.681301 1_555
Rh15 Te2 2.703497 1_545
Rh15 Te8 2.885472 1_555
Rh15 Te37 2.896856 1_556
Rh15 Rh5 2.928924 1_555
Rh15 Te17 3.045796 1_555
Rh16 Te28 2.541793 1_556
Rh16 Te5 2.629711 1_555
Rh16 Te38 2.696894 1_556
Rh16 Te17 2.697041 1_555
Rh16 Rh30 3.021679 1_556
Rh17 Te36 2.608970 1_555
Rh17 Te34 2.626375 1_455
Rh17 Te13 2.653764 1_455
Rh17 Te25 2.696371 1_455
Rh17 Te23 2.841338 1_555
Rh18 Te32 2.591034 1_555
Rh18 Te16 2.601388 1_555
Rh18 Te6 2.685575 1_555
Rh18 Rh8 2.864322 1_555
Rh18 Rh19 2.977289 1_555
Rh18 Rh22 3.020448 1_555
Rh18 Te0 3.042942 1_555
Rh18 Te35 3.331829 1_555
Rh19 Te9 2.555398 1_555
Rh19 Te30 2.579404 1_545
Rh19 Te16 2.656417 1_555
Rh19 Te7 2.714345 1_545
Rh19 Rh20 3.054547 1_545
Rh20 Te23 2.570183 1_555
Rh20 Te7 2.589741 1_555
Rh20 Te33 2.688286 1_555
Rh20 Rh27 2.901693 1_555
Rh20 Rh4 3.061078 1_555
Rh20 Te39 3.129004 1_555
Rh20 Te4 3.302976 1_555
Rh21 Te11 2.598245 1_554
Rh21 Te1 2.641928 1_554
Rh21 Te22 2.665649 1_555
Rh21 Te34 2.717343 1_555
Rh21 Te8 3.122693 1_554
Rh21 Rh3 3.242733 1_554
Rh22 Te35 2.664756 1_555
Rh22 Te9 2.719360 1_555
Rh22 Te16 2.739072 1_555
Rh22 Te20 2.780271 1_555
Rh22 Te38 3.034427 1_555
Rh23 Te23 2.610626 1_555
Rh23 Te24 2.623396 1_555
Rh23 Te19 2.640387 1_555
Rh23 Te13 2.754128 1_455
Rh23 Te26 2.754848 1_555
Rh24 Te15 2.597203 1_555
Rh24 Te34 2.634826 1_555
Rh24 Te22 2.720936 1_555
Rh24 Te13 2.731894 1_555
Rh24 Te20 2.806568 1_555
Rh25 Te12 2.589536 1_545
Rh25 Te9 2.590822 1_555
Rh25 Te38 2.598372 1_555
Rh25 Te28 2.735819 1_555
Rh25 Te37 2.754687 1_555
Rh26 Te24 2.590509 1_555
Rh26 Te29 2.601815 1_555
Rh26 Te0 2.656536 1_455
Rh26 Te21 2.680677 1_455
Rh26 Te13 2.683602 1_455
Rh27 Te34 2.616918 1_455
Rh27 Te12 2.629732 1_555
Rh27 Te33 2.723511 1_555
Rh27 Te36 2.737512 1_555
Rh27 Te9 2.824065 1_565
Rh28 Te19 2.625067 1_555
Rh28 Te35 2.679082 1_555
Rh28 Te39 2.721611 1_555
Rh28 Te14 2.747680 1_555
Rh28 Te26 2.762715 1_555
Rh28 Te10 3.265164 1_455
Rh29 Te27 2.588501 1_564
Rh29 Te22 2.621845 1_555
Rh29 Te10 2.694200 1_565
Rh29 Te36 2.784261 1_655
Rh29 Rh9 2.921775 1_555
Rh29 Te37 3.159871 1_565
Rh29 Te25 3.176062 1_555
Rh30 Te31 2.588919 1_555
Rh30 Te39 2.597874 1_555
Rh30 Te18 2.623753 1_555
Rh30 Te33 2.738677 1_555
Rh30 Rh6 3.039348 1_455
