# generated using pymatgen
data_TiNiO3
_symmetry_space_group_name_H-M   'P 1'
_cell_length_a   5.06260200
_cell_length_b   5.48929790
_cell_length_c   21.01008739
_cell_angle_alpha   94.29600298
_cell_angle_beta   89.87375336
_cell_angle_gamma   117.36196545
_symmetry_Int_Tables_number   1
_chemical_formula_structural   TiNiO3
_chemical_formula_sum   'Ti10 Ni10 O30'
_cell_volume   516.75037337
_cell_formula_units_Z   10
loop_
 _symmetry_equiv_pos_site_id
 _symmetry_equiv_pos_as_xyz
  1  'x, y, z'
loop_
 _atom_site_type_symbol
 _atom_site_label
 _atom_site_symmetry_multiplicity
 _atom_site_fract_x
 _atom_site_fract_y
 _atom_site_fract_z
 _atom_site_occupancy
  Ti  Ti0  1  0.60604400  0.20671000  0.22878600  1
  Ti  Ti1  1  0.00060600  0.00145500  0.42737400  1
  Ti  Ti2  1  0.20700300  0.40362800  0.16789100  1
  Ti  Ti3  1  0.40104700  0.80270700  0.62711700  1
  Ti  Ti4  1  0.60002400  0.19865400  0.37023500  1
  Ti  Ti5  1  0.80286600  0.60844800  0.82889000  1
  Ti  Ti6  1  0.00034100  0.99987900  0.56988400  1
  Ti  Ti7  1  0.40432800  0.80260700  0.76984000  1
  Ti  Ti8  1  0.51337500  0.04295000  0.93549700  1
  Ti  Ti9  1  0.79454500  0.61342700  0.97620400  1
  Ni  Ni0  1  0.21483400  0.42656000  0.03194700  1
  Ni  Ni1  1  0.49015300  0.99494300  0.07444700  1
  Ni  Ni2  1  0.89216700  0.78058800  0.26966400  1
  Ni  Ni3  1  0.92054600  0.83355700  0.13311500  1
  Ni  Ni4  1  0.28998400  0.57982200  0.46902600  1
  Ni  Ni5  1  0.30783500  0.61743000  0.32850800  1
  Ni  Ni6  1  0.69148400  0.38160300  0.66968400  1
  Ni  Ni7  1  0.70907100  0.41897500  0.52907100  1
  Ni  Ni8  1  0.09707200  0.19180300  0.86966300  1
  Ni  Ni9  1  0.10900600  0.22116400  0.72920000  1
  O  O0  1  0.23531400  0.17580800  0.09285800  1
  O  O1  1  0.74846100  0.11032200  0.15447600  1
  O  O2  1  0.77471100  0.25959300  0.00597400  1
  O  O3  1  0.61315000  0.55566200  0.19074900  1
  O  O4  1  0.67557000  0.72151900  0.04724800  1
  O  O5  1  0.62808800  0.97534400  0.28908400  1
  O  O6  1  0.17586000  0.64259700  0.11363900  1
  O  O7  1  0.14509700  0.90399000  0.35435500  1
  O  O8  1  0.19619800  0.05309100  0.21337000  1
  O  O9  1  0.00971500  0.34898300  0.39042200  1
  O  O10  1  0.05270900  0.49151100  0.24609700  1
  O  O11  1  0.02759100  0.77516100  0.48886700  1
  O  O12  1  0.57437200  0.43108300  0.31402300  1
  O  O13  1  0.54482600  0.70434000  0.55402900  1
  O  O14  1  0.59187400  0.84858300  0.41123000  1
  O  O15  1  0.40997100  0.14964500  0.59038900  1
  O  O16  1  0.45216200  0.29206400  0.44637700  1
  O  O17  1  0.42760800  0.57688400  0.68890600  1
  O  O18  1  0.97315600  0.23088300  0.51375100  1
  O  O19  1  0.94852900  0.51227300  0.75537100  1
  O  O20  1  0.99192200  0.64887100  0.61124100  1
  O  O21  1  0.81302500  0.95367700  0.78991800  1
  O  O22  1  0.85243100  0.09280900  0.64625000  1
  O  O23  1  0.83331600  0.37871100  0.88636500  1
  O  O24  1  0.37428100  0.03258800  0.71381400  1
  O  O25  1  0.36981900  0.31558700  0.94858700  1
  O  O26  1  0.39708100  0.45356700  0.81052200  1
  O  O27  1  0.22576400  0.78363200  0.98374200  1
  O  O28  1  0.26970400  0.90357400  0.84926900  1
  O  O29  1  0.76418800  0.84837800  0.91429300  1
loop_
_geom_bond_atom_site_label_1
_geom_bond_atom_site_label_2
_geom_bond_distance
_geom_bond_site_symmetry_2
Ni0 O0 1.984640 1_555
Ni0 O2 2.038566 1_455
Ni0 O6 2.073596 1_555
Ni0 O25 2.080285 1_554
Ni0 O4 2.149260 1_555
Ni0 O27 2.251259 1_554
Ni1 O0 1.979265 1_565
Ni1 O1 2.006791 1_565
Ni1 O6 2.086762 1_555
Ni1 O4 2.150497 1_555
Ni1 O2 2.153056 1_565
Ni1 O27 2.240918 1_554
Ni2 O8 2.036216 1_665
Ni2 O7 2.072867 1_655
Ni2 O5 2.083946 1_555
Ni2 O3 2.090264 1_555
Ni2 O10 2.118919 1_655
Ni2 O12 2.135833 1_555
Ni3 O6 2.028742 1_655
Ni3 O0 2.065065 1_665
Ni3 O3 2.073970 1_555
Ni3 O4 2.076910 1_555
Ni3 O1 2.093152 1_565
Ni3 O8 2.098315 1_665
Ni4 O14 2.043154 1_555
Ni4 O11 2.080408 1_555
Ni4 O13 2.082759 1_555
Ni4 O9 2.095325 1_555
Ni4 O16 2.115057 1_555
Ni4 O18 2.136232 1_455
Ni5 O10 2.038104 1_555
Ni5 O12 2.044533 1_555
Ni5 O9 2.091797 1_555
Ni5 O5 2.117685 1_555
Ni5 O7 2.123530 1_555
Ni5 O14 2.168373 1_555
Ni6 O20 2.045487 1_555
Ni6 O17 2.084688 1_555
Ni6 O19 2.099480 1_555
Ni6 O15 2.110102 1_555
Ni6 O22 2.118509 1_555
Ni6 O24 2.130830 1_555
Ni7 O18 2.043112 1_555
Ni7 O16 2.047260 1_555
Ni7 O15 2.087406 1_555
Ni7 O11 2.116576 1_655
Ni7 O13 2.119543 1_555
Ni7 O20 2.155669 1_555
Ni8 O25 2.024055 1_555
Ni8 O23 2.040131 1_455
Ni8 O26 2.041698 1_555
Ni8 O21 2.130329 1_445
Ni8 O29 2.147253 1_445
Ni8 O28 2.149080 1_545
Ni9 O24 2.050726 1_555
Ni9 O22 2.050783 1_455
Ni9 O21 2.068429 1_445
Ni9 O17 2.116057 1_555
Ni9 O19 2.139091 1_455
Ni9 O26 2.155894 1_555
O0 Ti2 1.984458 1_555
O1 Ti0 1.859911 1_555
O1 Ti2 2.135389 1_655
O2 Ti8 1.912004 1_554
O2 Ti9 2.043595 1_554
O3 Ti2 1.876661 1_555
O3 Ti0 2.115412 1_555
O4 Ti9 1.770509 1_554
O5 Ti0 1.897989 1_565
O5 Ti4 2.067777 1_565
O6 Ti2 1.860041 1_555
O7 Ti1 1.845736 1_565
O7 Ti4 2.128410 1_565
O8 Ti0 1.864098 1_555
O8 Ti2 2.190213 1_555
O9 Ti4 1.881726 1_455
O9 Ti1 2.094038 1_555
O10 Ti2 1.940281 1_555
O10 Ti0 2.087725 1_455
O11 Ti1 1.904762 1_565
O11 Ti6 2.068545 1_555
O12 Ti4 1.848852 1_555
O12 Ti0 2.144664 1_555
O13 Ti3 1.847040 1_555
O13 Ti6 2.131746 1_655
O14 Ti1 1.861534 1_665
O14 Ti4 2.147370 1_565
O15 Ti6 1.883027 1_545
O15 Ti3 2.089339 1_545
O16 Ti4 1.899243 1_555
O16 Ti1 2.118160 1_555
O17 Ti3 1.906595 1_555
O17 Ti7 2.063570 1_555
O18 Ti6 1.844713 1_645
O18 Ti1 2.171683 1_655
O19 Ti5 1.854484 1_555
O19 Ti7 2.122988 1_655
O20 Ti3 1.862110 1_655
O20 Ti6 2.155113 1_655
O21 Ti7 1.876409 1_555
O21 Ti5 2.099298 1_555
O22 Ti6 1.902217 1_645
O22 Ti3 2.117216 1_545
O23 Ti5 1.865472 1_555
O23 Ti8 2.149327 1_555
O23 Ti9 2.264466 1_555
O24 Ti7 1.844564 1_545
O24 Ti3 2.177234 1_545
O25 Ti8 1.944443 1_555
O25 Ti9 2.065189 1_555
O26 Ti5 1.854959 1_555
O26 Ti7 2.140912 1_555
O27 Ti8 1.865012 1_565
O27 Ti9 1.941221 1_455
O28 Ti7 1.939139 1_555
O28 Ti8 2.079390 1_565
O28 Ti5 2.185082 1_455
O29 Ti9 1.952785 1_555
O29 Ti8 2.030861 1_565
O29 Ti5 2.207717 1_555
