# generated using pymatgen
data_ReTe5O6F25
_symmetry_space_group_name_H-M   'P 1'
_cell_length_a   18.68257200
_cell_length_b   9.18399100
_cell_length_c   14.30592308
_cell_angle_alpha   72.54465530
_cell_angle_beta   90.00000000
_cell_angle_gamma   90.00000000
_symmetry_Int_Tables_number   1
_chemical_formula_structural   ReTe5O6F25
_chemical_formula_sum   'Re4 Te20 O24 F100'
_cell_volume   2341.58581825
_cell_formula_units_Z   4
loop_
 _symmetry_equiv_pos_site_id
 _symmetry_equiv_pos_as_xyz
  1  'x, y, z'
loop_
 _atom_site_type_symbol
 _atom_site_label
 _atom_site_symmetry_multiplicity
 _atom_site_fract_x
 _atom_site_fract_y
 _atom_site_fract_z
 _atom_site_occupancy
  Re  Re0  1  0.53740100  0.08694900  0.30924400  1
  Re  Re1  1  0.96259900  0.08694900  0.80924400  1
  Re  Re2  1  0.46259900  0.91305100  0.69075600  1
  Re  Re3  1  0.03740100  0.91305100  0.19075600  1
  Te  Te0  1  0.11503800  0.95151200  0.42155300  1
  Te  Te1  1  0.91044300  0.64971600  0.34505600  1
  Te  Te2  1  0.34034100  0.58237100  0.74284300  1
  Te  Te3  1  0.82597800  0.82185100  0.94965300  1
  Te  Te4  1  0.41044300  0.35028400  0.15494400  1
  Te  Te5  1  0.07548900  0.75582300  0.84790900  1
  Te  Te6  1  0.17402200  0.17814900  0.05034700  1
  Te  Te7  1  0.88496200  0.04848800  0.57844700  1
  Te  Te8  1  0.15965900  0.58237100  0.24284300  1
  Te  Te9  1  0.38496200  0.95151200  0.92155300  1
  Te  Te10  1  0.92451100  0.24417700  0.15209100  1
  Te  Te11  1  0.32597800  0.17814900  0.55034700  1
  Te  Te12  1  0.67402200  0.82185100  0.44965300  1
  Te  Te13  1  0.42451100  0.75582300  0.34790900  1
  Te  Te14  1  0.65965900  0.41762900  0.25715700  1
  Te  Te15  1  0.61503800  0.04848800  0.07844700  1
  Te  Te16  1  0.08955700  0.35028400  0.65494400  1
  Te  Te17  1  0.58955700  0.64971600  0.84505600  1
  Te  Te18  1  0.84034100  0.41762900  0.75715700  1
  Te  Te19  1  0.57548900  0.24417700  0.65209100  1
  O  O0  1  0.07984100  0.72004100  0.19835100  1
  O  O1  1  0.97415500  0.89953300  0.10654600  1
  O  O2  1  0.10776800  0.01114000  0.09563400  1
  O  O3  1  0.02584500  0.10046700  0.89345400  1
  O  O4  1  0.10729500  0.93055400  0.29389000  1
  O  O5  1  0.99414300  0.88906800  0.80426400  1
  O  O6  1  0.57984100  0.27995900  0.30164900  1
  O  O7  1  0.52584500  0.89953300  0.60654600  1
  O  O8  1  0.47415500  0.10046700  0.39345400  1
  O  O9  1  0.89270500  0.06944600  0.70611000  1
  O  O10  1  0.00585700  0.11093200  0.19573600  1
  O  O11  1  0.52352100  0.81792500  0.80139200  1
  O  O12  1  0.47647900  0.18207500  0.19860800  1
  O  O13  1  0.60729500  0.06944600  0.20611000  1
  O  O14  1  0.97647900  0.81792500  0.30139200  1
  O  O15  1  0.89223200  0.98886000  0.90436600  1
  O  O16  1  0.42015900  0.72004100  0.69835100  1
  O  O17  1  0.39270500  0.93055400  0.79389000  1
  O  O18  1  0.49414300  0.11093200  0.69573600  1
  O  O19  1  0.02352100  0.18207500  0.69860800  1
  O  O20  1  0.50585700  0.88906800  0.30426400  1
  O  O21  1  0.60776800  0.98886000  0.40436600  1
  O  O22  1  0.39223200  0.01114000  0.59563400  1
  O  O23  1  0.92015900  0.27995900  0.80164900  1
  F  F0  1  0.58161400  0.27053600  0.77623000  1
  F  F1  1  0.81785800  0.87044400  0.06669400  1
  F  F2  1  0.75010600  0.95233800  0.89721700  1
  F  F3  1  0.83362900  0.77000300  0.83326300  1
  F  F4  1  0.67160600  0.42388800  0.38562400  1
  F  F5  1  0.26203600  0.33996700  0.50306600  1
  F  F6  1  0.68214200  0.87044400  0.56669400  1
  F  F7  1  0.72414400  0.25461800  0.28203200  1
  F  F8  1  0.85094300  0.41346700  0.62803700  1
  F  F9  1  0.76420400  0.55393600  0.71767300  1
  F  F10  1  0.59748300  0.69095300  0.50138300  1
  F  F11  1  0.86153200  0.07819900  0.19063400  1
  F  F12  1  0.16772800  0.22174500  0.70079400  1
  F  F13  1  0.13846800  0.92180100  0.80936600  1
  F  F14  1  0.22414400  0.74538200  0.21796800  1
  F  F15  1  0.07003100  0.78159300  0.97308000  1
  F  F16  1  0.01332900  0.58919300  0.88792300  1
  F  F17  1  0.65264700  0.48559800  0.88981200  1
  F  F18  1  0.27585600  0.74538200  0.71796800  1
  F  F19  1  0.34735300  0.51440200  0.11018800  1
  F  F20  1  0.83210700  0.86744100  0.62428000  1
  F  F21  1  0.48667100  0.58919300  0.38792300  1
  F  F22  1  0.25010600  0.04766200  0.60278300  1
  F  F23  1  0.17160600  0.57611200  0.11437600  1
  F  F24  1  0.16637100  0.22999700  0.16673700  1
  F  F25  1  0.41580000  0.39210900  0.27548200  1
  F  F26  1  0.40393200  0.31212100  0.03423600  1
  F  F27  1  0.91838600  0.27053600  0.27623000  1
  F  F28  1  0.51332900  0.41080700  0.61207700  1
  F  F29  1  0.59546000  0.58013700  0.23259300  1
  F  F30  1  0.84735300  0.48559800  0.38981200  1
  F  F31  1  0.09606800  0.31212100  0.53423600  1
  F  F32  1  0.16789300  0.13255900  0.37572000  1
  F  F33  1  0.77585600  0.25461800  0.78203200  1
  F  F34  1  0.32839400  0.57611200  0.61437600  1
  F  F35  1  0.06366900  0.77021900  0.47654900  1
  F  F36  1  0.66637100  0.77000300  0.33326300  1
  F  F37  1  0.96948700  0.93254500  0.59658000  1
  F  F38  1  0.37856500  0.96964400  0.04823300  1
  F  F39  1  0.12143500  0.96964400  0.54823300  1
  F  F40  1  0.84687100  0.37598000  0.11039000  1
  F  F41  1  0.31785800  0.12955600  0.43330600  1
  F  F42  1  0.33227200  0.22174500  0.20079400  1
  F  F43  1  0.90393200  0.68787900  0.46576400  1
  F  F44  1  0.36153200  0.92180100  0.30936600  1
  F  F45  1  0.64905700  0.41346700  0.12803700  1
  F  F46  1  0.73796400  0.66003300  0.49693400  1
  F  F47  1  0.87856500  0.03035600  0.45176700  1
  F  F48  1  0.40454000  0.41986300  0.76740700  1
  F  F49  1  0.40251700  0.30904700  0.49861700  1
  F  F50  1  0.08420000  0.39210900  0.77548200  1
  F  F51  1  0.08161400  0.72946400  0.72377000  1
  F  F52  1  0.57003100  0.21840700  0.52692000  1
  F  F53  1  0.48807400  0.48131300  0.11003000  1
  F  F54  1  0.14905700  0.58653300  0.37196300  1
  F  F55  1  0.09546000  0.41986300  0.26740700  1
  F  F56  1  0.62143500  0.03035600  0.95176700  1
  F  F57  1  0.92996900  0.21840700  0.02692000  1
  F  F58  1  0.15264700  0.51440200  0.61018800  1
  F  F59  1  0.35094300  0.58653300  0.87196300  1
  F  F60  1  0.46948700  0.06745500  0.90342000  1
  F  F61  1  0.73579600  0.55393600  0.21767300  1
  F  F62  1  0.74989400  0.95233800  0.39721700  1
  F  F63  1  0.24989400  0.04766200  0.10278300  1
  F  F64  1  0.98667100  0.41080700  0.11207700  1
  F  F65  1  0.33210700  0.13255900  0.87572000  1
  F  F66  1  0.66789300  0.86744100  0.12428000  1
  F  F67  1  0.42996900  0.78159300  0.47308000  1
  F  F68  1  0.29847800  0.84250400  0.94391100  1
  F  F69  1  0.09748300  0.30904700  0.99861700  1
  F  F70  1  0.03051300  0.06745500  0.40342000  1
  F  F71  1  0.79847800  0.15749600  0.55608900  1
  F  F72  1  0.90251700  0.69095300  0.00138300  1
  F  F73  1  0.33362900  0.22999700  0.66673700  1
  F  F74  1  0.53051300  0.93254500  0.09658000  1
  F  F75  1  0.56366900  0.22978100  0.02345100  1
  F  F76  1  0.59606800  0.68787900  0.96576400  1
  F  F77  1  0.34687100  0.62402000  0.38961000  1
  F  F78  1  0.41838600  0.72946400  0.22377000  1
  F  F79  1  0.01192600  0.48131300  0.61003000  1
  F  F80  1  0.66772800  0.77825500  0.79920600  1
  F  F81  1  0.26420400  0.44606400  0.78232700  1
  F  F82  1  0.91580000  0.60789100  0.22451800  1
  F  F83  1  0.51192600  0.51868700  0.88997000  1
  F  F84  1  0.70152200  0.15749600  0.05608900  1
  F  F85  1  0.83227200  0.77825500  0.29920600  1
  F  F86  1  0.58420000  0.60789100  0.72451800  1
  F  F87  1  0.15312900  0.62402000  0.88961000  1
  F  F88  1  0.23796400  0.33996700  0.00306600  1
  F  F89  1  0.90454000  0.58013700  0.73259300  1
  F  F90  1  0.63846800  0.07819900  0.69063400  1
  F  F91  1  0.65312900  0.37598000  0.61039000  1
  F  F92  1  0.43633100  0.77021900  0.97654900  1
  F  F93  1  0.76203600  0.66003300  0.99693400  1
  F  F94  1  0.20152200  0.84250400  0.44391100  1
  F  F95  1  0.23579600  0.44606400  0.28232700  1
  F  F96  1  0.98807400  0.51868700  0.38997000  1
  F  F97  1  0.82839400  0.42388800  0.88562400  1
  F  F98  1  0.93633100  0.22978100  0.52345100  1
  F  F99  1  0.18214200  0.12955600  0.93330600  1
loop_
_geom_bond_atom_site_label_1
_geom_bond_atom_site_label_2
_geom_bond_distance
_geom_bond_site_symmetry_2
O0 Re3 1.914954 1_555
O0 Te8 1.935106 1_555
O1 Re3 1.718319 1_655
O2 Re3 1.912108 1_545
O2 Te6 1.925693 1_555
O3 Re1 1.718319 1_455
O4 Te0 1.898519 1_555
O4 Re3 2.012492 1_555
O5 Re1 1.932037 1_565
O5 Te5 1.933548 1_655
O6 Re0 1.914954 1_555
O6 Te14 1.935106 1_555
O7 Re2 1.718319 1_555
O8 Re0 1.718319 1_555
O9 Te7 1.898519 1_555
O9 Re1 2.012492 1_555
O10 Re3 1.932037 1_545
O10 Te10 1.933548 1_455
O11 Te17 1.928690 1_555
O11 Re2 1.932420 1_555
O12 Te4 1.928690 1_555
O12 Re0 1.932420 1_555
O13 Te15 1.898519 1_555
O13 Re0 2.012492 1_555
O14 Te1 1.928690 1_555
O14 Re3 1.932420 1_655
O15 Re1 1.912108 1_565
O15 Te3 1.925693 1_555
O16 Re2 1.914954 1_555
O16 Te2 1.935106 1_555
O17 Te9 1.898519 1_555
O17 Re2 2.012492 1_555
O18 Re2 1.932037 1_545
O18 Te19 1.933548 1_555
O19 Te16 1.928690 1_555
O19 Re1 1.932420 1_455
O20 Re0 1.932037 1_565
O20 Te13 1.933548 1_555
O21 Re0 1.912108 1_565
O21 Te12 1.925693 1_555
O22 Re2 1.912108 1_545
O22 Te11 1.925693 1_555
O23 Re1 1.914954 1_555
O23 Te18 1.935106 1_555
F0 Te19 1.866418 1_555
F1 Te3 1.863870 1_554
F2 Te3 1.862474 1_555
F3 Te3 1.869565 1_555
F4 Te14 1.869265 1_555
F5 Te11 1.868188 1_555
F6 Te12 1.863870 1_555
F7 Te14 1.870754 1_555
F8 Te18 1.869526 1_555
F9 Te18 1.866890 1_555
F10 Te12 1.871867 1_555
F11 Te10 1.872916 1_555
F12 Te16 1.868732 1_555
F13 Te5 1.872916 1_555
F14 Te8 1.870754 1_555
F15 Te5 1.878090 1_555
F16 Te5 1.868872 1_555
F17 Te17 1.868719 1_555
F18 Te2 1.870754 1_555
F19 Te4 1.868719 1_555
F20 Te7 1.875005 1_565
F21 Te13 1.868872 1_555
F22 Te11 1.862474 1_555
F23 Te8 1.869265 1_555
F24 Te6 1.869565 1_555
F25 Te4 1.878437 1_555
F26 Te4 1.866202 1_555
F27 Te10 1.866418 1_555
F28 Te19 1.868872 1_555
F29 Te14 1.864104 1_555
F30 Te1 1.868719 1_555
F31 Te16 1.866202 1_555
F32 Te0 1.875005 1_545
F33 Te18 1.870754 1_555
F34 Te2 1.869265 1_555
F35 Te0 1.877861 1_555
F36 Te12 1.869565 1_555
F37 Te7 1.878594 1_565
F38 Te9 1.872806 1_554
F39 Te0 1.872806 1_555
F40 Te10 1.868668 1_555
F41 Te11 1.863870 1_555
F42 Te4 1.868732 1_555
F43 Te1 1.866202 1_555
F44 Te13 1.872916 1_555
F45 Te14 1.869526 1_555
F46 Te12 1.868188 1_555
F47 Te7 1.872806 1_555
F48 Te2 1.864104 1_555
F49 Te11 1.871867 1_555
F50 Te16 1.878437 1_555
F51 Te5 1.866418 1_555
F52 Te19 1.878090 1_555
F53 Te4 1.870986 1_555
F54 Te8 1.869526 1_555
F55 Te8 1.864104 1_555
F56 Te15 1.872806 1_556
F57 Te10 1.878090 1_555
F58 Te16 1.868719 1_555
F59 Te2 1.869526 1_555
F60 Te9 1.878594 1_545
F61 Te14 1.866890 1_555
F62 Te12 1.862474 1_555
F63 Te6 1.862474 1_555
F64 Te10 1.868872 1_555
F65 Te9 1.875005 1_545
F66 Te15 1.875005 1_565
F67 Te13 1.878090 1_555
F68 Te9 1.876989 1_555
F69 Te6 1.871867 1_556
F70 Te0 1.878594 1_545
F71 Te7 1.876989 1_555
F72 Te3 1.871867 1_554
F73 Te11 1.869565 1_555
F74 Te15 1.878594 1_565
F75 Te15 1.877861 1_555
F76 Te17 1.866202 1_555
F77 Te13 1.868668 1_555
F78 Te13 1.866418 1_555
F79 Te16 1.870986 1_555
F80 Te17 1.868732 1_555
F81 Te2 1.866890 1_555
F82 Te1 1.878437 1_555
F83 Te17 1.870986 1_555
F84 Te15 1.876989 1_555
F85 Te1 1.868732 1_555
F86 Te17 1.878437 1_555
F87 Te5 1.868668 1_555
F88 Te6 1.868188 1_555
F89 Te18 1.864104 1_555
F90 Te19 1.872916 1_555
F91 Te19 1.868668 1_555
F92 Te9 1.877861 1_555
F93 Te3 1.868188 1_555
F94 Te0 1.876989 1_555
F95 Te8 1.866890 1_555
F96 Te1 1.870986 1_555
F97 Te18 1.869265 1_555
F98 Te7 1.877861 1_555
F99 Te6 1.863870 1_556
