# generated using pymatgen
data_Ti(TlS)4
_symmetry_space_group_name_H-M   'P 1'
_cell_length_a   8.45291600
_cell_length_b   8.56161800
_cell_length_c   15.84343105
_cell_angle_alpha   74.32914294
_cell_angle_beta   90.00000000
_cell_angle_gamma   90.00000000
_symmetry_Int_Tables_number   1
_chemical_formula_structural   Ti(TlS)4
_chemical_formula_sum   'Ti4 Tl16 S16'
_cell_volume   1103.97926903
_cell_formula_units_Z   4
loop_
 _symmetry_equiv_pos_site_id
 _symmetry_equiv_pos_as_xyz
  1  'x, y, z'
loop_
 _atom_site_type_symbol
 _atom_site_label
 _atom_site_symmetry_multiplicity
 _atom_site_fract_x
 _atom_site_fract_y
 _atom_site_fract_z
 _atom_site_occupancy
  Ti  Ti0  1  0.11721400  0.79033100  0.37890100  1
  Ti  Ti1  1  0.60659900  0.21190800  0.12252300  1
  Ti  Ti2  1  0.89226300  0.20558100  0.62106800  1
  Ti  Ti3  1  0.38814300  0.78963800  0.87498800  1
  Tl  Tl0  1  0.27339400  0.38337000  0.64393000  1
  Tl  Tl1  1  0.77937500  0.61728800  0.86096000  1
  Tl  Tl2  1  0.71946800  0.61924900  0.35686600  1
  Tl  Tl3  1  0.21770800  0.38662500  0.14000200  1
  Tl  Tl4  1  0.10299900  0.82090700  0.62114500  1
  Tl  Tl5  1  0.59669600  0.17787200  0.87980700  1
  Tl  Tl6  1  0.89575000  0.17770700  0.37831300  1
  Tl  Tl7  1  0.40230500  0.81904600  0.12106200  1
  Tl  Tl8  1  0.67947900  0.58578500  0.61078800  1
  Tl  Tl9  1  0.18329600  0.40718300  0.89345900  1
  Tl  Tl10  1  0.31757500  0.40759800  0.39383500  1
  Tl  Tl11  1  0.82054200  0.59112700  0.10669400  1
  Tl  Tl12  1  0.51142100  0.96900200  0.63489400  1
  Tl  Tl13  1  0.01139900  0.03080300  0.86730000  1
  Tl  Tl14  1  0.48850300  0.02641900  0.36412900  1
  Tl  Tl15  1  0.99536200  0.97634700  0.13072900  1
  S  S0  1  0.88790100  0.81655500  0.45977700  1
  S  S1  1  0.39649000  0.18004200  0.03904100  1
  S  S2  1  0.10396600  0.17847500  0.54102200  1
  S  S3  1  0.61048500  0.81961000  0.96020800  1
  S  S4  1  0.32383200  0.70514300  0.46028700  1
  S  S5  1  0.82259100  0.29490300  0.03935600  1
  S  S6  1  0.67587400  0.30199500  0.53383700  1
  S  S7  1  0.17982400  0.70145700  0.96452600  1
  S  S8  1  0.05470900  0.62194300  0.29740100  1
  S  S9  1  0.55975300  0.38056700  0.20257300  1
  S  S10  1  0.94253400  0.37802600  0.70635600  1
  S  S11  1  0.44483100  0.61399200  0.79910800  1
  S  S12  1  0.16787500  0.04558900  0.28543700  1
  S  S13  1  0.66879400  0.95942500  0.21415600  1
  S  S14  1  0.83028700  0.95161200  0.71284600  1
  S  S15  1  0.33017800  0.04256600  0.78544200  1
loop_
_geom_bond_atom_site_label_1
_geom_bond_atom_site_label_2
_geom_bond_distance
_geom_bond_site_symmetry_2
S0 Ti0 2.367476 1_655
S0 Tl2 3.004495 1_555
S0 Tl6 3.012483 1_565
S0 Tl4 3.145638 1_655
S0 Tl8 3.190303 1_555
S1 Ti1 2.274433 1_555
S1 Tl7 3.012286 1_545
S1 Tl5 3.042074 1_554
S1 Tl3 3.082051 1_555
S1 Tl9 3.150606 1_554
S2 Ti2 2.241323 1_455
S2 Tl4 2.980611 1_545
S2 Tl0 3.054795 1_555
S2 Tl6 3.122871 1_455
S2 Tl10 3.174133 1_555
S3 Ti3 2.368182 1_555
S3 Tl5 2.988947 1_565
S3 Tl1 2.997095 1_555
S3 Tl7 3.095927 1_556
S3 Tl11 3.148506 1_556
S4 Ti0 2.176439 1_555
S4 Tl10 3.008276 1_555
S4 Tl14 3.092040 1_565
S5 Ti1 2.251382 1_555
S5 Tl11 3.005377 1_555
S5 Tl15 3.087728 1_545
S6 Ti2 2.306684 1_555
S6 Tl8 2.998500 1_555
S6 Tl12 3.187152 1_545
S7 Ti3 2.259332 1_555
S7 Tl9 3.024696 1_555
S7 Tl13 3.162931 1_565
S8 Ti0 2.242883 1_555
S8 Tl2 2.984396 1_455
S8 Tl10 3.020693 1_555
S9 Ti1 2.199947 1_555
S9 Tl11 2.989566 1_555
S9 Tl3 3.052401 1_555
S10 Ti2 2.294338 1_555
S10 Tl0 2.962695 1_655
S10 Tl8 2.990970 1_555
S11 Ti3 2.216531 1_555
S11 Tl9 2.971050 1_555
S11 Tl1 2.995479 1_555
S12 Ti0 2.324640 1_545
S12 Tl14 2.969207 1_555
S12 Tl15 3.044798 1_445
S12 Tl6 3.104037 1_455
S12 Tl3 3.221423 1_555
S13 Ti1 2.315489 1_565
S13 Tl14 3.005588 1_565
S13 Tl15 3.047082 1_555
S13 Tl7 3.106734 1_555
S13 Tl2 3.196976 1_555
S14 Ti2 2.325664 1_565
S14 Tl12 2.951783 1_555
S14 Tl4 3.091175 1_655
S14 Tl13 3.112543 1_665
S14 Tl1 3.202555 1_555
S15 Ti3 2.298355 1_545
S15 Tl13 2.980352 1_555
S15 Tl12 3.040480 1_545
S15 Tl5 3.096479 1_555
S15 Tl0 3.199500 1_555
