# generated using pymatgen
data_YbH3
_symmetry_space_group_name_H-M   'P 1'
_cell_length_a   3.53616599
_cell_length_b   3.53616599
_cell_length_c   3.53616599
_cell_angle_alpha   60.00000000
_cell_angle_beta   60.00000000
_cell_angle_gamma   60.00000000
_symmetry_Int_Tables_number   1
_chemical_formula_structural   YbH3
_chemical_formula_sum   'Yb1 H3'
_cell_volume   31.26676355
_cell_formula_units_Z   1
loop_
 _symmetry_equiv_pos_site_id
 _symmetry_equiv_pos_as_xyz
  1  'x, y, z'
loop_
 _atom_site_type_symbol
 _atom_site_label
 _atom_site_symmetry_multiplicity
 _atom_site_fract_x
 _atom_site_fract_y
 _atom_site_fract_z
 _atom_site_occupancy
  Yb  Yb0  1  0.00000000  0.00000000  0.00000000  1
  H  H0  1  0.75000000  0.75000000  0.75000000  1
  H  H1  1  0.25000000  0.25000000  0.25000000  1
  H  H2  1  0.50000000  0.50000000  0.50000000  1
loop_
_geom_bond_atom_site_label_1
_geom_bond_atom_site_label_2
_geom_bond_distance
_geom_bond_site_symmetry_2
H0 Yb0 2.165451 1_566
H0 Yb0 2.165451 1_656
H0 Yb0 2.165451 1_666
H0 Yb0 2.165451 1_665
H1 Yb0 2.165451 1_565
H1 Yb0 2.165451 1_555
H1 Yb0 2.165451 1_556
H1 Yb0 2.165451 1_655
H2 Yb0 2.500447 1_656
H2 Yb0 2.500447 1_665
H2 Yb0 2.500447 1_556
H2 Yb0 2.500447 1_566
H2 Yb0 2.500447 1_655
H2 Yb0 2.500447 1_565
