# generated using pymatgen
data_In4SnS8
_symmetry_space_group_name_H-M   'P 1'
_cell_length_a   7.66262476
_cell_length_b   7.66262476
_cell_length_c   7.66262556
_cell_angle_alpha   60.13647611
_cell_angle_beta   60.13647611
_cell_angle_gamma   60.13647562
_symmetry_Int_Tables_number   1
_chemical_formula_structural   In4SnS8
_chemical_formula_sum   'In4 Sn1 S8'
_cell_volume   319.12314786
_cell_formula_units_Z   1
loop_
 _symmetry_equiv_pos_site_id
 _symmetry_equiv_pos_as_xyz
  1  'x, y, z'
loop_
 _atom_site_type_symbol
 _atom_site_label
 _atom_site_symmetry_multiplicity
 _atom_site_fract_x
 _atom_site_fract_y
 _atom_site_fract_z
 _atom_site_occupancy
  In  In0  1  0.47228000  0.00986000  0.00986000  1
  In  In1  1  0.00986000  0.00986000  0.47228000  1
  In  In2  1  0.00986000  0.47228000  0.00986000  1
  In  In3  1  0.62770100  0.62770100  0.62770100  1
  Sn  Sn0  1  0.01056900  0.01056900  0.01056900  1
  S  S0  1  0.24260700  0.24260700  0.75743800  1
  S  S1  1  0.75743800  0.24260700  0.24260700  1
  S  S2  1  0.24260700  0.75743800  0.24260700  1
  S  S3  1  0.24640500  0.24640500  0.24640500  1
  S  S4  1  0.76164100  0.76164100  0.76164100  1
  S  S5  1  0.76162200  0.22079200  0.76162200  1
  S  S6  1  0.22079200  0.76162200  0.76162200  1
  S  S7  1  0.76162200  0.76162200  0.22079200  1
loop_
_geom_bond_atom_site_label_1
_geom_bond_atom_site_label_2
_geom_bond_distance
_geom_bond_site_symmetry_2
In0 S3 2.567049 1_555
In0 S2 2.616873 1_545
In0 S0 2.616873 1_554
In0 S4 2.711927 1_544
In0 S5 2.730072 1_554
In0 S7 2.730072 1_545
In1 S3 2.567049 1_555
In1 S2 2.616873 1_545
In1 S1 2.616873 1_455
In1 S4 2.711927 1_445
In1 S5 2.730072 1_455
In1 S6 2.730072 1_545
In2 S3 2.567049 1_555
In2 S1 2.616873 1_455
In2 S0 2.616873 1_554
In2 S4 2.711927 1_454
In2 S6 2.730072 1_554
In2 S7 2.730072 1_455
In3 S4 2.511394 1_555
In3 S6 2.550262 1_555
In3 S5 2.550262 1_555
In3 S7 2.550262 1_555
S0 Sn0 2.522748 1_556
S1 Sn0 2.522748 1_655
S2 Sn0 2.522748 1_565
S5 Sn0 2.715912 1_656
S6 Sn0 2.715912 1_566
S7 Sn0 2.715912 1_665
