# generated using pymatgen
data_Sb6Pb6S17
_symmetry_space_group_name_H-M   'P 1'
_cell_length_a   3.99170600
_cell_length_b   15.64545900
_cell_length_c   23.37396500
_cell_angle_alpha   90.00000000
_cell_angle_beta   90.00000000
_cell_angle_gamma   90.00000000
_symmetry_Int_Tables_number   1
_chemical_formula_structural   Sb6Pb6S17
_chemical_formula_sum   'Sb12 Pb12 S34'
_cell_volume   1459.75255827
_cell_formula_units_Z   2
loop_
 _symmetry_equiv_pos_site_id
 _symmetry_equiv_pos_as_xyz
  1  'x, y, z'
loop_
 _atom_site_type_symbol
 _atom_site_label
 _atom_site_symmetry_multiplicity
 _atom_site_fract_x
 _atom_site_fract_y
 _atom_site_fract_z
 _atom_site_occupancy
  Sb  Sb0  1  0.50120700  0.82427800  0.39814700  1
  Sb  Sb1  1  0.52588500  0.43458800  0.93011700  1
  Sb  Sb2  1  0.47411500  0.93458800  0.56988300  1
  Sb  Sb3  1  0.51192000  0.55778700  0.75804700  1
  Sb  Sb4  1  0.47411500  0.06541200  0.43011700  1
  Sb  Sb5  1  0.52588500  0.56541200  0.06988300  1
  Sb  Sb6  1  0.49879300  0.32427800  0.10185300  1
  Sb  Sb7  1  0.49879300  0.67572200  0.89814700  1
  Sb  Sb8  1  0.48808000  0.05778700  0.74195300  1
  Sb  Sb9  1  0.51192000  0.44221300  0.24195300  1
  Sb  Sb10  1  0.48808000  0.94221300  0.25804700  1
  Sb  Sb11  1  0.50120700  0.17572200  0.60185300  1
  Pb  Pb0  1  0.99593900  0.17872400  0.29590100  1
  Pb  Pb1  1  0.00140500  0.07946000  0.12532100  1
  Pb  Pb2  1  0.99593900  0.82127600  0.70409900  1
  Pb  Pb3  1  0.00211600  0.79839100  0.03768900  1
  Pb  Pb4  1  0.99788400  0.70160900  0.53768900  1
  Pb  Pb5  1  0.99859500  0.42054000  0.62532100  1
  Pb  Pb6  1  0.00140500  0.92054000  0.87467900  1
  Pb  Pb7  1  0.00406100  0.67872400  0.20409900  1
  Pb  Pb8  1  0.99788400  0.29839100  0.46231100  1
  Pb  Pb9  1  0.99859500  0.57946000  0.37467900  1
  Pb  Pb10  1  0.00211600  0.20160900  0.96231100  1
  Pb  Pb11  1  0.00406100  0.32127600  0.79590100  1
  S  S0  1  0.99147100  0.48008700  0.85077100  1
  S  S1  1  0.49946400  0.29095200  0.88584700  1
  S  S2  1  0.77686500  0.00000000  0.00000000  1
  S  S3  1  0.50053600  0.79095200  0.61415300  1
  S  S4  1  0.99375000  0.62363900  0.99641700  1
  S  S5  1  0.22313500  0.50000000  0.50000000  1
  S  S6  1  0.50053600  0.20904800  0.38584700  1
  S  S7  1  0.49453600  0.18600400  0.05333200  1
  S  S8  1  0.50341400  0.40950500  0.72142700  1
  S  S9  1  0.00625000  0.12363900  0.50358300  1
  S  S10  1  0.49707800  0.95539300  0.06875200  1
  S  S11  1  0.00270200  0.09867200  0.80822100  1
  S  S12  1  0.00417200  0.77442900  0.33465700  1
  S  S13  1  0.00625000  0.87636100  0.49641700  1
  S  S14  1  0.49453600  0.81399600  0.94666800  1
  S  S15  1  0.49707800  0.04460700  0.93124800  1
  S  S16  1  0.00417200  0.22557100  0.66534300  1
  S  S17  1  0.50546400  0.68600400  0.44666800  1
  S  S18  1  0.00852900  0.01991300  0.35077100  1
  S  S19  1  0.50341400  0.59049500  0.27857300  1
  S  S20  1  0.50292200  0.54460700  0.56875200  1
  S  S21  1  0.49658600  0.09049500  0.22142700  1
  S  S22  1  0.99582800  0.27442900  0.16534300  1
  S  S23  1  0.00852900  0.98008700  0.64922900  1
  S  S24  1  0.99729800  0.59867200  0.69177900  1
  S  S25  1  0.99375000  0.37636100  0.00358300  1
  S  S26  1  0.49946400  0.70904800  0.11415300  1
  S  S27  1  0.00270200  0.90132800  0.19177900  1
  S  S28  1  0.99729800  0.40132800  0.30822100  1
  S  S29  1  0.50546400  0.31399600  0.55333200  1
  S  S30  1  0.99582800  0.72557100  0.83465700  1
  S  S31  1  0.50292200  0.45539300  0.43124800  1
  S  S32  1  0.49658600  0.90950500  0.77857300  1
  S  S33  1  0.99147100  0.51991300  0.14922900  1
loop_
_geom_bond_atom_site_label_1
_geom_bond_atom_site_label_2
_geom_bond_distance
_geom_bond_site_symmetry_2
Pb0 S18 2.796605 1_655
Pb0 S6 2.925007 1_555
Pb0 S6 2.949943 1_655
Pb0 S21 2.984762 1_555
Pb0 S21 2.988214 1_655
Pb1 S21 2.997172 1_555
Pb1 S21 3.022682 1_455
Pb1 S10 3.070980 1_545
Pb1 S7 3.079734 1_555
Pb1 S10 3.093349 1_445
Pb1 S7 3.115069 1_455
Pb1 S27 3.190637 1_545
Pb1 S22 3.190677 1_455
Pb2 S23 2.796605 1_655
Pb2 S3 2.925007 1_555
Pb2 S3 2.949943 1_655
Pb2 S32 2.984762 1_555
Pb2 S32 2.988214 1_655
Pb3 S4 2.899467 1_454
Pb3 S14 2.906806 1_554
Pb3 S14 2.948064 1_454
Pb3 S26 3.014878 1_555
Pb3 S26 3.028861 1_455
Pb3 S10 3.234884 1_555
Pb3 S10 3.259605 1_455
Pb4 S13 2.899467 1_655
Pb4 S17 2.906806 1_555
Pb4 S17 2.948064 1_655
Pb4 S3 3.014878 1_555
Pb4 S3 3.028861 1_655
Pb4 S20 3.234884 1_555
Pb4 S20 3.259605 1_655
Pb5 S8 2.997172 1_555
Pb5 S8 3.022682 1_655
Pb5 S20 3.070980 1_555
Pb5 S29 3.079734 1_555
Pb5 S20 3.093349 1_655
Pb5 S29 3.115069 1_655
Pb5 S24 3.190637 1_555
Pb5 S16 3.190677 1_655
Pb6 S32 2.997172 1_555
Pb6 S32 3.022682 1_455
Pb6 S15 3.070980 1_565
Pb6 S14 3.079734 1_555
Pb6 S15 3.093349 1_465
Pb6 S14 3.115069 1_455
Pb6 S11 3.190637 1_565
Pb6 S30 3.190677 1_455
Pb7 S33 2.796605 1_455
Pb7 S26 2.925007 1_555
Pb7 S26 2.949943 1_455
Pb7 S19 2.984762 1_555
Pb7 S19 2.988214 1_455
Pb8 S9 2.899467 1_655
Pb8 S29 2.906806 1_555
Pb8 S29 2.948064 1_655
Pb8 S6 3.014878 1_555
Pb8 S6 3.028861 1_655
Pb8 S31 3.234884 1_555
Pb8 S31 3.259605 1_655
Pb9 S19 2.997172 1_555
Pb9 S19 3.022682 1_655
Pb9 S31 3.070980 1_555
Pb9 S17 3.079734 1_555
Pb9 S31 3.093349 1_655
Pb9 S17 3.115069 1_655
Pb9 S28 3.190637 1_555
Pb9 S12 3.190677 1_655
Pb10 S25 2.899467 1_456
Pb10 S7 2.906806 1_556
Pb10 S7 2.948064 1_456
Pb10 S1 3.014878 1_555
Pb10 S1 3.028861 1_455
Pb10 S15 3.234884 1_555
Pb10 S15 3.259605 1_455
Pb11 S0 2.796605 1_455
Pb11 S1 2.925007 1_555
Pb11 S1 2.949943 1_455
Pb11 S8 2.984762 1_555
Pb11 S8 2.988214 1_455
S0 Sb1 2.720358 1_555
S0 Sb1 2.914967 1_655
S1 Sb1 2.476288 1_555
S3 Sb2 2.476288 1_555
S4 Sb5 2.695645 1_556
S4 Sb5 2.879333 1_656
S4 Sb7 3.137436 1_555
S4 Sb7 3.162944 1_655
S6 Sb4 2.476288 1_555
S7 Sb6 2.442675 1_555
S8 Sb3 2.473041 1_555
S9 Sb4 2.695645 1_555
S9 Sb4 2.879333 1_455
S9 Sb11 3.137436 1_555
S9 Sb11 3.162944 1_455
S10 S2 2.077699 1_565
S11 Sb8 2.561690 1_555
S11 Sb8 2.651080 1_455
S12 Sb0 2.597476 1_555
S12 Sb0 2.615601 1_455
S13 Sb2 2.695645 1_555
S13 Sb2 2.879333 1_455
S13 Sb0 3.137436 1_555
S13 Sb0 3.162944 1_455
S14 Sb7 2.442675 1_555
S15 S2 2.077699 1_556
S16 Sb11 2.597476 1_555
S16 Sb11 2.615601 1_455
S17 Sb0 2.442675 1_555
S18 Sb4 2.720358 1_555
S18 Sb4 2.914967 1_455
S19 Sb9 2.473041 1_555
S20 S5 2.077699 1_555
S21 Sb10 2.473041 1_545
S22 Sb6 2.597476 1_555
S22 Sb6 2.615601 1_655
S23 Sb2 2.720358 1_555
S23 Sb2 2.914967 1_455
S24 Sb3 2.561690 1_555
S24 Sb3 2.651080 1_655
S25 Sb1 2.695645 1_554
S25 Sb1 2.879333 1_654
S25 Sb6 3.137436 1_555
S25 Sb6 3.162944 1_655
S26 Sb5 2.476288 1_555
S27 Sb10 2.561690 1_555
S27 Sb10 2.651080 1_455
S28 Sb9 2.561690 1_555
S28 Sb9 2.651080 1_655
S29 Sb11 2.442675 1_555
S30 Sb7 2.597476 1_555
S30 Sb7 2.615601 1_655
S31 S5 2.077699 1_555
S32 Sb8 2.473041 1_565
S33 Sb5 2.720358 1_555
S33 Sb5 2.914967 1_655
