# generated using pymatgen
data_SiO2
_symmetry_space_group_name_H-M   'P 1'
_cell_length_a   13.38371349
_cell_length_b   13.38371349
_cell_length_c   20.85589100
_cell_angle_alpha   90.00000000
_cell_angle_beta   90.00000000
_cell_angle_gamma   116.84496195
_symmetry_Int_Tables_number   1
_chemical_formula_structural   SiO2
_chemical_formula_sum   'Si56 O112'
_cell_volume   3333.18693860
_cell_formula_units_Z   56
loop_
 _symmetry_equiv_pos_site_id
 _symmetry_equiv_pos_as_xyz
  1  'x, y, z'
loop_
 _atom_site_type_symbol
 _atom_site_label
 _atom_site_symmetry_multiplicity
 _atom_site_fract_x
 _atom_site_fract_y
 _atom_site_fract_z
 _atom_site_occupancy
  Si  Si0  1  0.54874700  0.45125300  0.30819900  1
  Si  Si1  1  0.04874700  0.95125300  0.69180100  1
  Si  Si2  1  0.55869400  0.81507900  0.93605000  1
  Si  Si3  1  0.31507900  0.05869400  0.93605000  1
  Si  Si4  1  0.22197300  0.35561400  0.18480300  1
  Si  Si5  1  0.05048800  0.94951200  0.94586400  1
  Si  Si6  1  0.52820200  0.47179800  0.81890900  1
  Si  Si7  1  0.36405000  0.86405000  0.87631600  1
  Si  Si8  1  0.02820200  0.97179800  0.18109100  1
  Si  Si9  1  0.13595000  0.63595000  0.87631600  1
  Si  Si10  1  0.97179800  0.02820200  0.81890900  1
  Si  Si11  1  0.18284300  0.43172100  0.69287200  1
  Si  Si12  1  0.35561400  0.22197300  0.81519700  1
  Si  Si13  1  0.43172100  0.18284300  0.30712800  1
  Si  Si14  1  0.27802700  0.14438600  0.18480300  1
  Si  Si15  1  0.31715700  0.06827900  0.69287200  1
  Si  Si16  1  0.47179800  0.52820200  0.18109100  1
  Si  Si17  1  0.64438600  0.77802700  0.18480300  1
  Si  Si18  1  0.13437800  0.63437800  0.72369800  1
  Si  Si19  1  0.64512500  0.78058800  0.43100700  1
  Si  Si20  1  0.85561400  0.72197300  0.18480300  1
  Si  Si21  1  0.86562200  0.36562200  0.27630200  1
  Si  Si22  1  0.06827900  0.31715700  0.30712800  1
  Si  Si23  1  0.72197300  0.85561400  0.81519700  1
  Si  Si24  1  0.81507900  0.55869400  0.06395000  1
  Si  Si25  1  0.46645600  0.53354400  0.43217700  1
  Si  Si26  1  0.68284300  0.93172100  0.30712800  1
  Si  Si27  1  0.68492100  0.94130600  0.06395000  1
  Si  Si28  1  0.21941200  0.35487500  0.43100700  1
  Si  Si29  1  0.96645600  0.03354400  0.56782300  1
  Si  Si30  1  0.55048800  0.44951200  0.05413600  1
  Si  Si31  1  0.77802700  0.64438600  0.81519700  1
  Si  Si32  1  0.14438600  0.27802700  0.81519700  1
  Si  Si33  1  0.28058800  0.14512500  0.43100700  1
  Si  Si34  1  0.94130600  0.68492100  0.93605000  1
  Si  Si35  1  0.78058800  0.64512500  0.56899300  1
  Si  Si36  1  0.95125300  0.04874700  0.30819900  1
  Si  Si37  1  0.05869400  0.31507900  0.06395000  1
  Si  Si38  1  0.93172100  0.68284300  0.69287200  1
  Si  Si39  1  0.53354400  0.46645600  0.56782300  1
  Si  Si40  1  0.44130600  0.18492100  0.06395000  1
  Si  Si41  1  0.56827900  0.81715700  0.69287200  1
  Si  Si42  1  0.81715700  0.56827900  0.30712800  1
  Si  Si43  1  0.85487500  0.71941200  0.43100700  1
  Si  Si44  1  0.86405000  0.36405000  0.12368400  1
  Si  Si45  1  0.44951200  0.55048800  0.94586400  1
  Si  Si46  1  0.35487500  0.21941200  0.56899300  1
  Si  Si47  1  0.71941200  0.85487500  0.56899300  1
  Si  Si48  1  0.63437800  0.13437800  0.27630200  1
  Si  Si49  1  0.03354400  0.96645600  0.43217700  1
  Si  Si50  1  0.63595000  0.13595000  0.12368400  1
  Si  Si51  1  0.14512500  0.28058800  0.56899300  1
  Si  Si52  1  0.36562200  0.86562200  0.72369800  1
  Si  Si53  1  0.18492100  0.44130600  0.93605000  1
  Si  Si54  1  0.94951200  0.05048800  0.05413600  1
  Si  Si55  1  0.45125300  0.54874700  0.69180100  1
  O  O0  1  0.36063700  0.97316600  0.69065000  1
  O  O1  1  0.64838100  0.03341400  0.09046800  1
  O  O2  1  0.49502400  0.31750900  0.30112500  1
  O  O3  1  0.52230600  0.47769400  0.12575500  1
  O  O4  1  0.25000000  0.25000000  0.57661600  1
  O  O5  1  0.00136600  0.99863400  0.74884500  1
  O  O6  1  0.99502400  0.81750900  0.69887500  1
  O  O7  1  0.52683400  0.13936300  0.30935000  1
  O  O8  1  0.97316600  0.36063700  0.30935000  1
  O  O9  1  0.33608100  0.47252800  0.17562600  1
  O  O10  1  0.47252800  0.33608100  0.82437400  1
  O  O11  1  0.16331900  0.34874200  0.88089800  1
  O  O12  1  0.50178100  0.68429300  0.95593600  1
  O  O13  1  0.88802500  0.38802500  0.19981300  1
  O  O14  1  0.75000000  0.25000000  0.11296200  1
  O  O15  1  0.02683400  0.63936300  0.69065000  1
  O  O16  1  0.36236800  0.14584800  0.37381300  1
  O  O17  1  0.14838100  0.53341400  0.90953200  1
  O  O18  1  0.65125800  0.83668100  0.88089800  1
  O  O19  1  0.66391900  0.52747200  0.82437400  1
  O  O20  1  0.99863400  0.00136600  0.25115500  1
  O  O21  1  0.86777700  0.65182900  0.24583400  1
  O  O22  1  0.15741200  0.34258800  0.50000000  1
  O  O23  1  0.49821900  0.31570700  0.04406400  1
  O  O24  1  0.63936300  0.02683400  0.30935000  1
  O  O25  1  0.47316600  0.86063700  0.69065000  1
  O  O26  1  0.63763200  0.85415200  0.62618700  1
  O  O27  1  0.38691100  0.11308900  0.00000000  1
  O  O28  1  0.65182900  0.86777700  0.75416600  1
  O  O29  1  0.31570700  0.49821900  0.95593600  1
  O  O30  1  0.47608300  0.33052900  0.57280400  1
  O  O31  1  0.81570700  0.99821900  0.04406400  1
  O  O32  1  0.47769400  0.52230600  0.87424500  1
  O  O33  1  0.86063700  0.47316600  0.30935000  1
  O  O34  1  0.35161900  0.96658600  0.90953200  1
  O  O35  1  0.14584800  0.36236800  0.62618700  1
  O  O36  1  0.63222300  0.84817100  0.24583400  1
  O  O37  1  0.68249100  0.50497600  0.30112500  1
  O  O38  1  0.85161900  0.46658600  0.09046800  1
  O  O39  1  0.34817100  0.13222300  0.24583400  1
  O  O40  1  0.98448000  0.01552000  0.37637400  1
  O  O41  1  0.35415200  0.13763200  0.62618700  1
  O  O42  1  0.84258800  0.65741200  0.50000000  1
  O  O43  1  0.02391700  0.16947100  0.57280400  1
  O  O44  1  0.97608300  0.83052900  0.42719600  1
  O  O45  1  0.02747200  0.16391900  0.82437400  1
  O  O46  1  0.86236800  0.64584800  0.62618700  1
  O  O47  1  0.00000000  0.00000000  0.50000000  1
  O  O48  1  0.50136600  0.49863400  0.25115500  1
  O  O49  1  0.48448000  0.51552000  0.62362600  1
  O  O50  1  0.13936300  0.52683400  0.69065000  1
  O  O51  1  0.68429300  0.50178100  0.04406400  1
  O  O52  1  0.85415200  0.63763200  0.37381300  1
  O  O53  1  0.25000000  0.25000000  0.19693600  1
  O  O54  1  0.31750900  0.49502400  0.69887500  1
  O  O55  1  0.25000000  0.75000000  0.71188400  1
  O  O56  1  0.25000000  0.75000000  0.88703800  1
  O  O57  1  0.96658600  0.35161900  0.09046800  1
  O  O58  1  0.64584800  0.86236800  0.37381300  1
  O  O59  1  0.66331900  0.84874200  0.11910200  1
  O  O60  1  0.49863400  0.50136600  0.74884500  1
  O  O61  1  0.83052900  0.97608300  0.57280400  1
  O  O62  1  0.75000000  0.75000000  0.19693600  1
  O  O63  1  0.50497600  0.68249100  0.69887500  1
  O  O64  1  0.36777700  0.15182900  0.75416600  1
  O  O65  1  0.51552000  0.48448000  0.37637400  1
  O  O66  1  0.25000000  0.25000000  0.80306400  1
  O  O67  1  0.46658600  0.85161900  0.90953200  1
  O  O68  1  0.52747200  0.66391900  0.17562600  1
  O  O69  1  0.50000000  0.50000000  0.50000000  1
  O  O70  1  0.34258800  0.15741200  0.50000000  1
  O  O71  1  0.00000000  0.00000000  0.00000000  1
  O  O72  1  0.33668100  0.15125800  0.88089800  1
  O  O73  1  0.75000000  0.75000000  0.57661600  1
  O  O74  1  0.83608100  0.97252800  0.82437400  1
  O  O75  1  0.00497600  0.18249100  0.30112500  1
  O  O76  1  0.13763200  0.35415200  0.37381300  1
  O  O77  1  0.16947100  0.02391700  0.42719600  1
  O  O78  1  0.88691100  0.61308900  0.00000000  1
  O  O79  1  0.84874200  0.66331900  0.88089800  1
  O  O80  1  0.75000000  0.75000000  0.42338400  1
  O  O81  1  0.61308900  0.88691100  0.00000000  1
  O  O82  1  0.84817100  0.63222300  0.75416600  1
  O  O83  1  0.83668100  0.65125800  0.11910200  1
  O  O84  1  0.15125800  0.33668100  0.11910200  1
  O  O85  1  0.81750900  0.99502400  0.30112500  1
  O  O86  1  0.97252800  0.83608100  0.17562600  1
  O  O87  1  0.02230600  0.97769400  0.87424500  1
  O  O88  1  0.13222300  0.34817100  0.75416600  1
  O  O89  1  0.25000000  0.25000000  0.42338400  1
  O  O90  1  0.03341400  0.64838100  0.90953200  1
  O  O91  1  0.15182900  0.36777700  0.24583400  1
  O  O92  1  0.18249100  0.00497600  0.69887500  1
  O  O93  1  0.00178100  0.18429300  0.04406400  1
  O  O94  1  0.01552000  0.98448000  0.62362600  1
  O  O95  1  0.11197500  0.61197500  0.80018700  1
  O  O96  1  0.38802500  0.88802500  0.80018700  1
  O  O97  1  0.50000000  0.50000000  0.00000000  1
  O  O98  1  0.75000000  0.25000000  0.28811600  1
  O  O99  1  0.97769400  0.02230600  0.12575500  1
  O  O100  1  0.53341400  0.14838100  0.09046800  1
  O  O101  1  0.18429300  0.00178100  0.95593600  1
  O  O102  1  0.75000000  0.75000000  0.80306400  1
  O  O103  1  0.66947100  0.52391700  0.57280400  1
  O  O104  1  0.61197500  0.11197500  0.19981300  1
  O  O105  1  0.65741200  0.84258800  0.50000000  1
  O  O106  1  0.52391700  0.66947100  0.42719600  1
  O  O107  1  0.99821900  0.81570700  0.95593600  1
  O  O108  1  0.34874200  0.16331900  0.11910200  1
  O  O109  1  0.16391900  0.02747200  0.17562600  1
  O  O110  1  0.33052900  0.47608300  0.42719600  1
  O  O111  1  0.11308900  0.38691100  0.00000000  1
loop_
_geom_bond_atom_site_label_1
_geom_bond_atom_site_label_2
_geom_bond_distance
_geom_bond_site_symmetry_2
O0 Si15 1.621805 1_565
O0 Si52 1.624172 1_555
O1 Si50 1.611530 1_555
O1 Si27 1.615295 1_545
O2 Si0 1.606372 1_555
O2 Si13 1.613308 1_555
O3 Si30 1.626066 1_555
O3 Si16 1.630496 1_555
O4 Si46 1.637674 1_555
O4 Si51 1.637674 1_555
O5 Si1 1.607118 1_555
O5 Si10 1.609311 1_465
O6 Si1 1.606372 1_655
O6 Si38 1.613308 1_555
O7 Si13 1.621805 1_555
O7 Si48 1.624172 1_555
O8 Si22 1.621805 1_655
O8 Si21 1.624172 1_555
O9 Si16 1.626386 1_555
O9 Si4 1.630683 1_555
O10 Si6 1.626386 1_555
O10 Si12 1.630683 1_555
O11 Si53 1.617997 1_555
O11 Si32 1.618930 1_555
O12 Si45 1.615256 1_555
O12 Si2 1.616151 1_555
O13 Si44 1.622912 1_555
O13 Si21 1.625859 1_555
O14 Si50 1.614181 1_555
O14 Si44 1.614181 1_555
O15 Si38 1.621805 1_455
O15 Si18 1.624172 1_555
O16 Si33 1.615967 1_555
O16 Si13 1.620461 1_555
O17 Si9 1.611530 1_555
O17 Si53 1.615295 1_555
O18 Si2 1.617997 1_555
O18 Si23 1.618930 1_555
O19 Si6 1.626386 1_555
O19 Si31 1.630683 1_555
O20 Si36 1.607118 1_555
O20 Si8 1.609311 1_645
O21 Si42 1.630745 1_555
O21 Si20 1.632790 1_555
O22 Si51 1.631814 1_555
O22 Si28 1.631814 1_555
O23 Si30 1.615256 1_555
O23 Si40 1.616151 1_555
O24 Si26 1.621805 1_545
O24 Si48 1.624172 1_555
O25 Si41 1.621805 1_555
O25 Si52 1.624172 1_555
O26 Si47 1.615967 1_555
O26 Si41 1.620461 1_555
O27 Si40 1.612756 1_555
O27 Si3 1.612756 1_554
O28 Si41 1.630745 1_555
O28 Si23 1.632790 1_555
O29 Si45 1.615256 1_555
O29 Si53 1.616151 1_555
O30 Si39 1.627322 1_555
O30 Si46 1.634222 1_555
O31 Si54 1.615256 1_565
O31 Si27 1.616151 1_555
O32 Si45 1.626066 1_555
O32 Si6 1.630496 1_555
O33 Si42 1.621805 1_555
O33 Si21 1.624172 1_555
O34 Si7 1.611530 1_555
O34 Si3 1.615295 1_565
O35 Si51 1.615967 1_555
O35 Si11 1.620461 1_555
O36 Si26 1.630745 1_555
O36 Si17 1.632790 1_555
O37 Si0 1.606372 1_555
O37 Si42 1.613308 1_555
O38 Si44 1.611530 1_555
O38 Si24 1.615295 1_555
O39 Si13 1.630745 1_555
O39 Si14 1.632790 1_555
O40 Si36 1.611143 1_555
O40 Si49 1.614411 1_645
O41 Si46 1.615967 1_555
O41 Si15 1.620461 1_555
O42 Si43 1.631814 1_555
O42 Si35 1.631814 1_555
O43 Si29 1.627322 1_455
O43 Si51 1.634222 1_555
O44 Si49 1.627322 1_655
O44 Si43 1.634222 1_555
O45 Si10 1.626386 1_455
O45 Si32 1.630683 1_555
O46 Si35 1.615967 1_555
O46 Si38 1.620461 1_555
O47 Si29 1.608094 1_455
O47 Si49 1.608094 1_545
O48 Si0 1.607118 1_555
O48 Si16 1.609311 1_555
O49 Si55 1.611143 1_555
O49 Si39 1.614411 1_555
O50 Si11 1.621805 1_555
O50 Si18 1.624172 1_555
O51 Si30 1.615256 1_555
O51 Si24 1.616151 1_555
O52 Si43 1.615967 1_555
O52 Si42 1.620461 1_555
O53 Si14 1.637561 1_555
O53 Si4 1.637561 1_555
O54 Si55 1.606372 1_555
O54 Si11 1.613308 1_555
O55 Si52 1.639274 1_555
O55 Si18 1.639274 1_555
O56 Si9 1.614181 1_555
O56 Si7 1.614181 1_555
O57 Si44 1.611530 1_555
O57 Si37 1.615295 1_655
O58 Si19 1.615967 1_555
O58 Si26 1.620461 1_555
O59 Si27 1.617997 1_555
O59 Si17 1.618930 1_555
O60 Si55 1.607118 1_555
O60 Si6 1.609311 1_555
O61 Si29 1.627322 1_565
O61 Si47 1.634222 1_555
O62 Si17 1.637561 1_555
O62 Si20 1.637561 1_555
O63 Si55 1.606372 1_555
O63 Si41 1.613308 1_555
O64 Si15 1.630745 1_555
O64 Si12 1.632790 1_555
O65 Si0 1.611143 1_555
O65 Si25 1.614411 1_555
O66 Si32 1.637561 1_555
O66 Si12 1.637561 1_555
O67 Si7 1.611530 1_555
O67 Si2 1.615295 1_555
O68 Si16 1.626386 1_555
O68 Si17 1.630683 1_555
O69 Si39 1.608094 1_555
O69 Si25 1.608094 1_555
O70 Si46 1.631814 1_555
O70 Si33 1.631814 1_555
O71 Si54 1.612553 1_455
O71 Si5 1.612553 1_544
O72 Si3 1.617997 1_555
O72 Si12 1.618930 1_555
O73 Si47 1.637674 1_555
O73 Si35 1.637674 1_555
O74 Si10 1.626386 1_565
O74 Si23 1.630683 1_555
O75 Si36 1.606372 1_455
O75 Si22 1.613308 1_555
O76 Si28 1.615967 1_555
O76 Si22 1.620461 1_555
O77 Si49 1.627322 1_545
O77 Si33 1.634222 1_555
O78 Si34 1.612756 1_554
O78 Si24 1.612756 1_555
O79 Si34 1.617997 1_555
O79 Si31 1.618930 1_555
O80 Si43 1.637674 1_555
O80 Si19 1.637674 1_555
O81 Si2 1.612756 1_554
O81 Si27 1.612756 1_555
O82 Si38 1.630745 1_555
O82 Si31 1.632790 1_555
O83 Si24 1.617997 1_555
O83 Si20 1.618930 1_555
O84 Si37 1.617997 1_555
O84 Si4 1.618930 1_555
O85 Si36 1.606372 1_565
O85 Si26 1.613308 1_555
O86 Si8 1.626386 1_655
O86 Si20 1.630683 1_555
O87 Si5 1.626066 1_555
O87 Si10 1.630496 1_465
O88 Si11 1.630745 1_555
O88 Si32 1.632790 1_555
O89 Si33 1.637674 1_555
O89 Si28 1.637674 1_555
O90 Si9 1.611530 1_555
O90 Si34 1.615295 1_455
O91 Si22 1.630745 1_555
O91 Si4 1.632790 1_555
O92 Si1 1.606372 1_545
O92 Si15 1.613308 1_555
O93 Si54 1.615256 1_455
O93 Si37 1.616151 1_555
O94 Si1 1.611143 1_555
O94 Si29 1.614411 1_465
O95 Si9 1.622912 1_555
O95 Si18 1.625859 1_555
O96 Si7 1.622912 1_555
O96 Si52 1.625859 1_555
O97 Si30 1.612553 1_555
O97 Si45 1.612553 1_554
O98 Si21 1.639274 1_555
O98 Si48 1.639274 1_555
O99 Si54 1.626066 1_555
O99 Si8 1.630496 1_645
O100 Si50 1.611530 1_555
O100 Si40 1.615295 1_555
O101 Si5 1.615256 1_545
O101 Si3 1.616151 1_555
O102 Si31 1.637561 1_555
O102 Si23 1.637561 1_555
O103 Si39 1.627322 1_555
O103 Si35 1.634222 1_555
O104 Si50 1.622912 1_555
O104 Si48 1.625859 1_555
O105 Si47 1.631814 1_555
O105 Si19 1.631814 1_555
O106 Si25 1.627322 1_555
O106 Si19 1.634222 1_555
O107 Si5 1.615256 1_655
O107 Si34 1.616151 1_555
O108 Si40 1.617997 1_555
O108 Si14 1.618930 1_555
O109 Si8 1.626386 1_545
O109 Si14 1.630683 1_555
O110 Si25 1.627322 1_555
O110 Si28 1.634222 1_555
O111 Si53 1.612756 1_554
O111 Si37 1.612756 1_555
