# generated using pymatgen
data_Na3Sm17Si12(O25F)2
_symmetry_space_group_name_H-M   'P 1'
_cell_length_a   9.56910746
_cell_length_b   9.56910746
_cell_length_c   14.01834500
_cell_angle_alpha   90.00000000
_cell_angle_beta   90.00000000
_cell_angle_gamma   119.99999629
_symmetry_Int_Tables_number   1
_chemical_formula_structural   Na3Sm17Si12(O25F)2
_chemical_formula_sum   'Na3 Sm17 Si12 O50 F2'
_cell_volume   1111.65558861
_cell_formula_units_Z   1
loop_
 _symmetry_equiv_pos_site_id
 _symmetry_equiv_pos_as_xyz
  1  'x, y, z'
loop_
 _atom_site_type_symbol
 _atom_site_label
 _atom_site_symmetry_multiplicity
 _atom_site_fract_x
 _atom_site_fract_y
 _atom_site_fract_z
 _atom_site_occupancy
  Na  Na0  1  0.33333300  0.66666700  0.74695300  1
  Na  Na1  1  0.66666700  0.33333300  0.99812200  1
  Na  Na2  1  0.66666700  0.33333300  0.49571100  1
  Sm  Sm0  1  0.23318400  0.99301300  0.12445200  1
  Sm  Sm1  1  0.24999100  0.99175700  0.62491800  1
  Sm  Sm2  1  0.00698700  0.24017100  0.12445200  1
  Sm  Sm3  1  0.00824300  0.25823400  0.62491800  1
  Sm  Sm4  1  0.33333300  0.66666700  0.50512200  1
  Sm  Sm5  1  0.33333300  0.66666700  0.99450700  1
  Sm  Sm6  1  0.33333300  0.66666700  0.24955000  1
  Sm  Sm7  1  0.24341300  0.23326200  0.37558400  1
  Sm  Sm8  1  0.25894500  0.25020300  0.87567300  1
  Sm  Sm9  1  0.75982900  0.76681600  0.12445200  1
  Sm  Sm10  1  0.74176600  0.75000900  0.62491800  1
  Sm  Sm11  1  0.66666700  0.33333300  0.24872500  1
  Sm  Sm12  1  0.66666700  0.33333300  0.75029300  1
  Sm  Sm13  1  0.98984900  0.75658700  0.37558400  1
  Sm  Sm14  1  0.99125700  0.74105500  0.87567300  1
  Sm  Sm15  1  0.76673800  0.01015100  0.37558400  1
  Sm  Sm16  1  0.74979700  0.00874300  0.87567300  1
  Si  Si0  1  0.02852100  0.39860600  0.37315000  1
  Si  Si1  1  0.02627500  0.39157100  0.87379400  1
  Si  Si2  1  0.37008600  0.97147900  0.37315000  1
  Si  Si3  1  0.36529600  0.97372500  0.87379400  1
  Si  Si4  1  0.39938100  0.37080800  0.12504800  1
  Si  Si5  1  0.39227100  0.36554100  0.62366000  1
  Si  Si6  1  0.60139400  0.62991400  0.37315000  1
  Si  Si7  1  0.60842900  0.63470400  0.87379400  1
  Si  Si8  1  0.62919200  0.02857300  0.12504800  1
  Si  Si9  1  0.63445900  0.02673000  0.62366000  1
  Si  Si10  1  0.97327000  0.60772900  0.62366000  1
  Si  Si11  1  0.97142700  0.60061900  0.12504800  1
  O  O0  1  0.00000000  0.00000000  0.12722200  1
  O  O1  1  0.25166500  0.90633700  0.46769200  1
  O  O2  1  0.24610000  0.90501900  0.96845900  1
  O  O3  1  0.24655500  0.89813800  0.28066700  1
  O  O4  1  0.23449800  0.91291900  0.78516300  1
  O  O5  1  0.12622700  0.59811100  0.37512800  1
  O  O6  1  0.11849100  0.59007000  0.87786200  1
  O  O7  1  0.16981400  0.68142200  0.12422900  1
  O  O8  1  0.16952800  0.69156900  0.62033700  1
  O  O9  1  0.10186200  0.34841600  0.28066700  1
  O  O10  1  0.08708100  0.32157900  0.78516300  1
  O  O11  1  0.09366300  0.34532800  0.46769200  1
  O  O12  1  0.09498100  0.34108100  0.96845900  1
  O  O13  1  0.00000000  0.00000000  0.37673400  1
  O  O14  1  0.47157900  0.88150900  0.87786200  1
  O  O15  1  0.47188500  0.87377300  0.37512800  1
  O  O16  1  0.31857800  0.48839200  0.12422900  1
  O  O17  1  0.30843100  0.47795900  0.62033700  1
  O  O18  1  0.51160800  0.83018600  0.12422900  1
  O  O19  1  0.52204100  0.83047200  0.62033700  1
  O  O20  1  0.40188900  0.52811500  0.37512800  1
  O  O21  1  0.40993000  0.52842100  0.87786200  1
  O  O22  1  0.32560300  0.24464400  0.03479400  1
  O  O23  1  0.32108400  0.23478900  0.53519100  1
  O  O24  1  0.34128200  0.24979300  0.21894400  1
  O  O25  1  0.33994300  0.24635100  0.71814700  1
  O  O26  1  0.65158400  0.75344500  0.28066700  1
  O  O27  1  0.65467200  0.74833500  0.46769200  1
  O  O28  1  0.67842100  0.76550200  0.78516300  1
  O  O29  1  0.65891900  0.75390000  0.96845900  1
  O  O30  1  0.59616200  0.47622200  0.12927100  1
  O  O31  1  0.59027100  0.47291600  0.62866400  1
  O  O32  1  0.47747300  0.16670700  0.36917500  1
  O  O33  1  0.47806000  0.16961300  0.86966500  1
  O  O34  1  0.68923400  0.52252700  0.36917500  1
  O  O35  1  0.69155300  0.52194000  0.86966500  1
  O  O36  1  0.52377800  0.11994000  0.12927100  1
  O  O37  1  0.52708400  0.11735500  0.62866400  1
  O  O38  1  0.91904000  0.67439700  0.03479400  1
  O  O39  1  0.90851100  0.65871800  0.21894400  1
  O  O40  1  0.91370500  0.67891600  0.53519100  1
  O  O41  1  0.90640800  0.66005700  0.71814700  1
  O  O42  1  0.83329300  0.31076600  0.36917500  1
  O  O43  1  0.83038700  0.30844700  0.86966500  1
  O  O44  1  0.88006000  0.40383800  0.12927100  1
  O  O45  1  0.88264500  0.40972900  0.62866400  1
  O  O46  1  0.75020700  0.09148900  0.21894400  1
  O  O47  1  0.75364900  0.09359200  0.71814700  1
  O  O48  1  0.75535600  0.08096000  0.03479400  1
  O  O49  1  0.76521100  0.08629500  0.53519100  1
  F  F0  1  0.00000000  0.00000000  0.63039800  1
  F  F1  1  0.00000000  0.00000000  0.87766600  1
loop_
_geom_bond_atom_site_label_1
_geom_bond_atom_site_label_2
_geom_bond_distance
_geom_bond_site_symmetry_2
Na0 O8 2.457170 1_555
Na0 O19 2.457174 1_555
Na0 O17 2.457177 1_555
Na0 O6 2.573824 1_555
Na0 O14 2.573825 1_555
Na0 O21 2.573830 1_555
Na1 O43 2.475260 1_555
Na1 O33 2.475264 1_555
Na1 O35 2.475266 1_555
Na1 O44 2.574345 1_556
Na1 O36 2.574347 1_556
Na1 O30 2.574352 1_556
Na2 O42 2.465708 1_555
Na2 O32 2.465712 1_555
Na2 O34 2.465715 1_555
Na2 O45 2.601646 1_555
Na2 O37 2.601647 1_555
Na2 O31 2.601653 1_555
O0 Sm0 2.265865 1_545
O0 Sm2 2.265865 1_555
O0 Sm9 2.265865 1_445
O1 Si2 1.650085 1_555
O1 Sm1 2.353574 1_555
O1 Sm13 2.531260 1_455
O1 Sm4 2.817472 1_555
O2 Si3 1.656615 1_555
O2 Sm0 2.368604 1_556
O2 Sm14 2.504848 1_455
O2 Sm5 2.817116 1_555
O3 Si2 1.655615 1_555
O3 Sm0 2.398398 1_555
O3 Sm13 2.512368 1_455
O3 Sm6 2.761377 1_555
O4 Si3 1.649410 1_555
O4 Sm1 2.350627 1_555
O4 Sm14 2.429876 1_455
O5 Si0 1.653664 1_555
O5 Sm13 2.445776 1_455
O5 Sm6 2.481300 1_555
O5 Sm4 2.525597 1_555
O6 Si1 1.647343 1_555
O6 Sm14 2.308629 1_455
O6 Sm5 2.435294 1_555
O7 Si11 1.653483 1_455
O7 Sm6 2.403241 1_555
O7 Sm5 2.448702 1_554
O7 Sm0 2.729449 1_555
O8 Si10 1.632810 1_455
O8 Sm4 2.344328 1_555
O8 Sm1 2.576173 1_555
O9 Si0 1.655615 1_555
O9 Sm2 2.398396 1_555
O9 Sm7 2.512361 1_555
O9 Sm6 2.761391 1_555
O10 Si1 1.649410 1_555
O10 Sm3 2.350627 1_555
O10 Sm8 2.429870 1_555
O11 Si0 1.650080 1_555
O11 Sm3 2.353574 1_555
O11 Sm7 2.531260 1_555
O11 Sm4 2.817478 1_555
O12 Si1 1.656615 1_555
O12 Sm2 2.368604 1_556
O12 Sm8 2.504842 1_555
O12 Sm5 2.817123 1_555
O13 Sm15 2.282285 1_455
O13 Sm13 2.282285 1_445
O13 Sm7 2.282285 1_555
O14 Si3 1.647343 1_555
O14 Sm16 2.308620 1_565
O14 Sm5 2.435296 1_555
O15 Si2 1.653664 1_555
O15 Sm15 2.445768 1_565
O15 Sm6 2.481303 1_555
O15 Sm4 2.525599 1_555
O16 Si4 1.653483 1_555
O16 Sm6 2.403248 1_555
O16 Sm5 2.448709 1_554
O16 Sm2 2.729449 1_555
O17 Si5 1.632810 1_555
O17 Sm4 2.344335 1_555
O17 Sm3 2.576173 1_555
O18 Si8 1.653483 1_565
O18 Sm6 2.403245 1_555
O18 Sm5 2.448706 1_554
O18 Sm9 2.729449 1_555
O19 Si9 1.632810 1_565
O19 Sm4 2.344332 1_555
O19 Sm10 2.576173 1_555
O20 Si6 1.653664 1_555
O20 Sm7 2.445768 1_555
O20 Sm6 2.481313 1_555
O20 Sm4 2.525609 1_555
O21 Si7 1.647343 1_555
O21 Sm8 2.308621 1_555
O21 Sm5 2.435301 1_555
O22 Si4 1.644498 1_555
O22 Sm8 2.327930 1_554
O22 Sm0 2.455656 1_545
O23 Si5 1.647801 1_555
O23 Sm7 2.355385 1_555
O23 Sm1 2.423064 1_545
O24 Si4 1.654938 1_555
O24 Sm7 2.361277 1_555
O24 Sm0 2.514068 1_545
O24 Sm11 2.831794 1_555
O25 Si5 1.653753 1_555
O25 Sm8 2.346713 1_555
O25 Sm1 2.507424 1_545
O25 Sm12 2.840479 1_555
O26 Si6 1.655615 1_555
O26 Sm9 2.398394 1_555
O26 Sm15 2.512368 1_565
O26 Sm6 2.761395 1_555
O27 Si6 1.650085 1_555
O27 Sm10 2.353574 1_555
O27 Sm15 2.531260 1_565
O27 Sm4 2.817481 1_555
O28 Si7 1.649410 1_555
O28 Sm10 2.350627 1_555
O28 Sm16 2.429878 1_565
O29 Si7 1.656615 1_555
O29 Sm9 2.368604 1_556
O29 Sm16 2.504849 1_565
O29 Sm5 2.817125 1_555
O30 Si4 1.633200 1_555
O30 Sm9 2.415531 1_555
O30 Sm11 2.459948 1_555
O31 Si5 1.644297 1_555
O31 Sm10 2.300235 1_555
O31 Sm12 2.490395 1_555
O32 Si2 1.621530 1_545
O32 Sm11 2.405066 1_555
O32 Sm7 2.618505 1_555
O33 Si3 1.630552 1_545
O33 Sm12 2.384213 1_555
O33 Sm8 2.571974 1_555
O34 Si6 1.621522 1_555
O34 Sm11 2.405069 1_555
O34 Sm13 2.618505 1_555
O35 Si7 1.630552 1_555
O35 Sm12 2.384216 1_555
O35 Sm14 2.571967 1_555
O36 Si8 1.633199 1_555
O36 Sm0 2.415531 1_545
O36 Sm11 2.459942 1_555
O37 Si9 1.644297 1_555
O37 Sm1 2.300235 1_545
O37 Sm12 2.490390 1_555
O38 Si11 1.644503 1_555
O38 Sm14 2.327930 1_554
O38 Sm9 2.455648 1_555
O39 Si11 1.654938 1_555
O39 Sm13 2.361277 1_555
O39 Sm9 2.514068 1_555
O39 Sm11 2.831792 1_555
O40 Si10 1.647801 1_555
O40 Sm13 2.355385 1_555
O40 Sm10 2.423064 1_555
O41 Si10 1.653753 1_555
O41 Sm14 2.346711 1_555
O41 Sm10 2.507424 1_555
O41 Sm12 2.840476 1_555
O42 Si0 1.621531 1_655
O42 Sm11 2.405062 1_555
O42 Sm15 2.618505 1_555
O43 Si1 1.630552 1_655
O43 Sm12 2.384209 1_555
O43 Sm16 2.571965 1_555
O44 Si11 1.633200 1_555
O44 Sm2 2.415531 1_655
O44 Sm11 2.459941 1_555
O45 Si10 1.644297 1_555
O45 Sm3 2.300235 1_655
O45 Sm12 2.490389 1_555
O46 Si8 1.654938 1_555
O46 Sm15 2.361277 1_555
O46 Sm2 2.514068 1_655
O46 Sm11 2.831785 1_555
O47 Si9 1.653753 1_555
O47 Sm16 2.346709 1_555
O47 Sm3 2.507424 1_655
O47 Sm12 2.840469 1_555
O48 Si8 1.644498 1_555
O48 Sm16 2.327930 1_554
O48 Sm2 2.455655 1_655
O49 Si9 1.647801 1_555
O49 Sm15 2.355385 1_555
O49 Sm3 2.423064 1_655
F0 Sm1 2.433802 1_545
F0 Sm3 2.433802 1_555
F0 Sm10 2.433802 1_445
F1 Sm14 2.437279 1_445
F1 Sm8 2.437283 1_555
F1 Sm16 2.437288 1_455
