# generated using pymatgen
data_YbH2
_symmetry_space_group_name_H-M   'P 1'
_cell_length_a   3.57613354
_cell_length_b   3.57613354
_cell_length_c   5.46960303
_cell_angle_alpha   90.00000000
_cell_angle_beta   90.00000000
_cell_angle_gamma   120.00000704
_symmetry_Int_Tables_number   1
_chemical_formula_structural   YbH2
_chemical_formula_sum   'Yb2 H4'
_cell_volume   60.57785116
_cell_formula_units_Z   2
loop_
 _symmetry_equiv_pos_site_id
 _symmetry_equiv_pos_as_xyz
  1  'x, y, z'
loop_
 _atom_site_type_symbol
 _atom_site_label
 _atom_site_symmetry_multiplicity
 _atom_site_fract_x
 _atom_site_fract_y
 _atom_site_fract_z
 _atom_site_occupancy
  Yb  Yb0  1  0.66666700  0.33333300  0.75000000  1
  Yb  Yb1  1  0.33333300  0.66666700  0.25000000  1
  H  H0  1  0.33333300  0.66666700  0.75000000  1
  H  H1  1  0.66666700  0.33333300  0.25000000  1
  H  H2  1  0.00000000  0.00000000  0.50000000  1
  H  H3  1  0.00000000  0.00000000  0.00000000  1
loop_
_geom_bond_atom_site_label_1
_geom_bond_atom_site_label_2
_geom_bond_distance
_geom_bond_site_symmetry_2
H0 Yb0 2.064679 1_565
H0 Yb0 2.064679 1_455
H0 Yb0 2.064686 1_555
H1 Yb1 2.064679 1_655
H1 Yb1 2.064679 1_545
H1 Yb1 2.064686 1_555
H2 Yb0 2.476426 1_455
H2 Yb1 2.476426 1_545
H2 Yb0 2.476429 1_555
H2 Yb1 2.476429 1_555
H2 Yb0 2.476429 1_445
H2 Yb1 2.476429 1_445
H3 Yb0 2.476426 1_454
H3 Yb1 2.476426 1_545
H3 Yb0 2.476429 1_554
H3 Yb1 2.476429 1_555
H3 Yb0 2.476429 1_444
H3 Yb1 2.476429 1_445
