# generated using pymatgen
data_Hf2Ni2Sn
_symmetry_space_group_name_H-M   'P 1'
_cell_length_a   14.12429000
_cell_length_b   14.12429000
_cell_length_c   6.77960200
_cell_angle_alpha   90.00000000
_cell_angle_beta   90.00000000
_cell_angle_gamma   90.00000000
_symmetry_Int_Tables_number   1
_chemical_formula_structural   Hf2Ni2Sn
_chemical_formula_sum   'Hf32 Ni32 Sn16'
_cell_volume   1352.50055183
_cell_formula_units_Z   16
loop_
 _symmetry_equiv_pos_site_id
 _symmetry_equiv_pos_as_xyz
  1  'x, y, z'
loop_
 _atom_site_type_symbol
 _atom_site_label
 _atom_site_symmetry_multiplicity
 _atom_site_fract_x
 _atom_site_fract_y
 _atom_site_fract_z
 _atom_site_occupancy
  Hf  Hf0_0  1  0.33354450  0.08354450  0.25000000  1
  Hf  Hf0_1  1  0.33354450  0.08354450  0.75000000  1
  Hf  Hf0_2  1  0.33354450  0.58354450  0.25000000  1
  Hf  Hf0_3  1  0.33354450  0.58354450  0.75000000  1
  Hf  Hf0_4  1  0.83354450  0.08354450  0.25000000  1
  Hf  Hf0_5  1  0.83354450  0.08354450  0.75000000  1
  Hf  Hf0_6  1  0.83354450  0.58354450  0.25000000  1
  Hf  Hf0_7  1  0.83354450  0.58354450  0.75000000  1
  Hf  Hf1_0  1  0.16645550  0.41645550  0.25000000  1
  Hf  Hf1_1  1  0.16645550  0.41645550  0.75000000  1
  Hf  Hf1_2  1  0.16645550  0.91645550  0.25000000  1
  Hf  Hf1_3  1  0.16645550  0.91645550  0.75000000  1
  Hf  Hf1_4  1  0.66645550  0.41645550  0.25000000  1
  Hf  Hf1_5  1  0.66645550  0.41645550  0.75000000  1
  Hf  Hf1_6  1  0.66645550  0.91645550  0.25000000  1
  Hf  Hf1_7  1  0.66645550  0.91645550  0.75000000  1
  Hf  Hf2_0  1  0.41645550  0.33354450  0.25000000  1
  Hf  Hf2_1  1  0.41645550  0.33354450  0.75000000  1
  Hf  Hf2_2  1  0.41645550  0.83354450  0.25000000  1
  Hf  Hf2_3  1  0.41645550  0.83354450  0.75000000  1
  Hf  Hf2_4  1  0.91645550  0.33354450  0.25000000  1
  Hf  Hf2_5  1  0.91645550  0.33354450  0.75000000  1
  Hf  Hf2_6  1  0.91645550  0.83354450  0.25000000  1
  Hf  Hf2_7  1  0.91645550  0.83354450  0.75000000  1
  Hf  Hf3_0  1  0.08354450  0.16645550  0.25000000  1
  Hf  Hf3_1  1  0.08354450  0.16645550  0.75000000  1
  Hf  Hf3_2  1  0.08354450  0.66645550  0.25000000  1
  Hf  Hf3_3  1  0.08354450  0.66645550  0.75000000  1
  Hf  Hf3_4  1  0.58354450  0.16645550  0.25000000  1
  Hf  Hf3_5  1  0.58354450  0.16645550  0.75000000  1
  Hf  Hf3_6  1  0.58354450  0.66645550  0.25000000  1
  Hf  Hf3_7  1  0.58354450  0.66645550  0.75000000  1
  Ni  Ni0_0  1  0.31270200  0.43729800  0.00000000  1
  Ni  Ni0_1  1  0.31270200  0.43729800  0.50000000  1
  Ni  Ni0_2  1  0.31270200  0.93729800  0.00000000  1
  Ni  Ni0_3  1  0.31270200  0.93729800  0.50000000  1
  Ni  Ni0_4  1  0.81270200  0.43729800  0.00000000  1
  Ni  Ni0_5  1  0.81270200  0.43729800  0.50000000  1
  Ni  Ni0_6  1  0.81270200  0.93729800  0.00000000  1
  Ni  Ni0_7  1  0.81270200  0.93729800  0.50000000  1
  Ni  Ni1_0  1  0.06270200  0.31270200  0.00000000  1
  Ni  Ni1_1  1  0.06270200  0.31270200  0.50000000  1
  Ni  Ni1_2  1  0.06270200  0.81270200  0.00000000  1
  Ni  Ni1_3  1  0.06270200  0.81270200  0.50000000  1
  Ni  Ni1_4  1  0.56270200  0.31270200  0.00000000  1
  Ni  Ni1_5  1  0.56270200  0.31270200  0.50000000  1
  Ni  Ni1_6  1  0.56270200  0.81270200  0.00000000  1
  Ni  Ni1_7  1  0.56270200  0.81270200  0.50000000  1
  Ni  Ni2_0  1  0.43729800  0.18729800  0.00000000  1
  Ni  Ni2_1  1  0.43729800  0.18729800  0.50000000  1
  Ni  Ni2_2  1  0.43729800  0.68729800  0.00000000  1
  Ni  Ni2_3  1  0.43729800  0.68729800  0.50000000  1
  Ni  Ni2_4  1  0.93729800  0.18729800  0.00000000  1
  Ni  Ni2_5  1  0.93729800  0.18729800  0.50000000  1
  Ni  Ni2_6  1  0.93729800  0.68729800  0.00000000  1
  Ni  Ni2_7  1  0.93729800  0.68729800  0.50000000  1
  Ni  Ni3_0  1  0.18729800  0.06270200  0.00000000  1
  Ni  Ni3_1  1  0.18729800  0.06270200  0.50000000  1
  Ni  Ni3_2  1  0.18729800  0.56270200  0.00000000  1
  Ni  Ni3_3  1  0.18729800  0.56270200  0.50000000  1
  Ni  Ni3_4  1  0.68729800  0.06270200  0.00000000  1
  Ni  Ni3_5  1  0.68729800  0.06270200  0.50000000  1
  Ni  Ni3_6  1  0.68729800  0.56270200  0.00000000  1
  Ni  Ni3_7  1  0.68729800  0.56270200  0.50000000  1
  Sn  Sn0_0  1  0.25000000  0.25000000  0.00000000  1
  Sn  Sn0_1  1  0.25000000  0.25000000  0.50000000  1
  Sn  Sn0_2  1  0.25000000  0.75000000  0.00000000  1
  Sn  Sn0_3  1  0.25000000  0.75000000  0.50000000  1
  Sn  Sn0_4  1  0.75000000  0.25000000  0.00000000  1
  Sn  Sn0_5  1  0.75000000  0.25000000  0.50000000  1
  Sn  Sn0_6  1  0.75000000  0.75000000  0.00000000  1
  Sn  Sn0_7  1  0.75000000  0.75000000  0.50000000  1
  Sn  Sn1_0  1  0.00000000  0.00000000  0.00000000  1
  Sn  Sn1_1  1  0.00000000  0.00000000  0.50000000  1
  Sn  Sn1_2  1  0.00000000  0.50000000  0.00000000  1
  Sn  Sn1_3  1  0.00000000  0.50000000  0.50000000  1
  Sn  Sn1_4  1  0.50000000  0.00000000  0.00000000  1
  Sn  Sn1_5  1  0.50000000  0.00000000  0.50000000  1
  Sn  Sn1_6  1  0.50000000  0.50000000  0.00000000  1
  Sn  Sn1_7  1  0.50000000  0.50000000  0.50000000  1
loop_
_geom_bond_atom_site_label_1
_geom_bond_atom_site_label_2
_geom_bond_distance
_geom_bond_site_symmetry_2
Hf0_0 Ni2_0 2.677264 1_555
Hf0_0 Ni2_1 2.677264 1_555
Hf0_0 Ni3_1 2.688154 1_555
Hf0_0 Ni3_0 2.688154 1_555
Hf0_0 Ni0_2 2.688154 1_545
Hf0_0 Ni0_3 2.688154 1_545
Hf0_0 Sn0_0 3.129315 1_555
Hf0_0 Sn0_1 3.129315 1_555
Hf0_0 Sn1_4 3.129315 1_555
Hf0_0 Sn1_5 3.129315 1_555
Hf0_1 Ni2_1 2.677264 1_555
Hf0_1 Ni2_0 2.677264 1_556
Hf0_1 Ni3_1 2.688154 1_555
Hf0_1 Ni3_0 2.688154 1_556
Hf0_1 Ni0_3 2.688154 1_545
Hf0_1 Ni0_2 2.688154 1_546
Hf0_1 Sn0_1 3.129315 1_555
Hf0_1 Sn0_0 3.129315 1_556
Hf0_1 Sn1_5 3.129315 1_555
Hf0_1 Sn1_4 3.129315 1_556
Hf0_2 Ni2_2 2.677264 1_555
Hf0_2 Ni2_3 2.677264 1_555
Hf0_2 Ni3_2 2.688154 1_555
Hf0_2 Ni3_3 2.688154 1_555
Hf0_2 Ni0_0 2.688154 1_555
Hf0_2 Ni0_1 2.688154 1_555
Hf0_2 Sn0_3 3.129315 1_555
Hf0_2 Sn0_2 3.129315 1_555
Hf0_2 Sn1_6 3.129315 1_555
Hf0_2 Sn1_7 3.129315 1_555
Hf0_3 Ni2_3 2.677264 1_555
Hf0_3 Ni2_2 2.677264 1_556
Hf0_3 Ni3_3 2.688154 1_555
Hf0_3 Ni3_2 2.688154 1_556
Hf0_3 Ni0_1 2.688154 1_555
Hf0_3 Ni0_0 2.688154 1_556
Hf0_3 Sn0_3 3.129315 1_555
Hf0_3 Sn0_2 3.129315 1_556
Hf0_3 Sn1_7 3.129315 1_555
Hf0_3 Sn1_6 3.129315 1_556
Hf0_4 Ni2_4 2.677264 1_555
Hf0_4 Ni2_5 2.677264 1_555
Hf0_4 Ni3_5 2.688154 1_555
Hf0_4 Ni3_4 2.688154 1_555
Hf0_4 Ni0_6 2.688154 1_545
Hf0_4 Ni0_7 2.688154 1_545
Hf0_4 Sn0_4 3.129315 1_555
Hf0_4 Sn0_5 3.129315 1_555
Hf0_4 Sn1_0 3.129315 1_655
Hf0_4 Sn1_1 3.129315 1_655
Hf0_5 Ni2_5 2.677264 1_555
Hf0_5 Ni2_4 2.677264 1_556
Hf0_5 Ni3_5 2.688154 1_555
Hf0_5 Ni3_4 2.688154 1_556
Hf0_5 Ni0_7 2.688154 1_545
Hf0_5 Ni0_6 2.688154 1_546
Hf0_5 Sn0_5 3.129315 1_555
Hf0_5 Sn0_4 3.129315 1_556
Hf0_5 Sn1_1 3.129315 1_655
Hf0_5 Sn1_0 3.129315 1_656
Hf0_6 Ni2_7 2.677264 1_555
Hf0_6 Ni2_6 2.677264 1_555
Hf0_6 Ni3_6 2.688154 1_555
Hf0_6 Ni3_7 2.688154 1_555
Hf0_6 Ni0_5 2.688154 1_555
Hf0_6 Ni0_4 2.688154 1_555
Hf0_6 Sn0_6 3.129315 1_555
Hf0_6 Sn0_7 3.129315 1_555
Hf0_6 Sn1_2 3.129315 1_655
Hf0_6 Sn1_3 3.129315 1_655
Hf0_7 Ni2_7 2.677264 1_555
Hf0_7 Ni2_6 2.677264 1_556
Hf0_7 Ni3_7 2.688154 1_555
Hf0_7 Ni3_6 2.688154 1_556
Hf0_7 Ni0_5 2.688154 1_555
Hf0_7 Ni0_4 2.688154 1_556
Hf0_7 Sn0_7 3.129315 1_555
Hf0_7 Sn0_6 3.129315 1_556
Hf0_7 Sn1_3 3.129315 1_655
Hf0_7 Sn1_2 3.129315 1_656
Hf1_0 Ni1_0 2.677264 1_555
Hf1_0 Ni1_1 2.677264 1_555
Hf1_0 Ni0_1 2.688154 1_555
Hf1_0 Ni0_0 2.688154 1_555
Hf1_0 Ni3_3 2.688154 1_555
Hf1_0 Ni3_2 2.688154 1_555
Hf1_0 Sn0_0 3.129315 1_555
Hf1_0 Sn0_1 3.129315 1_555
Hf1_0 Sn1_3 3.129315 1_555
Hf1_0 Sn1_2 3.129315 1_555
Hf1_1 Ni1_1 2.677264 1_555
Hf1_1 Ni1_0 2.677264 1_556
Hf1_1 Ni0_1 2.688154 1_555
Hf1_1 Ni0_0 2.688154 1_556
Hf1_1 Ni3_3 2.688154 1_555
Hf1_1 Ni3_2 2.688154 1_556
Hf1_1 Sn0_1 3.129315 1_555
Hf1_1 Sn1_3 3.129315 1_555
Hf1_1 Sn0_0 3.129315 1_556
Hf1_1 Sn1_2 3.129315 1_556
Hf1_2 Ni1_2 2.677264 1_555
Hf1_2 Ni1_3 2.677264 1_555
Hf1_2 Ni0_3 2.688154 1_555
Hf1_2 Ni0_2 2.688154 1_555
Hf1_2 Ni3_0 2.688154 1_565
Hf1_2 Ni3_1 2.688154 1_565
Hf1_2 Sn1_0 3.129315 1_565
Hf1_2 Sn1_1 3.129315 1_565
Hf1_2 Sn0_3 3.129315 1_555
Hf1_2 Sn0_2 3.129315 1_555
Hf1_3 Ni1_3 2.677264 1_555
Hf1_3 Ni1_2 2.677264 1_556
Hf1_3 Ni0_3 2.688154 1_555
Hf1_3 Ni3_1 2.688154 1_565
Hf1_3 Ni0_2 2.688154 1_556
Hf1_3 Ni3_0 2.688154 1_566
Hf1_3 Sn1_1 3.129315 1_565
Hf1_3 Sn1_0 3.129315 1_566
Hf1_3 Sn0_3 3.129315 1_555
Hf1_3 Sn0_2 3.129315 1_556
Hf1_4 Ni1_4 2.677264 1_555
Hf1_4 Ni1_5 2.677264 1_555
Hf1_4 Ni0_4 2.688154 1_555
Hf1_4 Ni0_5 2.688154 1_555
Hf1_4 Ni3_7 2.688154 1_555
Hf1_4 Ni3_6 2.688154 1_555
Hf1_4 Sn0_4 3.129315 1_555
Hf1_4 Sn0_5 3.129315 1_555
Hf1_4 Sn1_7 3.129315 1_555
Hf1_4 Sn1_6 3.129315 1_555
Hf1_5 Ni1_5 2.677264 1_555
Hf1_5 Ni1_4 2.677264 1_556
Hf1_5 Ni0_5 2.688154 1_555
Hf1_5 Ni0_4 2.688154 1_556
Hf1_5 Ni3_7 2.688154 1_555
Hf1_5 Ni3_6 2.688154 1_556
Hf1_5 Sn0_5 3.129315 1_555
Hf1_5 Sn0_4 3.129315 1_556
Hf1_5 Sn1_7 3.129315 1_555
Hf1_5 Sn1_6 3.129315 1_556
Hf1_6 Ni1_6 2.677264 1_555
Hf1_6 Ni1_7 2.677264 1_555
Hf1_6 Ni0_6 2.688154 1_555
Hf1_6 Ni0_7 2.688154 1_555
Hf1_6 Ni3_4 2.688154 1_565
Hf1_6 Ni3_5 2.688154 1_565
Hf1_6 Sn1_4 3.129315 1_565
Hf1_6 Sn0_6 3.129315 1_555
Hf1_6 Sn1_5 3.129315 1_565
Hf1_6 Sn0_7 3.129315 1_555
Hf1_7 Ni1_7 2.677264 1_555
Hf1_7 Ni1_6 2.677264 1_556
Hf1_7 Ni0_7 2.688154 1_555
Hf1_7 Ni3_5 2.688154 1_565
Hf1_7 Ni0_6 2.688154 1_556
Hf1_7 Ni3_4 2.688154 1_566
Hf1_7 Sn1_5 3.129315 1_565
Hf1_7 Sn0_7 3.129315 1_555
Hf1_7 Sn0_6 3.129315 1_556
Hf1_7 Sn1_4 3.129315 1_566
Hf2_0 Ni0_0 2.677264 1_555
Hf2_0 Ni0_1 2.677264 1_555
Hf2_0 Ni2_0 2.688154 1_555
Hf2_0 Ni2_1 2.688154 1_555
Hf2_0 Ni1_4 2.688154 1_555
Hf2_0 Ni1_5 2.688154 1_555
Hf2_0 Sn0_1 3.129315 1_555
Hf2_0 Sn0_0 3.129315 1_555
Hf2_0 Sn1_6 3.129315 1_555
Hf2_0 Sn1_7 3.129315 1_555
Hf2_1 Ni0_1 2.677264 1_555
Hf2_1 Ni0_0 2.677264 1_556
Hf2_1 Ni2_1 2.688154 1_555
Hf2_1 Ni2_0 2.688154 1_556
Hf2_1 Ni1_5 2.688154 1_555
Hf2_1 Ni1_4 2.688154 1_556
Hf2_1 Sn0_1 3.129315 1_555
Hf2_1 Sn0_0 3.129315 1_556
Hf2_1 Sn1_7 3.129315 1_555
Hf2_1 Sn1_6 3.129315 1_556
Hf2_2 Ni0_2 2.677264 1_555
Hf2_2 Ni0_3 2.677264 1_555
Hf2_2 Ni2_2 2.688154 1_555
Hf2_2 Ni2_3 2.688154 1_555
Hf2_2 Ni1_7 2.688154 1_555
Hf2_2 Ni1_6 2.688154 1_555
Hf2_2 Sn0_2 3.129315 1_555
Hf2_2 Sn0_3 3.129315 1_555
Hf2_2 Sn1_4 3.129315 1_565
Hf2_2 Sn1_5 3.129315 1_565
Hf2_3 Ni0_3 2.677264 1_555
Hf2_3 Ni0_2 2.677264 1_556
Hf2_3 Ni2_3 2.688154 1_555
Hf2_3 Ni2_2 2.688154 1_556
Hf2_3 Ni1_7 2.688154 1_555
Hf2_3 Ni1_6 2.688154 1_556
Hf2_3 Sn0_3 3.129315 1_555
Hf2_3 Sn0_2 3.129315 1_556
Hf2_3 Sn1_5 3.129315 1_565
Hf2_3 Sn1_4 3.129315 1_566
Hf2_4 Ni0_4 2.677264 1_555
Hf2_4 Ni0_5 2.677264 1_555
Hf2_4 Ni2_4 2.688154 1_555
Hf2_4 Ni2_5 2.688154 1_555
Hf2_4 Ni1_0 2.688154 1_655
Hf2_4 Ni1_1 2.688154 1_655
Hf2_4 Sn0_5 3.129315 1_555
Hf2_4 Sn0_4 3.129315 1_555
Hf2_4 Sn1_2 3.129315 1_655
Hf2_4 Sn1_3 3.129315 1_655
Hf2_5 Ni0_5 2.677264 1_555
Hf2_5 Ni0_4 2.677264 1_556
Hf2_5 Ni2_5 2.688154 1_555
Hf2_5 Ni2_4 2.688154 1_556
Hf2_5 Ni1_1 2.688154 1_655
Hf2_5 Ni1_0 2.688154 1_656
Hf2_5 Sn0_5 3.129315 1_555
Hf2_5 Sn0_4 3.129315 1_556
Hf2_5 Sn1_3 3.129315 1_655
Hf2_5 Sn1_2 3.129315 1_656
Hf2_6 Ni0_7 2.677264 1_555
Hf2_6 Ni0_6 2.677264 1_555
Hf2_6 Ni2_6 2.688154 1_555
Hf2_6 Ni2_7 2.688154 1_555
Hf2_6 Ni1_3 2.688154 1_655
Hf2_6 Ni1_2 2.688154 1_655
Hf2_6 Sn0_6 3.129315 1_555
Hf2_6 Sn0_7 3.129315 1_555
Hf2_6 Sn1_0 3.129315 1_665
Hf2_6 Sn1_1 3.129315 1_665
Hf2_7 Ni0_7 2.677264 1_555
Hf2_7 Ni0_6 2.677264 1_556
Hf2_7 Ni2_7 2.688154 1_555
Hf2_7 Ni2_6 2.688154 1_556
Hf2_7 Ni1_3 2.688154 1_655
Hf2_7 Ni1_2 2.688154 1_656
Hf2_7 Sn0_7 3.129315 1_555
Hf2_7 Sn0_6 3.129315 1_556
Hf2_7 Sn1_1 3.129315 1_665
Hf2_7 Sn1_0 3.129315 1_666
Hf3_0 Ni3_0 2.677264 1_555
Hf3_0 Ni3_1 2.677264 1_555
Hf3_0 Ni1_0 2.688154 1_555
Hf3_0 Ni1_1 2.688154 1_555
Hf3_0 Ni2_5 2.688154 1_455
Hf3_0 Ni2_4 2.688154 1_455
Hf3_0 Sn0_1 3.129315 1_555
Hf3_0 Sn1_1 3.129315 1_555
Hf3_0 Sn1_0 3.129315 1_555
Hf3_0 Sn0_0 3.129315 1_555
Hf3_1 Ni3_1 2.677264 1_555
Hf3_1 Ni3_0 2.677264 1_556
Hf3_1 Ni1_1 2.688154 1_555
Hf3_1 Ni1_0 2.688154 1_556
Hf3_1 Ni2_5 2.688154 1_455
Hf3_1 Ni2_4 2.688154 1_456
Hf3_1 Sn0_1 3.129315 1_555
Hf3_1 Sn1_1 3.129315 1_555
Hf3_1 Sn0_0 3.129315 1_556
Hf3_1 Sn1_0 3.129315 1_556
Hf3_2 Ni3_3 2.677264 1_555
Hf3_2 Ni3_2 2.677264 1_555
Hf3_2 Ni1_3 2.688154 1_555
Hf3_2 Ni1_2 2.688154 1_555
Hf3_2 Ni2_6 2.688154 1_455
Hf3_2 Ni2_7 2.688154 1_455
Hf3_2 Sn0_3 3.129315 1_555
Hf3_2 Sn0_2 3.129315 1_555
Hf3_2 Sn1_3 3.129315 1_555
Hf3_2 Sn1_2 3.129315 1_555
Hf3_3 Ni3_3 2.677264 1_555
Hf3_3 Ni3_2 2.677264 1_556
Hf3_3 Ni1_3 2.688154 1_555
Hf3_3 Ni1_2 2.688154 1_556
Hf3_3 Ni2_7 2.688154 1_455
Hf3_3 Ni2_6 2.688154 1_456
Hf3_3 Sn0_3 3.129315 1_555
Hf3_3 Sn0_2 3.129315 1_556
Hf3_3 Sn1_3 3.129315 1_555
Hf3_3 Sn1_2 3.129315 1_556
Hf3_4 Ni3_4 2.677264 1_555
Hf3_4 Ni3_5 2.677264 1_555
Hf3_4 Ni1_5 2.688154 1_555
Hf3_4 Ni1_4 2.688154 1_555
Hf3_4 Ni2_1 2.688154 1_555
Hf3_4 Ni2_0 2.688154 1_555
Hf3_4 Sn0_5 3.129315 1_555
Hf3_4 Sn0_4 3.129315 1_555
Hf3_4 Sn1_4 3.129315 1_555
Hf3_4 Sn1_5 3.129315 1_555
Hf3_5 Ni3_5 2.677264 1_555
Hf3_5 Ni3_4 2.677264 1_556
Hf3_5 Ni1_5 2.688154 1_555
Hf3_5 Ni1_4 2.688154 1_556
Hf3_5 Ni2_1 2.688154 1_555
Hf3_5 Ni2_0 2.688154 1_556
Hf3_5 Sn0_5 3.129315 1_555
Hf3_5 Sn1_5 3.129315 1_555
Hf3_5 Sn0_4 3.129315 1_556
Hf3_5 Sn1_4 3.129315 1_556
Hf3_6 Ni3_7 2.677264 1_555
Hf3_6 Ni3_6 2.677264 1_555
Hf3_6 Ni1_6 2.688154 1_555
Hf3_6 Ni1_7 2.688154 1_555
Hf3_6 Ni2_2 2.688154 1_555
Hf3_6 Ni2_3 2.688154 1_555
Hf3_6 Sn0_7 3.129315 1_555
Hf3_6 Sn0_6 3.129315 1_555
Hf3_6 Sn1_7 3.129315 1_555
Hf3_6 Sn1_6 3.129315 1_555
Hf3_7 Ni3_7 2.677264 1_555
Hf3_7 Ni3_6 2.677264 1_556
Hf3_7 Ni1_7 2.688154 1_555
Hf3_7 Ni1_6 2.688154 1_556
Hf3_7 Ni2_3 2.688154 1_555
Hf3_7 Ni2_2 2.688154 1_556
Hf3_7 Sn0_7 3.129315 1_555
Hf3_7 Sn0_6 3.129315 1_556
Hf3_7 Sn1_7 3.129315 1_555
Hf3_7 Sn1_6 3.129315 1_556
Ni0_0 Ni3_2 2.504915 1_555
Ni0_0 Sn0_0 2.789756 1_555
Ni0_0 Sn1_6 2.789756 1_555
Ni0_1 Ni3_3 2.504915 1_555
Ni0_1 Sn0_1 2.789756 1_555
Ni0_1 Sn1_7 2.789756 1_555
Ni0_2 Ni3_0 2.504915 1_565
Ni0_2 Sn0_2 2.789756 1_555
Ni0_2 Sn1_4 2.789756 1_565
Ni0_3 Ni3_1 2.504915 1_565
Ni0_3 Sn0_3 2.789756 1_555
Ni0_3 Sn1_5 2.789756 1_565
Ni0_4 Ni3_6 2.504915 1_555
Ni0_4 Sn0_4 2.789756 1_555
Ni0_4 Sn1_2 2.789756 1_655
Ni0_5 Ni3_7 2.504915 1_555
Ni0_5 Sn0_5 2.789756 1_555
Ni0_5 Sn1_3 2.789756 1_655
Ni0_6 Ni3_4 2.504915 1_565
Ni0_6 Sn0_6 2.789756 1_555
Ni0_6 Sn1_0 2.789756 1_665
Ni0_7 Ni3_5 2.504915 1_565
Ni0_7 Sn0_7 2.789756 1_555
Ni0_7 Sn1_1 2.789756 1_665
Ni1_0 Ni2_4 2.504915 1_455
Ni1_0 Sn0_0 2.789756 1_555
Ni1_0 Sn1_2 2.789756 1_555
Ni1_1 Ni2_5 2.504915 1_455
Ni1_1 Sn0_1 2.789756 1_555
Ni1_1 Sn1_3 2.789756 1_555
Ni1_2 Ni2_6 2.504915 1_455
Ni1_2 Sn1_0 2.789756 1_565
Ni1_2 Sn0_2 2.789756 1_555
Ni1_3 Ni2_7 2.504915 1_455
Ni1_3 Sn1_1 2.789756 1_565
Ni1_3 Sn0_3 2.789756 1_555
Ni1_4 Ni2_0 2.504915 1_555
Ni1_4 Sn0_4 2.789756 1_555
Ni1_4 Sn1_6 2.789756 1_555
Ni1_5 Ni2_1 2.504915 1_555
Ni1_5 Sn0_5 2.789756 1_555
Ni1_5 Sn1_7 2.789756 1_555
Ni1_6 Ni2_2 2.504915 1_555
Ni1_6 Sn0_6 2.789756 1_555
Ni1_6 Sn1_4 2.789756 1_565
Ni1_7 Ni2_3 2.504915 1_555
Ni1_7 Sn0_7 2.789756 1_555
Ni1_7 Sn1_5 2.789756 1_565
Ni2_0 Sn0_0 2.789756 1_555
Ni2_0 Sn1_4 2.789756 1_555
Ni2_1 Sn0_1 2.789756 1_555
Ni2_1 Sn1_5 2.789756 1_555
Ni2_2 Sn0_2 2.789756 1_555
Ni2_2 Sn1_6 2.789756 1_555
Ni2_3 Sn0_3 2.789756 1_555
Ni2_3 Sn1_7 2.789756 1_555
Ni2_4 Sn0_4 2.789756 1_555
Ni2_4 Sn1_0 2.789756 1_655
Ni2_5 Sn0_5 2.789756 1_555
Ni2_5 Sn1_1 2.789756 1_655
Ni2_6 Sn0_6 2.789756 1_555
Ni2_6 Sn1_2 2.789756 1_655
Ni2_7 Sn0_7 2.789756 1_555
Ni2_7 Sn1_3 2.789756 1_655
Ni3_0 Sn0_0 2.789756 1_555
Ni3_0 Sn1_0 2.789756 1_555
Ni3_1 Sn0_1 2.789756 1_555
Ni3_1 Sn1_1 2.789756 1_555
Ni3_2 Sn0_2 2.789756 1_555
Ni3_2 Sn1_2 2.789756 1_555
Ni3_3 Sn0_3 2.789756 1_555
Ni3_3 Sn1_3 2.789756 1_555
Ni3_4 Sn0_4 2.789756 1_555
Ni3_4 Sn1_4 2.789756 1_555
Ni3_5 Sn0_5 2.789756 1_555
Ni3_5 Sn1_5 2.789756 1_555
Ni3_6 Sn0_6 2.789756 1_555
Ni3_6 Sn1_6 2.789756 1_555
Ni3_7 Sn0_7 2.789756 1_555
Ni3_7 Sn1_7 2.789756 1_555
Sn0_0 Sn0_1 3.389801 1_554
Sn0_0 Sn0_1 3.389801 1_555
Sn0_2 Sn0_3 3.389801 1_555
Sn0_2 Sn0_3 3.389801 1_554
Sn0_4 Sn0_5 3.389801 1_555
Sn0_4 Sn0_5 3.389801 1_554
Sn0_6 Sn0_7 3.389801 1_555
Sn0_6 Sn0_7 3.389801 1_554
Sn1_0 Sn1_1 3.389801 1_554
Sn1_0 Sn1_1 3.389801 1_555
Sn1_2 Sn1_3 3.389801 1_555
Sn1_2 Sn1_3 3.389801 1_554
Sn1_4 Sn1_5 3.389801 1_555
Sn1_4 Sn1_5 3.389801 1_554
Sn1_6 Sn1_7 3.389801 1_554
Sn1_6 Sn1_7 3.389801 1_555
