# generated using pymatgen
data_Ti2In5
_symmetry_space_group_name_H-M   'P 1'
_cell_length_a   21.86315200
_cell_length_b   21.86315200
_cell_length_c   6.27634800
_cell_angle_alpha   90.00000000
_cell_angle_beta   90.00000000
_cell_angle_gamma   90.00000000
_symmetry_Int_Tables_number   1
_chemical_formula_structural   Ti2In5
_chemical_formula_sum   'Ti32 In80'
_cell_volume   3000.07812199
_cell_formula_units_Z   16
loop_
 _symmetry_equiv_pos_site_id
 _symmetry_equiv_pos_as_xyz
  1  'x, y, z'
loop_
 _atom_site_type_symbol
 _atom_site_label
 _atom_site_symmetry_multiplicity
 _atom_site_fract_x
 _atom_site_fract_y
 _atom_site_fract_z
 _atom_site_occupancy
  Ti  Ti0_0  1  0.09019450  0.15980550  0.25000000  1
  Ti  Ti0_1  1  0.09019450  0.15980550  0.75000000  1
  Ti  Ti0_2  1  0.09019450  0.65980550  0.25000000  1
  Ti  Ti0_3  1  0.09019450  0.65980550  0.75000000  1
  Ti  Ti0_4  1  0.59019450  0.15980550  0.25000000  1
  Ti  Ti0_5  1  0.59019450  0.15980550  0.75000000  1
  Ti  Ti0_6  1  0.59019450  0.65980550  0.25000000  1
  Ti  Ti0_7  1  0.59019450  0.65980550  0.75000000  1
  Ti  Ti1_0  1  0.40980550  0.34019450  0.25000000  1
  Ti  Ti1_1  1  0.40980550  0.34019450  0.75000000  1
  Ti  Ti1_2  1  0.40980550  0.84019450  0.25000000  1
  Ti  Ti1_3  1  0.40980550  0.84019450  0.75000000  1
  Ti  Ti1_4  1  0.90980550  0.34019450  0.25000000  1
  Ti  Ti1_5  1  0.90980550  0.34019450  0.75000000  1
  Ti  Ti1_6  1  0.90980550  0.84019450  0.25000000  1
  Ti  Ti1_7  1  0.90980550  0.84019450  0.75000000  1
  Ti  Ti2_0  1  0.15980550  0.40980550  0.25000000  1
  Ti  Ti2_1  1  0.15980550  0.40980550  0.75000000  1
  Ti  Ti2_2  1  0.15980550  0.90980550  0.25000000  1
  Ti  Ti2_3  1  0.15980550  0.90980550  0.75000000  1
  Ti  Ti2_4  1  0.65980550  0.40980550  0.25000000  1
  Ti  Ti2_5  1  0.65980550  0.40980550  0.75000000  1
  Ti  Ti2_6  1  0.65980550  0.90980550  0.25000000  1
  Ti  Ti2_7  1  0.65980550  0.90980550  0.75000000  1
  Ti  Ti3_0  1  0.34019450  0.09019450  0.25000000  1
  Ti  Ti3_1  1  0.34019450  0.09019450  0.75000000  1
  Ti  Ti3_2  1  0.34019450  0.59019450  0.25000000  1
  Ti  Ti3_3  1  0.34019450  0.59019450  0.75000000  1
  Ti  Ti3_4  1  0.84019450  0.09019450  0.25000000  1
  Ti  Ti3_5  1  0.84019450  0.09019450  0.75000000  1
  Ti  Ti3_6  1  0.84019450  0.59019450  0.25000000  1
  Ti  Ti3_7  1  0.84019450  0.59019450  0.75000000  1
  In  In0_0  1  0.10369850  0.03197050  0.00000000  1
  In  In0_1  1  0.10369850  0.03197050  0.50000000  1
  In  In0_2  1  0.10369850  0.53197050  0.00000000  1
  In  In0_3  1  0.10369850  0.53197050  0.50000000  1
  In  In0_4  1  0.60369850  0.03197050  0.00000000  1
  In  In0_5  1  0.60369850  0.03197050  0.50000000  1
  In  In0_6  1  0.60369850  0.53197050  0.00000000  1
  In  In0_7  1  0.60369850  0.53197050  0.50000000  1
  In  In1_0  1  0.03197050  0.39630150  0.00000000  1
  In  In1_1  1  0.03197050  0.39630150  0.50000000  1
  In  In1_2  1  0.03197050  0.89630150  0.00000000  1
  In  In1_3  1  0.03197050  0.89630150  0.50000000  1
  In  In1_4  1  0.53197050  0.39630150  0.00000000  1
  In  In1_5  1  0.53197050  0.39630150  0.50000000  1
  In  In1_6  1  0.53197050  0.89630150  0.00000000  1
  In  In1_7  1  0.53197050  0.89630150  0.50000000  1
  In  In2_0  1  0.35369850  0.21802950  0.00000000  1
  In  In2_1  1  0.35369850  0.21802950  0.50000000  1
  In  In2_2  1  0.35369850  0.71802950  0.00000000  1
  In  In2_3  1  0.35369850  0.71802950  0.50000000  1
  In  In2_4  1  0.85369850  0.21802950  0.00000000  1
  In  In2_5  1  0.85369850  0.21802950  0.50000000  1
  In  In2_6  1  0.85369850  0.71802950  0.00000000  1
  In  In2_7  1  0.85369850  0.71802950  0.50000000  1
  In  In3_0  1  0.28197050  0.35369850  0.00000000  1
  In  In3_1  1  0.28197050  0.35369850  0.50000000  1
  In  In3_2  1  0.28197050  0.85369850  0.00000000  1
  In  In3_3  1  0.28197050  0.85369850  0.50000000  1
  In  In3_4  1  0.78197050  0.35369850  0.00000000  1
  In  In3_5  1  0.78197050  0.35369850  0.50000000  1
  In  In3_6  1  0.78197050  0.85369850  0.00000000  1
  In  In3_7  1  0.78197050  0.85369850  0.50000000  1
  In  In4_0  1  0.00000000  0.25000000  0.00000000  1
  In  In4_1  1  0.00000000  0.25000000  0.50000000  1
  In  In4_2  1  0.00000000  0.75000000  0.00000000  1
  In  In4_3  1  0.00000000  0.75000000  0.50000000  1
  In  In4_4  1  0.50000000  0.25000000  0.00000000  1
  In  In4_5  1  0.50000000  0.25000000  0.50000000  1
  In  In4_6  1  0.50000000  0.75000000  0.00000000  1
  In  In4_7  1  0.50000000  0.75000000  0.50000000  1
  In  In5_0  1  0.14630150  0.28197050  0.00000000  1
  In  In5_1  1  0.14630150  0.28197050  0.50000000  1
  In  In5_2  1  0.14630150  0.78197050  0.00000000  1
  In  In5_3  1  0.14630150  0.78197050  0.50000000  1
  In  In5_4  1  0.64630150  0.28197050  0.00000000  1
  In  In5_5  1  0.64630150  0.28197050  0.50000000  1
  In  In5_6  1  0.64630150  0.78197050  0.00000000  1
  In  In5_7  1  0.64630150  0.78197050  0.50000000  1
  In  In6_0  1  0.39630150  0.46802950  0.00000000  1
  In  In6_1  1  0.39630150  0.46802950  0.50000000  1
  In  In6_2  1  0.39630150  0.96802950  0.00000000  1
  In  In6_3  1  0.39630150  0.96802950  0.50000000  1
  In  In6_4  1  0.89630150  0.46802950  0.00000000  1
  In  In6_5  1  0.89630150  0.46802950  0.50000000  1
  In  In6_6  1  0.89630150  0.96802950  0.00000000  1
  In  In6_7  1  0.89630150  0.96802950  0.50000000  1
  In  In7_0  1  0.21802950  0.14630150  0.00000000  1
  In  In7_1  1  0.21802950  0.14630150  0.50000000  1
  In  In7_2  1  0.21802950  0.64630150  0.00000000  1
  In  In7_3  1  0.21802950  0.64630150  0.50000000  1
  In  In7_4  1  0.71802950  0.14630150  0.00000000  1
  In  In7_5  1  0.71802950  0.14630150  0.50000000  1
  In  In7_6  1  0.71802950  0.64630150  0.00000000  1
  In  In7_7  1  0.71802950  0.64630150  0.50000000  1
  In  In8_0  1  0.46802950  0.10369850  0.00000000  1
  In  In8_1  1  0.46802950  0.10369850  0.50000000  1
  In  In8_2  1  0.46802950  0.60369850  0.00000000  1
  In  In8_3  1  0.46802950  0.60369850  0.50000000  1
  In  In8_4  1  0.96802950  0.10369850  0.00000000  1
  In  In8_5  1  0.96802950  0.10369850  0.50000000  1
  In  In8_6  1  0.96802950  0.60369850  0.00000000  1
  In  In8_7  1  0.96802950  0.60369850  0.50000000  1
  In  In9_0  1  0.25000000  0.00000000  0.00000000  1
  In  In9_1  1  0.25000000  0.00000000  0.50000000  1
  In  In9_2  1  0.25000000  0.50000000  0.00000000  1
  In  In9_3  1  0.25000000  0.50000000  0.50000000  1
  In  In9_4  1  0.75000000  0.00000000  0.00000000  1
  In  In9_5  1  0.75000000  0.00000000  0.50000000  1
  In  In9_6  1  0.75000000  0.50000000  0.00000000  1
  In  In9_7  1  0.75000000  0.50000000  0.50000000  1
loop_
_geom_bond_atom_site_label_1
_geom_bond_atom_site_label_2
_geom_bond_distance
_geom_bond_site_symmetry_2
Ti0_0 Ti0_1 3.138174 1_554
Ti0_0 Ti0_1 3.138174 1_555
Ti0_2 Ti0_3 3.138174 1_555
Ti0_2 Ti0_3 3.138174 1_554
Ti0_4 Ti0_5 3.138174 1_555
Ti0_4 Ti0_5 3.138174 1_554
Ti0_6 Ti0_7 3.138174 1_554
Ti0_6 Ti0_7 3.138174 1_555
Ti1_0 Ti1_1 3.138174 1_554
Ti1_0 Ti1_1 3.138174 1_555
Ti1_2 Ti1_3 3.138174 1_554
Ti1_2 Ti1_3 3.138174 1_555
Ti1_4 Ti1_5 3.138174 1_554
Ti1_4 Ti1_5 3.138174 1_555
Ti1_6 Ti1_7 3.138174 1_555
Ti1_6 Ti1_7 3.138174 1_554
Ti2_0 Ti2_1 3.138174 1_554
Ti2_0 Ti2_1 3.138174 1_555
Ti2_2 Ti2_3 3.138174 1_554
Ti2_2 Ti2_3 3.138174 1_555
Ti2_4 Ti2_5 3.138174 1_555
Ti2_4 Ti2_5 3.138174 1_554
Ti2_6 Ti2_7 3.138174 1_554
Ti2_6 Ti2_7 3.138174 1_555
Ti3_0 Ti3_1 3.138174 1_555
Ti3_0 Ti3_1 3.138174 1_554
Ti3_2 Ti3_3 3.138174 1_555
Ti3_2 Ti3_3 3.138174 1_554
Ti3_4 Ti3_5 3.138174 1_554
Ti3_4 Ti3_5 3.138174 1_555
Ti3_6 Ti3_7 3.138174 1_554
Ti3_6 Ti3_7 3.138174 1_555
In0_0 In0_1 3.138174 1_555
In0_0 In0_1 3.138174 1_554
In0_0 Ti0_1 3.218778 1_554
In0_0 Ti0_0 3.218778 1_555
In0_0 In9_0 3.274093 1_555
In0_0 Ti2_3 3.331747 1_544
In0_0 Ti2_2 3.331747 1_545
In0_0 In8_4 3.355191 1_455
In0_0 In1_2 3.355191 1_545
In0_1 Ti0_1 3.218778 1_555
In0_1 Ti0_0 3.218778 1_555
In0_1 In9_1 3.274093 1_555
In0_1 Ti2_3 3.331747 1_545
In0_1 Ti2_2 3.331747 1_545
In0_1 In8_5 3.355191 1_455
In0_1 In1_3 3.355191 1_545
In0_2 In0_3 3.138174 1_555
In0_2 In0_3 3.138174 1_554
In0_2 Ti0_3 3.218778 1_554
In0_2 Ti0_2 3.218778 1_555
In0_2 In9_2 3.274093 1_555
In0_2 Ti2_0 3.331747 1_555
In0_2 Ti2_1 3.331747 1_554
In0_2 In8_6 3.355191 1_455
In0_2 In1_0 3.355191 1_555
In0_3 Ti0_3 3.218778 1_555
In0_3 Ti0_2 3.218778 1_555
In0_3 In9_3 3.274093 1_555
In0_3 Ti2_0 3.331747 1_555
In0_3 Ti2_1 3.331747 1_555
In0_3 In8_7 3.355191 1_455
In0_3 In1_1 3.355191 1_555
In0_4 In0_5 3.138174 1_554
In0_4 In0_5 3.138174 1_555
In0_4 Ti0_5 3.218778 1_554
In0_4 Ti0_4 3.218778 1_555
In0_4 In9_4 3.274093 1_555
In0_4 Ti2_6 3.331747 1_545
In0_4 Ti2_7 3.331747 1_544
In0_4 In1_6 3.355191 1_545
In0_4 In8_0 3.355191 1_555
In0_5 Ti0_5 3.218778 1_555
In0_5 Ti0_4 3.218778 1_555
In0_5 In9_5 3.274093 1_555
In0_5 Ti2_6 3.331747 1_545
In0_5 Ti2_7 3.331747 1_545
In0_5 In1_7 3.355191 1_545
In0_5 In8_1 3.355191 1_555
In0_6 In0_7 3.138174 1_554
In0_6 In0_7 3.138174 1_555
In0_6 Ti0_6 3.218778 1_555
In0_6 Ti0_7 3.218778 1_554
In0_6 In9_6 3.274093 1_555
In0_6 Ti2_4 3.331747 1_555
In0_6 Ti2_5 3.331747 1_554
In0_6 In1_4 3.355191 1_555
In0_6 In8_2 3.355191 1_555
In0_7 Ti0_6 3.218778 1_555
In0_7 Ti0_7 3.218778 1_555
In0_7 In9_7 3.274093 1_555
In0_7 Ti2_4 3.331747 1_555
In0_7 Ti2_5 3.331747 1_555
In0_7 In1_5 3.355191 1_555
In0_7 In8_3 3.355191 1_555
In1_0 In1_1 3.138174 1_554
In1_0 In1_1 3.138174 1_555
In1_0 Ti2_1 3.218778 1_554
In1_0 Ti2_0 3.218778 1_555
In1_0 In4_0 3.274093 1_555
In1_0 Ti1_4 3.331747 1_455
In1_0 Ti1_5 3.331747 1_454
In1_0 In6_4 3.355191 1_455
In1_1 Ti2_1 3.218778 1_555
In1_1 Ti2_0 3.218778 1_555
In1_1 In4_1 3.274093 1_555
In1_1 Ti1_4 3.331747 1_455
In1_1 Ti1_5 3.331747 1_455
In1_1 In6_5 3.355191 1_455
In1_2 In1_3 3.138174 1_554
In1_2 In1_3 3.138174 1_555
In1_2 Ti2_2 3.218778 1_555
In1_2 Ti2_3 3.218778 1_554
In1_2 In4_2 3.274093 1_555
In1_2 Ti1_6 3.331747 1_455
In1_2 Ti1_7 3.331747 1_454
In1_2 In6_6 3.355191 1_455
In1_3 Ti2_2 3.218778 1_555
In1_3 Ti2_3 3.218778 1_555
In1_3 In4_3 3.274093 1_555
In1_3 Ti1_6 3.331747 1_455
In1_3 Ti1_7 3.331747 1_455
In1_3 In6_7 3.355191 1_455
In1_4 In1_5 3.138174 1_555
In1_4 In1_5 3.138174 1_554
In1_4 Ti2_5 3.218778 1_554
In1_4 Ti2_4 3.218778 1_555
In1_4 In4_4 3.274093 1_555
In1_4 Ti1_0 3.331747 1_555
In1_4 Ti1_1 3.331747 1_554
In1_4 In6_0 3.355191 1_555
In1_5 Ti2_5 3.218778 1_555
In1_5 Ti2_4 3.218778 1_555
In1_5 In4_5 3.274093 1_555
In1_5 Ti1_0 3.331747 1_555
In1_5 Ti1_1 3.331747 1_555
In1_5 In6_1 3.355191 1_555
In1_6 In1_7 3.138174 1_554
In1_6 In1_7 3.138174 1_555
In1_6 Ti2_7 3.218778 1_554
In1_6 Ti2_6 3.218778 1_555
In1_6 In4_6 3.274093 1_555
In1_6 Ti1_3 3.331747 1_554
In1_6 Ti1_2 3.331747 1_555
In1_6 In6_2 3.355191 1_555
In1_7 Ti2_6 3.218778 1_555
In1_7 Ti2_7 3.218778 1_555
In1_7 In4_7 3.274093 1_555
In1_7 Ti1_3 3.331747 1_555
In1_7 Ti1_2 3.331747 1_555
In1_7 In6_3 3.355191 1_555
In2_0 In2_1 3.138174 1_555
In2_0 In2_1 3.138174 1_554
In2_0 Ti3_1 3.218778 1_554
In2_0 Ti3_0 3.218778 1_555
In2_0 In4_4 3.274093 1_555
In2_0 Ti1_0 3.331747 1_555
In2_0 Ti1_1 3.331747 1_554
In2_0 In7_0 3.355191 1_555
In2_0 In3_0 3.355191 1_555
In2_1 Ti3_0 3.218778 1_555
In2_1 Ti3_1 3.218778 1_555
In2_1 In4_5 3.274093 1_555
In2_1 Ti1_0 3.331747 1_555
In2_1 Ti1_1 3.331747 1_555
In2_1 In7_1 3.355191 1_555
In2_1 In3_1 3.355191 1_555
In2_2 In2_3 3.138174 1_554
In2_2 In2_3 3.138174 1_555
In2_2 Ti3_3 3.218778 1_554
In2_2 Ti3_2 3.218778 1_555
In2_2 In4_6 3.274093 1_555
In2_2 Ti1_2 3.331747 1_555
In2_2 Ti1_3 3.331747 1_554
In2_2 In3_2 3.355191 1_555
In2_2 In7_2 3.355191 1_555
In2_3 Ti3_2 3.218778 1_555
In2_3 Ti3_3 3.218778 1_555
In2_3 In4_7 3.274093 1_555
In2_3 Ti1_3 3.331747 1_555
In2_3 Ti1_2 3.331747 1_555
In2_3 In3_3 3.355191 1_555
In2_3 In7_3 3.355191 1_555
In2_4 In2_5 3.138174 1_554
In2_4 In2_5 3.138174 1_555
In2_4 Ti3_5 3.218778 1_554
In2_4 Ti3_4 3.218778 1_555
In2_4 In4_0 3.274093 1_655
In2_4 Ti1_5 3.331747 1_554
In2_4 Ti1_4 3.331747 1_555
In2_4 In7_4 3.355191 1_555
In2_4 In3_4 3.355191 1_555
In2_5 Ti3_5 3.218778 1_555
In2_5 Ti3_4 3.218778 1_555
In2_5 In4_1 3.274093 1_655
In2_5 Ti1_5 3.331747 1_555
In2_5 Ti1_4 3.331747 1_555
In2_5 In7_5 3.355191 1_555
In2_5 In3_5 3.355191 1_555
In2_6 In2_7 3.138174 1_555
In2_6 In2_7 3.138174 1_554
In2_6 Ti3_6 3.218778 1_555
In2_6 Ti3_7 3.218778 1_554
In2_6 In4_2 3.274093 1_655
In2_6 Ti1_6 3.331747 1_555
In2_6 Ti1_7 3.331747 1_554
In2_6 In7_6 3.355191 1_555
In2_6 In3_6 3.355191 1_555
In2_7 Ti3_7 3.218778 1_555
In2_7 Ti3_6 3.218778 1_555
In2_7 In4_3 3.274093 1_655
In2_7 Ti1_7 3.331747 1_555
In2_7 Ti1_6 3.331747 1_555
In2_7 In3_7 3.355191 1_555
In2_7 In7_7 3.355191 1_555
In3_0 In3_1 3.138174 1_555
In3_0 In3_1 3.138174 1_554
In3_0 Ti1_0 3.218778 1_555
In3_0 Ti1_1 3.218778 1_554
In3_0 In9_2 3.274093 1_555
In3_0 Ti2_0 3.331747 1_555
In3_0 Ti2_1 3.331747 1_554
In3_0 In5_0 3.355191 1_555
In3_1 Ti1_0 3.218778 1_555
In3_1 Ti1_1 3.218778 1_555
In3_1 In9_3 3.274093 1_555
In3_1 Ti2_0 3.331747 1_555
In3_1 Ti2_1 3.331747 1_555
In3_1 In5_1 3.355191 1_555
In3_2 In3_3 3.138174 1_554
In3_2 In3_3 3.138174 1_555
In3_2 Ti1_2 3.218778 1_555
In3_2 Ti1_3 3.218778 1_554
In3_2 In9_0 3.274093 1_565
In3_2 Ti2_2 3.331747 1_555
In3_2 Ti2_3 3.331747 1_554
In3_2 In5_2 3.355191 1_555
In3_3 Ti1_2 3.218778 1_555
In3_3 Ti1_3 3.218778 1_555
In3_3 In9_1 3.274093 1_565
In3_3 Ti2_2 3.331747 1_555
In3_3 Ti2_3 3.331747 1_555
In3_3 In5_3 3.355191 1_555
In3_4 In3_5 3.138174 1_555
In3_4 In3_5 3.138174 1_554
In3_4 Ti1_5 3.218778 1_554
In3_4 Ti1_4 3.218778 1_555
In3_4 In9_6 3.274093 1_555
In3_4 Ti2_4 3.331747 1_555
In3_4 Ti2_5 3.331747 1_554
In3_4 In5_4 3.355191 1_555
In3_5 Ti1_5 3.218778 1_555
In3_5 Ti1_4 3.218778 1_555
In3_5 In9_7 3.274093 1_555
In3_5 Ti2_4 3.331747 1_555
In3_5 Ti2_5 3.331747 1_555
In3_5 In5_5 3.355191 1_555
In3_6 In3_7 3.138174 1_554
In3_6 In3_7 3.138174 1_555
In3_6 Ti1_7 3.218778 1_554
In3_6 Ti1_6 3.218778 1_555
In3_6 In9_4 3.274093 1_565
In3_6 Ti2_7 3.331747 1_554
In3_6 Ti2_6 3.331747 1_555
In3_6 In5_6 3.355191 1_555
In3_7 Ti1_6 3.218778 1_555
In3_7 Ti1_7 3.218778 1_555
In3_7 In9_5 3.274093 1_565
In3_7 Ti2_6 3.331747 1_555
In3_7 Ti2_7 3.331747 1_555
In3_7 In5_7 3.355191 1_555
In4_0 In4_1 3.138174 1_554
In4_0 In4_1 3.138174 1_555
In4_0 Ti0_1 3.199859 1_554
In4_0 Ti0_0 3.199859 1_555
In4_0 Ti1_4 3.199859 1_455
In4_0 Ti1_5 3.199859 1_454
In4_0 In5_0 3.274093 1_555
In4_0 In8_4 3.274093 1_455
In4_1 Ti0_1 3.199859 1_555
In4_1 Ti0_0 3.199859 1_555
In4_1 Ti1_4 3.199859 1_455
In4_1 Ti1_5 3.199859 1_455
In4_1 In5_1 3.274093 1_555
In4_1 In8_5 3.274093 1_455
In4_2 In4_3 3.138174 1_555
In4_2 In4_3 3.138174 1_554
In4_2 Ti1_6 3.199859 1_455
In4_2 Ti1_7 3.199859 1_454
In4_2 Ti0_3 3.199859 1_554
In4_2 Ti0_2 3.199859 1_555
In4_2 In5_2 3.274093 1_555
In4_2 In8_6 3.274093 1_455
In4_3 Ti1_6 3.199859 1_455
In4_3 Ti1_7 3.199859 1_455
In4_3 Ti0_3 3.199859 1_555
In4_3 Ti0_2 3.199859 1_555
In4_3 In5_3 3.274093 1_555
In4_3 In8_7 3.274093 1_455
In4_4 In4_5 3.138174 1_554
In4_4 In4_5 3.138174 1_555
In4_4 Ti0_4 3.199859 1_555
In4_4 Ti0_5 3.199859 1_554
In4_4 Ti1_0 3.199859 1_555
In4_4 Ti1_1 3.199859 1_554
In4_4 In5_4 3.274093 1_555
In4_4 In8_0 3.274093 1_555
In4_5 Ti0_4 3.199859 1_555
In4_5 Ti0_5 3.199859 1_555
In4_5 Ti1_0 3.199859 1_555
In4_5 Ti1_1 3.199859 1_555
In4_5 In5_5 3.274093 1_555
In4_5 In8_1 3.274093 1_555
In4_6 In4_7 3.138174 1_555
In4_6 In4_7 3.138174 1_554
In4_6 Ti1_2 3.199859 1_555
In4_6 Ti1_3 3.199859 1_554
In4_6 Ti0_7 3.199859 1_554
In4_6 Ti0_6 3.199859 1_555
In4_6 In5_6 3.274093 1_555
In4_6 In8_2 3.274093 1_555
In4_7 Ti1_2 3.199859 1_555
In4_7 Ti1_3 3.199859 1_555
In4_7 Ti0_7 3.199859 1_555
In4_7 Ti0_6 3.199859 1_555
In4_7 In5_7 3.274093 1_555
In4_7 In8_3 3.274093 1_555
In5_0 In5_1 3.138174 1_554
In5_0 In5_1 3.138174 1_555
In5_0 Ti2_1 3.218778 1_554
In5_0 Ti2_0 3.218778 1_555
In5_0 Ti0_0 3.331747 1_555
In5_0 Ti0_1 3.331747 1_554
In5_0 In7_0 3.355191 1_555
In5_1 Ti2_1 3.218778 1_555
In5_1 Ti2_0 3.218778 1_555
In5_1 Ti0_0 3.331747 1_555
In5_1 Ti0_1 3.331747 1_555
In5_1 In7_1 3.355191 1_555
In5_2 In5_3 3.138174 1_555
In5_2 In5_3 3.138174 1_554
In5_2 Ti2_2 3.218778 1_555
In5_2 Ti2_3 3.218778 1_554
In5_2 Ti0_3 3.331747 1_554
In5_2 Ti0_2 3.331747 1_555
In5_2 In7_2 3.355191 1_555
In5_3 Ti2_2 3.218778 1_555
In5_3 Ti2_3 3.218778 1_555
In5_3 Ti0_3 3.331747 1_555
In5_3 Ti0_2 3.331747 1_555
In5_3 In7_3 3.355191 1_555
In5_4 In5_5 3.138174 1_555
In5_4 In5_5 3.138174 1_554
In5_4 Ti2_4 3.218778 1_555
In5_4 Ti2_5 3.218778 1_554
In5_4 Ti0_4 3.331747 1_555
In5_4 Ti0_5 3.331747 1_554
In5_4 In7_4 3.355191 1_555
In5_5 Ti2_4 3.218778 1_555
In5_5 Ti2_5 3.218778 1_555
In5_5 Ti0_4 3.331747 1_555
In5_5 Ti0_5 3.331747 1_555
In5_5 In7_5 3.355191 1_555
In5_6 In5_7 3.138174 1_555
In5_6 In5_7 3.138174 1_554
In5_6 Ti2_7 3.218778 1_554
In5_6 Ti2_6 3.218778 1_555
In5_6 Ti0_7 3.331747 1_554
In5_6 Ti0_6 3.331747 1_555
In5_6 In7_6 3.355191 1_555
In5_7 Ti2_6 3.218778 1_555
In5_7 Ti2_7 3.218778 1_555
In5_7 Ti0_6 3.331747 1_555
In5_7 Ti0_7 3.331747 1_555
In5_7 In7_7 3.355191 1_555
In6_0 In6_1 3.138174 1_554
In6_0 In6_1 3.138174 1_555
In6_0 Ti1_0 3.218778 1_555
In6_0 Ti1_1 3.218778 1_554
In6_0 In9_2 3.274093 1_555
In6_0 Ti3_2 3.331747 1_555
In6_0 Ti3_3 3.331747 1_554
In6_0 In8_2 3.355191 1_555
In6_1 Ti1_0 3.218778 1_555
In6_1 Ti1_1 3.218778 1_555
In6_1 In9_3 3.274093 1_555
In6_1 Ti3_2 3.331747 1_555
In6_1 Ti3_3 3.331747 1_555
In6_1 In8_3 3.355191 1_555
In6_2 In6_3 3.138174 1_555
In6_2 In6_3 3.138174 1_554
In6_2 Ti1_3 3.218778 1_554
In6_2 Ti1_2 3.218778 1_555
In6_2 In9_0 3.274093 1_565
In6_2 Ti3_1 3.331747 1_564
In6_2 Ti3_0 3.331747 1_565
In6_2 In8_0 3.355191 1_565
In6_3 Ti1_2 3.218778 1_555
In6_3 Ti1_3 3.218778 1_555
In6_3 In9_1 3.274093 1_565
In6_3 Ti3_1 3.331747 1_565
In6_3 Ti3_0 3.331747 1_565
In6_3 In8_1 3.355191 1_565
In6_4 In6_5 3.138174 1_554
In6_4 In6_5 3.138174 1_555
In6_4 Ti1_5 3.218778 1_554
In6_4 Ti1_4 3.218778 1_555
In6_4 In9_6 3.274093 1_555
In6_4 Ti3_7 3.331747 1_554
In6_4 Ti3_6 3.331747 1_555
In6_4 In8_6 3.355191 1_555
In6_5 Ti1_5 3.218778 1_555
In6_5 Ti1_4 3.218778 1_555
In6_5 In9_7 3.274093 1_555
In6_5 Ti3_6 3.331747 1_555
In6_5 Ti3_7 3.331747 1_555
In6_5 In8_7 3.355191 1_555
In6_6 In6_7 3.138174 1_555
In6_6 In6_7 3.138174 1_554
In6_6 Ti1_6 3.218778 1_555
In6_6 Ti1_7 3.218778 1_554
In6_6 In9_4 3.274093 1_565
In6_6 Ti3_4 3.331747 1_565
In6_6 Ti3_5 3.331747 1_564
In6_6 In8_4 3.355191 1_565
In6_7 Ti1_6 3.218778 1_555
In6_7 Ti1_7 3.218778 1_555
In6_7 In9_5 3.274093 1_565
In6_7 Ti3_5 3.331747 1_565
In6_7 Ti3_4 3.331747 1_565
In6_7 In8_5 3.355191 1_565
In7_0 In7_1 3.138174 1_555
In7_0 In7_1 3.138174 1_554
In7_0 Ti0_1 3.218778 1_554
In7_0 Ti0_0 3.218778 1_555
In7_0 In9_0 3.274093 1_555
In7_0 Ti3_1 3.331747 1_554
In7_0 Ti3_0 3.331747 1_555
In7_1 Ti0_1 3.218778 1_555
In7_1 Ti0_0 3.218778 1_555
In7_1 In9_1 3.274093 1_555
In7_1 Ti3_1 3.331747 1_555
In7_1 Ti3_0 3.331747 1_555
In7_2 In7_3 3.138174 1_554
In7_2 In7_3 3.138174 1_555
In7_2 Ti0_2 3.218778 1_555
In7_2 Ti0_3 3.218778 1_554
In7_2 In9_2 3.274093 1_555
In7_2 Ti3_3 3.331747 1_554
In7_2 Ti3_2 3.331747 1_555
In7_3 Ti0_2 3.218778 1_555
In7_3 Ti0_3 3.218778 1_555
In7_3 In9_3 3.274093 1_555
In7_3 Ti3_3 3.331747 1_555
In7_3 Ti3_2 3.331747 1_555
In7_4 In7_5 3.138174 1_554
In7_4 In7_5 3.138174 1_555
In7_4 Ti0_4 3.218778 1_555
In7_4 Ti0_5 3.218778 1_554
In7_4 In9_4 3.274093 1_555
In7_4 Ti3_5 3.331747 1_554
In7_4 Ti3_4 3.331747 1_555
In7_5 Ti0_5 3.218778 1_555
In7_5 Ti0_4 3.218778 1_555
In7_5 In9_5 3.274093 1_555
In7_5 Ti3_5 3.331747 1_555
In7_5 Ti3_4 3.331747 1_555
In7_6 In7_7 3.138174 1_554
In7_6 In7_7 3.138174 1_555
In7_6 Ti0_7 3.218778 1_554
In7_6 Ti0_6 3.218778 1_555
In7_6 In9_6 3.274093 1_555
In7_6 Ti3_7 3.331747 1_554
In7_6 Ti3_6 3.331747 1_555
In7_7 Ti0_7 3.218778 1_555
In7_7 Ti0_6 3.218778 1_555
In7_7 In9_7 3.274093 1_555
In7_7 Ti3_7 3.331747 1_555
In7_7 Ti3_6 3.331747 1_555
In8_0 In8_1 3.138174 1_554
In8_0 In8_1 3.138174 1_555
In8_0 Ti3_0 3.218778 1_555
In8_0 Ti3_1 3.218778 1_554
In8_0 Ti0_4 3.331747 1_555
In8_0 Ti0_5 3.331747 1_554
In8_1 Ti3_0 3.218778 1_555
In8_1 Ti3_1 3.218778 1_555
In8_1 Ti0_4 3.331747 1_555
In8_1 Ti0_5 3.331747 1_555
In8_2 In8_3 3.138174 1_555
In8_2 In8_3 3.138174 1_554
In8_2 Ti3_2 3.218778 1_555
In8_2 Ti3_3 3.218778 1_554
In8_2 Ti0_7 3.331747 1_554
In8_2 Ti0_6 3.331747 1_555
In8_3 Ti3_2 3.218778 1_555
In8_3 Ti3_3 3.218778 1_555
In8_3 Ti0_6 3.331747 1_555
In8_3 Ti0_7 3.331747 1_555
In8_4 In8_5 3.138174 1_555
In8_4 In8_5 3.138174 1_554
In8_4 Ti3_5 3.218778 1_554
In8_4 Ti3_4 3.218778 1_555
In8_4 Ti0_1 3.331747 1_654
In8_4 Ti0_0 3.331747 1_655
In8_5 Ti3_4 3.218778 1_555
In8_5 Ti3_5 3.218778 1_555
In8_5 Ti0_1 3.331747 1_655
In8_5 Ti0_0 3.331747 1_655
In8_6 In8_7 3.138174 1_555
In8_6 In8_7 3.138174 1_554
In8_6 Ti3_6 3.218778 1_555
In8_6 Ti3_7 3.218778 1_554
In8_6 Ti0_2 3.331747 1_655
In8_6 Ti0_3 3.331747 1_654
In8_7 Ti3_7 3.218778 1_555
In8_7 Ti3_6 3.218778 1_555
In8_7 Ti0_2 3.331747 1_655
In8_7 Ti0_3 3.331747 1_655
In9_0 In9_1 3.138174 1_555
In9_0 In9_1 3.138174 1_554
In9_0 Ti3_1 3.199859 1_554
In9_0 Ti3_0 3.199859 1_555
In9_0 Ti2_2 3.199859 1_545
In9_0 Ti2_3 3.199859 1_544
In9_1 Ti3_0 3.199859 1_555
In9_1 Ti3_1 3.199859 1_555
In9_1 Ti2_2 3.199859 1_545
In9_1 Ti2_3 3.199859 1_545
In9_2 In9_3 3.138174 1_554
In9_2 In9_3 3.138174 1_555
In9_2 Ti3_2 3.199859 1_555
In9_2 Ti3_3 3.199859 1_554
In9_2 Ti2_0 3.199859 1_555
In9_2 Ti2_1 3.199859 1_554
In9_3 Ti3_2 3.199859 1_555
In9_3 Ti3_3 3.199859 1_555
In9_3 Ti2_1 3.199859 1_555
In9_3 Ti2_0 3.199859 1_555
In9_4 In9_5 3.138174 1_555
In9_4 In9_5 3.138174 1_554
In9_4 Ti3_4 3.199859 1_555
In9_4 Ti3_5 3.199859 1_554
In9_4 Ti2_6 3.199859 1_545
In9_4 Ti2_7 3.199859 1_544
In9_5 Ti3_4 3.199859 1_555
In9_5 Ti3_5 3.199859 1_555
In9_5 Ti2_6 3.199859 1_545
In9_5 Ti2_7 3.199859 1_545
In9_6 In9_7 3.138174 1_555
In9_6 In9_7 3.138174 1_554
In9_6 Ti3_7 3.199859 1_554
In9_6 Ti3_6 3.199859 1_555
In9_6 Ti2_4 3.199859 1_555
In9_6 Ti2_5 3.199859 1_554
In9_7 Ti3_6 3.199859 1_555
In9_7 Ti3_7 3.199859 1_555
In9_7 Ti2_4 3.199859 1_555
In9_7 Ti2_5 3.199859 1_555
