# generated using pymatgen
data_Ce21Fe8Bi7C12
_symmetry_space_group_name_H-M   'P 1'
_cell_length_a   11.39685331
_cell_length_b   11.39814896
_cell_length_c   11.39651789
_cell_angle_alpha   59.98474853
_cell_angle_beta   60.02115632
_cell_angle_gamma   60.02184122
_symmetry_Int_Tables_number   1
_chemical_formula_structural   Ce21Fe8Bi7C12
_chemical_formula_sum   'Ce21 Fe8 Bi7 C12'
_cell_volume   1047.04994724
_cell_formula_units_Z   1
loop_
 _symmetry_equiv_pos_site_id
 _symmetry_equiv_pos_as_xyz
  1  'x, y, z'
loop_
 _atom_site_type_symbol
 _atom_site_label
 _atom_site_symmetry_multiplicity
 _atom_site_fract_x
 _atom_site_fract_y
 _atom_site_fract_z
 _atom_site_occupancy
  Ce  Ce0  1  0.00001426  0.34285150  0.65714232  1
  Ce  Ce1  1  0.34284570  0.00000272  -0.00000078  1
  Ce  Ce2  1  0.00000343  0.99998836  0.65718062  1
  Ce  Ce3  1  0.08373295  0.63875696  0.63878177  1
  Ce  Ce4  1  0.34278566  0.65719757  0.00000224  1
  Ce  Ce5  1  0.00000766  0.34279966  0.00002534  1
  Ce  Ce6  1  0.36132899  0.36116027  0.36110089  1
  Ce  Ce7  1  0.36136081  0.36123985  0.91624235  1
  Ce  Ce8  1  0.00001344  0.65713349  0.00001208  1
  Ce  Ce9  1  -0.00000152  0.65722200  0.34274542  1
  Ce  Ce10  1  0.65714054  0.34268373  0.00011282  1
  Ce  Ce11  1  0.65722305  0.00006702  0.34261669  1
  Ce  Ce12  1  0.65719589  0.00005735  0.00009911  1
  Ce  Ce13  1  -0.00001449  0.00003770  0.34280585  1
  Ce  Ce14  1  0.36137192  0.91629290  0.36119898  1
  Ce  Ce15  1  0.63869150  0.08369388  0.63880431  1
  Ce  Ce16  1  0.91634160  0.36122855  0.36120123  1
  Ce  Ce17  1  0.34284909  0.99996187  0.65717440  1
  Ce  Ce18  1  0.63864787  0.63883864  0.63883269  1
  Ce  Ce19  1  0.63857397  0.63867986  0.08402748  1
  Ce  Ce20  1  0.49997076  0.50013389  0.49978402  1
  Fe  Fe0  1  0.19373202  0.41880666  0.19374241  1
  Fe  Fe1  1  0.80620031  0.80626307  0.58127579  1
  Fe  Fe2  1  0.58116425  0.80626545  0.80628989  1
  Fe  Fe3  1  0.41886135  0.19368980  0.19375143  1
  Fe  Fe4  1  0.80624701  0.80627159  0.80625992  1
  Fe  Fe5  1  0.19375427  0.19373957  0.19378274  1
  Fe  Fe6  1  0.19375416  0.19370995  0.41874613  1
  Fe  Fe7  1  0.80621226  0.58124641  0.80629175  1
  Bi  Bi0  1  0.70791001  0.70806338  0.29201698  1
  Bi  Bi1  1  0.70791730  0.29200500  0.70806422  1
  Bi  Bi2  1  0.29205426  0.29200804  0.70798067  1
  Bi  Bi3  1  0.29206014  0.70796320  0.29195964  1
  Bi  Bi4  1  0.29205812  0.70797938  0.70799252  1
  Bi  Bi5  1  0.70792147  0.29202235  0.29199435  1
  Bi  Bi6  1  -0.00001803  0.99998033  0.00003721  1
  C  C0  1  0.60410746  0.60415277  0.89592164  1
  C  C1  1  0.89578276  0.60418422  0.89582106  1
  C  C2  1  0.39582012  0.10417004  0.39576253  1
  C  C3  1  0.10420637  0.39577181  0.10421024  1
  C  C4  1  0.10426835  0.10425295  0.39574214  1
  C  C5  1  0.60419950  0.89584947  0.60413945  1
  C  C6  1  0.89577201  0.60429645  0.60422603  1
  C  C7  1  0.60418327  0.89580939  0.89587192  1
  C  C8  1  0.89577540  0.89575014  0.60422112  1
  C  C9  1  0.39584750  0.39583918  0.10412962  1
  C  C10  1  0.10425706  0.39571433  0.39569638  1
  C  C11  1  0.39586820  0.10416734  0.10418240  1
loop_
_geom_bond_atom_site_label_1
_geom_bond_atom_site_label_2
_geom_bond_distance
_geom_bond_site_symmetry_2
Bi0 Ce20 3.351187 1_555
Bi0 Ce19 3.352658 1_555
Bi0 Ce14 3.353452 1_555
Bi0 Ce18 3.354434 1_555
Bi0 Ce16 3.355823 1_555
Bi0 Ce12 3.376478 1_565
Bi0 Ce11 3.377826 1_565
Bi0 Ce9 3.378144 1_655
Bi0 Ce8 3.379957 1_655
Bi1 Ce7 3.353362 1_555
Bi1 Ce20 3.353866 1_555
Bi1 Ce15 3.354466 1_555
Bi1 Ce18 3.355160 1_555
Bi1 Ce16 3.355595 1_555
Bi1 Ce12 3.376948 1_556
Bi1 Ce10 3.378009 1_556
Bi1 Ce0 3.378714 1_655
Bi1 Ce2 3.380153 1_645
Bi2 Ce20 3.352586 1_555
Bi2 Ce7 3.354122 1_555
Bi2 Ce15 3.354479 1_555
Bi2 Ce3 3.354833 1_555
Bi2 Ce6 3.355284 1_555
Bi2 Ce1 3.377345 1_556
Bi2 Ce0 3.378314 1_555
Bi2 Ce17 3.379166 1_545
Bi2 Ce5 3.379684 1_556
Bi3 Ce20 3.349904 1_555
Bi3 Ce19 3.352356 1_555
Bi3 Ce3 3.355004 1_555
Bi3 Ce6 3.355075 1_555
Bi3 Ce14 3.355192 1_555
Bi3 Ce1 3.377333 1_565
Bi3 Ce4 3.377796 1_555
Bi3 Ce9 3.378254 1_555
Bi3 Ce13 3.380407 1_565
Bi4 Ce18 3.353247 1_555
Bi4 Ce7 3.353501 1_555
Bi4 Ce14 3.353773 1_555
Bi4 Ce3 3.353798 1_555
Bi4 Ce20 3.354510 1_555
Bi4 Ce4 3.377179 1_556
Bi4 Ce17 3.377619 1_555
Bi4 Ce8 3.379042 1_556
Bi4 Ce2 3.379212 1_555
Bi5 Ce19 3.352081 1_555
Bi5 Ce20 3.353279 1_555
Bi5 Ce6 3.353427 1_555
Bi5 Ce15 3.353945 1_555
Bi5 Ce16 3.354656 1_555
Bi5 Ce10 3.376651 1_555
Bi5 Ce11 3.377613 1_555
Bi5 Ce5 3.378948 1_655
Bi5 Ce13 3.379160 1_655
Bi6 Ce9 3.905345 1_555
Bi6 Ce12 3.905892 1_465
Bi6 Ce11 3.906543 1_465
Bi6 Ce13 3.906716 1_565
Bi6 Ce0 3.907051 1_564
Bi6 Ce2 3.907203 1_554
Bi6 Ce1 3.907479 1_565
Bi6 Ce5 3.907584 1_565
Bi6 Ce8 3.907783 1_555
Bi6 Ce10 3.908039 1_465
Bi6 Ce4 3.908276 1_555
Bi6 Ce17 3.908774 1_554
C0 Fe2 1.931203 1_555
C0 Fe7 1.931723 1_555
C0 Ce4 2.455620 1_556
C0 Ce10 2.456401 1_556
C0 Ce18 2.596093 1_555
C0 Ce19 2.597101 1_556
C1 Fe7 1.930283 1_555
C1 Fe4 1.930962 1_555
C1 Ce8 2.455270 1_656
C1 Ce5 2.455789 1_656
C1 Ce3 2.596654 1_655
C1 Ce19 2.599340 1_556
C2 Fe3 1.929699 1_555
C2 Fe6 1.931186 1_555
C2 Ce17 2.455560 1_545
C2 Ce11 2.456286 1_555
C2 Ce14 2.594948 1_545
C2 Ce6 2.595710 1_555
C3 Fe5 1.930597 1_555
C3 Fe0 1.930606 1_555
C3 Ce5 2.455092 1_555
C3 Ce8 2.455547 1_555
C3 Ce16 2.595974 1_455
C3 Ce7 2.598027 1_554
C4 Fe6 1.929341 1_555
C4 Fe5 1.929507 1_555
C4 Ce13 2.455979 1_555
C4 Ce2 2.456061 1_545
C4 Ce16 2.596396 1_455
C4 Ce14 2.597750 1_545
C5 Fe1 1.930815 1_555
C5 Fe2 1.931079 1_555
C5 Ce17 2.455927 1_555
C5 Ce11 2.456561 1_565
C5 Ce15 2.595642 1_565
C5 Ce18 2.595982 1_555
C6 Fe1 1.930264 1_555
C6 Fe7 1.930707 1_555
C6 Ce9 2.456668 1_655
C6 Ce0 2.456726 1_655
C6 Ce3 2.595558 1_655
C6 Ce18 2.597153 1_555
C7 Fe2 1.931455 1_555
C7 Fe4 1.931718 1_555
C7 Ce1 2.456128 1_566
C7 Ce12 2.456534 1_566
C7 Ce15 2.595605 1_565
C7 Ce19 2.597270 1_556
C8 Fe1 1.930067 1_555
C8 Fe4 1.930185 1_555
C8 Ce13 2.455825 1_665
C8 Ce2 2.455864 1_655
C8 Ce3 2.596643 1_655
C8 Ce15 2.597544 1_565
C9 Fe3 1.931405 1_555
C9 Fe0 1.931691 1_555
C9 Ce10 2.455193 1_555
C9 Ce4 2.455293 1_555
C9 Ce6 2.594894 1_555
C9 Ce7 2.595342 1_554
C10 Fe0 1.929516 1_555
C10 Fe6 1.930411 1_555
C10 Ce0 2.456419 1_555
C10 Ce9 2.457286 1_555
C10 Ce16 2.594795 1_455
C10 Ce6 2.596569 1_555
C11 Fe3 1.930921 1_555
C11 Fe5 1.932149 1_555
C11 Ce1 2.455384 1_555
C11 Ce12 2.455873 1_555
C11 Ce14 2.595194 1_545
C11 Ce7 2.596027 1_554
