# generated using pymatgen
data_Ca3Mg3(PO4)4
_symmetry_space_group_name_H-M   'P 1'
_cell_length_a   12.63209671
_cell_length_b   12.63209671
_cell_length_c   17.34095892
_cell_angle_alpha   80.85558923
_cell_angle_beta   80.85558923
_cell_angle_gamma   47.22137674
_symmetry_Int_Tables_number   1
_chemical_formula_structural   Ca3Mg3(PO4)4
_chemical_formula_sum   'Ca18 Mg18 P24 O96'
_cell_volume   2000.21929189
_cell_formula_units_Z   6
loop_
 _symmetry_equiv_pos_site_id
 _symmetry_equiv_pos_as_xyz
  1  'x, y, z'
loop_
 _atom_site_type_symbol
 _atom_site_label
 _atom_site_symmetry_multiplicity
 _atom_site_fract_x
 _atom_site_fract_y
 _atom_site_fract_z
 _atom_site_occupancy
  Ca  Ca0  1  0.79433200  0.88908100  0.43532500  1
  Ca  Ca1  1  0.17935600  0.95640900  0.41081600  1
  Ca  Ca2  1  0.83888100  0.53573700  0.56661200  1
  Ca  Ca3  1  0.95640900  0.17935600  0.91081600  1
  Ca  Ca4  1  0.20566800  0.11091900  0.56467500  1
  Ca  Ca5  1  0.33004000  0.49156600  0.60882100  1
  Ca  Ca6  1  0.49156600  0.33004000  0.10882100  1
  Ca  Ca7  1  0.46426300  0.16111900  0.93338800  1
  Ca  Ca8  1  0.50843400  0.66996000  0.89117900  1
  Ca  Ca9  1  0.53573700  0.83888100  0.06661200  1
  Ca  Ca10  1  0.04359100  0.82064400  0.08918400  1
  Ca  Ca11  1  0.16111900  0.46426300  0.43338800  1
  Ca  Ca12  1  0.11091900  0.20566800  0.06467500  1
  Ca  Ca13  1  0.89792900  0.10207100  0.75000000  1
  Ca  Ca14  1  0.82064400  0.04359100  0.58918400  1
  Ca  Ca15  1  0.10207100  0.89792900  0.25000000  1
  Ca  Ca16  1  0.66996000  0.50843400  0.39117900  1
  Ca  Ca17  1  0.88908100  0.79433200  0.93532500  1
  Mg  Mg0  1  0.10441600  0.36936000  0.87001900  1
  Mg  Mg1  1  0.74339200  0.04195200  0.23516400  1
  Mg  Mg2  1  0.04195200  0.74339200  0.73516400  1
  Mg  Mg3  1  0.89558400  0.63064000  0.12998100  1
  Mg  Mg4  1  0.25660800  0.95804800  0.76483600  1
  Mg  Mg5  1  0.38288500  0.14911600  0.72490300  1
  Mg  Mg6  1  0.63064000  0.89558400  0.62998100  1
  Mg  Mg7  1  0.32883700  0.50972400  0.94901800  1
  Mg  Mg8  1  0.50972400  0.32883700  0.44901800  1
  Mg  Mg9  1  0.14911600  0.38288500  0.22490300  1
  Mg  Mg10  1  0.36936000  0.10441600  0.37001900  1
  Mg  Mg11  1  0.57362000  0.42638000  0.25000000  1
  Mg  Mg12  1  0.61711500  0.85088400  0.27509700  1
  Mg  Mg13  1  0.67116300  0.49027600  0.05098200  1
  Mg  Mg14  1  0.49027600  0.67116300  0.55098200  1
  Mg  Mg15  1  0.95804800  0.25660800  0.26483600  1
  Mg  Mg16  1  0.42638000  0.57362000  0.75000000  1
  Mg  Mg17  1  0.85088400  0.61711500  0.77509700  1
  P  P0  1  0.27815200  0.04834100  0.22409200  1
  P  P1  1  0.95165900  0.72184800  0.27590800  1
  P  P2  1  0.55827900  0.71790400  0.71352900  1
  P  P3  1  0.06487600  0.30415700  0.39958000  1
  P  P4  1  0.72184800  0.95165900  0.77590800  1
  P  P5  1  0.44172100  0.28209600  0.28647100  1
  P  P6  1  0.35529000  0.64779900  0.09577800  1
  P  P7  1  0.88861500  0.16473000  0.12077800  1
  P  P8  1  0.11138500  0.83527000  0.87922200  1
  P  P9  1  0.64779900  0.35529000  0.59577800  1
  P  P10  1  0.28209600  0.44172100  0.78647100  1
  P  P11  1  0.35220100  0.64471000  0.40422200  1
  P  P12  1  0.57270000  0.81602400  0.47520300  1
  P  P13  1  0.04834100  0.27815200  0.72409200  1
  P  P14  1  0.83527000  0.11138500  0.37922200  1
  P  P15  1  0.18397600  0.42730000  0.02479700  1
  P  P16  1  0.64471000  0.35220100  0.90422200  1
  P  P17  1  0.81602400  0.57270000  0.97520300  1
  P  P18  1  0.71790400  0.55827900  0.21352900  1
  P  P19  1  0.30415700  0.06487600  0.89958000  1
  P  P20  1  0.16473000  0.88861500  0.62077800  1
  P  P21  1  0.93512400  0.69584300  0.60042000  1
  P  P22  1  0.69584300  0.93512400  0.10042000  1
  P  P23  1  0.42730000  0.18397600  0.52479700  1
  O  O0  1  0.79573300  0.22885800  0.62903600  1
  O  O1  1  0.02372600  0.83120900  0.82763700  1
  O  O2  1  0.95652700  0.11047900  0.34168600  1
  O  O3  1  0.06292100  0.65047700  0.63934100  1
  O  O4  1  0.22317500  0.97866400  0.27300300  1
  O  O5  1  0.86367900  0.82036800  0.07962100  1
  O  O6  1  0.73331400  0.42840000  0.25713200  1
  O  O7  1  0.33154800  0.15718300  0.84410200  1
  O  O8  1  0.11047900  0.95652700  0.84168600  1
  O  O9  1  0.62530400  0.62007100  0.14278700  1
  O  O10  1  0.65047700  0.06292100  0.13934100  1
  O  O11  1  0.20426700  0.77114200  0.37096400  1
  O  O12  1  0.14655300  0.21799300  0.21762600  1
  O  O13  1  0.98271500  0.61813200  0.52571500  1
  O  O14  1  0.87250200  0.49350900  0.18637100  1
  O  O15  1  0.42631100  0.87796300  0.51987800  1
  O  O16  1  0.57368900  0.12203700  0.48012200  1
  O  O17  1  0.82036800  0.86367900  0.57962100  1
  O  O18  1  0.82680100  0.66145600  0.02052900  1
  O  O19  1  0.33124800  0.35101500  0.22376400  1
  O  O20  1  0.02577000  0.87482600  0.95960500  1
  O  O21  1  0.27009000  0.68905800  0.88268100  1
  O  O22  1  0.97423000  0.12517400  0.04039500  1
  O  O23  1  0.34819800  0.33756200  0.03001000  1
  O  O24  1  0.60274700  0.98221700  0.73393600  1
  O  O25  1  0.47078600  0.55132300  0.33913000  1
  O  O26  1  0.04347300  0.88952100  0.65831400  1
  O  O27  1  0.29137900  0.59727300  0.05843900  1
  O  O28  1  0.97866400  0.22317500  0.77300300  1
  O  O29  1  0.01728500  0.38186800  0.47428500  1
  O  O30  1  0.42840000  0.73331400  0.75713200  1
  O  O31  1  0.00276600  0.32609300  0.63915600  1
  O  O32  1  0.17319900  0.33854400  0.97947100  1
  O  O33  1  0.88952100  0.04347300  0.15831400  1
  O  O34  1  0.33854400  0.17319900  0.47947100  1
  O  O35  1  0.50649100  0.12749800  0.31362900  1
  O  O36  1  0.26668600  0.57160000  0.74286800  1
  O  O37  1  0.66243800  0.65180200  0.46999000  1
  O  O38  1  0.72991000  0.31094200  0.11731900  1
  O  O39  1  0.38186800  0.01728500  0.97428500  1
  O  O40  1  0.37992900  0.37469600  0.35721300  1
  O  O41  1  0.49350900  0.87250200  0.68637100  1
  O  O42  1  0.85344700  0.78200700  0.78237400  1
  O  O43  1  0.52921400  0.44867600  0.66087000  1
  O  O44  1  0.40272700  0.70862100  0.44156100  1
  O  O45  1  0.34952300  0.93707900  0.86065900  1
  O  O46  1  0.70862100  0.40272700  0.94156100  1
  O  O47  1  0.12517400  0.97423000  0.54039500  1
  O  O48  1  0.87796300  0.42631100  0.01987800  1
  O  O49  1  0.37469600  0.37992900  0.85721300  1
  O  O50  1  0.65180200  0.66243800  0.96999000  1
  O  O51  1  0.93707900  0.34952300  0.36065900  1
  O  O52  1  0.16879100  0.97627400  0.67236300  1
  O  O53  1  0.77682500  0.02133600  0.72699700  1
  O  O54  1  0.62007100  0.62530400  0.64278700  1
  O  O55  1  0.39725300  0.01778300  0.26606400  1
  O  O56  1  0.99723400  0.67390700  0.36084400  1
  O  O57  1  0.97627400  0.16879100  0.17236300  1
  O  O58  1  0.66875200  0.64898500  0.77623600  1
  O  O59  1  0.98221700  0.60274700  0.23393600  1
  O  O60  1  0.35101500  0.33124800  0.72376400  1
  O  O61  1  0.02133600  0.77682500  0.22699700  1
  O  O62  1  0.01778300  0.39725300  0.76606400  1
  O  O63  1  0.65223100  0.45366700  0.53184000  1
  O  O64  1  0.77114200  0.20426700  0.87096400  1
  O  O65  1  0.45366700  0.65223100  0.03184000  1
  O  O66  1  0.10757500  0.44790700  0.10737500  1
  O  O67  1  0.83120900  0.02372600  0.32763700  1
  O  O68  1  0.57160000  0.26668600  0.24286800  1
  O  O69  1  0.84281700  0.66845200  0.65589800  1
  O  O70  1  0.59727300  0.29137900  0.55843900  1
  O  O71  1  0.67390700  0.99723400  0.86084400  1
  O  O72  1  0.12749800  0.50649100  0.81362900  1
  O  O73  1  0.61813200  0.98271500  0.02571500  1
  O  O74  1  0.44867600  0.52921400  0.16087000  1
  O  O75  1  0.17963200  0.13632100  0.42037900  1
  O  O76  1  0.89242500  0.55209300  0.89262500  1
  O  O77  1  0.21799300  0.14655300  0.71762600  1
  O  O78  1  0.78200700  0.85344700  0.28237400  1
  O  O79  1  0.55132300  0.47078600  0.83913000  1
  O  O80  1  0.15718300  0.33154800  0.34410200  1
  O  O81  1  0.66845200  0.84281700  0.15589800  1
  O  O82  1  0.34776900  0.54633300  0.46816000  1
  O  O83  1  0.12203700  0.57368900  0.98012200  1
  O  O84  1  0.55209300  0.89242500  0.39262500  1
  O  O85  1  0.22885800  0.79573300  0.12903600  1
  O  O86  1  0.64898500  0.66875200  0.27623600  1
  O  O87  1  0.87482600  0.02577000  0.45960500  1
  O  O88  1  0.44790700  0.10757500  0.60737500  1
  O  O89  1  0.33756200  0.34819800  0.53001000  1
  O  O90  1  0.68905800  0.27009000  0.38268100  1
  O  O91  1  0.66145600  0.82680100  0.52052900  1
  O  O92  1  0.31094200  0.72991000  0.61731900  1
  O  O93  1  0.32609300  0.00276600  0.13915600  1
  O  O94  1  0.13632100  0.17963200  0.92037900  1
  O  O95  1  0.54633300  0.34776900  0.96816000  1
loop_
_geom_bond_atom_site_label_1
_geom_bond_atom_site_label_2
_geom_bond_distance
_geom_bond_site_symmetry_2
Ca0 O16 2.434939 1_565
Ca0 O56 2.495219 1_555
Ca0 O91 2.501070 1_555
Ca0 O17 2.517004 1_555
Ca0 O67 2.527313 1_565
Ca0 O87 2.635246 1_565
Ca0 O78 2.804918 1_555
Ca0 O13 2.872510 1_555
Ca1 O47 2.242968 1_555
Ca1 O75 2.307219 1_565
Ca1 O11 2.344837 1_555
Ca1 O4 2.382014 1_555
Ca1 O44 2.448323 1_555
Ca1 O2 2.457159 1_465
Ca2 O31 2.281095 1_655
Ca2 O29 2.304857 1_655
Ca2 O54 2.394058 1_555
Ca2 O37 2.427364 1_555
Ca2 O69 2.484550 1_555
Ca2 O13 2.609989 1_555
Ca2 O91 2.760849 1_555
Ca3 O22 2.242968 1_556
Ca3 O94 2.307219 1_655
Ca3 O64 2.344837 1_555
Ca3 O28 2.382014 1_555
Ca3 O46 2.448323 1_555
Ca3 O8 2.457159 1_645
Ca4 O15 2.434939 1_545
Ca4 O31 2.495219 1_555
Ca4 O34 2.501070 1_555
Ca4 O75 2.517004 1_555
Ca4 O52 2.527313 1_545
Ca4 O47 2.635246 1_545
Ca4 O77 2.804918 1_555
Ca4 O29 2.872510 1_555
Ca5 O89 2.380823 1_555
Ca5 O82 2.445182 1_555
Ca5 O36 2.474380 1_555
Ca5 O43 2.480551 1_555
Ca5 O3 2.502967 1_555
Ca5 O60 2.510054 1_555
Ca5 O70 2.592864 1_555
Ca5 O92 2.878861 1_555
Ca6 O23 2.380823 1_555
Ca6 O95 2.445182 1_554
Ca6 O68 2.474380 1_555
Ca6 O74 2.480551 1_555
Ca6 O10 2.502967 1_555
Ca6 O19 2.510054 1_555
Ca6 O27 2.592864 1_555
Ca6 O38 2.878861 1_555
Ca7 O71 2.281095 1_545
Ca7 O73 2.304857 1_546
Ca7 O49 2.394058 1_555
Ca7 O23 2.427364 1_556
Ca7 O7 2.484550 1_555
Ca7 O39 2.609989 1_555
Ca7 O32 2.760849 1_555
Ca8 O50 2.380823 1_555
Ca8 O65 2.445182 1_556
Ca8 O30 2.474380 1_555
Ca8 O79 2.480558 1_555
Ca8 O45 2.502967 1_555
Ca8 O58 2.510054 1_555
Ca8 O46 2.592864 1_555
Ca8 O21 2.878861 1_555
Ca9 O93 2.281095 1_565
Ca9 O39 2.304857 1_564
Ca9 O9 2.394058 1_555
Ca9 O50 2.427364 1_554
Ca9 O81 2.484550 1_555
Ca9 O73 2.609989 1_555
Ca9 O18 2.760849 1_555
Ca10 O20 2.242968 1_554
Ca10 O5 2.307219 1_455
Ca10 O85 2.344837 1_555
Ca10 O61 2.382014 1_555
Ca10 O27 2.448323 1_555
Ca10 O33 2.457159 1_465
Ca11 O56 2.281095 1_455
Ca11 O13 2.304857 1_455
Ca11 O40 2.394058 1_555
Ca11 O89 2.427364 1_555
Ca11 O80 2.484550 1_555
Ca11 O29 2.609989 1_555
Ca11 O34 2.760849 1_555
Ca12 O48 2.434939 1_455
Ca12 O93 2.495219 1_555
Ca12 O32 2.501070 1_554
Ca12 O94 2.517004 1_554
Ca12 O57 2.527313 1_455
Ca12 O22 2.635246 1_455
Ca12 O12 2.804918 1_555
Ca12 O39 2.872510 1_554
Ca13 O0 2.369838 1_555
Ca13 O64 2.369838 1_555
Ca13 O53 2.445810 1_555
Ca13 O28 2.445810 1_555
Ca13 O26 2.615248 1_645
Ca13 O8 2.615248 1_645
Ca13 O52 2.806270 1_645
Ca13 O1 2.806270 1_645
Ca14 O87 2.242968 1_555
Ca14 O17 2.307219 1_545
Ca14 O0 2.344837 1_555
Ca14 O53 2.382014 1_555
Ca14 O70 2.448323 1_555
Ca14 O26 2.457159 1_645
Ca15 O85 2.369838 1_555
Ca15 O11 2.369838 1_555
Ca15 O61 2.445810 1_555
Ca15 O4 2.445810 1_555
Ca15 O33 2.615248 1_465
Ca15 O2 2.615248 1_465
Ca15 O57 2.806270 1_465
Ca15 O67 2.806270 1_465
Ca16 O37 2.380823 1_555
Ca16 O63 2.445182 1_555
Ca16 O6 2.474380 1_555
Ca16 O25 2.480558 1_555
Ca16 O51 2.502967 1_555
Ca16 O86 2.510054 1_555
Ca16 O44 2.592864 1_555
Ca16 O90 2.878861 1_555
Ca17 O83 2.434939 1_655
Ca17 O71 2.495219 1_555
Ca17 O18 2.501070 1_556
Ca17 O5 2.517004 1_556
Ca17 O1 2.527313 1_655
Ca17 O20 2.635246 1_655
Ca17 O42 2.804918 1_555
Ca17 O73 2.872510 1_556
Mg0 O72 2.024589 1_555
Mg0 O76 2.051973 1_455
Mg0 O32 2.082977 1_555
Mg0 O62 2.114901 1_555
Mg0 O94 2.191720 1_555
Mg0 O7 2.268282 1_555
Mg1 O67 1.989010 1_555
Mg1 O10 2.065571 1_555
Mg1 O33 2.107577 1_555
Mg1 O68 2.108681 1_555
Mg1 O78 2.123181 1_545
Mg2 O1 1.989010 1_555
Mg2 O3 2.065571 1_555
Mg2 O26 2.107577 1_555
Mg2 O36 2.108681 1_555
Mg2 O42 2.123181 1_455
Mg3 O14 2.024589 1_555
Mg3 O66 2.051973 1_655
Mg3 O18 2.082977 1_555
Mg3 O59 2.114901 1_555
Mg3 O5 2.191720 1_555
Mg3 O81 2.268282 1_555
Mg4 O52 1.989010 1_555
Mg4 O45 2.065571 1_555
Mg4 O8 2.107577 1_555
Mg4 O30 2.108681 1_555
Mg4 O77 2.123181 1_565
Mg5 O60 2.045893 1_555
Mg5 O7 2.062680 1_555
Mg5 O24 2.064617 1_545
Mg5 O88 2.079914 1_555
Mg5 O77 2.128855 1_555
Mg6 O41 2.024589 1_555
Mg6 O88 2.051973 1_565
Mg6 O91 2.082977 1_555
Mg6 O24 2.114901 1_555
Mg6 O17 2.191720 1_555
Mg6 O69 2.268282 1_555
Mg7 O21 2.040931 1_555
Mg7 O95 2.069567 1_555
Mg7 O83 2.142786 1_555
Mg7 O27 2.172130 1_556
Mg7 O49 2.191940 1_555
Mg7 O23 2.275490 1_556
Mg8 O90 2.040931 1_555
Mg8 O82 2.069567 1_555
Mg8 O16 2.142786 1_555
Mg8 O70 2.172130 1_555
Mg8 O40 2.191940 1_555
Mg8 O89 2.275490 1_555
Mg9 O19 2.045893 1_555
Mg9 O80 2.062680 1_555
Mg9 O59 2.064617 1_455
Mg9 O66 2.079914 1_555
Mg9 O12 2.128855 1_555
Mg10 O35 2.024589 1_555
Mg10 O84 2.051973 1_545
Mg10 O34 2.082977 1_555
Mg10 O55 2.114901 1_555
Mg10 O75 2.191720 1_555
Mg10 O80 2.268282 1_555
Mg11 O25 1.979806 1_555
Mg11 O74 1.979812 1_555
Mg11 O6 2.058044 1_555
Mg11 O68 2.058044 1_555
Mg12 O86 2.045893 1_555
Mg12 O81 2.062680 1_555
Mg12 O55 2.064617 1_565
Mg12 O84 2.079914 1_555
Mg12 O78 2.128855 1_555
Mg13 O38 2.040931 1_555
Mg13 O65 2.069567 1_555
Mg13 O48 2.142786 1_555
Mg13 O46 2.172130 1_554
Mg13 O9 2.191940 1_555
Mg13 O50 2.275490 1_554
Mg14 O92 2.040931 1_555
Mg14 O63 2.069567 1_555
Mg14 O15 2.142786 1_555
Mg14 O44 2.172130 1_555
Mg14 O54 2.191940 1_555
Mg14 O37 2.275490 1_555
Mg15 O57 1.989010 1_555
Mg15 O51 2.065571 1_555
Mg15 O2 2.107577 1_555
Mg15 O6 2.108681 1_555
Mg15 O12 2.123181 1_655
Mg16 O79 1.979806 1_555
Mg16 O43 1.979812 1_555
Mg16 O36 2.058044 1_555
Mg16 O30 2.058044 1_555
Mg17 O58 2.045893 1_555
Mg17 O69 2.062680 1_555
Mg17 O62 2.064617 1_655
Mg17 O76 2.079914 1_555
Mg17 O42 2.128855 1_555
O0 P9 1.539885 1_555
O1 P8 1.560626 1_555
O2 P14 1.559381 1_555
O3 P21 1.535182 1_455
O4 P0 1.543423 1_565
O5 P22 1.573170 1_555
O6 P18 1.587450 1_555
O7 P19 1.578146 1_555
O8 P8 1.559381 1_555
O9 P18 1.547237 1_555
O10 P22 1.535182 1_545
O11 P11 1.539885 1_555
O12 P0 1.585079 1_555
O13 P21 1.535679 1_555
O14 P18 1.537785 1_555
O15 P12 1.550453 1_555
O16 P23 1.550453 1_555
O17 P21 1.573170 1_555
O18 P17 1.553960 1_554
O19 P5 1.555302 1_555
O20 P8 1.539643 1_555
O21 P8 1.551592 1_555
O22 P7 1.539643 1_555
O23 P15 1.558654 1_555
O24 P4 1.553109 1_555
O25 P11 1.547616 1_555
O26 P20 1.559381 1_555
O27 P6 1.573473 1_555
O28 P13 1.543423 1_655
O29 P3 1.535679 1_555
O30 P2 1.587450 1_555
O31 P13 1.542714 1_555
O32 P15 1.553960 1_556
O33 P7 1.559381 1_555
O34 P23 1.553960 1_555
O35 P5 1.537785 1_555
O36 P10 1.587450 1_555
O37 P12 1.558654 1_555
O38 P7 1.551592 1_555
O39 P19 1.535679 1_555
O40 P5 1.547237 1_555
O41 P2 1.537785 1_555
O42 P4 1.585079 1_555
O43 P9 1.547613 1_555
O44 P11 1.573473 1_555
O45 P19 1.535182 1_565
O46 P16 1.573473 1_555
O47 P20 1.539643 1_555
O48 P17 1.550453 1_554
O49 P10 1.547237 1_555
O50 P17 1.558654 1_555
O51 P3 1.535182 1_655
O52 P20 1.560626 1_555
O53 P4 1.543423 1_545
O54 P2 1.547237 1_555
O55 P0 1.553109 1_555
O56 P1 1.542714 1_555
O57 P7 1.560626 1_555
O58 P2 1.555302 1_555
O59 P1 1.553109 1_555
O60 P10 1.555302 1_555
O61 P1 1.543423 1_455
O62 P13 1.553109 1_555
O63 P9 1.553578 1_555
O64 P16 1.539885 1_555
O65 P6 1.553578 1_555
O66 P15 1.545226 1_555
O67 P14 1.560626 1_555
O68 P5 1.587450 1_555
O69 P21 1.578146 1_555
O70 P9 1.573473 1_555
O71 P4 1.542714 1_555
O72 P10 1.537785 1_555
O73 P22 1.535679 1_555
O74 P6 1.547613 1_555
O75 P3 1.573170 1_555
O76 P17 1.545226 1_555
O77 P13 1.585079 1_555
O78 P1 1.585079 1_555
O79 P16 1.547616 1_555
O80 P3 1.578146 1_555
O81 P22 1.578146 1_555
O82 P11 1.553578 1_555
O83 P15 1.550453 1_556
O84 P12 1.545226 1_555
O85 P6 1.539885 1_555
O86 P18 1.555302 1_555
O87 P14 1.539643 1_555
O88 P23 1.545226 1_555
O89 P23 1.558654 1_555
O90 P14 1.551592 1_555
O91 P12 1.553960 1_555
O92 P20 1.551592 1_555
O93 P0 1.542714 1_555
O94 P19 1.573170 1_555
O95 P16 1.553578 1_555
