# generated using pymatgen
data_Th6FeBr15
_symmetry_space_group_name_H-M   'P 1'
_cell_length_a   10.04719683
_cell_length_b   10.04719683
_cell_length_c   10.04719683
_cell_angle_alpha   109.47123023
_cell_angle_beta   109.47121584
_cell_angle_gamma   109.47121584
_symmetry_Int_Tables_number   1
_chemical_formula_structural   Th6FeBr15
_chemical_formula_sum   'Th6 Fe1 Br15'
_cell_volume   780.75152462
_cell_formula_units_Z   1
loop_
 _symmetry_equiv_pos_site_id
 _symmetry_equiv_pos_as_xyz
  1  'x, y, z'
loop_
 _atom_site_type_symbol
 _atom_site_label
 _atom_site_symmetry_multiplicity
 _atom_site_fract_x
 _atom_site_fract_y
 _atom_site_fract_z
 _atom_site_occupancy
  Th  Th0  1  0.23851695  -0.00000000  0.23851695  1
  Th  Th1  1  0.23851695  0.23851695  -0.00000000  1
  Th  Th2  1  0.76148305  0.00000000  0.76148305  1
  Th  Th3  1  -0.00000000  0.23851695  0.23851695  1
  Th  Th4  1  0.00000000  0.76148305  0.76148305  1
  Th  Th5  1  0.76148305  0.76148305  0.00000000  1
  Fe  Fe0  1  -0.00000000  -0.00000000  0.00000000  1
  Br  Br0  1  0.00000000  0.74752621  0.25247379  1
  Br  Br1  1  0.25247379  0.74752621  0.00000000  1
  Br  Br2  1  0.49505242  0.74752621  0.74752621  1
  Br  Br3  1  -0.00000000  0.25247379  0.74752621  1
  Br  Br4  1  0.74752621  1.00000000  0.25247379  1
  Br  Br5  1  0.25247379  0.50494758  0.25247379  1
  Br  Br6  1  0.74752621  0.25247379  1.00000000  1
  Br  Br7  1  0.50000000  0.50000000  0.00000000  1
  Br  Br8  1  0.25247379  0.25247379  0.50494758  1
  Br  Br9  1  0.74752621  0.49505242  0.74752621  1
  Br  Br10  1  0.74752621  0.74752621  0.49505242  1
  Br  Br11  1  0.50494758  0.25247379  0.25247379  1
  Br  Br12  1  0.25247379  0.00000000  0.74752621  1
  Br  Br13  1  -0.00000000  0.50000000  0.50000000  1
  Br  Br14  1  0.50000000  -0.00000000  0.50000000  1
loop_
_geom_bond_atom_site_label_1
_geom_bond_atom_site_label_2
_geom_bond_distance
_geom_bond_site_symmetry_2
Fe0 Th4 2.767155 1_544
Fe0 Th3 2.767155 1_555
Fe0 Th2 2.767155 1_454
Fe0 Th5 2.767155 1_445
Fe0 Th1 2.767155 1_555
Fe0 Th0 2.767155 1_555
Br0 Th0 2.933548 1_565
Br0 Th5 2.933548 1_455
Br1 Th0 2.933547 1_565
Br1 Th4 2.933548 1_554
Br2 Th2 2.933548 1_565
Br2 Th5 2.933548 1_556
Br3 Th1 2.933548 1_556
Br3 Th2 2.933548 1_455
Br4 Th5 2.933547 1_555
Br4 Th3 2.933548 1_665
Br5 Th1 2.933547 1_555
Br5 Th3 2.933548 1_555
Br6 Th2 2.933547 1_555
Br6 Th3 2.933548 1_656
Br7 Th1 3.033597 1_555
Br7 Th5 3.033597 1_555
Br8 Th0 2.933547 1_555
Br8 Th3 2.933548 1_555
Br9 Th5 2.933547 1_556
Br9 Th4 2.933548 1_655
Br10 Th2 2.933547 1_565
Br10 Th4 2.933548 1_655
Br11 Th1 2.933548 1_555
Br11 Th0 2.933548 1_555
Br12 Th1 2.933547 1_556
Br12 Th4 2.933548 1_545
Br13 Th3 3.033596 1_555
Br13 Th4 3.033596 1_555
Br14 Th0 3.033597 1_555
Br14 Th2 3.033597 1_555
