# generated using pymatgen
data_BaZn2(PO4)2
_symmetry_space_group_name_H-M   'P 1'
_cell_length_a   9.90729200
_cell_length_b   8.70714100
_cell_length_c   9.28517965
_cell_angle_alpha   88.50807194
_cell_angle_beta   90.00000000
_cell_angle_gamma   90.00000000
_symmetry_Int_Tables_number   1
_chemical_formula_structural   BaZn2(PO4)2
_chemical_formula_sum   'Ba4 Zn8 P8 O32'
_cell_volume   800.70695692
_cell_formula_units_Z   4
loop_
 _symmetry_equiv_pos_site_id
 _symmetry_equiv_pos_as_xyz
  1  'x, y, z'
loop_
 _atom_site_type_symbol
 _atom_site_label
 _atom_site_symmetry_multiplicity
 _atom_site_fract_x
 _atom_site_fract_y
 _atom_site_fract_z
 _atom_site_occupancy
  Ba  Ba0  1  0.91685700  0.25327900  0.60468200  1
  Ba  Ba1  1  0.41685700  0.74672100  0.89531800  1
  Ba  Ba2  1  0.08314300  0.74672100  0.39531800  1
  Ba  Ba3  1  0.58314300  0.25327900  0.10468200  1
  Zn  Zn0  1  0.68145800  0.58405500  0.44067800  1
  Zn  Zn1  1  0.31854200  0.41594500  0.55932200  1
  Zn  Zn2  1  0.57511200  0.07391700  0.70828200  1
  Zn  Zn3  1  0.18145800  0.41594500  0.05932200  1
  Zn  Zn4  1  0.42488800  0.92608300  0.29171800  1
  Zn  Zn5  1  0.92488800  0.07391700  0.20828200  1
  Zn  Zn6  1  0.07511200  0.92608300  0.79171800  1
  Zn  Zn7  1  0.81854200  0.58405500  0.94067800  1
  P  P0  1  0.58883600  0.44161700  0.74156700  1
  P  P1  1  0.08883600  0.55838300  0.75843300  1
  P  P2  1  0.91116400  0.44161700  0.24156700  1
  P  P3  1  0.41116400  0.55838300  0.25843300  1
  P  P4  1  0.70368400  0.95215400  0.42626600  1
  P  P5  1  0.20368400  0.04784600  0.07373400  1
  P  P6  1  0.29631600  0.04784600  0.57373400  1
  P  P7  1  0.79631600  0.95215400  0.92626600  1
  O  O0  1  0.41983300  0.72556300  0.19536200  1
  O  O1  1  0.91983300  0.27443700  0.30463800  1
  O  O2  1  0.58016700  0.27443700  0.80463800  1
  O  O3  1  0.08016700  0.72556300  0.69536200  1
  O  O4  1  0.65478600  0.79646800  0.48907400  1
  O  O5  1  0.15478600  0.20353200  0.01092600  1
  O  O6  1  0.34521400  0.20353200  0.51092600  1
  O  O7  1  0.84521400  0.79646800  0.98907400  1
  O  O8  1  0.69099600  0.44611800  0.61552500  1
  O  O9  1  0.19099600  0.55388200  0.88447500  1
  O  O10  1  0.30900400  0.55388200  0.38447500  1
  O  O11  1  0.80900400  0.44611800  0.11552500  1
  O  O12  1  0.69713600  0.07571200  0.54481900  1
  O  O13  1  0.19713600  0.92428800  0.95518100  1
  O  O14  1  0.30286400  0.92428800  0.45518100  1
  O  O15  1  0.80286400  0.07571200  0.04481900  1
  O  O16  1  0.86719700  0.54461500  0.36869900  1
  O  O17  1  0.36719700  0.45538500  0.13130100  1
  O  O18  1  0.13280300  0.45538500  0.63130100  1
  O  O19  1  0.63280300  0.54461500  0.86869900  1
  O  O20  1  0.89014600  0.00691200  0.79927200  1
  O  O21  1  0.39014600  0.99308800  0.70072800  1
  O  O22  1  0.10985400  0.99308800  0.20072800  1
  O  O23  1  0.60985400  0.00691200  0.29927200  1
  O  O24  1  0.94915200  0.49441800  0.80646500  1
  O  O25  1  0.44915200  0.50558200  0.69353500  1
  O  O26  1  0.05084800  0.50558200  0.19353500  1
  O  O27  1  0.55084800  0.49441800  0.30646500  1
  O  O28  1  0.64693400  0.94413200  0.87360400  1
  O  O29  1  0.14693400  0.05586800  0.62639600  1
  O  O30  1  0.35306600  0.05586800  0.12639600  1
  O  O31  1  0.85306600  0.94413200  0.37360400  1
loop_
_geom_bond_atom_site_label_1
_geom_bond_atom_site_label_2
_geom_bond_distance
_geom_bond_site_symmetry_2
Ba0 O12 2.735465 1_555
Ba0 O20 2.781083 1_555
Ba0 O18 2.785268 1_655
Ba0 O1 2.787413 1_555
Ba0 O8 2.800965 1_555
Ba0 O29 2.858849 1_655
Ba0 O24 2.868103 1_555
Ba1 O13 2.735465 1_555
Ba1 O21 2.781083 1_555
Ba1 O19 2.785268 1_555
Ba1 O0 2.787413 1_556
Ba1 O9 2.800965 1_555
Ba1 O28 2.858849 1_555
Ba1 O25 2.868103 1_555
Ba2 O14 2.735465 1_555
Ba2 O22 2.781083 1_555
Ba2 O16 2.785268 1_455
Ba2 O3 2.787413 1_555
Ba2 O10 2.800965 1_555
Ba2 O31 2.858849 1_455
Ba2 O26 2.868103 1_555
Ba3 O15 2.735465 1_555
Ba3 O23 2.781083 1_555
Ba3 O17 2.785268 1_555
Ba3 O2 2.787413 1_554
Ba3 O11 2.800965 1_555
Ba3 O30 2.858849 1_555
Ba3 O27 2.868103 1_555
O0 P3 1.557206 1_555
O0 Zn4 1.983096 1_555
O1 P2 1.557206 1_555
O1 Zn5 1.983096 1_555
O2 P0 1.557206 1_555
O2 Zn2 1.983096 1_555
O3 P1 1.557206 1_555
O3 Zn6 1.983096 1_555
O4 P4 1.539878 1_555
O4 Zn0 1.932801 1_555
O5 P5 1.539878 1_555
O5 Zn3 1.932801 1_555
O6 P6 1.539878 1_555
O6 Zn1 1.932801 1_555
O7 P7 1.539878 1_555
O7 Zn7 1.932801 1_555
O8 P0 1.547000 1_555
O8 Zn0 1.996395 1_555
O9 P1 1.547000 1_555
O9 Zn3 1.996395 1_556
O10 P3 1.547000 1_555
O10 Zn1 1.996395 1_555
O11 P2 1.547000 1_555
O11 Zn7 1.996395 1_554
O12 P4 1.560458 1_545
O12 Zn2 1.940150 1_555
O13 P5 1.560458 1_566
O13 Zn6 1.940150 1_555
O14 P6 1.560458 1_565
O14 Zn4 1.940150 1_555
O15 P7 1.560458 1_544
O15 Zn5 1.940150 1_555
O16 P2 1.562881 1_555
O16 Zn0 1.990674 1_555
O17 P3 1.562881 1_555
O17 Zn3 1.990674 1_555
O18 P1 1.562881 1_555
O18 Zn1 1.990674 1_555
O19 P0 1.562881 1_555
O19 Zn7 1.990674 1_555
O20 P7 1.566088 1_545
O20 Zn6 1.964920 1_645
O21 P6 1.566088 1_565
O21 Zn2 1.964920 1_565
O22 P5 1.566088 1_565
O22 Zn5 1.964920 1_465
O23 P4 1.566088 1_545
O23 Zn4 1.964920 1_545
O24 P1 1.552842 1_655
O24 Zn7 1.971600 1_555
O25 P0 1.552842 1_555
O25 Zn1 1.971600 1_555
O26 P2 1.552842 1_455
O26 Zn3 1.971600 1_555
O27 P3 1.552842 1_555
O27 Zn0 1.971600 1_555
O28 P7 1.560791 1_555
O28 Zn2 2.012307 1_565
O29 P6 1.560791 1_555
O29 Zn6 2.012307 1_545
O30 P5 1.560791 1_555
O30 Zn4 2.012307 1_545
O31 P4 1.560791 1_555
O31 Zn5 2.012307 1_565
