# generated using pymatgen
data_La2Ni5C3
_symmetry_space_group_name_H-M   'P 1'
_cell_length_a   8.26794277
_cell_length_b   8.26793059
_cell_length_c   4.02632792
_cell_angle_alpha   90.00001074
_cell_angle_beta   90.00001418
_cell_angle_gamma   90.00059313
_symmetry_Int_Tables_number   1
_chemical_formula_structural   La2Ni5C3
_chemical_formula_sum   'La4 Ni10 C6'
_cell_volume   275.23485218
_cell_formula_units_Z   2
loop_
 _symmetry_equiv_pos_site_id
 _symmetry_equiv_pos_as_xyz
  1  'x, y, z'
loop_
 _atom_site_type_symbol
 _atom_site_label
 _atom_site_symmetry_multiplicity
 _atom_site_fract_x
 _atom_site_fract_y
 _atom_site_fract_z
 _atom_site_occupancy
  La  La0  1  0.33776152  0.16221201  0.00000077  1
  La  La1  1  0.66223776  0.83778788  0.00000036  1
  La  La2  1  0.16221064  0.66223524  0.00000045  1
  La  La3  1  0.83779111  0.33776511  -0.00000038  1
  Ni  Ni0  1  0.92487433  0.78741150  0.50000152  1
  Ni  Ni1  1  0.71258955  0.57511367  0.49999916  1
  Ni  Ni2  1  0.42488382  0.71259129  0.49999967  1
  Ni  Ni3  1  0.28741028  0.42488629  0.49999996  1
  Ni  Ni4  1  0.57511561  0.28740856  0.49999973  1
  Ni  Ni5  1  0.78741014  0.07512680  0.50000009  1
  Ni  Ni6  1  0.07512608  0.21258843  0.49999897  1
  Ni  Ni7  1  0.21258965  0.92487369  0.49999995  1
  Ni  Ni8  1  0.49999937  0.49999976  0.00000009  1
  Ni  Ni9  1  0.00000025  -0.00000016  -0.00000021  1
  C  C0  1  0.44180698  0.94179745  0.50000013  1
  C  C1  1  0.05820285  0.44180723  0.49999973  1
  C  C2  1  0.94179777  0.55819269  0.49999999  1
  C  C3  1  0.49999968  0.50000008  0.50000016  1
  C  C4  1  0.55819256  0.05820229  0.50000016  1
  C  C5  1  0.00000007  0.00000018  0.49999969  1
loop_
_geom_bond_atom_site_label_1
_geom_bond_atom_site_label_2
_geom_bond_distance
_geom_bond_site_symmetry_2
La0 Ni6 2.990237 1_555
La0 Ni6 2.990246 1_554
La0 Ni3 2.990441 1_555
La0 Ni3 2.990446 1_554
La0 Ni7 2.995736 1_545
La0 Ni7 2.995739 1_544
La0 Ni4 2.995891 1_555
La0 Ni4 2.995898 1_554
La0 Ni9 3.097934 1_555
La0 Ni8 3.098220 1_555
La1 Ni0 2.990245 1_554
La1 Ni0 2.990251 1_555
La1 Ni1 2.990440 1_555
La1 Ni1 2.990447 1_554
La1 Ni5 2.995741 1_565
La1 Ni5 2.995743 1_564
La1 Ni2 2.995893 1_555
La1 Ni2 2.995895 1_554
La1 Ni9 3.097942 1_665
La1 Ni8 3.098225 1_555
La2 Ni7 2.990252 1_555
La2 Ni7 2.990256 1_554
La2 Ni2 2.990436 1_555
La2 Ni2 2.990441 1_554
La2 Ni0 2.995751 1_454
La2 Ni0 2.995758 1_455
La2 Ni3 2.995887 1_555
La2 Ni3 2.995890 1_554
La2 Ni9 3.097974 1_565
La2 Ni8 3.098247 1_555
La3 Ni5 2.990254 1_554
La3 Ni5 2.990257 1_555
La3 Ni4 2.990452 1_554
La3 Ni4 2.990453 1_555
La3 Ni6 2.995746 1_655
La3 Ni6 2.995750 1_654
La3 Ni1 2.995890 1_555
La3 Ni1 2.995893 1_554
La3 Ni9 3.097975 1_655
La3 Ni8 3.098266 1_555
C0 C4 1.360959 1_565
C0 Ni2 1.900218 1_555
C0 Ni7 1.900313 1_555
C0 La1 2.848491 1_555
C0 La1 2.848492 1_556
C0 La0 2.848492 1_565
C0 La0 2.848496 1_566
C1 C2 1.360974 1_455
C1 Ni3 1.900232 1_555
C1 Ni6 1.900325 1_555
C1 La2 2.848458 1_555
C1 La3 2.848461 1_455
C1 La3 2.848461 1_456
C1 La2 2.848461 1_556
C2 Ni1 1.900239 1_555
C2 Ni0 1.900325 1_555
C2 La3 2.848454 1_556
C2 La3 2.848455 1_555
C2 La2 2.848467 1_655
C2 La2 2.848469 1_656
C3 Ni3 1.864160 1_555
C3 Ni1 1.864163 1_555
C3 Ni2 1.864189 1_555
C3 Ni4 1.864192 1_555
C3 Ni8 2.013164 1_556
C3 Ni8 2.013164 1_555
C4 Ni4 1.900218 1_555
C4 Ni5 1.900315 1_555
C4 La0 2.848491 1_555
C4 La1 2.848492 1_545
C4 La1 2.848493 1_546
C4 La0 2.848495 1_556
C5 Ni6 1.864182 1_555
C5 Ni0 1.864185 1_445
C5 Ni7 1.864208 1_545
C5 Ni5 1.864211 1_455
C5 Ni9 2.013164 1_555
C5 Ni9 2.013164 1_556
