# generated using pymatgen
data_CeGePt
_symmetry_space_group_name_H-M   'P 1'
_cell_length_a   4.46060801
_cell_length_b   7.59849292
_cell_length_c   14.71271193
_cell_angle_alpha   90.00000000
_cell_angle_beta   90.00000000
_cell_angle_gamma   90.00000000
_symmetry_Int_Tables_number   1
_chemical_formula_structural   CeGePt
_chemical_formula_sum   'Ce8 Ge8 Pt8'
_cell_volume   498.67116309
_cell_formula_units_Z   8
loop_
 _symmetry_equiv_pos_site_id
 _symmetry_equiv_pos_as_xyz
  1  'x, y, z'
loop_
 _atom_site_type_symbol
 _atom_site_label
 _atom_site_symmetry_multiplicity
 _atom_site_fract_x
 _atom_site_fract_y
 _atom_site_fract_z
 _atom_site_occupancy
  Ce  Ce0  1  0.50000000  0.78463216  0.25351285  1
  Ce  Ce1  1  0.00000000  0.29119502  0.50000000  1
  Ce  Ce2  1  0.50000000  0.70316767  0.50000000  1
  Ce  Ce3  1  -0.00000000  0.29684651  -0.00000000  1
  Ce  Ce4  1  0.00000000  0.21542604  0.24650998  1
  Ce  Ce5  1  0.00000000  0.21542604  0.75349002  1
  Ce  Ce6  1  0.50000000  0.70874525  -0.00000000  1
  Ce  Ce7  1  0.50000000  0.78463216  0.74648715  1
  Ge  Ge0  1  -0.00000000  0.91270052  0.40599630  1
  Ge  Ge1  1  0.00000000  0.59052939  0.14669009  1
  Ge  Ge2  1  0.50000000  0.40949561  0.64661299  1
  Ge  Ge3  1  -0.00000000  0.59052939  0.85330991  1
  Ge  Ge4  1  0.50000000  0.40949561  0.35338701  1
  Ge  Ge5  1  -0.00000000  0.91270052  0.59400370  1
  Ge  Ge6  1  0.50000000  0.08727017  0.90606922  1
  Ge  Ge7  1  0.50000000  0.08727017  0.09393078  1
  Pt  Pt0  1  -0.00000000  0.92290271  0.88962684  1
  Pt  Pt1  1  0.00000000  0.92290271  0.11037316  1
  Pt  Pt2  1  0.50000000  0.41848491  0.14497307  1
  Pt  Pt3  1  -0.00000000  0.58153009  0.64502721  1
  Pt  Pt4  1  0.50000000  0.41848491  0.85502693  1
  Pt  Pt5  1  0.50000000  0.07705217  0.61045733  1
  Pt  Pt6  1  0.50000000  0.07705217  0.38954267  1
  Pt  Pt7  1  0.00000000  0.58153009  0.35497279  1
loop_
_geom_bond_atom_site_label_1
_geom_bond_atom_site_label_2
_geom_bond_distance
_geom_bond_site_symmetry_2
Ce0 Pt6 2.990408 1_565
Ce0 Pt7 3.095843 1_555
Ce0 Pt7 3.095843 1_655
Ce0 Ge1 3.101555 1_655
Ce0 Ge1 3.101555 1_555
Ce0 Ge4 3.206928 1_555
Ce0 Pt2 3.207895 1_555
Ce0 Pt1 3.242413 1_555
Ce0 Pt1 3.242413 1_655
Ce0 Ge7 3.286440 1_565
Ce0 Ge0 3.309725 1_555
Ce0 Ge0 3.309725 1_655
Ce1 Pt3 3.069166 1_555
Ce1 Pt7 3.069166 1_555
Ce1 Ge0 3.191259 1_545
Ce1 Ge5 3.191259 1_545
Ce1 Pt6 3.203584 1_555
Ce1 Pt6 3.203584 1_455
Ce1 Pt5 3.203584 1_555
Ce1 Pt5 3.203584 1_455
Ce1 Ge4 3.230365 1_555
Ce1 Ge4 3.230365 1_455
Ce1 Ge2 3.230365 1_455
Ce1 Ge2 3.230365 1_555
Ce2 Ge5 3.069523 1_655
Ce2 Ge5 3.069523 1_555
Ce2 Ge0 3.069523 1_655
Ce2 Ge0 3.069523 1_555
Ce2 Ge4 3.103612 1_555
Ce2 Ge2 3.103612 1_555
Ce2 Pt3 3.222015 1_655
Ce2 Pt3 3.222015 1_555
Ce2 Pt7 3.222015 1_555
Ce2 Pt7 3.222015 1_655
Ce2 Pt6 3.272932 1_565
Ce2 Pt5 3.272932 1_565
Ce3 Ge6 3.069211 1_554
Ce3 Ge7 3.069211 1_555
Ce3 Ge6 3.069211 1_454
Ce3 Ge7 3.069211 1_455
Ce3 Ge3 3.104460 1_554
Ce3 Ge1 3.104460 1_555
Ce3 Pt2 3.221489 1_455
Ce3 Pt2 3.221489 1_555
Ce3 Pt4 3.221489 1_554
Ce3 Pt4 3.221489 1_454
Ce3 Pt0 3.272708 1_544
Ce3 Pt1 3.272708 1_545
Ce4 Pt1 2.992045 1_545
Ce4 Pt2 3.096225 1_455
Ce4 Pt2 3.096225 1_555
Ce4 Ge4 3.101840 1_455
Ce4 Ge4 3.101840 1_555
Ce4 Ge1 3.206338 1_555
Ce4 Pt7 3.207047 1_555
Ce4 Pt6 3.241645 1_455
Ce4 Pt6 3.241645 1_555
Ce4 Ge0 3.285900 1_545
Ce4 Ge7 3.310875 1_555
Ce4 Ge7 3.310875 1_455
Ce5 Pt0 2.992045 1_545
Ce5 Pt4 3.096225 1_455
Ce5 Pt4 3.096225 1_555
Ce5 Ge2 3.101840 1_455
Ce5 Ge2 3.101840 1_555
Ce5 Ge3 3.206338 1_555
Ce5 Pt3 3.207047 1_555
Ce5 Pt5 3.241645 1_555
Ce5 Pt5 3.241645 1_455
Ce5 Ge5 3.285900 1_545
Ce5 Ge6 3.310875 1_455
Ce5 Ge6 3.310875 1_555
Ce6 Pt4 3.068204 1_554
Ce6 Pt2 3.068204 1_555
Ce6 Ge7 3.191002 1_565
Ce6 Ge6 3.191002 1_564
Ce6 Pt1 3.203013 1_555
Ce6 Pt0 3.203013 1_654
Ce6 Pt1 3.203013 1_655
Ce6 Pt0 3.203013 1_554
Ce6 Ge3 3.230944 1_654
Ce6 Ge1 3.230944 1_555
Ce6 Ge1 3.230944 1_655
Ce6 Ge3 3.230944 1_554
Ce7 Pt5 2.990408 1_565
Ce7 Pt3 3.095843 1_555
Ce7 Pt3 3.095843 1_655
Ce7 Ge3 3.101555 1_655
Ce7 Ge3 3.101555 1_555
Ce7 Ge2 3.206928 1_555
Ce7 Pt4 3.207895 1_555
Ce7 Pt0 3.242413 1_655
Ce7 Pt0 3.242413 1_555
Ce7 Ge6 3.286440 1_565
Ce7 Ge5 3.309725 1_655
Ce7 Ge5 3.309725 1_555
Ge0 Pt6 2.567571 1_565
Ge0 Pt6 2.567571 1_465
Ge0 Pt7 2.625984 1_555
Ge0 Ge5 2.766099 1_555
Ge1 Pt1 2.581440 1_555
Ge1 Pt2 2.585319 1_455
Ge1 Pt2 2.585319 1_555
Ge1 Pt7 3.065166 1_555
Ge2 Pt5 2.581471 1_555
Ge2 Pt3 2.585262 1_555
Ge2 Pt3 2.585262 1_655
Ge2 Pt4 3.067095 1_555
Ge3 Pt0 2.581440 1_555
Ge3 Pt4 2.585319 1_555
Ge3 Pt4 2.585319 1_455
Ge3 Pt3 3.065166 1_555
Ge4 Pt6 2.581471 1_555
Ge4 Pt7 2.585262 1_555
Ge4 Pt7 2.585262 1_655
Ge4 Pt2 3.067095 1_555
Ge5 Pt5 2.567571 1_565
Ge5 Pt5 2.567571 1_465
Ge5 Pt3 2.625984 1_555
Ge6 Pt0 2.567614 1_645
Ge6 Pt0 2.567614 1_545
Ge6 Pt4 2.626386 1_555
Ge6 Ge7 2.763953 1_556
Ge7 Pt1 2.567614 1_545
Ge7 Pt1 2.567614 1_645
Ge7 Pt2 2.626386 1_555
Pt0 Pt1 3.247777 1_556
Pt5 Pt6 3.250254 1_555
