# generated using pymatgen
data_SnHC2O3
_symmetry_space_group_name_H-M   'P 1'
_cell_length_a   7.63613161
_cell_length_b   7.63613161
_cell_length_c   8.46291473
_cell_angle_alpha   63.02050577
_cell_angle_beta   63.02050577
_cell_angle_gamma   62.83430207
_symmetry_Int_Tables_number   1
_chemical_formula_structural   SnHC2O3
_chemical_formula_sum   'Sn4 H4 C8 O12'
_cell_volume   371.86382957
_cell_formula_units_Z   4
loop_
 _symmetry_equiv_pos_site_id
 _symmetry_equiv_pos_as_xyz
  1  'x, y, z'
loop_
 _atom_site_type_symbol
 _atom_site_label
 _atom_site_symmetry_multiplicity
 _atom_site_fract_x
 _atom_site_fract_y
 _atom_site_fract_z
 _atom_site_occupancy
  Sn  Sn0  1  0.19615300  0.19615300  0.15479900  1
  Sn  Sn1  1  0.80384700  0.80384700  0.84520100  1
  Sn  Sn2  1  0.29004900  0.70995100  0.00000000  1
  Sn  Sn3  1  0.70995100  0.29004900  0.00000000  1
  H  H0  1  0.01096500  0.21856700  0.53954900  1
  H  H1  1  0.21856700  0.01096500  0.53954900  1
  H  H2  1  0.98903500  0.78143300  0.46045100  1
  H  H3  1  0.78143300  0.98903500  0.46045100  1
  C  C0  1  0.77572900  0.59169400  0.32185000  1
  C  C1  1  0.59169400  0.77572900  0.32185000  1
  C  C2  1  0.22427100  0.40830600  0.67815000  1
  C  C3  1  0.40830600  0.22427100  0.67815000  1
  C  C4  1  0.71010400  0.52493100  0.52732100  1
  C  C5  1  0.52493100  0.71010400  0.52732100  1
  C  C6  1  0.28989600  0.47506900  0.47267900  1
  C  C7  1  0.47506900  0.28989600  0.47267900  1
  O  O0  1  0.92598900  0.52655800  0.19231200  1
  O  O1  1  0.52655800  0.92598900  0.19231200  1
  O  O2  1  0.07401100  0.47344200  0.80768800  1
  O  O3  1  0.47344200  0.07401100  0.80768800  1
  O  O4  1  0.78468500  0.36932800  0.64886100  1
  O  O5  1  0.36932800  0.78468500  0.64886100  1
  O  O6  1  0.21531500  0.63067200  0.35113900  1
  O  O7  1  0.63067200  0.21531500  0.35113900  1
  O  O8  1  0.15064900  0.15064900  0.46151800  1
  O  O9  1  0.84935100  0.84935100  0.53848200  1
  O  O10  1  0.38349700  0.38349700  0.04726600  1
  O  O11  1  0.61650300  0.61650300  0.95273400  1
loop_
_geom_bond_atom_site_label_1
_geom_bond_atom_site_label_2
_geom_bond_distance
_geom_bond_site_symmetry_2
H0 O8 1.004638 1_555
H0 O4 1.693023 1_455
H1 O8 1.004638 1_555
H1 O5 1.693023 1_545
H2 O9 1.004638 1_555
H2 O6 1.693023 1_655
H3 O9 1.004638 1_555
H3 O7 1.693023 1_565
C0 O0 1.264137 1_555
C1 O1 1.264137 1_555
C2 O2 1.264137 1_555
C3 O3 1.264137 1_555
C4 O4 1.264449 1_555
C5 O5 1.264449 1_555
C6 O6 1.264449 1_555
C7 O7 1.264449 1_555
O0 Sn0 2.470234 1_655
O1 Sn0 2.470234 1_565
O2 Sn1 2.470234 1_455
O3 Sn1 2.470234 1_545
O4 Sn3 2.582122 1_556
O5 Sn2 2.582122 1_556
O6 Sn2 2.582122 1_555
O7 Sn3 2.582122 1_555
O8 Sn0 2.335126 1_555
O9 Sn1 2.335126 1_555
O10 Sn0 2.104180 1_555
O10 Sn3 2.147880 1_555
O10 Sn2 2.147880 1_555
O11 Sn1 2.104180 1_555
O11 Sn2 2.147880 1_556
O11 Sn3 2.147880 1_556
