# generated using pymatgen
data_Cs2Co(PO3)4
_symmetry_space_group_name_H-M   'P 1'
_cell_length_a   12.32115300
_cell_length_b   8.58153900
_cell_length_c   13.01785631
_cell_angle_alpha   69.02735770
_cell_angle_beta   90.00000000
_cell_angle_gamma   90.00000000
_symmetry_Int_Tables_number   1
_chemical_formula_structural   Cs2Co(PO3)4
_chemical_formula_sum   'Cs8 Co4 P16 O48'
_cell_volume   1285.24903509
_cell_formula_units_Z   4
loop_
 _symmetry_equiv_pos_site_id
 _symmetry_equiv_pos_as_xyz
  1  'x, y, z'
loop_
 _atom_site_type_symbol
 _atom_site_label
 _atom_site_symmetry_multiplicity
 _atom_site_fract_x
 _atom_site_fract_y
 _atom_site_fract_z
 _atom_site_occupancy
  Cs  Cs0  1  0.55891800  0.74777800  0.97782300  1
  Cs  Cs1  1  0.89215000  0.58928900  0.16993400  1
  Cs  Cs2  1  0.94108200  0.74777800  0.47782300  1
  Cs  Cs3  1  0.05891800  0.25222200  0.52217700  1
  Cs  Cs4  1  0.60785000  0.58928900  0.66993400  1
  Cs  Cs5  1  0.44108200  0.25222200  0.02217700  1
  Cs  Cs6  1  0.39215000  0.41071100  0.33006600  1
  Cs  Cs7  1  0.10785000  0.41071100  0.83006600  1
  Co  Co0  1  0.26686400  0.95960100  0.31209800  1
  Co  Co1  1  0.73313600  0.04039900  0.68790200  1
  Co  Co2  1  0.23313600  0.95960100  0.81209800  1
  Co  Co3  1  0.76686400  0.04039900  0.18790200  1
  P  P0  1  0.14403500  0.32181000  0.19274800  1
  P  P1  1  0.95770900  0.97614300  0.81583600  1
  P  P2  1  0.72511900  0.07281800  0.42764400  1
  P  P3  1  0.04229100  0.02385700  0.18416400  1
  P  P4  1  0.85596500  0.67819000  0.80725200  1
  P  P5  1  0.64403500  0.67819000  0.30725200  1
  P  P6  1  0.77488100  0.07281800  0.92764400  1
  P  P7  1  0.73305000  0.37554700  0.47238000  1
  P  P8  1  0.54229100  0.97614300  0.31583600  1
  P  P9  1  0.45770900  0.02385700  0.68416400  1
  P  P10  1  0.27488100  0.92718200  0.57235600  1
  P  P11  1  0.22511900  0.92718200  0.07235600  1
  P  P12  1  0.23305000  0.62445300  0.02762000  1
  P  P13  1  0.35596500  0.32181000  0.69274800  1
  P  P14  1  0.76695000  0.37554700  0.97238000  1
  P  P15  1  0.26695000  0.62445300  0.52762000  1
  O  O0  1  0.38623400  0.02416300  0.57878400  1
  O  O1  1  0.82179400  0.25592200  0.91250900  1
  O  O2  1  0.74572400  0.78304100  0.28957000  1
  O  O3  1  0.32179400  0.74407800  0.58749100  1
  O  O4  1  0.09995800  0.92393600  0.28946000  1
  O  O5  1  0.61082200  0.60325500  0.22479000  1
  O  O6  1  0.07150200  0.02542200  0.83103500  1
  O  O7  1  0.38917800  0.39674500  0.77521000  1
  O  O8  1  0.90004200  0.07606400  0.71054000  1
  O  O9  1  0.61376600  0.97583700  0.42121600  1
  O  O10  1  0.77067200  0.99076200  0.54201400  1
  O  O11  1  0.04190600  0.22001900  0.16698500  1
  O  O12  1  0.30034400  0.91659200  0.16596500  1
  O  O13  1  0.27067200  0.00923800  0.95798600  1
  O  O14  1  0.35069100  0.46734000  0.56971800  1
  O  O15  1  0.14930900  0.46734000  0.06971800  1
  O  O16  1  0.95809400  0.77998100  0.83301500  1
  O  O17  1  0.22932800  0.00923800  0.45798600  1
  O  O18  1  0.59995800  0.07606400  0.21054000  1
  O  O19  1  0.65550700  0.42901000  0.92785600  1
  O  O20  1  0.40004200  0.92393600  0.78946000  1
  O  O21  1  0.11376600  0.02416300  0.07878400  1
  O  O22  1  0.88623400  0.97583700  0.92121600  1
  O  O23  1  0.11082200  0.39674500  0.27521000  1
  O  O24  1  0.28603400  0.70284500  0.40525800  1
  O  O25  1  0.42849800  0.02542200  0.33103500  1
  O  O26  1  0.17820600  0.74407800  0.08749100  1
  O  O27  1  0.24572400  0.21695900  0.21043000  1
  O  O28  1  0.67820600  0.25592200  0.41250900  1
  O  O29  1  0.88917800  0.60325500  0.72479000  1
  O  O30  1  0.54190600  0.77998100  0.33301500  1
  O  O31  1  0.71396600  0.29715500  0.59474200  1
  O  O32  1  0.25427600  0.21695900  0.71043000  1
  O  O33  1  0.92849800  0.97457800  0.16896500  1
  O  O34  1  0.19965600  0.91659200  0.66596500  1
  O  O35  1  0.69965600  0.08340800  0.83403500  1
  O  O36  1  0.57150200  0.97457800  0.66896500  1
  O  O37  1  0.34449300  0.57099000  0.07214400  1
  O  O38  1  0.75427600  0.78304100  0.78957000  1
  O  O39  1  0.85069100  0.53266000  0.93028200  1
  O  O40  1  0.45809400  0.22001900  0.66698500  1
  O  O41  1  0.78603400  0.29715500  0.09474200  1
  O  O42  1  0.80034400  0.08340800  0.33403500  1
  O  O43  1  0.64930900  0.53266000  0.43028200  1
  O  O44  1  0.84449300  0.42901000  0.42785600  1
  O  O45  1  0.72932800  0.99076200  0.04201400  1
  O  O46  1  0.21396600  0.70284500  0.90525800  1
  O  O47  1  0.15550700  0.57099000  0.57214400  1
loop_
_geom_bond_atom_site_label_1
_geom_bond_atom_site_label_2
_geom_bond_distance
_geom_bond_site_symmetry_2
Cs0 O5 3.070661 1_556
Cs0 O37 3.075022 1_556
Cs0 O20 3.078376 1_555
Cs0 O19 3.255184 1_555
Cs0 O45 3.271402 1_556
Cs0 O35 3.308628 1_565
Cs0 O38 3.370492 1_555
Cs1 O44 3.194395 1_555
Cs1 O23 3.201025 1_655
Cs1 O2 3.209147 1_555
Cs1 O41 3.272471 1_555
Cs1 O33 3.332112 1_555
Cs1 O39 3.363816 1_554
Cs1 O5 3.549748 1_555
Cs1 O11 3.679016 1_655
Cs1 O22 3.715347 1_554
Cs1 O15 3.716698 1_655
Cs1 O26 3.783933 1_655
Cs1 O45 3.815829 1_555
Cs2 O29 3.070661 1_555
Cs2 O47 3.075022 1_655
Cs2 O4 3.078376 1_655
Cs2 O44 3.255184 1_555
Cs2 O10 3.271402 1_555
Cs2 O42 3.308628 1_565
Cs2 O2 3.370492 1_555
Cs3 O23 3.070661 1_555
Cs3 O44 3.075022 1_455
Cs3 O8 3.078376 1_455
Cs3 O47 3.255184 1_555
Cs3 O17 3.271402 1_555
Cs3 O34 3.308628 1_545
Cs3 O32 3.370492 1_555
Cs4 O19 3.194395 1_555
Cs4 O7 3.201025 1_555
Cs4 O38 3.209147 1_555
Cs4 O31 3.272471 1_555
Cs4 O36 3.332112 1_555
Cs4 O43 3.363816 1_555
Cs4 O29 3.549748 1_555
Cs4 O40 3.679016 1_555
Cs4 O9 3.715347 1_555
Cs4 O14 3.716698 1_555
Cs4 O3 3.783933 1_555
Cs4 O10 3.815829 1_555
Cs5 O7 3.070661 1_554
Cs5 O19 3.075022 1_554
Cs5 O18 3.078376 1_555
Cs5 O37 3.255184 1_555
Cs5 O13 3.271402 1_554
Cs5 O12 3.308628 1_545
Cs5 O27 3.370492 1_555
Cs6 O37 3.194395 1_555
Cs6 O5 3.201025 1_555
Cs6 O27 3.209147 1_555
Cs6 O24 3.272471 1_555
Cs6 O25 3.332112 1_555
Cs6 O14 3.363816 1_555
Cs6 O23 3.549748 1_555
Cs6 O30 3.679016 1_555
Cs6 O0 3.715347 1_555
Cs6 O43 3.716698 1_555
Cs6 O28 3.783933 1_555
Cs6 O17 3.815829 1_555
Cs7 O47 3.194395 1_555
Cs7 O29 3.201025 1_455
Cs7 O32 3.209147 1_555
Cs7 O46 3.272471 1_555
Cs7 O6 3.332112 1_555
Cs7 O15 3.363816 1_556
Cs7 O7 3.549748 1_555
Cs7 O16 3.679016 1_455
Cs7 O21 3.715347 1_556
Cs7 O39 3.716698 1_455
Cs7 O1 3.783933 1_455
Cs7 O13 3.815829 1_555
Co0 O12 2.104255 1_555
Co0 O25 2.108469 1_565
Co0 O24 2.113888 1_555
Co0 O4 2.115224 1_555
Co0 O17 2.140373 1_565
Co0 O27 2.145854 1_565
Co1 O35 2.104255 1_555
Co1 O36 2.108469 1_545
Co1 O31 2.113888 1_555
Co1 O8 2.115224 1_555
Co1 O10 2.140373 1_545
Co1 O38 2.145854 1_545
Co2 O34 2.104255 1_555
Co2 O6 2.108469 1_565
Co2 O46 2.113888 1_555
Co2 O20 2.115224 1_555
Co2 O13 2.140373 1_565
Co2 O32 2.145854 1_565
Co3 O42 2.104255 1_555
Co3 O33 2.108469 1_545
Co3 O41 2.113888 1_555
Co3 O18 2.115224 1_555
Co3 O45 2.140373 1_545
Co3 O2 2.145854 1_545
O0 P10 1.622302 1_545
O0 P9 1.629379 1_555
O1 P6 1.618746 1_555
O1 P14 1.640324 1_555
O2 P5 1.511342 1_555
O3 P10 1.618746 1_555
O3 P15 1.640324 1_555
O4 P3 1.509180 1_565
O5 P5 1.492480 1_555
O6 P1 1.497883 1_445
O7 P13 1.492480 1_555
O8 P1 1.509180 1_545
O9 P2 1.622302 1_565
O9 P8 1.629379 1_555
O10 P2 1.508993 1_565
O11 P3 1.616876 1_555
O11 P0 1.633608 1_555
O12 P11 1.507650 1_555
O13 P11 1.508993 1_546
O14 P15 1.629055 1_555
O14 P13 1.642306 1_555
O15 P12 1.629055 1_555
O15 P0 1.642306 1_555
O16 P1 1.616876 1_555
O16 P4 1.633608 1_555
O17 P10 1.508993 1_545
O18 P8 1.509180 1_545
O19 P14 1.497164 1_555
O20 P9 1.509180 1_565
O21 P11 1.622302 1_545
O21 P3 1.629379 1_555
O22 P6 1.622302 1_565
O22 P1 1.629379 1_555
O23 P0 1.492480 1_555
O24 P15 1.509327 1_555
O25 P8 1.497883 1_545
O26 P11 1.618746 1_555
O26 P12 1.640324 1_555
O27 P0 1.511342 1_555
O28 P2 1.618746 1_555
O28 P7 1.640324 1_555
O29 P4 1.492480 1_555
O30 P8 1.616876 1_555
O30 P5 1.633608 1_555
O31 P7 1.509327 1_555
O32 P13 1.511342 1_555
O33 P3 1.497883 1_665
O34 P10 1.507650 1_555
O35 P6 1.507650 1_555
O36 P9 1.497883 1_565
O37 P12 1.497164 1_555
O38 P4 1.511342 1_555
O39 P14 1.629055 1_555
O39 P4 1.642306 1_555
O40 P9 1.616876 1_555
O40 P13 1.633608 1_555
O41 P14 1.509327 1_554
O42 P2 1.507650 1_555
O43 P7 1.629055 1_555
O43 P5 1.642306 1_555
O44 P7 1.497164 1_555
O45 P6 1.508993 1_564
O46 P12 1.509327 1_556
O47 P15 1.497164 1_555
