# generated using pymatgen
data_NaSi2(HO2)3
_symmetry_space_group_name_H-M   'P 1'
_cell_length_a   12.26155699
_cell_length_b   9.83395507
_cell_length_c   8.92342880
_cell_angle_alpha   81.48443462
_cell_angle_beta   52.48307883
_cell_angle_gamma   46.03248655
_symmetry_Int_Tables_number   1
_chemical_formula_structural   NaSi2(HO2)3
_chemical_formula_sum   'Na4 Si8 H12 O24'
_cell_volume   538.45099217
_cell_formula_units_Z   4
loop_
 _symmetry_equiv_pos_site_id
 _symmetry_equiv_pos_as_xyz
  1  'x, y, z'
loop_
 _atom_site_type_symbol
 _atom_site_label
 _atom_site_symmetry_multiplicity
 _atom_site_fract_x
 _atom_site_fract_y
 _atom_site_fract_z
 _atom_site_occupancy
  Na  Na0  1  0.26505000  0.76119700  0.51393600  1
  Na  Na1  1  0.45981700  0.51393600  0.76119700  1
  Na  Na2  1  0.73606400  0.79018300  0.98495000  1
  Na  Na3  1  0.48880300  0.98495000  0.79018300  1
  Si  Si0  1  0.75029300  0.29768400  0.95359300  1
  Si  Si1  1  0.99842900  0.95359300  0.29768400  1
  Si  Si2  1  0.29640700  0.25157100  0.49970700  1
  Si  Si3  1  0.95231600  0.49970700  0.25157100  1
  Si  Si4  1  0.01169500  0.30424000  0.93675300  1
  Si  Si5  1  0.74731200  0.93675300  0.30424000  1
  Si  Si6  1  0.31324700  0.50268800  0.23830500  1
  Si  Si7  1  0.94576000  0.23830500  0.50268800  1
  H  H0  1  0.40476900  0.86902300  0.12581700  1
  H  H1  1  0.60039100  0.12581700  0.86902300  1
  H  H2  1  0.12418300  0.64960900  0.84523100  1
  H  H3  1  0.38097700  0.84523100  0.64960900  1
  H  H4  1  0.60620600  0.65376700  0.90311900  1
  H  H5  1  0.83690800  0.90311900  0.65376700  1
  H  H6  1  0.34688100  0.41309200  0.64379400  1
  H  H7  1  0.59623300  0.64379400  0.41309200  1
  H  H8  1  0.29568200  0.05613600  0.37717100  1
  H  H9  1  0.27101100  0.37717100  0.05613600  1
  H  H10  1  0.87282900  0.97898900  0.95431800  1
  H  H11  1  0.19386400  0.95431800  0.97898900  1
  O  O0  1  0.82624600  0.34711600  0.01184500  1
  O  O1  1  0.81479300  0.01184500  0.34711600  1
  O  O2  1  0.23815500  0.43520700  0.42375400  1
  O  O3  1  0.90288400  0.42375400  0.43520700  1
  O  O4  1  0.06950200  0.38180000  0.75078500  1
  O  O5  1  0.79791300  0.75078500  0.38180000  1
  O  O6  1  0.49921500  0.45208700  0.18049800  1
  O  O7  1  0.86820000  0.18049800  0.45208700  1
  O  O8  1  0.54333800  0.78751600  0.97274600  1
  O  O9  1  0.69640000  0.97274600  0.78751600  1
  O  O10  1  0.27725400  0.55360000  0.70666200  1
  O  O11  1  0.46248400  0.70666200  0.55360000  1
  O  O12  1  0.18275100  0.02929500  0.39923400  1
  O  O13  1  0.38872000  0.39923400  0.02929500  1
  O  O14  1  0.85076600  0.86128000  0.06724900  1
  O  O15  1  0.22070500  0.06724900  0.86128000  1
  O  O16  1  0.39341300  0.05623300  0.34460100  1
  O  O17  1  0.20575300  0.34460100  0.05623300  1
  O  O18  1  0.90539900  0.04424700  0.85658700  1
  O  O19  1  0.19376700  0.85658700  0.04424700  1
  O  O20  1  0.75608600  0.37414800  0.77293700  1
  O  O21  1  0.09682800  0.77293700  0.37414800  1
  O  O22  1  0.47706300  0.15317200  0.49391400  1
  O  O23  1  0.87585200  0.49391400  0.15317200  1
loop_
_geom_bond_atom_site_label_1
_geom_bond_atom_site_label_2
_geom_bond_distance
_geom_bond_site_symmetry_2
Na0 O11 2.336261 1_555
Na0 O18 2.365951 1_465
Na0 O12 2.404500 1_565
Na0 O10 2.448926 1_555
Na0 O6 2.547896 1_555
Na0 O21 2.929916 1_555
Na1 O10 2.336261 1_555
Na1 O19 2.365951 1_556
Na1 O13 2.404500 1_556
Na1 O11 2.448926 1_555
Na1 O7 2.547896 1_555
Na1 O20 2.929905 1_555
Na2 O9 2.336261 1_555
Na2 O16 2.365951 1_566
Na2 O14 2.404500 1_556
Na2 O8 2.448926 1_555
Na2 O4 2.547896 1_655
Na2 O23 2.929911 1_556
Na3 O8 2.336261 1_555
Na3 O17 2.365951 1_566
Na3 O15 2.404500 1_565
Na3 O9 2.448926 1_555
Na3 O5 2.547896 1_555
Na3 O22 2.929908 1_565
H0 O8 1.000809 1_554
H0 O12 1.714419 1_565
H1 O9 1.000809 1_545
H1 O13 1.714419 1_556
H2 O10 1.000809 1_555
H2 O14 1.714419 1_456
H3 O11 1.000809 1_555
H3 O15 1.714419 1_565
H4 O8 0.980352 1_555
H5 O9 0.980352 1_555
H6 O10 0.980352 1_555
H7 O11 0.980352 1_555
H8 O16 1.047750 1_555
H8 O12 1.478483 1_555
H9 O17 1.047750 1_555
H9 O13 1.478483 1_555
H10 O18 1.047750 1_565
H10 O14 1.478483 1_556
H11 O19 1.047750 1_556
H11 O15 1.478483 1_565
O0 Si0 1.633061 1_554
O0 Si4 1.641331 1_654
O1 Si1 1.633049 1_545
O1 Si5 1.641331 1_545
O2 Si2 1.633054 1_555
O2 Si6 1.641331 1_555
O3 Si3 1.633054 1_555
O3 Si7 1.641331 1_555
O4 Si2 1.646399 1_555
O4 Si4 1.667677 1_555
O5 Si3 1.646395 1_555
O5 Si5 1.667677 1_555
O6 Si0 1.646397 1_554
O6 Si6 1.667677 1_555
O7 Si1 1.646403 1_545
O7 Si7 1.667677 1_555
O12 Si7 1.588217 1_455
O13 Si6 1.588217 1_555
O14 Si5 1.588217 1_555
O15 Si4 1.588217 1_555
O16 Si2 1.621787 1_555
O17 Si3 1.621780 1_455
O18 Si0 1.621779 1_555
O19 Si1 1.621782 1_455
O20 Si0 1.656784 1_555
O20 Si7 1.678712 1_555
O21 Si1 1.656784 1_455
O21 Si6 1.678713 1_555
O22 Si2 1.656784 1_555
O22 Si5 1.678713 1_545
O23 Si3 1.656784 1_555
O23 Si4 1.678719 1_654
