# generated using pymatgen
data_Na3As
_symmetry_space_group_name_H-M   'P 1'
_cell_length_a   8.72295758
_cell_length_b   8.72295743
_cell_length_c   8.93773487
_cell_angle_alpha   89.99999765
_cell_angle_beta   89.99998702
_cell_angle_gamma   120.00647820
_symmetry_Int_Tables_number   1
_chemical_formula_structural   Na3As
_chemical_formula_sum   'Na18 As6'
_cell_volume   588.92129566
_cell_formula_units_Z   6
loop_
 _symmetry_equiv_pos_site_id
 _symmetry_equiv_pos_as_xyz
  1  'x, y, z'
loop_
 _atom_site_type_symbol
 _atom_site_label
 _atom_site_symmetry_multiplicity
 _atom_site_fract_x
 _atom_site_fract_y
 _atom_site_fract_z
 _atom_site_occupancy
  Na  Na0  1  0.99999961  0.99999961  0.79231564  1
  Na  Na1  1  0.00000039  0.00000039  0.29231564  1
  Na  Na2  1  0.66668259  0.33335447  0.22840472  1
  Na  Na3  1  0.33331741  0.66664553  0.72840572  1
  Na  Na4  1  0.66664553  0.33331741  0.72840572  1
  Na  Na5  1  0.33335447  0.66668259  0.22840472  1
  Na  Na6  1  0.30095095  0.99998106  0.58184627  1
  Na  Na7  1  0.30093404  0.30093404  0.08184951  1
  Na  Na8  1  0.00001894  0.69905005  0.08184627  1
  Na  Na9  1  0.99998106  0.30095095  0.58184627  1
  Na  Na10  1  0.69906596  0.69906596  0.58184951  1
  Na  Na11  1  0.69905005  0.00001894  0.08184627  1
  Na  Na12  1  0.36125594  0.99999550  0.91926970  1
  Na  Na13  1  0.36123379  0.36123379  0.41927173  1
  Na  Na14  1  0.00000450  0.63874406  0.41927070  1
  Na  Na15  1  0.99999550  0.36125594  0.91926970  1
  Na  Na16  1  0.63876621  0.63876621  0.91927173  1
  Na  Na17  1  0.63874406  0.00000450  0.41926970  1
  As  As0  1  0.66926137  0.00000665  0.75077512  1
  As  As1  1  0.66926852  0.66926852  0.25077049  1
  As  As2  1  0.99999335  0.33073863  0.25077512  1
  As  As3  1  0.00000665  0.66926137  0.75077512  1
  As  As4  1  0.33073148  0.33073148  0.75077049  1
  As  As5  1  0.33073863  0.99999335  0.25077512  1
loop_
_geom_bond_atom_site_label_1
_geom_bond_atom_site_label_2
_geom_bond_distance
_geom_bond_site_symmetry_2
As0 Na0 2.908838 1_545
As0 Na4 2.925773 1_555
As0 Na3 2.925778 1_545
As0 Na11 2.970409 1_556
As0 Na17 2.974841 1_555
As0 Na12 3.079952 1_545
As0 Na9 3.149396 1_555
As0 Na10 3.149739 1_545
As0 Na15 3.380537 1_555
As0 Na16 3.380782 1_545
As1 Na1 2.908478 1_665
As1 Na2 2.925786 1_555
As1 Na5 2.925786 1_555
As1 Na10 2.970488 1_555
As1 Na16 2.974769 1_554
As1 Na13 3.080017 1_555
As1 Na8 3.149803 1_655
As1 Na11 3.149803 1_565
As1 Na17 3.380896 1_565
As1 Na14 3.380900 1_655
As2 Na1 2.908838 1_655
As2 Na2 2.925773 1_555
As2 Na5 2.925779 1_655
As2 Na9 2.970408 1_555
As2 Na15 2.974841 1_554
As2 Na14 3.079957 1_655
As2 Na11 3.149393 1_555
As2 Na7 3.149738 1_655
As2 Na17 3.380536 1_555
As2 Na13 3.380783 1_655
As3 Na0 2.908838 1_455
As3 Na3 2.925773 1_555
As3 Na4 2.925778 1_455
As3 Na8 2.970409 1_556
As3 Na14 2.974832 1_555
As3 Na15 3.079953 1_455
As3 Na6 3.149396 1_555
As3 Na10 3.149739 1_455
As3 Na12 3.380537 1_555
As3 Na16 3.380782 1_455
As4 Na0 2.908478 1_445
As4 Na3 2.925785 1_555
As4 Na4 2.925785 1_555
As4 Na7 2.970488 1_556
As4 Na13 2.974768 1_555
As4 Na16 3.080018 1_555
As4 Na6 3.149806 1_545
As4 Na9 3.149807 1_455
As4 Na15 3.380896 1_455
As4 Na12 3.380896 1_545
As5 Na1 2.908838 1_565
As5 Na5 2.925773 1_555
As5 Na2 2.925779 1_565
As5 Na6 2.970408 1_555
As5 Na12 2.974841 1_554
As5 Na17 3.079953 1_565
As5 Na8 3.149393 1_555
As5 Na7 3.149739 1_565
As5 Na14 3.380540 1_555
As5 Na13 3.380782 1_565
