# generated using pymatgen
data_SrMg2FeH8
_symmetry_space_group_name_H-M   'P 1'
_cell_length_a   4.46933434
_cell_length_b   4.46933434
_cell_length_c   6.51780904
_cell_angle_alpha   90.00000000
_cell_angle_beta   90.00000000
_cell_angle_gamma   119.99999050
_symmetry_Int_Tables_number   1
_chemical_formula_structural   SrMg2FeH8
_chemical_formula_sum   'Sr1 Mg2 Fe1 H8'
_cell_volume   112.75037475
_cell_formula_units_Z   1
loop_
 _symmetry_equiv_pos_site_id
 _symmetry_equiv_pos_as_xyz
  1  'x, y, z'
loop_
 _atom_site_type_symbol
 _atom_site_label
 _atom_site_symmetry_multiplicity
 _atom_site_fract_x
 _atom_site_fract_y
 _atom_site_fract_z
 _atom_site_occupancy
  Sr  Sr0  1  -0.00000000  0.00000000  0.50000000  1
  Mg  Mg0  1  0.66666700  0.33333300  0.87705940  1
  Mg  Mg1  1  0.33333300  0.66666700  0.12294060  1
  Fe  Fe0  1  -0.00000000  0.00000000  -0.00000000  1
  H  H0  1  0.32178386  0.16089243  0.14352933  1
  H  H1  1  0.83910757  0.67821614  0.14352933  1
  H  H2  1  0.83910757  0.16089243  0.14352933  1
  H  H3  1  0.67821614  0.83910757  0.85647067  1
  H  H4  1  0.16089243  0.32178386  0.85647067  1
  H  H5  1  0.16089243  0.83910757  0.85647067  1
  H  H6  1  0.66666700  0.33333300  0.58566352  1
  H  H7  1  0.33333300  0.66666700  0.41433648  1
loop_
_geom_bond_atom_site_label_1
_geom_bond_atom_site_label_2
_geom_bond_distance
_geom_bond_site_symmetry_2
Fe0 H3 1.557685 1_444
Fe0 H0 1.557685 1_555
Fe0 H4 1.557685 1_554
Fe0 H1 1.557685 1_445
Fe0 H5 1.557688 1_544
Fe0 H2 1.557688 1_455
H0 Mg0 2.190526 1_554
H0 Mg1 2.239139 1_545
H0 Mg1 2.239139 1_555
H0 Sr0 2.636181 1_555
H1 Mg0 2.190526 1_554
H1 Mg1 2.239139 1_655
H1 Mg1 2.239139 1_555
H1 Sr0 2.636181 1_665
H2 Mg0 2.190522 1_554
H2 Mg1 2.239139 1_545
H2 Mg1 2.239139 1_655
H2 Sr0 2.636183 1_655
H3 Mg1 2.190526 1_556
H3 Mg0 2.239139 1_565
H3 Mg0 2.239139 1_555
H3 Sr0 2.636181 1_665
H4 Mg1 2.190526 1_556
H4 Mg0 2.239139 1_455
H4 Mg0 2.239139 1_555
H4 Sr0 2.636181 1_555
H5 Mg1 2.190522 1_556
H5 Mg0 2.239139 1_455
H5 Mg0 2.239139 1_565
H5 Sr0 2.636183 1_565
H6 Mg0 1.899263 1_555
H6 Sr0 2.640084 1_655
H6 Sr0 2.640088 1_665
H6 Sr0 2.640088 1_555
H7 Mg1 1.899263 1_555
H7 Sr0 2.640084 1_565
H7 Sr0 2.640088 1_665
H7 Sr0 2.640088 1_555
