# generated using pymatgen
data_BaCu13
_symmetry_space_group_name_H-M   'P 1'
_cell_length_a   8.20709975
_cell_length_b   8.20709913
_cell_length_c   8.20709951
_cell_angle_alpha   59.99999441
_cell_angle_beta   59.99999689
_cell_angle_gamma   59.99999307
_symmetry_Int_Tables_number   1
_chemical_formula_structural   BaCu13
_chemical_formula_sum   'Ba2 Cu26'
_cell_volume   390.88953285
_cell_formula_units_Z   2
loop_
 _symmetry_equiv_pos_site_id
 _symmetry_equiv_pos_as_xyz
  1  'x, y, z'
loop_
 _atom_site_type_symbol
 _atom_site_label
 _atom_site_symmetry_multiplicity
 _atom_site_fract_x
 _atom_site_fract_y
 _atom_site_fract_z
 _atom_site_occupancy
  Ba  Ba0  1  0.75000000  0.75000000  0.75000000  1
  Ba  Ba1  1  0.25000000  0.25000000  0.25000000  1
  Cu  Cu0  1  0.50000000  0.50000000  0.50000000  1
  Cu  Cu1  1  -0.00000000  0.00000000  -0.00000000  1
  Cu  Cu2  1  0.20599906  0.79400094  0.43491617  1
  Cu  Cu3  1  0.70599906  0.06508383  0.93491617  1
  Cu  Cu4  1  0.93491617  0.29400094  0.70599906  1
  Cu  Cu5  1  0.70599906  0.93491617  0.29400094  1
  Cu  Cu6  1  0.06508383  0.29400094  0.93491617  1
  Cu  Cu7  1  0.06508383  0.93491617  0.70599906  1
  Cu  Cu8  1  0.93491617  0.06508383  0.29400094  1
  Cu  Cu9  1  0.43491617  0.20599906  0.79400094  1
  Cu  Cu10  1  0.79400094  0.43491617  0.20599906  1
  Cu  Cu11  1  0.56508383  0.20599906  0.43491617  1
  Cu  Cu12  1  0.79400094  0.56508383  0.43491617  1
  Cu  Cu13  1  0.56508383  0.79400094  0.20599906  1
  Cu  Cu14  1  0.43491617  0.79400094  0.56508383  1
  Cu  Cu15  1  0.20599906  0.43491617  0.56508383  1
  Cu  Cu16  1  0.20599906  0.56508383  0.79400094  1
  Cu  Cu17  1  0.93491617  0.70599906  0.06508383  1
  Cu  Cu18  1  0.29400094  0.93491617  0.06508383  1
  Cu  Cu19  1  0.29400094  0.70599906  0.93491617  1
  Cu  Cu20  1  0.70599906  0.29400094  0.06508383  1
  Cu  Cu21  1  0.06508383  0.70599906  0.29400094  1
  Cu  Cu22  1  0.29400094  0.06508383  0.70599906  1
  Cu  Cu23  1  0.43491617  0.56508383  0.20599906  1
  Cu  Cu24  1  0.56508383  0.43491617  0.79400094  1
  Cu  Cu25  1  0.79400094  0.20599906  0.56508383  1
loop_
_geom_bond_atom_site_label_1
_geom_bond_atom_site_label_2
_geom_bond_distance
_geom_bond_site_symmetry_2
Ba0 Cu6 3.400469 1_655
Ba0 Cu11 3.400469 1_565
Ba0 Cu9 3.400469 1_565
Ba0 Cu20 3.400469 1_556
Ba0 Cu4 3.400469 1_555
Ba0 Cu15 3.400469 1_655
Ba0 Cu10 3.400469 1_556
Ba0 Cu25 3.400469 1_565
Ba0 Cu8 3.400469 1_565
Ba0 Cu22 3.400469 1_565
Ba0 Cu18 3.400469 1_556
Ba0 Cu23 3.400469 1_556
Ba0 Cu5 3.400469 1_555
Ba0 Cu21 3.400469 1_655
Ba0 Cu13 3.400469 1_556
Ba0 Cu16 3.400469 1_655
Ba0 Cu3 3.400469 1_565
Ba0 Cu2 3.400469 1_655
Ba0 Cu12 3.400469 1_555
Ba0 Cu24 3.400469 1_555
Ba0 Cu19 3.400469 1_555
Ba0 Cu17 3.400469 1_556
Ba0 Cu14 3.400469 1_555
Ba0 Cu7 3.400469 1_655
Ba1 Cu17 3.400469 1_455
Ba1 Cu14 3.400469 1_545
Ba1 Cu13 3.400469 1_545
Ba1 Cu19 3.400469 1_554
Ba1 Cu21 3.400469 1_555
Ba1 Cu12 3.400469 1_455
Ba1 Cu16 3.400469 1_554
Ba1 Cu2 3.400469 1_545
Ba1 Cu7 3.400469 1_545
Ba1 Cu5 3.400469 1_545
Ba1 Cu3 3.400469 1_554
Ba1 Cu24 3.400469 1_554
Ba1 Cu22 3.400469 1_555
Ba1 Cu4 3.400469 1_455
Ba1 Cu9 3.400469 1_554
Ba1 Cu10 3.400469 1_455
Ba1 Cu18 3.400469 1_545
Ba1 Cu25 3.400469 1_455
Ba1 Cu15 3.400469 1_555
Ba1 Cu23 3.400469 1_555
Ba1 Cu20 3.400469 1_555
Ba1 Cu6 3.400469 1_554
Ba1 Cu11 3.400469 1_555
Ba1 Cu8 3.400469 1_455
Cu0 Cu2 2.471311 1_555
Cu0 Cu25 2.471311 1_555
Cu0 Cu13 2.471311 1_555
Cu0 Cu9 2.471311 1_555
Cu0 Cu11 2.471311 1_555
Cu0 Cu14 2.471311 1_555
Cu0 Cu10 2.471311 1_555
Cu0 Cu16 2.471311 1_555
Cu0 Cu23 2.471311 1_555
Cu0 Cu24 2.471311 1_555
Cu0 Cu15 2.471311 1_555
Cu0 Cu12 2.471311 1_555
Cu1 Cu4 2.471311 1_454
Cu1 Cu21 2.471311 1_545
Cu1 Cu19 2.471311 1_544
Cu1 Cu20 2.471311 1_455
Cu1 Cu6 2.471311 1_554
Cu1 Cu17 2.471311 1_445
Cu1 Cu5 2.471311 1_445
Cu1 Cu22 2.471311 1_554
Cu1 Cu7 2.471311 1_544
Cu1 Cu8 2.471311 1_455
Cu1 Cu3 2.471311 1_454
Cu1 Cu18 2.471311 1_545
Cu2 Cu21 2.490922 1_555
Cu2 Cu8 2.507440 1_465
Cu2 Cu7 2.507441 1_555
Cu2 Cu23 2.656947 1_555
Cu3 Cu9 2.507441 1_555
Cu3 Cu7 2.584184 1_645
Cu3 Cu5 2.584184 1_546
Cu3 Cu4 2.656947 1_555
Cu4 Cu7 2.584184 1_645
Cu4 Cu6 2.584184 1_655
Cu5 Cu8 2.584185 1_565
Cu6 Cu9 2.490922 1_555
Cu6 Cu8 2.584184 1_456
Cu10 Cu8 2.490922 1_555
Cu10 Cu20 2.490922 1_555
Cu10 Cu6 2.507441 1_654
Cu10 Cu17 2.507441 1_555
Cu10 Cu13 2.584184 1_555
Cu10 Cu25 2.584184 1_555
Cu10 Cu23 2.584184 1_555
Cu10 Cu12 2.584184 1_555
Cu10 Cu11 2.656947 1_555
Cu11 Cu8 2.490922 1_555
Cu11 Cu20 2.490922 1_555
Cu11 Cu5 2.507440 1_545
Cu11 Cu22 2.507441 1_555
Cu11 Cu23 2.584184 1_555
Cu11 Cu15 2.584184 1_555
Cu11 Cu9 2.584184 1_555
Cu11 Cu25 2.584185 1_555
Cu12 Cu5 2.490922 1_555
Cu12 Cu17 2.490922 1_555
Cu12 Cu4 2.507440 1_555
Cu12 Cu21 2.507441 1_655
Cu12 Cu25 2.584184 1_555
Cu12 Cu14 2.584184 1_555
Cu12 Cu24 2.584184 1_555
Cu12 Cu13 2.656947 1_555
Cu13 Cu17 2.490922 1_555
Cu13 Cu5 2.490922 1_555
Cu13 Cu3 2.507440 1_564
Cu13 Cu18 2.507441 1_555
Cu13 Cu14 2.584184 1_555
Cu13 Cu2 2.584184 1_555
Cu13 Cu23 2.584184 1_555
Cu14 Cu7 2.490922 1_555
Cu14 Cu19 2.490922 1_555
Cu14 Cu22 2.507440 1_565
Cu14 Cu5 2.507441 1_555
Cu14 Cu24 2.584184 1_555
Cu14 Cu2 2.584185 1_555
Cu14 Cu16 2.656947 1_555
Cu15 Cu22 2.490922 1_555
Cu15 Cu6 2.490922 1_555
Cu15 Cu21 2.507440 1_555
Cu15 Cu4 2.507441 1_455
Cu15 Cu2 2.584184 1_555
Cu15 Cu23 2.584184 1_555
Cu15 Cu16 2.584184 1_555
Cu15 Cu9 2.656947 1_555
Cu16 Cu7 2.490922 1_555
Cu16 Cu19 2.490922 1_555
Cu16 Cu17 2.507441 1_456
Cu16 Cu6 2.507441 1_555
Cu16 Cu9 2.584184 1_555
Cu16 Cu2 2.584184 1_555
Cu16 Cu24 2.584184 1_555
Cu17 Cu3 2.584184 1_564
Cu17 Cu7 2.584184 1_654
Cu17 Cu19 2.584184 1_654
Cu17 Cu21 2.584184 1_655
Cu17 Cu5 2.656947 1_555
Cu18 Cu23 2.490922 1_555
Cu18 Cu2 2.490922 1_555
Cu18 Cu9 2.507440 1_564
Cu18 Cu6 2.584184 1_564
Cu18 Cu8 2.584184 1_465
Cu18 Cu22 2.584184 1_564
Cu18 Cu19 2.584184 1_554
Cu18 Cu21 2.656947 1_555
Cu19 Cu24 2.507440 1_555
Cu19 Cu23 2.507441 1_556
Cu19 Cu22 2.584184 1_565
Cu19 Cu21 2.584184 1_556
Cu19 Cu7 2.656947 1_555
Cu20 Cu23 2.507440 1_555
Cu20 Cu24 2.507441 1_554
Cu20 Cu5 2.584184 1_545
Cu20 Cu4 2.584184 1_554
Cu20 Cu3 2.584184 1_554
Cu20 Cu6 2.584184 1_654
Cu20 Cu8 2.656947 1_555
Cu21 Cu23 2.490922 1_555
Cu21 Cu8 2.584184 1_465
Cu21 Cu5 2.584184 1_455
Cu22 Cu9 2.490922 1_555
Cu22 Cu4 2.584184 1_455
Cu22 Cu7 2.584185 1_545
Cu22 Cu6 2.656947 1_555
Cu24 Cu3 2.490922 1_555
Cu24 Cu4 2.490922 1_555
Cu24 Cu9 2.584184 1_555
Cu24 Cu25 2.656947 1_555
Cu25 Cu3 2.490922 1_555
Cu25 Cu4 2.490922 1_555
Cu25 Cu7 2.507440 1_645
Cu25 Cu8 2.507441 1_555
Cu25 Cu9 2.584184 1_555
