# generated using pymatgen
data_Cd(HN2)4
_symmetry_space_group_name_H-M   'P 1'
_cell_length_a   11.92724400
_cell_length_b   7.96841100
_cell_length_c   12.76897426
_cell_angle_alpha   85.39738006
_cell_angle_beta   90.00000000
_cell_angle_gamma   90.00000000
_symmetry_Int_Tables_number   1
_chemical_formula_structural   Cd(HN2)4
_chemical_formula_sum   'Cd8 H32 N64'
_cell_volume   1209.66487482
_cell_formula_units_Z   8
loop_
 _symmetry_equiv_pos_site_id
 _symmetry_equiv_pos_as_xyz
  1  'x, y, z'
loop_
 _atom_site_type_symbol
 _atom_site_label
 _atom_site_symmetry_multiplicity
 _atom_site_fract_x
 _atom_site_fract_y
 _atom_site_fract_z
 _atom_site_occupancy
  Cd  Cd0  1  0.03263600  0.22289200  0.88918000  1
  Cd  Cd1  1  0.53263600  0.27710800  0.11082000  1
  Cd  Cd2  1  0.43555100  0.15682000  0.40404800  1
  Cd  Cd3  1  0.06444900  0.65682000  0.40404800  1
  Cd  Cd4  1  0.46736400  0.72289200  0.88918000  1
  Cd  Cd5  1  0.93555100  0.34318000  0.59595200  1
  Cd  Cd6  1  0.56444900  0.84318000  0.59595200  1
  Cd  Cd7  1  0.96736400  0.77710800  0.11082000  1
  H  H0  1  0.72506200  0.35212100  0.24059000  1
  H  H1  1  0.17168200  0.24243600  0.58771700  1
  H  H2  1  0.19442500  0.17378400  0.05328700  1
  H  H3  1  0.88311100  0.95936500  0.28332900  1
  H  H4  1  0.69442500  0.32621600  0.94671300  1
  H  H5  1  0.77493800  0.85212100  0.24059000  1
  H  H6  1  0.80557500  0.82621600  0.94671300  1
  H  H7  1  0.83778000  0.61019900  0.32841800  1
  H  H8  1  0.51871700  0.37678900  0.85842900  1
  H  H9  1  0.67168200  0.25756400  0.41228300  1
  H  H10  1  0.98128300  0.87678900  0.85842900  1
  H  H11  1  0.37344600  0.50647600  0.18659000  1
  H  H12  1  0.67745900  0.51332000  0.99481600  1
  H  H13  1  0.11688900  0.04063500  0.71667100  1
  H  H14  1  0.82254100  0.01332000  0.99481600  1
  H  H15  1  0.17745900  0.98668000  0.00518400  1
  H  H16  1  0.82831800  0.75756400  0.41228300  1
  H  H17  1  0.32254100  0.48668000  0.00518400  1
  H  H18  1  0.30557500  0.67378400  0.05328700  1
  H  H19  1  0.38311100  0.54063500  0.71667100  1
  H  H20  1  0.32831800  0.74243600  0.58771700  1
  H  H21  1  0.12655400  0.00647600  0.18659000  1
  H  H22  1  0.48128300  0.62321100  0.14157100  1
  H  H23  1  0.33778000  0.88980100  0.67158200  1
  H  H24  1  0.62655400  0.49352400  0.81341000  1
  H  H25  1  0.22506200  0.14787900  0.75941000  1
  H  H26  1  0.66222000  0.11019900  0.32841800  1
  H  H27  1  0.16222000  0.38980100  0.67158200  1
  H  H28  1  0.27493800  0.64787900  0.75941000  1
  H  H29  1  0.87344600  0.99352400  0.81341000  1
  H  H30  1  0.61688900  0.45936500  0.28332900  1
  H  H31  1  0.01871700  0.12321100  0.14157100  1
  N  N0  1  0.37303100  0.77968000  0.65118800  1
  N  N1  1  0.85886800  0.84370000  0.26016600  1
  N  N2  1  0.04738400  0.71020700  0.64272100  1
  N  N3  1  0.24463700  0.58266300  0.47406600  1
  N  N4  1  0.17841800  0.37861700  0.17199000  1
  N  N5  1  0.37849200  0.08396000  0.93191200  1
  N  N6  1  0.10993700  0.94739000  0.38598100  1
  N  N7  1  0.62696900  0.22032000  0.34881200  1
  N  N8  1  0.75536300  0.41733700  0.52593400  1
  N  N9  1  0.40388100  0.20706100  0.97245400  1
  N  N10  1  0.60993700  0.55261000  0.61401900  1
  N  N11  1  0.09829600  0.77603700  0.70663200  1
  N  N12  1  0.15209600  0.46454700  0.88946300  1
  N  N13  1  0.59829600  0.72396300  0.29336800  1
  N  N14  1  0.59611900  0.79293900  0.02754600  1
  N  N15  1  0.32158200  0.87861700  0.17199000  1
  N  N16  1  0.18385800  0.01303800  0.42935700  1
  N  N17  1  0.63472200  0.00116900  0.80079400  1
  N  N18  1  0.99475300  0.64268700  0.57769700  1
  N  N19  1  0.90388100  0.29293900  0.02754600  1
  N  N20  1  0.13610700  0.08800500  0.03191400  1
  N  N21  1  0.65209600  0.03545300  0.11053700  1
  N  N22  1  0.36389300  0.58800500  0.03191400  1
  N  N23  1  0.95261600  0.28979300  0.35727900  1
  N  N24  1  0.90924300  0.37543500  0.77318000  1
  N  N25  1  0.84790400  0.53545300  0.11053700  1
  N  N26  1  0.12696900  0.27968000  0.65118800  1
  N  N27  1  0.64113200  0.34370000  0.26016600  1
  N  N28  1  0.89006300  0.05261000  0.61401900  1
  N  N29  1  0.09075700  0.62456500  0.22682000  1
  N  N30  1  0.34790400  0.96454700  0.88946300  1
  N  N31  1  0.87303100  0.72032000  0.34881200  1
  N  N32  1  0.40924300  0.12456500  0.22682000  1
  N  N33  1  0.67841800  0.12138300  0.82801000  1
  N  N34  1  0.12150800  0.58396000  0.93191200  1
  N  N35  1  0.35886800  0.65630000  0.73983400  1
  N  N36  1  0.31614200  0.51303800  0.42935700  1
  N  N37  1  0.49475300  0.85731300  0.42230300  1
  N  N38  1  0.50524700  0.14268700  0.57769700  1
  N  N39  1  0.74463700  0.91733700  0.52593400  1
  N  N40  1  0.81614200  0.98696200  0.57064300  1
  N  N41  1  0.40170400  0.27603700  0.70663200  1
  N  N42  1  0.09611900  0.70706100  0.97245400  1
  N  N43  1  0.86527800  0.50116900  0.80079400  1
  N  N44  1  0.00524700  0.35731300  0.42230300  1
  N  N45  1  0.59075700  0.87543500  0.77318000  1
  N  N46  1  0.86389300  0.91199500  0.96808600  1
  N  N47  1  0.87849200  0.41604000  0.06808800  1
  N  N48  1  0.63610700  0.41199500  0.96808600  1
  N  N49  1  0.92726900  0.97108700  0.87605800  1
  N  N50  1  0.90170400  0.22396300  0.29336800  1
  N  N51  1  0.07273100  0.02891300  0.12394200  1
  N  N52  1  0.39006300  0.44739000  0.38598100  1
  N  N53  1  0.54738400  0.78979300  0.35727900  1
  N  N54  1  0.42726900  0.52891300  0.12394200  1
  N  N55  1  0.57273100  0.47108700  0.87605800  1
  N  N56  1  0.14113200  0.15630000  0.73983400  1
  N  N57  1  0.45261600  0.21020700  0.64272100  1
  N  N58  1  0.68385800  0.48696200  0.57064300  1
  N  N59  1  0.13472200  0.49883100  0.19920600  1
  N  N60  1  0.82158200  0.62138300  0.82801000  1
  N  N61  1  0.36527800  0.99883100  0.19920600  1
  N  N62  1  0.62150800  0.91604000  0.06808800  1
  N  N63  1  0.25536300  0.08266300  0.47406600  1
loop_
_geom_bond_atom_site_label_1
_geom_bond_atom_site_label_2
_geom_bond_distance
_geom_bond_site_symmetry_2
Cd0 N24 2.355530 1_455
Cd0 N20 2.384469 1_556
Cd0 N49 2.384828 1_445
Cd0 N12 2.395668 1_555
Cd0 N56 2.398998 1_555
Cd0 N19 2.439204 1_456
Cd1 N32 2.355530 1_555
Cd1 N48 2.384469 1_554
Cd1 N54 2.384828 1_555
Cd1 N21 2.395668 1_555
Cd1 N27 2.398998 1_555
Cd1 N9 2.439204 1_554
Cd2 N32 2.319294 1_555
Cd2 N38 2.362232 1_555
Cd2 N52 2.371253 1_555
Cd2 N63 2.383812 1_555
Cd2 N7 2.430784 1_555
Cd2 N37 2.481832 1_545
Cd3 N29 2.319294 1_555
Cd3 N18 2.362232 1_455
Cd3 N6 2.371253 1_555
Cd3 N3 2.383812 1_555
Cd3 N31 2.430784 1_455
Cd3 N44 2.481832 1_555
Cd4 N45 2.355530 1_555
Cd4 N22 2.384469 1_556
Cd4 N55 2.384828 1_555
Cd4 N30 2.395668 1_555
Cd4 N35 2.398998 1_555
Cd4 N14 2.439204 1_556
Cd5 N24 2.319294 1_555
Cd5 N44 2.362232 1_655
Cd5 N28 2.371253 1_555
Cd5 N8 2.383812 1_555
Cd5 N26 2.430784 1_655
Cd5 N18 2.481832 1_555
Cd6 N45 2.319294 1_555
Cd6 N37 2.362232 1_555
Cd6 N10 2.371253 1_555
Cd6 N39 2.383812 1_555
Cd6 N0 2.430784 1_555
Cd6 N38 2.481832 1_565
Cd7 N29 2.355530 1_655
Cd7 N46 2.384469 1_554
Cd7 N51 2.384828 1_665
Cd7 N25 2.395668 1_555
Cd7 N1 2.398998 1_555
Cd7 N42 2.439204 1_654
H0 N27 1.032667 1_555
H1 N26 1.033409 1_555
H2 N20 1.027348 1_555
H3 N1 1.031652 1_555
H4 N48 1.027348 1_555
H5 N1 1.032667 1_555
H6 N46 1.027348 1_555
H7 N31 1.025305 1_555
H8 N55 1.028334 1_555
H9 N7 1.033409 1_555
H10 N49 1.028334 1_555
H11 N54 1.030071 1_555
H12 N48 1.027559 1_555
H13 N56 1.031652 1_555
H14 N46 1.027559 1_545
H15 N20 1.027559 1_565
H16 N31 1.033409 1_555
H17 N22 1.027559 1_555
H18 N22 1.027348 1_555
H19 N35 1.031652 1_555
H20 N0 1.033409 1_555
H21 N51 1.030071 1_555
H22 N54 1.028334 1_555
H23 N0 1.025305 1_555
H24 N55 1.030071 1_555
H25 N56 1.032667 1_555
H26 N7 1.025305 1_555
H27 N26 1.025305 1_555
H28 N35 1.032667 1_555
H29 N49 1.030071 1_555
H30 N27 1.031652 1_555
H31 N51 1.028334 1_555
N3 N36 1.188240 1_555
N4 N59 1.167655 1_555
N5 N9 1.184649 1_555
N10 N58 1.185015 1_555
N11 N2 1.174134 1_555
N12 N34 1.189573 1_555
N13 N53 1.174134 1_555
N14 N62 1.184649 1_555
N15 N61 1.167655 1_555
N16 N6 1.185015 1_545
N16 N63 1.188240 1_555
N17 N33 1.167655 1_555
N17 N45 1.208224 1_545
N18 N2 1.201919 1_655
N19 N47 1.184649 1_555
N21 N62 1.189573 1_545
N23 N50 1.174134 1_555
N23 N44 1.201919 1_655
N24 N43 1.208224 1_555
N25 N47 1.189573 1_555
N28 N40 1.185015 1_545
N29 N59 1.208224 1_555
N30 N5 1.189573 1_565
N32 N61 1.208224 1_545
N34 N42 1.184649 1_555
N36 N52 1.185015 1_555
N37 N53 1.201919 1_555
N38 N57 1.201919 1_555
N39 N40 1.188240 1_555
N41 N57 1.174134 1_555
N43 N60 1.167655 1_555
N58 N8 1.188240 1_555
