# generated using pymatgen
data_GdCu5
_symmetry_space_group_name_H-M   'P 1'
_cell_length_a   5.01677313
_cell_length_b   5.01463760
_cell_length_c   4.04620881
_cell_angle_alpha   90.00000000
_cell_angle_beta   90.00000000
_cell_angle_gamma   119.98572567
_symmetry_Int_Tables_number   1
_chemical_formula_structural   GdCu5
_chemical_formula_sum   'Gd1 Cu5'
_cell_volume   88.16686278
_cell_formula_units_Z   1
loop_
 _symmetry_equiv_pos_site_id
 _symmetry_equiv_pos_as_xyz
  1  'x, y, z'
loop_
 _atom_site_type_symbol
 _atom_site_label
 _atom_site_symmetry_multiplicity
 _atom_site_fract_x
 _atom_site_fract_y
 _atom_site_fract_z
 _atom_site_occupancy
  Gd  Gd0  1  0.00000000  0.00000000  -0.00000000  1
  Cu  Cu0  1  0.50000000  0.50000000  0.50000000  1
  Cu  Cu1  1  0.66604808  0.33301373  0.00000000  1
  Cu  Cu2  1  0.00000000  0.50000000  0.50000000  1
  Cu  Cu3  1  0.33395192  0.66698627  0.00000000  1
  Cu  Cu4  1  0.50000000  0.00000000  0.50000000  1
loop_
_geom_bond_atom_site_label_1
_geom_bond_atom_site_label_2
_geom_bond_distance
_geom_bond_site_symmetry_2
Cu0 Cu1 2.487033 1_556
Cu0 Cu3 2.487033 1_555
Cu0 Cu1 2.487033 1_555
Cu0 Cu3 2.487033 1_556
Cu0 Cu4 2.507319 1_565
Cu0 Cu4 2.507319 1_555
Cu0 Cu2 2.508387 1_655
Cu0 Cu2 2.508387 1_555
Cu0 Gd0 3.222575 1_555
Cu0 Gd0 3.222575 1_556
Cu0 Gd0 3.222575 1_665
Cu0 Gd0 3.222575 1_666
Cu1 Cu4 2.486984 1_554
Cu1 Cu4 2.486984 1_555
Cu1 Cu2 2.489715 1_655
Cu1 Cu2 2.489715 1_654
Cu1 Gd0 2.894164 1_555
Cu1 Gd0 2.896911 1_655
Cu1 Gd0 2.897009 1_665
Cu2 Cu3 2.489715 1_555
Cu2 Cu3 2.489715 1_556
Cu2 Cu4 2.508394 1_565
Cu2 Cu4 2.508394 1_455
Cu2 Gd0 3.221739 1_555
Cu2 Gd0 3.221739 1_556
Cu2 Gd0 3.221739 1_565
Cu2 Gd0 3.221739 1_566
Cu3 Cu4 2.486984 1_564
Cu3 Cu4 2.486984 1_565
Cu3 Gd0 2.894164 1_665
Cu3 Gd0 2.896911 1_565
Cu3 Gd0 2.897009 1_555
Cu4 Gd0 3.222570 1_555
Cu4 Gd0 3.222570 1_556
Cu4 Gd0 3.222570 1_655
Cu4 Gd0 3.222570 1_656
