# generated using pymatgen
data_Nb32N27
_symmetry_space_group_name_H-M   'P 1'
_cell_length_a   3.12698219
_cell_length_b   3.12698230
_cell_length_c   100.53569953
_cell_angle_alpha   60.15527236
_cell_angle_beta   60.15527118
_cell_angle_gamma   60.00000061
_symmetry_Int_Tables_number   1
_chemical_formula_structural   Nb32N27
_chemical_formula_sum   'Nb32 N27'
_cell_volume   696.74108574
_cell_formula_units_Z   1
loop_
 _symmetry_equiv_pos_site_id
 _symmetry_equiv_pos_as_xyz
  1  'x, y, z'
loop_
 _atom_site_type_symbol
 _atom_site_label
 _atom_site_symmetry_multiplicity
 _atom_site_fract_x
 _atom_site_fract_y
 _atom_site_fract_z
 _atom_site_occupancy
  Nb  Nb0  1  0.50446756  0.50446756  0.01520617  1
  Nb  Nb1  1  0.50009766  0.50009766  0.04686584  1
  Nb  Nb2  1  0.49992709  0.49992709  0.07813184  1
  Nb  Nb3  1  0.49518376  0.49518376  0.10982652  1
  Nb  Nb4  1  0.49886794  0.49886794  0.14073113  1
  Nb  Nb5  1  0.50046318  0.50046318  0.17183158  1
  Nb  Nb6  1  0.49932302  0.49932302  0.20318847  1
  Nb  Nb7  1  0.50067698  0.50067698  0.23431153  1
  Nb  Nb8  1  0.49953682  0.49953682  0.26566842  1
  Nb  Nb9  1  0.50113206  0.50113206  0.29676887  1
  Nb  Nb10  1  0.50481624  0.50481624  0.32767348  1
  Nb  Nb11  1  0.50007291  0.50007291  0.35936816  1
  Nb  Nb12  1  0.49990234  0.49990234  0.39063416  1
  Nb  Nb13  1  0.49553244  0.49553244  0.42229383  1
  Nb  Nb14  1  0.50137317  0.50137317  0.45299627  1
  Nb  Nb15  1  0.50358350  0.50358350  0.48403905  1
  Nb  Nb16  1  0.50257147  0.50257147  0.51538392  1
  Nb  Nb17  1  0.49862063  0.49862063  0.54700432  1
  Nb  Nb18  1  0.49992194  0.49992194  0.57813232  1
  Nb  Nb19  1  0.50088306  0.50088306  0.60929221  1
  Nb  Nb20  1  0.49943909  0.49943909  0.64067759  1
  Nb  Nb21  1  0.49995245  0.49995245  0.67187946  1
  Nb  Nb22  1  0.50017337  0.50017337  0.70310875  1
  Nb  Nb23  1  0.49982663  0.49982663  0.73439125  1
  Nb  Nb24  1  0.50004755  0.50004755  0.76562054  1
  Nb  Nb25  1  0.50056091  0.50056091  0.79682241  1
  Nb  Nb26  1  0.49911694  0.49911694  0.82820779  1
  Nb  Nb27  1  0.50007806  0.50007806  0.85936768  1
  Nb  Nb28  1  0.50137937  0.50137937  0.89049568  1
  Nb  Nb29  1  0.49742853  0.49742853  0.92211608  1
  Nb  Nb30  1  0.49641650  0.49641650  0.95346095  1
  Nb  Nb31  1  0.49862683  0.49862683  0.98450373  1
  N  N0  1  0.00598363  0.00598363  0.03068903  1
  N  N1  1  0.99993740  0.99993740  0.06250587  1
  N  N2  1  0.99362881  0.99362881  0.09434730  1
  N  N3  1  0.00275548  0.00275548  0.15599167  1
  N  N4  1  0.99672881  0.99672881  0.18780667  1
  N  N5  1  0.00327119  0.00327119  0.24969333  1
  N  N6  1  0.99724452  0.99724452  0.28150833  1
  N  N7  1  0.00637119  0.00637119  0.34315270  1
  N  N8  1  0.00006260  0.00006260  0.37499413  1
  N  N9  1  0.99401637  0.99401637  0.40681097  1
  N  N10  1  0.00598226  0.00598226  0.46818916  1
  N  N11  1  0.00436231  0.00436231  0.49959103  1
  N  N12  1  0.99971481  0.99971481  0.53127674  1
  N  N13  1  0.99939614  0.99939614  0.56255661  1
  N  N14  1  0.00017795  0.00017795  0.59373332  1
  N  N15  1  0.00010938  0.00010938  0.62498975  1
  N  N16  1  0.99951964  0.99951964  0.65629503  1
  N  N17  1  0.00016285  0.00016285  0.68748473  1
  N  N18  1  0.99983715  0.99983715  0.75001527  1
  N  N19  1  0.00000000  0.00000000  0.71875000  1
  N  N20  1  0.00048036  0.00048036  0.78120497  1
  N  N21  1  0.99989062  0.99989062  0.81251025  1
  N  N22  1  0.99982205  0.99982205  0.84376668  1
  N  N23  1  0.00060386  0.00060386  0.87494339  1
  N  N24  1  0.00028519  0.00028519  0.90622326  1
  N  N25  1  0.99563769  0.99563769  0.93790897  1
  N  N26  1  0.99401774  0.99401774  0.96931084  1
loop_
_geom_bond_atom_site_label_1
_geom_bond_atom_site_label_2
_geom_bond_distance
_geom_bond_site_symmetry_2
N0 Nb0 2.209571 1_455
N0 Nb0 2.209571 1_545
N0 Nb0 2.209571 1_555
N0 Nb1 2.242976 1_445
N0 Nb1 2.242976 1_455
N0 Nb1 2.242976 1_545
N1 Nb2 2.216381 1_555
N1 Nb2 2.216381 1_565
N1 Nb2 2.216381 1_655
N1 Nb1 2.217052 1_665
N1 Nb1 2.217052 1_655
N1 Nb1 2.217052 1_565
N2 Nb3 2.209398 1_655
N2 Nb3 2.209398 1_565
N2 Nb3 2.209398 1_555
N2 Nb2 2.244864 1_655
N2 Nb2 2.244864 1_565
N2 Nb2 2.244864 1_665
N3 Nb4 2.199075 1_455
N3 Nb4 2.199075 1_545
N3 Nb4 2.199076 1_555
N3 Nb5 2.226638 1_445
N3 Nb5 2.226638 1_455
N3 Nb5 2.226638 1_545
N4 Nb6 2.204787 1_555
N4 Nb6 2.204788 1_655
N4 Nb6 2.204788 1_565
N4 Nb5 2.233166 1_655
N4 Nb5 2.233166 1_565
N4 Nb5 2.233167 1_665
N5 Nb7 2.204787 1_555
N5 Nb7 2.204788 1_455
N5 Nb7 2.204788 1_545
N5 Nb8 2.233166 1_455
N5 Nb8 2.233166 1_545
N5 Nb8 2.233167 1_445
N6 Nb9 2.199075 1_655
N6 Nb9 2.199075 1_565
N6 Nb9 2.199076 1_555
N6 Nb8 2.226638 1_665
N6 Nb8 2.226638 1_655
N6 Nb8 2.226638 1_565
N7 Nb10 2.209398 1_455
N7 Nb10 2.209398 1_545
N7 Nb10 2.209398 1_555
N7 Nb11 2.244864 1_455
N7 Nb11 2.244864 1_545
N7 Nb11 2.244864 1_445
N8 Nb11 2.216381 1_555
N8 Nb11 2.216381 1_545
N8 Nb11 2.216381 1_455
N8 Nb12 2.217052 1_445
N8 Nb12 2.217052 1_455
N8 Nb12 2.217052 1_545
N9 Nb13 2.209571 1_655
N9 Nb13 2.209571 1_565
N9 Nb13 2.209571 1_555
N9 Nb12 2.242976 1_665
N9 Nb12 2.242976 1_655
N9 Nb12 2.242976 1_565
N10 Nb14 2.195902 1_455
N10 Nb14 2.195902 1_545
N10 Nb14 2.195902 1_555
N10 Nb15 2.227118 1_445
N10 Nb15 2.227119 1_455
N10 Nb15 2.227119 1_545
N11 Nb15 2.212855 1_545
N11 Nb15 2.212855 1_455
N11 Nb15 2.212855 1_555
N11 Nb16 2.224376 1_455
N11 Nb16 2.224376 1_545
N11 Nb16 2.224376 1_445
N12 Nb17 2.221241 1_555
N12 Nb17 2.221241 1_565
N12 Nb17 2.221241 1_655
N12 Nb16 2.229189 1_665
N12 Nb16 2.229189 1_655
N12 Nb16 2.229189 1_565
N13 Nb17 2.212869 1_655
N13 Nb17 2.212869 1_565
N13 Nb17 2.212870 1_665
N13 Nb18 2.213984 1_555
N13 Nb18 2.213984 1_565
N13 Nb18 2.213984 1_655
N14 Nb19 2.213183 1_455
N14 Nb19 2.213183 1_545
N14 Nb19 2.213184 1_445
N14 Nb18 2.215189 1_555
N14 Nb18 2.215190 1_545
N14 Nb18 2.215190 1_455
N15 Nb20 2.219338 1_445
N15 Nb20 2.219338 1_455
N15 Nb20 2.219338 1_545
N15 Nb19 2.219801 1_555
N15 Nb19 2.219802 1_545
N15 Nb19 2.219802 1_455
N16 Nb21 2.214399 1_555
N16 Nb21 2.214400 1_565
N16 Nb21 2.214400 1_655
N16 Nb20 2.215973 1_655
N16 Nb20 2.215973 1_565
N16 Nb20 2.215974 1_665
N17 Nb21 2.215393 1_545
N17 Nb21 2.215393 1_455
N17 Nb21 2.215393 1_555
N17 Nb22 2.216287 1_445
N17 Nb22 2.216288 1_455
N17 Nb22 2.216288 1_545
N18 Nb24 2.215393 1_565
N18 Nb24 2.215393 1_655
N18 Nb24 2.215393 1_555
N18 Nb23 2.216287 1_665
N18 Nb23 2.216288 1_655
N18 Nb23 2.216288 1_565
N19 Nb22 2.217110 1_545
N19 Nb23 2.217110 1_455
N19 Nb23 2.217110 1_545
N19 Nb22 2.217110 1_455
N19 Nb22 2.217110 1_555
N19 Nb23 2.217110 1_445
N20 Nb24 2.214399 1_555
N20 Nb24 2.214400 1_545
N20 Nb24 2.214400 1_455
N20 Nb25 2.215973 1_455
N20 Nb25 2.215973 1_545
N20 Nb25 2.215974 1_445
N21 Nb25 2.219338 1_665
N21 Nb25 2.219338 1_655
N21 Nb25 2.219338 1_565
N21 Nb26 2.219801 1_555
N21 Nb26 2.219802 1_565
N21 Nb26 2.219802 1_655
N22 Nb26 2.213183 1_655
N22 Nb26 2.213183 1_565
N22 Nb26 2.213184 1_665
N22 Nb27 2.215189 1_555
N22 Nb27 2.215190 1_565
N22 Nb27 2.215190 1_655
N23 Nb28 2.212869 1_455
N23 Nb28 2.212869 1_545
N23 Nb28 2.212870 1_445
N23 Nb27 2.213984 1_555
N23 Nb27 2.213984 1_545
N23 Nb27 2.213984 1_455
N24 Nb28 2.221241 1_555
N24 Nb28 2.221241 1_545
N24 Nb28 2.221241 1_455
N24 Nb29 2.229189 1_445
N24 Nb29 2.229189 1_455
N24 Nb29 2.229189 1_545
N25 Nb30 2.212855 1_565
N25 Nb30 2.212855 1_655
N25 Nb30 2.212855 1_555
N25 Nb29 2.224376 1_655
N25 Nb29 2.224376 1_565
N25 Nb29 2.224376 1_665
N26 Nb31 2.195902 1_655
N26 Nb31 2.195902 1_565
N26 Nb31 2.195902 1_555
N26 Nb30 2.227118 1_665
N26 Nb30 2.227119 1_655
N26 Nb30 2.227119 1_565
