# generated using pymatgen
data_Ce2In3Ru2
_symmetry_space_group_name_H-M   'P 1'
_cell_length_a   4.74263769
_cell_length_b   7.50209045
_cell_length_c   17.65835425
_cell_angle_alpha   90.00000000
_cell_angle_beta   90.00000000
_cell_angle_gamma   90.00000000
_symmetry_Int_Tables_number   1
_chemical_formula_structural   Ce2In3Ru2
_chemical_formula_sum   'Ce8 In12 Ru8'
_cell_volume   628.27889236
_cell_formula_units_Z   4
loop_
 _symmetry_equiv_pos_site_id
 _symmetry_equiv_pos_as_xyz
  1  'x, y, z'
loop_
 _atom_site_type_symbol
 _atom_site_label
 _atom_site_symmetry_multiplicity
 _atom_site_fract_x
 _atom_site_fract_y
 _atom_site_fract_z
 _atom_site_occupancy
  Ce  Ce0  1  0.75000000  0.06205934  0.14846561  1
  Ce  Ce1  1  0.25000000  0.56205934  0.35153439  1
  Ce  Ce2  1  0.25000000  0.44278440  0.92506050  1
  Ce  Ce3  1  0.75000000  0.94278440  0.57493950  1
  Ce  Ce4  1  0.25000000  0.93794066  0.85153439  1
  Ce  Ce5  1  0.75000000  0.43794066  0.64846561  1
  Ce  Ce6  1  0.25000000  0.05721560  0.42506050  1
  Ce  Ce7  1  0.75000000  0.55721560  0.07493950  1
  In  In0  1  0.25000000  0.77259186  0.19406726  1
  In  In1  1  0.75000000  0.12431828  0.96833043  1
  In  In2  1  0.25000000  0.62431828  0.53166957  1
  In  In3  1  0.25000000  0.35813621  0.18319387  1
  In  In4  1  0.75000000  0.27259186  0.30593274  1
  In  In5  1  0.25000000  0.14186379  0.68319387  1
  In  In6  1  0.75000000  0.37568172  0.46833043  1
  In  In7  1  0.75000000  0.64186379  0.81680613  1
  In  In8  1  0.75000000  0.22740814  0.80593274  1
  In  In9  1  0.75000000  0.85813621  0.31680613  1
  In  In10  1  0.25000000  0.87568172  0.03166957  1
  In  In11  1  0.25000000  0.72740814  0.69406726  1
  Ru  Ru0  1  0.25000000  0.23992673  0.52790085  1
  Ru  Ru1  1  0.25000000  0.43326264  0.79368250  1
  Ru  Ru2  1  0.25000000  0.26007327  0.02790085  1
  Ru  Ru3  1  0.25000000  0.06673736  0.29368250  1
  Ru  Ru4  1  0.75000000  0.73992673  0.97209915  1
  Ru  Ru5  1  0.75000000  0.93326264  0.70631750  1
  Ru  Ru6  1  0.75000000  0.56673736  0.20631750  1
  Ru  Ru7  1  0.75000000  0.76007327  0.47209915  1
loop_
_geom_bond_atom_site_label_1
_geom_bond_atom_site_label_2
_geom_bond_distance
_geom_bond_site_symmetry_2
Ce0 In4 3.197875 1_555
Ce0 In1 3.215000 1_554
Ce0 In3 3.306498 1_555
Ce0 In3 3.306498 1_655
Ce0 In0 3.314736 1_645
Ce0 In0 3.314736 1_545
Ce0 In9 3.343186 1_545
Ce0 In10 3.439735 1_545
Ce0 In10 3.439735 1_645
Ce0 Ru3 3.492846 1_555
Ce0 Ru3 3.492846 1_655
Ce0 Ru2 3.516028 1_655
Ce0 Ru2 3.516028 1_555
Ce1 In0 3.197875 1_555
Ce1 In2 3.215000 1_555
Ce1 In9 3.306498 1_455
Ce1 In9 3.306498 1_555
Ce1 In4 3.314736 1_455
Ce1 In4 3.314736 1_555
Ce1 In3 3.343186 1_555
Ce1 In6 3.439735 1_455
Ce1 In6 3.439735 1_555
Ce1 Ru6 3.492846 1_555
Ce1 Ru6 3.492846 1_455
Ce1 Ru7 3.516028 1_455
Ce1 Ru7 3.516028 1_555
Ce2 Ru2 2.275233 1_556
Ce2 Ru1 2.321019 1_555
Ce2 In7 3.392333 1_555
Ce2 In7 3.392333 1_455
Ce2 In1 3.451820 1_455
Ce2 In1 3.451820 1_555
Ce2 In8 3.557950 1_555
Ce2 In8 3.557950 1_455
Ce2 In10 3.753810 1_556
Ce3 Ru7 2.275233 1_555
Ce3 Ru5 2.321019 1_555
Ce3 In5 3.392333 1_565
Ce3 In5 3.392333 1_665
Ce3 In2 3.451820 1_655
Ce3 In2 3.451820 1_555
Ce3 In11 3.557950 1_555
Ce3 In11 3.557950 1_655
Ce3 In6 3.753810 1_565
Ce4 In11 3.197875 1_555
Ce4 In10 3.215000 1_556
Ce4 In7 3.306498 1_555
Ce4 In7 3.306498 1_455
Ce4 In8 3.314736 1_465
Ce4 In8 3.314736 1_565
Ce4 In5 3.343186 1_565
Ce4 In1 3.439735 1_565
Ce4 In1 3.439735 1_465
Ce4 Ru5 3.492846 1_455
Ce4 Ru5 3.492846 1_555
Ce4 Ru4 3.516028 1_555
Ce4 Ru4 3.516028 1_455
Ce5 In8 3.197875 1_555
Ce5 In6 3.215000 1_555
Ce5 In5 3.306498 1_555
Ce5 In5 3.306498 1_655
Ce5 In11 3.314736 1_555
Ce5 In11 3.314736 1_655
Ce5 In7 3.343186 1_555
Ce5 In2 3.439735 1_555
Ce5 In2 3.439735 1_655
Ce5 Ru1 3.492846 1_655
Ce5 Ru1 3.492846 1_555
Ce5 Ru0 3.516028 1_555
Ce5 Ru0 3.516028 1_655
Ce6 Ru0 2.275233 1_555
Ce6 Ru3 2.321019 1_555
Ce6 In9 3.392333 1_445
Ce6 In9 3.392333 1_545
Ce6 In6 3.451820 1_455
Ce6 In6 3.451820 1_555
Ce6 In4 3.557950 1_555
Ce6 In4 3.557950 1_455
Ce6 In2 3.753810 1_545
Ce7 Ru4 2.275233 1_554
Ce7 Ru6 2.321019 1_555
Ce7 In3 3.392333 1_555
Ce7 In3 3.392333 1_655
Ce7 In10 3.451820 1_555
Ce7 In10 3.451820 1_655
Ce7 In0 3.557950 1_555
Ce7 In0 3.557950 1_655
Ce7 In1 3.753810 1_554
In0 Ru3 2.822017 1_565
In0 Ru6 2.838121 1_455
In0 Ru6 2.838121 1_555
In0 In10 2.970134 1_555
In0 In3 3.115207 1_555
In0 In9 3.276048 1_455
In0 In9 3.276048 1_555
In1 Ru2 2.786918 1_556
In1 Ru2 2.786918 1_656
In1 Ru4 2.884508 1_545
In1 In8 2.970134 1_555
In1 In10 3.217676 1_546
In1 In10 3.217676 1_646
In2 Ru7 2.786918 1_555
In2 Ru7 2.786918 1_455
In2 Ru0 2.884508 1_555
In2 In6 3.217676 1_455
In2 In6 3.217676 1_555
In3 Ru2 2.839188 1_555
In3 Ru6 2.870354 1_555
In3 Ru6 2.870354 1_455
In3 Ru3 2.930123 1_555
In3 In4 3.276048 1_455
In3 In4 3.276048 1_555
In4 Ru6 2.822017 1_555
In4 Ru3 2.838121 1_555
In4 Ru3 2.838121 1_655
In4 In6 2.970134 1_555
In4 In9 3.115207 1_545
In5 Ru0 2.839188 1_555
In5 Ru5 2.870354 1_445
In5 Ru5 2.870354 1_545
In5 Ru1 2.930123 1_555
In5 In8 3.276048 1_455
In5 In8 3.276048 1_555
In6 Ru0 2.786918 1_555
In6 Ru0 2.786918 1_655
In6 Ru7 2.884508 1_555
In7 Ru4 2.839188 1_555
In7 Ru1 2.870354 1_655
In7 Ru1 2.870354 1_555
In7 Ru5 2.930123 1_555
In7 In8 3.115207 1_555
In8 Ru5 2.822017 1_545
In8 Ru1 2.838121 1_655
In8 Ru1 2.838121 1_555
In9 Ru7 2.839188 1_555
In9 Ru3 2.870354 1_665
In9 Ru3 2.870354 1_565
In9 Ru6 2.930123 1_555
In10 Ru4 2.786918 1_554
In10 Ru4 2.786918 1_454
In10 Ru2 2.884508 1_565
In11 Ru1 2.822017 1_555
In11 Ru5 2.838121 1_455
In11 Ru5 2.838121 1_555
In11 In2 2.970134 1_555
In11 In5 3.115207 1_565
In11 In7 3.276048 1_455
In11 In7 3.276048 1_555
