# generated using pymatgen
data_PbN6
_symmetry_space_group_name_H-M   'P 1'
_cell_length_a   6.73047500
_cell_length_b   11.54312700
_cell_length_c   16.49239600
_cell_angle_alpha   90.00000000
_cell_angle_beta   90.00000000
_cell_angle_gamma   90.00000000
_symmetry_Int_Tables_number   1
_chemical_formula_structural   PbN6
_chemical_formula_sum   'Pb12 N72'
_cell_volume   1281.30624668
_cell_formula_units_Z   12
loop_
 _symmetry_equiv_pos_site_id
 _symmetry_equiv_pos_as_xyz
  1  'x, y, z'
loop_
 _atom_site_type_symbol
 _atom_site_label
 _atom_site_symmetry_multiplicity
 _atom_site_fract_x
 _atom_site_fract_y
 _atom_site_fract_z
 _atom_site_occupancy
  Pb  Pb0  1  0.44154000  0.63645100  0.75000000  1
  Pb  Pb1  1  0.05846000  0.13645100  0.25000000  1
  Pb  Pb2  1  0.34063100  0.87679300  0.41100700  1
  Pb  Pb3  1  0.84063100  0.62320700  0.08899300  1
  Pb  Pb4  1  0.65936900  0.12320700  0.91100700  1
  Pb  Pb5  1  0.15936900  0.37679300  0.58899300  1
  Pb  Pb6  1  0.65936900  0.12320700  0.58899300  1
  Pb  Pb7  1  0.94154000  0.86354900  0.75000000  1
  Pb  Pb8  1  0.15936900  0.37679300  0.91100700  1
  Pb  Pb9  1  0.84063100  0.62320700  0.41100700  1
  Pb  Pb10  1  0.55846000  0.36354900  0.25000000  1
  Pb  Pb11  1  0.34063100  0.87679300  0.08899300  1
  N  N0  1  0.14885500  0.71395300  0.86599200  1
  N  N1  1  0.93432900  0.23657300  0.99869700  1
  N  N2  1  0.15797400  0.00115400  0.90967000  1
  N  N3  1  0.14885500  0.71395300  0.63400800  1
  N  N4  1  0.00755800  0.00586600  0.62797300  1
  N  N5  1  0.10945200  0.73806300  0.93339100  1
  N  N6  1  0.06567100  0.76342700  0.00130300  1
  N  N7  1  0.85114500  0.28604700  0.13400800  1
  N  N8  1  0.65797400  0.49884600  0.90967000  1
  N  N9  1  0.65255200  0.78041100  0.32180200  1
  N  N10  1  0.16346600  0.40747600  0.25000000  1
  N  N11  1  0.34646300  0.22146100  0.75000000  1
  N  N12  1  0.80826000  0.50332100  0.94653100  1
  N  N13  1  0.83653400  0.59252400  0.75000000  1
  N  N14  1  0.30826000  0.99667900  0.94653100  1
  N  N15  1  0.89054800  0.26193700  0.43339100  1
  N  N16  1  0.39054800  0.23806300  0.06660900  1
  N  N17  1  0.35114500  0.21395300  0.36599200  1
  N  N18  1  0.36189000  0.98609900  0.25000000  1
  N  N19  1  0.15255200  0.71958900  0.32180200  1
  N  N20  1  0.85114500  0.28604700  0.36599200  1
  N  N21  1  0.19174000  0.49667900  0.44653100  1
  N  N22  1  0.80826000  0.50332100  0.55346900  1
  N  N23  1  0.01618600  0.46097700  0.25000000  1
  N  N24  1  0.50755800  0.49413400  0.62797300  1
  N  N25  1  0.49244200  0.50586600  0.12797300  1
  N  N26  1  0.34202600  0.50115400  0.40967000  1
  N  N27  1  0.89054800  0.26193700  0.06660900  1
  N  N28  1  0.34744800  0.21958900  0.67819800  1
  N  N29  1  0.66346600  0.09252400  0.25000000  1
  N  N30  1  0.34744800  0.21958900  0.82180200  1
  N  N31  1  0.84202600  0.99884600  0.09033000  1
  N  N32  1  0.56567100  0.73657300  0.00130300  1
  N  N33  1  0.60945200  0.76193700  0.93339100  1
  N  N34  1  0.65797400  0.49884600  0.59033000  1
  N  N35  1  0.10945200  0.73806300  0.56660900  1
  N  N36  1  0.98381400  0.53902300  0.75000000  1
  N  N37  1  0.34202600  0.50115400  0.09033000  1
  N  N38  1  0.33653400  0.90747600  0.75000000  1
  N  N39  1  0.49244200  0.50586600  0.37202700  1
  N  N40  1  0.99244200  0.99413400  0.12797300  1
  N  N41  1  0.69174000  0.00332100  0.44653100  1
  N  N42  1  0.69174000  0.00332100  0.05346900  1
  N  N43  1  0.15797400  0.00115400  0.59033000  1
  N  N44  1  0.63811000  0.01390100  0.75000000  1
  N  N45  1  0.00755800  0.00586600  0.87202700  1
  N  N46  1  0.51618600  0.03902300  0.25000000  1
  N  N47  1  0.19174000  0.49667900  0.05346900  1
  N  N48  1  0.60945200  0.76193700  0.56660900  1
  N  N49  1  0.15255200  0.71958900  0.17819800  1
  N  N50  1  0.35114500  0.21395300  0.13400800  1
  N  N51  1  0.86189000  0.51390100  0.25000000  1
  N  N52  1  0.39054800  0.23806300  0.43339100  1
  N  N53  1  0.84744800  0.28041100  0.82180200  1
  N  N54  1  0.84744800  0.28041100  0.67819800  1
  N  N55  1  0.13811000  0.48609900  0.75000000  1
  N  N56  1  0.30826000  0.99667900  0.55346900  1
  N  N57  1  0.15353700  0.72146100  0.25000000  1
  N  N58  1  0.65255200  0.78041100  0.17819800  1
  N  N59  1  0.43432900  0.26342700  0.50130300  1
  N  N60  1  0.84646300  0.27853900  0.75000000  1
  N  N61  1  0.43432900  0.26342700  0.99869700  1
  N  N62  1  0.06567100  0.76342700  0.49869700  1
  N  N63  1  0.56567100  0.73657300  0.49869700  1
  N  N64  1  0.50755800  0.49413400  0.87202700  1
  N  N65  1  0.84202600  0.99884600  0.40967000  1
  N  N66  1  0.64885500  0.78604700  0.63400800  1
  N  N67  1  0.48381400  0.96097700  0.75000000  1
  N  N68  1  0.64885500  0.78604700  0.86599200  1
  N  N69  1  0.99244200  0.99413400  0.37202700  1
  N  N70  1  0.65353700  0.77853900  0.25000000  1
  N  N71  1  0.93432900  0.23657300  0.50130300  1
loop_
_geom_bond_atom_site_label_1
_geom_bond_atom_site_label_2
_geom_bond_distance
_geom_bond_site_symmetry_2
N0 N5 1.176170 1_555
N0 Pb0 2.887974 1_555
N0 Pb7 2.930583 1_455
N1 N27 1.194579 1_556
N1 Pb8 2.646778 1_655
N1 Pb4 2.688631 1_555
N2 N45 1.188813 1_555
N3 N35 1.176170 1_555
N3 Pb0 2.887974 1_555
N3 Pb7 2.930583 1_455
N4 N43 1.188813 1_555
N4 Pb7 2.635601 1_445
N4 Pb6 2.782049 1_455
N5 N6 1.194579 1_556
N6 Pb3 2.646778 1_455
N6 Pb11 2.688631 1_555
N7 Pb10 2.887974 1_555
N7 Pb1 2.930583 1_655
N9 Pb9 2.657012 1_555
N9 Pb2 2.794564 1_555
N10 N23 1.167903 1_555
N10 Pb10 2.706421 1_555
N11 N30 1.184403 1_555
N11 N28 1.184403 1_555
N12 N8 1.181257 1_555
N12 Pb3 2.735484 1_556
N12 Pb8 2.839151 1_655
N13 N36 1.167903 1_555
N13 Pb0 2.706421 1_555
N14 N2 1.181257 1_565
N14 Pb11 2.735484 1_556
N14 Pb4 2.839151 1_565
N15 N20 1.176170 1_555
N15 N71 1.194579 1_555
N16 N50 1.176170 1_555
N16 N61 1.194579 1_554
N17 N52 1.176170 1_555
N17 Pb1 2.887974 1_555
N17 Pb10 2.930583 1_555
N18 N46 1.204849 1_565
N18 Pb1 2.680069 1_565
N18 Pb2 2.943390 1_555
N18 Pb11 2.943390 1_555
N19 N57 1.184403 1_555
N19 Pb2 2.657012 1_555
N19 Pb9 2.794564 1_455
N20 Pb10 2.887974 1_555
N20 Pb1 2.930583 1_655
N21 N26 1.181257 1_555
N21 Pb5 2.735484 1_555
N21 Pb9 2.839151 1_455
N22 N34 1.181257 1_555
N22 Pb9 2.735484 1_555
N22 Pb5 2.839151 1_655
N23 N51 1.204849 1_455
N24 N34 1.188813 1_555
N24 Pb0 2.635601 1_555
N24 Pb5 2.782049 1_555
N25 N37 1.188813 1_555
N25 Pb10 2.635601 1_555
N25 Pb3 2.782049 1_555
N26 N39 1.188813 1_555
N27 N7 1.176170 1_555
N28 Pb5 2.657012 1_555
N28 Pb6 2.794564 1_555
N29 N46 1.167903 1_555
N29 Pb1 2.706421 1_655
N30 Pb8 2.657012 1_555
N30 Pb4 2.794564 1_555
N31 N42 1.181257 1_565
N31 N40 1.188813 1_555
N32 N33 1.194579 1_554
N32 Pb11 2.646778 1_555
N32 Pb3 2.688631 1_555
N33 N68 1.176170 1_555
N35 N62 1.194579 1_555
N36 N55 1.204849 1_655
N37 N47 1.181257 1_555
N38 N67 1.167903 1_555
N38 Pb7 2.706421 1_455
N39 Pb10 2.635601 1_555
N39 Pb9 2.782049 1_555
N40 Pb1 2.635601 1_665
N40 Pb11 2.782049 1_655
N41 N65 1.181257 1_545
N41 Pb6 2.735484 1_555
N41 Pb2 2.839151 1_545
N42 Pb4 2.735484 1_554
N42 Pb11 2.839151 1_545
N43 N56 1.181257 1_545
N44 N67 1.204849 1_545
N44 Pb7 2.680069 1_545
N44 Pb6 2.943390 1_555
N44 Pb4 2.943390 1_555
N45 Pb7 2.635601 1_445
N45 Pb4 2.782049 1_455
N47 Pb8 2.735484 1_554
N47 Pb3 2.839151 1_455
N48 N66 1.176170 1_555
N48 N63 1.194579 1_555
N49 N57 1.184403 1_555
N49 Pb11 2.657012 1_555
N49 Pb3 2.794564 1_455
N50 Pb1 2.887974 1_555
N50 Pb10 2.930583 1_555
N51 Pb10 2.680069 1_555
N51 Pb9 2.943390 1_555
N51 Pb3 2.943390 1_555
N52 N59 1.194579 1_555
N53 N60 1.184403 1_555
N53 Pb4 2.657012 1_555
N53 Pb8 2.794564 1_655
N54 N60 1.184403 1_555
N54 Pb6 2.657012 1_555
N54 Pb5 2.794564 1_655
N55 Pb0 2.680069 1_555
N55 Pb8 2.943390 1_555
N55 Pb5 2.943390 1_555
N56 Pb2 2.735484 1_555
N56 Pb6 2.839151 1_565
N58 N70 1.184403 1_555
N58 Pb3 2.657012 1_555
N58 Pb11 2.794564 1_555
N59 Pb6 2.646778 1_555
N59 Pb5 2.688631 1_555
N61 Pb4 2.646778 1_555
N61 Pb8 2.688631 1_555
N62 Pb9 2.646778 1_455
N62 Pb2 2.688631 1_555
N63 Pb2 2.646778 1_555
N63 Pb9 2.688631 1_555
N64 N8 1.188813 1_555
N64 Pb0 2.635601 1_555
N64 Pb8 2.782049 1_555
N65 N69 1.188813 1_555
N66 Pb7 2.887974 1_555
N66 Pb0 2.930583 1_555
N68 Pb7 2.887974 1_555
N68 Pb0 2.930583 1_555
N69 Pb1 2.635601 1_665
N69 Pb2 2.782049 1_655
N70 N9 1.184403 1_555
N71 Pb5 2.646778 1_655
N71 Pb6 2.688631 1_555
