# generated using pymatgen
data_Er5Sb3
_symmetry_space_group_name_H-M   'P 1'
_cell_length_a   8.05767067
_cell_length_b   9.15847049
_cell_length_c   11.74801951
_cell_angle_alpha   90.00000000
_cell_angle_beta   90.00000000
_cell_angle_gamma   90.00000000
_symmetry_Int_Tables_number   1
_chemical_formula_structural   Er5Sb3
_chemical_formula_sum   'Er20 Sb12'
_cell_volume   866.95613171
_cell_formula_units_Z   4
loop_
 _symmetry_equiv_pos_site_id
 _symmetry_equiv_pos_as_xyz
  1  'x, y, z'
loop_
 _atom_site_type_symbol
 _atom_site_label
 _atom_site_symmetry_multiplicity
 _atom_site_fract_x
 _atom_site_fract_y
 _atom_site_fract_z
 _atom_site_occupancy
  Er  Er0  1  0.67134520  0.75000000  0.72678710  1
  Er  Er1  1  0.30880025  0.55944273  0.56683205  1
  Er  Er2  1  0.84442131  0.25000000  0.20879665  1
  Er  Er3  1  0.19119975  0.94055727  0.06683205  1
  Er  Er4  1  0.30880025  0.94055727  0.56683205  1
  Er  Er5  1  0.69119975  0.44055727  0.43316795  1
  Er  Er6  1  0.80880025  0.44055727  0.93316795  1
  Er  Er7  1  0.97533314  0.75000000  0.50500218  1
  Er  Er8  1  0.15557869  0.75000000  0.79120335  1
  Er  Er9  1  0.32865480  0.25000000  0.27321290  1
  Er  Er10  1  0.47533314  0.25000000  0.99499782  1
  Er  Er11  1  0.80880025  0.05944273  0.93316795  1
  Er  Er12  1  0.19119975  0.55944273  0.06683205  1
  Er  Er13  1  0.02466686  0.25000000  0.49499782  1
  Er  Er14  1  0.34442131  0.75000000  0.29120335  1
  Er  Er15  1  0.69119975  0.05944273  0.43316795  1
  Er  Er16  1  0.52466686  0.75000000  0.00500218  1
  Er  Er17  1  0.82865480  0.75000000  0.22678710  1
  Er  Er18  1  0.65557869  0.25000000  0.70879665  1
  Er  Er19  1  0.17134520  0.25000000  0.77321290  1
  Sb  Sb0  1  0.09530048  0.25000000  0.02408075  1
  Sb  Sb1  1  0.93621557  0.49074352  0.67400786  1
  Sb  Sb2  1  0.43621557  0.99074352  0.82599214  1
  Sb  Sb3  1  0.06378443  0.99074352  0.32599214  1
  Sb  Sb4  1  0.43621557  0.50925648  0.82599214  1
  Sb  Sb5  1  0.59530048  0.75000000  0.47591925  1
  Sb  Sb6  1  0.40469952  0.25000000  0.52408075  1
  Sb  Sb7  1  0.56378443  0.49074352  0.17400786  1
  Sb  Sb8  1  0.06378443  0.50925648  0.32599214  1
  Sb  Sb9  1  0.90469952  0.75000000  0.97591925  1
  Sb  Sb10  1  0.56378443  0.00925648  0.17400786  1
  Sb  Sb11  1  0.93621557  0.00925648  0.67400786  1
loop_
_geom_bond_atom_site_label_1
_geom_bond_atom_site_label_2
_geom_bond_distance
_geom_bond_site_symmetry_2
Er0 Sb5 3.010223 1_555
Er0 Sb4 3.131953 1_555
Er0 Sb2 3.131953 1_555
Er0 Sb11 3.252257 1_565
Er0 Sb1 3.252257 1_555
Er0 Sb9 3.478752 1_555
Er1 Sb6 2.980106 1_555
Er1 Sb5 3.084765 1_555
Er1 Sb4 3.245768 1_555
Er1 Sb1 3.315750 1_455
Er1 Sb8 3.480576 1_555
Er2 Sb0 2.965732 1_655
Er2 Sb7 3.184612 1_555
Er2 Sb10 3.184612 1_555
Er2 Sb3 3.264600 1_645
Er2 Sb8 3.264600 1_655
Er3 Sb0 2.980106 1_565
Er3 Sb9 3.084765 1_454
Er3 Sb3 3.245768 1_555
Er3 Sb10 3.315750 1_565
Er3 Sb2 3.480576 1_554
Er4 Sb6 2.980106 1_565
Er4 Sb5 3.084765 1_555
Er4 Sb2 3.245768 1_555
Er4 Sb11 3.315750 1_465
Er4 Sb3 3.480576 1_555
Er5 Sb5 2.980106 1_555
Er5 Sb6 3.084765 1_555
Er5 Sb7 3.245768 1_555
Er5 Sb8 3.315750 1_655
Er5 Sb1 3.480576 1_555
Er6 Sb9 2.980106 1_555
Er6 Sb0 3.084765 1_656
Er6 Sb1 3.245768 1_555
Er6 Sb4 3.315750 1_555
Er6 Sb7 3.480576 1_556
Er7 Sb5 3.081180 1_555
Er7 Sb11 3.111146 1_565
Er7 Sb1 3.111146 1_555
Er7 Sb8 3.129210 1_655
Er7 Sb3 3.129210 1_655
Er8 Sb9 2.965732 1_455
Er8 Sb4 3.184612 1_555
Er8 Sb2 3.184612 1_555
Er8 Sb11 3.264600 1_465
Er8 Sb1 3.264600 1_455
Er9 Sb6 3.010223 1_555
Er9 Sb7 3.131953 1_555
Er9 Sb10 3.131953 1_555
Er9 Sb3 3.252257 1_545
Er9 Sb8 3.252257 1_555
Er9 Sb0 3.478752 1_555
Er10 Sb0 3.081180 1_556
Er10 Sb4 3.111146 1_555
Er10 Sb2 3.111146 1_545
Er10 Sb7 3.129210 1_556
Er10 Sb10 3.129210 1_556
Er11 Sb9 2.980106 1_545
Er11 Sb0 3.084765 1_656
Er11 Sb11 3.245768 1_555
Er11 Sb2 3.315750 1_545
Er11 Sb10 3.480576 1_556
Er12 Sb0 2.980106 1_555
Er12 Sb9 3.084765 1_454
Er12 Sb8 3.245768 1_555
Er12 Sb7 3.315750 1_555
Er12 Sb4 3.480576 1_554
Er13 Sb6 3.081180 1_555
Er13 Sb8 3.111146 1_555
Er13 Sb3 3.111146 1_545
Er13 Sb1 3.129210 1_455
Er13 Sb11 3.129210 1_455
Er14 Sb5 2.965732 1_555
Er14 Sb8 3.184612 1_555
Er14 Sb3 3.184612 1_555
Er14 Sb10 3.264600 1_565
Er14 Sb7 3.264600 1_555
Er15 Sb5 2.980106 1_545
Er15 Sb6 3.084765 1_555
Er15 Sb10 3.245768 1_555
Er15 Sb3 3.315750 1_645
Er15 Sb11 3.480576 1_555
Er16 Sb9 3.081180 1_554
Er16 Sb10 3.111146 1_565
Er16 Sb7 3.111146 1_555
Er16 Sb4 3.129210 1_554
Er16 Sb2 3.129210 1_554
Er17 Sb9 3.010223 1_554
Er17 Sb3 3.131953 1_655
Er17 Sb8 3.131953 1_655
Er17 Sb10 3.252257 1_565
Er17 Sb7 3.252257 1_555
Er17 Sb5 3.478752 1_555
Er18 Sb6 2.965732 1_555
Er18 Sb1 3.184612 1_555
Er18 Sb11 3.184612 1_555
Er18 Sb2 3.264600 1_545
Er18 Sb4 3.264600 1_555
Er19 Sb0 3.010223 1_556
Er19 Sb1 3.131953 1_455
Er19 Sb11 3.131953 1_455
Er19 Sb2 3.252257 1_545
Er19 Sb4 3.252257 1_555
Er19 Sb6 3.478752 1_555
