# generated using pymatgen
data_Ce5Rh4
_symmetry_space_group_name_H-M   'P 1'
_cell_length_a   7.35615700
_cell_length_b   7.51594600
_cell_length_c   15.07582100
_cell_angle_alpha   90.00000000
_cell_angle_beta   90.00000000
_cell_angle_gamma   90.00000000
_symmetry_Int_Tables_number   1
_chemical_formula_structural   Ce5Rh4
_chemical_formula_sum   'Ce20 Rh16'
_cell_volume   833.51920944
_cell_formula_units_Z   4
loop_
 _symmetry_equiv_pos_site_id
 _symmetry_equiv_pos_as_xyz
  1  'x, y, z'
loop_
 _atom_site_type_symbol
 _atom_site_label
 _atom_site_symmetry_multiplicity
 _atom_site_fract_x
 _atom_site_fract_y
 _atom_site_fract_z
 _atom_site_occupancy
  Ce  Ce0  1  0.01154000  0.67852000  0.09088400  1
  Ce  Ce1  1  0.83457000  0.83457400  0.62170800  1
  Ce  Ce2  1  0.98846000  0.32148000  0.59088400  1
  Ce  Ce3  1  0.17805500  0.02647400  0.75000000  1
  Ce  Ce4  1  0.51154000  0.82148000  0.40911600  1
  Ce  Ce5  1  0.48846000  0.17852000  0.59088400  1
  Ce  Ce6  1  0.16543000  0.16542600  0.37829200  1
  Ce  Ce7  1  0.33457000  0.66542600  0.87829200  1
  Ce  Ce8  1  0.67805500  0.47352600  0.75000000  1
  Ce  Ce9  1  0.33457000  0.66542600  0.62170800  1
  Ce  Ce10  1  0.01154000  0.67852000  0.40911600  1
  Ce  Ce11  1  0.48846000  0.17852000  0.90911600  1
  Ce  Ce12  1  0.82194500  0.97352600  0.25000000  1
  Ce  Ce13  1  0.51154000  0.82148000  0.09088400  1
  Ce  Ce14  1  0.98846000  0.32148000  0.90911600  1
  Ce  Ce15  1  0.83457000  0.83457400  0.87829200  1
  Ce  Ce16  1  0.66543000  0.33457400  0.12170800  1
  Ce  Ce17  1  0.16543000  0.16542600  0.12170800  1
  Ce  Ce18  1  0.66543000  0.33457400  0.37829200  1
  Ce  Ce19  1  0.32194500  0.52647400  0.25000000  1
  Rh  Rh0  1  0.02790200  0.62196400  0.75000000  1
  Rh  Rh1  1  0.81291100  0.03383100  0.46058300  1
  Rh  Rh2  1  0.47209800  0.12196400  0.25000000  1
  Rh  Rh3  1  0.18708900  0.96616900  0.96058300  1
  Rh  Rh4  1  0.69302300  0.64087000  0.25000000  1
  Rh  Rh5  1  0.30697700  0.35913000  0.75000000  1
  Rh  Rh6  1  0.97209800  0.37803600  0.25000000  1
  Rh  Rh7  1  0.68708900  0.53383100  0.53941700  1
  Rh  Rh8  1  0.31291100  0.46616900  0.03941700  1
  Rh  Rh9  1  0.31291100  0.46616900  0.46058300  1
  Rh  Rh10  1  0.52790200  0.87803600  0.75000000  1
  Rh  Rh11  1  0.68708900  0.53383100  0.96058300  1
  Rh  Rh12  1  0.81291100  0.03383100  0.03941700  1
  Rh  Rh13  1  0.80697700  0.14087000  0.75000000  1
  Rh  Rh14  1  0.18708900  0.96616900  0.53941700  1
  Rh  Rh15  1  0.19302300  0.85913000  0.25000000  1
loop_
_geom_bond_atom_site_label_1
_geom_bond_atom_site_label_2
_geom_bond_distance
_geom_bond_site_symmetry_2
Ce0 Rh8 2.839735 1_555
Ce0 Rh15 3.062551 1_555
Ce0 Rh12 3.141423 1_465
Ce0 Rh3 3.193825 1_554
Ce0 Rh11 3.276865 1_454
Ce0 Rh6 3.307403 1_455
Ce0 Rh4 3.365156 1_455
Ce1 Rh7 2.797384 1_555
Ce1 Rh1 2.858092 1_565
Ce1 Rh0 2.883897 1_655
Ce1 Rh10 2.989407 1_555
Ce1 Rh13 3.013578 1_565
Ce1 Rh14 3.040058 1_655
Ce2 Rh7 2.839735 1_555
Ce2 Rh13 3.062551 1_555
Ce2 Rh14 3.141423 1_645
Ce2 Rh1 3.193825 1_555
Ce2 Rh9 3.276865 1_655
Ce2 Rh0 3.307403 1_655
Ce2 Rh5 3.365156 1_655
Ce3 Rh5 2.674047 1_555
Ce3 Rh10 2.804948 1_545
Ce3 Rh13 2.861914 1_455
Ce3 Rh3 3.207592 1_545
Ce3 Rh14 3.207592 1_545
Ce3 Rh0 3.234703 1_545
Ce4 Rh1 2.839735 1_565
Ce4 Rh4 3.062551 1_555
Ce4 Rh9 3.141423 1_555
Ce4 Rh7 3.193825 1_555
Ce4 Rh14 3.276865 1_555
Ce4 Rh2 3.307403 1_565
Ce4 Rh15 3.365156 1_555
Ce5 Rh14 2.839735 1_545
Ce5 Rh5 3.062551 1_555
Ce5 Rh7 3.141423 1_555
Ce5 Rh9 3.193825 1_555
Ce5 Rh1 3.276865 1_555
Ce5 Rh10 3.307403 1_545
Ce5 Rh13 3.365156 1_555
Ce6 Rh9 2.797384 1_555
Ce6 Rh14 2.858092 1_545
Ce6 Rh6 2.883897 1_455
Ce6 Rh2 2.989407 1_555
Ce6 Rh15 3.013578 1_545
Ce6 Rh1 3.040058 1_455
Ce7 Rh3 2.797384 1_555
Ce7 Rh8 2.858092 1_556
Ce7 Rh10 2.883897 1_555
Ce7 Rh0 2.989407 1_555
Ce7 Rh5 3.013578 1_555
Ce7 Rh11 3.040058 1_555
Ce8 Rh13 2.674047 1_555
Ce8 Rh0 2.804948 1_655
Ce8 Rh5 2.861914 1_555
Ce8 Rh11 3.207592 1_555
Ce8 Rh7 3.207592 1_555
Ce8 Rh10 3.234703 1_555
Ce9 Rh14 2.797384 1_555
Ce9 Rh9 2.858092 1_555
Ce9 Rh10 2.883897 1_555
Ce9 Rh0 2.989407 1_555
Ce9 Rh5 3.013578 1_555
Ce9 Rh7 3.040058 1_555
Ce10 Rh9 2.839735 1_555
Ce10 Rh15 3.062551 1_555
Ce10 Rh1 3.141423 1_465
Ce10 Rh14 3.193825 1_555
Ce10 Rh7 3.276865 1_455
Ce10 Rh6 3.307403 1_455
Ce10 Rh4 3.365156 1_455
Ce11 Rh3 2.839735 1_545
Ce11 Rh5 3.062551 1_555
Ce11 Rh11 3.141423 1_555
Ce11 Rh8 3.193825 1_556
Ce11 Rh12 3.276865 1_556
Ce11 Rh10 3.307403 1_545
Ce11 Rh13 3.365156 1_555
Ce12 Rh4 2.674047 1_555
Ce12 Rh2 2.804948 1_565
Ce12 Rh15 2.861914 1_655
Ce12 Rh1 3.207592 1_565
Ce12 Rh12 3.207592 1_565
Ce12 Rh6 3.234703 1_565
Ce13 Rh12 2.839735 1_565
Ce13 Rh4 3.062551 1_555
Ce13 Rh8 3.141423 1_555
Ce13 Rh11 3.193825 1_554
Ce13 Rh3 3.276865 1_554
Ce13 Rh2 3.307403 1_565
Ce13 Rh15 3.365156 1_555
Ce14 Rh11 2.839735 1_555
Ce14 Rh13 3.062551 1_555
Ce14 Rh3 3.141423 1_645
Ce14 Rh12 3.193825 1_556
Ce14 Rh8 3.276865 1_656
Ce14 Rh0 3.307403 1_655
Ce14 Rh5 3.365156 1_655
Ce15 Rh11 2.797384 1_555
Ce15 Rh12 2.858092 1_566
Ce15 Rh0 2.883897 1_655
Ce15 Rh10 2.989407 1_555
Ce15 Rh13 3.013578 1_565
Ce15 Rh3 3.040058 1_655
Ce16 Rh12 2.797384 1_555
Ce16 Rh11 2.858092 1_554
Ce16 Rh2 2.883897 1_555
Ce16 Rh6 2.989407 1_555
Ce16 Rh4 3.013578 1_555
Ce16 Rh8 3.040058 1_555
Ce17 Rh8 2.797384 1_555
Ce17 Rh3 2.858092 1_544
Ce17 Rh6 2.883897 1_455
Ce17 Rh2 2.989407 1_555
Ce17 Rh15 3.013578 1_545
Ce17 Rh12 3.040058 1_455
Ce18 Rh1 2.797384 1_555
Ce18 Rh7 2.858092 1_555
Ce18 Rh2 2.883897 1_555
Ce18 Rh6 2.989407 1_555
Ce18 Rh4 3.013578 1_555
Ce18 Rh9 3.040058 1_555
Ce19 Rh15 2.674047 1_555
Ce19 Rh6 2.804948 1_455
Ce19 Rh4 2.861914 1_555
Ce19 Rh9 3.207592 1_555
Ce19 Rh8 3.207592 1_555
Ce19 Rh2 3.234703 1_555
Rh0 Rh5 2.849011 1_555
Rh1 Rh14 3.040961 1_645
Rh4 Rh6 2.849011 1_555
Rh7 Rh9 3.040961 1_555
Rh10 Rh13 2.849011 1_565
Rh11 Rh8 3.040961 1_556
Rh12 Rh3 3.040961 1_644
Rh15 Rh2 2.849011 1_565
