# generated using pymatgen
data_US2
_symmetry_space_group_name_H-M   'P 1'
_cell_length_a   7.89447997
_cell_length_b   7.89447997
_cell_length_c   5.19894970
_cell_angle_alpha   70.92536382
_cell_angle_beta   70.92536382
_cell_angle_gamma   83.89981541
_symmetry_Int_Tables_number   1
_chemical_formula_structural   US2
_chemical_formula_sum   'U5 S10'
_cell_volume   289.40918131
_cell_formula_units_Z   5
loop_
 _symmetry_equiv_pos_site_id
 _symmetry_equiv_pos_as_xyz
  1  'x, y, z'
loop_
 _atom_site_type_symbol
 _atom_site_label
 _atom_site_symmetry_multiplicity
 _atom_site_fract_x
 _atom_site_fract_y
 _atom_site_fract_z
 _atom_site_occupancy
  U  U0  1  0.49950400  0.82503200  0.58630400  1
  U  U1  1  0.00033900  0.99966100  0.00000000  1
  U  U2  1  0.17496800  0.50049600  0.41369600  1
  U  U3  1  0.82417300  0.49967600  0.08556500  1
  U  U4  1  0.50032400  0.17582700  0.91443500  1
  S  S0  1  0.86230300  0.30052000  0.67490800  1
  S  S1  1  0.86178900  0.69982600  0.46019000  1
  S  S2  1  0.50063900  0.49936100  0.50000000  1
  S  S3  1  0.30017400  0.13821100  0.53981000  1
  S  S4  1  0.69948000  0.13769700  0.32509200  1
  S  S5  1  0.30100100  0.86221800  0.16658800  1
  S  S6  1  0.70257400  0.86384500  0.96131300  1
  S  S7  1  0.49879600  0.50120400  0.00000000  1
  S  S8  1  0.13615500  0.29742600  0.03868700  1
  S  S9  1  0.13778200  0.69899900  0.83341200  1
loop_
_geom_bond_atom_site_label_1
_geom_bond_atom_site_label_2
_geom_bond_distance
_geom_bond_site_symmetry_2
S0 U2 2.768614 1_655
S0 U1 2.777632 1_646
S0 U4 2.855978 1_555
S0 U3 2.965466 1_556
S0 U3 3.050259 1_555
S1 U1 2.767987 1_655
S1 U2 2.771007 1_655
S1 U0 2.860752 1_555
S1 U3 2.977814 1_555
S1 U3 3.044123 1_556
S2 S7 2.599548 1_556
S2 S7 2.599548 1_555
S2 U0 2.749167 1_555
S2 U2 2.749167 1_555
S2 U3 2.750814 1_555
S2 U4 2.750814 1_555
S3 U1 2.767987 1_546
S3 U0 2.771007 1_545
S3 U2 2.860752 1_555
S3 U4 2.977814 1_555
S3 U4 3.044123 1_554
S4 U0 2.768614 1_545
S4 U1 2.777632 1_645
S4 U3 2.855978 1_555
S4 U4 2.965466 1_554
S4 U4 3.050259 1_555
S5 U4 2.771735 1_564
S5 U1 2.782675 1_555
S5 U2 2.857537 1_555
S5 U0 3.003651 1_555
S5 U0 3.005742 1_554
S6 U4 2.775066 1_565
S6 U1 2.775157 1_656
S6 U3 2.865123 1_556
S6 U0 3.000463 1_555
S6 U0 3.044813 1_556
S7 U3 2.744617 1_555
S7 U4 2.744617 1_554
S7 U2 2.750055 1_555
S7 U0 2.750055 1_554
S8 U3 2.775066 1_455
S8 U1 2.775157 1_545
S8 U4 2.865123 1_554
S8 U2 3.000463 1_555
S8 U2 3.044813 1_554
S9 U3 2.771735 1_456
S9 U1 2.782675 1_556
S9 U0 2.857537 1_555
S9 U2 3.003651 1_555
S9 U2 3.005742 1_556
