# generated using pymatgen
data_Sb4Pb4S11
_symmetry_space_group_name_H-M   'P 1'
_cell_length_a   3.95029700
_cell_length_b   15.65856400
_cell_length_c   15.86992200
_cell_angle_alpha   90.00000000
_cell_angle_beta   90.00000000
_cell_angle_gamma   90.00000000
_symmetry_Int_Tables_number   1
_chemical_formula_structural   Sb4Pb4S11
_chemical_formula_sum   'Sb8 Pb8 S22'
_cell_volume   981.64955234
_cell_formula_units_Z   2
loop_
 _symmetry_equiv_pos_site_id
 _symmetry_equiv_pos_as_xyz
  1  'x, y, z'
loop_
 _atom_site_type_symbol
 _atom_site_label
 _atom_site_symmetry_multiplicity
 _atom_site_fract_x
 _atom_site_fract_y
 _atom_site_fract_z
 _atom_site_occupancy
  Sb  Sb0  1  0.50000000  0.86732800  0.48649100  1
  Sb  Sb1  1  0.50000000  0.00380500  0.27303800  1
  Sb  Sb2  1  0.50000000  0.99619500  0.72696200  1
  Sb  Sb3  1  0.50000000  0.63267200  0.98649100  1
  Sb  Sb4  1  0.50000000  0.49619500  0.77303800  1
  Sb  Sb5  1  0.50000000  0.50380500  0.22696200  1
  Sb  Sb6  1  0.50000000  0.13267200  0.51350900  1
  Sb  Sb7  1  0.50000000  0.36732800  0.01350900  1
  Pb  Pb0  1  0.00000000  0.26218600  0.81648000  1
  Pb  Pb1  1  0.00000000  0.73781400  0.18352000  1
  Pb  Pb2  1  0.00000000  0.23781400  0.31648000  1
  Pb  Pb3  1  0.00000000  0.88524200  0.93524000  1
  Pb  Pb4  1  0.00000000  0.61475800  0.43524000  1
  Pb  Pb5  1  0.00000000  0.38524200  0.56476000  1
  Pb  Pb6  1  0.00000000  0.11475800  0.06476000  1
  Pb  Pb7  1  0.00000000  0.76218600  0.68352000  1
  S  S0  1  0.00000000  0.45460800  0.32376900  1
  S  S1  1  0.00000000  0.42590600  0.89560500  1
  S  S2  1  0.00000000  0.07409400  0.39560500  1
  S  S3  1  0.50000000  0.35322400  0.70752600  1
  S  S4  1  0.50000000  0.14677600  0.20752600  1
  S  S5  1  0.00000000  0.57409400  0.10439500  1
  S  S6  1  0.50000000  0.85322400  0.79247400  1
  S  S7  1  0.50000000  0.27466100  0.44813700  1
  S  S8  1  0.00000000  0.33037400  0.11499200  1
  S  S9  1  0.00000000  0.66962600  0.88500800  1
  S  S10  1  0.50000000  0.77466100  0.05186300  1
  S  S11  1  0.00000000  0.54539200  0.67623100  1
  S  S12  1  0.50000000  0.50000000  0.50000000  1
  S  S13  1  0.50000000  0.72533900  0.55186300  1
  S  S14  1  0.50000000  0.22533900  0.94813700  1
  S  S15  1  0.50000000  0.64677600  0.29247400  1
  S  S16  1  0.00000000  0.83037400  0.38500800  1
  S  S17  1  0.00000000  0.04539200  0.82376900  1
  S  S18  1  0.00000000  0.16962600  0.61499200  1
  S  S19  1  0.50000000  0.00000000  0.00000000  1
  S  S20  1  0.00000000  0.95460800  0.17623100  1
  S  S21  1  0.00000000  0.92590600  0.60439500  1
loop_
_geom_bond_atom_site_label_1
_geom_bond_atom_site_label_2
_geom_bond_distance
_geom_bond_site_symmetry_2
Pb0 S1 2.854636 1_555
Pb0 S14 2.932515 1_455
Pb0 S14 2.932515 1_555
Pb0 S3 2.987154 1_455
Pb0 S3 2.987154 1_555
Pb1 S5 2.854636 1_555
Pb1 S10 2.932515 1_455
Pb1 S10 2.932515 1_555
Pb1 S15 2.987154 1_555
Pb1 S15 2.987154 1_455
Pb2 S2 2.854636 1_555
Pb2 S7 2.932515 1_555
Pb2 S7 2.932515 1_455
Pb2 S4 2.987154 1_455
Pb2 S4 2.987154 1_555
Pb3 S19 2.861200 1_466
Pb3 S19 2.861200 1_566
Pb3 S6 3.047277 1_555
Pb3 S6 3.047277 1_455
Pb3 S17 3.068899 1_565
Pb3 S10 3.213237 1_456
Pb3 S10 3.213237 1_556
Pb4 S12 2.861200 1_555
Pb4 S12 2.861200 1_455
Pb4 S15 3.047277 1_455
Pb4 S15 3.047277 1_555
Pb4 S0 3.068899 1_555
Pb4 S13 3.213237 1_555
Pb4 S13 3.213237 1_455
Pb5 S12 2.861200 1_455
Pb5 S12 2.861200 1_555
Pb5 S3 3.047277 1_455
Pb5 S3 3.047277 1_555
Pb5 S11 3.068899 1_555
Pb5 S7 3.213237 1_455
Pb5 S7 3.213237 1_555
Pb6 S19 2.861200 1_555
Pb6 S19 2.861200 1_455
Pb6 S4 3.047277 1_455
Pb6 S4 3.047277 1_555
Pb6 S20 3.068899 1_545
Pb6 S14 3.213237 1_454
Pb6 S14 3.213237 1_554
Pb7 S21 2.854636 1_555
Pb7 S13 2.932515 1_455
Pb7 S13 2.932515 1_555
Pb7 S6 2.987154 1_455
Pb7 S6 2.987154 1_555
S0 Sb5 2.618193 1_555
S0 Sb5 2.618193 1_455
S1 Sb7 2.871179 1_556
S1 Sb7 2.871179 1_456
S1 Sb4 2.982635 1_455
S1 Sb4 2.982635 1_555
S2 Sb6 2.871179 1_455
S2 Sb6 2.871179 1_555
S2 Sb1 2.982635 1_455
S2 Sb1 2.982635 1_555
S3 Sb4 2.468357 1_555
S4 Sb1 2.468357 1_555
S5 Sb3 2.871179 1_554
S5 Sb3 2.871179 1_454
S5 Sb5 2.982635 1_455
S5 Sb5 2.982635 1_555
S6 Sb2 2.468357 1_555
S7 Sb6 2.453479 1_555
S8 Sb7 2.613397 1_555
S8 Sb7 2.613397 1_455
S9 Sb3 2.613397 1_455
S9 Sb3 2.613397 1_555
S10 Sb3 2.453479 1_554
S11 Sb4 2.618193 1_455
S11 Sb4 2.618193 1_555
S13 Sb0 2.453479 1_555
S14 Sb7 2.453479 1_556
S15 Sb5 2.468357 1_555
S16 Sb0 2.613397 1_555
S16 Sb0 2.613397 1_455
S17 Sb2 2.618193 1_545
S17 Sb2 2.618193 1_445
S18 Sb6 2.613397 1_455
S18 Sb6 2.613397 1_555
S20 Sb1 2.618193 1_465
S20 Sb1 2.618193 1_565
S21 Sb0 2.871179 1_555
S21 Sb0 2.871179 1_455
S21 Sb2 2.982635 1_455
S21 Sb2 2.982635 1_555
