# generated using pymatgen
data_KSi2Hg
_symmetry_space_group_name_H-M   'P 1'
_cell_length_a   5.10393634
_cell_length_b   5.10393634
_cell_length_c   5.10393634
_cell_angle_alpha   60.00000000
_cell_angle_beta   60.00000000
_cell_angle_gamma   60.00000000
_symmetry_Int_Tables_number   1
_chemical_formula_structural   KSi2Hg
_chemical_formula_sum   'K1 Si2 Hg1'
_cell_volume   94.01577925
_cell_formula_units_Z   1
loop_
 _symmetry_equiv_pos_site_id
 _symmetry_equiv_pos_as_xyz
  1  'x, y, z'
loop_
 _atom_site_type_symbol
 _atom_site_label
 _atom_site_symmetry_multiplicity
 _atom_site_fract_x
 _atom_site_fract_y
 _atom_site_fract_z
 _atom_site_occupancy
  K  K0  1  0.75000000  0.75000000  0.75000000  1
  Si  Si0  1  0.00000000  0.00000000  0.00000000  1
  Si  Si1  1  0.25000000  0.25000000  0.25000000  1
  Hg  Hg0  1  0.50000000  0.50000000  0.50000000  1
loop_
_geom_bond_atom_site_label_1
_geom_bond_atom_site_label_2
_geom_bond_distance
_geom_bond_site_symmetry_2
K0 Si0 3.125510 1_665
K0 Si0 3.125510 1_656
K0 Si0 3.125510 1_566
K0 Si0 3.125510 1_666
K0 Si1 3.609028 1_565
K0 Si1 3.609028 1_656
K0 Si1 3.609028 1_556
K0 Si1 3.609028 1_566
K0 Si1 3.609028 1_655
K0 Si1 3.609028 1_665
Hg0 K0 3.125510 1_455
Hg0 Si1 3.125510 1_655
Hg0 Si1 3.125510 1_556
Hg0 K0 3.125510 1_555
Hg0 K0 3.125510 1_545
Hg0 Si1 3.125510 1_565
Hg0 K0 3.125510 1_554
Hg0 Si1 3.125510 1_555
