# generated using pymatgen
data_CsHIF7
_symmetry_space_group_name_H-M   'P 1'
_cell_length_a   5.42341900
_cell_length_b   8.30770598
_cell_length_c   8.63617764
_cell_angle_alpha   109.39107986
_cell_angle_beta   107.53372264
_cell_angle_gamma   91.85868395
_symmetry_Int_Tables_number   1
_chemical_formula_structural   CsHIF7
_chemical_formula_sum   'Cs2 H2 I2 F14'
_cell_volume   346.17162703
_cell_formula_units_Z   2
loop_
 _symmetry_equiv_pos_site_id
 _symmetry_equiv_pos_as_xyz
  1  'x, y, z'
loop_
 _atom_site_type_symbol
 _atom_site_label
 _atom_site_symmetry_multiplicity
 _atom_site_fract_x
 _atom_site_fract_y
 _atom_site_fract_z
 _atom_site_occupancy
  Cs  Cs0  1  0.84652100  0.16724000  0.77044200  1
  Cs  Cs1  1  0.15347900  0.83276000  0.22955800  1
  H  H0  1  0.81746800  0.77849900  0.44288000  1
  H  H1  1  0.18253200  0.22150100  0.55712000  1
  I  I0  1  0.69367400  0.34913300  0.26131700  1
  I  I1  1  0.30632600  0.65086700  0.73868300  1
  F  F0  1  0.72951000  0.87637100  0.41324600  1
  F  F1  1  0.27049000  0.12362900  0.58675400  1
  F  F2  1  0.94716800  0.64750600  0.46980700  1
  F  F3  1  0.05283200  0.35249400  0.53019300  1
  F  F4  1  0.52531100  0.19055200  0.33549600  1
  F  F5  1  0.47468900  0.80944800  0.66450400  1
  F  F6  1  0.88572600  0.16639500  0.16395700  1
  F  F7  1  0.11427400  0.83360500  0.83604300  1
  F  F8  1  0.77605800  0.46090600  0.11022200  1
  F  F9  1  0.22394200  0.53909400  0.88977800  1
  F  F10  1  0.40925100  0.48566500  0.28232200  1
  F  F11  1  0.59074900  0.51433500  0.71767800  1
  F  F12  1  0.43197000  0.21983200  0.04548700  1
  F  F13  1  0.56803000  0.78016800  0.95451300  1
loop_
_geom_bond_atom_site_label_1
_geom_bond_atom_site_label_2
_geom_bond_distance
_geom_bond_site_symmetry_2
Cs0 F1 2.994392 1_555
Cs0 H1 3.072318 1_655
Cs0 F0 3.086930 1_545
Cs0 F1 3.131307 1_655
Cs0 F5 3.229977 1_545
Cs0 F12 3.254404 1_656
Cs0 F8 3.269738 1_556
Cs0 F7 3.304594 1_645
Cs0 F9 3.316636 1_655
Cs0 F6 3.342959 1_556
Cs0 F11 3.346330 1_555
Cs1 F0 2.994392 1_555
Cs1 H0 3.072318 1_455
Cs1 F1 3.086930 1_565
Cs1 F0 3.131307 1_455
Cs1 F4 3.229977 1_565
Cs1 F13 3.254404 1_454
Cs1 F9 3.269738 1_554
Cs1 F6 3.304594 1_465
Cs1 F8 3.316636 1_455
Cs1 F7 3.342959 1_554
Cs1 F10 3.346330 1_555
F0 H0 1.021741 1_555
F1 H1 1.021741 1_555
F2 H0 1.360994 1_555
F2 I1 2.532793 1_655
F2 I0 2.569092 1_555
F3 H1 1.360994 1_555
F3 I0 2.532793 1_455
F3 I1 2.569092 1_555
F4 I0 1.953117 1_555
F5 I1 1.953117 1_555
F6 I0 1.969578 1_555
F7 I1 1.969578 1_555
F8 I0 1.973216 1_555
F9 I1 1.973216 1_555
F10 I0 1.960711 1_555
F11 I1 1.960711 1_555
F12 I0 1.902683 1_555
F13 I1 1.902683 1_555
