# generated using pymatgen
data_Na3Li3N2
_symmetry_space_group_name_H-M   'P 1'
_cell_length_a   3.79559000
_cell_length_b   3.79559000
_cell_length_c   10.80118300
_cell_angle_alpha   90.00000000
_cell_angle_beta   90.00000000
_cell_angle_gamma   90.00000000
_symmetry_Int_Tables_number   1
_chemical_formula_structural   Na3Li3N2
_chemical_formula_sum   'Na3 Li3 N2'
_cell_volume   155.60728013
_cell_formula_units_Z   1
loop_
 _symmetry_equiv_pos_site_id
 _symmetry_equiv_pos_as_xyz
  1  'x, y, z'
loop_
 _atom_site_type_symbol
 _atom_site_label
 _atom_site_symmetry_multiplicity
 _atom_site_fract_x
 _atom_site_fract_y
 _atom_site_fract_z
 _atom_site_occupancy
  Na  Na0  1  0.00000000  0.00000000  0.77817200  1
  Na  Na1  1  0.00000000  0.00000000  0.22182800  1
  Na  Na2  1  0.00000000  0.00000000  0.50000000  1
  Li  Li0  1  0.50000000  0.50000000  0.50000000  1
  Li  Li1  1  0.50000000  0.50000000  0.00000000  1
  Li  Li2  1  0.00000000  0.00000000  0.00000000  1
  N  N0  1  0.00000000  0.50000000  0.08471000  1
  N  N1  1  0.50000000  0.00000000  0.91529000  1
loop_
_geom_bond_atom_site_label_1
_geom_bond_atom_site_label_2
_geom_bond_distance
_geom_bond_site_symmetry_2
Na0 Na2 3.004587 1_555
Na1 Na2 3.004587 1_555
Li0 Na2 2.683887 1_555
Li0 Na2 2.683887 1_665
Li0 Na2 2.683887 1_565
Li0 Na2 2.683887 1_655
Li1 N1 2.106844 1_564
Li1 N0 2.106844 1_655
Li1 N0 2.106844 1_555
Li1 N1 2.106844 1_554
Li2 N1 2.106844 1_454
Li2 N0 2.106844 1_545
Li2 N0 2.106844 1_555
Li2 N1 2.106844 1_554
N0 Na1 2.407300 1_565
N0 Na1 2.407300 1_555
N1 Na0 2.407300 1_655
N1 Na0 2.407300 1_555
