# generated using pymatgen
data_Os(CO)4
_symmetry_space_group_name_H-M   'P 1'
_cell_length_a   15.14053000
_cell_length_b   8.17256100
_cell_length_c   15.47816605
_cell_angle_alpha   69.67994322
_cell_angle_beta   90.00000000
_cell_angle_gamma   90.00000000
_symmetry_Int_Tables_number   1
_chemical_formula_structural   Os(CO)4
_chemical_formula_sum   'Os12 C48 O48'
_cell_volume   1796.03127708
_cell_formula_units_Z   12
loop_
 _symmetry_equiv_pos_site_id
 _symmetry_equiv_pos_as_xyz
  1  'x, y, z'
loop_
 _atom_site_type_symbol
 _atom_site_label
 _atom_site_symmetry_multiplicity
 _atom_site_fract_x
 _atom_site_fract_y
 _atom_site_fract_z
 _atom_site_occupancy
  Os  Os0  1  0.58082700  0.64293800  0.15985600  1
  Os  Os1  1  0.33229700  0.23272200  0.70334700  1
  Os  Os2  1  0.66770300  0.76727800  0.29665300  1
  Os  Os3  1  0.16770300  0.23272200  0.20334700  1
  Os  Os4  1  0.97325300  0.22220400  0.22242800  1
  Os  Os5  1  0.47325300  0.77779600  0.27757200  1
  Os  Os6  1  0.83229700  0.76727800  0.79665300  1
  Os  Os7  1  0.52674700  0.22220400  0.72242800  1
  Os  Os8  1  0.08082700  0.35706200  0.34014400  1
  Os  Os9  1  0.02674700  0.77779600  0.77757200  1
  Os  Os10  1  0.91917300  0.64293800  0.65985600  1
  Os  Os11  1  0.41917300  0.35706200  0.84014400  1
  C  C0  1  0.90630200  0.87820600  0.56937100  1
  C  C1  1  0.96750600  0.45642800  0.12837600  1
  C  C2  1  0.51376800  0.98892200  0.81371100  1
  C  C3  1  0.68321900  0.86413900  0.39184800  1
  C  C4  1  0.31678100  0.13586100  0.60815200  1
  C  C5  1  0.84100300  0.53069300  0.88784500  1
  C  C6  1  0.01376800  0.01107800  0.68628900  1
  C  C7  1  0.18164000  0.42982300  0.39144900  1
  C  C8  1  0.94835100  0.12197200  0.13023400  1
  C  C9  1  0.01788100  0.59792800  0.59442700  1
  C  C10  1  0.34100300  0.46930700  0.61215500  1
  C  C11  1  0.92981400  0.40945000  0.75364000  1
  C  C12  1  0.85745100  0.24628200  0.26530800  1
  C  C13  1  0.67704100  0.99699000  0.20063400  1
  C  C14  1  0.65899700  0.53069300  0.38784500  1
  C  C15  1  0.53249400  0.45642800  0.62837600  1
  C  C16  1  0.03249400  0.54357200  0.87162400  1
  C  C17  1  0.17704100  0.00301000  0.29936600  1
  C  C18  1  0.21516800  0.28047400  0.73216400  1
  C  C19  1  0.64254900  0.24628200  0.76530800  1
  C  C20  1  0.15899700  0.46930700  0.11215500  1
  C  C21  1  0.05164900  0.87802800  0.86976600  1
  C  C22  1  0.09369800  0.12179400  0.43062900  1
  C  C23  1  0.82295900  0.99699000  0.70063400  1
  C  C24  1  0.28483200  0.28047400  0.23216400  1
  C  C25  1  0.14254900  0.75371800  0.73469200  1
  C  C26  1  0.46750600  0.54357200  0.37162400  1
  C  C27  1  0.78483200  0.71952600  0.26783600  1
  C  C28  1  0.81836000  0.57017700  0.60855100  1
  C  C29  1  0.31836000  0.42982300  0.89144900  1
  C  C30  1  0.68164000  0.57017700  0.10855100  1
  C  C31  1  0.71516800  0.71952600  0.76783600  1
  C  C32  1  0.59369800  0.87820600  0.06937100  1
  C  C33  1  0.32295900  0.00301000  0.79936600  1
  C  C34  1  0.81678100  0.86413900  0.89184800  1
  C  C35  1  0.48623200  0.01107800  0.18628900  1
  C  C36  1  0.44835100  0.87802800  0.36976600  1
  C  C37  1  0.98623200  0.98892200  0.31371100  1
  C  C38  1  0.98211900  0.40207200  0.40557300  1
  C  C39  1  0.48211900  0.59792800  0.09442700  1
  C  C40  1  0.57018600  0.40945000  0.25364000  1
  C  C41  1  0.18321900  0.13586100  0.10815200  1
  C  C42  1  0.35745100  0.75371800  0.23469200  1
  C  C43  1  0.55164900  0.12197200  0.63023400  1
  C  C44  1  0.42981400  0.59055000  0.74636000  1
  C  C45  1  0.40630200  0.12179400  0.93062900  1
  C  C46  1  0.07018600  0.59055000  0.24636000  1
  C  C47  1  0.51788100  0.40207200  0.90557300  1
  O  O0  1  0.64424300  0.69031600  0.74825400  1
  O  O1  1  0.71435800  0.26546600  0.78691700  1
  O  O2  1  0.07997100  0.57442700  0.55617400  1
  O  O3  1  0.92002900  0.42557300  0.44382600  1
  O  O4  1  0.93455800  0.26723000  0.80445900  1
  O  O5  1  0.43455800  0.73277000  0.69554100  1
  O  O6  1  0.74298800  0.52788400  0.07632000  1
  O  O7  1  0.80967800  0.13234900  0.64480200  1
  O  O8  1  0.39764000  0.98770200  0.98883200  1
  O  O9  1  0.14424300  0.30968400  0.75174600  1
  O  O10  1  0.04105100  0.40943900  0.92962300  1
  O  O11  1  0.30967800  0.86765100  0.85519800  1
  O  O12  1  0.60236000  0.01229800  0.01116800  1
  O  O13  1  0.85575700  0.69031600  0.24825400  1
  O  O14  1  0.78564200  0.26546600  0.28691700  1
  O  O15  1  0.42002900  0.57442700  0.05617400  1
  O  O16  1  0.69466500  0.92153900  0.44987400  1
  O  O17  1  0.01317600  0.15328200  0.63461500  1
  O  O18  1  0.56544200  0.26723000  0.30445900  1
  O  O19  1  0.51317600  0.84671800  0.86538500  1
  O  O20  1  0.89764000  0.01229800  0.51116800  1
  O  O21  1  0.69032200  0.13234900  0.14480200  1
  O  O22  1  0.35575700  0.30968400  0.25174600  1
  O  O23  1  0.25701200  0.47211600  0.92368000  1
  O  O24  1  0.57997100  0.42557300  0.94382600  1
  O  O25  1  0.28564200  0.73453400  0.21308300  1
  O  O26  1  0.19466500  0.07846100  0.05012600  1
  O  O27  1  0.54105100  0.59056100  0.57037700  1
  O  O28  1  0.93469200  0.05540800  0.07677000  1
  O  O29  1  0.06544200  0.73277000  0.19554100  1
  O  O30  1  0.19032200  0.86765100  0.35519800  1
  O  O31  1  0.56530800  0.05540800  0.57677000  1
  O  O32  1  0.34156900  0.60801100  0.55738300  1
  O  O33  1  0.06530800  0.94459200  0.92323000  1
  O  O34  1  0.15843100  0.60801100  0.05738300  1
  O  O35  1  0.75701200  0.52788400  0.57632000  1
  O  O36  1  0.21435800  0.73453400  0.71308300  1
  O  O37  1  0.80533500  0.92153900  0.94987400  1
  O  O38  1  0.30533500  0.07846100  0.55012600  1
  O  O39  1  0.45894900  0.40943900  0.42962300  1
  O  O40  1  0.43469200  0.94459200  0.42323000  1
  O  O41  1  0.95894900  0.59056100  0.07037700  1
  O  O42  1  0.65843100  0.39198900  0.44261700  1
  O  O43  1  0.24298800  0.47211600  0.42368000  1
  O  O44  1  0.10236000  0.98770200  0.48883200  1
  O  O45  1  0.84156900  0.39198900  0.94261700  1
  O  O46  1  0.98682400  0.84671800  0.36538500  1
  O  O47  1  0.48682400  0.15328200  0.13461500  1
loop_
_geom_bond_atom_site_label_1
_geom_bond_atom_site_label_2
_geom_bond_distance
_geom_bond_site_symmetry_2
C0 O20 1.159331 1_565
C0 Os10 1.956055 1_555
C1 O41 1.157965 1_555
C1 Os4 1.963569 1_555
C2 O19 1.159677 1_555
C2 Os7 1.949057 1_565
C3 O16 1.161619 1_555
C3 Os2 1.913882 1_555
C4 O38 1.161619 1_555
C4 Os1 1.913882 1_555
C5 O45 1.155992 1_555
C5 Os6 1.962820 1_555
C6 O17 1.159677 1_555
C6 Os9 1.949057 1_545
C7 O43 1.162262 1_555
C7 Os8 1.908390 1_555
C8 O28 1.155922 1_555
C8 Os4 1.913459 1_555
C9 O2 1.161971 1_555
C9 Os10 1.911321 1_455
C10 O32 1.155992 1_555
C10 Os1 1.962820 1_555
C11 O4 1.157518 1_555
C11 Os10 1.962273 1_555
C12 O14 1.164015 1_555
C12 Os4 1.908928 1_555
C13 O21 1.160615 1_565
C13 Os2 1.953296 1_555
C14 O42 1.155992 1_555
C14 Os2 1.962820 1_555
C15 O27 1.157965 1_555
C15 Os7 1.963569 1_555
C16 O10 1.157965 1_555
C16 Os9 1.963569 1_555
C17 O30 1.160615 1_545
C17 Os3 1.953296 1_555
C18 O9 1.162860 1_555
C18 Os1 1.901860 1_555
C19 O1 1.164015 1_555
C19 Os7 1.908928 1_555
C20 O34 1.155992 1_555
C20 Os3 1.962820 1_555
C21 O33 1.155922 1_555
C21 Os9 1.913459 1_555
C22 O44 1.159331 1_545
C22 Os8 1.956055 1_555
C23 O7 1.160615 1_565
C23 Os6 1.953296 1_555
C24 O22 1.162860 1_555
C24 Os3 1.901860 1_555
C25 O36 1.164015 1_555
C25 Os9 1.908928 1_555
C26 O39 1.157965 1_555
C26 Os5 1.963569 1_555
C27 O13 1.162860 1_555
C27 Os2 1.901860 1_555
C28 O35 1.162262 1_555
C28 Os10 1.908390 1_555
C29 O23 1.162262 1_555
C29 Os11 1.908390 1_555
C30 O6 1.162262 1_555
C30 Os0 1.908390 1_555
C31 O0 1.162860 1_555
C31 Os6 1.901860 1_555
C32 O12 1.159331 1_565
C32 Os0 1.956055 1_555
C33 O11 1.160615 1_545
C33 Os1 1.953296 1_555
C34 O37 1.161619 1_555
C34 Os6 1.913882 1_555
C35 O47 1.159677 1_555
C35 Os5 1.949057 1_545
C36 O40 1.155922 1_555
C36 Os5 1.913459 1_555
C37 O46 1.159677 1_555
C37 Os4 1.949057 1_565
C38 O3 1.161971 1_555
C38 Os8 1.911321 1_655
C39 O15 1.161971 1_555
C39 Os0 1.911321 1_555
C40 O18 1.157518 1_555
C40 Os0 1.962273 1_555
C41 O26 1.161619 1_555
C41 Os3 1.913882 1_555
C42 O25 1.164015 1_555
C42 Os5 1.908928 1_555
C43 O31 1.155922 1_555
C43 Os7 1.913459 1_555
C44 O5 1.157518 1_555
C44 Os11 1.962273 1_555
C45 O8 1.159331 1_545
C45 Os11 1.956055 1_555
C46 O29 1.157518 1_555
C46 Os8 1.962273 1_555
C47 O24 1.161971 1_555
C47 Os11 1.911321 1_555
