# generated using pymatgen
data_Co8As3O16
_symmetry_space_group_name_H-M   'P 1'
_cell_length_a   6.07605225
_cell_length_b   6.07605225
_cell_length_c   9.91292162
_cell_angle_alpha   72.67896420
_cell_angle_beta   72.67896420
_cell_angle_gamma   60.94006585
_symmetry_Int_Tables_number   1
_chemical_formula_structural   Co8As3O16
_chemical_formula_sum   'Co8 As3 O16'
_cell_volume   300.20655565
_cell_formula_units_Z   1
loop_
 _symmetry_equiv_pos_site_id
 _symmetry_equiv_pos_as_xyz
  1  'x, y, z'
loop_
 _atom_site_type_symbol
 _atom_site_label
 _atom_site_symmetry_multiplicity
 _atom_site_fract_x
 _atom_site_fract_y
 _atom_site_fract_z
 _atom_site_occupancy
  Co  Co0  1  0.00000000  0.50000000  0.00000000  1
  Co  Co1  1  0.73509000  0.25439400  0.25525100  1
  Co  Co2  1  0.25439400  0.73509000  0.25525100  1
  Co  Co3  1  0.74782000  0.74782000  0.26712700  1
  Co  Co4  1  0.25218000  0.25218000  0.73287300  1
  Co  Co5  1  0.74560600  0.26491000  0.74474900  1
  Co  Co6  1  0.26491000  0.74560600  0.74474900  1
  Co  Co7  1  0.50000000  0.00000000  0.00000000  1
  As  As0  1  0.00000000  0.00000000  0.00000000  1
  As  As1  1  0.81081300  0.81081300  0.58109500  1
  As  As2  1  0.18918700  0.18918700  0.41890500  1
  O  O0  1  0.87456300  0.87456300  0.39117500  1
  O  O1  1  0.32552200  0.90363500  0.88376400  1
  O  O2  1  0.90363500  0.32552200  0.88376400  1
  O  O3  1  0.89203600  0.89203600  0.88311900  1
  O  O4  1  0.63292500  0.63292500  0.13531300  1
  O  O5  1  0.36506900  0.36506900  0.36846200  1
  O  O6  1  0.36565500  0.89638700  0.36540600  1
  O  O7  1  0.89638700  0.36565500  0.36540600  1
  O  O8  1  0.10361300  0.63434500  0.63459400  1
  O  O9  1  0.63434500  0.10361300  0.63459400  1
  O  O10  1  0.63493100  0.63493100  0.63153800  1
  O  O11  1  0.36707500  0.36707500  0.86468700  1
  O  O12  1  0.10796400  0.10796400  0.11688100  1
  O  O13  1  0.09636500  0.67447800  0.11623600  1
  O  O14  1  0.67447800  0.09636500  0.11623600  1
  O  O15  1  0.12543700  0.12543700  0.60882500  1
loop_
_geom_bond_atom_site_label_1
_geom_bond_atom_site_label_2
_geom_bond_distance
_geom_bond_site_symmetry_2
Co0 O13 2.127551 1_555
Co0 O2 2.127551 1_454
Co0 O4 2.130679 1_455
Co0 O11 2.130679 1_554
Co0 O3 2.176703 1_454
Co0 O12 2.176703 1_555
Co1 O5 2.060249 1_555
Co1 O7 2.080937 1_555
Co1 O14 2.095286 1_555
Co1 O4 2.124387 1_555
Co1 O12 2.173483 1_655
Co1 O0 2.188210 1_545
Co2 O5 2.060249 1_555
Co2 O6 2.080937 1_555
Co2 O13 2.095286 1_555
Co2 O4 2.124387 1_555
Co2 O12 2.173483 1_565
Co2 O0 2.188210 1_455
Co3 O4 2.059574 1_555
Co3 O7 2.072748 1_555
Co3 O6 2.072748 1_555
Co3 O0 2.098112 1_555
Co3 O14 2.124803 1_565
Co3 O13 2.124803 1_655
Co4 O11 2.059574 1_555
Co4 O9 2.072748 1_555
Co4 O8 2.072748 1_555
Co4 O15 2.098112 1_555
Co4 O1 2.124803 1_545
Co4 O2 2.124803 1_455
Co5 O10 2.060249 1_555
Co5 O9 2.080937 1_555
Co5 O2 2.095286 1_555
Co5 O11 2.124387 1_555
Co5 O3 2.173483 1_545
Co5 O15 2.188210 1_655
Co6 O10 2.060249 1_555
Co6 O8 2.080937 1_555
Co6 O1 2.095286 1_555
Co6 O11 2.124387 1_555
Co6 O3 2.173483 1_455
Co6 O15 2.188210 1_565
Co7 O14 2.127551 1_555
Co7 O1 2.127551 1_544
Co7 O11 2.130679 1_554
Co7 O4 2.130679 1_545
Co7 O3 2.176703 1_544
Co7 O12 2.176703 1_555
As0 O13 1.871416 1_545
As0 O14 1.871416 1_455
As0 O2 1.871416 1_454
As0 O1 1.871416 1_544
As0 O12 1.877840 1_555
As0 O3 1.877840 1_444
As1 O8 1.722241 1_655
As1 O9 1.722241 1_565
As1 O10 1.734128 1_555
As1 O0 1.766858 1_555
As2 O6 1.722241 1_545
As2 O7 1.722241 1_455
As2 O5 1.734128 1_555
As2 O15 1.766858 1_555
