# generated using pymatgen
data_SrZr12B2I5Cl23
_symmetry_space_group_name_H-M   'P 1'
_cell_length_a   13.62075400
_cell_length_b   13.53942800
_cell_length_c   13.55608430
_cell_angle_alpha   89.68543995
_cell_angle_beta   90.00000000
_cell_angle_gamma   90.00000000
_symmetry_Int_Tables_number   1
_chemical_formula_structural   SrZr12B2I5Cl23
_chemical_formula_sum   'Sr2 Zr24 B4 I10 Cl46'
_cell_volume   2499.93767834
_cell_formula_units_Z   2
loop_
 _symmetry_equiv_pos_site_id
 _symmetry_equiv_pos_as_xyz
  1  'x, y, z'
loop_
 _atom_site_type_symbol
 _atom_site_label
 _atom_site_symmetry_multiplicity
 _atom_site_fract_x
 _atom_site_fract_y
 _atom_site_fract_z
 _atom_site_occupancy
  Sr  Sr0  1  0.52804500  0.22628400  0.28134900  1
  Sr  Sr1  1  0.47195500  0.22628400  0.78134900  1
  Zr  Zr0  1  0.60064500  0.94860400  0.43884200  1
  Zr  Zr1  1  0.39935500  0.94860400  0.93884200  1
  Zr  Zr2  1  0.70967600  0.93235200  0.65179500  1
  Zr  Zr3  1  0.29032400  0.93235200  0.15179500  1
  Zr  Zr4  1  0.81603600  0.84475500  0.45458500  1
  Zr  Zr5  1  0.18396400  0.84475500  0.95458500  1
  Zr  Zr6  1  0.31053700  0.65448900  0.45469500  1
  Zr  Zr7  1  0.68946300  0.65448900  0.95469500  1
  Zr  Zr8  1  0.20189100  0.56401600  0.65299400  1
  Zr  Zr9  1  0.79810900  0.56401600  0.15299400  1
  Zr  Zr10  1  0.09542100  0.54837400  0.43738300  1
  Zr  Zr11  1  0.90457900  0.54837400  0.93738300  1
  Zr  Zr12  1  0.60220500  0.46093900  0.06437300  1
  Zr  Zr13  1  0.39779500  0.46093900  0.56437300  1
  Zr  Zr14  1  0.70975100  0.44133800  0.84920000  1
  Zr  Zr15  1  0.29024900  0.44133800  0.34920000  1
  Zr  Zr16  1  0.81717400  0.35021800  0.04437300  1
  Zr  Zr17  1  0.18282600  0.35021800  0.54437300  1
  Zr  Zr18  1  0.69273100  0.14885700  0.54393000  1
  Zr  Zr19  1  0.30726900  0.14885700  0.04393000  1
  Zr  Zr20  1  0.19571100  0.06092800  0.84759600  1
  Zr  Zr21  1  0.80428900  0.06092800  0.34759600  1
  Zr  Zr22  1  0.09607800  0.04343300  0.06399000  1
  Zr  Zr23  1  0.90392200  0.04343300  0.56399000  1
  B  B0  1  0.24644600  0.99624300  0.99873000  1
  B  B1  1  0.75355400  0.99624300  0.49873000  1
  B  B2  1  0.24574400  0.50321800  0.50099600  1
  B  B3  1  0.75425600  0.50321800  0.00099600  1
  I  I0  1  0.38129900  0.87049500  0.37236500  1
  I  I1  1  0.61870100  0.87049500  0.87236500  1
  I  I2  1  0.87989800  0.62925000  0.37047500  1
  I  I3  1  0.12010200  0.62925000  0.87047500  1
  I  I4  1  0.61632400  0.36517000  0.63432600  1
  I  I5  1  0.38367600  0.36517000  0.13432600  1
  I  I6  1  0.88386800  0.13069600  0.13194100  1
  I  I7  1  0.11613200  0.13069600  0.63194100  1
  I  I8  1  0.62982100  0.01271800  0.23221500  1
  I  I9  1  0.37017900  0.01271800  0.73221500  1
  Cl  Cl0  1  0.13186700  0.97940600  0.23815300  1
  Cl  Cl1  1  0.86813300  0.97940600  0.73815300  1
  Cl  Cl2  1  0.87416800  0.90051700  0.28523100  1
  Cl  Cl3  1  0.12583200  0.90051700  0.78523100  1
  Cl  Cl4  1  0.54074400  0.87445700  0.59822000  1
  Cl  Cl5  1  0.45925600  0.87445700  0.09822000  1
  Cl  Cl6  1  0.01213100  0.88126400  0.02131200  1
  Cl  Cl7  1  0.98786900  0.88126400  0.52131200  1
  Cl  Cl8  1  0.34575400  0.78086800  0.88272500  1
  Cl  Cl9  1  0.65424600  0.78086800  0.38272500  1
  Cl  Cl10  1  0.22732300  0.76025900  0.11767400  1
  Cl  Cl11  1  0.77267700  0.76025900  0.61767400  1
  Cl  Cl12  1  0.72964400  0.73699000  0.11881700  1
  Cl  Cl13  1  0.27035600  0.73699000  0.61881700  1
  Cl  Cl14  1  0.15144800  0.71802300  0.37970400  1
  Cl  Cl15  1  0.84855200  0.71802300  0.87970400  1
  Cl  Cl16  1  0.48462100  0.61896000  0.51963200  1
  Cl  Cl17  1  0.51537900  0.61896000  0.01963200  1
  Cl  Cl18  1  0.96715500  0.61983800  0.09884800  1
  Cl  Cl19  1  0.03284500  0.61983800  0.59884800  1
  Cl  Cl20  1  0.63085400  0.59833300  0.78464200  1
  Cl  Cl21  1  0.36914600  0.59833300  0.28464200  1
  Cl  Cl22  1  0.63452600  0.51825000  0.23857500  1
  Cl  Cl23  1  0.36547400  0.51825000  0.73857500  1
  Cl  Cl24  1  0.13046800  0.48090200  0.26406700  1
  Cl  Cl25  1  0.86953200  0.48090200  0.76406700  1
  Cl  Cl26  1  0.13165600  0.40034900  0.71637700  1
  Cl  Cl27  1  0.86834400  0.40034900  0.21637700  1
  Cl  Cl28  1  0.53191900  0.38807100  0.90272400  1
  Cl  Cl29  1  0.46808100  0.38807100  0.40272400  1
  Cl  Cl30  1  0.98780100  0.38341500  0.97857300  1
  Cl  Cl31  1  0.01219900  0.38341500  0.47857300  1
  Cl  Cl32  1  0.65050800  0.28161900  0.11386500  1
  Cl  Cl33  1  0.34949200  0.28161900  0.61386500  1
  Cl  Cl34  1  0.23325800  0.26404700  0.38355100  1
  Cl  Cl35  1  0.76674200  0.26404700  0.88355100  1
  Cl  Cl36  1  0.72869700  0.23812400  0.37861300  1
  Cl  Cl37  1  0.27130300  0.23812400  0.87861300  1
  Cl  Cl38  1  0.84807000  0.21547200  0.61760700  1
  Cl  Cl39  1  0.15193000  0.21547200  0.11760700  1
  Cl  Cl40  1  0.48588400  0.11809400  0.97786400  1
  Cl  Cl41  1  0.51411600  0.11809400  0.47786400  1
  Cl  Cl42  1  0.03154400  0.12088100  0.90432900  1
  Cl  Cl43  1  0.96845600  0.12088100  0.40432900  1
  Cl  Cl44  1  0.36361800  0.09818600  0.21814400  1
  Cl  Cl45  1  0.63638200  0.09818600  0.71814400  1
loop_
_geom_bond_atom_site_label_1
_geom_bond_atom_site_label_2
_geom_bond_distance
_geom_bond_site_symmetry_2
B0 Zr5 2.302768 1_555
B0 Zr19 2.311992 1_566
B0 Zr3 2.321907 1_556
B0 Zr22 2.322045 1_566
B0 Zr1 2.327803 1_555
B0 Zr20 2.328603 1_565
B1 Zr4 2.302768 1_555
B1 Zr18 2.311992 1_565
B1 Zr2 2.321907 1_555
B1 Zr23 2.322045 1_565
B1 Zr0 2.327803 1_555
B1 Zr21 2.328603 1_565
B2 Zr8 2.301883 1_555
B2 Zr10 2.303030 1_555
B2 Zr15 2.307101 1_555
B2 Zr13 2.312932 1_555
B2 Zr6 2.313765 1_555
B2 Zr17 2.314752 1_555
B3 Zr9 2.301883 1_555
B3 Zr11 2.303030 1_554
B3 Zr14 2.307101 1_554
B3 Zr12 2.312932 1_555
B3 Zr7 2.313765 1_554
B3 Zr16 2.314752 1_555
I0 Zr6 3.269866 1_555
I0 Zr0 3.296526 1_555
I0 Zr3 3.339147 1_555
I1 Zr7 3.269866 1_555
I1 Zr1 3.296526 1_555
I1 Zr2 3.339147 1_555
I2 Zr4 3.256819 1_555
I2 Zr10 3.260136 1_655
I2 Zr9 3.277434 1_555
I3 Zr5 3.256819 1_555
I3 Zr11 3.260136 1_455
I3 Zr8 3.277434 1_555
I4 Zr14 3.346726 1_555
I4 Zr18 3.346902 1_555
I4 Sr1 3.366593 1_555
I4 Zr13 3.380355 1_555
I5 Zr15 3.346726 1_555
I5 Zr19 3.346902 1_555
I5 Sr0 3.366593 1_555
I5 Zr12 3.380355 1_555
I6 Zr21 3.253208 1_555
I6 Zr22 3.257476 1_655
I6 Zr16 3.321089 1_555
I7 Zr20 3.253208 1_555
I7 Zr23 3.257476 1_455
I7 Zr17 3.321089 1_555
I8 Zr21 2.920777 1_555
I8 Zr0 2.954770 1_545
I8 Sr0 3.278361 1_555
I9 Zr20 2.920777 1_555
I9 Zr1 2.954770 1_545
I9 Sr1 3.278361 1_555
Cl0 Zr3 2.538272 1_555
Cl0 Zr22 2.557504 1_565
Cl1 Zr2 2.538272 1_555
Cl1 Zr23 2.557504 1_565
Cl2 Zr21 2.521482 1_565
Cl2 Zr4 2.539392 1_555
Cl3 Zr20 2.521482 1_565
Cl3 Zr5 2.539392 1_555
Cl4 Zr0 2.513492 1_555
Cl4 Zr2 2.538242 1_555
Cl5 Zr1 2.513492 1_554
Cl5 Zr3 2.538242 1_555
Cl6 Zr22 2.545008 1_565
Cl6 Zr5 2.558397 1_554
Cl7 Zr23 2.545008 1_565
Cl7 Zr4 2.558397 1_555
Cl8 Zr1 2.507662 1_555
Cl8 Zr5 2.561780 1_555
Cl9 Zr0 2.507662 1_555
Cl9 Zr4 2.561780 1_555
Cl10 Zr3 2.528091 1_555
Cl10 Zr5 2.552972 1_554
Cl11 Zr2 2.528091 1_555
Cl11 Zr4 2.552972 1_555
Cl12 Zr7 2.554312 1_554
Cl12 Zr9 2.560703 1_555
Cl13 Zr6 2.554312 1_555
Cl13 Zr8 2.560703 1_555
Cl14 Zr10 2.539685 1_555
Cl14 Zr6 2.541519 1_555
Cl15 Zr11 2.539685 1_555
Cl15 Zr7 2.541519 1_555
Cl16 Zr13 2.515901 1_555
Cl16 Zr6 2.573722 1_555
Cl17 Zr12 2.515901 1_555
Cl17 Zr7 2.573722 1_554
Cl18 Zr9 2.530923 1_555
Cl18 Zr11 2.544981 1_554
Cl19 Zr8 2.530923 1_555
Cl19 Zr10 2.544981 1_555
Cl20 Zr14 2.533492 1_555
Cl20 Zr7 2.559063 1_555
Cl21 Zr15 2.533492 1_555
Cl21 Zr6 2.559063 1_555
Cl22 Zr12 2.528380 1_555
Cl22 Zr9 2.585834 1_555
Cl23 Zr13 2.528380 1_555
Cl23 Zr8 2.585834 1_555
Cl24 Zr15 2.519619 1_555
Cl24 Zr10 2.570228 1_555
Cl25 Zr14 2.519619 1_555
Cl25 Zr11 2.570228 1_555
Cl26 Zr17 2.529955 1_555
Cl26 Zr8 2.557932 1_555
Cl27 Zr16 2.529955 1_555
Cl27 Zr9 2.557932 1_555
Cl28 Zr12 2.591434 1_556
Cl28 Zr14 2.628295 1_555
Cl28 Sr1 2.865695 1_555
Cl29 Zr13 2.591434 1_555
Cl29 Zr15 2.628295 1_555
Cl29 Sr0 2.865695 1_555
Cl30 Zr16 2.528747 1_556
Cl30 Zr11 2.563458 1_555
Cl31 Zr17 2.528747 1_555
Cl31 Zr10 2.563458 1_555
Cl32 Zr12 2.599954 1_555
Cl32 Zr16 2.625626 1_555
Cl32 Sr0 2.912013 1_555
Cl33 Zr13 2.599954 1_555
Cl33 Zr17 2.625626 1_555
Cl33 Sr1 2.912013 1_555
Cl34 Zr15 2.563037 1_555
Cl34 Zr17 2.571751 1_555
Cl35 Zr14 2.563037 1_555
Cl35 Zr16 2.571751 1_556
Cl36 Zr18 2.587147 1_555
Cl36 Zr21 2.646474 1_555
Cl36 Sr0 3.039074 1_555
Cl37 Zr19 2.587147 1_556
Cl37 Zr20 2.646474 1_555
Cl37 Sr1 3.039074 1_555
Cl38 Zr18 2.509515 1_555
Cl38 Zr23 2.559551 1_555
Cl39 Zr19 2.509515 1_555
Cl39 Zr22 2.559551 1_555
Cl40 Zr19 2.626506 1_556
Cl40 Zr1 2.635968 1_545
Cl40 Sr1 3.039018 1_555
Cl41 Zr18 2.626506 1_555
Cl41 Zr0 2.635968 1_545
Cl41 Sr0 3.039018 1_555
Cl42 Zr20 2.501457 1_555
Cl42 Zr22 2.555743 1_556
Cl43 Zr21 2.501457 1_555
Cl43 Zr23 2.555743 1_555
Cl44 Zr19 2.572819 1_555
Cl44 Zr3 2.620908 1_545
Cl44 Sr0 2.962160 1_555
Cl45 Zr18 2.572819 1_555
Cl45 Zr2 2.620908 1_545
Cl45 Sr1 2.962160 1_555
