# generated using pymatgen
data_Ce5Sn3
_symmetry_space_group_name_H-M   'P 1'
_cell_length_a   9.47017042
_cell_length_b   9.47017042
_cell_length_c   9.47017042
_cell_angle_alpha   96.28372565
_cell_angle_beta   96.28372565
_cell_angle_gamma   141.36103744
_symmetry_Int_Tables_number   1
_chemical_formula_structural   Ce5Sn3
_chemical_formula_sum   'Ce10 Sn6'
_cell_volume   500.46364374
_cell_formula_units_Z   2
loop_
 _symmetry_equiv_pos_site_id
 _symmetry_equiv_pos_as_xyz
  1  'x, y, z'
loop_
 _atom_site_type_symbol
 _atom_site_label
 _atom_site_symmetry_multiplicity
 _atom_site_fract_x
 _atom_site_fract_y
 _atom_site_fract_z
 _atom_site_occupancy
  Ce  Ce0  1  0.41632428  0.28060303  0.69692731  1
  Ce  Ce1  1  0.08367572  0.78060303  0.86427875  1
  Ce  Ce2  1  0.78060303  0.91632428  0.69692731  1
  Ce  Ce3  1  0.21939697  0.08367572  0.30307269  1
  Ce  Ce4  1  0.91632428  0.21939697  0.13572125  1
  Ce  Ce5  1  0.25000000  0.75000000  0.50000000  1
  Ce  Ce6  1  0.28060303  0.58367572  0.86427875  1
  Ce  Ce7  1  0.71939697  0.41632428  0.13572125  1
  Ce  Ce8  1  0.58367572  0.71939697  0.30307269  1
  Ce  Ce9  1  0.75000000  0.25000000  0.50000000  1
  Sn  Sn0  1  0.65984819  0.15984819  0.81969639  1
  Sn  Sn1  1  0.84015181  0.65984819  0.50000000  1
  Sn  Sn2  1  0.75000000  0.75000000  0.00000000  1
  Sn  Sn3  1  0.15984819  0.34015181  0.50000000  1
  Sn  Sn4  1  0.34015181  0.84015181  0.18030361  1
  Sn  Sn5  1  0.25000000  0.25000000  0.00000000  1
loop_
_geom_bond_atom_site_label_1
_geom_bond_atom_site_label_2
_geom_bond_distance
_geom_bond_site_symmetry_2
Ce0 Sn3 3.327742 1_555
Ce0 Sn5 3.355792 1_556
Ce0 Sn2 3.355792 1_556
Ce0 Sn0 3.435433 1_555
Ce0 Ce3 3.519836 1_555
Ce0 Sn1 3.615544 1_445
Ce0 Sn1 3.615544 1_555
Ce0 Ce1 3.780179 1_655
Ce0 Ce1 3.780179 1_545
Ce0 Ce2 3.962432 1_445
Ce0 Ce2 3.962432 1_555
Ce0 Ce5 4.018675 1_545
Ce0 Ce9 4.018675 1_555
Ce0 Ce6 4.196978 1_555
Ce0 Ce7 4.196978 1_556
Ce1 Sn4 3.327742 1_556
Ce1 Sn2 3.355792 1_456
Ce1 Sn5 3.355792 1_566
Ce1 Sn1 3.435433 1_455
Ce1 Ce6 3.519836 1_555
Ce1 Sn0 3.615544 1_565
Ce1 Sn0 3.615544 1_455
Ce1 Ce7 3.962432 1_566
Ce1 Ce7 3.962432 1_456
Ce1 Ce9 4.018675 1_455
Ce1 Ce5 4.018675 1_555
Ce1 Ce3 4.196978 1_566
Ce1 Ce2 4.196978 1_455
Ce2 Sn1 3.327742 1_555
Ce2 Sn2 3.355792 1_556
Ce2 Sn5 3.355792 1_666
Ce2 Sn0 3.435433 1_565
Ce2 Ce8 3.519836 1_555
Ce2 Sn3 3.615544 1_555
Ce2 Sn3 3.615544 1_665
Ce2 Ce6 3.780179 1_555
Ce2 Ce6 3.780179 1_665
Ce2 Ce9 4.018675 1_565
Ce2 Ce5 4.018675 1_555
Ce2 Ce4 4.196978 1_566
Ce3 Sn3 3.327742 1_555
Ce3 Sn5 3.355792 1_555
Ce3 Sn2 3.355792 1_445
Ce3 Sn4 3.435433 1_545
Ce3 Sn1 3.615544 1_445
Ce3 Sn1 3.615544 1_555
Ce3 Ce7 3.780179 1_445
Ce3 Ce7 3.780179 1_555
Ce3 Ce8 3.962432 1_555
Ce3 Ce8 3.962432 1_445
Ce3 Ce9 4.018675 1_555
Ce3 Ce5 4.018675 1_545
Ce3 Ce4 4.196978 1_455
Ce4 Sn0 3.327742 1_554
Ce4 Sn5 3.355792 1_655
Ce4 Sn2 3.355792 1_545
Ce4 Sn3 3.435433 1_655
Ce4 Ce7 3.519836 1_555
Ce4 Sn4 3.615544 1_545
Ce4 Sn4 3.615544 1_655
Ce4 Ce8 3.780179 1_655
Ce4 Ce8 3.780179 1_545
Ce4 Ce6 3.962432 1_654
Ce4 Ce6 3.962432 1_544
Ce4 Ce5 4.018675 1_655
Ce4 Ce9 4.018675 1_555
Ce5 Ce9 3.133066 1_455
Ce5 Ce9 3.133066 1_565
Ce5 Sn3 3.258374 1_555
Ce5 Sn1 3.258374 1_455
Ce5 Sn0 3.258374 1_565
Ce5 Sn4 3.258374 1_555
Ce5 Ce8 4.018675 1_555
Ce5 Ce7 4.018675 1_455
Ce5 Ce6 4.018675 1_555
Ce6 Sn4 3.327742 1_556
Ce6 Sn5 3.355792 1_556
Ce6 Sn2 3.355792 1_556
Ce6 Sn3 3.435433 1_555
Ce6 Sn0 3.615544 1_565
Ce6 Sn0 3.615544 1_455
Ce6 Ce9 4.018675 1_455
Ce6 Ce8 4.196978 1_556
Ce7 Sn0 3.327742 1_554
Ce7 Sn5 3.355792 1_555
Ce7 Sn2 3.355792 1_555
Ce7 Sn1 3.435433 1_555
Ce7 Sn4 3.615544 1_545
Ce7 Sn4 3.615544 1_655
Ce7 Ce9 4.018675 1_555
Ce7 Ce8 4.196978 1_555
Ce8 Sn1 3.327742 1_555
Ce8 Sn5 3.355792 1_555
Ce8 Sn2 3.355792 1_555
Ce8 Sn4 3.435433 1_555
Ce8 Sn3 3.615544 1_555
Ce8 Sn3 3.615544 1_665
Ce8 Ce9 4.018675 1_565
Ce9 Sn3 3.258374 1_655
Ce9 Sn1 3.258374 1_555
Ce9 Sn4 3.258374 1_545
Ce9 Sn0 3.258374 1_555
Sn2 Sn5 3.133066 1_555
Sn2 Sn5 3.133066 1_665
