# generated using pymatgen
data_PH4SNO2
_symmetry_space_group_name_H-M   'P 1'
_cell_length_a   8.29760200
_cell_length_b   12.45825600
_cell_length_c   12.86949800
_cell_angle_alpha   90.00000000
_cell_angle_beta   90.00000000
_cell_angle_gamma   90.00000000
_symmetry_Int_Tables_number   1
_chemical_formula_structural   PH4SNO2
_chemical_formula_sum   'P12 H48 S12 N12 O24'
_cell_volume   1330.36698067
_cell_formula_units_Z   12
loop_
 _symmetry_equiv_pos_site_id
 _symmetry_equiv_pos_as_xyz
  1  'x, y, z'
loop_
 _atom_site_type_symbol
 _atom_site_label
 _atom_site_symmetry_multiplicity
 _atom_site_fract_x
 _atom_site_fract_y
 _atom_site_fract_z
 _atom_site_occupancy
  P  P0  1  0.33961500  0.37975800  0.13472800  1
  P  P1  1  0.16038500  0.87975800  0.36527200  1
  P  P2  1  0.66038500  0.62024200  0.63472800  1
  P  P3  1  0.83961500  0.12024200  0.86527200  1
  P  P4  1  0.66038500  0.62024200  0.86527200  1
  P  P5  1  0.83961500  0.12024200  0.63472800  1
  P  P6  1  0.33961500  0.37975800  0.36527200  1
  P  P7  1  0.16038500  0.87975800  0.13472800  1
  P  P8  1  0.56572500  0.52784700  0.25000000  1
  P  P9  1  0.93427500  0.02784700  0.25000000  1
  P  P10  1  0.43427500  0.47215300  0.75000000  1
  P  P11  1  0.06572500  0.97215300  0.75000000  1
  H  H0  1  0.41183800  0.93896800  0.75000000  1
  H  H1  1  0.08816200  0.43896800  0.75000000  1
  H  H2  1  0.58816200  0.06103200  0.25000000  1
  H  H3  1  0.91183800  0.56103200  0.25000000  1
  H  H4  1  0.03360900  0.67442800  0.25000000  1
  H  H5  1  0.46639100  0.17442800  0.25000000  1
  H  H6  1  0.96639100  0.32557200  0.75000000  1
  H  H7  1  0.53360900  0.82557200  0.75000000  1
  H  H8  1  0.08887000  0.56309800  0.18433600  1
  H  H9  1  0.41113000  0.06309800  0.31566400  1
  H  H10  1  0.91113000  0.43690200  0.68433600  1
  H  H11  1  0.58887000  0.93690200  0.81566400  1
  H  H12  1  0.91113000  0.43690200  0.81566400  1
  H  H13  1  0.58887000  0.93690200  0.68433600  1
  H  H14  1  0.08887000  0.56309800  0.31566400  1
  H  H15  1  0.41113000  0.06309800  0.18433600  1
  H  H16  1  0.83882300  0.78928200  0.43022400  1
  H  H17  1  0.66117700  0.28928200  0.06977600  1
  H  H18  1  0.16117700  0.21071800  0.93022400  1
  H  H19  1  0.33882300  0.71071800  0.56977600  1
  H  H20  1  0.16117700  0.21071800  0.56977600  1
  H  H21  1  0.33882300  0.71071800  0.93022400  1
  H  H22  1  0.83882300  0.78928200  0.06977600  1
  H  H23  1  0.66117700  0.28928200  0.43022400  1
  H  H24  1  0.15510200  0.73091000  0.62351600  1
  H  H25  1  0.34489800  0.23091000  0.87648400  1
  H  H26  1  0.84489800  0.26909000  0.12351600  1
  H  H27  1  0.65510200  0.76909000  0.37648400  1
  H  H28  1  0.84489800  0.26909000  0.37648400  1
  H  H29  1  0.65510200  0.76909000  0.12351600  1
  H  H30  1  0.15510200  0.73091000  0.87648400  1
  H  H31  1  0.34489800  0.23091000  0.62351600  1
  H  H32  1  0.21301400  0.60606700  0.91441200  1
  H  H33  1  0.28698600  0.10606700  0.58558800  1
  H  H34  1  0.78698600  0.39393300  0.41441200  1
  H  H35  1  0.71301400  0.89393300  0.08558800  1
  H  H36  1  0.78698600  0.39393300  0.08558800  1
  H  H37  1  0.71301400  0.89393300  0.41441200  1
  H  H38  1  0.21301400  0.60606700  0.58558800  1
  H  H39  1  0.28698600  0.10606700  0.91441200  1
  H  H40  1  0.66860200  0.79688600  0.50443800  1
  H  H41  1  0.83139800  0.29688600  0.99556200  1
  H  H42  1  0.33139800  0.20311400  0.00443800  1
  H  H43  1  0.16860200  0.70311400  0.49556200  1
  H  H44  1  0.33139800  0.20311400  0.49556200  1
  H  H45  1  0.16860200  0.70311400  0.00443800  1
  H  H46  1  0.66860200  0.79688600  0.99556200  1
  H  H47  1  0.83139800  0.29688600  0.50443800  1
  S  S0  1  0.17429000  0.42981100  0.03768000  1
  S  S1  1  0.32571000  0.92981100  0.46232000  1
  S  S2  1  0.82571000  0.57018900  0.53768000  1
  S  S3  1  0.67429000  0.07018900  0.96232000  1
  S  S4  1  0.82571000  0.57018900  0.96232000  1
  S  S5  1  0.67429000  0.07018900  0.53768000  1
  S  S6  1  0.17429000  0.42981100  0.46232000  1
  S  S7  1  0.32571000  0.92981100  0.03768000  1
  S  S8  1  0.51181400  0.68211300  0.25000000  1
  S  S9  1  0.98818600  0.18211300  0.25000000  1
  S  S10  1  0.48818600  0.31788700  0.75000000  1
  S  S11  1  0.01181400  0.81788700  0.75000000  1
  N  N0  1  0.53093300  0.90840600  0.75000000  1
  N  N1  1  0.96906700  0.40840600  0.75000000  1
  N  N2  1  0.46906700  0.09159400  0.25000000  1
  N  N3  1  0.03093300  0.59159400  0.25000000  1
  N  N4  1  0.71906600  0.81331500  0.43176500  1
  N  N5  1  0.78093400  0.31331500  0.06823500  1
  N  N6  1  0.28093400  0.18668500  0.93176500  1
  N  N7  1  0.21906600  0.68668500  0.56823500  1
  N  N8  1  0.28093400  0.18668500  0.56823500  1
  N  N9  1  0.21906600  0.68668500  0.93176500  1
  N  N10  1  0.71906600  0.81331500  0.06823500  1
  N  N11  1  0.78093400  0.31331500  0.43176500  1
  O  O0  1  0.25674100  0.37737300  0.25000000  1
  O  O1  1  0.24325900  0.87737300  0.25000000  1
  O  O2  1  0.74325900  0.62262700  0.75000000  1
  O  O3  1  0.75674100  0.12262700  0.75000000  1
  O  O4  1  0.42651500  0.27499200  0.11394200  1
  O  O5  1  0.07348500  0.77499200  0.38605800  1
  O  O6  1  0.57348500  0.72500800  0.61394200  1
  O  O7  1  0.92651500  0.22500800  0.88605800  1
  O  O8  1  0.57348500  0.72500800  0.88605800  1
  O  O9  1  0.92651500  0.22500800  0.61394200  1
  O  O10  1  0.42651500  0.27499200  0.38605800  1
  O  O11  1  0.07348500  0.77499200  0.11394200  1
  O  O12  1  0.47599000  0.47267900  0.15052000  1
  O  O13  1  0.02401000  0.97267900  0.34948000  1
  O  O14  1  0.52401000  0.52732100  0.65052000  1
  O  O15  1  0.97599000  0.02732100  0.84948000  1
  O  O16  1  0.52401000  0.52732100  0.84948000  1
  O  O17  1  0.97599000  0.02732100  0.65052000  1
  O  O18  1  0.47599000  0.47267900  0.34948000  1
  O  O19  1  0.02401000  0.97267900  0.15052000  1
  O  O20  1  0.73794500  0.48966500  0.25000000  1
  O  O21  1  0.76205500  0.98966500  0.25000000  1
  O  O22  1  0.26205500  0.51033500  0.75000000  1
  O  O23  1  0.23794500  0.01033500  0.75000000  1
loop_
_geom_bond_atom_site_label_1
_geom_bond_atom_site_label_2
_geom_bond_distance
_geom_bond_site_symmetry_2
P0 S0 1.957187 1_555
P1 S1 1.957187 1_555
P2 S2 1.957187 1_555
P3 S3 1.957187 1_555
P4 S4 1.957187 1_555
P5 S5 1.957187 1_555
P6 S6 1.957187 1_555
P7 S7 1.957187 1_555
P8 S8 1.973259 1_555
P9 S9 1.973259 1_555
P10 S10 1.973259 1_555
P11 S11 1.973259 1_555
H0 N0 1.059016 1_555
H0 O23 1.694833 1_565
H1 N1 1.059016 1_455
H1 O22 1.694833 1_555
H2 N2 1.059016 1_555
H2 O21 1.694833 1_545
H3 N3 1.059016 1_655
H3 O20 1.694833 1_555
H4 N3 1.032206 1_555
H5 N2 1.032206 1_555
H6 N1 1.032206 1_555
H7 N0 1.032206 1_555
H8 N3 1.035023 1_555
H9 N2 1.035023 1_555
H10 N1 1.035023 1_555
H11 N0 1.035023 1_555
H12 N1 1.035023 1_555
H13 N0 1.035023 1_555
H14 N3 1.035023 1_555
H15 N2 1.035023 1_555
H16 N4 1.038013 1_555
H17 N5 1.038013 1_555
H18 N6 1.038013 1_555
H19 N7 1.038013 1_555
H20 N8 1.038013 1_555
H21 N9 1.038013 1_555
H22 N10 1.038013 1_555
H23 N11 1.038013 1_555
H24 N7 1.044702 1_555
H25 N6 1.044702 1_555
H26 N5 1.044702 1_555
H27 N4 1.044702 1_555
H28 N11 1.044702 1_555
H29 N10 1.044702 1_555
H30 N9 1.044702 1_555
H31 N8 1.044702 1_555
H32 N9 1.030114 1_555
H33 N8 1.030114 1_555
H34 N11 1.030114 1_555
H35 N10 1.030114 1_555
H36 N5 1.030114 1_555
H37 N4 1.030114 1_555
H38 N7 1.030114 1_555
H39 N6 1.030114 1_555
H40 N4 1.044963 1_555
H41 N5 1.044963 1_556
H42 N6 1.044963 1_554
H43 N7 1.044963 1_555
H44 N8 1.044963 1_555
H45 N9 1.044963 1_554
H46 N10 1.044963 1_556
H47 N11 1.044963 1_555
O0 P6 1.635391 1_555
O0 P0 1.635391 1_555
O1 P1 1.635391 1_555
O1 P7 1.635391 1_555
O2 P4 1.635391 1_555
O2 P2 1.635391 1_555
O3 P3 1.635391 1_555
O3 P5 1.635391 1_555
O4 P0 1.514939 1_555
O5 P1 1.514939 1_555
O6 P2 1.514939 1_555
O7 P3 1.514939 1_555
O8 P4 1.514939 1_555
O9 P5 1.514939 1_555
O10 P6 1.514939 1_555
O11 P7 1.514939 1_555
O12 P0 1.631535 1_555
O12 P8 1.632741 1_555
O13 P1 1.631535 1_555
O13 P9 1.632741 1_465
O14 P2 1.631535 1_555
O14 P10 1.632741 1_555
O15 P3 1.631535 1_555
O15 P11 1.632741 1_645
O16 P4 1.631535 1_555
O16 P10 1.632741 1_555
O17 P5 1.631535 1_555
O17 P11 1.632741 1_645
O18 P6 1.631535 1_555
O18 P8 1.632741 1_555
O19 P7 1.631535 1_555
O19 P9 1.632741 1_465
O20 P8 1.506104 1_555
O21 P9 1.506104 1_565
O22 P10 1.506104 1_555
O23 P11 1.506104 1_545
