# generated using pymatgen
data_Rb2Sc(NO3)5
_symmetry_space_group_name_H-M   'P 1'
_cell_length_a   11.04862932
_cell_length_b   11.04862932
_cell_length_c   9.20164987
_cell_angle_alpha   90.00000000
_cell_angle_beta   90.00000000
_cell_angle_gamma   119.99999555
_symmetry_Int_Tables_number   1
_chemical_formula_structural   Rb2Sc(NO3)5
_chemical_formula_sum   'Rb6 Sc3 N15 O45'
_cell_volume   972.77670374
_cell_formula_units_Z   3
loop_
 _symmetry_equiv_pos_site_id
 _symmetry_equiv_pos_as_xyz
  1  'x, y, z'
loop_
 _atom_site_type_symbol
 _atom_site_label
 _atom_site_symmetry_multiplicity
 _atom_site_fract_x
 _atom_site_fract_y
 _atom_site_fract_z
 _atom_site_occupancy
  Rb  Rb0  1  0.46398086  0.00000000  0.33333300  1
  Rb  Rb1  1  0.72095739  0.72095739  0.50000000  1
  Rb  Rb2  1  1.00000000  0.27904261  0.16666700  1
  Rb  Rb3  1  0.27904261  1.00000000  0.83333300  1
  Rb  Rb4  1  0.53601914  0.53601914  0.00000000  1
  Rb  Rb5  1  0.00000000  0.46398086  0.66666700  1
  Sc  Sc0  1  1.00000000  0.67636432  0.16666700  1
  Sc  Sc1  1  0.32363568  0.32363568  0.50000000  1
  Sc  Sc2  1  0.67636432  1.00000000  0.83333300  1
  N  N0  1  0.25210564  0.67877648  0.10794111  1
  N  N1  1  0.67877648  0.25210564  0.89205889  1
  N  N2  1  0.74175907  0.09842277  0.55380578  1
  N  N3  1  0.91684774  1.00000000  0.83333300  1
  N  N4  1  0.25824093  0.35666370  0.77952722  1
  N  N5  1  0.90157723  0.64333630  0.88713878  1
  N  N6  1  0.09842277  0.74175907  0.44619422  1
  N  N7  1  0.74789436  0.42667084  0.22539189  1
  N  N8  1  0.32122352  0.57332916  0.44127411  1
  N  N9  1  0.64333630  0.90157723  0.11286122  1
  N  N10  1  0.35666370  0.25824093  0.22047278  1
  N  N11  1  0.57332916  0.32122352  0.55872589  1
  N  N12  1  0.08315226  0.08315226  0.50000000  1
  N  N13  1  0.42667084  0.74789436  0.77460811  1
  N  N14  1  1.00000000  0.91684774  0.16666700  1
  O  O0  1  0.62700385  0.98779007  0.58739958  1
  O  O1  1  0.33581258  0.17714024  0.32746055  1
  O  O2  1  0.55529655  0.42058854  0.51024637  1
  O  O3  1  0.91607522  0.81227334  0.24444497  1
  O  O4  1  0.74398284  0.53735516  0.24799875  1
  O  O5  1  0.57941146  0.13470801  0.84357937  1
  O  O6  1  0.37266072  0.23019003  0.09574353  1
  O  O7  1  0.46264484  0.20662768  0.58133175  1
  O  O8  1  0.00000000  0.02700912  0.16666700  1
  O  O9  1  0.08392478  0.89619812  0.08888803  1
  O  O10  1  0.15867134  0.82285976  0.33920645  1
  O  O11  1  0.63921378  0.01220993  0.07926742  1
  O  O12  1  0.30897762  0.64823684  0.75434630  1
  O  O13  1  0.86529199  0.44470345  0.17691237  1
  O  O14  1  0.81227334  0.91607522  0.75555503  1
  O  O15  1  0.44470345  0.86529199  0.82308763  1
  O  O16  1  0.14247069  0.76980997  0.57092247  1
  O  O17  1  0.01220993  0.63921378  0.92073258  1
  O  O18  1  0.64823684  0.30897762  0.24565370  1
  O  O19  1  0.23019003  0.37266072  0.90425647  1
  O  O20  1  0.53735516  0.74398284  0.75200125  1
  O  O21  1  0.89619812  0.08392478  0.91111197  1
  O  O22  1  0.17714024  0.33581258  0.67253945  1
  O  O23  1  0.42058854  0.55529655  0.48975363  1
  O  O24  1  0.35176316  0.66074078  0.08768030  1
  O  O25  1  0.13470801  0.57941146  0.15642063  1
  O  O26  1  0.20662768  0.46264484  0.41866825  1
  O  O27  1  0.69102238  0.33925922  0.57898670  1
  O  O28  1  0.37299615  0.36078622  0.74593442  1
  O  O29  1  0.36078622  0.37299615  0.25406558  1
  O  O30  1  0.82285976  0.15867134  0.66079355  1
  O  O31  1  0.66074078  0.35176316  0.91231970  1
  O  O32  1  0.85752931  0.62733928  0.76241053  1
  O  O33  1  0.79337232  0.25601716  0.91466475  1
  O  O34  1  0.66418742  0.84132866  0.00587345  1
  O  O35  1  0.76980997  0.14247069  0.42907753  1
  O  O36  1  0.33925922  0.69102238  0.42101330  1
  O  O37  1  0.10380188  0.18772666  0.42222203  1
  O  O38  1  0.84132866  0.66418742  0.99412655  1
  O  O39  1  0.97299088  0.97299088  0.50000000  1
  O  O40  1  0.62733928  0.85752931  0.23758947  1
  O  O41  1  0.98779007  0.62700385  0.41260042  1
  O  O42  1  0.02700912  0.00000000  0.83333300  1
  O  O43  1  0.18772666  0.10380188  0.57777797  1
  O  O44  1  0.25601716  0.79337232  0.08533525  1
loop_
_geom_bond_atom_site_label_1
_geom_bond_atom_site_label_2
_geom_bond_distance
_geom_bond_site_symmetry_2
N0 O24 1.227295 1_555
N0 O44 1.262337 1_555
N0 O25 1.289454 1_555
N1 O31 1.227295 1_555
N1 O33 1.262337 1_555
N1 O5 1.289454 1_555
N2 O35 1.224458 1_555
N2 O30 1.272288 1_555
N2 O0 1.283518 1_545
N3 O42 1.217132 1_665
N3 O14 1.278910 1_555
N3 O21 1.278915 1_565
N4 O19 1.224467 1_555
N4 O22 1.272290 1_555
N4 O28 1.283516 1_555
N5 O32 1.224458 1_555
N5 O38 1.272283 1_555
N5 O17 1.283518 1_655
N6 O16 1.224458 1_555
N6 O10 1.272288 1_555
N6 O41 1.283518 1_455
N7 O18 1.227296 1_555
N7 O4 1.262339 1_555
N7 O13 1.289454 1_555
N8 O36 1.227295 1_555
N8 O26 1.262337 1_555
N8 O23 1.289454 1_555
N9 O40 1.224458 1_555
N9 O34 1.272283 1_555
N9 O11 1.283518 1_565
N10 O6 1.224467 1_555
N10 O1 1.272290 1_555
N10 O29 1.283516 1_555
N11 O27 1.227295 1_555
N11 O7 1.262337 1_555
N11 O2 1.289454 1_555
N12 O39 1.217132 1_445
N12 O43 1.278910 1_555
N12 O37 1.278910 1_555
N13 O12 1.227296 1_555
N13 O20 1.262339 1_555
N13 O15 1.289454 1_555
N14 O8 1.217132 1_665
N14 O3 1.278910 1_555
N14 O9 1.278915 1_655
O0 Sc2 2.315856 1_555
O0 Rb0 2.995145 1_565
O1 Sc1 2.318678 1_555
O1 Rb0 2.934310 1_555
O2 Sc1 2.228409 1_555
O2 Rb1 2.880673 1_555
O3 Sc0 2.240358 1_555
O3 Rb1 3.003331 1_555
O4 Sc0 2.564323 1_555
O4 Rb1 3.173763 1_555
O4 Rb4 3.233157 1_555
O5 Sc2 2.228409 1_545
O5 Rb3 2.880673 1_545
O6 Rb4 3.058213 1_555
O6 Rb3 3.276869 1_544
O7 Sc1 2.564323 1_555
O7 Rb3 3.173763 1_545
O7 Rb0 3.233157 1_555
O8 Rb2 2.784625 1_455
O9 Sc0 2.240361 1_455
O9 Rb3 3.003331 1_554
O10 Sc0 2.318673 1_455
O10 Rb0 2.934319 1_565
O11 Sc2 2.315865 1_544
O11 Rb0 2.995138 1_555
O12 Rb5 3.082126 1_555
O13 Sc0 2.228409 1_555
O13 Rb2 2.880673 1_555
O14 Sc2 2.240358 1_555
O14 Rb1 3.003331 1_555
O15 Sc2 2.228409 1_555
O15 Rb3 2.880673 1_555
O16 Rb5 3.058216 1_555
O16 Rb3 3.276869 1_555
O17 Sc0 2.315865 1_456
O17 Rb5 2.995138 1_555
O18 Rb0 3.082126 1_555
O19 Rb4 3.058213 1_556
O19 Rb2 3.276869 1_456
O20 Sc2 2.564323 1_555
O20 Rb1 3.173763 1_555
O20 Rb4 3.233157 1_556
O21 Sc2 2.240361 1_545
O21 Rb2 3.003331 1_556
O22 Sc1 2.318678 1_555
O22 Rb5 2.934310 1_555
O23 Sc1 2.228409 1_555
O23 Rb1 2.880673 1_555
O24 Rb4 3.082128 1_555
O25 Sc0 2.228409 1_455
O25 Rb2 2.880673 1_455
O26 Sc1 2.564323 1_555
O26 Rb2 3.173763 1_455
O26 Rb5 3.233157 1_555
O27 Rb5 3.082128 1_655
O28 Sc1 2.315865 1_555
O28 Rb4 2.995138 1_556
O29 Sc1 2.315865 1_555
O29 Rb4 2.995138 1_555
O30 Sc2 2.318673 1_545
O30 Rb5 2.934319 1_655
O31 Rb4 3.082128 1_556
O32 Rb5 3.058213 1_655
O32 Rb1 3.276869 1_555
O33 Sc2 2.564323 1_545
O33 Rb2 3.173769 1_556
O33 Rb5 3.233150 1_655
O34 Sc2 2.318676 1_554
O34 Rb4 2.934320 1_555
O35 Rb0 3.058216 1_555
O35 Rb2 3.276869 1_555
O36 Rb0 3.082128 1_565
O37 Sc1 2.240358 1_555
O37 Rb2 3.003331 1_455
O38 Sc0 2.318676 1_556
O38 Rb4 2.934320 1_556
O39 Rb1 2.784625 1_555
O40 Rb0 3.058213 1_565
O40 Rb1 3.276869 1_555
O41 Sc0 2.315856 1_555
O41 Rb5 2.995145 1_655
O42 Rb3 2.784625 1_545
O43 Sc1 2.240358 1_555
O43 Rb3 3.003331 1_545
O44 Sc0 2.564323 1_455
O44 Rb3 3.173769 1_554
O44 Rb0 3.233150 1_565
