# generated using pymatgen
data_KAlH2CO5
_symmetry_space_group_name_H-M   'P 1'
_cell_length_a   6.81492200
_cell_length_b   6.81492200
_cell_length_c   5.72201000
_cell_angle_alpha   90.00000000
_cell_angle_beta   90.00000000
_cell_angle_gamma   123.40916967
_symmetry_Int_Tables_number   1
_chemical_formula_structural   KAlH2CO5
_chemical_formula_sum   'K2 Al2 H4 C2 O10'
_cell_volume   221.83593213
_cell_formula_units_Z   2
loop_
 _symmetry_equiv_pos_site_id
 _symmetry_equiv_pos_as_xyz
  1  'x, y, z'
loop_
 _atom_site_type_symbol
 _atom_site_label
 _atom_site_symmetry_multiplicity
 _atom_site_fract_x
 _atom_site_fract_y
 _atom_site_fract_z
 _atom_site_occupancy
  K  K0  1  0.65334200  0.34665800  0.75000000  1
  K  K1  1  0.34665800  0.65334200  0.25000000  1
  Al  Al0  1  0.00000000  0.00000000  0.50000000  1
  Al  Al1  1  0.00000000  0.00000000  0.00000000  1
  H  H0  1  0.36411900  0.19810200  0.25000000  1
  H  H1  1  0.19810200  0.36411900  0.75000000  1
  H  H2  1  0.63588100  0.80189800  0.75000000  1
  H  H3  1  0.80189800  0.63588100  0.25000000  1
  C  C0  1  0.78776100  0.21223900  0.25000000  1
  C  C1  1  0.21223900  0.78776100  0.75000000  1
  O  O0  1  0.81870000  0.78908100  0.25000000  1
  O  O1  1  0.78908100  0.81870000  0.75000000  1
  O  O2  1  0.18130000  0.21091900  0.75000000  1
  O  O3  1  0.21091900  0.18130000  0.25000000  1
  O  O4  1  0.84156300  0.15843700  0.44841500  1
  O  O5  1  0.15843700  0.84156300  0.55158500  1
  O  O6  1  0.84156300  0.15843700  0.05158500  1
  O  O7  1  0.15843700  0.84156300  0.94841500  1
  O  O8  1  0.68109200  0.31890800  0.25000000  1
  O  O9  1  0.31890800  0.68109200  0.75000000  1
loop_
_geom_bond_atom_site_label_1
_geom_bond_atom_site_label_2
_geom_bond_distance
_geom_bond_site_symmetry_2
K0 O1 2.815545 1_555
K0 O2 2.815545 1_555
K0 O4 2.842630 1_555
K0 O6 2.842630 1_556
K0 O8 2.880323 1_555
K0 O8 2.880323 1_556
K1 O3 2.815545 1_555
K1 O0 2.815545 1_555
K1 O5 2.842630 1_555
K1 O7 2.842630 1_554
K1 O9 2.880323 1_554
K1 O9 2.880323 1_555
Al0 O1 1.919185 1_445
Al0 O2 1.919185 1_555
Al0 O0 1.919185 1_445
Al0 O3 1.919185 1_555
Al0 O5 1.924222 1_545
Al0 O4 1.924222 1_455
Al1 O2 1.919185 1_554
Al1 O0 1.919185 1_445
Al1 O3 1.919185 1_555
Al1 O1 1.919185 1_444
Al1 O7 1.924222 1_544
Al1 O6 1.924222 1_455
H0 O3 0.985644 1_555
H1 O2 0.985644 1_555
H2 O1 0.985644 1_555
H3 O0 0.985644 1_555
C0 O8 1.280165 1_555
C0 O4 1.306101 1_555
C0 O6 1.306101 1_555
C1 O9 1.280165 1_555
C1 O5 1.306101 1_555
C1 O7 1.306101 1_555
