# generated using pymatgen
data_Ba8CaY2U4O24
_symmetry_space_group_name_H-M   'P 1'
_cell_length_a   10.76834837
_cell_length_b   10.76834837
_cell_length_c   12.40363700
_cell_angle_alpha   90.00000000
_cell_angle_beta   90.00000000
_cell_angle_gamma   109.76859682
_symmetry_Int_Tables_number   1
_chemical_formula_structural   Ba8CaY2U4O24
_chemical_formula_sum   'Ba16 Ca2 Y4 U8 O48'
_cell_volume   1353.52866269
_cell_formula_units_Z   2
loop_
 _symmetry_equiv_pos_site_id
 _symmetry_equiv_pos_as_xyz
  1  'x, y, z'
loop_
 _atom_site_type_symbol
 _atom_site_label
 _atom_site_symmetry_multiplicity
 _atom_site_fract_x
 _atom_site_fract_y
 _atom_site_fract_z
 _atom_site_occupancy
  Ba  Ba0  1  0.85080700  0.61619500  0.50000000  1
  Ba  Ba1  1  0.61619500  0.85080700  0.50000000  1
  Ba  Ba2  1  0.11786800  0.88213200  0.76690400  1
  Ba  Ba3  1  0.88213200  0.11786800  0.23309600  1
  Ba  Ba4  1  0.14919300  0.38380500  0.50000000  1
  Ba  Ba5  1  0.38380500  0.14919300  0.50000000  1
  Ba  Ba6  1  0.35199300  0.11787200  0.00000000  1
  Ba  Ba7  1  0.61871800  0.38128200  0.73968500  1
  Ba  Ba8  1  0.11787200  0.35199300  0.00000000  1
  Ba  Ba9  1  0.88213200  0.11786800  0.76690400  1
  Ba  Ba10  1  0.61871800  0.38128200  0.26031500  1
  Ba  Ba11  1  0.88212800  0.64800700  0.00000000  1
  Ba  Ba12  1  0.64800700  0.88212800  0.00000000  1
  Ba  Ba13  1  0.38128200  0.61871800  0.26031500  1
  Ba  Ba14  1  0.11786800  0.88213200  0.23309600  1
  Ba  Ba15  1  0.38128200  0.61871800  0.73968500  1
  Ca  Ca0  1  0.00000000  0.00000000  0.50000000  1
  Ca  Ca1  1  0.50000000  0.50000000  0.00000000  1
  Y  Y0  1  0.00000000  0.50000000  0.75024900  1
  Y  Y1  1  0.50000000  0.00000000  0.24975100  1
  Y  Y2  1  0.50000000  0.00000000  0.75024900  1
  Y  Y3  1  0.00000000  0.50000000  0.24975100  1
  U  U0  1  0.24689600  0.75310400  0.50000000  1
  U  U1  1  0.74652100  0.25347900  0.00000000  1
  U  U2  1  0.75038800  0.75038800  0.75118000  1
  U  U3  1  0.24961200  0.24961200  0.24882000  1
  U  U4  1  0.75310400  0.24689600  0.50000000  1
  U  U5  1  0.75038800  0.75038800  0.24882000  1
  U  U6  1  0.25347900  0.74652100  0.00000000  1
  U  U7  1  0.24961200  0.24961200  0.75118000  1
  O  O0  1  0.13076600  0.62577300  0.37848900  1
  O  O1  1  0.86775000  0.86775000  0.63058900  1
  O  O2  1  0.62789700  0.87311700  0.75421900  1
  O  O3  1  0.63058300  0.12759500  0.87870700  1
  O  O4  1  0.63229600  0.63229600  0.12911400  1
  O  O5  1  0.13225000  0.13225000  0.36941100  1
  O  O6  1  0.12759500  0.63058300  0.12129300  1
  O  O7  1  0.87240500  0.36941700  0.87870700  1
  O  O8  1  0.13860900  0.86139100  0.00000000  1
  O  O9  1  0.13326700  0.13326700  0.13481500  1
  O  O10  1  0.63353200  0.63353200  0.36229300  1
  O  O11  1  0.36770400  0.36770400  0.12911400  1
  O  O12  1  0.36134200  0.63865800  0.50000000  1
  O  O13  1  0.63058300  0.12759500  0.12129300  1
  O  O14  1  0.12759500  0.63058300  0.87870700  1
  O  O15  1  0.63229600  0.63229600  0.87088600  1
  O  O16  1  0.63132700  0.36867300  0.00000000  1
  O  O17  1  0.36941700  0.87240500  0.87870700  1
  O  O18  1  0.86777800  0.13222200  0.50000000  1
  O  O19  1  0.62577300  0.13076600  0.37848900  1
  O  O20  1  0.86673300  0.86673300  0.86518500  1
  O  O21  1  0.36646800  0.36646800  0.63770700  1
  O  O22  1  0.63353200  0.63353200  0.63770700  1
  O  O23  1  0.86139100  0.13860900  0.00000000  1
  O  O24  1  0.13326700  0.13326700  0.86518500  1
  O  O25  1  0.87311700  0.62789700  0.24578100  1
  O  O26  1  0.86775000  0.86775000  0.36941100  1
  O  O27  1  0.13076600  0.62577300  0.62151100  1
  O  O28  1  0.36770400  0.36770400  0.87088600  1
  O  O29  1  0.87311700  0.62789700  0.75421900  1
  O  O30  1  0.13222200  0.86777800  0.50000000  1
  O  O31  1  0.63865800  0.36134200  0.50000000  1
  O  O32  1  0.86923400  0.37422700  0.62151100  1
  O  O33  1  0.87240500  0.36941700  0.12129300  1
  O  O34  1  0.86673300  0.86673300  0.13481500  1
  O  O35  1  0.36941700  0.87240500  0.12129300  1
  O  O36  1  0.12688300  0.37210300  0.75421900  1
  O  O37  1  0.37422700  0.86923400  0.37848900  1
  O  O38  1  0.62577300  0.13076600  0.62151100  1
  O  O39  1  0.86923400  0.37422700  0.37848900  1
  O  O40  1  0.12688300  0.37210300  0.24578100  1
  O  O41  1  0.36867300  0.63132700  0.00000000  1
  O  O42  1  0.37210300  0.12688300  0.75421900  1
  O  O43  1  0.37422700  0.86923400  0.62151100  1
  O  O44  1  0.36646800  0.36646800  0.36229300  1
  O  O45  1  0.37210300  0.12688300  0.24578100  1
  O  O46  1  0.62789700  0.87311700  0.24578100  1
  O  O47  1  0.13225000  0.13225000  0.63058900  1
loop_
_geom_bond_atom_site_label_1
_geom_bond_atom_site_label_2
_geom_bond_distance
_geom_bond_site_symmetry_2
Ba0 O31 2.917091 1_555
Ba0 O22 2.953300 1_555
Ba0 O10 2.953300 1_555
Ba0 O39 3.074057 1_555
Ba0 O32 3.074057 1_555
Ba0 O1 3.108123 1_555
Ba0 O26 3.108123 1_555
Ba0 O29 3.161652 1_555
Ba0 O25 3.161652 1_555
Ba0 O30 3.311975 1_655
Ba0 O0 3.340702 1_655
Ba0 O27 3.340702 1_655
Ba1 O12 2.917091 1_555
Ba1 O22 2.953300 1_555
Ba1 O10 2.953300 1_555
Ba1 O37 3.074057 1_555
Ba1 O43 3.074057 1_555
Ba1 O1 3.108123 1_555
Ba1 O26 3.108123 1_555
Ba1 O2 3.161652 1_555
Ba1 O46 3.161652 1_555
Ba1 O18 3.311975 1_565
Ba1 O19 3.340702 1_565
Ba1 O38 3.340702 1_565
Ba2 O8 2.914236 1_556
Ba2 O20 2.919505 1_455
Ba2 O24 2.919505 1_565
Ba2 O14 3.076269 1_555
Ba2 O17 3.076269 1_555
Ba2 O29 3.095984 1_455
Ba2 O42 3.095984 1_565
Ba2 O1 3.139238 1_455
Ba2 O47 3.139238 1_565
Ba2 O30 3.320224 1_555
Ba2 O27 3.339404 1_555
Ba2 O43 3.339404 1_555
Ba3 O23 2.914236 1_555
Ba3 O9 2.919505 1_655
Ba3 O34 2.919505 1_545
Ba3 O13 3.076269 1_555
Ba3 O33 3.076269 1_555
Ba3 O46 3.095984 1_545
Ba3 O40 3.095984 1_655
Ba3 O5 3.139238 1_655
Ba3 O26 3.139238 1_545
Ba3 O18 3.320224 1_555
Ba3 O19 3.339404 1_555
Ba3 O39 3.339404 1_555
Ba4 O12 2.917091 1_555
Ba4 O44 2.953300 1_555
Ba4 O21 2.953300 1_555
Ba4 O0 3.074057 1_555
Ba4 O27 3.074057 1_555
Ba4 O47 3.108123 1_555
Ba4 O5 3.108123 1_555
Ba4 O36 3.161652 1_555
Ba4 O40 3.161652 1_555
Ba4 O18 3.311975 1_455
Ba4 O39 3.340702 1_455
Ba4 O32 3.340702 1_455
Ba5 O31 2.917091 1_555
Ba5 O21 2.953300 1_555
Ba5 O44 2.953300 1_555
Ba5 O19 3.074057 1_555
Ba5 O38 3.074057 1_555
Ba5 O47 3.108123 1_555
Ba5 O5 3.108123 1_555
Ba5 O45 3.161652 1_555
Ba5 O42 3.161652 1_555
Ba5 O30 3.311975 1_545
Ba5 O37 3.340702 1_545
Ba5 O43 3.340702 1_545
Ba6 O8 2.935124 1_545
Ba6 O9 2.938600 1_555
Ba6 O24 2.938600 1_554
Ba6 O45 3.055475 1_555
Ba6 O42 3.055475 1_554
Ba6 O28 3.085950 1_554
Ba6 O11 3.085950 1_555
Ba6 O35 3.101778 1_545
Ba6 O17 3.101778 1_544
Ba6 O16 3.293404 1_555
Ba6 O13 3.325908 1_555
Ba6 O3 3.325908 1_554
Ba7 O22 2.951385 1_555
Ba7 O21 2.951385 1_555
Ba7 O31 2.993647 1_555
Ba7 O38 3.093577 1_555
Ba7 O32 3.093577 1_555
Ba7 O42 3.109404 1_555
Ba7 O29 3.109404 1_555
Ba7 O15 3.115865 1_555
Ba7 O28 3.115865 1_555
Ba7 O16 3.236485 1_556
Ba7 O3 3.269340 1_555
Ba7 O7 3.269340 1_555
Ba8 O23 2.935124 1_455
Ba8 O9 2.938600 1_555
Ba8 O24 2.938600 1_554
Ba8 O36 3.055475 1_554
Ba8 O40 3.055475 1_555
Ba8 O28 3.085950 1_554
Ba8 O11 3.085950 1_555
Ba8 O33 3.101778 1_455
Ba8 O7 3.101778 1_454
Ba8 O41 3.293404 1_555
Ba8 O14 3.325908 1_554
Ba8 O6 3.325908 1_555
Ba9 O23 2.914236 1_556
Ba9 O20 2.919505 1_545
Ba9 O24 2.919505 1_655
Ba9 O3 3.076269 1_555
Ba9 O7 3.076269 1_555
Ba9 O2 3.095984 1_545
Ba9 O36 3.095984 1_655
Ba9 O47 3.139238 1_655
Ba9 O1 3.139238 1_545
Ba9 O18 3.320224 1_555
Ba9 O38 3.339404 1_555
Ba9 O32 3.339404 1_555
Ba10 O10 2.951385 1_555
Ba10 O44 2.951385 1_555
Ba10 O31 2.993647 1_555
Ba10 O19 3.093577 1_555
Ba10 O39 3.093577 1_555
Ba10 O45 3.109404 1_555
Ba10 O25 3.109404 1_555
Ba10 O4 3.115865 1_555
Ba10 O11 3.115865 1_555
Ba10 O16 3.236485 1_555
Ba10 O33 3.269340 1_555
Ba10 O13 3.269340 1_555
Ba11 O8 2.935124 1_655
Ba11 O34 2.938600 1_555
Ba11 O20 2.938600 1_554
Ba11 O25 3.055475 1_555
Ba11 O29 3.055475 1_554
Ba11 O15 3.085950 1_554
Ba11 O4 3.085950 1_555
Ba11 O6 3.101778 1_655
Ba11 O14 3.101778 1_654
Ba11 O16 3.293404 1_555
Ba11 O7 3.325908 1_554
Ba11 O33 3.325908 1_555
Ba12 O23 2.935124 1_565
Ba12 O34 2.938600 1_555
Ba12 O20 2.938600 1_554
Ba12 O2 3.055475 1_554
Ba12 O46 3.055475 1_555
Ba12 O15 3.085950 1_554
Ba12 O4 3.085950 1_555
Ba12 O13 3.101778 1_565
Ba12 O3 3.101778 1_564
Ba12 O41 3.293404 1_555
Ba12 O35 3.325908 1_555
Ba12 O17 3.325908 1_554
Ba13 O10 2.951385 1_555
Ba13 O44 2.951385 1_555
Ba13 O12 2.993647 1_555
Ba13 O37 3.093577 1_555
Ba13 O0 3.093577 1_555
Ba13 O40 3.109404 1_555
Ba13 O46 3.109404 1_555
Ba13 O11 3.115865 1_555
Ba13 O4 3.115865 1_555
Ba13 O41 3.236485 1_555
Ba13 O6 3.269340 1_555
Ba13 O35 3.269340 1_555
Ba14 O8 2.914236 1_555
Ba14 O9 2.919505 1_565
Ba14 O34 2.919505 1_455
Ba14 O6 3.076269 1_555
Ba14 O35 3.076269 1_555
Ba14 O25 3.095984 1_455
Ba14 O45 3.095984 1_565
Ba14 O5 3.139238 1_565
Ba14 O26 3.139238 1_455
Ba14 O30 3.320224 1_555
Ba14 O0 3.339404 1_555
Ba14 O37 3.339404 1_555
Ba15 O21 2.951385 1_555
Ba15 O22 2.951385 1_555
Ba15 O12 2.993647 1_555
Ba15 O43 3.093577 1_555
Ba15 O27 3.093577 1_555
Ba15 O36 3.109404 1_555
Ba15 O2 3.109404 1_555
Ba15 O15 3.115865 1_555
Ba15 O28 3.115865 1_555
Ba15 O41 3.236485 1_556
Ba15 O17 3.269340 1_555
Ba15 O14 3.269340 1_555
Ca0 O1 2.303907 1_445
Ca0 O47 2.303907 1_555
Ca0 O26 2.303907 1_445
Ca0 O5 2.303907 1_555
Ca0 O18 2.329335 1_455
Ca0 O30 2.329335 1_545
Ca1 O15 2.291489 1_554
Ca1 O28 2.291489 1_554
Ca1 O4 2.291489 1_555
Ca1 O11 2.291489 1_555
Ca1 O41 2.313568 1_555
Ca1 O16 2.313568 1_555
O0 U0 2.134380 1_555
O0 Y3 2.253201 1_555
O1 U2 2.085970 1_555
O2 U2 2.160331 1_555
O2 Y2 2.244759 1_565
O3 U1 2.124819 1_556
O3 Y2 2.257646 1_555
O4 U5 2.084450 1_555
O5 U3 2.085970 1_555
O6 U6 2.124819 1_555
O6 Y3 2.257646 1_555
O7 U1 2.124819 1_556
O7 Y0 2.257646 1_655
O8 U6 2.023647 1_555
O9 U3 2.019180 1_555
O10 U5 2.019098 1_555
O11 U3 2.084450 1_555
O12 U0 2.016178 1_555
O13 U1 2.124819 1_555
O13 Y1 2.257646 1_555
O14 U6 2.124819 1_556
O14 Y0 2.257646 1_555
O15 U2 2.084450 1_555
O16 U1 2.029355 1_555
O17 U6 2.124819 1_556
O17 Y2 2.257646 1_565
O18 U4 2.020194 1_555
O19 U4 2.134380 1_555
O19 Y1 2.253201 1_555
O20 U2 2.019180 1_555
O21 U7 2.019098 1_555
O22 U2 2.019098 1_555
O23 U1 2.023647 1_555
O24 U7 2.019180 1_555
O25 U5 2.160331 1_555
O25 Y3 2.244759 1_655
O26 U5 2.085970 1_555
O27 U0 2.134380 1_555
O27 Y0 2.253201 1_555
O28 U7 2.084450 1_555
O29 U2 2.160331 1_555
O29 Y0 2.244759 1_655
O30 U0 2.020194 1_555
O31 U4 2.016178 1_555
O32 U4 2.134380 1_555
O32 Y0 2.253201 1_655
O33 U1 2.124819 1_555
O33 Y3 2.257646 1_655
O34 U5 2.019180 1_555
O35 U6 2.124819 1_555
O35 Y1 2.257646 1_565
O36 U7 2.160331 1_555
O36 Y0 2.244759 1_555
O37 U0 2.134380 1_555
O37 Y1 2.253201 1_565
O38 U4 2.134380 1_555
O38 Y2 2.253201 1_555
O39 U4 2.134380 1_555
O39 Y3 2.253201 1_655
O40 U3 2.160331 1_555
O40 Y3 2.244759 1_555
O41 U6 2.029355 1_555
O42 U7 2.160331 1_555
O42 Y2 2.244759 1_555
O43 U0 2.134380 1_555
O43 Y2 2.253201 1_565
O44 U3 2.019098 1_555
O45 U3 2.160331 1_555
O45 Y1 2.244759 1_555
O46 U5 2.160331 1_555
O46 Y1 2.244759 1_565
O47 U7 2.085970 1_555
