# generated using pymatgen
data_Sr6Nb7O21
_symmetry_space_group_name_H-M   'P 1'
_cell_length_a   7.05081400
_cell_length_b   9.10021000
_cell_length_c   9.10149077
_cell_angle_alpha   113.56575529
_cell_angle_beta   104.96287330
_cell_angle_gamma   104.96675546
_symmetry_Int_Tables_number   1
_chemical_formula_structural   Sr6Nb7O21
_chemical_formula_sum   'Sr6 Nb7 O21'
_cell_volume   472.08402568
_cell_formula_units_Z   1
loop_
 _symmetry_equiv_pos_site_id
 _symmetry_equiv_pos_as_xyz
  1  'x, y, z'
loop_
 _atom_site_type_symbol
 _atom_site_label
 _atom_site_symmetry_multiplicity
 _atom_site_fract_x
 _atom_site_fract_y
 _atom_site_fract_z
 _atom_site_occupancy
  Sr  Sr0  1  0.56297500  0.28011100  0.42148500  1
  Sr  Sr1  1  0.14236700  0.57155200  0.85963400  1
  Sr  Sr2  1  0.71345800  0.85497700  0.28352600  1
  Sr  Sr3  1  0.28713200  0.14351100  0.71776200  1
  Sr  Sr4  1  0.85064000  0.42150500  0.14044700  1
  Sr  Sr5  1  0.42813800  0.71631900  0.57341100  1
  Nb  Nb0  1  0.06877500  0.28379800  0.42550900  1
  Nb  Nb1  1  0.64443200  0.57623200  0.85764300  1
  Nb  Nb2  1  0.21043600  0.85868100  0.28258400  1
  Nb  Nb3  1  0.78588000  0.14190900  0.71700100  1
  Nb  Nb4  1  0.35299200  0.42484900  0.14170600  1
  Nb  Nb5  1  0.92966400  0.71788900  0.57502000  1
  Nb  Nb6  1  0.49883300  0.99952900  0.99954900  1
  O  O0  1  0.55844700  0.78010800  0.92738400  1
  O  O1  1  0.77894400  0.14741700  0.22081200  1
  O  O2  1  0.14297400  0.07311600  0.36909000  1
  O  O3  1  0.35654100  0.42898400  0.64254100  1
  O  O4  1  0.71238100  0.35768500  0.78830900  1
  O  O5  1  0.77840400  0.63410000  0.70572200  1
  O  O6  1  0.92499700  0.70804000  0.07296900  1
  O  O7  1  0.28499700  0.64357800  0.21346700  1
  O  O8  1  0.36328700  0.92885800  0.14666100  1
  O  O9  1  0.49970800  0.00141800  0.49896200  1
  O  O10  1  0.92879500  0.22109200  0.57556800  1
  O  O11  1  0.85399000  0.92813200  0.63128800  1
  O  O12  1  0.07131700  0.29286400  0.92772500  1
  O  O13  1  0.49603700  0.49994700  0.99817100  1
  O  O14  1  0.43990600  0.22100600  0.07188600  1
  O  O15  1  0.64353300  0.57283900  0.35486000  1
  O  O16  1  0.00037100  0.50132500  0.49843600  1
  O  O17  1  0.07214200  0.78487000  0.42799000  1
  O  O18  1  0.21930600  0.85378600  0.77896800  1
  O  O19  1  0.63334800  0.07180000  0.85253900  1
  O  O20  1  0.22177400  0.36529500  0.29380400  1
loop_
_geom_bond_atom_site_label_1
_geom_bond_atom_site_label_2
_geom_bond_distance
_geom_bond_site_symmetry_2
Nb0 O1 2.015559 1_455
Nb0 O2 2.020600 1_555
Nb0 O20 2.028804 1_555
Nb0 O10 2.047776 1_455
Nb0 O16 2.049293 1_555
Nb0 O3 2.055039 1_555
Nb1 O0 2.012634 1_555
Nb1 O5 2.020209 1_555
Nb1 O6 2.021293 1_556
Nb1 O3 2.047934 1_555
Nb1 O4 2.056189 1_555
Nb1 O13 2.058738 1_555
Nb2 O8 2.016048 1_555
Nb2 O6 2.017537 1_455
Nb2 O2 2.024459 1_565
Nb2 O17 2.047496 1_555
Nb2 O7 2.054636 1_555
Nb2 O9 2.058535 1_565
Nb3 O19 2.011333 1_555
Nb3 O11 2.021470 1_545
Nb3 O12 2.021874 1_655
Nb3 O9 2.053083 1_555
Nb3 O4 2.055674 1_555
Nb3 O10 2.056235 1_555
Nb4 O14 2.016463 1_555
Nb4 O20 2.017004 1_555
Nb4 O12 2.019914 1_554
Nb4 O15 2.051239 1_555
Nb4 O13 2.056494 1_554
Nb4 O7 2.057549 1_555
Nb5 O18 2.011974 1_655
Nb5 O11 2.022974 1_555
Nb5 O5 2.023445 1_555
Nb5 O17 2.049786 1_655
Nb5 O16 2.051069 1_655
Nb5 O15 2.061484 1_555
Nb6 O0 2.030415 1_555
Nb6 O18 2.037523 1_555
Nb6 O8 2.037546 1_556
Nb6 O19 2.039390 1_565
Nb6 O1 2.042920 1_566
Nb6 O14 2.044757 1_566
O0 Sr1 2.800546 1_555
O0 Sr2 2.861056 1_556
O0 Sr5 2.874192 1_555
O1 Sr0 2.781223 1_555
O1 Sr4 2.830255 1_555
O1 Sr2 2.887447 1_545
O2 Sr3 2.808327 1_555
O2 Sr2 2.856465 1_445
O2 Sr0 2.866449 1_555
O3 Sr5 2.878483 1_555
O3 Sr0 2.890175 1_555
O3 Sr1 2.893211 1_555
O3 Sr3 2.897513 1_555
O4 Sr4 2.857508 1_556
O4 Sr3 2.861440 1_555
O4 Sr1 2.885569 1_655
O4 Sr0 2.944451 1_555
O5 Sr0 2.856016 1_555
O5 Sr5 2.871993 1_555
O5 Sr1 2.899583 1_655
O6 Sr2 2.853473 1_555
O6 Sr4 2.862150 1_555
O6 Sr1 2.872864 1_654
O7 Sr1 2.848038 1_554
O7 Sr2 2.873413 1_555
O7 Sr5 2.898740 1_555
O7 Sr4 2.929731 1_455
O8 Sr0 2.814261 1_565
O8 Sr2 2.835235 1_555
O8 Sr1 2.883409 1_554
O9 Sr0 2.852446 1_555
O9 Sr5 2.889817 1_545
O9 Sr2 2.892406 1_545
O9 Sr3 2.892682 1_555
O10 Sr1 2.835342 1_655
O10 Sr0 2.891021 1_555
O10 Sr3 2.918959 1_655
O10 Sr2 2.948351 1_545
O11 Sr2 2.792509 1_555
O11 Sr3 2.867316 1_665
O11 Sr5 2.896631 1_555
O12 Sr1 2.797812 1_555
O12 Sr4 2.867750 1_456
O12 Sr3 2.882294 1_555
O13 Sr1 2.847005 1_555
O13 Sr3 2.859364 1_555
O13 Sr2 2.865309 1_556
O13 Sr4 2.902881 1_556
O14 Sr4 2.744542 1_555
O14 Sr3 2.836037 1_554
O14 Sr0 2.851541 1_555
O15 Sr2 2.846240 1_555
O15 Sr4 2.863319 1_555
O15 Sr0 2.911112 1_555
O15 Sr5 2.911266 1_555
O16 Sr4 2.862426 1_455
O16 Sr5 2.865678 1_555
O16 Sr1 2.916857 1_555
O16 Sr0 2.933368 1_455
O17 Sr5 2.862658 1_555
O17 Sr2 2.884228 1_455
O17 Sr3 2.898763 1_565
O17 Sr4 2.919714 1_455
O18 Sr5 2.781314 1_555
O18 Sr3 2.855026 1_565
O18 Sr1 2.902363 1_555
O19 Sr3 2.793960 1_555
O19 Sr4 2.842864 1_556
O19 Sr5 2.850490 1_545
O20 Sr0 2.824695 1_555
O20 Sr5 2.825686 1_555
O20 Sr4 2.904078 1_455
