# generated using pymatgen
data_Nd2Th8O19
_symmetry_space_group_name_H-M   'P 1'
_cell_length_a   3.97539800
_cell_length_b   3.97539800
_cell_length_c   28.16659600
_cell_angle_alpha   90.00000000
_cell_angle_beta   90.00000000
_cell_angle_gamma   90.00000000
_symmetry_Int_Tables_number   1
_chemical_formula_structural   Nd2Th8O19
_chemical_formula_sum   'Nd2 Th8 O19'
_cell_volume   445.13894731
_cell_formula_units_Z   1
loop_
 _symmetry_equiv_pos_site_id
 _symmetry_equiv_pos_as_xyz
  1  'x, y, z'
loop_
 _atom_site_type_symbol
 _atom_site_label
 _atom_site_symmetry_multiplicity
 _atom_site_fract_x
 _atom_site_fract_y
 _atom_site_fract_z
 _atom_site_occupancy
  Nd  Nd0  1  0.50000000  0.00000000  0.94385500  1
  Nd  Nd1  1  0.00000000  0.50000000  0.05614500  1
  Th  Th0  1  0.50000000  0.00000000  0.15027100  1
  Th  Th1  1  0.00000000  0.50000000  0.24993000  1
  Th  Th2  1  0.50000000  0.00000000  0.34967000  1
  Th  Th3  1  0.00000000  0.50000000  0.44963400  1
  Th  Th4  1  0.50000000  0.00000000  0.55036600  1
  Th  Th5  1  0.00000000  0.50000000  0.65033000  1
  Th  Th6  1  0.50000000  0.00000000  0.75007000  1
  Th  Th7  1  0.00000000  0.50000000  0.84972900  1
  O  O0  1  0.50000000  0.50000000  0.19839500  1
  O  O1  1  0.00000000  0.00000000  0.30000900  1
  O  O2  1  0.50000000  0.50000000  0.39969300  1
  O  O3  1  0.00000000  0.00000000  0.50000000  1
  O  O4  1  0.50000000  0.50000000  0.60030700  1
  O  O5  1  0.00000000  0.00000000  0.69999100  1
  O  O6  1  0.50000000  0.50000000  0.70041200  1
  O  O7  1  0.50000000  0.50000000  0.80160500  1
  O  O8  1  0.00000000  0.00000000  0.79747700  1
  O  O9  1  0.00000000  0.00000000  0.89475200  1
  O  O10  1  0.50000000  0.50000000  0.90449200  1
  O  O11  1  0.00000000  0.00000000  0.00000000  1
  O  O12  1  0.00000000  0.00000000  0.10524800  1
  O  O13  1  0.50000000  0.50000000  0.09550800  1
  O  O14  1  0.00000000  0.00000000  0.20252300  1
  O  O15  1  0.50000000  0.50000000  0.29958800  1
  O  O16  1  0.00000000  0.00000000  0.39955700  1
  O  O17  1  0.50000000  0.50000000  0.50000000  1
  O  O18  1  0.00000000  0.00000000  0.60044300  1
loop_
_geom_bond_atom_site_label_1
_geom_bond_atom_site_label_2
_geom_bond_distance
_geom_bond_site_symmetry_2
Nd0 O10 2.276008 1_555
Nd0 O10 2.276008 1_545
Nd0 O9 2.421531 1_555
Nd0 O9 2.421531 1_655
Nd0 O11 2.540043 1_556
Nd0 O11 2.540043 1_656
Nd1 O13 2.276008 1_555
Nd1 O13 2.276008 1_455
Nd1 O12 2.421531 1_555
Nd1 O12 2.421531 1_565
Nd1 O11 2.540043 1_555
Nd1 O11 2.540043 1_565
O0 Th0 2.405888 1_555
O0 Th0 2.405888 1_565
O0 Th1 2.461298 1_555
O0 Th1 2.461298 1_655
O1 Th2 2.430542 1_455
O1 Th2 2.430542 1_555
O1 Th1 2.437337 1_545
O1 Th1 2.437337 1_555
O2 Th3 2.435090 1_555
O2 Th3 2.435090 1_655
O2 Th2 2.436425 1_555
O2 Th2 2.436425 1_565
O3 Th4 2.442024 1_555
O3 Th4 2.442024 1_455
O3 Th3 2.442024 1_555
O3 Th3 2.442024 1_545
O4 Th4 2.435090 1_565
O4 Th4 2.435090 1_555
O4 Th5 2.436425 1_655
O4 Th5 2.436425 1_555
O5 Th5 2.430542 1_545
O5 Th5 2.430542 1_555
O5 Th6 2.437337 1_455
O5 Th6 2.437337 1_555
O6 Th6 2.430494 1_565
O6 Th6 2.430494 1_555
O6 Th5 2.437386 1_555
O6 Th5 2.437386 1_655
O7 Th7 2.405888 1_655
O7 Th7 2.405888 1_555
O7 Th6 2.461298 1_555
O7 Th6 2.461298 1_565
O8 Th6 2.394568 1_455
O8 Th6 2.394568 1_555
O8 Th7 2.473263 1_545
O8 Th7 2.473263 1_555
O9 Th7 2.357782 1_555
O9 Th7 2.357782 1_545
O10 Th7 2.515992 1_655
O10 Th7 2.515992 1_555
O12 Th0 2.357782 1_455
O12 Th0 2.357782 1_555
O13 Th0 2.515992 1_565
O13 Th0 2.515992 1_555
O14 Th1 2.394568 1_545
O14 Th1 2.394568 1_555
O14 Th0 2.473263 1_555
O14 Th0 2.473263 1_455
O15 Th1 2.430494 1_655
O15 Th1 2.430494 1_555
O15 Th2 2.437386 1_555
O15 Th2 2.437386 1_565
O16 Th2 2.434211 1_455
O16 Th2 2.434211 1_555
O16 Th3 2.437305 1_555
O16 Th3 2.437305 1_545
O17 Th4 2.442024 1_555
O17 Th3 2.442024 1_555
O17 Th4 2.442024 1_565
O17 Th3 2.442024 1_655
O18 Th5 2.434211 1_555
O18 Th5 2.434211 1_545
O18 Th4 2.437305 1_555
O18 Th4 2.437305 1_455
