# generated using pymatgen
data_Ba4In6O13
_symmetry_space_group_name_H-M   'P 1'
_cell_length_a   12.62686594
_cell_length_b   12.62686594
_cell_length_c   12.62686594
_cell_angle_alpha   153.06323043
_cell_angle_beta   123.02968383
_cell_angle_gamma   64.11409648
_symmetry_Int_Tables_number   1
_chemical_formula_structural   Ba4In6O13
_chemical_formula_sum   'Ba8 In12 O26'
_cell_volume   758.12040662
_cell_formula_units_Z   2
loop_
 _symmetry_equiv_pos_site_id
 _symmetry_equiv_pos_as_xyz
  1  'x, y, z'
loop_
 _atom_site_type_symbol
 _atom_site_label
 _atom_site_symmetry_multiplicity
 _atom_site_fract_x
 _atom_site_fract_y
 _atom_site_fract_z
 _atom_site_occupancy
  Ba  Ba0  1  0.02761400  0.16186100  0.87697100  1
  Ba  Ba1  1  0.71511000  0.34935700  0.37697100  1
  Ba  Ba2  1  0.21279500  0.34047300  0.87906500  1
  Ba  Ba3  1  0.28489000  0.66186100  0.63424700  1
  Ba  Ba4  1  0.97238600  0.84935700  0.13424700  1
  Ba  Ba5  1  0.46140800  0.84047300  0.62767800  1
  Ba  Ba6  1  0.78720500  0.66626900  0.12767800  1
  Ba  Ba7  1  0.53859200  0.16626900  0.37906500  1
  In  In0  1  0.34451100  0.96180100  0.39991300  1
  In  In1  1  0.08795300  0.51920200  0.68268400  1
  In  In2  1  0.56188800  0.46180100  0.11729100  1
  In  In3  1  0.37362500  0.25228100  0.12672500  1
  In  In4  1  0.62637500  0.75310000  0.87865600  1
  In  In5  1  0.65548900  0.05540300  0.61729100  1
  In  In6  1  0.91204700  0.59473000  0.43124900  1
  In  In7  1  0.43811200  0.55540300  0.89991300  1
  In  In8  1  0.16348100  0.09473000  0.18268400  1
  In  In9  1  0.83651900  0.01920200  0.93124900  1
  In  In10  1  0.12555600  0.75228100  0.37865600  1
  In  In11  1  0.87444400  0.25310000  0.62672500  1
  O  O0  1  0.49647800  0.99972700  0.00244700  1
  O  O1  1  0.99185900  0.36543200  0.62316700  1
  O  O2  1  0.46648600  0.92473300  0.29981300  1
  O  O3  1  0.25181900  0.42947600  0.61295500  1
  O  O4  1  0.74818100  0.36113600  0.17765700  1
  O  O5  1  0.37508000  0.33332700  0.79981300  1
  O  O6  1  0.00814100  0.63130800  0.37357400  1
  O  O7  1  0.00000000  0.28301600  0.28301600  1
  O  O8  1  0.00000000  0.78301600  0.78301600  1
  O  O9  1  0.53351400  0.83332700  0.45824700  1
  O  O10  1  0.50352200  0.50596900  0.50324900  1
  O  O11  1  0.24117500  0.99975400  0.75433300  1
  O  O12  1  0.75882500  0.51315800  0.75858000  1
  O  O13  1  0.47683600  0.33764900  0.10199700  1
  O  O14  1  0.99728000  0.49972700  0.00324900  1
  O  O15  1  0.75457900  0.01315800  0.25433300  1
  O  O16  1  0.00272000  0.00596900  0.50244700  1
  O  O17  1  0.25773500  0.13130800  0.12316700  1
  O  O18  1  0.23565200  0.83764900  0.36081300  1
  O  O19  1  0.18347900  0.86113600  0.11295500  1
  O  O20  1  0.76434800  0.12516200  0.60199700  1
  O  O21  1  0.52316400  0.62516200  0.86081300  1
  O  O22  1  0.24542100  0.49975400  0.25858000  1
  O  O23  1  0.62492000  0.42473300  0.95824700  1
  O  O24  1  0.81652100  0.92947600  0.67765700  1
  O  O25  1  0.74226500  0.86543200  0.87357400  1
loop_
_geom_bond_atom_site_label_1
_geom_bond_atom_site_label_2
_geom_bond_distance
_geom_bond_site_symmetry_2
Ba0 O11 2.817885 1_545
Ba0 O14 2.828370 1_456
Ba0 O22 2.851006 1_556
Ba0 O24 2.897869 1_445
Ba0 O6 2.941339 1_556
Ba0 O16 2.942713 1_555
Ba0 O6 3.025280 1_545
Ba0 O20 3.035510 1_455
Ba0 O17 3.093254 1_556
Ba1 O15 2.817885 1_555
Ba1 O10 2.828370 1_555
Ba1 O12 2.851020 1_555
Ba1 O4 2.897869 1_555
Ba1 O25 2.941335 1_555
Ba1 O0 2.942713 1_545
Ba1 O25 3.025276 1_544
Ba1 O13 3.035505 1_555
Ba1 O1 3.093254 1_555
Ba2 O5 2.668628 1_555
Ba2 O16 2.776435 1_555
Ba2 O18 2.841751 1_556
Ba2 O14 2.856457 1_456
Ba2 O11 2.881950 1_545
Ba2 O22 2.926696 1_556
Ba2 O13 2.980749 1_556
Ba2 O1 3.089298 1_455
Ba2 O18 3.097651 1_545
Ba3 O22 2.817873 1_555
Ba3 O0 2.828370 1_556
Ba3 O11 2.851008 1_555
Ba3 O3 2.897869 1_555
Ba3 O17 2.941334 1_566
Ba3 O10 2.942713 1_555
Ba3 O17 3.025281 1_555
Ba3 O21 3.035498 1_555
Ba3 O6 3.093250 1_555
Ba4 O12 2.817888 1_554
Ba4 O16 2.828370 1_665
Ba4 O15 2.851008 1_565
Ba4 O19 2.897869 1_655
Ba4 O1 2.941334 1_565
Ba4 O14 2.942713 1_555
Ba4 O1 3.025281 1_554
Ba4 O18 3.035505 1_655
Ba4 O25 3.093247 1_554
Ba5 O9 2.668628 1_555
Ba5 O10 2.776435 1_555
Ba5 O13 2.841751 1_566
Ba5 O0 2.856457 1_556
Ba5 O22 2.881953 1_555
Ba5 O11 2.926684 1_555
Ba5 O18 2.980749 1_555
Ba5 O25 3.089301 1_555
Ba5 O13 3.097651 1_555
Ba6 O23 2.668619 1_554
Ba6 O14 2.776437 1_555
Ba6 O20 2.841754 1_565
Ba6 O16 2.856463 1_665
Ba6 O12 2.881947 1_554
Ba6 O15 2.926696 1_565
Ba6 O21 2.980757 1_554
Ba6 O6 3.089298 1_655
Ba6 O20 3.097643 1_554
Ba7 O2 2.668616 1_545
Ba7 O0 2.776444 1_545
Ba7 O21 2.841753 1_555
Ba7 O10 2.856469 1_555
Ba7 O15 2.881953 1_555
Ba7 O12 2.926687 1_555
Ba7 O20 2.980734 1_555
Ba7 O17 3.089301 1_555
Ba7 O21 3.097642 1_544
In0 O18 2.086231 1_555
In0 O2 2.150965 1_555
In0 O5 2.207643 1_565
In0 O19 2.211811 1_555
In0 O9 2.388178 1_555
In1 O1 2.065984 1_455
In1 O3 2.121451 1_555
In1 O8 2.171136 1_555
In1 O19 2.278645 1_556
In1 O7 2.354234 1_555
In2 O13 2.086221 1_555
In2 O23 2.150977 1_554
In2 O9 2.207641 1_555
In2 O4 2.211808 1_555
In2 O5 2.388185 1_554
In3 O22 2.098096 1_555
In3 O11 2.103459 1_544
In3 O0 2.109511 1_545
In3 O10 2.118287 1_555
In3 O13 2.286516 1_555
In3 O17 2.496865 1_555
In4 O15 2.098098 1_566
In4 O12 2.103461 1_555
In4 O10 2.109511 1_555
In4 O0 2.118287 1_556
In4 O21 2.286505 1_555
In4 O25 2.496854 1_555
In5 O20 2.086242 1_555
In5 O9 2.150967 1_545
In5 O23 2.207637 1_555
In5 O24 2.211813 1_545
In5 O2 2.388180 1_545
In6 O6 2.065983 1_655
In6 O4 2.121445 1_555
In6 O8 2.171130 1_655
In6 O24 2.278650 1_555
In6 O7 2.354224 1_655
In7 O21 2.086231 1_555
In7 O5 2.150977 1_555
In7 O2 2.207641 1_556
In7 O3 2.211808 1_555
In7 O23 2.388185 1_555
In8 O17 2.066005 1_555
In8 O19 2.121435 1_545
In8 O7 2.171128 1_555
In8 O3 2.278644 1_555
In8 O8 2.354226 1_544
In9 O25 2.066004 1_545
In9 O24 2.121445 1_545
In9 O7 2.171130 1_656
In9 O4 2.278650 1_556
In9 O8 2.354224 1_645
In10 O11 2.098098 1_555
In10 O22 2.103462 1_555
In10 O14 2.109511 1_455
In10 O16 2.118287 1_565
In10 O18 2.286516 1_555
In10 O6 2.496875 1_555
In11 O12 2.098095 1_555
In11 O15 2.103459 1_555
In11 O16 2.109511 1_655
In11 O14 2.118287 1_556
In11 O20 2.286505 1_555
In11 O1 2.496865 1_555
