# generated using pymatgen
data_H3NO4
_symmetry_space_group_name_H-M   'P 1'
_cell_length_a   5.30974600
_cell_length_b   6.61443900
_cell_length_c   8.37238600
_cell_angle_alpha   90.00000000
_cell_angle_beta   90.00000000
_cell_angle_gamma   90.00000000
_symmetry_Int_Tables_number   1
_chemical_formula_structural   H3NO4
_chemical_formula_sum   'H12 N4 O16'
_cell_volume   294.04649354
_cell_formula_units_Z   4
loop_
 _symmetry_equiv_pos_site_id
 _symmetry_equiv_pos_as_xyz
  1  'x, y, z'
loop_
 _atom_site_type_symbol
 _atom_site_label
 _atom_site_symmetry_multiplicity
 _atom_site_fract_x
 _atom_site_fract_y
 _atom_site_fract_z
 _atom_site_occupancy
  H  H0  1  0.33339500  0.10108100  0.83033800  1
  H  H1  1  0.64234700  0.09180400  0.81856900  1
  H  H2  1  0.47755700  0.14429200  0.66235800  1
  H  H3  1  0.14234700  0.90819600  0.18143100  1
  H  H4  1  0.97755700  0.85570800  0.33764200  1
  H  H5  1  0.83339500  0.89891900  0.16966200  1
  H  H6  1  0.14234700  0.40819600  0.31856900  1
  H  H7  1  0.97755700  0.35570800  0.16235800  1
  H  H8  1  0.83339500  0.39891900  0.33033800  1
  H  H9  1  0.47755700  0.64429200  0.83764200  1
  H  H10  1  0.33339500  0.60108100  0.66966200  1
  H  H11  1  0.64234700  0.59180400  0.68143100  1
  N  N0  1  0.97768900  0.21512500  0.60406300  1
  N  N1  1  0.47768900  0.78487500  0.39593700  1
  N  N2  1  0.47768900  0.28487500  0.10406300  1
  N  N3  1  0.97768900  0.71512500  0.89593700  1
  O  O0  1  0.18594600  0.26617400  0.54202200  1
  O  O1  1  0.68594600  0.73382600  0.45797800  1
  O  O2  1  0.68594600  0.23382600  0.04202200  1
  O  O3  1  0.18594600  0.76617400  0.95797800  1
  O  O4  1  0.77148800  0.25714300  0.53339400  1
  O  O5  1  0.27148800  0.74285700  0.46660600  1
  O  O6  1  0.27148800  0.24285700  0.03339400  1
  O  O7  1  0.77148800  0.75714300  0.96660600  1
  O  O8  1  0.97435200  0.12195700  0.73624400  1
  O  O9  1  0.47435200  0.87804300  0.26375600  1
  O  O10  1  0.47435200  0.37804300  0.23624400  1
  O  O11  1  0.97435200  0.62195700  0.76375600  1
  O  O12  1  0.48015000  0.05905300  0.76191300  1
  O  O13  1  0.98015000  0.94094700  0.23808700  1
  O  O14  1  0.98015000  0.44094700  0.26191300  1
  O  O15  1  0.48015000  0.55905300  0.73808700  1
loop_
_geom_bond_atom_site_label_1
_geom_bond_atom_site_label_2
_geom_bond_distance
_geom_bond_site_symmetry_2
H0 O12 1.006317 1_555
H1 O12 1.006797 1_555
H2 O12 1.006386 1_555
H3 O13 1.006797 1_455
H4 O13 1.006386 1_555
H5 O13 1.006317 1_555
H6 O14 1.006797 1_455
H7 O14 1.006386 1_555
H8 O14 1.006317 1_555
H9 O15 1.006386 1_555
H10 O15 1.006317 1_555
H11 O15 1.006797 1_555
N0 O8 1.266808 1_555
N0 O0 1.267517 1_655
N0 O4 1.275172 1_555
N1 O9 1.266808 1_555
N1 O1 1.267517 1_555
N1 O5 1.275172 1_555
N2 O10 1.266808 1_555
N2 O2 1.267517 1_555
N2 O6 1.275172 1_555
N3 O11 1.266808 1_555
N3 O3 1.267517 1_655
N3 O7 1.275172 1_555
