# generated using pymatgen
data_K2ZnGeO4
_symmetry_space_group_name_H-M   'P 1'
_cell_length_a   5.62939700
_cell_length_b   11.29272400
_cell_length_c   16.05042600
_cell_angle_alpha   90.00000000
_cell_angle_beta   90.00000000
_cell_angle_gamma   90.00000000
_symmetry_Int_Tables_number   1
_chemical_formula_structural   K2ZnGeO4
_chemical_formula_sum   'K16 Zn8 Ge8 O32'
_cell_volume   1020.34526839
_cell_formula_units_Z   8
loop_
 _symmetry_equiv_pos_site_id
 _symmetry_equiv_pos_as_xyz
  1  'x, y, z'
loop_
 _atom_site_type_symbol
 _atom_site_label
 _atom_site_symmetry_multiplicity
 _atom_site_fract_x
 _atom_site_fract_y
 _atom_site_fract_z
 _atom_site_occupancy
  K  K0  1  0.95525300  0.73477300  0.99501500  1
  K  K1  1  0.04474700  0.26522700  0.49501500  1
  K  K2  1  0.04474700  0.23477300  0.99501500  1
  K  K3  1  0.95525300  0.76522700  0.49501500  1
  K  K4  1  0.45371000  0.73208300  0.12767200  1
  K  K5  1  0.54629000  0.26791700  0.62767200  1
  K  K6  1  0.54629000  0.23208300  0.12767200  1
  K  K7  1  0.45371000  0.76791700  0.62767200  1
  K  K8  1  0.99400200  0.51506700  0.37356300  1
  K  K9  1  0.00599800  0.48493300  0.87356300  1
  K  K10  1  0.00599800  0.01506700  0.37356300  1
  K  K11  1  0.49154900  0.98644800  0.25289500  1
  K  K12  1  0.49154900  0.51355200  0.75289500  1
  K  K13  1  0.50845100  0.48644800  0.25289500  1
  K  K14  1  0.50845100  0.01355200  0.75289500  1
  K  K15  1  0.99400200  0.98493300  0.87356300  1
  Zn  Zn0  1  0.48630500  0.51012500  0.50167400  1
  Zn  Zn1  1  0.03017000  0.23910200  0.24800800  1
  Zn  Zn2  1  0.03017000  0.26089800  0.74800800  1
  Zn  Zn3  1  0.96983000  0.73910200  0.24800800  1
  Zn  Zn4  1  0.48630500  0.98987500  0.00167400  1
  Zn  Zn5  1  0.51369500  0.01012500  0.50167400  1
  Zn  Zn6  1  0.51369500  0.48987500  0.00167400  1
  Zn  Zn7  1  0.96983000  0.76089800  0.74800800  1
  Ge  Ge0  1  0.98345300  0.99018000  0.12355100  1
  Ge  Ge1  1  0.01654700  0.00982000  0.62355100  1
  Ge  Ge2  1  0.01654700  0.49018000  0.12355100  1
  Ge  Ge3  1  0.98345300  0.50982000  0.62355100  1
  Ge  Ge4  1  0.47305600  0.76450700  0.37781800  1
  Ge  Ge5  1  0.52694400  0.23549300  0.87781800  1
  Ge  Ge6  1  0.52694400  0.26450700  0.37781800  1
  Ge  Ge7  1  0.47305600  0.73549300  0.87781800  1
  O  O0  1  0.70782000  0.51314500  0.10442400  1
  O  O1  1  0.29218000  0.48685500  0.60442400  1
  O  O2  1  0.29218000  0.01314500  0.10442400  1
  O  O3  1  0.70782000  0.98685500  0.60442400  1
  O  O4  1  0.17721500  0.52525100  0.03058400  1
  O  O5  1  0.82278500  0.47474900  0.53058400  1
  O  O6  1  0.82278500  0.02525100  0.03058400  1
  O  O7  1  0.17721500  0.97474900  0.53058400  1
  O  O8  1  0.61100300  0.60100200  0.91129700  1
  O  O9  1  0.38899700  0.39899800  0.41129700  1
  O  O10  1  0.38899700  0.10100200  0.91129700  1
  O  O11  1  0.61100300  0.89899800  0.41129700  1
  O  O12  1  0.10268400  0.58442200  0.20775300  1
  O  O13  1  0.89731600  0.41557800  0.70775300  1
  O  O14  1  0.89731600  0.08442200  0.20775300  1
  O  O15  1  0.91032700  0.84029000  0.14963000  1
  O  O16  1  0.20315600  0.69360100  0.82744600  1
  O  O17  1  0.79684400  0.30639900  0.32744600  1
  O  O18  1  0.79684400  0.19360100  0.82744600  1
  O  O19  1  0.20315600  0.80639900  0.32744600  1
  O  O20  1  0.67208900  0.69246700  0.30777100  1
  O  O21  1  0.32791100  0.30753300  0.80777100  1
  O  O22  1  0.32791100  0.19246700  0.30777100  1
  O  O23  1  0.67208900  0.80753300  0.80777100  1
  O  O24  1  0.40981400  0.67489300  0.46639900  1
  O  O25  1  0.59018600  0.32510700  0.96639900  1
  O  O26  1  0.59018600  0.17489300  0.46639900  1
  O  O27  1  0.40981400  0.82510700  0.96639900  1
  O  O28  1  0.91032700  0.65971000  0.64963000  1
  O  O29  1  0.08967300  0.34029000  0.14963000  1
  O  O30  1  0.08967300  0.15971000  0.64963000  1
  O  O31  1  0.10268400  0.91557800  0.70775300  1
loop_
_geom_bond_atom_site_label_1
_geom_bond_atom_site_label_2
_geom_bond_distance
_geom_bond_site_symmetry_2
K0 O4 2.735966 1_656
K0 O15 2.764477 1_556
K0 O27 2.792774 1_655
K0 O8 2.800557 1_555
K0 O16 3.065521 1_655
K1 O5 2.735966 1_455
K1 O30 2.764477 1_555
K1 O26 2.792774 1_455
K1 O9 2.800557 1_555
K1 O17 3.065521 1_455
K2 O6 2.735966 1_456
K2 O29 2.764477 1_556
K2 O25 2.792774 1_455
K2 O10 2.800557 1_555
K2 O18 3.065521 1_455
K3 O7 2.735966 1_655
K3 O28 2.764477 1_555
K3 O24 2.792774 1_655
K3 O11 2.800557 1_555
K3 O19 3.065521 1_655
K4 O27 2.804449 1_554
K4 O15 2.867880 1_555
K4 O0 2.880680 1_555
K4 O12 2.887465 1_555
K4 O20 3.172912 1_555
K4 O4 3.210371 1_555
K4 O15 3.312757 1_455
K4 O2 3.322662 1_565
K5 O26 2.804449 1_555
K5 O30 2.867880 1_555
K5 O1 2.880680 1_555
K5 O13 2.887465 1_555
K5 O21 3.172912 1_555
K5 O5 3.210371 1_555
K5 O30 3.312757 1_655
K5 O3 3.322662 1_545
K6 O25 2.804449 1_554
K6 O29 2.867880 1_555
K6 O2 2.880680 1_555
K6 O14 2.887465 1_555
K6 O22 3.172912 1_555
K6 O6 3.210371 1_555
K6 O29 3.312757 1_655
K6 O0 3.322662 1_555
K7 O24 2.804449 1_555
K7 O28 2.867880 1_555
K7 O3 2.880680 1_555
K7 O31 2.887465 1_555
K7 O23 3.172912 1_555
K7 O7 3.210371 1_555
K7 O28 3.312757 1_455
K7 O1 3.322662 1_555
K8 O9 2.651256 1_655
K8 O17 2.707857 1_555
K8 O5 2.736418 1_555
K8 O12 2.840838 1_655
K8 O20 2.900418 1_555
K9 O8 2.651256 1_455
K9 O16 2.707857 1_555
K9 O4 2.736418 1_556
K9 O13 2.840838 1_455
K9 O21 2.900418 1_555
K10 O11 2.651256 1_445
K10 O19 2.707857 1_545
K10 O7 2.736418 1_545
K10 O14 2.840838 1_455
K10 O22 2.900418 1_555
K11 O14 2.639461 1_565
K11 O2 2.651284 1_565
K11 O22 2.652741 1_565
K11 O11 2.809154 1_555
K11 O19 2.863836 1_555
K12 O13 2.639461 1_555
K12 O1 2.651284 1_555
K12 O21 2.652741 1_555
K12 O8 2.809154 1_555
K12 O16 2.863836 1_555
K13 O12 2.639461 1_555
K13 O0 2.651284 1_555
K13 O20 2.652741 1_555
K13 O9 2.809154 1_555
K13 O17 2.863836 1_555
K14 O31 2.639461 1_545
K14 O3 2.651284 1_545
K14 O23 2.652741 1_545
K14 O10 2.809154 1_555
K14 O18 2.863836 1_555
K15 O10 2.651256 1_665
K15 O18 2.707857 1_565
K15 O6 2.736418 1_566
K15 O31 2.840838 1_655
K15 O23 2.900418 1_555
Ge0 O2 1.783805 1_665
Ge0 O14 1.787245 1_565
Ge0 O6 1.789260 1_565
Ge0 O15 1.791588 1_555
Ge1 O3 1.783805 1_445
Ge1 O31 1.787245 1_545
Ge1 O7 1.789260 1_545
Ge1 O30 1.791588 1_555
Ge2 O0 1.783805 1_455
Ge2 O12 1.787245 1_555
Ge2 O4 1.789260 1_555
Ge2 O29 1.791588 1_555
Ge3 O1 1.783805 1_655
Ge3 O13 1.787245 1_555
Ge3 O5 1.789260 1_555
Ge3 O28 1.791588 1_555
Ge4 O24 1.781087 1_555
Ge4 O20 1.783597 1_555
Ge4 O19 1.784925 1_555
Ge4 O11 1.788422 1_555
Ge5 O25 1.781087 1_555
Ge5 O21 1.783597 1_555
Ge5 O18 1.784925 1_555
Ge5 O10 1.788422 1_555
Ge6 O26 1.781087 1_555
Ge6 O22 1.783597 1_555
Ge6 O17 1.784925 1_555
Ge6 O9 1.788422 1_555
Ge7 O27 1.781087 1_555
Ge7 O23 1.783597 1_555
Ge7 O16 1.784925 1_555
Ge7 O8 1.788422 1_555
O0 Zn6 1.995765 1_555
O1 Zn0 1.995765 1_555
O2 Zn4 1.995765 1_545
O3 Zn5 1.995765 1_565
O4 Zn6 1.990684 1_555
O5 Zn0 1.990684 1_555
O6 Zn4 1.990684 1_545
O7 Zn5 1.990684 1_565
O8 Zn6 1.994773 1_556
O9 Zn0 1.994773 1_555
O10 Zn4 1.994773 1_546
O11 Zn5 1.994773 1_565
O12 Zn3 2.006978 1_455
O13 Zn2 2.006978 1_655
O14 Zn1 2.006978 1_655
O15 Zn3 1.977677 1_555
O16 Zn7 1.982032 1_455
O17 Zn1 1.982032 1_655
O18 Zn2 1.982032 1_655
O19 Zn3 1.982032 1_455
O20 Zn3 2.001692 1_555
O21 Zn2 2.001692 1_555
O22 Zn1 2.001692 1_555
O23 Zn7 2.001692 1_555
O24 Zn0 1.992009 1_555
O25 Zn6 1.992009 1_556
O26 Zn5 1.992009 1_555
O27 Zn4 1.992009 1_556
O28 Zn7 1.977677 1_555
O29 Zn1 1.977677 1_555
O30 Zn2 1.977677 1_555
O31 Zn7 2.006978 1_455
