# generated using pymatgen
data_ScNb6Cl13O3
_symmetry_space_group_name_H-M   'P 1'
_cell_length_a   27.39275215
_cell_length_b   27.39275215
_cell_length_c   27.39275215
_cell_angle_alpha   160.59714727
_cell_angle_beta   160.59714727
_cell_angle_gamma   27.57418415
_symmetry_Int_Tables_number   1
_chemical_formula_structural   ScNb6Cl13O3
_chemical_formula_sum   'Sc4 Nb24 Cl52 O12'
_cell_volume   2267.47159079
_cell_formula_units_Z   4
loop_
 _symmetry_equiv_pos_site_id
 _symmetry_equiv_pos_as_xyz
  1  'x, y, z'
loop_
 _atom_site_type_symbol
 _atom_site_label
 _atom_site_symmetry_multiplicity
 _atom_site_fract_x
 _atom_site_fract_y
 _atom_site_fract_z
 _atom_site_occupancy
  Sc  Sc0  1  0.09415600  0.09415600  0.00000000  1
  Sc  Sc1  1  0.90584400  0.90584400  0.00000000  1
  Sc  Sc2  1  0.84415600  0.34415600  0.50000000  1
  Sc  Sc3  1  0.65584400  0.15584400  0.50000000  1
  Nb  Nb0  1  0.82406900  0.38459300  0.27656800  1
  Nb  Nb1  1  0.71388000  0.93281500  0.96521400  1
  Nb  Nb2  1  0.68281500  0.21760100  0.71893500  1
  Nb  Nb3  1  0.92981900  0.00580700  0.30886900  1
  Nb  Nb4  1  0.78239900  0.31718500  0.28106500  1
  Nb  Nb5  1  0.05306200  0.24419300  0.42401200  1
  Nb  Nb6  1  0.29750100  0.07406900  0.93947600  1
  Nb  Nb7  1  0.75580700  0.94693800  0.57598800  1
  Nb  Nb8  1  0.61540700  0.17593100  0.72343200  1
  Nb  Nb9  1  0.10802500  0.54750100  0.72343200  1
  Nb  Nb10  1  0.06718500  0.28612000  0.03478600  1
  Nb  Nb11  1  0.92593100  0.70249900  0.06052400  1
  Nb  Nb12  1  0.25133400  0.03239900  0.96521400  1
  Nb  Nb13  1  0.82018100  0.62905000  0.57598800  1
  Nb  Nb14  1  0.37095000  0.17981900  0.42401200  1
  Nb  Nb15  1  0.64197500  0.86540700  0.93947600  1
  Nb  Nb16  1  0.96760100  0.74866600  0.03478600  1
  Nb  Nb17  1  0.45249900  0.89197500  0.27656800  1
  Nb  Nb18  1  0.69693800  0.62095000  0.69113100  1
  Nb  Nb19  1  0.03612000  0.50133400  0.71893500  1
  Nb  Nb20  1  0.99419300  0.07018100  0.69113100  1
  Nb  Nb21  1  0.13459300  0.35802500  0.06052400  1
  Nb  Nb22  1  0.49866600  0.96388000  0.28106500  1
  Nb  Nb23  1  0.37905000  0.30306200  0.30886900  1
  Cl  Cl0  1  0.39744700  0.33287400  0.66755500  1
  Cl  Cl1  1  0.99161300  0.78713300  0.83781800  1
  Cl  Cl2  1  0.69734500  0.87862400  0.71856300  1
  Cl  Cl3  1  0.71591800  0.80159600  0.32503400  1
  Cl  Cl4  1  0.49392500  0.00390300  0.87265400  1
  Cl  Cl5  1  0.00259100  0.50259100  0.50000000  1
  Cl  Cl6  1  0.61875100  0.24609700  0.99002200  1
  Cl  Cl7  1  0.84620500  0.05068500  0.83781800  1
  Cl  Cl8  1  0.16006100  0.97878200  0.28143700  1
  Cl  Cl9  1  0.66712600  0.60255300  0.33244500  1
  Cl  Cl10  1  0.25607500  0.62872900  0.00997800  1
  Cl  Cl11  1  0.67235300  0.32764700  0.00000000  1
  Cl  Cl12  1  0.37872900  0.86875100  0.87265400  1
  Cl  Cl13  1  0.08287400  0.91531900  0.43542700  1
  Cl  Cl14  1  0.72878200  0.94734500  0.31872100  1
  Cl  Cl15  1  0.60599000  0.12500000  0.98099000  1
  Cl  Cl16  1  0.99609700  0.50607500  0.12734600  1
  Cl  Cl17  1  0.66531900  0.72989200  0.33244500  1
  Cl  Cl18  1  0.62862400  0.41006100  0.68127900  1
  Cl  Cl19  1  0.80068500  0.46286700  0.70448000  1
  Cl  Cl20  1  0.49740900  0.99740900  0.50000000  1
  Cl  Cl21  1  0.94931500  0.15379500  0.16218200  1
  Cl  Cl22  1  0.13124900  0.62127100  0.12734600  1
  Cl  Cl23  1  0.47656200  0.39088300  0.67496600  1
  Cl  Cl24  1  0.55159600  0.72656200  0.58567900  1
  Cl  Cl25  1  0.27343800  0.44840400  0.41432100  1
  Cl  Cl26  1  0.19840400  0.28408200  0.67496600  1
  Cl  Cl27  1  0.75390300  0.38124900  0.00997800  1
  Cl  Cl28  1  0.05265500  0.27121800  0.68127900  1
  Cl  Cl29  1  0.35255300  0.52010800  0.43542700  1
  Cl  Cl30  1  0.25259100  0.25259100  0.00000000  1
  Cl  Cl31  1  0.42235300  0.92235300  0.84470700  1
  Cl  Cl32  1  0.87500000  0.39401000  0.01901000  1
  Cl  Cl33  1  0.21286700  0.00838700  0.16218200  1
  Cl  Cl34  1  0.08468100  0.91712600  0.56457300  1
  Cl  Cl35  1  0.53713300  0.19931500  0.29552000  1
  Cl  Cl36  1  0.60911700  0.52343800  0.32503400  1
  Cl  Cl37  1  0.37127100  0.74392500  0.99002200  1
  Cl  Cl38  1  0.14088300  0.96591800  0.41432100  1
  Cl  Cl39  1  0.14401000  0.62500000  0.01901000  1
  Cl  Cl40  1  0.02121800  0.83993900  0.71856300  1
  Cl  Cl41  1  0.75838700  0.09620500  0.29552000  1
  Cl  Cl42  1  0.90379500  0.24161300  0.70448000  1
  Cl  Cl43  1  0.12137600  0.30265500  0.28143700  1
  Cl  Cl44  1  0.07764700  0.57764700  0.15529300  1
  Cl  Cl45  1  0.03408200  0.85911700  0.58567900  1
  Cl  Cl46  1  0.58993900  0.37137600  0.31872100  1
  Cl  Cl47  1  0.32764700  0.67235300  0.00000000  1
  Cl  Cl48  1  0.27010800  0.33468100  0.66755500  1
  Cl  Cl49  1  0.37500000  0.85599000  0.98099000  1
  Cl  Cl50  1  0.47989200  0.64744700  0.56457300  1
  Cl  Cl51  1  0.74740900  0.74740900  0.00000000  1
  O  O0  1  0.92769000  0.68961800  0.79574000  1
  O  O1  1  0.82231000  0.11805000  0.26192800  1
  O  O2  1  0.86805000  0.10612200  0.79574000  1
  O  O3  1  0.13178900  0.13178900  0.00000000  1
  O  O4  1  0.31038200  0.07231000  0.20426000  1
  O  O5  1  0.86821100  0.86821100  0.00000000  1
  O  O6  1  0.61821100  0.11821100  0.50000000  1
  O  O7  1  0.43961800  0.14387800  0.26192800  1
  O  O8  1  0.85612200  0.56038200  0.73807200  1
  O  O9  1  0.88178900  0.38178900  0.50000000  1
  O  O10  1  0.88195000  0.17769000  0.73807200  1
  O  O11  1  0.89387800  0.13195000  0.20426000  1
loop_
_geom_bond_atom_site_label_1
_geom_bond_atom_site_label_2
_geom_bond_distance
_geom_bond_site_symmetry_2
Nb1 O1 2.002461 1_566
Nb1 O5 2.056844 1_556
Nb2 O2 2.002461 1_555
Nb2 O6 2.056844 1_555
Nb3 O1 2.010416 1_555
Nb4 O11 2.002461 1_555
Nb4 O9 2.056844 1_555
Nb5 O11 2.010416 1_455
Nb7 O2 2.010416 1_565
Nb10 O10 2.002461 1_454
Nb10 O3 2.056844 1_555
Nb12 O7 2.002461 1_556
Nb12 O3 2.056844 1_556
Nb13 O0 2.010416 1_555
Nb14 O4 2.010416 1_555
Nb16 O8 2.002461 1_554
Nb16 O5 2.056844 1_555
Nb18 O8 2.010416 1_555
Nb19 O0 2.002461 1_455
Nb19 O9 2.056844 1_455
Nb20 O10 2.010416 1_555
Nb22 O4 2.002461 1_565
Nb22 O6 2.056844 1_565
Nb23 O7 2.010416 1_555
Cl0 Nb14 2.471515 1_555
Cl0 Nb8 2.478212 1_555
Cl1 Nb9 2.452579 1_655
Cl1 Nb13 2.484251 1_555
Cl2 Sc1 2.501043 1_556
Cl2 Nb13 2.637077 1_555
Cl3 Nb7 2.492969 1_555
Cl3 Nb22 2.511323 1_555
Cl4 Nb15 2.451647 1_545
Cl4 Nb1 2.493759 1_545
Cl5 Nb0 2.462572 1_455
Cl5 Nb9 2.462572 1_555
Cl6 Nb0 2.451647 1_556
Cl6 Nb4 2.493759 1_556
Cl7 Nb8 2.452579 1_555
Cl7 Nb7 2.484251 1_545
Cl8 Sc1 2.501043 1_455
Cl8 Nb5 2.637077 1_565
Cl9 Nb13 2.471515 1_555
Cl9 Nb0 2.478212 1_555
Cl10 Nb9 2.451647 1_554
Cl10 Nb19 2.493759 1_554
Cl11 Nb0 2.627931 1_555
Cl11 Nb8 2.627931 1_554
Cl12 Nb6 2.451647 1_565
Cl12 Nb12 2.493759 1_565
Cl13 Nb3 2.471515 1_465
Cl13 Nb11 2.478212 1_455
Cl14 Sc3 2.501043 1_565
Cl14 Nb20 2.637077 1_565
Cl15 Nb4 2.677823 1_556
Cl15 Nb1 2.677823 1_545
Cl16 Nb21 2.451647 1_655
Cl16 Nb10 2.493759 1_655
Cl17 Nb7 2.471515 1_555
Cl17 Nb17 2.478212 1_555
Cl18 Sc3 2.501043 1_555
Cl18 Nb23 2.637077 1_555
Cl19 Nb11 2.452579 1_556
Cl19 Nb18 2.484251 1_555
Cl20 Nb17 2.462572 1_555
Cl20 Nb8 2.462572 1_565
Cl21 Nb0 2.452579 1_555
Cl21 Nb5 2.484251 1_655
Cl22 Nb11 2.451647 1_455
Cl22 Nb16 2.493759 1_455
Cl23 Nb14 2.492948 1_555
Cl23 Nb2 2.511314 1_555
Cl24 Nb18 2.492948 1_555
Cl24 Nb1 2.511314 1_555
Cl25 Nb23 2.492948 1_555
Cl25 Nb10 2.511314 1_555
Cl26 Nb5 2.492969 1_555
Cl26 Nb19 2.511323 1_555
Cl27 Nb8 2.451647 1_554
Cl27 Nb2 2.493759 1_554
Cl28 Sc2 2.501043 1_455
Cl28 Nb3 2.637077 1_455
Cl29 Nb23 2.471515 1_555
Cl29 Nb21 2.478212 1_555
Cl30 Nb6 2.462572 1_554
Cl30 Nb21 2.462572 1_555
Cl31 Nb6 2.627911 1_565
Cl31 Nb15 2.627948 1_555
Cl32 Nb10 2.677823 1_655
Cl32 Nb2 2.677823 1_554
Cl33 Nb17 2.452579 1_545
Cl33 Nb14 2.484251 1_555
Cl34 Nb20 2.471515 1_465
Cl34 Nb6 2.478212 1_565
Cl35 Nb6 2.452579 1_554
Cl35 Nb23 2.484251 1_555
Cl36 Nb13 2.492948 1_555
Cl36 Nb4 2.511314 1_555
Cl37 Nb17 2.451647 1_556
Cl37 Nb22 2.493759 1_556
Cl38 Nb3 2.492963 1_465
Cl38 Nb16 2.511318 1_455
Cl39 Nb16 2.677823 1_455
Cl39 Nb19 2.677823 1_554
Cl40 Sc0 2.501043 1_566
Cl40 Nb7 2.637077 1_455
Cl41 Nb15 2.452579 1_544
Cl41 Nb3 2.484251 1_555
Cl42 Nb21 2.452579 1_656
Cl42 Nb20 2.484251 1_555
Cl43 Sc0 2.501043 1_555
Cl43 Nb14 2.637077 1_555
Cl44 Nb11 2.627911 1_455
Cl44 Nb21 2.627948 1_555
Cl45 Nb20 2.492963 1_465
Cl45 Nb12 2.511318 1_565
Cl46 Sc2 2.501043 1_555
Cl46 Nb18 2.637077 1_555
Cl47 Nb9 2.627931 1_554
Cl47 Nb17 2.627931 1_555
Cl48 Nb5 2.471515 1_555
Cl48 Nb9 2.478212 1_555
Cl49 Nb22 2.677823 1_556
Cl49 Nb12 2.677823 1_565
Cl50 Nb18 2.471515 1_555
Cl50 Nb15 2.478212 1_555
Cl51 Nb11 2.462572 1_555
Cl51 Nb15 2.462572 1_554
O0 Sc1 2.064587 1_556
O1 Sc2 2.064587 1_555
O2 Sc0 2.064587 1_656
O3 Sc0 2.002340 1_555
O4 Sc0 2.064587 1_555
O5 Sc1 2.002340 1_555
O6 Sc3 2.002340 1_555
O7 Sc3 2.064587 1_555
O8 Sc2 2.064587 1_555
O9 Sc2 2.002340 1_555
O10 Sc3 2.064587 1_555
O11 Sc1 2.064587 1_545
