# generated using pymatgen
data_Ga12Ag2Te19
_symmetry_space_group_name_H-M   'P 1'
_cell_length_a   10.45494200
_cell_length_b   10.50234017
_cell_length_c   10.51814891
_cell_angle_alpha   89.12248655
_cell_angle_beta   89.76662504
_cell_angle_gamma   89.56393568
_symmetry_Int_Tables_number   1
_chemical_formula_structural   Ga12Ag2Te19
_chemical_formula_sum   'Ga12 Ag2 Te19'
_cell_volume   1154.72909397
_cell_formula_units_Z   1
loop_
 _symmetry_equiv_pos_site_id
 _symmetry_equiv_pos_as_xyz
  1  'x, y, z'
loop_
 _atom_site_type_symbol
 _atom_site_label
 _atom_site_symmetry_multiplicity
 _atom_site_fract_x
 _atom_site_fract_y
 _atom_site_fract_z
 _atom_site_occupancy
  Ga  Ga0  1  0.99114100  0.66795700  0.92223700  1
  Ga  Ga1  1  0.38628600  0.59242300  0.96860700  1
  Ga  Ga2  1  0.67500100  0.84066800  0.87317900  1
  Ga  Ga3  1  0.03688600  0.40288100  0.62032100  1
  Ga  Ga4  1  0.80899000  0.12249300  0.60016700  1
  Ga  Ga5  1  0.90587800  0.74877400  0.59133300  1
  Ga  Ga6  1  0.58191200  0.83361700  0.50332900  1
  Ga  Ga7  1  0.50282400  0.16935900  0.41976500  1
  Ga  Ga8  1  0.12516800  0.15914400  0.32839100  1
  Ga  Ga9  1  0.40267100  0.88140300  0.18469700  1
  Ga  Ga10  1  0.41226400  0.25297400  0.09030800  1
  Ga  Ga11  1  0.07743600  0.32804600  0.01047300  1
  Ag  Ag0  1  0.24115500  0.69591900  0.41849700  1
  Ag  Ag1  1  0.91808700  0.00294000  0.07414800  1
  Te  Te0  1  0.24917700  0.17565100  0.92046400  1
  Te  Te1  1  0.41554600  0.83653500  0.92426400  1
  Te  Te2  1  0.75176400  0.07773200  0.84260200  1
  Te  Te3  1  0.91335100  0.43269700  0.83474100  1
  Te  Te4  1  0.08382700  0.81929000  0.74850100  1
  Te  Te5  1  0.67622000  0.67016000  0.68443900  1
  Te  Te6  1  0.41676200  0.00044500  0.58394500  1
  Te  Te7  1  0.07658600  0.16013900  0.58587700  1
  Te  Te8  1  0.68631100  0.31691400  0.49731000  1
  Te  Te9  1  0.01046100  0.56927500  0.44079900  1
  Te  Te10  1  0.81459200  0.92988800  0.43148800  1
  Te  Te11  1  0.31747100  0.32591200  0.32142200  1
  Te  Te12  1  0.49031100  0.68304300  0.32418100  1
  Te  Te13  1  0.15928100  0.91974400  0.25117900  1
  Te  Te14  1  0.92579300  0.24392200  0.19382300  1
  Te  Te15  1  0.57110500  0.07093600  0.18637600  1
  Te  Te16  1  0.16566300  0.56399400  0.08538500  1
  Te  Te17  1  0.80852800  0.75459700  0.07279100  1
  Te  Te18  1  0.56335200  0.43042700  0.98936100  1
loop_
_geom_bond_atom_site_label_1
_geom_bond_atom_site_label_2
_geom_bond_distance
_geom_bond_site_symmetry_2
Ga0 Te4 2.593150 1_655
Ga0 Te17 2.640782 1_556
Ga0 Te16 2.721006 1_656
Ga0 Te3 2.778394 1_555
Ga1 Te18 2.512603 1_555
Ga1 Te1 2.618791 1_555
Ga1 Te16 2.625722 1_556
Ga2 Te2 2.636295 1_565
Ga2 Te17 2.668450 1_556
Ga2 Te5 2.693738 1_555
Ga2 Te1 2.763680 1_555
Ga3 Te9 2.567382 1_555
Ga3 Te7 2.610310 1_555
Ga3 Te3 2.616160 1_455
Ga4 Te8 2.624602 1_555
Ga4 Te2 2.652624 1_555
Ga4 Te10 2.711124 1_545
Ga4 Te7 2.831542 1_655
Ga5 Te4 2.612670 1_655
Ga5 Te10 2.691299 1_555
Ga5 Te9 2.702273 1_655
Ga5 Te5 2.718832 1_555
Ga6 Te6 2.599535 1_565
Ga6 Te12 2.664122 1_555
Ga6 Te5 2.727148 1_555
Ga6 Te10 2.740461 1_555
Ga7 Te8 2.616008 1_555
Ga7 Te6 2.618497 1_555
Ga7 Te11 2.728421 1_555
Ga7 Te15 2.767029 1_555
Ga8 Te14 2.664256 1_455
Ga8 Te13 2.674844 1_545
Ga8 Te11 2.676492 1_555
Ga8 Te7 2.753622 1_555
Ga9 Te13 2.665480 1_555
Ga9 Te15 2.668006 1_565
Ga9 Te12 2.687036 1_555
Ga9 Te1 2.789149 1_554
Ga10 Te0 2.616948 1_554
Ga10 Te18 2.658263 1_554
Ga10 Te15 2.709263 1_555
Ga10 Te11 2.739355 1_555
Ga11 Te0 2.582770 1_554
Ga11 Te14 2.637702 1_455
Ga11 Te3 2.739035 1_454
Ga11 Te16 2.777177 1_555
Ag0 Te9 2.770554 1_555
Ag0 Te12 2.786695 1_555
Ag0 Te13 3.034886 1_555
Ag1 Te14 2.845664 1_555
Ag1 Te17 2.856849 1_545
Ag1 Te2 3.086619 1_554
Ag1 Te13 3.247203 1_645
