# generated using pymatgen
data_K3HRhC5N5O
_symmetry_space_group_name_H-M   'P 1'
_cell_length_a   7.68120175
_cell_length_b   8.40841418
_cell_length_c   8.99833935
_cell_angle_alpha   89.86039207
_cell_angle_beta   100.34412759
_cell_angle_gamma   100.54835585
_symmetry_Int_Tables_number   1
_chemical_formula_structural   K3HRhC5N5O
_chemical_formula_sum   'K6 H2 Rh2 C10 N10 O2'
_cell_volume   561.78734739
_cell_formula_units_Z   2
loop_
 _symmetry_equiv_pos_site_id
 _symmetry_equiv_pos_as_xyz
  1  'x, y, z'
loop_
 _atom_site_type_symbol
 _atom_site_label
 _atom_site_symmetry_multiplicity
 _atom_site_fract_x
 _atom_site_fract_y
 _atom_site_fract_z
 _atom_site_occupancy
  K  K0  1  0.68033856  0.37652574  0.82324035  1
  K  K1  1  0.31966144  0.62347426  0.17675965  1
  K  K2  1  0.30539126  0.08358797  0.18246286  1
  K  K3  1  0.69460874  0.91641203  0.81753714  1
  K  K4  1  0.13226839  0.31626475  0.70951411  1
  K  K5  1  0.86773161  0.68373525  0.29048589  1
  H  H0  1  0.99707718  0.07714537  0.32709891  1
  H  H1  1  0.00292282  0.92285463  0.67290109  1
  Rh  Rh0  1  0.85604092  0.19187876  0.27133828  1
  Rh  Rh1  1  0.14395908  0.80812124  0.72866172  1
  C  C0  1  0.69030658  0.99776946  0.19892329  1
  C  C1  1  0.30969342  0.00223054  0.80107671  1
  C  C2  1  0.20702751  0.36550940  0.40846797  1
  C  C3  1  0.79297249  0.63449060  0.59153203  1
  C  C4  1  0.93959866  0.20937802  0.07535825  1
  C  C5  1  0.06040134  0.79062198  0.92464175  1
  C  C6  1  0.78900932  0.16988854  0.47688095  1
  C  C7  1  0.21099068  0.83011146  0.52311905  1
  C  C8  1  0.66736081  0.33663802  0.20531385  1
  C  C9  1  0.33263919  0.66336198  0.79468615  1
  N  N0  1  0.99241787  0.22333229  0.96087185  1
  N  N1  1  0.00758213  0.77666771  0.03912815  1
  N  N2  1  0.59061901  0.87915801  0.15025772  1
  N  N3  1  0.40938099  0.12084199  0.84974228  1
  N  N4  1  0.75610818  0.15965340  0.59892177  1
  N  N5  1  0.24389182  0.84034660  0.40107823  1
  N  N6  1  0.06886196  0.40382379  0.34661603  1
  N  N7  1  0.93113804  0.59617621  0.65338397  1
  N  N8  1  0.55484200  0.41346151  0.17042127  1
  N  N9  1  0.44515800  0.58653849  0.82957873  1
  O  O0  1  0.34493056  0.33053819  0.47322324  1
  O  O1  1  0.65506944  0.66946181  0.52677676  1
loop_
_geom_bond_atom_site_label_1
_geom_bond_atom_site_label_2
_geom_bond_distance
_geom_bond_site_symmetry_2
K0 N3 2.747385 1_555
K0 N9 2.755058 1_555
K0 N4 2.926908 1_555
K0 N0 2.999322 1_555
K0 N7 3.033036 1_555
K1 N2 2.747385 1_555
K1 N8 2.755058 1_555
K1 N5 2.926908 1_555
K1 N1 2.999322 1_555
K1 N6 3.033036 1_555
K2 N5 2.869921 1_545
K2 N2 3.073759 1_545
K2 N8 3.082828 1_555
K2 N1 3.217395 1_545
K2 N0 3.230664 1_454
K2 N3 3.234567 1_554
K2 O0 3.280165 1_555
K3 N4 2.869921 1_565
K3 N3 3.073759 1_565
K3 N9 3.082828 1_555
K3 N0 3.217395 1_565
K3 N1 3.230664 1_656
K3 N2 3.234567 1_556
K3 O1 3.280165 1_555
K4 N0 2.727069 1_455
K5 N1 2.727069 1_655
H0 Rh0 1.594094 1_555
H0 K2 2.892203 1_655
H1 Rh1 1.594094 1_555
H1 K3 2.892203 1_455
C0 N2 1.172549 1_555
C0 Rh0 1.911985 1_565
C0 K2 3.147625 1_565
C1 N3 1.172549 1_555
C1 Rh1 1.911985 1_545
C1 K3 3.147625 1_545
C2 O0 1.199825 1_555
C2 N6 1.205010 1_555
C3 O1 1.199825 1_555
C3 N7 1.205010 1_555
C4 N0 1.171212 1_554
C4 Rh0 1.978416 1_555
C4 K2 3.170610 1_655
C5 N1 1.171212 1_556
C5 Rh1 1.978416 1_555
C5 K3 3.170610 1_455
C6 N4 1.169821 1_555
C6 Rh0 2.006382 1_555
C7 N5 1.169821 1_555
C7 Rh1 2.006382 1_555
C8 N8 1.169956 1_555
C8 Rh0 2.065941 1_555
C8 K2 3.151322 1_555
C9 N9 1.169956 1_555
C9 Rh1 2.065941 1_555
C9 K3 3.151322 1_555
N6 Rh0 2.201975 1_455
N7 Rh1 2.201975 1_655
