# generated using pymatgen
data_Sr51W12N56O3
_symmetry_space_group_name_H-M   'P 1'
_cell_length_a   11.23471100
_cell_length_b   13.18632924
_cell_length_c   16.98810245
_cell_angle_alpha   102.53084052
_cell_angle_beta   95.33147110
_cell_angle_gamma   109.81545875
_symmetry_Int_Tables_number   1
_chemical_formula_structural   Sr51W12N56O3
_chemical_formula_sum   'Sr51 W12 N56 O3'
_cell_volume   2272.99418614
_cell_formula_units_Z   1
loop_
 _symmetry_equiv_pos_site_id
 _symmetry_equiv_pos_as_xyz
  1  'x, y, z'
loop_
 _atom_site_type_symbol
 _atom_site_label
 _atom_site_symmetry_multiplicity
 _atom_site_fract_x
 _atom_site_fract_y
 _atom_site_fract_z
 _atom_site_occupancy
  Sr  Sr0  1  0.92148000  0.35914500  0.33006700  1
  Sr  Sr1  1  0.87570900  0.34418200  0.54258600  1
  Sr  Sr2  1  0.79664900  0.54623300  0.47350300  1
  Sr  Sr3  1  0.59365100  0.23633800  0.62620100  1
  Sr  Sr4  1  0.60433600  0.19886100  0.83561800  1
  Sr  Sr5  1  0.84993400  0.49701800  0.93430600  1
  Sr  Sr6  1  0.46634100  0.52286700  0.40199700  1
  Sr  Sr7  1  0.06681300  0.82249300  0.84836800  1
  Sr  Sr8  1  0.53365900  0.47713300  0.59800300  1
  Sr  Sr9  1  0.76296700  0.72047400  0.90221600  1
  Sr  Sr10  1  0.23703300  0.27952600  0.09778400  1
  Sr  Sr11  1  0.35592400  0.90196300  0.74662600  1
  Sr  Sr12  1  0.74493500  0.81400300  0.49413400  1
  Sr  Sr13  1  0.67974200  0.01828600  0.67401600  1
  Sr  Sr14  1  0.00933400  0.95275500  0.19995300  1
  Sr  Sr15  1  0.07852000  0.64085500  0.66993300  1
  Sr  Sr16  1  0.45589100  0.60783300  0.97581600  1
  Sr  Sr17  1  0.91263800  0.31084000  0.75116800  1
  Sr  Sr18  1  0.28547000  0.13394800  0.72208700  1
  Sr  Sr19  1  0.57752800  0.33416100  0.23195000  1
  Sr  Sr20  1  0.30978700  0.04478400  0.12281400  1
  Sr  Sr21  1  0.25506500  0.18599700  0.50586600  1
  Sr  Sr22  1  0.35931800  0.85834400  0.94802200  1
  Sr  Sr23  1  0.15006600  0.50298200  0.06569400  1
  Sr  Sr24  1  0.12429100  0.65581800  0.45741400  1
  Sr  Sr25  1  0.23826000  0.23259300  0.29897800  1
  Sr  Sr26  1  0.54410900  0.39216700  0.02418400  1
  Sr  Sr27  1  0.32025800  0.98171400  0.32598400  1
  Sr  Sr28  1  0.14208500  0.57767000  0.85673500  1
  Sr  Sr29  1  0.39566400  0.80113900  0.16438200  1
  Sr  Sr30  1  0.76174000  0.76740700  0.70102200  1
  Sr  Sr31  1  0.20335100  0.45376700  0.52649700  1
  Sr  Sr32  1  0.47936300  0.57042600  0.18179900  1
  Sr  Sr33  1  0.97474400  0.13685600  0.59634500  1
  Sr  Sr34  1  0.71453000  0.86605200  0.27791300  1
  Sr  Sr35  1  0.93318700  0.17750700  0.15163200  1
  Sr  Sr36  1  0.40634900  0.76366200  0.37379900  1
  Sr  Sr37  1  0.64068200  0.14165600  0.05197800  1
  Sr  Sr38  1  0.35521400  0.95768800  0.54424200  1
  Sr  Sr39  1  0.78364200  0.67422100  0.09771600  1
  Sr  Sr40  1  0.99066600  0.04724500  0.80004700  1
  Sr  Sr41  1  0.85791500  0.42233000  0.14326500  1
  Sr  Sr42  1  0.21635800  0.32577900  0.90228400  1
  Sr  Sr43  1  0.64407600  0.09803700  0.25337400  1
  Sr  Sr44  1  0.64478600  0.04231200  0.45575800  1
  Sr  Sr45  1  0.42247200  0.66583900  0.76805000  1
  Sr  Sr46  1  0.00000000  0.00000000  0.00000000  1
  Sr  Sr47  1  0.52063700  0.42957400  0.81820100  1
  Sr  Sr48  1  0.02525600  0.86314400  0.40365500  1
  Sr  Sr49  1  0.69021300  0.95521600  0.87718600  1
  Sr  Sr50  1  0.08736200  0.68916000  0.24883200  1
  W  W0  1  0.97017100  0.09946100  0.38501400  1
  W  W1  1  0.02982900  0.90053900  0.61498600  1
  W  W2  1  0.37223400  0.11924200  0.94323200  1
  W  W3  1  0.90541000  0.25811000  0.93181600  1
  W  W4  1  0.51798400  0.24481800  0.40929400  1
  W  W5  1  0.22375200  0.48517100  0.26464200  1
  W  W6  1  0.21829600  0.37974700  0.71553200  1
  W  W7  1  0.48201600  0.75518200  0.59070600  1
  W  W8  1  0.09459000  0.74189000  0.06818400  1
  W  W9  1  0.62776600  0.88075800  0.05676800  1
  W  W10  1  0.77624800  0.51482900  0.73535800  1
  W  W11  1  0.78170400  0.62025300  0.28446800  1
  N  N0  1  0.65051500  0.58164900  0.75150300  1
  N  N1  1  0.56410500  0.65256800  0.55344500  1
  N  N2  1  0.21277300  0.00915100  0.94502000  1
  N  N3  1  0.44263700  0.17172300  0.29623800  1
  N  N4  1  0.88188200  0.10149100  0.28630600  1
  N  N5  1  0.65027800  0.54284100  0.95686400  1
  N  N6  1  0.28716500  0.62212300  0.23145100  1
  N  N7  1  0.83894200  0.98609400  0.42233700  1
  N  N8  1  0.38387500  0.22698400  0.87944800  1
  N  N9  1  0.68457700  0.51879100  0.18048800  1
  N  N10  1  0.90099400  0.56479300  0.32954400  1
  N  N11  1  0.93549400  0.60810000  0.80297900  1
  N  N12  1  0.43589500  0.34743200  0.44655500  1
  N  N13  1  0.00971700  0.38900700  0.90495600  1
  N  N14  1  0.34948500  0.41835100  0.24849700  1
  N  N15  1  0.51655600  0.95495700  0.09476900  1
  N  N16  1  0.31542300  0.48120900  0.81951200  1
  N  N17  1  0.18439300  0.85044000  0.17234100  1
  N  N18  1  0.34972200  0.45715900  0.04313600  1
  N  N19  1  0.53619800  0.86858900  0.53095900  1
  N  N20  1  0.97994000  0.79061000  0.01041600  1
  N  N21  1  0.09900600  0.43520700  0.67045600  1
  N  N22  1  0.78180600  0.30116000  0.98676600  1
  N  N23  1  0.12220000  0.24423000  0.74006400  1
  N  N24  1  0.61612500  0.77301600  0.12055200  1
  N  N25  1  0.06450600  0.39190000  0.19702100  1
  N  N26  1  0.87780000  0.75577000  0.25993600  1
  N  N27  1  0.88915800  0.94542600  0.64423300  1
  N  N28  1  0.11811800  0.89850900  0.71369400  1
  N  N29  1  0.66930200  0.64567400  0.35920100  1
  N  N30  1  0.55736300  0.82827700  0.70376200  1
  N  N31  1  0.11084200  0.05457400  0.35576700  1
  N  N32  1  0.16105800  0.01390600  0.57766300  1
  N  N33  1  0.47979900  0.08521000  0.68567800  1
  N  N34  1  0.78170300  0.48538700  0.62053800  1
  N  N35  1  0.13628400  0.11390800  0.15644200  1
  N  N36  1  0.48344400  0.04504300  0.90523100  1
  N  N37  1  0.78722700  0.99084900  0.05498000  1
  N  N38  1  0.55906800  0.79924400  0.94391900  1
  N  N39  1  0.33069800  0.35432600  0.64079900  1
  N  N40  1  0.81560700  0.14956000  0.82765900  1
  N  N41  1  0.96094200  0.75693300  0.53652500  1
  N  N42  1  0.21829700  0.51461300  0.37946200  1
  N  N43  1  0.25644300  0.73913400  0.80385000  1
  N  N44  1  0.21819400  0.69884000  0.01323400  1
  N  N45  1  0.02006000  0.20939000  0.98958400  1
  N  N46  1  0.03905800  0.24306700  0.46347500  1
  N  N47  1  0.46380200  0.13141100  0.46904100  1
  N  N48  1  0.30001300  0.68995800  0.58366700  1
  N  N49  1  0.71283500  0.37787700  0.76854900  1
  N  N50  1  0.52020100  0.91479000  0.31432200  1
  N  N51  1  0.86371600  0.88609200  0.84355800  1
  N  N52  1  0.69998700  0.31004200  0.41633300  1
  N  N53  1  0.44093200  0.20075600  0.05608100  1
  N  N54  1  0.99028300  0.61099300  0.09504400  1
  N  N55  1  0.74355700  0.26086600  0.19615000  1
  O  O0  1  0.00000000  0.00000000  0.50000000  1
  O  O1  1  0.22267700  0.82126600  0.39411800  1
  O  O2  1  0.77732300  0.17873400  0.60588200  1
loop_
_geom_bond_atom_site_label_1
_geom_bond_atom_site_label_2
_geom_bond_distance
_geom_bond_site_symmetry_2
N0 W10 1.912569 1_555
N0 Sr47 2.596848 1_555
N0 Sr8 2.645851 1_555
N0 Sr9 2.701770 1_555
N0 Sr30 2.707814 1_555
N0 Sr45 3.130823 1_555
N1 W7 1.914413 1_555
N1 Sr8 2.512575 1_555
N1 Sr6 2.653806 1_555
N1 Sr12 2.837796 1_555
N1 Sr30 2.923531 1_555
N2 W2 1.893097 1_555
N2 Sr7 2.540209 1_545
N2 Sr46 2.620954 1_556
N2 Sr22 2.985936 1_545
N2 Sr20 2.992761 1_556
N3 W4 1.917218 1_555
N3 Sr27 2.601212 1_545
N3 Sr25 2.678008 1_555
N3 Sr19 2.683144 1_555
N3 Sr43 2.843603 1_555
N3 Sr20 3.009713 1_555
N4 W0 1.877454 1_555
N4 Sr43 2.661132 1_555
N4 Sr35 2.723920 1_555
N4 Sr34 2.999059 1_545
N4 Sr14 3.015761 1_645
N4 Sr0 3.179850 1_555
N5 Sr47 2.502381 1_555
N5 Sr26 2.512153 1_556
N5 Sr5 2.553727 1_555
N5 Sr39 2.597470 1_556
N5 Sr16 2.624367 1_555
N5 Sr9 2.665085 1_555
N6 W5 1.931571 1_555
N6 Sr36 2.620984 1_555
N6 Sr32 2.631663 1_555
N6 Sr50 2.694924 1_555
N6 Sr29 2.798325 1_555
N6 Sr23 2.898895 1_555
N7 W0 1.975123 1_565
N7 O0 2.067560 1_665
N7 Sr34 2.579986 1_555
N7 Sr44 2.602637 1_565
N7 Sr12 2.751019 1_555
N8 W2 1.943721 1_555
N8 Sr42 2.639738 1_555
N8 Sr18 2.642303 1_555
N8 Sr4 2.769870 1_555
N8 Sr26 2.868052 1_556
N8 Sr47 3.049623 1_555
N9 W11 1.930659 1_555
N9 Sr32 2.616630 1_555
N9 Sr19 2.696624 1_555
N9 Sr41 2.714654 1_555
N9 Sr39 2.722396 1_555
N9 Sr26 2.799994 1_555
N10 W11 1.906328 1_555
N10 Sr0 2.799967 1_555
N10 Sr2 2.830732 1_555
N10 Sr50 2.852134 1_655
N10 Sr24 2.875289 1_655
N10 Sr41 3.208866 1_555
N11 W10 1.883153 1_555
N11 Sr7 2.603522 1_655
N11 Sr28 2.603556 1_655
N11 Sr15 2.916338 1_655
N11 Sr5 2.984766 1_555
N11 Sr9 3.203953 1_555
N12 W4 1.914413 1_555
N12 Sr6 2.512575 1_555
N12 Sr8 2.653806 1_555
N12 Sr21 2.837796 1_555
N12 Sr25 2.923531 1_555
N13 W3 1.905387 1_455
N13 Sr17 2.572399 1_455
N13 Sr5 2.662927 1_455
N13 Sr42 2.720707 1_555
N13 Sr28 2.770204 1_555
N13 Sr23 2.830855 1_556
N14 W5 1.912569 1_555
N14 Sr32 2.596848 1_555
N14 Sr6 2.645851 1_555
N14 Sr10 2.701770 1_555
N14 Sr25 2.707814 1_555
N14 Sr19 3.130823 1_555
N15 W9 1.907794 1_555
N15 Sr29 2.613196 1_555
N15 Sr37 2.677929 1_565
N15 Sr22 2.689998 1_554
N15 Sr43 2.848875 1_565
N15 Sr20 2.975329 1_565
N16 W6 1.930659 1_555
N16 Sr47 2.616630 1_555
N16 Sr45 2.696624 1_555
N16 Sr28 2.714654 1_555
N16 Sr42 2.722396 1_555
N16 Sr16 2.799994 1_555
N17 W8 1.946214 1_555
N17 Sr29 2.672527 1_555
N17 Sr50 2.700059 1_555
N17 Sr14 2.757559 1_555
N17 Sr27 2.765258 1_555
N17 Sr20 2.822782 1_565
N18 Sr32 2.502381 1_555
N18 Sr16 2.512153 1_554
N18 Sr23 2.553727 1_555
N18 Sr42 2.597470 1_554
N18 Sr26 2.624367 1_555
N18 Sr10 2.665085 1_555
N19 W7 1.947644 1_555
N19 Sr38 2.674970 1_555
N19 Sr13 2.726749 1_565
N19 Sr36 2.734119 1_555
N19 Sr12 2.762355 1_555
N19 Sr44 2.834217 1_565
N20 W8 1.906466 1_655
N20 Sr9 2.660309 1_554
N20 Sr46 2.739202 1_665
N20 Sr39 2.952834 1_555
N20 Sr7 3.070998 1_654
N21 W6 1.906328 1_555
N21 Sr15 2.799967 1_555
N21 Sr31 2.830732 1_555
N21 Sr17 2.852134 1_455
N21 Sr1 2.875289 1_455
N21 Sr28 3.208866 1_555
N22 W3 1.915055 1_555
N22 Sr41 2.675874 1_556
N22 Sr37 2.690989 1_556
N22 Sr5 2.799186 1_555
N22 Sr4 2.847855 1_555
N23 W6 1.905595 1_555
N23 Sr33 2.620715 1_455
N23 Sr42 2.696473 1_555
N23 Sr18 2.700465 1_555
N23 Sr17 2.786177 1_455
N23 Sr40 2.965656 1_455
N24 W9 1.943721 1_555
N24 Sr39 2.639738 1_555
N24 Sr34 2.642303 1_555
N24 Sr29 2.769870 1_555
N24 Sr16 2.868052 1_554
N24 Sr32 3.049623 1_555
N25 W5 1.883153 1_555
N25 Sr35 2.603522 1_455
N25 Sr41 2.603556 1_455
N25 Sr0 2.916338 1_455
N25 Sr23 2.984766 1_555
N25 Sr10 3.203953 1_555
N26 W11 1.905595 1_555
N26 Sr48 2.620715 1_655
N26 Sr39 2.696473 1_555
N26 Sr34 2.700465 1_555
N26 Sr50 2.786177 1_655
N26 Sr14 2.965656 1_655
N27 W1 1.935814 1_655
N27 Sr40 2.639790 1_565
N27 Sr33 2.710931 1_565
N27 Sr30 2.729721 1_555
N27 Sr12 2.746187 1_555
N27 Sr13 2.873529 1_565
N28 W1 1.877454 1_555
N28 Sr11 2.661132 1_555
N28 Sr7 2.723920 1_555
N28 Sr18 2.999059 1_565
N28 Sr40 3.015761 1_465
N28 Sr15 3.179850 1_555
N29 W11 1.928500 1_555
N29 Sr6 2.581815 1_555
N29 Sr12 2.656077 1_555
N29 Sr2 3.065506 1_555
N29 Sr32 3.269924 1_555
N30 W7 1.917218 1_555
N30 Sr13 2.601212 1_565
N30 Sr30 2.678008 1_555
N30 Sr45 2.683144 1_555
N30 Sr11 2.843603 1_555
N30 Sr49 3.009713 1_555
N31 W0 1.935814 1_455
N31 Sr14 2.639790 1_545
N31 Sr48 2.710931 1_545
N31 Sr25 2.729721 1_555
N31 Sr21 2.746187 1_555
N31 Sr27 2.873529 1_545
N32 W1 1.975123 1_545
N32 O0 2.067560 1_555
N32 Sr18 2.579986 1_555
N32 Sr38 2.602637 1_545
N32 Sr21 2.751019 1_555
N33 Sr3 2.452359 1_555
N33 Sr38 2.566302 1_545
N33 Sr18 2.567456 1_555
N33 Sr4 2.636545 1_555
N33 Sr13 2.686022 1_555
N33 Sr11 2.814445 1_545
N34 W10 1.915453 1_555
N34 Sr1 2.619011 1_555
N34 Sr8 2.739004 1_555
N34 Sr2 2.787009 1_555
N34 Sr15 3.182051 1_655
N34 Sr3 3.275453 1_555
N35 Sr14 2.432884 1_545
N35 Sr20 2.478377 1_555
N35 Sr25 2.499908 1_555
N35 Sr10 2.553734 1_555
N35 Sr35 2.684912 1_455
N35 Sr46 2.759695 1_555
N36 W2 1.907794 1_555
N36 Sr4 2.613196 1_555
N36 Sr22 2.677929 1_545
N36 Sr37 2.689998 1_556
N36 Sr11 2.848875 1_545
N36 Sr49 2.975329 1_545
N37 W9 1.893097 1_555
N37 Sr35 2.540209 1_565
N37 Sr46 2.620954 1_665
N37 Sr37 2.985936 1_565
N37 Sr49 2.992761 1_554
N38 W9 1.922156 1_556
N38 Sr16 2.595092 1_555
N38 Sr22 2.615250 1_555
N38 Sr49 2.636990 1_555
N38 Sr9 2.902369 1_555
N38 Sr45 3.068041 1_555
N39 W6 1.928500 1_555
N39 Sr8 2.581815 1_555
N39 Sr21 2.656077 1_555
N39 Sr31 3.065506 1_555
N39 Sr47 3.269924 1_555
N40 W3 1.946214 1_555
N40 Sr4 2.672527 1_555
N40 Sr17 2.700059 1_555
N40 Sr40 2.757559 1_555
N40 Sr13 2.765258 1_555
N40 Sr49 2.822782 1_545
N41 W1 1.918564 1_655
N41 Sr2 2.671623 1_555
N41 Sr12 2.850041 1_555
N41 Sr24 2.879512 1_655
N41 Sr48 2.927003 1_655
N42 W5 1.915453 1_555
N42 Sr24 2.619011 1_555
N42 Sr6 2.739004 1_555
N42 Sr31 2.787009 1_555
N42 Sr0 3.182051 1_455
N42 Sr36 3.275453 1_555
N43 Sr45 2.441576 1_555
N43 Sr28 2.486142 1_555
N43 Sr11 2.506978 1_555
N43 Sr22 2.525269 1_555
N43 Sr15 2.640075 1_555
N43 Sr7 2.800953 1_555
N44 W8 1.915055 1_555
N44 Sr28 2.675874 1_554
N44 Sr22 2.690989 1_554
N44 Sr23 2.799186 1_555
N44 Sr29 2.847855 1_555
N45 W3 1.906466 1_455
N45 Sr10 2.660309 1_556
N45 Sr46 2.739202 1_556
N45 Sr42 2.952834 1_555
N45 Sr35 3.070998 1_456
N46 W0 1.918564 1_455
N46 Sr31 2.671623 1_555
N46 Sr21 2.850041 1_555
N46 Sr1 2.879512 1_455
N46 Sr33 2.927003 1_455
N47 W4 1.947644 1_555
N47 Sr44 2.674970 1_555
N47 Sr27 2.726749 1_545
N47 Sr3 2.734119 1_555
N47 Sr21 2.762355 1_555
N47 Sr38 2.834217 1_545
N48 W7 1.911187 1_555
N48 Sr24 2.625230 1_555
N48 Sr31 2.832132 1_555
N48 Sr15 2.959083 1_555
N49 W10 1.931571 1_555
N49 Sr3 2.620984 1_555
N49 Sr47 2.631663 1_555
N49 Sr17 2.694924 1_555
N49 Sr4 2.798325 1_555
N49 Sr5 2.898895 1_555
N50 Sr36 2.452359 1_555
N50 Sr44 2.566302 1_565
N50 Sr34 2.567456 1_555
N50 Sr29 2.636545 1_555
N50 Sr27 2.686022 1_555
N50 Sr43 2.814445 1_565
N51 Sr40 2.432884 1_565
N51 Sr49 2.478377 1_555
N51 Sr30 2.499908 1_555
N51 Sr9 2.553734 1_555
N51 Sr7 2.684912 1_655
N51 Sr46 2.759695 1_666
N52 W4 1.911187 1_555
N52 Sr1 2.625230 1_555
N52 Sr2 2.832132 1_555
N52 Sr0 2.959083 1_555
N53 W2 1.922156 1_554
N53 Sr26 2.595092 1_555
N53 Sr37 2.615250 1_555
N53 Sr20 2.636990 1_555
N53 Sr10 2.902369 1_555
N53 Sr19 3.068041 1_555
N54 W8 1.905387 1_655
N54 Sr50 2.572399 1_655
N54 Sr23 2.662927 1_655
N54 Sr39 2.720707 1_555
N54 Sr41 2.770204 1_555
N54 Sr5 2.830855 1_554
N55 Sr19 2.441576 1_555
N55 Sr41 2.486142 1_555
N55 Sr43 2.506978 1_555
N55 Sr37 2.525269 1_555
N55 Sr0 2.640075 1_555
N55 Sr35 2.800953 1_555
O0 Sr48 2.273284 1_545
O0 Sr33 2.273284 1_455
O0 Sr12 3.051673 1_445
O0 Sr21 3.051673 1_555
O1 Sr36 2.456711 1_555
O1 Sr48 2.471624 1_555
O1 Sr24 2.596439 1_555
O1 Sr27 2.596876 1_555
O1 Sr50 2.660622 1_555
O1 Sr38 2.728524 1_555
O2 Sr3 2.456711 1_555
O2 Sr33 2.471624 1_555
O2 Sr1 2.596439 1_555
O2 Sr13 2.596876 1_555
O2 Sr17 2.660622 1_555
O2 Sr44 2.728524 1_555
