# generated using pymatgen
data_Eu2(Ga3Rh)3
_symmetry_space_group_name_H-M   'P 1'
_cell_length_a   7.51353140
_cell_length_b   7.51353140
_cell_length_c   9.77832706
_cell_angle_alpha   90.00000000
_cell_angle_beta   90.00000000
_cell_angle_gamma   119.42746483
_symmetry_Int_Tables_number   1
_chemical_formula_structural   Eu2(Ga3Rh)3
_chemical_formula_sum   'Eu4 Ga18 Rh6'
_cell_volume   480.79523266
_cell_formula_units_Z   2
loop_
 _symmetry_equiv_pos_site_id
 _symmetry_equiv_pos_as_xyz
  1  'x, y, z'
loop_
 _atom_site_type_symbol
 _atom_site_label
 _atom_site_symmetry_multiplicity
 _atom_site_fract_x
 _atom_site_fract_y
 _atom_site_fract_z
 _atom_site_occupancy
  Eu  Eu0  1  0.66979171  0.99843605  0.25000000  1
  Eu  Eu1  1  0.00156395  0.33020829  0.75000000  1
  Eu  Eu2  1  0.99843605  0.66979171  0.25000000  1
  Eu  Eu3  1  0.33020829  0.00156395  0.75000000  1
  Ga  Ga0  1  0.66495942  0.99358466  0.92845700  1
  Ga  Ga1  1  0.13110335  0.13110335  0.25000000  1
  Ga  Ga2  1  0.00641534  0.33504058  0.42845700  1
  Ga  Ga3  1  0.33737933  0.33737933  0.55870830  1
  Ga  Ga4  1  0.33585193  0.54350092  0.25000000  1
  Ga  Ga5  1  0.45649908  0.66414807  0.75000000  1
  Ga  Ga6  1  0.86889665  0.86889665  0.75000000  1
  Ga  Ga7  1  0.66262067  0.66262067  0.05870830  1
  Ga  Ga8  1  0.66262067  0.66262067  0.44129170  1
  Ga  Ga9  1  0.99358466  0.66495942  0.57154300  1
  Ga  Ga10  1  0.99358466  0.66495942  0.92845700  1
  Ga  Ga11  1  0.33504058  0.00641534  0.42845700  1
  Ga  Ga12  1  0.66414807  0.45649908  0.75000000  1
  Ga  Ga13  1  0.54350092  0.33585193  0.25000000  1
  Ga  Ga14  1  0.33737933  0.33737933  0.94129170  1
  Ga  Ga15  1  0.33504058  0.00641534  0.07154300  1
  Ga  Ga16  1  0.66495942  0.99358466  0.57154300  1
  Ga  Ga17  1  0.00641534  0.33504058  0.07154300  1
  Rh  Rh0  1  0.32896386  0.67103614  0.50000000  1
  Rh  Rh1  1  0.32896386  0.67103614  -0.00000000  1
  Rh  Rh2  1  0.67103614  0.32896386  0.50000000  1
  Rh  Rh3  1  -0.00000000  -0.00000000  -0.00000000  1
  Rh  Rh4  1  -0.00000000  -0.00000000  0.50000000  1
  Rh  Rh5  1  0.67103614  0.32896386  -0.00000000  1
loop_
_geom_bond_atom_site_label_1
_geom_bond_atom_site_label_2
_geom_bond_distance
_geom_bond_site_symmetry_2
Eu0 Ga11 3.085916 1_565
Eu0 Ga15 3.085916 1_565
Eu0 Ga4 3.090590 1_555
Eu0 Ga17 3.090751 1_665
Eu0 Ga2 3.090751 1_665
Eu0 Ga1 3.100371 1_665
Eu0 Ga13 3.113103 1_565
Eu0 Ga7 3.120011 1_555
Eu0 Ga8 3.120011 1_555
Eu0 Ga16 3.144367 1_555
Eu0 Ga0 3.144367 1_554
Eu1 Ga9 3.085916 1_455
Eu1 Ga10 3.085916 1_455
Eu1 Ga5 3.090590 1_555
Eu1 Ga16 3.090751 1_445
Eu1 Ga0 3.090751 1_445
Eu1 Ga6 3.100371 1_445
Eu1 Ga12 3.113103 1_455
Eu1 Ga14 3.120011 1_555
Eu1 Ga3 3.120011 1_555
Eu1 Ga17 3.144367 1_556
Eu1 Ga2 3.144367 1_555
Eu2 Ga2 3.085916 1_655
Eu2 Ga17 3.085916 1_655
Eu2 Ga13 3.090590 1_555
Eu2 Ga15 3.090751 1_665
Eu2 Ga11 3.090751 1_665
Eu2 Ga1 3.100371 1_665
Eu2 Ga4 3.113103 1_655
Eu2 Ga8 3.120011 1_555
Eu2 Ga7 3.120011 1_555
Eu2 Ga10 3.144367 1_554
Eu2 Ga9 3.144367 1_555
Eu3 Ga16 3.085916 1_545
Eu3 Ga0 3.085916 1_545
Eu3 Ga12 3.090590 1_555
Eu3 Ga9 3.090751 1_445
Eu3 Ga10 3.090751 1_445
Eu3 Ga6 3.100371 1_445
Eu3 Ga5 3.113103 1_545
Eu3 Ga14 3.120011 1_555
Eu3 Ga3 3.120011 1_555
Eu3 Ga15 3.144367 1_556
Eu3 Ga11 3.144367 1_555
Ga0 Rh3 2.590266 1_666
Ga0 Rh1 2.593049 1_556
Ga0 Rh5 2.593884 1_566
Ga0 Ga6 2.771508 1_555
Ga0 Ga7 2.786260 1_556
Ga0 Ga5 2.795613 1_555
Ga0 Ga15 2.889020 1_566
Ga0 Ga17 2.941741 1_666
Ga1 Rh4 2.638777 1_555
Ga1 Rh3 2.638777 1_555
Ga1 Ga13 2.698828 1_555
Ga1 Ga4 2.698828 1_555
Ga1 Ga17 2.771508 1_555
Ga1 Ga2 2.771508 1_555
Ga1 Ga11 2.771508 1_555
Ga1 Ga15 2.771508 1_555
Ga2 Rh4 2.590266 1_555
Ga2 Rh0 2.593049 1_555
Ga2 Rh2 2.593884 1_455
Ga2 Ga3 2.786260 1_555
Ga2 Ga4 2.795613 1_555
Ga2 Ga9 2.889020 1_455
Ga3 Rh2 2.602704 1_555
Ga3 Rh0 2.602704 1_555
Ga3 Rh4 2.620469 1_555
Ga3 Ga8 2.719117 1_555
Ga3 Ga5 2.858064 1_555
Ga4 Rh0 2.635453 1_555
Ga4 Rh1 2.635453 1_555
Ga4 Ga8 2.858064 1_555
Ga4 Ga7 2.858064 1_555
Ga5 Rh0 2.635453 1_555
Ga5 Rh1 2.635453 1_556
Ga5 Ga6 2.698828 1_555
Ga6 Rh3 2.638777 1_666
Ga6 Rh4 2.638777 1_665
Ga6 Ga9 2.771508 1_555
Ga7 Rh1 2.602704 1_555
Ga7 Rh5 2.602704 1_555
Ga7 Rh3 2.620469 1_665
Ga8 Rh0 2.602704 1_555
Ga8 Rh2 2.602704 1_555
Ga8 Rh4 2.620469 1_665
Ga8 Ga9 2.786260 1_555
Ga9 Rh4 2.590266 1_665
Ga9 Rh2 2.593049 1_555
Ga9 Rh0 2.593884 1_655
Ga10 Rh3 2.590266 1_666
Ga10 Rh5 2.593049 1_556
Ga10 Rh1 2.593884 1_656
Ga10 Ga6 2.771508 1_555
Ga10 Ga7 2.786260 1_556
Ga10 Ga12 2.795613 1_555
Ga10 Ga17 2.889020 1_656
Ga10 Ga15 2.941741 1_666
Ga11 Rh4 2.590266 1_555
Ga11 Rh2 2.593049 1_555
Ga11 Rh0 2.593884 1_545
Ga11 Ga3 2.786260 1_555
Ga11 Ga13 2.795613 1_555
Ga11 Ga16 2.889020 1_545
Ga11 Ga9 2.941741 1_445
Ga12 Rh2 2.635453 1_555
Ga12 Rh5 2.635453 1_556
Ga12 Ga5 2.694477 1_555
Ga12 Ga6 2.698828 1_555
Ga12 Ga9 2.795613 1_555
Ga12 Ga14 2.858064 1_555
Ga12 Ga3 2.858064 1_555
Ga13 Rh2 2.635453 1_555
Ga13 Rh5 2.635453 1_555
Ga13 Ga4 2.694477 1_555
Ga13 Ga15 2.795613 1_555
Ga13 Ga8 2.858064 1_555
Ga13 Ga7 2.858064 1_555
Ga14 Rh1 2.602704 1_556
Ga14 Rh5 2.602704 1_556
Ga14 Rh3 2.620469 1_556
Ga14 Ga7 2.719117 1_556
Ga14 Ga17 2.786260 1_556
Ga14 Ga15 2.786260 1_556
Ga14 Ga5 2.858064 1_555
Ga15 Rh3 2.590266 1_555
Ga15 Rh5 2.593049 1_555
Ga15 Rh1 2.593884 1_545
Ga16 Rh4 2.590266 1_665
Ga16 Rh0 2.593049 1_555
Ga16 Rh2 2.593884 1_565
Ga16 Ga6 2.771508 1_555
Ga16 Ga8 2.786260 1_555
Ga16 Ga5 2.795613 1_555
Ga16 Ga2 2.941741 1_665
Ga17 Rh3 2.590266 1_555
Ga17 Rh1 2.593049 1_555
Ga17 Rh5 2.593884 1_455
Ga17 Ga4 2.795613 1_555
