# generated using pymatgen
data_Mg2NiH4
_symmetry_space_group_name_H-M   'P 1'
_cell_length_a   7.78707425
_cell_length_b   7.78707425
_cell_length_c   6.41968976
_cell_angle_alpha   68.79285789
_cell_angle_beta   68.79285789
_cell_angle_gamma   48.06938872
_symmetry_Int_Tables_number   1
_chemical_formula_structural   Mg2NiH4
_chemical_formula_sum   'Mg8 Ni4 H16'
_cell_volume   265.92164712
_cell_formula_units_Z   4
loop_
 _symmetry_equiv_pos_site_id
 _symmetry_equiv_pos_as_xyz
  1  'x, y, z'
loop_
 _atom_site_type_symbol
 _atom_site_label
 _atom_site_symmetry_multiplicity
 _atom_site_fract_x
 _atom_site_fract_y
 _atom_site_fract_z
 _atom_site_occupancy
  Mg  Mg0  1  0.22394276  0.24798060  0.08044942  1
  Mg  Mg1  1  0.75201940  0.77605724  0.41955058  1
  Mg  Mg2  1  0.77605724  0.75201940  0.91955058  1
  Mg  Mg3  1  0.24798060  0.22394276  0.58044942  1
  Mg  Mg4  1  0.02305611  0.97694389  0.25000000  1
  Mg  Mg5  1  0.97694389  0.02305611  0.75000000  1
  Mg  Mg6  1  0.52557052  0.47442948  0.25000000  1
  Mg  Mg7  1  0.47442948  0.52557052  0.75000000  1
  Ni  Ni0  1  0.11031167  0.64989840  0.08192445  1
  Ni  Ni1  1  0.35010160  0.88968833  0.41807555  1
  Ni  Ni2  1  0.88968833  0.35010160  0.91807555  1
  Ni  Ni3  1  0.64989840  0.11031167  0.58192445  1
  H  H0  1  0.09940378  0.48470430  0.30320256  1
  H  H1  1  0.51529570  0.90059622  0.19679744  1
  H  H2  1  0.90059622  0.51529570  0.69679744  1
  H  H3  1  0.48470430  0.09940378  0.80320256  1
  H  H4  1  0.17679964  0.54574718  0.87777267  1
  H  H5  1  0.45425282  0.82320036  0.62222733  1
  H  H6  1  0.82320036  0.45425282  0.12222733  1
  H  H7  1  0.54574718  0.17679964  0.37777267  1
  H  H8  1  0.27978934  0.69965652  0.05250394  1
  H  H9  1  0.30034348  0.72021066  0.44749606  1
  H  H10  1  0.72021066  0.30034348  0.94749606  1
  H  H11  1  0.69965652  0.27978934  0.55250394  1
  H  H12  1  0.86494781  0.88672268  0.07756646  1
  H  H13  1  0.11327732  0.13505219  0.42243354  1
  H  H14  1  0.13505219  0.11327732  0.92243354  1
  H  H15  1  0.88672268  0.86494781  0.57756646  1
loop_
_geom_bond_atom_site_label_1
_geom_bond_atom_site_label_2
_geom_bond_distance
_geom_bond_site_symmetry_2
H0 Ni0 1.554539 1_555
H0 Mg3 2.089247 1_555
H0 Mg1 2.141223 1_455
H0 Mg0 2.213164 1_555
H1 Ni1 1.554539 1_555
H1 Mg2 2.089247 1_554
H1 Mg0 2.141223 1_565
H1 Mg1 2.213164 1_555
H2 Ni2 1.554539 1_555
H2 Mg1 2.089247 1_555
H2 Mg3 2.141223 1_655
H2 Mg2 2.213164 1_555
H3 Ni3 1.554539 1_555
H3 Mg0 2.089247 1_556
H3 Mg2 2.141223 1_545
H3 Mg3 2.213164 1_555
H4 Ni0 1.536354 1_556
H4 Mg0 2.056559 1_556
H4 Mg7 2.073707 1_555
H4 Mg2 2.323220 1_455
H5 Ni1 1.536354 1_555
H5 Mg1 2.056559 1_555
H5 Mg7 2.073707 1_555
H5 Mg3 2.323220 1_565
H6 Ni2 1.536354 1_554
H6 Mg2 2.056559 1_554
H6 Mg6 2.073707 1_555
H6 Mg0 2.323220 1_655
H7 Ni3 1.536354 1_555
H7 Mg3 2.056559 1_555
H7 Mg6 2.073707 1_555
H7 Mg1 2.323220 1_545
H8 Ni0 1.541958 1_555
H8 Mg6 2.001810 1_555
H8 Mg4 2.155058 1_555
H8 Mg7 2.221575 1_554
H9 Ni1 1.541958 1_555
H9 Mg6 2.001810 1_555
H9 Mg4 2.155058 1_555
H9 Mg7 2.221575 1_555
H10 Ni2 1.541958 1_555
H10 Mg7 2.001810 1_555
H10 Mg5 2.155058 1_555
H10 Mg6 2.221575 1_556
H11 Ni3 1.541958 1_555
H11 Mg7 2.001810 1_555
H11 Mg5 2.155058 1_555
H11 Mg6 2.221575 1_555
H12 Ni0 1.531206 1_655
H12 Mg1 2.140819 1_555
H12 Mg5 2.145961 1_564
H12 Mg2 2.203785 1_554
H13 Ni1 1.531206 1_545
H13 Mg0 2.140819 1_555
H13 Mg5 2.145961 1_455
H13 Mg3 2.203785 1_555
H14 Ni2 1.531206 1_455
H14 Mg3 2.140819 1_555
H14 Mg4 2.145961 1_546
H14 Mg0 2.203785 1_556
H15 Ni3 1.531206 1_565
H15 Mg2 2.140819 1_555
H15 Mg4 2.145961 1_655
H15 Mg1 2.203785 1_555
