# generated using pymatgen
data_Ta10O9
_symmetry_space_group_name_H-M   'P 1'
_cell_length_a   16.16110302
_cell_length_b   16.16110302
_cell_length_c   5.23121636
_cell_angle_alpha   86.43612363
_cell_angle_beta   86.43612363
_cell_angle_gamma   9.75948806
_symmetry_Int_Tables_number   1
_chemical_formula_structural   Ta10O9
_chemical_formula_sum   'Ta10 O9'
_cell_volume   231.15330858
_cell_formula_units_Z   1
loop_
 _symmetry_equiv_pos_site_id
 _symmetry_equiv_pos_as_xyz
  1  'x, y, z'
loop_
 _atom_site_type_symbol
 _atom_site_label
 _atom_site_symmetry_multiplicity
 _atom_site_fract_x
 _atom_site_fract_y
 _atom_site_fract_z
 _atom_site_occupancy
  Ta  Ta0  1  0.00437400  0.00437400  0.01205900  1
  Ta  Ta1  1  0.50445500  0.50445500  0.51001500  1
  Ta  Ta2  1  0.60930100  0.60930100  0.78524500  1
  Ta  Ta3  1  0.11656100  0.11656100  0.29669100  1
  Ta  Ta4  1  0.19035900  0.19035900  0.60816600  1
  Ta  Ta5  1  0.30112900  0.30112900  0.90116300  1
  Ta  Ta6  1  0.40261600  0.40261600  0.19299600  1
  Ta  Ta7  1  0.70300800  0.70300800  0.11184000  1
  Ta  Ta8  1  0.80058300  0.80058300  0.40531700  1
  Ta  Ta9  1  0.90218200  0.90218200  0.69700700  1
  O  O0  1  0.57078700  0.57078700  0.48522200  1
  O  O1  1  0.25099200  0.25099200  0.25056000  1
  O  O2  1  0.15427900  0.15427900  0.94835900  1
  O  O3  1  0.06862700  0.06862700  0.98895400  1
  O  O4  1  0.85289500  0.85289500  0.04461800  1
  O  O5  1  0.75650300  0.75650300  0.72644700  1
  O  O6  1  0.45157200  0.45157200  0.85052200  1
  O  O7  1  0.34991800  0.34991800  0.56228600  1
  O  O8  1  0.95133600  0.95133600  0.35104700  1
loop_
_geom_bond_atom_site_label_1
_geom_bond_atom_site_label_2
_geom_bond_distance
_geom_bond_site_symmetry_2
O0 Ta2 2.060252 1_555
O0 Ta1 2.132067 1_555
O0 Ta3 2.203250 1_565
O0 Ta3 2.203250 1_655
O1 Ta7 2.223616 1_455
O1 Ta7 2.223616 1_545
O1 Ta8 2.292880 1_455
O1 Ta8 2.292880 1_545
O1 Ta5 2.362128 1_554
O1 Ta4 2.618544 1_555
O2 Ta4 2.063781 1_555
O2 Ta3 2.125971 1_556
O2 Ta2 2.206905 1_455
O2 Ta2 2.206905 1_545
O2 Ta7 2.291616 1_456
O2 Ta7 2.291616 1_546
O3 Ta0 2.065257 1_556
O3 Ta2 2.137100 1_545
O3 Ta2 2.137100 1_455
O3 Ta3 2.298853 1_556
O4 Ta6 2.282877 1_565
O4 Ta6 2.282877 1_655
O4 Ta5 2.321312 1_564
O4 Ta5 2.321312 1_654
O4 Ta9 2.337953 1_554
O4 Ta8 2.449893 1_555
O5 Ta8 2.130672 1_555
O5 Ta5 2.225905 1_565
O5 Ta5 2.225905 1_655
O5 Ta7 2.568900 1_556
O5 Ta4 2.640994 1_565
O5 Ta4 2.640994 1_655
O6 Ta9 2.285661 1_545
O6 Ta9 2.285661 1_455
O6 Ta6 2.311492 1_556
O6 Ta0 2.382217 1_566
O6 Ta0 2.382217 1_656
O6 Ta1 2.386405 1_555
O7 Ta8 2.291586 1_455
O7 Ta8 2.291586 1_545
O7 Ta5 2.294316 1_555
O7 Ta9 2.316817 1_455
O7 Ta9 2.316817 1_545
O7 Ta6 2.490621 1_555
O8 Ta6 2.279743 1_565
O8 Ta6 2.279743 1_655
O8 Ta9 2.328903 1_555
O8 Ta0 2.384176 1_665
O8 Ta1 2.384420 1_565
O8 Ta1 2.384420 1_655
