# generated using pymatgen
data_Sb2P3(HO3)3
_symmetry_space_group_name_H-M   'P 1'
_cell_length_a   7.37513800
_cell_length_b   8.53117529
_cell_length_c   9.37769456
_cell_angle_alpha   66.62219786
_cell_angle_beta   79.70479125
_cell_angle_gamma   67.74589814
_symmetry_Int_Tables_number   1
_chemical_formula_structural   Sb2P3(HO3)3
_chemical_formula_sum   'Sb4 P6 H6 O18'
_cell_volume   500.97207195
_cell_formula_units_Z   2
loop_
 _symmetry_equiv_pos_site_id
 _symmetry_equiv_pos_as_xyz
  1  'x, y, z'
loop_
 _atom_site_type_symbol
 _atom_site_label
 _atom_site_symmetry_multiplicity
 _atom_site_fract_x
 _atom_site_fract_y
 _atom_site_fract_z
 _atom_site_occupancy
  Sb  Sb0  1  0.00024800  0.48824800  0.73493900  1
  Sb  Sb1  1  0.99975200  0.51175200  0.26506100  1
  Sb  Sb2  1  0.32093100  0.84472600  0.41643200  1
  Sb  Sb3  1  0.67906900  0.15527400  0.58356800  1
  P  P0  1  0.23692600  0.10934800  0.63911800  1
  P  P1  1  0.76307400  0.89065200  0.36088200  1
  P  P2  1  0.22666800  0.21680400  0.06516000  1
  P  P3  1  0.77333200  0.78319600  0.93484000  1
  P  P4  1  0.45758400  0.50039900  0.26241100  1
  P  P5  1  0.54241600  0.49960100  0.73758900  1
  H  H0  1  0.16244800  0.00944000  0.77969900  1
  H  H1  1  0.83755200  0.99056000  0.22030100  1
  H  H2  1  0.42612100  0.15424800  0.02149200  1
  H  H3  1  0.57387900  0.84575200  0.97850800  1
  H  H4  1  0.52812200  0.50346400  0.11169200  1
  H  H5  1  0.47187800  0.49653600  0.88830800  1
  O  O0  1  0.20385900  0.05745900  0.50846000  1
  O  O1  1  0.79614100  0.94254100  0.49154000  1
  O  O2  1  0.45550700  0.05538900  0.67368600  1
  O  O3  1  0.54449300  0.94461100  0.32631400  1
  O  O4  1  0.12369500  0.31379500  0.59843300  1
  O  O5  1  0.87630500  0.68620500  0.40156700  1
  O  O6  1  0.17663300  0.06348000  0.20119900  1
  O  O7  1  0.82336700  0.93652000  0.79880100  1
  O  O8  1  0.19148700  0.39022600  0.09527900  1
  O  O9  1  0.80851300  0.60977400  0.90472100  1
  O  O10  1  0.11219100  0.25861900  0.92110300  1
  O  O11  1  0.88780900  0.74138100  0.07889700  1
  O  O12  1  0.22894100  0.59266800  0.25329500  1
  O  O13  1  0.77105900  0.40733200  0.74670500  1
  O  O14  1  0.51657700  0.29870400  0.36837700  1
  O  O15  1  0.48342300  0.70129600  0.63162300  1
  O  O16  1  0.53928000  0.61508600  0.30547500  1
  O  O17  1  0.46072000  0.38491400  0.69452500  1
loop_
_geom_bond_atom_site_label_1
_geom_bond_atom_site_label_2
_geom_bond_distance
_geom_bond_site_symmetry_2
H0 P0 1.403648 1_555
H1 P1 1.403648 1_555
H2 P2 1.407067 1_555
H3 P3 1.407067 1_555
H4 P4 1.409668 1_555
H5 P5 1.409668 1_555
O0 P0 1.541343 1_555
O0 Sb2 2.138628 1_545
O1 P1 1.541343 1_555
O1 Sb3 2.138628 1_565
O2 P0 1.556289 1_555
O2 Sb3 2.038017 1_555
O3 P1 1.556289 1_555
O3 Sb2 2.038017 1_555
O4 P0 1.538715 1_555
O4 Sb0 2.179819 1_555
O5 P1 1.538715 1_555
O5 Sb1 2.179819 1_555
O6 P2 1.532218 1_555
O6 Sb2 2.227887 1_545
O7 P3 1.532218 1_555
O7 Sb3 2.227887 1_565
O8 P2 1.533188 1_555
O8 Sb1 2.237015 1_455
O9 P3 1.533188 1_555
O9 Sb0 2.237015 1_655
O10 P2 1.569134 1_556
O10 Sb0 2.035480 1_555
O11 P3 1.569134 1_554
O11 Sb1 2.035480 1_555
O12 P4 1.569454 1_555
O12 Sb1 2.025462 1_455
O13 P5 1.569454 1_555
O13 Sb0 2.025462 1_655
O14 P4 1.538869 1_555
O14 Sb3 2.190864 1_555
O15 P5 1.538869 1_555
O15 Sb2 2.190864 1_555
O16 P4 1.526586 1_555
O16 Sb2 2.478548 1_555
O17 P5 1.526586 1_555
O17 Sb3 2.478548 1_555
