# generated using pymatgen
data_Na5Mn3F14
_symmetry_space_group_name_H-M   'P 1'
_cell_length_a   10.59185738
_cell_length_b   10.85312579
_cell_length_c   10.33182390
_cell_angle_alpha   90.00000000
_cell_angle_beta   90.00000000
_cell_angle_gamma   90.00000000
_symmetry_Int_Tables_number   1
_chemical_formula_structural   Na5Mn3F14
_chemical_formula_sum   'Na20 Mn12 F56'
_cell_volume   1187.69234190
_cell_formula_units_Z   4
loop_
 _symmetry_equiv_pos_site_id
 _symmetry_equiv_pos_as_xyz
  1  'x, y, z'
loop_
 _atom_site_type_symbol
 _atom_site_label
 _atom_site_symmetry_multiplicity
 _atom_site_fract_x
 _atom_site_fract_y
 _atom_site_fract_z
 _atom_site_occupancy
  Na  Na0  1  0.12012685  0.47943781  0.90522023  1
  Na  Na1  1  0.21139129  0.29833660  0.63082829  1
  Na  Na2  1  0.03393410  0.78346997  0.83154540  1
  Na  Na3  1  0.15952897  0.87837144  0.14316796  1
  Na  Na4  1  0.21180761  0.53882588  0.22302378  1
  Na  Na5  1  0.28819239  0.96117412  0.72302378  1
  Na  Na6  1  0.34047103  0.62162856  0.64316696  1
  Na  Na7  1  0.46606590  0.71653003  0.33154540  1
  Na  Na8  1  0.28860871  0.20166340  0.13082829  1
  Na  Na9  1  0.37987315  0.02056219  0.40522023  1
  Na  Na10  1  0.62012685  0.52056219  0.59477977  1
  Na  Na11  1  0.71139129  0.70166340  0.86917171  1
  Na  Na12  1  0.53393410  0.21653003  0.66845460  1
  Na  Na13  1  0.71180761  0.46117412  0.27697622  1
  Na  Na14  1  0.65952897  0.12162856  0.35683304  1
  Na  Na15  1  0.84047103  0.37837144  0.85683304  1
  Na  Na16  1  0.78819239  0.03882588  0.77697622  1
  Na  Na17  1  0.96606590  0.28346997  0.16845460  1
  Na  Na18  1  0.78860871  0.79833660  0.36917171  1
  Na  Na19  1  0.87987315  0.97943781  0.09477977  1
  Mn  Mn0  1  0.95391847  0.52291320  0.56623301  1
  Mn  Mn1  1  0.13671449  0.75432823  0.47971895  1
  Mn  Mn2  1  0.93282270  0.65499633  0.10858518  1
  Mn  Mn3  1  0.56717730  0.84500367  0.60858518  1
  Mn  Mn4  1  0.36328551  0.74567177  0.97971895  1
  Mn  Mn5  1  0.54608153  0.97708680  0.06623301  1
  Mn  Mn6  1  0.45391847  0.47708680  0.93376699  1
  Mn  Mn7  1  0.63671449  0.24567177  0.02028105  1
  Mn  Mn8  1  0.43282270  0.34500367  0.39141482  1
  Mn  Mn9  1  0.06717730  0.15499633  0.89141482  1
  Mn  Mn10  1  0.86328551  0.25432823  0.52028105  1
  Mn  Mn11  1  0.04608153  0.02291320  0.43376699  1
  F  F0  1  0.99093103  0.50258681  0.18697293  1
  F  F1  1  0.88414884  0.02372548  0.36172871  1
  F  F2  1  0.09275560  0.05251816  0.06227790  1
  F  F3  1  0.12190239  0.28746128  0.01147120  1
  F  F4  1  0.09495391  0.14491356  0.31926836  1
  F  F5  1  0.19257370  0.03635786  0.53386832  1
  F  F6  1  0.00301534  0.36082408  0.48741016  1
  F  F7  1  0.18104389  0.77877113  0.65877994  1
  F  F8  1  0.97554867  0.13192697  0.58733676  1
  F  F9  1  0.03662462  0.31644370  0.77582757  1
  F  F10  1  0.26513922  0.65010280  0.43220651  1
  F  F11  1  0.19076999  0.88209649  0.35411947  1
  F  F12  1  0.40140289  0.82750193  0.54580674  1
  F  F13  1  0.22299297  0.14291296  0.80763833  1
  F  F14  1  0.27700703  0.35708704  0.30763833  1
  F  F15  1  0.09859711  0.67249807  0.04580674  1
  F  F16  1  0.23486078  0.84989720  0.93220651  1
  F  F17  1  0.30923001  0.61790351  0.85411947  1
  F  F18  1  0.46337538  0.18355630  0.27582757  1
  F  F19  1  0.52445133  0.36807303  0.08733676  1
  F  F20  1  0.31895611  0.72122887  0.15877994  1
  F  F21  1  0.49698466  0.13917592  0.98741016  1
  F  F22  1  0.30742630  0.46364214  0.03386832  1
  F  F23  1  0.40504609  0.35508644  0.81926836  1
  F  F24  1  0.37809761  0.21253872  0.51147120  1
  F  F25  1  0.40724440  0.44748184  0.56227790  1
  F  F26  1  0.50906897  0.99741319  0.68697293  1
  F  F27  1  0.61585116  0.47627452  0.86172871  1
  F  F28  1  0.49093103  0.49741319  0.31302707  1
  F  F29  1  0.38414884  0.97627452  0.13827129  1
  F  F30  1  0.62190239  0.71253872  0.48852880  1
  F  F31  1  0.59275560  0.94748184  0.43772210  1
  F  F32  1  0.59495391  0.85508744  0.18073164  1
  F  F33  1  0.50301534  0.63917592  0.01258984  1
  F  F34  1  0.69257370  0.96364214  0.96613168  1
  F  F35  1  0.68104389  0.22122887  0.84122006  1
  F  F36  1  0.53662462  0.68355630  0.72417243  1
  F  F37  1  0.47554867  0.86807303  0.91266324  1
  F  F38  1  0.76513922  0.34989720  0.06779349  1
  F  F39  1  0.69076999  0.11790351  0.14588053  1
  F  F40  1  0.90140289  0.17249807  0.95419326  1
  F  F41  1  0.72299297  0.85708704  0.69236167  1
  F  F42  1  0.77700703  0.64291296  0.19236167  1
  F  F43  1  0.59859711  0.32750193  0.45419326  1
  F  F44  1  0.73486078  0.15010280  0.56779349  1
  F  F45  1  0.80923001  0.38209649  0.64588053  1
  F  F46  1  0.02445133  0.63192697  0.41266324  1
  F  F47  1  0.96337538  0.81644370  0.22417243  1
  F  F48  1  0.81895611  0.27877113  0.34122006  1
  F  F49  1  0.80742630  0.53635786  0.46613168  1
  F  F50  1  0.99698466  0.86082408  0.51258984  1
  F  F51  1  0.90504609  0.64491256  0.68073164  1
  F  F52  1  0.90724440  0.55251816  0.93772210  1
  F  F53  1  0.87809761  0.78746128  0.98852880  1
  F  F54  1  0.11585116  0.52372548  0.63827129  1
  F  F55  1  0.00906897  0.00258681  0.81302707  1
loop_
_geom_bond_atom_site_label_1
_geom_bond_atom_site_label_2
_geom_bond_distance
_geom_bond_site_symmetry_2
F0 Mn2 1.941865 1_555
F0 Na17 2.400279 1_555
F0 Na4 2.401386 1_655
F1 Mn11 1.869717 1_655
F1 Na14 2.606126 1_555
F1 Na18 2.648342 1_545
F1 Na19 2.800006 1_545
F2 Mn9 2.103993 1_554
F2 Na3 2.184241 1_545
F2 Na19 2.413725 1_445
F2 Na8 2.724907 1_555
F3 Mn9 1.985306 1_554
F3 Na17 2.314517 1_455
F3 Na8 2.346404 1_555
F3 Na0 2.355123 1_554
F4 Mn11 1.849487 1_555
F4 Na17 2.559868 1_455
F4 Na8 2.894332 1_555
F5 Mn11 1.870417 1_555
F5 Na5 2.347534 1_545
F5 Na9 2.394105 1_555
F6 Mn10 1.908308 1_455
F6 Mn0 2.007073 1_455
F6 Na1 2.743505 1_555
F7 Mn1 1.927027 1_555
F7 Na2 2.369946 1_555
F7 Na5 2.376459 1_555
F7 Na6 2.405448 1_555
F8 Mn10 1.912753 1_555
F8 Mn11 2.115518 1_655
F9 Mn9 2.145026 1_555
F9 Na15 2.338534 1_455
F9 Na0 2.387213 1_555
F9 Na1 2.389462 1_555
F10 Mn1 1.835979 1_555
F10 Na6 2.341546 1_555
F10 Na7 2.475998 1_555
F10 Na4 2.539407 1_555
F11 Mn1 1.983597 1_555
F11 Na3 2.204861 1_555
F11 Mn11 2.315490 1_565
F11 Na9 2.559089 1_565
F12 Mn3 1.881442 1_555
F12 Na6 2.533925 1_555
F12 Na9 2.559710 1_565
F12 Na7 2.611544 1_555
F12 Na5 2.625841 1_555
F13 Mn9 1.868193 1_555
F13 Na5 2.265318 1_545
F13 Na1 2.489497 1_555
F14 Mn8 1.868193 1_555
F14 Na4 2.265318 1_555
F14 Na8 2.489497 1_555
F15 Mn2 1.881442 1_455
F15 Na3 2.533929 1_555
F15 Na0 2.559710 1_554
F15 Na2 2.611544 1_554
F15 Na4 2.625841 1_555
F16 Mn4 1.835979 1_555
F16 Na3 2.341555 1_556
F16 Na2 2.475998 1_555
F16 Na5 2.539407 1_555
F17 Mn4 1.983597 1_555
F17 Na6 2.204871 1_555
F17 Mn6 2.315490 1_555
F17 Na0 2.559089 1_555
F18 Mn8 2.145026 1_555
F18 Na14 2.338534 1_555
F18 Na9 2.387213 1_555
F18 Na8 2.389462 1_555
F19 Mn7 1.912753 1_555
F19 Mn6 2.115518 1_554
F20 Mn4 1.927027 1_554
F20 Na7 2.369946 1_555
F20 Na4 2.376459 1_555
F20 Na3 2.405447 1_555
F21 Mn7 1.908308 1_556
F21 Mn5 2.007073 1_546
F21 Na8 2.743505 1_556
F22 Mn6 1.870417 1_554
F22 Na4 2.347534 1_555
F22 Na0 2.394105 1_554
F23 Mn6 1.849487 1_555
F23 Na12 2.559868 1_555
F23 Na1 2.894332 1_555
F24 Mn8 1.985306 1_555
F24 Na12 2.314517 1_555
F24 Na1 2.346404 1_555
F24 Na9 2.355123 1_555
F25 Mn8 2.103993 1_555
F25 Na6 2.184237 1_555
F25 Na10 2.413725 1_555
F25 Na1 2.724907 1_555
F26 Mn3 1.941865 1_555
F26 Na12 2.400279 1_565
F26 Na5 2.401386 1_555
F27 Mn6 1.869717 1_555
F27 Na15 2.606126 1_555
F27 Na11 2.648342 1_555
F27 Na10 2.800006 1_555
F28 Mn8 1.941865 1_555
F28 Na7 2.400279 1_555
F28 Na13 2.401386 1_555
F29 Mn5 1.869717 1_555
F29 Na3 2.606127 1_555
F29 Na8 2.648342 1_565
F29 Na9 2.800006 1_565
F30 Mn3 1.985306 1_555
F30 Na7 2.314517 1_555
F30 Na18 2.346404 1_555
F30 Na10 2.355123 1_555
F31 Mn3 2.103993 1_555
F31 Na14 2.184237 1_565
F31 Na9 2.413725 1_565
F31 Na18 2.724907 1_555
F32 Mn5 1.849480 1_555
F32 Na7 2.559874 1_555
F32 Na18 2.894334 1_555
F33 Mn4 1.908308 1_554
F33 Mn6 2.007073 1_554
F33 Na11 2.743505 1_554
F34 Mn5 1.870417 1_556
F34 Na16 2.347534 1_565
F34 Na19 2.394105 1_556
F35 Mn7 1.927027 1_556
F35 Na12 2.369946 1_555
F35 Na16 2.376459 1_555
F35 Na15 2.405448 1_555
F36 Mn3 2.145026 1_555
F36 Na6 2.338534 1_555
F36 Na10 2.387213 1_555
F36 Na11 2.389462 1_555
F37 Mn4 1.912753 1_555
F37 Mn5 2.115518 1_556
F38 Mn7 1.835979 1_555
F38 Na15 2.341546 1_554
F38 Na17 2.475998 1_555
F38 Na13 2.539407 1_555
F39 Mn7 1.983597 1_555
F39 Na14 2.204871 1_555
F39 Mn5 2.315490 1_545
F39 Na19 2.559089 1_545
F40 Mn9 1.881442 1_655
F40 Na15 2.533925 1_555
F40 Na19 2.559710 1_546
F40 Na17 2.611544 1_556
F40 Na16 2.625841 1_555
F41 Mn3 1.868193 1_555
F41 Na16 2.265318 1_565
F41 Na11 2.489497 1_555
F42 Mn2 1.868193 1_555
F42 Na13 2.265318 1_555
F42 Na18 2.489497 1_555
F43 Mn8 1.881442 1_555
F43 Na14 2.533925 1_555
F43 Na10 2.559710 1_555
F43 Na12 2.611544 1_555
F43 Na13 2.625841 1_555
F44 Mn10 1.835979 1_555
F44 Na14 2.341546 1_555
F44 Na12 2.475998 1_555
F44 Na16 2.539407 1_555
F45 Mn10 1.983597 1_555
F45 Na15 2.204871 1_555
F45 Mn0 2.315490 1_555
F45 Na10 2.559089 1_555
F46 Mn1 1.912753 1_555
F46 Mn0 2.115518 1_455
F47 Mn2 2.145026 1_555
F47 Na3 2.338530 1_655
F47 Na19 2.387213 1_555
F47 Na18 2.389462 1_555
F48 Mn10 1.927027 1_555
F48 Na17 2.369946 1_555
F48 Na13 2.376459 1_555
F48 Na14 2.405448 1_555
F49 Mn0 1.870417 1_555
F49 Na13 2.347534 1_555
F49 Na10 2.394105 1_555
F50 Mn1 1.908308 1_655
F50 Mn11 2.007073 1_665
F50 Na18 2.743505 1_555
F51 Mn0 1.849480 1_555
F51 Na2 2.559874 1_655
F51 Na11 2.894334 1_555
F52 Mn2 2.103993 1_556
F52 Na15 2.184237 1_555
F52 Na0 2.413725 1_655
F52 Na11 2.724907 1_555
F53 Mn2 1.985306 1_556
F53 Na2 2.314517 1_655
F53 Na11 2.346404 1_555
F53 Na19 2.355123 1_556
F54 Mn0 1.869717 1_455
F54 Na6 2.606126 1_555
F54 Na1 2.648342 1_555
F54 Na0 2.800006 1_555
F55 Mn9 1.941865 1_555
F55 Na2 2.400279 1_545
F55 Na16 2.401386 1_455
