# generated using pymatgen
data_CuS4(N2Cl)2
_symmetry_space_group_name_H-M   'P 1'
_cell_length_a   6.73238600
_cell_length_b   6.82820400
_cell_length_c   19.39860100
_cell_angle_alpha   90.00000000
_cell_angle_beta   90.00000000
_cell_angle_gamma   90.00000000
_symmetry_Int_Tables_number   1
_chemical_formula_structural   CuS4(N2Cl)2
_chemical_formula_sum   'Cu4 S16 N16 Cl8'
_cell_volume   891.75572511
_cell_formula_units_Z   4
loop_
 _symmetry_equiv_pos_site_id
 _symmetry_equiv_pos_as_xyz
  1  'x, y, z'
loop_
 _atom_site_type_symbol
 _atom_site_label
 _atom_site_symmetry_multiplicity
 _atom_site_fract_x
 _atom_site_fract_y
 _atom_site_fract_z
 _atom_site_occupancy
  Cu  Cu0  1  0.50000000  0.50000000  0.50000000  1
  Cu  Cu1  1  0.50000000  0.00000000  0.00000000  1
  Cu  Cu2  1  0.00000000  0.50000000  0.50000000  1
  Cu  Cu3  1  0.00000000  0.00000000  0.00000000  1
  S  S0  1  0.04881800  0.38264500  0.87052700  1
  S  S1  1  0.04881800  0.11735500  0.37052700  1
  S  S2  1  0.54881800  0.61735500  0.12947300  1
  S  S3  1  0.45118200  0.11735500  0.37052700  1
  S  S4  1  0.25000000  0.44474700  0.32987300  1
  S  S5  1  0.54881800  0.88264500  0.62947300  1
  S  S6  1  0.25000000  0.36797900  0.74836600  1
  S  S7  1  0.75000000  0.63202100  0.25163400  1
  S  S8  1  0.75000000  0.94474700  0.17012700  1
  S  S9  1  0.95118200  0.88264500  0.62947300  1
  S  S10  1  0.95118200  0.61735500  0.12947300  1
  S  S11  1  0.25000000  0.05525300  0.82987300  1
  S  S12  1  0.75000000  0.86797900  0.75163400  1
  S  S13  1  0.75000000  0.55525300  0.67012700  1
  S  S14  1  0.25000000  0.13202100  0.24836600  1
  S  S15  1  0.45118200  0.38264500  0.87052700  1
  N  N0  1  0.05693500  0.05235400  0.29030000  1
  N  N1  1  0.44306500  0.44764600  0.79030000  1
  N  N2  1  0.55693500  0.55235400  0.20970000  1
  N  N3  1  0.05803200  0.14509900  0.87100900  1
  N  N4  1  0.55803200  0.64509900  0.62899100  1
  N  N5  1  0.55693500  0.94764600  0.70970000  1
  N  N6  1  0.05693500  0.44764600  0.79030000  1
  N  N7  1  0.44306500  0.05235400  0.29030000  1
  N  N8  1  0.94196800  0.64509900  0.62899100  1
  N  N9  1  0.05803200  0.35490100  0.37100900  1
  N  N10  1  0.94196800  0.85490100  0.12899100  1
  N  N11  1  0.55803200  0.85490100  0.12899100  1
  N  N12  1  0.94306500  0.55235400  0.20970000  1
  N  N13  1  0.44196800  0.14509900  0.87100900  1
  N  N14  1  0.94306500  0.94764600  0.70970000  1
  N  N15  1  0.44196800  0.35490100  0.37100900  1
  Cl  Cl0  1  0.25000000  0.72514800  0.48181100  1
  Cl  Cl1  1  0.75000000  0.27485200  0.51818900  1
  Cl  Cl2  1  0.75000000  0.79595000  0.96056400  1
  Cl  Cl3  1  0.25000000  0.29595000  0.53943600  1
  Cl  Cl4  1  0.25000000  0.77485200  0.98181100  1
  Cl  Cl5  1  0.25000000  0.20405000  0.03943600  1
  Cl  Cl6  1  0.75000000  0.22514800  0.01818900  1
  Cl  Cl7  1  0.75000000  0.70405000  0.46056400  1
loop_
_geom_bond_atom_site_label_1
_geom_bond_atom_site_label_2
_geom_bond_distance
_geom_bond_site_symmetry_2
Cu0 N4 2.719465 1_555
Cu0 N15 2.719465 1_555
Cu1 N11 2.719465 1_545
Cu1 N13 2.719465 1_554
Cu2 N8 2.719465 1_455
Cu2 N9 2.719465 1_555
Cu3 N10 2.719465 1_445
Cu3 N3 2.719465 1_554
N0 S1 1.619266 1_555
N0 S14 1.626986 1_555
N1 S15 1.619266 1_555
N1 S6 1.626986 1_555
N2 S2 1.619266 1_555
N2 S7 1.626986 1_555
N3 S0 1.623225 1_555
N3 S11 1.638122 1_555
N4 S5 1.623225 1_555
N4 S13 1.638122 1_555
N5 S5 1.619266 1_555
N5 S12 1.626986 1_555
N6 S0 1.619266 1_555
N6 S6 1.626986 1_555
N7 S3 1.619266 1_555
N7 S14 1.626986 1_555
N8 S9 1.623225 1_555
N8 S13 1.638122 1_555
N9 S1 1.623225 1_555
N9 S4 1.638122 1_555
N10 S10 1.623225 1_555
N10 S8 1.638122 1_555
N11 S2 1.623225 1_555
N11 S8 1.638122 1_555
N12 S10 1.619266 1_555
N12 S7 1.626986 1_555
N13 S15 1.623225 1_555
N13 S11 1.638122 1_555
N14 S9 1.619266 1_555
N14 S12 1.626986 1_555
N15 S3 1.623225 1_555
N15 S4 1.638122 1_555
Cl0 Cu0 2.306681 1_555
Cl0 Cu2 2.306681 1_555
Cl1 Cu2 2.306681 1_655
Cl1 Cu0 2.306681 1_555
Cl2 Cu1 2.315019 1_566
Cl2 Cu3 2.315019 1_666
Cl3 Cu2 2.315019 1_555
Cl3 Cu0 2.315019 1_555
Cl4 Cu1 2.306681 1_566
Cl4 Cu3 2.306681 1_566
Cl5 Cu1 2.315019 1_555
Cl5 Cu3 2.315019 1_555
Cl6 Cu1 2.306681 1_555
Cl6 Cu3 2.306681 1_655
Cl7 Cu2 2.315019 1_655
Cl7 Cu0 2.315019 1_555
