# generated using pymatgen
data_SbH3C2(O2F3)2
_symmetry_space_group_name_H-M   'P 1'
_cell_length_a   7.94533917
_cell_length_b   7.94533917
_cell_length_c   8.60192270
_cell_angle_alpha   57.47243205
_cell_angle_beta   57.47243205
_cell_angle_gamma   70.27816881
_symmetry_Int_Tables_number   1
_chemical_formula_structural   SbH3C2(O2F3)2
_chemical_formula_sum   'Sb2 H6 C4 O8 F12'
_cell_volume   385.12926020
_cell_formula_units_Z   2
loop_
 _symmetry_equiv_pos_site_id
 _symmetry_equiv_pos_as_xyz
  1  'x, y, z'
loop_
 _atom_site_type_symbol
 _atom_site_label
 _atom_site_symmetry_multiplicity
 _atom_site_fract_x
 _atom_site_fract_y
 _atom_site_fract_z
 _atom_site_occupancy
  Sb  Sb0  1  0.14516500  0.85636400  0.50028400  1
  Sb  Sb1  1  0.85636400  0.14516500  0.00028400  1
  H  H0  1  0.43431500  0.92863600  0.61285200  1
  H  H1  1  0.92863600  0.43431500  0.11285200  1
  H  H2  1  0.62468100  0.90128900  0.95562600  1
  H  H3  1  0.90128900  0.62468100  0.45562600  1
  H  H4  1  0.38532300  0.39410400  0.53197700  1
  H  H5  1  0.39410400  0.38532300  0.03197700  1
  C  C0  1  0.52487000  0.93182200  0.78088900  1
  C  C1  1  0.93182200  0.52487000  0.28088900  1
  C  C2  1  0.48977200  0.16103000  0.70582500  1
  C  C3  1  0.16103000  0.48977200  0.20582500  1
  O  O0  1  0.48719100  0.84066100  0.71851000  1
  O  O1  1  0.84066100  0.48719100  0.21851000  1
  O  O2  1  0.59396000  0.82311700  0.91251200  1
  O  O3  1  0.82311700  0.59396000  0.41251200  1
  O  O4  1  0.41420500  0.24709200  0.57346800  1
  O  O5  1  0.24709200  0.41420500  0.07346800  1
  O  O6  1  0.53134900  0.23676000  0.77106300  1
  O  O7  1  0.23676000  0.53134900  0.27106300  1
  F  F0  1  0.04396600  0.75774200  0.78946000  1
  F  F1  1  0.75774200  0.04396600  0.28946000  1
  F  F2  1  0.25055400  0.95956000  0.21072800  1
  F  F3  1  0.95956000  0.25055400  0.71072800  1
  F  F4  1  0.33057200  0.00338400  0.45716200  1
  F  F5  1  0.00338400  0.33057200  0.95716200  1
  F  F6  1  0.95446900  0.70370700  0.55878600  1
  F  F7  1  0.70370700  0.95446900  0.05878600  1
  F  F8  1  0.94743300  0.07568600  0.49572500  1
  F  F9  1  0.07568600  0.94743300  0.99572500  1
  F  F10  1  0.34072800  0.63289200  0.50633600  1
  F  F11  1  0.63289200  0.34072800  0.00633600  1
loop_
_geom_bond_atom_site_label_1
_geom_bond_atom_site_label_2
_geom_bond_distance
_geom_bond_site_symmetry_2
H0 O0 1.010126 1_555
H1 O1 1.010126 1_555
H2 O2 1.015023 1_555
H3 O3 1.015023 1_555
H4 O4 1.001626 1_555
H5 O5 1.001626 1_555
C0 O2 1.275141 1_555
C0 O0 1.280316 1_555
C1 O3 1.275141 1_555
C1 O1 1.280316 1_555
C2 O6 1.217668 1_555
C2 O4 1.321028 1_555
C3 O7 1.217668 1_555
C3 O5 1.321028 1_555
F0 Sb0 1.904263 1_555
F1 Sb1 1.904263 1_555
F2 Sb0 1.897750 1_555
F3 Sb1 1.897750 1_556
F4 Sb0 1.944212 1_545
F5 Sb1 1.944212 1_456
F6 H3 1.594263 1_555
F6 Sb0 1.945249 1_655
F7 H2 1.594263 1_554
F7 Sb1 1.945249 1_565
F8 Sb0 1.910869 1_645
F9 Sb1 1.910869 1_466
F10 Sb0 1.922304 1_555
F11 Sb1 1.922304 1_555
