# generated using pymatgen
data_Sr3BCNCl2
_symmetry_space_group_name_H-M   'P 1'
_cell_length_a   4.08981200
_cell_length_b   11.78330900
_cell_length_c   14.68718700
_cell_angle_alpha   90.00000000
_cell_angle_beta   90.00000000
_cell_angle_gamma   90.00000000
_symmetry_Int_Tables_number   1
_chemical_formula_structural   Sr3BCNCl2
_chemical_formula_sum   'Sr12 B4 C4 N4 Cl8'
_cell_volume   707.79784473
_cell_formula_units_Z   4
loop_
 _symmetry_equiv_pos_site_id
 _symmetry_equiv_pos_as_xyz
  1  'x, y, z'
loop_
 _atom_site_type_symbol
 _atom_site_label
 _atom_site_symmetry_multiplicity
 _atom_site_fract_x
 _atom_site_fract_y
 _atom_site_fract_z
 _atom_site_occupancy
  Sr  Sr0  1  0.75000000  0.69138200  0.32671600  1
  Sr  Sr1  1  0.25000000  0.13076900  0.88329900  1
  Sr  Sr2  1  0.75000000  0.86923100  0.11670100  1
  Sr  Sr3  1  0.25000000  0.36923100  0.38329900  1
  Sr  Sr4  1  0.75000000  0.05838600  0.35450800  1
  Sr  Sr5  1  0.25000000  0.55838600  0.14549200  1
  Sr  Sr6  1  0.75000000  0.44161400  0.85450800  1
  Sr  Sr7  1  0.25000000  0.94161400  0.64549200  1
  Sr  Sr8  1  0.75000000  0.80861800  0.82671600  1
  Sr  Sr9  1  0.75000000  0.63076900  0.61670100  1
  Sr  Sr10  1  0.25000000  0.19138200  0.17328400  1
  Sr  Sr11  1  0.25000000  0.30861800  0.67328400  1
  B  B0  1  0.25000000  0.61652900  0.74533500  1
  B  B1  1  0.75000000  0.11652900  0.75466500  1
  B  B2  1  0.75000000  0.38347100  0.25466500  1
  B  B3  1  0.25000000  0.88347100  0.24533500  1
  C  C0  1  0.75000000  0.23469200  0.78068700  1
  C  C1  1  0.25000000  0.76530800  0.21931300  1
  C  C2  1  0.25000000  0.73469200  0.71931300  1
  C  C3  1  0.75000000  0.26530800  0.28068700  1
  N  N0  1  0.25000000  0.99912500  0.25214500  1
  N  N1  1  0.75000000  0.49912500  0.24785500  1
  N  N2  1  0.25000000  0.50087500  0.75214500  1
  N  N3  1  0.75000000  0.00087500  0.74785500  1
  Cl  Cl0  1  0.25000000  0.89098700  0.96213100  1
  Cl  Cl1  1  0.25000000  0.13899900  0.49957300  1
  Cl  Cl2  1  0.25000000  0.36100100  0.99957300  1
  Cl  Cl3  1  0.75000000  0.10901300  0.03786900  1
  Cl  Cl4  1  0.75000000  0.39098700  0.53786900  1
  Cl  Cl5  1  0.75000000  0.86100100  0.50042700  1
  Cl  Cl6  1  0.25000000  0.60901300  0.46213100  1
  Cl  Cl7  1  0.75000000  0.63899900  0.00042700  1
loop_
_geom_bond_atom_site_label_1
_geom_bond_atom_site_label_2
_geom_bond_distance
_geom_bond_site_symmetry_2
B0 N2 1.366452 1_555
B0 C2 1.443853 1_555
B0 Sr9 2.789111 1_555
B0 Sr9 2.789111 1_455
B1 N3 1.366452 1_555
B1 C0 1.443853 1_555
B1 Sr1 2.789111 1_655
B1 Sr1 2.789111 1_555
B2 N1 1.366452 1_555
B2 C3 1.443853 1_555
B2 Sr3 2.789111 1_555
B2 Sr3 2.789111 1_655
B3 N0 1.366452 1_555
B3 C1 1.443853 1_555
B3 Sr2 2.789111 1_455
B3 Sr2 2.789111 1_555
C0 Sr6 2.668424 1_555
C0 Sr11 2.725580 1_555
C0 Sr11 2.725580 1_655
C0 Sr1 2.820013 1_655
C0 Sr1 2.820013 1_555
C1 Sr5 2.668424 1_555
C1 Sr0 2.725580 1_555
C1 Sr0 2.725580 1_455
C1 Sr2 2.820013 1_455
C1 Sr2 2.820013 1_555
C2 Sr7 2.668424 1_555
C2 Sr8 2.725580 1_455
C2 Sr8 2.725580 1_555
C2 Sr9 2.820013 1_455
C2 Sr9 2.820013 1_555
C3 Sr4 2.668424 1_555
C3 Sr10 2.725580 1_555
C3 Sr10 2.725580 1_655
C3 Sr3 2.820013 1_555
C3 Sr3 2.820013 1_655
N0 Sr10 2.544342 1_565
N0 Sr4 2.632401 1_465
N0 Sr4 2.632401 1_565
N1 Sr0 2.544342 1_555
N1 Sr5 2.632401 1_655
N1 Sr5 2.632401 1_555
N2 Sr11 2.544342 1_555
N2 Sr6 2.632401 1_555
N2 Sr6 2.632401 1_455
N3 Sr8 2.544342 1_545
N3 Sr7 2.632401 1_645
N3 Sr7 2.632401 1_545
Cl0 Sr8 3.013179 1_555
Cl0 Sr8 3.013179 1_455
Cl0 Sr1 3.053453 1_565
Cl0 Sr2 3.066131 1_456
Cl0 Sr2 3.066131 1_556
Cl1 Sr4 3.102156 1_555
Cl1 Sr4 3.102156 1_455
Cl1 Sr7 3.162692 1_545
Cl1 Sr3 3.205646 1_555
Cl1 Sr11 3.240981 1_555
Cl2 Sr6 3.102156 1_455
Cl2 Sr6 3.102156 1_555
Cl2 Sr5 3.162692 1_556
Cl2 Sr1 3.205646 1_555
Cl2 Sr10 3.240981 1_556
Cl3 Sr10 3.013179 1_655
Cl3 Sr10 3.013179 1_555
Cl3 Sr2 3.053453 1_545
Cl3 Sr1 3.066131 1_654
Cl3 Sr1 3.066131 1_554
Cl4 Sr11 3.013179 1_555
Cl4 Sr11 3.013179 1_655
Cl4 Sr9 3.053453 1_555
Cl4 Sr3 3.066131 1_555
Cl4 Sr3 3.066131 1_655
Cl5 Sr7 3.102156 1_655
Cl5 Sr7 3.102156 1_555
Cl5 Sr4 3.162692 1_565
Cl5 Sr9 3.205646 1_555
Cl5 Sr0 3.240981 1_555
Cl6 Sr0 3.013179 1_455
Cl6 Sr0 3.013179 1_555
Cl6 Sr3 3.053453 1_555
Cl6 Sr9 3.066131 1_455
Cl6 Sr9 3.066131 1_555
Cl7 Sr5 3.102156 1_655
Cl7 Sr5 3.102156 1_555
Cl7 Sr6 3.162692 1_554
Cl7 Sr2 3.205646 1_555
Cl7 Sr8 3.240981 1_554
