# generated using pymatgen
data_Ca16Zr9Ta7N7O41
_symmetry_space_group_name_H-M   'P 1'
_cell_length_a   5.61687700
_cell_length_b   5.78648364
_cell_length_c   32.18943796
_cell_angle_alpha   89.96719090
_cell_angle_beta   89.87008803
_cell_angle_gamma   89.91321194
_symmetry_Int_Tables_number   1
_chemical_formula_structural   Ca16Zr9Ta7N7O41
_chemical_formula_sum   'Ca16 Zr9 Ta7 N7 O41'
_cell_volume   1046.21598668
_cell_formula_units_Z   1
loop_
 _symmetry_equiv_pos_site_id
 _symmetry_equiv_pos_as_xyz
  1  'x, y, z'
loop_
 _atom_site_type_symbol
 _atom_site_label
 _atom_site_symmetry_multiplicity
 _atom_site_fract_x
 _atom_site_fract_y
 _atom_site_fract_z
 _atom_site_occupancy
  Ca  Ca0  1  0.01726600  0.04391700  0.06177900  1
  Ca  Ca1  1  0.00985900  0.04229400  0.31285800  1
  Ca  Ca2  1  0.01726900  0.04377100  0.56475500  1
  Ca  Ca3  1  0.01562800  0.04075100  0.81461100  1
  Ca  Ca4  1  0.48045200  0.54810600  0.06227800  1
  Ca  Ca5  1  0.48659500  0.55301500  0.31295100  1
  Ca  Ca6  1  0.48178800  0.54949200  0.81412400  1
  Ca  Ca7  1  0.48746700  0.54210300  0.56577700  1
  Ca  Ca8  1  0.50363200  0.46649600  0.43871800  1
  Ca  Ca9  1  0.50812500  0.45378500  0.18685200  1
  Ca  Ca10  1  0.50500200  0.44995400  0.68532400  1
  Ca  Ca11  1  0.50639400  0.45496300  0.93551500  1
  Ca  Ca12  1  0.98706300  0.94283300  0.18714600  1
  Ca  Ca13  1  0.97699500  0.94218400  0.43819700  1
  Ca  Ca14  1  0.98554900  0.94347100  0.68636300  1
  Ca  Ca15  1  0.99200300  0.94409000  0.93485600  1
  Zr  Zr0  1  0.50176300  0.00247200  0.12534100  1
  Zr  Zr1  1  0.99419100  0.49852200  0.12291400  1
  Zr  Zr2  1  0.99341000  0.49895100  0.00091300  1
  Zr  Zr3  1  0.99668800  0.49868700  0.25111800  1
  Zr  Zr4  1  0.99473200  0.49703500  0.37324800  1
  Zr  Zr5  1  0.99561200  0.50017700  0.62448500  1
  Zr  Zr6  1  0.99414100  0.49779100  0.87325800  1
  Zr  Zr7  1  0.99326400  0.49678600  0.75153900  1
  Zr  Zr8  1  0.99474500  0.49793900  0.50284000  1
  Ta  Ta0  1  0.49011300  0.00380200  0.37974000  1
  Ta  Ta1  1  0.51332300  0.98712400  0.62504900  1
  Ta  Ta2  1  0.51639800  0.01032400  0.87495100  1
  Ta  Ta3  1  0.50332200  0.99993200  0.99885000  1
  Ta  Ta4  1  0.50142900  0.00273200  0.25073800  1
  Ta  Ta5  1  0.49830800  0.00062600  0.74905900  1
  Ta  Ta6  1  0.49532300  0.00420500  0.49844900  1
  N  N0  1  0.40487200  0.02561900  0.43768700  1
  N  N1  1  0.69497600  0.71634100  0.63820200  1
  N  N2  1  0.78600200  0.19535000  0.88828500  1
  N  N3  1  0.89342400  0.45911300  0.06174800  1
  N  N4  1  0.89853900  0.46413100  0.31231900  1
  N  N5  1  0.89749600  0.46868200  0.81166700  1
  N  N6  1  0.90047800  0.45866900  0.56227100  1
  O  O0  1  0.10970600  0.54404600  0.18823900  1
  O  O1  1  0.10289400  0.54153800  0.43715900  1
  O  O2  1  0.10841600  0.54324700  0.68783900  1
  O  O3  1  0.10643900  0.54161000  0.93774600  1
  O  O4  1  0.21936100  0.80052700  0.01241400  1
  O  O5  1  0.21724200  0.80445700  0.26320500  1
  O  O6  1  0.21870200  0.80490100  0.51324000  1
  O  O7  1  0.20201300  0.80482100  0.11115200  1
  O  O8  1  0.21911100  0.80162900  0.36149300  1
  O  O9  1  0.21775700  0.80427200  0.76232700  1
  O  O10  1  0.21424300  0.80770400  0.61241500  1
  O  O11  1  0.21210300  0.80079800  0.86235900  1
  O  O12  1  0.30621300  0.27915000  0.01195800  1
  O  O13  1  0.30961000  0.28569500  0.26324100  1
  O  O14  1  0.31187100  0.28892300  0.51215400  1
  O  O15  1  0.30858200  0.28282900  0.76271100  1
  O  O16  1  0.30931300  0.28446500  0.36188900  1
  O  O17  1  0.30943000  0.30097500  0.11200500  1
  O  O18  1  0.30631700  0.28820100  0.61407700  1
  O  O19  1  0.30255900  0.28120700  0.86242500  1
  O  O20  1  0.39875400  0.03623600  0.19020600  1
  O  O21  1  0.40258400  0.03076600  0.68884800  1
  O  O22  1  0.40349800  0.02929800  0.93796100  1
  O  O23  1  0.60085600  0.96539100  0.05927200  1
  O  O24  1  0.59259100  0.96978700  0.81167400  1
  O  O25  1  0.59716300  0.96930300  0.31044400  1
  O  O26  1  0.59391100  0.97680300  0.56267300  1
  O  O27  1  0.69805900  0.70625800  0.14036700  1
  O  O28  1  0.69479100  0.71789900  0.23640000  1
  O  O29  1  0.69471300  0.72008000  0.73619900  1
  O  O30  1  0.70082500  0.72268900  0.48663200  1
  O  O31  1  0.69582700  0.71663600  0.38751400  1
  O  O32  1  0.69416900  0.71610900  0.98490300  1
  O  O33  1  0.68925200  0.71305500  0.88820200  1
  O  O34  1  0.78793900  0.19463100  0.23631600  1
  O  O35  1  0.78424700  0.19521000  0.73520800  1
  O  O36  1  0.78535400  0.19935100  0.48560600  1
  O  O37  1  0.78551500  0.19348200  0.98502800  1
  O  O38  1  0.80072000  0.19905800  0.14169200  1
  O  O39  1  0.78883300  0.19235000  0.38807100  1
  O  O40  1  0.78488200  0.19837700  0.63996300  1
loop_
_geom_bond_atom_site_label_1
_geom_bond_atom_site_label_2
_geom_bond_distance
_geom_bond_site_symmetry_2
Ca0 O7 2.348918 1_545
Ca0 O23 2.384882 1_445
Ca0 O4 2.405540 1_545
Ca0 N3 2.500186 1_455
Ca0 O12 2.655396 1_555
Ca0 O17 2.746204 1_555
Ca0 O37 2.925051 1_454
Ca0 O38 2.981187 1_455
Ca1 O25 2.358318 1_445
Ca1 O8 2.402615 1_545
Ca1 O5 2.407216 1_545
Ca1 N4 2.518907 1_455
Ca1 O16 2.702866 1_555
Ca1 O13 2.713245 1_555
Ca1 O39 2.853465 1_455
Ca1 O34 2.899901 1_455
Ca2 O10 2.333314 1_545
Ca2 O26 2.410984 1_445
Ca2 O6 2.435114 1_545
Ca2 N6 2.489140 1_455
Ca2 O18 2.679225 1_555
Ca2 O14 2.758456 1_555
Ca2 O40 2.889553 1_455
Ca2 O36 3.001216 1_455
Ca3 O11 2.347059 1_545
Ca3 O24 2.414052 1_445
Ca3 O9 2.446054 1_545
Ca3 N5 2.564359 1_455
Ca3 O19 2.631113 1_555
Ca3 O15 2.729956 1_555
Ca3 N2 2.841304 1_455
Ca3 O35 3.004936 1_455
Ca4 O17 2.350422 1_555
Ca4 N3 2.375350 1_555
Ca4 O12 2.453215 1_555
Ca4 O23 2.510274 1_555
Ca4 O4 2.619530 1_555
Ca4 O7 2.666857 1_555
Ca4 O32 2.928594 1_554
Ca4 O27 2.944450 1_555
Ca5 N4 2.369597 1_555
Ca5 O16 2.425418 1_555
Ca5 O13 2.440514 1_555
Ca5 O25 2.489743 1_555
Ca5 O8 2.598800 1_555
Ca5 O5 2.640389 1_555
Ca5 O31 2.838489 1_555
Ca5 O28 2.887456 1_555
Ca6 N5 2.381794 1_555
Ca6 O19 2.415721 1_555
Ca6 O15 2.465992 1_555
Ca6 O24 2.512464 1_555
Ca6 O11 2.608679 1_555
Ca6 O9 2.674808 1_555
Ca6 O33 2.821029 1_555
Ca6 O29 2.946819 1_555
Ca7 O18 2.367664 1_555
Ca7 N6 2.371271 1_555
Ca7 O14 2.472544 1_555
Ca7 O26 2.588166 1_555
Ca7 O10 2.637433 1_555
Ca7 O6 2.730024 1_555
Ca7 N1 2.797974 1_555
Ca7 O30 3.000908 1_555
Ca8 O1 2.292408 1_555
Ca8 O30 2.412173 1_555
Ca8 O31 2.443572 1_555
Ca8 N0 2.611807 1_555
Ca8 O36 2.678116 1_555
Ca8 O39 2.779205 1_555
Ca8 O14 2.791562 1_555
Ca8 O16 2.904414 1_555
Ca9 O0 2.297582 1_555
Ca9 O27 2.346578 1_555
Ca9 O28 2.448263 1_555
Ca9 O20 2.496133 1_555
Ca9 O38 2.640274 1_555
Ca9 O34 2.693619 1_555
Ca9 O17 2.801730 1_555
Ca9 O13 2.867707 1_555
Ca10 O2 2.292522 1_555
Ca10 N1 2.410479 1_555
Ca10 O21 2.496212 1_555
Ca10 O29 2.505281 1_555
Ca10 O40 2.589915 1_555
Ca10 O35 2.685728 1_555
Ca10 O18 2.720002 1_555
Ca10 O15 2.888897 1_555
Ca11 O3 2.301997 1_555
Ca11 O33 2.366370 1_555
Ca11 O32 2.436892 1_555
Ca11 O22 2.531994 1_555
Ca11 N2 2.649389 1_555
Ca11 O37 2.699790 1_555
Ca11 O19 2.806326 1_555
Ca11 O12 2.888273 1_556
Ca12 O38 2.331152 1_565
Ca12 O20 2.377808 1_665
Ca12 O0 2.407464 1_655
Ca12 O34 2.422530 1_565
Ca12 O27 2.607043 1_555
Ca12 O28 2.625856 1_555
Ca12 O7 2.839946 1_655
Ca12 O5 2.883717 1_655
Ca13 O36 2.385853 1_565
Ca13 O39 2.411719 1_565
Ca13 O1 2.422987 1_655
Ca13 N0 2.452080 1_665
Ca13 O30 2.538294 1_555
Ca13 O31 2.622885 1_555
Ca13 O6 2.884220 1_655
Ca13 O8 2.931021 1_655
Ca14 O40 2.382633 1_565
Ca14 O21 2.398549 1_665
Ca14 O2 2.416001 1_655
Ca14 O35 2.421169 1_565
Ca14 N1 2.610516 1_555
Ca14 O29 2.627761 1_555
Ca14 O10 2.813984 1_655
Ca14 O9 2.887587 1_655
Ca15 O22 2.366397 1_665
Ca15 N2 2.387521 1_565
Ca15 O3 2.416874 1_655
Ca15 O37 2.454604 1_565
Ca15 O33 2.637246 1_555
Ca15 O32 2.669494 1_555
Ca15 O11 2.765460 1_655
Ca15 O4 2.926186 1_656
N0 Ta0 1.928856 1_555
N0 Ta6 2.025594 1_555
N1 Ta1 1.916191 1_555
N1 Zr5 2.145198 1_555
N2 Ta2 1.905808 1_555
N2 Zr6 2.160129 1_555
N3 Zr2 2.048940 1_555
N3 Zr1 2.062735 1_555
N4 Zr4 2.044580 1_555
N4 Zr3 2.054231 1_555
N5 Zr7 2.014223 1_555
N5 Zr6 2.063786 1_555
N6 Zr8 1.996754 1_555
N6 Zr5 2.087956 1_555
O0 Zr3 2.136043 1_455
O0 Zr1 2.217967 1_455
O1 Zr4 2.162053 1_455
O1 Zr8 2.212842 1_455
O2 Zr5 2.151594 1_455
O2 Zr7 2.165391 1_455
O3 Zr2 2.142986 1_456
O3 Zr6 2.185923 1_455
O4 Ta3 2.016878 1_554
O4 Zr2 2.191484 1_455
O5 Ta4 2.006860 1_565
O5 Zr3 2.196866 1_455
O6 Ta6 1.993060 1_565
O6 Zr8 2.204277 1_455
O7 Zr0 2.088371 1_565
O7 Zr1 2.156580 1_455
O8 Ta0 2.010192 1_565
O8 Zr4 2.200424 1_455
O9 Ta5 1.989568 1_565
O9 Zr7 2.210396 1_455
O10 Ta1 2.018461 1_555
O10 Zr5 2.197562 1_455
O11 Ta2 2.136716 1_565
O11 Zr6 2.167944 1_455
O12 Ta3 2.001870 1_544
O12 Zr2 2.196948 1_455
O13 Ta4 1.999303 1_555
O13 Zr3 2.180960 1_455
O14 Ta6 1.991064 1_555
O14 Zr8 2.172800 1_455
O15 Ta5 1.997188 1_555
O15 Zr7 2.189670 1_455
O16 Ta0 1.998902 1_555
O16 Zr4 2.181704 1_455
O17 Zr0 2.080975 1_555
O17 Zr1 2.134651 1_455
O18 Ta1 2.122940 1_545
O18 Zr5 2.157269 1_455
O19 Ta2 2.014431 1_555
O19 Zr6 2.164362 1_455
O20 Ta4 2.042333 1_555
O20 Zr0 2.174211 1_555
O21 Ta5 2.019905 1_555
O21 Ta1 2.159279 1_545
O22 Ta3 2.046730 1_545
O22 Ta2 2.126554 1_555
O23 Ta3 2.031492 1_554
O23 Zr0 2.207619 1_565
O24 Ta5 2.092569 1_565
O24 Ta2 2.093616 1_565
O25 Ta4 2.006046 1_565
O25 Ta0 2.317549 1_565
O26 Ta1 2.058118 1_555
O26 Ta6 2.147140 1_565
O27 Zr0 2.093627 1_565
O27 Zr1 2.125498 1_555
O28 Ta4 2.025409 1_565
O28 Zr3 2.169184 1_555
O29 Ta5 2.004243 1_565
O29 Zr7 2.172982 1_555
O30 Ta6 2.030683 1_565
O30 Zr8 2.164640 1_555
O31 Ta0 2.038120 1_565
O31 Zr4 2.152918 1_555
O32 Ta3 2.010288 1_555
O32 Zr2 2.160199 1_556
O33 Ta2 2.019765 1_565
O33 Zr6 2.169377 1_555
O34 Ta4 2.009926 1_555
O34 Zr3 2.169586 1_555
O35 Ta5 2.011897 1_555
O35 Zr7 2.170249 1_555
O36 Ta6 2.025307 1_555
O36 Zr8 2.164817 1_555
O37 Ta3 1.991549 1_545
O37 Zr2 2.181606 1_556
O38 Zr0 2.097911 1_555
O38 Zr1 2.133204 1_555
O39 Ta0 2.021248 1_555
O39 Zr4 2.162465 1_555
O40 Ta1 2.015188 1_545
O40 Zr5 2.168320 1_555
