# generated using pymatgen
data_Tb11CuSe16
_symmetry_space_group_name_H-M   'P 1'
_cell_length_a   8.69663500
_cell_length_b   8.78270700
_cell_length_c   17.40153400
_cell_angle_alpha   90.00000000
_cell_angle_beta   90.00000000
_cell_angle_gamma   90.00000000
_symmetry_Int_Tables_number   1
_chemical_formula_structural   Tb11CuSe16
_chemical_formula_sum   'Tb22 Cu2 Se32'
_cell_volume   1329.12911630
_cell_formula_units_Z   2
loop_
 _symmetry_equiv_pos_site_id
 _symmetry_equiv_pos_as_xyz
  1  'x, y, z'
loop_
 _atom_site_type_symbol
 _atom_site_label
 _atom_site_symmetry_multiplicity
 _atom_site_fract_x
 _atom_site_fract_y
 _atom_site_fract_z
 _atom_site_occupancy
  Tb  Tb0  1  0.25200400  0.00153600  0.68138700  1
  Tb  Tb1  1  0.62481500  0.23667100  0.62391200  1
  Tb  Tb2  1  0.25234500  0.51348300  0.56107000  1
  Tb  Tb3  1  0.00000000  0.12378500  0.50000000  1
  Tb  Tb4  1  0.86454700  0.75133600  0.62318700  1
  Tb  Tb5  1  0.74765500  0.51348300  0.43893000  1
  Tb  Tb6  1  0.13545300  0.75133600  0.37681300  1
  Tb  Tb7  1  0.99772600  0.37376800  0.24807900  1
  Tb  Tb8  1  0.74799600  0.00153600  0.31861300  1
  Tb  Tb9  1  0.49772600  0.62623200  0.25192100  1
  Tb  Tb10  1  0.37518500  0.23667100  0.37608800  1
  Tb  Tb11  1  0.24799600  0.99846400  0.18138700  1
  Tb  Tb12  1  0.63545300  0.24866400  0.12318700  1
  Tb  Tb13  1  0.50000000  0.87621500  0.00000000  1
  Tb  Tb14  1  0.24765500  0.48651700  0.06107000  1
  Tb  Tb15  1  0.87518500  0.76332900  0.12391200  1
  Tb  Tb16  1  0.75234500  0.48651700  0.93893000  1
  Tb  Tb17  1  0.12481500  0.76332900  0.87608800  1
  Tb  Tb18  1  0.75200400  0.99846400  0.81861300  1
  Tb  Tb19  1  0.00227400  0.37376800  0.75192100  1
  Tb  Tb20  1  0.50227400  0.62623200  0.74807900  1
  Tb  Tb21  1  0.36454700  0.24866400  0.87681300  1
  Cu  Cu0  1  0.50000000  0.87612700  0.50000000  1
  Cu  Cu1  1  0.00000000  0.12387300  0.00000000  1
  Se  Se0  1  0.92839300  0.07173800  0.66221600  1
  Se  Se1  1  0.32166400  0.31838900  0.71572400  1
  Se  Se2  1  0.31561400  0.19521600  0.53654200  1
  Se  Se3  1  0.17905700  0.68180700  0.71370200  1
  Se  Se4  1  0.19291700  0.83442900  0.53278700  1
  Se  Se5  1  0.56703500  0.91789300  0.65396200  1
  Se  Se6  1  0.93454400  0.43346300  0.59084000  1
  Se  Se7  1  0.57422300  0.55556900  0.59196900  1
  Se  Se8  1  0.42577700  0.55556900  0.40803100  1
  Se  Se9  1  0.80708300  0.83442900  0.46721300  1
  Se  Se10  1  0.82094300  0.68180700  0.28629800  1
  Se  Se11  1  0.68438600  0.19521600  0.46345800  1
  Se  Se12  1  0.67833600  0.31838900  0.28427600  1
  Se  Se13  1  0.43296500  0.91789300  0.34603800  1
  Se  Se14  1  0.06545600  0.43346300  0.40916000  1
  Se  Se15  1  0.07160700  0.07173800  0.33778400  1
  Se  Se16  1  0.93296500  0.08210700  0.15396200  1
  Se  Se17  1  0.32094300  0.31819300  0.21370200  1
  Se  Se18  1  0.17833600  0.68161100  0.21572400  1
  Se  Se19  1  0.30708300  0.16557100  0.03278700  1
  Se  Se20  1  0.18438600  0.80478400  0.03654200  1
  Se  Se21  1  0.92577700  0.44443100  0.09196900  1
  Se  Se22  1  0.57160700  0.92826200  0.16221600  1
  Se  Se23  1  0.56545600  0.56653700  0.09084000  1
  Se  Se24  1  0.43454400  0.56653700  0.90916000  1
  Se  Se25  1  0.81561400  0.80478400  0.96345800  1
  Se  Se26  1  0.82166400  0.68161100  0.78427600  1
  Se  Se27  1  0.69291700  0.16557100  0.96721300  1
  Se  Se28  1  0.67905700  0.31819300  0.78629800  1
  Se  Se29  1  0.42839300  0.92826200  0.83778400  1
  Se  Se30  1  0.07422300  0.44443100  0.90803100  1
  Se  Se31  1  0.06703500  0.08210700  0.84603800  1
loop_
_geom_bond_atom_site_label_1
_geom_bond_atom_site_label_2
_geom_bond_distance
_geom_bond_site_symmetry_2
Cu0 Se9 2.755301 1_555
Cu0 Se4 2.755301 1_555
Cu0 Se5 2.766297 1_555
Cu0 Se13 2.766297 1_555
Cu1 Se27 2.755301 1_454
Cu1 Se19 2.755301 1_555
Cu1 Se31 2.766297 1_554
Cu1 Se16 2.766297 1_455
Se0 Tb0 2.900324 1_655
Se0 Tb3 2.926602 1_655
Se0 Tb4 2.947565 1_545
Se0 Tb1 3.084278 1_555
Se0 Tb19 3.144212 1_655
Se0 Tb18 3.189686 1_545
Se1 Tb19 2.889374 1_555
Se1 Tb21 2.893439 1_555
Se1 Tb0 2.910009 1_555
Se1 Tb1 3.165157 1_555
Se1 Tb20 3.177115 1_555
Se1 Tb2 3.246843 1_555
Se2 Tb10 2.863046 1_555
Se2 Tb2 2.880682 1_555
Se2 Tb3 2.886476 1_555
Se2 Tb0 3.090726 1_555
Se2 Tb1 3.110443 1_555
Se3 Tb20 2.915006 1_555
Se3 Tb0 2.933261 1_565
Se3 Tb17 2.952983 1_555
Se3 Tb2 3.105836 1_555
Se3 Tb19 3.182019 1_555
Se3 Tb4 3.214816 1_455
Se4 Tb6 2.854669 1_555
Se4 Tb2 2.907718 1_555
Se4 Tb0 3.017410 1_565
Se4 Tb3 3.098168 1_565
Se4 Tb4 3.341006 1_455
Se5 Tb0 2.876355 1_565
Se5 Tb1 2.892136 1_565
Se5 Tb4 3.020106 1_555
Se5 Tb20 3.092115 1_555
Se5 Tb18 3.361193 1_555
Se6 Tb2 2.898426 1_655
Se6 Tb19 2.911863 1_655
Se6 Tb4 2.912296 1_555
Se6 Tb5 3.181737 1_555
Se6 Tb3 3.196905 1_655
Se6 Tb1 3.251759 1_555
Se7 Tb20 2.855931 1_555
Se7 Tb2 2.874294 1_555
Se7 Tb1 2.889113 1_555
Se7 Tb5 3.082806 1_555
Se7 Tb4 3.102604 1_555
Se8 Tb9 2.855931 1_555
Se8 Tb5 2.874294 1_555
Se8 Tb10 2.889113 1_555
Se8 Tb2 3.082806 1_555
Se8 Tb6 3.102604 1_555
Se9 Tb4 2.854669 1_555
Se9 Tb5 2.907718 1_555
Se9 Tb8 3.017410 1_565
Se9 Tb3 3.098168 1_665
Se9 Tb6 3.341006 1_655
Se10 Tb9 2.915006 1_555
Se10 Tb8 2.933261 1_565
Se10 Tb15 2.952983 1_555
Se10 Tb5 3.105836 1_555
Se10 Tb7 3.182019 1_555
Se10 Tb6 3.214816 1_655
Se11 Tb1 2.863046 1_555
Se11 Tb5 2.880682 1_555
Se11 Tb3 2.886476 1_655
Se11 Tb8 3.090726 1_555
Se11 Tb10 3.110443 1_555
Se12 Tb7 2.889374 1_555
Se12 Tb12 2.893439 1_555
Se12 Tb8 2.910009 1_555
Se12 Tb10 3.165157 1_555
Se12 Tb9 3.177115 1_555
Se12 Tb5 3.246843 1_555
Se13 Tb8 2.876355 1_565
Se13 Tb10 2.892136 1_565
Se13 Tb6 3.020106 1_555
Se13 Tb9 3.092115 1_555
Se13 Tb11 3.361193 1_555
Se14 Tb5 2.898426 1_455
Se14 Tb7 2.911863 1_455
Se14 Tb6 2.912296 1_555
Se14 Tb2 3.181737 1_555
Se14 Tb3 3.196905 1_555
Se14 Tb10 3.251759 1_555
Se15 Tb8 2.900324 1_455
Se15 Tb3 2.926602 1_555
Se15 Tb6 2.947565 1_545
Se15 Tb10 3.084278 1_555
Se15 Tb7 3.144212 1_455
Se15 Tb11 3.189686 1_545
Se16 Tb11 2.876355 1_645
Se16 Tb15 2.892136 1_545
Se16 Tb12 3.020106 1_555
Se16 Tb7 3.092115 1_555
Se16 Tb8 3.361193 1_555
Se17 Tb7 2.915006 1_455
Se17 Tb11 2.933261 1_545
Se17 Tb10 2.952983 1_555
Se17 Tb14 3.105836 1_555
Se17 Tb9 3.182019 1_555
Se17 Tb12 3.214816 1_555
Se18 Tb9 2.889374 1_555
Se18 Tb6 2.893439 1_555
Se18 Tb11 2.910009 1_555
Se18 Tb15 3.165157 1_455
Se18 Tb7 3.177115 1_455
Se18 Tb14 3.246843 1_555
Se19 Tb21 2.854669 1_554
Se19 Tb14 2.907718 1_555
Se19 Tb11 3.017410 1_545
Se19 Tb13 3.098168 1_545
Se19 Tb12 3.341006 1_555
Se20 Tb17 2.863046 1_554
Se20 Tb14 2.880682 1_555
Se20 Tb13 2.886476 1_555
Se20 Tb11 3.090726 1_555
Se20 Tb15 3.110443 1_455
Se21 Tb7 2.855931 1_555
Se21 Tb14 2.874294 1_655
Se21 Tb15 2.889113 1_555
Se21 Tb16 3.082806 1_554
Se21 Tb12 3.102604 1_555
Se22 Tb11 2.900324 1_555
Se22 Tb13 2.926602 1_555
Se22 Tb12 2.947565 1_565
Se22 Tb15 3.084278 1_555
Se22 Tb9 3.144212 1_555
Se22 Tb8 3.189686 1_565
Se23 Tb14 2.898426 1_555
Se23 Tb9 2.911863 1_555
Se23 Tb12 2.912296 1_555
Se23 Tb16 3.181737 1_554
Se23 Tb13 3.196905 1_555
Se23 Tb15 3.251759 1_555
Se24 Tb16 2.898426 1_555
Se24 Tb20 2.911863 1_555
Se24 Tb21 2.912296 1_555
Se24 Tb14 3.181737 1_556
Se24 Tb13 3.196905 1_556
Se24 Tb17 3.251759 1_555
Se25 Tb15 2.863046 1_556
Se25 Tb16 2.880682 1_555
Se25 Tb13 2.886476 1_556
Se25 Tb18 3.090726 1_555
Se25 Tb17 3.110443 1_655
Se26 Tb20 2.889374 1_555
Se26 Tb4 2.893439 1_555
Se26 Tb18 2.910009 1_555
Se26 Tb17 3.165157 1_655
Se26 Tb19 3.177115 1_655
Se26 Tb16 3.246843 1_555
Se27 Tb12 2.854669 1_556
Se27 Tb16 2.907718 1_555
Se27 Tb18 3.017410 1_545
Se27 Tb13 3.098168 1_546
Se27 Tb21 3.341006 1_555
Se28 Tb19 2.915006 1_655
Se28 Tb18 2.933261 1_545
Se28 Tb1 2.952983 1_555
Se28 Tb16 3.105836 1_555
Se28 Tb20 3.182019 1_555
Se28 Tb21 3.214816 1_555
Se29 Tb18 2.900324 1_555
Se29 Tb13 2.926602 1_556
Se29 Tb21 2.947565 1_565
Se29 Tb17 3.084278 1_555
Se29 Tb20 3.144212 1_555
Se29 Tb0 3.189686 1_565
Se30 Tb19 2.855931 1_555
Se30 Tb16 2.874294 1_455
Se30 Tb17 2.889113 1_555
Se30 Tb14 3.082806 1_556
Se30 Tb21 3.102604 1_555
Se31 Tb18 2.876355 1_445
Se31 Tb17 2.892136 1_545
Se31 Tb21 3.020106 1_555
Se31 Tb19 3.092115 1_555
Se31 Tb0 3.361193 1_555
