# generated using pymatgen
data_Sm3Si2Ni
_symmetry_space_group_name_H-M   'P 1'
_cell_length_a   4.17322454
_cell_length_b   11.55548908
_cell_length_c   11.55859992
_cell_angle_alpha   90.00000000
_cell_angle_beta   90.00000000
_cell_angle_gamma   90.00000000
_symmetry_Int_Tables_number   1
_chemical_formula_structural   Sm3Si2Ni
_chemical_formula_sum   'Sm12 Si8 Ni4'
_cell_volume   557.39788397
_cell_formula_units_Z   4
loop_
 _symmetry_equiv_pos_site_id
 _symmetry_equiv_pos_as_xyz
  1  'x, y, z'
loop_
 _atom_site_type_symbol
 _atom_site_label
 _atom_site_symmetry_multiplicity
 _atom_site_fract_x
 _atom_site_fract_y
 _atom_site_fract_z
 _atom_site_occupancy
  Sm  Sm0  1  0.25000000  0.37480449  0.56151344  1
  Sm  Sm1  1  0.75000000  0.55747258  0.11664433  1
  Sm  Sm2  1  0.75000000  0.19670240  0.78680128  1
  Sm  Sm3  1  0.25000000  0.69670240  0.71319872  1
  Sm  Sm4  1  0.75000000  0.62519551  0.43848656  1
  Sm  Sm5  1  0.75000000  0.87480449  0.93848656  1
  Sm  Sm6  1  0.25000000  0.80329760  0.21319872  1
  Sm  Sm7  1  0.25000000  0.44252742  0.88335567  1
  Sm  Sm8  1  0.75000000  0.30329760  0.28680128  1
  Sm  Sm9  1  0.25000000  0.12519551  0.06151344  1
  Sm  Sm10  1  0.75000000  0.94252742  0.61664433  1
  Sm  Sm11  1  0.25000000  0.05747258  0.38335567  1
  Si  Si0  1  0.25000000  0.49116823  0.30023801  1
  Si  Si1  1  0.25000000  0.81348148  0.47113003  1
  Si  Si2  1  0.25000000  0.68651852  0.97113003  1
  Si  Si3  1  0.75000000  0.99116823  0.19976199  1
  Si  Si4  1  0.75000000  0.50883177  0.69976199  1
  Si  Si5  1  0.25000000  0.00883177  0.80023801  1
  Si  Si6  1  0.75000000  0.18651852  0.52886997  1
  Si  Si7  1  0.75000000  0.31348148  0.02886997  1
  Ni  Ni0  1  0.25000000  0.13507355  0.62888755  1
  Ni  Ni1  1  0.75000000  0.86492645  0.37111245  1
  Ni  Ni2  1  0.25000000  0.36492645  0.12888755  1
  Ni  Ni3  1  0.75000000  0.63507355  0.87111245  1
loop_
_geom_bond_atom_site_label_1
_geom_bond_atom_site_label_2
_geom_bond_distance
_geom_bond_site_symmetry_2
Si0 Sm8 3.015135 1_455
Si0 Sm8 3.015135 1_555
Si0 Sm4 3.050583 1_455
Si0 Sm4 3.050583 1_555
Si0 Sm1 3.073147 1_555
Si0 Sm1 3.073147 1_455
Si0 Sm0 3.305802 1_555
Si1 Sm6 2.983646 1_555
Si1 Sm11 2.996420 1_565
Si1 Sm4 3.038115 1_555
Si1 Sm4 3.038115 1_455
Si1 Sm10 3.067005 1_455
Si1 Sm10 3.067005 1_555
Si1 Sm3 3.106389 1_555
Si2 Sm3 2.983646 1_555
Si2 Sm7 2.996420 1_555
Si2 Sm5 3.038115 1_455
Si2 Sm5 3.038115 1_555
Si2 Sm1 3.067005 1_456
Si2 Sm1 3.067005 1_556
Si2 Sm6 3.106389 1_556
Si3 Sm6 3.015135 1_555
Si3 Sm6 3.015135 1_655
Si3 Sm9 3.050583 1_565
Si3 Sm9 3.050583 1_665
Si3 Sm11 3.073147 1_565
Si3 Sm11 3.073147 1_665
Si3 Sm5 3.305802 1_554
Si4 Sm3 3.015135 1_555
Si4 Sm3 3.015135 1_655
Si4 Sm0 3.050583 1_555
Si4 Sm0 3.050583 1_655
Si4 Sm7 3.073147 1_555
Si4 Sm7 3.073147 1_655
Si4 Sm4 3.305802 1_555
Si5 Sm2 3.015135 1_555
Si5 Sm2 3.015135 1_455
Si5 Sm5 3.050583 1_445
Si5 Sm5 3.050583 1_545
Si5 Sm10 3.073147 1_545
Si5 Sm10 3.073147 1_445
Si5 Sm9 3.305802 1_556
Si6 Sm2 2.983646 1_555
Si6 Sm10 2.996420 1_545
Si6 Sm0 3.038115 1_555
Si6 Sm0 3.038115 1_655
Si6 Sm11 3.067005 1_655
Si6 Sm11 3.067005 1_555
Si6 Sm8 3.106389 1_555
Si7 Sm8 2.983646 1_555
Si7 Sm1 2.996420 1_555
Si7 Sm9 3.038115 1_655
Si7 Sm9 3.038115 1_555
Si7 Sm7 3.067005 1_554
Si7 Sm7 3.067005 1_654
Si7 Sm2 3.106389 1_554
Ni0 Si6 2.458420 1_455
Ni0 Si6 2.458420 1_555
Ni0 Si5 2.459821 1_555
Ni0 Sm2 2.862288 1_455
Ni0 Sm2 2.862288 1_555
Ni0 Sm0 2.877587 1_555
Ni0 Sm11 2.976302 1_555
Ni0 Sm10 3.053595 1_545
Ni0 Sm10 3.053595 1_445
Ni1 Si1 2.458420 1_555
Ni1 Si1 2.458420 1_655
Ni1 Si3 2.459821 1_555
Ni1 Sm6 2.862288 1_555
Ni1 Sm6 2.862288 1_655
Ni1 Sm4 2.877587 1_555
Ni1 Sm10 2.976302 1_555
Ni1 Sm11 3.053595 1_565
Ni1 Sm11 3.053595 1_665
Ni2 Si7 2.458420 1_555
Ni2 Si7 2.458420 1_455
Ni2 Si0 2.459821 1_555
Ni2 Sm8 2.862288 1_555
Ni2 Sm8 2.862288 1_455
Ni2 Sm9 2.877587 1_555
Ni2 Sm7 2.976302 1_554
Ni2 Sm1 3.053595 1_555
Ni2 Sm1 3.053595 1_455
Ni3 Si2 2.458420 1_555
Ni3 Si2 2.458420 1_655
Ni3 Si4 2.459821 1_555
Ni3 Sm3 2.862288 1_555
Ni3 Sm3 2.862288 1_655
Ni3 Sm5 2.877587 1_555
Ni3 Sm1 2.976302 1_556
Ni3 Sm7 3.053595 1_555
Ni3 Sm7 3.053595 1_655
