# generated using pymatgen
data_Fe2NiO4
_symmetry_space_group_name_H-M   'P 1'
_cell_length_a   6.00262400
_cell_length_b   5.98753792
_cell_length_c   29.98170199
_cell_angle_alpha   59.84726648
_cell_angle_beta   59.67897706
_cell_angle_gamma   59.86266654
_symmetry_Int_Tables_number   1
_chemical_formula_structural   Fe2NiO4
_chemical_formula_sum   'Fe20 Ni10 O40'
_cell_volume   758.42915793
_cell_formula_units_Z   10
loop_
 _symmetry_equiv_pos_site_id
 _symmetry_equiv_pos_as_xyz
  1  'x, y, z'
loop_
 _atom_site_type_symbol
 _atom_site_label
 _atom_site_symmetry_multiplicity
 _atom_site_fract_x
 _atom_site_fract_y
 _atom_site_fract_z
 _atom_site_occupancy
  Fe  Fe0  1  0.25073600  0.24779300  0.05082200  1
  Fe  Fe1  1  0.12203300  0.62780700  0.12450900  1
  Fe  Fe2  1  0.62756500  0.12301600  0.12441800  1
  Fe  Fe3  1  0.99330100  0.99303800  0.40130300  1
  Fe  Fe4  1  0.25189700  0.25225300  0.25041200  1
  Fe  Fe5  1  0.62755000  0.62741900  0.12450800  1
  Fe  Fe6  1  0.25553200  0.25676800  0.44845400  1
  Fe  Fe7  1  0.62466400  0.62478700  0.22499300  1
  Fe  Fe8  1  0.99337000  0.99252600  0.60166800  1
  Fe  Fe9  1  0.62825600  0.62820500  0.32453500  1
  Fe  Fe10  1  0.99494300  0.99584600  0.79983700  1
  Fe  Fe11  1  0.25566800  0.25582300  0.64942400  1
  Fe  Fe12  1  0.62393300  0.62634300  0.42537300  1
  Fe  Fe13  1  0.62459200  0.62484800  0.52507300  1
  Fe  Fe14  1  0.62572600  0.62487500  0.62516000  1
  Fe  Fe15  1  0.25897900  0.24913300  0.84915300  1
  Fe  Fe16  1  0.62400800  0.62453300  0.72549300  1
  Fe  Fe17  1  0.62774300  0.11669200  0.92691800  1
  Fe  Fe18  1  0.62507900  0.62269600  0.82453600  1
  Fe  Fe19  1  0.62702700  0.62224900  0.92659700  1
  Ni  Ni0  1  0.99918900  0.00481200  0.99825200  1
  Ni  Ni1  1  0.99803100  0.99743500  0.20179400  1
  Ni  Ni2  1  0.62722100  0.62626500  0.02390400  1
  Ni  Ni3  1  0.12426400  0.62584100  0.32463600  1
  Ni  Ni4  1  0.62580900  0.12431600  0.32462300  1
  Ni  Ni5  1  0.12505900  0.62510100  0.52492100  1
  Ni  Ni6  1  0.62507600  0.12518300  0.52489800  1
  Ni  Ni7  1  0.12249800  0.62469400  0.72552600  1
  Ni  Ni8  1  0.62424400  0.12211100  0.72567600  1
  Ni  Ni9  1  0.12060200  0.62515900  0.92608400  1
  O  O0  1  0.37575100  0.37650000  0.07871400  1
  O  O1  1  0.37624300  0.85298700  0.07876900  1
  O  O2  1  0.38385100  0.38496100  0.16986400  1
  O  O3  1  0.85525400  0.37621900  0.07851500  1
  O  O4  1  0.38871500  0.38824700  0.27294300  1
  O  O5  1  0.40485200  0.86871400  0.17251000  1
  O  O6  1  0.86876800  0.40505800  0.17243100  1
  O  O7  1  0.38692500  0.38809900  0.36994600  1
  O  O8  1  0.86401300  0.86664500  0.08026800  1
  O  O9  1  0.39077500  0.85936400  0.27425600  1
  O  O10  1  0.85917500  0.39072500  0.27413100  1
  O  O11  1  0.86583500  0.86684500  0.17158600  1
  O  O12  1  0.38684200  0.38587700  0.47459300  1
  O  O13  1  0.39008900  0.86302600  0.37476400  1
  O  O14  1  0.86273600  0.39011900  0.37481000  1
  O  O15  1  0.39215700  0.39256500  0.57010800  1
  O  O16  1  0.86226300  0.86140100  0.28100800  1
  O  O17  1  0.38261800  0.86209300  0.47457400  1
  O  O18  1  0.85762300  0.38792900  0.47531100  1
  O  O19  1  0.86422200  0.86487400  0.37518600  1
  O  O20  1  0.39212500  0.86218800  0.57497900  1
  O  O21  1  0.38491700  0.38462600  0.67550500  1
  O  O22  1  0.86709400  0.38789900  0.57581000  1
  O  O23  1  0.85666300  0.85628400  0.48023800  1
  O  O24  1  0.38962100  0.38951800  0.77077500  1
  O  O25  1  0.38978600  0.85557200  0.67680400  1
  O  O26  1  0.85320600  0.39344400  0.67714800  1
  O  O27  1  0.86368100  0.86490200  0.57505400  1
  O  O28  1  0.39510800  0.38456800  0.87439700  1
  O  O29  1  0.40092600  0.85005800  0.77447400  1
  O  O30  1  0.85337000  0.39931900  0.77438100  1
  O  O31  1  0.85762600  0.85730800  0.68074900  1
  O  O32  1  0.38309000  0.37725700  0.97284600  1
  O  O33  1  0.39408600  0.84970600  0.87389000  1
  O  O34  1  0.85212200  0.38545600  0.87471900  1
  O  O35  1  0.85769600  0.85784200  0.77681500  1
  O  O36  1  0.40532900  0.87188900  0.97046300  1
  O  O37  1  0.85924200  0.40357600  0.97256400  1
  O  O38  1  0.86365100  0.87384300  0.87749500  1
  O  O39  1  0.85736000  0.87493000  0.97310400  1
loop_
_geom_bond_atom_site_label_1
_geom_bond_atom_site_label_2
_geom_bond_distance
_geom_bond_site_symmetry_2
Fe0 O32 1.902653 1_554
Fe0 O1 1.927939 1_545
Fe0 O0 1.928227 1_555
Fe0 O3 1.932473 1_455
Fe1 O11 2.008307 1_455
Fe1 O6 2.014890 1_455
Fe1 O1 2.030383 1_555
Fe1 O0 2.032687 1_555
Fe1 O8 2.036620 1_455
Fe1 O2 2.076066 1_555
Fe2 O11 2.014542 1_545
Fe2 O5 2.019109 1_545
Fe2 O8 2.019789 1_545
Fe2 O3 2.036128 1_555
Fe2 O0 2.040665 1_555
Fe2 O2 2.070477 1_555
Fe3 O19 1.901485 1_555
Fe3 O23 1.926587 1_555
Fe3 O14 1.938584 1_565
Fe3 O13 1.938789 1_655
Fe4 O4 1.891584 1_555
Fe4 O9 1.919116 1_545
Fe4 O10 1.920249 1_455
Fe4 O2 1.965623 1_555
Fe5 O8 2.014367 1_555
Fe5 O3 2.036705 1_555
Fe5 O5 2.037789 1_555
Fe5 O1 2.040208 1_555
Fe5 O6 2.043669 1_555
Fe5 O2 2.058466 1_555
Fe6 O7 1.915638 1_555
Fe6 O12 1.917603 1_555
Fe6 O17 1.927032 1_545
Fe6 O18 1.944193 1_455
Fe7 O4 1.997869 1_555
Fe7 O9 2.033609 1_555
Fe7 O10 2.038341 1_555
Fe7 O6 2.043770 1_555
Fe7 O11 2.048205 1_555
Fe7 O5 2.050004 1_555
Fe8 O27 1.914089 1_555
Fe8 O31 1.929848 1_555
Fe8 O22 1.930668 1_565
Fe8 O20 1.948414 1_655
Fe9 O16 1.978305 1_555
Fe9 O7 2.037757 1_555
Fe9 O13 2.055113 1_555
Fe9 O14 2.062505 1_555
Fe9 O10 2.071593 1_555
Fe9 O9 2.076681 1_555
Fe10 O38 1.895386 1_555
Fe10 O35 1.915366 1_555
Fe10 O30 1.970253 1_565
Fe10 O29 1.984615 1_655
Fe11 O21 1.904555 1_555
Fe11 O15 1.935722 1_555
Fe11 O25 1.954188 1_545
Fe11 O26 1.966665 1_455
Fe12 O12 2.019571 1_555
Fe12 O19 2.025483 1_555
Fe12 O17 2.036652 1_555
Fe12 O18 2.051794 1_555
Fe12 O13 2.067307 1_555
Fe12 O14 2.068220 1_555
Fe13 O23 1.960637 1_555
Fe13 O15 1.965689 1_555
Fe13 O18 2.054600 1_555
Fe13 O20 2.059668 1_555
Fe13 O17 2.099487 1_555
Fe13 O22 2.107040 1_555
Fe14 O27 2.021938 1_555
Fe14 O21 2.034875 1_555
Fe14 O22 2.044984 1_555
Fe14 O20 2.056823 1_555
Fe14 O25 2.069145 1_555
Fe14 O26 2.072039 1_555
Fe15 O24 1.913235 1_555
Fe15 O28 1.950523 1_555
Fe15 O33 1.950698 1_545
Fe15 O34 1.988693 1_455
Fe16 O31 1.973189 1_555
Fe16 O24 1.985676 1_555
Fe16 O29 1.990995 1_555
Fe16 O26 1.999516 1_555
Fe16 O30 2.012452 1_555
Fe16 O25 2.027774 1_555
Fe17 O39 1.955130 1_545
Fe17 O36 1.979396 1_545
Fe17 O38 2.072092 1_545
Fe17 O32 2.074271 1_555
Fe17 O34 2.090689 1_555
Fe17 O28 2.106182 1_555
Fe18 O35 1.977951 1_555
Fe18 O28 1.981096 1_555
Fe18 O33 2.004023 1_555
Fe18 O30 2.006835 1_555
Fe18 O29 2.015825 1_555
Fe18 O34 2.029344 1_555
Fe19 O37 1.962357 1_555
Fe19 O36 1.986255 1_555
Fe19 O38 2.064794 1_555
Fe19 O32 2.069286 1_555
Fe19 O34 2.103543 1_555
Fe19 O33 2.112774 1_555
Ni0 O37 1.947154 1_555
Ni0 O39 1.949369 1_545
Ni0 O36 1.984425 1_645
Ni0 O8 2.001296 1_546
Ni1 O16 1.933132 1_555
Ni1 O5 1.988289 1_655
Ni1 O6 1.990834 1_565
Ni1 O11 2.030137 1_555
Ni2 O39 2.026745 1_554
Ni2 O37 2.029646 1_554
Ni2 O36 2.079588 1_554
Ni2 O1 2.122699 1_555
Ni2 O0 2.123383 1_555
Ni2 O3 2.130344 1_555
Ni3 O16 2.042043 1_455
Ni3 O7 2.079386 1_555
Ni3 O19 2.080639 1_455
Ni3 O4 2.099755 1_555
Ni3 O14 2.104021 1_455
Ni3 O9 2.116694 1_555
Ni4 O16 2.037903 1_545
Ni4 O7 2.076475 1_555
Ni4 O19 2.086078 1_545
Ni4 O13 2.102850 1_545
Ni4 O4 2.105196 1_555
Ni4 O10 2.115446 1_555
Ni5 O27 2.075412 1_455
Ni5 O12 2.077220 1_555
Ni5 O17 2.092144 1_555
Ni5 O23 2.093633 1_455
Ni5 O22 2.094926 1_455
Ni5 O15 2.097888 1_555
Ni6 O27 2.078546 1_545
Ni6 O12 2.080243 1_555
Ni6 O23 2.087221 1_545
Ni6 O15 2.091433 1_555
Ni6 O18 2.096148 1_555
Ni6 O20 2.098876 1_545
Ni7 O35 2.073746 1_455
Ni7 O21 2.074458 1_555
Ni7 O31 2.079207 1_455
Ni7 O30 2.095320 1_455
Ni7 O24 2.098651 1_555
Ni7 O25 2.109767 1_555
Ni8 O31 2.073800 1_545
Ni8 O35 2.079381 1_545
Ni8 O21 2.082366 1_555
Ni8 O24 2.088826 1_555
Ni8 O29 2.099777 1_545
Ni8 O26 2.119809 1_555
Ni9 O37 2.046636 1_455
Ni9 O39 2.053457 1_455
Ni9 O32 2.107788 1_555
Ni9 O33 2.111919 1_555
Ni9 O28 2.114870 1_555
Ni9 O38 2.121712 1_455
