# generated using pymatgen
data_CeInPt
_symmetry_space_group_name_H-M   'P 1'
_cell_length_a   7.75118385
_cell_length_b   7.75132241
_cell_length_c   4.01463913
_cell_angle_alpha   90.00000000
_cell_angle_beta   90.00000000
_cell_angle_gamma   120.00007152
_symmetry_Int_Tables_number   1
_chemical_formula_structural   CeInPt
_chemical_formula_sum   'Ce3 In3 Pt3'
_cell_volume   208.89145327
_cell_formula_units_Z   3
loop_
 _symmetry_equiv_pos_site_id
 _symmetry_equiv_pos_as_xyz
  1  'x, y, z'
loop_
 _atom_site_type_symbol
 _atom_site_label
 _atom_site_symmetry_multiplicity
 _atom_site_fract_x
 _atom_site_fract_y
 _atom_site_fract_z
 _atom_site_occupancy
  Ce  Ce0  1  0.41348041  0.00000022  0.50000000  1
  Ce  Ce1  1  0.58650833  0.58652483  0.50000000  1
  Ce  Ce2  1  -0.00001422  0.41347350  0.50000000  1
  In  In0  1  0.00003971  0.74860163  -0.00000000  1
  In  In1  1  0.74851772  -0.00002818  -0.00000000  1
  In  In2  1  0.25147486  0.25141197  -0.00000000  1
  Pt  Pt0  1  0.00006563  0.00000732  0.50000000  1
  Pt  Pt1  1  0.66654349  0.33319866  0.00000000  1
  Pt  Pt2  1  0.33338408  0.66681005  0.00000000  1
loop_
_geom_bond_atom_site_label_1
_geom_bond_atom_site_label_2
_geom_bond_distance
_geom_bond_site_symmetry_2
Ce0 Pt1 3.079175 1_555
Ce0 Pt1 3.079175 1_556
Ce0 Pt2 3.079205 1_545
Ce0 Pt2 3.079205 1_546
Ce0 Pt0 3.204481 1_555
Ce0 In1 3.282374 1_556
Ce0 In1 3.282374 1_555
Ce0 In2 3.442538 1_556
Ce0 In2 3.442538 1_555
Ce0 In0 3.442620 1_546
Ce0 In0 3.442620 1_545
Ce1 Pt2 3.080113 1_556
Ce1 Pt2 3.080113 1_555
Ce1 Pt1 3.080280 1_555
Ce1 Pt1 3.080280 1_556
Ce1 Pt0 3.205294 1_665
Ce1 In2 3.282523 1_556
Ce1 In2 3.282523 1_555
Ce1 In1 3.442722 1_566
Ce1 In1 3.442722 1_565
Ce1 In0 3.443114 1_656
Ce1 In0 3.443114 1_655
Ce2 Pt1 3.080310 1_456
Ce2 Pt1 3.080310 1_455
Ce2 Pt2 3.080426 1_556
Ce2 Pt2 3.080426 1_555
Ce2 Pt0 3.205219 1_555
Ce2 In0 3.282715 1_555
Ce2 In0 3.282715 1_556
Ce2 In1 3.443014 1_455
Ce2 In1 3.443014 1_456
Ce2 In2 3.443256 1_556
Ce2 In2 3.443256 1_555
In0 Pt0 2.797584 1_565
In0 Pt0 2.797584 1_564
In0 Pt2 2.952315 1_555
In0 Pt1 2.954080 1_455
In1 Pt0 2.798302 1_655
In1 Pt0 2.798302 1_654
In1 Pt2 2.951840 1_545
In1 Pt1 2.952381 1_555
In2 Pt0 2.797647 1_554
In2 Pt0 2.797647 1_555
In2 Pt1 2.951802 1_555
In2 Pt2 2.954058 1_555
