# generated using pymatgen
data_Sr5Nd5Cu(NiO5)4
_symmetry_space_group_name_H-M   'P 1'
_cell_length_a   3.84136300
_cell_length_b   6.84553443
_cell_length_c   18.84620767
_cell_angle_alpha   84.21113334
_cell_angle_beta   84.55308625
_cell_angle_gamma   74.04360050
_symmetry_Int_Tables_number   1
_chemical_formula_structural   Sr5Nd5Cu(NiO5)4
_chemical_formula_sum   'Sr5 Nd5 Cu1 Ni4 O20'
_cell_volume   472.88804718
_cell_formula_units_Z   1
loop_
 _symmetry_equiv_pos_site_id
 _symmetry_equiv_pos_as_xyz
  1  'x, y, z'
loop_
 _atom_site_type_symbol
 _atom_site_label
 _atom_site_symmetry_multiplicity
 _atom_site_fract_x
 _atom_site_fract_y
 _atom_site_fract_z
 _atom_site_occupancy
  Sr  Sr0  1  0.34901600  0.75679500  0.52786500  1
  Sr  Sr1  1  0.37238900  0.54469900  0.72178800  1
  Sr  Sr2  1  0.39586000  0.32487800  0.91130700  1
  Sr  Sr3  1  0.57985900  0.65153000  0.08381000  1
  Sr  Sr4  1  0.62288300  0.45320900  0.27611400  1
  Nd  Nd0  1  0.33093800  0.15196400  0.14107600  1
  Nd  Nd1  1  0.34570100  0.95113500  0.33364500  1
  Nd  Nd2  1  0.62811500  0.25999000  0.46931200  1
  Nd  Nd3  1  0.67461100  0.83055700  0.85910200  1
  Nd  Nd4  1  0.64030200  0.05296900  0.66346200  1
  Cu  Cu0  1  0.98898300  0.99600800  0.00187900  1
  Ni  Ni0  1  0.97991100  0.80082600  0.20372000  1
  Ni  Ni1  1  0.98519100  0.60797500  0.40147600  1
  Ni  Ni2  1  0.99309800  0.40527400  0.59732900  1
  Ni  Ni3  1  0.01963000  0.18443900  0.79602100  1
  O  O0  1  0.95205600  0.95478300  0.10181200  1
  O  O1  1  0.97393200  0.72103200  0.30589100  1
  O  O2  1  0.99287400  0.49964500  0.49777100  1
  O  O3  1  0.02182400  0.26758300  0.69221000  1
  O  O4  1  0.03267400  0.04798300  0.90149800  1
  O  O5  1  0.17088800  0.44492000  0.02926300  1
  O  O6  1  0.81921400  0.11070000  0.23199900  1
  O  O7  1  0.81345500  0.93025300  0.42592300  1
  O  O8  1  0.82170500  0.71616700  0.63361400  1
  O  O9  1  0.84891500  0.49319200  0.82945400  1
  O  O10  1  0.48398700  0.00175900  0.00530900  1
  O  O11  1  0.47036900  0.82028700  0.20545900  1
  O  O12  1  0.48571800  0.60722000  0.40130500  1
  O  O13  1  0.50245700  0.38794100  0.59432300  1
  O  O14  1  0.53235300  0.16285700  0.79061300  1
  O  O15  1  0.15170100  0.48760800  0.17643200  1
  O  O16  1  0.15944900  0.28351300  0.37510600  1
  O  O17  1  0.15071000  0.10384200  0.56279200  1
  O  O18  1  0.18807600  0.86987900  0.77587000  1
  O  O19  1  0.02115800  0.61658700  0.97545000  1
loop_
_geom_bond_atom_site_label_1
_geom_bond_atom_site_label_2
_geom_bond_distance
_geom_bond_site_symmetry_2
Nd0 O15 2.355685 1_555
Nd0 O11 2.411091 1_545
Nd0 O0 2.444154 1_445
Nd0 O0 2.481504 1_545
Nd0 O6 2.539346 1_455
Nd0 O6 2.599102 1_555
Nd0 O5 2.748793 1_555
Nd0 O10 2.804031 1_555
Nd1 O16 2.378431 1_565
Nd1 O12 2.507252 1_555
Nd1 O1 2.517750 1_455
Nd1 O1 2.532819 1_555
Nd1 O7 2.580807 1_455
Nd1 O7 2.583655 1_555
Nd1 O11 2.617037 1_555
Nd1 O6 2.837577 1_465
Nd1 O6 2.860090 1_565
Nd2 O7 2.376732 1_545
Nd2 O12 2.528948 1_555
Nd2 O13 2.553188 1_555
Nd2 O2 2.554690 1_555
Nd2 O2 2.581014 1_455
Nd2 O16 2.603655 1_655
Nd2 O16 2.609398 1_555
Nd2 O17 2.718093 1_655
Nd2 O17 2.773805 1_555
Nd3 O9 2.330912 1_555
Nd3 O14 2.448961 1_565
Nd3 O18 2.458197 1_655
Nd3 O18 2.494149 1_555
Nd3 O4 2.513905 1_665
Nd3 O4 2.604296 1_565
Nd3 O19 2.749509 1_655
Nd3 O10 3.049384 1_566
Nd4 O8 2.328439 1_545
Nd4 O3 2.468499 1_555
Nd4 O3 2.468793 1_655
Nd4 O13 2.469214 1_555
Nd4 O14 2.546296 1_555
Nd4 O17 2.664761 1_655
Nd4 O17 2.727981 1_555
Nd4 O18 3.006547 1_545
Nd4 O18 3.057298 1_645
Cu0 O0 1.873733 1_555
Cu0 O4 1.889562 1_664
Cu0 O10 1.920000 1_665
Cu0 O10 1.924462 1_565
Cu0 O19 2.661263 1_654
Ni0 O11 1.922321 1_555
Ni0 O11 1.928466 1_655
Ni0 O1 1.947541 1_555
Ni0 O0 2.092728 1_555
Ni0 O6 2.147198 1_565
Ni0 O15 2.162724 1_655
Ni1 O1 1.887084 1_555
Ni1 O2 1.889693 1_555
Ni1 O12 1.920394 1_555
Ni1 O12 1.920989 1_655
Ni1 O7 2.204946 1_555
Ni1 O16 2.229458 1_655
Ni2 O2 1.921794 1_555
Ni2 O13 1.923114 1_655
Ni2 O13 1.927194 1_555
Ni2 O3 1.933483 1_655
Ni2 O17 2.134792 1_655
Ni2 O8 2.206394 1_555
Ni3 O14 1.927772 1_555
Ni3 O14 1.930591 1_455
Ni3 O3 1.981557 1_555
Ni3 O4 2.108362 1_555
Ni3 O18 2.133539 1_545
Ni3 O9 2.173111 1_455
O0 Sr3 2.733987 1_655
O0 Sr3 2.887002 1_555
O1 Sr4 2.684262 1_555
O1 Sr4 2.705494 1_655
O2 Sr0 2.639097 1_655
O2 Sr0 2.660624 1_555
O3 Sr1 2.735014 1_455
O3 Sr1 2.735544 1_555
O4 Sr2 2.654541 1_455
O4 Sr2 2.673399 1_555
O5 Sr2 2.444848 1_554
O5 Sr3 2.509269 1_455
O5 Sr3 2.710502 1_555
O6 Sr4 2.461585 1_555
O7 Sr0 2.877590 1_655
O7 Sr0 2.887525 1_555
O8 Sr1 2.700762 1_555
O8 Sr1 2.742753 1_655
O8 Sr0 2.753874 1_655
O8 Sr0 2.764748 1_555
O9 Sr2 2.640136 1_555
O9 Sr2 2.654671 1_655
O9 Sr1 2.784954 1_655
O9 Sr1 2.792539 1_555
O10 Sr3 2.641000 1_545
O10 Sr2 2.656572 1_554
O11 Sr3 2.617565 1_555
O11 Sr4 2.663536 1_555
O12 Sr4 2.629858 1_555
O12 Sr0 2.640546 1_555
O13 Sr0 2.641151 1_555
O13 Sr1 2.677545 1_555
O14 Sr2 2.577158 1_555
O14 Sr1 2.734379 1_555
O15 Sr3 2.661922 1_555
O15 Sr4 2.675906 1_455
O15 Sr4 2.680052 1_555
O15 Sr3 2.847641 1_455
O16 Sr4 2.838084 1_455
O16 Sr4 2.840509 1_555
O17 Sr0 2.425463 1_545
O18 Sr1 2.439160 1_555
O19 O5 1.496343 1_556
O19 Sr2 2.469219 1_555
O19 Sr3 2.513908 1_456
