# generated using pymatgen
data_Ca10Ti8NbAl(SiO5)10
_symmetry_space_group_name_H-M   'P 1'
_cell_length_a   6.66678500
_cell_length_b   7.13452042
_cell_length_c   22.16720688
_cell_angle_alpha   86.64258891
_cell_angle_beta   98.45249943
_cell_angle_gamma   114.08442026
_symmetry_Int_Tables_number   1
_chemical_formula_structural   Ca10Ti8NbAl(SiO5)10
_chemical_formula_sum   'Ca10 Ti8 Nb1 Al1 Si10 O50'
_cell_volume   952.12350229
_cell_formula_units_Z   1
loop_
 _symmetry_equiv_pos_site_id
 _symmetry_equiv_pos_as_xyz
  1  'x, y, z'
loop_
 _atom_site_type_symbol
 _atom_site_label
 _atom_site_symmetry_multiplicity
 _atom_site_fract_x
 _atom_site_fract_y
 _atom_site_fract_z
 _atom_site_occupancy
  Ca  Ca0  1  0.16551900  0.24781200  0.33139900  1
  Ca  Ca1  1  0.63569100  0.74862400  0.26866100  1
  Ca  Ca2  1  0.76501800  0.24988100  0.53142800  1
  Ca  Ca3  1  0.23498200  0.75011900  0.46857200  1
  Ca  Ca4  1  0.36430900  0.25137600  0.73133900  1
  Ca  Ca5  1  0.83448100  0.75218800  0.66860100  1
  Ca  Ca6  1  0.97800600  0.26232100  0.93140700  1
  Ca  Ca7  1  0.43414700  0.73516300  0.86860600  1
  Ca  Ca8  1  0.56585300  0.26483700  0.13139400  1
  Ca  Ca9  1  0.02199400  0.73767900  0.06859300  1
  Ti  Ti0  1  0.10097300  0.99667400  0.19944800  1
  Ti  Ti1  1  0.69955800  0.99899400  0.40015900  1
  Ti  Ti2  1  0.69961000  0.49908900  0.39987400  1
  Ti  Ti3  1  0.30044200  0.00100600  0.59984100  1
  Ti  Ti4  1  0.30039000  0.50091100  0.60012600  1
  Ti  Ti5  1  0.89902700  0.00332600  0.80055200  1
  Ti  Ti6  1  0.89828200  0.49835500  0.79990100  1
  Ti  Ti7  1  0.10171800  0.50164500  0.20009900  1
  Nb  Nb0  1  0.50000000  0.00000000  0.00000000  1
  Al  Al0  1  0.50000000  0.50000000  0.00000000  1
  Si  Si0  1  0.16423100  0.74875000  0.32777700  1
  Si  Si1  1  0.63634400  0.24815700  0.27214300  1
  Si  Si2  1  0.76363800  0.74920900  0.52785400  1
  Si  Si3  1  0.23636200  0.25079100  0.47214600  1
  Si  Si4  1  0.36365600  0.75184300  0.72785700  1
  Si  Si5  1  0.83576900  0.25125000  0.67222300  1
  Si  Si6  1  0.95284200  0.74334000  0.92815500  1
  Si  Si7  1  0.43418200  0.25494400  0.87223500  1
  Si  Si8  1  0.56581800  0.74505600  0.12776500  1
  Si  Si9  1  0.04715800  0.25666000  0.07184500  1
  O  O0  1  0.42729900  0.09272900  0.22491500  1
  O  O1  1  0.24335300  0.61494500  0.28523100  1
  O  O2  1  0.11153100  0.24741700  0.22753100  1
  O  O3  1  0.04487700  0.88345700  0.28543500  1
  O  O4  1  0.80012500  0.40802700  0.22580600  1
  O  O5  1  0.00077400  0.59029800  0.37432800  1
  O  O6  1  0.75563600  0.11317000  0.31439200  1
  O  O7  1  0.68586500  0.74798700  0.37251400  1
  O  O8  1  0.02598300  0.09057700  0.42532900  1
  O  O9  1  0.55753600  0.38177500  0.31479200  1
  O  O10  1  0.84187000  0.61479000  0.48532500  1
  O  O11  1  0.37326500  0.90580700  0.37480100  1
  O  O12  1  0.71378300  0.24856100  0.42755200  1
  O  O13  1  0.64340700  0.88328800  0.48547600  1
  O  O14  1  0.39855900  0.40599400  0.42556800  1
  O  O15  1  0.60144100  0.59400600  0.57443200  1
  O  O16  1  0.35659300  0.11671200  0.51452400  1
  O  O17  1  0.28621700  0.75143900  0.57244800  1
  O  O18  1  0.62673500  0.09419300  0.62519900  1
  O  O19  1  0.15813000  0.38521000  0.51467500  1
  O  O20  1  0.44246400  0.61822500  0.68520800  1
  O  O21  1  0.97401700  0.90942300  0.57467100  1
  O  O22  1  0.31413500  0.25201300  0.62748600  1
  O  O23  1  0.24436400  0.88683000  0.68560800  1
  O  O24  1  0.99922600  0.40970200  0.62567200  1
  O  O25  1  0.19987500  0.59197300  0.77419400  1
  O  O26  1  0.95512300  0.11654300  0.71456500  1
  O  O27  1  0.88846900  0.75258300  0.77246900  1
  O  O28  1  0.22459100  0.09642300  0.82582300  1
  O  O29  1  0.75664700  0.38505500  0.71476900  1
  O  O30  1  0.03855400  0.61363300  0.88589700  1
  O  O31  1  0.57270100  0.90727100  0.77508500  1
  O  O32  1  0.91098300  0.25036000  0.82764200  1
  O  O33  1  0.84007400  0.88178400  0.88511500  1
  O  O34  1  0.59676500  0.41159200  0.82522800  1
  O  O35  1  0.79305600  0.59010600  0.97519800  1
  O  O36  1  0.55556800  0.11685800  0.91335400  1
  O  O37  1  0.48486800  0.74373000  0.97291800  1
  O  O38  1  0.83392900  0.09458900  0.02535100  1
  O  O39  1  0.36036600  0.38598700  0.91629900  1
  O  O40  1  0.63963400  0.61401300  0.08370100  1
  O  O41  1  0.16607100  0.90541100  0.97464900  1
  O  O42  1  0.51513200  0.25627000  0.02708200  1
  O  O43  1  0.44443200  0.88314200  0.08664600  1
  O  O44  1  0.20694400  0.40989400  0.02480200  1
  O  O45  1  0.40323500  0.58840800  0.17477200  1
  O  O46  1  0.15992600  0.11821600  0.11488500  1
  O  O47  1  0.08901700  0.74964000  0.17235800  1
  O  O48  1  0.96144600  0.38636700  0.11410300  1
  O  O49  1  0.77540900  0.90357700  0.17417700  1
loop_
_geom_bond_atom_site_label_1
_geom_bond_atom_site_label_2
_geom_bond_distance
_geom_bond_site_symmetry_2
Ca0 O2 2.277542 1_555
Ca0 O8 2.429679 1_555
Ca0 O14 2.436471 1_555
Ca0 O9 2.466231 1_555
Ca0 O6 2.475717 1_455
Ca0 O3 2.608704 1_545
Ca0 O1 2.628744 1_555
Ca1 O7 2.277137 1_555
Ca1 O45 2.434043 1_555
Ca1 O49 2.436879 1_555
Ca1 O1 2.468086 1_555
Ca1 O3 2.471295 1_655
Ca1 O6 2.608569 1_565
Ca1 O9 2.626315 1_555
Ca2 O12 2.277632 1_555
Ca2 O18 2.421073 1_555
Ca2 O24 2.443274 1_555
Ca2 O16 2.467289 1_555
Ca2 O19 2.473375 1_655
Ca2 O10 2.615055 1_555
Ca2 O13 2.621865 1_545
Ca3 O17 2.277632 1_555
Ca3 O11 2.421073 1_555
Ca3 O5 2.443274 1_555
Ca3 O13 2.467289 1_555
Ca3 O10 2.473375 1_455
Ca3 O19 2.615055 1_555
Ca3 O16 2.621865 1_565
Ca4 O22 2.277137 1_555
Ca4 O34 2.434043 1_555
Ca4 O28 2.436879 1_555
Ca4 O29 2.468086 1_555
Ca4 O26 2.471295 1_455
Ca4 O23 2.608569 1_545
Ca4 O20 2.626315 1_555
Ca5 O27 2.277542 1_555
Ca5 O21 2.429679 1_555
Ca5 O15 2.436471 1_555
Ca5 O20 2.466231 1_555
Ca5 O23 2.475717 1_655
Ca5 O26 2.608704 1_565
Ca5 O29 2.628744 1_555
Ca6 O32 2.277606 1_555
Ca6 O44 2.395631 1_656
Ca6 O39 2.401942 1_655
Ca6 O38 2.459551 1_556
Ca6 O30 2.541796 1_655
Ca6 O36 2.549629 1_555
Ca6 O33 2.698307 1_545
Ca7 O37 2.287938 1_555
Ca7 O25 2.418734 1_555
Ca7 O33 2.448483 1_555
Ca7 O31 2.449043 1_555
Ca7 O30 2.499228 1_555
Ca7 O39 2.531805 1_555
Ca7 O36 2.708555 1_565
Ca8 O42 2.287938 1_555
Ca8 O4 2.418734 1_555
Ca8 O46 2.448483 1_555
Ca8 O0 2.449043 1_555
Ca8 O48 2.499228 1_555
Ca8 O40 2.531805 1_555
Ca8 O43 2.708555 1_545
Ca9 O47 2.277606 1_555
Ca9 O35 2.395631 1_454
Ca9 O40 2.401942 1_455
Ca9 O41 2.459551 1_554
Ca9 O48 2.541796 1_455
Ca9 O43 2.549629 1_555
Ca9 O46 2.698307 1_565
Nb0 O42 1.916692 1_555
Nb0 O37 1.916692 1_544
Nb0 O38 2.043964 1_555
Nb0 O41 2.043964 1_544
Nb0 O43 2.071463 1_545
Nb0 O36 2.071463 1_554
Al0 O37 1.843213 1_554
Al0 O42 1.843213 1_555
Al0 O35 1.944720 1_554
Al0 O44 1.944720 1_555
Al0 O40 2.005447 1_555
Al0 O39 2.005447 1_554
O0 Si1 1.647332 1_555
O0 Ti0 1.997190 1_545
O1 Si0 1.655824 1_555
O1 Ti7 2.034252 1_555
O2 Ti0 1.899355 1_545
O2 Ti7 1.902596 1_555
O3 Si0 1.654301 1_555
O3 Ti0 2.051385 1_555
O4 Si1 1.650539 1_555
O4 Ti7 2.002440 1_655
O5 Si0 1.648886 1_555
O5 Ti2 2.000027 1_455
O6 Si1 1.654574 1_555
O6 Ti1 2.048646 1_545
O7 Ti2 1.876142 1_555
O7 Ti1 1.889327 1_555
O8 Si3 1.659314 1_555
O8 Ti1 1.999831 1_445
O9 Si1 1.654990 1_555
O9 Ti2 2.041443 1_555
O10 Si2 1.655047 1_555
O10 Ti2 2.045720 1_555
O11 Si0 1.649095 1_555
O11 Ti1 1.998488 1_555
O12 Ti1 1.876150 1_545
O12 Ti2 1.890106 1_555
O13 Si2 1.655057 1_555
O13 Ti1 2.042409 1_555
O14 Si3 1.636620 1_555
O14 Ti2 1.999381 1_555
O15 Si2 1.636620 1_555
O15 Ti4 1.999381 1_555
O16 Si3 1.655057 1_555
O16 Ti3 2.042409 1_555
O17 Ti3 1.876150 1_565
O17 Ti4 1.890106 1_555
O18 Si5 1.649095 1_555
O18 Ti3 1.998488 1_555
O19 Si3 1.655047 1_555
O19 Ti4 2.045720 1_555
O20 Si4 1.654990 1_555
O20 Ti4 2.041443 1_555
O21 Si2 1.659314 1_555
O21 Ti3 1.999831 1_665
O22 Ti4 1.876142 1_555
O22 Ti3 1.889327 1_555
O23 Si4 1.654574 1_555
O23 Ti3 2.048646 1_565
O24 Si5 1.648886 1_555
O24 Ti4 2.000027 1_655
O25 Si4 1.650539 1_555
O25 Ti6 2.002440 1_455
O26 Si5 1.654301 1_555
O26 Ti5 2.051385 1_555
O27 Ti5 1.899355 1_565
O27 Ti6 1.902596 1_555
O28 Si7 1.647392 1_555
O28 Ti5 1.993848 1_455
O29 Si5 1.655824 1_555
O29 Ti6 2.034252 1_555
O30 Si6 1.658568 1_455
O30 Ti6 2.053469 1_455
O31 Si4 1.647332 1_555
O31 Ti5 1.997190 1_565
O32 Ti5 1.862391 1_555
O32 Ti6 1.869589 1_555
O33 Si6 1.654056 1_555
O33 Ti5 2.041639 1_565
O34 Si7 1.648222 1_555
O34 Ti6 2.003643 1_555
O35 Si6 1.630941 1_555
O36 Si7 1.668818 1_555
O38 Si9 1.669543 1_655
O39 Si7 1.641386 1_555
O40 Si8 1.641386 1_555
O41 Si6 1.669543 1_455
O43 Si8 1.668818 1_555
O44 Si9 1.630941 1_555
O45 Si8 1.648222 1_555
O45 Ti7 2.003643 1_555
O46 Si9 1.654056 1_555
O46 Ti0 2.041639 1_545
O47 Ti0 1.862391 1_555
O47 Ti7 1.869589 1_555
O48 Si9 1.658568 1_655
O48 Ti7 2.053469 1_655
O49 Si8 1.647392 1_555
O49 Ti0 1.993848 1_655
