# generated using pymatgen
data_KFeTc2
_symmetry_space_group_name_H-M   'P 1'
_cell_length_a   4.47188612
_cell_length_b   4.47188612
_cell_length_c   4.47188612
_cell_angle_alpha   60.00000000
_cell_angle_beta   60.00000000
_cell_angle_gamma   60.00000000
_symmetry_Int_Tables_number   1
_chemical_formula_structural   KFeTc2
_chemical_formula_sum   'K1 Fe1 Tc2'
_cell_volume   63.23495419
_cell_formula_units_Z   1
loop_
 _symmetry_equiv_pos_site_id
 _symmetry_equiv_pos_as_xyz
  1  'x, y, z'
loop_
 _atom_site_type_symbol
 _atom_site_label
 _atom_site_symmetry_multiplicity
 _atom_site_fract_x
 _atom_site_fract_y
 _atom_site_fract_z
 _atom_site_occupancy
  K  K0  1  0.75000000  0.75000000  0.75000000  1
  Fe  Fe0  1  0.50000000  0.50000000  0.50000000  1
  Tc  Tc0  1  0.00000000  0.00000000  0.00000000  1
  Tc  Tc1  1  0.25000000  0.25000000  0.25000000  1
loop_
_geom_bond_atom_site_label_1
_geom_bond_atom_site_label_2
_geom_bond_distance
_geom_bond_site_symmetry_2
K0 Tc0 2.738460 1_656
K0 Tc0 2.738460 1_566
K0 Tc0 2.738460 1_665
K0 Tc0 2.738460 1_666
Fe0 K0 2.738460 1_554
Fe0 Tc1 2.738460 1_655
Fe0 K0 2.738460 1_455
Fe0 Tc1 2.738460 1_556
Fe0 Tc1 2.738460 1_555
Fe0 K0 2.738460 1_555
Fe0 Tc1 2.738460 1_565
Fe0 K0 2.738460 1_545
Tc0 Tc1 2.738460 1_455
Tc0 Tc1 2.738460 1_555
Tc0 Tc1 2.738460 1_554
Tc0 Tc1 2.738460 1_545
