# generated using pymatgen
data_Ta6Te3S
_symmetry_space_group_name_H-M   'P 1'
_cell_length_a   10.20485900
_cell_length_b   10.38834921
_cell_length_c   13.89199547
_cell_angle_alpha   79.41306578
_cell_angle_beta   81.36257896
_cell_angle_gamma   86.16701333
_symmetry_Int_Tables_number   1
_chemical_formula_structural   Ta6Te3S
_chemical_formula_sum   'Ta36 Te18 S6'
_cell_volume   1430.05704804
_cell_formula_units_Z   6
loop_
 _symmetry_equiv_pos_site_id
 _symmetry_equiv_pos_as_xyz
  1  'x, y, z'
loop_
 _atom_site_type_symbol
 _atom_site_label
 _atom_site_symmetry_multiplicity
 _atom_site_fract_x
 _atom_site_fract_y
 _atom_site_fract_z
 _atom_site_occupancy
  Ta  Ta0  1  0.23780600  0.44302900  0.46672900  1
  Ta  Ta1  1  0.35326400  0.25208700  0.03583700  1
  Ta  Ta2  1  0.26313400  0.47509000  0.66292100  1
  Ta  Ta3  1  0.28883200  0.71980700  0.47506900  1
  Ta  Ta4  1  0.36545200  0.14411900  0.24920400  1
  Ta  Ta5  1  0.36884700  0.43359100  0.19163200  1
  Ta  Ta6  1  0.38248600  0.00070100  0.46243000  1
  Ta  Ta7  1  0.33544600  0.21469600  0.79260400  1
  Ta  Ta8  1  0.43102600  0.74012400  0.10735300  1
  Ta  Ta9  1  0.39642300  0.86979800  0.27922900  1
  Ta  Ta10  1  0.35625400  0.46519300  0.85412700  1
  Ta  Ta11  1  0.42851200  0.23406800  0.56847400  1
  Ta  Ta12  1  0.50000000  0.50000000  0.00000000  1
  Ta  Ta13  1  0.38498000  0.97993000  0.69154100  1
  Ta  Ta14  1  0.47148800  0.59778800  0.31164500  1
  Ta  Ta15  1  0.55017000  0.00948700  0.09219300  1
  Ta  Ta16  1  0.40101100  0.74233800  0.86379900  1
  Ta  Ta17  1  0.44225500  0.70733400  0.64577500  1
  Ta  Ta18  1  0.50000000  0.50000000  0.50000000  1
  Ta  Ta19  1  0.55774500  0.29266600  0.35422500  1
  Ta  Ta20  1  0.59898900  0.25766200  0.13620100  1
  Ta  Ta21  1  0.44983000  0.99051300  0.90780700  1
  Ta  Ta22  1  0.52851200  0.40221200  0.68835500  1
  Ta  Ta23  1  0.61502000  0.02007000  0.30845900  1
  Ta  Ta24  1  0.57148800  0.76593200  0.43152600  1
  Ta  Ta25  1  0.64374600  0.53480700  0.14587300  1
  Ta  Ta26  1  0.60357700  0.13020200  0.72077100  1
  Ta  Ta27  1  0.56897400  0.25987600  0.89264700  1
  Ta  Ta28  1  0.66455400  0.78530400  0.20739600  1
  Ta  Ta29  1  0.61751400  0.99929900  0.53757000  1
  Ta  Ta30  1  0.63115300  0.56640900  0.80836800  1
  Ta  Ta31  1  0.63454800  0.85588100  0.75079600  1
  Ta  Ta32  1  0.71116800  0.28019300  0.52493100  1
  Ta  Ta33  1  0.73686600  0.52491000  0.33707900  1
  Ta  Ta34  1  0.64673600  0.74791300  0.96416300  1
  Ta  Ta35  1  0.76219400  0.55697100  0.53327100  1
  Te  Te0  1  0.04320900  0.61223300  0.57362600  1
  Te  Te1  1  0.14014000  0.29467400  0.19040800  1
  Te  Te2  1  0.15301600  0.23866300  0.64414200  1
  Te  Te3  1  0.15332900  0.96808400  0.37412400  1
  Te  Te4  1  0.23618600  0.61441400  0.03182700  1
  Te  Te5  1  0.13220400  0.31291000  0.92574100  1
  Te  Te6  1  0.20262500  0.64042100  0.28926000  1
  Te  Te7  1  0.27107100  0.98265500  0.09405400  1
  Te  Te8  1  0.19322000  0.95987000  0.85838000  1
  Te  Te9  1  0.80678000  0.04013000  0.14162000  1
  Te  Te10  1  0.72892900  0.01734500  0.90594600  1
  Te  Te11  1  0.79737500  0.35957900  0.71074000  1
  Te  Te12  1  0.86779600  0.68709000  0.07425900  1
  Te  Te13  1  0.76381400  0.38558600  0.96817300  1
  Te  Te14  1  0.84667100  0.03191600  0.62587600  1
  Te  Te15  1  0.84698400  0.76133700  0.35585800  1
  Te  Te16  1  0.85986000  0.70532600  0.80959200  1
  Te  Te17  1  0.95679100  0.38776700  0.42637400  1
  S  S0  1  0.23347600  0.64996200  0.76916500  1
  S  S1  1  0.32065900  0.23893800  0.40580200  1
  S  S2  1  0.24852900  0.86648100  0.60353900  1
  S  S3  1  0.75147100  0.13351900  0.39646100  1
  S  S4  1  0.67934100  0.76106200  0.59419800  1
  S  S5  1  0.76652400  0.35003800  0.23083500  1
loop_
_geom_bond_atom_site_label_1
_geom_bond_atom_site_label_2
_geom_bond_distance
_geom_bond_site_symmetry_2
Ta0 Ta18 2.899431 1_555
Ta0 Te6 2.953255 1_555
Ta0 Te0 2.974088 1_555
Ta0 Te2 3.002108 1_555
Ta0 Te17 3.112702 1_455
Ta1 Te5 2.884119 1_554
Ta1 Te1 2.890416 1_555
Ta1 Te7 2.910341 1_545
Ta1 Ta5 3.147650 1_555
Ta2 Te2 2.838257 1_555
Ta2 Te0 2.892191 1_555
Ta3 Te0 2.861413 1_555
Ta3 Ta9 2.967978 1_555
Ta3 Te3 3.050806 1_555
Ta3 Te6 3.110982 1_555
Ta4 Ta9 2.806654 1_545
Ta4 Te1 2.830877 1_555
Ta4 Ta5 2.967420 1_555
Ta4 Te3 3.045721 1_545
Ta4 Te7 3.248783 1_545
Ta5 Te1 2.828660 1_555
Ta5 Te6 3.037405 1_555
Ta5 Te4 3.052890 1_555
Ta5 Ta8 3.254330 1_555
Ta6 Te3 2.865085 1_545
Ta6 Ta9 3.079573 1_545
Ta7 Te5 2.832271 1_555
Ta7 Te2 2.946871 1_555
Ta7 Te8 3.029155 1_545
Ta8 Te4 2.869998 1_555
Ta8 Te7 2.901061 1_555
Ta8 Ta9 2.916426 1_555
Ta8 Te6 3.237782 1_555
Ta9 Te3 2.847475 1_555
Ta9 Te7 3.050907 1_555
Ta9 Te6 3.167628 1_555
Ta10 Te5 2.818163 1_555
Ta10 Ta30 2.998757 1_555
Ta10 Te4 3.200316 1_556
Ta11 Te2 2.850273 1_555
Ta11 Ta18 2.857337 1_555
Ta11 Ta26 2.978392 1_555
Ta12 Ta30 2.780771 1_554
Ta12 Ta5 2.780771 1_555
Ta12 Te13 2.874685 1_554
Ta12 Te4 2.874685 1_555
Ta13 Te8 2.785574 1_555
Ta13 Ta26 2.923814 1_565
Ta13 Te2 3.496933 1_565
Ta14 Ta18 2.678765 1_555
Ta14 Te6 2.804282 1_555
Ta14 Ta9 2.849736 1_555
Ta14 Ta5 2.931664 1_555
Ta15 Te9 2.856935 1_555
Ta15 Te7 2.876072 1_545
Ta15 Te10 2.924616 1_554
Ta15 Ta9 3.002179 1_545
Ta16 Te4 2.832596 1_556
Ta16 Ta30 2.974722 1_555
Ta16 Te8 2.992251 1_555
Ta17 Ta18 3.187795 1_555
Ta17 Ta30 3.267494 1_555
Ta18 Ta22 2.678765 1_555
Ta18 Ta24 2.857337 1_555
Ta18 Ta35 2.899431 1_555
Ta18 Ta3 3.041953 1_555
Ta18 Ta32 3.041953 1_555
Ta18 Ta2 3.042606 1_555
Ta18 Ta33 3.042606 1_555
Ta18 Ta19 3.187795 1_555
Ta19 Ta5 3.267494 1_555
Ta20 Te13 2.832596 1_554
Ta20 Ta5 2.974722 1_555
Ta20 Te9 2.992251 1_555
Ta21 Te8 2.856935 1_555
Ta21 Te10 2.876072 1_565
Ta21 Te7 2.924616 1_556
Ta21 Ta26 3.002179 1_565
Ta22 Te11 2.804282 1_555
Ta22 Ta26 2.849736 1_555
Ta22 Ta30 2.931664 1_555
Ta23 Te9 2.785574 1_555
Ta23 Ta9 2.923814 1_545
Ta23 Te15 3.496933 1_545
Ta24 Te15 2.850273 1_555
Ta24 Ta9 2.978392 1_555
Ta25 Te12 2.818163 1_555
Ta25 Ta5 2.998757 1_555
Ta25 Te13 3.200316 1_554
Ta26 Ta31 2.806654 1_545
Ta26 Te14 2.847475 1_555
Ta26 Ta7 2.904114 1_555
Ta26 Ta27 2.916426 1_555
Ta26 Ta32 2.967978 1_555
Ta26 Te10 3.050907 1_555
Ta26 Ta29 3.079573 1_545
Ta26 Te11 3.167628 1_555
Ta27 Te13 2.869998 1_555
Ta27 Te10 2.901061 1_555
Ta27 Te11 3.237782 1_555
Ta27 Ta30 3.254330 1_555
Ta28 Te12 2.832271 1_555
Ta28 Ta9 2.904114 1_555
Ta28 Te15 2.946871 1_555
Ta28 Te9 3.029155 1_565
Ta29 Te14 2.865085 1_565
Ta30 Te16 2.828660 1_555
Ta30 Ta31 2.967420 1_555
Ta30 Te11 3.037405 1_555
Ta30 Te13 3.052890 1_555
Ta30 Ta34 3.147650 1_555
Ta31 Te16 2.830877 1_555
Ta31 Te14 3.045721 1_565
Ta31 Te10 3.248783 1_565
Ta32 Te17 2.861413 1_555
Ta32 Te14 3.050806 1_555
Ta32 Te11 3.110982 1_555
Ta33 Te15 2.838257 1_555
Ta33 Te17 2.892191 1_555
Ta34 Te12 2.884119 1_556
Ta34 Te16 2.890416 1_555
Ta34 Te10 2.910341 1_565
Ta35 Te11 2.953255 1_555
Ta35 Te17 2.974088 1_555
Ta35 Te15 3.002108 1_555
Ta35 Te0 3.112702 1_655
S0 Ta10 2.436674 1_555
S0 Ta2 2.519465 1_555
S0 Ta17 2.555423 1_555
S0 Ta16 2.632531 1_555
S1 Ta0 2.476119 1_555
S1 Ta19 2.488262 1_555
S1 Ta4 2.518002 1_555
S1 Ta6 2.523276 1_555
S1 Ta11 2.649230 1_555
S1 Ta5 3.265834 1_555
S2 Ta13 2.466301 1_555
S2 Ta6 2.470055 1_565
S2 Ta3 2.524079 1_555
S2 Ta17 2.557515 1_555
S3 Ta23 2.466301 1_555
S3 Ta29 2.470055 1_545
S3 Ta32 2.524079 1_555
S3 Ta19 2.557515 1_555
S4 Ta35 2.476119 1_555
S4 Ta17 2.488262 1_555
S4 Ta31 2.518002 1_555
S4 Ta29 2.523276 1_555
S4 Ta24 2.649230 1_555
S4 Ta30 3.265834 1_555
S5 Ta25 2.436674 1_555
S5 Ta33 2.519465 1_555
S5 Ta19 2.555423 1_555
S5 Ta20 2.632531 1_555
