# generated using pymatgen
data_KS2N(O2F)2
_symmetry_space_group_name_H-M   'P 1'
_cell_length_a   12.17771100
_cell_length_b   14.26765800
_cell_length_c   14.61930200
_cell_angle_alpha   90.00000000
_cell_angle_beta   90.00000000
_cell_angle_gamma   90.00000000
_symmetry_Int_Tables_number   1
_chemical_formula_structural   KS2N(O2F)2
_chemical_formula_sum   'K16 S32 N16 O64 F32'
_cell_volume   2540.06594287
_cell_formula_units_Z   16
loop_
 _symmetry_equiv_pos_site_id
 _symmetry_equiv_pos_as_xyz
  1  'x, y, z'
loop_
 _atom_site_type_symbol
 _atom_site_label
 _atom_site_symmetry_multiplicity
 _atom_site_fract_x
 _atom_site_fract_y
 _atom_site_fract_z
 _atom_site_occupancy
  K  K0  1  0.00425600  0.34024200  0.55293400  1
  K  K1  1  0.12811100  0.89130200  0.22040300  1
  K  K2  1  0.62811100  0.10869800  0.27959700  1
  K  K3  1  0.87188900  0.60869800  0.72040300  1
  K  K4  1  0.49574400  0.34024200  0.05293400  1
  K  K5  1  0.00425600  0.84024200  0.94706600  1
  K  K6  1  0.62811100  0.60869800  0.22040300  1
  K  K7  1  0.12811100  0.39130200  0.27959700  1
  K  K8  1  0.50425600  0.15975800  0.55293400  1
  K  K9  1  0.49574400  0.84024200  0.44706600  1
  K  K10  1  0.50425600  0.65975800  0.94706600  1
  K  K11  1  0.37188900  0.89130200  0.72040300  1
  K  K12  1  0.99574400  0.65975800  0.44706600  1
  K  K13  1  0.37188900  0.39130200  0.77959700  1
  K  K14  1  0.99574400  0.15975800  0.05293400  1
  K  K15  1  0.87188900  0.10869800  0.77959700  1
  S  S0  1  0.29882500  0.63836000  0.32684200  1
  S  S1  1  0.79882500  0.36164000  0.17315800  1
  S  S2  1  0.35053200  0.05167400  0.34054400  1
  S  S3  1  0.85053200  0.44832600  0.34054400  1
  S  S4  1  0.68158300  0.62523000  0.52987100  1
  S  S5  1  0.31841700  0.37477000  0.47012900  1
  S  S6  1  0.31841700  0.87477000  0.02987100  1
  S  S7  1  0.02522400  0.33347000  0.83522400  1
  S  S8  1  0.79882500  0.86164000  0.32684200  1
  S  S9  1  0.18158300  0.87477000  0.52987100  1
  S  S10  1  0.64946800  0.44832600  0.84054400  1
  S  S11  1  0.20117500  0.13836000  0.67315800  1
  S  S12  1  0.97477600  0.16653000  0.33522400  1
  S  S13  1  0.18158300  0.37477000  0.97012900  1
  S  S14  1  0.14946800  0.55167400  0.65945600  1
  S  S15  1  0.85053200  0.94832600  0.15945600  1
  S  S16  1  0.47477600  0.83347000  0.16477600  1
  S  S17  1  0.14946800  0.05167400  0.84054400  1
  S  S18  1  0.64946800  0.94832600  0.65945600  1
  S  S19  1  0.70117500  0.86164000  0.82684200  1
  S  S20  1  0.20117500  0.63836000  0.82684200  1
  S  S21  1  0.81841700  0.62523000  0.02987100  1
  S  S22  1  0.29882500  0.13836000  0.17315800  1
  S  S23  1  0.52522400  0.66653000  0.66477600  1
  S  S24  1  0.68158300  0.12523000  0.97012900  1
  S  S25  1  0.02522400  0.83347000  0.66477600  1
  S  S26  1  0.47477600  0.33347000  0.33522400  1
  S  S27  1  0.35053200  0.55167400  0.15945600  1
  S  S28  1  0.97477600  0.66653000  0.16477600  1
  S  S29  1  0.52522400  0.16653000  0.83522400  1
  S  S30  1  0.70117500  0.36164000  0.67315800  1
  S  S31  1  0.81841700  0.12523000  0.47012900  1
  N  N0  1  0.61602700  0.89427500  0.75008000  1
  N  N1  1  0.64552700  0.63922900  0.63346900  1
  N  N2  1  0.85447300  0.13922900  0.36653100  1
  N  N3  1  0.61602700  0.39427500  0.74992000  1
  N  N4  1  0.11602700  0.10572500  0.74992000  1
  N  N5  1  0.38397300  0.60572500  0.25008000  1
  N  N6  1  0.88397300  0.89427500  0.25008000  1
  N  N7  1  0.88397300  0.39427500  0.24992000  1
  N  N8  1  0.38397300  0.10572500  0.24992000  1
  N  N9  1  0.64552700  0.13922900  0.86653100  1
  N  N10  1  0.14552700  0.86077100  0.63346900  1
  N  N11  1  0.14552700  0.36077100  0.86653100  1
  N  N12  1  0.35447300  0.86077100  0.13346900  1
  N  N13  1  0.85447300  0.63922900  0.13346900  1
  N  N14  1  0.11602700  0.60572500  0.75008000  1
  N  N15  1  0.35447300  0.36077100  0.36653100  1
  O  O0  1  0.72762300  0.02299700  0.66793900  1
  O  O1  1  0.54949000  0.96670400  0.60910400  1
  O  O2  1  0.29907800  0.88640700  0.52981200  1
  O  O3  1  0.02275500  0.32709100  0.73746900  1
  O  O4  1  0.86735100  0.18595200  0.53711400  1
  O  O5  1  0.79161100  0.42422200  0.65547400  1
  O  O6  1  0.27237700  0.97700300  0.33206100  1
  O  O7  1  0.29907800  0.38640700  0.97018800  1
  O  O8  1  0.63264900  0.68595200  0.46288600  1
  O  O9  1  0.29161100  0.57577800  0.84452600  1
  O  O10  1  0.79907800  0.61359300  0.52981200  1
  O  O11  1  0.20092200  0.88640700  0.02981200  1
  O  O12  1  0.45051000  0.53329600  0.10910400  1
  O  O13  1  0.52275500  0.67290900  0.76253100  1
  O  O14  1  0.79161100  0.92422200  0.84452600  1
  O  O15  1  0.52792600  0.26019800  0.38662600  1
  O  O16  1  0.79907800  0.11359300  0.97018800  1
  O  O17  1  0.14157100  0.67819500  0.90127900  1
  O  O18  1  0.35842900  0.17819500  0.09872100  1
  O  O19  1  0.13264900  0.81404800  0.46288600  1
  O  O20  1  0.64157100  0.32180500  0.59872100  1
  O  O21  1  0.02275500  0.82709100  0.76253100  1
  O  O22  1  0.22762300  0.97700300  0.83206100  1
  O  O23  1  0.54949000  0.46670400  0.89089600  1
  O  O24  1  0.04949000  0.03329600  0.89089600  1
  O  O25  1  0.77237700  0.02299700  0.16793900  1
  O  O26  1  0.27237700  0.47700300  0.16793900  1
  O  O27  1  0.70838900  0.92422200  0.34452600  1
  O  O28  1  0.35842900  0.67819500  0.40127900  1
  O  O29  1  0.47724500  0.82709100  0.26253100  1
  O  O30  1  0.70838900  0.42422200  0.15547400  1
  O  O31  1  0.95051000  0.96670400  0.10910400  1
  O  O32  1  0.14157100  0.17819500  0.59872100  1
  O  O33  1  0.36735100  0.81404800  0.96288600  1
  O  O34  1  0.97207400  0.76019800  0.61337400  1
  O  O35  1  0.97724500  0.67290900  0.26253100  1
  O  O36  1  0.64157100  0.82180500  0.90127900  1
  O  O37  1  0.97724500  0.17290900  0.23746900  1
  O  O38  1  0.77237700  0.52299700  0.33206100  1
  O  O39  1  0.02792600  0.23980200  0.38662600  1
  O  O40  1  0.85842900  0.32180500  0.09872100  1
  O  O41  1  0.02792600  0.73980200  0.11337400  1
  O  O42  1  0.52275500  0.17290900  0.73746900  1
  O  O43  1  0.85842900  0.82180500  0.40127900  1
  O  O44  1  0.47724500  0.32709100  0.23746900  1
  O  O45  1  0.86735100  0.68595200  0.96288600  1
  O  O46  1  0.45051000  0.03329600  0.39089600  1
  O  O47  1  0.36735100  0.31404800  0.53711400  1
  O  O48  1  0.97207400  0.26019800  0.88662600  1
  O  O49  1  0.20092200  0.38640700  0.47018800  1
  O  O50  1  0.63264900  0.18595200  0.03711400  1
  O  O51  1  0.47207400  0.23980200  0.88662600  1
  O  O52  1  0.72762300  0.52299700  0.83206100  1
  O  O53  1  0.47207400  0.73980200  0.61337400  1
  O  O54  1  0.70092200  0.11359300  0.47018800  1
  O  O55  1  0.70092200  0.61359300  0.02981200  1
  O  O56  1  0.20838900  0.57577800  0.34452600  1
  O  O57  1  0.22762300  0.47700300  0.66793900  1
  O  O58  1  0.04949000  0.53329600  0.60910400  1
  O  O59  1  0.95051000  0.46670400  0.39089600  1
  O  O60  1  0.13264900  0.31404800  0.03711400  1
  O  O61  1  0.20838900  0.07577800  0.15547400  1
  O  O62  1  0.52792600  0.76019800  0.11337400  1
  O  O63  1  0.29161100  0.07577800  0.65547400  1
  F  F0  1  0.73895400  0.27203100  0.22248700  1
  F  F1  1  0.76104600  0.27203100  0.72248700  1
  F  F2  1  0.36634500  0.47664300  0.49372900  1
  F  F3  1  0.45436100  0.07346600  0.85799400  1
  F  F4  1  0.86634500  0.52335700  0.00627100  1
  F  F5  1  0.04563900  0.57346600  0.14200600  1
  F  F6  1  0.95436100  0.42653400  0.85799400  1
  F  F7  1  0.95436100  0.92653400  0.64200600  1
  F  F8  1  0.36634500  0.97664300  0.00627100  1
  F  F9  1  0.63365500  0.52335700  0.50627100  1
  F  F10  1  0.23895400  0.22796900  0.22248700  1
  F  F11  1  0.28915600  0.13036800  0.40137200  1
  F  F12  1  0.26104600  0.22796900  0.72248700  1
  F  F13  1  0.76104600  0.77203100  0.77751300  1
  F  F14  1  0.54563900  0.92653400  0.14200600  1
  F  F15  1  0.45436100  0.57346600  0.64200600  1
  F  F16  1  0.73895400  0.77203100  0.27751300  1
  F  F17  1  0.78915600  0.36963200  0.40137200  1
  F  F18  1  0.71084400  0.86963200  0.59862800  1
  F  F19  1  0.21084400  0.63036800  0.59862800  1
  F  F20  1  0.86634500  0.02335700  0.49372900  1
  F  F21  1  0.23895400  0.72796900  0.27751300  1
  F  F22  1  0.71084400  0.36963200  0.90137200  1
  F  F23  1  0.04563900  0.07346600  0.35799400  1
  F  F24  1  0.28915600  0.63036800  0.09862800  1
  F  F25  1  0.26104600  0.72796900  0.77751300  1
  F  F26  1  0.13365500  0.47664300  0.99372900  1
  F  F27  1  0.21084400  0.13036800  0.90137200  1
  F  F28  1  0.78915600  0.86963200  0.09862800  1
  F  F29  1  0.54563900  0.42653400  0.35799400  1
  F  F30  1  0.13365500  0.97664300  0.50627100  1
  F  F31  1  0.63365500  0.02335700  0.99372900  1
loop_
_geom_bond_atom_site_label_1
_geom_bond_atom_site_label_2
_geom_bond_distance
_geom_bond_site_symmetry_2
K0 O3 2.713657 1_555
K0 O49 2.762777 1_555
K0 O4 2.771098 1_455
K0 O39 2.836891 1_555
K0 O58 2.926538 1_555
K0 O32 2.930826 1_555
K0 O59 3.048858 1_455
K0 O5 3.223124 1_455
K1 O6 2.691873 1_555
K1 O31 2.912466 1_455
K1 O11 2.924820 1_555
K1 O41 2.934111 1_555
K1 O61 2.963841 1_565
K1 N6 3.004831 1_455
K1 N12 3.066539 1_555
K2 O25 2.691873 1_555
K2 O46 2.912466 1_555
K2 O54 2.924820 1_555
K2 O15 2.934111 1_555
K2 O27 2.963841 1_545
K2 N8 3.004831 1_555
K2 N2 3.066539 1_555
K3 O52 2.691873 1_555
K3 O58 2.912466 1_655
K3 O10 2.924820 1_555
K3 O34 2.934111 1_555
K3 O5 2.963841 1_555
K3 N14 3.004831 1_655
K3 N1 3.066539 1_555
K4 O44 2.713657 1_555
K4 O7 2.762777 1_554
K4 O50 2.771098 1_555
K4 O51 2.836891 1_554
K4 O12 2.926538 1_555
K4 O18 2.930826 1_555
K4 O23 3.048858 1_554
K4 O30 3.223124 1_555
K5 O21 2.713657 1_555
K5 O11 2.762777 1_556
K5 O45 2.771098 1_455
K5 O41 2.836891 1_556
K5 O24 2.926538 1_565
K5 O17 2.930826 1_555
K5 O31 3.048858 1_456
K5 O14 3.223124 1_455
K6 O38 2.691873 1_555
K6 O12 2.912466 1_555
K6 O55 2.924820 1_555
K6 O62 2.934111 1_555
K6 O30 2.963841 1_555
K6 N5 3.004831 1_555
K6 N13 3.066539 1_555
K7 O26 2.691873 1_555
K7 O59 2.912466 1_455
K7 O49 2.924820 1_555
K7 O39 2.934111 1_555
K7 O56 2.963841 1_555
K7 N7 3.004831 1_455
K7 N15 3.066539 1_555
K8 O42 2.713657 1_555
K8 O54 2.762777 1_555
K8 O47 2.771098 1_555
K8 O15 2.836891 1_555
K8 O1 2.926538 1_545
K8 O20 2.930826 1_555
K8 O46 3.048858 1_555
K8 O63 3.223124 1_555
K9 O29 2.713657 1_555
K9 O2 2.762777 1_555
K9 O8 2.771098 1_555
K9 O53 2.836891 1_555
K9 O46 2.926538 1_565
K9 O28 2.930826 1_555
K9 O1 3.048858 1_555
K9 O27 3.223124 1_555
K10 O13 2.713657 1_555
K10 O55 2.762777 1_556
K10 O33 2.771098 1_555
K10 O62 2.836891 1_556
K10 O23 2.926538 1_555
K10 O36 2.930826 1_555
K10 O12 3.048858 1_556
K10 O9 3.223124 1_555
K11 O22 2.691873 1_555
K11 O1 2.912466 1_555
K11 O2 2.924820 1_555
K11 O53 2.934111 1_555
K11 O63 2.963841 1_565
K11 N0 3.004831 1_555
K11 N10 3.066539 1_555
K12 O35 2.713657 1_555
K12 O10 2.762777 1_555
K12 O19 2.771098 1_655
K12 O34 2.836891 1_555
K12 O59 2.926538 1_555
K12 O43 2.930826 1_555
K12 O58 3.048858 1_655
K12 O56 3.223124 1_655
K13 O57 2.691873 1_555
K13 O23 2.912466 1_555
K13 O7 2.924820 1_555
K13 O51 2.934111 1_555
K13 O9 2.963841 1_555
K13 N3 3.004831 1_555
K13 N11 3.066539 1_555
K14 O37 2.713657 1_555
K14 O16 2.762777 1_554
K14 O60 2.771098 1_655
K14 O48 2.836891 1_554
K14 O31 2.926538 1_545
K14 O40 2.930826 1_555
K14 O24 3.048858 1_654
K14 O61 3.223124 1_655
K15 O0 2.691873 1_555
K15 O24 2.912466 1_655
K15 O16 2.924820 1_555
K15 O48 2.934111 1_555
K15 O14 2.963841 1_545
K15 N4 3.004831 1_655
K15 N9 3.066539 1_555
N0 S18 1.586132 1_555
N0 S19 1.597289 1_555
N1 S23 1.583500 1_555
N1 S4 1.589493 1_555
N2 S12 1.583500 1_555
N2 S31 1.589493 1_555
N3 S10 1.586132 1_555
N3 S30 1.597289 1_555
N4 S17 1.586132 1_555
N4 S11 1.597289 1_555
N5 S27 1.586132 1_555
N5 S0 1.597289 1_555
N6 S15 1.586132 1_555
N6 S8 1.597289 1_555
N7 S3 1.586132 1_555
N7 S1 1.597289 1_555
N8 S2 1.586132 1_555
N8 S22 1.597289 1_555
N9 S29 1.583500 1_555
N9 S24 1.589493 1_555
N10 S25 1.583500 1_555
N10 S9 1.589493 1_555
N11 S7 1.583500 1_555
N11 S13 1.589493 1_555
N12 S16 1.583500 1_555
N12 S6 1.589493 1_555
N13 S28 1.583500 1_555
N13 S21 1.589493 1_555
N14 S14 1.586132 1_555
N14 S20 1.597289 1_555
N15 S26 1.583500 1_555
N15 S5 1.589493 1_555
O0 S18 1.433960 1_545
O1 S18 1.446696 1_555
O2 S9 1.440421 1_555
O3 S7 1.432321 1_555
O4 S31 1.436893 1_555
O5 S30 1.441171 1_555
O6 S2 1.433960 1_565
O7 S13 1.440421 1_555
O8 S4 1.436893 1_555
O9 S20 1.441171 1_555
O10 S4 1.440421 1_555
O11 S6 1.440421 1_555
O12 S27 1.446696 1_555
O13 S23 1.432321 1_555
O14 S19 1.441171 1_555
O15 S26 1.441015 1_555
O16 S24 1.440421 1_555
O17 S20 1.426213 1_555
O18 S22 1.426213 1_555
O19 S9 1.436893 1_555
O20 S30 1.426213 1_555
O21 S25 1.432321 1_555
O22 S17 1.433960 1_565
O23 S10 1.446696 1_555
O24 S17 1.446696 1_555
O25 S15 1.433960 1_545
O26 S27 1.433960 1_555
O27 S8 1.441171 1_555
O28 S0 1.426213 1_555
O29 S16 1.432321 1_555
O30 S1 1.441171 1_555
O31 S15 1.446696 1_555
O32 S11 1.426213 1_555
O33 S6 1.436893 1_556
O34 S25 1.441015 1_655
O35 S28 1.432321 1_555
O36 S19 1.426213 1_555
O37 S12 1.432321 1_555
O38 S3 1.433960 1_555
O39 S12 1.441015 1_455
O40 S1 1.426213 1_555
O41 S28 1.441015 1_455
O42 S29 1.432321 1_555
O43 S8 1.426213 1_555
O44 S26 1.432321 1_555
O45 S21 1.436893 1_556
O46 S2 1.446696 1_555
O47 S5 1.436893 1_555
O48 S7 1.441015 1_655
O49 S5 1.440421 1_555
O50 S24 1.436893 1_554
O51 S29 1.441015 1_555
O52 S10 1.433960 1_555
O53 S23 1.441015 1_555
O54 S31 1.440421 1_555
O55 S21 1.440421 1_555
O56 S0 1.441171 1_555
O57 S14 1.433960 1_555
O58 S14 1.446696 1_555
O59 S3 1.446696 1_555
O60 S13 1.436893 1_554
O61 S22 1.441171 1_555
O62 S16 1.441015 1_555
O63 S11 1.441171 1_555
F0 S1 1.638972 1_555
F0 K2 2.819528 1_555
F1 S30 1.638972 1_555
F1 K15 2.819528 1_555
F2 S5 1.603845 1_555
F3 S29 1.618196 1_555
F4 S21 1.603845 1_555
F5 S28 1.618196 1_455
F6 S7 1.618196 1_655
F7 S25 1.618196 1_655
F8 S6 1.603845 1_555
F9 S4 1.603845 1_555
F10 S22 1.638972 1_555
F10 K7 2.819528 1_555
F11 S2 1.615567 1_555
F12 S11 1.638972 1_555
F12 K13 2.819528 1_555
F13 S19 1.638972 1_555
F13 K3 2.819528 1_555
F14 S16 1.618196 1_555
F15 S23 1.618196 1_555
F16 S8 1.638972 1_555
F16 K6 2.819528 1_555
F17 S3 1.615567 1_555
F18 S18 1.615567 1_555
F19 S14 1.615567 1_555
F20 S31 1.603845 1_555
F21 S0 1.638972 1_555
F21 K1 2.819528 1_555
F22 S10 1.615567 1_555
F23 S12 1.618196 1_455
F24 S27 1.615567 1_555
F25 S20 1.638972 1_555
F25 K11 2.819528 1_555
F26 S13 1.603845 1_555
F27 S17 1.615567 1_555
F28 S15 1.615567 1_555
F29 S26 1.618196 1_555
F30 S9 1.603845 1_555
F31 S24 1.603845 1_555
