# generated using pymatgen
data_RbVI3
_symmetry_space_group_name_H-M   'P 1'
_cell_length_a   14.03014030
_cell_length_b   14.03014030
_cell_length_c   7.02979200
_cell_angle_alpha   90.00000000
_cell_angle_beta   90.00000000
_cell_angle_gamma   120.00000139
_symmetry_Int_Tables_number   1
_chemical_formula_structural   RbVI3
_chemical_formula_sum   'Rb6 V6 I18'
_cell_volume   1198.38710813
_cell_formula_units_Z   6
loop_
 _symmetry_equiv_pos_site_id
 _symmetry_equiv_pos_as_xyz
  1  'x, y, z'
loop_
 _atom_site_type_symbol
 _atom_site_label
 _atom_site_symmetry_multiplicity
 _atom_site_fract_x
 _atom_site_fract_y
 _atom_site_fract_z
 _atom_site_occupancy
  Rb  Rb0  1  0.66861000  0.66861000  0.79534700  1
  Rb  Rb1  1  0.33139000  0.00000000  0.79534700  1
  Rb  Rb2  1  0.33139000  0.33139000  0.29534700  1
  Rb  Rb3  1  0.00000000  0.66861000  0.29534700  1
  Rb  Rb4  1  0.00000000  0.33139000  0.79534700  1
  Rb  Rb5  1  0.66861000  0.00000000  0.29534700  1
  V  V0  1  0.33333300  0.66666700  0.09538500  1
  V  V1  1  0.00000000  0.00000000  0.99975500  1
  V  V2  1  0.66666700  0.33333300  0.09538500  1
  V  V3  1  0.33333300  0.66666700  0.59538500  1
  V  V4  1  0.66666700  0.33333300  0.59538500  1
  V  V5  1  0.00000000  0.00000000  0.49975500  1
  I  I0  1  0.00000000  0.83989500  0.74794000  1
  I  I1  1  0.50603800  0.33244000  0.84660200  1
  I  I2  1  0.17359800  0.50603800  0.34660200  1
  I  I3  1  0.16010500  0.00000000  0.24794000  1
  I  I4  1  0.82640200  0.49396200  0.84660200  1
  I  I5  1  0.50603800  0.17359800  0.34660200  1
  I  I6  1  0.49396200  0.82640200  0.84660200  1
  I  I7  1  0.49396200  0.66756000  0.34660200  1
  I  I8  1  0.83989500  0.83989500  0.24794000  1
  I  I9  1  0.82640200  0.33244000  0.34660200  1
  I  I10  1  0.17359800  0.66756000  0.84660200  1
  I  I11  1  0.00000000  0.16010500  0.24794000  1
  I  I12  1  0.33244000  0.82640200  0.34660200  1
  I  I13  1  0.66756000  0.49396200  0.34660200  1
  I  I14  1  0.33244000  0.50603800  0.84660200  1
  I  I15  1  0.83989500  0.00000000  0.74794000  1
  I  I16  1  0.66756000  0.17359800  0.84660200  1
  I  I17  1  0.16010500  0.16010500  0.74794000  1
loop_
_geom_bond_atom_site_label_1
_geom_bond_atom_site_label_2
_geom_bond_distance
_geom_bond_site_symmetry_2
I0 V5 2.844254 1_565
I0 V1 2.859979 1_565
I0 Rb3 3.987222 1_555
I0 Rb0 4.041069 1_455
I0 Rb1 4.041069 1_565
I1 V2 2.847714 1_556
I1 V4 2.858254 1_555
I1 Rb2 3.989946 1_556
I1 Rb1 4.057060 1_555
I1 Rb0 4.101210 1_555
I2 V3 2.847708 1_555
I2 V0 2.858248 1_555
I2 Rb4 3.989946 1_555
I2 Rb2 4.057060 1_555
I2 Rb3 4.101210 1_555
I3 V1 2.844254 1_554
I3 V5 2.859979 1_555
I3 Rb1 3.987222 1_554
I3 Rb2 4.041069 1_555
I3 Rb3 4.041069 1_545
I4 V2 2.847708 1_556
I4 V4 2.858248 1_555
I4 Rb3 3.989946 1_656
I4 Rb0 4.057060 1_555
I4 Rb4 4.101210 1_655
I5 V4 2.847708 1_555
I5 V2 2.858248 1_555
I5 Rb1 3.989946 1_555
I5 Rb2 4.057060 1_555
I5 Rb5 4.101210 1_555
I6 V0 2.847708 1_556
I6 V3 2.858248 1_555
I6 Rb5 3.989946 1_566
I6 Rb0 4.057060 1_555
I6 Rb1 4.101210 1_565
I7 V3 2.847714 1_555
I7 V0 2.858254 1_555
I7 Rb0 3.989946 1_555
I7 Rb5 4.057060 1_565
I7 Rb2 4.101210 1_555
I8 V1 2.844254 1_664
I8 V5 2.859978 1_665
I8 Rb0 3.987222 1_554
I8 Rb3 4.041069 1_655
I8 Rb5 4.041069 1_565
I9 V4 2.847703 1_555
I9 V2 2.858243 1_555
I9 Rb4 3.989946 1_655
I9 Rb5 4.057060 1_555
I9 Rb3 4.101210 1_655
I10 V0 2.847703 1_556
I10 V3 2.858243 1_555
I10 Rb3 3.989946 1_556
I10 Rb1 4.057060 1_565
I10 Rb4 4.101210 1_555
I11 V1 2.844254 1_554
I11 V5 2.859979 1_555
I11 Rb4 3.987222 1_554
I11 Rb2 4.041069 1_555
I11 Rb5 4.041069 1_455
I12 V3 2.847703 1_555
I12 V0 2.858243 1_555
I12 Rb1 3.989946 1_565
I12 Rb3 4.057060 1_555
I12 Rb5 4.101210 1_565
I13 V4 2.847714 1_555
I13 V2 2.858254 1_555
I13 Rb0 3.989946 1_555
I13 Rb3 4.057060 1_655
I13 Rb2 4.101210 1_555
I14 V0 2.847714 1_556
I14 V3 2.858254 1_555
I14 Rb2 3.989946 1_556
I14 Rb4 4.057060 1_555
I14 Rb0 4.101210 1_555
I15 V5 2.844254 1_655
I15 V1 2.859979 1_655
I15 Rb5 3.987222 1_555
I15 Rb0 4.041069 1_545
I15 Rb4 4.041069 1_655
I16 V2 2.847703 1_556
I16 V4 2.858243 1_555
I16 Rb5 3.989946 1_556
I16 Rb4 4.057060 1_655
I16 Rb1 4.101210 1_555
I17 V5 2.844254 1_555
I17 V1 2.859978 1_555
I17 Rb2 3.987222 1_555
I17 Rb1 4.041069 1_555
I17 Rb4 4.041069 1_555
