# generated using pymatgen
data_K2VAgS4
_symmetry_space_group_name_H-M   'P 1'
_cell_length_a   13.15045375
_cell_length_b   11.72828098
_cell_length_c   7.23697225
_cell_angle_alpha   84.25524610
_cell_angle_beta   62.54516490
_cell_angle_gamma   33.19958900
_symmetry_Int_Tables_number   1
_chemical_formula_structural   K2VAgS4
_chemical_formula_sum   'K4 V2 Ag2 S8'
_cell_volume   438.68088028
_cell_formula_units_Z   2
loop_
 _symmetry_equiv_pos_site_id
 _symmetry_equiv_pos_as_xyz
  1  'x, y, z'
loop_
 _atom_site_type_symbol
 _atom_site_label
 _atom_site_symmetry_multiplicity
 _atom_site_fract_x
 _atom_site_fract_y
 _atom_site_fract_z
 _atom_site_occupancy
  K  K0  1  0.45060100  0.44309400  0.80179000  1
  K  K1  1  0.55927700  0.55450400  0.19527000  1
  K  K2  1  0.81377500  0.79551600  0.43891100  1
  K  K3  1  0.19167300  0.19525900  0.55258200  1
  V  V0  1  0.36790600  0.38332100  0.37616800  1
  V  V1  1  0.62073300  0.63090500  0.63281900  1
  Ag  Ag0  1  0.88236300  0.86587600  0.87208600  1
  Ag  Ag1  1  0.12160200  0.12714000  0.13379800  1
  S  S0  1  0.13652100  0.73037400  0.41539300  1
  S  S1  1  0.42155100  0.21104100  0.13180400  1
  S  S2  1  0.22097800  0.41420600  0.72552400  1
  S  S3  1  0.72880000  0.13160100  0.22355600  1
  S  S4  1  0.86337100  0.26983600  0.58505100  1
  S  S5  1  0.77645400  0.58748800  0.26988100  1
  S  S6  1  0.57148300  0.79390100  0.87546200  1
  S  S7  1  0.26289100  0.87346300  0.78102700  1
loop_
_geom_bond_atom_site_label_1
_geom_bond_atom_site_label_2
_geom_bond_distance
_geom_bond_site_symmetry_2
K0 S4 3.222083 1_555
K0 S3 3.289149 1_555
K0 S0 3.305205 1_556
K0 S7 3.306311 1_555
K0 S2 3.581074 1_555
K0 S1 3.585298 1_556
K1 S7 3.270157 1_555
K1 S4 3.311247 1_554
K1 S0 3.316660 1_555
K1 S3 3.365338 1_555
K1 S5 3.451167 1_555
K1 S6 3.518013 1_554
K1 S7 3.732565 1_644
K2 S1 3.284859 1_655
K2 S5 3.293167 1_555
K2 S6 3.307662 1_555
K2 S2 3.341118 1_565
K2 S3 3.495619 1_565
K2 S0 3.543961 1_655
K3 S1 3.283439 1_555
K3 S5 3.287697 1_545
K3 S2 3.324634 1_555
K3 S6 3.339643 1_455
K3 S7 3.481028 1_545
K3 S4 3.499373 1_455
K3 S6 3.717552 1_544
Ag0 S2 2.511668 1_655
Ag0 S3 2.564859 1_566
Ag0 S0 2.568345 1_655
Ag0 S1 2.570783 1_566
Ag1 S6 2.517731 1_544
Ag1 S4 2.520840 1_455
Ag1 S5 2.579302 1_455
Ag1 S7 2.591752 1_544
S0 V0 2.148152 1_555
S1 V0 2.210703 1_555
S2 V0 2.182712 1_555
S3 V0 2.197876 1_555
S4 V1 2.212791 1_555
S5 V1 2.216899 1_555
S6 V1 2.169970 1_555
S7 V1 2.222792 1_555
