# generated using pymatgen
data_Rb2NbAgSe4
_symmetry_space_group_name_H-M   'P 1'
_cell_length_a   14.38913374
_cell_length_b   12.84197533
_cell_length_c   7.81512087
_cell_angle_alpha   84.58407111
_cell_angle_beta   62.68449415
_cell_angle_gamma   32.73143474
_symmetry_Int_Tables_number   1
_chemical_formula_structural   Rb2NbAgSe4
_chemical_formula_sum   'Rb4 Nb2 Ag2 Se8'
_cell_volume   551.30443552
_cell_formula_units_Z   2
loop_
 _symmetry_equiv_pos_site_id
 _symmetry_equiv_pos_as_xyz
  1  'x, y, z'
loop_
 _atom_site_type_symbol
 _atom_site_label
 _atom_site_symmetry_multiplicity
 _atom_site_fract_x
 _atom_site_fract_y
 _atom_site_fract_z
 _atom_site_occupancy
  Rb  Rb0  1  0.55989100  0.55482600  0.19168200  1
  Rb  Rb1  1  0.43867700  0.44802600  0.80601000  1
  Rb  Rb2  1  0.19492000  0.19133900  0.55130000  1
  Rb  Rb3  1  0.79673100  0.81262300  0.45211000  1
  Nb  Nb0  1  0.61716900  0.63237800  0.63365000  1
  Nb  Nb1  1  0.36798200  0.37964000  0.38316400  1
  Ag  Ag0  1  0.11888300  0.12764300  0.13016000  1
  Ag  Ag1  1  0.87773600  0.87622000  0.87340200  1
  Se  Se0  1  0.80131000  0.55937100  0.24693300  1
  Se  Se1  1  0.10680300  0.75562200  0.43498000  1
  Se  Se2  1  0.43611300  0.20329300  0.11205100  1
  Se  Se3  1  0.76021000  0.10522900  0.19781600  1
  Se  Se4  1  0.88103700  0.25366000  0.57307200  1
  Se  Se5  1  0.24962000  0.88282600  0.80228700  1
  Se  Se6  1  0.55792600  0.80827200  0.89493400  1
  Se  Se7  1  0.19604900  0.43581600  0.75800700  1
loop_
_geom_bond_atom_site_label_1
_geom_bond_atom_site_label_2
_geom_bond_distance
_geom_bond_site_symmetry_2
Rb0 Se4 3.555547 1_554
Rb0 Se5 3.612301 1_555
Rb0 Se3 3.704263 1_555
Rb0 Se0 3.738948 1_555
Rb0 Se1 3.746136 1_555
Rb0 Se6 3.801709 1_554
Rb0 Se5 3.921098 1_644
Rb0 Se4 3.960006 1_465
Rb1 Se3 3.588548 1_555
Rb1 Se1 3.599366 1_556
Rb1 Se5 3.614590 1_555
Rb1 Se4 3.681405 1_555
Rb1 Se2 3.780804 1_556
Rb1 Se7 3.806309 1_555
Rb1 Se3 3.838575 1_466
Rb1 Se1 3.919054 1_645
Rb2 Se0 3.621290 1_545
Rb2 Se6 3.639211 1_455
Rb2 Se7 3.678871 1_555
Rb2 Se2 3.703389 1_555
Rb2 Se4 3.782494 1_455
Rb2 Se6 3.839009 1_544
Rb2 Se5 3.855808 1_545
Rb2 Se0 3.940310 1_456
Rb3 Se7 3.569297 1_565
Rb3 Se6 3.627631 1_555
Rb3 Se2 3.647166 1_655
Rb3 Se0 3.698596 1_555
Rb3 Se1 3.799446 1_655
Rb3 Se3 3.817343 1_565
Rb3 Se2 3.901218 1_566
Rb3 Se7 3.927683 1_654
Nb0 Se5 2.415986 1_555
Nb0 Se4 2.451740 1_555
Nb0 Se6 2.456040 1_555
Nb0 Se0 2.457541 1_555
Nb1 Se2 2.417255 1_555
Nb1 Se7 2.442814 1_555
Nb1 Se1 2.458502 1_555
Nb1 Se3 2.523607 1_555
Ag0 Se0 2.637462 1_455
Ag0 Se5 2.671180 1_544
Ag0 Se4 2.679566 1_455
Ag0 Se6 2.698782 1_544
Ag1 Se3 2.653666 1_566
Ag1 Se1 2.655346 1_655
Ag1 Se2 2.682779 1_566
Ag1 Se7 2.714425 1_655
