# generated using pymatgen
data_SiWCl2
_symmetry_space_group_name_H-M   'P 1'
_cell_length_a   4.48061889
_cell_length_b   4.48061889
_cell_length_c   4.48061889
_cell_angle_alpha   60.00000000
_cell_angle_beta   60.00000000
_cell_angle_gamma   60.00000000
_symmetry_Int_Tables_number   1
_chemical_formula_structural   SiWCl2
_chemical_formula_sum   'Si1 W1 Cl2'
_cell_volume   63.60613670
_cell_formula_units_Z   1
loop_
 _symmetry_equiv_pos_site_id
 _symmetry_equiv_pos_as_xyz
  1  'x, y, z'
loop_
 _atom_site_type_symbol
 _atom_site_label
 _atom_site_symmetry_multiplicity
 _atom_site_fract_x
 _atom_site_fract_y
 _atom_site_fract_z
 _atom_site_occupancy
  Si  Si0  1  0.00000000  0.00000000  0.00000000  1
  W  W0  1  0.50000000  0.50000000  0.50000000  1
  Cl  Cl0  1  0.75000000  0.75000000  0.75000000  1
  Cl  Cl1  1  0.25000000  0.25000000  0.25000000  1
loop_
_geom_bond_atom_site_label_1
_geom_bond_atom_site_label_2
_geom_bond_distance
_geom_bond_site_symmetry_2
Cl0 W0 2.743808 1_655
Cl0 W0 2.743808 1_565
Cl0 Si0 2.743808 1_566
Cl0 Si0 2.743808 1_656
Cl0 W0 2.743808 1_555
Cl0 W0 2.743808 1_556
Cl0 Si0 2.743808 1_666
Cl0 Si0 2.743808 1_665
Cl1 Si0 2.743808 1_655
Cl1 Si0 2.743808 1_565
Cl1 W0 2.743808 1_545
Cl1 W0 2.743808 1_455
Cl1 W0 2.743808 1_555
Cl1 Si0 2.743808 1_555
Cl1 Si0 2.743808 1_556
Cl1 W0 2.743808 1_554
