# generated using pymatgen
data_Pb2Se(NO4)2
_symmetry_space_group_name_H-M   'P 1'
_cell_length_a   5.62790600
_cell_length_b   6.95379200
_cell_length_c   10.50141600
_cell_angle_alpha   90.00000000
_cell_angle_beta   90.00000000
_cell_angle_gamma   90.00000000
_symmetry_Int_Tables_number   1
_chemical_formula_structural   Pb2Se(NO4)2
_chemical_formula_sum   'Pb4 Se2 N4 O16'
_cell_volume   410.97593662
_cell_formula_units_Z   2
loop_
 _symmetry_equiv_pos_site_id
 _symmetry_equiv_pos_as_xyz
  1  'x, y, z'
loop_
 _atom_site_type_symbol
 _atom_site_label
 _atom_site_symmetry_multiplicity
 _atom_site_fract_x
 _atom_site_fract_y
 _atom_site_fract_z
 _atom_site_occupancy
  Pb  Pb0  1  0.50000000  0.76984700  0.01680700  1
  Pb  Pb1  1  0.50000000  0.50191200  0.66901900  1
  Pb  Pb2  1  0.00000000  0.00191200  0.33098100  1
  Pb  Pb3  1  0.00000000  0.26984700  0.98319300  1
  Se  Se0  1  0.00000000  0.79711400  0.81483400  1
  Se  Se1  1  0.50000000  0.29711400  0.18516600  1
  N  N0  1  0.00000000  0.36971200  0.51656200  1
  N  N1  1  0.50000000  0.86971200  0.48343800  1
  N  N2  1  0.00000000  0.59497100  0.18640800  1
  N  N3  1  0.50000000  0.09497100  0.81359200  1
  O  O0  1  0.69018700  0.17670900  0.77725900  1
  O  O1  1  0.00000000  0.47000500  0.61759000  1
  O  O2  1  0.00000000  0.91776900  0.95860800  1
  O  O3  1  0.30981300  0.17670900  0.77725900  1
  O  O4  1  0.19598100  0.31841300  0.46678200  1
  O  O5  1  0.50000000  0.97000500  0.38241000  1
  O  O6  1  0.25899000  0.14429500  0.15620600  1
  O  O7  1  0.80401900  0.31841300  0.46678200  1
  O  O8  1  0.74101000  0.14429500  0.15620600  1
  O  O9  1  0.75899000  0.64429500  0.84379400  1
  O  O10  1  0.50000000  0.41776900  0.04139200  1
  O  O11  1  0.80981300  0.67670900  0.22274100  1
  O  O12  1  0.24101000  0.64429500  0.84379400  1
  O  O13  1  0.19018700  0.67670900  0.22274100  1
  O  O14  1  0.69598100  0.81841300  0.53321800  1
  O  O15  1  0.30401900  0.81841300  0.53321800  1
loop_
_geom_bond_atom_site_label_1
_geom_bond_atom_site_label_2
_geom_bond_distance
_geom_bond_site_symmetry_2
N0 O1 1.269637 1_555
N0 O4 1.271635 1_555
N0 O7 1.271635 1_455
N1 O5 1.269637 1_555
N1 O14 1.271635 1_555
N1 O15 1.271635 1_555
N2 O13 1.270553 1_555
N2 O11 1.270553 1_455
N3 O3 1.270553 1_555
N3 O0 1.270553 1_555
O2 Se0 1.727289 1_555
O2 Pb3 2.461852 1_565
O6 Se1 1.749723 1_555
O6 Pb3 2.487531 1_554
O6 Pb2 2.544298 1_555
O8 Se1 1.749723 1_555
O8 Pb3 2.487531 1_654
O8 Pb2 2.544298 1_655
O9 Se0 1.749723 1_655
O9 Pb0 2.487531 1_556
O9 Pb1 2.544298 1_555
O10 Se1 1.727289 1_555
O10 Pb0 2.461852 1_555
O12 Se0 1.749723 1_555
O12 Pb0 2.487531 1_556
O12 Pb1 2.544298 1_555
