# generated using pymatgen
data_CaP2H2O7
_symmetry_space_group_name_H-M   'P 1'
_cell_length_a   5.53090768
_cell_length_b   5.53090768
_cell_length_c   9.90187694
_cell_angle_alpha   82.75936104
_cell_angle_beta   82.75936104
_cell_angle_gamma   94.69799836
_symmetry_Int_Tables_number   1
_chemical_formula_structural   CaP2H2O7
_chemical_formula_sum   'Ca2 P4 H4 O14'
_cell_volume   296.62060719
_cell_formula_units_Z   2
loop_
 _symmetry_equiv_pos_site_id
 _symmetry_equiv_pos_as_xyz
  1  'x, y, z'
loop_
 _atom_site_type_symbol
 _atom_site_label
 _atom_site_symmetry_multiplicity
 _atom_site_fract_x
 _atom_site_fract_y
 _atom_site_fract_z
 _atom_site_occupancy
  Ca  Ca0  1  0.00000000  0.00000000  0.00000000  1
  Ca  Ca1  1  0.00000000  0.00000000  0.50000000  1
  P  P0  1  0.22325400  0.45117200  0.19039100  1
  P  P1  1  0.54882800  0.77674600  0.30960900  1
  P  P2  1  0.77674600  0.54882800  0.80960900  1
  P  P3  1  0.45117200  0.22325400  0.69039100  1
  H  H0  1  0.92083900  0.50623400  0.34814800  1
  H  H1  1  0.49376600  0.07916100  0.15185200  1
  H  H2  1  0.07916100  0.49376600  0.65185200  1
  H  H3  1  0.50623400  0.92083900  0.84814800  1
  O  O0  1  0.27006700  0.22472800  0.12321300  1
  O  O1  1  0.77527200  0.72993300  0.37678700  1
  O  O2  1  0.72993300  0.77527200  0.87678700  1
  O  O3  1  0.22472800  0.27006700  0.62321300  1
  O  O4  1  0.02613400  0.36759700  0.32510100  1
  O  O5  1  0.63240300  0.97386600  0.17489900  1
  O  O6  1  0.97386600  0.63240300  0.67489900  1
  O  O7  1  0.36759700  0.02613400  0.82510100  1
  O  O8  1  0.14896200  0.66811200  0.10489400  1
  O  O9  1  0.33188800  0.85103800  0.39510600  1
  O  O10  1  0.85103800  0.33188800  0.89510600  1
  O  O11  1  0.66811200  0.14896200  0.60489400  1
  O  O12  1  0.47617100  0.52382900  0.25000000  1
  O  O13  1  0.52382900  0.47617100  0.75000000  1
loop_
_geom_bond_atom_site_label_1
_geom_bond_atom_site_label_2
_geom_bond_distance
_geom_bond_site_symmetry_2
Ca0 O8 2.260535 1_545
Ca0 O10 2.260535 1_454
Ca0 O2 2.408758 1_444
Ca0 O0 2.408758 1_555
Ca0 O7 2.480926 1_554
Ca0 O5 2.480926 1_445
Ca1 O9 2.260535 1_545
Ca1 O11 2.260535 1_455
Ca1 O3 2.408758 1_555
Ca1 O1 2.408758 1_445
Ca1 O6 2.480926 1_445
Ca1 O4 2.480926 1_555
H0 O4 1.031002 1_655
H0 O1 1.566367 1_555
H1 O5 1.031002 1_545
H1 O0 1.566367 1_555
H2 O6 1.031002 1_455
H2 O3 1.566367 1_555
H3 O7 1.031002 1_565
H3 O2 1.566367 1_555
O0 P0 1.515860 1_555
O1 P1 1.515860 1_555
O2 P2 1.515860 1_555
O3 P3 1.515860 1_555
O4 P0 1.605304 1_555
O5 P1 1.605304 1_555
O6 P2 1.605304 1_555
O7 P3 1.605304 1_555
O8 P0 1.495873 1_555
O9 P1 1.495873 1_555
O10 P2 1.495873 1_555
O11 P3 1.495873 1_555
O12 P0 1.625583 1_555
O12 P1 1.625583 1_555
O13 P2 1.625583 1_555
O13 P3 1.625583 1_555
