# generated using pymatgen
data_NaV2O4
_symmetry_space_group_name_H-M   'P 1'
_cell_length_a   2.87327483
_cell_length_b   9.15724757
_cell_length_c   10.64195486
_cell_angle_alpha   89.99837350
_cell_angle_beta   90.00004375
_cell_angle_gamma   89.99983659
_symmetry_Int_Tables_number   1
_chemical_formula_structural   NaV2O4
_chemical_formula_sum   'Na4 V8 O16'
_cell_volume   280.00354932
_cell_formula_units_Z   4
loop_
 _symmetry_equiv_pos_site_id
 _symmetry_equiv_pos_as_xyz
  1  'x, y, z'
loop_
 _atom_site_type_symbol
 _atom_site_label
 _atom_site_symmetry_multiplicity
 _atom_site_fract_x
 _atom_site_fract_y
 _atom_site_fract_z
 _atom_site_occupancy
  Na  Na0  1  0.74998682  0.25687555  0.84779733  1
  Na  Na1  1  0.75001464  0.75681395  0.65227297  1
  Na  Na2  1  0.25001454  0.24309695  0.34773014  1
  Na  Na3  1  0.24998930  0.74319613  0.15219338  1
  V  V0  1  0.24995650  0.06282340  0.11412667  1
  V  V1  1  0.75004063  0.43715553  0.61408764  1
  V  V2  1  0.74999344  0.91506373  0.39582859  1
  V  V3  1  0.25000598  0.58493473  0.89583404  1
  V  V4  1  0.25003276  0.56274526  0.38586976  1
  V  V5  1  0.74995623  0.93727276  0.88591587  1
  V  V6  1  0.24999576  0.08486739  0.60417837  1
  V  V7  1  0.75000852  0.41513463  0.10414508  1
  O  O0  1  0.25002255  0.47973092  0.21765100  1
  O  O1  1  0.24998126  0.97971391  0.28231426  1
  O  O2  1  0.74997466  0.02026420  0.71771034  1
  O  O3  1  0.75001444  0.52031387  0.78230361  1
  O  O4  1  0.75004478  0.42246292  0.42894158  1
  O  O5  1  0.25004460  0.57739883  0.57100569  1
  O  O6  1  0.24995059  0.07751601  0.92900039  1
  O  O7  1  0.74995757  0.92260887  0.07103745  1
  O  O8  1  0.74999353  0.11236627  0.48045323  1
  O  O9  1  0.24999386  0.88753706  0.51954954  1
  O  O10  1  0.25001230  0.38764732  0.98045572  1
  O  O11  1  0.75001114  0.61244431  0.01953033  1
  O  O12  1  0.75002683  0.70798966  0.35188507  1
  O  O13  1  0.25002992  0.29191357  0.64813437  1
  O  O14  1  0.24996698  0.79200900  0.85194295  1
  O  O15  1  0.74997486  0.20810123  0.14810661  1
loop_
_geom_bond_atom_site_label_1
_geom_bond_atom_site_label_2
_geom_bond_distance
_geom_bond_site_symmetry_2
Na0 O10 2.343258 1_555
Na0 O10 2.343351 1_655
Na0 O6 2.346894 1_655
Na0 O6 2.347028 1_555
Na0 O3 2.511019 1_555
Na0 O2 2.571246 1_555
Na0 O13 2.584814 1_555
Na0 O13 2.584955 1_655
Na1 O9 2.343419 1_655
Na1 O9 2.343487 1_555
Na1 O5 2.347553 1_555
Na1 O5 2.347653 1_655
Na1 O2 2.510995 1_565
Na1 O3 2.569998 1_555
Na1 O14 2.585063 1_655
Na1 O14 2.585216 1_555
Na2 O8 2.343446 1_555
Na2 O8 2.343526 1_455
Na2 O4 2.347014 1_455
Na2 O4 2.347125 1_555
Na2 O1 2.510341 1_545
Na2 O0 2.571309 1_555
Na2 O15 2.584443 1_555
Na2 O15 2.584569 1_455
Na3 O11 2.343204 1_455
Na3 O11 2.343278 1_555
Na3 O7 2.347065 1_555
Na3 O7 2.347170 1_455
Na3 O0 2.511149 1_555
Na3 O1 2.570718 1_555
Na3 O12 2.585269 1_455
Na3 O12 2.585386 1_555
O0 V4 1.944913 1_555
O0 V7 1.967951 1_555
O0 V7 1.968011 1_455
O1 V0 1.944909 1_565
O1 V2 1.968141 1_455
O1 V2 1.968188 1_555
O2 V5 1.944662 1_545
O2 V6 1.968104 1_555
O2 V6 1.968196 1_655
O3 V1 1.945402 1_555
O3 V3 1.968192 1_655
O3 V3 1.968226 1_555
O4 V1 1.974908 1_555
O4 V4 1.980935 1_655
O4 V4 1.980980 1_555
O5 V4 1.974776 1_555
O5 V1 1.980739 1_555
O5 V1 1.980762 1_455
O6 V0 1.974691 1_556
O6 V5 1.980764 1_445
O6 V5 1.980783 1_545
O7 V5 1.974623 1_554
O7 V0 1.980614 1_565
O7 V0 1.980615 1_665
O8 V6 1.964929 1_555
O8 V6 1.964935 1_655
O8 V2 2.018777 1_545
O9 V2 1.964934 1_455
O9 V2 1.964935 1_555
O9 V6 2.019025 1_565
O10 V7 1.964665 1_556
O10 V7 1.964681 1_456
O10 V3 2.018593 1_555
O11 V3 1.964738 1_654
O11 V3 1.964759 1_554
O11 V7 2.018743 1_555
O12 V2 1.953055 1_555
O12 V4 1.990896 1_555
O12 V4 1.990915 1_655
O13 V6 1.952839 1_555
O13 V1 1.990985 1_455
O13 V1 1.991036 1_555
O14 V3 1.952898 1_555
O14 V5 1.990995 1_555
O14 V5 1.991034 1_455
O15 V7 1.952714 1_555
O15 V0 1.991074 1_655
O15 V0 1.991155 1_555
