# generated using pymatgen
data_BaMg2Al6(Si3O10)3
_symmetry_space_group_name_H-M   'P 1'
_cell_length_a   10.25904400
_cell_length_b   10.33608980
_cell_length_c   14.37323016
_cell_angle_alpha   89.83703871
_cell_angle_beta   90.61069435
_cell_angle_gamma   119.71970015
_symmetry_Int_Tables_number   1
_chemical_formula_structural   BaMg2Al6(Si3O10)3
_chemical_formula_sum   'Ba2 Mg4 Al12 Si18 O60'
_cell_volume   1323.55360994
_cell_formula_units_Z   2
loop_
 _symmetry_equiv_pos_site_id
 _symmetry_equiv_pos_as_xyz
  1  'x, y, z'
loop_
 _atom_site_type_symbol
 _atom_site_label
 _atom_site_symmetry_multiplicity
 _atom_site_fract_x
 _atom_site_fract_y
 _atom_site_fract_z
 _atom_site_occupancy
  Ba  Ba0  1  0.99019100  0.99539000  0.25432600  1
  Ba  Ba1  1  0.99775800  0.99337500  0.75447600  1
  Mg  Mg0  1  0.66640700  0.33777900  0.75231200  1
  Mg  Mg1  1  0.66522000  0.33526000  0.25181600  1
  Mg  Mg2  1  0.33607800  0.66150100  0.75338700  1
  Mg  Mg3  1  0.34143200  0.66936500  0.25043700  1
  Al  Al0  1  0.35076900  0.24752800  0.38775000  1
  Al  Al1  1  0.50498300  0.50159000  0.24658900  1
  Al  Al2  1  0.49584500  0.99867300  0.25174700  1
  Al  Al3  1  0.10835600  0.74767600  0.88793700  1
  Al  Al4  1  0.00284300  0.49360800  0.74840600  1
  Al  Al5  1  0.00230100  0.50329800  0.25233400  1
  Al  Al6  1  0.50493500  0.00400700  0.74947800  1
  Al  Al7  1  0.24307800  0.34552000  0.88918400  1
  Al  Al8  1  0.64621800  0.89670800  0.11211700  1
  Al  Al9  1  0.49577000  0.50200800  0.75292700  1
  Al  Al10  1  0.65259600  0.75805800  0.38652000  1
  Al  Al11  1  0.64844700  0.75525400  0.61132300  1
  Si  Si0  1  0.34759800  0.24714000  0.61231900  1
  Si  Si1  1  0.34985400  0.09963800  0.88667400  1
  Si  Si2  1  0.34130400  0.09481500  0.10948400  1
  Si  Si3  1  0.75844400  0.65576000  0.10955300  1
  Si  Si4  1  0.75729200  0.65816000  0.88740400  1
  Si  Si5  1  0.90148800  0.65365200  0.61270300  1
  Si  Si6  1  0.90071600  0.65004700  0.39084700  1
  Si  Si7  1  0.75247800  0.10525300  0.38796600  1
  Si  Si8  1  0.75176800  0.10176200  0.60972100  1
  Si  Si9  1  0.10516000  0.74812100  0.11100800  1
  Si  Si10  1  0.89391500  0.24362800  0.88936700  1
  Si  Si11  1  0.89718800  0.24900400  0.11211500  1
  Si  Si12  1  0.24863600  0.90302200  0.61187200  1
  Si  Si13  1  0.24760200  0.89900500  0.39092000  1
  Si  Si14  1  0.10259600  0.35100600  0.38722500  1
  Si  Si15  1  0.10161200  0.34780800  0.60707100  1
  Si  Si16  1  0.24090700  0.33984300  0.11241000  1
  Si  Si17  1  0.64535700  0.89599900  0.88948100  1
  O  O0  1  0.28350000  0.20596600  0.85570400  1
  O  O1  1  0.26515500  0.19620600  0.13884200  1
  O  O2  1  0.26538000  0.05658700  0.35879300  1
  O  O3  1  0.27357500  0.06829600  0.64221600  1
  O  O4  1  0.39272500  0.27285400  0.50605500  1
  O  O5  1  0.48691000  0.35192700  0.68316100  1
  O  O6  1  0.50275000  0.35923200  0.31649600  1
  O  O7  1  0.38495400  0.11149400  0.99996100  1
  O  O8  1  0.64510200  0.51075300  0.82471600  1
  O  O9  1  0.64662100  0.50856800  0.17045700  1
  O  O10  1  0.73195700  0.61932200  0.99810100  1
  O  O11  1  0.50212700  0.14066700  0.82533400  1
  O  O12  1  0.48690400  0.13384500  0.17591100  1
  O  O13  1  0.80328700  0.72587100  0.35860100  1
  O  O14  1  0.79895200  0.72332300  0.64302300  1
  O  O15  1  0.92962100  0.72390000  0.85772900  1
  O  O16  1  0.93347100  0.70872700  0.14018300  1
  O  O17  1  0.64490700  0.14262400  0.67466500  1
  O  O18  1  0.63972200  0.14041800  0.32388100  1
  O  O19  1  0.89133100  0.61213100  0.50204700  1
  O  O20  1  0.86347200  0.50439100  0.32583800  1
  O  O21  1  0.86615600  0.50704600  0.67622000  1
  O  O22  1  0.72198800  0.11358000  0.49880100  1
  O  O23  1  0.07457500  0.78731100  0.63976000  1
  O  O24  1  0.07505400  0.77303900  0.36284000  1
  O  O25  1  0.85998900  0.35448900  0.82290700  1
  O  O26  1  0.86684600  0.36385400  0.17591300  1
  O  O27  1  0.88663000  0.27628200  0.00026500  1
  O  O28  1  0.22364900  0.93337200  0.85568500  1
  O  O29  1  0.20782500  0.92656300  0.13909800  1
  O  O30  1  0.77426700  0.06872500  0.86266400  1
  O  O31  1  0.78702200  0.07901300  0.14178000  1
  O  O32  1  0.12184100  0.71878000  0.00477500  1
  O  O33  1  0.14326100  0.63263800  0.81723600  1
  O  O34  1  0.14236600  0.64734300  0.18279800  1
  O  O35  1  0.93000300  0.22056000  0.63338900  1
  O  O36  1  0.92550400  0.23154500  0.36167300  1
  O  O37  1  0.27359500  0.89161800  0.50213500  1
  O  O38  1  0.14139300  0.49758400  0.32448500  1
  O  O39  1  0.13638500  0.48959700  0.67128600  1
  O  O40  1  0.11915800  0.38940500  0.49796300  1
  O  O41  1  0.36254900  0.87224700  0.67451000  1
  O  O42  1  0.36147600  0.86656400  0.33031300  1
  O  O43  1  0.05276000  0.26288000  0.85688500  1
  O  O44  1  0.06585400  0.27913500  0.14445800  1
  O  O45  1  0.20505900  0.27406400  0.63830300  1
  O  O46  1  0.19784300  0.27343900  0.35658300  1
  O  O47  1  0.50594900  0.86273600  0.81955400  1
  O  O48  1  0.49312400  0.85883400  0.18129600  1
  O  O49  1  0.26466300  0.38024100  0.00562400  1
  O  O50  1  0.35710300  0.49995900  0.82423700  1
  O  O51  1  0.35169400  0.48095900  0.17671500  1
  O  O52  1  0.59978400  0.87552100  0.99563200  1
  O  O53  1  0.49922000  0.64159400  0.68300000  1
  O  O54  1  0.50581700  0.64470300  0.31091700  1
  O  O55  1  0.59884700  0.73230500  0.49813300  1
  O  O56  1  0.73876400  0.94969300  0.35403500  1
  O  O57  1  0.73147000  0.94507300  0.64611200  1
  O  O58  1  0.72319700  0.79505700  0.85934900  1
  O  O59  1  0.73775700  0.79529200  0.13975500  1
loop_
_geom_bond_atom_site_label_1
_geom_bond_atom_site_label_2
_geom_bond_distance
_geom_bond_site_symmetry_2
Ba0 O56 2.792357 1_555
Ba0 O59 2.883374 1_555
Ba0 O13 2.902536 1_555
Ba0 O2 2.961324 1_665
Ba0 O46 2.974022 1_665
Ba0 O1 3.048865 1_665
Ba0 O31 3.068337 1_565
Ba0 O44 3.072496 1_665
Ba0 O29 3.145556 1_655
Ba0 O16 3.179181 1_555
Ba0 O24 3.226002 1_655
Ba0 O36 3.229313 1_565
Ba1 O15 2.918432 1_555
Ba1 O43 2.948197 1_665
Ba1 O57 2.949517 1_555
Ba1 O58 2.959061 1_555
Ba1 O14 2.971259 1_555
Ba1 O0 3.013167 1_665
Ba1 O3 3.021177 1_665
Ba1 O28 3.036334 1_655
Ba1 O23 3.096469 1_655
Ba1 O45 3.107831 1_665
Ba1 O30 3.183553 1_565
Ba1 O35 3.255091 1_565
Mg0 O25 2.149746 1_555
Mg0 O5 2.151146 1_555
Mg0 O11 2.171143 1_555
Mg0 O8 2.174896 1_555
Mg0 O17 2.220238 1_555
Mg0 O21 2.222280 1_555
Mg1 O6 2.036583 1_555
Mg1 O18 2.160719 1_555
Mg1 O20 2.182600 1_555
Mg1 O9 2.221478 1_555
Mg1 O26 2.235248 1_555
Mg1 O12 2.250588 1_555
Mg2 O50 2.052859 1_555
Mg2 O53 2.060532 1_555
Mg2 O33 2.072720 1_555
Mg2 O47 2.156319 1_555
Mg2 O39 2.257831 1_555
Mg2 O41 2.347337 1_555
Mg3 O54 2.014555 1_555
Mg3 O48 2.060273 1_555
Mg3 O34 2.160019 1_555
Mg3 O38 2.218065 1_555
Mg3 O42 2.259999 1_555
Mg3 O51 2.267945 1_555
Al0 O4 1.737944 1_555
Al0 O6 1.747962 1_555
Al0 O2 1.765883 1_555
Al0 O46 1.770513 1_555
Al1 O54 1.743026 1_555
Al1 O6 1.770276 1_555
Al1 O51 1.778268 1_555
Al1 O9 1.800988 1_555
Al2 O48 1.755853 1_555
Al2 O42 1.788317 1_555
Al2 O18 1.797768 1_565
Al2 O12 1.806885 1_565
Al3 O32 1.720955 1_556
Al3 O33 1.735374 1_555
Al3 O28 1.747441 1_555
Al3 O15 1.774267 1_455
Al4 O33 1.744745 1_555
Al4 O39 1.787819 1_555
Al4 O21 1.795400 1_455
Al4 O25 1.815866 1_455
Al5 O38 1.779551 1_555
Al5 O34 1.783622 1_555
Al5 O20 1.786867 1_455
Al5 O26 1.790404 1_455
Al6 O41 1.775356 1_545
Al6 O47 1.775732 1_545
Al6 O11 1.798497 1_555
Al6 O17 1.804248 1_555
Al7 O49 1.701632 1_556
Al7 O50 1.717935 1_555
Al7 O0 1.756551 1_555
Al7 O43 1.756884 1_555
Al8 O52 1.720377 1_554
Al8 O48 1.740736 1_555
Al8 O59 1.761894 1_555
Al8 O31 1.763994 1_565
Al9 O53 1.742098 1_555
Al9 O50 1.753805 1_555
Al9 O8 1.802618 1_555
Al9 O5 1.813084 1_555
Al10 O55 1.679104 1_555
Al10 O54 1.744737 1_555
Al10 O13 1.784824 1_555
Al10 O56 1.786132 1_555
Al11 O55 1.681335 1_555
Al11 O53 1.740325 1_555
Al11 O57 1.778893 1_555
Al11 O14 1.786057 1_555
O0 Si1 1.613046 1_555
O1 Si2 1.645579 1_555
O1 Si16 1.664738 1_555
O2 Si13 1.613194 1_545
O3 Si12 1.656027 1_545
O3 Si0 1.670040 1_555
O4 Si0 1.583841 1_555
O5 Si0 1.641016 1_555
O7 Si2 1.626436 1_556
O7 Si1 1.655575 1_555
O8 Si4 1.644665 1_555
O9 Si3 1.637162 1_555
O10 Si4 1.631548 1_555
O10 Si3 1.635399 1_556
O11 Si1 1.663706 1_555
O12 Si2 1.637020 1_555
O13 Si6 1.610235 1_555
O14 Si5 1.605516 1_555
O15 Si4 1.610135 1_555
O16 Si3 1.651538 1_555
O16 Si9 1.657623 1_655
O17 Si8 1.653701 1_555
O18 Si7 1.646490 1_555
O19 Si6 1.636990 1_555
O19 Si5 1.637281 1_555
O20 Si6 1.647932 1_555
O21 Si5 1.647928 1_555
O22 Si8 1.635694 1_555
O22 Si7 1.637430 1_555
O23 Si12 1.635472 1_555
O23 Si5 1.664014 1_455
O24 Si13 1.641392 1_555
O24 Si6 1.653800 1_455
O25 Si10 1.651898 1_555
O26 Si11 1.650946 1_555
O27 Si10 1.640375 1_554
O27 Si11 1.643089 1_555
O28 Si1 1.616789 1_565
O29 Si2 1.651575 1_565
O29 Si9 1.656254 1_555
O30 Si10 1.647993 1_555
O30 Si17 1.658559 1_545
O31 Si11 1.607296 1_555
O32 Si9 1.585049 1_555
O34 Si9 1.635593 1_555
O35 Si15 1.639496 1_655
O35 Si8 1.652236 1_555
O36 Si7 1.646736 1_555
O36 Si14 1.650559 1_655
O37 Si12 1.614574 1_555
O37 Si13 1.625610 1_555
O38 Si14 1.633694 1_555
O39 Si15 1.615322 1_555
O40 Si15 1.613091 1_555
O40 Si14 1.628112 1_555
O41 Si12 1.619254 1_555
O42 Si13 1.627212 1_555
O43 Si10 1.614720 1_455
O44 Si16 1.652199 1_555
O44 Si11 1.660293 1_455
O45 Si15 1.642787 1_555
O45 Si0 1.664637 1_555
O46 Si14 1.606088 1_555
O47 Si17 1.630220 1_555
O49 Si16 1.578915 1_555
O51 Si16 1.617127 1_555
O52 Si17 1.583193 1_555
O56 Si7 1.619145 1_565
O57 Si8 1.613385 1_565
O58 Si17 1.658281 1_555
O58 Si4 1.664813 1_555
O59 Si3 1.619406 1_555
