# generated using pymatgen
data_Na4P2H4CO9
_symmetry_space_group_name_H-M   'P 1'
_cell_length_a   8.53862900
_cell_length_b   8.53862900
_cell_length_c   6.50524900
_cell_angle_alpha   90.00000000
_cell_angle_beta   90.00000000
_cell_angle_gamma   90.00000000
_symmetry_Int_Tables_number   1
_chemical_formula_structural   Na4P2H4CO9
_chemical_formula_sum   'Na8 P4 H8 C2 O18'
_cell_volume   474.28589886
_cell_formula_units_Z   2
loop_
 _symmetry_equiv_pos_site_id
 _symmetry_equiv_pos_as_xyz
  1  'x, y, z'
loop_
 _atom_site_type_symbol
 _atom_site_label
 _atom_site_symmetry_multiplicity
 _atom_site_fract_x
 _atom_site_fract_y
 _atom_site_fract_z
 _atom_site_occupancy
  Na  Na0  1  0.07072100  0.81874700  0.70110400  1
  Na  Na1  1  0.92927900  0.18125300  0.70110400  1
  Na  Na2  1  0.81874700  0.92927900  0.29889600  1
  Na  Na3  1  0.18125300  0.07072100  0.29889600  1
  Na  Na4  1  0.46092200  0.79995000  0.13712400  1
  Na  Na5  1  0.53907800  0.20005000  0.13712400  1
  Na  Na6  1  0.79995000  0.53907800  0.86287600  1
  Na  Na7  1  0.20005000  0.46092200  0.86287600  1
  P  P0  1  0.33142400  0.09028300  0.79310000  1
  P  P1  1  0.66857600  0.90971700  0.79310000  1
  P  P2  1  0.09028300  0.66857600  0.20690000  1
  P  P3  1  0.90971700  0.33142400  0.20690000  1
  H  H0  1  0.42206200  0.67848800  0.71089500  1
  H  H1  1  0.57793800  0.32151200  0.71089500  1
  H  H2  1  0.67848800  0.57793800  0.28910500  1
  H  H3  1  0.32151200  0.42206200  0.28910500  1
  H  H4  1  0.31046100  0.64422300  0.52017400  1
  H  H5  1  0.68953900  0.35577700  0.52017400  1
  H  H6  1  0.64422300  0.68953900  0.47982600  1
  H  H7  1  0.35577700  0.31046100  0.47982600  1
  C  C0  1  0.50000000  0.00000000  0.64823100  1
  C  C1  1  0.00000000  0.50000000  0.35176900  1
  O  O0  1  0.50000000  0.00000000  0.45596100  1
  O  O1  1  0.00000000  0.50000000  0.54403900  1
  O  O2  1  0.38877600  0.26338900  0.80524200  1
  O  O3  1  0.61122400  0.73661100  0.80524200  1
  O  O4  1  0.26338900  0.61122400  0.19475800  1
  O  O5  1  0.73661100  0.38877600  0.19475800  1
  O  O6  1  0.18403900  0.07007000  0.66281100  1
  O  O7  1  0.81596100  0.92993000  0.66281100  1
  O  O8  1  0.07007000  0.81596100  0.33718900  1
  O  O9  1  0.92993000  0.18403900  0.33718900  1
  O  O10  1  0.32418200  0.01114200  0.00405600  1
  O  O11  1  0.67581800  0.98885800  0.00405600  1
  O  O12  1  0.01114200  0.67581800  0.99594500  1
  O  O13  1  0.98885800  0.32418200  0.99594500  1
  O  O14  1  0.31285900  0.65251100  0.67075500  1
  O  O15  1  0.68714100  0.34748900  0.67075500  1
  O  O16  1  0.65251100  0.68714100  0.32924500  1
  O  O17  1  0.34748900  0.31285900  0.32924500  1
loop_
_geom_bond_atom_site_label_1
_geom_bond_atom_site_label_2
_geom_bond_distance
_geom_bond_site_symmetry_2
Na0 O12 2.329592 1_555
Na0 O6 2.367147 1_565
Na0 O8 2.367484 1_555
Na0 O7 2.386473 1_455
Na0 O14 2.515635 1_555
Na1 O13 2.329592 1_555
Na1 O7 2.367147 1_545
Na1 O9 2.367484 1_555
Na1 O6 2.386473 1_655
Na1 O15 2.515635 1_555
Na2 O11 2.329586 1_555
Na2 O8 2.367147 1_655
Na2 O7 2.367484 1_555
Na2 O9 2.386473 1_565
Na2 O16 2.515635 1_555
Na3 O10 2.329586 1_555
Na3 O9 2.367147 1_455
Na3 O6 2.367484 1_555
Na3 O8 2.386473 1_545
Na3 O17 2.515635 1_555
Na4 O16 2.272884 1_555
Na4 O10 2.316120 1_565
Na4 O4 2.362668 1_555
Na4 O3 2.569186 1_554
Na4 O11 2.591925 1_555
Na4 O0 2.707595 1_565
Na5 O17 2.272884 1_555
Na5 O11 2.316120 1_545
Na5 O5 2.362668 1_555
Na5 O2 2.569186 1_554
Na5 O10 2.591925 1_555
Na5 O0 2.707595 1_555
Na6 O15 2.272884 1_555
Na6 O12 2.316123 1_655
Na6 O3 2.362668 1_555
Na6 O5 2.569186 1_556
Na6 O13 2.591927 1_555
Na6 O1 2.707595 1_655
Na7 O14 2.272884 1_555
Na7 O13 2.316123 1_455
Na7 O2 2.362668 1_555
Na7 O4 2.569186 1_556
Na7 O12 2.591927 1_555
Na7 O1 2.707595 1_555
H0 O14 0.993395 1_555
H1 O15 0.993395 1_555
H2 O16 0.993395 1_555
H3 O17 0.993395 1_555
H4 O14 0.982333 1_555
H5 O15 0.982333 1_555
H6 O16 0.982333 1_555
H7 O17 0.982333 1_555
C0 O0 1.250764 1_555
C0 P1 1.885287 1_545
C0 P0 1.885287 1_555
C1 O1 1.250764 1_555
C1 P2 1.885287 1_555
C1 P3 1.885287 1_455
O2 P0 1.559101 1_555
O3 P1 1.559101 1_555
O4 P2 1.559101 1_555
O5 P3 1.559101 1_555
O6 P0 1.527051 1_555
O7 P1 1.527051 1_555
O8 P2 1.527051 1_555
O9 P3 1.527051 1_555
O10 P0 1.530926 1_554
O11 P1 1.530926 1_554
O12 P2 1.530920 1_556
O13 P3 1.530920 1_556
