# generated using pymatgen
data_La4MgRu
_symmetry_space_group_name_H-M   'P 1'
_cell_length_a   10.12753796
_cell_length_b   10.12753446
_cell_length_c   10.12754829
_cell_angle_alpha   60.00081812
_cell_angle_beta   60.00078973
_cell_angle_gamma   60.00077486
_symmetry_Int_Tables_number   1
_chemical_formula_structural   La4MgRu
_chemical_formula_sum   'La16 Mg4 Ru4'
_cell_volume   734.52190999
_cell_formula_units_Z   4
loop_
 _symmetry_equiv_pos_site_id
 _symmetry_equiv_pos_as_xyz
  1  'x, y, z'
loop_
 _atom_site_type_symbol
 _atom_site_label
 _atom_site_symmetry_multiplicity
 _atom_site_fract_x
 _atom_site_fract_y
 _atom_site_fract_z
 _atom_site_occupancy
  La  La0  1  0.80939349  0.19060373  0.19060203  1
  La  La1  1  0.19060084  0.19061058  0.80939165  1
  La  La2  1  0.80939655  0.80939831  0.19059885  1
  La  La3  1  0.19059639  0.80939586  0.80939643  1
  La  La4  1  0.59370677  0.59370640  0.21887727  1
  La  La5  1  0.43662942  0.06337375  0.06337205  1
  La  La6  1  0.06337372  0.43662910  0.06337146  1
  La  La7  1  0.43662644  0.06337535  0.43662597  1
  La  La8  1  0.21888168  0.59370509  0.59370639  1
  La  La9  1  0.06337398  0.43662734  0.43662694  1
  La  La10  1  0.59370678  0.21887610  0.59370856  1
  La  La11  1  0.59370856  0.59370758  0.59370960  1
  La  La12  1  0.19060125  0.80939158  0.19061006  1
  La  La13  1  0.80939594  0.19059960  0.80939739  1
  La  La14  1  0.06337254  0.06337215  0.43662875  1
  La  La15  1  0.43662570  0.43662640  0.06337473  1
  Mg  Mg0  1  0.82760275  0.82760046  0.82760079  1
  Mg  Mg1  1  0.51720676  0.82759511  0.82759519  1
  Mg  Mg2  1  0.82759438  0.51720923  0.82759355  1
  Mg  Mg3  1  0.82759514  0.82759403  0.51720830  1
  Ru  Ru0  1  0.84109232  0.38630622  0.38630613  1
  Ru  Ru1  1  0.38630442  0.38630167  0.38630266  1
  Ru  Ru2  1  0.38631068  0.84108891  0.38630520  1
  Ru  Ru3  1  0.38630750  0.38630545  0.84109205  1
loop_
_geom_bond_atom_site_label_1
_geom_bond_atom_site_label_2
_geom_bond_distance
_geom_bond_site_symmetry_2
La0 Mg2 3.501808 1_554
La0 Mg3 3.501817 1_545
La0 La4 3.625732 1_555
La0 La10 3.625761 1_555
La0 Ru1 3.627660 1_555
La0 Ru0 3.627725 1_555
La0 La7 3.790564 1_555
La0 La15 3.790565 1_555
La0 La6 3.790618 1_655
La0 La14 3.790618 1_655
La0 La2 3.860672 1_545
La0 La13 3.860677 1_554
La0 La1 3.860755 1_654
La0 La12 3.860763 1_645
La1 Mg2 3.501761 1_455
La1 Mg1 3.501844 1_545
La1 La8 3.625681 1_555
La1 La10 3.625729 1_555
La1 Ru1 3.627655 1_555
La1 Ru3 3.627690 1_555
La1 La9 3.790541 1_555
La1 La6 3.790569 1_556
La1 La7 3.790589 1_555
La1 La5 3.790628 1_556
La1 La13 3.860694 1_455
La1 La3 3.860764 1_545
La1 La12 3.860856 1_546
La2 Mg0 3.501642 1_554
La2 Mg3 3.501753 1_555
La2 La4 3.625710 1_555
La2 Ru2 3.627620 1_555
La2 Ru0 3.627662 1_555
La2 La5 3.790558 1_565
La2 La6 3.790577 1_655
La2 La7 3.790633 1_565
La2 La9 3.790645 1_655
La2 La3 3.860677 1_654
La3 Mg0 3.501591 1_455
La3 Mg1 3.501780 1_555
La3 La8 3.625667 1_555
La3 Ru3 3.627646 1_555
La3 Ru2 3.627665 1_555
La3 La6 3.790534 1_556
La3 La7 3.790665 1_565
La4 Ru1 2.998014 1_555
La4 Ru2 2.998043 1_555
La4 Ru0 2.998075 1_555
La4 Mg1 3.709835 1_554
La4 Mg2 3.709835 1_554
La4 Mg0 3.709859 1_554
La5 Ru3 2.853401 1_554
La5 Ru2 2.853428 1_545
La5 Mg0 3.724780 1_544
La5 Mg1 3.724802 1_544
La6 Ru3 2.853412 1_554
La6 Ru0 2.853427 1_455
La6 Mg0 3.724761 1_454
La6 Mg2 3.724807 1_454
La7 Ru2 2.853317 1_545
La7 Ru1 2.853345 1_555
La7 Mg3 3.724773 1_545
La7 Mg1 3.724773 1_545
La8 Ru1 2.998018 1_555
La8 Ru3 2.998057 1_555
La8 Ru2 2.998061 1_555
La8 Mg2 3.709858 1_455
La8 Mg3 3.709861 1_455
La8 Mg0 3.709865 1_455
La9 Ru0 2.853307 1_455
La9 Ru1 2.853372 1_555
La9 Mg3 3.724750 1_455
La9 Mg2 3.724756 1_455
La10 Ru1 2.998025 1_555
La10 Ru3 2.998061 1_555
La10 Ru0 2.998082 1_555
La10 La13 3.625690 1_555
La10 Mg1 3.709821 1_545
La10 Mg3 3.709830 1_545
La10 Mg0 3.709846 1_545
La11 Ru2 2.997998 1_555
La11 Ru3 2.998004 1_555
La11 Ru0 2.998015 1_555
La11 La13 3.625768 1_555
La11 La3 3.625789 1_555
La11 La2 3.625798 1_555
La11 Mg2 3.709701 1_555
La11 Mg1 3.709713 1_555
La11 Mg3 3.709713 1_555
La12 Mg3 3.501760 1_455
La12 Mg1 3.501843 1_554
La12 La8 3.625701 1_555
La12 La4 3.625730 1_555
La12 Ru1 3.627659 1_555
La12 Ru2 3.627699 1_555
La12 La9 3.790535 1_555
La12 La14 3.790572 1_565
La12 La15 3.790582 1_555
La12 La5 3.790633 1_565
La12 La2 3.860688 1_455
La12 La3 3.860762 1_554
La13 Mg0 3.501639 1_545
La13 Mg2 3.501753 1_555
La13 Ru3 3.627632 1_555
La13 Ru0 3.627658 1_555
La13 La5 3.790548 1_556
La13 La14 3.790576 1_655
La13 La15 3.790634 1_556
La13 La9 3.790645 1_655
La13 La2 3.860680 1_546
La13 La3 3.860683 1_645
La14 Ru0 2.853415 1_455
La14 Ru2 2.853452 1_545
La14 Mg0 3.724765 1_445
La14 Mg3 3.724791 1_445
La14 La3 3.790552 1_545
La15 Ru3 2.853300 1_554
La15 Ru1 2.853364 1_555
La15 Mg1 3.724768 1_554
La15 Mg2 3.724775 1_554
La15 La3 3.790651 1_554
Mg0 Mg2 3.143577 1_555
Mg0 Mg3 3.143586 1_555
Mg0 Mg1 3.143603 1_555
Mg1 Mg2 3.143490 1_555
Mg1 Mg3 3.143502 1_555
Mg2 Mg3 3.143476 1_555
