# generated using pymatgen
data_Rb3H5Pt
_symmetry_space_group_name_H-M   'P 1'
_cell_length_a   7.73408901
_cell_length_b   7.73408901
_cell_length_c   5.95529261
_cell_angle_alpha   90.00000000
_cell_angle_beta   90.00000000
_cell_angle_gamma   90.00000000
_symmetry_Int_Tables_number   1
_chemical_formula_structural   Rb3H5Pt
_chemical_formula_sum   'Rb6 H10 Pt2'
_cell_volume   356.22257371
_cell_formula_units_Z   2
loop_
 _symmetry_equiv_pos_site_id
 _symmetry_equiv_pos_as_xyz
  1  'x, y, z'
loop_
 _atom_site_type_symbol
 _atom_site_label
 _atom_site_symmetry_multiplicity
 _atom_site_fract_x
 _atom_site_fract_y
 _atom_site_fract_z
 _atom_site_occupancy
  Rb  Rb0  1  0.50000000  0.50000000  0.00000000  1
  Rb  Rb1  1  -0.00000000  -0.00000000  0.00000000  1
  Rb  Rb2  1  0.18379130  0.68379130  0.50000000  1
  Rb  Rb3  1  0.81620870  0.31620870  0.50000000  1
  Rb  Rb4  1  0.68379130  0.81620870  0.50000000  1
  Rb  Rb5  1  0.31620870  0.18379130  0.50000000  1
  H  H0  1  0.50000000  0.50000000  0.50000000  1
  H  H1  1  -0.00000000  -0.00000000  0.50000000  1
  H  H2  1  0.60804801  0.10804801  0.80675751  1
  H  H3  1  0.39195199  0.89195199  0.80675751  1
  H  H4  1  0.10804801  0.39195199  0.80675751  1
  H  H5  1  0.89195199  0.60804801  0.80675751  1
  H  H6  1  0.39195199  0.89195199  0.19324249  1
  H  H7  1  0.60804801  0.10804801  0.19324249  1
  H  H8  1  0.89195199  0.60804801  0.19324249  1
  H  H9  1  0.10804801  0.39195199  0.19324249  1
  Pt  Pt0  1  0.50000000  -0.00000000  0.00000000  1
  Pt  Pt1  1  -0.00000000  0.50000000  0.00000000  1
loop_
_geom_bond_atom_site_label_1
_geom_bond_atom_site_label_2
_geom_bond_distance
_geom_bond_site_symmetry_2
H0 Rb3 2.828681 1_555
H0 Rb5 2.828681 1_555
H0 Rb2 2.828681 1_555
H0 Rb4 2.828681 1_555
H0 Rb0 2.977646 1_556
H0 Rb0 2.977646 1_555
H1 Rb4 2.828681 1_445
H1 Rb5 2.828681 1_555
H1 Rb3 2.828681 1_455
H1 Rb2 2.828681 1_545
H1 Rb1 2.977646 1_555
H1 Rb1 2.977646 1_556
H2 Pt0 1.649548 1_556
H2 Rb3 2.919089 1_555
H2 Rb5 2.962268 1_555
H2 Rb4 2.962268 1_545
H3 Pt0 1.649548 1_566
H3 Rb2 2.919089 1_555
H3 Rb5 2.962268 1_565
H3 Rb4 2.962268 1_555
H4 Pt1 1.649548 1_556
H4 Rb5 2.919089 1_555
H4 Rb3 2.962268 1_455
H4 Rb2 2.962268 1_555
H5 Pt1 1.649548 1_656
H5 Rb4 2.919089 1_555
H5 Rb2 2.962268 1_655
H5 Rb3 2.962268 1_555
H6 Pt0 1.649548 1_565
H6 Rb2 2.919089 1_555
H6 Rb5 2.962268 1_565
H6 Rb4 2.962268 1_555
H7 Pt0 1.649548 1_555
H7 Rb3 2.919089 1_555
H7 Rb5 2.962268 1_555
H7 Rb4 2.962268 1_545
H8 Pt1 1.649548 1_655
H8 Rb4 2.919089 1_555
H8 Rb2 2.962268 1_655
H8 Rb3 2.962268 1_555
H9 Pt1 1.649548 1_555
H9 Rb5 2.919089 1_555
H9 Rb2 2.962268 1_555
H9 Rb3 2.962268 1_455
