# generated using pymatgen
data_Ca5(InSb3)2
_symmetry_space_group_name_H-M   'P 1'
_cell_length_a   4.59407225
_cell_length_b   12.18399492
_cell_length_c   14.33104047
_cell_angle_alpha   90.00000000
_cell_angle_beta   90.00000000
_cell_angle_gamma   90.00000000
_symmetry_Int_Tables_number   1
_chemical_formula_structural   Ca5(InSb3)2
_chemical_formula_sum   'Ca10 In4 Sb12'
_cell_volume   802.16785129
_cell_formula_units_Z   2
loop_
 _symmetry_equiv_pos_site_id
 _symmetry_equiv_pos_as_xyz
  1  'x, y, z'
loop_
 _atom_site_type_symbol
 _atom_site_label
 _atom_site_symmetry_multiplicity
 _atom_site_fract_x
 _atom_site_fract_y
 _atom_site_fract_z
 _atom_site_occupancy
  Ca  Ca0  1  -0.00000000  0.67758093  0.98607750  1
  Ca  Ca1  1  0.00000000  0.82241907  0.48607750  1
  Ca  Ca2  1  -0.00000000  0.40920732  0.74800690  1
  Ca  Ca3  1  -0.00000000  0.90920732  0.75199310  1
  Ca  Ca4  1  0.00000000  0.59079268  0.25199310  1
  Ca  Ca5  1  -0.00000000  0.17758093  0.51392250  1
  Ca  Ca6  1  -0.00000000  0.09079268  0.24800690  1
  Ca  Ca7  1  -0.00000000  -0.00000000  -0.00000000  1
  Ca  Ca8  1  0.00000000  0.32241907  0.01392250  1
  Ca  Ca9  1  -0.00000000  0.50000000  0.50000000  1
  In  In0  1  0.50000000  0.66349990  0.78666113  1
  In  In1  1  0.50000000  0.16349990  0.71333887  1
  In  In2  1  0.50000000  0.83650010  0.28666113  1
  In  In3  1  0.50000000  0.33650010  0.21333887  1
  Sb  Sb0  1  0.50000000  0.96358446  0.59544655  1
  Sb  Sb1  1  0.50000000  0.84916851  0.90648773  1
  Sb  Sb2  1  0.00000000  0.66190953  0.67120936  1
  Sb  Sb3  1  0.50000000  0.46358446  0.90455345  1
  Sb  Sb4  1  0.50000000  0.65083149  0.40648773  1
  Sb  Sb5  1  0.50000000  0.15083149  0.09351227  1
  Sb  Sb6  1  0.50000000  0.03641554  0.40455345  1
  Sb  Sb7  1  -0.00000000  0.16190953  0.82879064  1
  Sb  Sb8  1  -0.00000000  0.83809047  0.17120936  1
  Sb  Sb9  1  0.50000000  0.53641554  0.09544655  1
  Sb  Sb10  1  0.50000000  0.34916851  0.59351227  1
  Sb  Sb11  1  -0.00000000  0.33809047  0.32879064  1
loop_
_geom_bond_atom_site_label_1
_geom_bond_atom_site_label_2
_geom_bond_distance
_geom_bond_site_symmetry_2
Ca0 Sb9 3.269753 1_456
Ca0 Sb9 3.269753 1_556
Ca0 Sb8 3.296008 1_556
Ca0 Sb1 3.308784 1_455
Ca0 Sb1 3.308784 1_555
Ca0 Sb3 3.665997 1_455
Ca0 Sb3 3.665997 1_555
Ca0 In0 3.670570 1_555
Ca0 In0 3.670570 1_455
Ca1 Sb0 3.269753 1_455
Ca1 Sb0 3.269753 1_555
Ca1 Sb2 3.296008 1_555
Ca1 Sb4 3.308784 1_455
Ca1 Sb4 3.308784 1_555
Ca1 Sb6 3.665997 1_565
Ca1 Sb6 3.665997 1_465
Ca1 In2 3.670570 1_455
Ca1 In2 3.670570 1_555
Ca2 Sb7 3.227836 1_555
Ca2 Sb2 3.269718 1_555
Ca2 Sb10 3.273162 1_455
Ca2 Sb10 3.273162 1_555
Ca2 Sb3 3.278491 1_455
Ca2 Sb3 3.278491 1_555
Ca3 Sb2 3.227836 1_555
Ca3 Sb7 3.269718 1_565
Ca3 Sb1 3.273162 1_555
Ca3 Sb1 3.273162 1_455
Ca3 Sb0 3.278491 1_555
Ca3 Sb0 3.278491 1_455
Ca4 Sb8 3.227836 1_555
Ca4 Sb11 3.269718 1_555
Ca4 Sb4 3.273162 1_455
Ca4 Sb4 3.273162 1_555
Ca4 Sb9 3.278491 1_455
Ca4 Sb9 3.278491 1_555
Ca5 Sb6 3.269753 1_455
Ca5 Sb6 3.269753 1_555
Ca5 Sb11 3.296008 1_555
Ca5 Sb10 3.308784 1_455
Ca5 Sb10 3.308784 1_555
Ca5 Sb0 3.665997 1_545
Ca5 Sb0 3.665997 1_445
Ca5 In1 3.670570 1_555
Ca5 In1 3.670570 1_455
Ca6 Sb11 3.227836 1_555
Ca6 Sb8 3.269718 1_545
Ca6 Sb5 3.273162 1_455
Ca6 Sb5 3.273162 1_555
Ca6 Sb6 3.278491 1_455
Ca6 Sb6 3.278491 1_555
Ca7 Sb8 3.148294 1_545
Ca7 Sb7 3.148294 1_554
Ca7 Sb1 3.232580 1_544
Ca7 Sb1 3.232580 1_444
Ca7 Sb5 3.232580 1_455
Ca7 Sb5 3.232580 1_555
Ca8 Sb3 3.269753 1_554
Ca8 Sb3 3.269753 1_454
Ca8 Sb7 3.296008 1_554
Ca8 Sb5 3.308784 1_455
Ca8 Sb5 3.308784 1_555
Ca8 Sb9 3.665997 1_555
Ca8 Sb9 3.665997 1_455
Ca8 In3 3.670570 1_455
Ca8 In3 3.670570 1_555
Ca9 Sb11 3.148294 1_555
Ca9 Sb2 3.148294 1_555
Ca9 Sb10 3.232580 1_455
Ca9 Sb4 3.232580 1_455
Ca9 Sb10 3.232580 1_555
Ca9 Sb4 3.232580 1_555
In0 Sb2 2.830948 1_555
In0 Sb2 2.830948 1_655
In0 Sb1 2.840140 1_555
In0 Sb3 2.964363 1_555
In1 Sb7 2.830948 1_655
In1 Sb7 2.830948 1_555
In1 Sb10 2.840140 1_555
In1 Sb0 2.964363 1_545
In2 Sb8 2.830948 1_555
In2 Sb8 2.830948 1_655
In2 Sb4 2.840140 1_555
In2 Sb6 2.964363 1_565
In3 Sb11 2.830948 1_555
In3 Sb11 2.830948 1_655
In3 Sb5 2.840140 1_555
In3 Sb9 2.964363 1_555
Sb0 Sb6 2.876016 1_565
Sb3 Sb9 2.876016 1_556
