# generated using pymatgen
data_In2Cu2O5
_symmetry_space_group_name_H-M   'P 1'
_cell_length_a   3.32945700
_cell_length_b   10.71817748
_cell_length_c   13.55581918
_cell_angle_alpha   113.14013240
_cell_angle_beta   90.00000000
_cell_angle_gamma   90.00000000
_symmetry_Int_Tables_number   1
_chemical_formula_structural   In2Cu2O5
_chemical_formula_sum   'In8 Cu8 O20'
_cell_volume   444.82972402
_cell_formula_units_Z   4
loop_
 _symmetry_equiv_pos_site_id
 _symmetry_equiv_pos_as_xyz
  1  'x, y, z'
loop_
 _atom_site_type_symbol
 _atom_site_label
 _atom_site_symmetry_multiplicity
 _atom_site_fract_x
 _atom_site_fract_y
 _atom_site_fract_z
 _atom_site_occupancy
  In  In0  1  0.56226700  0.50511800  0.33453700  1
  In  In1  1  0.63448500  0.00609200  0.33501800  1
  In  In2  1  0.56226700  0.49488200  0.66546300  1
  In  In3  1  0.14366200  0.67081700  0.16445900  1
  In  In4  1  0.05641400  0.17055500  0.16511400  1
  In  In5  1  0.14366200  0.32918300  0.83554100  1
  In  In6  1  0.63448500  0.99390800  0.66498200  1
  In  In7  1  0.05641400  0.82944500  0.83488600  1
  Cu  Cu0  1  0.69444700  0.60493700  0.94562400  1
  Cu  Cu1  1  0.69444700  0.39506300  0.05437600  1
  Cu  Cu2  1  0.01879300  0.34237400  0.44742300  1
  Cu  Cu3  1  0.18973300  0.16018500  0.55330200  1
  Cu  Cu4  1  0.18973300  0.83981500  0.44669800  1
  Cu  Cu5  1  0.50706700  0.10734300  0.94696400  1
  Cu  Cu6  1  0.01879300  0.65762600  0.55257700  1
  Cu  Cu7  1  0.50706700  0.89265700  0.05303600  1
  O  O0  1  0.16337100  0.00000000  0.00000000  1
  O  O1  1  0.06604600  0.35228000  0.59641600  1
  O  O2  1  0.56849500  0.04918400  0.19222500  1
  O  O3  1  0.13245800  0.14813500  0.40304500  1
  O  O4  1  0.63118900  0.55088900  0.19324000  1
  O  O5  1  0.64966100  0.25568700  0.90498900  1
  O  O6  1  0.64966100  0.74431300  0.09501100  1
  O  O7  1  0.63118900  0.44911100  0.80676000  1
  O  O8  1  0.55104200  0.24660700  0.09740200  1
  O  O9  1  0.04581900  0.50000000  0.00000000  1
  O  O10  1  0.13589400  0.14247900  0.69346500  1
  O  O11  1  0.13589400  0.85752100  0.30653500  1
  O  O12  1  0.65046500  0.50000000  0.50000000  1
  O  O13  1  0.54046000  0.00000000  0.50000000  1
  O  O14  1  0.06118800  0.64239000  0.69282700  1
  O  O15  1  0.55104200  0.75339300  0.90259800  1
  O  O16  1  0.06118800  0.35761000  0.30717300  1
  O  O17  1  0.06604600  0.64772000  0.40358400  1
  O  O18  1  0.56849500  0.95081600  0.80777500  1
  O  O19  1  0.13245800  0.85186500  0.59695500  1
loop_
_geom_bond_atom_site_label_1
_geom_bond_atom_site_label_2
_geom_bond_distance
_geom_bond_site_symmetry_2
In0 O4 2.168089 1_555
In0 O17 2.194852 1_555
In0 O17 2.213856 1_655
In0 O16 2.221631 1_655
In0 O16 2.227009 1_555
In0 O12 2.284061 1_555
In1 O2 2.170509 1_555
In1 O3 2.194007 1_655
In1 O3 2.204225 1_555
In1 O11 2.226506 1_545
In1 O11 2.233510 1_645
In1 O13 2.284474 1_555
In2 O7 2.168089 1_555
In2 O1 2.194852 1_555
In2 O1 2.213856 1_655
In2 O14 2.221631 1_655
In2 O14 2.227009 1_555
In2 O12 2.284061 1_555
In3 O11 2.164560 1_555
In3 O6 2.189728 1_455
In3 O4 2.198508 1_555
In3 O6 2.219890 1_555
In3 O4 2.260524 1_455
In3 O9 2.284780 1_555
In4 O16 2.166508 1_555
In4 O8 2.192517 1_555
In4 O2 2.200482 1_455
In4 O8 2.219512 1_455
In4 O2 2.260523 1_555
In4 O0 2.294007 1_555
In5 O10 2.164560 1_555
In5 O5 2.189728 1_455
In5 O7 2.198508 1_555
In5 O5 2.219890 1_555
In5 O7 2.260524 1_455
In5 O9 2.284780 1_556
In6 O18 2.170509 1_555
In6 O19 2.194007 1_655
In6 O19 2.204225 1_555
In6 O10 2.226506 1_565
In6 O10 2.233510 1_665
In6 O13 2.284474 1_565
In7 O14 2.166508 1_555
In7 O15 2.192517 1_555
In7 O18 2.200482 1_455
In7 O15 2.219512 1_455
In7 O18 2.260523 1_555
In7 O0 2.294007 1_566
Cu0 O9 1.956675 1_656
Cu0 O15 1.956890 1_555
Cu0 O7 1.976432 1_555
Cu0 O6 1.994258 1_556
Cu1 O9 1.956675 1_655
Cu1 O8 1.956890 1_555
Cu1 O4 1.976432 1_555
Cu1 O5 1.994258 1_554
Cu2 O3 1.963420 1_555
Cu2 O16 1.976154 1_555
Cu2 O12 1.979838 1_455
Cu2 O1 1.986645 1_555
Cu2 O12 2.615149 1_555
Cu3 O1 1.950514 1_555
Cu3 O13 1.964274 1_555
Cu3 O10 1.990387 1_555
Cu3 O3 1.998767 1_555
Cu4 O17 1.950514 1_555
Cu4 O13 1.964274 1_565
Cu4 O11 1.990387 1_555
Cu4 O19 1.998767 1_555
Cu5 O5 1.946345 1_555
Cu5 O0 1.949403 1_556
Cu5 O18 1.982067 1_545
Cu5 O8 2.003942 1_556
Cu6 O19 1.963420 1_555
Cu6 O14 1.976154 1_555
Cu6 O12 1.979838 1_455
Cu6 O17 1.986645 1_555
Cu6 O12 2.615149 1_555
Cu7 O6 1.946345 1_555
Cu7 O0 1.949403 1_565
Cu7 O2 1.982067 1_565
Cu7 O15 2.003942 1_554
