# generated using pymatgen
data_Tl2GePbS4
_symmetry_space_group_name_H-M   'P 1'
_cell_length_a   9.24236700
_cell_length_b   9.05353400
_cell_length_c   10.66282604
_cell_angle_alpha   85.81213964
_cell_angle_beta   90.00000000
_cell_angle_gamma   90.00000000
_symmetry_Int_Tables_number   1
_chemical_formula_structural   Tl2GePbS4
_chemical_formula_sum   'Tl8 Ge4 Pb4 S16'
_cell_volume   889.84126461
_cell_formula_units_Z   4
loop_
 _symmetry_equiv_pos_site_id
 _symmetry_equiv_pos_as_xyz
  1  'x, y, z'
loop_
 _atom_site_type_symbol
 _atom_site_label
 _atom_site_symmetry_multiplicity
 _atom_site_fract_x
 _atom_site_fract_y
 _atom_site_fract_z
 _atom_site_occupancy
  Tl  Tl0  1  0.69240100  0.55943600  0.94672300  1
  Tl  Tl1  1  0.80759900  0.05943600  0.94672300  1
  Tl  Tl2  1  0.30759900  0.44056400  0.05327700  1
  Tl  Tl3  1  0.60805300  0.09946500  0.22877800  1
  Tl  Tl4  1  0.10805300  0.40053500  0.77122200  1
  Tl  Tl5  1  0.39194700  0.90053500  0.77122200  1
  Tl  Tl6  1  0.19240100  0.94056400  0.05327700  1
  Tl  Tl7  1  0.89194700  0.59946500  0.22877800  1
  Ge  Ge0  1  0.47343400  0.70782200  0.26085500  1
  Ge  Ge1  1  0.02656600  0.20782200  0.26085500  1
  Ge  Ge2  1  0.52656600  0.29217800  0.73914500  1
  Ge  Ge3  1  0.97343400  0.79217800  0.73914500  1
  Pb  Pb0  1  0.30627800  0.39807100  0.44616900  1
  Pb  Pb1  1  0.80627800  0.10192900  0.55383100  1
  Pb  Pb2  1  0.19372200  0.89807100  0.44616900  1
  Pb  Pb3  1  0.69372200  0.60192900  0.55383100  1
  S  S0  1  0.06086400  0.02252900  0.70567700  1
  S  S1  1  0.96491900  0.32299000  0.07947800  1
  S  S2  1  0.43913600  0.52252900  0.70567700  1
  S  S3  1  0.22846800  0.68359700  0.26614700  1
  S  S4  1  0.53122900  0.83959100  0.42385700  1
  S  S5  1  0.03508100  0.67701000  0.92052200  1
  S  S6  1  0.46877100  0.16040900  0.57614300  1
  S  S7  1  0.46491900  0.17701000  0.92052200  1
  S  S8  1  0.93913600  0.97747100  0.29432300  1
  S  S9  1  0.72846800  0.81640300  0.73385300  1
  S  S10  1  0.27153200  0.18359700  0.26614700  1
  S  S11  1  0.77153200  0.31640300  0.73385300  1
  S  S12  1  0.03122900  0.66040900  0.57614300  1
  S  S13  1  0.53508100  0.82299000  0.07947800  1
  S  S14  1  0.56086400  0.47747100  0.29432300  1
  S  S15  1  0.96877100  0.33959100  0.42385700  1
loop_
_geom_bond_atom_site_label_1
_geom_bond_atom_site_label_2
_geom_bond_distance
_geom_bond_site_symmetry_2
Ge0 S13 2.203998 1_555
Ge0 S14 2.240733 1_555
Ge0 S4 2.243260 1_555
Ge0 S3 2.274966 1_555
Ge1 S1 2.203998 1_455
Ge1 S8 2.240733 1_445
Ge1 S15 2.243260 1_455
Ge1 S10 2.274966 1_555
Ge2 S7 2.203998 1_555
Ge2 S2 2.240733 1_555
Ge2 S6 2.243260 1_555
Ge2 S11 2.274966 1_555
Ge3 S5 2.203998 1_655
Ge3 S0 2.240733 1_665
Ge3 S12 2.243260 1_655
Ge3 S9 2.274966 1_555
Pb0 S10 2.846496 1_555
Pb0 S6 2.893156 1_555
Pb0 S14 2.916293 1_555
Pb0 S15 3.175806 1_455
Pb0 S3 3.187384 1_555
Pb1 S11 2.846496 1_555
Pb1 S15 2.893156 1_555
Pb1 S0 2.916293 1_655
Pb1 S6 3.175806 1_555
Pb1 S9 3.187384 1_545
Pb2 S3 2.846496 1_555
Pb2 S12 2.893156 1_555
Pb2 S8 2.916293 1_455
Pb2 S4 3.175806 1_555
Pb2 S10 3.187384 1_565
Pb3 S9 2.846496 1_555
Pb3 S4 2.893156 1_555
Pb3 S2 2.916293 1_555
Pb3 S12 3.175806 1_655
Pb3 S11 3.187384 1_555
S1 Tl7 3.136332 1_555
S1 Tl1 3.210089 1_554
S3 Tl6 3.147103 1_555
S3 Tl7 3.233718 1_455
S4 Tl3 3.106721 1_565
S5 Tl4 3.136332 1_555
S5 Tl6 3.210089 1_556
S6 Tl5 3.106721 1_545
S7 Tl5 3.136332 1_545
S7 Tl2 3.210089 1_556
S9 Tl0 3.147103 1_555
S9 Tl5 3.233718 1_555
S10 Tl2 3.147103 1_555
S10 Tl3 3.233718 1_555
S11 Tl1 3.147103 1_555
S11 Tl4 3.233718 1_655
S12 Tl4 3.106721 1_555
S13 Tl3 3.136332 1_565
S13 Tl0 3.210089 1_554
S15 Tl7 3.106721 1_555
