# generated using pymatgen
data_H5IO6
_symmetry_space_group_name_H-M   'P 1'
_cell_length_a   18.32211100
_cell_length_b   4.94318100
_cell_length_c   5.46381521
_cell_angle_alpha   68.05195069
_cell_angle_beta   90.00000000
_cell_angle_gamma   90.00000000
_symmetry_Int_Tables_number   1
_chemical_formula_structural   H5IO6
_chemical_formula_sum   'H20 I4 O24'
_cell_volume   458.98952626
_cell_formula_units_Z   4
loop_
 _symmetry_equiv_pos_site_id
 _symmetry_equiv_pos_as_xyz
  1  'x, y, z'
loop_
 _atom_site_type_symbol
 _atom_site_label
 _atom_site_symmetry_multiplicity
 _atom_site_fract_x
 _atom_site_fract_y
 _atom_site_fract_z
 _atom_site_occupancy
  H  H0  1  0.49174500  0.40955600  0.89249000  1
  H  H1  1  0.94336500  0.12997100  0.51531000  1
  H  H2  1  0.44336500  0.87002900  0.48469000  1
  H  H3  1  0.99174500  0.59044400  0.10751000  1
  H  H4  1  0.52772300  0.08060500  0.62555100  1
  H  H5  1  0.02772300  0.91939500  0.37444900  1
  H  H6  1  0.52383700  0.82360200  0.14754700  1
  H  H7  1  0.02383700  0.17639800  0.85245300  1
  H  H8  1  0.73908400  0.96060600  0.03168600  1
  H  H9  1  0.76015800  0.45818000  0.52494800  1
  H  H10  1  0.26015800  0.54182000  0.47505200  1
  H  H11  1  0.23908400  0.03939400  0.96831400  1
  H  H12  1  0.63456800  0.21863800  0.37820500  1
  H  H13  1  0.86897000  0.71586600  0.87471200  1
  H  H14  1  0.36897000  0.28413400  0.12528800  1
  H  H15  1  0.13456800  0.78136200  0.62179500  1
  H  H16  1  0.68657200  0.66725600  0.78906900  1
  H  H17  1  0.81070100  0.15472900  0.29760900  1
  H  H18  1  0.31070100  0.84527100  0.70239100  1
  H  H19  1  0.18657200  0.33274400  0.21093100  1
  I  I0  1  0.61892800  0.20833100  0.93888500  1
  I  I1  1  0.88135000  0.69080400  0.43026000  1
  I  I2  1  0.38135000  0.30919600  0.56974000  1
  I  I3  1  0.11892800  0.79166900  0.06111500  1
  O  O0  1  0.54489700  0.47334600  0.93700500  1
  O  O1  1  0.95635700  0.98255900  0.42734100  1
  O  O2  1  0.45635700  0.01744100  0.57265900  1
  O  O3  1  0.04489700  0.52665400  0.06299500  1
  O  O4  1  0.58341500  0.14941000  0.63591800  1
  O  O5  1  0.91949700  0.68946100  0.11591400  1
  O  O6  1  0.41949700  0.31053900  0.88408600  1
  O  O7  1  0.08341500  0.85059000  0.36408200  1
  O  O8  1  0.57019500  0.88635800  0.20206700  1
  O  O9  1  0.93545300  0.37857300  0.63580800  1
  O  O10  1  0.43545300  0.62142700  0.36419200  1
  O  O11  1  0.07019500  0.11364200  0.79793300  1
  O  O12  1  0.69609200  0.94770800  0.92211100  1
  O  O13  1  0.80048200  0.44463400  0.40768000  1
  O  O14  1  0.30048200  0.55536600  0.59232000  1
  O  O15  1  0.19609200  0.05229200  0.07788900  1
  O  O16  1  0.66864400  0.26041000  0.22200900  1
  O  O17  1  0.83374800  0.75112700  0.71914100  1
  O  O18  1  0.33374800  0.24887300  0.28085900  1
  O  O19  1  0.16864400  0.73959000  0.77799100  1
  O  O20  1  0.67831800  0.52117800  0.70442900  1
  O  O21  1  0.81908700  0.01439100  0.20762500  1
  O  O22  1  0.31908700  0.98560900  0.79237500  1
  O  O23  1  0.17831800  0.47882200  0.29557100  1
loop_
_geom_bond_atom_site_label_1
_geom_bond_atom_site_label_2
_geom_bond_distance
_geom_bond_site_symmetry_2
H0 O0 1.079034 1_555
H0 O6 1.418011 1_555
H1 O1 1.039461 1_545
H1 O9 1.602948 1_555
H2 O2 1.039461 1_565
H2 O10 1.602948 1_555
H3 O3 1.079034 1_655
H3 O5 1.418011 1_555
H4 O4 1.083741 1_555
H4 O2 1.399361 1_555
H5 O7 1.083741 1_555
H5 O1 1.399361 1_455
H6 O8 0.987668 1_555
H7 O11 0.987668 1_555
H8 O12 1.005741 1_554
H9 O13 0.996467 1_555
H10 O14 0.996467 1_555
H11 O15 1.005741 1_556
H12 O16 1.014420 1_555
H12 O4 1.618035 1_555
H13 O17 1.028889 1_555
H13 O5 1.575531 1_556
H14 O18 1.028889 1_555
H14 O6 1.575531 1_554
H15 O19 1.014420 1_555
H15 O7 1.618035 1_555
H16 O20 1.003882 1_555
H17 O21 1.000768 1_555
H18 O22 1.000768 1_555
H19 O23 1.003882 1_555
I0 O0 1.883089 1_555
I0 O16 1.893865 1_556
I0 O4 1.899689 1_555
I0 O8 1.920234 1_546
I0 O20 1.932804 1_555
I0 O12 1.937846 1_545
I1 O9 1.824915 1_555
I1 O5 1.856604 1_555
I1 O17 1.921652 1_555
I1 O13 1.950270 1_555
I1 O21 1.971083 1_565
I1 O1 1.987878 1_555
I2 O10 1.824915 1_555
I2 O6 1.856604 1_555
I2 O18 1.921652 1_555
I2 O14 1.950270 1_555
I2 O22 1.971083 1_545
I2 O2 1.987878 1_555
I3 O3 1.883089 1_555
I3 O19 1.893865 1_554
I3 O7 1.899689 1_555
I3 O11 1.920234 1_564
I3 O23 1.932804 1_555
I3 O15 1.937846 1_565
