# generated using pymatgen
data_K2HS2NO6
_symmetry_space_group_name_H-M   'P 1'
_cell_length_a   7.40328940
_cell_length_b   7.40328940
_cell_length_c   7.32874595
_cell_angle_alpha   88.94636649
_cell_angle_beta   88.94636649
_cell_angle_gamma   61.56636830
_symmetry_Int_Tables_number   1
_chemical_formula_structural   K2HS2NO6
_chemical_formula_sum   'K4 H2 S4 N2 O12'
_cell_volume   353.14323046
_cell_formula_units_Z   2
loop_
 _symmetry_equiv_pos_site_id
 _symmetry_equiv_pos_as_xyz
  1  'x, y, z'
loop_
 _atom_site_type_symbol
 _atom_site_label
 _atom_site_symmetry_multiplicity
 _atom_site_fract_x
 _atom_site_fract_y
 _atom_site_fract_z
 _atom_site_occupancy
  K  K0  1  0.70200800  0.99260500  0.85720400  1
  K  K1  1  0.00351400  0.29913100  0.64527400  1
  K  K2  1  0.99260500  0.70200800  0.35720400  1
  K  K3  1  0.29913100  0.00351400  0.14527400  1
  H  H0  1  0.50602800  0.44317300  0.67690100  1
  H  H1  1  0.44317300  0.50602800  0.17690100  1
  S  S0  1  0.22313400  0.57621600  0.85871700  1
  S  S1  1  0.42170100  0.78063100  0.63695400  1
  S  S2  1  0.57621600  0.22313400  0.35871700  1
  S  S3  1  0.78063100  0.42170100  0.13695400  1
  N  N0  1  0.42826100  0.57476200  0.75206700  1
  N  N1  1  0.57476200  0.42826100  0.25206700  1
  O  O0  1  0.83368000  0.28199900  0.98162000  1
  O  O1  1  0.29998200  0.35930200  0.90664900  1
  O  O2  1  0.34543700  0.94591500  0.77209600  1
  O  O3  1  0.04839900  0.65452200  0.73296300  1
  O  O4  1  0.63708700  0.70497800  0.58562800  1
  O  O5  1  0.71054100  0.18079200  0.51742900  1
  O  O6  1  0.28199900  0.83368000  0.48162000  1
  O  O7  1  0.35930200  0.29998200  0.40664900  1
  O  O8  1  0.94591500  0.34543700  0.27209600  1
  O  O9  1  0.65452200  0.04839900  0.23296300  1
  O  O10  1  0.70497800  0.63708700  0.08562800  1
  O  O11  1  0.18079200  0.71054100  0.01742900  1
loop_
_geom_bond_atom_site_label_1
_geom_bond_atom_site_label_2
_geom_bond_distance
_geom_bond_site_symmetry_2
K0 O3 2.748757 1_655
K0 O9 2.783128 1_566
K0 O5 2.845376 1_565
K0 O2 2.900771 1_555
K0 O0 2.909498 1_565
K0 O1 2.943093 1_565
K0 O10 3.084575 1_556
K0 O4 3.145200 1_555
K1 O8 2.765571 1_455
K1 O0 2.774805 1_455
K1 O2 2.793433 1_545
K1 O5 2.874768 1_455
K1 O3 2.889381 1_555
K1 O4 2.968382 1_455
K1 O1 3.130839 1_555
K1 O7 3.137255 1_555
K1 O6 3.295277 1_545
K2 O9 2.748757 1_565
K2 O3 2.783128 1_655
K2 O11 2.845376 1_655
K2 O8 2.900771 1_555
K2 O6 2.909498 1_655
K2 O7 2.943093 1_655
K2 O4 3.084575 1_555
K2 O10 3.145200 1_555
K3 O2 2.765571 1_544
K3 O6 2.774805 1_545
K3 O8 2.793433 1_455
K3 O11 2.874768 1_545
K3 O9 2.889381 1_555
K3 O10 2.968382 1_545
K3 O7 3.130839 1_555
K3 O1 3.137255 1_554
K3 O0 3.295277 1_454
H0 N0 1.028562 1_555
H1 N1 1.028562 1_555
N0 S0 1.690654 1_555
N0 S1 1.709010 1_555
N1 S2 1.690654 1_555
N1 S3 1.709010 1_555
O0 S3 1.469673 1_556
O1 S0 1.463725 1_555
O2 S1 1.470754 1_555
O3 S0 1.472733 1_555
O4 S1 1.460494 1_555
O5 S2 1.473908 1_555
O6 S1 1.469673 1_555
O7 S2 1.463725 1_555
O8 S3 1.470754 1_555
O9 S2 1.472733 1_555
O10 S3 1.460494 1_555
O11 S0 1.473908 1_554
