# generated using pymatgen
data_Ca4SmB3O10
_symmetry_space_group_name_H-M   'P 1'
_cell_length_a   9.05494625
_cell_length_b   9.05494625
_cell_length_c   3.60416162
_cell_angle_alpha   84.91632941
_cell_angle_beta   84.91632941
_cell_angle_gamma   126.39161917
_symmetry_Int_Tables_number   1
_chemical_formula_structural   Ca4SmB3O10
_chemical_formula_sum   'Ca4 Sm1 B3 O10'
_cell_volume   233.24410758
_cell_formula_units_Z   1
loop_
 _symmetry_equiv_pos_site_id
 _symmetry_equiv_pos_as_xyz
  1  'x, y, z'
loop_
 _atom_site_type_symbol
 _atom_site_label
 _atom_site_symmetry_multiplicity
 _atom_site_fract_x
 _atom_site_fract_y
 _atom_site_fract_z
 _atom_site_occupancy
  Ca  Ca0  1  0.08448000  0.44817400  0.33818900  1
  Ca  Ca1  1  0.44817400  0.08448000  0.33818900  1
  Ca  Ca2  1  0.75555700  0.52960800  0.66972100  1
  Ca  Ca3  1  0.52960800  0.75555700  0.66972100  1
  Sm  Sm0  1  0.00076200  0.00076200  0.99741900  1
  B  B0  1  0.14635800  0.75656600  0.91594800  1
  B  B1  1  0.75656600  0.14635800  0.91594800  1
  B  B2  1  0.37763200  0.37763200  0.29589200  1
  O  O0  1  0.20395900  0.20395900  0.39106200  1
  O  O1  1  0.38872000  0.53787500  0.24842900  1
  O  O2  1  0.82597800  0.82597800  0.57758100  1
  O  O3  1  0.23388200  0.94615000  0.91374700  1
  O  O4  1  0.94615000  0.23388200  0.91374700  1
  O  O5  1  0.69823800  0.23770800  0.72571700  1
  O  O6  1  0.23770800  0.69823800  0.72571700  1
  O  O7  1  0.62383900  0.96661500  0.11323200  1
  O  O8  1  0.96661500  0.62383900  0.11323200  1
  O  O9  1  0.53787500  0.38872000  0.24842900  1
loop_
_geom_bond_atom_site_label_1
_geom_bond_atom_site_label_2
_geom_bond_distance
_geom_bond_site_symmetry_2
Ca0 O1 2.343942 1_555
Ca0 O4 2.362074 1_455
Ca0 O4 2.378205 1_454
Ca0 O6 2.485762 1_555
Ca0 O8 2.503147 1_455
Ca0 O6 2.601637 1_554
Ca1 O9 2.343942 1_555
Ca1 O3 2.362074 1_545
Ca1 O3 2.378205 1_544
Ca1 O5 2.485762 1_555
Ca1 O7 2.503147 1_545
Ca1 O5 2.601637 1_554
Ca2 O8 2.342137 1_555
Ca2 O2 2.343643 1_555
Ca2 O5 2.356982 1_555
Ca2 O9 2.383092 1_556
Ca2 O9 2.389174 1_555
Ca2 O8 2.404937 1_556
Ca3 O7 2.342137 1_555
Ca3 O2 2.343643 1_555
Ca3 O6 2.356982 1_555
Ca3 O1 2.383092 1_556
Ca3 O1 2.389174 1_555
Ca3 O7 2.404937 1_556
B0 O6 1.383945 1_555
B0 O8 1.386127 1_456
B0 O3 1.399006 1_555
B1 O5 1.383945 1_555
B1 O7 1.386127 1_546
B1 O4 1.399006 1_555
B2 O1 1.387380 1_555
B2 O9 1.387380 1_555
B2 O0 1.392140 1_555
O0 Sm0 2.385740 1_554
O0 Sm0 2.470718 1_555
O2 Sm0 2.275060 1_665
O2 Sm0 2.288386 1_664
O3 Sm0 2.437947 1_565
O4 Sm0 2.437947 1_655
