# generated using pymatgen
data_In9Ni13
_symmetry_space_group_name_H-M   'P 1'
_cell_length_a   6.67179034
_cell_length_b   6.67179034
_cell_length_c   8.99380733
_cell_angle_alpha   63.25269097
_cell_angle_beta   63.25269097
_cell_angle_gamma   77.59859254
_symmetry_Int_Tables_number   1
_chemical_formula_structural   In9Ni13
_chemical_formula_sum   'In9 Ni13'
_cell_volume   319.21291677
_cell_formula_units_Z   1
loop_
 _symmetry_equiv_pos_site_id
 _symmetry_equiv_pos_as_xyz
  1  'x, y, z'
loop_
 _atom_site_type_symbol
 _atom_site_label
 _atom_site_symmetry_multiplicity
 _atom_site_fract_x
 _atom_site_fract_y
 _atom_site_fract_z
 _atom_site_occupancy
  In  In0  1  0.25258406  0.82966230  0.19028087  1
  In  In1  1  0.17531954  0.17531954  0.38277327  1
  In  In2  1  0.28942882  0.28942882  0.66603333  1
  In  In3  1  0.82966230  0.25258406  0.19028087  1
  In  In4  1  0.71057118  0.71057118  0.33396667  1
  In  In5  1  0.50000000  0.50000000  -0.00000000  1
  In  In6  1  0.74741594  0.17033770  0.80971913  1
  In  In7  1  0.17033770  0.74741594  0.80971913  1
  In  In8  1  0.82468046  0.82468046  0.61722673  1
  Ni  Ni0  1  0.54647034  0.06316383  0.15994627  1
  Ni  Ni1  1  0.50000000  0.00000000  0.50000000  1
  Ni  Ni2  1  0.54617092  0.54617092  0.67634999  1
  Ni  Ni3  1  0.06316383  0.54647034  0.15994627  1
  Ni  Ni4  1  0.45382908  0.45382908  0.32365001  1
  Ni  Ni5  1  0.26412033  0.73587967  0.50000000  1
  Ni  Ni6  1  0.25972321  0.25972321  0.98049606  1
  Ni  Ni7  1  0.93683617  0.45352966  0.84005373  1
  Ni  Ni8  1  0.74027679  0.74027679  0.01950394  1
  Ni  Ni9  1  0.45352966  0.93683617  0.84005373  1
  Ni  Ni10  1  0.73587967  0.26412033  0.50000000  1
  Ni  Ni11  1  0.00000000  0.00000000  -0.00000000  1
  Ni  Ni12  1  0.00000000  0.50000000  0.50000000  1
loop_
_geom_bond_atom_site_label_1
_geom_bond_atom_site_label_2
_geom_bond_distance
_geom_bond_site_symmetry_2
In0 Ni5 2.600040 1_555
In0 Ni0 2.606504 1_565
In0 Ni9 2.610307 1_554
In0 Ni4 2.612528 1_555
In0 Ni6 2.626749 1_564
In0 Ni3 2.653544 1_555
In0 Ni11 2.661351 1_565
In0 Ni12 2.699763 1_555
In0 Ni8 2.965548 1_555
In1 Ni3 2.606732 1_555
In1 Ni0 2.606732 1_555
In1 Ni4 2.625363 1_555
In1 Ni1 2.651332 1_555
In1 Ni12 2.651332 1_555
In1 Ni10 2.663114 1_455
In1 Ni5 2.663114 1_545
In1 In8 2.976930 1_445
In1 Ni6 3.192588 1_554
In2 Ni9 2.510829 1_545
In2 Ni7 2.510829 1_455
In2 Ni4 2.514916 1_555
In2 Ni6 2.661799 1_555
In2 Ni5 2.671686 1_555
In2 Ni10 2.671686 1_555
In2 Ni2 2.724564 1_555
In2 Ni12 2.733918 1_555
In2 Ni1 2.733918 1_555
In2 Ni11 2.763982 1_556
In3 Ni10 2.600040 1_555
In3 Ni3 2.606504 1_655
In3 Ni7 2.610307 1_554
In3 Ni4 2.612528 1_555
In3 Ni6 2.626749 1_654
In3 Ni0 2.653544 1_555
In3 Ni11 2.661351 1_655
In3 Ni1 2.699763 1_555
In3 Ni8 2.965548 1_555
In4 Ni3 2.510829 1_655
In4 Ni0 2.510829 1_565
In4 Ni2 2.514916 1_555
In4 Ni8 2.661799 1_555
In4 Ni5 2.671686 1_555
In4 Ni10 2.671686 1_555
In4 Ni4 2.724564 1_555
In4 Ni1 2.733918 1_565
In4 Ni12 2.733918 1_655
In4 Ni11 2.763982 1_665
In5 Ni6 2.603941 1_554
In5 Ni8 2.603941 1_555
In5 Ni7 2.626639 1_554
In5 Ni9 2.626639 1_554
In5 Ni0 2.626639 1_555
In5 Ni3 2.626639 1_555
In5 Ni2 2.662586 1_554
In5 Ni4 2.662586 1_555
In6 Ni10 2.600040 1_555
In6 Ni9 2.606504 1_545
In6 Ni0 2.610307 1_556
In6 Ni2 2.612528 1_555
In6 Ni8 2.626749 1_546
In6 Ni7 2.653544 1_555
In6 Ni11 2.661351 1_656
In6 Ni12 2.699763 1_655
In6 Ni6 2.965548 1_555
In7 Ni5 2.600040 1_555
In7 Ni7 2.606504 1_455
In7 Ni3 2.610307 1_556
In7 Ni2 2.612528 1_555
In7 Ni8 2.626749 1_456
In7 Ni9 2.653544 1_555
In7 Ni11 2.661351 1_566
In7 Ni1 2.699763 1_565
In7 Ni6 2.965548 1_555
In8 Ni9 2.606732 1_555
In8 Ni7 2.606732 1_555
In8 Ni2 2.625363 1_555
In8 Ni1 2.651332 1_565
In8 Ni12 2.651332 1_655
In8 Ni5 2.663114 1_655
In8 Ni10 2.663114 1_565
In8 Ni8 3.192588 1_556
Ni0 Ni11 2.735457 1_655
Ni0 Ni1 2.769457 1_555
Ni0 Ni8 2.773234 1_545
Ni0 Ni6 2.789466 1_554
Ni0 Ni5 2.870558 1_545
Ni1 Ni10 2.602495 1_555
Ni1 Ni5 2.602495 1_545
Ni1 Ni4 2.737674 1_555
Ni1 Ni2 2.737674 1_545
Ni1 Ni9 2.769457 1_545
Ni2 Ni6 2.635336 1_555
Ni2 Ni5 2.741387 1_555
Ni3 Ni8 2.773234 1_455
Ni3 Ni6 2.789466 1_554
Ni4 Ni8 2.635336 1_555
Ni4 Ni5 2.741387 1_555
Ni5 Ni7 2.870558 1_455
Ni6 Ni9 2.773234 1_545
Ni6 Ni7 2.773234 1_455
Ni7 Ni8 2.789466 1_556
Ni8 Ni9 2.789466 1_554
Ni10 Ni12 2.602495 1_655
Ni10 Ni4 2.741387 1_555
Ni10 Ni2 2.741387 1_555
Ni10 Ni3 2.870558 1_655
Ni10 Ni9 2.870558 1_545
Ni11 Ni6 2.603573 1_554
Ni11 Ni8 2.603573 1_445
Ni11 Ni3 2.735457 1_545
Ni11 Ni7 2.735457 1_454
Ni11 Ni9 2.735457 1_544
Ni12 Ni5 2.602495 1_555
Ni12 Ni4 2.737674 1_555
Ni12 Ni2 2.737674 1_455
Ni12 Ni3 2.769457 1_555
Ni12 Ni7 2.769457 1_455
