# generated using pymatgen
data_Li3Cr13Ni3(SO4)24
_symmetry_space_group_name_H-M   'P 1'
_cell_length_a   8.29858200
_cell_length_b   8.83909046
_cell_length_c   27.72843252
_cell_angle_alpha   84.37154743
_cell_angle_beta   81.60309631
_cell_angle_gamma   62.05935088
_symmetry_Int_Tables_number   1
_chemical_formula_structural   Li3Cr13Ni3(SO4)24
_chemical_formula_sum   'Li3 Cr13 Ni3 S24 O96'
_cell_volume   1776.55969495
_cell_formula_units_Z   1
loop_
 _symmetry_equiv_pos_site_id
 _symmetry_equiv_pos_as_xyz
  1  'x, y, z'
loop_
 _atom_site_type_symbol
 _atom_site_label
 _atom_site_symmetry_multiplicity
 _atom_site_fract_x
 _atom_site_fract_y
 _atom_site_fract_z
 _atom_site_occupancy
  Li  Li0  1  0.87696500  0.68713000  0.30840000  1
  Li  Li1  1  0.12755600  0.93734200  0.55936300  1
  Li  Li2  1  0.37726300  0.18716200  0.80949000  1
  Cr  Cr0  1  0.18753100  0.58564000  0.03716400  1
  Cr  Cr1  1  0.44444500  0.02077000  0.08895800  1
  Cr  Cr2  1  0.69572800  0.27073200  0.33862900  1
  Cr  Cr3  1  0.80719400  0.22990600  0.16000700  1
  Cr  Cr4  1  0.68528200  0.08719100  0.53780900  1
  Cr  Cr5  1  0.06520200  0.66501500  0.21003500  1
  Cr  Cr6  1  0.05712200  0.47804100  0.41138200  1
  Cr  Cr7  1  0.93424600  0.33742900  0.78777900  1
  Cr  Cr8  1  0.31237500  0.91617500  0.46015100  1
  Cr  Cr9  1  0.30879400  0.72681400  0.66163100  1
  Cr  Cr10  1  0.56240700  0.16774600  0.71066300  1
  Cr  Cr11  1  0.55769400  0.97542300  0.91179700  1
  Cr  Cr12  1  0.81024000  0.41707300  0.96238800  1
  Ni  Ni0  1  0.43339400  0.83887700  0.28690500  1
  Ni  Ni1  1  0.94640300  0.51726800  0.58982900  1
  Ni  Ni2  1  0.19655300  0.76762200  0.83991900  1
  S  S0  1  0.86345900  0.86403800  0.11521300  1
  S  S1  1  0.22738600  0.93692600  0.18684200  1
  S  S2  1  0.47231500  0.75840500  0.01046700  1
  S  S3  1  0.77410000  0.49203400  0.23933200  1
  S  S4  1  0.02188700  0.31487600  0.06283800  1
  S  S5  1  0.11417200  0.11501600  0.36534300  1
  S  S6  1  0.38763200  0.38610500  0.13402200  1
  S  S7  1  0.47958900  0.18535300  0.43676800  1
  S  S8  1  0.71949700  0.01257500  0.25934400  1
  S  S9  1  0.02602800  0.74071500  0.48960000  1
  S  S10  1  0.27297100  0.56561300  0.31266500  1
  S  S11  1  0.36385400  0.36257700  0.61500500  1
  S  S12  1  0.63788200  0.63444800  0.38492500  1
  S  S13  1  0.73136900  0.43441700  0.68721800  1
  S  S14  1  0.96781100  0.26112200  0.51058000  1
  S  S15  1  0.27593100  0.99079200  0.73967400  1
  S  S16  1  0.52294100  0.81395900  0.56228100  1
  S  S17  1  0.61411600  0.61185500  0.86528200  1
  S  S18  1  0.88710300  0.88358800  0.63563500  1
  S  S19  1  0.98111300  0.68367700  0.93729900  1
  S  S20  1  0.21733700  0.51139500  0.76059900  1
  S  S21  1  0.52742400  0.24131700  0.98975000  1
  S  S22  1  0.77288100  0.06373000  0.81245700  1
  S  S23  1  0.13619200  0.13422500  0.88578700  1
  O  O0  1  0.42930400  0.20698500  0.12799500  1
  O  O1  1  0.53903000  0.10624100  0.02708400  1
  O  O2  1  0.03474500  0.78671200  0.08174900  1
  O  O3  1  0.18283500  0.15412900  0.07519700  1
  O  O4  1  0.88055700  0.76712800  0.16313800  1
  O  O5  1  0.71158200  0.85968000  0.09458700  1
  O  O6  1  0.39238600  0.92040000  0.15408100  1
  O  O7  1  0.24763100  0.94633400  0.23765500  1
  O  O8  1  0.43756800  0.82541100  0.05975900  1
  O  O9  1  0.91731400  0.54461900  0.24759600  1
  O  O10  1  0.59037700  0.63757200  0.24278800  1
  O  O11  1  0.04514500  0.46739000  0.07080200  1
  O  O12  1  0.20582500  0.78267500  0.17809000  1
  O  O13  1  0.65968700  0.61039100  0.00679500  1
  O  O14  1  0.67862400  0.45601900  0.37865500  1
  O  O15  1  0.33019700  0.70887600  0.00372800  1
  O  O16  1  0.81960600  0.42200600  0.19020400  1
  O  O17  1  0.79093800  0.35510700  0.27695800  1
  O  O18  1  0.99632900  0.30648400  0.01177600  1
  O  O19  1  0.85683600  0.33071900  0.09539300  1
  O  O20  1  0.28388100  0.04010300  0.33261500  1
  O  O21  1  0.43030500  0.40296400  0.32574600  1
  O  O22  1  0.53872700  0.38992400  0.15545300  1
  O  O23  1  0.36916400  0.48353600  0.08659400  1
  O  O24  1  0.12821900  0.01899700  0.41356300  1
  O  O25  1  0.96095300  0.11062500  0.34492100  1
  O  O26  1  0.06620700  0.09632500  0.17333200  1
  O  O27  1  0.21609900  0.46221700  0.16803600  1
  O  O28  1  0.64381800  0.16984300  0.40431700  1
  O  O29  1  0.50214600  0.19400700  0.48818300  1
  O  O30  1  0.71662300  0.14507700  0.22275000  1
  O  O31  1  0.68894400  0.07567300  0.30931600  1
  O  O32  1  0.16665000  0.79750900  0.49707700  1
  O  O33  1  0.82017000  0.04326800  0.12189900  1
  O  O34  1  0.83953700  0.89146500  0.49320200  1
  O  O35  1  0.29205800  0.71579900  0.32182900  1
  O  O36  1  0.45654300  0.03267400  0.42869100  1
  O  O37  1  0.90907100  0.85693400  0.25740200  1
  O  O38  1  0.92872600  0.70833800  0.62900200  1
  O  O39  1  0.58174500  0.96117500  0.25271400  1
  O  O40  1  0.06423100  0.67815700  0.43945500  1
  O  O41  1  0.04122900  0.60695100  0.52619900  1
  O  O42  1  0.24501700  0.55597700  0.26172700  1
  O  O43  1  0.10139900  0.57864000  0.34438600  1
  O  O44  1  0.53927900  0.28619800  0.58201000  1
  O  O45  1  0.67740300  0.65532100  0.57525400  1
  O  O46  1  0.79018900  0.63800700  0.40639800  1
  O  O47  1  0.62687900  0.73015900  0.33720100  1
  O  O48  1  0.38165400  0.26753500  0.66320600  1
  O  O49  1  0.21712100  0.35542200  0.59396000  1
  O  O50  1  0.31774700  0.34592900  0.42470100  1
  O  O51  1  0.46584100  0.71255500  0.41798500  1
  O  O52  1  0.89512300  0.41707800  0.65584000  1
  O  O53  1  0.74829100  0.44420500  0.73927600  1
  O  O54  1  0.96291400  0.39223300  0.47304100  1
  O  O55  1  0.93616700  0.32068800  0.55974100  1
  O  O56  1  0.41650200  0.04764700  0.74702900  1
  O  O57  1  0.06575700  0.29640700  0.37266300  1
  O  O58  1  0.08945600  0.14129300  0.74320100  1
  O  O59  1  0.54309600  0.96815900  0.57063600  1
  O  O60  1  0.70503400  0.28285600  0.67896600  1
  O  O61  1  0.15780700  0.10574900  0.50708600  1
  O  O62  1  0.17806100  0.95877900  0.87914100  1
  O  O63  1  0.82989400  0.20718700  0.50239400  1
  O  O64  1  0.31415600  0.92788700  0.68947000  1
  O  O65  1  0.29137600  0.85658700  0.77613200  1
  O  O66  1  0.49266200  0.80979400  0.51108500  1
  O  O67  1  0.34969800  0.83510500  0.59426900  1
  O  O68  1  0.78926200  0.53599300  0.83218500  1
  O  O69  1  0.92758000  0.90507200  0.82528300  1
  O  O70  1  0.03990900  0.89356100  0.65490200  1
  O  O71  1  0.87328000  0.98238200  0.58650700  1
  O  O72  1  0.63185300  0.51724400  0.91358200  1
  O  O73  1  0.46729200  0.60515000  0.84412100  1
  O  O74  1  0.56821400  0.59559700  0.67490600  1
  O  O75  1  0.71412800  0.96617200  0.66784400  1
  O  O76  1  0.14477900  0.66635400  0.90584700  1
  O  O77  1  0.99969300  0.69370700  0.98935300  1
  O  O78  1  0.21209000  0.64267600  0.72285300  1
  O  O79  1  0.18584200  0.57137300  0.80966800  1
  O  O80  1  0.66928900  0.29144100  0.99630000  1
  O  O81  1  0.32181900  0.54290400  0.62171800  1
  O  O82  1  0.33979200  0.38982700  0.99344600  1
  O  O83  1  0.79300900  0.21785300  0.82078800  1
  O  O84  1  0.95384300  0.53225200  0.92971200  1
  O  O85  1  0.40740700  0.35650800  0.75721500  1
  O  O86  1  0.07990300  0.45720600  0.75231600  1
  O  O87  1  0.56191000  0.17394100  0.94044800  1
  O  O88  1  0.74287300  0.05947400  0.76119400  1
  O  O89  1  0.59962900  0.08494700  0.84442800  1
  O  O90  1  0.28967100  0.14365300  0.90491400  1
  O  O91  1  0.12270100  0.23243200  0.83655900  1
  O  O92  1  0.81801500  0.84518000  0.92513800  1
  O  O93  1  0.96375500  0.21715900  0.91814500  1
  O  O94  1  0.45978300  0.89427500  0.97324700  1
  O  O95  1  0.57196400  0.79246500  0.87178100  1
loop_
_geom_bond_atom_site_label_1
_geom_bond_atom_site_label_2
_geom_bond_distance
_geom_bond_site_symmetry_2
Li0 O47 1.981254 1_555
Li0 O43 2.016303 1_655
Li0 O37 2.042493 1_555
Li0 O9 2.097123 1_555
Li1 O67 1.984996 1_555
Li1 O71 1.996328 1_455
Li1 O61 2.049567 1_565
Li1 O32 2.120165 1_555
Li2 O89 1.986977 1_555
Li2 O91 1.997456 1_555
Li2 O85 2.055150 1_555
Li2 O56 2.122344 1_555
Cr0 O82 1.994126 1_554
Cr0 O11 2.000728 1_555
Cr0 O23 2.012706 1_555
Cr0 O77 2.014847 1_454
Cr0 O15 2.034127 1_555
Cr0 O2 2.038675 1_555
Cr1 O3 2.000961 1_555
Cr1 O0 2.003153 1_555
Cr1 O8 2.005165 1_545
Cr1 O1 2.009610 1_555
Cr1 O6 2.012853 1_545
Cr1 O5 2.016356 1_545
Cr2 O17 2.003037 1_555
Cr2 O31 2.003923 1_555
Cr2 O25 2.005580 1_555
Cr2 O14 2.006717 1_555
Cr2 O21 2.020066 1_555
Cr2 O28 2.027470 1_555
Cr3 O26 1.979596 1_655
Cr3 O19 1.997256 1_555
Cr3 O33 1.997982 1_555
Cr3 O30 2.011034 1_555
Cr3 O16 2.015650 1_555
Cr3 O22 2.018455 1_555
Cr4 O59 1.997408 1_545
Cr4 O34 2.010853 1_545
Cr4 O44 2.014033 1_555
Cr4 O29 2.026306 1_555
Cr4 O71 2.032495 1_545
Cr4 O63 2.042994 1_555
Cr5 O12 1.970480 1_555
Cr5 O4 1.977179 1_455
Cr5 O27 2.004389 1_555
Cr5 O37 2.040059 1_455
Cr5 O42 2.053290 1_555
Cr5 O9 2.087246 1_455
Cr6 O57 1.985744 1_555
Cr6 O50 1.989900 1_555
Cr6 O54 2.005119 1_455
Cr6 O46 2.010281 1_455
Cr6 O40 2.029658 1_555
Cr6 O43 2.039491 1_555
Cr7 O83 1.996609 1_555
Cr7 O58 2.013770 1_655
Cr7 O68 2.014079 1_555
Cr7 O53 2.018220 1_555
Cr7 O91 2.036679 1_655
Cr7 O86 2.048608 1_655
Cr8 O24 1.968497 1_565
Cr8 O36 1.981461 1_565
Cr8 O51 2.014490 1_555
Cr8 O61 2.018143 1_565
Cr8 O66 2.038504 1_555
Cr8 O32 2.056059 1_555
Cr9 O74 1.980692 1_555
Cr9 O78 1.998172 1_555
Cr9 O81 2.008081 1_555
Cr9 O64 2.027294 1_555
Cr9 O70 2.042508 1_555
Cr9 O67 2.070962 1_555
Cr10 O60 1.964164 1_555
Cr10 O48 1.966862 1_555
Cr10 O85 2.007715 1_555
Cr10 O75 2.011373 1_545
Cr10 O88 2.031907 1_555
Cr10 O56 2.061005 1_555
Cr11 O92 1.987037 1_555
Cr11 O94 1.995009 1_555
Cr11 O95 1.998652 1_555
Cr11 O87 2.012586 1_565
Cr11 O90 2.040492 1_565
Cr11 O89 2.078217 1_565
Cr12 O84 1.979451 1_555
Cr12 O72 1.982081 1_555
Cr12 O13 1.989916 1_556
Cr12 O93 2.027228 1_555
Cr12 O18 2.038667 1_556
Cr12 O80 2.043701 1_555
Ni0 O7 2.032685 1_555
Ni0 O10 2.036896 1_555
Ni0 O35 2.038217 1_555
Ni0 O20 2.055328 1_565
Ni0 O39 2.070804 1_555
Ni0 O47 2.095648 1_555
Ni1 O52 2.030609 1_555
Ni1 O38 2.033428 1_555
Ni1 O49 2.034206 1_655
Ni1 O55 2.041040 1_555
Ni1 O45 2.061470 1_555
Ni1 O41 2.065270 1_655
Ni2 O62 2.032241 1_555
Ni2 O76 2.034144 1_555
Ni2 O73 2.035640 1_555
Ni2 O79 2.042607 1_555
Ni2 O69 2.061444 1_455
Ni2 O65 2.065550 1_555
O0 S6 1.475181 1_555
O1 S21 1.478300 1_554
O2 S0 1.475597 1_455
O3 S4 1.476472 1_555
O4 S0 1.495898 1_555
O5 S0 1.475617 1_555
O6 S1 1.482144 1_555
O7 S1 1.457920 1_555
O8 S2 1.478408 1_555
O9 S3 1.516284 1_555
O10 S3 1.460176 1_555
O11 S4 1.489303 1_555
O12 S1 1.502022 1_555
O13 S2 1.487725 1_555
O14 S12 1.472704 1_555
O15 S2 1.477083 1_555
O16 S3 1.475655 1_555
O17 S3 1.486363 1_555
O18 S4 1.475880 1_655
O19 S4 1.481374 1_655
O20 S5 1.454694 1_555
O21 S10 1.476534 1_555
O22 S6 1.479083 1_555
O23 S6 1.485825 1_555
O24 S5 1.500623 1_555
O25 S5 1.483147 1_655
O26 S1 1.480301 1_545
O27 S6 1.484373 1_555
O28 S7 1.475404 1_555
O29 S7 1.478561 1_555
O30 S8 1.466171 1_555
O31 S8 1.487221 1_555
O32 S9 1.515539 1_555
O33 S0 1.475819 1_545
O34 S9 1.493009 1_655
O35 S10 1.458391 1_555
O36 S7 1.490526 1_555
O37 S8 1.527112 1_565
O38 S18 1.445204 1_555
O39 S8 1.453087 1_565
O40 S9 1.482359 1_555
O41 S9 1.451210 1_555
O42 S10 1.481161 1_555
O43 S10 1.521381 1_555
O44 S11 1.491063 1_555
O45 S16 1.445695 1_555
O46 S12 1.487870 1_555
O47 S12 1.489465 1_555
O48 S11 1.495000 1_555
O49 S11 1.454027 1_555
O50 S7 1.477163 1_555
O51 S12 1.474286 1_555
O52 S13 1.453563 1_555
O53 S13 1.485242 1_555
O54 S14 1.469617 1_555
O55 S14 1.452941 1_555
O56 S15 1.514570 1_545
O57 S5 1.486486 1_555
O58 S15 1.492015 1_545
O59 S16 1.492070 1_555
O60 S13 1.497967 1_555
O61 S14 1.527665 1_455
O62 S23 1.446385 1_565
O63 S14 1.482273 1_555
O64 S15 1.485005 1_555
O65 S15 1.451108 1_555
O66 S16 1.484188 1_555
O67 S16 1.515531 1_555
O68 S17 1.490713 1_555
O69 S22 1.445562 1_565
O70 S18 1.487631 1_455
O71 S18 1.532923 1_555
O72 S17 1.495737 1_555
O73 S17 1.454534 1_555
O74 S13 1.487081 1_555
O75 S18 1.470551 1_555
O76 S19 1.453990 1_455
O77 S19 1.489254 1_555
O78 S20 1.473639 1_555
O79 S20 1.452034 1_555
O80 S21 1.477257 1_555
O81 S11 1.488329 1_555
O82 S21 1.490811 1_555
O83 S22 1.491102 1_555
O84 S19 1.496639 1_555
O85 S20 1.526231 1_555
O86 S20 1.480858 1_555
O87 S21 1.480258 1_555
O88 S22 1.485455 1_555
O89 S22 1.515210 1_555
O90 S23 1.488574 1_555
O91 S23 1.533122 1_555
O92 S19 1.487185 1_555
O93 S23 1.470077 1_655
O94 S2 1.479678 1_556
O95 S17 1.489337 1_555
