# generated using pymatgen
data_LiY2Ti2S2O5
_symmetry_space_group_name_H-M   'P 1'
_cell_length_a   11.50295713
_cell_length_b   11.50295713
_cell_length_c   11.50295713
_cell_angle_alpha   160.68567777
_cell_angle_beta   160.17035018
_cell_angle_gamma   27.81932081
_symmetry_Int_Tables_number   1
_chemical_formula_structural   LiY2Ti2S2O5
_chemical_formula_sum   'Li1 Y2 Ti2 S2 O5'
_cell_volume   170.69630430
_cell_formula_units_Z   1
loop_
 _symmetry_equiv_pos_site_id
 _symmetry_equiv_pos_as_xyz
  1  'x, y, z'
loop_
 _atom_site_type_symbol
 _atom_site_label
 _atom_site_symmetry_multiplicity
 _atom_site_fract_x
 _atom_site_fract_y
 _atom_site_fract_z
 _atom_site_occupancy
  Li  Li0  1  0.50000000  0.00000000  0.50000000  1
  Y  Y0  1  0.66510100  0.66510100  0.00000000  1
  Y  Y1  1  0.33489900  0.33489900  0.00000000  1
  Ti  Ti0  1  0.91485300  0.91485300  0.00000000  1
  Ti  Ti1  1  0.08514700  0.08514700  0.00000000  1
  S  S0  1  0.79528100  0.79528100  0.00000000  1
  S  S1  1  0.20471900  0.20471900  0.00000000  1
  O  O0  1  0.89749500  0.39749500  0.50000000  1
  O  O1  1  0.10250500  0.60250500  0.50000000  1
  O  O2  1  0.40666800  0.90666800  0.50000000  1
  O  O3  1  0.59333200  0.09333200  0.50000000  1
  O  O4  1  0.00000000  0.00000000  0.00000000  1
loop_
_geom_bond_atom_site_label_1
_geom_bond_atom_site_label_2
_geom_bond_distance
_geom_bond_site_symmetry_2
Li0 O4 1.980625 1_656
Li0 O4 1.980625 1_555
Li0 O3 2.084224 1_555
Li0 O2 2.084224 1_545
S0 Ti0 2.670197 1_555
S0 Y1 2.903299 1_666
S0 Y1 2.903299 1_655
S0 Y1 2.903299 1_554
S0 Y1 2.903299 1_565
S0 Y0 2.907087 1_555
S1 Ti1 2.670197 1_555
S1 Y0 2.903299 1_444
S1 Y0 2.903299 1_556
S1 Y0 2.903299 1_545
S1 Y0 2.903299 1_455
S1 Y1 2.907087 1_555
O0 Ti0 1.968196 1_556
O0 Ti0 1.968196 1_545
O0 Y1 2.424223 1_555
O0 Y1 2.424223 1_656
O1 Ti1 1.968196 1_555
O1 Ti1 1.968196 1_566
O1 Y0 2.424223 1_455
O1 Y0 2.424223 1_556
O2 Ti0 1.989041 1_556
O2 Ti0 1.989041 1_455
O2 Y1 2.508420 1_555
O2 Y1 2.508420 1_566
O3 Ti1 1.989041 1_555
O3 Ti1 1.989041 1_656
O3 Y0 2.508420 1_545
O3 Y0 2.508420 1_556
O4 Ti1 1.901442 1_555
O4 Ti0 1.901442 1_445
