# generated using pymatgen
data_KAu(CN)2
_symmetry_space_group_name_H-M   'P 1'
_cell_length_a   9.64060804
_cell_length_b   9.64060804
_cell_length_c   9.64060735
_cell_angle_alpha   46.30765866
_cell_angle_beta   46.30765866
_cell_angle_gamma   46.30766090
_symmetry_Int_Tables_number   1
_chemical_formula_structural   KAu(CN)2
_chemical_formula_sum   'K3 Au3 C6 N6'
_cell_volume   427.56736547
_cell_formula_units_Z   3
loop_
 _symmetry_equiv_pos_site_id
 _symmetry_equiv_pos_as_xyz
  1  'x, y, z'
loop_
 _atom_site_type_symbol
 _atom_site_label
 _atom_site_symmetry_multiplicity
 _atom_site_fract_x
 _atom_site_fract_y
 _atom_site_fract_z
 _atom_site_occupancy
  K  K0  1  0.00000000  0.00000000  0.00000000  1
  K  K1  1  0.65605900  0.65605900  0.65605900  1
  K  K2  1  0.34394100  0.34394100  0.34394100  1
  Au  Au0  1  0.50000000  0.00000000  0.00000000  1
  Au  Au1  1  0.00000000  0.50000000  0.00000000  1
  Au  Au2  1  0.00000000  0.00000000  0.50000000  1
  C  C0  1  0.97952600  0.56615500  0.17018700  1
  C  C1  1  0.17018700  0.97952600  0.56615500  1
  C  C2  1  0.56615500  0.17018700  0.97952600  1
  C  C3  1  0.02047400  0.43384500  0.82981300  1
  C  C4  1  0.82981300  0.02047400  0.43384500  1
  C  C5  1  0.43384500  0.82981300  0.02047400  1
  N  N0  1  0.96714900  0.60478100  0.27119500  1
  N  N1  1  0.27119500  0.96714900  0.60478100  1
  N  N2  1  0.60478100  0.27119500  0.96714900  1
  N  N3  1  0.03285100  0.39521900  0.72880500  1
  N  N4  1  0.72880500  0.03285100  0.39521900  1
  N  N5  1  0.39521900  0.72880500  0.03285100  1
loop_
_geom_bond_atom_site_label_1
_geom_bond_atom_site_label_2
_geom_bond_distance
_geom_bond_site_symmetry_2
K0 N1 2.865939 1_544
K0 N4 2.865939 1_455
K0 N0 2.865939 1_445
K0 N3 2.865939 1_554
K0 N2 2.865940 1_454
K0 N5 2.865940 1_545
K1 N0 2.849143 1_555
K1 N2 2.849143 1_555
K1 N1 2.849143 1_555
K1 N5 2.910938 1_556
K1 N4 2.910939 1_565
K1 N3 2.910939 1_655
K2 N3 2.849143 1_555
K2 N5 2.849143 1_555
K2 N4 2.849143 1_555
K2 N2 2.910938 1_554
K2 N1 2.910939 1_545
K2 N0 2.910939 1_455
Au0 C2 1.990471 1_554
Au0 C5 1.990471 1_545
Au1 C3 1.990471 1_554
Au1 C0 1.990471 1_455
Au2 C1 1.990471 1_545
Au2 C4 1.990471 1_455
C0 N0 1.174823 1_555
C1 N1 1.174823 1_555
C2 N2 1.174823 1_555
C3 N3 1.174823 1_555
C4 N4 1.174823 1_555
C5 N5 1.174823 1_555
