# generated using pymatgen
data_DyGe2Pt
_symmetry_space_group_name_H-M   'P 1'
_cell_length_a   9.53074623
_cell_length_b   9.52864146
_cell_length_c   9.52835802
_cell_angle_alpha   153.84619140
_cell_angle_beta   125.73384221
_cell_angle_gamma   61.21756420
_symmetry_Int_Tables_number   1
_chemical_formula_structural   DyGe2Pt
_chemical_formula_sum   'Dy4 Ge8 Pt4'
_cell_volume   307.39416875
_cell_formula_units_Z   4
loop_
 _symmetry_equiv_pos_site_id
 _symmetry_equiv_pos_as_xyz
  1  'x, y, z'
loop_
 _atom_site_type_symbol
 _atom_site_label
 _atom_site_symmetry_multiplicity
 _atom_site_fract_x
 _atom_site_fract_y
 _atom_site_fract_z
 _atom_site_occupancy
  Dy  Dy0  1  0.29907519  0.79898882  0.49976496  1
  Dy  Dy1  1  0.73690315  0.00001550  0.73666374  1
  Dy  Dy2  1  0.26309636  -0.00001465  0.26333700  1
  Dy  Dy3  1  0.70092455  0.20101130  0.50023511  1
  Ge  Ge0  1  0.92756668  0.42698640  0.49936439  1
  Ge  Ge1  1  0.07243431  0.57301510  0.50063765  1
  Ge  Ge2  1  0.57385695  0.57513209  0.00117834  1
  Ge  Ge3  1  0.64826851  0.79846469  0.84967050  1
  Ge  Ge4  1  0.42614249  0.42486880  -0.00117738  1
  Ge  Ge5  1  0.94889653  0.79839528  0.15032423  1
  Ge  Ge6  1  0.35173161  0.20153293  0.15032664  1
  Ge  Ge7  1  0.05110294  0.20160565  0.84967661  1
  Pt  Pt0  1  0.60451486  0.35200607  0.25246591  1
  Pt  Pt1  1  0.39548627  0.64799092  0.74753071  1
  Pt  Pt2  1  0.09963557  0.35226245  0.74788076  1
  Pt  Pt3  1  0.90036403  0.64773862  0.25212082  1
loop_
_geom_bond_atom_site_label_1
_geom_bond_atom_site_label_2
_geom_bond_distance
_geom_bond_site_symmetry_2
Dy0 Ge7 2.985464 1_554
Dy0 Ge6 2.986530 1_555
Dy0 Ge6 2.987451 1_566
Dy0 Ge7 2.988262 1_565
Dy0 Ge4 2.993816 1_566
Dy0 Ge4 3.000915 1_555
Dy0 Ge5 3.038014 1_455
Dy0 Ge3 3.040601 1_555
Dy0 Pt2 3.193253 1_554
Dy0 Pt0 3.196561 1_566
Dy0 Pt2 3.196819 1_565
Dy0 Pt0 3.197292 1_555
Dy0 Pt1 3.283117 1_555
Dy0 Pt3 3.283348 1_455
Dy1 Ge2 3.212625 1_545
Dy1 Ge4 3.215880 1_556
Dy1 Ge4 3.220791 1_545
Dy1 Ge2 3.221350 1_556
Dy1 Pt3 3.247299 1_556
Dy1 Pt3 3.248715 1_545
Dy1 Pt0 3.250423 1_545
Dy1 Pt0 3.251389 1_556
Dy1 Ge1 3.358956 1_645
Dy1 Ge0 3.359066 1_556
Dy1 Ge1 3.361359 1_656
Dy1 Ge0 3.362894 1_545
Dy1 Ge7 3.446166 1_655
Dy1 Ge3 3.449426 1_545
Dy2 Ge4 3.212627 1_556
Dy2 Ge2 3.215879 1_545
Dy2 Ge2 3.220791 1_556
Dy2 Ge4 3.221351 1_545
Dy2 Pt2 3.247301 1_544
Dy2 Pt2 3.248720 1_555
Dy2 Pt1 3.250421 1_555
Dy2 Pt1 3.251414 1_544
Dy2 Ge0 3.358948 1_455
Dy2 Ge1 3.359061 1_544
Dy2 Ge0 3.361350 1_444
Dy2 Ge1 3.362890 1_555
Dy2 Ge5 3.446167 1_445
Dy2 Ge6 3.449434 1_555
Dy3 Ge5 2.985465 1_556
Dy3 Ge3 2.986524 1_555
Dy3 Ge3 2.987464 1_544
Dy3 Ge5 2.988257 1_545
Dy3 Ge2 2.993816 1_545
Dy3 Ge2 3.000921 1_556
Dy3 Ge7 3.038012 1_655
Dy3 Ge6 3.040602 1_555
Dy3 Pt3 3.193260 1_556
Dy3 Pt1 3.196566 1_544
Dy3 Pt3 3.196818 1_545
Dy3 Pt1 3.197273 1_555
Dy3 Pt0 3.283124 1_555
Dy3 Pt2 3.283345 1_655
Ge0 Ge1 2.375454 1_655
Ge0 Pt0 2.482964 1_555
Ge0 Pt2 2.483966 1_655
Ge1 Pt1 2.482965 1_555
Ge1 Pt3 2.483966 1_455
Ge2 Ge4 2.424673 1_555
Ge2 Pt1 2.507933 1_554
Ge2 Pt3 2.508376 1_555
Ge3 Pt0 2.475957 1_555
Ge3 Pt0 2.476715 1_566
Ge3 Ge5 2.613494 1_556
Ge3 Pt1 2.624856 1_555
Ge4 Pt0 2.507930 1_555
Ge4 Pt2 2.508375 1_554
Ge5 Pt2 2.475692 1_654
Ge5 Pt2 2.477341 1_665
Ge5 Pt3 2.622740 1_555
Ge6 Pt1 2.475952 1_555
Ge6 Pt1 2.476718 1_544
Ge6 Ge7 2.613495 1_554
Ge6 Pt0 2.624864 1_555
Ge7 Pt3 2.475694 1_456
Ge7 Pt3 2.477340 1_445
Ge7 Pt2 2.622735 1_555
