# generated using pymatgen
data_Fe2Mo4N
_symmetry_space_group_name_H-M   'P 1'
_cell_length_a   7.96927161
_cell_length_b   7.96927161
_cell_length_c   7.96927161
_cell_angle_alpha   60.00000000
_cell_angle_beta   60.00000000
_cell_angle_gamma   60.00000000
_symmetry_Int_Tables_number   1
_chemical_formula_structural   Fe2Mo4N
_chemical_formula_sum   'Fe8 Mo16 N4'
_cell_volume   357.88285172
_cell_formula_units_Z   4
loop_
 _symmetry_equiv_pos_site_id
 _symmetry_equiv_pos_as_xyz
  1  'x, y, z'
loop_
 _atom_site_type_symbol
 _atom_site_label
 _atom_site_symmetry_multiplicity
 _atom_site_fract_x
 _atom_site_fract_y
 _atom_site_fract_z
 _atom_site_occupancy
  Fe  Fe0  1  0.91935000  0.91935000  0.24195000  1
  Fe  Fe1  1  0.24195000  0.91935000  0.91935000  1
  Fe  Fe2  1  0.91935000  0.24195000  0.91935000  1
  Fe  Fe3  1  0.33065000  0.00805000  0.33065000  1
  Fe  Fe4  1  0.33065000  0.33065000  0.00805000  1
  Fe  Fe5  1  0.33065000  0.33065000  0.33065000  1
  Fe  Fe6  1  0.91935000  0.91935000  0.91935000  1
  Fe  Fe7  1  0.00805000  0.33065000  0.33065000  1
  Mo  Mo0  1  0.55723400  0.94276600  0.94276600  1
  Mo  Mo1  1  0.62500000  0.12500000  0.12500000  1
  Mo  Mo2  1  0.30723400  0.69276600  0.30723400  1
  Mo  Mo3  1  0.94276600  0.94276600  0.55723400  1
  Mo  Mo4  1  0.94276600  0.55723400  0.55723400  1
  Mo  Mo5  1  0.69276600  0.30723400  0.69276600  1
  Mo  Mo6  1  0.30723400  0.30723400  0.69276600  1
  Mo  Mo7  1  0.69276600  0.30723400  0.30723400  1
  Mo  Mo8  1  0.55723400  0.94276600  0.55723400  1
  Mo  Mo9  1  0.30723400  0.69276600  0.69276600  1
  Mo  Mo10  1  0.12500000  0.12500000  0.62500000  1
  Mo  Mo11  1  0.94276600  0.55723400  0.94276600  1
  Mo  Mo12  1  0.55723400  0.55723400  0.94276600  1
  Mo  Mo13  1  0.69276600  0.69276600  0.30723400  1
  Mo  Mo14  1  0.12500000  0.62500000  0.12500000  1
  Mo  Mo15  1  0.12500000  0.12500000  0.12500000  1
  N  N0  1  0.62500000  0.62500000  0.62500000  1
  N  N1  1  0.12500000  0.62500000  0.62500000  1
  N  N2  1  0.62500000  0.12500000  0.62500000  1
  N  N3  1  0.62500000  0.62500000  0.12500000  1
loop_
_geom_bond_atom_site_label_1
_geom_bond_atom_site_label_2
_geom_bond_distance
_geom_bond_site_symmetry_2
Fe0 Mo15 2.423124 1_665
Fe0 Mo14 2.423124 1_655
Fe0 Mo1 2.423124 1_565
Fe0 Fe6 2.570887 1_554
Fe0 Fe2 2.570887 1_564
Fe0 Fe1 2.570887 1_654
Fe0 Mo8 2.712063 1_555
Fe0 Mo3 2.712063 1_555
Fe0 Mo4 2.712063 1_555
Fe0 Mo13 2.858940 1_555
Fe0 Mo7 2.858940 1_565
Fe0 Mo2 2.858940 1_655
Fe1 Mo14 2.423124 1_556
Fe1 Mo15 2.423124 1_566
Fe1 Mo10 2.423124 1_565
Fe1 Fe2 2.570887 1_465
Fe1 Fe6 2.570887 1_455
Fe1 Mo8 2.712063 1_555
Fe1 Mo12 2.712063 1_555
Fe1 Mo0 2.712063 1_555
Fe1 Mo9 2.858940 1_555
Fe1 Mo6 2.858940 1_565
Fe1 Mo2 2.858940 1_556
Fe2 Mo1 2.423124 1_556
Fe2 Mo15 2.423124 1_656
Fe2 Mo10 2.423124 1_655
Fe2 Fe6 2.570887 1_545
Fe2 Mo11 2.712063 1_555
Fe2 Mo12 2.712063 1_555
Fe2 Mo4 2.712063 1_555
Fe2 Mo6 2.858940 1_655
Fe2 Mo7 2.858940 1_556
Fe2 Mo5 2.858940 1_555
Fe3 Mo1 2.423124 1_555
Fe3 Mo15 2.423124 1_555
Fe3 Mo10 2.423124 1_555
Fe3 Fe7 2.570887 1_555
Fe3 Fe5 2.570887 1_555
Fe3 Fe4 2.570887 1_555
Fe3 Mo2 2.712063 1_545
Fe3 Mo9 2.712063 1_545
Fe3 Mo13 2.712063 1_545
Fe3 Mo0 2.858940 1_544
Fe3 Mo3 2.858940 1_445
Fe3 Mo8 2.858940 1_545
Fe4 Mo15 2.423124 1_555
Fe4 Mo14 2.423124 1_555
Fe4 Mo1 2.423124 1_555
Fe4 Fe7 2.570887 1_555
Fe4 Fe5 2.570887 1_555
Fe4 Mo6 2.712063 1_554
Fe4 Mo9 2.712063 1_554
Fe4 Mo5 2.712063 1_554
Fe4 Mo0 2.858940 1_544
Fe4 Mo12 2.858940 1_554
Fe4 Mo11 2.858940 1_454
Fe5 Mo10 2.423124 1_555
Fe5 Mo14 2.423124 1_555
Fe5 Mo1 2.423124 1_555
Fe5 Fe7 2.570887 1_555
Fe5 Mo7 2.712063 1_555
Fe5 Mo2 2.712063 1_555
Fe5 Mo6 2.712063 1_555
Fe5 Mo12 2.858940 1_554
Fe5 Mo8 2.858940 1_545
Fe5 Mo4 2.858940 1_455
Fe6 Mo10 2.423124 1_665
Fe6 Mo1 2.423124 1_566
Fe6 Mo14 2.423124 1_656
Fe6 Mo11 2.712063 1_555
Fe6 Mo0 2.712063 1_555
Fe6 Mo3 2.712063 1_555
Fe6 Mo13 2.858940 1_556
Fe6 Mo9 2.858940 1_655
Fe6 Mo5 2.858940 1_565
Fe7 Mo14 2.423124 1_555
Fe7 Mo15 2.423124 1_555
Fe7 Mo10 2.423124 1_555
Fe7 Mo13 2.712063 1_455
Fe7 Mo5 2.712063 1_455
Fe7 Mo7 2.712063 1_455
Fe7 Mo11 2.858940 1_454
Fe7 Mo3 2.858940 1_445
Fe7 Mo4 2.858940 1_455
Mo0 N2 2.133689 1_565
Mo0 N3 2.133689 1_556
Mo2 N1 2.133689 1_555
Mo2 N3 2.133689 1_555
Mo3 N1 2.133689 1_655
Mo3 N2 2.133689 1_565
Mo4 N1 2.133689 1_655
Mo4 N0 2.133689 1_555
Mo5 N2 2.133689 1_555
Mo5 N0 2.133689 1_555
Mo6 N1 2.133689 1_555
Mo6 N2 2.133689 1_555
Mo7 N2 2.133689 1_555
Mo7 N3 2.133689 1_555
Mo8 N2 2.133689 1_565
Mo8 N0 2.133689 1_555
Mo9 N1 2.133689 1_555
Mo9 N0 2.133689 1_555
Mo11 N3 2.133689 1_556
Mo11 N1 2.133689 1_655
Mo12 N3 2.133689 1_556
Mo12 N0 2.133689 1_555
Mo13 N0 2.133689 1_555
Mo13 N3 2.133689 1_555
