# generated using pymatgen
data_EuMn4(CuO4)3
_symmetry_space_group_name_H-M   'P 1'
_cell_length_a   6.44493507
_cell_length_b   6.44493507
_cell_length_c   6.44493507
_cell_angle_alpha   109.47122063
_cell_angle_beta   109.47122063
_cell_angle_gamma   109.47122063
_symmetry_Int_Tables_number   1
_chemical_formula_structural   EuMn4(CuO4)3
_chemical_formula_sum   'Eu1 Mn4 Cu3 O12'
_cell_volume   206.07900520
_cell_formula_units_Z   1
loop_
 _symmetry_equiv_pos_site_id
 _symmetry_equiv_pos_as_xyz
  1  'x, y, z'
loop_
 _atom_site_type_symbol
 _atom_site_label
 _atom_site_symmetry_multiplicity
 _atom_site_fract_x
 _atom_site_fract_y
 _atom_site_fract_z
 _atom_site_occupancy
  Eu  Eu0  1  0.00000000  0.00000000  0.00000000  1
  Mn  Mn0  1  0.00000000  0.50000000  0.00000000  1
  Mn  Mn1  1  0.00000000  0.00000000  0.50000000  1
  Mn  Mn2  1  0.50000000  0.50000000  0.50000000  1
  Mn  Mn3  1  0.50000000  0.00000000  0.00000000  1
  Cu  Cu0  1  0.00000000  0.50000000  0.50000000  1
  Cu  Cu1  1  0.50000000  0.00000000  0.50000000  1
  Cu  Cu2  1  0.50000000  0.50000000  0.00000000  1
  O  O0  1  0.69190600  0.86303400  0.17112800  1
  O  O1  1  0.30809400  0.13696600  0.82887200  1
  O  O2  1  0.17112800  0.30809400  0.47922200  1
  O  O3  1  0.17112800  0.69190600  0.86303400  1
  O  O4  1  0.69190600  0.52077800  0.82887200  1
  O  O5  1  0.30809400  0.47922200  0.17112800  1
  O  O6  1  0.47922200  0.17112800  0.30809400  1
  O  O7  1  0.82887200  0.69190600  0.52077800  1
  O  O8  1  0.86303400  0.17112800  0.69190600  1
  O  O9  1  0.82887200  0.30809400  0.13696600  1
  O  O10  1  0.52077800  0.82887200  0.69190600  1
  O  O11  1  0.13696600  0.82887200  0.30809400  1
loop_
_geom_bond_atom_site_label_1
_geom_bond_atom_site_label_2
_geom_bond_distance
_geom_bond_site_symmetry_2
Eu0 O7 2.622771 1_444
Eu0 O10 2.622771 1_444
Eu0 O4 2.622771 1_444
Eu0 O6 2.622771 1_555
Eu0 O8 2.622771 1_454
Eu0 O0 2.622771 1_445
Eu0 O3 2.622771 1_544
Eu0 O5 2.622771 1_555
Eu0 O2 2.622771 1_555
Eu0 O1 2.622771 1_554
Eu0 O11 2.622771 1_545
Eu0 O9 2.622771 1_455
Mn0 O11 1.998217 1_555
Mn0 O8 1.998217 1_454
Mn0 O5 1.998217 1_555
Mn0 O3 1.998217 1_554
Mn0 O4 1.998217 1_454
Mn0 O9 1.998217 1_455
Mn1 O1 1.998217 1_555
Mn1 O2 1.998217 1_555
Mn1 O0 1.998217 1_445
Mn1 O8 1.998217 1_455
Mn1 O7 1.998217 1_445
Mn1 O11 1.998217 1_545
Mn2 O10 1.998217 1_555
Mn2 O7 1.998217 1_555
Mn2 O4 1.998217 1_555
Mn2 O2 1.998217 1_555
Mn2 O6 1.998217 1_555
Mn2 O5 1.998217 1_555
Mn3 O9 1.998217 1_555
Mn3 O3 1.998217 1_544
Mn3 O6 1.998217 1_555
Mn3 O0 1.998217 1_545
Mn3 O10 1.998217 1_544
Mn3 O1 1.998217 1_554
Cu0 O9 1.913508 1_455
Cu0 O2 1.913508 1_555
Cu0 O3 1.913508 1_555
Cu0 O7 1.913508 1_455
Cu1 O11 1.913508 1_545
Cu1 O8 1.913508 1_555
Cu1 O6 1.913508 1_555
Cu1 O10 1.913508 1_545
Cu2 O1 1.913508 1_554
Cu2 O0 1.913508 1_555
Cu2 O5 1.913508 1_555
Cu2 O4 1.913508 1_554
