# generated using pymatgen
data_TbNi
_symmetry_space_group_name_H-M   'P 1'
_cell_length_a   4.21713212
_cell_length_b   5.38143822
_cell_length_c   20.93515282
_cell_angle_alpha   90.00000000
_cell_angle_beta   90.00000000
_cell_angle_gamma   90.00000000
_symmetry_Int_Tables_number   1
_chemical_formula_structural   TbNi
_chemical_formula_sum   'Tb12 Ni12'
_cell_volume   475.10729815
_cell_formula_units_Z   12
loop_
 _symmetry_equiv_pos_site_id
 _symmetry_equiv_pos_as_xyz
  1  'x, y, z'
loop_
 _atom_site_type_symbol
 _atom_site_label
 _atom_site_symmetry_multiplicity
 _atom_site_fract_x
 _atom_site_fract_y
 _atom_site_fract_z
 _atom_site_occupancy
  Tb  Tb0  1  0.75000000  0.62335219  0.10642707  1
  Tb  Tb1  1  0.25000000  0.12335219  0.39357293  1
  Tb  Tb2  1  0.75000000  0.87664781  0.60642707  1
  Tb  Tb3  1  0.75000000  0.39111941  0.27321808  1
  Tb  Tb4  1  0.75000000  0.86598170  0.93970559  1
  Tb  Tb5  1  0.75000000  0.10888059  0.77321808  1
  Tb  Tb6  1  0.25000000  0.89111941  0.22678192  1
  Tb  Tb7  1  0.75000000  0.63401830  0.43970559  1
  Tb  Tb8  1  0.25000000  0.36598170  0.56029441  1
  Tb  Tb9  1  0.25000000  0.37664781  0.89357293  1
  Tb  Tb10  1  0.25000000  0.13401830  0.06029441  1
  Tb  Tb11  1  0.25000000  0.60888059  0.72678192  1
  Ni  Ni0  1  0.25000000  0.86800910  0.84506718  1
  Ni  Ni1  1  0.75000000  0.37349815  0.98832213  1
  Ni  Ni2  1  0.75000000  0.61906317  0.82154054  1
  Ni  Ni3  1  0.25000000  0.62650185  0.01167787  1
  Ni  Ni4  1  0.75000000  0.36800910  0.65493282  1
  Ni  Ni5  1  0.25000000  0.38093683  0.17845946  1
  Ni  Ni6  1  0.25000000  0.87349815  0.51167787  1
  Ni  Ni7  1  0.75000000  0.13199090  0.15493282  1
  Ni  Ni8  1  0.75000000  0.12650185  0.48832213  1
  Ni  Ni9  1  0.75000000  0.88093683  0.32154054  1
  Ni  Ni10  1  0.25000000  0.11906317  0.67845946  1
  Ni  Ni11  1  0.25000000  0.63199090  0.34506718  1
loop_
_geom_bond_atom_site_label_1
_geom_bond_atom_site_label_2
_geom_bond_distance
_geom_bond_site_symmetry_2
Ni0 Ni2 2.546253 1_455
Ni0 Ni2 2.546253 1_555
Ni0 Tb9 2.832516 1_555
Ni0 Tb11 2.841962 1_555
Ni0 Tb4 2.893372 1_455
Ni0 Tb4 2.893372 1_555
Ni0 Tb5 2.896344 1_465
Ni0 Tb5 2.896344 1_565
Ni0 Tb9 2.919503 1_565
Ni1 Ni3 2.557123 1_556
Ni1 Ni3 2.557123 1_656
Ni1 Tb0 2.814491 1_556
Ni1 Tb4 2.838985 1_555
Ni1 Tb10 2.894342 1_556
Ni1 Tb10 2.894342 1_656
Ni1 Tb9 2.894989 1_555
Ni1 Tb9 2.894989 1_655
Ni1 Tb4 2.914650 1_545
Ni2 Tb4 2.808087 1_555
Ni2 Tb5 2.823384 1_565
Ni2 Tb11 2.895593 1_655
Ni2 Tb11 2.895593 1_555
Ni2 Tb9 2.902064 1_555
Ni2 Tb9 2.902064 1_655
Ni2 Tb5 2.925965 1_555
Ni3 Tb9 2.814491 1_554
Ni3 Tb10 2.838985 1_555
Ni3 Tb4 2.894342 1_454
Ni3 Tb4 2.894342 1_554
Ni3 Tb0 2.894989 1_555
Ni3 Tb0 2.894989 1_455
Ni3 Tb10 2.914650 1_565
Ni4 Tb2 2.832516 1_545
Ni4 Tb5 2.841962 1_555
Ni4 Tb8 2.893372 1_655
Ni4 Tb8 2.893372 1_555
Ni4 Tb11 2.896344 1_555
Ni4 Tb11 2.896344 1_655
Ni4 Tb2 2.919503 1_555
Ni5 Ni7 2.546253 1_555
Ni5 Ni7 2.546253 1_455
Ni5 Tb10 2.808087 1_555
Ni5 Tb6 2.823384 1_545
Ni5 Tb3 2.895593 1_455
Ni5 Tb3 2.895593 1_555
Ni5 Tb0 2.902064 1_555
Ni5 Tb0 2.902064 1_455
Ni5 Tb6 2.925965 1_555
Ni6 Ni8 2.557123 1_565
Ni6 Ni8 2.557123 1_465
Ni6 Tb1 2.814491 1_565
Ni6 Tb8 2.838985 1_565
Ni6 Tb7 2.894342 1_555
Ni6 Tb7 2.894342 1_455
Ni6 Tb2 2.894989 1_455
Ni6 Tb2 2.894989 1_555
Ni6 Tb8 2.914650 1_555
Ni7 Tb0 2.832516 1_555
Ni7 Tb3 2.841962 1_555
Ni7 Tb10 2.893372 1_655
Ni7 Tb10 2.893372 1_555
Ni7 Tb6 2.896344 1_645
Ni7 Tb6 2.896344 1_545
Ni7 Tb0 2.919503 1_545
Ni8 Tb2 2.814491 1_545
Ni8 Tb7 2.838985 1_545
Ni8 Tb8 2.894342 1_555
Ni8 Tb8 2.894342 1_655
Ni8 Tb1 2.894989 1_655
Ni8 Tb1 2.894989 1_555
Ni8 Tb7 2.914650 1_555
Ni9 Tb7 2.808087 1_555
Ni9 Tb3 2.823384 1_555
Ni9 Tb6 2.895593 1_655
Ni9 Tb6 2.895593 1_555
Ni9 Tb1 2.902064 1_565
Ni9 Tb1 2.902064 1_665
Ni9 Tb3 2.925965 1_565
Ni10 Ni4 2.546253 1_455
Ni10 Ni4 2.546253 1_555
Ni10 Tb8 2.808087 1_555
Ni10 Tb11 2.823384 1_555
Ni10 Tb5 2.895593 1_455
Ni10 Tb5 2.895593 1_555
Ni10 Tb2 2.902064 1_445
Ni10 Tb2 2.902064 1_545
Ni10 Tb11 2.925965 1_545
Ni11 Ni9 2.546253 1_455
Ni11 Ni9 2.546253 1_555
Ni11 Tb1 2.832516 1_565
Ni11 Tb6 2.841962 1_555
Ni11 Tb7 2.893372 1_555
Ni11 Tb7 2.893372 1_455
Ni11 Tb3 2.896344 1_455
Ni11 Tb3 2.896344 1_555
Ni11 Tb1 2.919503 1_555
