# generated using pymatgen
data_Nd4Mo31O56
_symmetry_space_group_name_H-M   'P 1'
_cell_length_a   15.12717845
_cell_length_b   10.11621762
_cell_length_c   11.96454383
_cell_angle_alpha   65.23711089
_cell_angle_beta   50.86371339
_cell_angle_gamma   48.29566747
_symmetry_Int_Tables_number   1
_chemical_formula_structural   Nd4Mo31O56
_chemical_formula_sum   'Nd4 Mo31 O56'
_cell_volume   1060.27004163
_cell_formula_units_Z   1
loop_
 _symmetry_equiv_pos_site_id
 _symmetry_equiv_pos_as_xyz
  1  'x, y, z'
loop_
 _atom_site_type_symbol
 _atom_site_label
 _atom_site_symmetry_multiplicity
 _atom_site_fract_x
 _atom_site_fract_y
 _atom_site_fract_z
 _atom_site_occupancy
  Nd  Nd0  1  0.26065100  0.99067200  0.49198800  1
  Nd  Nd1  1  0.50462200  0.49992400  0.00354800  1
  Nd  Nd2  1  0.75032400  0.99931400  0.49952400  1
  Nd  Nd3  1  0.98644200  0.50378400  0.00567200  1
  Mo  Mo0  1  0.01684200  0.00610800  0.12441200  1
  Mo  Mo1  1  0.00451500  0.14081500  0.37959200  1
  Mo  Mo2  1  0.27810400  0.23607500  0.12101700  1
  Mo  Mo3  1  0.13230600  0.64372100  0.12096200  1
  Mo  Mo4  1  0.02704400  0.19128100  0.87680000  1
  Mo  Mo5  1  0.52150400  0.00404900  0.11985700  1
  Mo  Mo6  1  0.02780100  0.58863200  0.62199000  1
  Mo  Mo7  1  0.27174300  0.37774200  0.38103300  1
  Mo  Mo8  1  0.14953200  0.73286700  0.38034900  1
  Mo  Mo9  1  0.26710300  0.33690300  0.62552400  1
  Mo  Mo10  1  0.50725600  0.13975900  0.37786400  1
  Mo  Mo11  1  0.14996000  0.69856200  0.62127200  1
  Mo  Mo12  1  0.40099400  0.50058000  0.36995600  1
  Mo  Mo13  1  0.40310500  0.88206600  0.11985100  1
  Mo  Mo14  1  0.39924000  0.08836700  0.87938300  1
  Mo  Mo15  1  0.38124700  0.47016800  0.62257300  1
  Mo  Mo16  1  0.77642300  0.24974000  0.11852100  1
  Mo  Mo17  1  0.14221000  0.83450300  0.87552400  1
  Mo  Mo18  1  0.51993100  0.20068200  0.87944400  1
  Mo  Mo19  1  0.52966000  0.58779700  0.61984100  1
  Mo  Mo20  1  0.25639800  0.96976900  0.87734100  1
  Mo  Mo21  1  0.77302900  0.37805000  0.38120400  1
  Mo  Mo22  1  0.65224500  0.72944300  0.37512700  1
  Mo  Mo23  1  0.76804700  0.33388300  0.62711000  1
  Mo  Mo24  1  0.65091200  0.70075800  0.61937700  1
  Mo  Mo25  1  0.89272100  0.50589500  0.37589700  1
  Mo  Mo26  1  0.89821200  0.88477700  0.12065400  1
  Mo  Mo27  1  0.89794800  0.08966800  0.87982100  1
  Mo  Mo28  1  0.88276000  0.47197800  0.62227900  1
  Mo  Mo29  1  0.64231500  0.83905300  0.87902600  1
  Mo  Mo30  1  0.74868600  0.97137600  0.88183600  1
  O  O0  1  0.06739300  0.18992400  0.01240200  1
  O  O1  1  0.21119600  0.28944500  0.99960100  1
  O  O2  1  0.20429000  0.08528300  0.25259700  1
  O  O3  1  0.08201100  0.47243400  0.23901600  1
  O  O4  1  0.32326900  0.41479800  0.01126400  1
  O  O5  1  0.07481400  0.42785100  0.51103700  1
  O  O6  1  0.32049400  0.19718800  0.27139600  1
  O  O7  1  0.22576300  0.77550400  0.00005600  1
  O  O8  1  0.21742100  0.98927800  0.73128700  1
  O  O9  1  0.21230700  0.58405600  0.24351200  1
  O  O10  1  0.07316800  0.38810400  0.76841300  1
  O  O11  1  0.07088600  0.97174600  0.26158400  1
  O  O12  1  0.31639500  0.16383400  0.51429800  1
  O  O13  1  0.56398300  0.19585500  0.01273600  1
  O  O14  1  0.46134000  0.34265500  0.23497800  1
  O  O15  1  0.08690700  0.91180900  0.48930400  1
  O  O16  1  0.32103500  0.12564200  0.76082100  1
  O  O17  1  0.34264000  0.69588000  0.23088000  1
  O  O18  1  0.19275300  0.49863700  0.76731900  1
  O  O19  1  0.71118100  0.29027200  0.99980600  1
  O  O20  1  0.47584400  0.26965200  0.50436400  1
  O  O21  1  0.09020300  0.88866000  0.73263200  1
  O  O22  1  0.07548600  0.66702800  0.98772000  1
  O  O23  1  0.70549800  0.08290400  0.25916400  1
  O  O24  1  0.33001800  0.68948000  0.48741600  1
  O  O25  1  0.58123400  0.44417100  0.25020500  1
  O  O26  1  0.46108500  0.24970300  0.74219200  1
  O  O27  1  0.44504200  0.85048300  0.25415600  1
  O  O28  1  0.33236000  0.62475600  0.73921200  1
  O  O29  1  0.83687200  0.39976000  0.00873800  1
  O  O30  1  0.57490100  0.42734900  0.51194700  1
  O  O31  1  0.82316000  0.19683200  0.27034200  1
  O  O32  1  0.46389800  0.78638200  0.49772200  1
  O  O33  1  0.71215200  0.77810400  0.00780900  1
  O  O34  1  0.70790900  0.00054100  0.73328700  1
  O  O35  1  0.72757300  0.57926700  0.24016100  1
  O  O36  1  0.57196500  0.39047200  0.76852500  1
  O  O37  1  0.57183200  0.97022300  0.26139100  1
  O  O38  1  0.81654200  0.16089000  0.51533300  1
  O  O39  1  0.45551900  0.74870000  0.75692300  1
  O  O40  1  0.96252500  0.34474100  0.23623700  1
  O  O41  1  0.58805500  0.91189900  0.48802700  1
  O  O42  1  0.33219200  0.93169100  0.99226500  1
  O  O43  1  0.82213800  0.13220900  0.75933900  1
  O  O44  1  0.84306900  0.69957000  0.23263500  1
  O  O45  1  0.69491900  0.50089700  0.76580900  1
  O  O46  1  0.97724300  0.27452400  0.49877600  1
  O  O47  1  0.58976300  0.88887600  0.73185100  1
  O  O48  1  0.57036300  0.68090900  0.99409000  1
  O  O49  1  0.82980100  0.69197300  0.48693600  1
  O  O50  1  0.96213600  0.24923300  0.74337500  1
  O  O51  1  0.94638600  0.84739400  0.26427900  1
  O  O52  1  0.83180000  0.62537500  0.74024700  1
  O  O53  1  0.96126000  0.78804800  0.50103400  1
  O  O54  1  0.95312100  0.74672600  0.76048600  1
  O  O55  1  0.83346400  0.93015300  0.99061400  1
loop_
_geom_bond_atom_site_label_1
_geom_bond_atom_site_label_2
_geom_bond_distance
_geom_bond_site_symmetry_2
Nd0 O32 2.328437 1_555
Nd0 O27 2.446752 1_555
Nd0 O24 2.490152 1_555
Nd0 O8 2.498031 1_555
Nd0 O12 2.547989 1_565
Nd0 O6 2.651635 1_565
Nd0 O21 2.771824 1_555
Nd1 O19 2.312752 1_554
Nd1 O14 2.456418 1_555
Nd1 O45 2.460821 1_554
Nd1 O13 2.538985 1_555
Nd1 O48 2.541844 1_554
Nd1 O17 2.640535 1_555
Nd1 O36 2.768065 1_554
Nd2 O53 2.390843 1_555
Nd2 O34 2.446936 1_565
Nd2 O51 2.470110 1_555
Nd2 O49 2.514922 1_555
Nd2 O38 2.527370 1_565
Nd2 O31 2.692774 1_565
Nd2 O47 2.713028 1_555
Nd2 O23 3.017705 1_565
Nd2 O26 3.060737 1_565
Nd2 O20 3.072902 1_565
Nd2 O41 3.200428 1_555
Nd2 O30 3.250524 1_565
Nd3 O40 2.475058 1_555
Nd3 O1 2.505454 1_654
Nd3 O0 2.514770 1_655
Nd3 O18 2.559031 1_654
Nd3 O22 2.623941 1_654
Nd3 O10 2.681009 1_654
Nd3 O44 2.712220 1_555
Nd3 O35 2.781431 1_555
Nd3 O54 3.013029 1_554
Nd3 O29 3.042848 1_555
Nd3 O33 3.085864 1_555
Nd3 O55 3.253618 1_554
Mo0 O31 2.048944 1_455
Mo0 O51 2.070959 1_445
Mo0 O11 2.078557 1_545
Mo0 O0 2.085501 1_555
Mo0 O7 2.192251 1_545
Mo1 O11 1.968623 1_545
Mo1 O46 2.040576 1_455
Mo1 O40 2.066073 1_455
Mo1 O15 2.078279 1_545
Mo1 O2 2.101604 1_555
Mo1 O38 2.107787 1_455
Mo2 O1 1.974358 1_554
Mo2 O4 1.995540 1_555
Mo2 O2 2.021818 1_555
Mo2 O6 2.081090 1_555
Mo2 O3 2.147924 1_555
Mo3 O3 1.980829 1_555
Mo3 O7 2.044297 1_555
Mo3 O51 2.063257 1_455
Mo3 O4 2.071090 1_555
Mo3 O22 2.116827 1_554
Mo3 O9 2.122594 1_555
Mo4 O29 2.049232 1_456
Mo4 O0 2.055532 1_556
Mo4 O50 2.069992 1_455
Mo4 O8 2.078806 1_545
Mo4 O10 2.162466 1_555
Mo5 O33 2.062622 1_545
Mo5 O27 2.070445 1_545
Mo5 O13 2.087247 1_555
Mo5 O37 2.087970 1_545
Mo5 O6 2.110446 1_555
Mo6 O53 1.966837 1_455
Mo6 O5 1.997866 1_555
Mo6 O54 2.008198 1_455
Mo6 O10 2.084074 1_555
Mo6 O52 2.146990 1_455
Mo7 O12 2.050715 1_555
Mo7 O14 2.060067 1_555
Mo7 O5 2.086322 1_555
Mo7 O9 2.089366 1_555
Mo7 O6 2.143473 1_555
Mo8 O53 1.968877 1_455
Mo8 O15 2.002463 1_555
Mo8 O9 2.012073 1_555
Mo8 O17 2.093599 1_555
Mo8 O11 2.169395 1_555
Mo9 O10 2.046058 1_555
Mo9 O18 2.070808 1_555
Mo9 O16 2.074230 1_555
Mo9 O12 2.086731 1_555
Mo9 O20 2.173623 1_555
Mo10 O37 1.972877 1_545
Mo10 O20 2.042205 1_555
Mo10 O14 2.068919 1_555
Mo10 O41 2.069838 1_545
Mo10 O23 2.086603 1_555
Mo10 O12 2.123182 1_555
Mo11 O24 2.067849 1_555
Mo11 O18 2.070779 1_555
Mo11 O15 2.089589 1_555
Mo11 O54 2.089667 1_455
Mo11 O21 2.145608 1_555
Mo12 O25 1.869713 1_555
Mo12 O17 2.056945 1_555
Mo12 O14 2.086535 1_555
Mo12 O24 2.096334 1_555
Mo12 O20 2.226519 1_555
Mo13 O27 1.916687 1_555
Mo13 O48 1.927499 1_554
Mo13 O2 2.067062 1_565
Mo13 O42 2.107492 1_554
Mo13 O17 2.193463 1_555
Mo14 O1 1.971128 1_555
Mo14 O42 1.995349 1_545
Mo14 O26 2.020453 1_555
Mo14 O47 2.078010 1_545
Mo14 O16 2.151911 1_555
Mo15 O28 1.981591 1_555
Mo15 O20 2.036902 1_555
Mo15 O18 2.074653 1_555
Mo15 O26 2.098804 1_555
Mo15 O30 2.102018 1_555
Mo15 O24 2.103922 1_555
Mo16 O29 1.877515 1_555
Mo16 O19 1.975554 1_554
Mo16 O25 2.016295 1_555
Mo16 O31 2.095008 1_555
Mo16 O23 2.140648 1_555
Mo17 O21 2.044904 1_555
Mo17 O28 2.071747 1_555
Mo17 O22 2.085874 1_555
Mo17 O8 2.086220 1_555
Mo17 O7 2.191402 1_556
Mo18 O13 2.054934 1_556
Mo18 O34 2.066792 1_555
Mo18 O26 2.076227 1_555
Mo18 O4 2.096298 1_556
Mo18 O36 2.150509 1_555
Mo19 O32 1.969001 1_555
Mo19 O30 1.982772 1_555
Mo19 O39 2.020582 1_555
Mo19 O36 2.078795 1_555
Mo19 O28 2.160800 1_555
Mo20 O16 1.968556 1_565
Mo20 O7 2.041636 1_556
Mo20 O8 2.072949 1_555
Mo20 O42 2.076619 1_555
Mo20 O39 2.099529 1_555
Mo20 O0 2.110938 1_566
Mo21 O35 2.046650 1_555
Mo21 O40 2.065705 1_555
Mo21 O38 2.071407 1_555
Mo21 O30 2.103538 1_555
Mo21 O31 2.147728 1_555
Mo22 O35 1.908668 1_555
Mo22 O32 1.962052 1_555
Mo22 O41 2.054889 1_555
Mo22 O44 2.095009 1_555
Mo22 O37 2.152880 1_555
Mo23 O43 2.010904 1_555
Mo23 O36 2.050721 1_555
Mo23 O45 2.092069 1_555
Mo23 O38 2.098404 1_555
Mo23 O46 2.200637 1_555
Mo24 O49 2.055910 1_555
Mo24 O39 2.073856 1_555
Mo24 O41 2.075588 1_555
Mo24 O45 2.077118 1_555
Mo24 O47 2.126003 1_555
Mo25 O44 2.048077 1_555
Mo25 O3 2.061779 1_655
Mo25 O40 2.080661 1_555
Mo25 O49 2.080676 1_555
Mo25 O46 2.186973 1_555
Mo26 O23 2.042450 1_565
Mo26 O22 2.065025 1_654
Mo26 O51 2.072844 1_555
Mo26 O55 2.077960 1_554
Mo26 O44 2.137070 1_555
Mo27 O19 1.962940 1_555
Mo27 O55 1.995719 1_545
Mo27 O50 2.022488 1_555
Mo27 O21 2.088107 1_645
Mo27 O43 2.118657 1_555
Mo28 O52 1.965741 1_555
Mo28 O46 2.055276 1_555
Mo28 O45 2.064898 1_555
Mo28 O5 2.074150 1_655
Mo28 O49 2.112625 1_555
Mo28 O50 2.116481 1_555
Mo29 O48 2.054195 1_555
Mo29 O33 2.064613 1_556
Mo29 O34 2.068885 1_565
Mo29 O52 2.097685 1_555
Mo29 O47 2.115925 1_555
Mo30 O33 2.077842 1_556
Mo30 O34 2.080600 1_565
Mo30 O43 2.093308 1_565
Mo30 O13 2.104655 1_566
Mo30 O55 2.110238 1_555
Mo30 O54 2.140399 1_555
