# generated using pymatgen
data_Ba3La2(BO3)4
_symmetry_space_group_name_H-M   'P 1'
_cell_length_a   7.94699400
_cell_length_b   9.06327000
_cell_length_c   16.87350900
_cell_angle_alpha   90.00000000
_cell_angle_beta   90.00000000
_cell_angle_gamma   90.00000000
_symmetry_Int_Tables_number   1
_chemical_formula_structural   Ba3La2(BO3)4
_chemical_formula_sum   'Ba12 La8 B16 O48'
_cell_volume   1215.32717984
_cell_formula_units_Z   4
loop_
 _symmetry_equiv_pos_site_id
 _symmetry_equiv_pos_as_xyz
  1  'x, y, z'
loop_
 _atom_site_type_symbol
 _atom_site_label
 _atom_site_symmetry_multiplicity
 _atom_site_fract_x
 _atom_site_fract_y
 _atom_site_fract_z
 _atom_site_occupancy
  Ba  Ba0  1  0.32351300  0.46761200  0.75000000  1
  Ba  Ba1  1  0.82351300  0.03238800  0.75000000  1
  Ba  Ba2  1  0.17648700  0.96761200  0.25000000  1
  Ba  Ba3  1  0.67648700  0.53238800  0.25000000  1
  Ba  Ba4  1  0.67433000  0.65637800  0.87610500  1
  Ba  Ba5  1  0.17433000  0.84362200  0.62389500  1
  Ba  Ba6  1  0.82567000  0.15637800  0.12389500  1
  Ba  Ba7  1  0.32567000  0.34362200  0.37610500  1
  Ba  Ba8  1  0.32567000  0.34362200  0.12389500  1
  Ba  Ba9  1  0.82567000  0.15637800  0.37610500  1
  Ba  Ba10  1  0.67433000  0.65637800  0.62389500  1
  Ba  Ba11  1  0.17433000  0.84362200  0.87610500  1
  La  La0  1  0.97018800  0.67036500  0.41540100  1
  La  La1  1  0.47018800  0.82963500  0.08459900  1
  La  La2  1  0.52981200  0.17036500  0.58459900  1
  La  La3  1  0.02981200  0.32963500  0.91540100  1
  La  La4  1  0.02981200  0.32963500  0.58459900  1
  La  La5  1  0.52981200  0.17036500  0.91540100  1
  La  La6  1  0.47018800  0.82963500  0.41540100  1
  La  La7  1  0.97018800  0.67036500  0.08459900  1
  B  B0  1  0.81814900  0.95160200  0.53617100  1
  B  B1  1  0.47815900  0.89220500  0.75000000  1
  B  B2  1  0.97815900  0.60779500  0.75000000  1
  B  B3  1  0.02184100  0.39220500  0.25000000  1
  B  B4  1  0.52184100  0.10779500  0.25000000  1
  B  B5  1  0.21849400  0.13936100  0.75000000  1
  B  B6  1  0.71849400  0.36063900  0.75000000  1
  B  B7  1  0.28150600  0.63936100  0.25000000  1
  B  B8  1  0.78150600  0.86063900  0.25000000  1
  B  B9  1  0.81814900  0.95160200  0.96382900  1
  B  B10  1  0.31814900  0.54839800  0.53617100  1
  B  B11  1  0.68185100  0.45160200  0.03617100  1
  B  B12  1  0.18185100  0.04839800  0.46382900  1
  B  B13  1  0.18185100  0.04839800  0.03617100  1
  B  B14  1  0.68185100  0.45160200  0.46382900  1
  B  B15  1  0.31814900  0.54839800  0.96382900  1
  O  O0  1  0.60944300  0.31186000  0.46651700  1
  O  O1  1  0.17250600  0.52217400  0.00838100  1
  O  O2  1  0.82749400  0.47782600  0.50838100  1
  O  O3  1  0.32749400  0.02217400  0.99161900  1
  O  O4  1  0.39941200  0.75591200  0.75000000  1
  O  O5  1  0.62333300  0.56384300  0.08434800  1
  O  O6  1  0.12333300  0.93615700  0.41565200  1
  O  O7  1  0.87666700  0.06384300  0.91565200  1
  O  O8  1  0.37666700  0.43615700  0.58434800  1
  O  O9  1  0.37666700  0.43615700  0.91565200  1
  O  O10  1  0.87666700  0.06384300  0.58434800  1
  O  O11  1  0.12333300  0.93615700  0.08434800  1
  O  O12  1  0.62333300  0.56384300  0.41565200  1
  O  O13  1  0.85195500  0.99747700  0.25000000  1
  O  O14  1  0.35195500  0.50252300  0.25000000  1
  O  O15  1  0.64804500  0.49747700  0.75000000  1
  O  O16  1  0.14804500  0.00252300  0.75000000  1
  O  O17  1  0.60058800  0.24408800  0.25000000  1
  O  O18  1  0.10058800  0.25591200  0.25000000  1
  O  O19  1  0.89941200  0.74408800  0.75000000  1
  O  O20  1  0.97400800  0.45726000  0.17773300  1
  O  O21  1  0.47400800  0.04274000  0.32226700  1
  O  O22  1  0.52599200  0.95726000  0.82226700  1
  O  O23  1  0.02599200  0.54274000  0.67773300  1
  O  O24  1  0.02599200  0.54274000  0.82226700  1
  O  O25  1  0.52599200  0.95726000  0.67773300  1
  O  O26  1  0.47400800  0.04274000  0.17773300  1
  O  O27  1  0.97400800  0.45726000  0.32226700  1
  O  O28  1  0.89055700  0.81186000  0.53348300  1
  O  O29  1  0.39055700  0.68814000  0.96651700  1
  O  O30  1  0.67250600  0.97782600  0.49161900  1
  O  O31  1  0.10944300  0.18814000  0.03348300  1
  O  O32  1  0.10944300  0.18814000  0.46651700  1
  O  O33  1  0.60944300  0.31186000  0.03348300  1
  O  O34  1  0.39055700  0.68814000  0.53348300  1
  O  O35  1  0.89055700  0.81186000  0.96651700  1
  O  O36  1  0.75175400  0.78906200  0.17744900  1
  O  O37  1  0.25175400  0.71093800  0.32255100  1
  O  O38  1  0.74824600  0.28906200  0.82255100  1
  O  O39  1  0.24824600  0.21093800  0.67744900  1
  O  O40  1  0.24824600  0.21093800  0.82255100  1
  O  O41  1  0.74824600  0.28906200  0.67744900  1
  O  O42  1  0.25175400  0.71093800  0.17744900  1
  O  O43  1  0.75175400  0.78906200  0.32255100  1
  O  O44  1  0.67250600  0.97782600  0.00838100  1
  O  O45  1  0.17250600  0.52217400  0.49161900  1
  O  O46  1  0.82749400  0.47782600  0.99161900  1
  O  O47  1  0.32749400  0.02217400  0.50838100  1
loop_
_geom_bond_atom_site_label_1
_geom_bond_atom_site_label_2
_geom_bond_distance
_geom_bond_site_symmetry_2
Ba0 O15 2.593219 1_555
Ba0 O4 2.681655 1_555
Ba0 O40 2.695945 1_555
Ba0 O39 2.695945 1_555
Ba0 O23 2.746077 1_555
Ba0 O24 2.746077 1_555
Ba0 O8 2.841208 1_555
Ba0 O9 2.841208 1_555
Ba1 O16 2.593219 1_655
Ba1 O19 2.681655 1_545
Ba1 O41 2.695945 1_555
Ba1 O38 2.695945 1_555
Ba1 O25 2.746077 1_545
Ba1 O22 2.746077 1_545
Ba1 O10 2.841208 1_555
Ba1 O7 2.841208 1_555
Ba2 O13 2.593219 1_455
Ba2 O18 2.681655 1_565
Ba2 O42 2.695945 1_555
Ba2 O37 2.695945 1_555
Ba2 O26 2.746077 1_565
Ba2 O21 2.746077 1_565
Ba2 O11 2.841208 1_555
Ba2 O6 2.841208 1_555
Ba3 O14 2.593219 1_555
Ba3 O17 2.681655 1_555
Ba3 O43 2.695945 1_555
Ba3 O36 2.695945 1_555
Ba3 O27 2.746077 1_555
Ba3 O20 2.746077 1_555
Ba3 O5 2.841208 1_555
Ba3 O12 2.841208 1_555
Ba4 O15 2.577863 1_555
Ba4 O35 2.695529 1_555
Ba4 O29 2.737863 1_555
Ba4 O46 2.810593 1_555
Ba4 O19 2.891218 1_555
Ba4 O22 3.106656 1_555
Ba4 O24 3.113859 1_655
Ba4 O9 3.166181 1_555
Ba4 O4 3.180361 1_555
Ba5 O16 2.577863 1_565
Ba5 O34 2.695529 1_555
Ba5 O28 2.737863 1_455
Ba5 O47 2.810593 1_565
Ba5 O4 2.891218 1_555
Ba5 O23 3.106656 1_555
Ba5 O25 3.113859 1_555
Ba5 O10 3.166181 1_465
Ba5 O19 3.180361 1_455
Ba6 O13 2.577863 1_545
Ba6 O33 2.695529 1_555
Ba6 O31 2.737863 1_655
Ba6 O44 2.810593 1_545
Ba6 O17 2.891218 1_555
Ba6 O20 3.106656 1_555
Ba6 O26 3.113859 1_555
Ba6 O11 3.166181 1_645
Ba6 O18 3.180361 1_655
Ba7 O14 2.577863 1_555
Ba7 O32 2.695529 1_555
Ba7 O0 2.737863 1_555
Ba7 O45 2.810593 1_555
Ba7 O18 2.891218 1_555
Ba7 O21 3.106656 1_555
Ba7 O27 3.113859 1_455
Ba7 O12 3.166181 1_555
Ba7 O17 3.180361 1_555
Ba8 O14 2.577863 1_555
Ba8 O31 2.695529 1_555
Ba8 O33 2.737863 1_555
Ba8 O1 2.810593 1_555
Ba8 O18 2.891218 1_555
Ba8 O26 3.106656 1_555
Ba8 O20 3.113859 1_455
Ba8 O5 3.166181 1_555
Ba8 O17 3.180361 1_555
Ba9 O13 2.577863 1_545
Ba9 O0 2.695529 1_555
Ba9 O32 2.737863 1_655
Ba9 O30 2.810593 1_545
Ba9 O17 2.891218 1_555
Ba9 O27 3.106656 1_555
Ba9 O21 3.113859 1_555
Ba9 O6 3.166181 1_645
Ba9 O18 3.180361 1_655
Ba10 O15 2.577863 1_555
Ba10 O28 2.695529 1_555
Ba10 O34 2.737863 1_555
Ba10 O2 2.810593 1_555
Ba10 O19 2.891218 1_555
Ba10 O25 3.106656 1_555
Ba10 O23 3.113859 1_655
Ba10 O8 3.166181 1_555
Ba10 O4 3.180361 1_555
Ba11 O16 2.577863 1_565
Ba11 O29 2.695529 1_555
Ba11 O35 2.737863 1_455
Ba11 O3 2.810593 1_565
Ba11 O4 2.891218 1_555
Ba11 O24 3.106656 1_555
Ba11 O22 3.113859 1_555
Ba11 O7 3.166181 1_465
Ba11 O19 3.180361 1_455
La0 O28 2.452535 1_555
La0 O45 2.458242 1_655
La0 O27 2.490169 1_555
La0 O43 2.573947 1_555
La0 O2 2.606245 1_555
La0 O6 2.698930 1_655
La0 O37 2.756203 1_655
La0 O12 2.920639 1_555
La1 O29 2.452535 1_554
La1 O44 2.458242 1_555
La1 O26 2.490169 1_565
La1 O42 2.573947 1_555
La1 O3 2.606245 1_564
La1 O5 2.698930 1_555
La1 O36 2.756203 1_555
La1 O11 2.920639 1_555
La2 O0 2.452535 1_555
La2 O47 2.458242 1_555
La2 O25 2.490169 1_545
La2 O41 2.573947 1_555
La2 O30 2.606245 1_545
La2 O8 2.698930 1_555
La2 O39 2.756203 1_555
La2 O10 2.920639 1_555
La3 O31 2.452535 1_556
La3 O46 2.458242 1_455
La3 O24 2.490169 1_555
La3 O40 2.573947 1_555
La3 O1 2.606245 1_556
La3 O7 2.698930 1_455
La3 O38 2.756203 1_455
La3 O9 2.920639 1_555
La4 O32 2.452535 1_555
La4 O2 2.458242 1_455
La4 O23 2.490169 1_555
La4 O39 2.573947 1_555
La4 O45 2.606245 1_555
La4 O10 2.698930 1_455
La4 O41 2.756203 1_455
La4 O8 2.920639 1_555
La5 O33 2.452535 1_556
La5 O3 2.458242 1_555
La5 O22 2.490169 1_545
La5 O38 2.573947 1_555
La5 O44 2.606245 1_546
La5 O9 2.698930 1_555
La5 O40 2.756203 1_555
La5 O7 2.920639 1_555
La6 O34 2.452535 1_555
La6 O30 2.458242 1_555
La6 O21 2.490169 1_565
La6 O37 2.573947 1_555
La6 O47 2.606245 1_565
La6 O12 2.698930 1_555
La6 O43 2.756203 1_555
La6 O6 2.920639 1_555
La7 O35 2.452535 1_554
La7 O1 2.458242 1_655
La7 O20 2.490169 1_555
La7 O36 2.573947 1_555
La7 O46 2.606245 1_554
La7 O11 2.698930 1_655
La7 O42 2.756203 1_655
La7 O5 2.920639 1_555
B0 O10 1.382727 1_565
B0 O28 1.391849 1_555
B0 O30 1.400445 1_555
B1 O4 1.384737 1_555
B1 O22 1.406794 1_555
B1 O25 1.406794 1_555
B2 O19 1.384737 1_555
B2 O23 1.406794 1_655
B2 O24 1.406794 1_655
B3 O18 1.384737 1_555
B3 O20 1.406794 1_455
B3 O27 1.406794 1_455
B4 O17 1.384737 1_555
B4 O26 1.406794 1_555
B4 O21 1.406794 1_555
B5 O16 1.360712 1_555
B5 O39 1.405484 1_555
B5 O40 1.405484 1_555
B6 O15 1.360712 1_555
B6 O38 1.405484 1_555
B6 O41 1.405484 1_555
B7 O14 1.360712 1_555
B7 O37 1.405484 1_555
B7 O42 1.405484 1_555
B8 O13 1.360712 1_555
B8 O43 1.405484 1_555
B8 O36 1.405484 1_555
B9 O7 1.382727 1_565
B9 O35 1.391849 1_555
B9 O44 1.400445 1_556
B10 O8 1.382727 1_555
B10 O34 1.391849 1_555
B10 O45 1.400445 1_555
B11 O5 1.382727 1_555
B11 O33 1.391849 1_555
B11 O46 1.400445 1_554
B12 O6 1.382727 1_545
B12 O32 1.391849 1_555
B12 O47 1.400445 1_555
B13 O11 1.382727 1_545
B13 O31 1.391849 1_555
B13 O3 1.400445 1_554
B14 O12 1.382727 1_555
B14 O0 1.391849 1_555
B14 O2 1.400445 1_555
B15 O9 1.382727 1_555
B15 O29 1.391849 1_555
B15 O1 1.400445 1_556
