# generated using pymatgen
data_Er2Ga10Os3
_symmetry_space_group_name_H-M   'P 1'
_cell_length_a   8.80652877
_cell_length_b   8.80652877
_cell_length_c   6.35215335
_cell_angle_alpha   90.00000000
_cell_angle_beta   90.00000000
_cell_angle_gamma   90.00000000
_symmetry_Int_Tables_number   1
_chemical_formula_structural   Er2Ga10Os3
_chemical_formula_sum   'Er4 Ga20 Os6'
_cell_volume   492.64092895
_cell_formula_units_Z   2
loop_
 _symmetry_equiv_pos_site_id
 _symmetry_equiv_pos_as_xyz
  1  'x, y, z'
loop_
 _atom_site_type_symbol
 _atom_site_label
 _atom_site_symmetry_multiplicity
 _atom_site_fract_x
 _atom_site_fract_y
 _atom_site_fract_z
 _atom_site_occupancy
  Er  Er0  1  0.68273888  0.18273888  0.00000000  1
  Er  Er1  1  0.31726112  0.81726112  0.00000000  1
  Er  Er2  1  0.81726112  0.68273888  0.00000000  1
  Er  Er3  1  0.18273888  0.31726112  0.00000000  1
  Ga  Ga0  1  0.93895764  0.20694747  0.29320589  1
  Ga  Ga1  1  0.70694747  0.43895764  0.29320589  1
  Ga  Ga2  1  0.50000000  -0.00000000  0.28402053  1
  Ga  Ga3  1  0.56104236  0.70694747  0.70679411  1
  Ga  Ga4  1  0.29305253  0.56104236  0.70679411  1
  Ga  Ga5  1  0.79305253  0.93895764  0.29320589  1
  Ga  Ga6  1  0.93895764  0.20694747  0.70679411  1
  Ga  Ga7  1  0.29305253  0.56104236  0.29320589  1
  Ga  Ga8  1  0.06104236  0.79305253  0.29320589  1
  Ga  Ga9  1  0.70694747  0.43895764  0.70679411  1
  Ga  Ga10  1  0.43895764  0.29305253  0.70679411  1
  Ga  Ga11  1  0.06104236  0.79305253  0.70679411  1
  Ga  Ga12  1  0.20694747  0.06104236  0.70679411  1
  Ga  Ga13  1  0.79305253  0.93895764  0.70679411  1
  Ga  Ga14  1  0.20694747  0.06104236  0.29320589  1
  Ga  Ga15  1  -0.00000000  0.50000000  0.71597947  1
  Ga  Ga16  1  -0.00000000  0.50000000  0.28402053  1
  Ga  Ga17  1  0.56104236  0.70694747  0.29320589  1
  Ga  Ga18  1  0.43895764  0.29305253  0.29320589  1
  Ga  Ga19  1  0.50000000  -0.00000000  0.71597947  1
  Os  Os0  1  0.67869462  0.17869462  0.50000000  1
  Os  Os1  1  0.82130538  0.67869462  0.50000000  1
  Os  Os2  1  0.17869462  0.32130538  0.50000000  1
  Os  Os3  1  -0.00000000  -0.00000000  0.00000000  1
  Os  Os4  1  0.32130538  0.82130538  0.50000000  1
  Os  Os5  1  0.50000000  0.50000000  0.00000000  1
loop_
_geom_bond_atom_site_label_1
_geom_bond_atom_site_label_2
_geom_bond_distance
_geom_bond_site_symmetry_2
Er0 Ga2 2.904237 1_555
Er0 Ga19 2.904237 1_554
Er0 Ga9 2.933538 1_554
Er0 Ga6 2.933538 1_554
Er0 Ga1 2.933538 1_555
Er0 Ga0 2.933538 1_555
Er0 Ga13 3.003610 1_544
Er0 Ga5 3.003610 1_545
Er0 Ga10 3.003610 1_554
Er0 Ga18 3.003610 1_555
Er0 Os0 3.176476 1_555
Er0 Os0 3.176476 1_554
Er0 Os3 3.224298 1_655
Er0 Os5 3.224298 1_555
Er1 Ga2 2.904237 1_565
Er1 Ga19 2.904237 1_564
Er1 Ga7 2.933538 1_555
Er1 Ga8 2.933538 1_555
Er1 Ga4 2.933538 1_554
Er1 Ga11 2.933538 1_554
Er1 Ga3 3.003610 1_554
Er1 Ga17 3.003610 1_555
Er1 Ga12 3.003610 1_564
Er1 Ga14 3.003610 1_565
Er1 Os4 3.176476 1_555
Er1 Os4 3.176476 1_554
Er1 Os5 3.224298 1_555
Er1 Os3 3.224298 1_565
Er2 Ga15 2.904237 1_654
Er2 Ga16 2.904237 1_655
Er2 Ga13 2.933538 1_554
Er2 Ga3 2.933538 1_554
Er2 Ga17 2.933538 1_555
Er2 Ga5 2.933538 1_555
Er2 Ga9 3.003610 1_554
Er2 Ga1 3.003610 1_555
Er2 Ga11 3.003610 1_654
Er2 Ga8 3.003610 1_655
Er2 Os1 3.176476 1_555
Er2 Os1 3.176476 1_554
Er2 Os5 3.224298 1_555
Er2 Os3 3.224298 1_665
Er3 Ga16 2.904237 1_555
Er3 Ga15 2.904237 1_554
Er3 Ga12 2.933538 1_554
Er3 Ga10 2.933538 1_554
Er3 Ga18 2.933538 1_555
Er3 Ga14 2.933538 1_555
Er3 Ga7 3.003610 1_555
Er3 Ga4 3.003610 1_554
Er3 Ga6 3.003610 1_454
Er3 Ga0 3.003610 1_455
Er3 Os2 3.176476 1_555
Er3 Os2 3.176476 1_554
Er3 Os3 3.224298 1_555
Er3 Os5 3.224298 1_555
Ga0 Ga6 2.627176 1_555
Ga0 Ga16 2.636814 1_655
Ga0 Os0 2.653441 1_555
Ga0 Os3 2.660698 1_655
Ga0 Os2 2.682748 1_655
Ga0 Ga14 2.687173 1_655
Ga0 Ga5 2.687173 1_545
Ga0 Ga1 2.889527 1_555
Ga1 Ga9 2.627176 1_555
Ga1 Ga16 2.636814 1_655
Ga1 Os0 2.653441 1_555
Ga1 Os5 2.660698 1_555
Ga1 Os1 2.682748 1_555
Ga1 Ga18 2.687173 1_555
Ga1 Ga17 2.687173 1_555
Ga2 Os4 2.614410 1_545
Ga2 Os0 2.614410 1_555
Ga2 Ga5 2.636814 1_545
Ga3 Os1 2.653441 1_555
Ga3 Os5 2.660698 1_556
Ga3 Os4 2.682748 1_555
Ga3 Ga4 2.687173 1_555
Ga3 Ga9 2.687173 1_555
Ga4 Ga7 2.627176 1_555
Ga4 Os4 2.653441 1_555
Ga4 Os5 2.660698 1_556
Ga4 Os2 2.682748 1_555
Ga5 Os1 2.653441 1_555
Ga5 Os3 2.660698 1_665
Ga5 Os0 2.682748 1_565
Ga5 Ga8 2.687173 1_655
Ga6 Os0 2.653441 1_555
Ga6 Os3 2.660698 1_656
Ga6 Os2 2.682748 1_655
Ga6 Ga9 2.889527 1_555
Ga7 Os4 2.653441 1_555
Ga7 Os5 2.660698 1_555
Ga7 Os2 2.682748 1_555
Ga7 Ga8 2.889527 1_555
Ga8 Os4 2.653441 1_555
Ga8 Os3 2.660698 1_565
Ga8 Os1 2.682748 1_455
Ga9 Os0 2.653441 1_555
Ga9 Os5 2.660698 1_556
Ga9 Os1 2.682748 1_555
Ga10 Ga18 2.627176 1_555
Ga10 Ga19 2.636814 1_555
Ga10 Os2 2.653441 1_555
Ga10 Os5 2.660698 1_556
Ga10 Os0 2.682748 1_555
Ga10 Ga4 2.687173 1_555
Ga10 Ga9 2.687173 1_555
Ga10 Ga12 2.889527 1_555
Ga11 Ga8 2.627176 1_555
Ga11 Ga15 2.636814 1_555
Ga11 Os4 2.653441 1_555
Ga11 Os3 2.660698 1_566
Ga11 Os1 2.682748 1_455
Ga11 Ga13 2.687173 1_455
Ga11 Ga12 2.687173 1_565
Ga11 Ga4 2.889527 1_555
Ga12 Ga14 2.627176 1_555
Ga12 Ga19 2.636814 1_555
Ga12 Os2 2.653441 1_555
Ga12 Os3 2.660698 1_556
Ga12 Os4 2.682748 1_545
Ga12 Ga6 2.687173 1_455
Ga13 Ga5 2.627176 1_555
Ga13 Ga19 2.636814 1_565
Ga13 Os1 2.653441 1_555
Ga13 Os3 2.660698 1_666
Ga13 Os0 2.682748 1_565
Ga13 Ga6 2.687173 1_565
Ga13 Ga3 2.889527 1_555
Ga14 Ga2 2.636814 1_555
Ga14 Os2 2.653441 1_555
Ga14 Os3 2.660698 1_555
Ga14 Os4 2.682748 1_545
Ga14 Ga8 2.687173 1_545
Ga14 Ga18 2.889527 1_555
Ga15 Os2 2.614410 1_555
Ga15 Os1 2.614410 1_455
Ga15 Ga9 2.636814 1_455
Ga15 Ga4 2.636814 1_555
Ga15 Ga6 2.636814 1_455
Ga15 Ga16 2.743869 1_555
Ga16 Os2 2.614410 1_555
Ga16 Os1 2.614410 1_455
Ga16 Ga7 2.636814 1_555
Ga16 Ga8 2.636814 1_555
Ga17 Ga3 2.627176 1_555
Ga17 Ga2 2.636814 1_565
Ga17 Os1 2.653441 1_555
Ga17 Os5 2.660698 1_555
Ga17 Os4 2.682748 1_555
Ga17 Ga7 2.687173 1_555
Ga17 Ga5 2.889527 1_555
Ga18 Ga2 2.636814 1_555
Ga18 Os2 2.653441 1_555
Ga18 Os5 2.660698 1_555
Ga18 Os0 2.682748 1_555
Ga18 Ga7 2.687173 1_555
Ga19 Os0 2.614410 1_555
Ga19 Os4 2.614410 1_545
Ga19 Ga3 2.636814 1_545
Ga19 Ga2 2.743869 1_555
