# generated using pymatgen
data_Sr3Nb2CoO9
_symmetry_space_group_name_H-M   'P 1'
_cell_length_a   5.54593400
_cell_length_b   11.52748200
_cell_length_c   16.78986415
_cell_angle_alpha   63.04230095
_cell_angle_beta   90.00000000
_cell_angle_gamma   90.00000000
_symmetry_Int_Tables_number   1
_chemical_formula_structural   Sr3Nb2CoO9
_chemical_formula_sum   'Sr12 Nb8 Co4 O36'
_cell_volume   956.75433566
_cell_formula_units_Z   4
loop_
 _symmetry_equiv_pos_site_id
 _symmetry_equiv_pos_as_xyz
  1  'x, y, z'
loop_
 _atom_site_type_symbol
 _atom_site_label
 _atom_site_symmetry_multiplicity
 _atom_site_fract_x
 _atom_site_fract_y
 _atom_site_fract_z
 _atom_site_occupancy
  Sr  Sr0  1  0.99566000  0.66564100  0.29012200  1
  Sr  Sr1  1  0.49162300  0.32289600  0.56426200  1
  Sr  Sr2  1  0.99072000  0.25620400  0.43871200  1
  Sr  Sr3  1  0.49566000  0.33435900  0.20987800  1
  Sr  Sr4  1  0.00434000  0.33435900  0.70987800  1
  Sr  Sr5  1  0.49072000  0.74379600  0.06128800  1
  Sr  Sr6  1  0.00837700  0.32289600  0.06426200  1
  Sr  Sr7  1  0.50837700  0.67710400  0.43573800  1
  Sr  Sr8  1  0.50928000  0.25620400  0.93871200  1
  Sr  Sr9  1  0.99162300  0.67710400  0.93573800  1
  Sr  Sr10  1  0.00928000  0.74379600  0.56128800  1
  Sr  Sr11  1  0.50434000  0.66564100  0.79012200  1
  Nb  Nb0  1  0.50746500  0.00405400  0.32628800  1
  Nb  Nb1  1  0.00746500  0.99594600  0.17371200  1
  Nb  Nb2  1  0.99253500  0.00405400  0.82628800  1
  Nb  Nb3  1  0.99690400  0.48502300  0.83794600  1
  Nb  Nb4  1  0.49690400  0.51497700  0.66205400  1
  Nb  Nb5  1  0.00309600  0.51497700  0.16205400  1
  Nb  Nb6  1  0.49253500  0.99594600  0.67371200  1
  Nb  Nb7  1  0.50309600  0.48502300  0.33794600  1
  Co  Co0  1  0.00000000  0.00000000  0.00000000  1
  Co  Co1  1  0.50000000  0.00000000  0.50000000  1
  Co  Co2  1  0.00000000  0.50000000  0.50000000  1
  Co  Co3  1  0.50000000  0.50000000  0.00000000  1
  O  O0  1  0.25535700  0.53804200  0.56843700  1
  O  O1  1  0.94944000  0.67777500  0.79006800  1
  O  O2  1  0.73652700  0.05749000  0.73343100  1
  O  O3  1  0.44439700  0.28907500  0.39120400  1
  O  O4  1  0.79236800  0.46989100  0.26900400  1
  O  O5  1  0.55560300  0.71092500  0.60879600  1
  O  O6  1  0.74464300  0.46195800  0.43156300  1
  O  O7  1  0.75434300  0.50491300  0.58421500  1
  O  O8  1  0.70538500  0.05074100  0.56906900  1
  O  O9  1  0.74565700  0.50491300  0.08421500  1
  O  O10  1  0.27155600  0.99334400  0.58462100  1
  O  O11  1  0.76347300  0.05749000  0.23343100  1
  O  O12  1  0.20538500  0.94925900  0.93093100  1
  O  O13  1  0.46088000  0.30798200  0.06926800  1
  O  O14  1  0.23652700  0.94251000  0.76656900  1
  O  O15  1  0.72844400  0.00665600  0.41537900  1
  O  O16  1  0.26347300  0.94251000  0.26656900  1
  O  O17  1  0.24565700  0.49508700  0.41578500  1
  O  O18  1  0.05560300  0.28907500  0.89120400  1
  O  O19  1  0.05056000  0.32222500  0.20993200  1
  O  O20  1  0.75535700  0.46195800  0.93156300  1
  O  O21  1  0.70763200  0.46989100  0.76900400  1
  O  O22  1  0.25434300  0.49508700  0.91578500  1
  O  O23  1  0.77155600  0.00665600  0.91537900  1
  O  O24  1  0.29236800  0.53010900  0.23099600  1
  O  O25  1  0.55056000  0.67777500  0.29006800  1
  O  O26  1  0.22844400  0.99334400  0.08462100  1
  O  O27  1  0.03912000  0.30798200  0.56926800  1
  O  O28  1  0.96088000  0.69201800  0.43073200  1
  O  O29  1  0.24464300  0.53804200  0.06843700  1
  O  O30  1  0.94439700  0.71092500  0.10879600  1
  O  O31  1  0.53912000  0.69201800  0.93073200  1
  O  O32  1  0.29461500  0.94925900  0.43093100  1
  O  O33  1  0.20763200  0.53010900  0.73099600  1
  O  O34  1  0.79461500  0.05074100  0.06906900  1
  O  O35  1  0.44944000  0.32222500  0.70993200  1
loop_
_geom_bond_atom_site_label_1
_geom_bond_atom_site_label_2
_geom_bond_distance
_geom_bond_site_symmetry_2
Nb0 O15 1.944482 1_555
Nb0 O32 1.968020 1_545
Nb0 O11 1.988773 1_555
Nb0 O16 1.996165 1_545
Nb1 O26 1.944482 1_555
Nb1 O34 1.968020 1_465
Nb1 O16 1.988773 1_555
Nb1 O11 1.996165 1_465
Nb2 O23 1.944482 1_555
Nb2 O12 1.968020 1_645
Nb2 O2 1.988773 1_555
Nb2 O14 1.996165 1_645
Nb3 O22 1.974176 1_655
Nb3 O20 1.989203 1_555
Nb3 O33 2.003555 1_655
Nb3 O1 2.008257 1_555
Nb3 O21 2.031523 1_555
Nb3 O18 2.043625 1_655
Nb4 O7 1.974176 1_555
Nb4 O0 1.989203 1_555
Nb4 O21 2.003555 1_555
Nb4 O35 2.008257 1_555
Nb4 O33 2.031523 1_555
Nb4 O5 2.043625 1_555
Nb5 O9 1.974176 1_455
Nb5 O29 1.989203 1_555
Nb5 O4 2.003555 1_455
Nb5 O19 2.008257 1_555
Nb5 O24 2.031523 1_555
Nb5 O30 2.043625 1_455
Nb6 O10 1.944482 1_555
Nb6 O8 1.968020 1_565
Nb6 O14 1.988773 1_555
Nb6 O2 1.996165 1_565
Nb7 O17 1.974176 1_555
Nb7 O6 1.989203 1_555
Nb7 O24 2.003555 1_555
Nb7 O25 2.008257 1_555
Nb7 O4 2.031523 1_555
Nb7 O3 2.043625 1_555
Co0 O26 1.879036 1_545
Co0 O23 1.879036 1_454
Co0 O34 1.897200 1_455
Co0 O12 1.897200 1_544
Co1 O15 1.879036 1_555
Co1 O10 1.879036 1_545
Co1 O8 1.897200 1_555
Co1 O32 1.897200 1_545
Co2 O7 1.982730 1_455
Co2 O17 1.982730 1_555
Co2 O27 1.991266 1_555
Co2 O28 1.991266 1_455
Co2 O0 1.993760 1_555
Co2 O6 1.993760 1_455
Co3 O9 1.982730 1_555
Co3 O22 1.982730 1_554
Co3 O31 1.991266 1_554
Co3 O13 1.991266 1_555
Co3 O29 1.993760 1_555
Co3 O20 1.993760 1_554
O0 Sr7 2.502908 1_555
O0 Sr10 2.691528 1_555
O0 Sr1 2.833782 1_555
O0 Sr4 2.834609 1_555
O1 Sr9 2.453462 1_555
O1 Sr11 2.472432 1_555
O1 Sr11 3.080597 1_655
O3 Sr2 2.614644 1_455
O3 Sr3 2.860250 1_555
O3 Sr2 3.112220 1_555
O3 Sr1 3.112927 1_555
O4 Sr0 2.685902 1_555
O4 Sr3 2.745971 1_555
O4 Sr2 3.005505 1_555
O5 Sr10 2.614644 1_655
O5 Sr11 2.860250 1_555
O5 Sr10 3.112220 1_555
O5 Sr7 3.112927 1_555
O6 Sr1 2.502908 1_555
O6 Sr2 2.691528 1_555
O6 Sr7 2.833782 1_555
O6 Sr0 2.834609 1_555
O7 Sr4 2.545241 1_655
O7 Sr1 2.697202 1_555
O7 Sr7 2.743890 1_555
O7 Sr10 2.961263 1_655
O8 Sr2 2.864283 1_555
O9 Sr3 2.545241 1_555
O9 Sr6 2.697202 1_655
O9 Sr9 2.743890 1_554
O9 Sr5 2.961263 1_555
O12 Sr5 2.864283 1_556
O13 Sr6 2.514233 1_555
O13 Sr3 2.520710 1_555
O13 Sr8 2.533669 1_554
O13 Sr6 3.040253 1_655
O17 Sr0 2.545241 1_455
O17 Sr7 2.697202 1_555
O17 Sr1 2.743890 1_555
O17 Sr2 2.961263 1_455
O18 Sr8 2.614644 1_555
O18 Sr4 2.860250 1_555
O18 Sr8 3.112220 1_455
O18 Sr6 3.112927 1_556
O19 Sr6 2.453462 1_555
O19 Sr3 2.472432 1_555
O19 Sr3 3.080597 1_455
O20 Sr6 2.502908 1_656
O20 Sr8 2.691528 1_555
O20 Sr9 2.833782 1_555
O20 Sr11 2.834609 1_555
O21 Sr11 2.685902 1_555
O21 Sr4 2.745971 1_655
O21 Sr8 3.005505 1_555
O22 Sr11 2.545241 1_555
O22 Sr9 2.697202 1_455
O22 Sr6 2.743890 1_556
O22 Sr8 2.961263 1_555
O24 Sr3 2.685902 1_555
O24 Sr0 2.745971 1_455
O24 Sr5 3.005505 1_555
O25 Sr7 2.453462 1_555
O25 Sr0 2.472432 1_555
O25 Sr0 3.080597 1_455
O27 Sr1 2.514233 1_555
O27 Sr4 2.520710 1_555
O27 Sr2 2.533669 1_455
O27 Sr1 3.040253 1_455
O28 Sr7 2.514233 1_555
O28 Sr0 2.520710 1_555
O28 Sr10 2.533669 1_655
O28 Sr7 3.040253 1_655
O29 Sr9 2.502908 1_454
O29 Sr5 2.691528 1_555
O29 Sr6 2.833782 1_555
O29 Sr3 2.834609 1_555
O30 Sr5 2.614644 1_555
O30 Sr0 2.860250 1_555
O30 Sr5 3.112220 1_655
O30 Sr9 3.112927 1_554
O31 Sr9 2.514233 1_555
O31 Sr11 2.520710 1_555
O31 Sr5 2.533669 1_556
O31 Sr9 3.040253 1_455
O32 Sr10 2.864283 1_555
O33 Sr4 2.685902 1_555
O33 Sr11 2.745971 1_555
O33 Sr10 3.005505 1_555
O34 Sr8 2.864283 1_554
O35 Sr1 2.453462 1_555
O35 Sr4 2.472432 1_555
O35 Sr4 3.080597 1_655
