# generated using pymatgen
data_AgH6C4(NO)2
_symmetry_space_group_name_H-M   'P 1'
_cell_length_a   6.96011500
_cell_length_b   6.49991700
_cell_length_c   12.64073644
_cell_angle_alpha   87.15790007
_cell_angle_beta   90.00000000
_cell_angle_gamma   90.00000000
_symmetry_Int_Tables_number   1
_chemical_formula_structural   AgH6C4(NO)2
_chemical_formula_sum   'Ag4 H24 C16 N8 O8'
_cell_volume   571.16564901
_cell_formula_units_Z   4
loop_
 _symmetry_equiv_pos_site_id
 _symmetry_equiv_pos_as_xyz
  1  'x, y, z'
loop_
 _atom_site_type_symbol
 _atom_site_label
 _atom_site_symmetry_multiplicity
 _atom_site_fract_x
 _atom_site_fract_y
 _atom_site_fract_z
 _atom_site_occupancy
  Ag  Ag0  1  0.00000000  0.00000000  0.50000000  1
  Ag  Ag1  1  0.00000000  0.00000000  0.00000000  1
  Ag  Ag2  1  0.30067900  0.50000000  0.75000000  1
  Ag  Ag3  1  0.69932100  0.50000000  0.25000000  1
  H  H0  1  0.97003900  0.13699100  0.74930700  1
  H  H1  1  0.97003900  0.86300900  0.75069300  1
  H  H2  1  0.02996100  0.86300900  0.25069300  1
  H  H3  1  0.02996100  0.13699100  0.24930700  1
  H  H4  1  0.54392000  0.20377500  0.58321800  1
  H  H5  1  0.54392000  0.79622500  0.91678200  1
  H  H6  1  0.45608000  0.79622500  0.41678200  1
  H  H7  1  0.45608000  0.20377500  0.08321800  1
  H  H8  1  0.72654800  0.33023200  0.65393500  1
  H  H9  1  0.72654800  0.66976800  0.84606500  1
  H  H10  1  0.27345200  0.66976800  0.34606500  1
  H  H11  1  0.27345200  0.33023200  0.15393500  1
  H  H12  1  0.72413400  0.68618900  0.65292100  1
  H  H13  1  0.72413400  0.31381100  0.84707900  1
  H  H14  1  0.27586600  0.31381100  0.34707900  1
  H  H15  1  0.27586600  0.68618900  0.15292100  1
  H  H16  1  0.54177300  0.82947200  0.58413700  1
  H  H17  1  0.54177300  0.17052800  0.91586300  1
  H  H18  1  0.45822700  0.17052800  0.41586300  1
  H  H19  1  0.45822700  0.82947200  0.08413700  1
  H  H20  1  0.29789300  0.00583400  0.67935700  1
  H  H21  1  0.29789300  0.99416600  0.82064300  1
  H  H22  1  0.70210700  0.99416600  0.32064300  1
  H  H23  1  0.70210700  0.00583400  0.17935700  1
  C  C0  1  0.87770600  0.00000000  0.75000000  1
  C  C1  1  0.12229400  0.00000000  0.25000000  1
  C  C2  1  0.63459000  0.19294700  0.65435300  1
  C  C3  1  0.63459000  0.80705300  0.84564700  1
  C  C4  1  0.36541000  0.80705300  0.34564700  1
  C  C5  1  0.36541000  0.19294700  0.15435300  1
  C  C6  1  0.63341500  0.82404900  0.65492400  1
  C  C7  1  0.63341500  0.17595100  0.84507600  1
  C  C8  1  0.36658500  0.17595100  0.34507600  1
  C  C9  1  0.36658500  0.82404900  0.15492400  1
  C  C10  1  0.38962200  0.00000000  0.75000000  1
  C  C11  1  0.61037800  0.00000000  0.25000000  1
  C  C12  1  0.07161700  0.49285700  0.54886100  1
  C  C13  1  0.07161700  0.50714300  0.95113900  1
  C  C14  1  0.92838300  0.50714300  0.45113900  1
  C  C15  1  0.92838300  0.49285700  0.04886100  1
  N  N0  1  0.75780500  0.00818400  0.65291700  1
  N  N1  1  0.75780500  0.99181600  0.84708300  1
  N  N2  1  0.24219500  0.99181600  0.34708300  1
  N  N3  1  0.24219500  0.00818400  0.15291700  1
  N  N4  1  0.50935700  0.18916500  0.74952100  1
  N  N5  1  0.50935700  0.81083500  0.75047900  1
  N  N6  1  0.49064300  0.81083500  0.25047900  1
  N  N7  1  0.49064300  0.18916500  0.24952100  1
  O  O0  1  0.10701000  0.65704200  0.59598400  1
  O  O1  1  0.10701000  0.34295800  0.90401600  1
  O  O2  1  0.89299000  0.34295800  0.40401600  1
  O  O3  1  0.89299000  0.65704200  0.09598400  1
  O  O4  1  0.85688200  0.68157500  0.42398900  1
  O  O5  1  0.85688200  0.31842500  0.07601100  1
  O  O6  1  0.14311800  0.31842500  0.57601100  1
  O  O7  1  0.14311800  0.68157500  0.92398900  1
loop_
_geom_bond_atom_site_label_1
_geom_bond_atom_site_label_2
_geom_bond_distance
_geom_bond_site_symmetry_2
Ag0 O4 2.529125 1_445
Ag0 O6 2.529125 1_555
Ag0 N0 2.567305 1_455
Ag0 N2 2.567305 1_545
Ag0 O0 2.593830 1_545
Ag0 O2 2.593830 1_455
Ag1 O5 2.529125 1_455
Ag1 O7 2.529125 1_544
Ag1 N1 2.567305 1_444
Ag1 N3 2.567305 1_555
Ag1 O1 2.593830 1_554
Ag1 O3 2.593830 1_445
Ag2 N5 2.488535 1_555
Ag2 N4 2.488535 1_555
Ag2 O1 2.540117 1_555
Ag2 O0 2.540117 1_555
Ag2 O6 2.773102 1_555
Ag2 O7 2.773102 1_555
Ag3 N6 2.488535 1_555
Ag3 N7 2.488535 1_555
Ag3 O2 2.540117 1_555
Ag3 O3 2.540117 1_555
Ag3 O5 2.773102 1_555
Ag3 O4 2.773102 1_555
C0 H1 1.097800 1_545
C0 H0 1.097800 1_555
C0 N1 1.482838 1_545
C0 N0 1.482838 1_555
C1 H2 1.097800 1_545
C1 H3 1.097800 1_555
C1 N2 1.482838 1_545
C1 N3 1.482838 1_555
C2 H8 1.097944 1_555
C2 H4 1.097948 1_555
C2 N0 1.476557 1_555
C2 N4 1.484795 1_555
C3 H9 1.097944 1_555
C3 H5 1.097948 1_555
C3 N1 1.476557 1_555
C3 N5 1.484795 1_555
C4 H10 1.097944 1_555
C4 H6 1.097948 1_555
C4 N2 1.476557 1_555
C4 N6 1.484795 1_555
C5 H11 1.097944 1_555
C5 H7 1.097948 1_555
C5 N3 1.476557 1_555
C5 N7 1.484795 1_555
C6 H12 1.097512 1_555
C6 H16 1.098007 1_555
C6 N0 1.476370 1_565
C6 N5 1.483791 1_555
C7 H13 1.097512 1_555
C7 H17 1.098007 1_555
C7 N1 1.476370 1_545
C7 N4 1.483791 1_555
C8 H14 1.097512 1_555
C8 H18 1.098007 1_555
C8 N2 1.476370 1_545
C8 N7 1.483791 1_555
C9 H15 1.097512 1_555
C9 H19 1.098007 1_555
C9 N3 1.476370 1_565
C9 N6 1.483791 1_555
C10 H21 1.096861 1_545
C10 H20 1.096861 1_555
C10 N5 1.485131 1_545
C10 N4 1.485131 1_555
C11 H22 1.096861 1_545
C11 H23 1.096861 1_555
C11 N7 1.485131 1_555
C11 N6 1.485131 1_545
C12 O6 1.269781 1_555
C12 O0 1.271785 1_555
C13 O7 1.269781 1_555
C13 O1 1.271785 1_555
C14 O4 1.269781 1_555
C14 O2 1.271785 1_555
C15 O5 1.269781 1_555
C15 O3 1.271785 1_555
