# generated using pymatgen
data_NaSr2NdTi4O12
_symmetry_space_group_name_H-M   'P 1'
_cell_length_a   5.50411000
_cell_length_b   5.50411000
_cell_length_c   23.65956400
_cell_angle_alpha   90.00000000
_cell_angle_beta   90.00000000
_cell_angle_gamma   90.00000000
_symmetry_Int_Tables_number   1
_chemical_formula_structural   NaSr2NdTi4O12
_chemical_formula_sum   'Na3 Sr6 Nd3 Ti12 O36'
_cell_volume   716.77185955
_cell_formula_units_Z   3
loop_
 _symmetry_equiv_pos_site_id
 _symmetry_equiv_pos_as_xyz
  1  'x, y, z'
loop_
 _atom_site_type_symbol
 _atom_site_label
 _atom_site_symmetry_multiplicity
 _atom_site_fract_x
 _atom_site_fract_y
 _atom_site_fract_z
 _atom_site_occupancy
  Na  Na0  1  0.50000000  0.50000000  0.16586700  1
  Na  Na1  1  0.00000000  0.00000000  0.00000000  1
  Na  Na2  1  0.50000000  0.50000000  0.83413300  1
  Sr  Sr0  1  0.50000000  0.50000000  0.66807700  1
  Sr  Sr1  1  0.00000000  0.00000000  0.50000000  1
  Sr  Sr2  1  0.00000000  0.00000000  0.66771200  1
  Sr  Sr3  1  0.50000000  0.50000000  0.33192300  1
  Sr  Sr4  1  0.50000000  0.50000000  0.50000000  1
  Sr  Sr5  1  0.00000000  0.00000000  0.33228800  1
  Nd  Nd0  1  0.00000000  0.00000000  0.16593900  1
  Nd  Nd1  1  0.50000000  0.50000000  0.00000000  1
  Nd  Nd2  1  0.00000000  0.00000000  0.83406100  1
  Ti  Ti0  1  0.50000000  0.00000000  0.91744300  1
  Ti  Ti1  1  0.50000000  0.00000000  0.08255700  1
  Ti  Ti2  1  0.00000000  0.50000000  0.91744300  1
  Ti  Ti3  1  0.00000000  0.50000000  0.08255700  1
  Ti  Ti4  1  0.50000000  0.00000000  0.58408700  1
  Ti  Ti5  1  0.50000000  0.00000000  0.75273200  1
  Ti  Ti6  1  0.00000000  0.50000000  0.41591300  1
  Ti  Ti7  1  0.00000000  0.50000000  0.58408700  1
  Ti  Ti8  1  0.00000000  0.50000000  0.75273200  1
  Ti  Ti9  1  0.50000000  0.00000000  0.24726800  1
  Ti  Ti10  1  0.50000000  0.00000000  0.41591300  1
  Ti  Ti11  1  0.00000000  0.50000000  0.24726800  1
  O  O0  1  0.00000000  0.50000000  0.16500200  1
  O  O1  1  0.20050200  0.79949800  0.08621400  1
  O  O2  1  0.29929100  0.29929100  0.07923500  1
  O  O3  1  0.50000000  0.00000000  0.00000000  1
  O  O4  1  0.50000000  0.00000000  0.16500200  1
  O  O5  1  0.70070900  0.29929100  0.92076500  1
  O  O6  1  0.70070900  0.70070900  0.07923500  1
  O  O7  1  0.79949800  0.79949800  0.91378600  1
  O  O8  1  0.79949800  0.20050200  0.08621400  1
  O  O9  1  0.00000000  0.50000000  0.83499800  1
  O  O10  1  0.00000000  0.50000000  0.00000000  1
  O  O11  1  0.20799300  0.79200700  0.75483800  1
  O  O12  1  0.20050200  0.20050200  0.91378600  1
  O  O13  1  0.28012800  0.28012800  0.75159700  1
  O  O14  1  0.29929100  0.70070900  0.92076500  1
  O  O15  1  0.50000000  0.00000000  0.66832100  1
  O  O16  1  0.50000000  0.00000000  0.83499800  1
  O  O17  1  0.72444800  0.27555200  0.58432600  1
  O  O18  1  0.71987200  0.71987200  0.75159700  1
  O  O19  1  0.77540100  0.77540100  0.58361400  1
  O  O20  1  0.79200700  0.20799300  0.75483800  1
  O  O21  1  0.00000000  0.50000000  0.50000000  1
  O  O22  1  0.00000000  0.50000000  0.66832100  1
  O  O23  1  0.22459900  0.77540100  0.41638600  1
  O  O24  1  0.22459900  0.22459900  0.58361400  1
  O  O25  1  0.27555200  0.27555200  0.41567400  1
  O  O26  1  0.27555200  0.72444800  0.58432600  1
  O  O27  1  0.50000000  0.00000000  0.33167900  1
  O  O28  1  0.50000000  0.00000000  0.50000000  1
  O  O29  1  0.71987200  0.28012800  0.24840300  1
  O  O30  1  0.72444800  0.72444800  0.41567400  1
  O  O31  1  0.79200700  0.79200700  0.24516200  1
  O  O32  1  0.77540100  0.22459900  0.41638600  1
  O  O33  1  0.00000000  0.50000000  0.33167900  1
  O  O34  1  0.20799300  0.20799300  0.24516200  1
  O  O35  1  0.28012800  0.71987200  0.24840300  1
loop_
_geom_bond_atom_site_label_1
_geom_bond_atom_site_label_2
_geom_bond_distance
_geom_bond_site_symmetry_2
Na0 O6 2.577208 1_555
Na0 O2 2.577208 1_555
Na0 O29 2.596625 1_555
Na0 O35 2.596625 1_555
Na0 O0 2.752131 1_655
Na0 O4 2.752131 1_555
Na0 O4 2.752131 1_565
Na0 O0 2.752131 1_555
Na0 O31 2.947224 1_555
Na0 O34 2.947224 1_555
Na0 O1 2.997742 1_555
Na0 O8 2.997742 1_555
Na1 O12 2.568370 1_554
Na1 O1 2.568370 1_545
Na1 O8 2.568370 1_455
Na1 O7 2.568370 1_444
Na1 O10 2.752055 1_545
Na1 O3 2.752055 1_555
Na1 O10 2.752055 1_555
Na1 O3 2.752055 1_455
Na2 O5 2.577208 1_555
Na2 O14 2.577208 1_555
Na2 O18 2.596625 1_555
Na2 O13 2.596625 1_555
Na2 O9 2.752131 1_555
Na2 O16 2.752131 1_555
Na2 O16 2.752131 1_565
Na2 O9 2.752131 1_655
Na2 O11 2.947224 1_555
Na2 O20 2.947224 1_555
Na2 O7 2.997742 1_555
Na2 O12 2.997742 1_555
Nd0 O1 2.448218 1_545
Nd0 O8 2.448218 1_455
Nd0 O34 2.476795 1_555
Nd0 O31 2.476795 1_445
Nd0 O0 2.752144 1_555
Nd0 O4 2.752144 1_555
Nd0 O0 2.752144 1_545
Nd0 O4 2.752144 1_455
Nd0 O35 2.925966 1_545
Nd0 O29 2.925966 1_455
Nd0 O2 3.104118 1_555
Nd0 O6 3.104118 1_445
Nd1 O6 2.440328 1_555
Nd1 O5 2.440328 1_554
Nd1 O14 2.440328 1_554
Nd1 O2 2.440328 1_555
Nd1 O10 2.752055 1_655
Nd1 O3 2.752055 1_555
Nd1 O10 2.752055 1_555
Nd1 O3 2.752055 1_565
Nd2 O12 2.448218 1_555
Nd2 O7 2.448218 1_445
Nd2 O20 2.476795 1_455
Nd2 O11 2.476795 1_545
Nd2 O16 2.752144 1_555
Nd2 O9 2.752144 1_545
Nd2 O9 2.752144 1_555
Nd2 O16 2.752144 1_455
Nd2 O13 2.925966 1_555
Nd2 O18 2.925966 1_445
Nd2 O5 3.104118 1_455
Nd2 O14 3.104118 1_545
O0 Ti11 1.946378 1_555
O0 Ti3 1.950613 1_555
O1 Ti3 1.985658 1_555
O1 Ti1 1.985658 1_565
O2 Ti3 1.985017 1_555
O2 Ti1 1.985017 1_555
O3 Ti1 1.953263 1_555
O3 Ti0 1.953263 1_554
O4 Ti9 1.946378 1_555
O4 Ti1 1.950613 1_555
O5 Ti0 1.985017 1_555
O5 Ti2 1.985017 1_655
O6 Ti3 1.985017 1_655
O6 Ti1 1.985017 1_565
O7 Ti2 1.985658 1_655
O7 Ti0 1.985658 1_565
O8 Ti1 1.985658 1_555
O8 Ti3 1.985658 1_655
O9 Ti8 1.946378 1_555
O9 Ti2 1.950613 1_555
O10 Ti3 1.953263 1_555
O10 Ti2 1.953263 1_554
O11 Ti8 1.973906 1_555
O11 Ti5 1.973906 1_565
O11 Sr2 2.621150 1_565
O11 Sr0 3.062698 1_555
O12 Ti0 1.985658 1_555
O12 Ti2 1.985658 1_555
O13 Ti5 1.960261 1_555
O13 Ti8 1.960261 1_555
O13 Sr0 2.614178 1_555
O13 Sr2 2.948491 1_555
O14 Ti2 1.985017 1_555
O14 Ti0 1.985017 1_565
O15 Ti4 1.992940 1_555
O15 Ti5 1.997127 1_555
O15 Sr0 2.752061 1_545
O15 Sr0 2.752061 1_555
O15 Sr2 2.752093 1_655
O15 Sr2 2.752093 1_555
O16 Ti5 1.946378 1_555
O16 Ti0 1.950613 1_555
O17 Ti4 1.956143 1_555
O17 Ti7 1.956143 1_655
O17 Sr0 2.641732 1_555
O17 Sr4 2.651952 1_555
O17 Sr2 2.914242 1_655
O17 Sr1 2.929344 1_655
O18 Ti5 1.960261 1_565
O18 Ti8 1.960261 1_655
O18 Sr0 2.614178 1_555
O18 Sr2 2.948491 1_665
O19 Ti7 1.956048 1_655
O19 Ti4 1.956048 1_565
O19 Sr1 2.640080 1_665
O19 Sr2 2.648672 1_665
O19 Sr4 2.917033 1_555
O19 Sr0 2.930693 1_555
O20 Ti5 1.973906 1_555
O20 Ti8 1.973906 1_655
O20 Sr2 2.621150 1_655
O20 Sr0 3.062698 1_555
O21 Ti7 1.989462 1_555
O21 Ti6 1.989462 1_555
O21 Sr1 2.752055 1_565
O21 Sr4 2.752055 1_455
O21 Sr1 2.752055 1_555
O21 Sr4 2.752055 1_555
O22 Ti7 1.992940 1_555
O22 Ti8 1.997127 1_555
O22 Sr0 2.752061 1_455
O22 Sr0 2.752061 1_555
O22 Sr2 2.752093 1_565
O22 Sr2 2.752093 1_555
O23 Ti6 1.956048 1_555
O23 Ti10 1.956048 1_565
O23 Sr1 2.640080 1_565
O23 Sr5 2.648672 1_565
O23 Sr4 2.917033 1_555
O23 Sr3 2.930693 1_555
O24 Ti7 1.956048 1_555
O24 Ti4 1.956048 1_555
O24 Sr1 2.640080 1_555
O24 Sr2 2.648672 1_555
O24 Sr4 2.917033 1_555
O24 Sr0 2.930693 1_555
O25 Ti10 1.956143 1_555
O25 Ti6 1.956143 1_555
O25 Sr3 2.641732 1_555
O25 Sr4 2.651952 1_555
O25 Sr5 2.914242 1_555
O25 Sr1 2.929344 1_555
O26 Ti7 1.956143 1_555
O26 Ti4 1.956143 1_565
O26 Sr0 2.641732 1_555
O26 Sr4 2.651952 1_555
O26 Sr2 2.914242 1_565
O26 Sr1 2.929344 1_565
O27 Ti10 1.992940 1_555
O27 Ti9 1.997127 1_555
O27 Sr3 2.752061 1_545
O27 Sr3 2.752061 1_555
O27 Sr5 2.752093 1_655
O27 Sr5 2.752093 1_555
O28 Ti4 1.989462 1_555
O28 Ti10 1.989462 1_555
O28 Sr1 2.752055 1_555
O28 Sr4 2.752055 1_555
O28 Sr4 2.752055 1_545
O28 Sr1 2.752055 1_655
O29 Ti9 1.960261 1_555
O29 Ti11 1.960261 1_655
O29 Sr3 2.614178 1_555
O29 Sr5 2.948491 1_655
O30 Ti6 1.956143 1_655
O30 Ti10 1.956143 1_565
O30 Sr3 2.641732 1_555
O30 Sr4 2.651952 1_555
O30 Sr5 2.914242 1_665
O30 Sr1 2.929344 1_665
O31 Ti11 1.973906 1_655
O31 Ti9 1.973906 1_565
O31 Sr5 2.621150 1_665
O31 Sr3 3.062698 1_555
O32 Ti10 1.956048 1_555
O32 Ti6 1.956048 1_655
O32 Sr1 2.640080 1_655
O32 Sr5 2.648672 1_655
O32 Sr4 2.917033 1_555
O32 Sr3 2.930693 1_555
O33 Ti6 1.992940 1_555
O33 Ti11 1.997127 1_555
O33 Sr3 2.752061 1_455
O33 Sr3 2.752061 1_555
O33 Sr5 2.752093 1_565
O33 Sr5 2.752093 1_555
O34 Ti9 1.973906 1_555
O34 Ti11 1.973906 1_555
O34 Sr5 2.621150 1_555
O34 Sr3 3.062698 1_555
O35 Ti11 1.960261 1_555
O35 Ti9 1.960261 1_565
O35 Sr3 2.614178 1_555
O35 Sr5 2.948491 1_565
