# generated using pymatgen
data_H3SNO3
_symmetry_space_group_name_H-M   'P 1'
_cell_length_a   8.38270900
_cell_length_b   8.38791100
_cell_length_c   9.30148800
_cell_angle_alpha   90.00000000
_cell_angle_beta   90.00000000
_cell_angle_gamma   90.00000000
_symmetry_Int_Tables_number   1
_chemical_formula_structural   H3SNO3
_chemical_formula_sum   'H24 S8 N8 O24'
_cell_volume   654.01940475
_cell_formula_units_Z   8
loop_
 _symmetry_equiv_pos_site_id
 _symmetry_equiv_pos_as_xyz
  1  'x, y, z'
loop_
 _atom_site_type_symbol
 _atom_site_label
 _atom_site_symmetry_multiplicity
 _atom_site_fract_x
 _atom_site_fract_y
 _atom_site_fract_z
 _atom_site_occupancy
  H  H0  1  0.22698300  0.07126400  0.41104300  1
  H  H1  1  0.72698300  0.42873600  0.41104300  1
  H  H2  1  0.86528500  0.05655200  0.14643800  1
  H  H3  1  0.21899100  0.91513800  0.01586200  1
  H  H4  1  0.78100900  0.08486200  0.98413800  1
  H  H5  1  0.13471500  0.44344800  0.64643800  1
  H  H6  1  0.27301700  0.57126400  0.58895700  1
  H  H7  1  0.36528500  0.44344800  0.14643800  1
  H  H8  1  0.77301700  0.42873600  0.91104300  1
  H  H9  1  0.28100900  0.91513800  0.51586200  1
  H  H10  1  0.77301700  0.92873600  0.58895700  1
  H  H11  1  0.72698300  0.92873600  0.08895700  1
  H  H12  1  0.27301700  0.07126400  0.91104300  1
  H  H13  1  0.71899100  0.08486200  0.48413800  1
  H  H14  1  0.36528500  0.94344800  0.35356200  1
  H  H15  1  0.13471500  0.94344800  0.85356200  1
  H  H16  1  0.71899100  0.58486200  0.01586200  1
  H  H17  1  0.63471500  0.55655200  0.85356200  1
  H  H18  1  0.63471500  0.05655200  0.64643800  1
  H  H19  1  0.21899100  0.41513800  0.48413800  1
  H  H20  1  0.22698300  0.57126400  0.08895700  1
  H  H21  1  0.28100900  0.41513800  0.98413800  1
  H  H22  1  0.78100900  0.58486200  0.51586200  1
  H  H23  1  0.86528500  0.55655200  0.35356200  1
  S  S0  1  0.10036500  0.33297200  0.17534000  1
  S  S1  1  0.89963500  0.66702800  0.82466000  1
  S  S2  1  0.39963500  0.83297200  0.82466000  1
  S  S3  1  0.60036500  0.16702800  0.17534000  1
  S  S4  1  0.39963500  0.33297200  0.67534000  1
  S  S5  1  0.89963500  0.16702800  0.67534000  1
  S  S6  1  0.10036500  0.83297200  0.32466000  1
  S  S7  1  0.60036500  0.66702800  0.32466000  1
  N  N0  1  0.76016000  0.54724900  0.41120500  1
  N  N1  1  0.23984000  0.95275100  0.91120500  1
  N  N2  1  0.26016000  0.95275100  0.41120500  1
  N  N3  1  0.23984000  0.45275100  0.58879500  1
  N  N4  1  0.76016000  0.04724900  0.08879500  1
  N  N5  1  0.73984000  0.54724900  0.91120500  1
  N  N6  1  0.73984000  0.04724900  0.58879500  1
  N  N7  1  0.26016000  0.45275100  0.08879500  1
  O  O0  1  0.96830100  0.44405600  0.17770600  1
  O  O1  1  0.82869000  0.70419200  0.68583300  1
  O  O2  1  0.03169900  0.55594400  0.82229400  1
  O  O3  1  0.08449700  0.69961100  0.42280500  1
  O  O4  1  0.58449700  0.30038900  0.07719500  1
  O  O5  1  0.08449700  0.19961100  0.07719500  1
  O  O6  1  0.82869000  0.20419200  0.81416700  1
  O  O7  1  0.32869000  0.79580800  0.68583300  1
  O  O8  1  0.67131000  0.20419200  0.31416700  1
  O  O9  1  0.53169900  0.94405600  0.82229400  1
  O  O10  1  0.41550300  0.69961100  0.92280500  1
  O  O11  1  0.32869000  0.29580800  0.81416700  1
  O  O12  1  0.46830100  0.55594400  0.32229400  1
  O  O13  1  0.91550300  0.30038900  0.57719500  1
  O  O14  1  0.67131000  0.70419200  0.18583300  1
  O  O15  1  0.58449700  0.80038900  0.42280500  1
  O  O16  1  0.41550300  0.19961100  0.57719500  1
  O  O17  1  0.17131000  0.29580800  0.31416700  1
  O  O18  1  0.96830100  0.94405600  0.32229400  1
  O  O19  1  0.53169900  0.44405600  0.67770600  1
  O  O20  1  0.46830100  0.05594400  0.17770600  1
  O  O21  1  0.03169900  0.05594400  0.67770600  1
  O  O22  1  0.91550300  0.80038900  0.92280500  1
  O  O23  1  0.17131000  0.79580800  0.18583300  1
loop_
_geom_bond_atom_site_label_1
_geom_bond_atom_site_label_2
_geom_bond_distance
_geom_bond_site_symmetry_2
H0 N2 1.032249 1_545
H1 N0 1.032249 1_555
H2 N4 1.034472 1_555
H3 N1 1.038132 1_554
H4 N4 1.038132 1_556
H5 N3 1.034472 1_555
H6 N3 1.032249 1_555
H7 N7 1.034472 1_555
H8 N5 1.032249 1_555
H9 N2 1.038132 1_555
H10 N6 1.032249 1_565
H11 N4 1.032249 1_565
H12 N1 1.032249 1_545
H13 N6 1.038132 1_555
H14 N2 1.034472 1_555
H15 N1 1.034472 1_555
H16 N5 1.038132 1_554
H17 N5 1.034472 1_555
H18 N6 1.034472 1_555
H19 N3 1.038132 1_555
H20 N7 1.032249 1_555
H21 N7 1.038132 1_556
H22 N0 1.038132 1_555
H23 N0 1.034472 1_555
N0 S7 1.857884 1_555
N1 S2 1.857884 1_555
N2 S6 1.857884 1_555
N3 S4 1.857884 1_555
N4 S3 1.857884 1_555
N5 S1 1.857884 1_555
N6 S5 1.857884 1_555
N7 S0 1.857884 1_555
O0 S0 1.447147 1_655
O1 S1 1.455440 1_555
O2 S1 1.447147 1_455
O3 S6 1.449959 1_555
O4 S3 1.449959 1_555
O5 S0 1.449959 1_555
O6 S5 1.455440 1_555
O7 S2 1.455440 1_555
O8 S3 1.455440 1_555
O9 S2 1.447147 1_555
O10 S2 1.449959 1_555
O11 S4 1.455440 1_555
O12 S7 1.447147 1_555
O13 S5 1.449959 1_555
O14 S7 1.455440 1_555
O15 S7 1.449959 1_555
O16 S4 1.449959 1_555
O17 S0 1.455440 1_555
O18 S6 1.447147 1_655
O19 S4 1.447147 1_555
O20 S3 1.447147 1_555
O21 S5 1.447147 1_455
O22 S1 1.449959 1_555
O23 S6 1.455440 1_555
