# generated using pymatgen
data_La3U2O10
_symmetry_space_group_name_H-M   'P 1'
_cell_length_a   6.65474270
_cell_length_b   6.65474270
_cell_length_c   8.56838419
_cell_angle_alpha   52.01780244
_cell_angle_beta   52.01780244
_cell_angle_gamma   49.15231216
_symmetry_Int_Tables_number   1
_chemical_formula_structural   La3U2O10
_chemical_formula_sum   'La3 U2 O10'
_cell_volume   211.33004028
_cell_formula_units_Z   1
loop_
 _symmetry_equiv_pos_site_id
 _symmetry_equiv_pos_as_xyz
  1  'x, y, z'
loop_
 _atom_site_type_symbol
 _atom_site_label
 _atom_site_symmetry_multiplicity
 _atom_site_fract_x
 _atom_site_fract_y
 _atom_site_fract_z
 _atom_site_occupancy
  La  La0  1  0.39994332  0.39994332  0.90238393  1
  La  La1  1  0.00000000  0.00000000  0.50000000  1
  La  La2  1  0.60005668  0.60005668  0.09761607  1
  U  U0  1  0.19103285  0.19103285  0.70951515  1
  U  U1  1  0.80896715  0.80896715  0.29048485  1
  O  O0  1  0.22213635  0.77786365  0.00000000  1
  O  O1  1  0.86550697  0.35197114  0.61161459  1
  O  O2  1  0.77786365  0.22213635  0.00000000  1
  O  O3  1  0.47561887  0.94414570  0.21527856  1
  O  O4  1  0.05585430  0.52438113  0.78472144  1
  O  O5  1  0.35197114  0.86550697  0.61161459  1
  O  O6  1  0.64802886  0.13449303  0.38838541  1
  O  O7  1  0.94414570  0.47561887  0.21527856  1
  O  O8  1  0.52438113  0.05585430  0.78472144  1
  O  O9  1  0.13449303  0.64802886  0.38838541  1
loop_
_geom_bond_atom_site_label_1
_geom_bond_atom_site_label_2
_geom_bond_distance
_geom_bond_site_symmetry_2
La0 O0 2.429604 1_556
La0 O2 2.429604 1_556
La0 O1 2.468280 1_555
La0 O5 2.468280 1_555
La0 O4 2.505771 1_555
La0 O8 2.505771 1_555
La0 O7 2.509229 1_456
La0 O3 2.509229 1_546
La1 O5 2.482591 1_545
La1 O1 2.482591 1_455
La1 O6 2.482591 1_455
La1 O9 2.482591 1_545
La1 O7 2.486149 1_455
La1 O4 2.486149 1_545
La1 O8 2.486149 1_455
La1 O3 2.486149 1_545
La2 O2 2.429604 1_555
La2 O0 2.429604 1_555
La2 O9 2.468280 1_555
La2 O6 2.468280 1_555
La2 O3 2.505771 1_555
La2 O7 2.505771 1_555
La2 O8 2.509229 1_564
La2 O4 2.509229 1_654
O0 U1 2.294387 1_455
O0 U0 2.294387 1_564
O1 U0 2.153943 1_655
O1 U1 2.537581 1_555
O2 U0 2.294387 1_654
O2 U1 2.294387 1_545
O3 U1 2.140353 1_555
O4 U0 2.140353 1_555
O5 U0 2.153943 1_565
O5 U1 2.537581 1_555
O6 U1 2.153943 1_545
O6 U0 2.537581 1_555
O7 U1 2.140353 1_555
O8 U0 2.140353 1_555
O9 U1 2.153943 1_455
O9 U0 2.537581 1_555
