# generated using pymatgen
data_Ca5B3O9F
_symmetry_space_group_name_H-M   'P 1'
_cell_length_a   9.00706173
_cell_length_b   9.00706173
_cell_length_c   3.53629464
_cell_angle_alpha   85.20363237
_cell_angle_beta   85.20363237
_cell_angle_gamma   126.24321597
_symmetry_Int_Tables_number   1
_chemical_formula_structural   Ca5B3O9F
_chemical_formula_sum   'Ca5 B3 O9 F1'
_cell_volume   227.38890491
_cell_formula_units_Z   1
loop_
 _symmetry_equiv_pos_site_id
 _symmetry_equiv_pos_as_xyz
  1  'x, y, z'
loop_
 _atom_site_type_symbol
 _atom_site_label
 _atom_site_symmetry_multiplicity
 _atom_site_fract_x
 _atom_site_fract_y
 _atom_site_fract_z
 _atom_site_occupancy
  Ca  Ca0  1  0.73834491  0.38251792  0.99501421  1
  Ca  Ca1  1  0.06550881  0.30093665  0.65133958  1
  Ca  Ca2  1  0.30093665  0.06550881  0.65133958  1
  Ca  Ca3  1  0.38251792  0.73834491  0.99501421  1
  Ca  Ca4  1  0.79560026  0.79560026  0.35952328  1
  B  B0  1  0.68042261  0.07270966  0.40797528  1
  B  B1  1  0.44052552  0.44052552  0.03486691  1
  B  B2  1  0.07270966  0.68042261  0.40797528  1
  O  O0  1  0.61226040  0.61226040  0.94682562  1
  O  O1  1  0.59411729  0.88459152  0.42036822  1
  O  O2  1  0.27942321  0.42781028  0.07978275  1
  O  O3  1  0.85840509  0.20457150  0.20496183  1
  O  O4  1  0.42781028  0.27942321  0.07978275  1
  O  O5  1  0.20457150  0.85840509  0.20496183  1
  O  O6  1  0.59225252  0.13635729  0.59434132  1
  O  O7  1  0.13635729  0.59225252  0.59434132  1
  O  O8  1  0.88459152  0.59411729  0.42036822  1
  F  F0  1  0.00004459  0.00004459  0.75361583  1
loop_
_geom_bond_atom_site_label_1
_geom_bond_atom_site_label_2
_geom_bond_distance
_geom_bond_site_symmetry_2
Ca0 O8 2.330927 1_555
Ca0 O8 2.339304 1_556
Ca0 O4 2.348944 1_556
Ca0 O6 2.458129 1_555
Ca0 O3 2.504831 1_556
Ca0 O6 2.537183 1_556
Ca1 O7 2.289733 1_555
Ca1 O3 2.292721 1_456
Ca1 O2 2.337195 1_555
Ca1 O2 2.342649 1_556
Ca1 O3 2.351993 1_455
Ca1 F0 2.394639 1_555
Ca2 O6 2.289733 1_555
Ca2 O5 2.292721 1_546
Ca2 O4 2.337195 1_555
Ca2 O4 2.342649 1_556
Ca2 O5 2.351993 1_545
Ca2 F0 2.394639 1_555
Ca3 O1 2.330927 1_555
Ca3 O1 2.339304 1_556
Ca3 O2 2.348944 1_556
Ca3 O7 2.458129 1_555
Ca3 O5 2.504831 1_556
Ca3 O7 2.537183 1_556
Ca4 O0 2.272763 1_554
Ca4 O0 2.322891 1_555
Ca4 F0 2.360683 1_665
Ca4 O1 2.380274 1_555
Ca4 O8 2.380274 1_555
Ca4 F0 2.458393 1_664
B0 O1 1.378993 1_545
B0 O6 1.381177 1_555
B0 O3 1.381868 1_555
B1 O0 1.375515 1_554
B1 O2 1.380517 1_555
B1 O4 1.380517 1_555
B2 O8 1.378993 1_455
B2 O7 1.381177 1_555
B2 O5 1.381868 1_555
