# generated using pymatgen
data_Yb(DyS2)2
_symmetry_space_group_name_H-M   'P 1'
_cell_length_a   7.15659529
_cell_length_b   7.15659529
_cell_length_c   7.15659529
_cell_angle_alpha   110.06050286
_cell_angle_beta   110.06050286
_cell_angle_gamma   108.29897753
_symmetry_Int_Tables_number   1
_chemical_formula_structural   Yb(DyS2)2
_chemical_formula_sum   'Yb2 Dy4 S8'
_cell_volume   282.07296127
_cell_formula_units_Z   2
loop_
 _symmetry_equiv_pos_site_id
 _symmetry_equiv_pos_as_xyz
  1  'x, y, z'
loop_
 _atom_site_type_symbol
 _atom_site_label
 _atom_site_symmetry_multiplicity
 _atom_site_fract_x
 _atom_site_fract_y
 _atom_site_fract_z
 _atom_site_occupancy
  Yb  Yb0  1  0.75000000  0.25000000  0.50000000  1
  Yb  Yb1  1  0.50000000  0.50000000  0.00000000  1
  Dy  Dy0  1  0.01826141  0.37500000  0.14326141  1
  Dy  Dy1  1  0.62500000  0.76826141  0.64326141  1
  Dy  Dy2  1  0.23173859  0.87500000  0.85673859  1
  Dy  Dy3  1  0.12500000  0.98173859  0.35673859  1
  S  S0  1  0.51391517  0.13069531  0.75287848  1
  S  S1  1  0.01103669  0.12781784  0.74712152  1
  S  S2  1  0.87218216  0.61930469  0.88321986  1
  S  S3  1  0.38069531  0.26391517  0.25287848  1
  S  S4  1  0.23896331  0.48608483  0.61678014  1
  S  S5  1  0.37781784  0.76103669  0.24712152  1
  S  S6  1  0.86930469  0.62218216  0.38321986  1
  S  S7  1  0.73608483  0.98896331  0.11678014  1
loop_
_geom_bond_atom_site_label_1
_geom_bond_atom_site_label_2
_geom_bond_distance
_geom_bond_site_symmetry_2
Dy0 S6 2.751507 1_455
Dy0 S1 2.751509 1_554
Dy0 S7 2.760692 1_445
Dy0 S5 2.760696 1_555
Dy0 S3 2.881314 1_555
Dy0 S4 2.881314 1_555
Dy0 S0 3.107795 1_454
Dy0 S2 3.107798 1_454
Dy1 S2 2.751507 1_555
Dy1 S5 2.751509 1_555
Dy1 S4 2.760692 1_555
Dy1 S1 2.760696 1_665
Dy1 S0 2.881314 1_565
Dy1 S7 2.881314 1_556
Dy1 S3 3.107795 1_555
Dy1 S6 3.107798 1_555
Dy2 S3 2.751511 1_566
Dy2 S4 2.751511 1_555
Dy2 S0 2.760692 1_565
Dy2 S2 2.760697 1_455
Dy2 S6 2.881314 1_455
Dy2 S1 2.881321 1_565
Dy2 S7 3.107795 1_556
Dy2 S5 3.107796 1_556
Dy3 S0 2.751511 1_565
Dy3 S7 2.751511 1_455
Dy3 S3 2.760692 1_565
Dy3 S6 2.760697 1_455
Dy3 S2 2.881314 1_454
Dy3 S5 2.881321 1_555
Dy3 S4 3.107795 1_565
Dy3 S1 3.107796 1_565
S0 Yb1 2.683732 1_556
S0 Yb0 3.018383 1_555
S1 Yb0 2.683727 1_455
S1 Yb1 3.018381 1_556
S2 Yb0 2.683735 1_555
S2 Yb1 3.018377 1_556
S3 Yb0 2.683732 1_555
S3 Yb1 3.018383 1_555
S4 Yb1 2.683732 1_556
S4 Yb0 3.018383 1_455
S5 Yb1 2.683727 1_555
S5 Yb0 3.018381 1_565
S6 Yb1 2.683735 1_555
S6 Yb0 3.018377 1_555
S7 Yb0 2.683732 1_565
S7 Yb1 3.018383 1_555
