# generated using pymatgen
data_K2RbBiSe3
_symmetry_space_group_name_H-M   'P 1'
_cell_length_a   10.09221000
_cell_length_b   10.09221000
_cell_length_c   10.09221000
_cell_angle_alpha   90.00000000
_cell_angle_beta   90.00000000
_cell_angle_gamma   90.00000000
_symmetry_Int_Tables_number   1
_chemical_formula_structural   K2RbBiSe3
_chemical_formula_sum   'K8 Rb4 Bi4 Se12'
_cell_volume   1027.91886456
_cell_formula_units_Z   4
loop_
 _symmetry_equiv_pos_site_id
 _symmetry_equiv_pos_as_xyz
  1  'x, y, z'
loop_
 _atom_site_type_symbol
 _atom_site_label
 _atom_site_symmetry_multiplicity
 _atom_site_fract_x
 _atom_site_fract_y
 _atom_site_fract_z
 _atom_site_occupancy
  K  K0  1  0.18073500  0.68073500  0.81926500  1
  K  K1  1  0.68073500  0.81926500  0.18073500  1
  K  K2  1  0.81926500  0.18073500  0.68073500  1
  K  K3  1  0.31926500  0.31926500  0.31926500  1
  K  K4  1  0.68648100  0.18648100  0.31351900  1
  K  K5  1  0.18648100  0.31351900  0.68648100  1
  K  K6  1  0.31351900  0.68648100  0.18648100  1
  K  K7  1  0.81351900  0.81351900  0.81351900  1
  Rb  Rb0  1  0.92823500  0.42823500  0.07176500  1
  Rb  Rb1  1  0.42823500  0.07176500  0.92823500  1
  Rb  Rb2  1  0.07176500  0.92823500  0.42823500  1
  Rb  Rb3  1  0.57176500  0.57176500  0.57176500  1
  Bi  Bi0  1  0.46810000  0.96810000  0.53190000  1
  Bi  Bi1  1  0.96810000  0.53190000  0.46810000  1
  Bi  Bi2  1  0.53190000  0.46810000  0.96810000  1
  Bi  Bi3  1  0.03190000  0.03190000  0.03190000  1
  Se  Se0  1  0.00276000  0.77683000  0.10575200  1
  Se  Se1  1  0.89424800  0.50276000  0.72317000  1
  Se  Se2  1  0.27683000  0.39424800  0.99724000  1
  Se  Se3  1  0.50276000  0.72317000  0.89424800  1
  Se  Se4  1  0.39424800  0.99724000  0.27683000  1
  Se  Se5  1  0.77683000  0.10575200  0.00276000  1
  Se  Se6  1  0.99724000  0.27683000  0.39424800  1
  Se  Se7  1  0.10575200  0.00276000  0.77683000  1
  Se  Se8  1  0.72317000  0.89424800  0.50276000  1
  Se  Se9  1  0.49724000  0.22317000  0.60575200  1
  Se  Se10  1  0.60575200  0.49724000  0.22317000  1
  Se  Se11  1  0.22317000  0.60575200  0.49724000  1
loop_
_geom_bond_atom_site_label_1
_geom_bond_atom_site_label_2
_geom_bond_distance
_geom_bond_site_symmetry_2
K0 Se3 3.364254 1_555
K0 Se11 3.364254 1_555
K0 Se7 3.364254 1_565
K0 Se1 3.539247 1_455
K0 Se2 3.539247 1_555
K0 Se0 3.539247 1_556
K1 Se10 3.364254 1_555
K1 Se8 3.364254 1_555
K1 Se0 3.364254 1_655
K1 Se3 3.539247 1_554
K1 Se4 3.539247 1_555
K1 Se5 3.539247 1_565
K2 Se9 3.364254 1_555
K2 Se1 3.364254 1_555
K2 Se5 3.364254 1_556
K2 Se8 3.539247 1_545
K2 Se6 3.539247 1_555
K2 Se7 3.539247 1_655
K3 Se6 3.364254 1_455
K3 Se2 3.364254 1_554
K3 Se4 3.364254 1_545
K3 Se9 3.539247 1_555
K3 Se10 3.539247 1_555
K3 Se11 3.539247 1_555
K4 Se5 3.366191 1_555
K4 Se6 3.366191 1_555
K4 Se10 3.366191 1_555
K4 Se9 3.533115 1_555
K4 Se8 3.533115 1_545
K4 Se4 3.533115 1_545
K5 Se7 3.366191 1_555
K5 Se2 3.366191 1_555
K5 Se9 3.366191 1_555
K5 Se1 3.533115 1_455
K5 Se11 3.533115 1_555
K5 Se6 3.533115 1_455
K6 Se11 3.366191 1_555
K6 Se0 3.366191 1_555
K6 Se4 3.366191 1_555
K6 Se10 3.533115 1_555
K6 Se3 3.533115 1_554
K6 Se2 3.533115 1_554
K7 Se8 3.366191 1_555
K7 Se1 3.366191 1_555
K7 Se3 3.366191 1_555
K7 Se5 3.533115 1_566
K7 Se7 3.533115 1_665
K7 Se0 3.533115 1_656
Rb0 Se2 3.613907 1_654
Rb0 Se1 3.613907 1_554
Rb0 Se0 3.613907 1_655
Rb0 Se6 3.662241 1_555
Rb0 Se5 3.662241 1_555
Rb0 Se10 3.662241 1_555
Rb1 Se4 3.613907 1_546
Rb1 Se3 3.613907 1_545
Rb1 Se5 3.613907 1_556
Rb1 Se2 3.662241 1_555
Rb1 Se7 3.662241 1_555
Rb1 Se9 3.662241 1_555
Rb2 Se6 3.613907 1_465
Rb2 Se8 3.613907 1_455
Rb2 Se7 3.613907 1_565
Rb2 Se4 3.662241 1_555
Rb2 Se0 3.662241 1_555
Rb2 Se11 3.662241 1_555
Rb3 Se11 3.613907 1_555
Rb3 Se9 3.613907 1_555
Rb3 Se10 3.613907 1_555
Rb3 Se1 3.662241 1_555
Rb3 Se3 3.662241 1_555
Rb3 Se8 3.662241 1_555
Bi0 Se8 2.696036 1_555
Bi0 Se4 2.696036 1_555
Bi0 Se9 2.696036 1_565
Bi1 Se1 2.696036 1_555
Bi1 Se6 2.696036 1_555
Bi1 Se11 2.696036 1_655
Bi2 Se3 2.696036 1_555
Bi2 Se2 2.696036 1_555
Bi2 Se10 2.696036 1_556
Bi3 Se0 2.696036 1_545
Bi3 Se5 2.696036 1_455
Bi3 Se7 2.696036 1_554
