# generated using pymatgen
data_CeSb(SBr)2
_symmetry_space_group_name_H-M   'P 1'
_cell_length_a   9.42218400
_cell_length_b   8.86908700
_cell_length_c   18.02139741
_cell_angle_alpha   75.79221391
_cell_angle_beta   90.00000000
_cell_angle_gamma   90.00000000
_symmetry_Int_Tables_number   1
_chemical_formula_structural   CeSb(SBr)2
_chemical_formula_sum   'Ce8 Sb8 S16 Br16'
_cell_volume   1459.91427039
_cell_formula_units_Z   8
loop_
 _symmetry_equiv_pos_site_id
 _symmetry_equiv_pos_as_xyz
  1  'x, y, z'
loop_
 _atom_site_type_symbol
 _atom_site_label
 _atom_site_symmetry_multiplicity
 _atom_site_fract_x
 _atom_site_fract_y
 _atom_site_fract_z
 _atom_site_occupancy
  Ce  Ce0  1  0.86794500  0.12226300  0.75653900  1
  Ce  Ce1  1  0.86315400  0.61314500  0.76327300  1
  Ce  Ce2  1  0.36315400  0.38685500  0.73672700  1
  Ce  Ce3  1  0.36794500  0.87773700  0.74346100  1
  Ce  Ce4  1  0.63205500  0.12226300  0.25653900  1
  Ce  Ce5  1  0.13205500  0.87773700  0.24346100  1
  Ce  Ce6  1  0.13684600  0.38685500  0.23672700  1
  Ce  Ce7  1  0.63684600  0.61314500  0.26327300  1
  Sb  Sb0  1  0.54134000  0.72870400  0.54999700  1
  Sb  Sb1  1  0.33986400  0.72407500  0.05806300  1
  Sb  Sb2  1  0.83986400  0.27592500  0.44193700  1
  Sb  Sb3  1  0.16013600  0.72407500  0.55806300  1
  Sb  Sb4  1  0.45866000  0.27129600  0.45000300  1
  Sb  Sb5  1  0.95866000  0.72870400  0.04999700  1
  Sb  Sb6  1  0.04134000  0.27129600  0.95000300  1
  Sb  Sb7  1  0.66013600  0.27592500  0.94193700  1
  S  S0  1  0.93930800  0.66215400  0.19053700  1
  S  S1  1  0.15085200  0.51958300  0.05614900  1
  S  S2  1  0.43930800  0.33784600  0.30946300  1
  S  S3  1  0.15030200  0.92983400  0.05393100  1
  S  S4  1  0.34969800  0.92983400  0.55393100  1
  S  S5  1  0.84914800  0.48041700  0.94385100  1
  S  S6  1  0.33543800  0.65979600  0.19794200  1
  S  S7  1  0.16456200  0.65979600  0.69794200  1
  S  S8  1  0.66456200  0.34020400  0.80205800  1
  S  S9  1  0.34914800  0.51958300  0.55614900  1
  S  S10  1  0.56069200  0.66215400  0.69053700  1
  S  S11  1  0.65030200  0.07016600  0.44606900  1
  S  S12  1  0.65085200  0.48041700  0.44385100  1
  S  S13  1  0.84969800  0.07016600  0.94606900  1
  S  S14  1  0.06069200  0.33784600  0.80946300  1
  S  S15  1  0.83543800  0.34020400  0.30205800  1
  Br  Br0  1  0.55411700  0.16187700  0.66226500  1
  Br  Br1  1  0.12829100  0.55696300  0.36817800  1
  Br  Br2  1  0.37170900  0.55696300  0.86817800  1
  Br  Br3  1  0.82594300  0.84323900  0.33083900  1
  Br  Br4  1  0.63019500  0.91998800  0.13690200  1
  Br  Br5  1  0.36980500  0.08001200  0.86309800  1
  Br  Br6  1  0.87170900  0.44303700  0.63182200  1
  Br  Br7  1  0.17405700  0.15676100  0.66916100  1
  Br  Br8  1  0.94588300  0.16187700  0.16226500  1
  Br  Br9  1  0.44588300  0.83812300  0.33773500  1
  Br  Br10  1  0.62829100  0.44303700  0.13182200  1
  Br  Br11  1  0.13019500  0.08001200  0.36309800  1
  Br  Br12  1  0.32594300  0.15676100  0.16916100  1
  Br  Br13  1  0.67405700  0.84323900  0.83083900  1
  Br  Br14  1  0.86980500  0.91998800  0.63690200  1
  Br  Br15  1  0.05411700  0.83812300  0.83773500  1
loop_
_geom_bond_atom_site_label_1
_geom_bond_atom_site_label_2
_geom_bond_distance
_geom_bond_site_symmetry_2
Ce0 S14 2.959542 1_655
Ce0 S8 2.976536 1_555
Ce0 S13 3.336862 1_555
Ce1 S8 3.003203 1_555
Ce1 S14 3.020114 1_655
Ce1 S7 3.063232 1_655
Ce1 S10 3.122358 1_555
Ce1 S5 3.180085 1_555
Ce2 S7 3.003203 1_555
Ce2 S10 3.020114 1_555
Ce2 S8 3.063232 1_555
Ce2 S14 3.122358 1_555
Ce2 S9 3.180085 1_555
Ce3 S10 2.959542 1_555
Ce3 S7 2.976536 1_555
Ce3 S4 3.336862 1_555
Ce4 S2 2.959542 1_555
Ce4 S15 2.976536 1_555
Ce4 S11 3.336862 1_555
Ce5 S0 2.959542 1_455
Ce5 S6 2.976536 1_555
Ce5 S3 3.336862 1_555
Ce6 S6 3.003203 1_555
Ce6 S0 3.020114 1_455
Ce6 S15 3.063232 1_455
Ce6 S2 3.122358 1_555
Ce6 S1 3.180085 1_555
Ce7 S15 3.003203 1_555
Ce7 S2 3.020114 1_555
Ce7 S6 3.063232 1_555
Ce7 S0 3.122358 1_555
Ce7 S12 3.180085 1_555
S0 Sb5 2.462218 1_555
S1 Sb1 2.548112 1_555
S1 Sb5 2.574987 1_455
S2 Sb4 2.462218 1_555
S3 Sb1 2.541494 1_555
S3 Sb5 2.551410 1_455
S4 Sb3 2.541494 1_555
S4 Sb0 2.551410 1_555
S5 Sb7 2.548112 1_555
S5 Sb6 2.574987 1_655
S6 Sb1 2.444548 1_555
S7 Sb3 2.444548 1_555
S8 Sb7 2.444548 1_555
S9 Sb3 2.548112 1_555
S9 Sb0 2.574987 1_555
S10 Sb0 2.462218 1_555
S11 Sb2 2.541494 1_555
S11 Sb4 2.551410 1_555
S12 Sb2 2.548112 1_555
S12 Sb4 2.574987 1_555
S13 Sb7 2.541494 1_555
S13 Sb6 2.551410 1_655
S14 Sb6 2.462218 1_555
S15 Sb2 2.444548 1_555
Br0 Ce3 3.123903 1_545
Br0 Ce2 3.214645 1_555
Br0 Ce0 3.385319 1_555
Br1 Ce6 3.106271 1_555
Br1 Ce5 3.163527 1_555
Br2 Ce2 3.106271 1_555
Br2 Ce3 3.163527 1_555
Br3 Ce4 3.102867 1_565
Br3 Ce7 3.168821 1_555
Br3 Ce5 3.264287 1_655
Br4 Ce7 3.090985 1_555
Br4 Ce4 3.125034 1_565
Br5 Ce2 3.090985 1_555
Br5 Ce3 3.125034 1_545
Br6 Ce1 3.106271 1_555
Br6 Ce0 3.163527 1_555
Br7 Ce3 3.102867 1_545
Br7 Ce2 3.168821 1_555
Br7 Ce0 3.264287 1_455
Br8 Ce5 3.123903 1_645
Br8 Ce6 3.214645 1_655
Br8 Ce4 3.385319 1_555
Br9 Ce4 3.123903 1_565
Br9 Ce7 3.214645 1_555
Br9 Ce5 3.385319 1_555
Br10 Ce7 3.106271 1_555
Br10 Ce4 3.163527 1_555
Br11 Ce6 3.090985 1_555
Br11 Ce5 3.125034 1_545
Br12 Ce5 3.102867 1_545
Br12 Ce6 3.168821 1_555
Br12 Ce4 3.264287 1_555
Br13 Ce0 3.102867 1_565
Br13 Ce1 3.168821 1_555
Br13 Ce3 3.264287 1_555
Br14 Ce1 3.090985 1_555
Br14 Ce0 3.125034 1_565
Br15 Ce0 3.123903 1_465
Br15 Ce1 3.214645 1_455
Br15 Ce3 3.385319 1_555
