# generated using pymatgen
data_TaAg7S6
_symmetry_space_group_name_H-M   'P 1'
_cell_length_a   7.44677100
_cell_length_b   7.70615900
_cell_length_c   13.09831019
_cell_angle_alpha   54.51161271
_cell_angle_beta   90.00000000
_cell_angle_gamma   90.00000000
_symmetry_Int_Tables_number   1
_chemical_formula_structural   TaAg7S6
_chemical_formula_sum   'Ta2 Ag14 S12'
_cell_volume   612.02623803
_cell_formula_units_Z   2
loop_
 _symmetry_equiv_pos_site_id
 _symmetry_equiv_pos_as_xyz
  1  'x, y, z'
loop_
 _atom_site_type_symbol
 _atom_site_label
 _atom_site_symmetry_multiplicity
 _atom_site_fract_x
 _atom_site_fract_y
 _atom_site_fract_z
 _atom_site_occupancy
  Ta  Ta0  1  0.25248600  0.99906600  0.00341600  1
  Ta  Ta1  1  0.74751400  0.99906600  0.50341600  1
  Ag  Ag0  1  0.64662000  0.44909800  0.84887000  1
  Ag  Ag1  1  0.91260700  0.90447800  0.80248300  1
  Ag  Ag2  1  0.46958000  0.05785300  0.23639000  1
  Ag  Ag3  1  0.71225300  0.98955700  0.97009800  1
  Ag  Ag4  1  0.11988100  0.36569200  0.71207300  1
  Ag  Ag5  1  0.35338000  0.44909800  0.34887000  1
  Ag  Ag6  1  0.04031800  0.26372600  0.52075500  1
  Ag  Ag7  1  0.88011900  0.36569200  0.21207300  1
  Ag  Ag8  1  0.57018300  0.52821800  0.54530500  1
  Ag  Ag9  1  0.95968200  0.26372600  0.02075500  1
  Ag  Ag10  1  0.28774700  0.98955700  0.47009800  1
  Ag  Ag11  1  0.08739300  0.90447800  0.30248300  1
  Ag  Ag12  1  0.42981700  0.52821800  0.04530500  1
  Ag  Ag13  1  0.53042000  0.05785300  0.73639000  1
  S  S0  1  0.77060500  0.28610200  0.73859200  1
  S  S1  1  0.51221700  0.84024300  0.64546000  1
  S  S2  1  0.24065500  0.55390600  0.48956200  1
  S  S3  1  0.48778300  0.84024300  0.14546000  1
  S  S4  1  0.75934500  0.55390600  0.98956200  1
  S  S5  1  0.26074500  0.36761800  0.88866900  1
  S  S6  1  0.74844300  0.88090600  0.37616700  1
  S  S7  1  0.25155700  0.88090600  0.87616700  1
  S  S8  1  0.99566900  0.86153500  0.12516000  1
  S  S9  1  0.22939500  0.28610200  0.23859200  1
  S  S10  1  0.73925500  0.36761800  0.38866900  1
  S  S11  1  0.00433100  0.86153500  0.62516000  1
loop_
_geom_bond_atom_site_label_1
_geom_bond_atom_site_label_2
_geom_bond_distance
_geom_bond_site_symmetry_2
Ag0 S4 2.545806 1_555
Ag0 S0 2.573562 1_555
Ag0 S1 2.803831 1_555
Ag0 S5 2.922857 1_555
Ag1 S11 2.619753 1_655
Ag1 S4 2.630456 1_555
Ag1 S7 2.670566 1_655
Ag1 S0 2.758562 1_565
Ag2 S9 2.520445 1_555
Ag2 S3 2.562819 1_545
Ag2 S6 2.573926 1_545
Ag3 S3 2.515040 1_556
Ag3 S0 2.561324 1_565
Ag3 S8 2.688180 1_556
Ag4 S5 2.547728 1_555
Ag4 S2 2.549280 1_555
Ag4 S0 2.648502 1_455
Ag5 S2 2.545806 1_555
Ag5 S9 2.573562 1_555
Ag5 S3 2.803831 1_555
Ag5 S10 2.922857 1_555
Ag6 S2 2.516396 1_555
Ag6 S11 2.574247 1_545
Ag6 S10 2.655619 1_455
Ag7 S10 2.547728 1_555
Ag7 S4 2.549280 1_554
Ag7 S9 2.648502 1_655
Ag8 S2 2.534994 1_555
Ag8 S0 2.575623 1_555
Ag8 S6 2.658188 1_555
Ag9 S4 2.516396 1_554
Ag9 S8 2.574247 1_545
Ag9 S5 2.655619 1_654
Ag10 S1 2.515040 1_555
Ag10 S9 2.561324 1_565
Ag10 S11 2.688180 1_555
Ag11 S8 2.619753 1_455
Ag11 S2 2.630456 1_555
Ag11 S6 2.670566 1_455
Ag11 S9 2.758562 1_565
Ag12 S4 2.534994 1_554
Ag12 S9 2.575623 1_555
Ag12 S7 2.658188 1_554
Ag13 S0 2.520445 1_555
Ag13 S1 2.562819 1_545
Ag13 S7 2.573926 1_545
S1 Ta1 2.320743 1_555
S3 Ta0 2.320743 1_555
S5 Ta0 2.317928 1_546
S6 Ta1 2.317185 1_555
S7 Ta0 2.317185 1_556
S8 Ta0 2.315457 1_655
S10 Ta1 2.317928 1_545
S11 Ta1 2.315457 1_455
