# generated using pymatgen
data_Mo2(PO4)3
_symmetry_space_group_name_H-M   'P 1'
_cell_length_a   8.65322246
_cell_length_b   8.65229006
_cell_length_c   8.85055070
_cell_angle_alpha   89.92611809
_cell_angle_beta   60.73695236
_cell_angle_gamma   119.93429618
_symmetry_Int_Tables_number   1
_chemical_formula_structural   Mo2(PO4)3
_chemical_formula_sum   'Mo4 P6 O24'
_cell_volume   473.87820211
_cell_formula_units_Z   2
loop_
 _symmetry_equiv_pos_site_id
 _symmetry_equiv_pos_as_xyz
  1  'x, y, z'
loop_
 _atom_site_type_symbol
 _atom_site_label
 _atom_site_symmetry_multiplicity
 _atom_site_fract_x
 _atom_site_fract_y
 _atom_site_fract_z
 _atom_site_occupancy
  Mo  Mo0  1  0.78384328  0.14122642  0.07538635  1
  Mo  Mo1  1  0.78510700  0.64177397  0.57346457  1
  Mo  Mo2  1  0.21489300  0.35822603  0.42653543  1
  Mo  Mo3  1  0.21615672  0.85877358  0.92461365  1
  P  P0  1  0.28391697  0.03320677  0.25028944  1
  P  P1  1  0.71605643  0.75031969  0.24917790  1
  P  P2  1  0.28394357  0.24968031  0.75082210  1
  P  P3  1  0.71608303  0.96679323  0.74971056  1
  P  P4  1  0.00165954  0.53560964  0.74912808  1
  P  P5  1  0.99834046  0.46439036  0.25087192  1
  O  O0  1  0.48722398  0.06934080  0.22596871  1
  O  O1  1  0.86796348  0.36759243  0.91865850  1
  O  O2  1  0.90888146  0.14117335  0.58252213  1
  O  O3  1  0.84563993  0.55392921  0.72979798  1
  O  O4  1  0.13203652  0.63240757  0.08134150  1
  O  O5  1  0.09111854  0.85882665  0.41747787  1
  O  O6  1  0.15436007  0.44607079  0.27020202  1
  O  O7  1  0.14815885  0.71548816  0.76947224  1
  O  O8  1  0.14621795  0.50917856  0.57936751  1
  O  O9  1  0.27882993  0.20477270  0.27647624  1
  O  O10  1  0.28514941  0.00403237  0.08016026  1
  O  O11  1  0.70073183  0.91652008  0.23118782  1
  O  O12  1  0.52027413  0.57385130  0.27311472  1
  O  O13  1  0.27475023  0.27229626  0.58538898  1
  O  O14  1  0.85378205  0.49082144  0.42063249  1
  O  O15  1  0.08287884  0.21376803  0.92414260  1
  O  O16  1  0.91712116  0.78623197  0.07585740  1
  O  O17  1  0.51277602  0.93065920  0.77403129  1
  O  O18  1  0.72524977  0.72770374  0.41461102  1
  O  O19  1  0.47972587  0.42614870  0.72688528  1
  O  O20  1  0.29926817  0.08347992  0.76881218  1
  O  O21  1  0.71485059  0.99596763  0.91983974  1
  O  O22  1  0.72117007  0.79522730  0.72352376  1
  O  O23  1  0.85184115  0.28451184  0.23052776  1
loop_
_geom_bond_atom_site_label_1
_geom_bond_atom_site_label_2
_geom_bond_distance
_geom_bond_site_symmetry_2
Mo0 O0 1.952279 1_555
Mo0 O11 1.956211 1_545
Mo0 O23 1.958261 1_555
Mo0 O15 1.967785 1_654
Mo0 O1 1.968008 1_554
Mo0 O21 1.972404 1_544
Mo1 O22 1.962681 1_555
Mo1 O3 1.967150 1_555
Mo1 O19 1.967911 1_555
Mo1 O14 1.970274 1_555
Mo1 O18 1.972637 1_555
Mo1 O5 1.975090 1_655
Mo2 O9 1.962681 1_555
Mo2 O6 1.967150 1_555
Mo2 O12 1.967911 1_555
Mo2 O8 1.970274 1_555
Mo2 O13 1.972637 1_555
Mo2 O2 1.975090 1_455
Mo3 O17 1.952279 1_555
Mo3 O20 1.956211 1_565
Mo3 O7 1.958261 1_555
Mo3 O16 1.967785 1_456
Mo3 O4 1.968008 1_556
Mo3 O10 1.972404 1_566
O0 P0 1.523076 1_555
O1 P4 1.523785 1_655
O2 P3 1.522481 1_545
O3 P4 1.521971 1_655
O4 P5 1.523785 1_455
O5 P0 1.522481 1_565
O6 P5 1.521971 1_455
O7 P4 1.522016 1_555
O8 P4 1.524283 1_555
O9 P0 1.521623 1_555
O10 P0 1.522841 1_555
O11 P1 1.523543 1_555
O12 P1 1.520857 1_555
O13 P2 1.522201 1_555
O14 P5 1.524283 1_555
O15 P2 1.525369 1_555
O16 P1 1.525369 1_555
O17 P3 1.523076 1_555
O18 P1 1.522201 1_555
O19 P2 1.520857 1_555
O20 P2 1.523543 1_555
O21 P3 1.522841 1_555
O22 P3 1.521623 1_555
O23 P5 1.522016 1_555
