# generated using pymatgen
data_Zr2Cl5
_symmetry_space_group_name_H-M   'P 1'
_cell_length_a   18.87140296
_cell_length_b   18.87140272
_cell_length_c   18.87140312
_cell_angle_alpha   109.47122108
_cell_angle_beta   109.47122081
_cell_angle_gamma   109.47122072
_symmetry_Int_Tables_number   1
_chemical_formula_structural   Zr2Cl5
_chemical_formula_sum   'Zr48 Cl120'
_cell_volume   5173.57403386
_cell_formula_units_Z   24
loop_
 _symmetry_equiv_pos_site_id
 _symmetry_equiv_pos_as_xyz
  1  'x, y, z'
loop_
 _atom_site_type_symbol
 _atom_site_label
 _atom_site_symmetry_multiplicity
 _atom_site_fract_x
 _atom_site_fract_y
 _atom_site_fract_z
 _atom_site_occupancy
  Zr  Zr0  1  0.97267731  0.95314039  0.85547159  1
  Zr  Zr1  1  0.88279428  0.02732269  0.48046308  1
  Zr  Zr2  1  0.09766880  0.45314039  0.48046308  1
  Zr  Zr3  1  0.40233120  0.01953692  0.04685961  1
  Zr  Zr4  1  0.35547159  0.45314039  0.47267731  1
  Zr  Zr5  1  0.47267731  0.35547159  0.45314039  1
  Zr  Zr6  1  0.85547159  0.38279428  0.90233120  1
  Zr  Zr7  1  0.61720572  0.01953692  0.47267731  1
  Zr  Zr8  1  0.04685961  0.40233120  0.01953692  1
  Zr  Zr9  1  0.02732269  0.04685961  0.14452841  1
  Zr  Zr10  1  0.64452841  0.59766880  0.11720572  1
  Zr  Zr11  1  0.95314039  0.85547159  0.97267731  1
  Zr  Zr12  1  0.14452841  0.61720572  0.09766880  1
  Zr  Zr13  1  0.54685961  0.52732269  0.64452841  1
  Zr  Zr14  1  0.64452841  0.54685961  0.52732269  1
  Zr  Zr15  1  0.35547159  0.40233120  0.88279428  1
  Zr  Zr16  1  0.48046308  0.88279428  0.02732269  1
  Zr  Zr17  1  0.01953692  0.04685961  0.40233120  1
  Zr  Zr18  1  0.88279428  0.35547159  0.40233120  1
  Zr  Zr19  1  0.61720572  0.09766880  0.14452841  1
  Zr  Zr20  1  0.51953692  0.11720572  0.97267731  1
  Zr  Zr21  1  0.45314039  0.48046308  0.09766880  1
  Zr  Zr22  1  0.45314039  0.47267731  0.35547159  1
  Zr  Zr23  1  0.98046308  0.52732269  0.38279428  1
  Zr  Zr24  1  0.97267731  0.51953692  0.11720572  1
  Zr  Zr25  1  0.98046308  0.95314039  0.59766880  1
  Zr  Zr26  1  0.01953692  0.47267731  0.61720572  1
  Zr  Zr27  1  0.90233120  0.54685961  0.51953692  1
  Zr  Zr28  1  0.40233120  0.88279428  0.35547159  1
  Zr  Zr29  1  0.59766880  0.11720572  0.64452841  1
  Zr  Zr30  1  0.11720572  0.64452841  0.59766880  1
  Zr  Zr31  1  0.04685961  0.14452841  0.02732269  1
  Zr  Zr32  1  0.47267731  0.61720572  0.01953692  1
  Zr  Zr33  1  0.59766880  0.98046308  0.95314039  1
  Zr  Zr34  1  0.85547159  0.97267731  0.95314039  1
  Zr  Zr35  1  0.90233120  0.85547159  0.38279428  1
  Zr  Zr36  1  0.95314039  0.59766880  0.98046308  1
  Zr  Zr37  1  0.52732269  0.38279428  0.98046308  1
  Zr  Zr38  1  0.52732269  0.64452841  0.54685961  1
  Zr  Zr39  1  0.09766880  0.14452841  0.61720572  1
  Zr  Zr40  1  0.38279428  0.98046308  0.52732269  1
  Zr  Zr41  1  0.11720572  0.97267731  0.51953692  1
  Zr  Zr42  1  0.51953692  0.90233120  0.54685961  1
  Zr  Zr43  1  0.38279428  0.90233120  0.85547159  1
  Zr  Zr44  1  0.54685961  0.51953692  0.90233120  1
  Zr  Zr45  1  0.14452841  0.02732269  0.04685961  1
  Zr  Zr46  1  0.48046308  0.09766880  0.45314039  1
  Zr  Zr47  1  0.02732269  0.48046308  0.88279428  1
  Cl  Cl0  1  0.31628498  0.52142214  0.89520291  1
  Cl  Cl1  1  0.64140936  0.23061626  0.12745987  1
  Cl  Cl2  1  0.26938374  0.85859064  0.37254013  1
  Cl  Cl3  1  0.47857786  0.87378077  0.79486284  1
  Cl  Cl4  1  0.89684361  0.12745987  0.98605051  1
  Cl  Cl5  1  0.64140936  0.91079310  0.51394949  1
  Cl  Cl6  1  0.14140936  0.62745987  0.73061626  1
  Cl  Cl7  1  0.51394949  0.37254013  0.60315639  1
  Cl  Cl8  1  0.10706085  0.30353042  0.05353042  1
  Cl  Cl9  1  0.62621923  0.10479709  0.92108207  1
  Cl  Cl10  1  0.85859064  0.37254013  0.26938374  1
  Cl  Cl11  1  0.31628498  0.29486284  0.42108207  1
  Cl  Cl12  1  0.94646958  0.89293915  0.69646958  1
  Cl  Cl13  1  0.79486284  0.47857786  0.87378077  1
  Cl  Cl14  1  0.75000000  0.19646958  0.30353042  1
  Cl  Cl15  1  0.62745987  0.39684361  0.48605051  1
  Cl  Cl16  1  0.39293915  0.44646958  0.19646958  1
  Cl  Cl17  1  0.70513716  0.57891793  0.68371502  1
  Cl  Cl18  1  0.73061626  0.08920690  0.10315639  1
  Cl  Cl19  1  0.98605051  0.89684361  0.12745987  1
  Cl  Cl20  1  0.87254013  0.35859064  0.76938374  1
  Cl  Cl21  1  0.89684361  0.26938374  0.91079310  1
  Cl  Cl22  1  0.37254013  0.26938374  0.85859064  1
  Cl  Cl23  1  0.87378077  0.79486284  0.47857786  1
  Cl  Cl24  1  0.41079310  0.14140936  0.01394949  1
  Cl  Cl25  1  0.79486284  0.81628498  0.92108207  1
  Cl  Cl26  1  0.07891793  0.37378077  0.89520291  1
  Cl  Cl27  1  0.23061626  0.12745987  0.64140936  1
  Cl  Cl28  1  0.68371502  0.70513716  0.57891793  1
  Cl  Cl29  1  0.42108207  0.31628498  0.29486284  1
  Cl  Cl30  1  0.05353042  0.44646958  0.75000000  1
  Cl  Cl31  1  0.75000000  0.05353042  0.44646958  1
  Cl  Cl32  1  0.60479709  0.97857786  0.18371502  1
  Cl  Cl33  1  0.51394949  0.64140936  0.91079310  1
  Cl  Cl34  1  0.44646958  0.19646958  0.39293915  1
  Cl  Cl35  1  0.12621923  0.20513716  0.52142214  1
  Cl  Cl36  1  0.19646958  0.30353042  0.75000000  1
  Cl  Cl37  1  0.19646958  0.39293915  0.44646958  1
  Cl  Cl38  1  0.69646958  0.94646958  0.89293915  1
  Cl  Cl39  1  0.12621923  0.42108207  0.60479709  1
  Cl  Cl40  1  0.91079310  0.89684361  0.26938374  1
  Cl  Cl41  1  0.01394949  0.10315639  0.87254013  1
  Cl  Cl42  1  0.89293915  0.69646958  0.94646958  1
  Cl  Cl43  1  0.47857786  0.10479709  0.68371502  1
  Cl  Cl44  1  0.07891793  0.20513716  0.18371502  1
  Cl  Cl45  1  0.89520291  0.07891793  0.37378077  1
  Cl  Cl46  1  0.39684361  0.48605051  0.62745987  1
  Cl  Cl47  1  0.57891793  0.68371502  0.70513716  1
  Cl  Cl48  1  0.23061626  0.60315639  0.58920690  1
  Cl  Cl49  1  0.02142214  0.81628498  0.39520291  1
  Cl  Cl50  1  0.55353042  0.25000000  0.94646958  1
  Cl  Cl51  1  0.81628498  0.39520291  0.02142214  1
  Cl  Cl52  1  0.35859064  0.76938374  0.87254013  1
  Cl  Cl53  1  0.92108207  0.62621923  0.10479709  1
  Cl  Cl54  1  0.60479709  0.12621923  0.42108207  1
  Cl  Cl55  1  0.10315639  0.87254013  0.01394949  1
  Cl  Cl56  1  0.48605051  0.62745987  0.39684361  1
  Cl  Cl57  1  0.60315639  0.51394949  0.37254013  1
  Cl  Cl58  1  0.80353042  0.69646958  0.25000000  1
  Cl  Cl59  1  0.29486284  0.42108207  0.31628498  1
  Cl  Cl60  1  0.60315639  0.58920690  0.23061626  1
  Cl  Cl61  1  0.37378077  0.89520291  0.07891793  1
  Cl  Cl62  1  0.35859064  0.08920690  0.48605051  1
  Cl  Cl63  1  0.70513716  0.62621923  0.02142214  1
  Cl  Cl64  1  0.52142214  0.89520291  0.31628498  1
  Cl  Cl65  1  0.02142214  0.70513716  0.62621923  1
  Cl  Cl66  1  0.29486284  0.37378077  0.97857786  1
  Cl  Cl67  1  0.37378077  0.97857786  0.29486284  1
  Cl  Cl68  1  0.85859064  0.98605051  0.58920690  1
  Cl  Cl69  1  0.01394949  0.41079310  0.14140936  1
  Cl  Cl70  1  0.58920690  0.23061626  0.60315639  1
  Cl  Cl71  1  0.81628498  0.92108207  0.79486284  1
  Cl  Cl72  1  0.20513716  0.52142214  0.12621923  1
  Cl  Cl73  1  0.10479709  0.68371502  0.47857786  1
  Cl  Cl74  1  0.30353042  0.75000000  0.19646958  1
  Cl  Cl75  1  0.58920690  0.85859064  0.98605051  1
  Cl  Cl76  1  0.76938374  0.39684361  0.41079310  1
  Cl  Cl77  1  0.08920690  0.10315639  0.73061626  1
  Cl  Cl78  1  0.91079310  0.51394949  0.64140936  1
  Cl  Cl79  1  0.62745987  0.73061626  0.14140936  1
  Cl  Cl80  1  0.92108207  0.79486284  0.81628498  1
  Cl  Cl81  1  0.69646958  0.25000000  0.80353042  1
  Cl  Cl82  1  0.18371502  0.07891793  0.20513716  1
  Cl  Cl83  1  0.97857786  0.18371502  0.60479709  1
  Cl  Cl84  1  0.25000000  0.80353042  0.69646958  1
  Cl  Cl85  1  0.12745987  0.98605051  0.89684361  1
  Cl  Cl86  1  0.87378077  0.57891793  0.39520291  1
  Cl  Cl87  1  0.18371502  0.60479709  0.97857786  1
  Cl  Cl88  1  0.08920690  0.48605051  0.35859064  1
  Cl  Cl89  1  0.80353042  0.60706085  0.55353042  1
  Cl  Cl90  1  0.97857786  0.29486284  0.37378077  1
  Cl  Cl91  1  0.98605051  0.58920690  0.85859064  1
  Cl  Cl92  1  0.52142214  0.12621923  0.20513716  1
  Cl  Cl93  1  0.12745987  0.64140936  0.23061626  1
  Cl  Cl94  1  0.57891793  0.39520291  0.87378077  1
  Cl  Cl95  1  0.55353042  0.80353042  0.60706085  1
  Cl  Cl96  1  0.10479709  0.92108207  0.62621923  1
  Cl  Cl97  1  0.89520291  0.31628498  0.52142214  1
  Cl  Cl98  1  0.44646958  0.75000000  0.05353042  1
  Cl  Cl99  1  0.20513716  0.18371502  0.07891793  1
  Cl  Cl100  1  0.62621923  0.02142214  0.70513716  1
  Cl  Cl101  1  0.26938374  0.91079310  0.89684361  1
  Cl  Cl102  1  0.14140936  0.01394949  0.41079310  1
  Cl  Cl103  1  0.87254013  0.01394949  0.10315639  1
  Cl  Cl104  1  0.39520291  0.87378077  0.57891793  1
  Cl  Cl105  1  0.42108207  0.60479709  0.12621923  1
  Cl  Cl106  1  0.05353042  0.10706085  0.30353042  1
  Cl  Cl107  1  0.48605051  0.35859064  0.08920690  1
  Cl  Cl108  1  0.76938374  0.87254013  0.35859064  1
  Cl  Cl109  1  0.10315639  0.73061626  0.08920690  1
  Cl  Cl110  1  0.73061626  0.14140936  0.62745987  1
  Cl  Cl111  1  0.39520291  0.02142214  0.81628498  1
  Cl  Cl112  1  0.37254013  0.60315639  0.51394949  1
  Cl  Cl113  1  0.68371502  0.47857786  0.10479709  1
  Cl  Cl114  1  0.60706085  0.55353042  0.80353042  1
  Cl  Cl115  1  0.41079310  0.76938374  0.39684361  1
  Cl  Cl116  1  0.94646958  0.55353042  0.25000000  1
  Cl  Cl117  1  0.30353042  0.05353042  0.10706085  1
  Cl  Cl118  1  0.25000000  0.94646958  0.55353042  1
  Cl  Cl119  1  0.39684361  0.41079310  0.76938374  1
loop_
_geom_bond_atom_site_label_1
_geom_bond_atom_site_label_2
_geom_bond_distance
_geom_bond_site_symmetry_2
Cl0 Zr32 2.546085 1_556
Cl0 Zr15 2.554438 1_555
Cl1 Zr20 2.544464 1_554
Cl1 Zr19 2.545555 1_555
Cl2 Zr40 2.544464 1_555
Cl2 Zr28 2.545555 1_555
Cl3 Zr43 2.546085 1_555
Cl3 Zr33 2.554438 1_555
Cl4 Zr34 2.544464 1_545
Cl4 Zr31 2.545555 1_656
Cl5 Zr42 2.544464 1_555
Cl5 Zr7 2.545555 1_565
Cl6 Zr26 2.544464 1_555
Cl6 Zr30 2.545555 1_555
Cl7 Zr13 2.544464 1_555
Cl7 Zr5 2.545555 1_555
Cl8 Zr31 2.627221 1_555
Cl8 Zr8 2.627221 1_555
Cl9 Zr33 2.546085 1_545
Cl9 Zr20 2.554438 1_555
Cl10 Zr23 2.544464 1_555
Cl10 Zr18 2.545555 1_555
Cl11 Zr5 2.546085 1_555
Cl11 Zr4 2.554438 1_555
Cl12 Zr0 2.627221 1_555
Cl12 Zr25 2.627221 1_555
Cl13 Zr6 2.546085 1_555
Cl13 Zr36 2.554438 1_555
Cl14 Zr18 2.627221 1_555
Cl14 Zr19 2.627221 1_555
Cl15 Zr5 2.544464 1_555
Cl15 Zr14 2.545555 1_555
Cl16 Zr22 2.627221 1_555
Cl16 Zr21 2.627221 1_555
Cl17 Zr14 2.546085 1_555
Cl17 Zr13 2.554438 1_555
Cl18 Zr19 2.544464 1_555
Cl18 Zr33 2.545555 1_544
Cl19 Zr11 2.544464 1_554
Cl19 Zr9 2.545555 1_665
Cl20 Zr47 2.544464 1_655
Cl20 Zr6 2.545555 1_555
Cl21 Zr6 2.544464 1_555
Cl21 Zr8 2.545555 1_656
Cl22 Zr37 2.544464 1_555
Cl22 Zr15 2.545555 1_555
Cl23 Zr35 2.546085 1_555
Cl23 Zr25 2.554438 1_555
Cl24 Zr3 2.544464 1_555
Cl24 Zr20 2.545555 1_554
Cl25 Zr34 2.546085 1_555
Cl25 Zr11 2.554438 1_555
Cl26 Zr8 2.546085 1_556
Cl26 Zr47 2.554438 1_555
Cl27 Zr41 2.544464 1_545
Cl27 Zr39 2.545555 1_555
Cl28 Zr38 2.546085 1_555
Cl28 Zr14 2.554438 1_555
Cl29 Zr22 2.546085 1_555
Cl29 Zr5 2.554438 1_555
Cl30 Zr47 2.627221 1_555
Cl30 Zr26 2.627221 1_555
Cl31 Zr1 2.627221 1_555
Cl31 Zr7 2.627221 1_555
Cl32 Zr16 2.546085 1_555
Cl32 Zr19 2.554438 1_565
Cl33 Zr44 2.544464 1_555
Cl33 Zr32 2.545555 1_556
Cl34 Zr5 2.627221 1_555
Cl34 Zr46 2.627221 1_555
Cl35 Zr39 2.546085 1_555
Cl35 Zr17 2.554438 1_555
Cl36 Zr39 2.627221 1_555
Cl36 Zr15 2.627221 1_555
Cl37 Zr4 2.627221 1_555
Cl37 Zr2 2.627221 1_555
Cl38 Zr34 2.627221 1_555
Cl38 Zr33 2.627221 1_555
Cl39 Zr2 2.546085 1_555
Cl39 Zr26 2.554438 1_555
Cl40 Zr35 2.544464 1_555
Cl40 Zr17 2.545555 1_665
Cl41 Zr31 2.544464 1_556
Cl41 Zr0 2.545555 1_445
Cl42 Zr11 2.627221 1_555
Cl42 Zr36 2.627221 1_555
Cl43 Zr40 2.546085 1_545
Cl43 Zr29 2.554438 1_555
Cl44 Zr31 2.546085 1_555
Cl44 Zr9 2.554438 1_555
Cl45 Zr17 2.546085 1_655
Cl45 Zr1 2.554438 1_555
Cl46 Zr4 2.544464 1_555
Cl46 Zr13 2.545555 1_555
Cl47 Zr13 2.546085 1_555
Cl47 Zr38 2.554438 1_555
Cl48 Zr30 2.544464 1_555
Cl48 Zr2 2.545555 1_555
Cl49 Zr41 2.546085 1_555
Cl49 Zr35 2.554438 1_455
Cl50 Zr37 2.627221 1_555
Cl50 Zr20 2.627221 1_555
Cl51 Zr24 2.546085 1_555
Cl51 Zr6 2.554438 1_554
Cl52 Zr16 2.544464 1_556
Cl52 Zr43 2.545555 1_555
Cl53 Zr36 2.546085 1_554
Cl53 Zr24 2.554438 1_555
Cl54 Zr46 2.546085 1_555
Cl54 Zr7 2.554438 1_555
Cl55 Zr45 2.544464 1_565
Cl55 Zr11 2.545555 1_454
Cl56 Zr22 2.544464 1_555
Cl56 Zr38 2.545555 1_555
Cl57 Zr14 2.544464 1_555
Cl57 Zr22 2.545555 1_555
Cl58 Zr35 2.627221 1_555
Cl58 Zr10 2.627221 1_555
Cl59 Zr4 2.546085 1_555
Cl59 Zr22 2.554438 1_555
Cl60 Zr10 2.544464 1_555
Cl60 Zr21 2.545555 1_555
Cl61 Zr3 2.546085 1_565
Cl61 Zr16 2.554438 1_555
Cl62 Zr46 2.544464 1_555
Cl62 Zr40 2.545555 1_545
Cl63 Zr10 2.546085 1_555
Cl63 Zr44 2.554438 1_554
Cl64 Zr7 2.546085 1_565
Cl64 Zr28 2.554438 1_555
Cl65 Zr30 2.546085 1_555
Cl65 Zr27 2.554438 1_455
Cl66 Zr15 2.546085 1_555
Cl66 Zr21 2.554438 1_556
Cl67 Zr28 2.546085 1_555
Cl67 Zr46 2.554438 1_565
Cl68 Zr25 2.544464 1_555
Cl68 Zr1 2.545555 1_565
Cl69 Zr8 2.544464 1_555
Cl69 Zr24 2.545555 1_455
Cl70 Zr29 2.544464 1_555
Cl70 Zr46 2.545555 1_555
Cl71 Zr0 2.546085 1_555
Cl71 Zr34 2.554438 1_555
Cl72 Zr12 2.546085 1_555
Cl72 Zr8 2.554438 1_555
Cl73 Zr23 2.546085 1_455
Cl73 Zr30 2.554438 1_555
Cl74 Zr12 2.627221 1_555
Cl74 Zr28 2.627221 1_555
Cl75 Zr33 2.544464 1_555
Cl75 Zr16 2.545555 1_556
Cl76 Zr18 2.544464 1_555
Cl76 Zr27 2.545555 1_555
Cl77 Zr39 2.544464 1_555
Cl77 Zr25 2.545555 1_445
Cl78 Zr27 2.544464 1_555
Cl78 Zr26 2.545555 1_655
Cl79 Zr32 2.544464 1_555
Cl79 Zr10 2.545555 1_555
Cl80 Zr11 2.546085 1_555
Cl80 Zr0 2.554438 1_555
Cl81 Zr6 2.627221 1_555
Cl81 Zr29 2.627221 1_555
Cl82 Zr9 2.546085 1_555
Cl82 Zr45 2.554438 1_555
Cl83 Zr1 2.546085 1_555
Cl83 Zr39 2.554438 1_655
Cl84 Zr30 2.627221 1_555
Cl84 Zr43 2.627221 1_555
Cl85 Zr0 2.544464 1_455
Cl85 Zr45 2.545555 1_566
Cl86 Zr27 2.546085 1_555
Cl86 Zr23 2.554438 1_555
Cl87 Zr47 2.546085 1_555
Cl87 Zr12 2.554438 1_556
Cl88 Zr2 2.544464 1_555
Cl88 Zr23 2.545555 1_455
Cl89 Zr14 2.627221 1_555
Cl89 Zr27 2.627221 1_555
Cl90 Zr18 2.546085 1_555
Cl90 Zr2 2.554438 1_655
Cl91 Zr36 2.544464 1_555
Cl91 Zr47 2.545555 1_655
Cl92 Zr19 2.546085 1_555
Cl92 Zr3 2.554438 1_555
Cl93 Zr24 2.544464 1_455
Cl93 Zr12 2.545555 1_555
Cl94 Zr44 2.546085 1_555
Cl94 Zr37 2.554438 1_555
Cl95 Zr38 2.627221 1_555
Cl95 Zr42 2.627221 1_555
Cl96 Zr25 2.546085 1_455
Cl96 Zr41 2.554438 1_555
Cl97 Zr26 2.546085 1_655
Cl97 Zr18 2.554438 1_555
Cl98 Zr32 2.627221 1_555
Cl98 Zr16 2.627221 1_555
Cl99 Zr45 2.546085 1_555
Cl99 Zr31 2.554438 1_555
Cl100 Zr29 2.546085 1_555
Cl100 Zr42 2.554438 1_545
Cl101 Zr43 2.544464 1_555
Cl101 Zr3 2.545555 1_566
Cl102 Zr17 2.544464 1_555
Cl102 Zr41 2.545555 1_545
Cl103 Zr9 2.544464 1_655
Cl103 Zr34 2.545555 1_544
Cl104 Zr42 2.546085 1_555
Cl104 Zr40 2.554438 1_555
Cl105 Zr21 2.546085 1_555
Cl105 Zr32 2.554438 1_555
Cl106 Zr9 2.627221 1_555
Cl106 Zr17 2.627221 1_555
Cl107 Zr21 2.544464 1_555
Cl107 Zr37 2.545555 1_554
Cl108 Zr1 2.544464 1_565
Cl108 Zr35 2.545555 1_555
Cl109 Zr12 2.544464 1_555
Cl109 Zr36 2.545555 1_454
Cl110 Zr7 2.544464 1_555
Cl110 Zr29 2.545555 1_555
Cl111 Zr20 2.546085 1_555
Cl111 Zr43 2.554438 1_545
Cl112 Zr38 2.544464 1_555
Cl112 Zr4 2.545555 1_555
Cl113 Zr37 2.546085 1_554
Cl113 Zr10 2.554438 1_555
Cl114 Zr13 2.627221 1_555
Cl114 Zr44 2.627221 1_555
Cl115 Zr28 2.544464 1_555
Cl115 Zr42 2.545555 1_555
Cl116 Zr24 2.627221 1_555
Cl116 Zr23 2.627221 1_555
Cl117 Zr45 2.627221 1_555
Cl117 Zr3 2.627221 1_555
Cl118 Zr41 2.627221 1_555
Cl118 Zr40 2.627221 1_555
Cl119 Zr15 2.544464 1_555
Cl119 Zr44 2.545555 1_555
