# generated using pymatgen
data_U4Ga20Ni11
_symmetry_space_group_name_H-M   'P 1'
_cell_length_a   4.12243183
_cell_length_b   10.57140764
_cell_length_c   12.88068784
_cell_angle_alpha   80.93566634
_cell_angle_beta   80.83423912
_cell_angle_gamma   78.80059812
_symmetry_Int_Tables_number   1
_chemical_formula_structural   U4Ga20Ni11
_chemical_formula_sum   'U4 Ga20 Ni11'
_cell_volume   538.95331954
_cell_formula_units_Z   1
loop_
 _symmetry_equiv_pos_site_id
 _symmetry_equiv_pos_as_xyz
  1  'x, y, z'
loop_
 _atom_site_type_symbol
 _atom_site_label
 _atom_site_symmetry_multiplicity
 _atom_site_fract_x
 _atom_site_fract_y
 _atom_site_fract_z
 _atom_site_occupancy
  U  U0  1  0.12013106  0.09346536  0.66945048  1
  U  U1  1  0.22943623  0.36696669  0.17727892  1
  U  U2  1  0.77778818  0.63198883  0.82228826  1
  U  U3  1  0.88832873  0.90365348  0.33088990  1
  Ga  Ga0  1  0.06982467  0.66611729  0.20318518  1
  Ga  Ga1  1  0.30134457  0.90268868  0.50029064  1
  Ga  Ga2  1  0.60270639  0.79570702  0.00377623  1
  Ga  Ga3  1  0.25756603  0.79344203  0.70215969  1
  Ga  Ga4  1  0.89004467  0.67075775  0.54851769  1
  Ga  Ga5  1  0.74656765  0.20590405  0.29792291  1
  Ga  Ga6  1  0.63248327  0.93953030  0.80671476  1
  Ga  Ga7  1  0.70098222  0.09777672  0.49884143  1
  Ga  Ga8  1  0.40286654  0.20597730  0.99511761  1
  Ga  Ga9  1  0.93424531  0.33534340  0.79408667  1
  Ga  Ga10  1  0.46401272  0.70294107  0.37750324  1
  Ga  Ga11  1  0.99842900  0.92241152  0.08838163  1
  Ga  Ga12  1  0.80417575  0.39218729  0.00258579  1
  Ga  Ga13  1  0.54300391  0.29553981  0.62153656  1
  Ga  Ga14  1  0.00611094  0.08047885  0.91021085  1
  Ga  Ga15  1  0.19953862  0.60731078  0.99767448  1
  Ga  Ga16  1  0.10555811  0.32923193  0.45082220  1
  Ga  Ga17  1  0.37861932  0.06004988  0.19487485  1
  Ga  Ga18  1  0.61349086  0.47131693  0.30801516  1
  Ga  Ga19  1  0.39555422  0.52846956  0.69002702  1
  Ni  Ni0  1  0.13974766  0.83871780  0.89338719  1
  Ni  Ni1  1  0.50063279  0.18034629  0.80826465  1
  Ni  Ni2  1  0.87167061  0.16039292  0.10620202  1
  Ni  Ni3  1  0.97891444  0.43641582  0.61079958  1
  Ni  Ni4  1  0.50315819  0.49886993  0.49898170  1
  Ni  Ni5  1  0.65914904  0.57605592  0.11281598  1
  Ni  Ni6  1  0.02739082  0.56380529  0.38733452  1
  Ni  Ni7  1  0.34334226  0.42595829  0.88636324  1
  Ni  Ni8  1  0.24471118  0.11958737  0.38612070  1
  Ni  Ni9  1  0.50128998  0.82067924  0.19028516  1
  Ni  Ni10  1  0.75598905  0.88183959  0.61293108  1
loop_
_geom_bond_atom_site_label_1
_geom_bond_atom_site_label_2
_geom_bond_distance
_geom_bond_site_symmetry_2
Ga0 Ni6 2.441233 1_555
Ga0 Ni5 2.591020 1_555
Ga0 Ni5 2.594359 1_455
Ga0 Ni9 2.596431 1_455
Ga0 Ni9 2.609658 1_555
Ga0 Ga15 2.760087 1_554
Ga0 Ga11 2.860178 1_455
Ga0 U3 3.122618 1_455
Ga0 U1 3.162214 1_555
Ga1 Ni10 2.502111 1_455
Ga1 Ni10 2.504302 1_555
Ga1 Ni8 2.512691 1_565
Ga1 Ga3 2.666968 1_555
Ga1 Ga7 2.875020 1_565
Ga1 Ga7 2.898087 1_465
Ga1 U3 2.971529 1_455
Ga1 U3 2.989502 1_555
Ga1 U0 3.107063 1_565
Ga2 Ni9 2.419258 1_555
Ga2 Ni0 2.488911 1_554
Ga2 Ni5 2.507032 1_555
Ga2 Ni0 2.512840 1_654
Ga2 Ga6 2.743513 1_554
Ga2 U2 3.038620 1_554
Ga3 Ni10 2.463975 1_555
Ga3 Ni10 2.477454 1_455
Ga3 Ni0 2.536155 1_555
Ga3 U2 2.951236 1_555
Ga3 U2 2.953551 1_455
Ga3 Ga6 2.972069 1_555
Ga3 Ga6 2.973691 1_455
Ga3 U0 3.084634 1_565
Ga4 Ni10 2.435433 1_555
Ga4 Ni6 2.454746 1_655
Ga4 Ni3 2.455568 1_555
Ga4 Ni4 2.840421 1_555
Ga4 Ni4 2.857411 1_655
Ga4 U3 3.427030 1_555
Ga5 Ni8 2.455417 1_655
Ga5 Ni8 2.461986 1_555
Ga5 Ni2 2.543245 1_555
Ga5 Ga7 2.652526 1_555
Ga5 U1 2.944549 1_555
Ga5 U1 2.962052 1_655
Ga5 U3 3.107642 1_545
Ga6 Ni0 2.500351 1_555
Ga6 Ni1 2.500360 1_565
Ga6 Ni0 2.501652 1_655
Ga6 Ni10 2.610686 1_555
Ga6 U0 3.007874 1_665
Ga6 U0 3.030397 1_565
Ga6 U2 3.169433 1_555
Ga7 Ni8 2.498791 1_655
Ga7 Ni10 2.504013 1_545
Ga7 Ni8 2.509042 1_555
Ga7 U0 2.983203 1_555
Ga7 U0 2.994095 1_655
Ga7 U3 3.120690 1_545
Ga8 Ni1 2.425395 1_555
Ga8 Ni2 2.503854 1_456
Ga8 Ni7 2.508373 1_555
Ga8 Ni2 2.513259 1_556
Ga8 U1 3.027230 1_556
Ga9 Ni3 2.427415 1_555
Ga9 Ni1 2.593321 1_655
Ga9 Ni7 2.606561 1_555
Ga9 Ni7 2.607577 1_655
Ga9 Ni1 2.617806 1_555
Ga9 U0 3.137371 1_655
Ga9 U2 3.143374 1_555
Ga10 Ni4 2.451537 1_555
Ga10 Ni6 2.506285 1_655
Ga10 Ni6 2.513238 1_555
Ga10 Ni9 2.529549 1_555
Ga10 U3 2.931083 1_455
Ga10 U3 2.937356 1_555
Ga11 Ni2 2.507601 1_565
Ga11 Ni9 2.575654 1_555
Ga11 Ni9 2.594787 1_655
Ga11 Ga14 2.617090 1_664
Ga11 Ni0 2.732115 1_654
Ga11 Ga2 2.736092 1_655
Ga11 Ga2 2.741914 1_555
Ga11 Ga17 2.931802 1_565
Ga11 Ga17 2.941902 1_665
Ga11 U3 3.064438 1_555
Ga12 Ni5 2.509838 1_555
Ga12 Ni7 2.527572 1_654
Ga12 Ni7 2.540039 1_554
Ga12 Ni2 2.585755 1_555
Ga12 Ga9 2.790286 1_554
Ga12 Ga8 2.827824 1_554
Ga12 Ga8 2.841193 1_654
Ga12 U1 3.015604 1_655
Ga12 U1 3.017600 1_555
Ga12 Ga15 3.031783 1_554
Ga12 Ga15 3.032137 1_654
Ga12 U2 3.154356 1_554
Ga13 Ni4 2.452659 1_555
Ga13 Ni1 2.514812 1_555
Ga13 Ni3 2.517320 1_455
Ga13 Ni3 2.522254 1_555
Ga13 Ga7 2.734376 1_555
Ga13 U0 2.944770 1_555
Ga13 U0 2.946669 1_655
Ga14 Ni0 2.543990 1_545
Ga14 Ni1 2.557600 1_555
Ga14 Ni1 2.600288 1_455
Ga14 Ni2 2.727331 1_456
Ga14 Ga8 2.729408 1_455
Ga14 Ga8 2.738859 1_555
Ga14 Ga9 2.854034 1_455
Ga14 Ga6 2.922539 1_445
Ga14 Ga6 2.949513 1_545
Ga14 U0 3.046885 1_555
Ga15 Ni7 2.497281 1_555
Ga15 Ni5 2.520007 1_456
Ga15 Ni5 2.529100 1_556
Ga15 Ni0 2.585617 1_555
Ga15 Ga2 2.847898 1_456
Ga15 Ga2 2.848122 1_556
Ga15 U2 3.013943 1_455
Ga15 U2 3.032208 1_555
Ga15 U1 3.152749 1_556
Ga16 Ni8 2.423046 1_555
Ga16 Ni3 2.442490 1_455
Ga16 Ni6 2.460983 1_555
Ga16 Ni4 2.810273 1_455
Ga16 Ni4 2.846681 1_555
Ga16 U0 3.454002 1_555
Ga17 Ni9 2.490604 1_545
Ga17 Ni2 2.505452 1_555
Ga17 Ni2 2.512938 1_455
Ga17 Ni8 2.586395 1_555
Ga17 Ga8 2.781630 1_554
Ga17 Ga5 2.938502 1_555
Ga17 Ga5 2.985089 1_455
Ga17 U3 3.021382 1_545
Ga17 U3 3.024133 1_445
Ga17 U1 3.161368 1_555
Ga18 Ni4 2.481954 1_555
Ga18 Ni6 2.535616 1_655
Ga18 Ni6 2.539347 1_555
Ga18 Ni5 2.576066 1_555
Ga18 Ga5 2.772109 1_555
Ga18 U1 2.938566 1_655
Ga18 U1 2.944900 1_555
Ga19 Ni4 2.488200 1_555
Ga19 Ni3 2.528591 1_555
Ga19 Ni3 2.541466 1_455
Ga19 Ni7 2.582623 1_555
Ga19 Ga3 2.772183 1_555
Ga19 U2 2.948782 1_555
Ga19 U2 2.950967 1_455
Ni0 U2 3.188011 1_555
Ni0 U2 3.189663 1_455
Ni1 U0 2.910610 1_555
Ni1 U0 2.951987 1_655
Ni2 U1 3.177027 1_655
Ni2 U1 3.198205 1_555
Ni3 Ni4 2.538491 1_655
Ni3 Ni4 2.540521 1_555
Ni4 Ni6 2.539812 1_555
Ni4 Ni6 2.546536 1_655
Ni5 U1 3.021136 1_655
Ni5 U1 3.031065 1_555
Ni7 U2 2.989110 1_455
Ni7 U2 3.018366 1_555
Ni8 U3 3.165877 1_445
Ni8 U3 3.211606 1_545
Ni9 U3 2.925743 1_555
Ni9 U3 2.935337 1_455
Ni10 U0 3.155047 1_665
Ni10 U0 3.167546 1_565
