# generated using pymatgen
data_Nb2Ni4O9
_symmetry_space_group_name_H-M   'P 1'
_cell_length_a   5.12253300
_cell_length_b   8.81251500
_cell_length_c   14.49088200
_cell_angle_alpha   90.00000000
_cell_angle_beta   90.00000000
_cell_angle_gamma   90.00000000
_symmetry_Int_Tables_number   1
_chemical_formula_structural   Nb2Ni4O9
_chemical_formula_sum   'Nb8 Ni16 O36'
_cell_volume   654.15317566
_cell_formula_units_Z   4
loop_
 _symmetry_equiv_pos_site_id
 _symmetry_equiv_pos_as_xyz
  1  'x, y, z'
loop_
 _atom_site_type_symbol
 _atom_site_label
 _atom_site_symmetry_multiplicity
 _atom_site_fract_x
 _atom_site_fract_y
 _atom_site_fract_z
 _atom_site_occupancy
  Nb  Nb0  1  0.49831000  0.53084900  0.35531500  1
  Nb  Nb1  1  0.99831000  0.96915100  0.35531500  1
  Nb  Nb2  1  0.00169000  0.96915100  0.85531500  1
  Nb  Nb3  1  0.50169000  0.53084900  0.85531500  1
  Nb  Nb4  1  0.49831000  0.46915100  0.14468500  1
  Nb  Nb5  1  0.99831000  0.03084900  0.14468500  1
  Nb  Nb6  1  0.50169000  0.46915100  0.64468500  1
  Nb  Nb7  1  0.00169000  0.03084900  0.64468500  1
  Ni  Ni0  1  0.99453000  0.66471700  0.00293300  1
  Ni  Ni1  1  0.50102800  0.83724300  0.18674800  1
  Ni  Ni2  1  0.50547000  0.16471700  0.99706700  1
  Ni  Ni3  1  0.99897200  0.33724300  0.81325200  1
  Ni  Ni4  1  0.49453000  0.83528300  0.00293300  1
  Ni  Ni5  1  0.49897200  0.16275700  0.81325200  1
  Ni  Ni6  1  0.50547000  0.83528300  0.50293300  1
  Ni  Ni7  1  0.50102800  0.16275700  0.31325200  1
  Ni  Ni8  1  0.00102800  0.33724300  0.31325200  1
  Ni  Ni9  1  0.00102800  0.66275700  0.18674800  1
  Ni  Ni10  1  0.49453000  0.16471700  0.49706700  1
  Ni  Ni11  1  0.00547000  0.33528300  0.99706700  1
  Ni  Ni12  1  0.99453000  0.33528300  0.49706700  1
  Ni  Ni13  1  0.99897200  0.66275700  0.68674800  1
  Ni  Ni14  1  0.49897200  0.83724300  0.68674800  1
  Ni  Ni15  1  0.00547000  0.66471700  0.50293300  1
  O  O0  1  0.64700000  0.35045400  0.74917800  1
  O  O1  1  0.82731200  0.83500500  0.59705800  1
  O  O2  1  0.67268800  0.33500500  0.40294200  1
  O  O3  1  0.32731200  0.66499500  0.59705800  1
  O  O4  1  0.20969500  0.50000000  0.75000000  1
  O  O5  1  0.17045300  0.17097100  0.07105200  1
  O  O6  1  0.32954700  0.32902900  0.57105200  1
  O  O7  1  0.83446600  0.50380300  0.58517800  1
  O  O8  1  0.82954700  0.17097100  0.57105200  1
  O  O9  1  0.67045300  0.32902900  0.07105200  1
  O  O10  1  0.32731200  0.33500500  0.90294200  1
  O  O11  1  0.17268800  0.16499500  0.40294200  1
  O  O12  1  0.66553400  0.99619700  0.08517800  1
  O  O13  1  0.35300000  0.35045400  0.24917800  1
  O  O14  1  0.33446600  0.99619700  0.58517800  1
  O  O15  1  0.14700000  0.85045400  0.75082200  1
  O  O16  1  0.67268800  0.66499500  0.09705800  1
  O  O17  1  0.16553400  0.49619700  0.41482200  1
  O  O18  1  0.32954700  0.67097100  0.92894800  1
  O  O19  1  0.79030500  0.50000000  0.25000000  1
  O  O20  1  0.85300000  0.14954600  0.24917800  1
  O  O21  1  0.85300000  0.85045400  0.25082200  1
  O  O22  1  0.64700000  0.64954600  0.75082200  1
  O  O23  1  0.83446600  0.49619700  0.91482200  1
  O  O24  1  0.29030500  0.00000000  0.25000000  1
  O  O25  1  0.16553400  0.50380300  0.08517800  1
  O  O26  1  0.17268800  0.83500500  0.09705800  1
  O  O27  1  0.66553400  0.00380300  0.41482200  1
  O  O28  1  0.70969500  0.00000000  0.75000000  1
  O  O29  1  0.17045300  0.82902900  0.42894800  1
  O  O30  1  0.67045300  0.67097100  0.42894800  1
  O  O31  1  0.33446600  0.00380300  0.91482200  1
  O  O32  1  0.14700000  0.14954600  0.74917800  1
  O  O33  1  0.82954700  0.82902900  0.92894800  1
  O  O34  1  0.35300000  0.64954600  0.25082200  1
  O  O35  1  0.82731200  0.16499500  0.90294200  1
loop_
_geom_bond_atom_site_label_1
_geom_bond_atom_site_label_2
_geom_bond_distance
_geom_bond_site_symmetry_2
Nb0 O30 1.854963 1_555
Nb0 O17 1.934601 1_555
Nb0 O34 1.985198 1_555
Nb0 O2 2.062251 1_555
Nb0 O19 2.154110 1_555
Nb0 O13 2.333842 1_555
Nb1 O29 1.854963 1_655
Nb1 O27 1.934601 1_565
Nb1 O21 1.985198 1_555
Nb1 O11 2.062251 1_665
Nb1 O24 2.154110 1_665
Nb1 O20 2.333842 1_565
Nb2 O33 1.854963 1_455
Nb2 O31 1.934601 1_565
Nb2 O15 1.985198 1_555
Nb2 O35 2.062251 1_465
Nb2 O28 2.154110 1_465
Nb2 O32 2.333842 1_565
Nb3 O18 1.854963 1_555
Nb3 O23 1.934601 1_555
Nb3 O22 1.985198 1_555
Nb3 O10 2.062251 1_555
Nb3 O4 2.154110 1_555
Nb3 O0 2.333842 1_555
Nb4 O9 1.854963 1_555
Nb4 O25 1.934601 1_555
Nb4 O13 1.985198 1_555
Nb4 O16 2.062251 1_555
Nb4 O19 2.154110 1_555
Nb4 O34 2.333842 1_555
Nb5 O5 1.854963 1_655
Nb5 O12 1.934601 1_545
Nb5 O20 1.985198 1_555
Nb5 O26 2.062251 1_645
Nb5 O24 2.154110 1_655
Nb5 O21 2.333842 1_545
Nb6 O6 1.854963 1_555
Nb6 O7 1.934601 1_555
Nb6 O0 1.985198 1_555
Nb6 O3 2.062251 1_555
Nb6 O4 2.154110 1_555
Nb6 O22 2.333842 1_555
Nb7 O8 1.854963 1_455
Nb7 O14 1.934601 1_545
Nb7 O32 1.985198 1_555
Nb7 O1 2.062251 1_445
Nb7 O28 2.154110 1_455
Nb7 O15 2.333842 1_545
Ni0 O33 1.990068 1_554
Ni0 O18 2.024247 1_654
Ni0 O25 2.049051 1_655
Ni0 O23 2.123206 1_554
Ni0 O16 2.139722 1_555
Ni0 O26 2.223790 1_655
Ni1 O24 2.015566 1_565
Ni1 O21 2.031357 1_555
Ni1 O34 2.042809 1_555
Ni1 O26 2.125670 1_555
Ni1 O16 2.183243 1_555
Ni1 O12 2.199688 1_555
Ni2 O9 1.990068 1_556
Ni2 O5 2.024247 1_556
Ni2 O31 2.049051 1_555
Ni2 O12 2.123206 1_546
Ni2 O35 2.139722 1_555
Ni2 O10 2.223790 1_555
Ni3 O4 2.015566 1_655
Ni3 O0 2.031357 1_555
Ni3 O32 2.042809 1_655
Ni3 O10 2.125670 1_655
Ni3 O35 2.183243 1_555
Ni3 O23 2.199688 1_555
Ni4 O18 1.990068 1_554
Ni4 O33 2.024247 1_554
Ni4 O12 2.049051 1_555
Ni4 O31 2.123206 1_564
Ni4 O26 2.139722 1_555
Ni4 O16 2.223790 1_555
Ni5 O28 2.015566 1_555
Ni5 O32 2.031357 1_555
Ni5 O0 2.042809 1_555
Ni5 O35 2.125670 1_555
Ni5 O10 2.183243 1_555
Ni5 O31 2.199688 1_555
Ni6 O30 1.990068 1_555
Ni6 O29 2.024247 1_555
Ni6 O14 2.049051 1_555
Ni6 O27 2.123206 1_565
Ni6 O1 2.139722 1_555
Ni6 O3 2.223790 1_555
Ni7 O24 2.015566 1_555
Ni7 O20 2.031357 1_555
Ni7 O13 2.042809 1_555
Ni7 O11 2.125670 1_555
Ni7 O2 2.183243 1_555
Ni7 O27 2.199688 1_555
Ni8 O19 2.015566 1_455
Ni8 O13 2.031357 1_555
Ni8 O20 2.042809 1_455
Ni8 O2 2.125670 1_455
Ni8 O11 2.183243 1_555
Ni8 O17 2.199688 1_555
Ni9 O19 2.015566 1_455
Ni9 O34 2.031357 1_555
Ni9 O21 2.042809 1_455
Ni9 O16 2.125670 1_455
Ni9 O26 2.183243 1_555
Ni9 O25 2.199688 1_555
Ni10 O6 1.990068 1_555
Ni10 O8 2.024247 1_555
Ni10 O27 2.049051 1_555
Ni10 O14 2.123206 1_545
Ni10 O11 2.139722 1_555
Ni10 O2 2.223790 1_555
Ni11 O5 1.990068 1_556
Ni11 O9 2.024247 1_456
Ni11 O23 2.049051 1_455
Ni11 O25 2.123206 1_556
Ni11 O10 2.139722 1_555
Ni11 O35 2.223790 1_455
Ni12 O8 1.990068 1_555
Ni12 O6 2.024247 1_655
Ni12 O17 2.049051 1_655
Ni12 O7 2.123206 1_555
Ni12 O2 2.139722 1_555
Ni12 O11 2.223790 1_655
Ni13 O4 2.015566 1_655
Ni13 O22 2.031357 1_555
Ni13 O15 2.042809 1_655
Ni13 O3 2.125670 1_655
Ni13 O1 2.183243 1_555
Ni13 O7 2.199688 1_555
Ni14 O28 2.015566 1_565
Ni14 O15 2.031357 1_555
Ni14 O22 2.042809 1_555
Ni14 O1 2.125670 1_555
Ni14 O3 2.183243 1_555
Ni14 O14 2.199688 1_555
Ni15 O29 1.990068 1_555
Ni15 O30 2.024247 1_455
Ni15 O7 2.049051 1_455
Ni15 O17 2.123206 1_555
Ni15 O3 2.139722 1_555
Ni15 O1 2.223790 1_455
