# generated using pymatgen
data_CdI2
_symmetry_space_group_name_H-M   'P 1'
_cell_length_a   4.33655406
_cell_length_b   4.33655406
_cell_length_c   184.03396000
_cell_angle_alpha   90.00000000
_cell_angle_beta   90.00000000
_cell_angle_gamma   120.00000094
_symmetry_Int_Tables_number   1
_chemical_formula_structural   CdI2
_chemical_formula_sum   'Cd25 I50'
_cell_volume   2997.21659561
_cell_formula_units_Z   25
loop_
 _symmetry_equiv_pos_site_id
 _symmetry_equiv_pos_as_xyz
  1  'x, y, z'
loop_
 _atom_site_type_symbol
 _atom_site_label
 _atom_site_symmetry_multiplicity
 _atom_site_fract_x
 _atom_site_fract_y
 _atom_site_fract_z
 _atom_site_occupancy
  Cd  Cd0  1  0.33333300  0.66666700  0.97000000  1
  Cd  Cd1  1  0.66666700  0.33333300  0.64999200  1
  Cd  Cd2  1  0.66666700  0.33333300  0.57000400  1
  Cd  Cd3  1  0.33333300  0.66666700  0.77000400  1
  Cd  Cd4  1  0.33333300  0.66666700  0.37000100  1
  Cd  Cd5  1  0.66666700  0.33333300  0.40999900  1
  Cd  Cd6  1  0.66666700  0.33333300  0.33000700  1
  Cd  Cd7  1  0.66666700  0.33333300  0.00999900  1
  Cd  Cd8  1  0.33333300  0.66666700  0.53001000  1
  Cd  Cd9  1  0.33333300  0.66666700  0.28999500  1
  Cd  Cd10  1  0.66666700  0.33333300  0.17000300  1
  Cd  Cd11  1  0.66666700  0.33333300  0.73000800  1
  Cd  Cd12  1  0.66666700  0.33333300  0.81000200  1
  Cd  Cd13  1  0.66666700  0.33333300  0.08999800  1
  Cd  Cd14  1  0.33333300  0.66666700  0.93001000  1
  Cd  Cd15  1  0.33333300  0.66666700  0.61000100  1
  Cd  Cd16  1  0.33333300  0.66666700  0.68999600  1
  Cd  Cd17  1  0.33333300  0.66666700  0.04999300  1
  Cd  Cd18  1  0.33333300  0.66666700  0.13001000  1
  Cd  Cd19  1  0.66666700  0.33333300  0.88999600  1
  Cd  Cd20  1  0.66666700  0.33333300  0.48999900  1
  Cd  Cd21  1  0.66666700  0.33333300  0.24999300  1
  Cd  Cd22  1  0.33333300  0.66666700  0.44999300  1
  Cd  Cd23  1  0.33333300  0.66666700  0.84999500  1
  Cd  Cd24  1  0.33333300  0.66666700  0.21000000  1
  I  I0  1  0.00000000  0.00000000  0.12063100  1
  I  I1  1  0.00000000  0.00000000  0.52063100  1
  I  I2  1  0.00000000  0.00000000  0.36062400  1
  I  I3  1  0.00000000  0.00000000  0.24061100  1
  I  I4  1  0.00000000  0.00000000  0.20061300  1
  I  I5  1  0.00000000  0.00000000  0.56061800  1
  I  I6  1  0.00000000  0.00000000  0.48060900  1
  I  I7  1  0.00000000  0.00000000  0.88060600  1
  I  I8  1  0.33333300  0.66666700  0.89937900  1
  I  I9  1  0.00000000  0.00000000  0.84061000  1
  I  I10  1  0.00000000  0.00000000  0.64060900  1
  I  I11  1  0.00000000  0.00000000  0.72063400  1
  I  I12  1  0.66666700  0.33333300  0.97937400  1
  I  I13  1  0.00000000  0.00000000  0.68063100  1
  I  I14  1  0.33333300  0.66666700  0.57937900  1
  I  I15  1  0.33333300  0.66666700  0.01937900  1
  I  I16  1  0.33333300  0.66666700  0.65936600  1
  I  I17  1  0.66666700  0.33333300  0.13939100  1
  I  I18  1  0.33333300  0.66666700  0.73938800  1
  I  I19  1  0.00000000  0.00000000  0.60062600  1
  I  I20  1  0.33333300  0.66666700  0.81939000  1
  I  I21  1  0.00000000  0.00000000  0.92063300  1
  I  I22  1  0.66666700  0.33333300  0.69937600  1
  I  I23  1  0.00000000  0.00000000  0.40063100  1
  I  I24  1  0.66666700  0.33333300  0.29936800  1
  I  I25  1  0.66666700  0.33333300  0.21937900  1
  I  I26  1  0.00000000  0.00000000  0.80062400  1
  I  I27  1  0.00000000  0.00000000  0.32062800  1
  I  I28  1  0.66666700  0.33333300  0.05937000  1
  I  I29  1  0.66666700  0.33333300  0.61937800  1
  I  I30  1  0.33333300  0.66666700  0.17938600  1
  I  I31  1  0.00000000  0.00000000  0.28061600  1
  I  I32  1  0.66666700  0.33333300  0.85937600  1
  I  I33  1  0.33333300  0.66666700  0.09937600  1
  I  I34  1  0.00000000  0.00000000  0.08061700  1
  I  I35  1  0.66666700  0.33333300  0.93938400  1
  I  I36  1  0.00000000  0.00000000  0.00063300  1
  I  I37  1  0.33333300  0.66666700  0.41938300  1
  I  I38  1  0.00000000  0.00000000  0.96061900  1
  I  I39  1  0.00000000  0.00000000  0.16061900  1
  I  I40  1  0.66666700  0.33333300  0.77938200  1
  I  I41  1  0.66666700  0.33333300  0.45937200  1
  I  I42  1  0.33333300  0.66666700  0.25936200  1
  I  I43  1  0.00000000  0.00000000  0.04061300  1
  I  I44  1  0.66666700  0.33333300  0.37938000  1
  I  I45  1  0.00000000  0.00000000  0.76061900  1
  I  I46  1  0.33333300  0.66666700  0.49938300  1
  I  I47  1  0.66666700  0.33333300  0.53938800  1
  I  I48  1  0.33333300  0.66666700  0.33938600  1
  I  I49  1  0.00000000  0.00000000  0.44061100  1
loop_
_geom_bond_atom_site_label_1
_geom_bond_atom_site_label_2
_geom_bond_distance
_geom_bond_site_symmetry_2
Cd0 I12 3.040500 1_455
Cd0 I12 3.040500 1_565
Cd0 I12 3.040507 1_555
Cd0 I38 3.041232 1_565
Cd0 I38 3.041235 1_665
Cd0 I38 3.041235 1_555
Cd1 I16 3.040500 1_545
Cd1 I16 3.040500 1_655
Cd1 I16 3.040507 1_555
Cd1 I10 3.041441 1_655
Cd1 I10 3.041444 1_555
Cd1 I10 3.041444 1_665
Cd2 I14 3.040605 1_545
Cd2 I14 3.040605 1_655
Cd2 I14 3.040611 1_555
Cd2 I5 3.041754 1_655
Cd2 I5 3.041757 1_555
Cd2 I5 3.041757 1_665
Cd3 I40 3.040918 1_455
Cd3 I40 3.040918 1_565
Cd3 I40 3.040924 1_555
Cd3 I45 3.041650 1_565
Cd3 I45 3.041653 1_665
Cd3 I45 3.041653 1_555
Cd4 I2 3.040814 1_565
Cd4 I2 3.040817 1_665
Cd4 I2 3.040817 1_555
Cd4 I44 3.041023 1_455
Cd4 I44 3.041023 1_565
Cd4 I44 3.041029 1_555
Cd5 I23 3.039874 1_655
Cd5 I23 3.039877 1_555
Cd5 I23 3.039877 1_665
Cd5 I37 3.041545 1_545
Cd5 I37 3.041545 1_655
Cd5 I37 3.041551 1_555
Cd6 I48 3.041023 1_545
Cd6 I48 3.041023 1_655
Cd6 I27 3.041023 1_655
Cd6 I27 3.041026 1_665
Cd6 I27 3.041026 1_555
Cd6 I48 3.041029 1_555
Cd7 I36 3.039665 1_655
Cd7 I36 3.039668 1_555
Cd7 I36 3.039668 1_665
Cd7 I15 3.041127 1_545
Cd7 I15 3.041127 1_655
Cd7 I15 3.041133 1_555
Cd8 I47 3.040918 1_455
Cd8 I47 3.040918 1_565
Cd8 I47 3.040924 1_555
Cd8 I1 3.041023 1_565
Cd8 I1 3.041026 1_665
Cd8 I1 3.041026 1_555
Cd9 I24 3.040396 1_455
Cd9 I24 3.040396 1_565
Cd9 I24 3.040402 1_555
Cd9 I31 3.041023 1_565
Cd9 I31 3.041026 1_665
Cd9 I31 3.041026 1_555
Cd10 I30 3.041441 1_545
Cd10 I30 3.041441 1_655
Cd10 I30 3.041447 1_555
Cd10 I39 3.041545 1_655
Cd10 I39 3.041548 1_555
Cd10 I39 3.041548 1_665
Cd11 I11 3.040500 1_655
Cd11 I11 3.040504 1_665
Cd11 I11 3.040504 1_555
Cd11 I18 3.041127 1_545
Cd11 I18 3.041127 1_655
Cd11 I18 3.041133 1_555
Cd12 I26 3.040918 1_655
Cd12 I26 3.040921 1_555
Cd12 I26 3.040921 1_665
Cd12 I20 3.041963 1_545
Cd12 I20 3.041963 1_655
Cd12 I20 3.041969 1_555
Cd13 I33 3.040918 1_545
Cd13 I33 3.040918 1_655
Cd13 I33 3.040924 1_555
Cd13 I34 3.041232 1_655
Cd13 I34 3.041235 1_555
Cd13 I34 3.041235 1_665
Cd14 I35 3.040500 1_455
Cd14 I35 3.040500 1_565
Cd14 I35 3.040507 1_555
Cd14 I21 3.040814 1_565
Cd14 I21 3.040817 1_665
Cd14 I21 3.040817 1_555
Cd15 I19 3.040605 1_565
Cd15 I19 3.040608 1_555
Cd15 I19 3.040608 1_665
Cd15 I29 3.040814 1_455
Cd15 I29 3.040814 1_565
Cd15 I29 3.040820 1_555
Cd16 I13 3.039561 1_565
Cd16 I13 3.039564 1_665
Cd16 I13 3.039564 1_555
Cd16 I22 3.041127 1_455
Cd16 I22 3.041127 1_565
Cd16 I22 3.041133 1_555
Cd17 I28 3.040814 1_455
Cd17 I28 3.040814 1_565
Cd17 I28 3.040820 1_555
Cd17 I43 3.041127 1_565
Cd17 I43 3.041130 1_555
Cd17 I43 3.041130 1_665
Cd18 I0 3.041023 1_565
Cd18 I0 3.041026 1_555
Cd18 I0 3.041026 1_665
Cd18 I17 3.041232 1_455
Cd18 I17 3.041232 1_565
Cd18 I17 3.041238 1_555
Cd19 I8 3.041441 1_545
Cd19 I8 3.041441 1_655
Cd19 I8 3.041447 1_555
Cd19 I7 3.042172 1_655
Cd19 I7 3.042175 1_665
Cd19 I7 3.042175 1_555
Cd20 I46 3.041545 1_545
Cd20 I46 3.041545 1_655
Cd20 I46 3.041551 1_555
Cd20 I6 3.042172 1_655
Cd20 I6 3.042175 1_555
Cd20 I6 3.042175 1_665
Cd21 I42 3.039978 1_545
Cd21 I42 3.039978 1_655
Cd21 I42 3.039985 1_555
Cd21 I3 3.041336 1_655
Cd21 I3 3.041339 1_665
Cd21 I3 3.041339 1_555
Cd22 I41 3.041023 1_455
Cd22 I41 3.041023 1_565
Cd22 I41 3.041029 1_555
Cd22 I49 3.041336 1_565
Cd22 I49 3.041339 1_555
Cd22 I49 3.041339 1_665
Cd23 I32 3.041232 1_455
Cd23 I32 3.041232 1_565
Cd23 I32 3.041238 1_555
Cd23 I9 3.041650 1_565
Cd23 I9 3.041653 1_665
Cd23 I9 3.041653 1_555
Cd24 I25 3.041023 1_455
Cd24 I25 3.041023 1_565
Cd24 I25 3.041029 1_555
Cd24 I4 3.041859 1_565
Cd24 I4 3.041862 1_665
Cd24 I4 3.041862 1_555
