# generated using pymatgen
data_Sc3NbO7
_symmetry_space_group_name_H-M   'P 1'
_cell_length_a   5.10590000
_cell_length_b   7.18714700
_cell_length_c   7.76296435
_cell_angle_alpha   62.61165894
_cell_angle_beta   90.00000000
_cell_angle_gamma   90.00000000
_symmetry_Int_Tables_number   1
_chemical_formula_structural   Sc3NbO7
_chemical_formula_sum   'Sc6 Nb2 O14'
_cell_volume   252.94429452
_cell_formula_units_Z   2
loop_
 _symmetry_equiv_pos_site_id
 _symmetry_equiv_pos_as_xyz
  1  'x, y, z'
loop_
 _atom_site_type_symbol
 _atom_site_label
 _atom_site_symmetry_multiplicity
 _atom_site_fract_x
 _atom_site_fract_y
 _atom_site_fract_z
 _atom_site_occupancy
  Sc  Sc0  1  0.00000000  0.00000000  0.00000000  1
  Sc  Sc1  1  0.00000000  0.50000000  0.00000000  1
  Sc  Sc2  1  0.47255300  0.62248300  0.24500000  1
  Sc  Sc3  1  0.52744700  0.12248300  0.24500000  1
  Sc  Sc4  1  0.47255300  0.87751700  0.75500000  1
  Sc  Sc5  1  0.52744700  0.37751700  0.75500000  1
  Nb  Nb0  1  0.99797000  0.75000000  0.50000000  1
  Nb  Nb1  1  0.00203000  0.25000000  0.50000000  1
  O  O0  1  0.23649900  0.75000000  0.00000000  1
  O  O1  1  0.75200900  0.83182900  0.23440500  1
  O  O2  1  0.76350100  0.25000000  0.00000000  1
  O  O3  1  0.22306900  0.98801500  0.54295200  1
  O  O4  1  0.76249600  0.41720200  0.25252400  1
  O  O5  1  0.24799100  0.33182900  0.23440500  1
  O  O6  1  0.76249600  0.08279800  0.74747600  1
  O  O7  1  0.22306900  0.51198500  0.45704800  1
  O  O8  1  0.77693100  0.48801500  0.54295200  1
  O  O9  1  0.23750400  0.91720200  0.25252400  1
  O  O10  1  0.75200900  0.66817100  0.76559500  1
  O  O11  1  0.23750400  0.58279800  0.74747600  1
  O  O12  1  0.77693100  0.01198500  0.45704800  1
  O  O13  1  0.24799100  0.16817100  0.76559500  1
loop_
_geom_bond_atom_site_label_1
_geom_bond_atom_site_label_2
_geom_bond_distance
_geom_bond_site_symmetry_2
Nb0 O12 2.086312 1_565
Nb0 O8 2.086312 1_555
Nb0 O11 2.122892 1_655
Nb0 O9 2.122892 1_655
Nb0 O3 2.209807 1_655
Nb0 O7 2.209807 1_655
Nb0 O10 2.249103 1_555
Nb0 O1 2.249103 1_555
Nb1 O7 2.086312 1_555
Nb1 O3 2.086312 1_545
Nb1 O6 2.122892 1_455
Nb1 O4 2.122892 1_455
Nb1 O8 2.209807 1_455
Nb1 O12 2.209807 1_455
Nb1 O13 2.249103 1_555
Nb1 O5 2.249103 1_555
O0 Sc4 2.075146 1_554
O0 Sc2 2.075146 1_555
O0 Sc1 2.164855 1_555
O0 Sc0 2.164855 1_565
O1 Sc2 2.047609 1_555
O1 Sc0 2.086119 1_665
O1 Sc3 2.417296 1_565
O2 Sc3 2.075146 1_555
O2 Sc5 2.075146 1_554
O2 Sc1 2.164855 1_655
O2 Sc0 2.164855 1_655
O3 Sc4 1.939155 1_555
O3 Sc3 2.577326 1_565
O4 Sc2 2.071842 1_555
O4 Sc1 2.143438 1_655
O4 Sc3 2.458514 1_555
O5 Sc3 2.047609 1_555
O5 Sc1 2.086119 1_555
O5 Sc2 2.417296 1_555
O6 Sc4 2.071842 1_545
O6 Sc0 2.143438 1_656
O6 Sc5 2.458514 1_555
O7 Sc2 1.939155 1_555
O7 Sc5 2.577326 1_555
O8 Sc5 1.939155 1_555
O8 Sc2 2.577326 1_555
O9 Sc3 2.071842 1_565
O9 Sc0 2.143438 1_565
O9 Sc2 2.458514 1_555
O10 Sc4 2.047609 1_555
O10 Sc1 2.086119 1_656
O10 Sc5 2.417296 1_555
O11 Sc5 2.071842 1_555
O11 Sc1 2.143438 1_556
O11 Sc4 2.458514 1_555
O12 Sc3 1.939155 1_555
O12 Sc4 2.577326 1_545
O13 Sc5 2.047609 1_555
O13 Sc0 2.086119 1_556
O13 Sc4 2.417296 1_545
