# generated using pymatgen
data_Pr16Si16N27Cl3O14
_symmetry_space_group_name_H-M   'P 1'
_cell_length_a   10.52040600
_cell_length_b   10.52770698
_cell_length_c   20.98953349
_cell_angle_alpha   90.26401976
_cell_angle_beta   90.37072462
_cell_angle_gamma   90.20741499
_symmetry_Int_Tables_number   1
_chemical_formula_structural   Pr16Si16N27Cl3O14
_chemical_formula_sum   'Pr32 Si32 N54 Cl6 O28'
_cell_volume   2324.62273141
_cell_formula_units_Z   2
loop_
 _symmetry_equiv_pos_site_id
 _symmetry_equiv_pos_as_xyz
  1  'x, y, z'
loop_
 _atom_site_type_symbol
 _atom_site_label
 _atom_site_symmetry_multiplicity
 _atom_site_fract_x
 _atom_site_fract_y
 _atom_site_fract_z
 _atom_site_occupancy
  Pr  Pr0  1  0.04307600  0.81678700  0.34527800  1
  Pr  Pr1  1  0.03929200  0.82279000  0.84496400  1
  Pr  Pr2  1  0.10141500  0.10348200  0.55213600  1
  Pr  Pr3  1  0.17800500  0.18862100  0.22450600  1
  Pr  Pr4  1  0.18729400  0.19891700  0.73168900  1
  Pr  Pr5  1  0.19231500  0.44096800  0.08745900  1
  Pr  Pr6  1  0.21714800  0.47070500  0.58518200  1
  Pr  Pr7  1  0.31112600  0.54004300  0.34200800  1
  Pr  Pr8  1  0.30149800  0.53013000  0.84390700  1
  Pr  Pr9  1  0.32099500  0.78458900  0.48516400  1
  Pr  Pr10  1  0.31142300  0.81773200  0.98018100  1
  Pr  Pr11  1  0.39842700  0.90316800  0.30233700  1
  Pr  Pr12  1  0.40922900  0.89373000  0.80139000  1
  Pr  Pr13  1  0.44932500  0.17624600  0.09421400  1
  Pr  Pr14  1  0.45767500  0.18080500  0.59418400  1
  Pr  Pr15  1  0.54318800  0.68395600  0.15379100  1
  Pr  Pr16  1  0.52834900  0.67803200  0.63849100  1
  Pr  Pr17  1  0.61056900  0.39230700  0.94965900  1
  Pr  Pr18  1  0.61834000  0.39601700  0.44553800  1
  Pr  Pr19  1  0.68471800  0.30972900  0.27196100  1
  Pr  Pr20  1  0.67360100  0.30371200  0.77195300  1
  Pr  Pr21  1  0.69343500  0.04823600  0.91324300  1
  Pr  Pr22  1  0.69283800  0.05230700  0.41072400  1
  Pr  Pr23  1  0.81983700  0.95819000  0.15379600  1
  Pr  Pr24  1  0.79706800  0.96247400  0.65591900  1
  Pr  Pr25  1  0.82522900  0.68897200  0.02544900  1
  Pr  Pr26  1  0.81535700  0.69776100  0.51728800  1
  Pr  Pr27  1  0.88813600  0.60517000  0.19880800  1
  Pr  Pr28  1  0.96145200  0.46847100  0.77124800  1
  Pr  Pr29  1  0.94601600  0.32035400  0.40314900  1
  Pr  Pr30  1  0.95923400  0.30112100  0.91410900  1
  Pr  Pr31  1  0.85087000  0.64540000  0.67829500  1
  Si  Si0  1  0.07256500  0.57116400  0.46337000  1
  Si  Si1  1  0.07554200  0.57078300  0.96455900  1
  Si  Si2  1  0.08003000  0.74112200  0.09849500  1
  Si  Si3  1  0.07411500  0.75461400  0.59360000  1
  Si  Si4  1  0.19650100  0.07521300  0.37289600  1
  Si  Si5  1  0.20090900  0.07876700  0.86974600  1
  Si  Si6  1  0.24258300  0.30206000  0.45837900  1
  Si  Si7  1  0.24908100  0.30110200  0.95810700  1
  Si  Si8  1  0.25392400  0.69691200  0.71080300  1
  Si  Si9  1  0.26236700  0.69563700  0.21173600  1
  Si  Si10  1  0.30628700  0.91735400  0.12439800  1
  Si  Si11  1  0.30280600  0.92226900  0.62303000  1
  Si  Si12  1  0.41798800  0.25468300  0.34732300  1
  Si  Si13  1  0.42069000  0.25303900  0.84680400  1
  Si  Si14  1  0.42799400  0.42719400  0.21408800  1
  Si  Si15  1  0.42822900  0.42825400  0.71328200  1
  Si  Si16  1  0.57051300  0.92602900  0.03655600  1
  Si  Si17  1  0.57037100  0.92816300  0.53458000  1
  Si  Si18  1  0.58003600  0.75419600  0.90222300  1
  Si  Si19  1  0.58015400  0.75856000  0.40020400  1
  Si  Si20  1  0.68986000  0.41896400  0.12865800  1
  Si  Si21  1  0.69363500  0.42344800  0.62749300  1
  Si  Si22  1  0.73821600  0.19903100  0.04160000  1
  Si  Si23  1  0.74696800  0.19805000  0.53983200  1
  Si  Si24  1  0.75473600  0.80712400  0.28928700  1
  Si  Si25  1  0.74970300  0.80807700  0.78561900  1
  Si  Si26  1  0.80337200  0.57989500  0.37543800  1
  Si  Si27  1  0.80751600  0.58165200  0.87641300  1
  Si  Si28  1  0.91618500  0.24833000  0.15338300  1
  Si  Si29  1  0.92558300  0.25232300  0.65207200  1
  Si  Si30  1  0.92862500  0.07055300  0.28555500  1
  Si  Si31  1  0.92977800  0.07203200  0.78492600  1
  N  N0  1  0.05961200  0.62365200  0.04173200  1
  N  N1  1  0.06310400  0.63462800  0.53851400  1
  N  N2  1  0.07777000  0.04836700  0.31751000  1
  N  N3  1  0.08041600  0.04782000  0.81546700  1
  N  N4  1  0.13613600  0.42194100  0.47170000  1
  N  N5  1  0.14189100  0.42312200  0.97043700  1
  N  N6  1  0.15430700  0.16836700  0.43696000  1
  N  N7  1  0.16089900  0.17835800  0.92891800  1
  N  N8  1  0.18979300  0.84914700  0.07929900  1
  N  N9  1  0.17836900  0.87325500  0.57429300  1
  N  N10  1  0.32374800  0.12746100  0.32639600  1
  N  N11  1  0.33273500  0.12212400  0.82341600  1
  N  N12  1  0.35356600  0.82169100  0.18821600  1
  N  N13  1  0.33754200  0.83048900  0.68912600  1
  N  N14  1  0.36301900  0.57442200  0.22447900  1
  N  N15  1  0.35247100  0.57175200  0.71916500  1
  N  N16  1  0.36826800  0.34725000  0.41127400  1
  N  N17  1  0.37624300  0.34603000  0.91088400  1
  N  N18  1  0.42382900  0.94312300  0.06959900  1
  N  N19  1  0.42536200  0.94452400  0.57017200  1
  N  N20  1  0.44374700  0.36362800  0.28843500  1
  N  N21  1  0.44542500  0.36408500  0.78791800  1
  N  N22  1  0.54959900  0.86737100  0.45944700  1
  N  N23  1  0.54914400  0.86315900  0.96148500  1
  N  N24  1  0.57524800  0.45440900  0.18404500  1
  N  N25  1  0.57739100  0.44723000  0.68404100  1
  N  N26  1  0.62684100  0.85083000  0.33547500  1
  N  N27  1  0.63338400  0.84987500  0.83999900  1
  N  N28  1  0.63017100  0.07561400  0.02853900  1
  N  N29  1  0.63872300  0.07432100  0.52940000  1
  N  N30  1  0.63937000  0.32577200  0.06654700  1
  N  N31  1  0.64761300  0.31233800  0.57200500  1
  N  N32  1  0.67539700  0.62575800  0.92124000  1
  N  N33  1  0.67609200  0.63607400  0.42175000  1
  N  N34  1  0.68867100  0.77300000  0.71092300  1
  N  N35  1  0.72420800  0.56987800  0.59454100  1
  N  N36  1  0.79631100  0.42990400  0.84210000  1
  N  N37  1  0.76054900  0.42848300  0.35448200  1
  N  N38  1  0.78481100  0.24279400  0.46418700  1
  N  N39  1  0.77889300  0.24244700  0.96552300  1
  N  N40  1  0.81874400  0.37422600  0.17571400  1
  N  N41  1  0.82970900  0.37886300  0.67679000  1
  N  N42  1  0.84854400  0.68118100  0.31480100  1
  N  N43  1  0.85205400  0.68098900  0.81284600  1
  N  N44  1  0.86619300  0.92230400  0.27528000  1
  N  N45  1  0.86391300  0.92541600  0.77317400  1
  N  N46  1  0.85144300  0.15673400  0.09494000  1
  N  N47  1  0.87678800  0.15975600  0.58772400  1
  N  N48  1  0.92400100  0.56261300  0.43145700  1
  N  N49  1  0.92643100  0.56152600  0.93269300  1
  N  N50  1  0.93122600  0.77527300  0.12430200  1
  N  N51  1  0.92726500  0.80516800  0.61414200  1
  N  N52  1  0.94819800  0.13988900  0.21323800  1
  N  N53  1  0.95112000  0.14841000  0.71373800  1
  Cl  Cl0  1  0.08136600  0.43130800  0.28621400  1
  Cl  Cl1  1  0.42318400  0.58404100  0.03712600  1
  Cl  Cl2  1  0.57572400  0.06853900  0.21410000  1
  Cl  Cl3  1  0.56040500  0.07633700  0.71307700  1
  Cl  Cl4  1  0.93124200  0.93252100  0.45959400  1
  Cl  Cl5  1  0.91921700  0.91550400  0.96045400  1
  O  O0  1  0.06113900  0.30921200  0.14065700  1
  O  O1  1  0.07469100  0.29957500  0.63455300  1
  O  O2  1  0.13388200  0.38117100  0.80469800  1
  O  O3  1  0.14045800  0.64997400  0.16377000  1
  O  O4  1  0.13202900  0.66449100  0.65962600  1
  O  O5  1  0.16720100  0.66008200  0.41709600  1
  O  O6  1  0.16506200  0.66605100  0.91949400  1
  O  O7  1  0.20812400  0.73631500  0.28327500  1
  O  O8  1  0.19257400  0.71969900  0.78272500  1
  O  O9  1  0.24104500  0.92632200  0.39267200  1
  O  O10  1  0.24269600  0.92862400  0.88974500  1
  O  O11  1  0.27936000  0.06069900  0.15498000  1
  O  O12  1  0.25890900  0.07132700  0.64243300  1
  O  O13  1  0.30655600  0.27944600  0.03159600  1
  O  O14  1  0.28968500  0.26572500  0.53363500  1
  O  O15  1  0.33796100  0.33562100  0.16707400  1
  O  O16  1  0.34070200  0.33323100  0.66632500  1
  O  O17  1  0.37444500  0.61783800  0.55455100  1
  O  O18  1  0.43151300  0.71106500  0.87798000  1
  O  O19  1  0.43157000  0.71098200  0.37909200  1
  O  O20  1  0.57006300  0.21038200  0.86645800  1
  O  O21  1  0.56577500  0.20987100  0.36818100  1
  O  O22  1  0.66347300  0.83277800  0.08088600  1
  O  O23  1  0.66122800  0.83487700  0.57762400  1
  O  O24  1  0.70913500  0.75860600  0.21584900  1
  O  O25  1  0.73252200  0.56717000  0.10561100  1
  O  O26  1  0.83606500  0.15893800  0.33190300  1
  O  O27  1  0.83841200  0.15837300  0.83252000  1
loop_
_geom_bond_atom_site_label_1
_geom_bond_atom_site_label_2
_geom_bond_distance
_geom_bond_site_symmetry_2
N0 Si1 1.719765 1_554
N0 Si2 1.725176 1_555
N0 Pr5 2.566756 1_555
N0 Pr25 2.583298 1_455
N1 Si3 1.711622 1_555
N1 Si0 1.713705 1_555
N1 Pr6 2.565015 1_555
N1 Pr26 2.726501 1_455
N2 Si30 1.719554 1_455
N2 Si4 1.722561 1_555
N2 Pr0 2.534995 1_545
N2 Pr3 2.672989 1_555
N3 Si31 1.725890 1_455
N3 Si5 1.727984 1_555
N3 Pr1 2.488465 1_545
N3 Pr4 2.631581 1_555
N4 Si6 1.713515 1_555
N4 Si0 1.718850 1_555
N4 Pr6 2.573487 1_555
N4 Pr29 2.673524 1_455
N5 Si1 1.711003 1_555
N5 Si7 1.732057 1_555
N5 Pr5 2.515546 1_556
N5 Pr30 2.584351 1_455
N6 Si4 1.722116 1_555
N6 Si6 1.739225 1_555
N6 Pr2 2.578833 1_555
N6 Pr29 2.807388 1_455
N7 Si5 1.678380 1_555
N7 Si7 1.697789 1_555
N7 Pr30 2.506620 1_455
N8 Si2 1.670293 1_555
N8 Si10 1.698834 1_555
N8 Pr10 2.471064 1_554
N9 Si3 1.711060 1_555
N9 Si11 1.731893 1_555
N9 Pr9 2.579332 1_555
N9 Pr2 2.601166 1_565
N10 Si12 1.717295 1_555
N10 Si4 1.750364 1_555
N10 Pr11 2.540774 1_545
N10 Pr3 2.704926 1_555
N11 Si13 1.724932 1_555
N11 Si5 1.759075 1_555
N11 Pr12 2.579028 1_545
N11 Pr4 2.585882 1_555
N12 Si9 1.711226 1_555
N12 Si10 1.750257 1_555
N12 Pr15 2.575707 1_555
N12 Pr11 2.580638 1_555
N13 Si8 1.720629 1_555
N13 Si11 1.732099 1_555
N13 Pr12 2.554101 1_555
N13 Pr16 2.787542 1_555
N14 Si9 1.682422 1_555
N14 Si14 1.709892 1_555
N14 Pr7 2.557099 1_555
N14 Pr15 2.675854 1_555
N15 Si8 1.688647 1_555
N15 Si15 1.714924 1_555
N15 Pr8 2.713299 1_555
N15 Pr16 2.754243 1_555
N16 Si6 1.723064 1_555
N16 Si12 1.739479 1_555
N16 Pr7 2.572814 1_555
N16 Pr18 2.768495 1_555
N17 Si13 1.727838 1_555
N17 Si7 1.735733 1_555
N17 Pr8 2.524466 1_555
N17 Pr17 2.634133 1_555
N18 Si16 1.705728 1_555
N18 Si10 1.715977 1_555
N18 Pr13 2.518726 1_565
N18 Pr10 2.569189 1_554
N19 Si17 1.711883 1_555
N19 Si11 1.722475 1_555
N19 Pr14 2.556820 1_565
N19 Pr9 2.675407 1_555
N20 Si14 1.708089 1_555
N20 Si12 1.712260 1_555
N20 Pr7 2.584622 1_555
N20 Pr19 2.624556 1_555
N21 Si15 1.717622 1_555
N21 Si13 1.725504 1_555
N21 Pr20 2.509617 1_555
N21 Pr8 2.598612 1_555
N22 Si17 1.711588 1_555
N22 Si19 1.719457 1_555
N22 Pr9 2.615513 1_555
N22 Pr22 2.669153 1_565
N23 Si16 1.719359 1_556
N23 Si18 1.721497 1_555
N23 Pr10 2.577419 1_555
N23 Pr21 2.672583 1_565
N24 Si14 1.700223 1_555
N24 Si20 1.721054 1_555
N24 Pr15 2.524728 1_555
N24 Pr19 2.657558 1_555
N25 Si15 1.700135 1_555
N25 Si21 1.727798 1_555
N25 Pr20 2.593227 1_555
N25 Pr16 2.666154 1_555
N26 Si24 1.726041 1_555
N26 Si19 1.745872 1_555
N26 Pr11 2.559947 1_555
N26 Pr22 2.723969 1_565
N27 Si25 1.735308 1_555
N27 Si18 1.747254 1_555
N27 Pr12 2.533298 1_555
N27 Pr21 2.659290 1_565
N28 Si16 1.702597 1_545
N28 Si22 1.742802 1_555
N28 Pr21 2.529486 1_554
N28 Pr13 2.584079 1_555
N29 Si17 1.700317 1_545
N29 Si23 1.739222 1_555
N29 Pr22 2.568397 1_555
N29 Pr14 2.601641 1_555
N30 Si20 1.708731 1_555
N30 Si22 1.773856 1_555
N30 Pr17 2.570895 1_554
N30 Pr13 2.610229 1_555
N31 Si21 1.713241 1_555
N31 Si23 1.734071 1_555
N31 Pr14 2.474888 1_555
N31 Pr18 2.816049 1_555
N32 Si18 1.733134 1_555
N32 Si27 1.746544 1_555
N32 Pr17 2.620669 1_555
N32 Pr25 2.765183 1_556
N33 Si19 1.701445 1_555
N33 Si26 1.762104 1_555
N33 Pr26 2.555905 1_555
N33 Pr18 2.647617 1_555
N34 Si25 1.728196 1_555
N34 Pr31 2.282237 1_555
N34 Pr16 2.469077 1_555
N34 Pr24 2.575671 1_555
N35 Si21 1.722611 1_555
N35 Pr26 2.322126 1_555
N35 Pr31 2.333954 1_555
N35 Pr16 2.534770 1_555
N36 Si27 1.752635 1_555
N36 Pr28 2.329968 1_555
N36 Pr20 2.354634 1_555
N36 Pr30 2.657563 1_555
N36 Pr17 3.021860 1_555
N37 Si26 1.709712 1_555
N37 Pr19 2.270351 1_555
N37 Pr18 2.459110 1_555
N37 Pr29 2.479403 1_555
N38 Si23 1.707357 1_555
N38 Pr29 2.282989 1_555
N38 Pr18 2.416583 1_555
N38 Pr22 2.483595 1_555
N39 Si22 1.719312 1_556
N39 Pr30 2.273738 1_555
N39 Pr17 2.398595 1_555
N39 Pr21 2.479124 1_555
N40 Si20 1.739950 1_555
N40 Si28 1.742862 1_555
N40 Pr19 2.563760 1_555
N40 Pr27 2.578932 1_555
N41 Si29 1.752523 1_555
N41 Si21 1.824961 1_555
N41 Pr28 2.584466 1_555
N41 Pr20 2.713021 1_555
N41 Pr31 2.814053 1_555
N42 Si26 1.731876 1_555
N42 Si24 1.740093 1_555
N42 Pr0 2.566942 1_655
N42 Pr27 2.595938 1_555
N43 Si27 1.763754 1_555
N43 Si25 1.812635 1_555
N43 Pr1 2.552543 1_655
N43 Pr28 2.665749 1_555
N43 Pr31 2.847137 1_555
N44 Si30 1.703352 1_565
N44 Si24 1.711482 1_555
N44 Pr0 2.617274 1_655
N44 Pr23 2.622334 1_555
N45 Si31 1.705876 1_565
N45 Si25 1.741896 1_555
N45 Pr24 2.586955 1_555
N45 Pr1 2.614491 1_655
N46 Si22 1.691705 1_555
N46 Si28 1.694722 1_555
N46 Pr23 2.455554 1_545
N47 Si29 1.735712 1_555
N47 Si23 1.740193 1_555
N47 Pr2 2.553902 1_655
N47 Pr24 2.663868 1_545
N48 Si0 1.698379 1_655
N48 Si26 1.735079 1_555
N48 Pr26 2.567323 1_555
N48 Pr29 2.627447 1_555
N49 Si1 1.703649 1_655
N49 Si27 1.729315 1_555
N49 Pr25 2.595628 1_556
N49 Pr30 2.790274 1_555
N50 Si2 1.699015 1_655
N50 Pr23 2.340841 1_555
N50 Pr27 2.426349 1_555
N50 Pr25 2.513852 1_555
N51 Si3 1.693636 1_655
N51 Pr31 2.305060 1_555
N51 Pr24 2.325128 1_555
N51 Pr26 2.595311 1_555
N52 Si30 1.700710 1_555
N52 Si28 1.733680 1_555
N52 Pr3 2.479262 1_655
N52 Pr23 2.641372 1_545
N53 Si31 1.715726 1_555
N53 Si29 1.718992 1_555
N53 Pr4 2.564105 1_655
N53 Pr24 2.803722 1_545
Cl0 Pr7 2.907842 1_555
Cl0 Pr3 3.040444 1_555
Cl0 Pr29 3.078274 1_455
Cl0 Pr27 3.295176 1_455
Cl1 Pr15 2.936548 1_555
Cl1 Pr10 2.982222 1_554
Cl1 Pr5 3.050488 1_555
Cl1 Pr17 3.372343 1_554
Cl2 Pr19 3.028149 1_555
Cl2 Pr13 3.062673 1_555
Cl2 Pr23 3.097956 1_545
Cl2 Pr11 3.160873 1_545
Cl3 Pr14 2.933289 1_555
Cl3 Pr20 2.933999 1_555
Cl3 Pr24 3.020317 1_545
Cl3 Pr12 3.116102 1_545
Cl4 Pr0 2.940417 1_655
Cl4 Pr22 2.989082 1_565
Cl4 Pr26 3.014283 1_555
Cl4 Pr2 3.180713 1_665
Cl5 Pr1 2.907128 1_655
Cl5 Pr25 2.925188 1_556
Cl5 Pr21 2.929684 1_565
O0 Si28 1.675555 1_455
O0 Pr5 2.257352 1_555
O0 Pr3 2.494932 1_555
O1 Si29 1.687283 1_455
O1 Pr6 2.565838 1_555
O1 Pr4 2.584747 1_555
O1 Pr2 2.703877 1_555
O2 Pr28 2.151717 1_455
O2 Pr8 2.489052 1_555
O2 Pr4 2.517419 1_555
O2 Pr30 3.069399 1_455
O3 Si9 1.692326 1_555
O3 Si2 1.790909 1_555
O3 Pr5 2.773491 1_555
O3 Pr27 2.798083 1_455
O4 Si8 1.700147 1_555
O4 Si3 1.788125 1_555
O4 Pr6 2.721672 1_555
O4 Pr31 2.992420 1_455
O5 Si0 1.680784 1_555
O5 Pr9 2.512901 1_555
O5 Pr7 2.529827 1_555
O5 Pr0 2.590804 1_555
O6 Si1 1.673626 1_555
O6 Pr10 2.545873 1_555
O6 Pr8 2.578441 1_555
O6 Pr1 2.633167 1_555
O7 Si9 1.664539 1_555
O7 Pr0 2.335834 1_555
O7 Pr7 2.643095 1_555
O7 Pr11 2.685444 1_555
O8 Si8 1.662359 1_555
O8 Pr1 2.347724 1_555
O8 Pr8 2.639380 1_555
O8 Pr12 2.942286 1_555
O9 Si4 1.690473 1_565
O9 Pr11 2.536785 1_555
O9 Pr0 2.569488 1_555
O9 Pr9 2.591802 1_555
O10 Si5 1.696089 1_565
O10 Pr10 2.344710 1_555
O10 Pr1 2.578971 1_555
O10 Pr12 2.585371 1_555
O11 Si10 1.663182 1_545
O11 Pr3 2.256698 1_555
O11 Pr13 2.516322 1_555
O12 Si11 1.686249 1_545
O12 Pr4 2.425715 1_555
O12 Pr2 2.534045 1_555
O12 Pr14 2.597575 1_555
O13 Si7 1.670050 1_554
O13 Pr13 2.272275 1_555
O13 Pr5 2.392807 1_555
O14 Si6 1.698172 1_555
O14 Pr14 2.351746 1_555
O14 Pr6 2.531972 1_555
O14 Pr2 2.642513 1_555
O15 Si14 1.665191 1_555
O15 Pr5 2.523210 1_555
O15 Pr13 2.557410 1_555
O15 Pr3 2.589315 1_555
O16 Si15 1.671100 1_555
O16 Pr14 2.529481 1_555
O16 Pr4 2.552734 1_555
O16 Pr6 2.587013 1_555
O17 Pr9 2.353554 1_555
O17 Pr6 2.357015 1_555
O17 Pr16 2.464284 1_555
O18 Si18 1.699714 1_555
O18 Pr8 2.442680 1_555
O18 Pr12 2.522752 1_555
O18 Pr10 2.735328 1_555
O19 Si19 1.695304 1_555
O19 Pr7 2.325473 1_555
O19 Pr11 2.615071 1_555
O19 Pr9 2.633391 1_555
O20 Si13 1.685165 1_555
O20 Pr21 2.361748 1_555
O20 Pr20 2.474834 1_555
O20 Pr17 2.617855 1_555
O21 Si12 1.682254 1_555
O21 Pr22 2.313033 1_555
O21 Pr18 2.594951 1_555
O21 Pr19 2.606259 1_555
O22 Si16 1.670201 1_555
O22 Pr15 2.535846 1_555
O22 Pr25 2.563192 1_555
O22 Pr23 2.593125 1_555
O23 Si17 1.642624 1_555
O23 Pr16 2.517695 1_555
O23 Pr26 2.518632 1_555
O23 Pr24 2.546138 1_555
O24 Si24 1.687737 1_555
O24 Pr15 2.305090 1_555
O24 Pr27 2.511761 1_555
O24 Pr23 2.737661 1_555
O25 Si20 1.695461 1_555
O25 Pr25 2.336366 1_555
O25 Pr15 2.556210 1_555
O25 Pr27 2.571650 1_555
O26 Si30 1.664602 1_555
O26 Pr22 2.510950 1_555
O26 Pr29 2.530222 1_555
O26 Pr19 2.578574 1_555
O27 Si31 1.660869 1_555
O27 Pr21 2.565196 1_555
O27 Pr30 2.596365 1_555
O27 Pr20 2.640501 1_555
