# generated using pymatgen
data_MnH2SO4
_symmetry_space_group_name_H-M   'P 1'
_cell_length_a   4.91344050
_cell_length_b   6.02314724
_cell_length_c   12.37846500
_cell_angle_alpha   90.00059134
_cell_angle_beta   89.99969208
_cell_angle_gamma   93.56338763
_symmetry_Int_Tables_number   1
_chemical_formula_structural   MnH2SO4
_chemical_formula_sum   'Mn4 H8 S4 O16'
_cell_volume   365.62469210
_cell_formula_units_Z   4
loop_
 _symmetry_equiv_pos_site_id
 _symmetry_equiv_pos_as_xyz
  1  'x, y, z'
loop_
 _atom_site_type_symbol
 _atom_site_label
 _atom_site_symmetry_multiplicity
 _atom_site_fract_x
 _atom_site_fract_y
 _atom_site_fract_z
 _atom_site_occupancy
  Mn  Mn0  1  0.37185200  0.19824000  0.27523400  1
  Mn  Mn1  1  0.62814500  0.80175900  0.72476400  1
  Mn  Mn2  1  0.12823300  0.30171700  0.77516800  1
  Mn  Mn3  1  0.87176300  0.69827800  0.22482600  1
  H  H0  1  0.59508900  0.42441900  0.89572800  1
  H  H1  1  0.90490000  0.07557800  0.39573100  1
  H  H2  1  0.40491000  0.57558100  0.10427200  1
  H  H3  1  0.09510300  0.92442500  0.60427000  1
  H  H4  1  0.46657800  0.23862100  0.97327900  1
  H  H5  1  0.03341900  0.26138000  0.47328200  1
  H  H6  1  0.53342300  0.76138000  0.02672200  1
  H  H7  1  0.96658200  0.73862200  0.52671900  1
  S  S0  1  0.06001200  0.79530900  0.89525200  1
  S  S1  1  0.43996900  0.70467200  0.39525200  1
  S  S2  1  0.93998800  0.20469200  0.10474800  1
  S  S3  1  0.56003100  0.29532800  0.60474900  1
  O  O0  1  0.44307500  0.48372700  0.67653800  1
  O  O1  1  0.05690900  0.01623700  0.17653200  1
  O  O2  1  0.55692700  0.51627400  0.32346300  1
  O  O3  1  0.94309100  0.98376200  0.82346800  1
  O  O4  1  0.91708900  0.58521800  0.83746800  1
  O  O5  1  0.58293400  0.91476900  0.33746800  1
  O  O6  1  0.08291200  0.41478100  0.16253200  1
  O  O7  1  0.41706600  0.08523100  0.66253200  1
  O  O8  1  0.36299400  0.79585800  0.86958000  1
  O  O9  1  0.13699900  0.70414400  0.36957900  1
  O  O10  1  0.63700500  0.20414200  0.13042000  1
  O  O11  1  0.86300200  0.29585500  0.63042100  1
  O  O12  1  0.93638000  0.81842800  0.59413600  1
  O  O13  1  0.56363000  0.68158400  0.09414100  1
  O  O14  1  0.06362200  0.18157300  0.40586500  1
  O  O15  1  0.43636900  0.31841700  0.90585900  1
loop_
_geom_bond_atom_site_label_1
_geom_bond_atom_site_label_2
_geom_bond_distance
_geom_bond_site_symmetry_2
Mn0 O2 2.153179 1_555
Mn0 O5 2.191904 1_545
Mn0 O1 2.208666 1_555
Mn0 O14 2.213481 1_555
Mn0 O10 2.214979 1_555
Mn0 O6 2.427566 1_555
Mn1 O0 2.153149 1_555
Mn1 O7 2.191892 1_565
Mn1 O3 2.208689 1_555
Mn1 O12 2.213471 1_555
Mn1 O8 2.214993 1_555
Mn1 O4 2.427593 1_555
Mn2 O3 2.153141 1_445
Mn2 O4 2.192480 1_455
Mn2 O0 2.207863 1_555
Mn2 O15 2.213720 1_555
Mn2 O11 2.214549 1_455
Mn2 O7 2.426558 1_555
Mn3 O1 2.153148 1_665
Mn3 O6 2.192447 1_655
Mn3 O2 2.207875 1_555
Mn3 O13 2.213656 1_555
Mn3 O9 2.214623 1_655
Mn3 O5 2.426605 1_555
H0 O15 0.984711 1_555
H1 O14 0.984697 1_655
H2 O13 0.984715 1_555
H3 O12 0.984708 1_455
H4 O15 0.978975 1_555
H5 O14 0.978961 1_555
H6 O13 0.978962 1_555
H7 O12 0.978957 1_555
O0 S3 1.577532 1_555
O1 S2 1.577694 1_455
O2 S1 1.577532 1_555
O3 S0 1.577685 1_655
O4 S0 1.579732 1_655
O5 S1 1.579850 1_555
O6 S2 1.579725 1_455
O7 S3 1.579844 1_555
O8 S0 1.522024 1_555
O9 S1 1.521980 1_555
O10 S2 1.522029 1_555
O11 S3 1.521983 1_555
