# generated using pymatgen
data_LaHO2
_symmetry_space_group_name_H-M   'P 1'
_cell_length_a   4.44135011
_cell_length_b   3.93499345
_cell_length_c   6.61368782
_cell_angle_alpha   90.00000000
_cell_angle_beta   112.33586087
_cell_angle_gamma   90.00000000
_symmetry_Int_Tables_number   1
_chemical_formula_structural   LaHO2
_chemical_formula_sum   'La2 H2 O4'
_cell_volume   106.91319794
_cell_formula_units_Z   2
loop_
 _symmetry_equiv_pos_site_id
 _symmetry_equiv_pos_as_xyz
  1  'x, y, z'
loop_
 _atom_site_type_symbol
 _atom_site_label
 _atom_site_symmetry_multiplicity
 _atom_site_fract_x
 _atom_site_fract_y
 _atom_site_fract_z
 _atom_site_occupancy
  La  La0  1  0.63769264  0.25000000  0.30678924  1
  La  La1  1  0.36230736  0.75000000  0.69321076  1
  H  H0  1  0.09131736  0.75000000  0.07280055  1
  H  H1  1  0.90868264  0.25000000  0.92719945  1
  O  O0  1  0.77811984  0.75000000  0.53799947  1
  O  O1  1  0.22188016  0.25000000  0.46200053  1
  O  O2  1  0.30134982  0.75000000  0.06065281  1
  O  O3  1  0.69865018  0.25000000  0.93934719  1
loop_
_geom_bond_atom_site_label_1
_geom_bond_atom_site_label_2
_geom_bond_distance
_geom_bond_site_symmetry_2
La0 O1 2.400257 1_655
La0 O0 2.423520 1_545
La0 O0 2.423520 1_555
La0 O1 2.430061 1_555
La0 O3 2.545384 1_554
La0 O2 2.627584 1_545
La0 O2 2.627584 1_555
La1 O0 2.400257 1_455
La1 O1 2.423520 1_565
La1 O1 2.423520 1_555
La1 O0 2.430061 1_555
La1 O2 2.545384 1_556
La1 O3 2.627584 1_565
La1 O3 2.627584 1_555
H0 O2 0.966222 1_555
H1 O3 0.966222 1_555
