# generated using pymatgen
data_Fe2Co4Ge2(CO)21
_symmetry_space_group_name_H-M   'P 1'
_cell_length_a   9.35717209
_cell_length_b   19.28317668
_cell_length_c   20.06736594
_cell_angle_alpha   107.23764067
_cell_angle_beta   103.48224023
_cell_angle_gamma   90.00000112
_symmetry_Int_Tables_number   1
_chemical_formula_structural   Fe2Co4Ge2(CO)21
_chemical_formula_sum   'Fe8 Co16 Ge8 C84 O84'
_cell_volume   3353.62086376
_cell_formula_units_Z   4
loop_
 _symmetry_equiv_pos_site_id
 _symmetry_equiv_pos_as_xyz
  1  'x, y, z'
loop_
 _atom_site_type_symbol
 _atom_site_label
 _atom_site_symmetry_multiplicity
 _atom_site_fract_x
 _atom_site_fract_y
 _atom_site_fract_z
 _atom_site_occupancy
  Fe  Fe0  1  0.51150968  0.44257249  0.31716914  1
  Fe  Fe1  1  0.48849032  0.55742751  0.68283086  1
  Fe  Fe2  1  0.52164095  0.68091359  0.79278048  1
  Fe  Fe3  1  0.27113954  0.18091359  0.79278048  1
  Fe  Fe4  1  0.47835905  0.31908641  0.20721952  1
  Fe  Fe5  1  0.80565946  0.94257249  0.31716914  1
  Fe  Fe6  1  0.72886046  0.81908641  0.20721952  1
  Fe  Fe7  1  0.19434054  0.05742751  0.68283086  1
  Co  Co0  1  0.62050600  0.50318646  0.88896946  1
  Co  Co1  1  0.14045963  0.47291489  0.14655978  1
  Co  Co2  1  0.85954037  0.52708511  0.85344022  1
  Co  Co3  1  0.01917353  0.24398432  0.61041924  1
  Co  Co4  1  0.00610015  0.97291489  0.14655978  1
  Co  Co5  1  0.37949400  0.49681354  0.11103054  1
  Co  Co6  1  0.26846346  0.00318646  0.88896946  1
  Co  Co7  1  0.82484803  0.20871879  0.66846153  1
  Co  Co8  1  0.15638651  0.29128121  0.33153847  1
  Co  Co9  1  0.84361349  0.70871879  0.66846153  1
  Co  Co10  1  0.98082647  0.75601568  0.38958076  1
  Co  Co11  1  0.99389985  0.02708511  0.85344022  1
  Co  Co12  1  0.59124571  0.74398432  0.61041924  1
  Co  Co13  1  0.17515197  0.79128121  0.33153847  1
  Co  Co14  1  0.40875429  0.25601568  0.38958076  1
  Co  Co15  1  0.73153654  0.99681354  0.11103054  1
  Ge  Ge0  1  0.36778418  0.33466507  0.31033490  1
  Ge  Ge1  1  0.63327099  0.57199177  0.80745859  1
  Ge  Ge2  1  0.36672901  0.42800823  0.19254141  1
  Ge  Ge3  1  0.63221582  0.66533493  0.68966510  1
  Ge  Ge4  1  0.17418759  0.07199177  0.80745859  1
  Ge  Ge5  1  0.05744928  0.16533493  0.68966510  1
  Ge  Ge6  1  0.94255072  0.83466507  0.31033490  1
  Ge  Ge7  1  0.82581241  0.92800823  0.19254141  1
  C  C0  1  0.87914169  0.62085556  0.61654554  1
  C  C1  1  0.55896412  0.23983228  0.22168641  1
  C  C2  1  0.61879153  0.51787675  0.31501183  1
  C  C3  1  0.59408396  0.26253302  0.38737334  1
  C  C4  1  0.42379635  0.98797347  0.85292304  1
  C  C5  1  0.43313002  0.67868335  0.86158451  1
  C  C6  1  0.73740386  0.12085556  0.61654554  1
  C  C7  1  0.37857651  0.12236066  0.72192036  1
  C  C8  1  0.89513657  0.05504059  0.18313540  1
  C  C9  1  0.93086839  0.61388141  0.91855174  1
  C  C10  1  0.33687244  0.55969101  0.06105289  1
  C  C11  1  0.57620365  0.01202653  0.14707696  1
  C  C12  1  0.30713967  0.73871211  0.36902443  1
  C  C13  1  0.64030396  0.58538720  0.96253647  1
  C  C14  1  0.42845449  0.17868335  0.86158451  1
  C  C15  1  0.70278335  0.80257680  0.69629366  1
  C  C16  1  0.98768334  0.11388141  0.91855174  1
  C  C17  1  0.06188476  0.23871211  0.36902443  1
  C  C18  1  0.00648968  0.69742320  0.30370634  1
  C  C19  1  0.95513466  0.72560219  0.75573046  1
  C  C20  1  0.06557158  0.47568610  0.21992388  1
  C  C21  1  0.12085831  0.37914444  0.38345446  1
  C  C22  1  0.67776749  0.91461280  0.03746353  1
  C  C23  1  0.34334386  0.62236066  0.72192036  1
  C  C24  1  0.44103588  0.76016772  0.77831359  1
  C  C25  1  0.57087330  0.51202653  0.14707696  1
  C  C26  1  0.29721665  0.19742320  0.30370634  1
  C  C27  1  0.42912670  0.48797347  0.85292304  1
  C  C28  1  0.97315532  0.31313338  0.56925672  1
  C  C29  1  0.35969604  0.41461280  0.03746353  1
  C  C30  1  0.66312756  0.44030899  0.93894711  1
  C  C31  1  0.19940420  0.77439781  0.24426954  1
  C  C32  1  0.63116317  0.50377223  0.65475541  1
  C  C33  1  0.92716271  0.16926047  0.53583189  1
  C  C34  1  0.39133083  0.33073953  0.46416811  1
  C  C35  1  0.60689693  0.44174251  0.40461308  1
  C  C36  1  0.10486343  0.94495941  0.81686460  1
  C  C37  1  0.93811524  0.76128789  0.63097557  1
  C  C38  1  0.62142349  0.87763934  0.27807964  1
  C  C39  1  0.71200118  0.44495941  0.81686460  1
  C  C40  1  0.20671062  0.23746698  0.61262666  1
  C  C41  1  0.20228384  0.05825749  0.59538692  1
  C  C42  1  0.80059580  0.22560219  0.75573046  1
  C  C43  1  0.69622030  0.01787675  0.31501183  1
  C  C44  1  0.97640776  0.99622777  0.34524459  1
  C  C45  1  0.15435230  0.97568610  0.21992388  1
  C  C46  1  0.98001620  0.47398741  0.89622526  1
  C  C47  1  0.28799882  0.55504059  0.18313540  1
  C  C48  1  0.02359224  0.00377223  0.65475541  1
  C  C49  1  0.15359924  0.22769477  0.84684113  1
  C  C50  1  0.57154551  0.82131665  0.13841549  1
  C  C51  1  0.79771616  0.94174251  0.40461308  1
  C  C52  1  0.60866917  0.66926047  0.53583189  1
  C  C53  1  0.36883683  0.49622777  0.34524459  1
  C  C54  1  0.30675812  0.27230523  0.15315887  1
  C  C55  1  0.72418045  0.05969101  0.06105289  1
  C  C56  1  0.01998380  0.52601259  0.10377474  1
  C  C57  1  0.04486534  0.27439781  0.24426954  1
  C  C58  1  0.65665614  0.37763934  0.27807964  1
  C  C59  1  0.56686998  0.32131665  0.13841549  1
  C  C60  1  0.84564770  0.02431390  0.78007612  1
  C  C61  1  0.27581955  0.94030899  0.93894711  1
  C  C62  1  0.84640076  0.77230523  0.15315887  1
  C  C63  1  0.26259614  0.87914444  0.38345446  1
  C  C64  1  0.69324188  0.72769477  0.84684113  1
  C  C65  1  0.40389860  0.18686662  0.43074328  1
  C  C66  1  0.32223251  0.08538720  0.96253647  1
  C  C67  1  0.40591604  0.73746698  0.61262666  1
  C  C68  1  0.30377970  0.98212325  0.68498817  1
  C  C69  1  0.69286033  0.26128789  0.63097557  1
  C  C70  1  0.91620906  0.97398741  0.89622526  1
  C  C71  1  0.79328938  0.76253302  0.38737334  1
  C  C72  1  0.08379094  0.02601259  0.10377474  1
  C  C73  1  0.02684468  0.68686662  0.43074328  1
  C  C74  1  0.07283729  0.83073953  0.46416811  1
  C  C75  1  0.01231666  0.88611859  0.08144826  1
  C  C76  1  0.06913161  0.38611859  0.08144826  1
  C  C77  1  0.38120847  0.48212325  0.68498817  1
  C  C78  1  0.33727771  0.26016772  0.77831359  1
  C  C79  1  0.59610140  0.81313338  0.56925672  1
  C  C80  1  0.39310307  0.55825749  0.59538692  1
  C  C81  1  0.66272229  0.73983228  0.22168641  1
  C  C82  1  0.99351032  0.30257680  0.69629366  1
  C  C83  1  0.93442842  0.52431390  0.78007612  1
  O  O0  1  0.05279104  0.64184604  0.45799719  1
  O  O1  1  0.91311186  0.73698559  0.11545403  1
  O  O2  1  0.05773269  0.43853609  0.92375503  1
  O  O3  1  0.02506231  0.83261124  0.03897573  1
  O  O4  1  0.91507076  0.56585960  0.58498440  1
  O  O5  1  0.27997259  0.89944469  0.97141719  1
  O  O6  1  0.40520614  0.14184604  0.45799719  1
  O  O7  1  0.27817983  0.14444288  0.25398288  1
  O  O8  1  0.71202230  0.46397800  0.63110720  1
  O  O9  1  0.94720896  0.35815396  0.54200281  1
  O  O10  1  0.79354428  0.94671463  0.46299285  1
  O  O11  1  0.72002741  0.10055531  0.02858281  1
  O  O12  1  0.38821189  0.70370005  0.39554052  1
  O  O13  1  0.49470692  0.12571728  0.70943109  1
  O  O14  1  0.37315646  0.68139141  0.90642208  1
  O  O15  1  0.32733277  0.23268052  0.60706516  1
  O  O16  1  0.13397766  0.06146391  0.07624497  1
  O  O17  1  0.78527582  0.37428272  0.29056891  1
  O  O18  1  0.00732862  0.20370005  0.39554052  1
  O  O19  1  0.76907854  0.23338651  0.80997368  1
  O  O20  1  0.94226731  0.56146391  0.07624497  1
  O  O21  1  0.91963972  0.11246210  0.22788811  1
  O  O22  1  0.69175162  0.38753790  0.77211189  1
  O  O23  1  0.99267138  0.79629995  0.60445948  1
  O  O24  1  0.95910486  0.26661349  0.19002632  1
  O  O25  1  0.08688814  0.26301441  0.88454597  1
  O  O26  1  0.65147546  0.63855420  0.00993519  1
  O  O27  1  0.28797770  0.53602200  0.36889280  1
  O  O28  1  0.61178811  0.29629995  0.60445948  1
  O  O29  1  0.91908490  0.96397800  0.63110720  1
  O  O30  1  0.53326562  0.18139141  0.90642208  1
  O  O31  1  0.66944858  0.44671463  0.46299285  1
  O  O32  1  0.99757915  0.52364893  0.73671631  1
  O  O33  1  0.31031182  0.43062273  0.67912120  1
  O  O34  1  0.30108227  0.48203432  0.83766451  1
  O  O35  1  0.38575602  0.37800540  0.51492315  1
  O  O36  1  0.72026761  0.26731948  0.39293484  1
  O  O37  1  0.72182017  0.85555712  0.74601712  1
  O  O38  1  0.38802691  0.81386079  0.77644532  1
  O  O39  1  0.36880938  0.93062273  0.67912120  1
  O  O40  1  0.30855541  0.60055531  0.02858281  1
  O  O41  1  0.69144459  0.39944469  0.97141719  1
  O  O42  1  0.86602234  0.93853609  0.92375503  1
  O  O43  1  0.68968818  0.56937727  0.32087880  1
  O  O44  1  0.46341776  0.01796568  0.16233549  1
  O  O45  1  0.08036028  0.88753790  0.77211189  1
  O  O46  1  0.50529308  0.87428272  0.29056891  1
  O  O47  1  0.61158159  0.68613921  0.22355468  1
  O  O48  1  0.35845973  0.13855420  0.00993519  1
  O  O49  1  0.33008636  0.93414040  0.41501560  1
  O  O50  1  0.00242085  0.47635107  0.26328369  1
  O  O51  1  0.87083287  0.12199460  0.48507685  1
  O  O52  1  0.30824838  0.61246210  0.22788811  1
  O  O53  1  0.38841841  0.31386079  0.77644532  1
  O  O54  1  0.98608658  0.66738876  0.96102427  1
  O  O55  1  0.53658224  0.98203432  0.83766451  1
  O  O56  1  0.69891773  0.51796568  0.16233549  1
  O  O57  1  0.61197309  0.18613921  0.22355468  1
  O  O58  1  0.12916713  0.87800540  0.51492315  1
  O  O59  1  0.64154027  0.86144580  0.99006481  1
  O  O60  1  0.26086284  0.97635107  0.26328369  1
  O  O61  1  0.67266723  0.76731948  0.39293484  1
  O  O62  1  0.97493769  0.16738876  0.96102427  1
  O  O63  1  0.20234217  0.23698559  0.11545403  1
  O  O64  1  0.97580305  0.64444288  0.25398288  1
  O  O65  1  0.23092146  0.76661349  0.19002632  1
  O  O66  1  0.34852454  0.36144580  0.99006481  1
  O  O67  1  0.59479386  0.85815396  0.54200281  1
  O  O68  1  0.73913716  0.02364893  0.73671631  1
  O  O69  1  0.27973239  0.73268052  0.60706516  1
  O  O70  1  0.79765783  0.76301441  0.88454597  1
  O  O71  1  0.62684354  0.31860859  0.09357792  1
  O  O72  1  0.08492924  0.43414040  0.41501560  1
  O  O73  1  0.02419695  0.35555712  0.74601712  1
  O  O74  1  0.20645572  0.05328537  0.53700715  1
  O  O75  1  0.04089514  0.73338651  0.80997368  1
  O  O76  1  0.61424398  0.62199460  0.48507685  1
  O  O77  1  0.63119062  0.06937727  0.32087880  1
  O  O78  1  0.21472418  0.62571728  0.70943109  1
  O  O79  1  0.33055142  0.55328537  0.53700715  1
  O  O80  1  0.46673438  0.81860859  0.09357792  1
  O  O81  1  0.01391342  0.33261124  0.03897573  1
  O  O82  1  0.66991364  0.06585960  0.58498440  1
  O  O83  1  0.08091510  0.03602200  0.36889280  1
loop_
_geom_bond_atom_site_label_1
_geom_bond_atom_site_label_2
_geom_bond_distance
_geom_bond_site_symmetry_2
Fe0 Ge0 2.429414 1_555
Fe0 Ge2 2.484515 1_555
Fe1 Ge3 2.429414 1_555
Fe1 Ge1 2.484515 1_555
Fe2 Ge1 2.410920 1_555
Fe2 Ge3 2.464244 1_555
Fe3 Ge4 2.410920 1_555
Fe3 Ge5 2.464244 1_555
Fe4 Ge2 2.410920 1_555
Fe4 Ge0 2.464244 1_555
Fe5 Ge6 2.429414 1_555
Fe5 Ge7 2.484515 1_555
Fe6 Ge7 2.410920 1_555
Fe6 Ge6 2.464244 1_555
Fe7 Ge5 2.429414 1_555
Fe7 Ge4 2.484515 1_555
Co0 Ge1 2.414022 1_555
Co1 Ge2 2.376258 1_555
Co2 Ge1 2.376258 1_555
Co3 Ge5 2.474090 1_555
Co4 Ge7 2.376258 1_455
Co5 Ge2 2.414022 1_555
Co6 Ge4 2.414022 1_555
Co7 Ge5 2.323180 1_655
Co8 Ge0 2.323180 1_555
Co9 Ge3 2.323180 1_555
Co10 Ge6 2.474090 1_555
Co11 Ge4 2.376258 1_655
Co12 Ge3 2.474090 1_555
Co13 Ge6 2.323180 1_455
Co14 Ge0 2.474090 1_555
Co15 Ge7 2.414022 1_555
C0 O4 1.157593 1_555
C0 Co9 1.783773 1_555
C1 O57 1.154889 1_555
C1 Fe4 1.774717 1_555
C2 O43 1.155193 1_555
C2 Fe0 1.782058 1_555
C3 O36 1.160831 1_555
C3 Co14 1.750483 1_555
C4 O55 1.162131 1_555
C4 Co6 1.756809 1_565
C5 O14 1.155353 1_555
C5 Fe2 1.778360 1_555
C6 O82 1.157593 1_555
C6 Co7 1.783773 1_555
C7 O13 1.176614 1_555
C7 Fe7 1.985541 1_555
C7 Fe3 2.005619 1_555
C8 O21 1.183121 1_555
C8 Co15 1.924080 1_545
C8 Co4 1.947097 1_645
C8 Ge7 2.605382 1_545
C9 O54 1.153885 1_555
C9 Co2 1.803125 1_555
C10 O40 1.157372 1_555
C10 Co5 1.780224 1_555
C11 O44 1.162131 1_555
C11 Co15 1.756809 1_545
C12 O12 1.157211 1_555
C12 Co13 1.771299 1_555
C13 O26 1.158631 1_556
C13 Co0 1.792169 1_555
C14 O30 1.155353 1_555
C14 Fe3 1.778360 1_555
C15 O37 1.176457 1_555
C15 Co12 1.828360 1_555
C15 Co9 2.251270 1_555
C16 O62 1.153885 1_555
C16 Co11 1.803125 1_555
C17 O18 1.157211 1_555
C17 Co8 1.771299 1_555
C18 O64 1.176457 1_455
C18 Co10 1.828360 1_455
C18 Co13 2.251270 1_555
C19 O75 1.160701 1_655
C19 Co9 1.752654 1_555
C20 O50 1.157403 1_555
C20 Co1 1.759476 1_555
C21 O72 1.157593 1_555
C21 Co8 1.783773 1_555
C22 O59 1.158631 1_554
C22 Co15 1.792169 1_555
C23 O78 1.176614 1_555
C23 Fe1 1.985541 1_555
C23 Fe2 2.005619 1_555
C24 O38 1.154889 1_555
C24 Fe2 1.774717 1_555
C25 O56 1.162131 1_555
C25 Co5 1.756809 1_555
C26 O7 1.176457 1_555
C26 Co14 1.828360 1_555
C26 Co8 2.251270 1_555
C27 O34 1.162131 1_555
C27 Co0 1.756809 1_555
C28 O9 1.153781 1_555
C28 Co3 1.769931 1_655
C29 O66 1.158631 1_554
C29 Co5 1.792169 1_555
C30 O41 1.157372 1_555
C30 Co0 1.780224 1_555
C31 O65 1.160701 1_555
C31 Co13 1.752653 1_555
C32 O8 1.156766 1_555
C32 Fe1 1.781968 1_555
C33 O51 1.159917 1_555
C33 Co3 1.782890 1_655
C34 O35 1.159917 1_555
C34 Co14 1.782890 1_555
C35 O31 1.156697 1_555
C35 Fe0 1.778330 1_555
C36 O45 1.183121 1_555
C36 Co6 1.924080 1_565
C36 Co11 1.947097 1_465
C36 Ge4 2.605382 1_565
C37 O23 1.157211 1_555
C37 Co9 1.771299 1_555
C38 O46 1.176614 1_555
C38 Fe5 1.985541 1_555
C38 Fe6 2.005619 1_555
C39 O22 1.183121 1_555
C39 Co0 1.924080 1_555
C39 Co2 1.947097 1_555
C39 Ge1 2.605382 1_555
C40 O15 1.160831 1_555
C40 Co3 1.750483 1_555
C41 O74 1.156697 1_555
C41 Fe7 1.778330 1_555
C42 O19 1.160701 1_555
C42 Co7 1.752653 1_555
C43 O77 1.155193 1_555
C43 Fe5 1.782058 1_545
C44 O83 1.156766 1_665
C44 Fe5 1.781968 1_555
C45 O60 1.157403 1_555
C45 Co4 1.759476 1_555
C46 O2 1.156659 1_655
C46 Co2 1.768065 1_555
C47 O52 1.183121 1_555
C47 Co5 1.924080 1_555
C47 Co1 1.947097 1_555
C47 Ge2 2.605382 1_555
C48 O29 1.156766 1_445
C48 Fe7 1.781968 1_555
C49 O25 1.157945 1_555
C49 Fe3 1.782326 1_555
C50 O80 1.155353 1_555
C50 Fe6 1.778360 1_555
C51 O10 1.156697 1_555
C51 Fe5 1.778330 1_555
C52 O76 1.159917 1_555
C52 Co12 1.782890 1_555
C53 O27 1.156766 1_555
C53 Fe0 1.781968 1_555
C54 O63 1.157945 1_555
C54 Fe4 1.782326 1_555
C55 O11 1.157372 1_555
C55 Co15 1.780224 1_545
C56 O20 1.156659 1_455
C56 Co1 1.768065 1_555
C57 O24 1.160701 1_455
C57 Co8 1.752654 1_555
C58 O17 1.176614 1_555
C58 Fe0 1.985541 1_555
C58 Fe4 2.005619 1_555
C59 O71 1.155353 1_555
C59 Fe4 1.778360 1_555
C60 O68 1.157403 1_555
C60 Co11 1.759476 1_555
C61 O5 1.157372 1_555
C61 Co6 1.780224 1_565
C62 O1 1.157945 1_555
C62 Fe6 1.782326 1_555
C63 O49 1.157593 1_555
C63 Co13 1.783773 1_555
C64 O70 1.157945 1_555
C64 Fe2 1.782326 1_555
C65 O6 1.153781 1_555
C65 Co14 1.769931 1_555
C66 O48 1.158631 1_556
C66 Co6 1.792169 1_555
C67 O69 1.160831 1_555
C67 Co12 1.750483 1_555
C68 O39 1.155193 1_555
C68 Fe7 1.782058 1_565
C69 O28 1.157211 1_555
C69 Co7 1.771299 1_555
C70 O42 1.156659 1_555
C70 Co11 1.768065 1_565
C71 O61 1.160831 1_555
C71 Co10 1.750483 1_555
C72 O16 1.156659 1_555
C72 Co4 1.768065 1_545
C73 O0 1.153781 1_555
C73 Co10 1.769931 1_455
C74 O58 1.159917 1_555
C74 Co10 1.782890 1_455
C75 O3 1.153885 1_555
C75 Co4 1.803125 1_555
C76 O81 1.153885 1_555
C76 Co1 1.803125 1_555
C77 O33 1.155193 1_555
C77 Fe1 1.782058 1_555
C78 O53 1.154889 1_555
C78 Fe3 1.774717 1_555
C79 O67 1.153781 1_555
C79 Co12 1.769931 1_555
C80 O79 1.156697 1_555
C80 Fe1 1.778330 1_555
C81 O47 1.154889 1_555
C81 Fe6 1.774717 1_555
C82 O73 1.176457 1_655
C82 Co3 1.828360 1_655
C82 Co7 2.251270 1_555
C83 O32 1.157403 1_555
C83 Co2 1.759476 1_555
