# generated using pymatgen
data_BaTbF6
_symmetry_space_group_name_H-M   'P 1'
_cell_length_a   7.52283700
_cell_length_b   8.80757484
_cell_length_c   8.94320076
_cell_angle_alpha   102.21319684
_cell_angle_beta   96.58808808
_cell_angle_gamma   113.45840052
_symmetry_Int_Tables_number   1
_chemical_formula_structural   BaTbF6
_chemical_formula_sum   'Ba4 Tb4 F24'
_cell_volume   518.03593495
_cell_formula_units_Z   4
loop_
 _symmetry_equiv_pos_site_id
 _symmetry_equiv_pos_as_xyz
  1  'x, y, z'
loop_
 _atom_site_type_symbol
 _atom_site_label
 _atom_site_symmetry_multiplicity
 _atom_site_fract_x
 _atom_site_fract_y
 _atom_site_fract_z
 _atom_site_occupancy
  Ba  Ba0  1  0.28802900  0.76582200  0.54269700  1
  Ba  Ba1  1  0.29871300  0.31591900  0.76743900  1
  Ba  Ba2  1  0.71197100  0.23417800  0.45730300  1
  Ba  Ba3  1  0.70128700  0.68408100  0.23256100  1
  Tb  Tb0  1  0.77026600  0.21794200  0.93813800  1
  Tb  Tb1  1  0.17443500  0.26204200  0.27592800  1
  Tb  Tb2  1  0.22973400  0.78205800  0.06186200  1
  Tb  Tb3  1  0.82556500  0.73795800  0.72407200  1
  F  F0  1  0.09013300  0.96511600  0.69385300  1
  F  F1  1  0.40214000  0.62760200  0.99573400  1
  F  F2  1  0.90986700  0.03488400  0.30614700  1
  F  F3  1  0.23991400  0.04646900  0.14130400  1
  F  F4  1  0.76008600  0.95353100  0.85869600  1
  F  F5  1  0.08964700  0.75621400  0.26926600  1
  F  F6  1  0.87873000  0.61042300  0.49717900  1
  F  F7  1  0.12929000  0.72081000  0.79611100  1
  F  F8  1  0.48909700  0.62852200  0.70145000  1
  F  F9  1  0.31362300  0.17840600  0.46756200  1
  F  F10  1  0.09568000  0.24025800  0.01460500  1
  F  F11  1  0.30704300  0.54773500  0.28962000  1
  F  F12  1  0.69295700  0.45226500  0.71038000  1
  F  F13  1  0.59786000  0.37239800  0.00426600  1
  F  F14  1  0.87071000  0.27919000  0.20388900  1
  F  F15  1  0.51919900  0.10212100  0.71804100  1
  F  F16  1  0.50000000  0.00000000  0.00000000  1
  F  F17  1  0.90432000  0.75974200  0.98539500  1
  F  F18  1  0.91035300  0.24378600  0.73073400  1
  F  F19  1  0.48080100  0.89787900  0.28195900  1
  F  F20  1  0.51090300  0.37147800  0.29855000  1
  F  F21  1  0.00000000  0.50000000  0.00000000  1
  F  F22  1  0.12127000  0.38957700  0.50282100  1
  F  F23  1  0.68637700  0.82159400  0.53243800  1
loop_
_geom_bond_atom_site_label_1
_geom_bond_atom_site_label_2
_geom_bond_distance
_geom_bond_site_symmetry_2
Ba0 F5 2.681162 1_555
Ba0 F11 2.699306 1_555
Ba0 F7 2.709926 1_555
Ba0 F8 2.730567 1_555
Ba0 F15 2.750387 1_565
Ba0 F6 2.764267 1_455
Ba0 F23 2.853093 1_555
Ba0 F0 2.943330 1_555
Ba0 F22 2.961384 1_555
Ba0 F19 3.077963 1_555
Ba1 F18 2.694600 1_455
Ba1 F13 2.714229 1_556
Ba1 F9 2.733998 1_555
Ba1 F0 2.735769 1_545
Ba1 F8 2.778842 1_555
Ba1 F1 2.805957 1_555
Ba1 F10 2.872398 1_556
Ba1 F12 2.875690 1_555
Ba1 F22 2.901279 1_555
Ba1 F15 2.965657 1_555
Ba2 F18 2.681162 1_555
Ba2 F12 2.699306 1_555
Ba2 F14 2.709926 1_555
Ba2 F20 2.730567 1_555
Ba2 F19 2.750387 1_545
Ba2 F22 2.764267 1_655
Ba2 F9 2.853093 1_555
Ba2 F2 2.943330 1_555
Ba2 F6 2.961384 1_555
Ba2 F15 3.077963 1_555
Ba3 F5 2.694600 1_655
Ba3 F1 2.714229 1_554
Ba3 F23 2.733998 1_555
Ba3 F2 2.735769 1_565
Ba3 F20 2.778842 1_555
Ba3 F13 2.805957 1_555
Ba3 F17 2.872398 1_554
Ba3 F11 2.875690 1_555
Ba3 F6 2.901279 1_555
Ba3 F19 2.965657 1_555
F0 Tb3 2.284520 1_455
F1 Tb2 2.263385 1_556
F2 Tb1 2.284520 1_655
F3 Tb2 2.253777 1_545
F3 Tb1 2.282691 1_555
F4 Tb0 2.253777 1_565
F4 Tb3 2.282691 1_555
F5 Tb2 2.244793 1_555
F6 Tb3 2.262452 1_555
F7 Tb2 2.287234 1_556
F7 Tb3 2.374167 1_455
F8 Tb3 2.287896 1_555
F9 Tb1 2.304923 1_555
F10 Tb1 2.291671 1_555
F10 Tb0 2.382243 1_454
F11 Tb1 2.277022 1_555
F12 Tb3 2.277022 1_555
F13 Tb0 2.263385 1_554
F14 Tb0 2.287234 1_554
F14 Tb1 2.374167 1_655
F15 Tb0 2.290373 1_555
F16 Tb0 2.392630 1_554
F16 Tb2 2.392630 1_545
F17 Tb3 2.291671 1_555
F17 Tb2 2.382243 1_656
F18 Tb0 2.244793 1_555
F19 Tb2 2.290373 1_555
F20 Tb1 2.287896 1_555
F21 Tb2 2.290251 1_555
F21 Tb0 2.290251 1_454
F22 Tb1 2.262452 1_555
F23 Tb3 2.304923 1_555
