# generated using pymatgen
data_CaCuAs2O7
_symmetry_space_group_name_H-M   'P 1'
_cell_length_a   9.06198800
_cell_length_b   7.33780200
_cell_length_c   9.45469214
_cell_angle_alpha   70.74735252
_cell_angle_beta   90.00000000
_cell_angle_gamma   90.00000000
_symmetry_Int_Tables_number   1
_chemical_formula_structural   CaCuAs2O7
_chemical_formula_sum   'Ca4 Cu4 As8 O28'
_cell_volume   593.53017344
_cell_formula_units_Z   4
loop_
 _symmetry_equiv_pos_site_id
 _symmetry_equiv_pos_as_xyz
  1  'x, y, z'
loop_
 _atom_site_type_symbol
 _atom_site_label
 _atom_site_symmetry_multiplicity
 _atom_site_fract_x
 _atom_site_fract_y
 _atom_site_fract_z
 _atom_site_occupancy
  Ca  Ca0  1  0.06578900  0.75257900  0.93781700  1
  Ca  Ca1  1  0.56578900  0.24742100  0.56218300  1
  Ca  Ca2  1  0.93421100  0.24742100  0.06218300  1
  Ca  Ca3  1  0.43421100  0.75257900  0.43781700  1
  Cu  Cu0  1  0.94890100  0.21705900  0.67916800  1
  Cu  Cu1  1  0.44890100  0.78294100  0.82083200  1
  Cu  Cu2  1  0.05109900  0.78294100  0.32083200  1
  Cu  Cu3  1  0.55109900  0.21705900  0.17916800  1
  As  As0  1  0.76262100  0.57871700  0.73802300  1
  As  As1  1  0.26262100  0.42128300  0.76197700  1
  As  As2  1  0.23737900  0.42128300  0.26197700  1
  As  As3  1  0.73737900  0.57871700  0.23802300  1
  As  As4  1  0.69963400  0.97501900  0.95873200  1
  As  As5  1  0.19963400  0.02498100  0.54126800  1
  As  As6  1  0.30036600  0.02498100  0.04126800  1
  As  As7  1  0.80036600  0.97501900  0.45873200  1
  O  O0  1  0.68197200  0.15290500  0.03819100  1
  O  O1  1  0.18197200  0.84709500  0.46180900  1
  O  O2  1  0.31802800  0.84709500  0.96180900  1
  O  O3  1  0.81802800  0.15290500  0.53819100  1
  O  O4  1  0.58154200  0.64967700  0.72113100  1
  O  O5  1  0.08154200  0.35032300  0.77886900  1
  O  O6  1  0.41845800  0.35032300  0.27886900  1
  O  O7  1  0.91845800  0.64967700  0.22113100  1
  O  O8  1  0.86082900  0.56910300  0.89329500  1
  O  O9  1  0.36082900  0.43089700  0.60670500  1
  O  O10  1  0.13917100  0.43089700  0.10670500  1
  O  O11  1  0.63917100  0.56910300  0.39329500  1
  O  O12  1  0.86208500  0.74869900  0.58531300  1
  O  O13  1  0.36208500  0.25130100  0.91468700  1
  O  O14  1  0.13791500  0.25130100  0.41468700  1
  O  O15  1  0.63791500  0.74869900  0.08531300  1
  O  O16  1  0.91323900  0.99392200  0.30897600  1
  O  O17  1  0.41323900  0.00607800  0.19102400  1
  O  O18  1  0.08676100  0.00607800  0.69102400  1
  O  O19  1  0.58676100  0.99392200  0.80897600  1
  O  O20  1  0.72995600  0.36528700  0.20092500  1
  O  O21  1  0.22995600  0.63471300  0.29907500  1
  O  O22  1  0.27004400  0.63471300  0.79907500  1
  O  O23  1  0.77004400  0.36528700  0.70092500  1
  O  O24  1  0.61872300  0.98644800  0.41663500  1
  O  O25  1  0.11872300  0.01355200  0.08336500  1
  O  O26  1  0.38127700  0.01355200  0.58336500  1
  O  O27  1  0.88127700  0.98644800  0.91663500  1
loop_
_geom_bond_atom_site_label_1
_geom_bond_atom_site_label_2
_geom_bond_distance
_geom_bond_site_symmetry_2
Ca0 O27 2.356723 1_455
Ca0 O8 2.411059 1_455
Ca0 O2 2.420955 1_555
Ca0 O10 2.465358 1_556
Ca0 O18 2.465442 1_565
Ca0 O22 2.577392 1_555
Ca0 O25 2.743852 1_566
Ca0 O7 2.862513 1_456
Ca1 O26 2.356723 1_555
Ca1 O9 2.411059 1_555
Ca1 O3 2.420955 1_555
Ca1 O11 2.465358 1_555
Ca1 O19 2.465442 1_545
Ca1 O23 2.577392 1_555
Ca1 O24 2.743852 1_545
Ca1 O6 2.862513 1_555
Ca2 O25 2.356723 1_655
Ca2 O10 2.411059 1_655
Ca2 O0 2.420955 1_555
Ca2 O8 2.465358 1_554
Ca2 O16 2.465442 1_545
Ca2 O20 2.577392 1_555
Ca2 O27 2.743852 1_544
Ca2 O5 2.862513 1_654
Ca3 O24 2.356723 1_555
Ca3 O11 2.411059 1_555
Ca3 O1 2.420955 1_555
Ca3 O9 2.465358 1_555
Ca3 O17 2.465442 1_565
Ca3 O21 2.577392 1_555
Ca3 O26 2.743852 1_565
Ca3 O4 2.862513 1_555
Cu0 O3 1.954105 1_555
Cu0 O18 1.963559 1_655
Cu0 O5 1.974198 1_655
Cu0 O23 1.999969 1_555
Cu0 O27 2.402986 1_545
Cu1 O2 1.954105 1_555
Cu1 O19 1.963559 1_555
Cu1 O4 1.974198 1_555
Cu1 O22 1.999969 1_555
Cu1 O26 2.402986 1_565
Cu2 O1 1.954105 1_555
Cu2 O16 1.963559 1_455
Cu2 O7 1.974198 1_455
Cu2 O21 1.999969 1_555
Cu2 O25 2.402986 1_565
Cu3 O0 1.954105 1_555
Cu3 O17 1.963559 1_555
Cu3 O6 1.974198 1_555
Cu3 O20 1.999969 1_555
Cu3 O24 2.402986 1_545
As0 O8 1.698198 1_555
As0 O4 1.713025 1_555
As0 O23 1.715371 1_555
As0 O12 1.806979 1_555
As1 O9 1.698198 1_555
As1 O5 1.713025 1_555
As1 O22 1.715371 1_555
As1 O13 1.806979 1_555
As2 O10 1.698198 1_555
As2 O6 1.713025 1_555
As2 O21 1.715371 1_555
As2 O14 1.806979 1_555
As3 O11 1.698198 1_555
As3 O7 1.713025 1_555
As3 O20 1.715371 1_555
As3 O15 1.806979 1_555
As4 O27 1.689055 1_555
As4 O0 1.714783 1_566
As4 O19 1.714852 1_555
As4 O15 1.786705 1_556
As5 O26 1.689055 1_555
As5 O1 1.714783 1_545
As5 O18 1.714852 1_555
As5 O14 1.786705 1_555
As6 O25 1.689055 1_555
As6 O2 1.714783 1_544
As6 O17 1.714852 1_555
As6 O13 1.786705 1_554
As7 O24 1.689055 1_555
As7 O3 1.714783 1_565
As7 O16 1.714852 1_555
As7 O12 1.786705 1_555
