# generated using pymatgen
data_In11Cu9Se20
_symmetry_space_group_name_H-M   'P 1'
_cell_length_a   11.12000089
_cell_length_b   11.12000089
_cell_length_c   11.12000089
_cell_angle_alpha   106.85463511
_cell_angle_beta   106.85463511
_cell_angle_gamma   114.84159187
_symmetry_Int_Tables_number   1
_chemical_formula_structural   In11Cu9Se20
_chemical_formula_sum   'In11 Cu9 Se20'
_cell_volume   1051.46349287
_cell_formula_units_Z   1
loop_
 _symmetry_equiv_pos_site_id
 _symmetry_equiv_pos_as_xyz
  1  'x, y, z'
loop_
 _atom_site_type_symbol
 _atom_site_label
 _atom_site_symmetry_multiplicity
 _atom_site_fract_x
 _atom_site_fract_y
 _atom_site_fract_z
 _atom_site_occupancy
  In  In0  1  0.50000000  0.50000000  0.00000000  1
  In  In1  1  0.59479800  0.18707700  0.79288400  1
  In  In2  1  0.04135800  0.34802800  0.90313400  1
  In  In3  1  0.81292300  0.60580700  0.40772100  1
  In  In4  1  0.25000000  0.75000000  0.50000000  1
  In  In5  1  0.00000000  0.00000000  0.00000000  1
  In  In6  1  0.44489300  0.13822400  0.09686600  1
  In  In7  1  0.19808600  0.40520200  0.59227900  1
  In  In8  1  0.65197200  0.55510700  0.69333100  1
  In  In9  1  0.39419300  0.80191400  0.20711600  1
  In  In10  1  0.86177600  0.95864200  0.30666900  1
  Cu  Cu0  1  0.69989700  0.90005700  0.60050400  1
  Cu  Cu1  1  0.90060700  0.30010300  0.20015900  1
  Cu  Cu2  1  0.09994300  0.70044700  0.79984100  1
  Cu  Cu3  1  0.14796100  0.03999200  0.69671900  1
  Cu  Cu4  1  0.29955300  0.09939300  0.39949600  1
  Cu  Cu5  1  0.34327300  0.45124100  0.30328100  1
  Cu  Cu6  1  0.54875900  0.85203900  0.89203100  1
  Cu  Cu7  1  0.75000000  0.25000000  0.50000000  1
  Cu  Cu8  1  0.96000800  0.65672700  0.10796900  1
  Se  Se0  1  0.76819800  0.15940100  0.67808000  1
  Se  Se1  1  0.97102800  0.56100400  0.28043500  1
  Se  Se2  1  0.43899600  0.71943100  0.41002400  1
  Se  Se3  1  0.88059800  0.88705300  0.52019300  1
  Se  Se4  1  0.30940700  0.02897200  0.58997600  1
  Se  Se5  1  0.16780300  0.95960500  0.88028300  1
  Se  Se6  1  0.63959500  0.11940200  0.00645500  1
  Se  Se7  1  0.07932200  0.28752000  0.11971700  1
  Se  Se8  1  0.51387100  0.42225400  0.21060100  1
  Se  Se9  1  0.36686100  0.36040500  0.47980700  1
  Se  Se10  1  0.84059900  0.51867800  0.60879600  1
  Se  Se11  1  0.28056900  0.69059300  0.71956500  1
  Se  Se12  1  0.71248000  0.83219700  0.79180200  1
  Se  Se13  1  0.57774600  0.78834700  0.09161700  1
  Se  Se14  1  0.04039500  0.92067800  0.20819800  1
  Se  Se15  1  0.48132200  0.09011800  0.32192000  1
  Se  Se16  1  0.90988200  0.23180200  0.39120400  1
  Se  Se17  1  0.21165300  0.30327000  0.78939900  1
  Se  Se18  1  0.69673000  0.48612900  0.90838300  1
  Se  Se19  1  0.11294700  0.63313900  0.99354500  1
loop_
_geom_bond_atom_site_label_1
_geom_bond_atom_site_label_2
_geom_bond_distance
_geom_bond_site_symmetry_2
In0 Se13 2.707817 1_555
In0 Se8 2.707817 1_555
In0 Se17 2.707817 1_554
In0 Se18 2.707817 1_554
In1 Se4 2.666970 1_555
In1 Se6 2.668334 1_556
In1 Se0 2.672206 1_555
In1 Se18 2.739523 1_555
In2 Se7 2.649553 1_556
In2 Se0 2.661538 1_455
In2 Se17 2.692399 1_555
In2 Se19 2.695003 1_555
In3 Se1 2.666970 1_555
In3 Se3 2.668334 1_555
In3 Se10 2.672203 1_555
In3 Se8 2.739523 1_555
In4 Se4 2.675049 1_565
In4 Se1 2.675049 1_455
In4 Se11 2.675049 1_555
In4 Se2 2.675049 1_555
In5 Se12 2.693294 1_444
In5 Se14 2.693294 1_545
In5 Se5 2.693294 1_544
In5 Se7 2.693294 1_555
In6 Se5 2.649546 1_544
In6 Se15 2.661538 1_555
In6 Se8 2.692395 1_555
In6 Se6 2.695024 1_555
In7 Se11 2.666970 1_555
In7 Se9 2.668344 1_555
In7 Se16 2.672202 1_455
In7 Se17 2.739523 1_555
In8 Se12 2.649542 1_555
In8 Se10 2.661559 1_555
In8 Se18 2.692396 1_555
In8 Se9 2.695011 1_555
In9 Se2 2.666970 1_555
In9 Se19 2.668334 1_554
In9 Se15 2.672202 1_565
In9 Se13 2.739523 1_555
In10 Se14 2.649546 1_655
In10 Se16 2.661538 1_565
In10 Se13 2.692395 1_555
In10 Se3 2.695024 1_555
Cu0 Se12 2.441534 1_555
Cu0 Se0 2.444374 1_565
Cu0 Se2 2.451751 1_555
Cu0 Se3 2.462926 1_555
Cu1 Se7 2.441528 1_655
Cu1 Se16 2.444395 1_555
Cu1 Se1 2.451751 1_555
Cu1 Se6 2.462922 1_555
Cu2 Se5 2.441535 1_555
Cu2 Se10 2.444382 1_455
Cu2 Se11 2.451758 1_555
Cu2 Se19 2.462922 1_555
Cu3 Se5 2.444795 1_545
Cu3 Se4 2.446057 1_555
Cu3 Se3 2.452797 1_445
Cu3 Se17 2.493942 1_555
Cu4 Se14 2.441534 1_545
Cu4 Se15 2.444385 1_555
Cu4 Se4 2.451751 1_555
Cu4 Se9 2.462922 1_555
Cu5 Se7 2.444795 1_555
Cu5 Se2 2.446067 1_555
Cu5 Se9 2.452790 1_555
Cu5 Se8 2.493938 1_555
Cu6 Se12 2.444785 1_555
Cu6 Se11 2.446065 1_555
Cu6 Se6 2.452800 1_566
Cu6 Se13 2.493942 1_556
Cu7 Se10 2.464362 1_555
Cu7 Se16 2.464365 1_555
Cu7 Se15 2.464365 1_555
Cu7 Se0 2.464372 1_555
Cu8 Se14 2.444795 1_655
Cu8 Se1 2.446057 1_555
Cu8 Se19 2.452800 1_654
Cu8 Se18 2.493942 1_554
