# generated using pymatgen
data_Rb3Nb5P2O19
_symmetry_space_group_name_H-M   'P 1'
_cell_length_a   19.75989917
_cell_length_b   19.75989917
_cell_length_c   19.75989880
_cell_angle_alpha   39.07306907
_cell_angle_beta   39.07306907
_cell_angle_gamma   39.07307099
_symmetry_Int_Tables_number   1
_chemical_formula_structural   Rb3Nb5P2O19
_chemical_formula_sum   'Rb18 Nb30 P12 O114'
_cell_volume   2756.99383769
_cell_formula_units_Z   6
loop_
 _symmetry_equiv_pos_site_id
 _symmetry_equiv_pos_as_xyz
  1  'x, y, z'
loop_
 _atom_site_type_symbol
 _atom_site_label
 _atom_site_symmetry_multiplicity
 _atom_site_fract_x
 _atom_site_fract_y
 _atom_site_fract_z
 _atom_site_occupancy
  Rb  Rb0  1  0.68138100  0.32856400  0.02627000  1
  Rb  Rb1  1  0.07735700  0.75000000  0.42264300  1
  Rb  Rb2  1  0.47373000  0.17143600  0.81861900  1
  Rb  Rb3  1  0.92264300  0.25000000  0.57735700  1
  Rb  Rb4  1  0.18138100  0.52627000  0.82856400  1
  Rb  Rb5  1  0.25000000  0.57735700  0.92264300  1
  Rb  Rb6  1  0.17143600  0.81861900  0.47373000  1
  Rb  Rb7  1  0.97373000  0.31861900  0.67143600  1
  Rb  Rb8  1  0.32856400  0.02627000  0.68138100  1
  Rb  Rb9  1  0.81861900  0.47373000  0.17143600  1
  Rb  Rb10  1  0.52627000  0.82856400  0.18138100  1
  Rb  Rb11  1  0.02627000  0.68138100  0.32856400  1
  Rb  Rb12  1  0.82856400  0.18138100  0.52627000  1
  Rb  Rb13  1  0.57735700  0.92264300  0.25000000  1
  Rb  Rb14  1  0.67143600  0.97373000  0.31861900  1
  Rb  Rb15  1  0.42264300  0.07735700  0.75000000  1
  Rb  Rb16  1  0.31861900  0.67143600  0.97373000  1
  Rb  Rb17  1  0.75000000  0.42264300  0.07735700  1
  Nb  Nb0  1  0.26727700  0.13270700  0.45486200  1
  Nb  Nb1  1  0.27585400  0.46623800  0.59494600  1
  Nb  Nb2  1  0.46623800  0.59494600  0.27585400  1
  Nb  Nb3  1  0.03376200  0.22414600  0.90505400  1
  Nb  Nb4  1  0.59494600  0.27585400  0.46623800  1
  Nb  Nb5  1  0.53376200  0.40505400  0.72414600  1
  Nb  Nb6  1  0.72414600  0.53376200  0.40505400  1
  Nb  Nb7  1  0.22414600  0.90505400  0.03376200  1
  Nb  Nb8  1  0.77585400  0.09494600  0.96623800  1
  Nb  Nb9  1  0.45486200  0.26727700  0.13270700  1
  Nb  Nb10  1  0.95486200  0.63270700  0.76727700  1
  Nb  Nb11  1  0.34077100  0.34077100  0.34077100  1
  Nb  Nb12  1  0.86729300  0.54513800  0.73272300  1
  Nb  Nb13  1  0.50000000  0.50000000  0.50000000  1
  Nb  Nb14  1  0.15922900  0.15922900  0.15922900  1
  Nb  Nb15  1  0.36729300  0.23272300  0.04513800  1
  Nb  Nb16  1  0.04513800  0.36729300  0.23272300  1
  Nb  Nb17  1  0.13270700  0.45486200  0.26727700  1
  Nb  Nb18  1  0.73272300  0.86729300  0.54513800  1
  Nb  Nb19  1  0.84077100  0.84077100  0.84077100  1
  Nb  Nb20  1  0.09494600  0.96623800  0.77585400  1
  Nb  Nb21  1  0.54513800  0.73272300  0.86729300  1
  Nb  Nb22  1  0.76727700  0.95486200  0.63270700  1
  Nb  Nb23  1  0.23272300  0.04513800  0.36729300  1
  Nb  Nb24  1  0.96623800  0.77585400  0.09494600  1
  Nb  Nb25  1  0.90505400  0.03376200  0.22414600  1
  Nb  Nb26  1  0.65922900  0.65922900  0.65922900  1
  Nb  Nb27  1  0.00000000  0.00000000  0.00000000  1
  Nb  Nb28  1  0.63270700  0.76727700  0.95486200  1
  Nb  Nb29  1  0.40505400  0.72414600  0.53376200  1
  P  P0  1  0.40119200  0.83694500  0.61596300  1
  P  P1  1  0.33694500  0.90119200  0.11596300  1
  P  P2  1  0.16305500  0.38403700  0.59880800  1
  P  P3  1  0.88403700  0.66305500  0.09880800  1
  P  P4  1  0.90119200  0.11596300  0.33694500  1
  P  P5  1  0.11596300  0.33694500  0.90119200  1
  P  P6  1  0.66305500  0.09880800  0.88403700  1
  P  P7  1  0.83694500  0.61596300  0.40119200  1
  P  P8  1  0.61596300  0.40119200  0.83694500  1
  P  P9  1  0.38403700  0.59880800  0.16305500  1
  P  P10  1  0.09880800  0.88403700  0.66305500  1
  P  P11  1  0.59880800  0.16305500  0.38403700  1
  O  O0  1  0.85182800  0.71159300  0.59270000  1
  O  O1  1  0.64707500  0.50344600  0.75226800  1
  O  O2  1  0.64817200  0.90730000  0.78840700  1
  O  O3  1  0.47701600  0.60097100  0.03709000  1
  O  O4  1  0.06065200  0.43934800  0.25000000  1
  O  O5  1  0.18319300  0.07064300  0.92671700  1
  O  O6  1  0.42935700  0.31680700  0.57328300  1
  O  O7  1  0.08356200  0.93982600  0.70302700  1
  O  O8  1  0.39791000  0.64668100  0.51667000  1
  O  O9  1  0.57064300  0.68319300  0.42671700  1
  O  O10  1  0.28840700  0.40730000  0.14817200  1
  O  O11  1  0.35182800  0.09270000  0.21159300  1
  O  O12  1  0.76787700  0.65972500  0.21775800  1
  O  O13  1  0.26787700  0.71775800  0.15972500  1
  O  O14  1  0.48333000  0.60209000  0.35331900  1
  O  O15  1  0.91643800  0.06017400  0.29697300  1
  O  O16  1  0.89791000  0.01667000  0.14668100  1
  O  O17  1  0.29710700  0.18451200  0.05335400  1
  O  O18  1  0.58356200  0.20302700  0.43982600  1
  O  O19  1  0.70302700  0.08356200  0.93982600  1
  O  O20  1  0.57328300  0.42935700  0.31680700  1
  O  O21  1  0.03709000  0.47701600  0.60097100  1
  O  O22  1  0.81680700  0.92935700  0.07328300  1
  O  O23  1  0.79697300  0.56017400  0.41643800  1
  O  O24  1  0.20289300  0.44664600  0.31548800  1
  O  O25  1  0.35331900  0.48333000  0.60209000  1
  O  O26  1  0.09059700  0.62368900  0.15121200  1
  O  O27  1  0.42671700  0.57064300  0.68319300  1
  O  O28  1  0.56065200  0.75000000  0.93934800  1
  O  O29  1  0.10097100  0.97701600  0.53709000  1
  O  O30  1  0.14707500  0.25226800  0.00344600  1
  O  O31  1  0.14668100  0.89791000  0.01667000  1
  O  O32  1  0.99655400  0.85292500  0.74773200  1
  O  O33  1  0.37631100  0.84878800  0.90940300  1
  O  O34  1  0.25226800  0.00344600  0.14707500  1
  O  O35  1  0.87631100  0.40940300  0.34878800  1
  O  O36  1  0.21159300  0.35182800  0.09270000  1
  O  O37  1  0.74773200  0.99655400  0.85292500  1
  O  O38  1  0.49655400  0.24773200  0.35292500  1
  O  O39  1  0.78840700  0.64817200  0.90730000  1
  O  O40  1  0.81548800  0.94664600  0.70289300  1
  O  O41  1  0.09270000  0.21159300  0.35182800  1
  O  O42  1  0.90940300  0.37631100  0.84878800  1
  O  O43  1  0.60209000  0.35331900  0.48333000  1
  O  O44  1  0.29697300  0.91643800  0.06017400  1
  O  O45  1  0.23212300  0.34027500  0.78224200  1
  O  O46  1  0.34027500  0.78224200  0.23212300  1
  O  O47  1  0.44664600  0.31548800  0.20289300  1
  O  O48  1  0.89902900  0.02298400  0.46291000  1
  O  O49  1  0.14817200  0.28840700  0.40730000  1
  O  O50  1  0.68319300  0.42671700  0.57064300  1
  O  O51  1  0.55335400  0.68451200  0.79710700  1
  O  O52  1  0.75226800  0.64707500  0.50344600  1
  O  O53  1  0.56017400  0.41643800  0.79697300  1
  O  O54  1  0.01667000  0.14668100  0.89791000  1
  O  O55  1  0.51667000  0.39791000  0.64668100  1
  O  O56  1  0.98333000  0.85331900  0.10209000  1
  O  O57  1  0.60097100  0.03709000  0.47701600  1
  O  O58  1  0.40940300  0.34878800  0.87631100  1
  O  O59  1  0.10209000  0.98333000  0.85331900  1
  O  O60  1  0.94664600  0.70289300  0.81548800  1
  O  O61  1  0.70289300  0.81548800  0.94664600  1
  O  O62  1  0.68451200  0.79710700  0.55335400  1
  O  O63  1  0.52298400  0.39902900  0.96291000  1
  O  O64  1  0.78224200  0.23212300  0.34027500  1
  O  O65  1  0.59059700  0.65121200  0.12368900  1
  O  O66  1  0.18451200  0.05335400  0.29710700  1
  O  O67  1  0.07328300  0.81680700  0.92935700  1
  O  O68  1  0.79710700  0.55335400  0.68451200  1
  O  O69  1  0.31680700  0.57328300  0.42935700  1
  O  O70  1  0.35292500  0.49655400  0.24773200  1
  O  O71  1  0.07064300  0.92671700  0.18319300  1
  O  O72  1  0.53709000  0.10097100  0.97701600  1
  O  O73  1  0.64668100  0.51667000  0.39791000  1
  O  O74  1  0.43934800  0.25000000  0.06065200  1
  O  O75  1  0.43982600  0.58356200  0.20302700  1
  O  O76  1  0.97701600  0.53709000  0.10097100  1
  O  O77  1  0.65121200  0.12368900  0.59059700  1
  O  O78  1  0.21775800  0.76787700  0.65972500  1
  O  O79  1  0.84878800  0.90940300  0.37631100  1
  O  O80  1  0.24773200  0.35292500  0.49655400  1
  O  O81  1  0.96291000  0.52298400  0.39902900  1
  O  O82  1  0.73212300  0.28224200  0.84027500  1
  O  O83  1  0.25000000  0.06065200  0.43934800  1
  O  O84  1  0.15121200  0.09059700  0.62368900  1
  O  O85  1  0.92935700  0.07328300  0.81680700  1
  O  O86  1  0.39902900  0.96291000  0.52298400  1
  O  O87  1  0.71775800  0.15972500  0.26787700  1
  O  O88  1  0.12368900  0.59059700  0.65121200  1
  O  O89  1  0.50344600  0.75226800  0.64707500  1
  O  O90  1  0.06017400  0.29697300  0.91643800  1
  O  O91  1  0.15972500  0.26787700  0.71775800  1
  O  O92  1  0.00344600  0.14707500  0.25226800  1
  O  O93  1  0.93934800  0.56065200  0.75000000  1
  O  O94  1  0.59270000  0.85182800  0.71159300  1
  O  O95  1  0.62368900  0.15121200  0.09059700  1
  O  O96  1  0.28224200  0.84027500  0.73212300  1
  O  O97  1  0.31548800  0.20289300  0.44664600  1
  O  O98  1  0.93982600  0.70302700  0.08356200  1
  O  O99  1  0.65972500  0.21775800  0.76787700  1
  O  O100  1  0.85331900  0.10209000  0.98333000  1
  O  O101  1  0.46291000  0.89902900  0.02298400  1
  O  O102  1  0.20302700  0.43982600  0.58356200  1
  O  O103  1  0.34878800  0.87631100  0.40940300  1
  O  O104  1  0.40730000  0.14817200  0.28840700  1
  O  O105  1  0.71159300  0.59270000  0.85182800  1
  O  O106  1  0.05335400  0.29710700  0.18451200  1
  O  O107  1  0.85292500  0.74773200  0.99655400  1
  O  O108  1  0.02298400  0.46291000  0.89902900  1
  O  O109  1  0.92671700  0.18319300  0.07064300  1
  O  O110  1  0.41643800  0.79697300  0.56017400  1
  O  O111  1  0.84027500  0.73212300  0.28224200  1
  O  O112  1  0.90730000  0.78840700  0.64817200  1
  O  O113  1  0.75000000  0.93934800  0.56065200  1
loop_
_geom_bond_atom_site_label_1
_geom_bond_atom_site_label_2
_geom_bond_distance
_geom_bond_site_symmetry_2
Nb0 O49 1.894698 1_555
Nb0 O83 1.957716 1_555
Nb0 O84 1.963342 1_555
Nb0 O104 2.046740 1_555
Nb0 O97 2.078210 1_555
Nb0 O86 2.170969 1_545
Nb1 O69 1.906678 1_555
Nb1 O25 1.920746 1_555
Nb1 O88 1.973457 1_555
Nb1 O6 2.035313 1_555
Nb1 O102 2.060313 1_555
Nb1 O45 2.170245 1_555
Nb2 O20 1.906678 1_555
Nb2 O14 1.920746 1_555
Nb2 O65 1.973457 1_555
Nb2 O69 2.035313 1_555
Nb2 O75 2.060313 1_555
Nb2 O46 2.170246 1_555
Nb3 O109 1.906678 1_456
Nb3 O54 1.920746 1_555
Nb3 O42 1.973457 1_455
Nb3 O5 2.035313 1_555
Nb3 O90 2.060313 1_555
Nb3 O91 2.170245 1_555
Nb4 O6 1.906678 1_555
Nb4 O43 1.920746 1_555
Nb4 O77 1.973457 1_555
Nb4 O20 2.035313 1_555
Nb4 O18 2.060313 1_555
Nb4 O64 2.170245 1_555
Nb5 O27 1.906678 1_555
Nb5 O55 1.920746 1_555
Nb5 O58 1.973457 1_555
Nb5 O50 2.035313 1_555
Nb5 O53 2.060313 1_555
Nb5 O99 2.170246 1_555
Nb6 O50 1.906678 1_555
Nb6 O73 1.920746 1_555
Nb6 O35 1.973457 1_555
Nb6 O9 2.035313 1_555
Nb6 O23 2.060313 1_555
Nb6 O12 2.170245 1_555
Nb7 O5 1.906678 1_564
Nb7 O31 1.920746 1_555
Nb7 O33 1.973457 1_554
Nb7 O71 2.035313 1_555
Nb7 O44 2.060313 1_555
Nb7 O13 2.170245 1_555
Nb8 O22 1.906678 1_546
Nb8 O100 1.920746 1_555
Nb8 O95 1.973457 1_556
Nb8 O85 2.035313 1_555
Nb8 O19 2.060313 1_555
Nb8 O82 2.170245 1_555
Nb9 O104 1.894698 1_555
Nb9 O74 1.957716 1_555
Nb9 O95 1.963342 1_555
Nb9 O10 2.046740 1_555
Nb9 O47 2.078210 1_555
Nb9 O63 2.170969 1_554
Nb10 O112 1.894698 1_555
Nb10 O93 1.957716 1_555
Nb10 O88 1.963342 1_655
Nb10 O39 2.046740 1_555
Nb10 O60 2.078210 1_555
Nb10 O108 2.170969 1_655
Nb11 O47 1.920838 1_555
Nb11 O97 1.920838 1_555
Nb11 O24 1.920838 1_555
Nb11 O80 2.142097 1_555
Nb11 O70 2.142097 1_555
Nb11 O38 2.142097 1_555
Nb12 O105 1.894698 1_555
Nb12 O93 1.957716 1_555
Nb12 O42 1.963342 1_555
Nb12 O0 2.046740 1_555
Nb12 O68 2.078210 1_555
Nb12 O21 2.170969 1_655
Nb13 O14 1.987692 1_555
Nb13 O55 1.987692 1_555
Nb13 O25 1.987692 1_555
Nb13 O73 1.987692 1_555
Nb13 O43 1.987692 1_555
Nb13 O8 1.987692 1_555
Nb14 O66 1.920838 1_555
Nb14 O17 1.920838 1_555
Nb14 O106 1.920838 1_555
Nb14 O30 2.142097 1_555
Nb14 O92 2.142097 1_555
Nb14 O34 2.142097 1_555
Nb15 O36 1.894698 1_555
Nb15 O74 1.957716 1_555
Nb15 O58 1.963342 1_554
Nb15 O11 2.046740 1_555
Nb15 O17 2.078210 1_555
Nb15 O72 2.170969 1_554
Nb16 O41 1.894698 1_555
Nb16 O4 1.957716 1_555
Nb16 O35 1.963342 1_455
Nb16 O36 2.046740 1_555
Nb16 O106 2.078210 1_555
Nb16 O76 2.170969 1_455
Nb17 O10 1.894698 1_555
Nb17 O4 1.957716 1_555
Nb17 O26 1.963342 1_555
Nb17 O49 2.046740 1_555
Nb17 O24 2.078210 1_555
Nb17 O81 2.170969 1_455
Nb18 O0 1.894698 1_555
Nb18 O113 1.957716 1_555
Nb18 O79 1.963342 1_555
Nb18 O94 2.046740 1_555
Nb18 O62 2.078210 1_555
Nb18 O57 2.170969 1_565
Nb19 O40 1.920838 1_555
Nb19 O61 1.920838 1_555
Nb19 O60 1.920838 1_555
Nb19 O107 2.142097 1_555
Nb19 O32 2.142097 1_555
Nb19 O37 2.142097 1_555
Nb20 O85 1.906678 1_465
Nb20 O59 1.920746 1_555
Nb20 O84 1.973457 1_565
Nb20 O67 2.035313 1_555
Nb20 O7 2.060313 1_555
Nb20 O96 2.170246 1_555
Nb21 O94 1.894698 1_555
Nb21 O28 1.957716 1_555
Nb21 O33 1.963342 1_555
Nb21 O105 2.046740 1_555
Nb21 O51 2.078210 1_555
Nb21 O3 2.170969 1_556
Nb22 O2 1.894698 1_555
Nb22 O113 1.957716 1_555
Nb22 O77 1.963342 1_565
Nb22 O112 2.046740 1_555
Nb22 O40 2.078210 1_555
Nb22 O48 2.170969 1_565
Nb23 O11 1.894698 1_555
Nb23 O83 1.957716 1_555
Nb23 O103 1.963342 1_545
Nb23 O41 2.046740 1_555
Nb23 O66 2.078210 1_555
Nb23 O29 2.170969 1_545
Nb24 O67 1.906678 1_654
Nb24 O56 1.920746 1_555
Nb24 O26 1.973457 1_655
Nb24 O22 2.035313 1_555
Nb24 O98 2.060313 1_555
Nb24 O111 2.170245 1_555
Nb25 O71 1.906678 1_645
Nb25 O16 1.920746 1_555
Nb25 O79 1.973457 1_545
Nb25 O109 2.035313 1_555
Nb25 O15 2.060313 1_555
Nb25 O87 2.170246 1_555
Nb26 O51 1.920838 1_555
Nb26 O62 1.920838 1_555
Nb26 O68 1.920838 1_555
Nb26 O52 2.142097 1_555
Nb26 O1 2.142097 1_555
Nb26 O89 2.142097 1_555
Nb27 O16 1.987692 1_455
Nb27 O59 1.987692 1_544
Nb27 O54 1.987692 1_554
Nb27 O56 1.987692 1_445
Nb27 O31 1.987692 1_545
Nb27 O100 1.987692 1_454
Nb28 O39 1.894698 1_555
Nb28 O28 1.957716 1_555
Nb28 O65 1.963342 1_556
Nb28 O2 2.046740 1_555
Nb28 O61 2.078210 1_555
Nb28 O101 2.170969 1_556
Nb29 O9 1.906678 1_555
Nb29 O8 1.920746 1_555
Nb29 O103 1.973457 1_555
Nb29 O27 2.035313 1_555
Nb29 O110 2.060313 1_555
Nb29 O78 2.170245 1_555
O0 Rb1 3.125315 1_655
O1 P8 1.530481 1_555
O2 Rb15 3.125315 1_565
O3 P9 1.558524 1_555
O3 Rb16 3.148577 1_554
O3 Rb0 3.467403 1_555
O5 Rb15 3.033163 1_555
O6 Rb15 3.033163 1_555
O7 P10 1.548125 1_555
O7 Rb3 3.494388 1_465
O8 Rb6 3.178351 1_555
O9 Rb13 3.033163 1_555
O10 Rb5 3.125315 1_554
O11 Rb13 3.125315 1_545
O12 P3 1.554025 1_555
O12 Rb10 3.363580 1_555
O12 Rb13 3.551942 1_555
O13 P9 1.554025 1_555
O13 Rb11 3.363580 1_555
O13 Rb1 3.551941 1_555
O14 Rb10 3.178351 1_555
O15 P4 1.548125 1_555
O15 Rb1 3.494388 1_645
O16 Rb14 3.178351 1_545
O17 Rb2 3.014490 1_554
O18 P11 1.548125 1_555
O18 Rb15 3.494388 1_555
O19 P6 1.548125 1_555
O19 Rb13 3.494388 1_546
O20 Rb17 3.033163 1_555
O21 P2 1.558524 1_555
O21 Rb7 3.148577 1_455
O21 Rb11 3.467403 1_555
O22 Rb13 3.033163 1_555
O23 P7 1.548125 1_555
O23 Rb3 3.494388 1_555
O24 Rb11 3.014490 1_555
O25 Rb4 3.178351 1_555
O26 Rb16 3.227804 1_554
O26 Rb5 3.318489 1_554
O27 Rb5 3.033163 1_555
O29 P10 1.558524 1_555
O29 Rb6 3.148577 1_555
O29 Rb12 3.467403 1_465
O30 P5 1.530481 1_554
O31 Rb16 3.178351 1_554
O32 P10 1.530481 1_655
O33 Rb8 3.227804 1_565
O33 Rb15 3.318489 1_565
O34 P1 1.530481 1_545
O35 Rb12 3.227804 1_555
O35 Rb3 3.318489 1_555
O36 Rb5 3.125315 1_554
O37 P6 1.530481 1_565
O38 P11 1.530481 1_555
O39 Rb17 3.125315 1_556
O40 Rb12 3.014490 1_565
O41 Rb3 3.125315 1_455
O42 Rb0 3.227804 1_556
O42 Rb17 3.318489 1_556
O43 Rb12 3.178351 1_555
O44 P1 1.548125 1_555
O44 Rb15 3.494388 1_564
O45 P5 1.554025 1_555
O45 Rb2 3.363580 1_555
O45 Rb15 3.551942 1_555
O46 P1 1.554025 1_555
O46 Rb6 3.363580 1_555
O46 Rb1 3.551941 1_555
O47 Rb0 3.014490 1_555
O48 P4 1.558524 1_555
O48 Rb12 3.148577 1_555
O48 Rb6 3.467403 1_645
O49 Rb3 3.125315 1_455
O50 Rb3 3.033163 1_555
O51 Rb16 3.014490 1_555
O52 P7 1.530481 1_555
O53 P8 1.548125 1_555
O53 Rb5 3.494388 1_555
O54 Rb7 3.178351 1_455
O55 Rb2 3.178351 1_555
O56 Rb11 3.178351 1_655
O57 P11 1.558524 1_555
O57 Rb14 3.148577 1_545
O57 Rb8 3.467403 1_555
O58 Rb4 3.227804 1_555
O58 Rb5 3.318489 1_555
O59 Rb8 3.178351 1_565
O60 Rb4 3.014490 1_655
O61 Rb10 3.014490 1_556
O62 Rb14 3.014490 1_555
O63 P8 1.558524 1_555
O63 Rb0 3.148577 1_556
O63 Rb16 3.467403 1_555
O64 P4 1.554025 1_555
O64 Rb9 3.363580 1_555
O64 Rb17 3.551941 1_555
O65 Rb9 3.227804 1_555
O65 Rb17 3.318489 1_555
O66 Rb6 3.014490 1_545
O67 Rb5 3.033163 1_555
O68 Rb7 3.014490 1_555
O69 Rb1 3.033163 1_555
O70 P9 1.530481 1_555
O71 Rb1 3.033163 1_555
O72 P6 1.558524 1_555
O72 Rb2 3.148577 1_555
O72 Rb10 3.467403 1_546
O73 Rb9 3.178351 1_555
O75 P9 1.548125 1_555
O75 Rb17 3.494388 1_555
O76 P3 1.558524 1_555
O76 Rb9 3.148577 1_555
O76 Rb4 3.467403 1_654
O77 Rb2 3.227804 1_555
O77 Rb15 3.318489 1_555
O78 P10 1.554025 1_555
O78 Rb4 3.363580 1_555
O78 Rb5 3.551941 1_555
O79 Rb11 3.227804 1_655
O79 Rb1 3.318489 1_655
O80 P2 1.530481 1_555
O81 P7 1.558524 1_555
O81 Rb11 3.148577 1_655
O81 Rb7 3.467403 1_555
O82 P8 1.554025 1_555
O82 Rb7 3.363580 1_555
O82 Rb3 3.551941 1_555
O84 Rb7 3.227804 1_455
O84 Rb3 3.318489 1_455
O85 Rb3 3.033163 1_555
O86 P0 1.558524 1_555
O86 Rb8 3.148577 1_565
O86 Rb14 3.467403 1_555
O87 P11 1.554025 1_555
O87 Rb0 3.363580 1_555
O87 Rb17 3.551941 1_555
O88 Rb6 3.227804 1_555
O88 Rb1 3.318489 1_555
O89 P0 1.530481 1_555
O90 P5 1.548125 1_555
O90 Rb17 3.494388 1_456
O91 P2 1.554025 1_555
O91 Rb8 3.363580 1_555
O91 Rb15 3.551942 1_555
O92 P4 1.530481 1_455
O94 Rb15 3.125315 1_565
O95 Rb14 3.227804 1_545
O95 Rb13 3.318489 1_545
O96 P0 1.554025 1_555
O96 Rb16 3.363580 1_555
O96 Rb5 3.551941 1_555
O97 Rb8 3.014490 1_555
O98 P3 1.548125 1_555
O98 Rb5 3.494388 1_654
O99 P6 1.554025 1_555
O99 Rb12 3.363580 1_555
O99 Rb3 3.551941 1_555
O100 Rb0 3.178351 1_556
O101 P1 1.558524 1_555
O101 Rb10 3.148577 1_555
O101 Rb2 3.467403 1_564
O102 P2 1.548125 1_555
O102 Rb1 3.494388 1_555
O103 Rb10 3.227804 1_555
O103 Rb13 3.318489 1_555
O104 Rb13 3.125315 1_545
O105 Rb17 3.125315 1_556
O106 Rb9 3.014490 1_455
O107 P3 1.530481 1_556
O108 P5 1.558524 1_555
O108 Rb4 3.148577 1_555
O108 Rb9 3.467403 1_456
O109 Rb17 3.033163 1_555
O110 P0 1.548125 1_555
O110 Rb13 3.494388 1_555
O111 P7 1.554025 1_555
O111 Rb14 3.363580 1_555
O111 Rb13 3.551942 1_555
O112 Rb1 3.125315 1_655
