# generated using pymatgen
data_KCe2CuSe6
_symmetry_space_group_name_H-M   'P 1'
_cell_length_a   22.96678271
_cell_length_b   22.60704529
_cell_length_c   7.10960736
_cell_angle_alpha   83.90128182
_cell_angle_beta   78.17151252
_cell_angle_gamma   17.92720567
_symmetry_Int_Tables_number   1
_chemical_formula_structural   KCe2CuSe6
_chemical_formula_sum   'K4 Ce8 Cu4 Se24'
_cell_volume   1062.71932182
_cell_formula_units_Z   4
loop_
 _symmetry_equiv_pos_site_id
 _symmetry_equiv_pos_as_xyz
  1  'x, y, z'
loop_
 _atom_site_type_symbol
 _atom_site_label
 _atom_site_symmetry_multiplicity
 _atom_site_fract_x
 _atom_site_fract_y
 _atom_site_fract_z
 _atom_site_occupancy
  K  K0  1  0.99757900  0.50242100  0.50242100  1
  K  K1  1  0.74757900  0.25242100  0.25242100  1
  K  K2  1  0.25242100  0.74757900  0.74757900  1
  K  K3  1  0.50242100  0.99757900  0.99757900  1
  Ce  Ce0  1  0.66213900  0.66213900  0.33786100  1
  Ce  Ce1  1  0.83755900  0.83755900  0.16244100  1
  Ce  Ce2  1  0.08755900  0.08755900  0.41244100  1
  Ce  Ce3  1  0.41244100  0.41244100  0.08755900  1
  Ce  Ce4  1  0.91213900  0.91213900  0.58786200  1
  Ce  Ce5  1  0.16244100  0.16244100  0.83755900  1
  Ce  Ce6  1  0.33786100  0.33786100  0.66213900  1
  Ce  Ce7  1  0.58786100  0.58786100  0.91213900  1
  Cu  Cu0  1  0.16339900  0.16339900  0.33660100  1
  Cu  Cu1  1  0.08660100  0.08660100  0.91339900  1
  Cu  Cu2  1  0.91339900  0.91339900  0.08660100  1
  Cu  Cu3  1  0.33660100  0.33660100  0.16339900  1
  Se  Se0  1  0.36461700  0.86393900  0.63885200  1
  Se  Se1  1  0.44391800  0.66496400  0.33417300  1
  Se  Se2  1  0.15301300  0.44490500  0.05297400  1
  Se  Se3  1  0.34910800  0.05297400  0.44490500  1
  Se  Se4  1  0.09698700  0.80509500  0.19702600  1
  Se  Se5  1  0.63885200  0.13259100  0.36461700  1
  Se  Se6  1  0.69305400  0.91582700  0.58503600  1
  Se  Se7  1  0.90089200  0.19702600  0.80509500  1
  Se  Se8  1  0.11740900  0.61114800  0.38606100  1
  Se  Se9  1  0.55694600  0.33417300  0.66496400  1
  Se  Se10  1  0.80608200  0.58503600  0.91582700  1
  Se  Se11  1  0.44490500  0.15301300  0.34910800  1
  Se  Se12  1  0.91582700  0.69305400  0.80608200  1
  Se  Se13  1  0.38606100  0.88538300  0.11740900  1
  Se  Se14  1  0.86393900  0.36461700  0.13259100  1
  Se  Se15  1  0.19702600  0.90089200  0.09698700  1
  Se  Se16  1  0.58503600  0.80608200  0.69305400  1
  Se  Se17  1  0.66496400  0.44391800  0.55694600  1
  Se  Se18  1  0.13259100  0.63885200  0.86393900  1
  Se  Se19  1  0.61114800  0.11740900  0.88538300  1
  Se  Se20  1  0.88538300  0.38606100  0.61114800  1
  Se  Se21  1  0.80509500  0.09698700  0.90089200  1
  Se  Se22  1  0.05297400  0.34910800  0.15301300  1
  Se  Se23  1  0.33417300  0.55694600  0.44391800  1
loop_
_geom_bond_atom_site_label_1
_geom_bond_atom_site_label_2
_geom_bond_distance
_geom_bond_site_symmetry_2
K0 Se12 3.417127 1_555
K0 Se16 3.417145 1_555
K0 Se6 3.421400 1_555
K0 Se10 3.421413 1_555
K0 Se11 3.456206 1_655
K0 Se22 3.456206 1_655
K0 Se2 3.466770 1_655
K0 Se3 3.466770 1_655
K1 Se9 3.417131 1_555
K1 Se1 3.417145 1_555
K1 Se23 3.421400 1_555
K1 Se17 3.421418 1_555
K1 Se7 3.456206 1_554
K1 Se4 3.456206 1_645
K1 Se15 3.466770 1_645
K1 Se21 3.466770 1_554
K2 Se23 3.417127 1_555
K2 Se17 3.417145 1_555
K2 Se9 3.421400 1_555
K2 Se1 3.421413 1_555
K2 Se15 3.456206 1_556
K2 Se21 3.456206 1_465
K2 Se7 3.466770 1_465
K2 Se4 3.466770 1_556
K3 Se6 3.417131 1_555
K3 Se10 3.417145 1_555
K3 Se12 3.421400 1_555
K3 Se16 3.421418 1_555
K3 Se2 3.456206 1_566
K3 Se3 3.456206 1_566
K3 Se11 3.466770 1_566
K3 Se22 3.466770 1_566
Ce0 Se22 2.939975 1_655
Ce0 Se3 2.939975 1_565
Ce0 Se0 2.973816 1_555
Ce0 Se14 2.973819 1_555
Ce0 Se16 3.008265 1_555
Ce0 Se10 3.008271 1_554
Ce0 Se13 3.103387 1_555
Ce0 Se20 3.103392 1_555
Ce1 Se2 2.944425 1_655
Ce1 Se11 2.944425 1_565
Ce1 Se5 2.967398 1_565
Ce1 Se18 2.967401 1_654
Ce1 Se6 3.006578 1_555
Ce1 Se12 3.006584 1_554
Ce1 Se19 3.145635 1_564
Ce1 Se8 3.145641 1_655
Ce2 Se7 2.944425 1_455
Ce2 Se15 2.944425 1_545
Ce2 Se13 2.967415 1_545
Ce2 Se20 2.967417 1_455
Ce2 Se17 3.006570 1_455
Ce2 Se1 3.006570 1_545
Ce2 Se0 3.145627 1_545
Ce2 Se14 3.145632 1_455
Ce3 Se4 2.944425 1_555
Ce3 Se21 2.944425 1_554
Ce3 Se19 2.967398 1_554
Ce3 Se8 2.967401 1_555
Ce3 Se9 3.006578 1_554
Ce3 Se23 3.006584 1_555
Ce3 Se5 3.145635 1_555
Ce3 Se18 3.145641 1_554
Ce4 Se21 2.939969 1_565
Ce4 Se4 2.939980 1_655
Ce4 Se19 2.973800 1_565
Ce4 Se8 2.973803 1_655
Ce4 Se23 3.008279 1_655
Ce4 Se9 3.008279 1_565
Ce4 Se18 3.103390 1_655
Ce4 Se5 3.103406 1_565
Ce5 Se3 2.944425 1_555
Ce5 Se22 2.944425 1_556
Ce5 Se14 2.967415 1_456
Ce5 Se0 2.967417 1_545
Ce5 Se16 3.006570 1_545
Ce5 Se10 3.006570 1_455
Ce5 Se20 3.145627 1_455
Ce5 Se13 3.145632 1_546
Ce6 Se11 2.939975 1_555
Ce6 Se2 2.939975 1_556
Ce6 Se18 2.973800 1_555
Ce6 Se5 2.973803 1_555
Ce6 Se6 3.008279 1_545
Ce6 Se12 3.008279 1_455
Ce6 Se8 3.103395 1_555
Ce6 Se19 3.103400 1_555
Ce7 Se15 2.939975 1_556
Ce7 Se7 2.939975 1_555
Ce7 Se20 2.973816 1_555
Ce7 Se13 2.973819 1_556
Ce7 Se17 3.008265 1_555
Ce7 Se1 3.008271 1_556
Ce7 Se14 3.103387 1_556
Ce7 Se0 3.103392 1_555
Cu0 Se3 2.386052 1_555
Cu0 Se22 2.386052 1_555
Cu0 Se13 2.394891 1_545
Cu0 Se20 2.394895 1_455
Cu1 Se15 2.386052 1_546
Cu1 Se7 2.386052 1_455
Cu1 Se14 2.394891 1_456
Cu1 Se0 2.394895 1_545
Cu2 Se4 2.386052 1_655
Cu2 Se21 2.386052 1_564
Cu2 Se5 2.394903 1_565
Cu2 Se18 2.394906 1_654
Cu3 Se11 2.386052 1_555
Cu3 Se2 2.386052 1_555
Cu3 Se19 2.394903 1_554
Cu3 Se8 2.394906 1_555
Se1 Se17 2.567669 1_555
Se1 Se15 2.811160 1_555
Se10 Se16 2.567669 1_555
Se10 Se22 2.811160 1_656
Se11 Se6 2.811152 1_545
Se12 Se6 2.567669 1_555
Se12 Se2 2.811158 1_656
Se16 Se3 2.811154 1_565
Se17 Se7 2.811154 1_555
Se21 Se9 2.811152 1_555
Se23 Se9 2.567669 1_555
Se23 Se4 2.811158 1_555
