# generated using pymatgen
data_Na2Al2Si3(HO3)4
_symmetry_space_group_name_H-M   'P 1'
_cell_length_a   8.07982200
_cell_length_b   8.46159429
_cell_length_c   8.94236954
_cell_angle_alpha   103.17896096
_cell_angle_beta   99.96410037
_cell_angle_gamma   96.66141637
_symmetry_Int_Tables_number   1
_chemical_formula_structural   Na2Al2Si3(HO3)4
_chemical_formula_sum   'Na4 Al4 Si6 H8 O24'
_cell_volume   578.53840783
_cell_formula_units_Z   2
loop_
 _symmetry_equiv_pos_site_id
 _symmetry_equiv_pos_as_xyz
  1  'x, y, z'
loop_
 _atom_site_type_symbol
 _atom_site_label
 _atom_site_symmetry_multiplicity
 _atom_site_fract_x
 _atom_site_fract_y
 _atom_site_fract_z
 _atom_site_occupancy
  Na  Na0  1  0.97986800  0.74602800  0.28599500  1
  Na  Na1  1  0.60152700  0.20178000  0.59545600  1
  Na  Na2  1  0.22255600  0.97618400  0.67676000  1
  Na  Na3  1  0.98197800  0.31538700  0.79744500  1
  Al  Al0  1  0.05333900  0.13582500  0.40326100  1
  Al  Al1  1  0.85965800  0.45049100  0.42270000  1
  Al  Al2  1  0.85213000  0.85795300  0.57194400  1
  Al  Al3  1  0.55275100  0.54176400  0.21101100  1
  Si  Si0  1  0.33158200  0.94521400  0.23282700  1
  Si  Si1  1  0.40407700  0.48105400  0.83068200  1
  Si  Si2  1  0.65490000  0.17868700  0.22853600  1
  Si  Si3  1  0.69430900  0.71257300  0.97188400  1
  Si  Si4  1  0.42112100  0.74710800  0.36470700  1
  Si  Si5  1  0.91728600  0.00501000  0.90110500  1
  H  H0  1  0.63363500  0.10691000  0.05979300  1
  H  H1  1  0.19901200  0.63512500  0.87963700  1
  H  H2  1  0.29223300  0.37490100  0.02345800  1
  H  H3  1  0.82313700  0.49776100  0.67680800  1
  H  H4  1  0.59442900  0.85241600  0.42553900  1
  H  H5  1  0.07813800  0.25508400  0.16964700  1
  H  H6  1  0.38265300  0.71086500  0.60127500  1
  H  H7  1  0.39384000  0.83220800  0.99253100  1
  O  O0  1  0.68141500  0.68127200  0.14149000  1
  O  O1  1  0.03927500  0.16961700  0.00739400  1
  O  O2  1  0.40607100  0.42132900  0.01345900  1
  O  O3  1  0.04419400  0.46354200  0.33127200  1
  O  O4  1  0.82030900  0.88183400  0.99448800  1
  O  O5  1  0.12484400  0.31302300  0.29525500  1
  O  O6  1  0.49936900  0.09734200  0.29890500  1
  O  O7  1  0.96998800  0.97749900  0.48250400  1
  O  O8  1  0.83285100  0.39907000  0.59853100  1
  O  O9  1  0.76260000  0.08330700  0.79920500  1
  O  O10  1  0.84153900  0.19303600  0.33699200  1
  O  O11  1  0.16046300  0.00676600  0.27501100  1
  O  O12  1  0.32452700  0.75776400  0.52096900  1
  O  O13  1  0.65016700  0.38110500  0.26631800  1
  O  O14  1  0.30475300  0.88364300  0.03854700  1
  O  O15  1  0.18374200  0.22485800  0.61148700  1
  O  O16  1  0.67686000  0.95515600  0.64436100  1
  O  O17  1  0.49609500  0.68468300  0.86690500  1
  O  O18  1  0.98628300  0.88406400  0.76399200  1
  O  O19  1  0.76744800  0.55321000  0.86903300  1
  O  O20  1  0.82484900  0.65642200  0.45635600  1
  O  O21  1  0.36059100  0.32717700  0.66065300  1
  O  O22  1  0.61510100  0.42027700  0.83363600  1
  O  O23  1  0.20251100  0.52367400  0.82023700  1
loop_
_geom_bond_atom_site_label_1
_geom_bond_atom_site_label_2
_geom_bond_distance
_geom_bond_site_symmetry_2
Na0 O20 2.330505 1_555
Na0 O7 2.333645 1_555
Na0 O0 2.465229 1_555
Na0 O11 2.531391 1_665
Na0 O3 2.608488 1_655
Na1 O8 2.349122 1_555
Na1 O16 2.352729 1_545
Na1 O21 2.417723 1_555
Na1 O22 2.458289 1_555
Na1 O9 2.516611 1_555
Na1 O6 2.549381 1_555
Na2 O18 2.303889 1_455
Na2 O15 2.348704 1_565
Na2 O12 2.368939 1_555
Na2 O7 2.443248 1_455
Na3 O8 2.268874 1_555
Na3 O23 2.303198 1_655
Na3 O1 2.479543 1_656
Na3 O9 2.492927 1_555
Na3 O15 2.580051 1_655
Al0 O7 1.771772 1_445
Al0 O11 1.802425 1_555
Al0 O10 1.867126 1_455
Al0 O15 1.908434 1_555
Al0 O5 2.041376 1_555
Al1 O20 1.763480 1_555
Al1 O8 1.765346 1_555
Al1 O3 1.824446 1_655
Al1 O13 1.934238 1_555
Al1 O10 2.116710 1_555
Al2 O7 1.725904 1_555
Al2 O20 1.747899 1_555
Al2 O18 1.816669 1_555
Al2 O16 1.856356 1_555
Al3 O13 1.769831 1_555
Al3 O0 1.770392 1_555
Al3 O2 1.933457 1_555
H0 Si2 1.464080 1_555
H1 O23 0.977376 1_555
H2 O2 0.984373 1_555
H3 O8 0.980395 1_555
H4 Si4 1.508853 1_555
H5 O5 1.097135 1_555
H5 O1 1.427576 1_555
H6 O12 0.974797 1_555
H7 O14 0.985082 1_556
O0 Si3 1.616406 1_554
O1 Si5 1.602665 1_454
O2 Si1 1.815637 1_554
O3 O5 1.492861 1_555
O4 Si3 1.608430 1_555
O4 Si5 1.682691 1_565
O6 Si2 1.649068 1_555
O6 Si0 1.677833 1_545
O9 Si5 1.704294 1_555
O10 Si2 1.620847 1_555
O11 Si0 1.607216 1_545
O12 Si4 1.704737 1_555
O13 Si2 1.674820 1_555
O14 Si0 1.663568 1_555
O15 O21 1.518770 1_555
O16 O9 1.543431 1_565
O17 Si3 1.671191 1_555
O17 Si1 1.729587 1_555
O18 Si5 1.630406 1_565
O19 O22 1.504065 1_555
O19 Si3 1.679562 1_555
O21 Si1 1.713722 1_555
O22 Si1 1.834765 1_555
O23 Si1 1.700046 1_555
