# generated using pymatgen
data_K3Sc(MoO4)3
_symmetry_space_group_name_H-M   'P 1'
_cell_length_a   9.52771100
_cell_length_b   11.10174500
_cell_length_c   13.92999500
_cell_angle_alpha   90.00000000
_cell_angle_beta   90.00000000
_cell_angle_gamma   90.00000000
_symmetry_Int_Tables_number   1
_chemical_formula_structural   K3Sc(MoO4)3
_chemical_formula_sum   'K12 Sc4 Mo12 O48'
_cell_volume   1473.43432725
_cell_formula_units_Z   4
loop_
 _symmetry_equiv_pos_site_id
 _symmetry_equiv_pos_as_xyz
  1  'x, y, z'
loop_
 _atom_site_type_symbol
 _atom_site_label
 _atom_site_symmetry_multiplicity
 _atom_site_fract_x
 _atom_site_fract_y
 _atom_site_fract_z
 _atom_site_occupancy
  K  K0  1  0.81549200  0.23052900  0.25399100  1
  K  K1  1  0.54318200  0.76069500  0.47525000  1
  K  K2  1  0.18450800  0.76947100  0.75399100  1
  K  K3  1  0.53254700  0.98270600  0.74820400  1
  K  K4  1  0.53254700  0.51729400  0.24820400  1
  K  K5  1  0.46745300  0.01729400  0.24820400  1
  K  K6  1  0.45681800  0.23930500  0.97525000  1
  K  K7  1  0.81549200  0.26947100  0.75399100  1
  K  K8  1  0.54318200  0.73930500  0.97525000  1
  K  K9  1  0.46745300  0.48270600  0.74820400  1
  K  K10  1  0.18450800  0.73052900  0.25399100  1
  K  K11  1  0.45681800  0.26069500  0.47525000  1
  Sc  Sc0  1  0.06729600  0.24811900  0.50661800  1
  Sc  Sc1  1  0.06729600  0.25188100  0.00661800  1
  Sc  Sc2  1  0.93270400  0.74811900  0.50661800  1
  Sc  Sc3  1  0.93270400  0.75188100  0.00661800  1
  Mo  Mo0  1  0.74891100  0.04958500  0.00144500  1
  Mo  Mo1  1  0.25012300  0.95232300  0.00754000  1
  Mo  Mo2  1  0.81924200  0.83603800  0.25435700  1
  Mo  Mo3  1  0.74987700  0.45232300  0.00754000  1
  Mo  Mo4  1  0.25012300  0.54767700  0.50754000  1
  Mo  Mo5  1  0.25108900  0.95041500  0.50144500  1
  Mo  Mo6  1  0.18075800  0.16396200  0.75435700  1
  Mo  Mo7  1  0.18075800  0.33603800  0.25435700  1
  Mo  Mo8  1  0.74987700  0.04767700  0.50754000  1
  Mo  Mo9  1  0.25108900  0.54958500  0.00144500  1
  Mo  Mo10  1  0.81924200  0.66396200  0.75435700  1
  Mo  Mo11  1  0.74891100  0.45041500  0.50144500  1
  O  O0  1  0.61397600  0.43034200  0.92128800  1
  O  O1  1  0.91570500  0.78629200  0.35988900  1
  O  O2  1  0.31230800  0.61400200  0.89159700  1
  O  O3  1  0.07055100  0.20460100  0.65207900  1
  O  O4  1  0.09283900  0.87449300  0.96970200  1
  O  O5  1  0.90716100  0.12550700  0.46970200  1
  O  O6  1  0.38602400  0.56965800  0.42128800  1
  O  O7  1  0.20167400  0.49346600  0.25679600  1
  O  O8  1  0.77345800  0.88710900  0.98744300  1
  O  O9  1  0.90807700  0.37507600  0.53784300  1
  O  O10  1  0.90716100  0.37449300  0.96970200  1
  O  O11  1  0.08429500  0.28629200  0.35988900  1
  O  O12  1  0.69093600  0.11207200  0.61698600  1
  O  O13  1  0.64904700  0.76961200  0.25055700  1
  O  O14  1  0.38588300  0.92143700  0.58683100  1
  O  O15  1  0.30906400  0.88792800  0.11698600  1
  O  O16  1  0.22193200  0.11413800  0.02438300  1
  O  O17  1  0.30906400  0.61207200  0.61698600  1
  O  O18  1  0.64904700  0.73038800  0.75055700  1
  O  O19  1  0.91570500  0.71370800  0.85988900  1
  O  O20  1  0.77806800  0.88586200  0.52438300  1
  O  O21  1  0.79832600  0.50653400  0.75679600  1
  O  O22  1  0.92944900  0.70460100  0.65207900  1
  O  O23  1  0.61411700  0.42143700  0.58683100  1
  O  O24  1  0.38588300  0.57856300  0.08683100  1
  O  O25  1  0.07055100  0.29539900  0.15207900  1
  O  O26  1  0.22654200  0.38710900  0.98744300  1
  O  O27  1  0.68769200  0.38599800  0.39159700  1
  O  O28  1  0.08429500  0.21370800  0.85988900  1
  O  O29  1  0.09192300  0.62492400  0.03784300  1
  O  O30  1  0.61411700  0.07856300  0.08683100  1
  O  O31  1  0.38602400  0.93034200  0.92128800  1
  O  O32  1  0.77345800  0.61289100  0.48744300  1
  O  O33  1  0.35095300  0.23038800  0.75055700  1
  O  O34  1  0.92944900  0.79539900  0.15207900  1
  O  O35  1  0.68769200  0.11400200  0.89159700  1
  O  O36  1  0.69093600  0.38792800  0.11698600  1
  O  O37  1  0.79832600  0.99346600  0.25679600  1
  O  O38  1  0.22193200  0.38586200  0.52438300  1
  O  O39  1  0.09283900  0.62550700  0.46970200  1
  O  O40  1  0.20167400  0.00653400  0.75679600  1
  O  O41  1  0.35095300  0.26961200  0.25055700  1
  O  O42  1  0.61397600  0.06965800  0.42128800  1
  O  O43  1  0.90807700  0.12492400  0.03784300  1
  O  O44  1  0.77806800  0.61413800  0.02438300  1
  O  O45  1  0.09192300  0.87507600  0.53784300  1
  O  O46  1  0.31230800  0.88599800  0.39159700  1
  O  O47  1  0.22654200  0.11289100  0.48744300  1
loop_
_geom_bond_atom_site_label_1
_geom_bond_atom_site_label_2
_geom_bond_distance
_geom_bond_site_symmetry_2
K0 O37 2.637180 1_545
K0 O36 2.846761 1_555
K0 O27 2.852361 1_555
K0 O25 2.905087 1_655
K0 O11 3.019678 1_655
K1 O6 2.702794 1_555
K1 O20 2.721701 1_555
K1 O32 2.744994 1_555
K1 O14 2.801164 1_555
K1 O46 2.851611 1_555
K1 O13 3.289970 1_555
K2 O40 2.637180 1_565
K2 O17 2.846761 1_555
K2 O2 2.852361 1_555
K2 O22 2.905087 1_455
K2 O19 3.019678 1_455
K3 O14 2.732852 1_555
K3 O12 2.771474 1_565
K3 O31 2.846059 1_555
K3 O35 2.880887 1_565
K3 O18 3.013251 1_555
K3 O40 3.165805 1_565
K3 O33 3.248914 1_565
K4 O24 2.732852 1_555
K4 O36 2.771474 1_555
K4 O6 2.846059 1_555
K4 O27 2.880887 1_555
K4 O13 3.013251 1_555
K4 O7 3.165805 1_555
K4 O41 3.248914 1_555
K5 O30 2.732852 1_555
K5 O15 2.771474 1_545
K5 O42 2.846059 1_555
K5 O46 2.880887 1_545
K5 O41 3.013251 1_555
K5 O37 3.165805 1_545
K5 O13 3.248914 1_545
K6 O0 2.702794 1_555
K6 O16 2.721701 1_556
K6 O26 2.744994 1_555
K6 O30 2.801164 1_556
K6 O35 2.851611 1_555
K6 O33 3.289970 1_555
K7 O21 2.637180 1_555
K7 O12 2.846761 1_555
K7 O35 2.852361 1_555
K7 O3 2.905087 1_655
K7 O28 3.019678 1_655
K8 O31 2.702794 1_555
K8 O44 2.721701 1_556
K8 O8 2.744994 1_555
K8 O24 2.801164 1_556
K8 O2 2.851611 1_555
K8 O18 3.289970 1_555
K9 O23 2.732852 1_555
K9 O17 2.771474 1_555
K9 O0 2.846059 1_555
K9 O2 2.880887 1_555
K9 O33 3.013251 1_555
K9 O21 3.165805 1_555
K9 O18 3.248914 1_555
K10 O7 2.637180 1_555
K10 O15 2.846761 1_555
K10 O46 2.852361 1_555
K10 O34 2.905087 1_455
K10 O1 3.019678 1_455
K11 O42 2.702794 1_555
K11 O38 2.721701 1_555
K11 O47 2.744994 1_555
K11 O23 2.801164 1_555
K11 O27 2.851611 1_555
K11 O41 3.289970 1_555
Mo0 O30 1.779776 1_555
Mo0 O35 1.786924 1_554
Mo0 O43 1.804540 1_555
Mo0 O8 1.829294 1_544
Mo1 O15 1.775047 1_555
Mo1 O31 1.783171 1_554
Mo1 O4 1.808333 1_554
Mo1 O16 1.831488 1_565
Mo2 O37 1.759378 1_555
Mo2 O13 1.782165 1_555
Mo2 O1 1.819552 1_555
Mo2 O34 1.826459 1_555
Mo3 O36 1.775047 1_555
Mo3 O0 1.783171 1_554
Mo3 O10 1.808333 1_554
Mo3 O44 1.831488 1_555
Mo4 O17 1.775047 1_555
Mo4 O6 1.783171 1_555
Mo4 O39 1.808333 1_555
Mo4 O38 1.831488 1_555
Mo5 O14 1.779776 1_555
Mo5 O46 1.786924 1_555
Mo5 O45 1.804540 1_555
Mo5 O47 1.829294 1_565
Mo6 O40 1.759378 1_555
Mo6 O33 1.782165 1_555
Mo6 O28 1.819552 1_555
Mo6 O3 1.826459 1_555
Mo7 O7 1.759378 1_555
Mo7 O41 1.782165 1_555
Mo7 O11 1.819552 1_555
Mo7 O25 1.826459 1_555
Mo8 O12 1.775047 1_555
Mo8 O42 1.783171 1_555
Mo8 O5 1.808333 1_555
Mo8 O20 1.831488 1_545
Mo9 O24 1.779776 1_555
Mo9 O2 1.786924 1_554
Mo9 O29 1.804540 1_555
Mo9 O26 1.829294 1_554
Mo10 O21 1.759378 1_555
Mo10 O18 1.782165 1_555
Mo10 O19 1.819552 1_555
Mo10 O22 1.826459 1_555
Mo11 O23 1.779776 1_555
Mo11 O27 1.786924 1_555
Mo11 O9 1.804540 1_555
Mo11 O32 1.829294 1_555
O1 Sc2 2.093680 1_555
O3 Sc0 2.083302 1_555
O4 Sc3 2.108352 1_456
O5 Sc0 2.108352 1_655
O8 Sc3 2.151092 1_556
O9 Sc0 2.115891 1_655
O10 Sc1 2.108352 1_656
O11 Sc0 2.093680 1_555
O16 Sc1 2.137837 1_555
O19 Sc3 2.093680 1_556
O20 Sc2 2.137837 1_555
O22 Sc2 2.083302 1_555
O25 Sc1 2.083302 1_555
O26 Sc1 2.151092 1_556
O28 Sc1 2.093680 1_556
O29 Sc3 2.115891 1_455
O32 Sc2 2.151092 1_555
O34 Sc3 2.083302 1_555
O38 Sc0 2.137837 1_555
O39 Sc2 2.108352 1_455
O43 Sc1 2.115891 1_655
O44 Sc3 2.137837 1_555
O45 Sc2 2.115891 1_455
O47 Sc0 2.151092 1_555
