# generated using pymatgen
data_MoPb5O8
_symmetry_space_group_name_H-M   'P 1'
_cell_length_a   12.11645000
_cell_length_b   12.01436200
_cell_length_c   19.85631319
_cell_angle_alpha   53.28840735
_cell_angle_beta   90.00000000
_cell_angle_gamma   90.00000000
_symmetry_Int_Tables_number   1
_chemical_formula_structural   MoPb5O8
_chemical_formula_sum   'Mo8 Pb40 O64'
_cell_volume   2317.19226899
_cell_formula_units_Z   8
loop_
 _symmetry_equiv_pos_site_id
 _symmetry_equiv_pos_as_xyz
  1  'x, y, z'
loop_
 _atom_site_type_symbol
 _atom_site_label
 _atom_site_symmetry_multiplicity
 _atom_site_fract_x
 _atom_site_fract_y
 _atom_site_fract_z
 _atom_site_occupancy
  Mo  Mo0  1  0.90923000  0.78838400  0.56050300  1
  Mo  Mo1  1  0.09077000  0.21161600  0.43949700  1
  Mo  Mo2  1  0.09851900  0.67997100  0.93966100  1
  Mo  Mo3  1  0.59077000  0.78838400  0.06050300  1
  Mo  Mo4  1  0.40148100  0.67997100  0.43966100  1
  Mo  Mo5  1  0.90148100  0.32002900  0.06033900  1
  Mo  Mo6  1  0.40923000  0.21161600  0.93949700  1
  Mo  Mo7  1  0.59851900  0.32002900  0.56033900  1
  Pb  Pb0  1  0.25558000  0.59363500  0.79487500  1
  Pb  Pb1  1  0.07823500  0.93953900  0.69586000  1
  Pb  Pb2  1  0.74721000  0.69418700  0.92114200  1
  Pb  Pb3  1  0.25293000  0.82609800  0.07494500  1
  Pb  Pb4  1  0.93700100  0.82419700  0.06526100  1
  Pb  Pb5  1  0.42176500  0.93953900  0.19586000  1
  Pb  Pb6  1  0.07766100  0.65908300  0.43902800  1
  Pb  Pb7  1  0.41677700  0.45123500  0.68284200  1
  Pb  Pb8  1  0.42233900  0.65908300  0.93902800  1
  Pb  Pb9  1  0.76098900  0.90767600  0.19728300  1
  Pb  Pb10  1  0.75293000  0.17390200  0.42505500  1
  Pb  Pb11  1  0.56299900  0.82419700  0.56526100  1
  Pb  Pb12  1  0.06299900  0.17580300  0.93473900  1
  Pb  Pb13  1  0.58220000  0.58191000  0.81307000  1
  Pb  Pb14  1  0.23901100  0.09232400  0.80271700  1
  Pb  Pb15  1  0.75279000  0.69418700  0.42114200  1
  Pb  Pb16  1  0.91780000  0.58191000  0.31307000  1
  Pb  Pb17  1  0.57766100  0.34091700  0.06097200  1
  Pb  Pb18  1  0.91453800  0.08301100  0.81006000  1
  Pb  Pb19  1  0.58546200  0.08301100  0.31006000  1
  Pb  Pb20  1  0.24707000  0.82609800  0.57494500  1
  Pb  Pb21  1  0.75558000  0.40636500  0.70512500  1
  Pb  Pb22  1  0.25279000  0.30581300  0.07885800  1
  Pb  Pb23  1  0.58322300  0.54876500  0.31715800  1
  Pb  Pb24  1  0.92176500  0.06046100  0.30414000  1
  Pb  Pb25  1  0.43700100  0.17580300  0.43473900  1
  Pb  Pb26  1  0.08322300  0.45123500  0.18284200  1
  Pb  Pb27  1  0.92233900  0.34091700  0.56097200  1
  Pb  Pb28  1  0.74442000  0.40636500  0.20512500  1
  Pb  Pb29  1  0.08546200  0.91698900  0.18994000  1
  Pb  Pb30  1  0.57823500  0.06046100  0.80414000  1
  Pb  Pb31  1  0.41780000  0.41809000  0.18693000  1
  Pb  Pb32  1  0.08220000  0.41809000  0.68693000  1
  Pb  Pb33  1  0.24442000  0.59363500  0.29487500  1
  Pb  Pb34  1  0.24721000  0.30581300  0.57885800  1
  Pb  Pb35  1  0.91677700  0.54876500  0.81715800  1
  Pb  Pb36  1  0.74707000  0.17390200  0.92505500  1
  Pb  Pb37  1  0.26098900  0.09232400  0.30271700  1
  Pb  Pb38  1  0.41453800  0.91698900  0.68994000  1
  Pb  Pb39  1  0.73901100  0.90767600  0.69728300  1
  O  O0  1  0.54224900  0.92690200  0.95575100  1
  O  O1  1  0.49782800  0.74632000  0.14330600  1
  O  O2  1  0.17436800  0.61822100  0.18200100  1
  O  O3  1  0.39615100  0.36519800  0.93458900  1
  O  O4  1  0.66979600  0.89551400  0.80936600  1
  O  O5  1  0.08097400  0.18070800  0.81514500  1
  O  O6  1  0.21273400  0.57613200  0.94786300  1
  O  O7  1  0.52675600  0.63900200  0.41047100  1
  O  O8  1  0.40885100  0.68407400  0.81187800  1
  O  O9  1  0.23340200  0.33198600  0.18812100  1
  O  O10  1  0.91902600  0.81929200  0.18485500  1
  O  O11  1  0.47324400  0.36099800  0.58952900  1
  O  O12  1  0.60384900  0.63480200  0.06541100  1
  O  O13  1  0.33020400  0.10448600  0.19063400  1
  O  O14  1  0.27065500  0.83571500  0.18725000  1
  O  O15  1  0.83020400  0.89551400  0.30936600  1
  O  O16  1  0.89615100  0.63480200  0.56541100  1
  O  O17  1  0.91139300  0.56864600  0.43639400  1
  O  O18  1  0.90885100  0.31592600  0.68812200  1
  O  O19  1  0.63153000  0.14271700  0.64248200  1
  O  O20  1  0.99782800  0.25368000  0.35669400  1
  O  O21  1  0.76659800  0.66801400  0.81187900  1
  O  O22  1  0.45775100  0.07309800  0.04424900  1
  O  O23  1  0.10384900  0.36519800  0.43458900  1
  O  O24  1  0.00217200  0.74632000  0.64330600  1
  O  O25  1  0.08335800  0.66353700  0.03602400  1
  O  O26  1  0.22934500  0.83571500  0.68725000  1
  O  O27  1  0.78726600  0.42386800  0.05213700  1
  O  O28  1  0.27573000  0.16837400  0.92053400  1
  O  O29  1  0.09114900  0.68407400  0.31187800  1
  O  O30  1  0.58860700  0.56864600  0.93639400  1
  O  O31  1  0.32563200  0.61822100  0.68200100  1
  O  O32  1  0.82563200  0.38177900  0.81799900  1
  O  O33  1  0.41139300  0.43135400  0.06360600  1
  O  O34  1  0.50217200  0.25368000  0.85669400  1
  O  O35  1  0.58335800  0.33646300  0.46397600  1
  O  O36  1  0.59485200  0.05234900  0.44234400  1
  O  O37  1  0.08860700  0.43135400  0.56360600  1
  O  O38  1  0.41902600  0.18070800  0.31514500  1
  O  O39  1  0.90514800  0.05234900  0.94234400  1
  O  O40  1  0.04224900  0.07309800  0.54424900  1
  O  O41  1  0.13153000  0.85728300  0.85751800  1
  O  O42  1  0.72934500  0.16428500  0.81275000  1
  O  O43  1  0.58097400  0.81929200  0.68485500  1
  O  O44  1  0.73340200  0.66801400  0.31187900  1
  O  O45  1  0.72427000  0.83162600  0.07946600  1
  O  O46  1  0.97324400  0.63900200  0.91047100  1
  O  O47  1  0.41664200  0.66353700  0.53602400  1
  O  O48  1  0.71273400  0.42386800  0.55213700  1
  O  O49  1  0.02675600  0.36099800  0.08952900  1
  O  O50  1  0.36847000  0.85728300  0.35751800  1
  O  O51  1  0.40514800  0.94765100  0.55765600  1
  O  O52  1  0.28726600  0.57613200  0.44786300  1
  O  O53  1  0.09485200  0.94765100  0.05765600  1
  O  O54  1  0.67436800  0.38177900  0.31799900  1
  O  O55  1  0.77573000  0.83162600  0.57946600  1
  O  O56  1  0.95775100  0.92690200  0.45575100  1
  O  O57  1  0.77065500  0.16428500  0.31275000  1
  O  O58  1  0.22427000  0.16837400  0.42053400  1
  O  O59  1  0.86847000  0.14271700  0.14248200  1
  O  O60  1  0.91664200  0.33646300  0.96397600  1
  O  O61  1  0.16979600  0.10448600  0.69063400  1
  O  O62  1  0.59114900  0.31592600  0.18812200  1
  O  O63  1  0.26659800  0.33198600  0.68812100  1
loop_
_geom_bond_atom_site_label_1
_geom_bond_atom_site_label_2
_geom_bond_distance
_geom_bond_site_symmetry_2
Mo0 O16 1.795646 1_555
Mo0 O24 1.798169 1_655
Mo0 O55 1.806106 1_555
Mo0 O56 1.817428 1_555
Mo1 O23 1.795646 1_555
Mo1 O20 1.798169 1_455
Mo1 O58 1.806106 1_555
Mo1 O40 1.817428 1_555
Mo2 O41 1.790054 1_555
Mo2 O46 1.795353 1_455
Mo2 O6 1.804200 1_555
Mo2 O25 1.811685 1_556
Mo3 O12 1.795646 1_555
Mo3 O1 1.798169 1_555
Mo3 O45 1.806106 1_555
Mo3 O0 1.817428 1_554
Mo4 O50 1.790054 1_555
Mo4 O7 1.795353 1_555
Mo4 O52 1.804200 1_555
Mo4 O47 1.811685 1_555
Mo5 O59 1.790054 1_555
Mo5 O49 1.795353 1_655
Mo5 O27 1.804200 1_555
Mo5 O60 1.811685 1_554
Mo6 O3 1.795646 1_555
Mo6 O34 1.798169 1_555
Mo6 O28 1.806106 1_555
Mo6 O22 1.817428 1_556
Mo7 O19 1.790054 1_555
Mo7 O11 1.795353 1_555
Mo7 O48 1.804200 1_555
Mo7 O35 1.811685 1_555
O0 Pb30 2.460141 1_565
O2 Pb33 2.244866 1_555
O2 Pb26 2.281399 1_555
O2 Pb3 2.305439 1_555
O4 Pb30 2.218767 1_565
O4 Pb2 2.288686 1_555
O4 Pb39 2.299776 1_555
O5 Pb14 2.273415 1_555
O5 Pb12 2.350059 1_555
O5 Pb18 2.365660 1_455
O5 Pb32 2.436128 1_555
O6 Pb8 2.695345 1_555
O6 Pb22 2.729305 1_556
O7 Pb23 2.734618 1_555
O7 Pb15 2.855360 1_555
O8 Pb0 2.276406 1_555
O8 Pb8 2.363221 1_555
O8 Pb38 2.365852 1_555
O8 Pb13 2.425695 1_555
O9 Pb26 2.279286 1_555
O9 Pb22 2.382584 1_555
O9 Pb37 2.397287 1_555
O9 Pb31 2.456285 1_555
O10 Pb9 2.273415 1_555
O10 Pb4 2.350059 1_555
O10 Pb29 2.365660 1_655
O10 Pb16 2.436128 1_555
O11 Pb7 2.734618 1_555
O11 Pb34 2.855360 1_555
O13 Pb5 2.218767 1_545
O13 Pb22 2.288686 1_555
O13 Pb37 2.299776 1_555
O14 Pb5 2.278684 1_555
O14 Pb3 2.310899 1_555
O14 Pb33 2.386620 1_555
O14 Pb29 2.460423 1_555
O15 Pb24 2.218767 1_565
O15 Pb15 2.288686 1_555
O15 Pb9 2.299776 1_555
O17 Pb6 2.304295 1_655
O17 Pb15 2.348085 1_555
O17 Pb27 2.351756 1_555
O17 Pb16 2.358240 1_555
O18 Pb21 2.276406 1_555
O18 Pb27 2.363221 1_555
O18 Pb18 2.365852 1_555
O18 Pb32 2.425695 1_655
O19 Pb39 2.679647 1_545
O21 Pb35 2.279286 1_555
O21 Pb2 2.382584 1_555
O21 Pb39 2.397287 1_555
O21 Pb13 2.456285 1_555
O22 Pb5 2.460141 1_545
O25 Pb26 2.472760 1_555
O26 Pb1 2.278684 1_555
O26 Pb20 2.310899 1_555
O26 Pb0 2.386620 1_555
O26 Pb38 2.460423 1_555
O27 Pb17 2.695345 1_555
O27 Pb2 2.729305 1_554
O28 Pb12 2.600261 1_555
O29 Pb33 2.276406 1_555
O29 Pb6 2.363221 1_555
O29 Pb29 2.365852 1_555
O29 Pb16 2.425695 1_455
O30 Pb8 2.304295 1_555
O30 Pb2 2.348085 1_555
O30 Pb17 2.351756 1_556
O30 Pb13 2.358240 1_555
O31 Pb0 2.244866 1_555
O31 Pb7 2.281399 1_555
O31 Pb20 2.305439 1_555
O32 Pb21 2.244866 1_555
O32 Pb35 2.281399 1_555
O32 Pb36 2.305439 1_555
O33 Pb17 2.304295 1_555
O33 Pb22 2.348085 1_555
O33 Pb8 2.351756 1_554
O33 Pb31 2.358240 1_555
O35 Pb23 2.472760 1_555
O36 Pb10 2.306451 1_555
O36 Pb25 2.369173 1_555
O36 Pb11 2.370850 1_545
O36 Pb19 2.427178 1_555
O37 Pb27 2.304295 1_455
O37 Pb34 2.348085 1_555
O37 Pb6 2.351756 1_555
O37 Pb32 2.358240 1_555
O38 Pb37 2.273415 1_555
O38 Pb25 2.350059 1_555
O38 Pb19 2.365660 1_555
O38 Pb31 2.436128 1_555
O39 Pb36 2.306451 1_555
O39 Pb12 2.369173 1_655
O39 Pb4 2.370850 1_546
O39 Pb18 2.427178 1_555
O40 Pb1 2.460141 1_545
O41 Pb14 2.679647 1_565
O42 Pb30 2.278684 1_555
O42 Pb36 2.310899 1_555
O42 Pb21 2.386620 1_555
O42 Pb18 2.460423 1_555
O43 Pb39 2.273415 1_555
O43 Pb11 2.350059 1_555
O43 Pb38 2.365660 1_555
O43 Pb13 2.436128 1_555
O44 Pb23 2.279286 1_555
O44 Pb15 2.382584 1_555
O44 Pb9 2.397287 1_555
O44 Pb16 2.456285 1_555
O45 Pb4 2.600261 1_555
O46 Pb35 2.734618 1_555
O46 Pb2 2.855360 1_555
O47 Pb7 2.472760 1_555
O48 Pb27 2.695345 1_555
O48 Pb15 2.729305 1_555
O49 Pb26 2.734618 1_555
O49 Pb22 2.855360 1_555
O50 Pb37 2.679647 1_565
O51 Pb20 2.306451 1_555
O51 Pb11 2.369173 1_555
O51 Pb25 2.370850 1_565
O51 Pb38 2.427178 1_555
O52 Pb6 2.695345 1_555
O52 Pb34 2.729305 1_555
O53 Pb3 2.306451 1_555
O53 Pb4 2.369173 1_455
O53 Pb12 2.370850 1_564
O53 Pb29 2.427178 1_555
O54 Pb28 2.244866 1_555
O54 Pb23 2.281399 1_555
O54 Pb10 2.305439 1_555
O55 Pb11 2.600261 1_555
O56 Pb24 2.460141 1_565
O57 Pb24 2.278684 1_555
O57 Pb10 2.310899 1_555
O57 Pb28 2.386620 1_555
O57 Pb19 2.460423 1_555
O58 Pb25 2.600261 1_555
O59 Pb9 2.679647 1_545
O60 Pb35 2.472760 1_555
O61 Pb1 2.218767 1_545
O61 Pb34 2.288686 1_555
O61 Pb14 2.299776 1_555
O62 Pb28 2.276406 1_555
O62 Pb17 2.363221 1_555
O62 Pb19 2.365852 1_555
O62 Pb31 2.425695 1_555
O63 Pb7 2.279286 1_555
O63 Pb34 2.382584 1_555
O63 Pb14 2.397287 1_555
O63 Pb32 2.456285 1_555
