# generated using pymatgen
data_SiO2
_symmetry_space_group_name_H-M   'P 1'
_cell_length_a   16.32178461
_cell_length_b   16.32178461
_cell_length_c   16.32178461
_cell_angle_alpha   150.19444267
_cell_angle_beta   125.96623457
_cell_angle_gamma   62.93341681
_symmetry_Int_Tables_number   1
_chemical_formula_structural   SiO2
_chemical_formula_sum   'Si32 O64'
_cell_volume   1733.07630406
_cell_formula_units_Z   32
loop_
 _symmetry_equiv_pos_site_id
 _symmetry_equiv_pos_as_xyz
  1  'x, y, z'
loop_
 _atom_site_type_symbol
 _atom_site_label
 _atom_site_symmetry_multiplicity
 _atom_site_fract_x
 _atom_site_fract_y
 _atom_site_fract_z
 _atom_site_occupancy
  Si  Si0  1  0.31941500  0.90992200  0.78127600  1
  Si  Si1  1  0.87135400  0.59007800  0.90949300  1
  Si  Si2  1  0.12864600  0.03813900  0.71872400  1
  Si  Si3  1  0.68058500  0.46186100  0.59050700  1
  Si  Si4  1  0.68058500  0.09007800  0.21872400  1
  Si  Si5  1  0.12864600  0.40992200  0.09050700  1
  Si  Si6  1  0.87135400  0.96186100  0.28127600  1
  Si  Si7  1  0.31941500  0.53813900  0.40949300  1
  Si  Si8  1  0.42891700  0.51492400  0.28723400  1
  Si  Si9  1  0.77231000  0.98507600  0.41399300  1
  Si  Si10  1  0.22769000  0.64168300  0.21276600  1
  Si  Si11  1  0.57108300  0.85831700  0.08600700  1
  Si  Si12  1  0.57108300  0.48507600  0.71276600  1
  Si  Si13  1  0.22769000  0.01492400  0.58600700  1
  Si  Si14  1  0.77231000  0.35831700  0.78723400  1
  Si  Si15  1  0.42891700  0.14168300  0.91399300  1
  Si  Si16  1  0.64102400  0.04274000  0.96791600  1
  Si  Si17  1  0.92517600  0.45726000  0.09828400  1
  Si  Si18  1  0.07482400  0.17310800  0.53208400  1
  Si  Si19  1  0.35897600  0.32689200  0.40171600  1
  Si  Si20  1  0.35897600  0.95726000  0.03208400  1
  Si  Si21  1  0.07482400  0.54274000  0.90171600  1
  Si  Si22  1  0.92517600  0.82689200  0.46791600  1
  Si  Si23  1  0.64102400  0.67310800  0.59828400  1
  Si  Si24  1  0.04581000  0.13782700  0.29289500  1
  Si  Si25  1  0.15506900  0.36217300  0.40798300  1
  Si  Si26  1  0.84493100  0.25291400  0.20710500  1
  Si  Si27  1  0.95419000  0.24708600  0.09201700  1
  Si  Si28  1  0.95419000  0.86217300  0.70710500  1
  Si  Si29  1  0.84493100  0.63782700  0.59201700  1
  Si  Si30  1  0.15506900  0.74708600  0.79289500  1
  Si  Si31  1  0.04581000  0.75291400  0.90798300  1
  O  O0  1  0.20194100  0.95194100  0.75000000  1
  O  O1  1  0.79805900  0.54805900  0.75000000  1
  O  O2  1  0.79805900  0.04805900  0.25000000  1
  O  O3  1  0.20194100  0.45194100  0.25000000  1
  O  O4  1  0.35617600  0.88369200  0.87321800  1
  O  O5  1  0.98952600  0.61630800  0.97248300  1
  O  O6  1  0.01047400  0.98295800  0.62678200  1
  O  O7  1  0.64382400  0.51704200  0.52751700  1
  O  O8  1  0.64382400  0.11630800  0.12678200  1
  O  O9  1  0.01047400  0.38369200  0.02751700  1
  O  O10  1  0.98952600  0.01704200  0.37321800  1
  O  O11  1  0.35617600  0.48295800  0.47248300  1
  O  O12  1  0.39244000  0.06269700  0.91341000  1
  O  O13  1  0.85071300  0.43730300  0.82974300  1
  O  O14  1  0.14928700  0.97903000  0.58659000  1
  O  O15  1  0.60756000  0.52097000  0.67025700  1
  O  O16  1  0.60756000  0.93730300  0.08659000  1
  O  O17  1  0.14928700  0.56269700  0.17025700  1
  O  O18  1  0.85071300  0.02097000  0.41341000  1
  O  O19  1  0.39244000  0.47903000  0.32974300  1
  O  O20  1  0.32508300  0.74020900  0.58487500  1
  O  O21  1  0.84466600  0.75979200  0.08487500  1
  O  O22  1  0.15533400  0.24020900  0.91512500  1
  O  O23  1  0.67491700  0.25979200  0.41512500  1
  O  O24  1  0.53343300  0.64671500  0.46223800  1
  O  O25  1  0.81552300  0.85328500  0.38671800  1
  O  O26  1  0.18447700  0.57119400  0.03776200  1
  O  O27  1  0.46656700  0.92880600  0.11328200  1
  O  O28  1  0.46656700  0.35328500  0.53776200  1
  O  O29  1  0.18447700  0.14671500  0.61328200  1
  O  O30  1  0.81552300  0.42880600  0.96223800  1
  O  O31  1  0.53343300  0.07119400  0.88671800  1
  O  O32  1  0.34108400  0.59108400  0.25000000  1
  O  O33  1  0.65891600  0.90891600  0.25000000  1
  O  O34  1  0.65891600  0.40891600  0.75000000  1
  O  O35  1  0.34108400  0.09108400  0.75000000  1
  O  O36  1  0.45166400  0.34261500  0.10904900  1
  O  O37  1  0.76643400  0.15738500  0.60904900  1
  O  O38  1  0.23356600  0.84261500  0.39095100  1
  O  O39  1  0.54833600  0.65738500  0.89095100  1
  O  O40  1  0.64969200  0.84460600  0.80508600  1
  O  O41  1  0.96048000  0.65539400  0.30508600  1
  O  O42  1  0.03952000  0.34460600  0.69491400  1
  O  O43  1  0.35030800  0.15539400  0.19491400  1
  O  O44  1  0.73518200  0.13806300  0.05294800  1
  O  O45  1  0.91488500  0.36193700  0.09712000  1
  O  O46  1  0.08511500  0.18223400  0.44705200  1
  O  O47  1  0.26481800  0.31776600  0.40288000  1
  O  O48  1  0.26481800  0.86193700  0.94705200  1
  O  O49  1  0.08511500  0.63806300  0.90288000  1
  O  O50  1  0.91488500  0.81776600  0.55294800  1
  O  O51  1  0.73518200  0.68223400  0.59712000  1
  O  O52  1  0.92899700  0.17899700  0.25000000  1
  O  O53  1  0.07100300  0.32100300  0.25000000  1
  O  O54  1  0.07100300  0.82100300  0.75000000  1
  O  O55  1  0.92899700  0.67899700  0.75000000  1
  O  O56  1  0.04895900  0.94180400  0.10715600  1
  O  O57  1  0.16535200  0.55819600  0.60715600  1
  O  O58  1  0.83464800  0.44180400  0.39284400  1
  O  O59  1  0.95104100  0.05819700  0.89284400  1
  O  O60  1  0.12104900  0.25000000  0.37104900  1
  O  O61  1  0.87895100  0.25000000  0.12895100  1
  O  O62  1  0.87895100  0.75000000  0.62895100  1
  O  O63  1  0.12104900  0.75000000  0.87104900  1
loop_
_geom_bond_atom_site_label_1
_geom_bond_atom_site_label_2
_geom_bond_distance
_geom_bond_site_symmetry_2
O0 Si2 1.633548 1_565
O0 Si0 1.633548 1_555
O1 Si3 1.633548 1_555
O1 Si1 1.633548 1_555
O2 Si4 1.633548 1_555
O2 Si6 1.633548 1_545
O3 Si7 1.633548 1_555
O3 Si5 1.633548 1_555
O4 Si0 1.618277 1_555
O4 Si20 1.635492 1_556
O5 Si1 1.618282 1_555
O5 Si21 1.635483 1_655
O6 Si2 1.618277 1_565
O6 Si22 1.635492 1_455
O7 Si3 1.618262 1_555
O7 Si23 1.635503 1_555
O8 Si4 1.618277 1_555
O8 Si16 1.635492 1_554
O9 Si5 1.618282 1_555
O9 Si17 1.635483 1_455
O10 Si6 1.618277 1_545
O10 Si18 1.635492 1_655
O11 Si7 1.618262 1_555
O11 Si19 1.635503 1_555
O12 Si0 1.625500 1_545
O12 Si15 1.639248 1_555
O13 Si1 1.625500 1_555
O13 Si14 1.639248 1_555
O14 Si2 1.625500 1_565
O14 Si13 1.639248 1_565
O15 Si3 1.625500 1_555
O15 Si12 1.639248 1_555
O16 Si4 1.625500 1_565
O16 Si11 1.639248 1_555
O17 Si5 1.625500 1_555
O17 Si10 1.639248 1_555
O18 Si6 1.625500 1_545
O18 Si9 1.639248 1_545
O19 Si7 1.625500 1_555
O19 Si8 1.639248 1_555
O20 Si0 1.631770 1_555
O20 Si7 1.631778 1_555
O21 Si6 1.631770 1_555
O21 Si1 1.631778 1_554
O22 Si2 1.631777 1_555
O22 Si5 1.631777 1_556
O23 Si3 1.631770 1_555
O23 Si4 1.631770 1_555
O24 Si23 1.627319 1_555
O24 Si8 1.627568 1_555
O25 Si22 1.627319 1_555
O25 Si9 1.627568 1_555
O26 Si21 1.627326 1_554
O26 Si10 1.627558 1_555
O27 Si20 1.627311 1_555
O27 Si11 1.627568 1_555
O28 Si19 1.627319 1_555
O28 Si12 1.627568 1_555
O29 Si18 1.627319 1_555
O29 Si13 1.627568 1_555
O30 Si17 1.627326 1_556
O30 Si14 1.627558 1_555
O31 Si16 1.627311 1_555
O31 Si15 1.627568 1_555
O32 Si10 1.623464 1_555
O32 Si8 1.623464 1_555
O33 Si11 1.623464 1_555
O33 Si9 1.623464 1_555
O34 Si12 1.623464 1_555
O34 Si14 1.623464 1_555
O35 Si13 1.623464 1_555
O35 Si15 1.623464 1_555
O36 Si15 1.621440 1_554
O36 Si8 1.621440 1_555
O37 Si14 1.621440 1_555
O37 Si9 1.621440 1_545
O38 Si13 1.621440 1_565
O38 Si10 1.621440 1_555
O39 Si11 1.621440 1_556
O39 Si12 1.621440 1_555
O40 Si23 1.628247 1_555
O40 Si16 1.628247 1_565
O41 Si22 1.628247 1_555
O41 Si17 1.628247 1_555
O42 Si21 1.628247 1_555
O42 Si18 1.628247 1_555
O43 Si20 1.628247 1_545
O43 Si19 1.628247 1_555
O44 Si26 1.621708 1_555
O44 Si16 1.622328 1_554
O45 Si27 1.621698 1_555
O45 Si17 1.622343 1_555
O46 Si24 1.621725 1_555
O46 Si18 1.622328 1_555
O47 Si25 1.621715 1_555
O47 Si19 1.622318 1_555
O48 Si30 1.621708 1_555
O48 Si20 1.622328 1_556
O49 Si31 1.621698 1_555
O49 Si21 1.622343 1_555
O50 Si28 1.621725 1_555
O50 Si22 1.622328 1_555
O51 Si29 1.621715 1_555
O51 Si23 1.622318 1_555
O52 Si26 1.630760 1_555
O52 Si24 1.630768 1_655
O53 Si25 1.630770 1_555
O53 Si27 1.630770 1_455
O54 Si30 1.630760 1_555
O54 Si28 1.630768 1_455
O55 Si31 1.630770 1_655
O55 Si29 1.630770 1_555
O56 Si24 1.621826 1_565
O56 Si31 1.621837 1_554
O57 Si30 1.621828 1_555
O57 Si25 1.621832 1_555
O58 Si26 1.621828 1_555
O58 Si29 1.621832 1_555
O59 Si28 1.621831 1_545
O59 Si27 1.621834 1_556
O60 Si24 1.624916 1_555
O60 Si25 1.624926 1_555
O61 Si27 1.624926 1_555
O61 Si26 1.624942 1_555
O62 Si28 1.624916 1_555
O62 Si29 1.624926 1_555
O63 Si31 1.624926 1_555
O63 Si30 1.624942 1_555
