# generated using pymatgen
data_H4NClO2
_symmetry_space_group_name_H-M   'P 1'
_cell_length_a   6.48478900
_cell_length_b   6.48478900
_cell_length_c   3.78620400
_cell_angle_alpha   90.00000000
_cell_angle_beta   90.00000000
_cell_angle_gamma   90.00000000
_symmetry_Int_Tables_number   1
_chemical_formula_structural   H4NClO2
_chemical_formula_sum   'H8 N2 Cl2 O4'
_cell_volume   159.21929969
_cell_formula_units_Z   2
loop_
 _symmetry_equiv_pos_site_id
 _symmetry_equiv_pos_as_xyz
  1  'x, y, z'
loop_
 _atom_site_type_symbol
 _atom_site_label
 _atom_site_symmetry_multiplicity
 _atom_site_fract_x
 _atom_site_fract_y
 _atom_site_fract_z
 _atom_site_occupancy
  H  H0  1  0.45847300  0.37330500  0.34166800  1
  H  H1  1  0.95847300  0.12669500  0.65833200  1
  H  H2  1  0.54152700  0.62669500  0.34166800  1
  H  H3  1  0.04152700  0.87330500  0.65833200  1
  H  H4  1  0.37330500  0.54152700  0.65833200  1
  H  H5  1  0.87330500  0.95847300  0.34166800  1
  H  H6  1  0.62669500  0.45847300  0.65833200  1
  H  H7  1  0.12669500  0.04152700  0.34166800  1
  N  N0  1  0.50000000  0.50000000  0.50000000  1
  N  N1  1  0.00000000  0.00000000  0.50000000  1
  Cl  Cl0  1  0.50000000  0.00000000  0.89081600  1
  Cl  Cl1  1  0.00000000  0.50000000  0.10918400  1
  O  O0  1  0.14472300  0.64472300  0.87755700  1
  O  O1  1  0.64472300  0.85527700  0.12244300  1
  O  O2  1  0.85527700  0.35527700  0.87755700  1
  O  O3  1  0.35527700  0.14472300  0.12244300  1
loop_
_geom_bond_atom_site_label_1
_geom_bond_atom_site_label_2
_geom_bond_distance
_geom_bond_site_symmetry_2
H0 N0 1.052094 1_555
H1 N1 1.052094 1_655
H2 N0 1.052094 1_555
H3 N1 1.052094 1_565
H4 N0 1.052094 1_555
H5 N1 1.052094 1_665
H6 N0 1.052094 1_555
H7 N1 1.052094 1_555
Cl0 O1 1.590806 1_546
Cl0 O3 1.590806 1_556
Cl1 O0 1.590806 1_554
Cl1 O2 1.590806 1_454
