# generated using pymatgen
data_CdI2
_symmetry_space_group_name_H-M   'P 1'
_cell_length_a   4.28160849
_cell_length_b   4.28160901
_cell_length_c   71.60467017
_cell_angle_alpha   90.00000000
_cell_angle_beta   90.00000000
_cell_angle_gamma   120.00000392
_symmetry_Int_Tables_number   1
_chemical_formula_structural   CdI2
_chemical_formula_sum   'Cd10 I20'
_cell_volume   1136.80486025
_cell_formula_units_Z   10
loop_
 _symmetry_equiv_pos_site_id
 _symmetry_equiv_pos_as_xyz
  1  'x, y, z'
loop_
 _atom_site_type_symbol
 _atom_site_label
 _atom_site_symmetry_multiplicity
 _atom_site_fract_x
 _atom_site_fract_y
 _atom_site_fract_z
 _atom_site_occupancy
  Cd  Cd0  1  0.66666700  0.33333300  0.52499996  1
  Cd  Cd1  1  0.66666700  0.33333300  0.22500363  1
  Cd  Cd2  1  0.66666700  0.33333300  0.72499531  1
  Cd  Cd3  1  0.00000000  -0.00000000  0.82499821  1
  Cd  Cd4  1  0.66666700  0.33333300  0.42500140  1
  Cd  Cd5  1  0.00000000  -0.00000000  0.92499832  1
  Cd  Cd6  1  0.66666700  0.33333300  0.02500514  1
  Cd  Cd7  1  0.00000000  -0.00000000  0.32499456  1
  Cd  Cd8  1  0.00000000  -0.00000000  0.12499135  1
  Cd  Cd9  1  0.00000000  -0.00000000  0.62500787  1
  I  I0  1  -0.00000000  -0.00000000  0.20093098  1
  I  I1  1  0.33333300  0.66666700  0.44906901  1
  I  I2  1  0.33333300  0.66666700  0.94906903  1
  I  I3  1  0.66666700  0.33333300  0.10093097  1
  I  I4  1  0.66666700  0.33333300  0.90093122  1
  I  I5  1  0.33333300  0.66666700  0.34906901  1
  I  I6  1  -0.00000000  -0.00000000  0.40093098  1
  I  I7  1  0.33333300  0.66666700  0.04906902  1
  I  I8  1  0.66666700  0.33333300  0.30093098  1
  I  I9  1  0.33333300  0.66666700  0.54906903  1
  I  I10  1  0.66666700  0.33333300  0.60093098  1
  I  I11  1  0.33333300  0.66666700  0.14906901  1
  I  I12  1  0.33333300  0.66666700  0.24906902  1
  I  I13  1  0.00000000  -0.00000000  0.00093099  1
  I  I14  1  -0.00000000  -0.00000000  0.70093097  1
  I  I15  1  0.33333300  0.66666700  0.84906903  1
  I  I16  1  0.33333300  0.66666700  0.64906902  1
  I  I17  1  0.66666700  0.33333300  0.80093099  1
  I  I18  1  0.33333300  0.66666700  0.74906902  1
  I  I19  1  0.00000000  -0.00000000  0.50093098  1
loop_
_geom_bond_atom_site_label_1
_geom_bond_atom_site_label_2
_geom_bond_distance
_geom_bond_site_symmetry_2
Cd0 I19 3.013469 1_655
Cd0 I19 3.013472 1_555
Cd0 I19 3.013472 1_665
Cd0 I9 3.013473 1_655
Cd0 I9 3.013473 1_545
Cd0 I9 3.013479 1_555
Cd1 I12 3.013322 1_655
Cd1 I12 3.013322 1_545
Cd1 I12 3.013328 1_555
Cd1 I0 3.013620 1_655
Cd1 I0 3.013622 1_555
Cd1 I0 3.013623 1_665
Cd2 I14 3.013279 1_655
Cd2 I14 3.013282 1_555
Cd2 I14 3.013282 1_665
Cd2 I18 3.013663 1_655
Cd2 I18 3.013663 1_545
Cd2 I18 3.013669 1_555
Cd3 I17 3.013397 1_455
Cd3 I17 3.013400 1_555
Cd3 I17 3.013400 1_445
Cd3 I15 3.013545 1_545
Cd3 I15 3.013547 1_445
Cd3 I15 3.013548 1_555
Cd4 I1 3.013413 1_655
Cd4 I1 3.013413 1_545
Cd4 I1 3.013419 1_555
Cd4 I6 3.013528 1_655
Cd4 I6 3.013531 1_555
Cd4 I6 3.013531 1_665
Cd5 I4 3.013392 1_455
Cd5 I4 3.013395 1_555
Cd5 I4 3.013395 1_445
Cd5 I2 3.013540 1_545
Cd5 I2 3.013543 1_445
Cd5 I2 3.013543 1_555
Cd6 I7 3.013260 1_655
Cd6 I7 3.013260 1_545
Cd6 I7 3.013267 1_555
Cd6 I13 3.013681 1_655
Cd6 I13 3.013684 1_555
Cd6 I13 3.013684 1_665
Cd7 I8 3.013248 1_455
Cd7 I8 3.013251 1_555
Cd7 I8 3.013251 1_445
Cd7 I5 3.013693 1_545
Cd7 I5 3.013696 1_445
Cd7 I5 3.013696 1_555
Cd8 I3 3.013117 1_455
Cd8 I3 3.013120 1_555
Cd8 I3 3.013120 1_445
Cd8 I11 3.013825 1_545
Cd8 I11 3.013828 1_445
Cd8 I11 3.013828 1_555
Cd9 I16 3.013149 1_545
Cd9 I16 3.013151 1_445
Cd9 I16 3.013152 1_555
Cd9 I10 3.013793 1_455
Cd9 I10 3.013796 1_555
Cd9 I10 3.013796 1_445
