# generated using pymatgen
data_Ca3YGa3B4O15
_symmetry_space_group_name_H-M   'P 1'
_cell_length_a   11.92467100
_cell_length_b   10.64805300
_cell_length_c   10.66628332
_cell_angle_alpha   60.06990222
_cell_angle_beta   90.00000000
_cell_angle_gamma   90.00000000
_symmetry_Int_Tables_number   1
_chemical_formula_structural   Ca3YGa3B4O15
_chemical_formula_sum   'Ca12 Y4 Ga12 B16 O60'
_cell_volume   1173.72359418
_cell_formula_units_Z   4
loop_
 _symmetry_equiv_pos_site_id
 _symmetry_equiv_pos_as_xyz
  1  'x, y, z'
loop_
 _atom_site_type_symbol
 _atom_site_label
 _atom_site_symmetry_multiplicity
 _atom_site_fract_x
 _atom_site_fract_y
 _atom_site_fract_z
 _atom_site_occupancy
  Ca  Ca0  1  0.50000000  0.82280800  0.87914000  1
  Ca  Ca1  1  0.00000000  0.66106800  0.67160400  1
  Ca  Ca2  1  0.00000000  0.30953800  0.83431900  1
  Ca  Ca3  1  0.50000000  0.30435300  0.83642300  1
  Ca  Ca4  1  0.74973200  0.11728100  0.74961500  1
  Ca  Ca5  1  0.25026800  0.11728100  0.74961500  1
  Ca  Ca6  1  0.00000000  0.86076000  0.32475800  1
  Ca  Ca7  1  0.50000000  0.86548800  0.32170800  1
  Ca  Ca8  1  0.75020300  0.73164600  0.16476500  1
  Ca  Ca9  1  0.24979700  0.73164600  0.16476500  1
  Ca  Ca10  1  0.75106600  0.14118900  0.12872200  1
  Ca  Ca11  1  0.24893400  0.14118900  0.12872200  1
  Y  Y0  1  0.00000000  0.81420900  0.87550200  1
  Y  Y1  1  0.50000000  0.66407100  0.67652300  1
  Y  Y2  1  0.75053400  0.32971500  0.34224600  1
  Y  Y3  1  0.24946600  0.32971500  0.34224600  1
  Ga  Ga0  1  0.12855800  0.49188800  0.00787100  1
  Ga  Ga1  1  0.12568200  0.49595200  0.50876400  1
  Ga  Ga2  1  0.62593600  0.49782200  0.50753800  1
  Ga  Ga3  1  0.87431800  0.49595200  0.50876400  1
  Ga  Ga4  1  0.37406400  0.49782200  0.50753800  1
  Ga  Ga5  1  0.12719000  0.99595200  0.51473900  1
  Ga  Ga6  1  0.87281000  0.99595200  0.51473900  1
  Ga  Ga7  1  0.37375200  0.99803400  0.51427100  1
  Ga  Ga8  1  0.62624800  0.99803400  0.51427100  1
  Ga  Ga9  1  0.62611400  0.49477500  0.00943600  1
  Ga  Ga10  1  0.87144200  0.49188800  0.00787100  1
  Ga  Ga11  1  0.37388600  0.49477500  0.00943600  1
  B  B0  1  0.74723500  0.76877800  0.78288500  1
  B  B1  1  0.25276500  0.76877800  0.78288500  1
  B  B2  1  0.74903200  0.45372800  0.77783300  1
  B  B3  1  0.25096800  0.45372800  0.77783300  1
  B  B4  1  0.12528900  0.99558200  0.01132400  1
  B  B5  1  0.87471100  0.99558200  0.01132400  1
  B  B6  1  0.62991600  0.99467600  0.01484100  1
  B  B7  1  0.37008400  0.99467600  0.01484100  1
  B  B8  1  0.25061600  0.76616300  0.47490900  1
  B  B9  1  0.74938400  0.76616300  0.47490900  1
  B  B10  1  0.00000000  0.22149600  0.55643900  1
  B  B11  1  0.50000000  0.22334400  0.55588300  1
  B  B12  1  0.00000000  0.54103200  0.23765400  1
  B  B13  1  0.50000000  0.54089300  0.23728000  1
  B  B14  1  0.00000000  0.22338300  0.23819700  1
  B  B15  1  0.50000000  0.22407400  0.23578100  1
  O  O0  1  0.84879100  0.69842700  0.83550400  1
  O  O1  1  0.35390500  0.69497200  0.82875300  1
  O  O2  1  0.15120900  0.69842700  0.83550400  1
  O  O3  1  0.64609500  0.69497200  0.82875300  1
  O  O4  1  0.00000000  0.47628900  0.91367500  1
  O  O5  1  0.50000000  0.47594900  0.91027500  1
  O  O6  1  0.74806000  0.91785500  0.67965000  1
  O  O7  1  0.25194000  0.91785500  0.67965000  1
  O  O8  1  0.74940000  0.41332700  0.92621000  1
  O  O9  1  0.25060000  0.41332700  0.92621000  1
  O  O10  1  0.00000000  0.90174500  0.63604400  1
  O  O11  1  0.50000000  0.90000800  0.63194300  1
  O  O12  1  0.64665500  0.47735100  0.70721900  1
  O  O13  1  0.84997600  0.47061500  0.70839700  1
  O  O14  1  0.15002400  0.47061500  0.70839700  1
  O  O15  1  0.35334500  0.47735100  0.70721900  1
  O  O16  1  0.64720400  0.81266600  0.50059300  1
  O  O17  1  0.14956700  0.81754100  0.49504900  1
  O  O18  1  0.85043300  0.81754100  0.49504900  1
  O  O19  1  0.35279600  0.81266600  0.50059300  1
  O  O20  1  0.00000000  0.61503700  0.48107800  1
  O  O21  1  0.50000000  0.61735000  0.48583600  1
  O  O22  1  0.74951800  0.66272300  0.42837600  1
  O  O23  1  0.25048200  0.66272300  0.42837600  1
  O  O24  1  0.00000000  0.32942300  0.59573800  1
  O  O25  1  0.50000000  0.33191400  0.59417200  1
  O  O26  1  0.74946700  0.37395900  0.53184500  1
  O  O27  1  0.25053300  0.37395900  0.53184500  1
  O  O28  1  0.86678300  0.92980700  0.15914400  1
  O  O29  1  0.36376500  0.93974300  0.16202100  1
  O  O30  1  0.63623500  0.93974300  0.16202100  1
  O  O31  1  0.13321700  0.92980700  0.15914400  1
  O  O32  1  0.89674500  0.17136500  0.53881400  1
  O  O33  1  0.39699600  0.17240900  0.53883600  1
  O  O34  1  0.10325500  0.17136500  0.53881400  1
  O  O35  1  0.60300400  0.17240900  0.53883600  1
  O  O36  1  0.10297000  0.51959000  0.30637300  1
  O  O37  1  0.89703000  0.51959000  0.30637300  1
  O  O38  1  0.60280100  0.52346900  0.30600100  1
  O  O39  1  0.39719900  0.52346900  0.30600100  1
  O  O40  1  0.12756500  0.91048800  0.94581500  1
  O  O41  1  0.63786100  0.90202700  0.95957700  1
  O  O42  1  0.36213900  0.90202700  0.95957700  1
  O  O43  1  0.87243500  0.91048800  0.94581500  1
  O  O44  1  0.74954900  0.09388800  0.38817800  1
  O  O45  1  0.25045100  0.09388800  0.38817800  1
  O  O46  1  0.00000000  0.58732200  0.08814100  1
  O  O47  1  0.50000000  0.57889000  0.09058400  1
  O  O48  1  0.00000000  0.07707800  0.34876700  1
  O  O49  1  0.50000000  0.07856200  0.34735400  1
  O  O50  1  0.75000200  0.51993600  0.10790100  1
  O  O51  1  0.24999800  0.51993600  0.10790100  1
  O  O52  1  0.10284900  0.29196300  0.18576900  1
  O  O53  1  0.60291500  0.29231800  0.18309800  1
  O  O54  1  0.89715100  0.29196300  0.18576900  1
  O  O55  1  0.39708500  0.29231800  0.18309800  1
  O  O56  1  0.13372700  0.14282300  0.92617400  1
  O  O57  1  0.63469800  0.14251300  0.92253400  1
  O  O58  1  0.86627300  0.14282300  0.92617400  1
  O  O59  1  0.36530200  0.14251300  0.92253400  1
loop_
_geom_bond_atom_site_label_1
_geom_bond_atom_site_label_2
_geom_bond_distance
_geom_bond_site_symmetry_2
Ca0 O41 2.207349 1_555
Ca0 O42 2.207349 1_555
Ca0 O11 2.337720 1_555
Ca0 O3 2.430386 1_555
Ca0 O1 2.430386 1_555
Ca0 O47 2.446822 1_556
Ca1 O20 2.316042 1_555
Ca1 O4 2.338477 1_555
Ca1 O10 2.396149 1_555
Ca1 O18 2.524359 1_455
Ca1 O17 2.524359 1_555
Ca1 O13 2.583197 1_455
Ca1 O14 2.583197 1_555
Ca1 O2 2.675754 1_555
Ca1 O0 2.675754 1_455
Ca2 O56 2.217781 1_555
Ca2 O58 2.217781 1_455
Ca2 O4 2.317076 1_555
Ca2 O14 2.376429 1_555
Ca2 O13 2.376429 1_455
Ca2 O24 2.446021 1_555
Ca3 O57 2.194043 1_555
Ca3 O59 2.194043 1_555
Ca3 O5 2.322779 1_555
Ca3 O12 2.411973 1_555
Ca3 O15 2.411973 1_555
Ca3 O25 2.450725 1_555
Ca4 O57 2.418714 1_555
Ca4 O58 2.462301 1_555
Ca4 O26 2.555441 1_555
Ca4 O6 2.578353 1_545
Ca4 O43 2.602050 1_545
Ca4 O41 2.631782 1_545
Ca4 O35 2.672745 1_555
Ca4 O32 2.677387 1_555
Ca5 O59 2.418714 1_555
Ca5 O56 2.462301 1_555
Ca5 O27 2.555441 1_555
Ca5 O7 2.578353 1_545
Ca5 O40 2.602050 1_545
Ca5 O42 2.631782 1_545
Ca5 O33 2.672745 1_555
Ca5 O34 2.677387 1_555
Ca6 O31 2.211009 1_555
Ca6 O28 2.211009 1_455
Ca6 O20 2.296221 1_555
Ca6 O18 2.420304 1_455
Ca6 O17 2.420304 1_555
Ca6 O48 2.441247 1_565
Ca7 O29 2.195812 1_555
Ca7 O30 2.195812 1_555
Ca7 O21 2.330268 1_555
Ca7 O49 2.416962 1_565
Ca7 O19 2.442813 1_555
Ca7 O16 2.442813 1_555
Ca8 O41 2.431828 1_554
Ca8 O28 2.502433 1_555
Ca8 O22 2.526942 1_555
Ca8 O30 2.587083 1_555
Ca8 O43 2.601357 1_554
Ca8 O50 2.610393 1_555
Ca8 O38 2.634463 1_555
Ca8 O37 2.653695 1_555
Ca9 O42 2.431828 1_554
Ca9 O31 2.502433 1_555
Ca9 O23 2.526942 1_555
Ca9 O29 2.587083 1_555
Ca9 O40 2.601357 1_554
Ca9 O51 2.610393 1_555
Ca9 O39 2.634463 1_555
Ca9 O36 2.653695 1_555
Ca10 O30 2.417024 1_545
Ca10 O28 2.519264 1_545
Ca10 O58 2.552961 1_554
Ca10 O44 2.553776 1_555
Ca10 O57 2.594528 1_554
Ca10 O8 2.610953 1_554
Ca10 O54 2.637641 1_555
Ca10 O53 2.641672 1_555
Ca11 O29 2.417024 1_545
Ca11 O31 2.519264 1_545
Ca11 O56 2.552961 1_554
Ca11 O45 2.553776 1_555
Ca11 O59 2.594528 1_554
Ca11 O9 2.610953 1_554
Ca11 O52 2.637641 1_555
Ca11 O55 2.641672 1_555
Ga0 O4 1.885128 1_554
Ga0 O51 1.908570 1_555
Ga0 O52 2.048284 1_555
Ga0 O2 2.062755 1_554
Ga0 O9 2.074478 1_554
Ga0 O46 2.232490 1_555
Ga1 O20 1.888803 1_555
Ga1 O27 1.909294 1_555
Ga1 O14 2.029256 1_555
Ga1 O36 2.062702 1_555
Ga1 O23 2.141015 1_555
Ga1 O24 2.146979 1_555
Ga2 O21 1.906489 1_555
Ga2 O26 1.906677 1_555
Ga2 O12 2.044886 1_555
Ga2 O38 2.045941 1_555
Ga2 O22 2.118561 1_555
Ga2 O25 2.144994 1_555
Ga3 O20 1.888803 1_655
Ga3 O26 1.909294 1_555
Ga3 O13 2.029256 1_555
Ga3 O37 2.062702 1_555
Ga3 O22 2.141015 1_555
Ga3 O24 2.146979 1_655
Ga4 O21 1.906489 1_555
Ga4 O27 1.906677 1_555
Ga4 O15 2.044886 1_555
Ga4 O39 2.045941 1_555
Ga4 O23 2.118561 1_555
Ga4 O25 2.144994 1_555
Ga5 O45 1.914547 1_565
Ga5 O10 1.919783 1_555
Ga5 O34 2.028479 1_565
Ga5 O17 2.030374 1_555
Ga5 O7 2.130464 1_555
Ga5 O48 2.157440 1_565
Ga6 O44 1.914547 1_565
Ga6 O10 1.919783 1_655
Ga6 O32 2.028479 1_565
Ga6 O18 2.030374 1_555
Ga6 O6 2.130464 1_555
Ga6 O48 2.157440 1_665
Ga7 O11 1.903665 1_555
Ga7 O45 1.908571 1_565
Ga7 O33 2.019527 1_565
Ga7 O19 2.065674 1_555
Ga7 O7 2.108946 1_555
Ga7 O49 2.155934 1_565
Ga8 O11 1.903665 1_555
Ga8 O44 1.908571 1_565
Ga8 O35 2.019527 1_565
Ga8 O16 2.065674 1_555
Ga8 O6 2.108946 1_555
Ga8 O49 2.155934 1_565
Ga9 O5 1.905797 1_554
Ga9 O50 1.907377 1_555
Ga9 O53 2.042119 1_555
Ga9 O3 2.053177 1_554
Ga9 O8 2.114180 1_554
Ga9 O47 2.141635 1_555
Ga10 O4 1.885128 1_654
Ga10 O50 1.908570 1_555
Ga10 O54 2.048284 1_555
Ga10 O0 2.062755 1_554
Ga10 O8 2.074478 1_554
Ga10 O46 2.232490 1_655
Ga11 O5 1.905797 1_554
Ga11 O51 1.907377 1_555
Ga11 O55 2.042119 1_555
Ga11 O1 2.053177 1_554
Ga11 O9 2.114180 1_554
Ga11 O47 2.141635 1_555
B0 O0 1.386789 1_555
B0 O3 1.388484 1_555
B0 O6 1.410016 1_555
B1 O2 1.386789 1_555
B1 O1 1.388484 1_555
B1 O7 1.410016 1_555
B2 O13 1.377286 1_555
B2 O12 1.389925 1_555
B2 O8 1.417889 1_555
B3 O14 1.377286 1_555
B3 O15 1.389925 1_555
B3 O9 1.417889 1_555
B4 O56 1.368268 1_564
B4 O31 1.372397 1_555
B4 O40 1.393463 1_554
B5 O58 1.368268 1_564
B5 O28 1.372397 1_555
B5 O43 1.393463 1_554
B6 O30 1.376944 1_555
B6 O57 1.379874 1_564
B6 O41 1.382020 1_554
B7 O29 1.376944 1_555
B7 O59 1.379874 1_564
B7 O42 1.382020 1_554
B8 O17 1.383720 1_555
B8 O19 1.392931 1_555
B8 O23 1.415992 1_555
B9 O18 1.383720 1_555
B9 O16 1.392931 1_555
B9 O22 1.415992 1_555
B10 O32 1.391573 1_455
B10 O34 1.391573 1_555
B10 O24 1.406093 1_555
B11 O35 1.390797 1_555
B11 O33 1.390797 1_555
B11 O25 1.405134 1_555
B12 O37 1.389275 1_455
B12 O36 1.389275 1_555
B12 O46 1.414844 1_555
B13 O38 1.392391 1_555
B13 O39 1.392391 1_555
B13 O47 1.407215 1_555
B14 O52 1.393783 1_555
B14 O54 1.393783 1_455
B14 O48 1.408701 1_555
B15 O53 1.393709 1_555
B15 O55 1.393709 1_555
B15 O49 1.406039 1_555
O0 Y0 2.340520 1_655
O1 Y1 2.512554 1_555
O2 Y0 2.340520 1_555
O3 Y1 2.512554 1_555
O5 Y1 2.290225 1_555
O10 Y0 2.239802 1_555
O11 Y1 2.312041 1_555
O12 Y1 2.543406 1_555
O15 Y1 2.543406 1_555
O16 Y1 2.478563 1_555
O19 Y1 2.478563 1_555
O21 Y1 2.322508 1_555
O26 Y2 2.294035 1_555
O27 Y3 2.294035 1_555
O32 Y2 2.598281 1_555
O33 Y3 2.606270 1_555
O34 Y3 2.598281 1_555
O35 Y2 2.606270 1_555
O36 Y3 2.552220 1_555
O37 Y2 2.552220 1_555
O38 Y2 2.591026 1_555
O39 Y3 2.591026 1_555
O40 Y0 2.166719 1_555
O43 Y0 2.166719 1_655
O44 Y2 2.306108 1_555
O45 Y3 2.306108 1_555
O46 Y0 2.347951 1_554
O50 Y2 2.301825 1_555
O51 Y3 2.301825 1_555
O52 Y3 2.583315 1_555
O53 Y2 2.610239 1_555
O54 Y2 2.583315 1_555
O55 Y3 2.610239 1_555
