# generated using pymatgen
data_TlIn(MoO4)2
_symmetry_space_group_name_H-M   'P 1'
_cell_length_a   6.00829400
_cell_length_b   9.00103100
_cell_length_c   15.19631400
_cell_angle_alpha   90.00000000
_cell_angle_beta   90.00000000
_cell_angle_gamma   90.00000000
_symmetry_Int_Tables_number   1
_chemical_formula_structural   TlIn(MoO4)2
_chemical_formula_sum   'Tl4 In4 Mo8 O32'
_cell_volume   821.82943440
_cell_formula_units_Z   4
loop_
 _symmetry_equiv_pos_site_id
 _symmetry_equiv_pos_as_xyz
  1  'x, y, z'
loop_
 _atom_site_type_symbol
 _atom_site_label
 _atom_site_symmetry_multiplicity
 _atom_site_fract_x
 _atom_site_fract_y
 _atom_site_fract_z
 _atom_site_occupancy
  Tl  Tl0  1  0.75000000  0.94642500  0.87308100  1
  Tl  Tl1  1  0.25000000  0.44642500  0.62691900  1
  Tl  Tl2  1  0.75000000  0.55357500  0.37308100  1
  Tl  Tl3  1  0.25000000  0.05357500  0.12691900  1
  In  In0  1  0.25000000  0.30300900  0.89232300  1
  In  In1  1  0.75000000  0.80300900  0.60767700  1
  In  In2  1  0.75000000  0.69699100  0.10767700  1
  In  In3  1  0.25000000  0.19699100  0.39232300  1
  Mo  Mo0  1  0.75000000  0.21105100  0.53824600  1
  Mo  Mo1  1  0.25000000  0.49883200  0.21754200  1
  Mo  Mo2  1  0.25000000  0.71105100  0.96175400  1
  Mo  Mo3  1  0.75000000  0.99883200  0.28245800  1
  Mo  Mo4  1  0.75000000  0.28894900  0.03824600  1
  Mo  Mo5  1  0.75000000  0.50116800  0.78245800  1
  Mo  Mo6  1  0.25000000  0.78894900  0.46175400  1
  Mo  Mo7  1  0.25000000  0.00116800  0.71754200  1
  O  O0  1  0.50143000  0.60600600  0.19749300  1
  O  O1  1  0.75000000  0.59068900  0.67445300  1
  O  O2  1  0.25000000  0.35426000  0.14128000  1
  O  O3  1  0.49857000  0.10600600  0.30250700  1
  O  O4  1  0.75000000  0.85426000  0.35872000  1
  O  O5  1  0.25000000  0.98783300  0.46259600  1
  O  O6  1  0.00576000  0.71590700  0.51912200  1
  O  O7  1  0.75000000  0.48783300  0.03740400  1
  O  O8  1  0.25000000  0.51216700  0.96259600  1
  O  O9  1  0.99424000  0.28409300  0.48087800  1
  O  O10  1  0.00143000  0.10600600  0.30250700  1
  O  O11  1  0.00576000  0.78409300  0.01912200  1
  O  O12  1  0.75000000  0.64574000  0.85872000  1
  O  O13  1  0.50143000  0.89399400  0.69749300  1
  O  O14  1  0.25000000  0.09068900  0.82554700  1
  O  O15  1  0.75000000  0.90931100  0.17445300  1
  O  O16  1  0.99424000  0.21590700  0.98087800  1
  O  O17  1  0.25000000  0.71990500  0.35396400  1
  O  O18  1  0.49424000  0.78409300  0.01912200  1
  O  O19  1  0.25000000  0.14574000  0.64128000  1
  O  O20  1  0.49857000  0.39399400  0.80250700  1
  O  O21  1  0.00143000  0.39399400  0.80250700  1
  O  O22  1  0.75000000  0.28009500  0.64603600  1
  O  O23  1  0.99857000  0.89399400  0.69749300  1
  O  O24  1  0.75000000  0.21990500  0.14603600  1
  O  O25  1  0.75000000  0.01216700  0.53740400  1
  O  O26  1  0.50576000  0.28409300  0.48087800  1
  O  O27  1  0.25000000  0.78009500  0.85396400  1
  O  O28  1  0.25000000  0.40931100  0.32554700  1
  O  O29  1  0.99857000  0.60600600  0.19749300  1
  O  O30  1  0.49424000  0.71590700  0.51912200  1
  O  O31  1  0.50576000  0.21590700  0.98087800  1
loop_
_geom_bond_atom_site_label_1
_geom_bond_atom_site_label_2
_geom_bond_distance
_geom_bond_site_symmetry_2
In0 O14 2.163796 1_555
In0 O8 2.164420 1_555
In0 O20 2.182672 1_555
In0 O21 2.182672 1_555
In0 O16 2.187920 1_455
In0 O31 2.187920 1_555
In1 O1 2.163796 1_555
In1 O25 2.164420 1_565
In1 O13 2.182672 1_555
In1 O23 2.182672 1_555
In1 O6 2.187920 1_655
In1 O30 2.187920 1_555
In2 O15 2.163796 1_555
In2 O7 2.164420 1_555
In2 O0 2.182672 1_555
In2 O29 2.182672 1_555
In2 O18 2.187920 1_555
In2 O11 2.187920 1_655
In3 O28 2.163796 1_555
In3 O5 2.164420 1_545
In3 O10 2.182672 1_555
In3 O3 2.182672 1_555
In3 O9 2.187920 1_455
In3 O26 2.187920 1_555
Mo0 O22 1.751942 1_555
Mo0 O25 1.790207 1_555
Mo0 O26 1.829127 1_555
Mo0 O9 1.829127 1_555
Mo1 O2 1.742534 1_555
Mo1 O29 1.818113 1_455
Mo1 O0 1.818113 1_555
Mo1 O28 1.828408 1_555
Mo2 O27 1.751942 1_555
Mo2 O8 1.790207 1_555
Mo2 O18 1.829127 1_556
Mo2 O11 1.829127 1_556
Mo3 O4 1.742534 1_555
Mo3 O3 1.818113 1_565
Mo3 O10 1.818113 1_665
Mo3 O15 1.828408 1_555
Mo4 O24 1.751942 1_555
Mo4 O7 1.790207 1_555
Mo4 O31 1.829127 1_554
Mo4 O16 1.829127 1_554
Mo5 O12 1.742534 1_555
Mo5 O20 1.818113 1_555
Mo5 O21 1.818113 1_655
Mo5 O1 1.828408 1_555
Mo6 O17 1.751942 1_555
Mo6 O5 1.790207 1_555
Mo6 O6 1.829127 1_555
Mo6 O30 1.829127 1_555
Mo7 O19 1.742534 1_555
Mo7 O23 1.818113 1_445
Mo7 O13 1.818113 1_545
Mo7 O14 1.828408 1_555
O2 Tl3 2.715259 1_555
O4 Tl2 2.715259 1_555
O12 Tl0 2.715259 1_555
O19 Tl1 2.715259 1_555
