# generated using pymatgen
data_La2Ga12Ni
_symmetry_space_group_name_H-M   'P 1'
_cell_length_a   6.12305400
_cell_length_b   6.12305400
_cell_length_c   15.80341000
_cell_angle_alpha   90.00000000
_cell_angle_beta   90.00000000
_cell_angle_gamma   90.00000000
_symmetry_Int_Tables_number   1
_chemical_formula_structural   La2Ga12Ni
_chemical_formula_sum   'La4 Ga24 Ni2'
_cell_volume   592.49813354
_cell_formula_units_Z   2
loop_
 _symmetry_equiv_pos_site_id
 _symmetry_equiv_pos_as_xyz
  1  'x, y, z'
loop_
 _atom_site_type_symbol
 _atom_site_label
 _atom_site_symmetry_multiplicity
 _atom_site_fract_x
 _atom_site_fract_y
 _atom_site_fract_z
 _atom_site_occupancy
  La  La0  1  0.50000000  0.00000000  0.24425200  1
  La  La1  1  0.00000000  0.50000000  0.24425200  1
  La  La2  1  0.00000000  0.50000000  0.75574800  1
  La  La3  1  0.50000000  0.00000000  0.75574800  1
  Ga  Ga0  1  0.50000000  0.50000000  0.81923400  1
  Ga  Ga1  1  0.00000000  0.00000000  0.81923400  1
  Ga  Ga2  1  0.75038300  0.74961700  0.91710500  1
  Ga  Ga3  1  0.25038300  0.75038300  0.91710500  1
  Ga  Ga4  1  0.00000000  0.00000000  0.33878200  1
  Ga  Ga5  1  0.24961700  0.74961700  0.08289500  1
  Ga  Ga6  1  0.81744700  0.31744700  0.57245500  1
  Ga  Ga7  1  0.50000000  0.50000000  0.33878200  1
  Ga  Ga8  1  0.24961700  0.25038300  0.91710500  1
  Ga  Ga9  1  0.74961700  0.75038300  0.08289500  1
  Ga  Ga10  1  0.31744700  0.18255300  0.57245500  1
  Ga  Ga11  1  0.68255300  0.18255300  0.42754500  1
  Ga  Ga12  1  0.00000000  0.00000000  0.66121800  1
  Ga  Ga13  1  0.18255300  0.31744700  0.42754500  1
  Ga  Ga14  1  0.25038300  0.24961700  0.08289500  1
  Ga  Ga15  1  0.81744700  0.68255300  0.42754500  1
  Ga  Ga16  1  0.68255300  0.81744700  0.57245500  1
  Ga  Ga17  1  0.00000000  0.00000000  0.18076600  1
  Ga  Ga18  1  0.18255300  0.68255300  0.57245500  1
  Ga  Ga19  1  0.50000000  0.50000000  0.66121800  1
  Ga  Ga20  1  0.74961700  0.24961700  0.91710500  1
  Ga  Ga21  1  0.50000000  0.50000000  0.18076600  1
  Ga  Ga22  1  0.31744700  0.81744700  0.42754500  1
  Ga  Ga23  1  0.75038300  0.25038300  0.08289500  1
  Ni  Ni0  1  0.50000000  0.00000000  0.00000000  1
  Ni  Ni1  1  0.00000000  0.50000000  0.00000000  1
loop_
_geom_bond_atom_site_label_1
_geom_bond_atom_site_label_2
_geom_bond_distance
_geom_bond_site_symmetry_2
Ga0 Ga19 2.497192 1_555
Ga0 Ga2 2.660592 1_555
Ga0 Ga3 2.660592 1_555
Ga0 Ga20 2.660592 1_555
Ga0 Ga8 2.660592 1_555
Ga0 La2 3.221731 1_555
Ga0 La3 3.221731 1_565
Ga0 La3 3.221731 1_555
Ga0 La2 3.221731 1_655
Ga1 Ga12 2.497192 1_555
Ga1 Ga8 2.660592 1_555
Ga1 Ga20 2.660592 1_455
Ga1 Ga3 2.660592 1_545
Ga1 Ga2 2.660592 1_445
Ga1 La2 3.221731 1_555
Ga1 La2 3.221731 1_545
Ga1 La3 3.221731 1_455
Ga1 La3 3.221731 1_555
Ga2 Ni1 2.527506 1_656
Ga2 Ni0 2.533181 1_566
Ga2 Ga9 2.620056 1_556
Ga2 La2 3.342840 1_655
Ga2 La3 3.347133 1_565
Ga3 Ni0 2.527506 1_566
Ga3 Ni1 2.533181 1_556
Ga3 Ga5 2.620056 1_556
Ga3 La3 3.342840 1_565
Ga3 La2 3.347133 1_555
Ga4 La0 3.406563 1_455
Ga4 La0 3.406563 1_555
Ga4 La1 3.406563 1_555
Ga4 La1 3.406563 1_545
Ga5 Ni1 2.527506 1_555
Ga5 Ni0 2.533181 1_565
Ga5 La1 3.342840 1_555
Ga5 La0 3.347133 1_565
Ga6 La2 3.299921 1_655
Ga7 La0 3.406563 1_555
Ga7 La1 3.406563 1_555
Ga7 La1 3.406563 1_655
Ga7 La0 3.406563 1_565
Ga8 Ni1 2.527506 1_556
Ga8 Ni0 2.533181 1_556
Ga8 La2 3.342840 1_555
Ga8 La3 3.347133 1_555
Ga9 Ni0 2.527506 1_565
Ga9 Ni1 2.533181 1_655
Ga9 La0 3.342840 1_565
Ga9 La1 3.347133 1_655
Ga10 Ga13 2.570771 1_555
Ga10 Ga12 2.644865 1_555
Ga10 Ga19 2.644865 1_555
Ga10 La3 3.299921 1_555
Ga11 Ga6 2.570771 1_555
Ga11 Ga4 2.644865 1_655
Ga11 Ga7 2.644865 1_555
Ga11 La0 3.299921 1_555
Ga12 Ga18 2.644865 1_545
Ga12 Ga6 2.644865 1_455
Ga12 Ga16 2.644865 1_445
Ga12 La2 3.406563 1_555
Ga12 La2 3.406563 1_545
Ga12 La3 3.406563 1_455
Ga12 La3 3.406563 1_555
Ga13 Ga4 2.644865 1_555
Ga13 Ga7 2.644865 1_555
Ga13 La1 3.299921 1_555
Ga14 Ni0 2.527506 1_555
Ga14 Ni1 2.533181 1_555
Ga14 Ga8 2.620056 1_554
Ga14 Ga17 2.660592 1_555
Ga14 Ga21 2.660592 1_555
Ga14 La0 3.342840 1_555
Ga14 La1 3.347133 1_555
Ga15 Ga16 2.570771 1_555
Ga15 Ga7 2.644865 1_555
Ga15 Ga4 2.644865 1_665
Ga15 La1 3.299921 1_655
Ga16 Ga19 2.644865 1_555
Ga16 La3 3.299921 1_565
Ga17 Ga4 2.497192 1_555
Ga17 Ga5 2.660592 1_545
Ga17 Ga23 2.660592 1_455
Ga17 Ga9 2.660592 1_445
Ga17 La1 3.221731 1_555
Ga17 La1 3.221731 1_545
Ga17 La0 3.221731 1_455
Ga17 La0 3.221731 1_555
Ga18 Ga22 2.570771 1_555
Ga18 Ga19 2.644865 1_555
Ga18 La2 3.299921 1_555
Ga19 Ga6 2.644865 1_555
Ga19 La3 3.406563 1_565
Ga19 La2 3.406563 1_555
Ga19 La3 3.406563 1_555
Ga19 La2 3.406563 1_655
Ga20 Ni0 2.527506 1_556
Ga20 Ni1 2.533181 1_656
Ga20 Ga23 2.620056 1_556
Ga20 La3 3.342840 1_555
Ga20 La2 3.347133 1_655
Ga21 Ga7 2.497192 1_555
Ga21 Ga9 2.660592 1_555
Ga21 Ga23 2.660592 1_555
Ga21 Ga5 2.660592 1_555
Ga21 La1 3.221731 1_555
Ga21 La1 3.221731 1_655
Ga21 La0 3.221731 1_565
Ga21 La0 3.221731 1_555
Ga22 Ga7 2.644865 1_555
Ga22 Ga4 2.644865 1_565
Ga22 La0 3.299921 1_565
Ga23 Ni1 2.527506 1_655
Ga23 Ni0 2.533181 1_555
Ga23 La1 3.342840 1_655
Ga23 La0 3.347133 1_555
