# generated using pymatgen
data_Y10U4O27
_symmetry_space_group_name_H-M   'P 1'
_cell_length_a   6.50747570
_cell_length_b   6.53550687
_cell_length_c   13.00283988
_cell_angle_alpha   99.09260724
_cell_angle_beta   99.30838186
_cell_angle_gamma   99.60360527
_symmetry_Int_Tables_number   1
_chemical_formula_structural   Y10U4O27
_chemical_formula_sum   'Y10 U4 O27'
_cell_volume   528.25922033
_cell_formula_units_Z   1
loop_
 _symmetry_equiv_pos_site_id
 _symmetry_equiv_pos_as_xyz
  1  'x, y, z'
loop_
 _atom_site_type_symbol
 _atom_site_label
 _atom_site_symmetry_multiplicity
 _atom_site_fract_x
 _atom_site_fract_y
 _atom_site_fract_z
 _atom_site_occupancy
  Y  Y0  1  0.69666817  0.84949548  0.21073165  1
  Y  Y1  1  0.14003724  0.56951629  0.14153987  1
  Y  Y2  1  0.70279619  0.85745637  0.71326291  1
  Y  Y3  1  0.42256051  0.70401040  0.43023390  1
  Y  Y4  1  0.14702336  0.60845939  0.64851001  1
  Y  Y5  1  0.57091847  0.28663768  0.07199481  1
  Y  Y6  1  0.60771685  0.30574157  0.57719598  1
  Y  Y7  1  0.28550735  0.13091246  0.28238581  1
  Y  Y8  1  0.85460702  0.42507196  0.84942365  1
  Y  Y9  1  0.30092882  0.14752292  0.79985095  1
  U  U0  1  0.98351320  0.98621463  0.49061370  1
  U  U1  1  0.99719865  0.00640036  0.00087963  1
  U  U2  1  0.42742448  0.70447247  0.92782751  1
  U  U3  1  0.85252362  0.42147385  0.34920917  1
  O  O0  1  0.02157776  0.89655578  0.14423145  1
  O  O1  1  0.66930268  0.95709244  0.04390796  1
  O  O2  1  0.07303326  0.95205796  0.64880016  1
  O  O3  1  0.37730738  0.81779007  0.27255037  1
  O  O4  1  0.69210478  0.95665911  0.54175409  1
  O  O5  1  0.07698252  0.67630248  0.47475990  1
  O  O6  1  0.45526468  0.61408302  0.07917489  1
  O  O7  1  0.39714327  0.82173998  0.78341535  1
  O  O8  1  0.74909943  0.73356118  0.37122206  1
  O  O9  1  0.82095873  0.53372961  0.20158361  1
  O  O10  1  0.11078081  0.68302662  0.97294981  1
  O  O11  1  0.44603392  0.58826362  0.58882638  1
  O  O12  1  0.74306453  0.75162198  0.88386752  1
  O  O13  1  0.15154607  0.44543694  0.31060877  1
  O  O14  1  0.83571720  0.56266670  0.69629272  1
  O  O15  1  0.24424318  0.24406198  0.12375580  1
  O  O16  1  0.56840025  0.38405468  0.40667946  1
  O  O17  1  0.89811855  0.30300065  0.01728187  1
  O  O18  1  0.19597488  0.45990259  0.79991364  1
  O  O19  1  0.62465314  0.18562805  0.23476043  1
  O  O20  1  0.53790927  0.40749496  0.91506301  1
  O  O21  1  0.93918145  0.30868261  0.52244468  1
  O  O22  1  0.29463725  0.05998183  0.47262618  1
  O  O23  1  0.59162090  0.18216647  0.72442859  1
  O  O24  1  0.95104266  0.09014835  0.34074992  1
  O  O25  1  0.31496812  0.02597547  0.95381953  1
  O  O26  1  0.96490938  0.08992807  0.84837130  1
loop_
_geom_bond_atom_site_label_1
_geom_bond_atom_site_label_2
_geom_bond_distance
_geom_bond_site_symmetry_2
O0 U1 2.092900 1_465
O0 Y1 2.387185 1_555
O0 Y0 2.402340 1_455
O0 Y7 2.403617 1_565
O1 U2 2.249062 1_554
O1 U1 2.276758 1_565
O1 Y5 2.338593 1_565
O1 Y0 2.372864 1_555
O2 U0 2.102573 1_455
O2 Y9 2.306838 1_565
O2 Y4 2.373436 1_555
O2 Y2 2.685082 1_455
O3 Y7 2.216063 1_565
O3 Y3 2.281045 1_555
O3 Y1 2.314809 1_555
O3 Y0 2.336124 1_555
O4 U0 2.098067 1_555
O4 Y3 2.315145 1_555
O4 Y2 2.412546 1_555
O4 Y6 2.426204 1_565
O5 U0 2.198749 1_455
O5 U3 2.264932 1_455
O5 Y4 2.357847 1_555
O5 Y3 2.396607 1_555
O6 U2 2.131295 1_554
O6 Y0 2.292059 1_555
O6 Y1 2.315994 1_555
O6 Y5 2.377355 1_555
O7 U2 2.130202 1_555
O7 Y4 2.283814 1_555
O7 Y9 2.305487 1_565
O7 Y2 2.311302 1_555
O8 U3 2.242966 1_555
O8 U0 2.246512 1_555
O8 Y0 2.324014 1_555
O8 Y3 2.361957 1_555
O9 U3 2.152427 1_555
O9 Y1 2.322881 1_655
O9 Y0 2.331871 1_555
O9 Y5 2.339007 1_555
O10 U2 2.220467 1_555
O10 U1 2.347377 1_466
O10 Y8 2.353991 1_455
O10 Y1 2.412096 1_556
O11 Y4 2.224332 1_555
O11 Y6 2.269493 1_555
O11 Y3 2.297332 1_555
O11 Y2 2.397895 1_555
O12 U2 2.205670 1_555
O12 U1 2.299774 1_566
O12 Y8 2.366872 1_555
O12 Y2 2.413613 1_555
O13 U3 2.074129 1_455
O13 Y7 2.362835 1_555
O13 Y3 2.381798 1_555
O13 Y1 2.454895 1_555
O14 Y4 2.200723 1_655
O14 Y2 2.234298 1_555
O14 Y6 2.241121 1_555
O14 Y8 2.304780 1_555
O15 U1 2.258619 1_455
O15 Y7 2.289674 1_555
O15 Y5 2.318241 1_555
O15 Y1 2.326804 1_555
O16 U3 2.095378 1_555
O16 Y6 2.337142 1_555
O16 Y7 2.431931 1_555
O16 Y3 2.433281 1_555
O17 U1 2.132971 1_555
O17 Y5 2.342937 1_555
O17 Y1 2.344255 1_655
O17 Y8 2.430298 1_554
O18 Y9 2.258170 1_555
O18 U2 2.266234 1_555
O18 Y4 2.328999 1_555
O18 Y8 2.396099 1_455
O19 U3 2.141924 1_555
O19 Y5 2.305750 1_555
O19 Y0 2.305882 1_545
O19 Y7 2.372957 1_555
O20 U2 2.171166 1_555
O20 Y9 2.254582 1_555
O20 Y5 2.293063 1_556
O20 Y8 2.347338 1_555
O21 U0 2.159132 1_545
O21 Y6 2.376363 1_555
O21 Y4 2.395487 1_655
O21 U3 2.487565 1_555
O22 U0 2.061410 1_445
O22 Y6 2.429225 1_555
O22 Y7 2.580992 1_555
O22 Y3 2.607401 1_545
O23 Y6 2.203098 1_555
O23 Y9 2.262494 1_555
O23 Y8 2.338541 1_555
O23 Y2 2.344539 1_545
O24 U0 2.153216 1_545
O24 Y0 2.336142 1_545
O24 U3 2.350049 1_555
O24 Y7 2.406016 1_655
O25 U1 2.238914 1_456
O25 Y9 2.261679 1_555
O25 U2 2.330958 1_545
O25 Y5 2.331404 1_556
O26 U1 2.126084 1_556
O26 Y9 2.359623 1_655
O26 Y2 2.372000 1_545
O26 Y8 2.414801 1_555
