# generated using pymatgen
data_CrP2H15N2O11
_symmetry_space_group_name_H-M   'P 1'
_cell_length_a   9.04120493
_cell_length_b   9.04120493
_cell_length_c   7.53413447
_cell_angle_alpha   78.55018053
_cell_angle_beta   78.55018053
_cell_angle_gamma   85.25836052
_symmetry_Int_Tables_number   1
_chemical_formula_structural   CrP2H15N2O11
_chemical_formula_sum   'Cr2 P4 H30 N4 O22'
_cell_volume   590.99669279
_cell_formula_units_Z   2
loop_
 _symmetry_equiv_pos_site_id
 _symmetry_equiv_pos_as_xyz
  1  'x, y, z'
loop_
 _atom_site_type_symbol
 _atom_site_label
 _atom_site_symmetry_multiplicity
 _atom_site_fract_x
 _atom_site_fract_y
 _atom_site_fract_z
 _atom_site_occupancy
  Cr  Cr0  1  0.22043400  0.22043400  0.21672000  1
  Cr  Cr1  1  0.77956600  0.77956600  0.78328100  1
  P  P0  1  0.24714600  0.49254200  0.85406400  1
  P  P1  1  0.49254200  0.24714600  0.85406400  1
  P  P2  1  0.75285400  0.50745800  0.14593600  1
  P  P3  1  0.50745800  0.75285400  0.14593600  1
  H  H0  1  0.32644600  0.67355400  0.00000000  1
  H  H1  1  0.67355400  0.32644600  0.00000000  1
  H  H2  1  0.96094500  0.35729300  0.33083400  1
  H  H3  1  0.35729300  0.96094500  0.33083400  1
  H  H4  1  0.03905500  0.64270700  0.66916600  1
  H  H5  1  0.64270700  0.03905500  0.66916600  1
  H  H6  1  0.00249400  0.24918100  0.51471700  1
  H  H7  1  0.24918100  0.00249400  0.51471700  1
  H  H8  1  0.99750600  0.75081900  0.48528300  1
  H  H9  1  0.75081900  0.99750600  0.48528300  1
  H  H10  1  0.40501700  0.40501700  0.29085300  1
  H  H11  1  0.59498300  0.59498300  0.70914700  1
  H  H12  1  0.25522700  0.38952800  0.45666500  1
  H  H13  1  0.38952800  0.25522700  0.45666500  1
  H  H14  1  0.74477300  0.61047200  0.54333500  1
  H  H15  1  0.61047200  0.74477300  0.54333500  1
  H  H16  1  0.03187300  0.03187300  0.18694100  1
  H  H17  1  0.96812700  0.96812700  0.81305900  1
  H  H18  1  0.03509000  0.16865100  0.00337200  1
  H  H19  1  0.16865100  0.03509000  0.00337200  1
  H  H20  1  0.96491000  0.83134900  0.99662800  1
  H  H21  1  0.83134900  0.96491000  0.99662800  1
  H  H22  1  0.85880200  0.27933500  0.76771800  1
  H  H23  1  0.27933500  0.85880200  0.76771800  1
  H  H24  1  0.14119800  0.72066500  0.23228200  1
  H  H25  1  0.72066500  0.14119800  0.23228200  1
  H  H26  1  0.02244400  0.34638000  0.73962700  1
  H  H27  1  0.34638000  0.02244400  0.73962700  1
  H  H28  1  0.97755600  0.65362000  0.26037300  1
  H  H29  1  0.65362000  0.97755600  0.26037300  1
  N  N0  1  0.32992100  0.32992100  0.37257500  1
  N  N1  1  0.67007900  0.67007900  0.62742500  1
  N  N2  1  0.10103500  0.10103500  0.08555900  1
  N  N3  1  0.89896500  0.89896500  0.91444100  1
  O  O0  1  0.18358700  0.41106400  0.04945500  1
  O  O1  1  0.41106400  0.18358700  0.04945500  1
  O  O2  1  0.81641300  0.58893600  0.95054500  1
  O  O3  1  0.58893600  0.81641300  0.95054500  1
  O  O4  1  0.29238200  0.65303500  0.85956000  1
  O  O5  1  0.65303500  0.29238200  0.85956000  1
  O  O6  1  0.70761800  0.34696500  0.14044000  1
  O  O7  1  0.34696500  0.70761800  0.14044000  1
  O  O8  1  0.14696100  0.49378600  0.71445300  1
  O  O9  1  0.49378600  0.14696100  0.71445300  1
  O  O10  1  0.85303900  0.50621400  0.28554700  1
  O  O11  1  0.50621400  0.85303900  0.28554700  1
  O  O12  1  0.40651400  0.40651400  0.77921400  1
  O  O13  1  0.59348600  0.59348600  0.22078600  1
  O  O14  1  0.01964600  0.26125000  0.37600500  1
  O  O15  1  0.26125000  0.01964600  0.37600500  1
  O  O16  1  0.98035400  0.73875000  0.62399500  1
  O  O17  1  0.73875000  0.98035400  0.62399500  1
  O  O18  1  0.96826800  0.25626200  0.73354500  1
  O  O19  1  0.25626200  0.96826800  0.73354500  1
  O  O20  1  0.03173200  0.74373800  0.26645500  1
  O  O21  1  0.74373800  0.03173200  0.26645500  1
loop_
_geom_bond_atom_site_label_1
_geom_bond_atom_site_label_2
_geom_bond_distance
_geom_bond_site_symmetry_2
Cr0 O0 1.969531 1_555
Cr0 O1 1.969531 1_555
Cr0 O15 2.017931 1_555
Cr0 O14 2.017931 1_555
Cr0 N2 2.084923 1_555
Cr0 N0 2.103228 1_555
Cr1 O3 1.969527 1_555
Cr1 O2 1.969527 1_555
Cr1 O17 2.017934 1_555
Cr1 O16 2.017934 1_555
Cr1 N3 2.084918 1_555
Cr1 N1 2.103234 1_555
H0 O4 1.210614 1_554
H0 O7 1.210614 1_555
H1 O5 1.210614 1_554
H1 O6 1.210614 1_555
H2 O14 1.014745 1_655
H2 O10 1.616686 1_555
H3 O15 1.014745 1_565
H3 O11 1.616686 1_555
H4 O16 1.014745 1_455
H4 O8 1.616686 1_555
H5 O17 1.014745 1_545
H5 O9 1.616686 1_555
H6 O14 1.010602 1_555
H6 O18 1.629135 1_455
H7 O15 1.010602 1_555
H7 O19 1.629135 1_545
H8 O16 1.010602 1_555
H8 O20 1.629135 1_655
H9 O17 1.010602 1_555
H9 O21 1.629135 1_565
H10 N0 1.022416 1_555
H11 N1 1.022416 1_555
H12 N0 1.026351 1_555
H13 N0 1.026351 1_555
H14 N1 1.026351 1_555
H15 N1 1.026351 1_555
H16 N2 1.025105 1_555
H17 N3 1.025105 1_555
H18 N2 1.024036 1_555
H19 N2 1.024036 1_555
H20 N3 1.024036 1_555
H21 N3 1.024036 1_555
H22 O18 0.987595 1_555
H23 O19 0.987595 1_555
H24 O20 0.987595 1_555
H25 O21 0.987595 1_555
H26 O18 0.997794 1_455
H27 O19 0.997794 1_545
H28 O20 0.997794 1_655
H29 O21 0.997794 1_565
O0 P0 1.530869 1_554
O1 P1 1.530869 1_554
O2 P2 1.530869 1_556
O3 P3 1.530869 1_556
O4 P0 1.550234 1_555
O5 P1 1.550234 1_555
O6 P2 1.550234 1_555
O7 P3 1.550234 1_555
O8 P0 1.516197 1_555
O9 P1 1.516197 1_555
O10 P2 1.516197 1_555
O11 P3 1.516197 1_555
O12 P1 1.632598 1_555
O12 P0 1.632598 1_555
O13 P2 1.632598 1_555
O13 P3 1.632598 1_555
