# generated using pymatgen
data_Ba4NaCu(CO5)2
_symmetry_space_group_name_H-M   'P 1'
_cell_length_a   8.87900106
_cell_length_b   8.87900106
_cell_length_c   8.87900106
_cell_angle_alpha   141.12061711
_cell_angle_beta   141.12061711
_cell_angle_gamma   56.15568801
_symmetry_Int_Tables_number   1
_chemical_formula_structural   Ba4NaCu(CO5)2
_chemical_formula_sum   'Ba4 Na1 Cu1 C2 O10'
_cell_volume   273.63861571
_cell_formula_units_Z   1
loop_
 _symmetry_equiv_pos_site_id
 _symmetry_equiv_pos_as_xyz
  1  'x, y, z'
loop_
 _atom_site_type_symbol
 _atom_site_label
 _atom_site_symmetry_multiplicity
 _atom_site_fract_x
 _atom_site_fract_y
 _atom_site_fract_z
 _atom_site_occupancy
  Ba  Ba0  1  0.11694400  0.61694400  0.50000000  1
  Ba  Ba1  1  0.38305600  0.88305600  0.50000000  1
  Ba  Ba2  1  0.88305600  0.38305600  0.50000000  1
  Ba  Ba3  1  0.61694400  0.11694400  0.50000000  1
  Na  Na0  1  0.00000000  0.00000000  0.00000000  1
  Cu  Cu0  1  0.50000000  0.50000000  0.00000000  1
  C  C0  1  0.23352500  0.23352500  0.00000000  1
  C  C1  1  0.76647500  0.76647500  0.00000000  1
  O  O0  1  0.59059200  0.59059200  0.72792100  1
  O  O1  1  0.13733000  0.40940800  0.00000000  1
  O  O2  1  0.85037000  0.85037000  0.00000000  1
  O  O3  1  0.14963000  0.14963000  0.00000000  1
  O  O4  1  0.40940800  0.13733000  0.00000000  1
  O  O5  1  0.86267000  0.86267000  0.27207900  1
  O  O6  1  0.72055300  0.72055300  0.44668000  1
  O  O7  1  0.27944700  0.72612600  0.00000000  1
  O  O8  1  0.72612600  0.27944700  0.00000000  1
  O  O9  1  0.27387400  0.27387400  0.55332000  1
loop_
_geom_bond_atom_site_label_1
_geom_bond_atom_site_label_2
_geom_bond_distance
_geom_bond_site_symmetry_2
Ba0 O7 2.759533 1_556
Ba0 O8 2.759533 1_455
Ba0 O9 2.816909 1_555
Ba0 O6 2.816919 1_455
Ba0 O5 2.868265 1_455
Ba0 O0 2.868274 1_555
Ba0 O3 2.999109 1_566
Ba0 O3 2.999109 1_555
Ba0 O4 3.358607 1_566
Ba0 O1 3.358607 1_555
Ba1 O6 2.759528 1_555
Ba1 O9 2.759538 1_565
Ba1 O8 2.816914 1_566
Ba1 O7 2.816914 1_555
Ba1 O1 2.868271 1_555
Ba1 O4 2.868271 1_566
Ba1 O2 2.999109 1_556
Ba1 O2 2.999109 1_455
Ba1 O0 3.358600 1_555
Ba1 O5 3.358611 1_455
Ba2 O6 2.759528 1_555
Ba2 O9 2.759538 1_655
Ba2 O8 2.816914 1_555
Ba2 O7 2.816914 1_656
Ba2 O4 2.868271 1_555
Ba2 O1 2.868271 1_656
Ba2 O2 2.999109 1_556
Ba2 O2 2.999109 1_545
Ba2 O0 3.358600 1_555
Ba2 O5 3.358611 1_545
Ba3 O8 2.759533 1_556
Ba3 O7 2.759533 1_545
Ba3 O9 2.816909 1_555
Ba3 O6 2.816919 1_545
Ba3 O5 2.868265 1_545
Ba3 O0 2.868274 1_555
Ba3 O3 2.999109 1_656
Ba3 O3 2.999109 1_555
Ba3 O1 3.358607 1_656
Ba3 O4 3.358607 1_555
Na0 O9 2.312784 1_555
Na0 O6 2.312784 1_444
Na0 O8 2.312788 1_455
Na0 O7 2.312788 1_545
Na0 O3 2.344409 1_555
Na0 O2 2.344409 1_445
Cu0 O8 1.867220 1_555
Cu0 O7 1.867220 1_555
Cu0 O9 1.867224 1_554
Cu0 O6 1.867225 1_555
C0 O4 1.297142 1_555
C0 O1 1.297142 1_555
C0 O3 1.314471 1_555
C1 O0 1.297142 1_554
C1 O5 1.297149 1_555
C1 O2 1.314471 1_555
