# generated using pymatgen
data_Yb2In8Ir
_symmetry_space_group_name_H-M   'P 1'
_cell_length_a   4.60247988
_cell_length_b   4.60247988
_cell_length_c   11.99936216
_cell_angle_alpha   90.00000000
_cell_angle_beta   90.00000000
_cell_angle_gamma   90.00000000
_symmetry_Int_Tables_number   1
_chemical_formula_structural   Yb2In8Ir
_chemical_formula_sum   'Yb2 In8 Ir1'
_cell_volume   254.18034100
_cell_formula_units_Z   1
loop_
 _symmetry_equiv_pos_site_id
 _symmetry_equiv_pos_as_xyz
  1  'x, y, z'
loop_
 _atom_site_type_symbol
 _atom_site_label
 _atom_site_symmetry_multiplicity
 _atom_site_fract_x
 _atom_site_fract_y
 _atom_site_fract_z
 _atom_site_occupancy
  Yb  Yb0  1  0.50000000  0.50000000  0.19210207  1
  Yb  Yb1  1  0.50000000  0.50000000  0.80789793  1
  In  In0  1  0.00000000  0.50000000  0.62472300  1
  In  In1  1  0.00000000  0.00000000  0.19020277  1
  In  In2  1  0.00000000  0.50000000  0.37527700  1
  In  In3  1  0.50000000  0.00000000  0.62472300  1
  In  In4  1  0.00000000  0.00000000  0.80979723  1
  In  In5  1  0.50000000  0.00000000  0.37527700  1
  In  In6  1  0.00000000  0.50000000  0.00000000  1
  In  In7  1  0.50000000  0.00000000  0.00000000  1
  Ir  Ir0  1  0.50000000  0.50000000  0.50000000  1
loop_
_geom_bond_atom_site_label_1
_geom_bond_atom_site_label_2
_geom_bond_distance
_geom_bond_site_symmetry_2
In0 Ir0 2.745088 1_455
In0 Ir0 2.745088 1_555
In0 Yb1 3.182268 1_455
In0 Yb1 3.182268 1_555
In0 In4 3.198052 1_555
In0 In4 3.198052 1_565
In1 In2 3.198052 1_555
In1 In5 3.198052 1_455
In1 In5 3.198052 1_555
In1 In2 3.198052 1_545
In1 In6 3.241088 1_545
In1 In7 3.241088 1_555
In1 In6 3.241088 1_555
In1 In7 3.241088 1_455
In1 Yb0 3.254525 1_455
In1 Yb0 3.254525 1_545
In1 Yb0 3.254525 1_555
In1 Yb0 3.254525 1_445
In2 Ir0 2.745088 1_555
In2 Ir0 2.745088 1_455
In2 Yb0 3.182268 1_455
In2 Yb0 3.182268 1_555
In3 Ir0 2.745088 1_545
In3 Ir0 2.745088 1_555
In3 Yb1 3.182268 1_545
In3 Yb1 3.182268 1_555
In3 In4 3.198052 1_555
In3 In4 3.198052 1_655
In4 In7 3.241088 1_556
In4 In6 3.241088 1_556
In4 In6 3.241088 1_546
In4 In7 3.241088 1_456
In4 Yb1 3.254525 1_445
In4 Yb1 3.254525 1_455
In4 Yb1 3.254525 1_545
In4 Yb1 3.254525 1_555
In5 Ir0 2.745088 1_555
In5 Ir0 2.745088 1_545
In5 Yb0 3.182268 1_545
In5 Yb0 3.182268 1_555
In6 In7 3.254445 1_455
In6 In7 3.254445 1_555
In6 In7 3.254445 1_565
In6 In7 3.254445 1_465
In6 Yb0 3.257177 1_455
In6 Yb0 3.257177 1_555
In6 Yb1 3.257177 1_454
In6 Yb1 3.257177 1_554
In7 Yb0 3.257177 1_545
In7 Yb0 3.257177 1_555
In7 Yb1 3.257177 1_544
In7 Yb1 3.257177 1_554
