# generated using pymatgen
data_UGa
_symmetry_space_group_name_H-M   'P 1'
_cell_length_a   5.42065700
_cell_length_b   5.44644500
_cell_length_c   6.04471896
_cell_angle_alpha   90.00000000
_cell_angle_beta   116.63977172
_cell_angle_gamma   90.00000000
_symmetry_Int_Tables_number   1
_chemical_formula_structural   UGa
_chemical_formula_sum   'U4 Ga4'
_cell_volume   159.51536031
_cell_formula_units_Z   4
loop_
 _symmetry_equiv_pos_site_id
 _symmetry_equiv_pos_as_xyz
  1  'x, y, z'
loop_
 _atom_site_type_symbol
 _atom_site_label
 _atom_site_symmetry_multiplicity
 _atom_site_fract_x
 _atom_site_fract_y
 _atom_site_fract_z
 _atom_site_occupancy
  U  U0  1  0.00000000  0.00000000  0.00000000  1
  U  U1  1  0.00000000  0.50000000  0.00000000  1
  U  U2  1  0.76478000  0.00000000  0.52956000  1
  U  U3  1  0.23522000  0.00000000  0.47044000  1
  Ga  Ga0  1  0.50000000  0.74689300  0.00000000  1
  Ga  Ga1  1  0.50000000  0.25310700  0.00000000  1
  Ga  Ga2  1  0.00000000  0.50000000  0.50000000  1
  Ga  Ga3  1  0.50000000  0.50000000  0.50000000  1
loop_
_geom_bond_atom_site_label_1
_geom_bond_atom_site_label_2
_geom_bond_distance
_geom_bond_site_symmetry_2
U0 U3 2.541802 1_555
U0 U2 2.541802 1_454
U0 U1 2.723222 1_545
U0 U1 2.723222 1_555
U2 U3 2.729087 1_555
U2 U3 2.729087 1_655
Ga0 Ga1 2.689378 1_555
Ga0 Ga1 2.757067 1_565
Ga0 U1 3.025569 1_555
Ga0 U1 3.025569 1_655
Ga0 U0 3.040762 1_665
Ga0 U0 3.040762 1_565
Ga0 U2 3.176002 1_565
Ga0 U3 3.176002 1_564
Ga1 U1 3.025569 1_555
Ga1 U1 3.025569 1_655
Ga1 U0 3.040762 1_655
Ga1 U0 3.040762 1_555
Ga1 U2 3.176002 1_555
Ga1 U3 3.176002 1_554
Ga2 Ga3 2.710329 1_555
Ga2 Ga3 2.710329 1_455
Ga2 U1 3.022359 1_556
Ga2 U1 3.022359 1_555
Ga2 U2 3.045968 1_455
Ga2 U3 3.045968 1_565
Ga2 U3 3.045968 1_555
Ga2 U2 3.045968 1_465
Ga3 U1 3.022359 1_555
Ga3 U1 3.022359 1_656
Ga3 U3 3.045968 1_565
Ga3 U2 3.045968 1_555
Ga3 U3 3.045968 1_555
Ga3 U2 3.045968 1_565
