# generated using pymatgen
data_K2H2C3S2O7F6
_symmetry_space_group_name_H-M   'P 1'
_cell_length_a   11.13459100
_cell_length_b   6.05300000
_cell_length_c   17.94625902
_cell_angle_alpha   79.92692355
_cell_angle_beta   90.00000000
_cell_angle_gamma   90.00000000
_symmetry_Int_Tables_number   1
_chemical_formula_structural   K2H2C3S2O7F6
_chemical_formula_sum   'K8 H8 C12 S8 O28 F24'
_cell_volume   1190.89178691
_cell_formula_units_Z   4
loop_
 _symmetry_equiv_pos_site_id
 _symmetry_equiv_pos_as_xyz
  1  'x, y, z'
loop_
 _atom_site_type_symbol
 _atom_site_label
 _atom_site_symmetry_multiplicity
 _atom_site_fract_x
 _atom_site_fract_y
 _atom_site_fract_z
 _atom_site_occupancy
  K  K0  1  0.59092600  0.86972800  0.84865700  1
  K  K1  1  0.90907400  0.86972800  0.34865700  1
  K  K2  1  0.40907400  0.13027200  0.15134300  1
  K  K3  1  0.09092600  0.13027200  0.65134300  1
  K  K4  1  0.81735000  0.69913200  0.61901600  1
  K  K5  1  0.68265000  0.69913200  0.11901600  1
  K  K6  1  0.18265000  0.30086800  0.38098400  1
  K  K7  1  0.31735000  0.30086800  0.88098400  1
  H  H0  1  0.79950000  0.03054100  0.72312600  1
  H  H1  1  0.70050000  0.03054100  0.22312600  1
  H  H2  1  0.20050000  0.96945900  0.27687400  1
  H  H3  1  0.29950000  0.96945900  0.77687400  1
  H  H4  1  0.67922800  0.14443800  0.69229200  1
  H  H5  1  0.82077200  0.14443800  0.19229200  1
  H  H6  1  0.32077200  0.85556200  0.30770800  1
  H  H7  1  0.17922800  0.85556200  0.80770800  1
  C  C0  1  0.38098100  0.49776700  0.64166100  1
  C  C1  1  0.11901900  0.49776700  0.14166100  1
  C  C2  1  0.61901900  0.50223300  0.35833900  1
  C  C3  1  0.88098100  0.50223300  0.85833900  1
  C  C4  1  0.30467900  0.79232600  0.52186300  1
  C  C5  1  0.19532100  0.79232600  0.02186300  1
  C  C6  1  0.69532100  0.20767400  0.47813700  1
  C  C7  1  0.80467900  0.20767400  0.97813700  1
  C  C8  1  0.37216900  0.74624000  0.59996600  1
  C  C9  1  0.12783100  0.74624000  0.09996600  1
  C  C10  1  0.62783100  0.25376000  0.40003400  1
  C  C11  1  0.87216900  0.25376000  0.90003400  1
  S  S0  1  0.49463200  0.44174400  0.72076900  1
  S  S1  1  0.00536800  0.44174400  0.22076900  1
  S  S2  1  0.50536800  0.55825600  0.27923100  1
  S  S3  1  0.99463200  0.55825600  0.77923100  1
  S  S4  1  0.14602900  0.68978500  0.51362500  1
  S  S5  1  0.35397100  0.68978500  0.01362500  1
  S  S6  1  0.85397100  0.31021500  0.48637500  1
  S  S7  1  0.64602900  0.31021500  0.98637500  1
  O  O0  1  0.46427000  0.60758000  0.76808600  1
  O  O1  1  0.03573000  0.60758000  0.26808600  1
  O  O2  1  0.53573000  0.39242000  0.23191400  1
  O  O3  1  0.96427000  0.39242000  0.73191400  1
  O  O4  1  0.61196800  0.46534800  0.68429600  1
  O  O5  1  0.88803200  0.46534800  0.18429600  1
  O  O6  1  0.38803200  0.53465200  0.31570400  1
  O  O7  1  0.11196800  0.53465200  0.81570400  1
  O  O8  1  0.46520000  0.21053500  0.75599700  1
  O  O9  1  0.03480000  0.21053500  0.25599700  1
  O  O10  1  0.53480000  0.78946500  0.24400300  1
  O  O11  1  0.96520000  0.78946500  0.74400300  1
  O  O12  1  0.15760800  0.44567500  0.52220500  1
  O  O13  1  0.34239200  0.44567500  0.02220500  1
  O  O14  1  0.84239200  0.55432500  0.47779500  1
  O  O15  1  0.65760800  0.55432500  0.97779500  1
  O  O16  1  0.07987300  0.76803800  0.57417600  1
  O  O17  1  0.42012700  0.76803800  0.07417600  1
  O  O18  1  0.92012700  0.23196200  0.42582400  1
  O  O19  1  0.57987300  0.23196200  0.92582400  1
  O  O20  1  0.11568300  0.79961800  0.43671300  1
  O  O21  1  0.38431700  0.79961800  0.93671300  1
  O  O22  1  0.88431700  0.20038200  0.56328700  1
  O  O23  1  0.61568300  0.20038200  0.06328700  1
  O  O24  1  0.71733600  0.99830300  0.70919600  1
  O  O25  1  0.78266400  0.99830300  0.20919600  1
  O  O26  1  0.28266400  0.00169700  0.29080400  1
  O  O27  1  0.21733600  0.00169700  0.79080400  1
  F  F0  1  0.27070400  0.43767000  0.67375900  1
  F  F1  1  0.22929600  0.43767000  0.17375900  1
  F  F2  1  0.72929600  0.56233000  0.32624100  1
  F  F3  1  0.77070400  0.56233000  0.82624100  1
  F  F4  1  0.40624500  0.36087400  0.59103900  1
  F  F5  1  0.09375500  0.36087400  0.09103900  1
  F  F6  1  0.59375500  0.63912600  0.40896100  1
  F  F7  1  0.90624500  0.63912600  0.90896100  1
  F  F8  1  0.31580700  0.86888600  0.64734700  1
  F  F9  1  0.18419300  0.86888600  0.14734700  1
  F  F10  1  0.68419300  0.13111400  0.35265300  1
  F  F11  1  0.81580700  0.13111400  0.85265300  1
  F  F12  1  0.48594600  0.82958500  0.58675300  1
  F  F13  1  0.01405400  0.82958500  0.08675300  1
  F  F14  1  0.51405400  0.17041500  0.41324700  1
  F  F15  1  0.98594600  0.17041500  0.91324700  1
  F  F16  1  0.30058000  0.02367100  0.50201400  1
  F  F17  1  0.19942000  0.02367100  0.00201400  1
  F  F18  1  0.69942000  0.97632900  0.49798600  1
  F  F19  1  0.80058000  0.97632900  0.99798600  1
  F  F20  1  0.37265000  0.71229500  0.46933300  1
  F  F21  1  0.12735000  0.71229500  0.96933300  1
  F  F22  1  0.62735000  0.28770500  0.53066700  1
  F  F23  1  0.87265000  0.28770500  0.03066700  1
loop_
_geom_bond_atom_site_label_1
_geom_bond_atom_site_label_2
_geom_bond_distance
_geom_bond_site_symmetry_2
K0 O0 2.720310 1_555
K0 O21 2.781206 1_555
K0 O8 2.789368 1_565
K0 O19 2.793324 1_565
K0 O15 2.831845 1_555
K0 O24 2.858229 1_555
K1 O1 2.720310 1_655
K1 O20 2.781206 1_655
K1 O9 2.789368 1_665
K1 O18 2.793324 1_565
K1 O14 2.831845 1_555
K1 O25 2.858229 1_555
K2 O2 2.720310 1_555
K2 O23 2.781206 1_555
K2 O10 2.789368 1_545
K2 O17 2.793324 1_545
K2 O13 2.831845 1_555
K2 O26 2.858229 1_555
K3 O3 2.720310 1_455
K3 O22 2.781206 1_455
K3 O11 2.789368 1_445
K3 O16 2.793324 1_545
K3 O12 2.831845 1_555
K3 O27 2.858229 1_555
K4 O4 2.832793 1_555
K4 O14 2.836588 1_555
K4 O24 2.857240 1_555
K4 O11 2.910225 1_555
K4 O3 2.985315 1_555
K4 O16 3.041142 1_655
K4 O22 3.114535 1_565
K5 O5 2.832793 1_555
K5 O15 2.836588 1_554
K5 O25 2.857240 1_555
K5 O10 2.910225 1_555
K5 O2 2.985315 1_555
K5 O17 3.041142 1_555
K5 O23 3.114535 1_565
K6 O6 2.832793 1_555
K6 O12 2.836588 1_555
K6 O26 2.857240 1_555
K6 O9 2.910225 1_555
K6 O1 2.985315 1_555
K6 O18 3.041142 1_455
K6 O20 3.114535 1_545
K7 O7 2.832793 1_555
K7 O13 2.836588 1_556
K7 O27 2.857240 1_555
K7 O8 2.910225 1_555
K7 O0 2.985315 1_555
K7 O19 3.041142 1_555
K7 O21 3.114535 1_545
H0 O24 0.977042 1_545
H1 O25 0.977042 1_545
H2 O26 0.977042 1_565
H3 O27 0.977042 1_565
H4 O24 0.980124 1_545
H5 O25 0.980124 1_545
H6 O26 0.980124 1_565
H7 O27 0.980124 1_565
C0 F4 1.361759 1_555
C0 F0 1.377882 1_555
C1 F5 1.361759 1_555
C1 F1 1.377882 1_555
C2 F6 1.361759 1_555
C2 F2 1.377882 1_555
C3 F7 1.361759 1_555
C3 F3 1.377882 1_555
C4 F20 1.362324 1_555
C4 F16 1.383983 1_565
C5 F21 1.362324 1_554
C5 F17 1.383983 1_565
C6 F22 1.362324 1_555
C6 F18 1.383983 1_545
C7 F23 1.362324 1_556
C7 F19 1.383983 1_545
C8 F12 1.368877 1_555
C8 F8 1.374340 1_555
C9 F13 1.368877 1_555
C9 F9 1.374340 1_555
C10 F14 1.368877 1_555
C10 F10 1.374340 1_555
C11 F15 1.368877 1_555
C11 F11 1.374340 1_555
O0 S0 1.463273 1_555
O1 S1 1.463273 1_555
O2 S2 1.463273 1_555
O3 S3 1.463273 1_555
O4 S0 1.457070 1_555
O5 S1 1.457070 1_655
O6 S2 1.457070 1_555
O7 S3 1.457070 1_455
O8 S0 1.468402 1_555
O9 S1 1.468402 1_555
O10 S2 1.468402 1_555
O11 S3 1.468402 1_555
O12 S4 1.464254 1_555
O13 S5 1.464254 1_555
O14 S6 1.464254 1_555
O15 S7 1.464254 1_555
O16 S4 1.458718 1_555
O17 S5 1.458718 1_555
O18 S6 1.458718 1_555
O19 S7 1.458718 1_555
O20 S4 1.462989 1_555
O21 S5 1.462989 1_556
O22 S6 1.462989 1_555
O23 S7 1.462989 1_554
F0 K3 2.809417 1_555
F1 K2 2.809417 1_555
F2 K1 2.809417 1_555
F3 K0 2.809417 1_555
F8 K3 2.969495 1_565
F9 K2 2.969495 1_565
F10 K1 2.969495 1_545
F11 K0 2.969495 1_545
F16 K6 2.825313 1_555
F17 K7 2.825313 1_554
F18 K4 2.825313 1_555
F19 K5 2.825313 1_556
