# generated using pymatgen
data_NiH12SO10
_symmetry_space_group_name_H-M   'P 1'
_cell_length_a   6.80647600
_cell_length_b   6.80647600
_cell_length_c   18.33561800
_cell_angle_alpha   90.00000000
_cell_angle_beta   90.00000000
_cell_angle_gamma   90.00000000
_symmetry_Int_Tables_number   1
_chemical_formula_structural   NiH12SO10
_chemical_formula_sum   'Ni4 H48 S4 O40'
_cell_volume   849.45462918
_cell_formula_units_Z   4
loop_
 _symmetry_equiv_pos_site_id
 _symmetry_equiv_pos_as_xyz
  1  'x, y, z'
loop_
 _atom_site_type_symbol
 _atom_site_label
 _atom_site_symmetry_multiplicity
 _atom_site_fract_x
 _atom_site_fract_y
 _atom_site_fract_z
 _atom_site_occupancy
  Ni  Ni0  1  0.28887700  0.71112300  0.25000000  1
  Ni  Ni1  1  0.71112300  0.28887700  0.75000000  1
  Ni  Ni2  1  0.21112300  0.21112300  0.50000000  1
  Ni  Ni3  1  0.78887700  0.78887700  0.00000000  1
  H  H0  1  0.42417300  0.35143200  0.28981500  1
  H  H1  1  0.57582700  0.64856800  0.78981500  1
  H  H2  1  0.85143200  0.07582700  0.53981500  1
  H  H3  1  0.14856800  0.92417300  0.03981500  1
  H  H4  1  0.64856800  0.57582700  0.21018500  1
  H  H5  1  0.35143200  0.42417300  0.71018500  1
  H  H6  1  0.07582700  0.85143200  0.46018500  1
  H  H7  1  0.92417300  0.14856800  0.96018500  1
  H  H8  1  0.24889500  0.41566800  0.34575900  1
  H  H9  1  0.75110500  0.58433200  0.84575900  1
  H  H10  1  0.91566800  0.25110500  0.59575900  1
  H  H11  1  0.08433200  0.74889500  0.09575900  1
  H  H12  1  0.58433200  0.75110500  0.15424100  1
  H  H13  1  0.41566800  0.24889500  0.65424100  1
  H  H14  1  0.25110500  0.91566800  0.40424100  1
  H  H15  1  0.74889500  0.08433200  0.90424100  1
  H  H16  1  0.93248400  0.64145600  0.29668600  1
  H  H17  1  0.06751600  0.35854400  0.79668600  1
  H  H18  1  0.14145600  0.56751600  0.54668600  1
  H  H19  1  0.85854400  0.43248400  0.04668600  1
  H  H20  1  0.35854400  0.06751600  0.20331400  1
  H  H21  1  0.64145600  0.93248400  0.70331400  1
  H  H22  1  0.56751600  0.14145600  0.45331400  1
  H  H23  1  0.43248400  0.85854400  0.95331400  1
  H  H24  1  0.96484700  0.87479400  0.30862000  1
  H  H25  1  0.03515300  0.12520600  0.80862000  1
  H  H26  1  0.37479400  0.53515300  0.55862000  1
  H  H27  1  0.62520600  0.46484700  0.05862000  1
  H  H28  1  0.12520600  0.03515300  0.19138000  1
  H  H29  1  0.87479400  0.96484700  0.69138000  1
  H  H30  1  0.53515300  0.37479400  0.44138000  1
  H  H31  1  0.46484700  0.62520600  0.94138000  1
  H  H32  1  0.51386800  0.96555600  0.31600700  1
  H  H33  1  0.48613200  0.03444400  0.81600700  1
  H  H34  1  0.46555600  0.98613200  0.56600700  1
  H  H35  1  0.53444400  0.01386800  0.06600700  1
  H  H36  1  0.03444400  0.48613200  0.18399300  1
  H  H37  1  0.96555600  0.51386800  0.68399300  1
  H  H38  1  0.98613200  0.46555600  0.43399300  1
  H  H39  1  0.01386800  0.53444400  0.93399300  1
  H  H40  1  0.51681100  0.77010600  0.36651200  1
  H  H41  1  0.48318900  0.22989400  0.86651200  1
  H  H42  1  0.27010600  0.98318900  0.61651200  1
  H  H43  1  0.72989400  0.01681100  0.11651200  1
  H  H44  1  0.22989400  0.48318900  0.13348800  1
  H  H45  1  0.77010600  0.51681100  0.63348800  1
  H  H46  1  0.98318900  0.27010600  0.38348800  1
  H  H47  1  0.01681100  0.72989400  0.88348800  1
  S  S0  1  0.79126100  0.20873900  0.25000000  1
  S  S1  1  0.20873900  0.79126100  0.75000000  1
  S  S2  1  0.70873900  0.70873900  0.50000000  1
  S  S3  1  0.29126100  0.29126100  0.00000000  1
  O  O0  1  0.32678500  0.45327900  0.30267500  1
  O  O1  1  0.67321500  0.54672100  0.80267500  1
  O  O2  1  0.95327900  0.17321500  0.55267500  1
  O  O3  1  0.04672100  0.82678500  0.05267500  1
  O  O4  1  0.54672100  0.67321500  0.19732500  1
  O  O5  1  0.45327900  0.32678500  0.69732500  1
  O  O6  1  0.17321500  0.95327900  0.44732500  1
  O  O7  1  0.82678500  0.04672100  0.94732500  1
  O  O8  1  0.02966600  0.74425400  0.30723100  1
  O  O9  1  0.97033400  0.25574600  0.80723100  1
  O  O10  1  0.24425400  0.47033400  0.55723100  1
  O  O11  1  0.75574600  0.52966600  0.05723100  1
  O  O12  1  0.25574600  0.97033400  0.19276900  1
  O  O13  1  0.74425400  0.02966600  0.69276900  1
  O  O14  1  0.47033400  0.24425400  0.44276900  1
  O  O15  1  0.52966600  0.75574600  0.94276900  1
  O  O16  1  0.43299900  0.85764100  0.33591300  1
  O  O17  1  0.56700100  0.14235900  0.83591300  1
  O  O18  1  0.35764100  0.06700100  0.58591300  1
  O  O19  1  0.64235900  0.93299900  0.08591300  1
  O  O20  1  0.14235900  0.56700100  0.16408700  1
  O  O21  1  0.85764100  0.43299900  0.66408700  1
  O  O22  1  0.06700100  0.35764100  0.41408700  1
  O  O23  1  0.93299900  0.64235900  0.91408700  1
  O  O24  1  0.88006300  0.11966000  0.31662700  1
  O  O25  1  0.11993700  0.88034000  0.81662700  1
  O  O26  1  0.61966000  0.61993700  0.56662700  1
  O  O27  1  0.38034000  0.38006300  0.06662700  1
  O  O28  1  0.88034000  0.11993700  0.18337300  1
  O  O29  1  0.11966000  0.88006300  0.68337300  1
  O  O30  1  0.61993700  0.61966000  0.43337300  1
  O  O31  1  0.38006300  0.38034000  0.93337300  1
  O  O32  1  0.57421600  0.17238200  0.25081400  1
  O  O33  1  0.42578400  0.82761800  0.75081400  1
  O  O34  1  0.67238200  0.92578400  0.50081400  1
  O  O35  1  0.32761800  0.07421600  0.00081400  1
  O  O36  1  0.82761800  0.42578400  0.24918600  1
  O  O37  1  0.17238200  0.57421600  0.74918600  1
  O  O38  1  0.92578400  0.67238200  0.49918600  1
  O  O39  1  0.07421600  0.32761800  0.99918600  1
loop_
_geom_bond_atom_site_label_1
_geom_bond_atom_site_label_2
_geom_bond_distance
_geom_bond_site_symmetry_2
Ni0 O0 2.019766 1_555
Ni0 O4 2.019766 1_555
Ni0 O8 2.065145 1_555
Ni0 O12 2.065145 1_555
Ni0 O20 2.106729 1_555
Ni0 O16 2.106729 1_555
Ni1 O1 2.019766 1_555
Ni1 O5 2.019766 1_555
Ni1 O13 2.065145 1_555
Ni1 O9 2.065145 1_555
Ni1 O17 2.106729 1_555
Ni1 O21 2.106729 1_555
Ni2 O2 2.019766 1_455
Ni2 O6 2.019766 1_545
Ni2 O14 2.065145 1_555
Ni2 O10 2.065145 1_555
Ni2 O18 2.106729 1_555
Ni2 O22 2.106729 1_555
Ni3 O3 2.019766 1_655
Ni3 O7 2.019766 1_564
Ni3 O11 2.065145 1_555
Ni3 O15 2.065145 1_554
Ni3 O19 2.106729 1_555
Ni3 O23 2.106729 1_554
H0 O0 0.987698 1_555
H1 O1 0.987698 1_555
H2 O2 0.987698 1_555
H3 O3 0.987698 1_555
H4 O4 0.987698 1_555
H5 O5 0.987698 1_555
H6 O6 0.987698 1_555
H7 O7 0.987698 1_555
H8 O0 0.985219 1_555
H9 O1 0.985219 1_555
H10 O2 0.985219 1_555
H11 O3 0.985219 1_555
H12 O4 0.985219 1_555
H13 O5 0.985219 1_555
H14 O6 0.985219 1_555
H15 O7 0.985219 1_555
H16 O8 0.982085 1_655
H17 O9 0.982085 1_455
H18 O10 0.982085 1_555
H19 O11 0.982085 1_555
H20 O12 0.982085 1_545
H21 O13 0.982085 1_565
H22 O14 0.982085 1_555
H23 O15 0.982085 1_555
H24 O8 0.992350 1_655
H25 O9 0.992350 1_455
H26 O10 0.992350 1_555
H27 O11 0.992350 1_555
H28 O12 0.992350 1_545
H29 O13 0.992350 1_565
H30 O14 0.992350 1_555
H31 O15 0.992350 1_555
H32 O16 0.987782 1_555
H33 O17 0.987782 1_555
H34 O18 0.987782 1_565
H35 O19 0.987782 1_545
H36 O20 0.987782 1_555
H37 O21 0.987782 1_555
H38 O22 0.987782 1_655
H39 O23 0.987782 1_455
H40 O16 0.997593 1_555
H41 O17 0.997593 1_555
H42 O18 0.997593 1_565
H43 O19 0.997593 1_545
H44 O20 0.997593 1_555
H45 O21 0.997593 1_555
H46 O22 0.997593 1_655
H47 O23 0.997593 1_455
O24 S0 1.491768 1_555
O25 S1 1.491768 1_555
O26 S2 1.491768 1_555
O27 S3 1.491768 1_555
O28 S0 1.491768 1_555
O29 S1 1.491768 1_555
O30 S2 1.491768 1_555
O31 S3 1.491768 1_556
O32 S0 1.497969 1_555
O33 S1 1.497969 1_555
O34 S2 1.497969 1_555
O35 S3 1.497969 1_555
O36 S0 1.497969 1_555
O37 S1 1.497969 1_555
O38 S2 1.497969 1_555
O39 S3 1.497969 1_556
