# generated using pymatgen
data_MnHg2C6(SN)6
_symmetry_space_group_name_H-M   'P 1'
_cell_length_a   11.70680109
_cell_length_b   14.38687999
_cell_length_c   20.91700237
_cell_angle_alpha   90.00000000
_cell_angle_beta   100.57950597
_cell_angle_gamma   90.00000000
_symmetry_Int_Tables_number   1
_chemical_formula_structural   MnHg2C6(SN)6
_chemical_formula_sum   'Mn8 Hg16 C48 S48 N48'
_cell_volume   3463.04633522
_cell_formula_units_Z   8
loop_
 _symmetry_equiv_pos_site_id
 _symmetry_equiv_pos_as_xyz
  1  'x, y, z'
loop_
 _atom_site_type_symbol
 _atom_site_label
 _atom_site_symmetry_multiplicity
 _atom_site_fract_x
 _atom_site_fract_y
 _atom_site_fract_z
 _atom_site_occupancy
  Mn  Mn0  1  0.95270519  0.22292565  0.48853185  1
  Mn  Mn1  1  0.04729481  0.77707435  0.51146815  1
  Mn  Mn2  1  0.95270519  0.27707435  0.98853185  1
  Mn  Mn3  1  0.04729481  0.72292565  0.01146815  1
  Mn  Mn4  1  0.66352675  0.76161397  0.31740970  1
  Mn  Mn5  1  0.66352675  0.73838603  0.81740970  1
  Mn  Mn6  1  0.33647325  0.23838603  0.68259030  1
  Mn  Mn7  1  0.33647325  0.26161397  0.18259030  1
  Hg  Hg0  1  0.34147275  0.04474548  0.93796838  1
  Hg  Hg1  1  0.15615841  0.63662003  0.27190034  1
  Hg  Hg2  1  0.82637258  0.40870593  0.22802673  1
  Hg  Hg3  1  0.56854390  0.61636474  0.05814171  1
  Hg  Hg4  1  0.84384159  0.36337997  0.72809966  1
  Hg  Hg5  1  0.17362742  0.90870593  0.27197327  1
  Hg  Hg6  1  0.84384159  0.13662003  0.22809966  1
  Hg  Hg7  1  0.15615841  0.86337997  0.77190034  1
  Hg  Hg8  1  0.34147275  0.45525452  0.43796838  1
  Hg  Hg9  1  0.43145610  0.11636474  0.44185829  1
  Hg  Hg10  1  0.82637258  0.09129407  0.72802673  1
  Hg  Hg11  1  0.56854390  0.88363526  0.55814171  1
  Hg  Hg12  1  0.43145610  0.38363526  0.94185829  1
  Hg  Hg13  1  0.65852725  0.54474548  0.56203162  1
  Hg  Hg14  1  0.17362742  0.59129407  0.77197327  1
  Hg  Hg15  1  0.65852725  0.95525452  0.06203162  1
  C  C0  1  0.44014495  0.68911887  0.50808490  1
  C  C1  1  0.89602292  0.76630109  0.26595898  1
  C  C2  1  0.95227570  0.11359872  0.10098412  1
  C  C3  1  0.94534751  0.07058911  0.60555424  1
  C  C4  1  0.60635472  0.89997239  0.71795794  1
  C  C5  1  0.81492494  0.74221748  0.06813944  1
  C  C6  1  0.95227570  0.38640128  0.60098412  1
  C  C7  1  0.80339613  0.14301171  0.87451432  1
  C  C8  1  0.81492494  0.75778252  0.56813944  1
  C  C9  1  0.59765184  0.91219136  0.20848681  1
  C  C10  1  0.10397708  0.26630109  0.23404102  1
  C  C11  1  0.89602292  0.73369891  0.76595898  1
  C  C12  1  0.69319623  0.59419774  0.92940811  1
  C  C13  1  0.30680377  0.40580226  0.07059189  1
  C  C14  1  0.25900837  0.11591103  0.07213564  1
  C  C15  1  0.39364528  0.10002761  0.28204206  1
  C  C16  1  0.44014495  0.81088113  0.00808490  1
  C  C17  1  0.30680377  0.09419774  0.57059189  1
  C  C18  1  0.55985505  0.31088113  0.49191510  1
  C  C19  1  0.10397708  0.23369891  0.73404102  1
  C  C20  1  0.39364528  0.39997239  0.78204206  1
  C  C21  1  0.94534751  0.42941089  0.10555424  1
  C  C22  1  0.40234816  0.41219136  0.29151319  1
  C  C23  1  0.69319623  0.90580226  0.42940811  1
  C  C24  1  0.80339613  0.35698829  0.37451432  1
  C  C25  1  0.60635472  0.60002761  0.21795794  1
  C  C26  1  0.80355978  0.10632005  0.37134958  1
  C  C27  1  0.05465249  0.57058911  0.89444576  1
  C  C28  1  0.05465249  0.92941089  0.39444576  1
  C  C29  1  0.80355978  0.39367995  0.87134958  1
  C  C30  1  0.74099163  0.88408897  0.92786436  1
  C  C31  1  0.18507506  0.25778252  0.93186056  1
  C  C32  1  0.04772430  0.88640128  0.89901588  1
  C  C33  1  0.40868376  0.76186882  0.34154532  1
  C  C34  1  0.55985505  0.18911887  0.99191510  1
  C  C35  1  0.40868376  0.73813118  0.84154532  1
  C  C36  1  0.25900837  0.38408897  0.57213564  1
  C  C37  1  0.74099163  0.61591103  0.42786436  1
  C  C38  1  0.19644022  0.60632005  0.12865042  1
  C  C39  1  0.19660387  0.85698829  0.12548568  1
  C  C40  1  0.59131624  0.23813118  0.65845468  1
  C  C41  1  0.18507506  0.24221748  0.43186056  1
  C  C42  1  0.04772430  0.61359872  0.39901588  1
  C  C43  1  0.59765184  0.58780864  0.70848681  1
  C  C44  1  0.19660387  0.64301171  0.62548568  1
  C  C45  1  0.19644022  0.89367995  0.62865042  1
  C  C46  1  0.40234816  0.08780864  0.79151319  1
  C  C47  1  0.59131624  0.26186882  0.15845468  1
  S  S0  1  0.27596533  0.76587622  0.35790242  1
  S  S1  1  0.71583681  0.76198171  0.11146902  1
  S  S2  1  0.27596533  0.73412378  0.85790242  1
  S  S3  1  0.93472743  0.99103484  0.66098745  1
  S  S4  1  0.61781680  0.28475888  0.96942724  1
  S  S5  1  0.06527257  0.49103484  0.83901255  1
  S  S6  1  0.28904449  0.59162649  0.68345649  1
  S  S7  1  0.71095551  0.40837351  0.31654351  1
  S  S8  1  0.99658293  0.73118931  0.72024743  1
  S  S9  1  0.56045584  0.50315428  0.65518361  1
  S  S10  1  0.05056647  0.53268266  0.34364642  1
  S  S11  1  0.69527656  0.52446214  0.99205353  1
  S  S12  1  0.57420958  0.51453418  0.16557164  1
  S  S13  1  0.28830243  0.58800257  0.19653312  1
  S  S14  1  0.99658293  0.76881069  0.22024743  1
  S  S15  1  0.06527257  0.00896516  0.33901255  1
  S  S16  1  0.56045584  0.99684572  0.15518361  1
  S  S17  1  0.30472344  0.02446214  0.50794647  1
  S  S18  1  0.20768141  0.03708890  0.01691347  1
  S  S19  1  0.94943353  0.46731734  0.65635358  1
  S  S20  1  0.57420958  0.98546582  0.66557164  1
  S  S21  1  0.79231859  0.53708890  0.48308653  1
  S  S22  1  0.00341707  0.23118931  0.77975257  1
  S  S23  1  0.72403467  0.23412378  0.64209758  1
  S  S24  1  0.71583681  0.73801829  0.61146902  1
  S  S25  1  0.42579042  0.48546582  0.83442836  1
  S  S26  1  0.43954416  0.00315428  0.84481639  1
  S  S27  1  0.61781680  0.21524112  0.46942724  1
  S  S28  1  0.30472344  0.47553786  0.00794647  1
  S  S29  1  0.69527656  0.97553786  0.49205353  1
  S  S30  1  0.28830243  0.91199743  0.69653312  1
  S  S31  1  0.94943353  0.03268266  0.15635358  1
  S  S32  1  0.38218320  0.71524112  0.03057276  1
  S  S33  1  0.93472743  0.50896516  0.16098745  1
  S  S34  1  0.28416319  0.26198171  0.38853098  1
  S  S35  1  0.43954416  0.49684572  0.34481639  1
  S  S36  1  0.71095551  0.09162649  0.81654351  1
  S  S37  1  0.42579042  0.01453418  0.33442836  1
  S  S38  1  0.20768141  0.46291110  0.51691347  1
  S  S39  1  0.28416319  0.23801829  0.88853098  1
  S  S40  1  0.00341707  0.26881069  0.27975257  1
  S  S41  1  0.05056647  0.96731734  0.84364642  1
  S  S42  1  0.71169757  0.41199743  0.80346688  1
  S  S43  1  0.72403467  0.26587622  0.14209758  1
  S  S44  1  0.38218320  0.78475888  0.53057276  1
  S  S45  1  0.71169757  0.08800257  0.30346688  1
  S  S46  1  0.28904449  0.90837351  0.18345649  1
  S  S47  1  0.79231859  0.96291110  0.98308653  1
  N  N0  1  0.48142143  0.87990961  0.99155785  1
  N  N1  1  0.95165923  0.37375657  0.06523121  1
  N  N2  1  0.61981251  0.85436133  0.24870641  1
  N  N3  1  0.18144171  0.23424992  0.70540952  1
  N  N4  1  0.11237827  0.22760230  0.46274857  1
  N  N5  1  0.38018749  0.14563867  0.75129359  1
  N  N6  1  0.49531902  0.24084102  0.66807480  1
  N  N7  1  0.04777151  0.82985763  0.93964604  1
  N  N8  1  0.04777151  0.67014237  0.43964604  1
  N  N9  1  0.69210141  0.85709908  0.38407360  1
  N  N10  1  0.04834077  0.87375657  0.43476879  1
  N  N11  1  0.13325453  0.82074611  0.08248686  1
  N  N12  1  0.11237827  0.27239770  0.96274857  1
  N  N13  1  0.28989421  0.17050214  0.11375254  1
  N  N14  1  0.88762173  0.72760230  0.03725143  1
  N  N15  1  0.37224481  0.33876621  0.74429806  1
  N  N16  1  0.81855829  0.73424992  0.79459048  1
  N  N17  1  0.48142143  0.62009039  0.49155785  1
  N  N18  1  0.86674547  0.17925389  0.91751314  1
  N  N19  1  0.86815475  0.38075682  0.92087761  1
  N  N20  1  0.62775519  0.66123379  0.25570194  1
  N  N21  1  0.04834077  0.62624343  0.93476879  1
  N  N22  1  0.81855829  0.76575008  0.29459048  1
  N  N23  1  0.28989421  0.32949786  0.61375254  1
  N  N24  1  0.38018749  0.35436133  0.25129359  1
  N  N25  1  0.51857857  0.12009039  0.00844215  1
  N  N26  1  0.86815475  0.11924318  0.42087761  1
  N  N27  1  0.50468098  0.74084102  0.83192520  1
  N  N28  1  0.71010579  0.82949786  0.88624746  1
  N  N29  1  0.95165923  0.12624343  0.56523121  1
  N  N30  1  0.61981251  0.64563867  0.74870641  1
  N  N31  1  0.13184525  0.61924318  0.07912239  1
  N  N32  1  0.30789859  0.14290092  0.61592640  1
  N  N33  1  0.13325453  0.67925389  0.58248686  1
  N  N34  1  0.30789859  0.35709908  0.11592640  1
  N  N35  1  0.50468098  0.75915898  0.33192520  1
  N  N36  1  0.13184525  0.88075682  0.57912239  1
  N  N37  1  0.51857857  0.37990961  0.50844215  1
  N  N38  1  0.86674547  0.32074611  0.41751314  1
  N  N39  1  0.37224481  0.16123379  0.24429806  1
  N  N40  1  0.49531902  0.25915898  0.16807480  1
  N  N41  1  0.95222849  0.32985763  0.56035396  1
  N  N42  1  0.71010579  0.67050214  0.38624746  1
  N  N43  1  0.88762173  0.77239770  0.53725143  1
  N  N44  1  0.62775519  0.83876621  0.75570194  1
  N  N45  1  0.18144171  0.26575008  0.20540952  1
  N  N46  1  0.95222849  0.17014237  0.06035396  1
  N  N47  1  0.69210141  0.64290092  0.88407360  1
loop_
_geom_bond_atom_site_label_1
_geom_bond_atom_site_label_2
_geom_bond_distance
_geom_bond_site_symmetry_2
Mn0 N4 2.039533 1_655
Mn0 N29 2.125080 1_555
Mn0 N41 2.150989 1_555
Mn0 N38 2.156626 1_555
Mn0 N26 2.166343 1_555
Mn1 N43 2.039533 1_455
Mn1 N10 2.125080 1_555
Mn1 N8 2.150989 1_555
Mn1 N33 2.156626 1_555
Mn1 N36 2.166343 1_555
Mn2 N12 2.039533 1_655
Mn2 N1 2.125080 1_556
Mn2 N46 2.150989 1_556
Mn2 N18 2.156626 1_555
Mn2 N19 2.166343 1_555
Mn3 N14 2.039533 1_455
Mn3 N21 2.125080 1_554
Mn3 N7 2.150989 1_554
Mn3 N11 2.156626 1_555
Mn3 N31 2.166343 1_555
Mn4 N20 1.930931 1_555
Mn4 N35 1.938757 1_555
Mn4 N9 1.942199 1_555
Mn4 N42 1.949493 1_555
Mn4 N2 1.958949 1_555
Mn4 N22 1.960462 1_555
Mn5 N44 1.930931 1_555
Mn5 N27 1.938757 1_555
Mn5 N47 1.942199 1_555
Mn5 N28 1.949493 1_555
Mn5 N30 1.958949 1_555
Mn5 N16 1.960462 1_555
Mn6 N15 1.930931 1_555
Mn6 N6 1.938757 1_555
Mn6 N32 1.942199 1_555
Mn6 N23 1.949493 1_555
Mn6 N5 1.958949 1_555
Mn6 N3 1.960462 1_555
Mn7 N39 1.930931 1_555
Mn7 N40 1.938757 1_555
Mn7 N34 1.942199 1_555
Mn7 N13 1.949493 1_555
Mn7 N24 1.958949 1_555
Mn7 N45 1.960462 1_555
Hg0 S18 2.478269 1_556
Hg0 S26 2.508808 1_555
Hg0 N25 2.554301 1_556
Hg0 S39 2.999398 1_555
Hg1 S13 2.502622 1_555
Hg1 S10 2.587935 1_555
Hg1 S14 2.744618 1_455
Hg1 S0 2.781159 1_555
Hg2 S7 2.484424 1_555
Hg2 S33 2.511797 1_555
Hg2 S43 2.845645 1_555
Hg2 S40 2.948514 1_655
Hg3 S11 2.571653 1_554
Hg3 S32 2.579515 1_555
Hg3 S12 2.673103 1_555
Hg3 S1 2.810725 1_555
Hg4 S42 2.502622 1_555
Hg4 S19 2.587935 1_555
Hg4 S22 2.744618 1_655
Hg4 S23 2.781159 1_555
Hg5 S46 2.484424 1_555
Hg5 S15 2.511797 1_565
Hg5 S0 2.845645 1_555
Hg5 S14 2.948514 1_455
Hg6 S45 2.502622 1_555
Hg6 S31 2.587935 1_555
Hg6 S40 2.744618 1_655
Hg6 S43 2.781159 1_555
Hg7 S30 2.502622 1_555
Hg7 S41 2.587935 1_555
Hg7 S8 2.744618 1_455
Hg7 S2 2.781159 1_555
Hg8 S38 2.478269 1_555
Hg8 S35 2.508808 1_555
Hg8 N37 2.554301 1_555
Hg8 S34 2.999398 1_555
Hg9 S17 2.571653 1_555
Hg9 S27 2.579515 1_555
Hg9 S37 2.673103 1_555
Hg9 S34 2.810725 1_555
Hg10 S36 2.484424 1_555
Hg10 S3 2.511797 1_545
Hg10 S23 2.845645 1_555
Hg10 S22 2.948514 1_655
Hg11 S29 2.571653 1_555
Hg11 S44 2.579515 1_555
Hg11 S20 2.673103 1_555
Hg11 S24 2.810725 1_555
Hg12 S28 2.571653 1_556
Hg12 S4 2.579515 1_555
Hg12 S25 2.673103 1_555
Hg12 S39 2.810725 1_555
Hg13 S21 2.478269 1_555
Hg13 S9 2.508808 1_555
Hg13 N17 2.554301 1_555
Hg13 S24 2.999398 1_555
Hg14 S6 2.484424 1_555
Hg14 S5 2.511797 1_555
Hg14 S2 2.845645 1_555
Hg14 S8 2.948514 1_455
Hg15 S47 2.478269 1_554
Hg15 S16 2.508808 1_555
Hg15 N0 2.554301 1_554
Hg15 S1 2.999398 1_555
C0 N17 1.183469 1_555
C0 S44 1.640778 1_555
C1 N22 1.174970 1_555
C1 S14 1.647645 1_555
C2 N46 1.176373 1_555
C2 S31 1.646753 1_555
C3 N29 1.175091 1_555
C3 S3 1.650088 1_545
C4 N44 1.178486 1_555
C4 S20 1.644311 1_555
C5 N14 1.178059 1_555
C5 S1 1.622942 1_555
C6 N41 1.176373 1_555
C6 S19 1.646753 1_555
C7 N18 1.177231 1_555
C7 S36 1.645034 1_555
C8 N43 1.178059 1_555
C8 S24 1.622942 1_555
C9 N2 1.177759 1_555
C9 S16 1.654614 1_555
C10 N45 1.174970 1_555
C10 S40 1.647645 1_555
C11 N16 1.174970 1_555
C11 S8 1.647645 1_555
C12 N47 1.177227 1_555
C12 S11 1.646958 1_555
C13 N34 1.177227 1_555
C13 S28 1.646958 1_555
C14 N13 1.178888 1_555
C14 S18 1.651173 1_555
C15 N39 1.178486 1_555
C15 S37 1.644311 1_555
C16 N0 1.183469 1_554
C16 S32 1.640778 1_555
C17 N32 1.177227 1_555
C17 S17 1.646958 1_555
C18 N37 1.183469 1_555
C18 S27 1.640778 1_555
C19 N3 1.174970 1_555
C19 S22 1.647645 1_555
C20 N15 1.178486 1_555
C20 S25 1.644311 1_555
C21 N1 1.175091 1_555
C21 S33 1.650088 1_555
C22 N24 1.177759 1_555
C22 S35 1.654614 1_555
C23 N9 1.177227 1_555
C23 S29 1.646958 1_555
C24 N38 1.177231 1_555
C24 S7 1.645034 1_555
C25 N20 1.178486 1_555
C25 S12 1.644311 1_555
C26 N26 1.179826 1_555
C26 S45 1.637491 1_555
C27 N21 1.175091 1_555
C27 S5 1.650088 1_555
C28 N10 1.175091 1_555
C28 S15 1.650088 1_565
C29 N19 1.179826 1_555
C29 S42 1.637491 1_555
C30 N28 1.178888 1_555
C30 S47 1.651173 1_555
C31 N12 1.178059 1_555
C31 S39 1.622942 1_555
C32 N7 1.176373 1_555
C32 S41 1.646753 1_555
C33 N35 1.178143 1_555
C33 S0 1.652148 1_555
C34 N25 1.183469 1_556
C34 S4 1.640778 1_555
C35 N27 1.178143 1_555
C35 S2 1.652148 1_555
C36 N23 1.178888 1_555
C36 S38 1.651173 1_555
C37 N42 1.178888 1_555
C37 S21 1.651173 1_555
C38 N31 1.179826 1_555
C38 S13 1.637491 1_555
C39 N11 1.177231 1_555
C39 S46 1.645034 1_555
C40 N6 1.178143 1_555
C40 S23 1.652148 1_555
C41 N4 1.178059 1_555
C41 S34 1.622942 1_555
C42 N8 1.176373 1_555
C42 S10 1.646753 1_555
C43 N30 1.177759 1_555
C43 S9 1.654614 1_555
C44 N33 1.177231 1_555
C44 S6 1.645034 1_555
C45 N36 1.179826 1_555
C45 S30 1.637491 1_555
C46 N5 1.177759 1_555
C46 S26 1.654614 1_555
C47 N40 1.178143 1_555
C47 S43 1.652148 1_555
