# generated using pymatgen
data_Er5Al3Ni3Ge4
_symmetry_space_group_name_H-M   'P 1'
_cell_length_a   4.15839600
_cell_length_b   6.84057500
_cell_length_c   19.06536000
_cell_angle_alpha   90.00000000
_cell_angle_beta   90.00000000
_cell_angle_gamma   90.00000000
_symmetry_Int_Tables_number   1
_chemical_formula_structural   Er5Al3Ni3Ge4
_chemical_formula_sum   'Er10 Al6 Ni6 Ge8'
_cell_volume   542.32979341
_cell_formula_units_Z   2
loop_
 _symmetry_equiv_pos_site_id
 _symmetry_equiv_pos_as_xyz
  1  'x, y, z'
loop_
 _atom_site_type_symbol
 _atom_site_label
 _atom_site_symmetry_multiplicity
 _atom_site_fract_x
 _atom_site_fract_y
 _atom_site_fract_z
 _atom_site_occupancy
  Er  Er0  1  0.00000000  0.50359300  0.63046000  1
  Er  Er1  1  0.50000000  0.00024900  0.82139600  1
  Er  Er2  1  0.00000000  0.99975100  0.67860400  1
  Er  Er3  1  0.50000000  0.11506000  0.00000000  1
  Er  Er4  1  0.00000000  0.88494000  0.50000000  1
  Er  Er5  1  0.00000000  0.99975100  0.32139600  1
  Er  Er6  1  0.50000000  0.49640700  0.86954000  1
  Er  Er7  1  0.00000000  0.50359300  0.36954000  1
  Er  Er8  1  0.50000000  0.00024900  0.17860400  1
  Er  Er9  1  0.50000000  0.49640700  0.13046000  1
  Al  Al0  1  0.50000000  0.18412400  0.57155900  1
  Al  Al1  1  0.50000000  0.18412400  0.42844100  1
  Al  Al2  1  0.00000000  0.47187400  0.00000000  1
  Al  Al3  1  0.50000000  0.52812600  0.50000000  1
  Al  Al4  1  0.00000000  0.81587600  0.92844100  1
  Al  Al5  1  0.00000000  0.81587600  0.07155900  1
  Ni  Ni0  1  0.00000000  0.33405200  0.77582600  1
  Ni  Ni1  1  0.50000000  0.66594800  0.72417400  1
  Ni  Ni2  1  0.50000000  0.70615900  0.00000000  1
  Ni  Ni3  1  0.00000000  0.33405200  0.22417400  1
  Ni  Ni4  1  0.00000000  0.29384100  0.50000000  1
  Ni  Ni5  1  0.50000000  0.66594800  0.27582600  1
  Ge  Ge0  1  0.50000000  0.78963900  0.60386200  1
  Ge  Ge1  1  0.50000000  0.29663200  0.28878100  1
  Ge  Ge2  1  0.00000000  0.70336800  0.21121900  1
  Ge  Ge3  1  0.00000000  0.21036100  0.10386200  1
  Ge  Ge4  1  0.00000000  0.21036100  0.89613800  1
  Ge  Ge5  1  0.00000000  0.70336800  0.78878100  1
  Ge  Ge6  1  0.50000000  0.29663200  0.71121900  1
  Ge  Ge7  1  0.50000000  0.78963900  0.39613800  1
loop_
_geom_bond_atom_site_label_1
_geom_bond_atom_site_label_2
_geom_bond_distance
_geom_bond_site_symmetry_2
Er0 Ni4 2.871449 1_555
Er0 Ge0 2.899822 1_455
Er0 Ge0 2.899822 1_555
Er0 Ge6 2.949243 1_555
Er0 Ge6 2.949243 1_455
Er0 Ni1 2.957831 1_455
Er0 Ni1 2.957831 1_555
Er0 Ni0 3.004331 1_555
Er1 Ge4 2.901626 1_555
Er1 Ge4 2.901626 1_655
Er1 Ge6 2.919391 1_555
Er1 Ni1 2.943677 1_545
Er1 Ge5 2.972208 1_645
Er1 Ge5 2.972208 1_545
Er1 Ni0 3.208088 1_655
Er1 Ni0 3.208088 1_555
Er2 Ge0 2.901626 1_555
Er2 Ge0 2.901626 1_455
Er2 Ge5 2.919391 1_555
Er2 Ni0 2.943677 1_565
Er2 Ge6 2.972208 1_565
Er2 Ge6 2.972208 1_465
Er2 Ni1 3.208088 1_455
Er2 Ni1 3.208088 1_555
Er3 Ni2 2.797118 1_545
Er3 Ge3 2.944336 1_655
Er3 Ge3 2.944336 1_555
Er3 Ge4 2.944336 1_654
Er3 Ge4 2.944336 1_554
Er4 Ni4 2.797118 1_565
Er4 Ge7 2.944336 1_455
Er4 Ge0 2.944336 1_555
Er4 Ge7 2.944336 1_555
Er4 Ge0 2.944336 1_455
Er5 Ge7 2.901626 1_555
Er5 Ge7 2.901626 1_455
Er5 Ge2 2.919391 1_555
Er5 Ni3 2.943677 1_565
Er5 Ge1 2.972208 1_465
Er5 Ge1 2.972208 1_565
Er5 Ni5 3.208088 1_555
Er5 Ni5 3.208088 1_455
Er6 Ni2 2.871449 1_556
Er6 Ge4 2.899822 1_655
Er6 Ge4 2.899822 1_555
Er6 Ge5 2.949243 1_655
Er6 Ge5 2.949243 1_555
Er6 Ni0 2.957831 1_555
Er6 Ni0 2.957831 1_655
Er6 Ni1 3.004331 1_555
Er7 Ni4 2.871449 1_555
Er7 Ge7 2.899822 1_555
Er7 Ge7 2.899822 1_455
Er7 Ge1 2.949243 1_455
Er7 Ge1 2.949243 1_555
Er7 Ni5 2.957831 1_455
Er7 Ni5 2.957831 1_555
Er7 Ni3 3.004331 1_555
Er8 Ge3 2.901626 1_555
Er8 Ge3 2.901626 1_655
Er8 Ge1 2.919391 1_555
Er8 Ni5 2.943677 1_545
Er8 Ge2 2.972208 1_545
Er8 Ge2 2.972208 1_645
Er8 Ni3 3.208088 1_655
Er8 Ni3 3.208088 1_555
Er9 Ni2 2.871449 1_555
Er9 Ge3 2.899822 1_655
Er9 Ge3 2.899822 1_555
Er9 Ge2 2.949243 1_655
Er9 Ge2 2.949243 1_555
Er9 Ni3 2.957831 1_555
Er9 Ni3 2.957831 1_655
Er9 Ni5 3.004331 1_555
Al0 Ni4 2.597627 1_655
Al0 Ni4 2.597627 1_555
Al0 Al3 2.720060 1_555
Al0 Al1 2.728596 1_555
Al0 Ge0 2.767891 1_545
Al0 Ge6 2.771663 1_555
Al0 Er2 3.174714 1_645
Al0 Er2 3.174714 1_545
Al0 Er0 3.218678 1_555
Al0 Er0 3.218678 1_655
Al0 Er4 3.220700 1_645
Al0 Er4 3.220700 1_545
Al1 Ni4 2.597627 1_555
Al1 Ni4 2.597627 1_655
Al1 Al3 2.720060 1_555
Al1 Ge7 2.767891 1_545
Al1 Ge1 2.771663 1_555
Al1 Er5 3.174714 1_545
Al1 Er5 3.174714 1_645
Al1 Er7 3.218678 1_555
Al1 Er7 3.218678 1_655
Al1 Er4 3.220700 1_645
Al1 Er4 3.220700 1_545
Al2 Ni2 2.625173 1_555
Al2 Ni2 2.625173 1_455
Al2 Ge3 2.668561 1_555
Al2 Ge4 2.668561 1_554
Al2 Al5 2.720060 1_555
Al2 Al4 2.720060 1_554
Al2 Er3 3.206342 1_455
Al2 Er3 3.206342 1_555
Al2 Er6 3.246186 1_554
Al2 Er6 3.246186 1_454
Al2 Er9 3.246186 1_455
Al2 Er9 3.246186 1_555
Al3 Ni4 2.625173 1_555
Al3 Ni4 2.625173 1_655
Al3 Ge0 2.668561 1_555
Al3 Ge7 2.668561 1_555
Al3 Er4 3.206342 1_555
Al3 Er4 3.206342 1_655
Al3 Er7 3.246186 1_555
Al3 Er7 3.246186 1_655
Al3 Er0 3.246186 1_655
Al3 Er0 3.246186 1_555
Al4 Ni2 2.597627 1_556
Al4 Ni2 2.597627 1_456
Al4 Al5 2.728596 1_556
Al4 Ge4 2.767891 1_565
Al4 Ge5 2.771663 1_555
Al4 Er1 3.174714 1_565
Al4 Er1 3.174714 1_465
Al4 Er6 3.218678 1_555
Al4 Er6 3.218678 1_455
Al4 Er3 3.220700 1_466
Al4 Er3 3.220700 1_566
Al5 Ni2 2.597627 1_455
Al5 Ni2 2.597627 1_555
Al5 Ge3 2.767891 1_565
Al5 Ge2 2.771663 1_555
Al5 Er8 3.174714 1_565
Al5 Er8 3.174714 1_465
Al5 Er9 3.218678 1_555
Al5 Er9 3.218678 1_455
Al5 Er3 3.220700 1_465
Al5 Er3 3.220700 1_565
Ge0 Ni1 2.444871 1_555
Ge1 Ni3 2.430187 1_555
Ge1 Ni3 2.430187 1_655
Ge1 Ni5 2.538379 1_555
Ge2 Ni5 2.430187 1_455
Ge2 Ni5 2.430187 1_555
Ge2 Ni3 2.538379 1_555
Ge3 Ni3 2.444871 1_555
Ge4 Ni0 2.444871 1_555
Ge5 Ni1 2.430187 1_555
Ge5 Ni1 2.430187 1_455
Ge5 Ni0 2.538379 1_555
Ge6 Ni0 2.430187 1_655
Ge6 Ni0 2.430187 1_555
Ge6 Ni1 2.538379 1_555
Ge7 Ni5 2.444871 1_555
