# generated using pymatgen
data_Ca16MgAl14Si9O56
_symmetry_space_group_name_H-M   'P 1'
_cell_length_a   6.89535500
_cell_length_b   7.03268608
_cell_length_c   26.95534600
_cell_angle_alpha   91.64007104
_cell_angle_beta   91.84449417
_cell_angle_gamma   90.50120594
_symmetry_Int_Tables_number   1
_chemical_formula_structural   Ca16MgAl14Si9O56
_chemical_formula_sum   'Ca16 Mg1 Al14 Si9 O56'
_cell_volume   1305.86837669
_cell_formula_units_Z   1
loop_
 _symmetry_equiv_pos_site_id
 _symmetry_equiv_pos_as_xyz
  1  'x, y, z'
loop_
 _atom_site_type_symbol
 _atom_site_label
 _atom_site_symmetry_multiplicity
 _atom_site_fract_x
 _atom_site_fract_y
 _atom_site_fract_z
 _atom_site_occupancy
  Ca  Ca0  1  0.20256700  0.09785500  0.17341000  1
  Ca  Ca1  1  0.31891800  0.33120500  0.42145900  1
  Ca  Ca2  1  0.30401700  0.68448500  0.02545900  1
  Ca  Ca3  1  0.28687000  0.69595700  0.77732400  1
  Ca  Ca4  1  0.47666600  0.12974000  0.73109900  1
  Ca  Ca5  1  0.22871900  0.54834700  0.29798200  1
  Ca  Ca6  1  0.47796700  0.10745600  0.97084400  1
  Ca  Ca7  1  0.28589600  0.62980000  0.53895800  1
  Ca  Ca8  1  0.74247800  0.30075400  0.09704200  1
  Ca  Ca9  1  0.58489600  0.09026000  0.32585800  1
  Ca  Ca10  1  0.62410000  0.78271600  0.44889100  1
  Ca  Ca11  1  0.70581600  0.18592000  0.84997700  1
  Ca  Ca12  1  0.53236500  0.60212900  0.65558700  1
  Ca  Ca13  1  0.51010200  0.66133000  0.19635100  1
  Ca  Ca14  1  0.51773400  0.61976800  0.89028100  1
  Ca  Ca15  1  0.70129300  0.19846300  0.59473200  1
  Mg  Mg0  1  0.95606100  0.91473400  0.24932900  1
  Al  Al0  1  0.97258300  0.01853900  0.98785400  1
  Al  Al1  1  0.10338600  0.62195000  0.13001600  1
  Al  Al2  1  0.05649600  0.94229000  0.48777300  1
  Al  Al3  1  0.97964300  0.00973800  0.74696800  1
  Al  Al4  1  0.01568300  0.51042900  0.87989300  1
  Al  Al5  1  0.80763300  0.29898300  0.47120500  1
  Al  Al6  1  0.80979600  0.37815800  0.72251900  1
  Al  Al7  1  0.78917500  0.39578000  0.97064600  1
  Al  Al8  1  0.51441500  0.93246300  0.11500600  1
  Al  Al9  1  0.19389600  0.88078100  0.90420200  1
  Al  Al10  1  0.24425600  0.81472800  0.39830800  1
  Al  Al11  1  0.21604200  0.88727100  0.65750700  1
  Al  Al12  1  0.92046100  0.46462600  0.38602300  1
  Al  Al13  1  0.03252700  0.50356500  0.64039600  1
  Si  Si0  1  0.78573200  0.71866500  0.04995400  1
  Si  Si1  1  0.91986700  0.39143800  0.21159100  1
  Si  Si2  1  0.72226100  0.63143600  0.29522800  1
  Si  Si3  1  0.78896800  0.62940500  0.55127700  1
  Si  Si4  1  0.74597700  0.69584300  0.79681100  1
  Si  Si5  1  0.19367400  0.22389100  0.06927000  1
  Si  Si6  1  0.09206700  0.10750200  0.34667100  1
  Si  Si7  1  0.25259400  0.19751900  0.83089200  1
  Si  Si8  1  0.24571700  0.19890700  0.57963900  1
  O  O0  1  0.68376400  0.53293700  0.01967600  1
  O  O1  1  0.53223200  0.50861800  0.27591000  1
  O  O2  1  0.78709200  0.40394500  0.53182200  1
  O  O3  1  0.66504600  0.56148600  0.74965600  1
  O  O4  1  0.22027900  0.81941700  0.21934700  1
  O  O5  1  0.08794000  0.90998500  0.31532400  1
  O  O6  1  0.16016500  0.58707000  0.37647100  1
  O  O7  1  0.19257800  0.13829200  0.01078800  1
  O  O8  1  0.39307500  0.83693500  0.70496300  1
  O  O9  1  0.17304000  0.45454700  0.07131800  1
  O  O10  1  0.31884400  0.75489900  0.11583300  1
  O  O11  1  0.25273300  0.78856600  0.46498600  1
  O  O12  1  0.28398800  0.23994800  0.33549800  1
  O  O13  1  0.42436000  0.34458300  0.81605700  1
  O  O14  1  0.19756200  0.67444500  0.86397100  1
  O  O15  1  0.20559900  0.06847400  0.77916000  1
  O  O16  1  0.41439700  0.36157600  0.57564200  1
  O  O17  1  0.21673500  0.66405700  0.62457400  1
  O  O18  1  0.18842400  0.11235100  0.52453200  1
  O  O19  1  0.37064900  0.81260800  0.95000100  1
  O  O20  1  0.02287200  0.12814400  0.10048400  1
  O  O21  1  0.04452200  0.80774500  0.18252300  1
  O  O22  1  0.89640200  0.24557800  0.34657300  1
  O  O23  1  0.05040000  0.28686300  0.60574500  1
  O  O24  1  0.11840400  0.03648900  0.40555200  1
  O  O25  1  0.04894800  0.29213000  0.84752200  1
  O  O26  1  0.00643900  0.97430900  0.68383100  1
  O  O27  1  0.97055100  0.96614000  0.92362500  1
  O  O28  1  0.96921700  0.80243500  0.02001300  1
  O  O29  1  0.11827100  0.44165100  0.17816000  1
  O  O30  1  0.01340900  0.40042700  0.44550300  1
  O  O31  1  0.91472100  0.54787600  0.26160900  1
  O  O32  1  0.97106400  0.74789100  0.52818400  1
  O  O33  1  0.03440200  0.46723600  0.70478200  1
  O  O34  1  0.94495700  0.80035500  0.78033900  1
  O  O35  1  0.99346600  0.48497200  0.94318100  1
  O  O36  1  0.78771300  0.17681600  0.00246900  1
  O  O37  1  0.97328000  0.18445400  0.23218300  1
  O  O38  1  0.77697200  0.63001200  0.35383600  1
  O  O39  1  0.86105400  0.64134200  0.10358700  1
  O  O40  1  0.72294100  0.41529700  0.17849900  1
  O  O41  1  0.69248000  0.84596300  0.27267500  1
  O  O42  1  0.79858000  0.17634300  0.76144000  1
  O  O43  1  0.79695800  0.56541100  0.84591100  1
  O  O44  1  0.60784400  0.34617600  0.92391500  1
  O  O45  1  0.57518100  0.83746700  0.81518500  1
  O  O46  1  0.60284200  0.86698000  0.05306300  1
  O  O47  1  0.82059300  0.04461700  0.47475300  1
  O  O48  1  0.81737300  0.61005200  0.61269900  1
  O  O49  1  0.63328400  0.41356700  0.43233600  1
  O  O50  1  0.64401100  0.30780100  0.67367500  1
  O  O51  1  0.59097100  0.74043000  0.53764800  1
  O  O52  1  0.40814900  0.16689800  0.09445200  1
  O  O53  1  0.47491500  0.88896400  0.38127000  1
  O  O54  1  0.33768400  0.03711500  0.61662000  1
  O  O55  1  0.33131300  0.06449400  0.87640100  1
loop_
_geom_bond_atom_site_label_1
_geom_bond_atom_site_label_2
_geom_bond_distance
_geom_bond_site_symmetry_2
Ca0 O20 2.305774 1_555
Ca0 O21 2.327575 1_545
Ca0 O37 2.345892 1_455
Ca0 O4 2.348581 1_545
Ca0 O29 2.492329 1_555
Ca0 O52 2.648851 1_555
Ca1 O49 2.246695 1_555
Ca1 O30 2.276521 1_555
Ca1 O12 2.390635 1_555
Ca1 O6 2.445538 1_555
Ca1 O24 2.500433 1_555
Ca2 O9 2.262608 1_555
Ca2 O19 2.306068 1_554
Ca2 O28 2.461251 1_455
Ca2 O10 2.470649 1_555
Ca2 O46 2.499379 1_555
Ca2 O0 2.842937 1_555
Ca3 O8 2.348134 1_555
Ca3 O45 2.400159 1_555
Ca3 O14 2.443015 1_555
Ca3 O34 2.478545 1_455
Ca3 O15 2.683256 1_565
Ca3 O13 2.867080 1_555
Ca3 O3 2.894546 1_555
Ca3 O33 2.998888 1_555
Ca4 O8 2.222371 1_545
Ca4 O50 2.344400 1_555
Ca4 O15 2.351861 1_555
Ca4 O42 2.357643 1_555
Ca4 O13 2.742634 1_555
Ca5 O6 2.192588 1_555
Ca5 O1 2.211978 1_555
Ca5 O31 2.347786 1_455
Ca5 O12 2.446853 1_555
Ca5 O5 2.762874 1_555
Ca5 O4 2.890623 1_555
Ca6 O19 2.245587 1_545
Ca6 O7 2.282385 1_556
Ca6 O36 2.316694 1_556
Ca6 O44 2.321400 1_555
Ca6 O55 2.716541 1_555
Ca6 O46 2.937764 1_546
Ca7 O51 2.238175 1_555
Ca7 O11 2.318907 1_555
Ca7 O16 2.323953 1_555
Ca7 O32 2.343404 1_455
Ca7 O17 2.377494 1_555
Ca8 O20 2.292651 1_655
Ca8 O40 2.325479 1_555
Ca8 O52 2.480614 1_555
Ca8 O39 2.523710 1_555
Ca8 O36 2.698967 1_555
Ca8 O0 2.707640 1_555
Ca9 O53 2.232787 1_545
Ca9 O41 2.346687 1_545
Ca9 O12 2.353307 1_555
Ca9 O22 2.442419 1_555
Ca10 O53 2.215767 1_555
Ca10 O47 2.352916 1_565
Ca10 O51 2.437064 1_555
Ca10 O11 2.611412 1_555
Ca10 O49 2.623225 1_555
Ca10 O38 2.977530 1_555
Ca11 O44 2.381204 1_555
Ca11 O13 2.414453 1_555
Ca11 O25 2.478372 1_655
Ca11 O42 2.489799 1_555
Ca11 O45 2.733425 1_545
Ca11 O43 2.742538 1_555
Ca11 O55 2.831896 1_555
Ca11 O27 3.107092 1_545
Ca12 O50 2.275173 1_555
Ca12 O48 2.312950 1_555
Ca12 O8 2.324859 1_555
Ca12 O17 2.354879 1_555
Ca12 O3 2.691657 1_555
Ca12 O16 2.796753 1_555
Ca13 O40 2.328408 1_555
Ca13 O4 2.386038 1_555
Ca13 O1 2.426809 1_555
Ca13 O10 2.606819 1_555
Ca13 O41 2.674339 1_555
Ca14 O44 2.234867 1_555
Ca14 O43 2.327763 1_555
Ca14 O14 2.335472 1_555
Ca14 O19 2.337393 1_555
Ca14 O45 2.610909 1_555
Ca14 O13 2.799367 1_555
Ca15 O50 2.289355 1_555
Ca15 O16 2.345658 1_555
Ca15 O2 2.346017 1_555
Ca15 O23 2.487281 1_655
Ca15 O54 2.829409 1_555
Mg0 O37 1.968640 1_565
Mg0 O5 1.972913 1_655
Mg0 O41 2.002211 1_555
Mg0 O21 2.045039 1_655
Mg0 O4 2.122939 1_655
Mg0 O31 2.624748 1_555
Al0 O36 1.746780 1_556
Al0 O27 1.759339 1_545
Al0 O28 1.771394 1_546
Al0 O7 1.811087 1_656
Al1 O39 1.803097 1_455
Al1 O10 1.805621 1_555
Al1 O29 1.841288 1_555
Al1 O21 1.953368 1_555
Al1 O9 2.017998 1_555
Al2 O18 1.759208 1_565
Al2 O47 1.812504 1_465
Al2 O11 1.848803 1_555
Al2 O32 1.874869 1_455
Al2 O24 2.381818 1_565
Al3 O26 1.728985 1_645
Al3 O42 1.764803 1_555
Al3 O34 1.765840 1_545
Al3 O15 1.797863 1_655
Al4 O35 1.731939 1_455
Al4 O25 1.764450 1_555
Al4 O14 1.767822 1_555
Al4 O43 1.790178 1_455
Al5 O30 1.753879 1_655
Al5 O49 1.782295 1_555
Al5 O2 1.783938 1_555
Al5 O47 1.797011 1_555
Al6 O33 1.751417 1_655
Al6 O50 1.772284 1_555
Al6 O3 1.791389 1_555
Al6 O42 1.791538 1_555
Al7 O35 1.733239 1_555
Al7 O44 1.771326 1_555
Al7 O36 1.784132 1_556
Al7 O0 1.790681 1_556
Al8 O10 1.830979 1_555
Al8 O46 1.843414 1_555
Al8 O52 1.899841 1_565
Al9 O27 1.748226 1_455
Al9 O19 1.785099 1_555
Al9 O14 1.787361 1_555
Al9 O55 1.791194 1_565
Al10 O53 1.749092 1_555
Al10 O6 1.775918 1_555
Al10 O24 1.800174 1_565
Al10 O11 1.811081 1_555
Al11 O26 1.738868 1_555
Al11 O54 1.771789 1_565
Al11 O17 1.781280 1_555
Al11 O8 1.784581 1_555
Al12 O38 1.762707 1_555
Al12 O30 1.779197 1_655
Al12 O22 1.849823 1_555
Al12 O6 1.885440 1_655
Al12 O49 2.404349 1_555
Al13 O33 1.761125 1_555
Al13 O17 1.762536 1_555
Al13 O23 1.771830 1_555
Al13 O48 1.816403 1_455
O0 Si0 1.659068 1_555
O1 Si2 1.626242 1_555
O2 Si3 1.655561 1_555
O3 Si4 1.642024 1_555
O5 Si6 1.604645 1_565
O7 Si5 1.671026 1_555
O9 Si5 1.629116 1_555
O12 Si6 1.652194 1_555
O13 Si7 1.632512 1_555
O15 Si7 1.663265 1_555
O16 Si8 1.632485 1_555
O18 Si8 1.624612 1_555
O20 Si5 1.621961 1_555
O21 O4 1.541712 1_555
O22 Si6 1.669149 1_655
O23 Si8 1.655988 1_555
O24 Si6 1.682221 1_555
O25 Si7 1.629498 1_555
O28 Si0 1.636783 1_555
O29 Si1 1.702202 1_455
O31 Si1 1.717060 1_555
O31 Si2 1.728662 1_555
O32 Si3 1.649273 1_555
O34 Si4 1.630984 1_555
O37 Si1 1.614044 1_555
O38 Si2 1.612696 1_555
O39 Si0 1.630060 1_555
O40 Si1 1.613145 1_555
O41 Si2 1.654631 1_555
O43 Si4 1.661881 1_555
O45 Si4 1.629146 1_555
O46 Si0 1.646252 1_555
O48 Si3 1.670496 1_555
O51 Si3 1.615962 1_555
O52 Si5 1.664277 1_555
O54 Si8 1.651466 1_555
O55 Si7 1.645102 1_555
