# generated using pymatgen
data_LiCr2(PO4)3
_symmetry_space_group_name_H-M   'P 1'
_cell_length_a   9.73373200
_cell_length_b   9.74222233
_cell_length_c   9.79997168
_cell_angle_alpha   85.07970304
_cell_angle_beta   84.89403390
_cell_angle_gamma   85.33660409
_symmetry_Int_Tables_number   1
_chemical_formula_structural   LiCr2(PO4)3
_chemical_formula_sum   'Li4 Cr8 P12 O48'
_cell_volume   919.67020646
_cell_formula_units_Z   4
loop_
 _symmetry_equiv_pos_site_id
 _symmetry_equiv_pos_as_xyz
  1  'x, y, z'
loop_
 _atom_site_type_symbol
 _atom_site_label
 _atom_site_symmetry_multiplicity
 _atom_site_fract_x
 _atom_site_fract_y
 _atom_site_fract_z
 _atom_site_occupancy
  Li  Li0  1  0.98771700  0.24100500  0.52885800  1
  Li  Li1  1  0.48746000  0.73697000  0.03426400  1
  Li  Li2  1  0.02639800  0.37909900  0.26051300  1
  Li  Li3  1  0.62037800  0.81365600  0.75763500  1
  Cr  Cr0  1  0.74945200  0.22350000  0.02244900  1
  Cr  Cr1  1  0.52711100  0.00162600  0.46730500  1
  Cr  Cr2  1  0.47703800  0.50037000  0.52419900  1
  Cr  Cr3  1  0.02938900  0.72544900  0.75029400  1
  Cr  Cr4  1  0.24911100  0.27520800  0.96658500  1
  Cr  Cr5  1  0.25088800  0.50017800  0.74858300  1
  Cr  Cr6  1  0.97765000  0.77948100  0.25123000  1
  Cr  Cr7  1  0.75075600  0.00060800  0.24893800  1
  P  P0  1  0.18313600  0.58890100  0.04902300  1
  P  P1  1  0.84321500  0.93581900  0.54859800  1
  P  P2  1  0.54778300  0.43140600  0.84080100  1
  P  P3  1  0.31498500  0.20379600  0.64959400  1
  P  P4  1  0.95141600  0.40917200  0.81611800  1
  P  P5  1  0.82612600  0.90409400  0.95472200  1
  P  P6  1  0.66014200  0.70234600  0.31914400  1
  P  P7  1  0.45185700  0.06447600  0.15298600  1
  P  P8  1  0.68659100  0.29913600  0.33657400  1
  P  P9  1  0.04771800  0.09886600  0.17450200  1
  P  P10  1  0.34865300  0.79782100  0.67845100  1
  P  P11  1  0.15901900  0.57612300  0.45204300  1
  O  O0  1  0.60493700  0.65799400  0.19340800  1
  O  O1  1  0.55220600  0.36969700  0.40182400  1
  O  O2  1  0.11459600  0.14630600  0.03231300  1
  O  O3  1  0.08229800  0.17745500  0.29113900  1
  O  O4  1  0.82159500  0.67717800  0.32243000  1
  O  O5  1  0.18827300  0.82754900  0.69336900  1
  O  O6  1  0.89724900  0.06510900  0.58771900  1
  O  O7  1  0.40082000  0.86522700  0.53807200  1
  O  O8  1  0.92652100  0.57017100  0.82154000  1
  O  O9  1  0.07836100  0.93869300  0.19266900  1
  O  O10  1  0.87817300  0.92151300  0.38674200  1
  O  O11  1  0.67678400  0.32271500  0.17624000  1
  O  O12  1  0.17109400  0.42889700  0.07988000  1
  O  O13  1  0.83625100  0.87116300  0.11666700  1
  O  O14  1  0.11399100  0.37122600  0.82835800  1
  O  O15  1  0.90744000  0.35620600  0.68903700  1
  O  O16  1  0.31027400  0.16794500  0.80798600  1
  O  O17  1  0.42192800  0.83381600  0.79826400  1
  O  O18  1  0.32141000  0.56834300  0.42541200  1
  O  O19  1  0.41338100  0.93343500  0.09829600  1
  O  O20  1  0.57399000  0.42919700  0.67951600  1
  O  O21  1  0.70044900  0.84117500  0.91514100  1
  O  O22  1  0.58961200  0.56241400  0.89034100  1
  O  O23  1  0.17050000  0.62649600  0.88736700  1
  O  O24  1  0.33075500  0.36652300  0.61781900  1
  O  O25  1  0.61506600  0.07854600  0.11929000  1
  O  O26  1  0.68311500  0.92706000  0.58282700  1
  O  O27  1  0.31340900  0.63972800  0.08992900  1
  O  O28  1  0.88261900  0.34601200  0.95429900  1
  O  O29  1  0.96543100  0.85069700  0.88604100  1
  O  O30  1  0.82153300  0.34129500  0.37764400  1
  O  O31  1  0.41699700  0.06574000  0.31091900  1
  O  O32  1  0.62233200  0.86498900  0.33109100  1
  O  O33  1  0.61663700  0.29392200  0.89966300  1
  O  O34  1  0.09897600  0.45099300  0.40829300  1
  O  O35  1  0.45190100  0.13552500  0.58902300  1
  O  O36  1  0.38088400  0.63335900  0.66672100  1
  O  O37  1  0.10488700  0.71568200  0.38436800  1
  O  O38  1  0.67029900  0.13704600  0.37700800  1
  O  O39  1  0.88303300  0.12922500  0.16317200  1
  O  O40  1  0.12318100  0.58495600  0.61416600  1
  O  O41  1  0.90879800  0.79983000  0.61969700  1
  O  O42  1  0.18598900  0.16651400  0.59047700  1
  O  O43  1  0.04742800  0.65432500  0.12165200  1
  O  O44  1  0.59962400  0.63458900  0.45850700  1
  O  O45  1  0.81544000  0.06569900  0.92445300  1
  O  O46  1  0.38327400  0.19821000  0.08623700  1
  O  O47  1  0.38477000  0.41657900  0.87718600  1
loop_
_geom_bond_atom_site_label_1
_geom_bond_atom_site_label_2
_geom_bond_distance
_geom_bond_site_symmetry_2
Li0 O6 2.007501 1_555
Li0 O15 2.067743 1_555
Li0 O42 2.126135 1_655
Li0 O30 2.385067 1_555
Li0 O3 2.535954 1_655
Li0 O34 2.543970 1_655
Li1 O27 2.018188 1_555
Li1 O0 2.073754 1_555
Li1 O19 2.116176 1_555
Li1 O22 2.399334 1_554
Li1 O21 2.529751 1_554
Li1 O17 2.537024 1_554
Li2 O34 1.877130 1_555
Li2 O3 1.999843 1_555
Li2 O12 2.207409 1_555
Li2 O30 2.251483 1_455
Li3 O21 1.838745 1_555
Li3 O17 1.934746 1_555
Li3 O26 2.031526 1_555
Cr0 O28 1.873894 1_554
Cr0 O33 1.892345 1_554
Cr0 O11 1.911818 1_555
Cr0 O45 1.918630 1_554
Cr0 O39 2.084168 1_555
Cr0 O25 2.110800 1_555
Cr1 O35 1.901746 1_555
Cr1 O7 1.927088 1_545
Cr1 O31 1.976627 1_555
Cr1 O26 2.025040 1_545
Cr1 O32 2.072904 1_545
Cr1 O38 2.084547 1_555
Cr2 O44 1.876323 1_555
Cr2 O1 1.883742 1_555
Cr2 O20 1.912168 1_555
Cr2 O18 1.912708 1_555
Cr2 O36 2.094264 1_555
Cr2 O24 2.105629 1_555
Cr3 O41 1.873744 1_455
Cr3 O29 1.911466 1_455
Cr3 O5 1.921913 1_555
Cr3 O8 1.928515 1_455
Cr3 O40 2.092795 1_555
Cr3 O23 2.124005 1_555
Cr4 O46 1.898799 1_556
Cr4 O2 1.919572 1_556
Cr4 O16 1.968478 1_555
Cr4 O12 2.000363 1_556
Cr4 O47 2.071444 1_555
Cr4 O14 2.083156 1_555
Cr5 O36 1.958536 1_555
Cr5 O14 1.970619 1_555
Cr5 O24 1.971377 1_555
Cr5 O47 1.973227 1_555
Cr5 O40 1.974966 1_555
Cr5 O23 1.979296 1_555
Cr6 O43 1.880949 1_655
Cr6 O37 1.909422 1_655
Cr6 O9 1.921089 1_655
Cr6 O4 1.930225 1_555
Cr6 O13 2.086197 1_555
Cr6 O10 2.117620 1_555
Cr7 O39 1.955332 1_555
Cr7 O32 1.965551 1_545
Cr7 O13 1.969997 1_545
Cr7 O38 1.974159 1_555
Cr7 O25 1.976205 1_555
Cr7 O10 1.979892 1_545
O0 P6 1.496905 1_555
O1 P8 1.540387 1_555
O2 P9 1.534944 1_555
O3 P9 1.505501 1_555
O4 P6 1.573497 1_555
O5 P10 1.560575 1_555
O6 P1 1.495520 1_545
O7 P10 1.535110 1_555
O8 P4 1.572228 1_555
O9 P9 1.562611 1_565
O10 P1 1.607896 1_555
O11 P8 1.578601 1_555
O12 P0 1.574028 1_555
O13 P5 1.602106 1_554
O14 P4 1.608195 1_455
O15 P4 1.497173 1_555
O16 P3 1.558995 1_555
O17 P10 1.506886 1_555
O18 P11 1.575709 1_555
O19 P7 1.512661 1_565
O20 P2 1.580180 1_555
O21 P5 1.506602 1_555
O22 P2 1.502136 1_555
O23 P0 1.608373 1_556
O24 P3 1.606286 1_555
O25 P7 1.608059 1_555
O26 P1 1.572256 1_555
O27 P0 1.496815 1_555
O28 P4 1.556754 1_555
O29 P5 1.531397 1_555
O30 P8 1.505363 1_555
O31 P7 1.555601 1_555
O32 P6 1.609081 1_555
O33 P2 1.538256 1_555
O34 P11 1.503854 1_555
O35 P3 1.534148 1_555
O36 P10 1.619323 1_555
O37 P11 1.535275 1_555
O38 P8 1.611822 1_555
O39 P9 1.618137 1_655
O40 P11 1.604151 1_555
O41 P1 1.559324 1_555
O42 P3 1.511243 1_555
O43 P0 1.559268 1_555
O44 P6 1.553510 1_555
O45 P5 1.573618 1_545
O46 P7 1.536591 1_555
O47 P2 1.610413 1_555
