# generated using pymatgen
data_Ni3(BiS)2
_symmetry_space_group_name_H-M   'P 1'
_cell_length_a   6.91869669
_cell_length_b   6.91869716
_cell_length_c   6.91869896
_cell_angle_alpha   109.47122278
_cell_angle_beta   109.47122424
_cell_angle_gamma   109.47121998
_symmetry_Int_Tables_number   1
_chemical_formula_structural   Ni3(BiS)2
_chemical_formula_sum   'Ni6 Bi4 S4'
_cell_volume   254.94771854
_cell_formula_units_Z   2
loop_
 _symmetry_equiv_pos_site_id
 _symmetry_equiv_pos_as_xyz
  1  'x, y, z'
loop_
 _atom_site_type_symbol
 _atom_site_label
 _atom_site_symmetry_multiplicity
 _atom_site_fract_x
 _atom_site_fract_y
 _atom_site_fract_z
 _atom_site_occupancy
  Ni  Ni0  1  0.51862349  0.26862349  0.25000000  1
  Ni  Ni1  1  0.98137651  0.23137551  0.75000000  1
  Ni  Ni2  1  0.75000000  0.98137651  0.23137551  1
  Ni  Ni3  1  0.23137551  0.75000000  0.98137651  1
  Ni  Ni4  1  0.25000000  0.51862349  0.26862349  1
  Ni  Ni5  1  0.26862349  0.25000000  0.51862349  1
  Bi  Bi0  1  0.00753304  0.00753304  0.00753304  1
  Bi  Bi1  1  0.49246696  0.50000000  0.00000000  1
  Bi  Bi2  1  0.00000000  0.49246696  0.50000000  1
  Bi  Bi3  1  0.50000000  -0.00000000  0.49246696  1
  S  S0  1  -0.00000000  0.96108610  0.50000000  1
  S  S1  1  0.96108610  0.50000000  -0.00000000  1
  S  S2  1  0.50000000  0.00000000  0.96108610  1
  S  S3  1  0.53891390  0.53891390  0.53891390  1
loop_
_geom_bond_atom_site_label_1
_geom_bond_atom_site_label_2
_geom_bond_distance
_geom_bond_site_symmetry_2
Ni0 S3 2.158313 1_555
Ni0 S2 2.158313 1_554
Ni1 S0 2.158309 1_645
Ni1 S1 2.158317 1_556
Ni2 S2 2.158309 1_564
Ni2 S0 2.158317 1_655
Ni3 S1 2.158309 1_456
Ni3 S2 2.158317 1_565
Ni4 S1 2.158313 1_455
Ni4 S3 2.158313 1_555
Ni5 S3 2.158313 1_555
Ni5 S0 2.158313 1_545
Bi0 Ni3 2.723512 1_544
Bi0 Ni2 2.723513 1_445
Bi0 Ni1 2.723513 1_454
Bi0 Ni0 2.889270 1_555
Bi0 Ni4 2.889270 1_555
Bi0 Ni5 2.889271 1_555
Bi0 S3 3.242234 1_444
Bi1 Ni2 2.723518 1_555
Bi1 Ni0 2.723519 1_555
Bi1 Ni5 2.723519 1_554
Bi1 Ni1 2.889270 1_454
Bi1 Ni4 2.889270 1_555
Bi1 Ni3 2.889276 1_554
Bi1 S1 3.242234 1_555
Bi2 Ni0 2.723518 1_455
Bi2 Ni4 2.723518 1_555
Bi2 Ni3 2.723519 1_555
Bi2 Ni5 2.889270 1_555
Bi2 Ni2 2.889270 1_445
Bi2 Ni1 2.889276 1_455
Bi2 S0 3.242234 1_555
Bi3 Ni4 2.723518 1_545
Bi3 Ni5 2.723518 1_555
Bi3 Ni1 2.723518 1_555
Bi3 Ni0 2.889271 1_555
Bi3 Ni3 2.889271 1_544
Bi3 Ni2 2.889276 1_545
Bi3 S2 3.242235 1_555
