# generated using pymatgen
data_Yb4Cu2Sn5
_symmetry_space_group_name_H-M   'P 1'
_cell_length_a   4.42307700
_cell_length_b   8.96169900
_cell_length_c   13.98307400
_cell_angle_alpha   90.00000000
_cell_angle_beta   90.00000000
_cell_angle_gamma   90.00000000
_symmetry_Int_Tables_number   1
_chemical_formula_structural   Yb4Cu2Sn5
_chemical_formula_sum   'Yb8 Cu4 Sn10'
_cell_volume   554.26506858
_cell_formula_units_Z   2
loop_
 _symmetry_equiv_pos_site_id
 _symmetry_equiv_pos_as_xyz
  1  'x, y, z'
loop_
 _atom_site_type_symbol
 _atom_site_label
 _atom_site_symmetry_multiplicity
 _atom_site_fract_x
 _atom_site_fract_y
 _atom_site_fract_z
 _atom_site_occupancy
  Yb  Yb0  1  0.50000000  0.79426500  0.74128000  1
  Yb  Yb1  1  0.50000000  0.69988700  0.00000000  1
  Yb  Yb2  1  0.00000000  0.20573500  0.75872000  1
  Yb  Yb3  1  0.00000000  0.30011300  0.50000000  1
  Yb  Yb4  1  0.00000000  0.20573500  0.24128000  1
  Yb  Yb5  1  0.50000000  0.13433800  0.00000000  1
  Yb  Yb6  1  0.00000000  0.86566200  0.50000000  1
  Yb  Yb7  1  0.50000000  0.79426500  0.25872000  1
  Cu  Cu0  1  0.50000000  0.37803900  0.64362300  1
  Cu  Cu1  1  0.00000000  0.62196100  0.85637700  1
  Cu  Cu2  1  0.00000000  0.62196100  0.14362300  1
  Cu  Cu3  1  0.50000000  0.37803900  0.35637700  1
  Sn  Sn0  1  0.50000000  0.08524000  0.39523200  1
  Sn  Sn1  1  0.00000000  0.55653400  0.66368500  1
  Sn  Sn2  1  0.00000000  0.40444400  0.00000000  1
  Sn  Sn3  1  0.50000000  0.44346600  0.16368500  1
  Sn  Sn4  1  0.50000000  0.59555600  0.50000000  1
  Sn  Sn5  1  0.50000000  0.44346600  0.83631500  1
  Sn  Sn6  1  0.00000000  0.91476000  0.89523200  1
  Sn  Sn7  1  0.00000000  0.55653400  0.33631500  1
  Sn  Sn8  1  0.50000000  0.08524000  0.60476800  1
  Sn  Sn9  1  0.00000000  0.91476000  0.10476800  1
loop_
_geom_bond_atom_site_label_1
_geom_bond_atom_site_label_2
_geom_bond_distance
_geom_bond_site_symmetry_2
Cu0 Sn8 2.679634 1_555
Cu0 Sn1 2.743789 1_655
Cu0 Sn1 2.743789 1_555
Cu0 Sn5 2.757485 1_555
Cu0 Sn4 2.798766 1_555
Cu0 Yb3 3.067870 1_655
Cu0 Yb3 3.067870 1_555
Cu0 Yb2 3.140933 1_555
Cu0 Yb2 3.140933 1_655
Cu1 Sn6 2.679634 1_555
Cu1 Sn5 2.743789 1_455
Cu1 Sn5 2.743789 1_555
Cu1 Sn1 2.757485 1_555
Cu1 Sn2 2.798766 1_556
Cu1 Yb1 3.067870 1_456
Cu1 Yb1 3.067870 1_556
Cu1 Yb0 3.140933 1_455
Cu1 Yb0 3.140933 1_555
Cu2 Sn9 2.679634 1_555
Cu2 Sn3 2.743789 1_555
Cu2 Sn3 2.743789 1_455
Cu2 Sn7 2.757485 1_555
Cu2 Sn2 2.798766 1_555
Cu2 Yb1 3.067870 1_555
Cu2 Yb1 3.067870 1_455
Cu2 Yb7 3.140933 1_455
Cu2 Yb7 3.140933 1_555
Cu3 Sn0 2.679634 1_555
Cu3 Sn7 2.743789 1_655
Cu3 Sn7 2.743789 1_555
Cu3 Sn3 2.757485 1_555
Cu3 Sn4 2.798766 1_555
Cu3 Yb3 3.067870 1_555
Cu3 Yb3 3.067870 1_655
Cu3 Yb4 3.140933 1_655
Cu3 Yb4 3.140933 1_555
Sn0 Sn8 2.929957 1_555
Sn0 Yb7 3.231636 1_545
Sn0 Yb4 3.269735 1_555
Sn0 Yb4 3.269735 1_655
Sn0 Yb3 3.277973 1_555
Sn0 Yb3 3.277973 1_655
Sn0 Yb6 3.302918 1_645
Sn0 Yb6 3.302918 1_545
Sn1 Sn4 3.201857 1_455
Sn1 Sn4 3.201857 1_555
Sn1 Yb3 3.243355 1_555
Sn1 Yb0 3.256851 1_455
Sn1 Yb0 3.256851 1_555
Sn1 Yb2 3.413081 1_555
Sn1 Yb6 3.593511 1_555
Sn2 Sn5 3.201857 1_554
Sn2 Sn3 3.201857 1_455
Sn2 Sn5 3.201857 1_454
Sn2 Sn3 3.201857 1_555
Sn2 Yb5 3.278757 1_455
Sn2 Yb5 3.278757 1_555
Sn2 Yb1 3.449792 1_555
Sn2 Yb1 3.449792 1_455
Sn2 Yb4 3.814959 1_555
Sn2 Yb2 3.814959 1_554
Sn3 Yb1 3.243355 1_555
Sn3 Yb4 3.256851 1_555
Sn3 Yb4 3.256851 1_655
Sn3 Yb7 3.413081 1_555
Sn3 Yb5 3.593511 1_555
Sn4 Sn7 3.201857 1_555
Sn4 Sn7 3.201857 1_655
Sn4 Yb6 3.278757 1_555
Sn4 Yb6 3.278757 1_655
Sn4 Yb3 3.449792 1_655
Sn4 Yb3 3.449792 1_555
Sn4 Yb7 3.814959 1_555
Sn4 Yb0 3.814959 1_555
Sn5 Yb1 3.243355 1_556
Sn5 Yb2 3.256851 1_555
Sn5 Yb2 3.256851 1_655
Sn5 Yb0 3.413081 1_555
Sn5 Yb5 3.593511 1_556
Sn6 Sn9 2.929957 1_556
Sn6 Yb2 3.231636 1_565
Sn6 Yb0 3.269735 1_555
Sn6 Yb0 3.269735 1_455
Sn6 Yb1 3.277973 1_556
Sn6 Yb1 3.277973 1_456
Sn6 Yb5 3.302918 1_466
Sn6 Yb5 3.302918 1_566
Sn7 Yb3 3.243355 1_555
Sn7 Yb7 3.256851 1_555
Sn7 Yb7 3.256851 1_455
Sn7 Yb4 3.413081 1_555
Sn7 Yb6 3.593511 1_555
Sn8 Yb0 3.231636 1_545
Sn8 Yb2 3.269735 1_655
Sn8 Yb2 3.269735 1_555
Sn8 Yb3 3.277973 1_555
Sn8 Yb3 3.277973 1_655
Sn8 Yb6 3.302918 1_645
Sn8 Yb6 3.302918 1_545
Sn9 Yb4 3.231636 1_565
Sn9 Yb7 3.269735 1_555
Sn9 Yb7 3.269735 1_455
Sn9 Yb1 3.277973 1_455
Sn9 Yb1 3.277973 1_555
Sn9 Yb5 3.302918 1_565
Sn9 Yb5 3.302918 1_465
