# generated using pymatgen
data_SrLa11Mg3Ga9O34
_symmetry_space_group_name_H-M   'P 1'
_cell_length_a   5.57758600
_cell_length_b   5.58448658
_cell_length_c   27.37179930
_cell_angle_alpha   89.62915879
_cell_angle_beta   89.67355726
_cell_angle_gamma   60.51724166
_symmetry_Int_Tables_number   1
_chemical_formula_structural   SrLa11Mg3Ga9O34
_chemical_formula_sum   'Sr1 La11 Mg3 Ga9 O34'
_cell_volume   742.15165258
_cell_formula_units_Z   1
loop_
 _symmetry_equiv_pos_site_id
 _symmetry_equiv_pos_as_xyz
  1  'x, y, z'
loop_
 _atom_site_type_symbol
 _atom_site_label
 _atom_site_symmetry_multiplicity
 _atom_site_fract_x
 _atom_site_fract_y
 _atom_site_fract_z
 _atom_site_occupancy
  Sr  Sr0  1  0.98780300  0.50644100  0.13058700  1
  La  La0  1  0.63848500  0.17843800  0.03830300  1
  La  La1  1  0.70914200  0.14301200  0.29788800  1
  La  La2  1  0.30399500  0.84636400  0.20693600  1
  La  La3  1  0.34125300  0.82897200  0.45941900  1
  La  La4  1  0.00635100  0.49628800  0.37319600  1
  La  La5  1  0.00609200  0.49681900  0.62645500  1
  La  La6  1  0.66051400  0.16998200  0.54077600  1
  La  La7  1  0.67278500  0.16337800  0.79362800  1
  La  La8  1  0.32708000  0.83663800  0.70693900  1
  La  La9  1  0.34367300  0.83010900  0.95847500  1
  La  La10  1  0.99431000  0.50319300  0.87179600  1
  Mg  Mg0  1  0.03149600  0.48406200  0.99431100  1
  Mg  Mg1  1  0.69022000  0.15358900  0.16113800  1
  Mg  Mg2  1  0.95693700  0.52154800  0.25265300  1
  Ga  Ga0  1  0.28806300  0.85669300  0.08752000  1
  Ga  Ga1  1  0.33338600  0.83328900  0.58323200  1
  Ga  Ga2  1  0.00017000  0.49988000  0.50015600  1
  Ga  Ga3  1  0.33975900  0.83158100  0.33300800  1
  Ga  Ga4  1  0.66646900  0.16685300  0.66682600  1
  Ga  Ga5  1  0.66883100  0.16556800  0.41777800  1
  Ga  Ga6  1  0.33560300  0.83207600  0.83326200  1
  Ga  Ga7  1  0.00009400  0.49976900  0.74956800  1
  Ga  Ga8  1  0.66648000  0.16737400  0.91791200  1
  O  O0  1  0.24467900  0.11409100  0.03225700  1
  O  O1  1  0.43533700  0.03053800  0.13010200  1
  O  O2  1  0.89034600  0.80556600  0.20235900  1
  O  O3  1  0.25518500  0.62536000  0.03601100  1
  O  O4  1  0.10735200  0.70611100  0.29821600  1
  O  O5  1  0.44031000  0.54653800  0.13638200  1
  O  O6  1  0.05402500  0.97408100  0.38733300  1
  O  O7  1  0.92697900  0.03817500  0.10506600  1
  O  O8  1  0.56155400  0.45617000  0.36657200  1
  O  O9  1  0.91072500  0.27753800  0.20536100  1
  O  O10  1  0.76544900  0.37931400  0.46446300  1
  O  O11  1  0.13180600  0.20187200  0.30113100  1
  O  O12  1  0.72196800  0.63899400  0.55532700  1
  O  O13  1  0.58943200  0.70304100  0.27956000  1
  O  O14  1  0.22043900  0.12701200  0.53186600  1
  O  O15  1  0.57742800  0.94874900  0.37047700  1
  O  O16  1  0.43210600  0.04640200  0.63039500  1
  O  O17  1  0.78219900  0.87198600  0.46824300  1
  O  O18  1  0.38836600  0.30586700  0.72200300  1
  O  O19  1  0.27947500  0.36015700  0.44485400  1
  O  O20  1  0.88692100  0.79489300  0.69861200  1
  O  O21  1  0.23573500  0.62032800  0.53576500  1
  O  O22  1  0.09988900  0.71250200  0.79710200  1
  O  O23  1  0.44742000  0.53798900  0.63423900  1
  O  O24  1  0.04656000  0.97623600  0.88913500  1
  O  O25  1  0.94605700  0.02709400  0.61133700  1
  O  O26  1  0.55716200  0.46349200  0.86506700  1
  O  O27  1  0.90216100  0.28693500  0.70239500  1
  O  O28  1  0.75600000  0.38159500  0.96779700  1
  O  O29  1  0.11528400  0.20221300  0.80060000  1
  O  O30  1  0.61377600  0.69345700  0.77742900  1
  O  O31  1  0.57003600  0.95089000  0.86888100  1
  O  O32  1  0.76817500  0.86979500  0.97098800  1
  O  O33  1  0.28773800  0.35456700  0.94018200  1
loop_
_geom_bond_atom_site_label_1
_geom_bond_atom_site_label_2
_geom_bond_distance
_geom_bond_site_symmetry_2
La0 O7 2.305768 1_555
La0 O3 2.356059 1_555
La0 O32 2.384889 1_544
La0 O0 2.400605 1_555
La0 O28 2.475965 1_554
La0 O1 3.023509 1_555
La1 O4 2.356253 1_645
La1 O8 2.424527 1_555
La1 O15 2.530676 1_545
La1 O11 2.537515 1_655
La2 O9 2.326380 1_465
La2 O5 2.425517 1_555
La2 O13 2.426515 1_555
La2 O2 2.431395 1_455
La2 O1 2.591056 1_565
La3 O6 2.419478 1_555
La3 O10 2.464499 1_555
La3 O14 2.465793 1_565
La3 O21 2.588516 1_555
La3 O17 2.598806 1_555
La4 O19 2.370764 1_555
La4 O11 2.444925 1_555
La4 O15 2.482514 1_455
La4 O4 2.551058 1_555
La4 O8 2.605888 1_455
La5 O12 2.389313 1_455
La5 O20 2.460096 1_455
La5 O16 2.470002 1_555
La5 O27 2.579535 1_455
La5 O23 2.592516 1_555
La6 O25 2.380680 1_555
La6 O17 2.467256 1_545
La6 O21 2.468039 1_555
La6 O10 2.588488 1_555
La6 O14 2.594082 1_555
La7 O18 2.401260 1_555
La7 O26 2.452063 1_555
La7 O22 2.473694 1_645
La7 O31 2.569758 1_545
La7 O29 2.589908 1_655
La8 O30 2.382380 1_555
La8 O27 2.467585 1_465
La8 O23 2.473409 1_555
La8 O20 2.589182 1_455
La8 O16 2.595135 1_565
La9 O24 2.387273 1_555
La9 O28 2.440522 1_555
La9 O0 2.462788 1_566
La9 O32 2.509811 1_555
La9 O3 2.562673 1_556
La9 O33 2.830099 1_565
La9 O33 2.869684 1_555
La9 O31 2.973983 1_555
La9 O32 3.123785 1_455
La9 O26 3.127288 1_555
La9 O28 3.218395 1_465
La10 O33 2.355618 1_655
La10 O29 2.447280 1_655
La10 O31 2.456218 1_555
La10 O22 2.554596 1_655
La10 O26 2.562381 1_555
Mg0 O33 1.932140 1_555
Mg0 O32 2.020787 1_455
Mg0 O28 2.024565 1_455
Mg0 O0 2.080747 1_556
Mg0 O3 2.116365 1_556
Mg1 O7 1.914879 1_555
Mg1 O2 2.036386 1_545
Mg1 O1 2.048862 1_555
Mg1 O5 2.048965 1_555
Mg1 O9 2.079122 1_555
Mg2 O13 1.928422 1_555
Mg2 O2 1.986573 1_555
Mg2 O9 1.992815 1_555
Mg2 O11 2.041872 1_655
Mg2 O4 2.049690 1_655
Ga0 O7 1.816605 1_465
Ga0 O1 1.945842 1_565
Ga0 O3 1.987483 1_555
Ga0 O5 2.011233 1_555
Ga0 O0 2.011598 1_565
Ga1 O23 2.005289 1_555
Ga1 O14 2.006814 1_565
Ga1 O16 2.014726 1_565
Ga1 O21 2.016125 1_555
Ga1 O25 2.029943 1_465
Ga1 O12 2.033517 1_555
Ga2 O10 2.003124 1_455
Ga2 O21 2.005427 1_555
Ga2 O17 2.015219 1_455
Ga2 O14 2.017238 1_555
Ga2 O12 2.023288 1_455
Ga2 O19 2.029526 1_555
Ga3 O13 1.897692 1_555
Ga3 O4 1.998733 1_555
Ga3 O11 2.002513 1_565
Ga3 O15 2.028599 1_555
Ga3 O6 2.030815 1_555
Ga3 O8 2.050555 1_555
Ga4 O27 2.004121 1_555
Ga4 O16 2.011118 1_555
Ga4 O20 2.014539 1_545
Ga4 O23 2.019888 1_555
Ga4 O18 2.023087 1_555
Ga4 O25 2.034244 1_555
Ga5 O17 1.988980 1_545
Ga5 O8 1.995116 1_555
Ga5 O10 2.002226 1_555
Ga5 O15 2.009404 1_545
Ga5 O19 2.028655 1_555
Ga5 O6 2.045362 1_645
Ga6 O31 1.994348 1_555
Ga6 O26 2.001775 1_555
Ga6 O22 2.010360 1_555
Ga6 O29 2.017495 1_565
Ga6 O30 2.036693 1_555
Ga6 O24 2.072772 1_555
Ga7 O20 2.004078 1_455
Ga7 O27 2.011279 1_455
Ga7 O29 2.013575 1_555
Ga7 O30 2.022918 1_455
Ga7 O22 2.023158 1_555
Ga7 O18 2.028652 1_555
Ga8 O33 1.935658 1_555
Ga8 O24 2.004594 1_645
Ga8 O28 2.040045 1_555
Ga8 O26 2.045786 1_555
Ga8 O31 2.054612 1_545
Ga8 O32 2.060167 1_545
O1 Sr0 2.600830 1_455
O1 Sr0 3.030543 1_545
O2 Sr0 2.466132 1_555
O5 Sr0 2.647012 1_455
O5 Sr0 2.953336 1_555
O9 Sr0 2.550473 1_555
