# generated using pymatgen
data_H8C3SeN2
_symmetry_space_group_name_H-M   'P 1'
_cell_length_a   6.35070400
_cell_length_b   12.09054600
_cell_length_c   15.33659200
_cell_angle_alpha   90.00000000
_cell_angle_beta   90.00000000
_cell_angle_gamma   90.00000000
_symmetry_Int_Tables_number   1
_chemical_formula_structural   H8C3SeN2
_chemical_formula_sum   'H64 C24 Se8 N16'
_cell_volume   1177.59688738
_cell_formula_units_Z   8
loop_
 _symmetry_equiv_pos_site_id
 _symmetry_equiv_pos_as_xyz
  1  'x, y, z'
loop_
 _atom_site_type_symbol
 _atom_site_label
 _atom_site_symmetry_multiplicity
 _atom_site_fract_x
 _atom_site_fract_y
 _atom_site_fract_z
 _atom_site_occupancy
  H  H0  1  0.20025300  0.55433700  0.89056300  1
  H  H1  1  0.77835100  0.47387600  0.70075000  1
  H  H2  1  0.27835100  0.47387600  0.79925000  1
  H  H3  1  0.57696600  0.57395400  0.71387100  1
  H  H4  1  0.13290300  0.11639100  0.59108300  1
  H  H5  1  0.92499400  0.25550800  0.84587000  1
  H  H6  1  0.65188500  0.56511400  0.96585100  1
  H  H7  1  0.80355500  0.71226000  0.13743000  1
  H  H8  1  0.92120100  0.80891500  0.74326600  1
  H  H9  1  0.77835100  0.02612400  0.20075000  1
  H  H10  1  0.42303400  0.07395400  0.78612900  1
  H  H11  1  0.79974700  0.05433700  0.60943700  1
  H  H12  1  0.57500600  0.75550800  0.84587000  1
  H  H13  1  0.36709700  0.61639100  0.59108300  1
  H  H14  1  0.57879900  0.30891500  0.74326600  1
  H  H15  1  0.29974700  0.44566300  0.39056300  1
  H  H16  1  0.15188500  0.56511400  0.53414900  1
  H  H17  1  0.79974700  0.44566300  0.10943700  1
  H  H18  1  0.22164900  0.97387600  0.79925000  1
  H  H19  1  0.42120100  0.80891500  0.75673400  1
  H  H20  1  0.92303400  0.07395400  0.71387100  1
  H  H21  1  0.63290300  0.38360900  0.40891700  1
  H  H22  1  0.72164900  0.97387600  0.70075000  1
  H  H23  1  0.69644500  0.28774000  0.63743000  1
  H  H24  1  0.92303400  0.42604600  0.21387100  1
  H  H25  1  0.86709700  0.61639100  0.90891700  1
  H  H26  1  0.13290300  0.38360900  0.09108300  1
  H  H27  1  0.34811500  0.43488600  0.03414900  1
  H  H28  1  0.07500600  0.75550800  0.65413000  1
  H  H29  1  0.07879900  0.30891500  0.75673400  1
  H  H30  1  0.42499400  0.25550800  0.65413000  1
  H  H31  1  0.42499400  0.24449200  0.15413000  1
  H  H32  1  0.42120100  0.69108500  0.25673400  1
  H  H33  1  0.86709700  0.88360900  0.40891700  1
  H  H34  1  0.07696600  0.92604600  0.28612900  1
  H  H35  1  0.27835100  0.02612400  0.29925000  1
  H  H36  1  0.92120100  0.69108500  0.24326600  1
  H  H37  1  0.20025300  0.94566300  0.39056300  1
  H  H38  1  0.84811500  0.06511400  0.96585100  1
  H  H39  1  0.30355500  0.78774000  0.86257000  1
  H  H40  1  0.57879900  0.19108500  0.24326600  1
  H  H41  1  0.57500600  0.74449200  0.34587000  1
  H  H42  1  0.65188500  0.93488600  0.46585100  1
  H  H43  1  0.70025300  0.94566300  0.10943700  1
  H  H44  1  0.57696600  0.92604600  0.21387100  1
  H  H45  1  0.69644500  0.21226000  0.13743000  1
  H  H46  1  0.22164900  0.52612400  0.29925000  1
  H  H47  1  0.19644500  0.28774000  0.86257000  1
  H  H48  1  0.29974700  0.05433700  0.89056300  1
  H  H49  1  0.72164900  0.52612400  0.20075000  1
  H  H50  1  0.07500600  0.74449200  0.15413000  1
  H  H51  1  0.07879900  0.19108500  0.25673400  1
  H  H52  1  0.19644500  0.21226000  0.36257000  1
  H  H53  1  0.07696600  0.57395400  0.78612900  1
  H  H54  1  0.70025300  0.55433700  0.60943700  1
  H  H55  1  0.42303400  0.42604600  0.28612900  1
  H  H56  1  0.92499400  0.24449200  0.34587000  1
  H  H57  1  0.63290300  0.11639100  0.90891700  1
  H  H58  1  0.15188500  0.93488600  0.03414900  1
  H  H59  1  0.84811500  0.43488600  0.46585100  1
  H  H60  1  0.36709700  0.88360900  0.09108300  1
  H  H61  1  0.34811500  0.06511400  0.53414900  1
  H  H62  1  0.80355500  0.78774000  0.63743000  1
  H  H63  1  0.30355500  0.71226000  0.36257000  1
  C  C0  1  0.64296300  0.98779900  0.16858600  1
  C  C1  1  0.82065700  0.05485900  0.40241200  1
  C  C2  1  0.44792600  0.68774900  0.32772900  1
  C  C3  1  0.67934300  0.94514100  0.90241200  1
  C  C4  1  0.14296300  0.51220100  0.83141400  1
  C  C5  1  0.85703700  0.01220100  0.66858600  1
  C  C6  1  0.32065700  0.05485900  0.09758800  1
  C  C7  1  0.35703700  0.01220100  0.83141400  1
  C  C8  1  0.64296300  0.51220100  0.66858600  1
  C  C9  1  0.85703700  0.48779900  0.16858600  1
  C  C10  1  0.55207400  0.31225100  0.67227100  1
  C  C11  1  0.67934300  0.55485900  0.40241200  1
  C  C12  1  0.94792600  0.68774900  0.17227100  1
  C  C13  1  0.44792600  0.81225100  0.82772900  1
  C  C14  1  0.17934300  0.55485900  0.09758800  1
  C  C15  1  0.35703700  0.48779900  0.33141400  1
  C  C16  1  0.05207400  0.18774900  0.32772900  1
  C  C17  1  0.55207400  0.18774900  0.17227100  1
  C  C18  1  0.32065700  0.44514100  0.59758800  1
  C  C19  1  0.17934300  0.94514100  0.59758800  1
  C  C20  1  0.14296300  0.98779900  0.33141400  1
  C  C21  1  0.94792600  0.81225100  0.67227100  1
  C  C22  1  0.05207400  0.31225100  0.82772900  1
  C  C23  1  0.82065700  0.44514100  0.90241200  1
  Se  Se0  1  0.36760700  0.83632000  0.55619200  1
  Se  Se1  1  0.63239300  0.16368000  0.44380800  1
  Se  Se2  1  0.13239300  0.33632000  0.55619200  1
  Se  Se3  1  0.86760700  0.83632000  0.94380800  1
  Se  Se4  1  0.63239300  0.33632000  0.94380800  1
  Se  Se5  1  0.13239300  0.16368000  0.05619200  1
  Se  Se6  1  0.86760700  0.66368000  0.44380800  1
  Se  Se7  1  0.36760700  0.66368000  0.05619200  1
  N  N0  1  0.77711700  0.95020700  0.42487100  1
  N  N1  1  0.00794400  0.57559800  0.14704800  1
  N  N2  1  0.49205600  0.42440200  0.64704800  1
  N  N3  1  0.99205600  0.42440200  0.85295200  1
  N  N4  1  0.27711700  0.95020700  0.07512900  1
  N  N5  1  0.99205600  0.07559800  0.35295200  1
  N  N6  1  0.00794400  0.92440200  0.64704800  1
  N  N7  1  0.27711700  0.54979300  0.57512900  1
  N  N8  1  0.50794400  0.92440200  0.85295200  1
  N  N9  1  0.72288300  0.04979300  0.92487100  1
  N  N10  1  0.72288300  0.45020700  0.42487100  1
  N  N11  1  0.50794400  0.57559800  0.35295200  1
  N  N12  1  0.22288300  0.45020700  0.07512900  1
  N  N13  1  0.77711700  0.54979300  0.92487100  1
  N  N14  1  0.49205600  0.07559800  0.14704800  1
  N  N15  1  0.22288300  0.04979300  0.57512900  1
loop_
_geom_bond_atom_site_label_1
_geom_bond_atom_site_label_2
_geom_bond_distance
_geom_bond_site_symmetry_2
H4 N15 1.017234 1_555
H6 N13 1.030455 1_555
H13 N7 1.017234 1_555
H16 N7 1.030455 1_555
H21 N10 1.017234 1_555
H25 N13 1.017234 1_555
H26 N12 1.017234 1_555
H27 N12 1.030455 1_555
H33 N0 1.017234 1_555
H38 N9 1.030455 1_555
H42 N0 1.030455 1_555
H57 N9 1.017234 1_555
H58 N4 1.030455 1_555
H59 N10 1.030455 1_555
H60 N4 1.017234 1_555
H61 N15 1.030455 1_555
C0 H9 1.094219 1_565
C0 H43 1.102189 1_555
C0 H44 1.102486 1_555
C0 N14 1.467801 1_565
C1 N0 1.340180 1_545
C1 N5 1.350226 1_555
C1 Se1 1.887757 1_555
C2 H41 1.095172 1_555
C2 H63 1.101805 1_555
C2 H32 1.102708 1_555
C2 N11 1.460674 1_555
C3 N9 1.340180 1_565
C3 N8 1.350226 1_555
C3 Se3 1.887757 1_555
C4 H2 1.094219 1_555
C4 H0 1.102189 1_555
C4 H53 1.102486 1_555
C4 N3 1.467801 1_455
C5 H22 1.094219 1_545
C5 H11 1.102189 1_555
C5 H20 1.102486 1_555
C5 N6 1.467801 1_645
C6 N4 1.340180 1_545
C6 N14 1.350226 1_555
C6 Se5 1.887757 1_555
C7 H18 1.094219 1_545
C7 H48 1.102189 1_555
C7 H10 1.102486 1_555
C7 N8 1.467801 1_545
C8 H1 1.094219 1_555
C8 H54 1.102189 1_555
C8 H3 1.102486 1_555
C8 N2 1.467801 1_555
C9 H49 1.094219 1_555
C9 H17 1.102189 1_555
C9 H24 1.102486 1_555
C9 N1 1.467801 1_655
C10 H30 1.095172 1_555
C10 H23 1.101805 1_555
C10 H14 1.102708 1_555
C10 N2 1.460674 1_555
C11 N10 1.340180 1_555
C11 N11 1.350226 1_555
C11 Se6 1.887757 1_555
C12 H50 1.095172 1_655
C12 H7 1.101805 1_555
C12 H36 1.102708 1_555
C12 N1 1.460674 1_655
C13 H12 1.095172 1_555
C13 H39 1.101805 1_555
C13 H19 1.102708 1_555
C13 N8 1.460674 1_555
C14 N12 1.340180 1_555
C14 N1 1.350226 1_555
C14 Se7 1.887757 1_555
C15 H46 1.094219 1_555
C15 H15 1.102189 1_555
C15 H55 1.102486 1_555
C15 N11 1.467801 1_555
C16 H56 1.095172 1_455
C16 H52 1.101805 1_555
C16 H51 1.102708 1_555
C16 N5 1.460674 1_455
C17 H31 1.095172 1_555
C17 H45 1.101805 1_555
C17 H40 1.102708 1_555
C17 N14 1.460674 1_555
C18 N7 1.340180 1_555
C18 N2 1.350226 1_555
C18 Se2 1.887757 1_555
C19 N15 1.340180 1_565
C19 N6 1.350226 1_555
C19 Se0 1.887757 1_555
C20 H35 1.094219 1_565
C20 H37 1.102189 1_555
C20 H34 1.102486 1_555
C20 N5 1.467801 1_465
C21 H28 1.095172 1_655
C21 H62 1.101805 1_555
C21 H8 1.102708 1_555
C21 N6 1.460674 1_655
C22 H5 1.095172 1_455
C22 H47 1.101805 1_555
C22 H29 1.102708 1_555
C22 N3 1.460674 1_455
C23 N13 1.340180 1_555
C23 N3 1.350226 1_555
C23 Se4 1.887757 1_555
