# generated using pymatgen
data_Li(YbGe)4
_symmetry_space_group_name_H-M   'P 1'
_cell_length_a   7.26589600
_cell_length_b   7.84973600
_cell_length_c   15.26172900
_cell_angle_alpha   90.00000000
_cell_angle_beta   90.00000000
_cell_angle_gamma   90.00000000
_symmetry_Int_Tables_number   1
_chemical_formula_structural   Li(YbGe)4
_chemical_formula_sum   'Li4 Yb16 Ge16'
_cell_volume   870.45829020
_cell_formula_units_Z   4
loop_
 _symmetry_equiv_pos_site_id
 _symmetry_equiv_pos_as_xyz
  1  'x, y, z'
loop_
 _atom_site_type_symbol
 _atom_site_label
 _atom_site_symmetry_multiplicity
 _atom_site_fract_x
 _atom_site_fract_y
 _atom_site_fract_z
 _atom_site_occupancy
  Li  Li0  1  0.65809300  0.02125600  0.75000000  1
  Li  Li1  1  0.34190700  0.97874400  0.25000000  1
  Li  Li2  1  0.84190700  0.52125600  0.25000000  1
  Li  Li3  1  0.15809300  0.47874400  0.75000000  1
  Yb  Yb0  1  0.32811000  0.82134400  0.62826000  1
  Yb  Yb1  1  0.48592700  0.31684900  0.59811000  1
  Yb  Yb2  1  0.51407300  0.68315100  0.40189000  1
  Yb  Yb3  1  0.17189000  0.32134400  0.12826000  1
  Yb  Yb4  1  0.98592700  0.18315100  0.59811000  1
  Yb  Yb5  1  0.01407300  0.81684900  0.09811000  1
  Yb  Yb6  1  0.82811000  0.67865600  0.87174000  1
  Yb  Yb7  1  0.67189000  0.17865600  0.37174000  1
  Yb  Yb8  1  0.01407300  0.81684900  0.40189000  1
  Yb  Yb9  1  0.98592700  0.18315100  0.90189000  1
  Yb  Yb10  1  0.32811000  0.82134400  0.87174000  1
  Yb  Yb11  1  0.82811000  0.67865600  0.62826000  1
  Yb  Yb12  1  0.67189000  0.17865600  0.12826000  1
  Yb  Yb13  1  0.17189000  0.32134400  0.37174000  1
  Yb  Yb14  1  0.51407300  0.68315100  0.09811000  1
  Yb  Yb15  1  0.48592700  0.31684900  0.90189000  1
  Ge  Ge0  1  0.22860000  0.63285800  0.25000000  1
  Ge  Ge1  1  0.84344800  0.46907500  0.46611400  1
  Ge  Ge2  1  0.34344800  0.03092500  0.46611400  1
  Ge  Ge3  1  0.65655200  0.96907500  0.96611400  1
  Ge  Ge4  1  0.27140000  0.13285800  0.75000000  1
  Ge  Ge5  1  0.52157900  0.58352900  0.75000000  1
  Ge  Ge6  1  0.15655200  0.53092500  0.96611400  1
  Ge  Ge7  1  0.77140000  0.36714200  0.75000000  1
  Ge  Ge8  1  0.15655200  0.53092500  0.53388600  1
  Ge  Ge9  1  0.47842100  0.41647100  0.25000000  1
  Ge  Ge10  1  0.97842100  0.08352900  0.25000000  1
  Ge  Ge11  1  0.72860000  0.86714200  0.25000000  1
  Ge  Ge12  1  0.02157900  0.91647100  0.75000000  1
  Ge  Ge13  1  0.34344800  0.03092500  0.03388600  1
  Ge  Ge14  1  0.84344800  0.46907500  0.03388600  1
  Ge  Ge15  1  0.65655200  0.96907500  0.53388600  1
loop_
_geom_bond_atom_site_label_1
_geom_bond_atom_site_label_2
_geom_bond_distance
_geom_bond_site_symmetry_2
Ge0 Ge9 2.485967 1_555
Ge0 Li1 2.837187 1_555
Ge0 Li2 2.943078 1_455
Ge0 Yb3 3.098599 1_555
Ge0 Yb13 3.098599 1_555
Ge0 Yb14 3.135576 1_555
Ge0 Yb2 3.135576 1_555
Ge0 Yb5 3.144709 1_555
Ge0 Yb8 3.144709 1_555
Ge1 Ge8 2.545794 1_655
Ge1 Yb7 2.970758 1_555
Ge1 Yb11 2.973675 1_555
Ge1 Yb13 3.018991 1_655
Ge1 Yb2 3.084159 1_555
Ge1 Yb8 3.154399 1_655
Ge1 Yb4 3.188625 1_555
Ge1 Yb1 3.497731 1_555
Ge2 Yb13 2.970758 1_555
Ge2 Yb0 2.973675 1_545
Ge2 Yb7 3.018991 1_555
Ge2 Yb8 3.084159 1_545
Ge2 Yb2 3.154399 1_545
Ge2 Yb1 3.188625 1_555
Ge2 Yb4 3.497731 1_455
Ge3 Yb6 2.970758 1_555
Ge3 Yb12 2.973675 1_566
Ge3 Yb10 3.018991 1_555
Ge3 Yb9 3.084159 1_565
Ge3 Yb15 3.154399 1_565
Ge3 Yb14 3.188625 1_556
Ge3 Yb5 3.497731 1_656
Ge4 Li3 2.837187 1_555
Ge4 Li0 2.943078 1_555
Ge4 Yb0 3.098599 1_545
Ge4 Yb10 3.098599 1_545
Ge4 Yb9 3.135576 1_455
Ge4 Yb4 3.135576 1_455
Ge4 Yb15 3.144709 1_555
Ge4 Yb1 3.144709 1_555
Ge5 Ge7 2.485967 1_555
Ge5 Li3 2.766174 1_555
Ge5 Yb10 2.985461 1_555
Ge5 Yb0 2.985461 1_555
Ge5 Yb6 2.995019 1_555
Ge5 Yb11 2.995019 1_555
Ge5 Yb1 3.134150 1_555
Ge5 Yb15 3.134150 1_555
Ge6 Yb10 2.970758 1_555
Ge6 Yb3 2.973675 1_556
Ge6 Yb6 3.018991 1_455
Ge6 Yb15 3.084159 1_555
Ge6 Yb9 3.154399 1_455
Ge6 Yb5 3.188625 1_556
Ge6 Yb14 3.497731 1_556
Ge7 Li0 2.837187 1_555
Ge7 Li3 2.943078 1_655
Ge7 Yb6 3.098599 1_555
Ge7 Yb11 3.098599 1_555
Ge7 Yb15 3.135576 1_555
Ge7 Yb1 3.135576 1_555
Ge7 Yb9 3.144709 1_555
Ge7 Yb4 3.144709 1_555
Ge8 Yb0 2.970758 1_555
Ge8 Yb13 2.973675 1_555
Ge8 Yb11 3.018991 1_455
Ge8 Yb1 3.084159 1_555
Ge8 Yb4 3.154399 1_455
Ge8 Yb8 3.188625 1_555
Ge8 Yb2 3.497731 1_555
Ge9 Li2 2.766174 1_555
Ge9 Yb12 2.985461 1_555
Ge9 Yb7 2.985461 1_555
Ge9 Yb3 2.995019 1_555
Ge9 Yb13 2.995019 1_555
Ge9 Yb2 3.134150 1_555
Ge9 Yb14 3.134150 1_555
Ge10 Ge11 2.485967 1_545
Ge10 Li1 2.766174 1_645
Ge10 Yb3 2.985461 1_655
Ge10 Yb13 2.985461 1_655
Ge10 Yb12 2.995019 1_555
Ge10 Yb7 2.995019 1_555
Ge10 Yb5 3.134150 1_645
Ge10 Yb8 3.134150 1_645
Ge11 Li2 2.837187 1_555
Ge11 Li1 2.943078 1_555
Ge11 Yb12 3.098599 1_565
Ge11 Yb7 3.098599 1_565
Ge11 Yb5 3.135576 1_655
Ge11 Yb8 3.135576 1_655
Ge11 Yb2 3.144709 1_555
Ge11 Yb14 3.144709 1_555
Ge12 Ge4 2.485967 1_565
Ge12 Li0 2.766174 1_465
Ge12 Yb11 2.985461 1_455
Ge12 Yb6 2.985461 1_455
Ge12 Yb0 2.995019 1_555
Ge12 Yb10 2.995019 1_555
Ge12 Yb9 3.134150 1_465
Ge12 Yb4 3.134150 1_465
Ge13 Ge3 2.545794 1_544
Ge13 Yb3 2.970758 1_555
Ge13 Yb10 2.973675 1_544
Ge13 Yb12 3.018991 1_555
Ge13 Yb5 3.084159 1_545
Ge13 Yb14 3.154399 1_545
Ge13 Yb15 3.188625 1_554
Ge13 Yb9 3.497731 1_454
Ge14 Ge6 2.545794 1_654
Ge14 Yb12 2.970758 1_555
Ge14 Yb6 2.973675 1_554
Ge14 Yb3 3.018991 1_655
Ge14 Yb14 3.084159 1_555
Ge14 Yb5 3.154399 1_655
Ge14 Yb9 3.188625 1_554
Ge14 Yb15 3.497731 1_554
Ge15 Ge2 2.545794 1_565
Ge15 Yb11 2.970758 1_555
Ge15 Yb7 2.973675 1_565
Ge15 Yb0 3.018991 1_555
Ge15 Yb4 3.084159 1_565
Ge15 Yb1 3.154399 1_565
Ge15 Yb2 3.188625 1_555
Ge15 Yb8 3.497731 1_655
