# generated using pymatgen
data_Li3Ti3Fe(PO4)6
_symmetry_space_group_name_H-M   'P 1'
_cell_length_a   8.69550521
_cell_length_b   8.69115590
_cell_length_c   17.45040733
_cell_angle_alpha   59.80590756
_cell_angle_beta   59.88872755
_cell_angle_gamma   59.94844841
_symmetry_Int_Tables_number   1
_chemical_formula_structural   Li3Ti3Fe(PO4)6
_chemical_formula_sum   'Li6 Ti6 Fe2 P12 O48'
_cell_volume   930.01006170
_cell_formula_units_Z   2
loop_
 _symmetry_equiv_pos_site_id
 _symmetry_equiv_pos_as_xyz
  1  'x, y, z'
loop_
 _atom_site_type_symbol
 _atom_site_label
 _atom_site_symmetry_multiplicity
 _atom_site_fract_x
 _atom_site_fract_y
 _atom_site_fract_z
 _atom_site_occupancy
  Li  Li0  1  0.64003500  0.23966600  0.41188300  1
  Li  Li1  1  0.63492100  0.54139900  0.17901600  1
  Li  Li2  1  0.97093000  0.88590900  0.05581300  1
  Li  Li3  1  0.39942100  0.47152800  0.80352600  1
  Li  Li4  1  0.74485800  0.56314000  0.64299500  1
  Li  Li5  1  0.96416200  0.88297000  0.56352600  1
  Ti  Ti0  1  0.14192800  0.14088500  0.06749700  1
  Ti  Ti1  1  0.36112100  0.35971000  0.17835100  1
  Ti  Ti2  1  0.14769400  0.13682500  0.56751900  1
  Ti  Ti3  1  0.35750700  0.34559600  0.68496300  1
  Ti  Ti4  1  0.64137900  0.64836700  0.32217800  1
  Ti  Ti5  1  0.85953300  0.85868200  0.92674700  1
  Fe  Fe0  1  0.86805700  0.85509800  0.42505900  1
  Fe  Fe1  1  0.64358400  0.63808600  0.82138900  1
  P  P0  1  0.04441500  0.74401300  0.23084000  1
  P  P1  1  0.46502400  0.04376200  0.37592900  1
  P  P2  1  0.24874200  0.53615400  0.48632000  1
  P  P3  1  0.75653900  0.45542400  0.01661400  1
  P  P4  1  0.04591500  0.74132100  0.73100200  1
  P  P5  1  0.53652600  0.96270500  0.12514700  1
  P  P6  1  0.46380900  0.03140800  0.87603700  1
  P  P7  1  0.96144400  0.25166900  0.26380000  1
  P  P8  1  0.25106800  0.53976700  0.98178000  1
  P  P9  1  0.75111600  0.45039700  0.52000200  1
  P  P10  1  0.53848000  0.95702200  0.62609400  1
  P  P11  1  0.96233700  0.24610600  0.76772900  1
  O  O0  1  0.99068100  0.19993300  0.18403700  1
  O  O1  1  0.19988000  0.37050700  0.00438100  1
  O  O2  1  0.37157300  0.99501400  0.10256100  1
  O  O3  1  0.12558300  0.30945900  0.23853500  1
  O  O4  1  0.31026100  0.50572000  0.06005300  1
  O  O5  1  0.05655800  0.90986200  0.13618400  1
  O  O6  1  0.50467900  0.12854700  0.14673700  1
  O  O7  1  0.22939100  0.57732300  0.21902100  1
  O  O8  1  0.27844900  0.05647400  0.45830000  1
  O  O9  1  0.01478600  0.19335500  0.68305100  1
  O  O10  1  0.43482300  0.21719400  0.28929500  1
  O  O11  1  0.21130600  0.36879900  0.49814900  1
  O  O12  1  0.07386000  0.71735300  0.48463100  1
  O  O13  1  0.59409600  0.43310200  0.11345900  1
  O  O14  1  0.38047200  0.00014100  0.59485400  1
  O  O15  1  0.12257700  0.29810400  0.75393800  1
  O  O16  1  0.41945500  0.56067400  0.39453900  1
  O  O17  1  0.92700300  0.27072800  0.02609600  1
  O  O18  1  0.29884800  0.48958700  0.57064100  1
  O  O19  1  0.07599100  0.90592800  0.63556000  1
  O  O20  1  0.55821900  0.77441400  0.21071000  1
  O  O21  1  0.48620100  0.11109000  0.66326200  1
  O  O22  1  0.23360800  0.57279600  0.72740700  1
  O  O23  1  0.72808900  0.93081900  0.04440500  1
  O  O24  1  0.28282200  0.05079600  0.96189400  1
  O  O25  1  0.76668200  0.41825700  0.27598400  1
  O  O26  1  0.52504000  0.86164500  0.35613800  1
  O  O27  1  0.43934100  0.22746300  0.79687000  1
  O  O28  1  0.93536100  0.09326400  0.36020200  1
  O  O29  1  0.71036500  0.47861900  0.43621700  1
  O  O30  1  0.07734200  0.72373000  0.97756800  1
  O  O31  1  0.58812400  0.41850200  0.61421100  1
  O  O32  1  0.87747400  0.69138100  0.25062200  1
  O  O33  1  0.62167400  0.03327400  0.39776100  1
  O  O34  1  0.40824600  0.55842600  0.88505500  1
  O  O35  1  0.92579800  0.27167000  0.52976100  1
  O  O36  1  0.78276300  0.62335100  0.50795800  1
  O  O37  1  0.56963200  0.75868000  0.70096200  1
  O  O38  1  0.00893500  0.79402300  0.31192000  1
  O  O39  1  0.72456600  0.96266400  0.54042800  1
  O  O40  1  0.77711500  0.41584500  0.76885400  1
  O  O41  1  0.49903300  0.87624700  0.84648700  1
  O  O42  1  0.93680600  0.07941300  0.86060600  1
  O  O43  1  0.70473000  0.49102800  0.93647000  1
  O  O44  1  0.88639200  0.69989800  0.73824600  1
  O  O45  1  0.63294800  0.98951000  0.90044200  1
  O  O46  1  0.80321400  0.62028300  0.00270200  1
  O  O47  1  0.00046200  0.79229900  0.81498400  1
loop_
_geom_bond_atom_site_label_1
_geom_bond_atom_site_label_2
_geom_bond_distance
_geom_bond_site_symmetry_2
Li0 O33 2.018624 1_555
Li0 O28 2.141233 1_555
Li0 O25 2.152912 1_555
Li0 O39 2.412049 1_545
Li0 O16 2.434706 1_555
Li1 O13 2.036137 1_555
Li1 O25 2.053518 1_555
Li1 O20 2.062944 1_555
Li1 O46 2.538388 1_555
Li2 O5 2.015311 1_655
Li2 O30 2.017225 1_654
Li2 O23 2.041831 1_555
Li3 O34 1.961831 1_555
Li3 O22 2.023020 1_555
Li3 O27 2.025686 1_555
Li4 O37 1.955059 1_555
Li4 O40 1.992880 1_555
Li4 O36 2.021985 1_555
Li5 O39 2.024667 1_555
Li5 O12 2.043942 1_655
Li5 O19 2.058777 1_655
Li5 O44 2.532629 1_555
Fe0 O38 1.912207 1_655
Fe0 O28 2.024930 1_565
Fe0 O33 2.043061 1_565
Fe0 O12 2.045840 1_655
Fe0 O36 2.046568 1_555
Fe0 O39 2.165268 1_555
Fe1 O43 1.938591 1_555
Fe1 O41 1.951898 1_555
Fe1 O44 2.032195 1_555
Fe1 O34 2.065299 1_555
Fe1 O40 2.094350 1_555
Fe1 O37 2.096120 1_555
O0 P7 1.537588 1_555
O0 Ti0 1.954236 1_655
O1 P8 1.553634 1_554
O1 Ti0 1.920724 1_555
O2 P5 1.531032 1_555
O2 Ti0 1.969600 1_565
O3 P7 1.532193 1_455
O3 Ti1 1.940314 1_555
O4 P8 1.537686 1_554
O4 Ti1 1.945870 1_555
O5 P0 1.549129 1_555
O5 Ti0 2.049032 1_565
O6 P5 1.529023 1_545
O6 Ti1 1.952185 1_555
O7 P0 1.536989 1_555
O7 Ti1 1.938424 1_555
O8 P1 1.533229 1_555
O8 Ti2 1.944787 1_555
O9 P11 1.548391 1_455
O9 Ti2 1.931690 1_555
O10 P1 1.528493 1_555
O10 Ti1 1.931554 1_555
O11 P2 1.539144 1_555
O11 Ti2 1.956093 1_555
O12 P2 1.546989 1_555
O13 P3 1.561543 1_555
O13 Ti1 2.014723 1_555
O14 P10 1.534840 1_545
O14 Ti2 1.930367 1_555
O15 P11 1.545461 1_455
O15 Ti3 1.915719 1_555
O16 P2 1.549893 1_555
O16 Ti4 1.989811 1_555
O17 P3 1.548252 1_555
O17 Ti0 1.926274 1_655
O18 P2 1.544794 1_555
O18 Ti3 1.917452 1_555
O19 P4 1.558845 1_555
O19 Ti2 1.984768 1_565
O20 P5 1.568011 1_555
O20 Ti4 1.995285 1_555
O21 P10 1.545449 1_545
O21 Ti3 1.901702 1_555
O22 P4 1.551904 1_555
O22 Ti3 2.036717 1_555
O23 P5 1.553139 1_555
O23 Ti5 2.034078 1_554
O24 P6 1.540260 1_555
O24 Ti0 1.932688 1_556
O25 P7 1.581806 1_555
O25 Ti4 2.096315 1_555
O26 P1 1.561602 1_565
O26 Ti4 1.853602 1_555
O27 P6 1.556038 1_555
O27 Ti3 2.004948 1_555
O28 P7 1.541791 1_555
O29 P9 1.547730 1_555
O29 Ti4 1.963382 1_555
O30 P8 1.554961 1_555
O30 Ti5 2.040444 1_455
O31 P9 1.544511 1_555
O31 Ti3 1.987141 1_555
O32 P0 1.561759 1_655
O32 Ti4 1.908048 1_555
O33 P1 1.539582 1_555
O34 P8 1.541185 1_555
O35 P9 1.542537 1_555
O35 Ti2 1.940273 1_655
O36 P9 1.554963 1_555
O37 P10 1.540745 1_555
O38 P0 1.527177 1_555
O39 P10 1.560164 1_555
O40 P11 1.545450 1_555
O41 P6 1.518403 1_565
O42 P11 1.540866 1_555
O42 Ti5 1.936400 1_545
O43 P3 1.520488 1_556
O44 P4 1.532377 1_655
O45 P6 1.553433 1_565
O45 Ti5 1.877294 1_555
O46 P3 1.552517 1_555
O46 Ti5 1.972885 1_554
O47 P4 1.548166 1_555
O47 Ti5 1.914147 1_455
