# generated using pymatgen
data_Ce2(SeO3)3
_symmetry_space_group_name_H-M   'P 1'
_cell_length_a   7.11018600
_cell_length_b   8.49054900
_cell_length_c   14.35188000
_cell_angle_alpha   90.00000000
_cell_angle_beta   90.00000000
_cell_angle_gamma   90.00000000
_symmetry_Int_Tables_number   1
_chemical_formula_structural   Ce2(SeO3)3
_chemical_formula_sum   'Ce8 Se12 O36'
_cell_volume   866.41413521
_cell_formula_units_Z   4
loop_
 _symmetry_equiv_pos_site_id
 _symmetry_equiv_pos_as_xyz
  1  'x, y, z'
loop_
 _atom_site_type_symbol
 _atom_site_label
 _atom_site_symmetry_multiplicity
 _atom_site_fract_x
 _atom_site_fract_y
 _atom_site_fract_z
 _atom_site_occupancy
  Ce  Ce0  1  0.32026600  0.69843700  0.06337600  1
  Ce  Ce1  1  0.32026600  0.69843700  0.43662400  1
  Ce  Ce2  1  0.82026600  0.80156300  0.93662400  1
  Ce  Ce3  1  0.67973400  0.30156300  0.56337600  1
  Ce  Ce4  1  0.67973400  0.30156300  0.93662400  1
  Ce  Ce5  1  0.17973400  0.19843700  0.06337600  1
  Ce  Ce6  1  0.17973400  0.19843700  0.43662400  1
  Ce  Ce7  1  0.82026600  0.80156300  0.56337600  1
  Se  Se0  1  0.82051200  0.54701200  0.37405500  1
  Se  Se1  1  0.90867300  0.04568400  0.75000000  1
  Se  Se2  1  0.67948800  0.04701200  0.12594500  1
  Se  Se3  1  0.32051200  0.95298800  0.62594500  1
  Se  Se4  1  0.67948800  0.04701200  0.37405500  1
  Se  Se5  1  0.82051200  0.54701200  0.12594500  1
  Se  Se6  1  0.17948800  0.45298800  0.62594500  1
  Se  Se7  1  0.09132700  0.95431600  0.25000000  1
  Se  Se8  1  0.17948800  0.45298800  0.87405500  1
  Se  Se9  1  0.59132700  0.54568400  0.75000000  1
  Se  Se10  1  0.32051200  0.95298800  0.87405500  1
  Se  Se11  1  0.40867300  0.45431600  0.25000000  1
  O  O0  1  0.85210500  0.07280800  0.46003100  1
  O  O1  1  0.91114200  0.37917000  0.07717700  1
  O  O2  1  0.85210500  0.07280800  0.03996900  1
  O  O3  1  0.08885800  0.62083000  0.92282300  1
  O  O4  1  0.23950300  0.94209400  0.34618900  1
  O  O5  1  0.73950300  0.55790600  0.84618900  1
  O  O6  1  0.97011500  0.70011400  0.09667100  1
  O  O7  1  0.73950300  0.55790600  0.65381100  1
  O  O8  1  0.35210500  0.42719200  0.96003100  1
  O  O9  1  0.14789500  0.92719200  0.53996900  1
  O  O10  1  0.26049700  0.44209400  0.15381100  1
  O  O11  1  0.41114200  0.12083000  0.92282300  1
  O  O12  1  0.97011500  0.70011400  0.40332900  1
  O  O13  1  0.23950300  0.94209400  0.15381100  1
  O  O14  1  0.52988500  0.20011400  0.09667100  1
  O  O15  1  0.02988500  0.29988600  0.90332900  1
  O  O16  1  0.58885800  0.87917000  0.07717700  1
  O  O17  1  0.93535200  0.84407100  0.75000000  1
  O  O18  1  0.52988500  0.20011400  0.40332900  1
  O  O19  1  0.41114200  0.12083000  0.57717700  1
  O  O20  1  0.58885800  0.87917000  0.42282300  1
  O  O21  1  0.14789500  0.92719200  0.96003100  1
  O  O22  1  0.64789500  0.57280800  0.46003100  1
  O  O23  1  0.35210500  0.42719200  0.53996900  1
  O  O24  1  0.43535200  0.65592900  0.25000000  1
  O  O25  1  0.47011500  0.79988600  0.90332900  1
  O  O26  1  0.64789500  0.57280800  0.03996900  1
  O  O27  1  0.08885800  0.62083000  0.57717700  1
  O  O28  1  0.56464800  0.34407100  0.75000000  1
  O  O29  1  0.91114200  0.37917000  0.42282300  1
  O  O30  1  0.06464800  0.15592900  0.25000000  1
  O  O31  1  0.47011500  0.79988600  0.59667100  1
  O  O32  1  0.02988500  0.29988600  0.59667100  1
  O  O33  1  0.26049700  0.44209400  0.34618900  1
  O  O34  1  0.76049700  0.05790600  0.84618900  1
  O  O35  1  0.76049700  0.05790600  0.65381100  1
loop_
_geom_bond_atom_site_label_1
_geom_bond_atom_site_label_2
_geom_bond_distance
_geom_bond_site_symmetry_2
Ce0 O16 2.457864 1_555
Ce0 O13 2.508822 1_555
Ce0 O6 2.535121 1_455
Ce0 O10 2.569493 1_555
Ce0 O26 2.584028 1_555
Ce0 O25 2.674551 1_554
Ce0 O3 2.685231 1_554
Ce0 O21 2.733916 1_554
Ce0 O8 2.748638 1_554
Ce0 O24 2.823774 1_555
Ce1 O20 2.457864 1_555
Ce1 O4 2.508822 1_555
Ce1 O12 2.535121 1_455
Ce1 O33 2.569493 1_555
Ce1 O22 2.584028 1_555
Ce1 O31 2.674551 1_555
Ce1 O27 2.685231 1_555
Ce1 O9 2.733916 1_555
Ce1 O23 2.748638 1_555
Ce1 O24 2.823774 1_555
Ce2 O3 2.457864 1_655
Ce2 O5 2.508822 1_555
Ce2 O25 2.535121 1_555
Ce2 O34 2.569493 1_565
Ce2 O21 2.584028 1_655
Ce2 O6 2.674551 1_556
Ce2 O16 2.685231 1_556
Ce2 O26 2.733916 1_556
Ce2 O2 2.748638 1_566
Ce2 O17 2.823774 1_555
Ce3 O19 2.457864 1_555
Ce3 O35 2.508822 1_555
Ce3 O32 2.535121 1_655
Ce3 O7 2.569493 1_555
Ce3 O23 2.584028 1_555
Ce3 O18 2.674551 1_555
Ce3 O29 2.685231 1_555
Ce3 O0 2.733916 1_555
Ce3 O22 2.748638 1_555
Ce3 O28 2.823774 1_555
Ce4 O11 2.457864 1_555
Ce4 O34 2.508822 1_555
Ce4 O15 2.535121 1_655
Ce4 O5 2.569493 1_555
Ce4 O8 2.584028 1_555
Ce4 O14 2.674551 1_556
Ce4 O1 2.685231 1_556
Ce4 O2 2.733916 1_556
Ce4 O26 2.748638 1_556
Ce4 O28 2.823774 1_555
Ce5 O1 2.457864 1_455
Ce5 O10 2.508822 1_555
Ce5 O14 2.535121 1_555
Ce5 O13 2.569493 1_545
Ce5 O2 2.584028 1_455
Ce5 O15 2.674551 1_554
Ce5 O11 2.685231 1_554
Ce5 O8 2.733916 1_554
Ce5 O21 2.748638 1_544
Ce5 O30 2.823774 1_555
Ce6 O29 2.457864 1_455
Ce6 O33 2.508822 1_555
Ce6 O18 2.535121 1_555
Ce6 O4 2.569493 1_545
Ce6 O0 2.584028 1_455
Ce6 O32 2.674551 1_555
Ce6 O19 2.685231 1_555
Ce6 O23 2.733916 1_555
Ce6 O9 2.748638 1_545
Ce6 O30 2.823774 1_555
Ce7 O27 2.457864 1_655
Ce7 O7 2.508822 1_555
Ce7 O31 2.535121 1_555
Ce7 O35 2.569493 1_565
Ce7 O9 2.584028 1_655
Ce7 O12 2.674551 1_555
Ce7 O20 2.685231 1_555
Ce7 O22 2.733916 1_555
Ce7 O0 2.748638 1_565
Ce7 O17 2.823774 1_555
O0 Se4 1.754105 1_555
O1 Se5 1.713462 1_555
O2 Se2 1.754105 1_555
O3 Se8 1.713462 1_555
O4 Se7 1.739688 1_555
O5 Se9 1.739688 1_555
O6 Se5 1.731409 1_555
O7 Se9 1.739688 1_555
O8 Se8 1.754105 1_555
O9 Se3 1.754105 1_555
O10 Se11 1.739688 1_555
O11 Se10 1.713462 1_545
O12 Se0 1.731409 1_555
O13 Se7 1.739688 1_555
O14 Se2 1.731409 1_555
O15 Se8 1.731409 1_555
O16 Se2 1.713462 1_565
O17 Se1 1.722283 1_565
O18 Se4 1.731409 1_555
O19 Se3 1.713462 1_545
O20 Se4 1.713462 1_565
O21 Se10 1.754105 1_555
O22 Se0 1.754105 1_555
O23 Se6 1.754105 1_555
O24 Se11 1.722283 1_555
O25 Se10 1.731409 1_555
O26 Se5 1.754105 1_555
O27 Se6 1.713462 1_555
O28 Se9 1.722283 1_555
O29 Se0 1.713462 1_555
O30 Se7 1.722283 1_545
O31 Se3 1.731409 1_555
O32 Se6 1.731409 1_555
O33 Se11 1.739688 1_555
O34 Se1 1.739688 1_555
O35 Se1 1.739688 1_555
