# generated using pymatgen
data_Y3NbO7
_symmetry_space_group_name_H-M   'P 1'
_cell_length_a   8.21288260
_cell_length_b   8.21288260
_cell_length_c   5.36685306
_cell_angle_alpha   89.97149620
_cell_angle_beta   89.97149620
_cell_angle_gamma   124.43466232
_symmetry_Int_Tables_number   1
_chemical_formula_structural   Y3NbO7
_chemical_formula_sum   'Y6 Nb2 O14'
_cell_volume   298.56875882
_cell_formula_units_Z   2
loop_
 _symmetry_equiv_pos_site_id
 _symmetry_equiv_pos_as_xyz
  1  'x, y, z'
loop_
 _atom_site_type_symbol
 _atom_site_label
 _atom_site_symmetry_multiplicity
 _atom_site_fract_x
 _atom_site_fract_y
 _atom_site_fract_z
 _atom_site_occupancy
  Y  Y0  1  0.99594900  0.99594900  0.99782400  1
  Y  Y1  1  0.49581400  0.49581400  0.99648100  1
  Y  Y2  1  0.37892500  0.11733600  0.52745200  1
  Y  Y3  1  0.11733600  0.37892500  0.52745200  1
  Y  Y4  1  0.87732000  0.61951900  0.47857800  1
  Y  Y5  1  0.61951900  0.87732000  0.47857800  1
  Nb  Nb0  1  0.28168000  0.78287000  0.00527700  1
  Nb  Nb1  1  0.78287000  0.28168000  0.00527700  1
  O  O0  1  0.24575300  0.24575300  0.75841400  1
  O  O1  1  0.15747300  0.90077000  0.23709300  1
  O  O2  1  0.74574400  0.74574400  0.24069900  1
  O  O3  1  0.00174500  0.48315300  0.79250600  1
  O  O4  1  0.60032700  0.33515800  0.22985800  1
  O  O5  1  0.65389100  0.40142000  0.75399000  1
  O  O6  1  0.90077000  0.15747300  0.23709300  1
  O  O7  1  0.50225900  0.98254200  0.22507700  1
  O  O8  1  0.48315300  0.00174500  0.79250600  1
  O  O9  1  0.09875200  0.83869300  0.76070000  1
  O  O10  1  0.40142000  0.65389100  0.75399000  1
  O  O11  1  0.33515800  0.60032700  0.22985800  1
  O  O12  1  0.98254200  0.50225900  0.22507700  1
  O  O13  1  0.83869300  0.09875200  0.76070000  1
loop_
_geom_bond_atom_site_label_1
_geom_bond_atom_site_label_2
_geom_bond_distance
_geom_bond_site_symmetry_2
Nb0 O8 1.976221 1_564
Nb0 O7 2.001723 1_555
Nb0 O11 2.153289 1_555
Nb0 O1 2.154778 1_555
Nb0 O9 2.229478 1_554
Nb0 O10 2.255256 1_554
Nb0 O3 2.500809 1_554
Nb0 O12 2.515897 1_455
Nb1 O3 1.976221 1_654
Nb1 O12 2.001723 1_555
Nb1 O4 2.153289 1_555
Nb1 O6 2.154778 1_555
Nb1 O13 2.229478 1_554
Nb1 O5 2.255256 1_554
Nb1 O8 2.500809 1_554
Nb1 O7 2.515897 1_545
O0 Y3 2.269260 1_555
O0 Y2 2.269260 1_555
O0 Y1 2.302867 1_555
O0 Y0 2.302969 1_445
O1 Y0 2.278875 1_454
O1 Y2 2.290607 1_565
O1 Y4 2.508514 1_455
O2 Y5 2.266995 1_555
O2 Y4 2.266995 1_555
O2 Y0 2.315916 1_554
O2 Y1 2.320546 1_554
O3 Y3 2.139259 1_555
O3 Y4 2.535998 1_455
O4 Y1 2.307973 1_554
O4 Y2 2.317976 1_555
O4 Y4 2.531570 1_555
O5 Y4 2.244521 1_555
O5 Y1 2.262248 1_555
O5 Y2 2.463397 1_555
O6 Y0 2.278875 1_544
O6 Y3 2.290607 1_655
O6 Y5 2.508514 1_545
O7 Y5 2.113423 1_555
O7 Y2 2.480604 1_565
O8 Y2 2.139259 1_555
O8 Y5 2.535998 1_545
O9 Y4 2.267877 1_455
O9 Y0 2.287841 1_455
O9 Y2 2.477461 1_565
O10 Y5 2.244521 1_555
O10 Y1 2.262248 1_555
O10 Y3 2.463397 1_555
O11 Y1 2.307973 1_554
O11 Y3 2.317976 1_555
O11 Y5 2.531570 1_555
O12 Y4 2.113423 1_555
O12 Y3 2.480604 1_655
O13 Y5 2.267877 1_545
O13 Y0 2.287841 1_545
O13 Y3 2.477461 1_655
