# generated using pymatgen
data_Sm2EuS4
_symmetry_space_group_name_H-M   'P 1'
_cell_length_a   7.40904761
_cell_length_b   7.40903279
_cell_length_c   7.40903402
_cell_angle_alpha   109.35330802
_cell_angle_beta   109.35347584
_cell_angle_gamma   109.70679668
_symmetry_Int_Tables_number   1
_chemical_formula_structural   Sm2EuS4
_chemical_formula_sum   'Sm4 Eu2 S8'
_cell_volume   313.08329942
_cell_formula_units_Z   2
loop_
 _symmetry_equiv_pos_site_id
 _symmetry_equiv_pos_as_xyz
  1  'x, y, z'
loop_
 _atom_site_type_symbol
 _atom_site_label
 _atom_site_symmetry_multiplicity
 _atom_site_fract_x
 _atom_site_fract_y
 _atom_site_fract_z
 _atom_site_occupancy
  Sm  Sm0  1  0.12316660  0.74999817  0.87316331  1
  Sm  Sm1  1  0.25000539  0.62316908  0.37317099  1
  Sm  Sm2  1  0.37683286  0.25000329  0.62683369  1
  Sm  Sm3  1  0.74999809  0.87683240  0.12683001  1
  Eu  Eu0  1  0.62499806  0.37499606  0.24999800  1
  Eu  Eu1  1  0.87499938  0.12500038  0.75000100  1
  S  S0  1  0.00721741  0.85754095  0.49881122  1
  S  S1  1  0.00841942  0.35873892  0.50119955  1
  S  S2  1  0.49278112  0.99157837  0.85031796  1
  S  S3  1  0.14246307  0.14126952  0.14967545  1
  S  S4  1  0.35753638  0.50721788  0.99880145  1
  S  S5  1  0.64126041  0.64246117  0.64968004  1
  S  S6  1  0.49159406  0.99278562  0.35032355  1
  S  S7  1  0.85872973  0.50840919  0.00118978  1
loop_
_geom_bond_atom_site_label_1
_geom_bond_atom_site_label_2
_geom_bond_distance
_geom_bond_site_symmetry_2
Eu0 S4 2.902338 1_554
Eu0 S1 2.902338 1_655
Eu0 S2 2.902344 1_544
Eu0 S5 2.902356 1_555
Eu0 S6 3.089175 1_545
Eu0 S3 3.089186 1_555
Eu0 S7 3.089220 1_555
Eu0 S0 3.089251 1_655
Eu1 S3 2.902278 1_656
Eu1 S0 2.902284 1_645
Eu1 S6 2.902288 1_545
Eu1 S7 2.902289 1_556
Eu1 S2 3.089203 1_545
Eu1 S4 3.089218 1_655
Eu1 S5 3.089221 1_545
Eu1 S1 3.089223 1_655
S0 Sm2 2.816779 1_565
S0 Sm3 2.865587 1_455
S0 Sm1 3.043471 1_555
S0 Sm0 3.068027 1_555
S1 Sm1 2.816735 1_555
S1 Sm0 2.865508 1_555
S1 Sm2 3.043390 1_555
S1 Sm3 3.068131 1_445
S2 Sm0 2.816731 1_555
S2 Sm3 2.865492 1_556
S2 Sm1 3.043384 1_555
S2 Sm2 3.068132 1_565
S3 Sm3 2.816790 1_445
S3 Sm0 2.865569 1_544
S3 Sm2 3.043457 1_555
S3 Sm1 3.068070 1_555
S4 Sm3 2.816758 1_556
S4 Sm2 2.865525 1_555
S4 Sm0 3.043402 1_555
S4 Sm1 3.068092 1_556
S5 Sm2 2.816719 1_555
S5 Sm1 2.865485 1_555
S5 Sm3 3.043397 1_556
S5 Sm0 3.068123 1_655
S6 Sm1 2.816769 1_555
S6 Sm2 2.865577 1_565
S6 Sm0 3.043482 1_554
S6 Sm3 3.068057 1_555
S7 Sm0 2.816764 1_654
S7 Sm1 2.865613 1_655
S7 Sm3 3.043438 1_555
S7 Sm2 3.068062 1_554
