# generated using pymatgen
data_VSnH9(CO)3
_symmetry_space_group_name_H-M   'P 1'
_cell_length_a   11.70548100
_cell_length_b   11.43066800
_cell_length_c   13.66133301
_cell_angle_alpha   66.37151754
_cell_angle_beta   90.00000000
_cell_angle_gamma   90.00000000
_symmetry_Int_Tables_number   1
_chemical_formula_structural   VSnH9(CO)3
_chemical_formula_sum   'V8 Sn8 H72 C24 O24'
_cell_volume   1674.66130294
_cell_formula_units_Z   8
loop_
 _symmetry_equiv_pos_site_id
 _symmetry_equiv_pos_as_xyz
  1  'x, y, z'
loop_
 _atom_site_type_symbol
 _atom_site_label
 _atom_site_symmetry_multiplicity
 _atom_site_fract_x
 _atom_site_fract_y
 _atom_site_fract_z
 _atom_site_occupancy
  V  V0  1  0.76640000  0.73198300  0.81733800  1
  V  V1  1  0.29122000  0.94732200  0.33356200  1
  V  V2  1  0.20878000  0.44732200  0.33356200  1
  V  V3  1  0.23360000  0.26801700  0.18266200  1
  V  V4  1  0.73360000  0.23198300  0.81733800  1
  V  V5  1  0.26640000  0.76801700  0.18266200  1
  V  V6  1  0.70878000  0.05267800  0.66643800  1
  V  V7  1  0.79122000  0.55267800  0.66643800  1
  Sn  Sn0  1  0.53210000  0.74528000  0.02148600  1
  Sn  Sn1  1  0.42781500  0.21198900  0.54085000  1
  Sn  Sn2  1  0.46790000  0.25472000  0.97851400  1
  Sn  Sn3  1  0.03210000  0.75472000  0.97851400  1
  Sn  Sn4  1  0.96790000  0.24528000  0.02148600  1
  Sn  Sn5  1  0.92781500  0.28801100  0.45915000  1
  Sn  Sn6  1  0.07218500  0.71198900  0.54085000  1
  Sn  Sn7  1  0.57218500  0.78801100  0.45915000  1
  H  H0  1  0.39671500  0.77300100  0.59415800  1
  H  H1  1  0.21617700  0.11234100  0.60288500  1
  H  H2  1  0.48051100  0.16111700  0.36842500  1
  H  H3  1  0.56796700  0.07697700  0.15480600  1
  H  H4  1  0.44298900  0.77610500  0.82880200  1
  H  H5  1  0.79352200  0.48732500  0.44671600  1
  H  H6  1  0.70647800  0.98732500  0.44671600  1
  H  H7  1  0.82112700  0.49735600  0.31465800  1
  H  H8  1  0.91053300  0.19158200  0.30736800  1
  H  H9  1  0.20160000  0.57822300  0.01744400  1
  H  H10  1  0.78382300  0.88765900  0.39711500  1
  H  H11  1  0.98051100  0.33888300  0.63157500  1
  H  H12  1  0.06796700  0.42302300  0.84519400  1
  H  H13  1  0.06245200  0.93574800  0.56585500  1
  H  H14  1  0.48952600  0.32986700  0.33178600  1
  H  H15  1  0.55211800  0.33463100  0.63947600  1
  H  H16  1  0.70160000  0.92177700  0.98255600  1
  H  H17  1  0.20647800  0.51267500  0.55328400  1
  H  H18  1  0.44788200  0.66536900  0.36052400  1
  H  H19  1  0.17887300  0.50264400  0.68534200  1
  H  H20  1  0.41053300  0.30841800  0.69263200  1
  H  H21  1  0.32112700  0.00264400  0.68534200  1
  H  H22  1  0.33195900  0.79751200  0.91113000  1
  H  H23  1  0.93754800  0.06425200  0.43414500  1
  H  H24  1  0.89784800  0.02973600  0.18662000  1
  H  H25  1  0.66804100  0.20248800  0.08887000  1
  H  H26  1  0.80413400  0.32534100  0.12294800  1
  H  H27  1  0.30413400  0.17465900  0.87705200  1
  H  H28  1  0.01047400  0.82986700  0.33178600  1
  H  H29  1  0.95529100  0.98776800  0.84205400  1
  H  H30  1  0.93376100  0.99147600  0.07563300  1
  H  H31  1  0.94788200  0.83463100  0.63947600  1
  H  H32  1  0.39784800  0.47026400  0.81338000  1
  H  H33  1  0.71617700  0.38765900  0.39711500  1
  H  H34  1  0.89671500  0.72699900  0.40584200  1
  H  H35  1  0.10328500  0.27300100  0.59415800  1
  H  H36  1  0.43203300  0.92302300  0.84519400  1
  H  H37  1  0.06623900  0.00852400  0.92436700  1
  H  H38  1  0.51047400  0.67013300  0.66821400  1
  H  H39  1  0.29352200  0.01267500  0.55328400  1
  H  H40  1  0.94298900  0.72389500  0.17119800  1
  H  H41  1  0.04470900  0.01223200  0.15794600  1
  H  H42  1  0.79840000  0.42177700  0.98255600  1
  H  H43  1  0.56623900  0.49147600  0.07563300  1
  H  H44  1  0.56245200  0.56425200  0.43414500  1
  H  H45  1  0.60215200  0.52973600  0.18662000  1
  H  H46  1  0.93203300  0.57697700  0.15480600  1
  H  H47  1  0.16804100  0.29751200  0.91113000  1
  H  H48  1  0.10215200  0.97026400  0.81338000  1
  H  H49  1  0.40603100  0.04992300  0.93657100  1
  H  H50  1  0.28382300  0.61234100  0.60288500  1
  H  H51  1  0.45529100  0.51223200  0.15794600  1
  H  H52  1  0.90603100  0.45007700  0.06342900  1
  H  H53  1  0.01948900  0.66111700  0.36842500  1
  H  H54  1  0.59396900  0.95007700  0.06342900  1
  H  H55  1  0.43376100  0.50852400  0.92436700  1
  H  H56  1  0.69586600  0.82534100  0.12294800  1
  H  H57  1  0.09396900  0.54992300  0.93657100  1
  H  H58  1  0.98952600  0.17013300  0.66821400  1
  H  H59  1  0.05211800  0.16536900  0.36052400  1
  H  H60  1  0.55701100  0.22389500  0.17119800  1
  H  H61  1  0.43754800  0.43574800  0.56585500  1
  H  H62  1  0.83195900  0.70248800  0.08887000  1
  H  H63  1  0.51948900  0.83888300  0.63157500  1
  H  H64  1  0.54470900  0.48776800  0.84205400  1
  H  H65  1  0.58946700  0.69158200  0.30736800  1
  H  H66  1  0.19586600  0.67465900  0.87705200  1
  H  H67  1  0.60328500  0.22699900  0.40584200  1
  H  H68  1  0.05701100  0.27610500  0.82880200  1
  H  H69  1  0.67887300  0.99735600  0.31465800  1
  H  H70  1  0.08946700  0.80841800  0.69263200  1
  H  H71  1  0.29840000  0.07822300  0.01744400  1
  C  C0  1  0.96032000  0.04475700  0.12287000  1
  C  C1  1  0.51063900  0.23581300  0.39338800  1
  C  C2  1  0.79875600  0.43300900  0.39648100  1
  C  C3  1  0.29875600  0.06699100  0.60351900  1
  C  C4  1  0.70124400  0.93300900  0.39648100  1
  C  C5  1  0.46032000  0.45524300  0.87713000  1
  C  C6  1  0.20124400  0.56699100  0.60351900  1
  C  C7  1  0.53968000  0.54475700  0.12287000  1
  C  C8  1  0.64474700  0.87659600  0.05122500  1
  C  C9  1  0.98936100  0.73581300  0.39338800  1
  C  C10  1  0.42069500  0.81930000  0.88483800  1
  C  C11  1  0.03968000  0.95524300  0.87713000  1
  C  C12  1  0.03867400  0.83836900  0.61922300  1
  C  C13  1  0.48936100  0.76418700  0.60661200  1
  C  C14  1  0.07930500  0.31930000  0.88483800  1
  C  C15  1  0.92069500  0.68070000  0.11516200  1
  C  C16  1  0.46132600  0.33836900  0.61922300  1
  C  C17  1  0.35525300  0.12340400  0.94877500  1
  C  C18  1  0.85525300  0.37659600  0.05122500  1
  C  C19  1  0.57930500  0.18070000  0.11516200  1
  C  C20  1  0.14474700  0.62340400  0.94877500  1
  C  C21  1  0.01063900  0.26418700  0.60661200  1
  C  C22  1  0.96132600  0.16163100  0.38077700  1
  C  C23  1  0.53867400  0.66163100  0.38077700  1
  O  O0  1  0.66873800  0.71192600  0.91230200  1
  O  O1  1  0.21753800  0.85857400  0.44344500  1
  O  O2  1  0.28246200  0.35857400  0.44344500  1
  O  O3  1  0.78246200  0.14142600  0.55655500  1
  O  O4  1  0.74741300  0.10355200  0.77101200  1
  O  O5  1  0.75258700  0.60355200  0.77101200  1
  O  O6  1  0.16873800  0.78807400  0.08769800  1
  O  O7  1  0.93269600  0.57572000  0.64022200  1
  O  O8  1  0.06730400  0.42428000  0.35977800  1
  O  O9  1  0.39785200  0.77116000  0.13147700  1
  O  O10  1  0.89785200  0.72884000  0.86852300  1
  O  O11  1  0.43269600  0.92428000  0.35977800  1
  O  O12  1  0.25258700  0.89644800  0.22898800  1
  O  O13  1  0.83126200  0.21192600  0.91230200  1
  O  O14  1  0.33126200  0.28807400  0.08769800  1
  O  O15  1  0.56730400  0.07572000  0.64022200  1
  O  O16  1  0.25529100  0.11564200  0.29271900  1
  O  O17  1  0.24470900  0.61564200  0.29271900  1
  O  O18  1  0.10214800  0.27116000  0.13147700  1
  O  O19  1  0.71753800  0.64142600  0.55655500  1
  O  O20  1  0.74470900  0.88435800  0.70728100  1
  O  O21  1  0.24741300  0.39644800  0.22898800  1
  O  O22  1  0.60214800  0.22884000  0.86852300  1
  O  O23  1  0.75529100  0.38435800  0.70728100  1
loop_
_geom_bond_atom_site_label_1
_geom_bond_atom_site_label_2
_geom_bond_distance
_geom_bond_site_symmetry_2
C0 H30 1.095019 1_545
C0 H41 1.095814 1_655
C0 H24 1.096743 1_555
C0 Sn4 2.152939 1_555
C1 H14 1.095390 1_555
C1 H67 1.096095 1_555
C1 H2 1.096859 1_555
C1 Sn1 2.152356 1_555
C2 H33 1.095245 1_555
C2 H7 1.095449 1_555
C2 H5 1.096249 1_555
C2 Sn5 2.150527 1_555
C3 H1 1.095245 1_555
C3 H21 1.095449 1_555
C3 H39 1.096249 1_555
C3 Sn1 2.150527 1_555
C4 H10 1.095245 1_555
C4 H69 1.095449 1_555
C4 H6 1.096249 1_555
C4 Sn7 2.150527 1_555
C5 H55 1.095019 1_555
C5 H64 1.095814 1_555
C5 H32 1.096743 1_555
C5 Sn2 2.152939 1_555
C6 H50 1.095245 1_555
C6 H19 1.095449 1_555
C6 H17 1.096249 1_555
C6 Sn6 2.150527 1_555
C7 H43 1.095019 1_555
C7 H51 1.095814 1_555
C7 H45 1.096743 1_555
C7 Sn0 2.152939 1_555
C8 H54 1.094913 1_555
C8 H56 1.095993 1_555
C8 H16 1.096030 1_554
C8 Sn0 2.155381 1_555
C9 H28 1.095390 1_655
C9 H34 1.096095 1_555
C9 H53 1.096859 1_655
C9 Sn6 2.152356 1_655
C10 H22 1.094634 1_555
C10 H4 1.095860 1_555
C10 H36 1.096314 1_555
C10 Sn0 2.152954 1_556
C11 H37 1.095019 1_565
C11 H29 1.095814 1_455
C11 H48 1.096743 1_555
C11 Sn3 2.152939 1_555
C12 H13 1.094300 1_555
C12 H31 1.094701 1_455
C12 H70 1.096002 1_555
C12 Sn6 2.151040 1_555
C13 H38 1.095390 1_555
C13 H0 1.096095 1_555
C13 H63 1.096859 1_555
C13 Sn7 2.152356 1_555
C14 H47 1.094634 1_555
C14 H68 1.095860 1_555
C14 H12 1.096314 1_555
C14 Sn4 2.152954 1_456
C15 H62 1.094634 1_555
C15 H40 1.095860 1_555
C15 H46 1.096314 1_555
C15 Sn3 2.152954 1_654
C16 H61 1.094300 1_555
C16 H15 1.094701 1_555
C16 H20 1.096002 1_555
C16 Sn1 2.151040 1_555
C17 H49 1.094913 1_555
C17 H27 1.095993 1_555
C17 H71 1.096030 1_556
C17 Sn2 2.155381 1_555
C18 H52 1.094913 1_555
C18 H26 1.095993 1_555
C18 H42 1.096030 1_554
C18 Sn4 2.155381 1_555
C19 H25 1.094634 1_555
C19 H60 1.095860 1_555
C19 H3 1.096314 1_555
C19 Sn2 2.152954 1_554
C20 H57 1.094913 1_555
C20 H66 1.095993 1_555
C20 H9 1.096030 1_556
C20 Sn3 2.155381 1_555
C21 H58 1.095390 1_455
C21 H35 1.096095 1_555
C21 H11 1.096859 1_455
C21 Sn5 2.152356 1_455
C22 H23 1.094300 1_555
C22 H59 1.094701 1_655
C22 H8 1.096002 1_555
C22 Sn5 2.151040 1_555
C23 H44 1.094300 1_555
C23 H18 1.094701 1_555
C23 H65 1.096002 1_555
C23 Sn7 2.151040 1_555
O0 V0 1.674538 1_555
O0 Sn0 2.320390 1_556
O1 V1 1.675025 1_555
O1 Sn6 2.384488 1_555
O2 V2 1.675025 1_555
O2 Sn1 2.384488 1_555
O3 V6 1.675025 1_555
O3 Sn5 2.384488 1_555
O4 V6 1.802660 1_555
O4 V4 1.823902 1_555
O5 V7 1.802660 1_555
O5 V0 1.823902 1_555
O6 V5 1.674538 1_555
O6 Sn3 2.320390 1_554
O7 V7 1.692486 1_555
O7 Sn6 2.289133 1_655
O8 V2 1.692486 1_555
O8 Sn5 2.289133 1_455
O9 V5 1.684558 1_555
O9 Sn0 2.274013 1_555
O10 V0 1.684558 1_555
O10 Sn3 2.274013 1_655
O11 V1 1.692486 1_555
O11 Sn7 2.289133 1_555
O12 V1 1.802660 1_555
O12 V5 1.823902 1_555
O13 V4 1.674538 1_555
O13 Sn4 2.320390 1_556
O14 V3 1.674538 1_555
O14 Sn2 2.320390 1_554
O15 V6 1.692486 1_555
O15 Sn1 2.289133 1_555
O16 V3 1.805414 1_555
O16 V1 1.824681 1_545
O17 V5 1.805414 1_555
O17 V2 1.824681 1_555
O18 V3 1.684558 1_555
O18 Sn4 2.274013 1_455
O19 V7 1.675025 1_555
O19 Sn7 2.384488 1_555
O20 V0 1.805414 1_555
O20 V6 1.824681 1_565
O21 V2 1.802660 1_555
O21 V3 1.823902 1_555
O22 V4 1.684558 1_555
O22 Sn2 2.274013 1_555
O23 V4 1.805414 1_555
O23 V7 1.824681 1_555
