# generated using pymatgen
data_InTeI7
_symmetry_space_group_name_H-M   'P 1'
_cell_length_a   7.40076606
_cell_length_b   15.19057837
_cell_length_c   30.12347349
_cell_angle_alpha   90.00000000
_cell_angle_beta   90.00000000
_cell_angle_gamma   90.00000000
_symmetry_Int_Tables_number   1
_chemical_formula_structural   InTeI7
_chemical_formula_sum   'In8 Te8 I56'
_cell_volume   3386.53863140
_cell_formula_units_Z   8
loop_
 _symmetry_equiv_pos_site_id
 _symmetry_equiv_pos_as_xyz
  1  'x, y, z'
loop_
 _atom_site_type_symbol
 _atom_site_label
 _atom_site_symmetry_multiplicity
 _atom_site_fract_x
 _atom_site_fract_y
 _atom_site_fract_z
 _atom_site_occupancy
  In  In0  1  0.62710652  0.76248234  0.61666563  1
  In  In1  1  0.29443617  0.66408976  0.35713581  1
  In  In2  1  0.79443617  0.83591024  0.85713581  1
  In  In3  1  0.70556383  0.33591024  0.85713581  1
  In  In4  1  0.12710652  0.73751766  0.11666563  1
  In  In5  1  0.37289348  0.23751766  0.11666563  1
  In  In6  1  0.87289348  0.26248234  0.61666563  1
  In  In7  1  0.20556383  0.16408976  0.35713581  1
  Te  Te0  1  0.61365838  0.40279617  0.26516607  1
  Te  Te1  1  0.55322199  0.62462351  0.03520438  1
  Te  Te2  1  0.11365838  0.09720383  0.76516607  1
  Te  Te3  1  0.88634162  0.90279617  0.26516607  1
  Te  Te4  1  0.38634162  0.59720383  0.76516607  1
  Te  Te5  1  0.94677801  0.12462351  0.03520438  1
  Te  Te6  1  0.44677801  0.37537649  0.53520438  1
  Te  Te7  1  0.05322199  0.87537649  0.53520438  1
  I  I0  1  0.82423839  0.91315091  0.77472589  1
  I  I1  1  0.79539407  0.24649378  0.26008248  1
  I  I2  1  0.82537596  0.47569008  0.33172217  1
  I  I3  1  0.89711334  0.20447587  0.40248501  1
  I  I4  1  0.27589098  0.01078741  0.69527238  1
  I  I5  1  0.28475831  0.81015956  0.04210978  1
  I  I6  1  0.59629183  0.94327358  0.91233209  1
  I  I7  1  0.36542567  0.32789988  0.34792311  1
  I  I8  1  0.10288666  0.79552413  0.90248501  1
  I  I9  1  0.32537596  0.02430992  0.83172217  1
  I  I10  1  0.86542567  0.17210012  0.84792311  1
  I  I11  1  0.29539407  0.25350622  0.76008248  1
  I  I12  1  0.25345864  0.76226840  0.61793062  1
  I  I13  1  0.83558446  0.94443221  0.46993880  1
  I  I14  1  0.40370817  0.05672642  0.41233209  1
  I  I15  1  0.76104509  0.97300685  0.05519858  1
  I  I16  1  0.78475831  0.68984044  0.54210978  1
  I  I17  1  0.72410902  0.98921259  0.19527238  1
  I  I18  1  0.17462404  0.52430992  0.83172217  1
  I  I19  1  0.69668264  0.20265992  0.97932034  1
  I  I20  1  0.76882548  0.17181246  0.69063638  1
  I  I21  1  0.23117452  0.82818754  0.19063638  1
  I  I22  1  0.22410902  0.51078741  0.69527238  1
  I  I23  1  0.32423839  0.58684909  0.27472589  1
  I  I24  1  0.25351731  0.06715081  0.12013049  1
  I  I25  1  0.73117452  0.67181246  0.69063638  1
  I  I26  1  0.33558446  0.55556779  0.96993880  1
  I  I27  1  0.26882548  0.32818754  0.19063638  1
  I  I28  1  0.70460593  0.74649378  0.26008248  1
  I  I29  1  0.63457433  0.67210012  0.84792311  1
  I  I30  1  0.24654136  0.26226840  0.61793062  1
  I  I31  1  0.26104509  0.52699315  0.55519858  1
  I  I32  1  0.16441554  0.05556779  0.96993880  1
  I  I33  1  0.66441554  0.44443221  0.46993880  1
  I  I34  1  0.80331736  0.70265992  0.97932034  1
  I  I35  1  0.77589098  0.48921259  0.19527238  1
  I  I36  1  0.75345864  0.73773160  0.11793062  1
  I  I37  1  0.13457433  0.82789988  0.34792311  1
  I  I38  1  0.17576161  0.08684909  0.27472589  1
  I  I39  1  0.23895491  0.02699315  0.55519858  1
  I  I40  1  0.60288666  0.70447587  0.40248501  1
  I  I41  1  0.39711334  0.29552413  0.90248501  1
  I  I42  1  0.67576161  0.41315091  0.77472589  1
  I  I43  1  0.19668264  0.29734008  0.47932034  1
  I  I44  1  0.90370817  0.44327358  0.91233209  1
  I  I45  1  0.09629183  0.55672642  0.41233209  1
  I  I46  1  0.73895491  0.47300685  0.05519858  1
  I  I47  1  0.20460593  0.75350622  0.76008248  1
  I  I48  1  0.30331736  0.79734008  0.47932034  1
  I  I49  1  0.67462404  0.97569008  0.33172217  1
  I  I50  1  0.75351731  0.43284919  0.62013049  1
  I  I51  1  0.21524169  0.31015956  0.04210978  1
  I  I52  1  0.24648269  0.56715081  0.12013049  1
  I  I53  1  0.74648269  0.93284919  0.62013049  1
  I  I54  1  0.71524169  0.18984044  0.54210978  1
  I  I55  1  0.74654136  0.23773160  0.11793062  1
loop_
_geom_bond_atom_site_label_1
_geom_bond_atom_site_label_2
_geom_bond_distance
_geom_bond_site_symmetry_2
I0 In2 2.754637 1_555
I1 Te0 2.733101 1_555
I2 Te0 2.775037 1_555
I3 In7 2.730122 1_655
I4 Te2 2.756384 1_555
I5 In4 2.760965 1_555
I6 In2 2.752243 1_555
I7 In7 2.769247 1_555
I7 Te0 3.299103 1_555
I8 In2 2.730122 1_455
I9 Te2 2.775037 1_555
I10 In3 2.769247 1_555
I10 Te2 3.299103 1_655
I11 Te2 2.733101 1_555
I12 In0 2.765545 1_555
I12 Te7 3.370200 1_555
I13 Te7 2.749537 1_655
I14 In7 2.752243 1_555
I15 Te5 2.748939 1_565
I16 In0 2.760965 1_555
I17 Te3 2.756384 1_555
I18 Te4 2.775037 1_555
I19 Te5 2.768564 1_556
I20 In6 2.730447 1_555
I21 In4 2.730447 1_555
I22 Te4 2.756384 1_555
I23 In1 2.754637 1_555
I24 In5 2.736607 1_555
I25 In0 2.730447 1_555
I26 Te1 2.749537 1_556
I27 In5 2.730447 1_555
I28 Te3 2.733101 1_555
I29 In2 2.769247 1_555
I29 Te4 3.299103 1_555
I30 In6 2.765545 1_455
I30 Te6 3.370200 1_555
I31 Te6 2.748939 1_555
I32 Te5 2.749537 1_456
I33 Te6 2.749537 1_555
I34 Te1 2.768564 1_556
I35 Te0 2.756384 1_555
I36 In4 2.765545 1_655
I36 Te1 3.370200 1_555
I37 In1 2.769247 1_555
I37 Te3 3.299103 1_455
I38 In7 2.754637 1_555
I39 Te7 2.748939 1_545
I40 In1 2.730122 1_555
I41 In3 2.730122 1_555
I42 In3 2.754637 1_555
I43 Te6 2.768564 1_555
I44 In3 2.752243 1_555
I45 In1 2.752243 1_555
I46 Te1 2.748939 1_555
I47 Te4 2.733101 1_555
I48 Te7 2.768564 1_555
I49 Te3 2.775037 1_555
I50 In6 2.736607 1_555
I51 In5 2.760965 1_555
I52 In4 2.736607 1_555
I53 In0 2.736607 1_555
I54 In6 2.760965 1_555
I55 In5 2.765545 1_555
I55 Te5 3.370200 1_555
