# generated using pymatgen
data_SrAgAs
_symmetry_space_group_name_H-M   'P 1'
_cell_length_a   4.53769608
_cell_length_b   4.53769568
_cell_length_c   8.38896219
_cell_angle_alpha   90.00000000
_cell_angle_beta   90.00000000
_cell_angle_gamma   120.00000290
_symmetry_Int_Tables_number   1
_chemical_formula_structural   SrAgAs
_chemical_formula_sum   'Sr2 Ag2 As2'
_cell_volume   149.59243368
_cell_formula_units_Z   2
loop_
 _symmetry_equiv_pos_site_id
 _symmetry_equiv_pos_as_xyz
  1  'x, y, z'
loop_
 _atom_site_type_symbol
 _atom_site_label
 _atom_site_symmetry_multiplicity
 _atom_site_fract_x
 _atom_site_fract_y
 _atom_site_fract_z
 _atom_site_occupancy
  Sr  Sr0  1  -0.00000000  -0.00000000  0.50000000  1
  Sr  Sr1  1  -0.00000000  -0.00000000  0.00000000  1
  Ag  Ag0  1  0.33333300  0.66666700  0.75000000  1
  Ag  Ag1  1  0.66666700  0.33333300  0.25000000  1
  As  As0  1  0.66666700  0.33333300  0.75000000  1
  As  As1  1  0.33333300  0.66666700  0.25000000  1
loop_
_geom_bond_atom_site_label_1
_geom_bond_atom_site_label_2
_geom_bond_distance
_geom_bond_site_symmetry_2
Ag0 As0 2.619837 1_565
Ag0 As0 2.619837 1_455
Ag0 As0 2.619845 1_555
Ag0 Sr1 3.355885 1_566
Ag0 Sr0 3.355885 1_565
Ag0 Sr0 3.355888 1_555
Ag0 Sr1 3.355888 1_556
Ag0 Sr0 3.355888 1_665
Ag0 Sr1 3.355888 1_666
Ag1 As1 2.619837 1_545
Ag1 As1 2.619837 1_655
Ag1 As1 2.619845 1_555
Ag1 Sr0 3.355885 1_655
Ag1 Sr1 3.355885 1_655
Ag1 Sr0 3.355888 1_665
Ag1 Sr1 3.355888 1_665
Ag1 Sr1 3.355888 1_555
Ag1 Sr0 3.355888 1_555
As0 Sr0 3.355885 1_655
As0 Sr1 3.355885 1_656
As0 Sr1 3.355888 1_666
As0 Sr0 3.355888 1_665
As0 Sr1 3.355888 1_556
As0 Sr0 3.355888 1_555
As1 Sr0 3.355885 1_565
As1 Sr1 3.355885 1_565
As1 Sr0 3.355888 1_555
As1 Sr1 3.355888 1_555
As1 Sr0 3.355888 1_665
As1 Sr1 3.355888 1_665
