# generated using pymatgen
data_Ca5FePb3
_symmetry_space_group_name_H-M   'P 1'
_cell_length_a   9.60005431
_cell_length_b   9.60005431
_cell_length_c   6.69487700
_cell_angle_alpha   90.00000000
_cell_angle_beta   90.00000000
_cell_angle_gamma   120.00000214
_symmetry_Int_Tables_number   1
_chemical_formula_structural   Ca5FePb3
_chemical_formula_sum   'Ca10 Fe2 Pb6'
_cell_volume   534.34359098
_cell_formula_units_Z   2
loop_
 _symmetry_equiv_pos_site_id
 _symmetry_equiv_pos_as_xyz
  1  'x, y, z'
loop_
 _atom_site_type_symbol
 _atom_site_label
 _atom_site_symmetry_multiplicity
 _atom_site_fract_x
 _atom_site_fract_y
 _atom_site_fract_z
 _atom_site_occupancy
  Ca  Ca0  1  0.72867100  0.72867100  0.25000000  1
  Ca  Ca1  1  0.33333300  0.66666700  0.50000000  1
  Ca  Ca2  1  0.72867100  0.00000000  0.75000000  1
  Ca  Ca3  1  0.66666700  0.33333300  0.50000000  1
  Ca  Ca4  1  0.00000000  0.72867100  0.75000000  1
  Ca  Ca5  1  0.00000000  0.27132900  0.25000000  1
  Ca  Ca6  1  0.27132900  0.27132900  0.75000000  1
  Ca  Ca7  1  0.27132900  0.00000000  0.25000000  1
  Ca  Ca8  1  0.33333300  0.66666700  0.00000000  1
  Ca  Ca9  1  0.66666700  0.33333300  0.00000000  1
  Fe  Fe0  1  0.00000000  0.00000000  0.00000000  1
  Fe  Fe1  1  0.00000000  0.00000000  0.50000000  1
  Pb  Pb0  1  0.61685400  0.00000000  0.25000000  1
  Pb  Pb1  1  0.61685400  0.61685400  0.75000000  1
  Pb  Pb2  1  0.00000000  0.61685400  0.25000000  1
  Pb  Pb3  1  0.38314600  0.38314600  0.25000000  1
  Pb  Pb4  1  0.00000000  0.38314600  0.75000000  1
  Pb  Pb5  1  0.38314600  0.00000000  0.75000000  1
loop_
_geom_bond_atom_site_label_1
_geom_bond_atom_site_label_2
_geom_bond_distance
_geom_bond_site_symmetry_2
Ca0 Fe0 3.096155 1_665
Ca0 Fe1 3.096155 1_665
Ca0 Pb2 3.276161 1_655
Ca0 Pb0 3.276161 1_565
Ca0 Pb3 3.317059 1_555
Ca0 Pb1 3.515343 1_555
Ca0 Pb1 3.515343 1_554
Ca1 Ca8 3.347438 1_556
Ca1 Ca8 3.347438 1_555
Ca1 Pb5 3.426345 1_565
Ca1 Pb2 3.426345 1_555
Ca1 Pb0 3.426348 1_565
Ca1 Pb4 3.426348 1_555
Ca1 Pb1 3.426354 1_555
Ca1 Pb3 3.426354 1_555
Ca2 Fe1 3.096156 1_655
Ca2 Fe0 3.096156 1_656
Ca2 Pb4 3.276161 1_655
Ca2 Pb1 3.276161 1_545
Ca2 Pb5 3.317059 1_555
Ca2 Pb0 3.515343 1_556
Ca2 Pb0 3.515343 1_555
Ca3 Ca9 3.347438 1_556
Ca3 Ca9 3.347438 1_555
Ca3 Pb0 3.426345 1_555
Ca3 Pb4 3.426345 1_655
Ca3 Pb5 3.426348 1_555
Ca3 Pb2 3.426348 1_655
Ca3 Pb3 3.426354 1_555
Ca3 Pb1 3.426354 1_555
Ca4 Fe1 3.096156 1_565
Ca4 Fe0 3.096156 1_566
Ca4 Pb5 3.276161 1_565
Ca4 Pb1 3.276161 1_455
Ca4 Pb4 3.317059 1_555
Ca4 Pb2 3.515343 1_555
Ca4 Pb2 3.515343 1_556
Ca5 Fe0 3.096156 1_555
Ca5 Fe1 3.096156 1_555
Ca5 Pb0 3.276161 1_455
Ca5 Pb3 3.276161 1_555
Ca5 Pb2 3.317059 1_555
Ca5 Pb4 3.515343 1_554
Ca5 Pb4 3.515343 1_555
Ca6 Fe1 3.096155 1_555
Ca6 Fe0 3.096155 1_556
Ca6 Pb4 3.276161 1_555
Ca6 Pb5 3.276161 1_555
Ca6 Pb1 3.317059 1_555
Ca6 Pb3 3.515343 1_555
Ca6 Pb3 3.515343 1_556
Ca7 Fe0 3.096156 1_555
Ca7 Fe1 3.096156 1_555
Ca7 Pb2 3.276161 1_545
Ca7 Pb3 3.276161 1_555
Ca7 Pb0 3.317059 1_555
Ca7 Pb5 3.515343 1_555
Ca7 Pb5 3.515343 1_554
Ca8 Pb5 3.426345 1_564
Ca8 Pb2 3.426345 1_555
Ca8 Pb0 3.426348 1_565
Ca8 Pb4 3.426348 1_554
Ca8 Pb1 3.426354 1_554
Ca8 Pb3 3.426354 1_555
Ca9 Pb0 3.426345 1_555
Ca9 Pb4 3.426345 1_654
Ca9 Pb5 3.426348 1_554
Ca9 Pb2 3.426348 1_655
Ca9 Pb3 3.426354 1_555
Ca9 Pb1 3.426354 1_554
Fe0 Fe1 3.347438 1_554
Fe0 Fe1 3.347438 1_555
