# generated using pymatgen
data_Na3Zr2Si2PO12
_symmetry_space_group_name_H-M   'P 1'
_cell_length_a   9.13671300
_cell_length_b   9.16699601
_cell_length_c   9.30972406
_cell_angle_alpha   61.42305240
_cell_angle_beta   61.10572660
_cell_angle_gamma   60.30640116
_symmetry_Int_Tables_number   1
_chemical_formula_structural   Na3Zr2Si2PO12
_chemical_formula_sum   'Na6 Zr4 Si4 P2 O24'
_cell_volume   562.99606081
_cell_formula_units_Z   2
loop_
 _symmetry_equiv_pos_site_id
 _symmetry_equiv_pos_as_xyz
  1  'x, y, z'
loop_
 _atom_site_type_symbol
 _atom_site_label
 _atom_site_symmetry_multiplicity
 _atom_site_fract_x
 _atom_site_fract_y
 _atom_site_fract_z
 _atom_site_occupancy
  Na  Na0  1  0.05313100  0.30325500  0.90923200  1
  Na  Na1  1  0.42968600  0.01292700  0.47079400  1
  Na  Na2  1  0.61519000  0.39113800  0.24576100  1
  Na  Na3  1  0.39026600  0.59993100  0.75914700  1
  Na  Na4  1  0.93627300  0.71157900  0.10737500  1
  Na  Na5  1  0.74949300  0.91059700  0.67104700  1
  Zr  Zr0  1  0.15977100  0.64486200  0.55218100  1
  Zr  Zr1  1  0.64458000  0.15459200  0.05448400  1
  Zr  Zr2  1  0.35475000  0.84618000  0.94588800  1
  Zr  Zr3  1  0.85194700  0.35469200  0.43842900  1
  Si  Si0  1  0.25258600  0.46686100  0.23713000  1
  Si  Si1  1  0.46878600  0.24794200  0.73568000  1
  Si  Si2  1  0.53330800  0.75212800  0.26439300  1
  Si  Si3  1  0.75198100  0.53309900  0.75702400  1
  P  P0  1  0.04410500  0.96167900  0.74384100  1
  P  P1  1  0.95372700  0.04055000  0.25265200  1
  O  O0  1  0.10665800  0.00082600  0.08678500  1
  O  O1  1  0.00725100  0.11624600  0.58254600  1
  O  O2  1  0.06737100  0.43911600  0.29335300  1
  O  O3  1  0.26910000  0.62819500  0.05174300  1
  O  O4  1  0.42567700  0.28402400  0.22665400  1
  O  O5  1  0.25356200  0.52469400  0.37875600  1
  O  O6  1  0.04985200  0.78923200  0.74342600  1
  O  O7  1  0.42700300  0.07087500  0.78952300  1
  O  O8  1  0.28746100  0.42267000  0.72248500  1
  O  O9  1  0.47503800  0.76577900  0.11512700  1
  O  O10  1  0.77643900  0.06045900  0.24966400  1
  O  O11  1  0.37297600  0.73430500  0.45054000  1
  O  O12  1  0.63766700  0.25594700  0.55639500  1
  O  O13  1  0.22487300  0.93187400  0.74845700  1
  O  O14  1  0.52135300  0.23962700  0.88610300  1
  O  O15  1  0.71338900  0.57416600  0.27411700  1
  O  O16  1  0.58576500  0.92223400  0.21072000  1
  O  O17  1  0.93682000  0.21944000  0.24874400  1
  O  O18  1  0.74970200  0.47985500  0.61360500  1
  O  O19  1  0.57998600  0.71699000  0.77465800  1
  O  O20  1  0.73892800  0.36950000  0.94108300  1
  O  O21  1  0.93121800  0.57352200  0.70148600  1
  O  O22  1  0.99319800  0.88918700  0.41607200  1
  O  O23  1  0.89313000  0.99922800  0.91090100  1
loop_
_geom_bond_atom_site_label_1
_geom_bond_atom_site_label_2
_geom_bond_distance
_geom_bond_site_symmetry_2
Na0 O8 2.389333 1_555
Na0 O0 2.389843 1_556
Na0 O21 2.425535 1_455
Na0 O20 2.514072 1_455
Na0 O17 2.636222 1_456
Na1 O13 2.366706 1_545
Na1 O4 2.435119 1_555
Na1 O16 2.449803 1_545
Na1 O11 2.948537 1_545
Na2 O15 2.415322 1_555
Na2 O4 2.478541 1_555
Na2 O17 2.562886 1_555
Na2 O20 2.565176 1_554
Na2 O12 2.614255 1_555
Na2 O10 2.623479 1_555
Na2 O5 2.727271 1_555
Na2 O9 2.840020 1_555
Na3 O8 2.447817 1_555
Na3 O3 2.487888 1_556
Na3 O19 2.531811 1_555
Na3 O11 2.580078 1_555
Na3 O13 2.617788 1_555
Na3 O18 2.716225 1_555
Na3 O14 2.730343 1_555
Na3 O6 2.748856 1_555
Na4 O23 2.346694 1_554
Na4 O2 2.360917 1_655
Na4 O15 2.399850 1_555
Na4 O3 2.579476 1_655
Na4 O16 2.753834 1_555
Na4 O6 2.844369 1_654
Na5 O22 2.352886 1_555
Na5 O19 2.473992 1_555
Na5 O7 2.485518 1_565
Na5 O12 2.611940 1_565
Na5 O21 2.630424 1_555
Na5 O6 2.695915 1_655
O0 P1 1.555058 1_455
O0 Zr2 2.142521 1_544
O1 P0 1.535038 1_545
O1 Zr3 2.133726 1_455
O2 Si0 1.626484 1_555
O2 Zr3 2.058475 1_455
O3 Si0 1.648112 1_555
O3 Zr2 2.120539 1_554
O4 Si0 1.643485 1_555
O4 Zr1 2.085053 1_555
O5 Si0 1.644492 1_555
O5 Zr0 1.995935 1_555
O6 P0 1.557298 1_555
O6 Zr0 2.267046 1_555
O7 Si1 1.637769 1_555
O7 Zr2 2.085068 1_545
O8 Si1 1.644621 1_555
O8 Zr0 2.089832 1_555
O9 Si2 1.647046 1_555
O9 Zr2 1.998367 1_554
O10 P1 1.550398 1_555
O10 Zr1 2.254630 1_555
O11 Si2 1.639750 1_555
O11 Zr0 2.102654 1_555
O12 Si1 1.636547 1_555
O12 Zr3 2.141350 1_555
O13 P0 1.553913 1_555
O13 Zr2 2.281779 1_555
O14 Si1 1.645965 1_555
O14 Zr1 1.999916 1_556
O15 Si2 1.649282 1_555
O15 Zr3 2.096242 1_555
O16 Si2 1.635414 1_555
O16 Zr1 2.087131 1_565
O17 P1 1.552993 1_555
O17 Zr3 2.252942 1_555
O18 Si3 1.637618 1_555
O18 Zr3 2.026005 1_555
O19 Si3 1.651996 1_555
O19 Zr2 2.097613 1_555
O20 Si3 1.649484 1_555
O20 Zr1 2.133558 1_556
O21 Si3 1.638947 1_555
O21 Zr0 2.097312 1_655
O22 P1 1.544313 1_565
O22 Zr0 2.170204 1_655
O23 P0 1.551981 1_655
O23 Zr1 2.157726 1_566
