# generated using pymatgen
data_Ba7(Fe3S7)2
_symmetry_space_group_name_H-M   'P 1'
_cell_length_a   13.57487702
_cell_length_b   13.57487702
_cell_length_c   15.04532944
_cell_angle_alpha   62.74701062
_cell_angle_beta   62.74701062
_cell_angle_gamma   35.59269309
_symmetry_Int_Tables_number   1
_chemical_formula_structural   Ba7(Fe3S7)2
_chemical_formula_sum   'Ba14 Fe12 S28'
_cell_volume   1414.78404092
_cell_formula_units_Z   2
loop_
 _symmetry_equiv_pos_site_id
 _symmetry_equiv_pos_as_xyz
  1  'x, y, z'
loop_
 _atom_site_type_symbol
 _atom_site_label
 _atom_site_symmetry_multiplicity
 _atom_site_fract_x
 _atom_site_fract_y
 _atom_site_fract_z
 _atom_site_occupancy
  Ba  Ba0  1  0.28461400  0.36556100  0.73392800  1
  Ba  Ba1  1  0.67734800  0.32265200  0.25000000  1
  Ba  Ba2  1  0.78383600  0.85283100  0.87575300  1
  Ba  Ba3  1  0.21616400  0.14716900  0.12424700  1
  Ba  Ba4  1  0.71538600  0.63443900  0.26607200  1
  Ba  Ba5  1  0.63443900  0.71538600  0.76607200  1
  Ba  Ba6  1  0.79598100  0.22384100  0.92484900  1
  Ba  Ba7  1  0.20401900  0.77615900  0.07515100  1
  Ba  Ba8  1  0.32265200  0.67734800  0.75000000  1
  Ba  Ba9  1  0.14716900  0.21616400  0.62424700  1
  Ba  Ba10  1  0.85283100  0.78383600  0.37575300  1
  Ba  Ba11  1  0.36556100  0.28461400  0.23392800  1
  Ba  Ba12  1  0.22384100  0.79598100  0.42484900  1
  Ba  Ba13  1  0.77615900  0.20401900  0.57515100  1
  Fe  Fe0  1  0.12998600  0.59969200  0.01487900  1
  Fe  Fe1  1  0.81311200  0.90946000  0.08815800  1
  Fe  Fe2  1  0.87001400  0.40030800  0.98512100  1
  Fe  Fe3  1  0.43551900  0.29148500  0.95076100  1
  Fe  Fe4  1  0.90946000  0.81311200  0.58815800  1
  Fe  Fe5  1  0.18688800  0.09054000  0.91184200  1
  Fe  Fe6  1  0.56448100  0.70851500  0.04923900  1
  Fe  Fe7  1  0.40030800  0.87001400  0.48512100  1
  Fe  Fe8  1  0.70851500  0.56448100  0.54923900  1
  Fe  Fe9  1  0.29148500  0.43551900  0.45076100  1
  Fe  Fe10  1  0.09054000  0.18688800  0.41184200  1
  Fe  Fe11  1  0.59969200  0.12998600  0.51487900  1
  S  S0  1  0.60131700  0.54060700  0.00056600  1
  S  S1  1  0.95948800  0.43939500  0.42999300  1
  S  S2  1  0.16672400  0.44758300  0.94960600  1
  S  S3  1  0.05539200  0.76936400  0.66510300  1
  S  S4  1  0.45939300  0.39868300  0.49943400  1
  S  S5  1  0.97757600  0.87119200  0.92584900  1
  S  S6  1  0.76936400  0.05539200  0.16510300  1
  S  S7  1  0.02242400  0.12880800  0.07415100  1
  S  S8  1  0.01724800  0.36761700  0.82095600  1
  S  S9  1  0.12880800  0.02242400  0.57415100  1
  S  S10  1  0.94460800  0.23063600  0.33489700  1
  S  S11  1  0.43939500  0.95948800  0.92999300  1
  S  S12  1  0.63238300  0.98275200  0.67904400  1
  S  S13  1  0.44758300  0.16672400  0.44960600  1
  S  S14  1  0.26014700  0.56762400  0.28957300  1
  S  S15  1  0.98275200  0.63238300  0.17904400  1
  S  S16  1  0.87119200  0.97757600  0.42584900  1
  S  S17  1  0.83327600  0.55241700  0.05039400  1
  S  S18  1  0.56762400  0.26014700  0.78957300  1
  S  S19  1  0.39868300  0.45939300  0.99943400  1
  S  S20  1  0.54060700  0.60131700  0.50056600  1
  S  S21  1  0.43237600  0.73985300  0.21042700  1
  S  S22  1  0.73985300  0.43237600  0.71042700  1
  S  S23  1  0.36761700  0.01724800  0.32095600  1
  S  S24  1  0.23063600  0.94460800  0.83489700  1
  S  S25  1  0.04051200  0.56060500  0.57000700  1
  S  S26  1  0.56060500  0.04051200  0.07000700  1
  S  S27  1  0.55241700  0.83327600  0.55039400  1
loop_
_geom_bond_atom_site_label_1
_geom_bond_atom_site_label_2
_geom_bond_distance
_geom_bond_site_symmetry_2
Ba0 S2 3.159992 1_555
Ba0 S8 3.225614 1_555
Ba0 S18 3.227341 1_555
Ba0 S12 3.230243 1_545
Ba0 S3 3.288544 1_555
Ba0 S4 3.300678 1_555
Ba0 S25 3.362780 1_555
Ba1 S16 3.293292 1_545
Ba1 S7 3.293292 1_655
Ba1 S21 3.403379 1_555
Ba1 S14 3.403379 1_555
Ba1 S10 3.430294 1_555
Ba1 S6 3.430294 1_555
Ba1 S4 3.509238 1_555
Ba1 S0 3.509238 1_555
Ba2 S26 3.219880 1_566
Ba2 S5 3.255868 1_555
Ba2 S3 3.273117 1_655
Ba2 S12 3.315343 1_555
Ba2 S11 3.346983 1_555
Ba2 S17 3.366805 1_556
Ba2 S18 3.375557 1_565
Ba2 S2 3.420786 1_655
Ba3 S11 3.219880 1_544
Ba3 S7 3.255868 1_555
Ba3 S10 3.273117 1_455
Ba3 S23 3.315343 1_555
Ba3 S26 3.346983 1_555
Ba3 S2 3.366805 1_554
Ba3 S21 3.375557 1_545
Ba3 S17 3.420786 1_455
Ba4 S17 3.159992 1_555
Ba4 S15 3.225614 1_555
Ba4 S21 3.227341 1_555
Ba4 S23 3.230243 1_565
Ba4 S10 3.288544 1_555
Ba4 S20 3.300678 1_555
Ba4 S1 3.362780 1_555
Ba5 S27 3.159992 1_555
Ba5 S12 3.225614 1_555
Ba5 S22 3.227341 1_555
Ba5 S8 3.230243 1_655
Ba5 S24 3.288544 1_555
Ba5 S0 3.300678 1_556
Ba5 S11 3.362780 1_555
Ba6 S22 3.062844 1_555
Ba6 S5 3.125624 1_545
Ba6 S0 3.165477 1_556
Ba6 S19 3.204292 1_555
Ba6 S6 3.317086 1_556
Ba6 S24 3.467691 1_645
Ba6 S7 3.657824 1_656
Ba7 S14 3.062844 1_555
Ba7 S7 3.125624 1_565
Ba7 S19 3.165477 1_554
Ba7 S0 3.204292 1_555
Ba7 S24 3.317086 1_554
Ba7 S6 3.467691 1_465
Ba7 S5 3.657824 1_454
Ba8 S5 3.293292 1_455
Ba8 S9 3.293292 1_565
Ba8 S22 3.403379 1_555
Ba8 S18 3.403379 1_555
Ba8 S24 3.430294 1_555
Ba8 S3 3.430294 1_555
Ba8 S19 3.509238 1_555
Ba8 S20 3.509238 1_555
Ba9 S1 3.219880 1_455
Ba9 S9 3.255868 1_555
Ba9 S24 3.273117 1_545
Ba9 S8 3.315343 1_555
Ba9 S25 3.346983 1_555
Ba9 S13 3.366805 1_555
Ba9 S22 3.375557 1_455
Ba9 S27 3.420786 1_545
Ba10 S25 3.219880 1_655
Ba10 S16 3.255868 1_555
Ba10 S6 3.273117 1_565
Ba10 S15 3.315343 1_555
Ba10 S1 3.346983 1_555
Ba10 S27 3.366805 1_555
Ba10 S14 3.375557 1_655
Ba10 S13 3.420786 1_565
Ba11 S13 3.159992 1_555
Ba11 S23 3.225614 1_555
Ba11 S14 3.227341 1_555
Ba11 S15 3.230243 1_455
Ba11 S6 3.288544 1_555
Ba11 S19 3.300678 1_554
Ba11 S26 3.362780 1_555
Ba12 S21 3.062844 1_555
Ba12 S16 3.125624 1_455
Ba12 S20 3.165477 1_555
Ba12 S4 3.204292 1_555
Ba12 S3 3.317086 1_555
Ba12 S10 3.467691 1_465
Ba12 S9 3.657824 1_565
Ba13 S18 3.062844 1_555
Ba13 S9 3.125624 1_655
Ba13 S4 3.165477 1_555
Ba13 S20 3.204292 1_555
Ba13 S10 3.317086 1_555
Ba13 S3 3.467691 1_645
Ba13 S16 3.657824 1_545
Fe0 S2 2.282679 1_554
Fe0 S5 2.296452 1_454
Fe0 S19 2.305810 1_554
Fe0 S15 2.309191 1_455
Fe1 S6 2.274776 1_565
Fe1 S15 2.325262 1_555
Fe1 S26 2.341750 1_565
Fe1 S5 2.345225 1_554
Fe2 S17 2.282679 1_556
Fe2 S7 2.296452 1_656
Fe2 S0 2.305810 1_556
Fe2 S8 2.309191 1_655
Fe3 S18 2.235911 1_555
Fe3 S2 2.292190 1_555
Fe3 S19 2.306797 1_555
Fe3 S26 2.343673 1_556
Fe4 S3 2.274776 1_655
Fe4 S12 2.325262 1_555
Fe4 S25 2.341750 1_655
Fe4 S16 2.345225 1_555
Fe5 S24 2.274776 1_545
Fe5 S8 2.325262 1_555
Fe5 S11 2.341750 1_545
Fe5 S7 2.345225 1_556
Fe6 S21 2.235911 1_555
Fe6 S17 2.292190 1_555
Fe6 S0 2.306797 1_555
Fe6 S11 2.343673 1_554
Fe7 S27 2.282679 1_555
Fe7 S9 2.296452 1_565
Fe7 S20 2.305810 1_555
Fe7 S23 2.309191 1_565
Fe8 S22 2.235911 1_555
Fe8 S27 2.292190 1_555
Fe8 S20 2.306797 1_555
Fe8 S1 2.343673 1_555
Fe9 S14 2.235911 1_555
Fe9 S13 2.292190 1_555
Fe9 S4 2.306797 1_555
Fe9 S25 2.343673 1_555
Fe10 S10 2.274776 1_455
Fe10 S23 2.325262 1_555
Fe10 S1 2.341750 1_455
Fe10 S9 2.345225 1_555
Fe11 S13 2.282679 1_555
Fe11 S16 2.296452 1_545
Fe11 S4 2.305810 1_555
Fe11 S12 2.309191 1_545
