# generated using pymatgen
data_Cd85Pd27
_symmetry_space_group_name_H-M   'P 1'
_cell_length_a   8.83206036
_cell_length_b   8.83206034
_cell_length_c   30.67814834
_cell_angle_alpha   95.43302630
_cell_angle_beta   95.43302628
_cell_angle_gamma   110.01362488
_symmetry_Int_Tables_number   1
_chemical_formula_structural   Cd85Pd27
_chemical_formula_sum   'Cd85 Pd27'
_cell_volume   2217.68646263
_cell_formula_units_Z   1
loop_
 _symmetry_equiv_pos_site_id
 _symmetry_equiv_pos_as_xyz
  1  'x, y, z'
loop_
 _atom_site_type_symbol
 _atom_site_label
 _atom_site_symmetry_multiplicity
 _atom_site_fract_x
 _atom_site_fract_y
 _atom_site_fract_z
 _atom_site_occupancy
  Cd  Cd0  1  0.33617726  0.71316693  0.77783528  1
  Cd  Cd1  1  0.19312434  0.55087813  0.44765479  1
  Cd  Cd2  1  0.55087813  0.19312434  0.44765479  1
  Cd  Cd3  1  0.26715096  0.26715096  0.09502643  1
  Cd  Cd4  1  0.29221543  0.06165965  0.23087119  1
  Cd  Cd5  1  0.40100934  0.40100934  0.38100007  1
  Cd  Cd6  1  0.87606148  0.65507025  0.61866932  1
  Cd  Cd7  1  0.78210483  0.78210483  0.14599782  1
  Cd  Cd8  1  0.83078846  0.06134424  0.76912881  1
  Cd  Cd9  1  0.10322334  0.74546955  0.55234521  1
  Cd  Cd10  1  0.90793515  0.15712112  0.07969321  1
  Cd  Cd11  1  0.80163179  0.44364789  0.91384995  1
  Cd  Cd12  1  0.39493603  0.76686402  0.38669812  1
  Cd  Cd13  1  0.02000927  0.02000927  0.61899993  1
  Cd  Cd14  1  0.93533165  0.55834197  0.22216472  1
  Cd  Cd15  1  0.94206044  0.31497612  0.00000000  1
  Cd  Cd16  1  0.79275743  0.54377081  0.30561203  1
  Cd  Cd17  1  0.60764793  0.98178059  0.83539229  1
  Cd  Cd18  1  0.98178059  0.60764793  0.83539229  1
  Cd  Cd19  1  0.52598424  0.88354818  0.70342966  1
  Cd  Cd20  1  0.54377081  0.79275743  0.30561203  1
  Cd  Cd21  1  0.65742421  0.42078888  0.15304327  1
  Cd  Cd22  1  0.07742791  0.82824195  0.92030679  1
  Cd  Cd23  1  0.48714540  0.23815878  0.69438797  1
  Cd  Cd24  1  0.14896449  0.50416071  0.93464041  1
  Cd  Cd25  1  0.53472779  0.53472779  0.47307253  1
  Cd  Cd26  1  0.14638830  0.77225564  0.16460771  1
  Cd  Cd27  1  0.26774562  0.50438095  0.84695673  1
  Cd  Cd28  1  0.90507369  0.25493376  0.46728867  1
  Cd  Cd29  1  0.15712112  0.90793515  0.07969321  1
  Cd  Cd30  1  0.14981821  0.14981821  0.71412408  1
  Cd  Cd31  1  0.82369266  0.17993872  0.68164418  1
  Cd  Cd32  1  0.35654268  0.35654268  0.18986986  1
  Cd  Cd33  1  0.67157676  0.45022367  0.00000000  1
  Cd  Cd34  1  0.63610700  0.63610700  0.85400218  1
  Cd  Cd35  1  0.06165526  0.06165526  0.52692747  1
  Cd  Cd36  1  0.38016590  0.00823792  0.61330188  1
  Cd  Cd37  1  0.06165965  0.29221543  0.23087119  1
  Cd  Cd38  1  0.65507025  0.87606148  0.61866932  1
  Cd  Cd39  1  0.78764509  0.43778502  0.53271133  1
  Cd  Cd40  1  0.89461476  0.89461476  0.33095193  1
  Cd  Cd41  1  0.69145409  0.69145409  0.76378063  1
  Cd  Cd42  1  0.71316693  0.33617726  0.77783528  1
  Cd  Cd43  1  0.52995534  0.52995534  0.57308266  1
  Cd  Cd44  1  0.49829455  0.14204848  0.31835582  1
  Cd  Cd45  1  0.16667283  0.16667283  0.81013014  1
  Cd  Cd46  1  0.25493376  0.90507369  0.46728867  1
  Cd  Cd47  1  0.30586354  0.30586354  1.00000000  1
  Cd  Cd48  1  0.43778502  0.78764509  0.53271133  1
  Cd  Cd49  1  0.55834197  0.93533165  0.22216472  1
  Cd  Cd50  1  0.50416071  0.14896449  0.93464041  1
  Cd  Cd51  1  0.80593818  0.80593818  0.04869953  1
  Cd  Cd52  1  0.74546955  0.10322334  0.55234521  1
  Cd  Cd53  1  0.43569413  0.43569413  0.28587592  1
  Cd  Cd54  1  0.95687268  0.95687268  0.42691734  1
  Cd  Cd55  1  0.52979793  0.88778183  0.08615005  1
  Cd  Cd56  1  0.42834931  0.18936431  0.53722359  1
  Cd  Cd57  1  0.92767346  0.92767346  0.23621937  1
  Cd  Cd58  1  0.44364789  0.80163179  0.91384995  1
  Cd  Cd59  1  0.25739216  0.03640093  0.38133068  1
  Cd  Cd60  1  0.88354818  0.52598424  0.70342966  1
  Cd  Cd61  1  0.23815878  0.48714540  0.69438797  1
  Cd  Cd62  1  0.06134424  0.83078846  0.76912881  1
  Cd  Cd63  1  0.21432408  0.56952029  0.06535959  1
  Cd  Cd64  1  0.14204848  0.49829455  0.31835582  1
  Cd  Cd65  1  0.18011852  0.82255459  0.29657034  1
  Cd  Cd66  1  0.76686402  0.39493603  0.38669812  1
  Cd  Cd67  1  0.00823792  0.38016590  0.61330188  1
  Cd  Cd68  1  0.56952029  0.21432408  0.06535959  1
  Cd  Cd69  1  0.17212453  0.17212453  0.90497357  1
  Cd  Cd70  1  0.89112572  0.65214072  0.46277641  1
  Cd  Cd71  1  0.56366284  0.56366284  0.66904807  1
  Cd  Cd72  1  0.17993872  0.82369266  0.68164418  1
  Cd  Cd73  1  0.50438095  0.26774562  0.84695673  1
  Cd  Cd74  1  0.77225564  0.14638830  0.16460771  1
  Cd  Cd75  1  0.88778183  0.52979793  0.08615005  1
  Cd  Cd76  1  0.42078888  0.65742421  0.15304327  1
  Cd  Cd77  1  0.03640093  0.25739216  0.38133068  1
  Cd  Cd78  1  0.18936431  0.42834931  0.53722359  1
  Cd  Cd79  1  0.45022367  0.67157676  0.00000000  1
  Cd  Cd80  1  0.82255459  0.18011852  0.29657034  1
  Cd  Cd81  1  0.65214072  0.89112572  0.46277641  1
  Cd  Cd82  1  0.75723864  0.75723864  0.95130047  1
  Cd  Cd83  1  0.82824195  0.07742791  0.92030679  1
  Cd  Cd84  1  0.31497612  0.94206044  0.00000000  1
  Pd  Pd0  1  0.78402407  0.78402407  0.53870182  1
  Pd  Pd1  1  0.42582401  0.07554322  0.14831089  1
  Pd  Pd2  1  0.16656529  0.16656529  0.30572825  1
  Pd  Pd3  1  0.04706981  0.39705661  0.76449567  1
  Pd  Pd4  1  0.07554322  0.42582401  0.14831089  1
  Pd  Pd5  1  0.02771080  0.02771080  0.00000000  1
  Pd  Pd6  1  0.24532226  0.24532226  0.46129818  1
  Pd  Pd7  1  0.66083315  0.01449386  0.00000000  1
  Pd  Pd8  1  0.90882881  0.90882881  0.84433853  1
  Pd  Pd9  1  0.66619412  0.31177450  0.61722464  1
  Pd  Pd10  1  0.04896948  0.69454985  0.38277536  1
  Pd  Pd11  1  0.86083703  0.86083703  0.69427175  1
  Pd  Pd12  1  0.92723233  0.27751312  0.85168911  1
  Pd  Pd13  1  0.67909255  0.67909255  0.38496405  1
  Pd  Pd14  1  0.54143163  0.54143163  0.07721304  1
  Pd  Pd15  1  0.28257414  0.63256093  0.23550433  1
  Pd  Pd16  1  0.06449029  0.06449029  0.15566147  1
  Pd  Pd17  1  0.64393048  0.64393048  0.22927416  1
  Pd  Pd18  1  0.46421859  0.46421859  0.92278696  1
  Pd  Pd19  1  0.69454985  0.04896948  0.38277536  1
  Pd  Pd20  1  0.01449386  0.66083315  0.00000000  1
  Pd  Pd21  1  0.29412850  0.29412850  0.61503595  1
  Pd  Pd22  1  0.39705661  0.04706981  0.76449567  1
  Pd  Pd23  1  0.27751312  0.92723233  0.85168911  1
  Pd  Pd24  1  0.31177450  0.66619412  0.61722464  1
  Pd  Pd25  1  0.63256093  0.28257414  0.23550433  1
  Pd  Pd26  1  0.41465632  0.41465632  0.77072584  1
loop_
_geom_bond_atom_site_label_1
_geom_bond_atom_site_label_2
_geom_bond_distance
_geom_bond_site_symmetry_2
Cd0 Pd22 2.887613 1_565
Cd0 Pd26 2.941007 1_555
Cd0 Pd23 3.009652 1_555
Cd0 Pd3 3.031215 1_555
Cd1 Pd10 2.880450 1_555
Cd1 Pd6 2.949507 1_555
Cd1 Cd46 2.976395 1_555
Cd1 Cd25 3.098578 1_555
Cd1 Cd28 3.115085 1_455
Cd1 Cd48 3.264514 1_555
Cd2 Pd19 2.880450 1_555
Cd2 Pd6 2.949507 1_555
Cd2 Cd28 2.976395 1_555
Cd2 Cd25 3.098578 1_555
Cd2 Cd46 3.115085 1_545
Cd2 Cd39 3.264514 1_555
Cd3 Cd32 2.901014 1_555
Cd3 Pd14 2.918883 1_555
Cd3 Pd16 2.989288 1_555
Cd3 Pd1 3.035343 1_555
Cd3 Pd4 3.035343 1_555
Cd4 Pd2 2.854345 1_555
Cd4 Pd1 2.889348 1_555
Cd4 Pd16 2.921654 1_555
Cd4 Pd25 2.952104 1_555
Cd5 Pd13 2.799477 1_555
Cd5 Pd2 3.026840 1_555
Cd5 Pd6 3.136632 1_555
Cd6 Pd11 2.851020 1_555
Cd6 Pd9 2.956840 1_555
Cd6 Pd0 2.959994 1_555
Cd6 Cd71 3.189400 1_555
Cd7 Pd16 2.826782 1_665
Cd7 Pd14 2.949246 1_555
Cd7 Cd76 3.035327 1_555
Cd7 Pd17 3.109144 1_555
Cd7 Cd75 3.190799 1_555
Cd7 Cd74 3.246251 1_565
Cd8 Pd11 2.854345 1_545
Cd8 Pd12 2.889347 1_555
Cd8 Pd8 2.921654 1_545
Cd8 Pd3 2.952104 1_655
Cd9 Pd24 2.880450 1_555
Cd9 Pd0 2.949507 1_455
Cd10 Pd4 2.883392 1_655
Cd10 Pd16 2.921963 1_655
Cd10 Cd51 2.950041 1_545
Cd10 Pd7 2.975175 1_555
Cd10 Pd5 3.031649 1_655
Cd11 Pd12 2.829313 1_555
Cd11 Cd82 3.061166 1_555
Cd11 Pd18 3.082982 1_555
Cd11 Pd20 3.135224 1_656
Cd11 Cd34 3.190799 1_555
Cd12 Pd13 2.872535 1_555
Cd12 Pd10 2.887745 1_555
Cd12 Pd19 2.971353 1_565
Cd12 Cd46 3.189384 1_555
Cd13 Pd21 2.799477 1_555
Cd13 Cd35 2.924020 1_555
Cd13 Pd11 3.026840 1_445
Cd13 Pd0 3.136632 1_445
Cd14 Pd15 2.887613 1_655
Cd14 Pd17 2.941007 1_555
Cd14 Pd4 3.009652 1_655
Cd14 Pd25 3.031215 1_555
Cd15 Pd5 2.884972 1_655
Cd15 Pd20 2.898695 1_655
Cd15 Pd7 2.949652 1_555
Cd16 Pd25 2.863484 1_555
Cd16 Cd40 2.918690 1_555
Cd16 Pd17 2.932598 1_555
Cd16 Pd10 2.970486 1_655
Cd16 Pd13 3.015874 1_555
Cd17 Pd23 2.888583 1_555
Cd17 Pd8 2.938487 1_555
Cd17 Pd22 2.954327 1_565
Cd17 Pd12 3.078687 1_565
Cd17 Cd34 3.246251 1_555
Cd18 Pd12 2.888583 1_555
Cd18 Pd8 2.938487 1_555
Cd18 Pd3 2.954327 1_655
Cd18 Pd23 3.078687 1_655
Cd18 Cd34 3.246251 1_555
Cd19 Pd22 2.812350 1_565
Cd19 Cd71 3.057940 1_555
Cd19 Pd11 3.068931 1_555
Cd19 Pd24 3.140651 1_555
Cd20 Pd15 2.863484 1_555
Cd20 Cd40 2.918690 1_555
Cd20 Pd17 2.932598 1_555
Cd20 Pd19 2.970486 1_565
Cd20 Pd13 3.015874 1_555
Cd21 Cd32 2.884084 1_555
Cd21 Pd14 2.891700 1_555
Cd21 Pd25 2.905946 1_555
Cd21 Pd17 2.950964 1_555
Cd21 Pd1 3.015563 1_555
Cd21 Cd7 3.035327 1_555
Cd22 Pd23 2.883392 1_555
Cd22 Pd8 2.921963 1_455
Cd22 Cd82 2.950041 1_455
Cd22 Pd20 2.975176 1_556
Cd22 Pd5 3.031649 1_566
Cd23 Pd22 2.863485 1_555
Cd23 Cd71 2.918690 1_555
Cd23 Pd26 2.932598 1_555
Cd23 Pd9 2.970487 1_555
Cd23 Pd21 3.015874 1_555
Cd24 Pd20 2.897613 1_556
Cd24 Pd18 2.974730 1_555
Cd24 Pd12 3.118737 1_455
Cd25 Pd6 2.894053 1_555
Cd25 Cd5 2.924020 1_555
Cd25 Pd0 2.958427 1_555
Cd25 Cd81 3.016511 1_555
Cd25 Cd70 3.016511 1_555
Cd25 Cd43 3.076477 1_555
Cd25 Cd48 3.146773 1_555
Cd25 Cd39 3.146773 1_555
Cd25 Pd13 3.278743 1_555
Cd26 Pd4 2.888583 1_555
Cd26 Pd16 2.938487 1_565
Cd26 Pd15 2.954327 1_555
Cd26 Pd1 3.078687 1_565
Cd26 Cd7 3.246251 1_455
Cd27 Cd45 2.884084 1_555
Cd27 Pd18 2.891700 1_555
Cd27 Pd3 2.905945 1_555
Cd27 Pd26 2.950964 1_555
Cd27 Pd12 3.015563 1_455
Cd27 Cd34 3.035326 1_555
Cd28 Cd39 2.939187 1_555
Cd28 Cd77 2.978684 1_655
Cd28 Cd78 2.996446 1_655
Cd28 Cd54 2.997916 1_545
Cd28 Pd6 3.057421 1_655
Cd28 Pd19 3.060603 1_555
Cd28 Cd35 3.146773 1_655
Cd28 Cd66 3.189384 1_555
Cd28 Cd81 3.205937 1_545
Cd28 Cd52 3.264514 1_555
Cd29 Pd1 2.883392 1_565
Cd29 Pd16 2.921963 1_565
Cd29 Cd51 2.950041 1_455
Cd29 Pd20 2.975175 1_555
Cd29 Pd5 3.031649 1_565
Cd30 Pd11 2.889942 1_445
Cd30 Cd45 2.921956 1_555
Cd30 Pd26 2.945238 1_555
Cd30 Pd3 2.993769 1_555
Cd30 Pd22 2.993769 1_555
Cd31 Pd9 2.867099 1_555
Cd31 Pd11 3.002699 1_545
Cd31 Pd3 3.093178 1_655
Cd32 Cd76 2.884084 1_555
Cd32 Cd4 2.903591 1_555
Cd32 Cd37 2.903591 1_555
Cd32 Cd53 2.921956 1_555
Cd32 Pd1 2.957582 1_555
Cd32 Pd4 2.957582 1_555
Cd32 Pd17 2.962190 1_555
Cd32 Pd16 2.971331 1_555
Cd32 Pd15 2.991102 1_555
Cd32 Pd25 2.991102 1_555
Cd33 Pd18 2.892956 1_554
Cd33 Pd14 2.892956 1_555
Cd33 Pd20 2.962544 1_655
Cd33 Cd51 3.119946 1_555
Cd33 Cd82 3.119946 1_554
Cd34 Pd8 2.826782 1_555
Cd34 Cd41 2.913357 1_555
Cd34 Pd18 2.949247 1_555
Cd34 Cd82 3.034150 1_555
Cd34 Cd73 3.035326 1_555
Cd34 Pd26 3.109144 1_555
Cd34 Cd58 3.190799 1_555
Cd35 Pd0 2.894053 1_445
Cd35 Pd6 2.958428 1_555
Cd35 Cd78 3.016511 1_555
Cd35 Cd56 3.016511 1_555
Cd35 Cd54 3.076477 1_445
Cd35 Cd9 3.098578 1_545
Cd35 Cd52 3.098578 1_455
Cd35 Cd46 3.146773 1_545
Cd35 Pd21 3.278743 1_555
Cd36 Pd21 2.872535 1_555
Cd36 Pd24 2.887745 1_545
Cd36 Pd9 2.971353 1_555
Cd36 Cd48 3.189384 1_545
Cd37 Pd2 2.854345 1_555
Cd37 Pd4 2.889348 1_555
Cd37 Pd16 2.921654 1_555
Cd37 Pd15 2.952104 1_555
Cd38 Pd11 2.851020 1_555
Cd38 Pd24 2.956840 1_555
Cd38 Pd0 2.959994 1_555
Cd38 Cd48 2.978684 1_555
Cd38 Cd43 3.017755 1_555
Cd38 Cd71 3.189400 1_555
Cd39 Cd52 2.976395 1_555
Cd39 Cd6 2.978684 1_555
Cd39 Cd70 2.996447 1_555
Cd39 Cd43 2.997916 1_555
Cd39 Pd0 3.057420 1_555
Cd39 Pd9 3.060603 1_555
Cd39 Cd9 3.115085 1_655
Cd39 Cd67 3.189384 1_655
Cd39 Cd56 3.205937 1_555
Cd40 Cd54 2.907238 1_555
Cd40 Pd13 2.950713 1_555
Cd40 Cd57 2.979871 1_555
Cd40 Pd2 2.981938 1_665
Cd40 Pd10 3.046103 1_655
Cd40 Pd19 3.046103 1_565
Cd40 Cd80 3.057940 1_565
Cd40 Cd65 3.057940 1_655
Cd40 Cd77 3.189400 1_665
Cd40 Cd59 3.189400 1_665
Cd41 Pd26 2.846906 1_555
Cd41 Pd11 2.949485 1_555
Cd41 Cd71 2.979871 1_555
Cd41 Pd8 3.026473 1_555
Cd42 Pd3 2.887613 1_655
Cd42 Pd26 2.941007 1_555
Cd42 Pd12 3.009652 1_555
Cd42 Pd22 3.031215 1_555
Cd43 Pd21 2.894603 1_555
Cd43 Cd56 2.898787 1_555
Cd43 Cd78 2.898787 1_555
Cd43 Cd71 2.907238 1_555
Cd43 Pd0 2.938174 1_555
Cd43 Pd9 2.961025 1_555
Cd43 Pd24 2.961025 1_555
Cd43 Cd48 2.997916 1_555
Cd43 Cd6 3.017755 1_555
Cd44 Pd19 2.867099 1_555
Cd44 Pd2 3.002699 1_555
Cd44 Pd25 3.093178 1_555
Cd45 Cd73 2.884084 1_555
Cd45 Cd69 2.901014 1_555
Cd45 Cd62 2.903591 1_545
Cd45 Cd8 2.903591 1_455
Cd45 Pd23 2.957582 1_545
Cd45 Pd12 2.957582 1_455
Cd45 Pd26 2.962190 1_555
Cd45 Pd8 2.971331 1_445
Cd45 Pd3 2.991102 1_555
Cd45 Pd22 2.991102 1_555
Cd46 Cd48 2.939187 1_555
Cd46 Cd59 2.978684 1_565
Cd46 Cd56 2.996446 1_565
Cd46 Cd54 2.997916 1_455
Cd46 Pd6 3.057421 1_565
Cd46 Pd10 3.060603 1_555
Cd46 Cd70 3.205937 1_455
Cd46 Cd9 3.264514 1_555
Cd47 Pd5 2.817688 1_556
Cd47 Pd14 3.072288 1_556
Cd47 Pd18 3.072288 1_555
Cd48 Cd9 2.976395 1_555
Cd48 Cd81 2.996447 1_555
Cd48 Pd0 3.057420 1_555
Cd48 Pd24 3.060603 1_555
Cd48 Cd52 3.115085 1_565
Cd48 Cd78 3.205937 1_555
Cd49 Pd25 2.887613 1_565
Cd49 Pd17 2.941007 1_555
Cd49 Pd1 3.009652 1_565
Cd49 Pd15 3.031215 1_555
Cd50 Pd7 2.897613 1_556
Cd50 Pd18 2.974730 1_555
Cd50 Pd23 3.118737 1_545
Cd51 Pd5 2.896097 1_665
Cd51 Cd82 2.947017 1_554
Cd51 Pd14 2.952723 1_555
Cd51 Pd7 3.006951 1_565
Cd51 Pd20 3.006951 1_655
Cd51 Cd7 3.034150 1_555
Cd51 Cd75 3.061167 1_555
Cd51 Cd55 3.061167 1_555
Cd51 Cd79 3.119946 1_555
Cd52 Pd9 2.880450 1_555
Cd52 Pd0 2.949507 1_545
Cd53 Pd2 2.889942 1_555
Cd53 Pd17 2.945238 1_555
Cd53 Pd15 2.993769 1_555
Cd53 Pd25 2.993769 1_555
Cd54 Pd13 2.894603 1_555
Cd54 Cd70 2.898787 1_555
Cd54 Cd81 2.898787 1_555
Cd54 Pd6 2.938174 1_665
Cd54 Pd10 2.961025 1_655
Cd54 Pd19 2.961025 1_565
Cd54 Cd77 3.017755 1_665
Cd54 Cd59 3.017755 1_665
Cd55 Pd1 2.829313 1_565
Cd55 Pd14 3.082982 1_555
Cd55 Pd7 3.135224 1_565
Cd55 Cd7 3.190799 1_555
Cd56 Pd6 2.886970 1_555
Cd56 Pd9 2.927772 1_555
Cd56 Pd21 2.971240 1_555
Cd57 Pd17 2.846906 1_555
Cd57 Cd7 2.913357 1_555
Cd57 Pd2 2.949484 1_665
Cd57 Pd16 3.026473 1_665
Cd58 Pd23 2.829313 1_555
Cd58 Cd82 3.061166 1_555
Cd58 Pd18 3.082982 1_555
Cd58 Pd7 3.135224 1_566
Cd59 Pd2 2.851020 1_555
Cd59 Pd10 2.956840 1_545
Cd59 Pd6 2.959994 1_555
Cd60 Pd3 2.812350 1_655
Cd60 Cd71 3.057940 1_555
Cd60 Pd11 3.068931 1_555
Cd60 Pd9 3.140651 1_555
Cd61 Pd3 2.863485 1_555
Cd61 Cd71 2.918690 1_555
Cd61 Pd26 2.932598 1_555
Cd61 Pd24 2.970487 1_555
Cd61 Pd21 3.015874 1_555
Cd62 Pd11 2.854345 1_455
Cd62 Pd23 2.889347 1_555
Cd62 Pd8 2.921654 1_455
Cd62 Pd22 2.952104 1_565
Cd63 Pd20 2.897613 1_555
Cd63 Pd14 2.974730 1_555
Cd63 Pd4 3.118737 1_555
Cd64 Pd10 2.867099 1_555
Cd64 Pd2 3.002699 1_555
Cd64 Pd15 3.093178 1_555
Cd65 Pd15 2.812351 1_555
Cd65 Pd2 3.068931 1_565
Cd65 Pd10 3.140651 1_555
Cd66 Pd13 2.872535 1_555
Cd66 Pd19 2.887745 1_555
Cd66 Pd10 2.971353 1_655
Cd67 Pd21 2.872535 1_555
Cd67 Pd9 2.887745 1_455
Cd67 Pd24 2.971353 1_555
Cd68 Pd7 2.897613 1_555
Cd68 Pd14 2.974730 1_555
Cd68 Pd1 3.118737 1_555
Cd69 Pd18 2.918883 1_555
Cd69 Pd8 2.989288 1_445
Cd69 Pd23 3.035343 1_545
Cd69 Pd12 3.035343 1_455
Cd70 Pd0 2.886970 1_555
Cd70 Pd10 2.927772 1_655
Cd70 Pd13 2.971240 1_555
Cd71 Pd21 2.950713 1_555
Cd71 Pd11 2.981938 1_555
Cd71 Pd9 3.046103 1_555
Cd71 Pd24 3.046103 1_555
Cd72 Pd24 2.867099 1_555
Cd72 Pd11 3.002699 1_455
Cd72 Pd22 3.093178 1_565
Cd73 Pd18 2.891700 1_555
Cd73 Pd22 2.905945 1_555
Cd73 Pd26 2.950964 1_555
Cd73 Pd23 3.015563 1_545
Cd74 Pd1 2.888583 1_555
Cd74 Pd16 2.938487 1_655
Cd74 Pd25 2.954327 1_555
Cd74 Pd4 3.078687 1_655
Cd75 Pd4 2.829313 1_655
Cd75 Pd14 3.082982 1_555
Cd75 Pd20 3.135224 1_655
Cd76 Pd14 2.891700 1_555
Cd76 Pd15 2.905946 1_555
Cd76 Pd17 2.950964 1_555
Cd76 Pd4 3.015563 1_555
Cd77 Pd2 2.851020 1_555
Cd77 Pd19 2.956840 1_455
Cd77 Pd6 2.959994 1_555
Cd78 Pd6 2.886970 1_555
Cd78 Pd24 2.927772 1_555
Cd78 Pd21 2.971240 1_555
Cd79 Pd18 2.892956 1_554
Cd79 Pd14 2.892956 1_555
Cd79 Pd7 2.962544 1_565
Cd79 Cd82 3.119946 1_554
Cd80 Pd25 2.812351 1_555
Cd80 Pd2 3.068931 1_655
Cd80 Pd19 3.140651 1_555
Cd81 Pd0 2.886970 1_555
Cd81 Pd19 2.927772 1_565
Cd81 Pd13 2.971240 1_555
Cd82 Pd5 2.896097 1_666
Cd82 Cd83 2.950041 1_565
Cd82 Pd18 2.952723 1_555
Cd82 Pd7 3.006951 1_566
Cd82 Pd20 3.006951 1_656
Cd83 Pd12 2.883392 1_555
Cd83 Pd8 2.921963 1_545
Cd83 Pd7 2.975176 1_556
Cd83 Pd5 3.031649 1_656
Cd84 Pd5 2.884972 1_565
Cd84 Pd7 2.898695 1_565
Cd84 Pd20 2.949652 1_555
