# generated using pymatgen
data_YZr9O20
_symmetry_space_group_name_H-M   'P 1'
_cell_length_a   6.40855800
_cell_length_b   7.38712724
_cell_length_c   8.17599116
_cell_angle_alpha   77.12690548
_cell_angle_beta   75.30383046
_cell_angle_gamma   72.53285262
_symmetry_Int_Tables_number   1
_chemical_formula_structural   YZr9O20
_chemical_formula_sum   'Y1 Zr9 O20'
_cell_volume   352.59251248
_cell_formula_units_Z   1
loop_
 _symmetry_equiv_pos_site_id
 _symmetry_equiv_pos_as_xyz
  1  'x, y, z'
loop_
 _atom_site_type_symbol
 _atom_site_label
 _atom_site_symmetry_multiplicity
 _atom_site_fract_x
 _atom_site_fract_y
 _atom_site_fract_z
 _atom_site_occupancy
  Y  Y0  1  0.20095300  0.30050600  0.59975800  1
  Zr  Zr0  1  0.99775500  0.00137100  0.00017900  1
  Zr  Zr1  1  0.39913700  0.60162300  0.20052100  1
  Zr  Zr2  1  0.00014700  0.50086500  0.99836000  1
  Zr  Zr3  1  0.80154800  0.19858500  0.40203700  1
  Zr  Zr4  1  0.40107500  0.10010900  0.20066000  1
  Zr  Zr5  1  0.20085400  0.79996900  0.59679200  1
  Zr  Zr6  1  0.80118800  0.69898500  0.40004700  1
  Zr  Zr7  1  0.60142600  0.39802900  0.80037000  1
  Zr  Zr8  1  0.59647500  0.89932700  0.80111800  1
  O  O0  1  0.37101000  0.91566100  0.04614800  1
  O  O1  1  0.77581900  0.51506400  0.23951400  1
  O  O2  1  0.32568300  0.38275400  0.05798100  1
  O  O3  1  0.02754200  0.18468200  0.15722900  1
  O  O4  1  0.16879700  0.10198500  0.43710800  1
  O  O5  1  0.43791600  0.78065300  0.35761200  1
  O  O6  1  0.73030700  0.98436000  0.25830000  1
  O  O7  1  0.57354000  0.71574800  0.64158500  1
  O  O8  1  0.07451200  0.71503200  0.13682200  1
  O  O9  1  0.82258400  0.39273900  0.55295400  1
  O  O10  1  0.12992000  0.60194300  0.44804500  1
  O  O11  1  0.95585500  0.31538900  0.85363700  1
  O  O12  1  0.47820300  0.31398200  0.33642300  1
  O  O13  1  0.22919400  0.97819200  0.76215800  1
  O  O14  1  0.54602800  0.18209400  0.66095900  1
  O  O15  1  0.86842700  0.91324600  0.54501600  1
  O  O16  1  0.61988400  0.58930100  0.95724700  1
  O  O17  1  0.92319100  0.78565900  0.85678500  1
  O  O18  1  0.27166400  0.51953900  0.74713000  1
  O  O19  1  0.66935800  0.11261600  0.94750700  1
loop_
_geom_bond_atom_site_label_1
_geom_bond_atom_site_label_2
_geom_bond_distance
_geom_bond_site_symmetry_2
O0 Zr4 2.130168 1_565
O0 Zr8 2.156411 1_554
O0 Zr1 2.359430 1_555
O0 Zr0 2.388484 1_465
O1 Zr2 2.128069 1_654
O1 Zr6 2.151863 1_555
O1 Zr1 2.389741 1_555
O1 Zr3 2.398757 1_555
O2 Zr4 2.132794 1_555
O2 Zr2 2.141246 1_554
O2 Zr7 2.386829 1_554
O2 Zr1 2.401808 1_555
O3 Zr0 2.138507 1_455
O3 Zr3 2.155406 1_455
O3 Zr4 2.383561 1_555
O3 Zr2 2.385606 1_554
O4 Zr4 2.119605 1_555
O4 Y0 2.269573 1_555
O4 Zr5 2.299408 1_545
O4 Zr3 2.318101 1_455
O5 Zr1 2.139290 1_555
O5 Zr5 2.153909 1_555
O5 Zr6 2.318957 1_555
O5 Zr4 2.396100 1_565
O6 Zr6 2.144098 1_555
O6 Zr4 2.155650 1_565
O6 Zr0 2.362848 1_565
O6 Zr3 2.372442 1_565
O7 Zr8 2.137071 1_555
O7 Zr6 2.140632 1_555
O7 Zr5 2.382394 1_555
O7 Zr7 2.394601 1_555
O8 Zr0 2.136703 1_465
O8 Zr1 2.147116 1_555
O8 Zr2 2.352887 1_554
O8 Zr6 2.410835 1_455
O9 Zr3 2.141668 1_555
O9 Zr7 2.156286 1_555
O9 Zr6 2.310880 1_555
O9 Y0 2.419328 1_655
O10 Zr6 2.119808 1_455
O10 Y0 2.269692 1_555
O10 Zr5 2.301741 1_555
O10 Zr1 2.302244 1_555
O11 Zr2 2.117593 1_655
O11 Y0 2.265302 1_655
O11 Zr7 2.296202 1_555
O11 Zr0 2.332269 1_556
O12 Zr1 2.143273 1_555
O12 Zr3 2.146675 1_555
O12 Zr4 2.345443 1_555
O12 Y0 2.423231 1_555
O13 Zr0 2.132563 1_466
O13 Zr5 2.157679 1_555
O13 Zr8 2.335703 1_555
O13 Y0 2.432974 1_565
O14 Zr8 2.120594 1_545
O14 Y0 2.260780 1_555
O14 Zr7 2.307627 1_555
O14 Zr3 2.328888 1_555
O15 Zr3 2.146428 1_565
O15 Zr5 2.155804 1_655
O15 Zr8 2.364828 1_555
O15 Zr6 2.366473 1_555
O16 Zr1 2.131059 1_556
O16 Zr7 2.154157 1_555
O16 Zr8 2.342064 1_555
O16 Zr2 2.416712 1_655
O17 Zr8 2.133992 1_555
O17 Zr2 2.142611 1_655
O17 Zr0 2.390784 1_566
O17 Zr5 2.406181 1_655
O18 Zr5 2.142956 1_555
O18 Zr7 2.148279 1_555
O18 Zr2 2.338859 1_555
O18 Y0 2.420965 1_555
O19 Zr0 2.133973 1_556
O19 Zr7 2.160216 1_555
O19 Zr4 2.335188 1_556
O19 Zr8 2.387231 1_545
