# generated using pymatgen
data_Cr2Ag2O7
_symmetry_space_group_name_H-M   'P 1'
_cell_length_a   6.86508500
_cell_length_b   7.33593631
_cell_length_c   7.39610051
_cell_angle_alpha   117.51399876
_cell_angle_beta   90.23165185
_cell_angle_gamma   95.87308045
_symmetry_Int_Tables_number   1
_chemical_formula_structural   Cr2Ag2O7
_chemical_formula_sum   'Cr4 Ag4 O14'
_cell_volume   328.06242790
_cell_formula_units_Z   2
loop_
 _symmetry_equiv_pos_site_id
 _symmetry_equiv_pos_as_xyz
  1  'x, y, z'
loop_
 _atom_site_type_symbol
 _atom_site_label
 _atom_site_symmetry_multiplicity
 _atom_site_fract_x
 _atom_site_fract_y
 _atom_site_fract_z
 _atom_site_occupancy
  Cr  Cr0  1  0.14697400  0.67690100  0.80298800  1
  Cr  Cr1  1  0.85302600  0.32309900  0.19701200  1
  Cr  Cr2  1  0.66207600  0.99840000  0.75599400  1
  Cr  Cr3  1  0.33792400  0.00160000  0.24400600  1
  Ag  Ag0  1  0.37574300  0.54691100  0.31166400  1
  Ag  Ag1  1  0.62425700  0.45308900  0.68833600  1
  Ag  Ag2  1  0.82878400  0.83991200  0.24530000  1
  Ag  Ag3  1  0.17121600  0.16008800  0.75470000  1
  O  O0  1  0.14033700  0.68173700  0.58503300  1
  O  O1  1  0.85966300  0.31826300  0.41496700  1
  O  O2  1  0.92445000  0.64848300  0.88074300  1
  O  O3  1  0.07555000  0.35151700  0.11925700  1
  O  O4  1  0.27839600  0.49724000  0.79598300  1
  O  O5  1  0.72160400  0.50276000  0.20401700  1
  O  O6  1  0.86043400  0.02781700  0.64304200  1
  O  O7  1  0.13956600  0.97218300  0.35695800  1
  O  O8  1  0.73612900  0.07451700  0.01349800  1
  O  O9  1  0.26387100  0.92548300  0.98650200  1
  O  O10  1  0.42956300  0.24645200  0.35246800  1
  O  O11  1  0.57043700  0.75354800  0.64753200  1
  O  O12  1  0.49515600  0.84800600  0.25466100  1
  O  O13  1  0.50484400  0.15199400  0.74533900  1
loop_
_geom_bond_atom_site_label_1
_geom_bond_atom_site_label_2
_geom_bond_distance
_geom_bond_site_symmetry_2
Cr0 O0 1.629266 1_555
Cr0 O4 1.653604 1_555
Cr0 O2 1.661500 1_455
Cr0 O9 1.793476 1_555
Cr1 O1 1.629266 1_555
Cr1 O5 1.653604 1_555
Cr1 O3 1.661500 1_655
Cr1 O8 1.793476 1_555
Cr2 O11 1.642878 1_555
Cr2 O6 1.647557 1_565
Cr2 O13 1.664684 1_565
Cr2 O8 1.774534 1_566
Cr3 O10 1.642878 1_555
Cr3 O7 1.647557 1_545
Cr3 O12 1.664684 1_545
Cr3 O9 1.774534 1_544
Ag0 O3 2.411211 1_555
Ag0 O10 2.422027 1_555
Ag0 O0 2.486727 1_555
Ag0 O12 2.494247 1_555
Ag0 O5 2.512133 1_555
Ag0 O11 2.516848 1_555
Ag1 O2 2.411211 1_555
Ag1 O11 2.422027 1_555
Ag1 O1 2.486727 1_555
Ag1 O13 2.494247 1_555
Ag1 O4 2.512133 1_555
Ag1 O10 2.516848 1_555
Ag2 O7 2.235455 1_655
Ag2 O12 2.297715 1_555
Ag2 O5 2.383269 1_555
Ag2 O2 2.525491 1_554
Ag2 O6 2.605404 1_565
Ag3 O6 2.235455 1_455
Ag3 O13 2.297715 1_555
Ag3 O4 2.383269 1_555
Ag3 O3 2.525491 1_556
Ag3 O7 2.605404 1_545
