# generated using pymatgen
data_NiH16C2S3N6O7
_symmetry_space_group_name_H-M   'P 1'
_cell_length_a   16.62978500
_cell_length_b   6.53793500
_cell_length_c   7.03993988
_cell_angle_alpha   79.28663815
_cell_angle_beta   90.00000000
_cell_angle_gamma   90.00000000
_symmetry_Int_Tables_number   1
_chemical_formula_structural   NiH16C2S3N6O7
_chemical_formula_sum   'Ni2 H32 C4 S6 N12 O14'
_cell_volume   752.07205075
_cell_formula_units_Z   2
loop_
 _symmetry_equiv_pos_site_id
 _symmetry_equiv_pos_as_xyz
  1  'x, y, z'
loop_
 _atom_site_type_symbol
 _atom_site_label
 _atom_site_symmetry_multiplicity
 _atom_site_fract_x
 _atom_site_fract_y
 _atom_site_fract_z
 _atom_site_occupancy
  Ni  Ni0  1  0.50000000  0.00000000  0.00000000  1
  Ni  Ni1  1  0.00000000  0.00000000  0.00000000  1
  H  H0  1  0.65326800  0.92648600  0.04694800  1
  H  H1  1  0.15326800  0.07351400  0.95305200  1
  H  H2  1  0.34673200  0.07351400  0.95305200  1
  H  H3  1  0.84673200  0.92648600  0.04694800  1
  H  H4  1  0.61909600  0.81747500  0.86657800  1
  H  H5  1  0.11909600  0.18252500  0.13342200  1
  H  H6  1  0.38090400  0.18252500  0.13342200  1
  H  H7  1  0.88090400  0.81747500  0.86657800  1
  H  H8  1  0.65559400  0.55287400  0.13869200  1
  H  H9  1  0.15559400  0.44712600  0.86130800  1
  H  H10  1  0.34440600  0.44712600  0.86130800  1
  H  H11  1  0.84440600  0.55287400  0.13869200  1
  H  H12  1  0.58564000  0.28255200  0.33373600  1
  H  H13  1  0.08564000  0.71744800  0.66626400  1
  H  H14  1  0.41436000  0.71744800  0.66626400  1
  H  H15  1  0.91436000  0.28255200  0.33373600  1
  H  H16  1  0.48085400  0.31897400  0.37475400  1
  H  H17  1  0.98085400  0.68102600  0.62524600  1
  H  H18  1  0.51914600  0.68102600  0.62524600  1
  H  H19  1  0.01914600  0.31897400  0.37475400  1
  H  H20  1  0.25000000  0.64604700  0.20588500  1
  H  H21  1  0.75000000  0.35395300  0.79411500  1
  H  H22  1  0.25000000  0.66086600  0.42356600  1
  H  H23  1  0.75000000  0.33913400  0.57643400  1
  H  H24  1  0.34606100  0.11194900  0.48454300  1
  H  H25  1  0.84606100  0.88805100  0.51545700  1
  H  H26  1  0.65393900  0.88805100  0.51545700  1
  H  H27  1  0.15393900  0.11194900  0.48454300  1
  H  H28  1  0.32980400  0.34542900  0.37967700  1
  H  H29  1  0.82980400  0.65457100  0.62032300  1
  H  H30  1  0.67019600  0.65457100  0.62032300  1
  H  H31  1  0.17019600  0.34542900  0.37967700  1
  C  C0  1  0.53525400  0.56673000  0.21324400  1
  C  C1  1  0.03525400  0.43327000  0.78675600  1
  C  C2  1  0.46474600  0.43327000  0.78675600  1
  C  C3  1  0.96474600  0.56673000  0.21324400  1
  S  S0  1  0.44809200  0.71165900  0.19530200  1
  S  S1  1  0.94809200  0.28834100  0.80469800  1
  S  S2  1  0.55190800  0.28834100  0.80469800  1
  S  S3  1  0.05190800  0.71165900  0.19530200  1
  S  S4  1  0.25000000  0.81222600  0.78180200  1
  S  S5  1  0.75000000  0.18777400  0.21819800  1
  N  N0  1  0.60620300  0.83939300  0.00666200  1
  N  N1  1  0.10620300  0.16060700  0.99333800  1
  N  N2  1  0.39379700  0.16060700  0.99333800  1
  N  N3  1  0.89379700  0.83939300  0.00666200  1
  N  N4  1  0.60394700  0.64399800  0.13057700  1
  N  N5  1  0.10394700  0.35600200  0.86942300  1
  N  N6  1  0.39605300  0.35600200  0.86942300  1
  N  N7  1  0.89605300  0.64399800  0.13057700  1
  N  N8  1  0.53424900  0.37341400  0.31329500  1
  N  N9  1  0.03424900  0.62658600  0.68670500  1
  N  N10  1  0.46575100  0.62658600  0.68670500  1
  N  N11  1  0.96575100  0.37341400  0.31329500  1
  O  O0  1  0.25000000  0.91221800  0.95687000  1
  O  O1  1  0.75000000  0.08778200  0.04313000  1
  O  O2  1  0.25000000  0.58007200  0.84466700  1
  O  O3  1  0.75000000  0.41992800  0.15533300  1
  O  O4  1  0.32339400  0.87633400  0.66294800  1
  O  O5  1  0.82339400  0.12366600  0.33705200  1
  O  O6  1  0.67660600  0.12366600  0.33705200  1
  O  O7  1  0.17660600  0.87633400  0.66294800  1
  O  O8  1  0.25000000  0.56046300  0.33609800  1
  O  O9  1  0.75000000  0.43953700  0.66390200  1
  O  O10  1  0.36737100  0.22767000  0.38630300  1
  O  O11  1  0.86737100  0.77233000  0.61369700  1
  O  O12  1  0.63262900  0.77233000  0.61369700  1
  O  O13  1  0.13262900  0.22767000  0.38630300  1
loop_
_geom_bond_atom_site_label_1
_geom_bond_atom_site_label_2
_geom_bond_distance
_geom_bond_site_symmetry_2
Ni0 S2 2.285976 1_554
Ni0 S0 2.285976 1_545
Ni1 S3 2.285976 1_545
Ni1 S1 2.285976 1_454
H0 N0 1.037926 1_555
H1 N1 1.037926 1_555
H2 N2 1.037926 1_555
H3 N3 1.037926 1_555
H4 N0 1.044798 1_556
H5 N1 1.044798 1_554
H6 N2 1.044798 1_554
H7 N3 1.044798 1_556
H8 N4 1.040776 1_555
H9 N5 1.040776 1_555
H10 N6 1.040776 1_555
H11 N7 1.040776 1_555
H12 N8 1.035470 1_555
H13 N9 1.035470 1_555
H14 N10 1.035470 1_555
H15 N11 1.035470 1_555
H16 N8 1.022291 1_555
H17 N9 1.022291 1_655
H18 N10 1.022291 1_555
H19 N11 1.022291 1_455
H20 O8 0.981178 1_555
H21 O9 0.981178 1_555
H22 O8 0.979975 1_555
H23 O9 0.979975 1_555
H24 O10 0.990843 1_555
H25 O11 0.990843 1_555
H26 O12 0.990843 1_555
H27 O13 0.990843 1_555
H28 O10 0.985829 1_555
H29 O11 0.985829 1_555
H30 O12 0.985829 1_555
H31 O13 0.985829 1_555
C0 N8 1.327715 1_555
C0 N4 1.337740 1_555
C0 S0 1.723453 1_555
C1 N9 1.327715 1_555
C1 N5 1.337740 1_555
C1 S1 1.723453 1_455
C2 N10 1.327715 1_555
C2 N6 1.337740 1_555
C2 S2 1.723453 1_555
C3 N11 1.327715 1_555
C3 N7 1.337740 1_555
C3 S3 1.723453 1_655
N0 N4 1.407137 1_555
N0 Ni0 2.050779 1_565
N1 N5 1.407137 1_555
N1 Ni1 2.050779 1_556
N2 N6 1.407137 1_555
N2 Ni0 2.050779 1_556
N3 N7 1.407137 1_555
N3 Ni1 2.050779 1_665
O0 S4 1.498637 1_555
O1 S5 1.498637 1_555
O2 S4 1.499954 1_555
O3 S5 1.499954 1_555
O4 S4 1.495018 1_555
O5 S5 1.495018 1_555
O6 S5 1.495018 1_555
O7 S4 1.495018 1_555
