# generated using pymatgen
data_Y2Te4O11
_symmetry_space_group_name_H-M   'P 1'
_cell_length_a   6.69820807
_cell_length_b   6.69820807
_cell_length_c   16.08931612
_cell_angle_alpha   75.47187859
_cell_angle_beta   75.47187859
_cell_angle_gamma   44.90393104
_symmetry_Int_Tables_number   1
_chemical_formula_structural   Y2Te4O11
_chemical_formula_sum   'Y4 Te8 O22'
_cell_volume   490.44733117
_cell_formula_units_Z   2
loop_
 _symmetry_equiv_pos_site_id
 _symmetry_equiv_pos_as_xyz
  1  'x, y, z'
loop_
 _atom_site_type_symbol
 _atom_site_label
 _atom_site_symmetry_multiplicity
 _atom_site_fract_x
 _atom_site_fract_y
 _atom_site_fract_z
 _atom_site_occupancy
  Y  Y0  1  0.37045949  0.86727110  0.46341843  1
  Y  Y1  1  0.13272890  0.62954051  0.03658157  1
  Y  Y2  1  0.86727110  0.37045949  0.96341843  1
  Y  Y3  1  0.62954051  0.13272890  0.53658157  1
  Te  Te0  1  0.59118983  0.15320335  0.87339967  1
  Te  Te1  1  0.40123155  0.84227184  0.80089431  1
  Te  Te2  1  0.15772816  0.59876845  0.69910569  1
  Te  Te3  1  0.84679665  0.40881017  0.62660033  1
  Te  Te4  1  0.15320335  0.59118983  0.37339967  1
  Te  Te5  1  0.84227184  0.40123155  0.30089431  1
  Te  Te6  1  0.40881017  0.84679665  0.12660033  1
  Te  Te7  1  0.59876845  0.15772816  0.19910569  1
  O  O0  1  0.15078387  0.84921613  0.75000000  1
  O  O1  1  0.81965655  0.03907146  0.95496430  1
  O  O2  1  0.79667791  0.90988813  0.66752364  1
  O  O3  1  0.81180718  0.68254736  0.37288615  1
  O  O4  1  0.18034345  0.96092854  0.04503570  1
  O  O5  1  0.90988813  0.79667791  0.16752364  1
  O  O6  1  0.84921613  0.15078387  0.25000000  1
  O  O7  1  0.20332209  0.09011187  0.33247636  1
  O  O8  1  0.18819282  0.31745264  0.62711385  1
  O  O9  1  0.03907146  0.81965655  0.45496430  1
  O  O10  1  0.66339740  0.75159731  0.55382917  1
  O  O11  1  0.31745264  0.18819282  0.12711385  1
  O  O12  1  0.55771393  0.39383999  0.09613762  1
  O  O13  1  0.33660260  0.24840269  0.44617083  1
  O  O14  1  0.68254736  0.81180718  0.87288615  1
  O  O15  1  0.24840269  0.33660260  0.94617083  1
  O  O16  1  0.75159731  0.66339740  0.05382917  1
  O  O17  1  0.09011187  0.20332209  0.83247636  1
  O  O18  1  0.39383999  0.55771393  0.59613762  1
  O  O19  1  0.44228607  0.60616001  0.90386238  1
  O  O20  1  0.96092854  0.18034345  0.54503570  1
  O  O21  1  0.60616001  0.44228607  0.40386238  1
loop_
_geom_bond_atom_site_label_1
_geom_bond_atom_site_label_2
_geom_bond_distance
_geom_bond_site_symmetry_2
O0 Te2 2.011567 1_555
O0 Te1 2.011567 1_555
O1 Te0 1.869615 1_555
O1 Y1 2.252161 1_646
O1 Y2 2.494676 1_555
O2 Te2 1.842720 1_655
O2 Y3 2.271172 1_565
O3 Te4 1.904835 1_655
O3 Te5 2.316395 1_555
O3 Y0 2.440130 1_555
O4 Te6 1.869615 1_555
O4 Y2 2.252161 1_464
O4 Y1 2.494676 1_555
O5 Te7 1.842720 1_565
O5 Y1 2.271172 1_655
O6 Te7 2.011567 1_555
O6 Te5 2.011567 1_555
O7 Te5 1.842720 1_455
O7 Y0 2.271172 1_545
O8 Te3 1.904835 1_455
O8 Te2 2.316395 1_555
O8 Y3 2.440130 1_555
O9 Te4 1.869615 1_555
O9 Y3 2.252161 1_465
O9 Y0 2.494676 1_555
O10 Te3 1.878590 1_555
O10 Y0 2.297675 1_555
O10 Y3 2.345580 1_565
O11 Te6 1.904835 1_545
O11 Te7 2.316395 1_555
O11 Y1 2.440130 1_555
O12 Te7 1.902475 1_555
O12 Y1 2.399412 1_555
O12 Y2 2.523886 1_554
O12 Te6 2.579587 1_555
O13 Te4 1.878590 1_555
O13 Y3 2.297675 1_555
O13 Y0 2.345580 1_545
O14 Te0 1.904835 1_565
O14 Te1 2.316395 1_555
O14 Y2 2.440130 1_555
O15 Te0 1.878590 1_555
O15 Y1 2.297675 1_556
O15 Y2 2.345580 1_455
O16 Te6 1.878590 1_555
O16 Y2 2.297675 1_554
O16 Y1 2.345580 1_655
O17 Te1 1.842720 1_545
O17 Y2 2.271172 1_455
O18 Te2 1.902475 1_555
O18 Y3 2.399412 1_555
O18 Y0 2.523886 1_555
O18 Te3 2.579587 1_555
O19 Te1 1.902475 1_555
O19 Y2 2.399412 1_555
O19 Y1 2.523886 1_556
O19 Te0 2.579587 1_555
O20 Te3 1.869615 1_555
O20 Y0 2.252161 1_645
O20 Y3 2.494676 1_555
O21 Te5 1.902475 1_555
O21 Y0 2.399412 1_555
O21 Y3 2.523886 1_555
O21 Te4 2.579587 1_555
