# generated using pymatgen
data_LiNbO3
_symmetry_space_group_name_H-M   'P 1'
_cell_length_a   5.22992700
_cell_length_b   5.57961066
_cell_length_c   30.29218475
_cell_angle_alpha   87.37851116
_cell_angle_beta   85.05839621
_cell_angle_gamma   62.10405718
_symmetry_Int_Tables_number   1
_chemical_formula_structural   LiNbO3
_chemical_formula_sum   'Li14 Nb14 O42'
_cell_volume   778.31958400
_cell_formula_units_Z   14
loop_
 _symmetry_equiv_pos_site_id
 _symmetry_equiv_pos_as_xyz
  1  'x, y, z'
loop_
 _atom_site_type_symbol
 _atom_site_label
 _atom_site_symmetry_multiplicity
 _atom_site_fract_x
 _atom_site_fract_y
 _atom_site_fract_z
 _atom_site_occupancy
  Li  Li0  1  0.31561100  0.39938600  0.96702100  1
  Li  Li1  1  0.84859800  0.48862100  0.81466800  1
  Li  Li2  1  0.02703100  0.04865000  0.89712200  1
  Li  Li3  1  0.27730800  0.77357000  0.67268000  1
  Li  Li4  1  0.56241300  0.12990200  0.74395900  1
  Li  Li5  1  0.70611600  0.05912000  0.52958900  1
  Li  Li6  1  0.99083600  0.41627000  0.60103200  1
  Li  Li7  1  0.13467300  0.34487300  0.38673300  1
  Li  Li8  1  0.41946600  0.70198300  0.45814900  1
  Li  Li9  1  0.56328400  0.63036500  0.24392500  1
  Li  Li10  1  0.84803500  0.98768800  0.31530900  1
  Li  Li11  1  0.99107200  0.91627300  0.10094700  1
  Li  Li12  1  0.27689100  0.27326600  0.17260500  1
  Li  Li13  1  0.70261900  0.56733600  0.02953900  1
  Nb  Nb0  1  0.01953800  0.97199900  0.99760300  1
  Nb  Nb1  1  0.44865400  0.25320600  0.85429700  1
  Nb  Nb2  1  0.72044100  0.62503300  0.92469600  1
  Nb  Nb3  1  0.88022000  0.52648600  0.71207000  1
  Nb  Nb4  1  0.16669900  0.88406900  0.78386200  1
  Nb  Nb5  1  0.30995000  0.81053500  0.56912100  1
  Nb  Nb6  1  0.59574600  0.16818900  0.64059300  1
  Nb  Nb7  1  0.73860300  0.09624500  0.42623600  1
  Nb  Nb8  1  0.02484400  0.45339900  0.49765300  1
  Nb  Nb9  1  0.16717400  0.38205000  0.28340200  1
  Nb  Nb10  1  0.45339900  0.73914800  0.35479300  1
  Nb  Nb11  1  0.59415000  0.67008600  0.14082600  1
  Nb  Nb12  1  0.88163400  0.02542900  0.21204800  1
  Nb  Nb13  1  0.30650000  0.31634400  0.06977700  1
  O  O0  1  0.44361000  0.96781500  0.89367200  1
  O  O1  1  0.42783400  0.77679000  0.98243700  1
  O  O2  1  0.91739600  0.85331200  0.94645800  1
  O  O3  1  0.52564600  0.42260900  0.91061300  1
  O  O4  1  0.00131400  0.48838100  0.87517200  1
  O  O5  1  0.87062600  0.25712600  0.75176200  1
  O  O6  1  0.97301600  0.32953200  0.96536600  1
  O  O7  1  0.85730500  0.08661700  0.83909800  1
  O  O8  1  0.32841300  0.15295600  0.80355300  1
  O  O9  1  0.93402800  0.72652300  0.76793500  1
  O  O10  1  0.42963100  0.79811800  0.73237000  1
  O  O11  1  0.29885200  0.54198400  0.60894700  1
  O  O12  1  0.41233200  0.60638400  0.82183900  1
  O  O13  1  0.28625700  0.36836800  0.69629400  1
  O  O14  1  0.75468600  0.44011600  0.66071700  1
  O  O15  1  0.36283600  0.01059200  0.62483900  1
  O  O16  1  0.85876400  0.08266700  0.58918000  1
  O  O17  1  0.72728900  0.82785800  0.46607700  1
  O  O18  1  0.83527600  0.89979900  0.68044300  1
  O  O19  1  0.71587100  0.65358200  0.55338800  1
  O  O20  1  0.18350900  0.72558900  0.51766900  1
  O  O21  1  0.79133100  0.29631200  0.48194800  1
  O  O22  1  0.28754600  0.36841500  0.44624300  1
  O  O23  1  0.15584600  0.11358800  0.32321900  1
  O  O24  1  0.26436400  0.18511300  0.53750800  1
  O  O25  1  0.14448400  0.93931000  0.41051800  1
  O  O26  1  0.61206900  0.01131100  0.37480000  1
  O  O27  1  0.21992500  0.58197000  0.33910700  1
  O  O28  1  0.71619000  0.65405100  0.30339900  1
  O  O29  1  0.58473400  0.39975500  0.18043300  1
  O  O30  1  0.69296300  0.47087100  0.39464600  1
  O  O31  1  0.57310800  0.22498000  0.26772900  1
  O  O32  1  0.04077800  0.29693600  0.23199100  1
  O  O33  1  0.64802400  0.86822900  0.19653500  1
  O  O34  1  0.14443000  0.94027100  0.16069100  1
  O  O35  1  0.01543200  0.68555500  0.03630700  1
  O  O36  1  0.12145900  0.75673800  0.25180800  1
  O  O37  1  0.00061500  0.51437600  0.12518700  1
  O  O38  1  0.46796700  0.58529100  0.08951100  1
  O  O39  1  0.07464000  0.15548200  0.05418600  1
  O  O40  1  0.56786700  0.23212300  0.01823400  1
  O  O41  1  0.54937300  0.04372000  0.10900400  1
loop_
_geom_bond_atom_site_label_1
_geom_bond_atom_site_label_2
_geom_bond_distance
_geom_bond_site_symmetry_2
Li0 O3 1.983108 1_555
Li0 O6 2.008859 1_455
Li0 O40 2.021443 1_556
Li0 O2 2.506692 1_455
Li0 O1 2.508079 1_555
Li0 O35 2.610071 1_556
Li1 O12 2.051737 1_555
Li1 O9 2.059069 1_555
Li1 O4 2.061075 1_655
Li1 O7 2.310689 1_555
Li1 O5 2.315358 1_555
Li1 O8 2.330768 1_655
Li2 O7 1.995244 1_455
Li2 O0 2.001643 1_545
Li2 O2 2.009560 1_445
Li2 O4 2.457109 1_555
Li2 O3 2.484009 1_455
Li2 O6 2.567294 1_455
Li3 O18 2.072115 1_455
Li3 O10 2.072602 1_555
Li3 O15 2.077453 1_565
Li3 O13 2.320392 1_555
Li3 O14 2.320649 1_555
Li3 O11 2.337546 1_555
Li4 O8 2.065534 1_555
Li4 O5 2.076005 1_555
Li4 O13 2.080005 1_555
Li4 O10 2.310177 1_545
Li4 O9 2.317518 1_545
Li4 O18 2.329222 1_545
Li5 O16 2.069120 1_555
Li5 O24 2.071123 1_555
Li5 O21 2.073448 1_555
Li5 O20 2.320705 1_645
Li5 O19 2.321947 1_545
Li5 O17 2.331397 1_545
Li6 O11 2.069723 1_655
Li6 O14 2.072538 1_555
Li6 O19 2.074892 1_555
Li6 O16 2.318975 1_555
Li6 O15 2.323869 1_655
Li6 O24 2.332184 1_655
Li7 O22 2.067462 1_555
Li7 O30 2.070903 1_455
Li7 O27 2.072867 1_555
Li7 O26 2.320807 1_555
Li7 O25 2.321847 1_545
Li7 O23 2.331521 1_555
Li8 O20 2.068160 1_555
Li8 O17 2.069481 1_555
Li8 O25 2.074670 1_555
Li8 O22 2.318600 1_555
Li8 O21 2.323477 1_555
Li8 O30 2.331554 1_555
Li9 O28 2.066785 1_555
Li9 O33 2.070057 1_555
Li9 O36 2.071071 1_555
Li9 O32 2.320936 1_655
Li9 O31 2.321030 1_555
Li9 O29 2.328408 1_555
Li10 O26 2.067444 1_565
Li10 O23 2.069413 1_665
Li10 O31 2.073363 1_565
Li10 O28 2.318723 1_555
Li10 O27 2.323669 1_655
Li10 O36 2.331123 1_655
Li11 O39 2.060369 1_665
Li11 O41 2.069591 1_565
Li11 O34 2.075870 1_655
Li11 O37 2.306754 1_655
Li11 O38 2.313181 1_655
Li11 O35 2.354072 1_655
Li12 O32 2.065159 1_555
Li12 O29 2.071411 1_555
Li12 O37 2.079109 1_555
Li12 O34 2.317563 1_545
Li12 O33 2.321251 1_545
Li12 O41 2.329776 1_555
Li13 O1 2.023869 1_554
Li13 O35 2.057551 1_655
Li13 O38 2.081811 1_555
Li13 O40 2.333615 1_555
Li13 O39 2.352293 1_655
Li13 O6 2.354959 1_554
Nb0 O1 1.912478 1_555
Nb0 O2 1.921375 1_455
Nb0 O35 1.945716 1_556
Nb0 O6 2.097848 1_465
Nb0 O39 2.142591 1_566
Nb0 O40 2.167398 1_466
Nb1 O8 1.909315 1_555
Nb1 O7 1.911644 1_555
Nb1 O0 1.954265 1_545
Nb1 O12 2.095405 1_555
Nb1 O4 2.131573 1_555
Nb1 O3 2.141901 1_555
Nb2 O4 1.914853 1_655
Nb2 O3 1.921241 1_555
Nb2 O6 2.009412 1_555
Nb2 O0 2.028848 1_555
Nb2 O2 2.130586 1_555
Nb2 O1 2.140098 1_555
Nb3 O5 1.897849 1_555
Nb3 O14 1.903610 1_555
Nb3 O13 1.904422 1_655
Nb3 O18 2.170223 1_555
Nb3 O10 2.173027 1_555
Nb3 O9 2.176569 1_555
Nb4 O12 1.898258 1_555
Nb4 O9 1.904491 1_455
Nb4 O10 1.906761 1_555
Nb4 O8 2.162878 1_565
Nb4 O7 2.165761 1_465
Nb4 O5 2.175815 1_465
Nb5 O11 1.899473 1_555
Nb5 O19 1.903977 1_555
Nb5 O20 1.905141 1_555
Nb5 O15 2.170921 1_565
Nb5 O16 2.174282 1_465
Nb5 O24 2.175311 1_565
Nb6 O18 1.899687 1_545
Nb6 O15 1.904087 1_555
Nb6 O16 1.905283 1_555
Nb6 O14 2.171791 1_555
Nb6 O11 2.173256 1_555
Nb6 O13 2.173615 1_555
Nb7 O17 1.899426 1_545
Nb7 O25 1.903718 1_645
Nb7 O26 1.904954 1_555
Nb7 O21 2.170448 1_555
Nb7 O22 2.173487 1_555
Nb7 O30 2.175182 1_555
Nb8 O24 1.899507 1_555
Nb8 O21 1.904174 1_455
Nb8 O22 1.904482 1_555
Nb8 O20 2.170914 1_555
Nb8 O19 2.173199 1_455
Nb8 O17 2.175577 1_455
Nb9 O23 1.899342 1_555
Nb9 O31 1.903686 1_555
Nb9 O32 1.904369 1_555
Nb9 O27 2.169828 1_555
Nb9 O28 2.172949 1_455
Nb9 O36 2.175420 1_555
Nb10 O30 1.899524 1_555
Nb10 O27 1.904199 1_555
Nb10 O28 1.904327 1_555
Nb10 O26 2.170705 1_565
Nb10 O25 2.172820 1_555
Nb10 O23 2.175482 1_565
Nb11 O29 1.900206 1_555
Nb11 O38 1.900476 1_555
Nb11 O37 1.906346 1_655
Nb11 O34 2.165172 1_555
Nb11 O33 2.166455 1_555
Nb11 O41 2.174488 1_565
Nb12 O36 1.899190 1_645
Nb12 O33 1.903218 1_545
Nb12 O34 1.903464 1_645
Nb12 O32 2.168597 1_655
Nb12 O31 2.170265 1_555
Nb12 O29 2.174629 1_555
Nb13 O40 1.904073 1_555
Nb13 O41 1.904199 1_555
Nb13 O39 1.911790 1_555
Nb13 O37 2.156491 1_555
Nb13 O38 2.162666 1_555
Nb13 O35 2.174738 1_555
