# generated using pymatgen
data_LiCa3Zr3TaO12
_symmetry_space_group_name_H-M   'P 1'
_cell_length_a   5.79924400
_cell_length_b   5.55991100
_cell_length_c   15.96838370
_cell_angle_alpha   89.87385390
_cell_angle_beta   90.00000000
_cell_angle_gamma   90.00000000
_symmetry_Int_Tables_number   1
_chemical_formula_structural   LiCa3Zr3TaO12
_chemical_formula_sum   'Li2 Ca6 Zr6 Ta2 O24'
_cell_volume   514.87182707
_cell_formula_units_Z   2
loop_
 _symmetry_equiv_pos_site_id
 _symmetry_equiv_pos_as_xyz
  1  'x, y, z'
loop_
 _atom_site_type_symbol
 _atom_site_label
 _atom_site_symmetry_multiplicity
 _atom_site_fract_x
 _atom_site_fract_y
 _atom_site_fract_z
 _atom_site_occupancy
  Li  Li0  1  0.38031800  0.71472900  0.50040600  1
  Li  Li1  1  0.88031800  0.28527100  0.49959400  1
  Ca  Ca0  1  0.94481500  0.26328500  0.25784500  1
  Ca  Ca1  1  0.94431500  0.26986800  0.74112600  1
  Ca  Ca2  1  0.44481500  0.73671500  0.74215500  1
  Ca  Ca3  1  0.44431500  0.73013200  0.25887400  1
  Ca  Ca4  1  0.54797900  0.76705200  0.00014200  1
  Ca  Ca5  1  0.04797900  0.23294800  0.99985800  1
  Zr  Zr0  1  0.49516200  0.25440900  0.87301300  1
  Zr  Zr1  1  0.48013400  0.23311900  0.38142100  1
  Zr  Zr2  1  0.99516200  0.74559100  0.12698700  1
  Zr  Zr3  1  0.99616800  0.75121000  0.87216400  1
  Zr  Zr4  1  0.98013400  0.76688100  0.61857900  1
  Zr  Zr5  1  0.49616800  0.24879000  0.12783600  1
  Ta  Ta0  1  0.98765700  0.75332500  0.38001800  1
  Ta  Ta1  1  0.48765700  0.24667500  0.61998200  1
  O  O0  1  0.45411500  0.35618200  0.99986100  1
  O  O1  1  0.51342600  0.36804000  0.50401100  1
  O  O2  1  0.19016100  0.43839900  0.15664800  1
  O  O3  1  0.23241300  0.45956100  0.65016800  1
  O  O4  1  0.21490200  0.45713300  0.34768400  1
  O  O5  1  0.19125000  0.44411500  0.84225100  1
  O  O6  1  0.69125000  0.55588500  0.15774900  1
  O  O7  1  0.73241300  0.54043900  0.34983200  1
  O  O8  1  0.71490200  0.54286700  0.65231600  1
  O  O9  1  0.69016100  0.56160100  0.84335200  1
  O  O10  1  0.95411500  0.64381800  0.00013900  1
  O  O11  1  0.01342600  0.63196000  0.49598900  1
  O  O12  1  0.04106600  0.85802800  0.74530000  1
  O  O13  1  0.03457200  0.84732500  0.25749800  1
  O  O14  1  0.29611700  0.94738300  0.90289600  1
  O  O15  1  0.29618500  0.94210000  0.09896900  1
  O  O16  1  0.31854500  0.95720000  0.59747800  1
  O  O17  1  0.30600100  0.92003700  0.39856000  1
  O  O18  1  0.79618500  0.05790000  0.90103100  1
  O  O19  1  0.81854500  0.04280000  0.40252200  1
  O  O20  1  0.79611700  0.05261700  0.09710400  1
  O  O21  1  0.80600100  0.07996300  0.60144000  1
  O  O22  1  0.54106600  0.14197200  0.25470000  1
  O  O23  1  0.53457200  0.15267500  0.74250200  1
loop_
_geom_bond_atom_site_label_1
_geom_bond_atom_site_label_2
_geom_bond_distance
_geom_bond_site_symmetry_2
Li0 O17 2.031129 1_555
Li0 O1 2.077061 1_555
Li0 O16 2.087513 1_555
Li0 O11 2.178068 1_555
Li1 O21 2.031129 1_555
Li1 O11 2.077061 1_655
Li1 O19 2.087513 1_555
Li1 O1 2.178068 1_555
Ca0 O2 2.361510 1_655
Ca0 O13 2.370573 1_645
Ca0 O4 2.383221 1_655
Ca0 O22 2.437200 1_555
Ca0 O7 2.461580 1_555
Ca0 O6 2.711502 1_555
Ca0 O19 2.713635 1_555
Ca0 O20 2.952477 1_555
Ca1 O12 2.358334 1_645
Ca1 O5 2.367229 1_655
Ca1 O3 2.450841 1_655
Ca1 O23 2.464002 1_555
Ca1 O8 2.464867 1_555
Ca1 O21 2.596919 1_555
Ca1 O9 2.734892 1_555
Ca1 O18 2.938298 1_555
Ca2 O9 2.361510 1_555
Ca2 O23 2.370573 1_565
Ca2 O8 2.383221 1_555
Ca2 O12 2.437200 1_555
Ca2 O3 2.461580 1_555
Ca2 O5 2.711502 1_555
Ca2 O16 2.713635 1_555
Ca2 O14 2.952477 1_555
Ca3 O22 2.358334 1_565
Ca3 O6 2.367229 1_555
Ca3 O7 2.450841 1_555
Ca3 O13 2.464002 1_555
Ca3 O4 2.464867 1_555
Ca3 O17 2.596919 1_555
Ca3 O2 2.734892 1_555
Ca3 O15 2.938298 1_555
Ca4 O0 2.348373 1_554
Ca4 O14 2.354391 1_554
Ca4 O15 2.361489 1_555
Ca4 O10 2.452919 1_555
Ca4 O20 2.645702 1_565
Ca4 O18 2.679619 1_564
Ca4 O9 2.875017 1_554
Ca4 O6 2.896496 1_555
Ca5 O10 2.348373 1_456
Ca5 O20 2.354391 1_456
Ca5 O18 2.361489 1_455
Ca5 O0 2.452919 1_555
Ca5 O14 2.645702 1_545
Ca5 O15 2.679619 1_546
Ca5 O2 2.875017 1_556
Ca5 O5 2.896496 1_555
O0 Zr0 2.117730 1_555
O0 Zr5 2.141666 1_556
O1 Ta1 1.975241 1_555
O1 Zr1 2.106780 1_555
O2 Zr2 2.101598 1_455
O2 Zr5 2.115279 1_555
O3 Ta1 1.956243 1_555
O3 Zr4 2.304487 1_455
O4 Zr1 2.050470 1_555
O4 Ta0 2.172329 1_455
O5 Zr3 2.104030 1_455
O5 Zr0 2.111344 1_555
O6 Zr5 2.104030 1_555
O6 Zr2 2.111344 1_555
O7 Ta0 1.956243 1_555
O7 Zr1 2.304487 1_555
O8 Zr4 2.050470 1_555
O8 Ta1 2.172329 1_555
O9 Zr0 2.101598 1_555
O9 Zr3 2.115279 1_555
O10 Zr2 2.117730 1_555
O10 Zr3 2.141666 1_554
O11 Ta0 1.975241 1_455
O11 Zr4 2.106780 1_455
O12 Zr4 2.116805 1_455
O12 Zr3 2.125825 1_455
O13 Ta0 2.042143 1_455
O13 Zr2 2.172701 1_455
O14 Zr3 2.111540 1_455
O14 Zr0 2.114362 1_565
O15 Zr2 2.106946 1_455
O15 Zr5 2.113898 1_565
O16 Ta1 1.919334 1_565
O16 Zr4 2.254590 1_455
O17 Zr1 2.030430 1_565
O17 Ta0 2.087178 1_455
O18 Zr0 2.106946 1_555
O18 Zr3 2.113898 1_545
O19 Ta0 1.919334 1_545
O19 Zr1 2.254590 1_555
O20 Zr5 2.111540 1_555
O20 Zr2 2.114362 1_545
O21 Zr4 2.030430 1_545
O21 Ta1 2.087178 1_555
O22 Zr1 2.116805 1_555
O22 Zr5 2.125825 1_555
O23 Ta1 2.042143 1_555
O23 Zr0 2.172701 1_555
