# generated using pymatgen
data_OsPtCl2
_symmetry_space_group_name_H-M   'P 1'
_cell_length_a   4.53490630
_cell_length_b   4.53490630
_cell_length_c   4.53490630
_cell_angle_alpha   60.00000000
_cell_angle_beta   60.00000000
_cell_angle_gamma   60.00000000
_symmetry_Int_Tables_number   1
_chemical_formula_structural   OsPtCl2
_chemical_formula_sum   'Os1 Pt1 Cl2'
_cell_volume   65.94622771
_cell_formula_units_Z   1
loop_
 _symmetry_equiv_pos_site_id
 _symmetry_equiv_pos_as_xyz
  1  'x, y, z'
loop_
 _atom_site_type_symbol
 _atom_site_label
 _atom_site_symmetry_multiplicity
 _atom_site_fract_x
 _atom_site_fract_y
 _atom_site_fract_z
 _atom_site_occupancy
  Os  Os0  1  0.50000000  0.50000000  0.50000000  1
  Pt  Pt0  1  0.75000000  0.75000000  0.75000000  1
  Cl  Cl0  1  0.00000000  0.00000000  0.00000000  1
  Cl  Cl1  1  0.25000000  0.25000000  0.25000000  1
loop_
_geom_bond_atom_site_label_1
_geom_bond_atom_site_label_2
_geom_bond_distance
_geom_bond_site_symmetry_2
Os0 Pt0 2.777052 1_455
Os0 Pt0 2.777052 1_555
Os0 Pt0 2.777052 1_545
Os0 Pt0 2.777052 1_554
Cl0 Pt0 2.777052 1_445
Cl0 Pt0 2.777052 1_454
Cl0 Pt0 2.777052 1_444
Cl0 Pt0 2.777052 1_544
Cl1 Os0 2.777052 1_455
Cl1 Os0 2.777052 1_555
Cl1 Os0 2.777052 1_554
Cl1 Os0 2.777052 1_545
