# generated using pymatgen
data_K3Co(CN)6
_symmetry_space_group_name_H-M   'P 1'
_cell_length_a   10.48832300
_cell_length_b   7.14759400
_cell_length_c   8.43398516
_cell_angle_alpha   72.60520836
_cell_angle_beta   90.00000000
_cell_angle_gamma   90.00000000
_symmetry_Int_Tables_number   1
_chemical_formula_structural   K3Co(CN)6
_chemical_formula_sum   'K6 Co2 C12 N12'
_cell_volume   603.34941816
_cell_formula_units_Z   2
loop_
 _symmetry_equiv_pos_site_id
 _symmetry_equiv_pos_as_xyz
  1  'x, y, z'
loop_
 _atom_site_type_symbol
 _atom_site_label
 _atom_site_symmetry_multiplicity
 _atom_site_fract_x
 _atom_site_fract_y
 _atom_site_fract_z
 _atom_site_occupancy
  K  K0  1  0.22020700  0.50179400  0.87545800  1
  K  K1  1  0.72020700  0.49820600  0.62454200  1
  K  K2  1  0.50000000  0.00000000  0.50000000  1
  K  K3  1  0.00000000  0.00000000  0.00000000  1
  K  K4  1  0.27979300  0.50179400  0.37545800  1
  K  K5  1  0.77979300  0.49820600  0.12454200  1
  Co  Co0  1  0.50000000  0.00000000  0.00000000  1
  Co  Co1  1  0.00000000  0.00000000  0.50000000  1
  C  C0  1  0.66091600  0.11927900  0.97410600  1
  C  C1  1  0.83908400  0.11927900  0.47410600  1
  C  C2  1  0.33908400  0.88072100  0.02589400  1
  C  C3  1  0.16091600  0.88072100  0.52589400  1
  C  C4  1  0.94353000  0.82379800  0.38799000  1
  C  C5  1  0.44353000  0.17620200  0.11201000  1
  C  C6  1  0.05647000  0.17620200  0.61201000  1
  C  C7  1  0.55647000  0.82379800  0.88799000  1
  C  C8  1  0.45038200  0.17938000  0.79716300  1
  C  C9  1  0.95038200  0.82062000  0.70283700  1
  C  C10  1  0.54961800  0.82062000  0.20283700  1
  C  C11  1  0.04961800  0.17938000  0.29716300  1
  N  N0  1  0.59155300  0.71577100  0.81582400  1
  N  N1  1  0.09155300  0.28422900  0.68417600  1
  N  N2  1  0.40844700  0.28422900  0.18417600  1
  N  N3  1  0.90844700  0.71577100  0.31582400  1
  N  N4  1  0.73964800  0.19911100  0.45478200  1
  N  N5  1  0.76035200  0.19911100  0.95478200  1
  N  N6  1  0.26035200  0.80088900  0.54521800  1
  N  N7  1  0.23964800  0.80088900  0.04521800  1
  N  N8  1  0.42150300  0.29052500  0.66857100  1
  N  N9  1  0.92150300  0.70947500  0.83142900  1
  N  N10  1  0.57849700  0.70947500  0.33142900  1
  N  N11  1  0.07849700  0.29052500  0.16857100  1
loop_
_geom_bond_atom_site_label_1
_geom_bond_atom_site_label_2
_geom_bond_distance
_geom_bond_site_symmetry_2
K0 N1 2.888192 1_555
K0 N11 2.892870 1_556
K0 N7 2.914071 1_556
K0 N6 2.990810 1_555
K1 N0 2.888192 1_555
K1 N10 2.892870 1_555
K1 N4 2.914071 1_555
K1 N5 2.990810 1_555
K2 N4 2.857278 1_555
K2 N6 2.857278 1_545
K2 N8 2.962500 1_555
K2 N10 2.962500 1_545
K2 N0 2.984766 1_545
K2 N2 2.984766 1_555
K3 N5 2.857278 1_454
K3 N7 2.857278 1_545
K3 N11 2.962500 1_555
K3 N9 2.962500 1_444
K3 N3 2.984766 1_445
K3 N1 2.984766 1_554
K4 N2 2.888192 1_555
K4 N8 2.892870 1_555
K4 N6 2.914071 1_555
K4 N7 2.990810 1_555
K5 N3 2.888192 1_555
K5 N9 2.892870 1_554
K5 N5 2.914071 1_554
K5 N4 2.990810 1_555
C0 N5 1.176531 1_555
C0 Co0 1.873950 1_556
C1 N4 1.176531 1_555
C1 Co1 1.873950 1_655
C2 N7 1.176531 1_555
C2 Co0 1.873950 1_565
C3 N6 1.176531 1_555
C3 Co1 1.873950 1_565
C4 N3 1.176022 1_555
C4 Co1 1.881685 1_665
C5 N2 1.176022 1_555
C5 Co0 1.881685 1_555
C6 N1 1.176022 1_555
C6 Co1 1.881685 1_555
C7 N0 1.176022 1_555
C7 Co0 1.881685 1_566
C8 N8 1.176407 1_555
C8 Co0 1.878786 1_556
C9 N9 1.176407 1_555
C9 Co1 1.878786 1_665
C10 N10 1.176407 1_555
C10 Co0 1.878786 1_565
C11 N11 1.176407 1_555
C11 Co1 1.878786 1_555
