# generated using pymatgen
data_BaLiBO3
_symmetry_space_group_name_H-M   'P 1'
_cell_length_a   7.19515700
_cell_length_b   6.59112400
_cell_length_c   7.57737661
_cell_angle_alpha   61.62383184
_cell_angle_beta   90.00000000
_cell_angle_gamma   90.00000000
_symmetry_Int_Tables_number   1
_chemical_formula_structural   BaLiBO3
_chemical_formula_sum   'Ba4 Li4 B4 O12'
_cell_volume   316.17349267
_cell_formula_units_Z   4
loop_
 _symmetry_equiv_pos_site_id
 _symmetry_equiv_pos_as_xyz
  1  'x, y, z'
loop_
 _atom_site_type_symbol
 _atom_site_label
 _atom_site_symmetry_multiplicity
 _atom_site_fract_x
 _atom_site_fract_y
 _atom_site_fract_z
 _atom_site_occupancy
  Ba  Ba0  1  0.36045400  0.82492300  0.33983100  1
  Ba  Ba1  1  0.86045400  0.17507700  0.16016900  1
  Ba  Ba2  1  0.63954600  0.17507700  0.66016900  1
  Ba  Ba3  1  0.13954600  0.82492300  0.83983100  1
  Li  Li0  1  0.42701400  0.40481100  0.19679600  1
  Li  Li1  1  0.92701400  0.59518900  0.30320400  1
  Li  Li2  1  0.57298600  0.59518900  0.80320400  1
  Li  Li3  1  0.07298600  0.40481100  0.69679600  1
  B  B0  1  0.66147500  0.71247100  0.08153600  1
  B  B1  1  0.16147500  0.28752900  0.41846400  1
  B  B2  1  0.33852500  0.28752900  0.91846400  1
  B  B3  1  0.83852500  0.71247100  0.58153600  1
  O  O0  1  0.18434000  0.14372200  0.97725100  1
  O  O1  1  0.15965200  0.48322900  0.22899900  1
  O  O2  1  0.84034800  0.51677100  0.77100100  1
  O  O3  1  0.34034800  0.48322900  0.72899900  1
  O  O4  1  0.00564700  0.24269300  0.54041400  1
  O  O5  1  0.50564700  0.75730700  0.95958600  1
  O  O6  1  0.99435300  0.75730700  0.45958600  1
  O  O7  1  0.49435300  0.24269300  0.04041400  1
  O  O8  1  0.81566000  0.85627800  0.02274900  1
  O  O9  1  0.31566000  0.14372200  0.47725100  1
  O  O10  1  0.65965200  0.51677100  0.27100100  1
  O  O11  1  0.68434000  0.85627800  0.52274900  1
loop_
_geom_bond_atom_site_label_1
_geom_bond_atom_site_label_2
_geom_bond_distance
_geom_bond_site_symmetry_2
Ba0 O3 2.734279 1_555
Ba0 O6 2.752529 1_455
Ba0 O11 2.768916 1_555
Ba0 O9 2.771839 1_565
Ba0 O7 2.778422 1_565
Ba0 O0 2.842864 1_564
Ba1 O2 2.734279 1_554
Ba1 O7 2.752529 1_555
Ba1 O0 2.768916 1_654
Ba1 O8 2.771839 1_545
Ba1 O6 2.778422 1_545
Ba1 O11 2.842864 1_545
Ba2 O10 2.734279 1_555
Ba2 O4 2.752529 1_655
Ba2 O9 2.768916 1_555
Ba2 O11 2.771839 1_545
Ba2 O5 2.778422 1_545
Ba2 O8 2.842864 1_546
Ba3 O1 2.734279 1_556
Ba3 O5 2.752529 1_555
Ba3 O8 2.768916 1_456
Ba3 O0 2.771839 1_565
Ba3 O4 2.778422 1_565
Ba3 O9 2.842864 1_565
Li0 O7 1.996047 1_555
Li0 O10 2.014186 1_555
Li0 O1 2.036477 1_555
Li0 O9 2.154845 1_555
Li0 O5 2.231453 1_554
Li1 O6 1.996047 1_555
Li1 O1 2.014186 1_655
Li1 O10 2.036477 1_555
Li1 O8 2.154845 1_555
Li1 O4 2.231453 1_655
Li2 O5 1.996047 1_555
Li2 O3 2.014186 1_555
Li2 O2 2.036477 1_555
Li2 O11 2.154845 1_555
Li2 O7 2.231453 1_556
Li3 O4 1.996047 1_555
Li3 O2 2.014186 1_455
Li3 O3 2.036477 1_555
Li3 O0 2.154845 1_555
Li3 O6 2.231453 1_455
B0 O8 1.387895 1_555
B0 O5 1.392394 1_554
B0 O10 1.401739 1_555
B1 O9 1.387895 1_555
B1 O4 1.392394 1_555
B1 O1 1.401739 1_555
B2 O0 1.387895 1_555
B2 O7 1.392394 1_556
B2 O3 1.401739 1_555
B3 O11 1.387895 1_555
B3 O6 1.392394 1_555
B3 O2 1.401739 1_555
