# generated using pymatgen
data_CoCu2(BO3)2
_symmetry_space_group_name_H-M   'P 1'
_cell_length_a   3.27059146
_cell_length_b   9.27057673
_cell_length_c   14.94114900
_cell_angle_alpha   90.00000000
_cell_angle_beta   90.00000000
_cell_angle_gamma   94.50942826
_symmetry_Int_Tables_number   1
_chemical_formula_structural   CoCu2(BO3)2
_chemical_formula_sum   'Co4 Cu8 B8 O24'
_cell_volume   451.61729447
_cell_formula_units_Z   4
loop_
 _symmetry_equiv_pos_site_id
 _symmetry_equiv_pos_as_xyz
  1  'x, y, z'
loop_
 _atom_site_type_symbol
 _atom_site_label
 _atom_site_symmetry_multiplicity
 _atom_site_fract_x
 _atom_site_fract_y
 _atom_site_fract_z
 _atom_site_occupancy
  Co  Co0  1  0.80475500  0.62187200  0.86299000  1
  Co  Co1  1  0.19524500  0.87812800  0.36299000  1
  Co  Co2  1  0.80475500  0.12187200  0.63701000  1
  Co  Co3  1  0.19524500  0.37812800  0.13701000  1
  Cu  Cu0  1  0.31056400  0.36305400  0.54317600  1
  Cu  Cu1  1  0.31056400  0.86305400  0.95682400  1
  Cu  Cu2  1  0.68943600  0.63694600  0.45682400  1
  Cu  Cu3  1  0.68943600  0.13694600  0.04317600  1
  Cu  Cu4  1  0.66708900  0.12473700  0.25758800  1
  Cu  Cu5  1  0.33291100  0.37526300  0.75758800  1
  Cu  Cu6  1  0.66708900  0.62473700  0.24241200  1
  Cu  Cu7  1  0.33291100  0.87526300  0.74241200  1
  B  B0  1  0.81342800  0.59505100  0.65219800  1
  B  B1  1  0.86348700  0.66517200  0.07974300  1
  B  B2  1  0.18657200  0.40494900  0.34780200  1
  B  B3  1  0.13651300  0.83482800  0.57974300  1
  B  B4  1  0.81342800  0.09505100  0.84780200  1
  B  B5  1  0.86348700  0.16517200  0.42025700  1
  B  B6  1  0.13651300  0.33482800  0.92025700  1
  B  B7  1  0.18657200  0.90494900  0.15219800  1
  O  O0  1  0.76905600  0.53009800  0.73348500  1
  O  O1  1  0.76905600  0.03009800  0.76651500  1
  O  O2  1  0.69816700  0.03757300  0.38376600  1
  O  O3  1  0.30183300  0.96242700  0.61623400  1
  O  O4  1  0.08989100  0.29744600  0.00623800  1
  O  O5  1  0.66442700  0.74013600  0.34614000  1
  O  O6  1  0.66442700  0.24013600  0.15386000  1
  O  O7  1  0.08989100  0.79744600  0.49376200  1
  O  O8  1  0.67964600  0.53647900  0.57323500  1
  O  O9  1  0.30183300  0.46242700  0.88376600  1
  O  O10  1  0.91010900  0.20255400  0.50623800  1
  O  O11  1  0.01524800  0.23638700  0.84861500  1
  O  O12  1  0.32035400  0.96352100  0.07323500  1
  O  O13  1  0.33557300  0.75986400  0.84614000  1
  O  O14  1  0.98475200  0.76361300  0.15138500  1
  O  O15  1  0.23094400  0.46990200  0.26651500  1
  O  O16  1  0.32035400  0.46352100  0.42676500  1
  O  O17  1  0.01524800  0.73638700  0.65138500  1
  O  O18  1  0.69816700  0.53757300  0.11623400  1
  O  O19  1  0.23094400  0.96990200  0.23348500  1
  O  O20  1  0.98475200  0.26361300  0.34861500  1
  O  O21  1  0.91010900  0.70255400  0.99376200  1
  O  O22  1  0.33557300  0.25986400  0.65386000  1
  O  O23  1  0.67964600  0.03647900  0.92676500  1
loop_
_geom_bond_atom_site_label_1
_geom_bond_atom_site_label_2
_geom_bond_distance
_geom_bond_site_symmetry_2
Co0 O13 2.088847 1_555
Co0 O13 2.089181 1_655
Co0 O21 2.110763 1_555
Co0 O0 2.113271 1_555
Co0 O9 2.145810 1_555
Co0 O9 2.302646 1_655
Co1 O5 2.088847 1_555
Co1 O5 2.089181 1_455
Co1 O7 2.110763 1_555
Co1 O19 2.113271 1_555
Co1 O2 2.145810 1_565
Co1 O2 2.302646 1_465
Co2 O22 2.088847 1_555
Co2 O22 2.089181 1_655
Co2 O10 2.110763 1_555
Co2 O1 2.113271 1_555
Co2 O3 2.145810 1_545
Co2 O3 2.302646 1_645
Co3 O6 2.088847 1_555
Co3 O6 2.089181 1_455
Co3 O4 2.110763 1_555
Co3 O15 2.113271 1_555
Co3 O18 2.145810 1_555
Co3 O18 2.302646 1_455
Cu0 O22 1.915467 1_555
Cu0 O16 1.972063 1_555
Cu0 O10 1.981782 1_455
Cu0 O8 1.984571 1_555
Cu1 O13 1.915467 1_555
Cu1 O12 1.972063 1_556
Cu1 O21 1.981782 1_455
Cu1 O23 1.984571 1_565
Cu2 O5 1.915467 1_555
Cu2 O8 1.972063 1_555
Cu2 O7 1.981782 1_655
Cu2 O16 1.984571 1_555
Cu3 O6 1.915467 1_555
Cu3 O23 1.972063 1_554
Cu3 O4 1.981782 1_655
Cu3 O12 1.984571 1_545
Cu4 O6 1.883606 1_555
Cu4 O19 1.975573 1_545
Cu4 O2 2.056783 1_555
Cu4 O20 2.091975 1_555
Cu4 O19 2.450957 1_645
Cu5 O22 1.883606 1_555
Cu5 O0 1.975573 1_555
Cu5 O9 2.056783 1_555
Cu5 O11 2.091975 1_555
Cu5 O0 2.450957 1_455
Cu6 O5 1.883606 1_555
Cu6 O15 1.975573 1_555
Cu6 O18 2.056783 1_555
Cu6 O14 2.091975 1_555
Cu6 O15 2.450957 1_655
Cu7 O13 1.883606 1_555
Cu7 O1 1.975573 1_565
Cu7 O3 2.056783 1_555
Cu7 O17 2.091975 1_555
Cu7 O1 2.450957 1_465
B0 O8 1.356781 1_555
B0 O0 1.358296 1_555
B0 O17 1.420085 1_655
B1 O21 1.336181 1_554
B1 O18 1.374165 1_555
B1 O14 1.441880 1_555
B2 O16 1.356781 1_555
B2 O15 1.358296 1_555
B2 O20 1.420085 1_455
B3 O7 1.336181 1_555
B3 O3 1.374165 1_555
B3 O17 1.441880 1_555
B4 O23 1.356781 1_555
B4 O1 1.358296 1_555
B4 O11 1.420085 1_655
B5 O10 1.336181 1_555
B5 O2 1.374165 1_555
B5 O20 1.441880 1_555
B6 O4 1.336181 1_556
B6 O9 1.374165 1_555
B6 O11 1.441880 1_555
B7 O12 1.356781 1_555
B7 O19 1.358296 1_555
B7 O14 1.420085 1_455
