# generated using pymatgen
data_Rb3MgH5
_symmetry_space_group_name_H-M   'P 1'
_cell_length_a   8.37659983
_cell_length_b   8.37659983
_cell_length_c   8.37659983
_cell_angle_alpha   122.76020420
_cell_angle_beta   122.76020420
_cell_angle_gamma   85.28217875
_symmetry_Int_Tables_number   1
_chemical_formula_structural   Rb3MgH5
_chemical_formula_sum   'Rb6 Mg2 H10'
_cell_volume   396.80479237
_cell_formula_units_Z   2
loop_
 _symmetry_equiv_pos_site_id
 _symmetry_equiv_pos_as_xyz
  1  'x, y, z'
loop_
 _atom_site_type_symbol
 _atom_site_label
 _atom_site_symmetry_multiplicity
 _atom_site_fract_x
 _atom_site_fract_y
 _atom_site_fract_z
 _atom_site_occupancy
  Rb  Rb0  1  0.18556100  0.68556100  0.87112200  1
  Rb  Rb1  1  0.81443900  0.31443900  0.12887800  1
  Rb  Rb2  1  0.68556100  0.81443900  0.50000000  1
  Rb  Rb3  1  0.31443900  0.18556100  0.50000000  1
  Rb  Rb4  1  0.25000000  0.25000000  0.00000000  1
  Rb  Rb5  1  0.75000000  0.75000000  0.00000000  1
  Mg  Mg0  1  0.25000000  0.75000000  0.50000000  1
  Mg  Mg1  1  0.75000000  0.25000000  0.50000000  1
  H  H0  1  0.47101200  0.97101200  0.75824000  1
  H  H1  1  0.21277200  0.71277200  0.24176000  1
  H  H2  1  0.97101200  0.21277200  0.50000000  1
  H  H3  1  0.71277200  0.47101200  0.50000000  1
  H  H4  1  0.52898800  0.02898800  0.24176000  1
  H  H5  1  0.78722800  0.28722800  0.75824000  1
  H  H6  1  0.02898800  0.78722800  0.50000000  1
  H  H7  1  0.28722800  0.52898800  0.50000000  1
  H  H8  1  0.50000000  0.50000000  0.00000000  1
  H  H9  1  0.00000000  0.00000000  0.00000000  1
loop_
_geom_bond_atom_site_label_1
_geom_bond_atom_site_label_2
_geom_bond_distance
_geom_bond_site_symmetry_2
H0 Mg0 1.851944 1_555
H0 Rb1 2.867017 1_566
H1 Mg0 1.851944 1_555
H1 Rb0 2.867017 1_554
H2 Mg1 1.851944 1_555
H2 Rb3 2.867017 1_655
H3 Mg1 1.851944 1_555
H3 Rb2 2.867017 1_555
H4 Mg1 1.851944 1_555
H4 Rb0 2.867017 1_544
H5 Mg1 1.851944 1_555
H5 Rb1 2.867017 1_556
H6 Mg0 1.851944 1_555
H6 Rb2 2.867017 1_455
H7 Mg0 1.851944 1_555
H7 Rb3 2.867017 1_555
H8 Rb1 2.929902 1_555
H8 Rb0 2.929902 1_554
H8 Rb3 2.929902 1_554
H8 Rb2 2.929902 1_555
H8 Rb4 3.080961 1_555
H8 Rb5 3.080961 1_555
H9 Rb1 2.929902 1_455
H9 Rb2 2.929902 1_444
H9 Rb0 2.929902 1_544
H9 Rb3 2.929902 1_555
H9 Rb5 3.080961 1_445
H9 Rb4 3.080961 1_555
