# generated using pymatgen
data_ReSn2Se
_symmetry_space_group_name_H-M   'P 1'
_cell_length_a   4.85643200
_cell_length_b   4.85643200
_cell_length_c   4.85643200
_cell_angle_alpha   60.00000000
_cell_angle_beta   60.00000000
_cell_angle_gamma   60.00000000
_symmetry_Int_Tables_number   1
_chemical_formula_structural   ReSn2Se
_chemical_formula_sum   'Re1 Sn2 Se1'
_cell_volume   80.99103308
_cell_formula_units_Z   1
loop_
 _symmetry_equiv_pos_site_id
 _symmetry_equiv_pos_as_xyz
  1  'x, y, z'
loop_
 _atom_site_type_symbol
 _atom_site_label
 _atom_site_symmetry_multiplicity
 _atom_site_fract_x
 _atom_site_fract_y
 _atom_site_fract_z
 _atom_site_occupancy
  Re  Re0  1  0.50000000  0.50000000  0.50000000  1
  Sn  Sn0  1  0.00000000  0.00000000  0.00000000  1
  Sn  Sn1  1  0.25000000  0.25000000  0.25000000  1
  Se  Se0  1  0.75000000  0.75000000  0.75000000  1
loop_
_geom_bond_atom_site_label_1
_geom_bond_atom_site_label_2
_geom_bond_distance
_geom_bond_site_symmetry_2
Re0 Se0 2.973945 1_455
Re0 Sn1 2.973945 1_655
Re0 Sn1 2.973945 1_556
Re0 Sn1 2.973945 1_565
Re0 Se0 2.973945 1_554
Re0 Se0 2.973945 1_555
Re0 Sn1 2.973945 1_555
Re0 Se0 2.973945 1_545
Sn0 Sn1 2.973945 1_455
Sn0 Sn1 2.973945 1_554
Sn0 Sn1 2.973945 1_555
Sn0 Sn1 2.973945 1_545
Se0 Sn0 2.973945 1_566
Se0 Sn0 2.973945 1_666
Se0 Sn0 2.973945 1_665
Se0 Sn0 2.973945 1_656
