# generated using pymatgen
data_K5Te3
_symmetry_space_group_name_H-M   'P 1'
_cell_length_a   10.25427524
_cell_length_b   10.25427524
_cell_length_c   10.25427524
_cell_angle_alpha   95.64562765
_cell_angle_beta   95.64562765
_cell_angle_gamma   143.44150396
_symmetry_Int_Tables_number   1
_chemical_formula_structural   K5Te3
_chemical_formula_sum   'K10 Te6'
_cell_volume   609.83725383
_cell_formula_units_Z   2
loop_
 _symmetry_equiv_pos_site_id
 _symmetry_equiv_pos_as_xyz
  1  'x, y, z'
loop_
 _atom_site_type_symbol
 _atom_site_label
 _atom_site_symmetry_multiplicity
 _atom_site_fract_x
 _atom_site_fract_y
 _atom_site_fract_z
 _atom_site_occupancy
  K  K0  1  0.25000000  0.75000000  0.50000000  1
  K  K1  1  0.75000000  0.25000000  0.50000000  1
  K  K2  1  0.41180956  0.71886285  0.13067242  1
  K  K3  1  0.71886285  0.58819044  0.30705329  1
  K  K4  1  0.28113715  0.41180956  0.69294671  1
  K  K5  1  0.58819044  0.28113715  0.86932758  1
  K  K6  1  0.77560451  0.09134141  0.86694692  1
  K  K7  1  0.09134141  0.22439549  0.31573691  1
  K  K8  1  0.90865859  0.77560451  0.68426309  1
  K  K9  1  0.22439549  0.90865859  0.13305308  1
  Te  Te0  1  0.15617264  0.65507745  0.81125009  1
  Te  Te1  1  0.65507745  0.84382736  0.49890481  1
  Te  Te2  1  0.34492255  0.15617264  0.50109519  1
  Te  Te3  1  0.84382736  0.34492255  0.18874991  1
  Te  Te4  1  0.22029508  0.22029508  -0.00000000  1
  Te  Te5  1  0.77970492  0.77970492  0.00000000  1
loop_
_geom_bond_atom_site_label_1
_geom_bond_atom_site_label_2
_geom_bond_distance
_geom_bond_site_symmetry_2
K0 Te3 3.430837 1_455
K0 Te1 3.430837 1_555
K0 Te0 3.430837 1_555
K0 Te2 3.430837 1_565
K1 Te1 3.430837 1_545
K1 Te0 3.430837 1_655
K1 Te2 3.430837 1_555
K1 Te3 3.430837 1_555
K2 Te0 3.628035 1_554
K2 Te4 3.714083 1_555
K2 Te5 3.714083 1_555
K2 Te1 3.765913 1_555
K2 Te3 3.772748 1_455
K2 Te3 3.772748 1_565
K3 Te1 3.628035 1_555
K3 Te4 3.714083 1_555
K3 Te5 3.714083 1_555
K3 Te3 3.765913 1_555
K3 Te2 3.772748 1_665
K3 Te2 3.772748 1_555
K4 Te2 3.628035 1_555
K4 Te5 3.714083 1_556
K4 Te4 3.714083 1_556
K4 Te0 3.765913 1_555
K4 Te1 3.772748 1_555
K4 Te1 3.772748 1_445
K5 Te3 3.628035 1_556
K5 Te5 3.714083 1_556
K5 Te4 3.714083 1_556
K5 Te2 3.765913 1_555
K5 Te0 3.772748 1_655
K5 Te0 3.772748 1_545
K6 Te3 3.615958 1_556
K6 Te5 3.624576 1_546
K6 Te4 3.624578 1_656
K6 Te0 3.717399 1_545
K6 Te0 3.717405 1_655
K6 Te1 3.790878 1_545
K7 Te2 3.615966 1_555
K7 Te5 3.624581 1_445
K7 Te4 3.624581 1_555
K7 Te1 3.717401 1_445
K7 Te1 3.717401 1_555
K7 Te3 3.790869 1_455
K8 Te1 3.615966 1_555
K8 Te4 3.624581 1_666
K8 Te5 3.624581 1_556
K8 Te2 3.717401 1_665
K8 Te2 3.717401 1_555
K8 Te0 3.790869 1_655
K9 Te0 3.615958 1_554
K9 Te4 3.624576 1_565
K9 Te5 3.624578 1_455
K9 Te3 3.717399 1_565
K9 Te3 3.717405 1_455
K9 Te2 3.790878 1_565
Te4 Te5 2.834086 1_445
