# generated using pymatgen
data_Mg5AlH21O17
_symmetry_space_group_name_H-M   'P 1'
_cell_length_a   3.11524400
_cell_length_b   8.03136997
_cell_length_c   16.09645290
_cell_angle_alpha   96.08041833
_cell_angle_beta   90.91829083
_cell_angle_gamma   100.93088206
_symmetry_Int_Tables_number   1
_chemical_formula_structural   Mg5AlH21O17
_chemical_formula_sum   'Mg5 Al1 H21 O17'
_cell_volume   392.92760116
_cell_formula_units_Z   1
loop_
 _symmetry_equiv_pos_site_id
 _symmetry_equiv_pos_as_xyz
  1  'x, y, z'
loop_
 _atom_site_type_symbol
 _atom_site_label
 _atom_site_symmetry_multiplicity
 _atom_site_fract_x
 _atom_site_fract_y
 _atom_site_fract_z
 _atom_site_occupancy
  Mg  Mg0  1  0.99993600  0.00586900  0.99912700  1
  Mg  Mg1  1  0.48557800  0.99718000  0.16698600  1
  Mg  Mg2  1  0.49651400  0.00407500  0.49941000  1
  Mg  Mg3  1  0.98419000  0.99982200  0.33416200  1
  Mg  Mg4  1  0.00391100  0.99429400  0.65840700  1
  Al  Al0  1  0.49978700  0.99420400  0.82825200  1
  H  H0  1  0.62540700  0.25431500  0.08102000  1
  H  H1  1  0.78248500  0.50856100  0.20751300  1
  H  H2  1  0.87535900  0.74356400  0.10122800  1
  H  H3  1  0.17548400  0.25229800  0.23496900  1
  H  H4  1  0.30577600  0.50461900  0.38294100  1
  H  H5  1  0.42280700  0.74294600  0.26589500  1
  H  H6  1  0.68116400  0.25528700  0.40353200  1
  H  H7  1  0.67971400  0.50309800  0.54069900  1
  H  H8  1  0.71898900  0.49670800  0.30000400  1
  H  H9  1  0.92642100  0.74806800  0.43565600  1
  H  H10  1  0.17420800  0.26192400  0.56553300  1
  H  H11  1  0.11880800  0.49886200  0.69327400  1
  H  H12  1  0.15388100  0.50018400  0.47351500  1
  H  H13  1  0.41666600  0.73721500  0.59210100  1
  H  H14  1  0.64623600  0.24283700  0.73998700  1
  H  H15  1  0.66457800  0.50107400  0.85540500  1
  H  H16  1  0.66193600  0.50257500  0.65259800  1
  H  H17  1  0.88900200  0.74398400  0.75572600  1
  H  H18  1  0.15663600  0.24993900  0.88751400  1
  H  H19  1  0.43470200  0.75743400  0.91533700  1
  H  H20  1  0.71672000  0.50257500  0.95100100  1
  O  O0  1  0.56384200  0.13760600  0.05541300  1
  O  O1  1  0.91341800  0.86430600  0.09637800  1
  O  O2  1  0.05475800  0.13187200  0.22247700  1
  O  O3  1  0.55051600  0.49714600  0.24751400  1
  O  O4  1  0.40925100  0.86225700  0.26626600  1
  O  O5  1  0.55470300  0.13506900  0.39406200  1
  O  O6  1  0.03510800  0.50022100  0.41339200  1
  O  O7  1  0.92428400  0.86851900  0.43814700  1
  O  O8  1  0.06949900  0.13852400  0.56518700  1
  O  O9  1  0.40044700  0.50277500  0.56691300  1
  O  O10  1  0.43805500  0.86105700  0.60732100  1
  O  O11  1  0.55874100  0.11898500  0.73787300  1
  O  O12  1  0.82316600  0.50733700  0.71118500  1
  O  O13  1  0.93796100  0.86534400  0.77973300  1
  O  O14  1  0.06993300  0.12575500  0.88388600  1
  O  O15  1  0.49815700  0.49968600  0.90661900  1
  O  O16  1  0.44626400  0.88002700  0.92528500  1
loop_
_geom_bond_atom_site_label_1
_geom_bond_atom_site_label_2
_geom_bond_distance
_geom_bond_site_symmetry_2
Mg0 O0 2.016756 1_656
Mg0 O1 2.022400 1_546
Mg0 O0 2.041421 1_556
Mg0 O16 2.104263 1_545
Mg0 O16 2.167703 1_645
Mg0 O14 2.174226 1_655
Mg1 O4 2.016398 1_555
Mg1 O2 2.032027 1_665
Mg1 O2 2.038044 1_565
Mg1 O1 2.130260 1_555
Mg1 O1 2.136424 1_455
Mg1 O0 2.212603 1_565
Mg2 O7 2.073268 1_545
Mg2 O7 2.077420 1_445
Mg2 O5 2.081023 1_555
Mg2 O8 2.098638 1_555
Mg2 O8 2.106992 1_655
Mg2 O10 2.173272 1_545
Mg3 O7 2.063436 1_555
Mg3 O5 2.063810 1_665
Mg3 O5 2.066467 1_565
Mg3 O4 2.124596 1_655
Mg3 O4 2.134009 1_555
Mg3 O2 2.175562 1_665
Mg4 O8 1.980752 1_565
Mg4 O10 1.995090 1_455
Mg4 O10 2.012090 1_555
Mg4 O11 2.151237 1_565
Mg4 O11 2.207822 1_465
Mg4 O13 2.299847 1_455
Al0 O11 1.844470 1_565
Al0 O16 1.887315 1_555
Al0 O13 1.960177 1_455
Al0 O13 1.985694 1_555
Al0 O14 2.021375 1_565
Al0 O14 2.027261 1_665
H0 O0 0.965770 1_555
H1 O3 0.973387 1_555
H2 O1 0.966047 1_555
H3 O2 0.967341 1_555
H4 O6 0.978825 1_555
H5 O4 0.966524 1_555
H6 O5 0.966073 1_555
H7 O9 0.972660 1_555
H8 O3 0.988150 1_555
H9 O7 0.965258 1_555
H10 O8 0.982254 1_555
H11 O12 0.981894 1_455
H12 O6 1.030584 1_555
H13 O10 0.988155 1_555
H14 O11 0.977031 1_555
H15 O15 0.980783 1_555
H16 O12 1.054969 1_555
H16 O9 1.590847 1_555
H17 O13 0.992242 1_555
H18 O14 0.977802 1_555
H19 O16 0.974331 1_555
H20 O15 0.974369 1_555
