# generated using pymatgen
data_Ru7C20(SO10)2
_symmetry_space_group_name_H-M   'P 1'
_cell_length_a   11.40738554
_cell_length_b   14.54865165
_cell_length_c   21.50722119
_cell_angle_alpha   90.00000000
_cell_angle_beta   90.00000000
_cell_angle_gamma   90.00000000
_symmetry_Int_Tables_number   1
_chemical_formula_structural   Ru7C20(SO10)2
_chemical_formula_sum   'Ru28 C80 S8 O80'
_cell_volume   3569.38313056
_cell_formula_units_Z   4
loop_
 _symmetry_equiv_pos_site_id
 _symmetry_equiv_pos_as_xyz
  1  'x, y, z'
loop_
 _atom_site_type_symbol
 _atom_site_label
 _atom_site_symmetry_multiplicity
 _atom_site_fract_x
 _atom_site_fract_y
 _atom_site_fract_z
 _atom_site_occupancy
  Ru  Ru0  1  0.96687966  0.64382621  0.29766071  1
  Ru  Ru1  1  0.78270954  0.39356053  0.81454716  1
  Ru  Ru2  1  0.45714551  0.96965797  0.18962989  1
  Ru  Ru3  1  0.11145235  0.88215270  0.01504501  1
  Ru  Ru4  1  0.34962708  0.76954195  0.59853845  1
  Ru  Ru5  1  0.73813437  0.43768049  0.38743744  1
  Ru  Ru6  1  0.03312034  0.14382621  0.20233929  1
  Ru  Ru7  1  0.21729046  0.89356053  0.68545284  1
  Ru  Ru8  1  0.05388345  0.04385530  0.08134605  1
  Ru  Ru9  1  0.44611655  0.95614470  0.58134605  1
  Ru  Ru10  1  0.54285449  0.46965797  0.31037011  1
  Ru  Ru11  1  0.84962708  0.73045805  0.40146155  1
  Ru  Ru12  1  0.88854765  0.38215270  0.48495499  1
  Ru  Ru13  1  0.04285449  0.03034203  0.68962989  1
  Ru  Ru14  1  0.53312034  0.35617379  0.79766071  1
  Ru  Ru15  1  0.38854765  0.11784730  0.51504501  1
  Ru  Ru16  1  0.55388345  0.45614470  0.91865395  1
  Ru  Ru17  1  0.65037292  0.26954195  0.90146155  1
  Ru  Ru18  1  0.61145235  0.61784730  0.98495499  1
  Ru  Ru19  1  0.94611655  0.54385530  0.41865395  1
  Ru  Ru20  1  0.46687966  0.85617379  0.70233929  1
  Ru  Ru21  1  0.71729046  0.60643947  0.31454716  1
  Ru  Ru22  1  0.28270954  0.10643947  0.18545284  1
  Ru  Ru23  1  0.26186563  0.93768049  0.11256256  1
  Ru  Ru24  1  0.76186563  0.56231951  0.88743744  1
  Ru  Ru25  1  0.95714551  0.53034203  0.81037011  1
  Ru  Ru26  1  0.23813437  0.06231951  0.61256256  1
  Ru  Ru27  1  0.15037292  0.23045805  0.09853845  1
  C  C0  1  0.47768799  0.18029558  0.58059942  1
  C  C1  1  0.72865659  0.16927520  0.86457046  1
  C  C2  1  0.00496370  0.10012420  0.00742236  1
  C  C3  1  0.59611867  0.69379304  0.31804838  1
  C  C4  1  0.27774734  0.11629567  0.27226099  1
  C  C5  1  0.40078464  0.49879427  0.90418710  1
  C  C6  1  0.85931181  0.58153227  0.74274158  1
  C  C7  1  0.50442297  0.20769407  0.90454424  1
  C  C8  1  0.27134341  0.66927520  0.63542954  1
  C  C9  1  0.74915349  0.67956803  0.85129513  1
  C  C10  1  0.55899051  0.03179929  0.24534585  1
  C  C11  1  0.70026727  0.23031198  0.98188435  1
  C  C12  1  0.94324946  0.13477367  0.68046884  1
  C  C13  1  0.90078464  0.00120573  0.09581290  1
  C  C14  1  0.94100949  0.96820071  0.74534585  1
  C  C15  1  0.12634392  0.10367246  0.55445314  1
  C  C16  1  0.09921536  0.50120573  0.40418710  1
  C  C17  1  0.05675054  0.63477367  0.81953116  1
  C  C18  1  0.24915349  0.82043197  0.14870487  1
  C  C19  1  0.12536706  0.66553408  0.31813853  1
  C  C20  1  0.00442297  0.29230593  0.09545576  1
  C  C21  1  0.99503630  0.60012420  0.49257764  1
  C  C22  1  0.97768799  0.31970442  0.41940058  1
  C  C23  1  0.81928021  0.27153388  0.51741797  1
  C  C24  1  0.40388133  0.19379304  0.18195162  1
  C  C25  1  0.56399837  0.23654986  0.76714521  1
  C  C26  1  0.97974750  0.96528689  0.61694758  1
  C  C27  1  0.05899051  0.46820071  0.75465415  1
  C  C28  1  0.62536706  0.83446592  0.68186147  1
  C  C29  1  0.87463294  0.16553408  0.18186147  1
  C  C30  1  0.75084651  0.32043197  0.35129513  1
  C  C31  1  0.35931181  0.91846773  0.25725842  1
  C  C32  1  0.22865659  0.33072480  0.13542954  1
  C  C33  1  0.90388133  0.30620696  0.81804838  1
  C  C34  1  0.98715491  0.09396199  0.28070494  1
  C  C35  1  0.87365608  0.60367246  0.94554686  1
  C  C36  1  0.48715491  0.40603801  0.71929506  1
  C  C37  1  0.25084651  0.17956803  0.64870487  1
  C  C38  1  0.59921536  0.99879427  0.59581290  1
  C  C39  1  0.62634392  0.39632754  0.44554686  1
  C  C40  1  0.50496370  0.39987580  0.99257764  1
  C  C41  1  0.37365608  0.89632754  0.05445314  1
  C  C42  1  0.20026727  0.26968802  0.01811565  1
  C  C43  1  0.02231201  0.81970442  0.08059942  1
  C  C44  1  0.77774734  0.38370433  0.72773901  1
  C  C45  1  0.22225266  0.88370433  0.77226099  1
  C  C46  1  0.18071979  0.77153388  0.98258203  1
  C  C47  1  0.68071979  0.72846612  0.01741797  1
  C  C48  1  0.52025250  0.03471311  0.11694758  1
  C  C49  1  0.06399837  0.26345014  0.23285479  1
  C  C50  1  0.19821654  0.96747094  0.96053497  1
  C  C51  1  0.48143499  0.61857332  0.03960962  1
  C  C52  1  0.14068819  0.08153227  0.75725842  1
  C  C53  1  0.49503630  0.89987580  0.50742236  1
  C  C54  1  0.01284509  0.59396199  0.21929506  1
  C  C55  1  0.99557703  0.79230593  0.40454424  1
  C  C56  1  0.51284509  0.90603801  0.78070494  1
  C  C57  1  0.30178346  0.03252906  0.46053497  1
  C  C58  1  0.52231201  0.68029558  0.91940058  1
  C  C59  1  0.98143499  0.88142668  0.96039038  1
  C  C60  1  0.37463294  0.33446592  0.81813853  1
  C  C61  1  0.31928021  0.22846612  0.48258203  1
  C  C62  1  0.47974750  0.53471311  0.38305242  1
  C  C63  1  0.69821654  0.53252906  0.03946503  1
  C  C64  1  0.51856501  0.11857332  0.46039038  1
  C  C65  1  0.79973273  0.76968802  0.48188435  1
  C  C66  1  0.55675054  0.86522633  0.18046884  1
  C  C67  1  0.29973273  0.73031198  0.51811565  1
  C  C68  1  0.77134341  0.83072480  0.36457046  1
  C  C69  1  0.93600163  0.76345014  0.26714521  1
  C  C70  1  0.09611867  0.80620696  0.68195162  1
  C  C71  1  0.64068819  0.41846773  0.24274158  1
  C  C72  1  0.02025250  0.46528689  0.88305242  1
  C  C73  1  0.80178346  0.46747094  0.53946503  1
  C  C74  1  0.44100949  0.53179929  0.25465415  1
  C  C75  1  0.43600163  0.73654986  0.73285479  1
  C  C76  1  0.72225266  0.61629567  0.22773901  1
  C  C77  1  0.44324946  0.36522633  0.31953116  1
  C  C78  1  0.49557703  0.70769407  0.59545576  1
  C  C79  1  0.01856501  0.38142668  0.53960962  1
  S  S0  1  0.38120747  0.00813934  0.68731492  1
  S  S1  1  0.88120747  0.49186066  0.31268508  1
  S  S2  1  0.76272346  0.40641403  0.93020813  1
  S  S3  1  0.23727654  0.90641403  0.56979187  1
  S  S4  1  0.11879253  0.99186066  0.18731492  1
  S  S5  1  0.73727654  0.59358597  0.43020813  1
  S  S6  1  0.61879253  0.50813934  0.81268508  1
  S  S7  1  0.26272346  0.09358597  0.06979187  1
  O  O0  1  0.23937926  0.74793874  0.17120704  1
  O  O1  1  0.73427313  0.20706533  0.03009825  1
  O  O2  1  0.74583454  0.48700774  0.07530444  1
  O  O3  1  0.22394929  0.67859668  0.32831850  1
  O  O4  1  0.46677538  0.72159090  0.88421112  1
  O  O5  1  0.53322462  0.22159090  0.61578888  1
  O  O6  1  0.42047675  0.66454560  0.75480709  1
  O  O7  1  0.24583454  0.01299226  0.92469556  1
  O  O8  1  0.04263267  0.56554867  0.17150442  1
  O  O9  1  0.30536977  0.52475816  0.89573643  1
  O  O10  1  0.77511352  0.37841295  0.67363273  1
  O  O11  1  0.43622947  0.57125756  0.42468554  1
  O  O12  1  0.57996360  0.66382554  0.59008993  1
  O  O13  1  0.19463023  0.47524184  0.39573643  1
  O  O14  1  0.75416546  0.51299226  0.57530444  1
  O  O15  1  0.40020708  0.61861821  0.07199629  1
  O  O16  1  0.72488648  0.62158705  0.17363273  1
  O  O17  1  0.27605071  0.32140332  0.82831850  1
  O  O18  1  0.80536977  0.97524184  0.10426357  1
  O  O19  1  0.42003640  0.16382554  0.90991007  1
  O  O20  1  0.80751324  0.61149038  0.70131784  1
  O  O21  1  0.22576525  0.60552593  0.65720691  1
  O  O22  1  0.72224797  0.79529214  0.03639736  1
  O  O23  1  0.05727120  0.13254032  0.51944917  1
  O  O24  1  0.54263267  0.93445133  0.82849558  1
  O  O25  1  0.47399629  0.36679414  0.03917315  1
  O  O26  1  0.56377053  0.07125756  0.07531446  1
  O  O27  1  0.76062074  0.24793874  0.32879296  1
  O  O28  1  0.44272880  0.86745968  0.01944917  1
  O  O29  1  0.38416813  0.30111973  0.32542967  1
  O  O30  1  0.77423475  0.10552593  0.84279309  1
  O  O31  1  0.07952325  0.33545440  0.25480709  1
  O  O32  1  0.77775203  0.20470786  0.53639736  1
  O  O33  1  0.73937926  0.75206126  0.82879296  1
  O  O34  1  0.61859081  0.07222166  0.27918094  1
  O  O35  1  0.27511352  0.12158705  0.32636727  1
  O  O36  1  0.11859081  0.42777834  0.72081906  1
  O  O37  1  0.23427313  0.29293467  0.96990175  1
  O  O38  1  0.77605071  0.17859668  0.17168150  1
  O  O39  1  0.88416813  0.19888027  0.67457033  1
  O  O40  1  0.01994081  0.75266241  0.68104610  1
  O  O41  1  0.97399629  0.13320586  0.96082685  1
  O  O42  1  0.88140919  0.92777834  0.77918094  1
  O  O43  1  0.30751324  0.88850962  0.29868216  1
  O  O44  1  0.27775203  0.29529214  0.46360264  1
  O  O45  1  0.61583187  0.80111973  0.17457033  1
  O  O46  1  0.90020708  0.88138179  0.92800371  1
  O  O47  1  0.51994081  0.74733759  0.31895390  1
  O  O48  1  0.07996360  0.83617446  0.40991007  1
  O  O49  1  0.11583187  0.69888027  0.82542967  1
  O  O50  1  0.57952325  0.16454560  0.74519291  1
  O  O51  1  0.06377053  0.42874244  0.92468554  1
  O  O52  1  0.19248676  0.11149038  0.79868216  1
  O  O53  1  0.26062074  0.25206126  0.67120704  1
  O  O54  1  0.38140919  0.57222166  0.22081906  1
  O  O55  1  0.55727120  0.36745968  0.48055083  1
  O  O56  1  0.27423475  0.39447407  0.15720691  1
  O  O57  1  0.96677538  0.77840910  0.11578888  1
  O  O58  1  0.25416546  0.98700774  0.42469556  1
  O  O59  1  0.94272880  0.63254032  0.98055083  1
  O  O60  1  0.98005919  0.25266241  0.81895390  1
  O  O61  1  0.26572687  0.70706533  0.46990175  1
  O  O62  1  0.72394929  0.82140332  0.67168150  1
  O  O63  1  0.93622947  0.92874244  0.57531446  1
  O  O64  1  0.92047675  0.83545440  0.24519291  1
  O  O65  1  0.09979292  0.38138179  0.57199629  1
  O  O66  1  0.76572687  0.79293467  0.53009825  1
  O  O67  1  0.69463023  0.02475816  0.60426357  1
  O  O68  1  0.02600371  0.63320586  0.53917315  1
  O  O69  1  0.45736733  0.43445133  0.67150442  1
  O  O70  1  0.92003640  0.33617446  0.09008993  1
  O  O71  1  0.22488648  0.87841295  0.82636727  1
  O  O72  1  0.69248676  0.38850962  0.20131784  1
  O  O73  1  0.59979292  0.11861821  0.42800371  1
  O  O74  1  0.03322462  0.27840910  0.38421112  1
  O  O75  1  0.95736733  0.06554867  0.32849558  1
  O  O76  1  0.52600371  0.86679414  0.46082685  1
  O  O77  1  0.48005919  0.24733759  0.18104610  1
  O  O78  1  0.72576525  0.89447407  0.34279309  1
  O  O79  1  0.22224797  0.70470786  0.96360264  1
loop_
_geom_bond_atom_site_label_1
_geom_bond_atom_site_label_2
_geom_bond_distance
_geom_bond_site_symmetry_2
Ru0 S1 2.438765 1_555
Ru1 S2 2.504962 1_555
Ru1 S6 2.505350 1_555
Ru4 S3 2.447468 1_555
Ru5 S1 2.422768 1_555
Ru5 S5 2.447666 1_555
Ru6 S4 2.438765 1_545
Ru7 S3 2.504962 1_555
Ru7 S0 2.505350 1_565
Ru8 S7 2.502132 1_555
Ru8 S4 2.512917 1_545
Ru9 S3 2.502132 1_555
Ru9 S0 2.512917 1_565
Ru11 S5 2.447468 1_555
Ru14 S6 2.438765 1_555
Ru16 S2 2.502132 1_555
Ru16 S6 2.512917 1_555
Ru17 S2 2.447468 1_555
Ru19 S5 2.502132 1_555
Ru19 S1 2.512917 1_555
Ru20 S0 2.438765 1_565
Ru21 S5 2.504962 1_555
Ru21 S1 2.505350 1_555
Ru22 S7 2.504962 1_555
Ru22 S4 2.505350 1_545
Ru23 S4 2.422768 1_555
Ru23 S7 2.447666 1_565
Ru24 S6 2.422768 1_555
Ru24 S2 2.447666 1_555
Ru26 S0 2.422768 1_555
Ru26 S3 2.447666 1_545
Ru27 S7 2.447468 1_555
C0 O5 1.155463 1_555
C0 Ru15 1.961439 1_555
C1 O30 1.161847 1_555
C1 Ru17 1.885453 1_555
C2 O41 1.166498 1_454
C2 Ru8 1.873324 1_555
C3 O47 1.167204 1_555
C3 Ru21 1.879208 1_555
C4 O35 1.166606 1_555
C4 Ru22 1.873356 1_555
C5 O9 1.166366 1_555
C5 Ru16 1.879344 1_555
C6 O20 1.154483 1_555
C6 Ru25 1.978823 1_555
C7 O19 1.160737 1_555
C7 Ru17 1.893663 1_555
C8 O21 1.161847 1_555
C8 Ru4 1.885453 1_555
C9 O33 1.165760 1_555
C9 Ru24 1.880169 1_555
C10 O34 1.156563 1_555
C10 Ru2 1.898158 1_545
C11 O1 1.157637 1_556
C11 Ru17 1.908260 1_555
C12 O39 1.157663 1_555
C12 Ru13 1.907417 1_655
C13 O18 1.166366 1_545
C13 Ru8 1.879344 1_655
C14 O42 1.156563 1_555
C14 Ru13 1.898158 1_665
C15 O23 1.167906 1_555
C15 Ru26 1.884176 1_555
C16 O13 1.166366 1_555
C16 Ru19 1.879344 1_455
C17 O49 1.157663 1_555
C17 Ru25 1.907417 1_455
C18 O0 1.165760 1_555
C18 Ru23 1.880169 1_555
C19 O3 1.161335 1_555
C19 Ru0 1.887409 1_455
C20 O70 1.160737 1_455
C20 Ru27 1.893663 1_555
C21 O68 1.166498 1_655
C21 Ru19 1.873324 1_555
C22 O74 1.155463 1_655
C22 Ru12 1.961439 1_555
C23 O32 1.155971 1_555
C23 Ru12 1.924017 1_555
C24 O77 1.167204 1_555
C24 Ru22 1.879208 1_555
C25 O50 1.162612 1_555
C25 Ru14 1.893062 1_555
C26 O63 1.153637 1_555
C26 Ru13 1.964079 1_665
C27 O36 1.156563 1_555
C27 Ru25 1.898158 1_455
C28 O62 1.161335 1_555
C28 Ru20 1.887409 1_555
C29 O38 1.161335 1_555
C29 Ru6 1.887409 1_655
C30 O27 1.165760 1_555
C30 Ru5 1.880169 1_555
C31 O43 1.154483 1_555
C31 Ru2 1.978823 1_555
C32 O56 1.161847 1_555
C32 Ru27 1.885453 1_555
C33 O60 1.167204 1_555
C33 Ru1 1.879208 1_555
C34 O75 1.158795 1_555
C34 Ru6 1.908374 1_655
C35 O59 1.167906 1_555
C35 Ru24 1.884176 1_555
C36 O69 1.158795 1_555
C36 Ru14 1.908374 1_555
C37 O53 1.165760 1_555
C37 Ru26 1.880169 1_555
C38 O67 1.166366 1_565
C38 Ru9 1.879344 1_555
C39 O55 1.167906 1_555
C39 Ru5 1.884176 1_555
C40 O25 1.166498 1_556
C40 Ru16 1.873324 1_555
C41 O28 1.167906 1_555
C41 Ru23 1.884176 1_555
C42 O37 1.157637 1_554
C42 Ru27 1.908260 1_555
C43 O57 1.155463 1_455
C43 Ru3 1.961439 1_555
C44 O10 1.166606 1_555
C44 Ru1 1.873356 1_555
C45 O71 1.166606 1_555
C45 Ru7 1.873356 1_555
C46 O79 1.155971 1_555
C46 Ru3 1.924017 1_556
C47 O22 1.155971 1_555
C47 Ru18 1.924017 1_554
C48 O26 1.153637 1_555
C48 Ru2 1.964079 1_545
C49 O31 1.162612 1_555
C49 Ru6 1.893062 1_555
C50 O7 1.152307 1_565
C50 Ru3 1.973519 1_556
C51 O15 1.159208 1_555
C51 Ru18 1.892511 1_554
C52 O52 1.154483 1_555
C52 Ru13 1.978823 1_555
C53 O76 1.166498 1_555
C53 Ru9 1.873324 1_555
C54 O8 1.158795 1_555
C54 Ru0 1.908374 1_455
C55 O48 1.160737 1_655
C55 Ru11 1.893663 1_555
C56 O24 1.158795 1_555
C56 Ru20 1.908374 1_555
C57 O58 1.152307 1_545
C57 Ru15 1.973519 1_555
C58 O4 1.155463 1_555
C58 Ru18 1.961439 1_555
C59 O46 1.159208 1_555
C59 Ru3 1.892511 1_656
C60 O17 1.161335 1_555
C60 Ru14 1.887409 1_555
C61 O44 1.155971 1_555
C61 Ru15 1.924017 1_555
C62 O11 1.153637 1_555
C62 Ru10 1.964079 1_555
C63 O2 1.152307 1_555
C63 Ru18 1.973519 1_554
C64 O73 1.159208 1_555
C64 Ru15 1.892511 1_555
C65 O66 1.157637 1_555
C65 Ru11 1.908260 1_555
C66 O45 1.157663 1_555
C66 Ru2 1.907417 1_555
C67 O61 1.157637 1_555
C67 Ru4 1.908260 1_555
C68 O78 1.161847 1_555
C68 Ru11 1.885453 1_555
C69 O64 1.162612 1_555
C69 Ru0 1.893062 1_555
C70 O40 1.167204 1_555
C70 Ru7 1.879208 1_555
C71 O72 1.154483 1_555
C71 Ru10 1.978823 1_555
C72 O51 1.153637 1_555
C72 Ru25 1.964079 1_455
C73 O14 1.152307 1_555
C73 Ru12 1.973519 1_555
C74 O54 1.156563 1_555
C74 Ru10 1.898158 1_555
C75 O6 1.162612 1_555
C75 Ru20 1.893062 1_555
C76 O16 1.166606 1_555
C76 Ru21 1.873356 1_555
C77 O29 1.157663 1_555
C77 Ru10 1.907417 1_555
C78 O12 1.160737 1_555
C78 Ru4 1.893663 1_555
C79 O65 1.159208 1_555
C79 Ru12 1.892511 1_455
