# generated using pymatgen
data_UIr
_symmetry_space_group_name_H-M   'P 1'
_cell_length_a   4.67628800
_cell_length_b   6.74565975
_cell_length_c   10.25826208
_cell_angle_alpha   79.77993636
_cell_angle_beta   82.31293141
_cell_angle_gamma   78.26474767
_symmetry_Int_Tables_number   1
_chemical_formula_structural   UIr
_chemical_formula_sum   'U8 Ir8'
_cell_volume   310.19638755
_cell_formula_units_Z   8
loop_
 _symmetry_equiv_pos_site_id
 _symmetry_equiv_pos_as_xyz
  1  'x, y, z'
loop_
 _atom_site_type_symbol
 _atom_site_label
 _atom_site_symmetry_multiplicity
 _atom_site_fract_x
 _atom_site_fract_y
 _atom_site_fract_z
 _atom_site_occupancy
  U  U0  1  0.75076700  0.96767700  0.27144100  1
  U  U1  1  0.24923300  0.03232300  0.72855900  1
  U  U2  1  0.39111100  0.53956000  0.25560600  1
  U  U3  1  0.60888900  0.46044000  0.74439400  1
  U  U4  1  0.81009700  0.00656800  0.59593300  1
  U  U5  1  0.18990300  0.99343200  0.40406700  1
  U  U6  1  0.23336400  0.39547400  0.59270700  1
  U  U7  1  0.76663600  0.60452600  0.40729300  1
  Ir  Ir0  1  0.10501900  0.27321300  0.91392100  1
  Ir  Ir1  1  0.89498100  0.72678700  0.08607900  1
  Ir  Ir2  1  0.43177900  0.69770900  0.95228900  1
  Ir  Ir3  1  0.56822100  0.30229100  0.04771100  1
  Ir  Ir4  1  0.69876300  0.02150000  0.88434300  1
  Ir  Ir5  1  0.30123700  0.97850000  0.11565700  1
  Ir  Ir6  1  0.98350800  0.67084400  0.81077200  1
  Ir  Ir7  1  0.01649200  0.32915600  0.18922800  1
loop_
_geom_bond_atom_site_label_1
_geom_bond_atom_site_label_2
_geom_bond_distance
_geom_bond_site_symmetry_2
U0 U7 2.586678 1_555
U0 U5 2.659807 1_655
U0 U5 2.775602 1_555
U1 U6 2.586678 1_555
U1 U4 2.659807 1_455
U1 U4 2.775602 1_555
U2 U7 2.642562 1_555
U2 U7 3.105932 1_455
U2 U6 3.444360 1_555
U3 U6 2.642562 1_555
U3 U6 3.105932 1_655
U3 U7 3.444360 1_555
U4 U5 2.469587 1_645
Ir0 U1 2.649265 1_555
Ir0 Ir6 2.677846 1_455
Ir0 Ir3 2.682702 1_456
Ir0 Ir5 2.717150 1_546
Ir0 Ir3 2.770850 1_556
Ir0 Ir4 2.869406 1_455
Ir0 Ir7 2.879514 1_556
Ir0 Ir4 2.953629 1_555
Ir0 U3 3.018289 1_455
Ir0 U3 3.083208 1_555
Ir0 U6 3.256684 1_555
Ir1 U0 2.649265 1_555
Ir1 Ir7 2.677846 1_655
Ir1 Ir2 2.682702 1_654
Ir1 Ir4 2.717150 1_564
Ir1 Ir2 2.770850 1_554
Ir1 Ir5 2.869406 1_655
Ir1 Ir6 2.879514 1_554
Ir1 Ir5 2.953629 1_555
Ir1 U2 3.018289 1_655
Ir1 U2 3.083208 1_555
Ir1 U7 3.256684 1_555
Ir2 Ir3 2.651098 1_556
Ir2 Ir5 2.674189 1_556
Ir2 Ir4 2.674218 1_565
Ir2 Ir6 2.756189 1_455
Ir2 Ir6 2.774545 1_555
Ir2 U3 2.827602 1_555
Ir2 U1 2.998836 1_565
Ir2 U2 3.098715 1_556
Ir3 Ir4 2.674189 1_554
Ir3 Ir5 2.674218 1_545
Ir3 Ir7 2.756189 1_655
Ir3 Ir7 2.774545 1_555
Ir3 U2 2.827602 1_555
Ir3 U0 2.998836 1_545
Ir3 U3 3.098715 1_554
Ir4 Ir6 2.649753 1_545
Ir4 U1 2.788011 1_555
Ir4 Ir5 2.822305 1_546
Ir4 U1 2.849558 1_655
Ir4 U4 2.950724 1_555
Ir4 U3 3.025163 1_555
Ir5 Ir7 2.649753 1_565
Ir5 U0 2.788011 1_555
Ir5 U0 2.849558 1_455
Ir5 U5 2.950724 1_555
Ir5 U2 3.025163 1_555
Ir6 U3 2.687096 1_555
Ir6 U1 2.902347 1_665
Ir6 U4 2.933151 1_565
Ir6 U3 3.025289 1_655
Ir6 U6 3.116431 1_655
Ir7 U2 2.687096 1_555
Ir7 U0 2.902347 1_445
Ir7 U5 2.933151 1_545
Ir7 U2 3.025289 1_455
Ir7 U7 3.116431 1_455
