# generated using pymatgen
data_GaHO2
_symmetry_space_group_name_H-M   'P 1'
_cell_length_a   6.21239218
_cell_length_b   6.06586965
_cell_length_c   5.24559261
_cell_angle_alpha   66.16425664
_cell_angle_beta   63.26972951
_cell_angle_gamma   50.56601384
_symmetry_Int_Tables_number   1
_chemical_formula_structural   GaHO2
_chemical_formula_sum   'Ga4 H4 O8'
_cell_volume   134.33409832
_cell_formula_units_Z   4
loop_
 _symmetry_equiv_pos_site_id
 _symmetry_equiv_pos_as_xyz
  1  'x, y, z'
loop_
 _atom_site_type_symbol
 _atom_site_label
 _atom_site_symmetry_multiplicity
 _atom_site_fract_x
 _atom_site_fract_y
 _atom_site_fract_z
 _atom_site_occupancy
  Ga  Ga0  1  0.32731000  0.67674300  0.05500300  1
  Ga  Ga1  1  0.93711400  0.07280800  0.67063700  1
  Ga  Ga2  1  0.18550600  0.32096200  0.92081200  1
  Ga  Ga3  1  0.57139900  0.92691000  0.32039600  1
  H  H0  1  0.71586800  0.49128800  0.21443400  1
  H  H1  1  0.74765200  0.53415800  0.68189400  1
  H  H2  1  0.03823200  0.66899800  0.52927000  1
  H  H3  1  0.56985800  0.21749300  0.49789900  1
  O  O0  1  0.26714500  0.99886500  0.73074700  1
  O  O1  1  0.00086500  0.72651600  0.00837900  1
  O  O2  1  0.24435500  0.98366900  0.24843800  1
  O  O3  1  0.51957100  0.24654000  0.99106400  1
  O  O4  1  0.75861600  0.48634300  0.01205300  1
  O  O5  1  0.75305100  0.49131500  0.50272500  1
  O  O6  1  0.24851600  0.50462900  0.48711500  1
  O  O7  1  0.74239000  0.99869600  0.50042200  1
loop_
_geom_bond_atom_site_label_1
_geom_bond_atom_site_label_2
_geom_bond_distance
_geom_bond_site_symmetry_2
Ga0 O0 1.951587 1_554
Ga0 O1 1.967851 1_555
Ga0 O6 2.050827 1_555
Ga0 O4 2.073645 1_555
Ga0 O2 2.144508 1_555
Ga0 O3 2.176306 1_554
Ga1 O0 1.950195 1_645
Ga1 O5 1.984692 1_555
Ga1 O1 2.067490 1_646
Ga1 O7 2.109419 1_545
Ga1 O2 2.166658 1_645
Ga1 O3 2.168198 1_555
Ga2 O3 2.002495 1_555
Ga2 O2 2.011543 1_546
Ga2 O4 2.033484 1_456
Ga2 O6 2.067474 1_555
Ga2 O1 2.105487 1_556
Ga2 O0 2.220191 1_545
Ga3 O3 1.961471 1_564
Ga3 O7 2.008029 1_555
Ga3 O2 2.021172 1_555
Ga3 O5 2.076113 1_555
Ga3 O0 2.108984 1_555
Ga3 O1 2.198735 1_655
H0 O4 0.980019 1_555
H1 O5 1.053543 1_555
H2 O6 1.006599 1_555
H3 O7 1.049695 1_545
H3 O6 1.620763 1_555
