# generated using pymatgen
data_CrTe2
_symmetry_space_group_name_H-M   'P 1'
_cell_length_a   7.72645490
_cell_length_b   7.72658346
_cell_length_c   12.39910642
_cell_angle_alpha   89.99964950
_cell_angle_beta   90.00494766
_cell_angle_gamma   119.99864744
_symmetry_Int_Tables_number   1
_chemical_formula_structural   CrTe2
_chemical_formula_sum   'Cr8 Te16'
_cell_volume   641.05414161
_cell_formula_units_Z   8
loop_
 _symmetry_equiv_pos_site_id
 _symmetry_equiv_pos_as_xyz
  1  'x, y, z'
loop_
 _atom_site_type_symbol
 _atom_site_label
 _atom_site_symmetry_multiplicity
 _atom_site_fract_x
 _atom_site_fract_y
 _atom_site_fract_z
 _atom_site_occupancy
  Cr  Cr0  1  -0.00008280  0.49997059  0.25005579  1
  Cr  Cr1  1  0.50003652  0.00009809  0.25005710  1
  Cr  Cr2  1  -0.00000578  -0.00000027  0.25003208  1
  Cr  Cr3  1  -0.00000607  -0.00000402  0.74998049  1
  Cr  Cr4  1  0.50007023  0.49992161  0.25004077  1
  Cr  Cr5  1  0.50004812  0.49998208  0.74995351  1
  Cr  Cr6  1  0.50005173  0.00007701  0.74995074  1
  Cr  Cr7  1  0.99993632  0.49998079  0.74995956  1
  Te  Te0  1  0.16664034  0.83332527  0.12609226  1
  Te  Te1  1  0.16665061  0.83334422  0.62610663  1
  Te  Te2  1  0.33334119  0.66666238  0.37389009  1
  Te  Te3  1  0.33335456  0.66668221  0.87381673  1
  Te  Te4  1  0.16667257  0.33334082  0.62609979  1
  Te  Te5  1  0.16667457  0.33334884  0.12609950  1
  Te  Te6  1  0.66667333  0.83333307  0.62609759  1
  Te  Te7  1  0.66664021  0.83331761  0.12606374  1
  Te  Te8  1  0.33333078  0.16665792  0.87389577  1
  Te  Te9  1  0.33336672  0.16667127  0.37403068  1
  Te  Te10  1  0.83332098  0.66662418  0.37403252  1
  Te  Te11  1  0.83334256  0.66667539  0.87389344  1
  Te  Te12  1  0.66661575  0.33330841  0.62595401  1
  Te  Te13  1  0.66666390  0.33331374  0.12598459  1
  Te  Te14  1  0.83331702  0.16669916  0.37402900  1
  Te  Te15  1  0.83334964  0.16667062  0.87388462  1
loop_
_geom_bond_atom_site_label_1
_geom_bond_atom_site_label_2
_geom_bond_distance
_geom_bond_site_symmetry_2
Cr0 Te2 2.708244 1_555
Cr0 Te10 2.708453 1_455
Cr0 Te14 2.708586 1_455
Cr0 Te13 2.708970 1_455
Cr0 Te0 2.708977 1_555
Cr0 Te5 2.709021 1_555
Cr1 Te9 2.708393 1_555
Cr1 Te14 2.708421 1_555
Cr1 Te2 2.708506 1_545
Cr1 Te13 2.708978 1_555
Cr1 Te0 2.709009 1_545
Cr1 Te7 2.709310 1_545
Cr2 Te0 2.708583 1_545
Cr2 Te5 2.708729 1_555
Cr2 Te7 2.708801 1_445
Cr2 Te9 2.709116 1_555
Cr2 Te14 2.709294 1_455
Cr2 Te10 2.709352 1_445
Cr3 Te6 2.708016 1_445
Cr3 Te1 2.708052 1_545
Cr3 Te15 2.708323 1_455
Cr3 Te8 2.708333 1_555
Cr3 Te4 2.708340 1_555
Cr3 Te11 2.708433 1_445
Cr4 Te10 2.708397 1_555
Cr4 Te9 2.708588 1_555
Cr4 Te13 2.708746 1_555
Cr4 Te2 2.708769 1_555
Cr4 Te5 2.708840 1_555
Cr4 Te7 2.709300 1_555
Cr5 Te4 2.708113 1_555
Cr5 Te6 2.708200 1_555
Cr5 Te11 2.708273 1_555
Cr5 Te3 2.708447 1_555
Cr5 Te12 2.708566 1_555
Cr5 Te8 2.708659 1_555
Cr6 Te1 2.708187 1_545
Cr6 Te6 2.708221 1_545
Cr6 Te15 2.708249 1_555
Cr6 Te3 2.708512 1_545
Cr6 Te8 2.708517 1_555
Cr6 Te12 2.708531 1_555
Cr7 Te1 2.708247 1_655
Cr7 Te4 2.708327 1_655
Cr7 Te11 2.708364 1_555
Cr7 Te3 2.708373 1_655
Cr7 Te15 2.708461 1_555
Cr7 Te12 2.708878 1_555
