# generated using pymatgen
data_Zr23S32
_symmetry_space_group_name_H-M   'P 1'
_cell_length_a   7.30653900
_cell_length_b   7.32841298
_cell_length_c   20.78468562
_cell_angle_alpha   90.25715543
_cell_angle_beta   90.09376420
_cell_angle_gamma   90.16660835
_symmetry_Int_Tables_number   1
_chemical_formula_structural   Zr23S32
_chemical_formula_sum   'Zr23 S32'
_cell_volume   1112.90553138
_cell_formula_units_Z   1
loop_
 _symmetry_equiv_pos_site_id
 _symmetry_equiv_pos_as_xyz
  1  'x, y, z'
loop_
 _atom_site_type_symbol
 _atom_site_label
 _atom_site_symmetry_multiplicity
 _atom_site_fract_x
 _atom_site_fract_y
 _atom_site_fract_z
 _atom_site_occupancy
  Zr  Zr0  1  0.74981400  0.74924600  0.12492500  1
  Zr  Zr1  1  0.99597900  0.49638300  0.24964000  1
  Zr  Zr2  1  0.25150100  0.25118500  0.12548900  1
  Zr  Zr3  1  0.74936400  0.25073900  0.12636900  1
  Zr  Zr4  1  0.99837600  0.00272300  0.49986300  1
  Zr  Zr5  1  0.50229400  0.00513300  0.24976400  1
  Zr  Zr6  1  0.75086700  0.75214400  0.37569400  1
  Zr  Zr7  1  0.25058800  0.74991500  0.37746600  1
  Zr  Zr8  1  0.50048900  0.49732500  0.50168200  1
  Zr  Zr9  1  0.50654200  0.49892200  0.75097400  1
  Zr  Zr10  1  0.49987200  0.50107700  0.24962000  1
  Zr  Zr11  1  0.25091200  0.25019000  0.62425700  1
  Zr  Zr12  1  0.74683800  0.25225200  0.62456800  1
  Zr  Zr13  1  0.24793000  0.24824400  0.37622800  1
  Zr  Zr14  1  0.49540600  0.99639400  0.99847300  1
  Zr  Zr15  1  0.00127700  0.99197000  0.99880300  1
  Zr  Zr16  1  0.50106100  0.00176600  0.75063800  1
  Zr  Zr17  1  0.75099900  0.75040700  0.87500400  1
  Zr  Zr18  1  0.25277200  0.74864600  0.62336700  1
  Zr  Zr19  1  0.74716900  0.74845500  0.62497100  1
  Zr  Zr20  1  0.99489800  0.49895800  0.75084000  1
  Zr  Zr21  1  0.00495900  0.50693600  0.99827800  1
  Zr  Zr22  1  0.74868400  0.25157900  0.87233900  1
  S  S0  1  0.25059700  0.74989600  0.00064100  1
  S  S1  1  0.01150000  0.51047900  0.12437200  1
  S  S2  1  0.49536400  0.50465200  0.12400500  1
  S  S3  1  0.75426200  0.24566600  0.25172000  1
  S  S4  1  0.23960600  0.24051600  0.25076500  1
  S  S5  1  0.50453400  0.00474000  0.37689500  1
  S  S6  1  0.00267200  0.99837100  0.12637900  1
  S  S7  1  0.99529300  0.00439800  0.37261900  1
  S  S8  1  0.48929100  0.98944900  0.12450900  1
  S  S9  1  0.75973500  0.76057900  0.24997400  1
  S  S10  1  0.24651200  0.75344700  0.25043900  1
  S  S11  1  0.24898000  0.75124400  0.49961900  1
  S  S12  1  0.75047000  0.75049100  0.50020600  1
  S  S13  1  0.00104100  0.50055000  0.61986300  1
  S  S14  1  0.51068400  0.48966200  0.37487700  1
  S  S15  1  0.49873300  0.49981100  0.62601000  1
  S  S16  1  0.99528200  0.49606500  0.37673400  1
  S  S17  1  0.24941200  0.24950700  0.49944400  1
  S  S18  1  0.75060200  0.24951700  0.50147800  1
  S  S19  1  0.76131500  0.23785000  0.75017000  1
  S  S20  1  0.24558600  0.24642700  0.75119200  1
  S  S21  1  0.48813100  0.99954000  0.87530800  1
  S  S22  1  0.99904600  0.00054400  0.63043300  1
  S  S23  1  0.99503500  0.00273100  0.87610900  1
  S  S24  1  0.49848600  0.99983400  0.61973300  1
  S  S25  1  0.76125500  0.76225800  0.75064800  1
  S  S26  1  0.24666700  0.75268200  0.75065600  1
  S  S27  1  0.73917700  0.73839000  0.99940200  1
  S  S28  1  0.50225100  0.49963100  0.87284100  1
  S  S29  1  0.01254900  0.50050700  0.87517800  1
  S  S30  1  0.25387500  0.25301200  0.99888900  1
  S  S31  1  0.74346800  0.25696700  0.99964000  1
loop_
_geom_bond_atom_site_label_1
_geom_bond_atom_site_label_2
_geom_bond_distance
_geom_bond_site_symmetry_2
S0 Zr21 2.524708 1_554
S0 Zr14 2.539080 1_554
S0 Zr15 2.546810 1_554
S1 Zr2 2.589599 1_555
S1 Zr0 2.595581 1_455
S1 Zr1 2.608806 1_455
S1 Zr21 2.621192 1_554
S1 Zr3 2.696875 1_455
S2 Zr2 2.570513 1_555
S2 Zr0 2.578760 1_555
S2 Zr10 2.611272 1_555
S2 Zr3 2.632440 1_555
S3 Zr5 2.545275 1_555
S3 Zr1 2.545389 1_555
S3 Zr3 2.606002 1_555
S3 Zr10 2.642137 1_555
S4 Zr5 2.584363 1_555
S4 Zr1 2.589375 1_455
S4 Zr2 2.606930 1_555
S4 Zr13 2.608676 1_555
S4 Zr10 2.691178 1_555
S5 Zr6 2.585698 1_545
S5 Zr13 2.592185 1_555
S5 Zr7 2.628770 1_545
S5 Zr5 2.642416 1_555
S6 Zr2 2.592137 1_565
S6 Zr0 2.593662 1_455
S6 Zr3 2.620282 1_465
S6 Zr15 2.651834 1_554
S7 Zr13 2.566228 1_655
S7 Zr6 2.567720 1_545
S7 Zr7 2.643661 1_645
S7 Zr4 2.644869 1_555
S8 Zr2 2.591783 1_565
S8 Zr0 2.596482 1_555
S8 Zr5 2.606971 1_565
S8 Zr14 2.620793 1_554
S8 Zr3 2.693869 1_565
S9 Zr1 2.597603 1_555
S9 Zr0 2.600943 1_555
S9 Zr5 2.601883 1_565
S9 Zr6 2.614963 1_555
S9 Zr10 2.683384 1_555
S10 Zr10 2.620582 1_555
S10 Zr5 2.622063 1_565
S10 Zr1 2.622908 1_455
S10 Zr7 2.640579 1_555
S11 Zr7 2.538933 1_555
S11 Zr18 2.572324 1_555
S11 Zr4 2.601686 1_465
S11 Zr8 2.619512 1_555
S12 Zr4 2.584275 1_565
S12 Zr6 2.588032 1_555
S12 Zr19 2.593462 1_555
S12 Zr8 2.600033 1_555
S13 Zr18 2.583188 1_555
S13 Zr11 2.593879 1_555
S13 Zr12 2.598631 1_455
S13 Zr19 2.602136 1_455
S13 Zr20 2.722836 1_455
S14 Zr6 2.600021 1_555
S14 Zr10 2.606222 1_555
S14 Zr13 2.607198 1_555
S14 Zr8 2.637127 1_555
S14 Zr7 2.696754 1_555
S15 Zr18 2.564702 1_555
S15 Zr19 2.568458 1_555
S15 Zr12 2.568520 1_555
S15 Zr11 2.570285 1_555
S15 Zr8 2.584154 1_555
S15 Zr9 2.597909 1_555
S16 Zr13 2.593356 1_655
S16 Zr6 2.594456 1_555
S16 Zr7 2.630630 1_655
S16 Zr1 2.641634 1_555
S17 Zr13 2.560986 1_555
S17 Zr4 2.572175 1_455
S17 Zr8 2.577871 1_555
S17 Zr11 2.594186 1_555
S18 Zr12 2.558569 1_555
S18 Zr4 2.562875 1_555
S18 Zr8 2.580094 1_555
S19 Zr22 2.542622 1_555
S19 Zr20 2.560305 1_555
S19 Zr16 2.567179 1_555
S19 Zr12 2.615184 1_555
S19 Zr9 2.673298 1_555
S20 Zr16 2.592023 1_555
S20 Zr20 2.607631 1_455
S20 Zr11 2.638921 1_555
S20 Zr9 2.653109 1_555
S21 Zr14 2.560619 1_555
S21 Zr16 2.593226 1_565
S21 Zr22 2.649636 1_565
S21 Zr17 2.653799 1_555
S22 Zr11 2.594893 1_655
S22 Zr19 2.605833 1_545
S22 Zr12 2.614255 1_555
S22 Zr18 2.623830 1_645
S22 Zr4 2.713972 1_555
S23 Zr15 2.552066 1_645
S23 Zr17 2.565041 1_545
S23 Zr22 2.567429 1_555
S24 Zr18 2.569032 1_555
S24 Zr11 2.581758 1_565
S24 Zr12 2.588998 1_565
S24 Zr19 2.593789 1_555
S24 Zr16 2.720827 1_565
S25 Zr20 2.580064 1_555
S25 Zr17 2.587749 1_555
S25 Zr16 2.591222 1_565
S25 Zr19 2.615507 1_555
S25 Zr9 2.677156 1_555
S26 Zr16 2.601392 1_565
S26 Zr20 2.611807 1_455
S26 Zr18 2.646145 1_555
S26 Zr9 2.661648 1_555
S27 Zr21 2.582192 1_655
S27 Zr17 2.589042 1_555
S27 Zr14 2.601450 1_555
S27 Zr0 2.610835 1_556
S27 Zr15 2.664688 1_655
S28 Zr9 2.533195 1_555
S28 Zr22 2.562341 1_555
S28 Zr17 2.581147 1_555
S29 Zr21 2.559512 1_555
S29 Zr20 2.587304 1_455
S29 Zr17 2.650724 1_455
S29 Zr22 2.650758 1_455
S30 Zr14 2.582694 1_545
S30 Zr21 2.605859 1_555
S30 Zr2 2.631521 1_556
S30 Zr15 2.654315 1_545
S31 Zr14 2.628970 1_545
S31 Zr3 2.634907 1_556
S31 Zr21 2.643337 1_655
S31 Zr22 2.646367 1_555
S31 Zr15 2.709441 1_645
