# generated using pymatgen
data_K2ZnH12(SO7)2
_symmetry_space_group_name_H-M   'P 1'
_cell_length_a   11.94155200
_cell_length_b   7.28940100
_cell_length_c   9.82606491
_cell_angle_alpha   71.69871181
_cell_angle_beta   90.00000000
_cell_angle_gamma   90.00000000
_symmetry_Int_Tables_number   1
_chemical_formula_structural   K2ZnH12(SO7)2
_chemical_formula_sum   'K4 Zn2 H24 S4 O28'
_cell_volume   812.06332541
_cell_formula_units_Z   2
loop_
 _symmetry_equiv_pos_site_id
 _symmetry_equiv_pos_as_xyz
  1  'x, y, z'
loop_
 _atom_site_type_symbol
 _atom_site_label
 _atom_site_symmetry_multiplicity
 _atom_site_fract_x
 _atom_site_fract_y
 _atom_site_fract_z
 _atom_site_occupancy
  K  K0  1  0.68583600  0.35370400  0.82041700  1
  K  K1  1  0.18583600  0.64629600  0.67958300  1
  K  K2  1  0.31416400  0.64629600  0.17958300  1
  K  K3  1  0.81416400  0.35370400  0.32041700  1
  Zn  Zn0  1  0.50000000  0.00000000  0.50000000  1
  Zn  Zn1  1  0.00000000  0.00000000  0.00000000  1
  H  H0  1  0.12937400  0.11225400  0.71635600  1
  H  H1  1  0.20342800  0.30062200  0.96964400  1
  H  H2  1  0.62937400  0.88774600  0.78364400  1
  H  H3  1  0.87037100  0.94355600  0.67227100  1
  H  H4  1  0.94847900  0.62832000  0.83784900  1
  H  H5  1  0.37037100  0.05644400  0.82772900  1
  H  H6  1  0.04291400  0.58380200  0.16489000  1
  H  H7  1  0.55152100  0.62832000  0.33784900  1
  H  H8  1  0.45708600  0.58380200  0.66489000  1
  H  H9  1  0.05152100  0.37168000  0.16215100  1
  H  H10  1  0.77039700  0.07655400  0.60384000  1
  H  H11  1  0.72960300  0.07655400  0.10384000  1
  H  H12  1  0.70342800  0.69937800  0.53035600  1
  H  H13  1  0.54291400  0.41619800  0.33511000  1
  H  H14  1  0.37062600  0.11225400  0.21635600  1
  H  H15  1  0.95708600  0.41619800  0.83511000  1
  H  H16  1  0.12962900  0.05644400  0.32772900  1
  H  H17  1  0.62962900  0.94355600  0.17227100  1
  H  H18  1  0.22960300  0.92344600  0.39616000  1
  H  H19  1  0.44847900  0.37168000  0.66215100  1
  H  H20  1  0.29657200  0.30062200  0.46964400  1
  H  H21  1  0.87062600  0.88774600  0.28364400  1
  H  H22  1  0.79657200  0.69937800  0.03035600  1
  H  H23  1  0.27039700  0.92344600  0.89616000  1
  S  S0  1  0.11362000  0.32971500  0.50272000  1
  S  S1  1  0.38638000  0.32971500  0.00272000  1
  S  S2  1  0.88638000  0.67028500  0.49728000  1
  S  S3  1  0.61362000  0.67028500  0.99728000  1
  O  O0  1  0.94826100  0.54865900  0.77123800  1
  O  O1  1  0.15638100  0.92455600  0.34647900  1
  O  O2  1  0.05173900  0.45134100  0.22876200  1
  O  O3  1  0.51796700  0.76147500  0.44481200  1
  O  O4  1  0.39721300  0.72621400  0.44179500  1
  O  O5  1  0.88377400  0.74857800  0.31734700  1
  O  O6  1  0.11622600  0.25142200  0.68265300  1
  O  O7  1  0.61622600  0.74857800  0.81734700  1
  O  O8  1  0.65638100  0.07544400  0.15352100  1
  O  O9  1  0.84819100  0.11918800  0.01081500  1
  O  O10  1  0.84361900  0.07544400  0.65352100  1
  O  O11  1  0.34819100  0.88081200  0.48918500  1
  O  O12  1  0.60278700  0.27378600  0.55820500  1
  O  O13  1  0.44826100  0.45134100  0.72876200  1
  O  O14  1  0.34361900  0.92455600  0.84647900  1
  O  O15  1  0.01796700  0.23852500  0.05518800  1
  O  O16  1  0.25546600  0.40785300  0.96248900  1
  O  O17  1  0.98203300  0.76147500  0.94481200  1
  O  O18  1  0.75546600  0.59214700  0.53751100  1
  O  O19  1  0.38377400  0.25142200  0.18265300  1
  O  O20  1  0.24453400  0.40785300  0.46248900  1
  O  O21  1  0.55173900  0.54865900  0.27123800  1
  O  O22  1  0.15180900  0.88081200  0.98918500  1
  O  O23  1  0.74453400  0.59214700  0.03751100  1
  O  O24  1  0.10278700  0.72621400  0.94179500  1
  O  O25  1  0.65180900  0.11918800  0.51081500  1
  O  O26  1  0.48203300  0.23852500  0.55518800  1
  O  O27  1  0.89721300  0.27378600  0.05820500  1
loop_
_geom_bond_atom_site_label_1
_geom_bond_atom_site_label_2
_geom_bond_distance
_geom_bond_site_symmetry_2
K0 O9 2.858798 1_556
K0 O18 2.899231 1_555
K0 O12 2.983951 1_555
K0 O7 2.987058 1_555
K0 O13 2.993949 1_555
K0 O23 3.223558 1_556
K1 O11 2.858798 1_555
K1 O16 2.899231 1_555
K1 O24 2.983951 1_555
K1 O6 2.987058 1_555
K1 O0 2.993949 1_455
K1 O20 3.223558 1_555
K2 O22 2.858798 1_554
K2 O20 2.899231 1_555
K2 O4 2.983951 1_555
K2 O19 2.987058 1_555
K2 O21 2.993949 1_555
K2 O16 3.223558 1_554
K3 O25 2.858798 1_555
K3 O23 2.899231 1_555
K3 O27 2.983951 1_555
K3 O5 2.987058 1_555
K3 O2 2.993949 1_655
K3 O18 3.223558 1_555
H0 O6 0.975934 1_555
H1 O16 0.983647 1_555
H2 O7 0.975934 1_555
H3 O10 0.974177 1_565
H4 O0 1.002144 1_555
H4 O17 1.687598 1_555
H5 O14 0.974177 1_545
H6 O2 0.978124 1_555
H7 O21 1.002144 1_555
H7 O3 1.687598 1_555
H8 O13 0.978124 1_555
H9 O2 1.002144 1_555
H9 O15 1.687598 1_555
H10 O10 1.000221 1_555
H10 O25 1.661057 1_555
H10 K3 2.928650 1_555
H11 O8 1.000221 1_555
H11 O9 1.661057 1_555
H11 K0 2.928650 1_554
H12 O18 0.983647 1_555
H13 O21 0.978124 1_555
H14 O19 0.975934 1_555
H15 O0 0.978124 1_555
H16 O1 0.974177 1_545
H17 O8 0.974177 1_565
H18 O1 1.000221 1_555
H18 O11 1.661057 1_555
H18 K1 2.928650 1_555
H19 O13 1.002144 1_555
H19 O26 1.687598 1_555
H20 O20 0.983647 1_555
H21 O5 0.975934 1_555
H22 O23 0.983647 1_555
H23 O14 1.000221 1_555
H23 O22 1.661057 1_555
H23 K2 2.928650 1_556
O3 O4 1.466651 1_555
O3 Zn0 1.988804 1_565
O5 S2 1.678964 1_555
O6 S0 1.678964 1_555
O7 S3 1.678964 1_555
O9 Zn1 2.027431 1_655
O11 O4 1.469373 1_555
O11 Zn0 2.027431 1_565
O12 O26 1.466651 1_555
O12 O25 1.469373 1_555
O15 O27 1.466651 1_455
O15 Zn1 1.988804 1_555
O16 S1 1.668305 1_556
O17 O24 1.466651 1_655
O17 Zn1 1.988804 1_666
O18 S2 1.668305 1_555
O19 S1 1.678964 1_555
O20 S0 1.668305 1_555
O22 O24 1.469373 1_555
O22 Zn1 2.027431 1_566
O23 S3 1.668305 1_554
O25 Zn0 2.027431 1_555
O26 Zn0 1.988804 1_555
O27 O9 1.469373 1_555
