# generated using pymatgen
data_K2SbF5
_symmetry_space_group_name_H-M   'P 1'
_cell_length_a   6.60588800
_cell_length_b   17.52817400
_cell_length_c   29.09146362
_cell_angle_alpha   78.82636158
_cell_angle_beta   90.00000000
_cell_angle_gamma   90.00000000
_symmetry_Int_Tables_number   1
_chemical_formula_structural   K2SbF5
_chemical_formula_sum   'K44 Sb22 F110'
_cell_volume   3304.62454760
_cell_formula_units_Z   22
loop_
 _symmetry_equiv_pos_site_id
 _symmetry_equiv_pos_as_xyz
  1  'x, y, z'
loop_
 _atom_site_type_symbol
 _atom_site_label
 _atom_site_symmetry_multiplicity
 _atom_site_fract_x
 _atom_site_fract_y
 _atom_site_fract_z
 _atom_site_occupancy
  K  K0  1  0.76111200  0.64858900  0.62601100  1
  K  K1  1  0.75484000  0.58791100  0.47734000  1
  K  K2  1  0.75446300  0.74497300  0.93285300  1
  K  K3  1  0.25591600  0.49989300  0.24982000  1
  K  K4  1  0.25832800  0.45138900  0.10658800  1
  K  K5  1  0.74296200  0.22530800  0.56910300  1
  K  K6  1  0.75279900  0.73817900  0.35557800  1
  K  K7  1  0.20874600  0.95120100  0.86636700  1
  K  K8  1  0.73686500  0.67629200  0.20680800  1
  K  K9  1  0.77064100  0.95274300  0.38822200  1
  K  K10  1  0.24072500  0.59003000  0.97772700  1
  K  K11  1  0.76726100  0.84278300  0.08305400  1
  K  K12  1  0.25429600  0.53336900  0.82815500  1
  K  K13  1  0.70874600  0.04879900  0.13363300  1
  K  K14  1  0.75429600  0.46663100  0.17184500  1
  K  K15  1  0.24296200  0.77469200  0.43089700  1
  K  K16  1  0.24726200  0.81383900  0.99316000  1
  K  K17  1  0.24627700  0.71291700  0.29059100  1
  K  K18  1  0.25446300  0.25502700  0.06714700  1
  K  K19  1  0.77039400  0.01041100  0.53519500  1
  K  K20  1  0.76837400  0.31394500  0.29688000  1
  K  K21  1  0.23835400  0.13724000  0.34093700  1
  K  K22  1  0.74105100  0.10018500  0.26461500  1
  K  K23  1  0.74627700  0.28708300  0.70940900  1
  K  K24  1  0.26837400  0.68605500  0.70312000  1
  K  K25  1  0.24695000  0.07325400  0.17764600  1
  K  K26  1  0.23686500  0.32370800  0.79319200  1
  K  K27  1  0.26726100  0.15721700  0.91694600  1
  K  K28  1  0.26111200  0.35141100  0.37398900  1
  K  K29  1  0.75832800  0.54861100  0.89341200  1
  K  K30  1  0.27039400  0.98958900  0.46480500  1
  K  K31  1  0.25484000  0.41208900  0.52266000  1
  K  K32  1  0.27064100  0.04725700  0.61177800  1
  K  K33  1  0.74072500  0.40997000  0.02227300  1
  K  K34  1  0.25279900  0.26182100  0.64442200  1
  K  K35  1  0.74695000  0.92674600  0.82235400  1
  K  K36  1  0.73835400  0.86276000  0.65906300  1
  K  K37  1  0.78297000  0.15439500  0.82882900  1
  K  K38  1  0.76479100  0.37179000  0.44486700  1
  K  K39  1  0.26479100  0.62821000  0.55513300  1
  K  K40  1  0.75591600  0.50010700  0.75018000  1
  K  K41  1  0.28297000  0.84560500  0.17117100  1
  K  K42  1  0.74726200  0.18616100  0.00684000  1
  K  K43  1  0.24105100  0.89981500  0.73538500  1
  Sb  Sb0  1  0.24217000  0.83392400  0.58742900  1
  Sb  Sb1  1  0.25905000  0.03087500  0.04232000  1
  Sb  Sb2  1  0.76602500  0.07284400  0.68264600  1
  Sb  Sb3  1  0.25213400  0.47307000  0.67836800  1
  Sb  Sb4  1  0.75535900  0.43946700  0.59297700  1
  Sb  Sb5  1  0.26736600  0.11259800  0.76257900  1
  Sb  Sb6  1  0.24162800  0.19818500  0.49719500  1
  Sb  Sb7  1  0.74162800  0.80181500  0.50280500  1
  Sb  Sb8  1  0.26602500  0.92715600  0.31735400  1
  Sb  Sb9  1  0.77000900  0.26433000  0.14561300  1
  Sb  Sb10  1  0.76736600  0.88740200  0.23742100  1
  Sb  Sb11  1  0.75213400  0.52693000  0.32163200  1
  Sb  Sb12  1  0.73968400  0.61900000  0.04845800  1
  Sb  Sb13  1  0.74217000  0.16607600  0.41257100  1
  Sb  Sb14  1  0.75905000  0.96912500  0.95768000  1
  Sb  Sb15  1  0.23968400  0.38100000  0.95154200  1
  Sb  Sb16  1  0.74146700  0.34278100  0.86681000  1
  Sb  Sb17  1  0.27000900  0.73567000  0.85438700  1
  Sb  Sb18  1  0.26326900  0.28810800  0.22627800  1
  Sb  Sb19  1  0.76326900  0.71189200  0.77372200  1
  Sb  Sb20  1  0.24146700  0.65721900  0.13319000  1
  Sb  Sb21  1  0.25535900  0.56053300  0.40702300  1
  F  F0  1  0.05377000  0.65012000  0.88386800  1
  F  F1  1  0.72154200  0.87971800  0.17087800  1
  F  F2  1  0.49586400  0.55195900  0.67467600  1
  F  F3  1  0.45753800  0.65610600  0.39753000  1
  F  F4  1  0.52976500  0.87765300  0.46446000  1
  F  F5  1  0.25792800  0.57984700  0.47194200  1
  F  F6  1  0.04491900  0.92685100  0.58851900  1
  F  F7  1  0.99163000  0.51496800  0.56368800  1
  F  F8  1  0.97247400  0.98409600  0.67938600  1
  F  F9  1  0.47181800  0.29969400  0.98020200  1
  F  F10  1  0.51481700  0.23591500  0.37603200  1
  F  F11  1  0.51611600  0.41714000  0.83289100  1
  F  F12  1  0.45964700  0.28944300  0.48203200  1
  F  F13  1  0.03974400  0.20163400  0.75505900  1
  F  F14  1  0.48987100  0.85073400  0.35170400  1
  F  F15  1  0.55291500  0.52695000  0.56052600  1
  F  F16  1  0.94989200  0.52652200  0.06447800  1
  F  F17  1  0.49163000  0.48503200  0.43631200  1
  F  F18  1  0.55605300  0.61580000  0.78765800  1
  F  F19  1  0.78565500  0.32808900  0.80124300  1
  F  F20  1  0.47868800  0.74298200  0.12491700  1
  F  F21  1  0.37774700  0.11256200  0.07506100  1
  F  F22  1  0.97599000  0.17245600  0.14628900  1
  F  F23  1  0.11344400  0.12707100  0.00125300  1
  F  F24  1  0.30526200  0.84786500  0.65188600  1
  F  F25  1  0.75667300  0.51098900  0.25594000  1
  F  F26  1  0.47578000  0.20089700  0.76585400  1
  F  F27  1  0.51656500  0.07531400  0.98920000  1
  F  F28  1  0.22658900  0.75903800  0.91777100  1
  F  F29  1  0.03241100  0.01207200  0.30905700  1
  F  F30  1  0.05291500  0.47305000  0.43947400  1
  F  F31  1  0.93783200  0.43949700  0.84171800  1
  F  F32  1  0.75792800  0.42015300  0.52805800  1
  F  F33  1  0.52860800  0.79184200  0.74769800  1
  F  F34  1  0.87774700  0.88743800  0.92493900  1
  F  F35  1  0.02976500  0.12234700  0.53554000  1
  F  F36  1  0.25667300  0.48901100  0.74406000  1
  F  F37  1  0.44989200  0.47347800  0.93552200  1
  F  F38  1  0.95964700  0.71055700  0.51796800  1
  F  F39  1  0.53241100  0.98792800  0.69094300  1
  F  F40  1  0.04842500  0.82544200  0.83773000  1
  F  F41  1  0.44469400  0.38036900  0.70897700  1
  F  F42  1  0.52406500  0.53105500  0.05068400  1
  F  F43  1  0.72658900  0.24096200  0.08222900  1
  F  F44  1  0.05605300  0.38420000  0.21234200  1
  F  F45  1  0.46873800  0.20843300  0.26380100  1
  F  F46  1  0.52138000  0.35560600  0.59750200  1
  F  F47  1  0.94469400  0.61963100  0.29102300  1
  F  F48  1  0.56276100  0.16938000  0.66001600  1
  F  F49  1  0.28100400  0.40532800  0.01510200  1
  F  F50  1  0.49080700  0.37355400  0.22501200  1
  F  F51  1  0.51534900  0.69153100  0.01084800  1
  F  F52  1  0.55425700  0.43114900  0.32815900  1
  F  F53  1  0.01481700  0.76408500  0.62396800  1
  F  F54  1  0.02406500  0.46894500  0.94931600  1
  F  F55  1  0.53974400  0.79836600  0.24494100  1
  F  F56  1  0.43692500  0.73516800  0.61036300  1
  F  F57  1  0.01656500  0.92468600  0.01080000  1
  F  F58  1  0.98026900  0.08187100  0.42528200  1
  F  F59  1  0.98611600  0.96618500  0.20444500  1
  F  F60  1  0.22226200  0.30975500  0.29041500  1
  F  F61  1  0.06276100  0.83062000  0.33998400  1
  F  F62  1  0.01112300  0.39977400  0.70773300  1
  F  F63  1  0.72226200  0.69024500  0.70958500  1
  F  F64  1  0.71318600  0.06282300  0.61661900  1
  F  F65  1  0.55706700  0.98348800  0.21680500  1
  F  F66  1  0.02138000  0.64439400  0.40249800  1
  F  F67  1  0.99080700  0.62644600  0.77498800  1
  F  F68  1  0.30835000  0.21400700  0.56142400  1
  F  F69  1  0.97181800  0.70030600  0.01979800  1
  F  F70  1  0.05425700  0.56885100  0.67184100  1
  F  F71  1  0.48847300  0.66063200  0.89229400  1
  F  F72  1  0.43783200  0.56050300  0.15828200  1
  F  F73  1  0.89683200  0.03721600  0.89451200  1
  F  F74  1  0.54491900  0.07314900  0.41148100  1
  F  F75  1  0.01534900  0.30846900  0.98915200  1
  F  F76  1  0.98987100  0.14926600  0.64829600  1
  F  F77  1  0.02993300  0.28584000  0.50125900  1
  F  F78  1  0.54842500  0.17455800  0.16227000  1
  F  F79  1  0.47247400  0.01590400  0.32061400  1
  F  F80  1  0.80835000  0.78599300  0.43857600  1
  F  F81  1  0.45538600  0.10609800  0.51894800  1
  F  F82  1  0.95538600  0.89390200  0.48105200  1
  F  F83  1  0.78100400  0.59467200  0.98489800  1
  F  F84  1  0.80526200  0.15213500  0.34811400  1
  F  F85  1  0.97868800  0.25701800  0.87508300  1
  F  F86  1  0.99586400  0.44804100  0.32532400  1
  F  F87  1  0.61344400  0.87292900  0.99874700  1
  F  F88  1  0.02860800  0.20815800  0.25230200  1
  F  F89  1  0.03188900  0.74820400  0.13374500  1
  F  F90  1  0.93692500  0.26483200  0.38963700  1
  F  F91  1  0.51432400  0.96327400  0.91534600  1
  F  F92  1  0.98847300  0.33936800  0.10770600  1
  F  F93  1  0.01611600  0.58286000  0.16710900  1
  F  F94  1  0.22154200  0.12028200  0.82912200  1
  F  F95  1  0.55377000  0.34988000  0.11613200  1
  F  F96  1  0.48611600  0.03381500  0.79555500  1
  F  F97  1  0.28565500  0.67191100  0.19875700  1
  F  F98  1  0.39683200  0.96278400  0.10548800  1
  F  F99  1  0.96873800  0.79156700  0.73619900  1
  F  F100  1  0.21318600  0.93717700  0.38338100  1
  F  F101  1  0.48026900  0.91812900  0.57471800  1
  F  F102  1  0.95753800  0.34389400  0.60247000  1
  F  F103  1  0.97578000  0.79910300  0.23414600  1
  F  F104  1  0.53188900  0.25179600  0.86625500  1
  F  F105  1  0.01432400  0.03672600  0.08465400  1
  F  F106  1  0.51112300  0.60022600  0.29226700  1
  F  F107  1  0.05706700  0.01651200  0.78319500  1
  F  F108  1  0.52993300  0.71416000  0.49874100  1
  F  F109  1  0.47599000  0.82754400  0.85371100  1
loop_
_geom_bond_atom_site_label_1
_geom_bond_atom_site_label_2
_geom_bond_distance
_geom_bond_site_symmetry_2
F0 Sb17 2.127486 1_555
F0 K29 2.619233 1_455
F0 K10 2.995930 1_555
F0 K2 3.102019 1_455
F0 K12 3.139263 1_555
F1 Sb10 1.989541 1_555
F1 K11 2.771113 1_555
F1 K13 2.952965 1_565
F1 K41 2.957896 1_555
F2 Sb3 2.111475 1_555
F2 K0 2.648385 1_555
F2 K40 2.797879 1_555
F2 K24 3.036692 1_555
F3 Sb21 2.118273 1_555
F3 K6 2.585124 1_555
F3 K15 2.837957 1_555
F3 K1 3.098546 1_555
F4 Sb7 2.096528 1_555
F4 K30 2.606332 1_555
F4 K9 2.837584 1_555
F4 K15 2.912518 1_555
F5 Sb21 1.982286 1_555
F5 K39 2.715312 1_555
F5 K31 3.023641 1_555
F6 Sb0 2.090933 1_555
F6 K19 2.638142 1_465
F6 K32 2.772880 1_565
F6 K36 2.946406 1_455
F7 Sb4 2.115748 1_555
F7 K39 2.658294 1_655
F7 K31 2.921265 1_655
F7 K1 3.024367 1_555
F8 Sb2 2.084689 1_565
F8 K43 2.655438 1_655
F8 K36 2.784247 1_555
F8 K32 2.851258 1_665
F9 Sb15 2.148756 1_555
F9 K42 2.697002 1_556
F9 K18 2.881790 1_556
F9 K33 3.050666 1_556
F10 Sb13 2.092785 1_555
F10 K28 2.619930 1_555
F10 K21 2.837879 1_555
F10 K20 2.959355 1_555
F11 Sb16 2.095252 1_555
F11 K12 2.655573 1_555
F11 K26 2.855134 1_555
F11 K40 3.009612 1_555
F12 Sb6 2.134009 1_555
F12 K38 2.590512 1_555
F12 K31 2.972137 1_555
F12 K5 3.174750 1_555
F13 Sb5 2.147575 1_555
F13 K23 2.644667 1_455
F13 K37 2.734908 1_455
F13 K26 2.902532 1_555
F14 Sb8 2.112040 1_555
F14 K6 2.614484 1_555
F14 K9 2.915803 1_555
F14 K15 2.924801 1_555
F15 Sb4 2.114232 1_555
F15 K39 2.586422 1_555
F15 K1 2.788416 1_555
F15 K31 3.162842 1_555
F16 Sb12 2.116648 1_555
F16 K4 2.600228 1_655
F16 K33 2.926168 1_555
F16 K10 3.195394 1_654
F17 Sb21 2.115748 1_555
F17 K38 2.658294 1_555
F17 K1 2.921265 1_555
F17 K31 3.024367 1_555
F18 Sb19 2.147179 1_555
F18 K12 2.605649 1_555
F18 K40 2.810886 1_555
F18 K24 3.162664 1_555
F19 Sb16 1.995051 1_555
F19 K23 2.909616 1_555
F19 K26 2.991982 1_655
F19 K37 2.994433 1_555
F19 K40 3.098480 1_555
F20 Sb20 2.152483 1_555
F20 K11 2.711374 1_555
F20 K41 2.766937 1_555
F20 K8 2.978478 1_555
F21 Sb1 2.025022 1_555
F21 K18 2.594070 1_555
F21 K13 2.862770 1_555
F21 K25 3.054616 1_555
F21 K42 3.251022 1_555
F22 Sb9 2.105450 1_555
F22 K25 2.538656 1_655
F22 K13 2.873917 1_555
F22 K18 3.080276 1_655
F23 Sb1 2.101147 1_555
F23 K27 2.612414 1_554
F23 K42 2.648730 1_455
F24 Sb0 1.981713 1_555
F24 K43 2.786920 1_555
F24 K36 2.884087 1_555
F24 K24 2.947328 1_555
F25 Sb11 1.984475 1_555
F25 K14 2.706859 1_555
F25 K8 2.974943 1_555
F26 Sb5 2.087374 1_555
F26 K23 2.685154 1_555
F26 K37 2.749526 1_555
F26 K26 2.901861 1_555
F27 Sb1 2.328537 1_556
F27 K42 2.597550 1_556
F27 K27 2.832304 1_555
F28 Sb17 1.985661 1_555
F28 K16 2.562777 1_555
F28 K10 3.134363 1_555
F28 K2 3.152515 1_455
F29 Sb8 2.125083 1_545
F29 K22 2.643378 1_455
F29 K21 2.883231 1_555
F29 K9 2.906438 1_445
F30 Sb21 2.114232 1_555
F30 K38 2.586422 1_455
F30 K31 2.788416 1_555
F30 K1 3.162842 1_455
F31 Sb16 2.147038 1_555
F31 K12 2.642295 1_655
F31 K29 2.905221 1_555
F31 K40 2.927072 1_555
F32 Sb4 1.982286 1_555
F32 K38 2.715312 1_555
F32 K1 3.023641 1_555
F33 Sb19 2.128094 1_555
F33 K43 2.656267 1_555
F33 K36 2.978507 1_555
F33 K24 3.001206 1_555
F34 Sb14 2.025022 1_555
F34 K2 2.594070 1_555
F34 K7 2.862770 1_655
F34 K35 3.054616 1_555
F34 K16 3.251022 1_655
F35 Sb6 2.096528 1_555
F35 K19 2.606332 1_455
F35 K32 2.837584 1_555
F35 K5 2.912518 1_455
F36 Sb3 1.984475 1_555
F36 K12 2.706859 1_555
F36 K26 2.974943 1_555
F37 Sb15 2.116648 1_555
F37 K29 2.600228 1_555
F37 K10 2.926168 1_555
F37 K33 3.195394 1_556
F38 Sb7 2.134009 1_555
F38 K39 2.590512 1_655
F38 K1 2.972137 1_555
F38 K15 3.174750 1_655
F39 Sb2 2.125083 1_565
F39 K43 2.643378 1_555
F39 K36 2.883231 1_555
F39 K32 2.906438 1_565
F40 Sb17 2.134927 1_555
F40 K35 2.647902 1_455
F40 K7 2.717800 1_555
F40 K43 3.267878 1_555
F41 Sb3 2.119067 1_555
F41 K23 2.575812 1_555
F41 K26 2.816094 1_555
F42 Sb12 2.090589 1_555
F42 K4 2.606961 1_555
F42 K33 2.813539 1_555
F42 K10 2.868146 1_554
F43 Sb9 1.985661 1_555
F43 K42 2.562777 1_555
F43 K33 3.134363 1_555
F43 K18 3.152515 1_555
F44 Sb18 2.147179 1_555
F44 K14 2.605649 1_455
F44 K3 2.810886 1_555
F44 K20 3.162664 1_455
F45 Sb18 2.096044 1_555
F45 K22 2.611353 1_555
F45 K21 2.797073 1_555
F45 K20 2.992339 1_555
F46 Sb4 2.119441 1_555
F46 K34 2.616045 1_555
F46 K31 2.825847 1_555
F46 K5 2.961846 1_555
F47 Sb11 2.119067 1_555
F47 K17 2.575812 1_655
F47 K8 2.816094 1_555
F48 Sb2 2.160514 1_555
F48 K34 2.595943 1_555
F48 K5 2.892769 1_555
F48 K23 2.989945 1_555
F49 Sb15 1.995227 1_554
F49 K18 2.778094 1_555
F49 K4 2.930946 1_555
F49 K33 3.046190 1_555
F49 K10 3.220259 1_554
F50 Sb18 2.117168 1_555
F50 K14 2.665637 1_555
F50 K20 2.824583 1_555
F50 K3 2.907214 1_555
F51 Sb12 2.114339 1_555
F51 K16 2.751280 1_554
F51 K2 2.774356 1_554
F51 K10 2.837107 1_554
F52 Sb11 2.107070 1_555
F52 K28 2.599770 1_555
F52 K20 2.788115 1_555
F52 K3 3.076611 1_555
F53 Sb0 2.092785 1_555
F53 K0 2.619930 1_455
F53 K36 2.837879 1_455
F53 K24 2.959355 1_555
F54 Sb15 2.090589 1_555
F54 K29 2.606961 1_455
F54 K10 2.813539 1_555
F54 K33 2.868146 1_456
F55 Sb10 2.147575 1_555
F55 K17 2.644667 1_555
F55 K41 2.734908 1_555
F55 K8 2.902532 1_555
F56 Sb0 2.156176 1_555
F56 K0 2.613181 1_555
F56 K24 2.891723 1_555
F56 K39 2.925198 1_555
F57 Sb14 2.328537 1_454
F57 K16 2.597550 1_554
F57 K11 2.832304 1_455
F58 Sb13 2.139519 1_555
F58 K30 2.625018 1_645
F58 K21 2.991040 1_655
F58 K9 3.024665 1_545
F59 Sb10 2.098082 1_555
F59 K25 2.555721 1_665
F59 K13 2.922621 1_565
F59 K41 3.168984 1_655
F60 Sb18 1.993260 1_555
F60 K28 2.682941 1_555
F60 K20 3.006014 1_455
F60 K21 3.097227 1_555
F61 Sb8 2.160514 1_555
F61 K6 2.595943 1_455
F61 K15 2.892769 1_555
F61 K17 2.989945 1_555
F62 Sb3 2.118901 1_555
F62 K23 2.632040 1_455
F62 K40 2.881237 1_455
F62 K26 2.982882 1_555
F63 Sb19 1.993260 1_555
F63 K0 2.682941 1_555
F63 K24 3.006014 1_555
F63 K36 3.097227 1_555
F64 Sb2 1.993240 1_555
F64 K19 2.727845 1_555
F64 K5 2.921495 1_555
F64 K32 2.942015 1_555
F65 Sb10 2.175936 1_555
F65 K13 2.663719 1_565
F65 K25 2.697317 1_565
F65 K22 2.949284 1_565
F66 Sb21 2.119441 1_555
F66 K6 2.616045 1_455
F66 K1 2.825847 1_455
F66 K15 2.961846 1_555
F67 Sb19 2.117168 1_555
F67 K12 2.665637 1_655
F67 K24 2.824583 1_655
F67 K40 2.907214 1_555
F68 Sb6 1.990820 1_555
F68 K34 2.729709 1_555
F68 K5 2.889450 1_555
F68 K32 3.015196 1_555
F69 Sb12 2.148756 1_555
F69 K16 2.697002 1_654
F69 K2 2.881790 1_554
F69 K10 3.050666 1_654
F70 Sb3 2.107070 1_555
F70 K0 2.599770 1_455
F70 K24 2.788115 1_555
F70 K40 3.076611 1_455
F71 Sb17 2.113432 1_555
F71 K29 2.647548 1_555
F71 K2 2.709457 1_555
F71 K10 3.032316 1_555
F72 Sb20 2.147038 1_555
F72 K14 2.642295 1_555
F72 K4 2.905221 1_555
F72 K3 2.927072 1_555
F73 Sb14 2.186277 1_545
F73 K37 2.629549 1_555
F73 K7 2.769022 1_645
F74 Sb13 2.090933 1_555
F74 K30 2.638142 1_545
F74 K9 2.772880 1_545
F74 K21 2.946406 1_555
F75 Sb15 2.114339 1_555
F75 K42 2.751280 1_456
F75 K18 2.774356 1_556
F75 K33 2.837107 1_456
F76 Sb2 2.112040 1_555
F76 K34 2.614484 1_655
F76 K32 2.915803 1_655
F76 K5 2.924801 1_555
F77 Sb6 2.097765 1_555
F77 K38 2.659111 1_455
F77 K5 2.793428 1_455
F77 K31 2.833002 1_555
F78 Sb9 2.134927 1_555
F78 K25 2.647902 1_555
F78 K13 2.717800 1_555
F78 K22 3.267878 1_555
F79 Sb8 2.084689 1_545
F79 K22 2.655438 1_555
F79 K21 2.784247 1_555
F79 K9 2.851258 1_545
F80 Sb7 1.990820 1_555
F80 K6 2.729709 1_555
F80 K15 2.889450 1_655
F80 K9 3.015196 1_555
F81 Sb6 2.145665 1_555
F81 K19 2.656953 1_555
F81 K32 2.960856 1_555
F81 K30 3.064558 1_545
F82 Sb7 2.145665 1_555
F82 K30 2.656953 1_655
F82 K9 2.960856 1_555
F82 K19 3.064558 1_565
F83 Sb12 1.995227 1_556
F83 K2 2.778094 1_555
F83 K29 2.930946 1_555
F83 K10 3.046190 1_655
F83 K33 3.220259 1_556
F84 Sb13 1.981713 1_555
F84 K22 2.786920 1_555
F84 K21 2.884087 1_655
F84 K20 2.947328 1_555
F85 Sb16 2.152483 1_555
F85 K27 2.711374 1_655
F85 K37 2.766937 1_555
F85 K26 2.978478 1_655
F86 Sb11 2.111475 1_555
F86 K28 2.648385 1_655
F86 K3 2.797879 1_655
F86 K20 3.036692 1_555
F87 Sb14 2.101147 1_555
F87 K11 2.612414 1_556
F87 K16 2.648730 1_555
F88 Sb18 2.128094 1_555
F88 K22 2.656267 1_455
F88 K21 2.978507 1_555
F88 K20 3.001206 1_455
F89 Sb20 2.114315 1_555
F89 K11 2.651667 1_455
F89 K41 2.751653 1_555
F89 K8 2.977659 1_455
F90 Sb13 2.156176 1_555
F90 K28 2.613181 1_655
F90 K20 2.891723 1_555
F90 K38 2.925198 1_555
F91 Sb14 2.046877 1_555
F91 K7 2.503338 1_555
F92 Sb9 2.113432 1_555
F92 K4 2.647548 1_655
F92 K18 2.709457 1_655
F92 K33 3.032316 1_555
F93 Sb20 2.095252 1_555
F93 K14 2.655573 1_455
F93 K8 2.855134 1_455
F93 K3 3.009612 1_555
F94 Sb5 1.989541 1_555
F94 K27 2.771113 1_555
F94 K7 2.952965 1_545
F94 K37 2.957896 1_455
F95 Sb9 2.127486 1_555
F95 K4 2.619233 1_555
F95 K33 2.995930 1_555
F95 K18 3.102019 1_555
F95 K14 3.139263 1_555
F96 Sb5 2.098082 1_555
F96 K35 2.555721 1_545
F96 K7 2.922621 1_545
F96 K37 3.168984 1_555
F97 Sb20 1.995051 1_555
F97 K17 2.909616 1_555
F97 K8 2.991982 1_555
F97 K41 2.994433 1_555
F97 K3 3.098480 1_555
F98 Sb1 2.186277 1_565
F98 K41 2.629549 1_555
F98 K13 2.769022 1_565
F99 Sb19 2.096044 1_555
F99 K43 2.611353 1_655
F99 K36 2.797073 1_555
F99 K24 2.992339 1_655
F100 Sb8 1.993240 1_555
F100 K30 2.727845 1_555
F100 K15 2.921495 1_555
F100 K9 2.942015 1_455
F101 Sb0 2.139519 1_555
F101 K19 2.625018 1_565
F101 K36 2.991040 1_555
F101 K32 3.024665 1_565
F102 Sb4 2.118273 1_555
F102 K34 2.585124 1_655
F102 K5 2.837957 1_555
F102 K31 3.098546 1_655
F103 Sb10 2.087374 1_555
F103 K17 2.685154 1_655
F103 K41 2.749526 1_655
F103 K8 2.901861 1_555
F104 Sb16 2.114315 1_555
F104 K27 2.651667 1_555
F104 K37 2.751653 1_555
F104 K26 2.977659 1_555
F105 Sb1 2.046877 1_555
F105 K13 2.503338 1_455
F106 Sb11 2.118901 1_555
F106 K17 2.632040 1_555
F106 K3 2.881237 1_555
F106 K8 2.982882 1_555
F107 Sb5 2.175936 1_555
F107 K7 2.663719 1_545
F107 K35 2.697317 1_445
F107 K43 2.949284 1_545
F108 Sb7 2.097765 1_555
F108 K39 2.659111 1_555
F108 K15 2.793428 1_555
F108 K1 2.833002 1_555
F109 Sb17 2.105450 1_555
F109 K35 2.538656 1_555
F109 K7 2.873917 1_555
F109 K2 3.080276 1_555
