# generated using pymatgen
data_CaLaMnSnO6
_symmetry_space_group_name_H-M   'P 1'
_cell_length_a   5.83265400
_cell_length_b   5.61198200
_cell_length_c   9.61164311
_cell_angle_alpha   54.69781061
_cell_angle_beta   90.00000000
_cell_angle_gamma   90.00000000
_symmetry_Int_Tables_number   1
_chemical_formula_structural   CaLaMnSnO6
_chemical_formula_sum   'Ca2 La2 Mn2 Sn2 O12'
_cell_volume   256.76259181
_cell_formula_units_Z   2
loop_
 _symmetry_equiv_pos_site_id
 _symmetry_equiv_pos_as_xyz
  1  'x, y, z'
loop_
 _atom_site_type_symbol
 _atom_site_label
 _atom_site_symmetry_multiplicity
 _atom_site_fract_x
 _atom_site_fract_y
 _atom_site_fract_z
 _atom_site_occupancy
  Ca  Ca0  1  0.80642700  0.23363900  0.25119000  1
  Ca  Ca1  1  0.19357300  0.23363900  0.75119000  1
  La  La0  1  0.30008500  0.76435000  0.24904900  1
  La  La1  1  0.69991500  0.76435000  0.74904900  1
  Mn  Mn0  1  0.24847800  0.50175100  0.99881000  1
  Mn  Mn1  1  0.75152200  0.50175100  0.49881000  1
  Sn  Sn0  1  0.75205400  0.99991000  0.00143700  1
  Sn  Sn1  1  0.24794600  0.99991000  0.50143700  1
  O  O0  1  0.78162700  0.35245400  0.74113400  1
  O  O1  1  0.04856300  0.16695200  0.04680000  1
  O  O2  1  0.04959500  0.76764300  0.44660700  1
  O  O3  1  0.55050800  0.83782600  0.45174300  1
  O  O4  1  0.55448100  0.23538000  0.05453000  1
  O  O5  1  0.27902400  0.64009500  0.75870000  1
  O  O6  1  0.21837300  0.35245400  0.24113400  1
  O  O7  1  0.95040500  0.76764300  0.94660700  1
  O  O8  1  0.95143700  0.16695200  0.54680000  1
  O  O9  1  0.44949200  0.83782600  0.95174300  1
  O  O10  1  0.44551900  0.23538000  0.55453000  1
  O  O11  1  0.72097600  0.64009500  0.25870000  1
loop_
_geom_bond_atom_site_label_1
_geom_bond_atom_site_label_2
_geom_bond_distance
_geom_bond_site_symmetry_2
Ca0 O11 2.376340 1_555
Ca0 O4 2.389806 1_555
Ca0 O3 2.434993 1_545
Ca0 O6 2.480446 1_655
Ca0 O2 2.588713 1_645
Ca0 O1 2.616054 1_655
Ca0 O8 2.774781 1_555
Ca0 O7 2.848974 1_554
Ca1 O5 2.376340 1_555
Ca1 O10 2.389806 1_555
Ca1 O9 2.434993 1_545
Ca1 O0 2.480446 1_455
Ca1 O7 2.588713 1_445
Ca1 O8 2.616054 1_455
Ca1 O1 2.774781 1_556
Ca1 O2 2.848974 1_555
La0 O6 2.404050 1_555
La0 O2 2.404400 1_555
La0 O1 2.441242 1_565
La0 O11 2.539032 1_555
La0 O4 2.640595 1_565
La0 O3 2.650948 1_555
La0 O9 2.780905 1_554
La0 O10 2.842367 1_555
La1 O0 2.404050 1_555
La1 O7 2.404400 1_555
La1 O8 2.441242 1_565
La1 O5 2.539032 1_555
La1 O10 2.640595 1_565
La1 O9 2.650948 1_555
La1 O3 2.780905 1_555
La1 O4 2.842367 1_556
Mn0 O5 1.972256 1_555
Mn0 O6 1.975404 1_556
Mn0 O1 2.025080 1_556
Mn0 O9 2.037232 1_555
Mn0 O7 2.153044 1_455
Mn0 O4 2.186709 1_556
Mn1 O11 1.972256 1_555
Mn1 O0 1.975404 1_555
Mn1 O8 2.025080 1_555
Mn1 O3 2.037232 1_555
Mn1 O2 2.153044 1_655
Mn1 O10 2.186709 1_555
O0 Sn0 2.117235 1_546
O1 Sn0 2.128907 1_445
O2 Sn1 2.027114 1_555
O3 Sn1 2.161479 1_555
O4 Sn0 2.028306 1_545
O5 Sn1 2.110393 1_555
O6 Sn1 2.117235 1_545
O7 Sn0 2.027114 1_556
O8 Sn1 2.128907 1_645
O9 Sn0 2.161479 1_556
O10 Sn1 2.028306 1_545
O11 Sn0 2.110393 1_555
