# generated using pymatgen
data_Ce10S19
_symmetry_space_group_name_H-M   'P 1'
_cell_length_a   8.93011800
_cell_length_b   8.93011800
_cell_length_c   15.99080900
_cell_angle_alpha   90.00000000
_cell_angle_beta   90.00000000
_cell_angle_gamma   90.00000000
_symmetry_Int_Tables_number   1
_chemical_formula_structural   Ce10S19
_chemical_formula_sum   'Ce20 S38'
_cell_volume   1275.21916516
_cell_formula_units_Z   2
loop_
 _symmetry_equiv_pos_site_id
 _symmetry_equiv_pos_as_xyz
  1  'x, y, z'
loop_
 _atom_site_type_symbol
 _atom_site_label
 _atom_site_symmetry_multiplicity
 _atom_site_fract_x
 _atom_site_fract_y
 _atom_site_fract_z
 _atom_site_occupancy
  Ce  Ce0  1  0.75000000  0.25000000  0.38684500  1
  Ce  Ce1  1  0.84865400  0.95917200  0.62204000  1
  Ce  Ce2  1  0.65134600  0.54082800  0.62204000  1
  Ce  Ce3  1  0.44458400  0.14641300  0.60184200  1
  Ce  Ce4  1  0.45917200  0.15134600  0.12204000  1
  Ce  Ce5  1  0.25000000  0.75000000  0.11315500  1
  Ce  Ce6  1  0.04082800  0.34865400  0.12204000  1
  Ce  Ce7  1  0.25000000  0.75000000  0.61315500  1
  Ce  Ce8  1  0.15134600  0.04082800  0.37796000  1
  Ce  Ce9  1  0.14641300  0.05541600  0.89815800  1
  Ce  Ce10  1  0.55541600  0.85358700  0.39815800  1
  Ce  Ce11  1  0.54082800  0.84865400  0.87796000  1
  Ce  Ce12  1  0.94458400  0.64641300  0.39815800  1
  Ce  Ce13  1  0.75000000  0.25000000  0.88684500  1
  Ce  Ce14  1  0.05541600  0.35358700  0.60184200  1
  Ce  Ce15  1  0.85358700  0.94458400  0.10184200  1
  Ce  Ce16  1  0.95917200  0.65134600  0.87796000  1
  Ce  Ce17  1  0.34865400  0.45917200  0.37796000  1
  Ce  Ce18  1  0.35358700  0.44458400  0.89815800  1
  Ce  Ce19  1  0.64641300  0.55541600  0.10184200  1
  S  S0  1  0.04868200  0.34844900  0.42449500  1
  S  S1  1  0.55360600  0.85203800  0.06278200  1
  S  S2  1  0.35203800  0.44639400  0.56278200  1
  S  S3  1  0.19424100  0.52841800  0.74918300  1
  S  S4  1  0.47158200  0.69424100  0.24918300  1
  S  S5  1  0.30575900  0.97158200  0.74918300  1
  S  S6  1  0.80575900  0.47158200  0.25081700  1
  S  S7  1  0.75000000  0.25000000  0.06734400  1
  S  S8  1  0.45131800  0.15155100  0.42449500  1
  S  S9  1  0.14796200  0.05360600  0.56278200  1
  S  S10  1  0.64796200  0.55360600  0.43721800  1
  S  S11  1  0.61363500  0.07741400  0.75006900  1
  S  S12  1  0.07741400  0.88636500  0.74993100  1
  S  S13  1  0.42258600  0.61363500  0.74993100  1
  S  S14  1  0.02841800  0.80575900  0.24918300  1
  S  S15  1  0.57741400  0.38636500  0.25006900  1
  S  S16  1  0.95131800  0.65155100  0.57550500  1
  S  S17  1  0.88636500  0.42258600  0.75006900  1
  S  S18  1  0.69424100  0.02841800  0.25081700  1
  S  S19  1  0.25000000  0.75000000  0.43265600  1
  S  S20  1  0.34844900  0.45131800  0.07550500  1
  S  S21  1  0.38636500  0.92258600  0.24993100  1
  S  S22  1  0.75000000  0.75000000  0.75000000  1
  S  S23  1  0.54868200  0.84844900  0.57550500  1
  S  S24  1  0.52841800  0.30575900  0.75081700  1
  S  S25  1  0.92258600  0.11363500  0.25006900  1
  S  S26  1  0.65155100  0.54868200  0.92449500  1
  S  S27  1  0.44639400  0.14796200  0.93721800  1
  S  S28  1  0.94639400  0.64796200  0.06278200  1
  S  S29  1  0.05360600  0.35203800  0.93721800  1
  S  S30  1  0.84844900  0.95131800  0.92449500  1
  S  S31  1  0.25000000  0.25000000  0.25000000  1
  S  S32  1  0.97158200  0.19424100  0.75081700  1
  S  S33  1  0.85203800  0.94639400  0.43721800  1
  S  S34  1  0.11363500  0.57741400  0.24993100  1
  S  S35  1  0.15155100  0.04868200  0.07550500  1
  S  S36  1  0.25000000  0.75000000  0.93265600  1
  S  S37  1  0.75000000  0.25000000  0.56734400  1
loop_
_geom_bond_atom_site_label_1
_geom_bond_atom_site_label_2
_geom_bond_distance
_geom_bond_site_symmetry_2
Ce0 S0 2.872229 1_655
Ce0 S8 2.872229 1_555
Ce0 S37 2.886325 1_555
Ce0 S25 2.939716 1_555
Ce0 S15 2.939716 1_555
Ce0 S10 2.971524 1_555
Ce0 S33 2.971524 1_545
Ce0 S6 2.982430 1_555
Ce0 S18 2.982430 1_555
Ce1 S37 2.878577 1_565
Ce1 S22 2.907263 1_555
Ce1 S23 2.950812 1_555
Ce1 S33 2.957810 1_555
Ce1 S9 2.958587 1_665
Ce1 S12 2.962825 1_655
Ce1 S16 2.990112 1_555
Ce1 S11 3.116261 1_565
Ce1 S32 3.138821 1_565
Ce2 S37 2.878577 1_555
Ce2 S22 2.907263 1_555
Ce2 S16 2.950812 1_555
Ce2 S10 2.957810 1_555
Ce2 S2 2.958587 1_555
Ce2 S13 2.962825 1_555
Ce2 S23 2.990112 1_555
Ce2 S17 3.116261 1_555
Ce2 S24 3.138821 1_555
Ce3 S8 2.836931 1_555
Ce3 S9 2.844909 1_555
Ce3 S23 2.849856 1_545
Ce3 S2 2.872188 1_555
Ce3 S24 2.874085 1_555
Ce3 S11 2.876955 1_555
Ce3 S37 2.932361 1_555
Ce3 S5 3.086368 1_545
Ce4 S7 2.878577 1_555
Ce4 S31 2.907263 1_555
Ce4 S20 2.950812 1_555
Ce4 S27 2.957810 1_554
Ce4 S1 2.958587 1_545
Ce4 S21 2.962825 1_545
Ce4 S35 2.990112 1_555
Ce4 S15 3.116261 1_555
Ce4 S18 3.138821 1_555
Ce5 S35 2.872229 1_565
Ce5 S20 2.872229 1_555
Ce5 S36 2.886325 1_554
Ce5 S21 2.939716 1_555
Ce5 S34 2.939716 1_555
Ce5 S1 2.971524 1_555
Ce5 S28 2.971524 1_455
Ce5 S14 2.982430 1_555
Ce5 S4 2.982430 1_555
Ce6 S7 2.878577 1_455
Ce6 S31 2.907263 1_555
Ce6 S35 2.950812 1_555
Ce6 S29 2.957810 1_554
Ce6 S28 2.958587 1_455
Ce6 S34 2.962825 1_555
Ce6 S20 2.990112 1_555
Ce6 S25 3.116261 1_455
Ce6 S6 3.138821 1_455
Ce7 S23 2.872229 1_555
Ce7 S16 2.872229 1_455
Ce7 S19 2.886325 1_555
Ce7 S13 2.939716 1_555
Ce7 S12 2.939716 1_555
Ce7 S9 2.971524 1_565
Ce7 S2 2.971524 1_555
Ce7 S5 2.982430 1_555
Ce7 S3 2.982430 1_555
Ce8 S19 2.878577 1_545
Ce8 S31 2.907263 1_555
Ce8 S8 2.950812 1_555
Ce8 S9 2.957810 1_555
Ce8 S33 2.958587 1_445
Ce8 S25 2.962825 1_455
Ce8 S0 2.990112 1_555
Ce8 S21 3.116261 1_545
Ce8 S14 3.138821 1_545
Ce9 S35 2.836931 1_556
Ce9 S29 2.844909 1_555
Ce9 S30 2.849856 1_445
Ce9 S27 2.872188 1_555
Ce9 S5 2.874085 1_545
Ce9 S12 2.876955 1_545
Ce9 S36 2.932361 1_545
Ce9 S32 3.086368 1_455
Ce10 S23 2.836931 1_555
Ce10 S33 2.844909 1_555
Ce10 S8 2.849856 1_565
Ce10 S10 2.872188 1_555
Ce10 S4 2.874085 1_555
Ce10 S21 2.876955 1_555
Ce10 S19 2.932361 1_555
Ce10 S18 3.086368 1_565
Ce11 S36 2.878577 1_555
Ce11 S22 2.907263 1_555
Ce11 S26 2.950812 1_555
Ce11 S1 2.957810 1_556
Ce11 S27 2.958587 1_565
Ce11 S11 2.962825 1_565
Ce11 S30 2.990112 1_555
Ce11 S13 3.116261 1_555
Ce11 S5 3.138821 1_555
Ce12 S16 2.836931 1_555
Ce12 S10 2.844909 1_555
Ce12 S0 2.849856 1_655
Ce12 S33 2.872188 1_555
Ce12 S14 2.874085 1_655
Ce12 S34 2.876955 1_655
Ce12 S19 2.932361 1_655
Ce12 S6 3.086368 1_555
Ce13 S30 2.872229 1_545
Ce13 S26 2.872229 1_555
Ce13 S7 2.886325 1_556
Ce13 S17 2.939716 1_555
Ce13 S11 2.939716 1_555
Ce13 S29 2.971524 1_655
Ce13 S27 2.971524 1_555
Ce13 S32 2.982430 1_555
Ce13 S24 2.982430 1_555
Ce14 S0 2.836931 1_555
Ce14 S2 2.844909 1_555
Ce14 S16 2.849856 1_455
Ce14 S9 2.872188 1_555
Ce14 S32 2.874085 1_455
Ce14 S17 2.876955 1_455
Ce14 S37 2.932361 1_455
Ce14 S3 3.086368 1_555
Ce15 S30 2.836931 1_554
Ce15 S28 2.844909 1_555
Ce15 S35 2.849856 1_665
Ce15 S1 2.872188 1_555
Ce15 S18 2.874085 1_565
Ce15 S25 2.876955 1_565
Ce15 S7 2.932361 1_565
Ce15 S14 3.086368 1_655
Ce16 S36 2.878577 1_655
Ce16 S22 2.907263 1_555
Ce16 S30 2.950812 1_555
Ce16 S28 2.957810 1_556
Ce16 S29 2.958587 1_655
Ce16 S17 2.962825 1_555
Ce16 S26 2.990112 1_555
Ce16 S12 3.116261 1_655
Ce16 S3 3.138821 1_655
Ce17 S19 2.878577 1_555
Ce17 S31 2.907263 1_555
Ce17 S0 2.950812 1_555
Ce17 S2 2.957810 1_555
Ce17 S10 2.958587 1_555
Ce17 S15 2.962825 1_555
Ce17 S8 2.990112 1_555
Ce17 S34 3.116261 1_555
Ce17 S4 3.138821 1_555
Ce18 S20 2.836931 1_556
Ce18 S27 2.844909 1_555
Ce18 S26 2.849856 1_555
Ce18 S29 2.872188 1_555
Ce18 S3 2.874085 1_555
Ce18 S13 2.876955 1_555
Ce18 S36 2.932361 1_555
Ce18 S24 3.086368 1_555
Ce19 S26 2.836931 1_554
Ce19 S1 2.844909 1_555
Ce19 S20 2.849856 1_555
Ce19 S28 2.872188 1_555
Ce19 S6 2.874085 1_555
Ce19 S15 2.876955 1_555
Ce19 S7 2.932361 1_555
Ce19 S4 3.086368 1_555
S11 S24 2.176553 1_555
S12 S5 2.176553 1_555
S13 S3 2.176553 1_555
S14 S34 2.176553 1_555
S15 S6 2.176553 1_555
S17 S32 2.176553 1_555
S18 S25 2.176553 1_555
S21 S4 2.176553 1_555
