# generated using pymatgen
data_Ca6Ga6Si3(HO12)2
_symmetry_space_group_name_H-M   'P 1'
_cell_length_a   7.79294800
_cell_length_b   7.97358576
_cell_length_c   19.56756403
_cell_angle_alpha   97.57856990
_cell_angle_beta   97.52533582
_cell_angle_gamma   109.65262532
_symmetry_Int_Tables_number   1
_chemical_formula_structural   Ca6Ga6Si3(HO12)2
_chemical_formula_sum   'Ca12 Ga12 Si6 H4 O48'
_cell_volume   1114.85877859
_cell_formula_units_Z   2
loop_
 _symmetry_equiv_pos_site_id
 _symmetry_equiv_pos_as_xyz
  1  'x, y, z'
loop_
 _atom_site_type_symbol
 _atom_site_label
 _atom_site_symmetry_multiplicity
 _atom_site_fract_x
 _atom_site_fract_y
 _atom_site_fract_z
 _atom_site_occupancy
  Ca  Ca0  1  0.90132900  0.90186100  0.09612400  1
  Ca  Ca1  1  0.48101700  0.47406900  0.23891000  1
  Ca  Ca2  1  0.67395800  0.97774500  0.33367200  1
  Ca  Ca3  1  0.14535800  0.13261600  0.57327700  1
  Ca  Ca4  1  0.33659300  0.64368500  0.66851400  1
  Ca  Ca5  1  0.95436900  0.65236100  0.33163200  1
  Ca  Ca6  1  0.57372200  0.56041700  0.42904800  1
  Ca  Ca7  1  0.80049700  0.80180100  0.90207600  1
  Ca  Ca8  1  0.62266600  0.32225200  0.66820500  1
  Ca  Ca9  1  0.23610100  0.22752800  0.76346400  1
  Ca  Ca10  1  0.99670100  0.28445700  0.99983900  1
  Ca  Ca11  1  0.28594200  0.00174900  0.99947500  1
  Ga  Ga0  1  0.41622300  0.67182300  0.08186300  1
  Ga  Ga1  1  0.00737700  0.25557000  0.24687200  1
  Ga  Ga2  1  0.66747400  0.42066400  0.08654900  1
  Ga  Ga3  1  0.74351000  0.25076600  0.49884000  1
  Ga  Ga4  1  0.41004000  0.91130100  0.83459800  1
  Ga  Ga5  1  0.25139100  0.99879200  0.25017600  1
  Ga  Ga6  1  0.75375400  0.99983300  0.74946900  1
  Ga  Ga7  1  0.58238700  0.08358400  0.16571900  1
  Ga  Ga8  1  0.91179400  0.67117900  0.58600400  1
  Ga  Ga9  1  0.25898300  0.75030800  0.50009200  1
  Ga  Ga10  1  0.57876100  0.33300300  0.91796600  1
  Ga  Ga11  1  0.92454000  0.42329700  0.83299800  1
  Si  Si0  1  0.08702400  0.58575500  0.16735200  1
  Si  Si1  1  0.08460100  0.32805500  0.41714100  1
  Si  Si2  1  0.67041200  0.91944100  0.58161200  1
  Si  Si3  1  0.31872700  0.07723400  0.41567700  1
  Si  Si4  1  0.33292000  0.58077000  0.91632300  1
  Si  Si5  1  0.99626500  0.74895300  0.74995800  1
  H  H0  1  0.65751300  0.30624000  0.32898700  1
  H  H1  1  0.23235900  0.23044900  0.11486800  1
  H  H2  1  0.32805600  0.97399400  0.66463200  1
  H  H3  1  0.98676500  0.65313400  0.99327500  1
  O  O0  1  0.73530100  0.74948300  0.27577700  1
  O  O1  1  0.44466000  0.91063400  0.08799700  1
  O  O2  1  0.08810900  0.79508700  0.18584900  1
  O  O3  1  0.92704700  0.47284100  0.09754300  1
  O  O4  1  0.67465300  0.43415700  0.33709300  1
  O  O5  1  0.28552200  0.57272200  0.15168300  1
  O  O6  1  0.04308100  0.49684000  0.23851500  1
  O  O7  1  0.64074300  0.64310500  0.09609300  1
  O  O8  1  0.74400600  0.48117800  0.51984300  1
  O  O9  1  0.95546900  0.23862700  0.33927700  1
  O  O10  1  0.54497000  0.13380800  0.42255200  1
  O  O11  1  0.33661700  0.09906900  0.66649200  1
  O  O12  1  0.96921700  0.24464500  0.47729900  1
  O  O13  1  0.14690500  0.14623200  0.07461600  1
  O  O14  1  0.56992800  0.30821200  0.15663000  1
  O  O15  1  0.70269800  0.13217900  0.57424800  1
  O  O16  1  0.27633500  0.27301200  0.42644000  1
  O  O17  1  0.22400500  0.21655500  0.24208500  1
  O  O18  1  0.49404300  0.03666000  0.24826000  1
  O  O19  1  0.61024700  0.89051100  0.65772900  1
  O  O20  1  0.21909100  0.78724000  0.75520300  1
  O  O21  1  0.20800800  0.94729000  0.34006300  1
  O  O22  1  0.82216400  0.08359400  0.18299000  1
  O  O23  1  0.62423600  0.88815800  0.81216700  1
  O  O24  1  0.79139000  0.80516100  0.39620900  1
  O  O25  1  0.24082000  0.96767100  0.47768100  1
  O  O26  1  0.97220200  0.94798000  0.75490000  1
  O  O27  1  0.35860700  0.79229400  0.90967500  1
  O  O28  1  0.86429400  0.88365100  0.57465600  1
  O  O29  1  0.15656500  0.72155500  0.57832200  1
  O  O30  1  0.27127400  0.54614400  0.99239800  1
  O  O31  1  0.99998900  0.78055900  0.00104100  1
  O  O32  1  0.88098300  0.61519500  0.67387100  1
  O  O33  1  0.50714200  0.77424100  0.51776600  1
  O  O34  1  0.17085600  0.43679200  0.85149700  1
  O  O35  1  0.48872400  0.69143300  0.33764700  1
  O  O36  1  0.39180100  0.41174100  0.60475400  1
  O  O37  1  0.45300700  0.46818300  0.72540800  1
  O  O38  1  0.15104700  0.55094600  0.42556500  1
  O  O39  1  0.91189500  0.64367800  0.81165800  1
  O  O40  1  0.52655500  0.54519200  0.90824300  1
  O  O41  1  0.82840800  0.39191400  0.91293300  1
  O  O42  1  0.55233300  0.26254100  0.00265800  1
  O  O43  1  0.15094000  0.35223600  0.66435400  1
  O  O44  1  0.06276100  0.06854400  0.92421700  1
  O  O45  1  0.81088900  0.24510000  0.75347200  1
  O  O46  1  0.41376900  0.14532800  0.84834400  1
  O  O47  1  0.78134800  0.99717300  0.99797000  1
loop_
_geom_bond_atom_site_label_1
_geom_bond_atom_site_label_2
_geom_bond_distance
_geom_bond_site_symmetry_2
Ca0 O31 2.321308 1_555
Ca0 O47 2.352284 1_554
Ca0 O13 2.356976 1_665
Ca0 O7 2.358357 1_555
Ca0 O22 2.365556 1_565
Ca0 O2 2.546456 1_655
Ca1 O14 2.273345 1_555
Ca1 O17 2.351911 1_555
Ca1 O0 2.355929 1_555
Ca1 O35 2.399294 1_555
Ca1 O4 2.407134 1_555
Ca1 O5 2.516372 1_555
Ca2 O0 2.237805 1_555
Ca2 O18 2.239659 1_565
Ca2 O35 2.271826 1_555
Ca2 O24 2.286161 1_555
Ca2 O9 2.441134 1_565
Ca2 O10 2.512373 1_565
Ca3 O11 2.303210 1_555
Ca3 O43 2.312962 1_555
Ca3 O36 2.339802 1_555
Ca3 O28 2.417426 1_445
Ca3 O25 2.481119 1_545
Ca3 O12 2.607920 1_455
Ca4 O37 2.240757 1_555
Ca4 O43 2.271131 1_555
Ca4 O36 2.286750 1_555
Ca4 O20 2.371881 1_555
Ca4 O29 2.386394 1_555
Ca4 O19 2.422829 1_555
Ca5 O0 2.309225 1_555
Ca5 O4 2.312828 1_555
Ca5 O6 2.376179 1_655
Ca5 O24 2.397788 1_555
Ca5 O21 2.479931 1_655
Ca5 O38 2.620931 1_655
Ca6 O4 2.301156 1_555
Ca6 O35 2.318786 1_555
Ca6 O24 2.342698 1_555
Ca6 O8 2.357778 1_555
Ca6 O33 2.497993 1_555
Ca6 O16 2.644053 1_555
Ca7 O47 2.329948 1_555
Ca7 O44 2.343000 1_665
Ca7 O31 2.381322 1_556
Ca7 O23 2.403911 1_555
Ca7 O40 2.439881 1_555
Ca7 O39 2.454318 1_555
Ca8 O11 2.330999 1_555
Ca8 O37 2.331049 1_555
Ca8 O45 2.355934 1_555
Ca8 O36 2.408236 1_555
Ca8 O32 2.496217 1_555
Ca8 O15 2.503439 1_555
Ca9 O46 2.323869 1_555
Ca9 O37 2.370392 1_555
Ca9 O11 2.383190 1_555
Ca9 O43 2.409499 1_555
Ca9 O26 2.440030 1_445
Ca9 O34 2.460067 1_555
Ca10 O47 2.332608 1_545
Ca10 O44 2.354202 1_655
Ca10 O13 2.360163 1_656
Ca10 O41 2.429404 1_555
Ca10 O30 2.472267 1_655
Ca10 O3 2.503756 1_556
Ca11 O1 2.330938 1_546
Ca11 O31 2.337924 1_446
Ca11 O13 2.339479 1_556
Ca11 O44 2.374087 1_555
Ca11 O42 2.380322 1_556
Ca11 O27 2.514011 1_545
Ga0 O1 1.827109 1_555
Ga0 O7 1.830306 1_555
Ga0 O30 1.898087 1_554
Ga0 O5 1.906892 1_555
Ga1 O22 1.808364 1_455
Ga1 O17 1.828237 1_555
Ga1 O6 1.881481 1_555
Ga1 O9 1.915858 1_455
Ga2 O7 1.842676 1_555
Ga2 O42 1.843026 1_555
Ga2 O14 1.844245 1_555
Ga2 O3 1.899363 1_555
Ga3 O8 1.827540 1_555
Ga3 O15 1.860418 1_555
Ga3 O12 1.876264 1_555
Ga3 O10 1.883939 1_555
Ga4 O46 1.839664 1_565
Ga4 O23 1.841391 1_555
Ga4 O27 1.866915 1_555
Ga4 O20 1.898792 1_555
Ga5 O18 1.818203 1_565
Ga5 O17 1.843488 1_565
Ga5 O2 1.868886 1_555
Ga5 O21 1.905111 1_555
Ga6 O23 1.823393 1_555
Ga6 O45 1.842210 1_565
Ga6 O26 1.875601 1_555
Ga6 O19 1.907541 1_555
Ga7 O1 1.841277 1_545
Ga7 O22 1.854792 1_555
Ga7 O14 1.856215 1_555
Ga7 O18 1.870825 1_555
Ga8 O8 1.840584 1_555
Ga8 O29 1.843396 1_655
Ga8 O32 1.857833 1_555
Ga8 O28 1.885747 1_555
Ga9 O29 1.822732 1_555
Ga9 O33 1.858798 1_555
Ga9 O38 1.878556 1_555
Ga9 O25 1.888233 1_555
Ga10 O42 1.833467 1_556
Ga10 O46 1.859504 1_555
Ga10 O41 1.860903 1_555
Ga10 O40 1.895229 1_555
Ga11 O41 1.831509 1_555
Ga11 O45 1.853148 1_555
Ga11 O34 1.869758 1_655
Ga11 O39 1.889753 1_555
H0 O4 0.971315 1_555
H1 O13 0.968029 1_555
H2 O11 0.972323 1_565
H3 O31 0.975080 1_556
O2 Si0 1.657532 1_555
O3 Si0 1.644788 1_655
O5 Si0 1.649730 1_555
O6 Si0 1.667612 1_555
O9 Si1 1.634531 1_655
O10 Si3 1.648335 1_555
O12 Si1 1.648643 1_655
O15 Si2 1.657813 1_545
O16 Si1 1.687968 1_555
O16 Si3 1.693742 1_555
O19 Si2 1.640798 1_555
O20 Si5 1.645462 1_455
O21 Si3 1.633124 1_565
O25 Si3 1.649112 1_565
O26 Si5 1.651482 1_555
O27 Si4 1.655061 1_555
O28 Si2 1.648170 1_555
O30 Si4 1.652107 1_555
O32 Si5 1.657574 1_555
O33 Si2 1.652683 1_555
O34 Si4 1.656225 1_555
O38 Si1 1.653858 1_555
O39 Si5 1.642724 1_555
O40 Si4 1.649581 1_555
