# generated using pymatgen
data_Te7WCl5O
_symmetry_space_group_name_H-M   'P 1'
_cell_length_a   7.78057200
_cell_length_b   8.36184200
_cell_length_c   26.85154700
_cell_angle_alpha   90.00000000
_cell_angle_beta   90.00000000
_cell_angle_gamma   90.00000000
_symmetry_Int_Tables_number   1
_chemical_formula_structural   Te7WCl5O
_chemical_formula_sum   'Te28 W4 Cl20 O4'
_cell_volume   1746.95933143
_cell_formula_units_Z   4
loop_
 _symmetry_equiv_pos_site_id
 _symmetry_equiv_pos_as_xyz
  1  'x, y, z'
loop_
 _atom_site_type_symbol
 _atom_site_label
 _atom_site_symmetry_multiplicity
 _atom_site_fract_x
 _atom_site_fract_y
 _atom_site_fract_z
 _atom_site_occupancy
  Te  Te0  1  0.95713300  0.27337200  0.06882700  1
  Te  Te1  1  0.91215200  0.78135100  0.58436500  1
  Te  Te2  1  0.41215200  0.78135100  0.91563500  1
  Te  Te3  1  0.08784800  0.21864900  0.41563500  1
  Te  Te4  1  0.04286700  0.27337200  0.56882700  1
  Te  Te5  1  0.58962700  0.06043000  0.36003700  1
  Te  Te6  1  0.54286700  0.72662800  0.56882700  1
  Te  Te7  1  0.54286700  0.27337200  0.93117300  1
  Te  Te8  1  0.08962700  0.06043000  0.13996300  1
  Te  Te9  1  0.91215200  0.21864900  0.91563500  1
  Te  Te10  1  0.91037300  0.93957000  0.86003700  1
  Te  Te11  1  0.45713300  0.27337200  0.43117300  1
  Te  Te12  1  0.95713300  0.72662800  0.43117300  1
  Te  Te13  1  0.58784800  0.78135100  0.41563500  1
  Te  Te14  1  0.58784800  0.21864900  0.08436500  1
  Te  Te15  1  0.41037300  0.93957000  0.63996300  1
  Te  Te16  1  0.41037300  0.06043000  0.86003700  1
  Te  Te17  1  0.04286700  0.72662800  0.93117300  1
  Te  Te18  1  0.45713300  0.72662800  0.06882700  1
  Te  Te19  1  0.50000000  0.00000000  0.50000000  1
  Te  Te20  1  0.58962700  0.93957000  0.13996300  1
  Te  Te21  1  0.08962700  0.93957000  0.36003700  1
  Te  Te22  1  0.41215200  0.21864900  0.58436500  1
  Te  Te23  1  0.08784800  0.78135100  0.08436500  1
  Te  Te24  1  0.00000000  0.00000000  0.00000000  1
  Te  Te25  1  0.91037300  0.06043000  0.63996300  1
  Te  Te26  1  0.00000000  0.00000000  0.50000000  1
  Te  Te27  1  0.50000000  0.00000000  0.00000000  1
  W  W0  1  0.77708300  0.50000000  0.25000000  1
  W  W1  1  0.22291700  0.50000000  0.75000000  1
  W  W2  1  0.72291700  0.50000000  0.75000000  1
  W  W3  1  0.27708300  0.50000000  0.25000000  1
  Cl  Cl0  1  0.73899200  0.55460900  0.83804500  1
  Cl  Cl1  1  0.75852200  0.78249300  0.26650300  1
  Cl  Cl2  1  0.24147800  0.21750700  0.73349700  1
  Cl  Cl3  1  0.75000000  0.51506300  0.00000000  1
  Cl  Cl4  1  0.26100800  0.55460900  0.33804500  1
  Cl  Cl5  1  0.25852200  0.78249300  0.23349700  1
  Cl  Cl6  1  0.73899200  0.44539100  0.66195500  1
  Cl  Cl7  1  0.23899200  0.44539100  0.83804500  1
  Cl  Cl8  1  0.25000000  0.51506300  0.50000000  1
  Cl  Cl9  1  0.74147800  0.21750700  0.76650300  1
  Cl  Cl10  1  0.75000000  0.48493700  0.50000000  1
  Cl  Cl11  1  0.76100800  0.55460900  0.16195500  1
  Cl  Cl12  1  0.75852200  0.21750700  0.23349700  1
  Cl  Cl13  1  0.76100800  0.44539100  0.33804500  1
  Cl  Cl14  1  0.26100800  0.44539100  0.16195500  1
  Cl  Cl15  1  0.24147800  0.78249300  0.76650300  1
  Cl  Cl16  1  0.74147800  0.78249300  0.73349700  1
  Cl  Cl17  1  0.25000000  0.48493700  0.00000000  1
  Cl  Cl18  1  0.25852200  0.21750700  0.26650300  1
  Cl  Cl19  1  0.23899200  0.55460900  0.66195500  1
  O  O0  1  0.98335100  0.50000000  0.75000000  1
  O  O1  1  0.51664900  0.50000000  0.25000000  1
  O  O2  1  0.01664900  0.50000000  0.25000000  1
  O  O3  1  0.48335100  0.50000000  0.75000000  1
loop_
_geom_bond_atom_site_label_1
_geom_bond_atom_site_label_2
_geom_bond_distance
_geom_bond_site_symmetry_2
Te0 Te8 2.807442 1_655
Te0 Te14 2.939220 1_555
Te0 Te24 2.958389 1_655
Te1 Te25 2.770321 1_565
Te1 Te6 2.939220 1_555
Te1 Te26 2.990254 1_665
Te2 Te27 2.990254 1_566
Te7 Te9 2.939220 1_555
Te10 Te9 2.770321 1_565
Te10 Te17 2.807442 1_655
Te11 Te5 2.807442 1_555
Te11 Te3 2.939220 1_555
Te11 Te19 2.958389 1_555
Te12 Te21 2.807442 1_655
Te12 Te13 2.939220 1_555
Te12 Te26 2.958389 1_665
Te13 Te5 2.770321 1_565
Te13 Te19 2.990254 1_565
Te14 Te20 2.770321 1_545
Te14 Te27 2.990254 1_555
Te15 Te22 2.770321 1_565
Te15 Te6 2.807442 1_555
Te16 Te2 2.770321 1_545
Te16 Te7 2.807442 1_555
Te17 Te2 2.939220 1_555
Te17 Te24 2.958389 1_566
Te18 Te20 2.807442 1_555
Te18 Te23 2.939220 1_555
Te18 Te27 2.958389 1_565
Te19 Te6 2.958389 1_545
Te19 Te22 2.990254 1_555
Te21 Te3 2.770321 1_565
Te22 Te4 2.939220 1_555
Te23 Te8 2.770321 1_565
Te23 Te24 2.990254 1_565
Te24 Te9 2.990254 1_454
Te25 Te4 2.807442 1_655
Te26 Te4 2.958389 1_555
Te26 Te3 2.990254 1_555
Te27 Te7 2.958389 1_554
Cl0 W2 2.411086 1_555
Cl1 W0 2.407702 1_555
Cl2 W1 2.407702 1_555
Cl3 Te0 3.177606 1_555
Cl3 Te7 3.177606 1_554
Cl4 W3 2.411086 1_555
Cl5 W3 2.407702 1_555
Cl6 W2 2.411086 1_555
Cl7 W1 2.411086 1_555
Cl8 Te4 3.177606 1_555
Cl8 Te11 3.177606 1_555
Cl9 W2 2.407702 1_555
Cl10 Te6 3.177606 1_555
Cl10 Te12 3.177606 1_555
Cl11 W0 2.411086 1_555
Cl12 W0 2.407702 1_555
Cl13 W0 2.411086 1_555
Cl14 W3 2.411086 1_555
Cl15 W1 2.407702 1_555
Cl16 W2 2.407702 1_555
Cl17 Te17 3.177606 1_554
Cl17 Te18 3.177606 1_555
Cl18 W3 2.407702 1_555
Cl19 W1 2.411086 1_555
O0 W1 1.863961 1_655
O0 W2 2.026325 1_555
O1 W3 1.863961 1_555
O1 W0 2.026325 1_555
O2 W0 1.863961 1_455
O2 W3 2.026325 1_555
O3 W2 1.863961 1_555
O3 W1 2.026325 1_555
