# generated using pymatgen
data_Cu5Si(SbO6)2
_symmetry_space_group_name_H-M   'P 1'
_cell_length_a   9.55081277
_cell_length_b   9.71583434
_cell_length_c   19.24102306
_cell_angle_alpha   90.00001725
_cell_angle_beta   90.00002044
_cell_angle_gamma   90.00317360
_symmetry_Int_Tables_number   1
_chemical_formula_structural   Cu5Si(SbO6)2
_chemical_formula_sum   'Cu40 Si8 Sb16 O96'
_cell_volume   1785.45369913
_cell_formula_units_Z   8
loop_
 _symmetry_equiv_pos_site_id
 _symmetry_equiv_pos_as_xyz
  1  'x, y, z'
loop_
 _atom_site_type_symbol
 _atom_site_label
 _atom_site_symmetry_multiplicity
 _atom_site_fract_x
 _atom_site_fract_y
 _atom_site_fract_z
 _atom_site_occupancy
  Cu  Cu0  1  0.74384265  0.50236446  0.37719927  1
  Cu  Cu1  1  0.97903239  0.72773340  0.37586581  1
  Cu  Cu2  1  0.50001097  0.45987359  0.74999938  1
  Cu  Cu3  1  0.49998896  0.04012629  0.24999938  1
  Cu  Cu4  1  0.02097504  0.72776843  0.12414423  1
  Cu  Cu5  1  0.97902496  0.27223157  0.87585577  1
  Cu  Cu6  1  0.24585884  0.75482760  0.25011794  1
  Cu  Cu7  1  0.74385547  0.49762256  0.87720388  1
  Cu  Cu8  1  0.25614448  0.00237734  0.37720393  1
  Cu  Cu9  1  0.22060295  0.74998102  0.49998715  1
  Cu  Cu10  1  0.74385552  0.99762266  0.62279607  1
  Cu  Cu11  1  0.24593559  0.74520689  0.74988468  1
  Cu  Cu12  1  0.25614453  0.50237744  0.12279612  1
  Cu  Cu13  1  0.02096759  0.77226680  0.87586589  1
  Cu  Cu14  1  0.72352440  0.75000335  0.49999414  1
  Cu  Cu15  1  0.75414116  0.24517240  0.74988206  1
  Cu  Cu16  1  0.27647560  0.24999665  0.50000586  1
  Cu  Cu17  1  0.24593564  0.24520694  0.75011536  1
  Cu  Cu18  1  0.25615759  0.99763544  0.87719928  1
  Cu  Cu19  1  0.75414119  0.74517250  0.75011791  1
  Cu  Cu20  1  0.97902496  0.77223145  0.62414419  1
  Cu  Cu21  1  0.74384241  0.00236456  0.12280072  1
  Cu  Cu22  1  0.75406436  0.75479306  0.24988464  1
  Cu  Cu23  1  0.72352441  0.25000322  0.00000580  1
  Cu  Cu24  1  0.77939705  0.25001898  0.50001285  1
  Cu  Cu25  1  0.24585881  0.25482750  0.24988209  1
  Cu  Cu26  1  0.27647559  0.74999678  -0.00000580  1
  Cu  Cu27  1  0.77939696  0.75001898  0.99998717  1
  Cu  Cu28  1  0.75406441  0.25479311  0.25011532  1
  Cu  Cu29  1  0.50000000  0.50000000  -0.00000000  1
  Cu  Cu30  1  0.22060304  0.24998102  0.00001283  1
  Cu  Cu31  1  0.49998903  0.54012641  0.25000062  1
  Cu  Cu32  1  0.50000000  -0.00000000  -0.00000000  1
  Cu  Cu33  1  0.50000000  0.50000000  0.50000000  1
  Cu  Cu34  1  0.25615735  0.49763554  0.62280073  1
  Cu  Cu35  1  0.02097504  0.22776855  0.37585581  1
  Cu  Cu36  1  0.02096761  0.27226660  0.62413419  1
  Cu  Cu37  1  0.50000000  -0.00000000  0.50000000  1
  Cu  Cu38  1  0.50001104  0.95987371  0.75000062  1
  Cu  Cu39  1  0.97903241  0.22773320  0.12413411  1
  Si  Si0  1  0.25317934  0.99270828  0.62697401  1
  Si  Si1  1  0.74682066  0.00729172  0.37302599  1
  Si  Si2  1  0.25317936  0.49270844  0.87302600  1
  Si  Si3  1  0.25316102  0.50723935  0.37300690  1
  Si  Si4  1  0.74683893  0.99276066  0.87300691  1
  Si  Si5  1  0.74683898  0.49276065  0.62699310  1
  Si  Si6  1  0.74682064  0.50729156  0.12697400  1
  Si  Si7  1  0.25316107  0.00723934  0.12699309  1
  Sb  Sb0  1  0.00001968  0.03643220  0.74998483  1
  Sb  Sb1  1  0.51528353  0.22755644  0.62465975  1
  Sb  Sb2  1  0.51523593  0.77242743  0.12467746  1
  Sb  Sb3  1  0.48471627  0.27244351  0.12465981  1
  Sb  Sb4  1  0.48476407  0.22757257  0.87532254  1
  Sb  Sb5  1  0.00000000  0.50000000  -0.00000000  1
  Sb  Sb6  1  0.48476409  0.72757262  0.62467745  1
  Sb  Sb7  1  0.51523591  0.27242738  0.37532255  1
  Sb  Sb8  1  0.00000000  -0.00000000  -0.00000000  1
  Sb  Sb9  1  0.00000000  0.50000000  0.50000000  1
  Sb  Sb10  1  0.48471647  0.77244356  0.37534025  1
  Sb  Sb11  1  0.99998032  0.96356780  0.25001517  1
  Sb  Sb12  1  0.51528373  0.72755649  0.87534019  1
  Sb  Sb13  1  0.00000000  -0.00000000  0.50000000  1
  Sb  Sb14  1  0.99998032  0.46356789  0.24998487  1
  Sb  Sb15  1  0.00001968  0.53643211  0.75001513  1
  O  O0  1  0.85544129  0.43822465  0.56867212  1
  O  O1  1  0.14455412  0.93822857  0.56865886  1
  O  O2  1  0.60203249  0.31478908  0.80253449  1
  O  O3  1  0.06918961  0.15655583  0.94445213  1
  O  O4  1  0.64198049  0.86688887  0.05392989  1
  O  O5  1  0.64194326  0.13314676  0.55397644  1
  O  O6  1  0.14110517  0.37559772  0.55392998  1
  O  O7  1  0.64194314  0.63314673  0.94602359  1
  O  O8  1  0.85544132  0.93822470  0.93132797  1
  O  O9  1  0.90603073  0.31486627  0.30643296  1
  O  O10  1  0.60199700  0.18527884  0.19741730  1
  O  O11  1  0.88958857  0.89962591  0.69156659  1
  O  O12  1  0.11044876  0.39971579  0.69157507  1
  O  O13  1  0.16992349  0.07226472  0.68889310  1
  O  O14  1  0.93081027  0.34344413  0.44445213  1
  O  O15  1  0.83011449  0.07233189  0.81109628  1
  O  O16  1  0.60738398  0.41014972  0.31007355  1
  O  O17  1  0.83007638  0.42773534  0.18889302  1
  O  O18  1  0.64198050  0.36688882  0.44607010  1
  O  O19  1  0.42636680  0.64746754  0.05482638  1
  O  O20  1  0.39256133  0.91014580  0.31005560  1
  O  O21  1  0.06911634  0.84342906  0.44448683  1
  O  O22  1  0.93088368  0.65657075  0.94448683  1
  O  O23  1  0.66611401  0.35926940  0.65876513  1
  O  O24  1  0.36289932  0.09853128  0.59152082  1
  O  O25  1  0.36278279  0.90133861  0.09153392  1
  O  O26  1  0.16988563  0.42766818  0.31109628  1
  O  O27  1  0.35801950  0.63311118  0.55392990  1
  O  O28  1  0.88958866  0.39962594  0.80843338  1
  O  O29  1  0.57363313  0.85253251  0.55482639  1
  O  O30  1  0.60199682  0.68527890  0.30258271  1
  O  O31  1  0.39256132  0.41014581  0.18994432  1
  O  O32  1  0.63710067  0.40146864  0.09152092  1
  O  O33  1  0.57359497  0.64743705  0.44522011  1
  O  O34  1  0.60203237  0.81478898  0.69746548  1
  O  O35  1  0.16988551  0.92766811  0.18890372  1
  O  O36  1  0.36278294  0.40133855  0.40846613  1
  O  O37  1  0.88955124  0.60028421  0.30842493  1
  O  O38  1  0.93088366  0.15657094  0.55551317  1
  O  O39  1  0.35805674  0.86685324  0.44602356  1
  O  O40  1  0.83011437  0.57233182  0.68890372  1
  O  O41  1  0.85544588  0.06177143  0.43134114  1
  O  O42  1  0.14101388  0.12441775  0.44602710  1
  O  O43  1  0.57363320  0.35253246  0.94517362  1
  O  O44  1  0.14455404  0.43822858  0.93134117  1
  O  O45  1  0.11041134  0.60037406  0.19156662  1
  O  O46  1  0.09396919  0.18513353  0.80643291  1
  O  O47  1  0.60738398  0.91014975  0.18992645  1
  O  O48  1  0.16992362  0.57226466  0.81110698  1
  O  O49  1  0.11044872  0.89971588  0.80842491  1
  O  O50  1  0.14110510  0.87559772  0.94607004  1
  O  O51  1  0.39261602  0.08985025  0.81007355  1
  O  O52  1  0.39800318  0.31472110  0.69741729  1
  O  O53  1  0.85544596  0.56177142  0.06865883  1
  O  O54  1  0.06911632  0.34342925  0.05551317  1
  O  O55  1  0.39796763  0.18521102  0.30253452  1
  O  O56  1  0.93081039  0.84344417  0.05554787  1
  O  O57  1  0.09396927  0.68513373  0.69356704  1
  O  O58  1  0.83007651  0.92773528  0.31110690  1
  O  O59  1  0.63721721  0.09866139  0.90846608  1
  O  O60  1  0.39800300  0.81472116  0.80258270  1
  O  O61  1  0.14101382  0.62441778  0.05397288  1
  O  O62  1  0.36289933  0.59853136  0.90847908  1
  O  O63  1  0.66615465  0.64081172  0.15875216  1
  O  O64  1  0.66611400  0.85926942  0.84123489  1
  O  O65  1  0.90596660  0.18510713  0.69355006  1
  O  O66  1  0.39261602  0.58985028  0.68992645  1
  O  O67  1  0.09403347  0.31489276  0.19354997  1
  O  O68  1  0.85889483  0.62440228  0.44607002  1
  O  O69  1  0.63710068  0.90146872  0.40847918  1
  O  O70  1  0.06918973  0.65655587  0.55554787  1
  O  O71  1  0.33388499  0.64073060  0.34123487  1
  O  O72  1  0.90596653  0.68510724  0.80645003  1
  O  O73  1  0.85898618  0.37558222  0.94602712  1
  O  O74  1  0.85898612  0.87558225  0.55397290  1
  O  O75  1  0.85889490  0.12440228  0.05392996  1
  O  O76  1  0.09403340  0.81489287  0.30644994  1
  O  O77  1  0.42636687  0.14746749  0.44517361  1
  O  O78  1  0.63721706  0.59866145  0.59153387  1
  O  O79  1  0.14455871  0.56177535  0.43132788  1
  O  O80  1  0.39796751  0.68521092  0.19746551  1
  O  O81  1  0.66615471  0.14081173  0.34124787  1
  O  O82  1  0.88955128  0.10028412  0.19157509  1
  O  O83  1  0.60743868  0.58985419  0.81005568  1
  O  O84  1  0.33388500  0.14073058  0.15876511  1
  O  O85  1  0.60743867  0.08985420  0.68994440  1
  O  O86  1  0.33384429  0.85918827  0.65875213  1
  O  O87  1  0.14455868  0.06177530  0.06867203  1
  O  O88  1  0.35805686  0.36685327  0.05397641  1
  O  O89  1  0.90603081  0.81486647  0.19356709  1
  O  O90  1  0.35801951  0.13311113  0.94607011  1
  O  O91  1  0.42640503  0.35256295  0.55477989  1
  O  O92  1  0.57359498  0.14743709  0.05477999  1
  O  O93  1  0.33384435  0.35918828  0.84124784  1
  O  O94  1  0.11041143  0.10037409  0.30843341  1
  O  O95  1  0.42640502  0.85256291  0.94522001  1
loop_
_geom_bond_atom_site_label_1
_geom_bond_atom_site_label_2
_geom_bond_distance
_geom_bond_site_symmetry_2
Cu0 O16 2.041886 1_555
Cu0 O68 2.090262 1_555
Cu0 O18 2.105915 1_555
Cu0 O37 2.143060 1_555
Cu0 O33 2.518684 1_555
Cu1 O76 1.925437 1_655
Cu1 O21 1.935713 1_655
Cu1 O37 1.986813 1_555
Cu1 O68 2.036910 1_555
Cu1 O79 2.497652 1_655
Cu2 O2 1.989568 1_555
Cu2 O52 1.990354 1_555
Cu2 O83 1.995670 1_555
Cu2 O66 1.995743 1_555
Cu2 O23 2.560056 1_555
Cu2 O93 2.560854 1_555
Cu3 O55 1.989569 1_555
Cu3 O10 1.990357 1_555
Cu3 O20 1.995669 1_545
Cu3 O47 1.995742 1_545
Cu3 O84 2.560061 1_555
Cu3 O81 2.560848 1_555
Cu4 O89 1.925012 1_455
Cu4 O56 1.935676 1_455
Cu4 O45 1.986124 1_555
Cu4 O61 2.036115 1_555
Cu4 O53 2.497991 1_455
Cu5 O46 1.925012 1_655
Cu5 O3 1.935676 1_655
Cu5 O28 1.986124 1_555
Cu5 O73 2.036115 1_555
Cu5 O44 2.497991 1_655
Cu6 O80 1.895908 1_555
Cu6 O76 1.902140 1_555
Cu6 O35 2.175759 1_555
Cu6 O71 2.238179 1_555
Cu6 O45 2.279124 1_555
Cu6 O20 2.360118 1_555
Cu7 O83 2.042040 1_555
Cu7 O73 2.090161 1_555
Cu7 O7 2.105879 1_555
Cu7 O28 2.143567 1_555
Cu7 O43 2.518011 1_555
Cu8 O20 2.042042 1_545
Cu8 O42 2.090160 1_555
Cu8 O39 2.105877 1_545
Cu8 O94 2.143566 1_555
Cu8 O77 2.518011 1_555
Cu9 O70 2.014423 1_555
Cu9 O21 2.014482 1_555
Cu9 O27 2.022192 1_555
Cu9 O39 2.022561 1_555
Cu9 O79 2.369866 1_555
Cu9 O1 2.370389 1_555
Cu10 O85 2.042042 1_565
Cu10 O74 2.090160 1_555
Cu10 O5 2.105877 1_565
Cu10 O11 2.143566 1_555
Cu10 O29 2.518011 1_555
Cu11 O60 1.895662 1_555
Cu11 O57 1.902982 1_555
Cu11 O48 2.176667 1_555
Cu11 O86 2.237391 1_555
Cu11 O49 2.279681 1_555
Cu11 O66 2.360524 1_555
Cu12 O31 2.042040 1_555
Cu12 O61 2.090161 1_555
Cu12 O88 2.105879 1_555
Cu12 O45 2.143567 1_555
Cu12 O19 2.518011 1_555
Cu13 O72 1.925437 1_455
Cu13 O22 1.935715 1_455
Cu13 O49 1.986814 1_555
Cu13 O50 2.036907 1_555
Cu13 O8 2.497651 1_455
Cu14 O33 2.038157 1_555
Cu14 O29 2.038382 1_555
Cu14 O68 2.058509 1_555
Cu14 O74 2.059374 1_555
Cu14 O78 2.437971 1_555
Cu14 O69 2.438781 1_555
Cu15 O2 1.895908 1_555
Cu15 O65 1.902140 1_555
Cu15 O15 2.175759 1_555
Cu15 O23 2.238182 1_555
Cu15 O28 2.279124 1_555
Cu15 O85 2.360118 1_555
Cu16 O91 2.038157 1_555
Cu16 O77 2.038382 1_555
Cu16 O6 2.058509 1_555
Cu16 O42 2.059374 1_555
Cu16 O36 2.437971 1_555
Cu16 O24 2.438781 1_555
Cu17 O52 1.895664 1_555
Cu17 O46 1.902984 1_555
Cu17 O13 2.176666 1_555
Cu17 O93 2.237389 1_555
Cu17 O12 2.279681 1_555
Cu17 O51 2.360524 1_555
Cu18 O51 2.041886 1_565
Cu18 O50 2.090264 1_555
Cu18 O90 2.105913 1_565
Cu18 O49 2.143060 1_555
Cu18 O95 2.518681 1_555
Cu19 O34 1.895908 1_555
Cu19 O72 1.902140 1_555
Cu19 O40 2.175759 1_555
Cu19 O64 2.238183 1_555
Cu19 O11 2.279123 1_555
Cu19 O83 2.360121 1_555
Cu20 O57 1.925011 1_655
Cu20 O70 1.935675 1_655
Cu20 O11 1.986125 1_555
Cu20 O74 2.036115 1_555
Cu20 O1 2.497993 1_655
Cu21 O47 2.041886 1_545
Cu21 O75 2.090264 1_555
Cu21 O4 2.105913 1_545
Cu21 O82 2.143060 1_555
Cu21 O92 2.518681 1_555
Cu22 O30 1.895664 1_555
Cu22 O89 1.902984 1_555
Cu22 O58 2.176666 1_555
Cu22 O63 2.237393 1_555
Cu22 O37 2.279681 1_555
Cu22 O47 2.360524 1_555
Cu23 O92 2.038159 1_555
Cu23 O43 2.038381 1_554
Cu23 O75 2.058509 1_555
Cu23 O73 2.059375 1_554
Cu23 O59 2.437969 1_554
Cu23 O32 2.438784 1_555
Cu24 O14 2.014423 1_555
Cu24 O38 2.014482 1_555
Cu24 O18 2.022192 1_555
Cu24 O5 2.022561 1_555
Cu24 O0 2.369866 1_555
Cu24 O41 2.370389 1_555
Cu25 O55 1.895908 1_555
Cu25 O67 1.902140 1_555
Cu25 O26 2.175759 1_555
Cu25 O84 2.238179 1_555
Cu25 O94 2.279123 1_555
Cu25 O31 2.360121 1_555
Cu26 O95 2.038159 1_554
Cu26 O19 2.038381 1_555
Cu26 O50 2.058509 1_554
Cu26 O61 2.059375 1_555
Cu26 O25 2.437969 1_555
Cu26 O62 2.438784 1_554
Cu27 O56 2.014424 1_556
Cu27 O22 2.014484 1_555
Cu27 O4 2.022192 1_556
Cu27 O7 2.022560 1_555
Cu27 O8 2.369867 1_555
Cu27 O53 2.370390 1_556
Cu28 O10 1.895662 1_555
Cu28 O9 1.902982 1_555
Cu28 O17 2.176667 1_555
Cu28 O81 2.237395 1_555
Cu28 O82 2.279681 1_555
Cu28 O16 2.360524 1_555
Cu29 O43 1.913206 1_554
Cu29 O19 1.913206 1_555
Cu29 O7 2.142370 1_554
Cu29 O88 2.142370 1_555
Cu29 O32 2.394190 1_555
Cu29 O62 2.394190 1_554
Cu30 O3 2.014424 1_554
Cu30 O54 2.014484 1_555
Cu30 O90 2.022192 1_554
Cu30 O88 2.022560 1_555
Cu30 O87 2.369867 1_555
Cu30 O44 2.370390 1_554
Cu31 O80 1.989568 1_555
Cu31 O30 1.990354 1_555
Cu31 O31 1.995670 1_555
Cu31 O16 1.995743 1_555
Cu31 O71 2.560061 1_555
Cu31 O63 2.560848 1_555
Cu32 O95 1.912300 1_544
Cu32 O92 1.912300 1_555
Cu32 O90 2.142043 1_554
Cu32 O4 2.142043 1_545
Cu32 O59 2.395430 1_554
Cu32 O25 2.395430 1_545
Cu33 O33 1.912299 1_555
Cu33 O91 1.912299 1_555
Cu33 O27 2.142044 1_555
Cu33 O18 2.142044 1_555
Cu33 O36 2.395428 1_555
Cu33 O78 2.395428 1_555
Cu34 O66 2.041886 1_555
Cu34 O6 2.090262 1_555
Cu34 O27 2.105915 1_555
Cu34 O12 2.143060 1_555
Cu34 O91 2.518684 1_555
Cu35 O9 1.925011 1_455
Cu35 O14 1.935675 1_455
Cu35 O94 1.986125 1_555
Cu35 O42 2.036115 1_555
Cu35 O41 2.497993 1_455
Cu36 O65 1.925437 1_455
Cu36 O38 1.935713 1_455
Cu36 O12 1.986813 1_555
Cu36 O6 2.036910 1_555
Cu36 O0 2.497652 1_455
Cu37 O77 1.913206 1_555
Cu37 O29 1.913206 1_545
Cu37 O5 2.142370 1_555
Cu37 O39 2.142370 1_545
Cu37 O69 2.394188 1_545
Cu37 O24 2.394188 1_555
Cu38 O34 1.989569 1_555
Cu38 O60 1.990357 1_555
Cu38 O85 1.995669 1_565
Cu38 O51 1.995742 1_565
Cu38 O64 2.560055 1_555
Cu38 O86 2.560854 1_555
Cu39 O67 1.925437 1_655
Cu39 O54 1.935715 1_655
Cu39 O82 1.986814 1_555
Cu39 O75 2.036907 1_555
Cu39 O87 2.497651 1_655
O0 Si5 1.617379 1_555
O0 Sb9 2.003059 1_655
O1 Si0 1.617225 1_555
O1 Sb13 2.002894 1_565
O2 Sb4 1.983385 1_555
O3 Sb8 1.972956 1_556
O4 Sb2 2.039741 1_555
O5 Sb1 2.038269 1_555
O6 Sb9 2.086632 1_555
O7 Sb12 2.038268 1_555
O8 Si4 1.617380 1_555
O8 Sb8 2.003056 1_666
O9 Sb14 2.017916 1_555
O10 Sb3 1.982874 1_555
O11 Sb0 2.035295 1_665
O12 Sb15 2.035022 1_555
O13 Si0 1.627641 1_545
O13 Sb0 2.033737 1_555
O14 Sb9 1.972955 1_655
O15 Si4 1.627640 1_545
O15 Sb0 2.034109 1_655
O16 Sb7 2.034964 1_555
O17 Si6 1.627638 1_555
O17 Sb14 2.033738 1_555
O18 Sb7 2.039740 1_555
O19 Sb2 2.000166 1_555
O20 Sb10 2.035352 1_555
O21 Sb13 1.972529 1_565
O22 Sb5 1.972528 1_656
O23 Si5 1.627940 1_555
O23 Sb1 2.035498 1_555
O24 Si0 1.618782 1_545
O24 Sb1 2.023861 1_555
O25 Si7 1.618776 1_565
O25 Sb2 2.023777 1_555
O26 Si3 1.627638 1_555
O26 Sb14 2.034109 1_455
O27 Sb6 2.039740 1_555
O28 Sb15 2.035294 1_655
O29 Sb6 2.000167 1_555
O30 Sb10 1.982873 1_555
O31 Sb3 2.035350 1_555
O32 Si6 1.618780 1_555
O32 Sb3 2.023863 1_555
O33 Sb10 2.000909 1_555
O34 Sb6 1.983383 1_555
O35 Si7 1.627640 1_565
O35 Sb11 2.034109 1_455
O36 Si3 1.618778 1_555
O36 Sb7 2.023776 1_555
O37 Sb14 2.035022 1_555
O38 Sb13 1.972529 1_655
O39 Sb10 2.038269 1_555
O40 Si5 1.627638 1_555
O40 Sb15 2.034109 1_655
O41 Si1 1.617225 1_555
O41 Sb13 2.002894 1_655
O42 Sb13 2.086481 1_555
O43 Sb4 2.000166 1_555
O44 Si2 1.617227 1_555
O44 Sb5 2.002893 1_556
O45 Sb14 2.035294 1_455
O46 Sb0 2.017912 1_555
O47 Sb2 2.034963 1_555
O48 Si2 1.627638 1_555
O48 Sb15 2.033738 1_555
O49 Sb0 2.035023 1_565
O50 Sb8 2.086632 1_566
O51 Sb4 2.034963 1_555
O52 Sb1 1.982873 1_555
O53 Si6 1.617227 1_555
O53 Sb5 2.002893 1_655
O54 Sb5 1.972528 1_555
O55 Sb7 1.983383 1_555
O56 Sb8 1.972956 1_665
O57 Sb15 2.017916 1_555
O58 Si1 1.627641 1_565
O58 Sb11 2.033737 1_555
O59 Si4 1.618776 1_545
O59 Sb4 2.023777 1_555
O60 Sb12 1.982874 1_555
O61 Sb5 2.086480 1_555
O62 Si2 1.618780 1_555
O62 Sb12 2.023863 1_555
O63 Si6 1.628009 1_555
O63 Sb2 2.035411 1_555
O64 Si4 1.627939 1_555
O64 Sb12 2.035497 1_555
O65 Sb0 2.018103 1_655
O66 Sb6 2.034964 1_555
O67 Sb14 2.018105 1_455
O68 Sb9 2.086632 1_655
O69 Si1 1.618782 1_565
O69 Sb10 2.023861 1_555
O70 Sb9 1.972955 1_555
O71 Si3 1.627935 1_555
O71 Sb10 2.035505 1_555
O72 Sb15 2.018105 1_655
O73 Sb5 2.086480 1_656
O74 Sb13 2.086481 1_665
O75 Sb8 2.086632 1_655
O76 Sb11 2.018103 1_455
O77 Sb7 2.000167 1_555
O78 Si5 1.618778 1_555
O78 Sb6 2.023776 1_555
O79 Si3 1.617379 1_555
O79 Sb9 2.003059 1_555
O80 Sb2 1.983385 1_555
O81 Si1 1.628008 1_555
O81 Sb7 2.035411 1_555
O82 Sb11 2.035023 1_545
O83 Sb12 2.035350 1_555
O84 Si7 1.627935 1_555
O84 Sb3 2.035503 1_555
O85 Sb1 2.035352 1_555
O86 Si0 1.628003 1_555
O86 Sb6 2.035418 1_555
O87 Si7 1.617380 1_555
O87 Sb8 2.003056 1_555
O88 Sb3 2.038268 1_555
O89 Sb11 2.017912 1_555
O90 Sb4 2.039741 1_555
O91 Sb1 2.000909 1_555
O92 Sb3 2.000909 1_555
O93 Si2 1.628005 1_555
O93 Sb4 2.035418 1_555
O94 Sb11 2.035295 1_445
O95 Sb12 2.000909 1_555
