# generated using pymatgen
data_K2YbSn(PO4)3
_symmetry_space_group_name_H-M   'P 1'
_cell_length_a   10.40382100
_cell_length_b   10.40382100
_cell_length_c   10.40382100
_cell_angle_alpha   90.00000000
_cell_angle_beta   90.00000000
_cell_angle_gamma   90.00000000
_symmetry_Int_Tables_number   1
_chemical_formula_structural   K2YbSn(PO4)3
_chemical_formula_sum   'K8 Yb4 Sn4 P12 O48'
_cell_volume   1126.10429366
_cell_formula_units_Z   4
loop_
 _symmetry_equiv_pos_site_id
 _symmetry_equiv_pos_as_xyz
  1  'x, y, z'
loop_
 _atom_site_type_symbol
 _atom_site_label
 _atom_site_symmetry_multiplicity
 _atom_site_fract_x
 _atom_site_fract_y
 _atom_site_fract_z
 _atom_site_occupancy
  K  K0  1  0.07166400  0.07166400  0.07166400  1
  K  K1  1  0.20829200  0.70829200  0.79170800  1
  K  K2  1  0.29170800  0.29170800  0.29170800  1
  K  K3  1  0.42833600  0.92833600  0.57166400  1
  K  K4  1  0.57166400  0.42833600  0.92833600  1
  K  K5  1  0.70829200  0.79170800  0.20829200  1
  K  K6  1  0.79170800  0.20829200  0.70829200  1
  K  K7  1  0.92833600  0.57166400  0.42833600  1
  Yb  Yb0  1  0.08326300  0.91673700  0.41673700  1
  Yb  Yb1  1  0.41673700  0.08326300  0.91673700  1
  Yb  Yb2  1  0.58326300  0.58326300  0.58326300  1
  Yb  Yb3  1  0.91673700  0.41673700  0.08326300  1
  Sn  Sn0  1  0.15349100  0.34650900  0.65349100  1
  Sn  Sn1  1  0.34650900  0.65349100  0.15349100  1
  Sn  Sn2  1  0.65349100  0.15349100  0.34650900  1
  Sn  Sn3  1  0.84650900  0.84650900  0.84650900  1
  P  P0  1  0.03902700  0.73923900  0.11751800  1
  P  P1  1  0.11751800  0.03902700  0.73923900  1
  P  P2  1  0.23923900  0.38248200  0.96097300  1
  P  P3  1  0.26076100  0.61751800  0.46097300  1
  P  P4  1  0.38248200  0.96097300  0.23923900  1
  P  P5  1  0.46097300  0.26076100  0.61751800  1
  P  P6  1  0.53902700  0.76076100  0.88248200  1
  P  P7  1  0.61751800  0.46097300  0.26076100  1
  P  P8  1  0.73923900  0.11751800  0.03902700  1
  P  P9  1  0.76076100  0.88248200  0.53902700  1
  P  P10  1  0.88248200  0.53902700  0.76076100  1
  P  P11  1  0.96097300  0.23923900  0.38248200  1
  O  O0  1  0.00050400  0.60250800  0.15185300  1
  O  O1  1  0.01308900  0.82881300  0.23078500  1
  O  O2  1  0.00060900  0.96220800  0.79278200  1
  O  O3  1  0.03779200  0.29278200  0.49939100  1
  O  O4  1  0.07579100  0.18594500  0.74476500  1
  O  O5  1  0.10250800  0.34814700  0.99949600  1
  O  O6  1  0.15185300  0.00050400  0.60250800  1
  O  O7  1  0.17118700  0.73078500  0.48691100  1
  O  O8  1  0.18594500  0.74476500  0.07579100  1
  O  O9  1  0.20721800  0.50060900  0.53779200  1
  O  O10  1  0.23078500  0.01308900  0.82881300  1
  O  O11  1  0.25523500  0.57579100  0.31405500  1
  O  O12  1  0.24476500  0.42420900  0.81405500  1
  O  O13  1  0.26921500  0.98691100  0.32881300  1
  O  O14  1  0.29278200  0.49939100  0.03779200  1
  O  O15  1  0.31405500  0.25523500  0.57579100  1
  O  O16  1  0.32881300  0.26921500  0.98691100  1
  O  O17  1  0.34814700  0.99949600  0.10250800  1
  O  O18  1  0.39749200  0.65185300  0.49949600  1
  O  O19  1  0.42420900  0.81405500  0.24476500  1
  O  O20  1  0.46220800  0.70721800  0.99939100  1
  O  O21  1  0.49939100  0.03779200  0.29278200  1
  O  O22  1  0.49949600  0.39749200  0.65185300  1
  O  O23  1  0.48691100  0.17118700  0.73078500  1
  O  O24  1  0.51308900  0.67118700  0.76921500  1
  O  O25  1  0.50050400  0.89749200  0.84814700  1
  O  O26  1  0.50060900  0.53779200  0.20721800  1
  O  O27  1  0.53779200  0.20721800  0.50060900  1
  O  O28  1  0.57579100  0.31405500  0.25523500  1
  O  O29  1  0.60250800  0.15185300  0.00050400  1
  O  O30  1  0.65185300  0.49949600  0.39749200  1
  O  O31  1  0.67118700  0.76921500  0.51308900  1
  O  O32  1  0.68594500  0.75523500  0.92420900  1
  O  O33  1  0.70721800  0.99939100  0.46220800  1
  O  O34  1  0.73078500  0.48691100  0.17118700  1
  O  O35  1  0.75523500  0.92420900  0.68594500  1
  O  O36  1  0.74476500  0.07579100  0.18594500  1
  O  O37  1  0.76921500  0.51308900  0.67118700  1
  O  O38  1  0.79278200  0.00060900  0.96220800  1
  O  O39  1  0.81405500  0.24476500  0.42420900  1
  O  O40  1  0.82881300  0.23078500  0.01308900  1
  O  O41  1  0.84814700  0.50050400  0.89749200  1
  O  O42  1  0.89749200  0.84814700  0.50050400  1
  O  O43  1  0.92420900  0.68594500  0.75523500  1
  O  O44  1  0.96220800  0.79278200  0.00060900  1
  O  O45  1  0.99939100  0.46220800  0.70721800  1
  O  O46  1  0.99949600  0.10250800  0.34814700  1
  O  O47  1  0.98691100  0.32881300  0.26921500  1
loop_
_geom_bond_atom_site_label_1
_geom_bond_atom_site_label_2
_geom_bond_distance
_geom_bond_site_symmetry_2
K0 O17 2.990124 1_545
K0 O5 2.990124 1_554
K0 O46 2.990124 1_455
K0 O1 3.081483 1_545
K0 O10 3.081483 1_554
K0 O40 3.081483 1_455
K0 O38 3.203373 1_454
K0 O2 3.203373 1_544
K0 O44 3.203373 1_445
K1 O12 2.988864 1_555
K1 O8 2.988864 1_556
K1 O43 2.988864 1_455
K1 O10 3.203024 1_565
K1 O24 3.203024 1_555
K1 O7 3.203024 1_555
K2 O11 2.988864 1_555
K2 O15 2.988864 1_555
K2 O28 2.988864 1_555
K2 O47 3.203024 1_455
K2 O16 3.203024 1_554
K2 O13 3.203024 1_545
K3 O25 2.990124 1_555
K3 O18 2.990124 1_555
K3 O6 2.990124 1_565
K3 O13 3.081483 1_555
K3 O23 3.081483 1_565
K3 O31 3.081483 1_555
K3 O21 3.203373 1_565
K3 O33 3.203373 1_555
K3 O27 3.203373 1_565
K4 O22 2.990124 1_555
K4 O41 2.990124 1_555
K4 O29 2.990124 1_556
K4 O16 3.081483 1_555
K4 O34 3.081483 1_556
K4 O24 3.081483 1_555
K4 O20 3.203373 1_555
K4 O14 3.203373 1_556
K4 O26 3.203373 1_556
K5 O36 2.988864 1_565
K5 O19 2.988864 1_555
K5 O32 2.988864 1_554
K5 O1 3.203024 1_655
K5 O34 3.203024 1_555
K5 O31 3.203024 1_555
K6 O4 2.988864 1_655
K6 O39 2.988864 1_555
K6 O35 2.988864 1_545
K6 O40 3.203024 1_556
K6 O23 3.203024 1_555
K6 O37 3.203024 1_555
K7 O0 2.990124 1_655
K7 O42 2.990124 1_555
K7 O30 2.990124 1_555
K7 O47 3.081483 1_555
K7 O7 3.081483 1_655
K7 O37 3.081483 1_555
K7 O45 3.203373 1_555
K7 O3 3.203373 1_655
K7 O9 3.203373 1_655
O0 P0 1.520464 1_555
O0 Yb3 2.237000 1_455
O1 P0 1.526411 1_555
O1 Yb0 2.261082 1_555
O2 P1 1.558343 1_565
O2 Sn3 2.081275 1_455
O3 P11 1.558343 1_455
O3 Sn0 2.081275 1_555
O4 P1 1.590001 1_555
O4 Sn0 2.084637 1_555
O5 P2 1.520464 1_555
O5 Yb3 2.237000 1_456
O6 P1 1.520464 1_555
O6 Yb0 2.237000 1_545
O7 P3 1.526411 1_555
O7 Yb0 2.261082 1_555
O8 P0 1.590001 1_555
O8 Sn1 2.084637 1_555
O9 P3 1.558343 1_555
O9 Sn0 2.081275 1_555
O10 P1 1.526411 1_555
O10 Yb1 2.261082 1_555
O11 P3 1.590001 1_555
O11 Sn1 2.084637 1_555
O12 P2 1.590001 1_555
O12 Sn0 2.084637 1_555
O13 P4 1.526411 1_555
O13 Yb0 2.261082 1_555
O14 P2 1.558343 1_554
O14 Sn1 2.081275 1_555
O15 P5 1.590001 1_555
O15 Sn0 2.084637 1_555
O16 P2 1.526411 1_555
O16 Yb1 2.261082 1_555
O17 P4 1.520464 1_555
O17 Yb1 2.237000 1_564
O18 P3 1.520464 1_555
O18 Yb2 2.237000 1_555
O19 P4 1.590001 1_555
O19 Sn1 2.084637 1_555
O20 P6 1.558343 1_555
O20 Sn1 2.081275 1_556
O21 P4 1.558343 1_545
O21 Sn2 2.081275 1_555
O22 P5 1.520464 1_555
O22 Yb2 2.237000 1_555
O23 P5 1.526411 1_555
O23 Yb1 2.261082 1_555
O24 P6 1.526411 1_555
O24 Yb2 2.261082 1_555
O25 P6 1.520464 1_555
O25 Yb1 2.237000 1_565
O26 P7 1.558343 1_555
O26 Sn1 2.081275 1_555
O27 P5 1.558343 1_555
O27 Sn2 2.081275 1_555
O28 P7 1.590001 1_555
O28 Sn2 2.084637 1_555
O29 P8 1.520464 1_555
O29 Yb1 2.237000 1_554
O30 P7 1.520464 1_555
O30 Yb2 2.237000 1_555
O31 P9 1.526411 1_555
O31 Yb2 2.261082 1_555
O32 P6 1.590001 1_555
O32 Sn3 2.084637 1_555
O33 P9 1.558343 1_555
O33 Sn2 2.081275 1_565
O34 P7 1.526411 1_555
O34 Yb3 2.261082 1_555
O35 P9 1.590001 1_555
O35 Sn3 2.084637 1_555
O36 P8 1.590001 1_555
O36 Sn2 2.084637 1_555
O37 P10 1.526411 1_555
O37 Yb2 2.261082 1_555
O38 P8 1.558343 1_556
O38 Sn3 2.081275 1_545
O39 P11 1.590001 1_555
O39 Sn2 2.084637 1_555
O40 P8 1.526411 1_555
O40 Yb3 2.261082 1_555
O41 P10 1.520464 1_555
O41 Yb3 2.237000 1_556
O42 P9 1.520464 1_555
O42 Yb0 2.237000 1_655
O43 P10 1.590001 1_555
O43 Sn3 2.084637 1_555
O44 P0 1.558343 1_655
O44 Sn3 2.081275 1_554
O45 P10 1.558343 1_555
O45 Sn0 2.081275 1_655
O46 P11 1.520464 1_555
O46 Yb0 2.237000 1_645
O47 P11 1.526411 1_555
O47 Yb3 2.261082 1_555
