# generated using pymatgen
data_NiPS3
_symmetry_space_group_name_H-M   'P 1'
_cell_length_a   5.82140587
_cell_length_b   5.82140587
_cell_length_c   6.89594738
_cell_angle_alpha   81.97374968
_cell_angle_beta   81.97374968
_cell_angle_gamma   120.02109060
_symmetry_Int_Tables_number   1
_chemical_formula_structural   NiPS3
_chemical_formula_sum   'Ni2 P2 S6'
_cell_volume   194.28794120
_cell_formula_units_Z   2
loop_
 _symmetry_equiv_pos_site_id
 _symmetry_equiv_pos_as_xyz
  1  'x, y, z'
loop_
 _atom_site_type_symbol
 _atom_site_label
 _atom_site_symmetry_multiplicity
 _atom_site_fract_x
 _atom_site_fract_y
 _atom_site_fract_z
 _atom_site_occupancy
  Ni  Ni0  1  0.66686800  0.33313200  0.00000000  1
  Ni  Ni1  1  0.33313200  0.66686800  0.00000000  1
  P  P0  1  0.94478600  0.94478600  0.16488100  1
  P  P1  1  0.05521400  0.05521400  0.83511900  1
  S  S0  1  0.92370900  0.57795200  0.22923100  1
  S  S1  1  0.42204800  0.07629100  0.77076900  1
  S  S2  1  0.73047900  0.73047900  0.77065400  1
  S  S3  1  0.26952100  0.26952100  0.22934600  1
  S  S4  1  0.57795200  0.92370900  0.22923100  1
  S  S5  1  0.07629100  0.42204800  0.77076900  1
loop_
_geom_bond_atom_site_label_1
_geom_bond_atom_site_label_2
_geom_bond_distance
_geom_bond_site_symmetry_2
Ni0 S0 2.433604 1_555
Ni0 S1 2.433604 1_554
Ni0 S4 2.435637 1_545
Ni0 S5 2.435637 1_654
Ni0 S3 2.438588 1_555
Ni0 S2 2.438588 1_554
Ni1 S4 2.433604 1_555
Ni1 S5 2.433604 1_554
Ni1 S0 2.435637 1_455
Ni1 S1 2.435637 1_564
Ni1 S3 2.438588 1_555
Ni1 S2 2.438588 1_554
P0 S0 2.056761 1_555
P0 S4 2.056761 1_555
P0 S3 2.058730 1_665
P0 P1 2.183509 1_664
P1 S1 2.056761 1_555
P1 S5 2.056761 1_555
P1 S2 2.058730 1_445
