# generated using pymatgen
data_PH15C18INCl2
_symmetry_space_group_name_H-M   'P 1'
_cell_length_a   8.83556600
_cell_length_b   14.40295200
_cell_length_c   15.47940200
_cell_angle_alpha   90.00000000
_cell_angle_beta   90.00000000
_cell_angle_gamma   90.00000000
_symmetry_Int_Tables_number   1
_chemical_formula_structural   PH15C18INCl2
_chemical_formula_sum   'P4 H60 C72 I4 N4 Cl8'
_cell_volume   1969.88134627
_cell_formula_units_Z   4
loop_
 _symmetry_equiv_pos_site_id
 _symmetry_equiv_pos_as_xyz
  1  'x, y, z'
loop_
 _atom_site_type_symbol
 _atom_site_label
 _atom_site_symmetry_multiplicity
 _atom_site_fract_x
 _atom_site_fract_y
 _atom_site_fract_z
 _atom_site_occupancy
  P  P0  1  0.83180600  0.32111400  0.57888800  1
  P  P1  1  0.33180600  0.67888600  0.42111200  1
  P  P2  1  0.33180600  0.82111400  0.92111200  1
  P  P3  1  0.83180600  0.17888600  0.07888800  1
  H  H0  1  0.22846600  0.86985800  0.44309600  1
  H  H1  1  0.65262500  0.76679500  0.88653500  1
  H  H2  1  0.91268400  0.51979900  0.60249700  1
  H  H3  1  0.97528200  0.13812100  0.38552100  1
  H  H4  1  0.65262500  0.73320500  0.38653500  1
  H  H5  1  0.70210200  0.48267100  0.49398300  1
  H  H6  1  0.28031000  0.11408100  0.61813900  1
  H  H7  1  0.78031000  0.88591900  0.38186100  1
  H  H8  1  0.85891000  0.52292200  0.06244200  1
  H  H9  1  0.63411600  0.46857500  0.90715600  1
  H  H10  1  0.41268400  0.48020100  0.39750300  1
  H  H11  1  0.47528200  0.63812100  0.11447900  1
  H  H12  1  0.91268400  0.98020100  0.10249700  1
  H  H13  1  0.47528200  0.86187900  0.61447900  1
  H  H14  1  0.39056500  0.77118200  0.74114800  1
  H  H15  1  0.15262500  0.23320500  0.11346500  1
  H  H16  1  0.99711300  0.60903000  0.72984900  1
  H  H17  1  0.22846600  0.63014200  0.94309600  1
  H  H18  1  0.28031000  0.38591900  0.11813900  1
  H  H19  1  0.49711300  0.10903000  0.77015100  1
  H  H20  1  0.20210200  0.51732900  0.50601700  1
  H  H21  1  0.35891000  0.47707800  0.93755800  1
  H  H22  1  0.97528200  0.36187900  0.88552100  1
  H  H23  1  0.76828800  0.56772300  0.35997100  1
  H  H24  1  0.26828800  0.43227700  0.64002900  1
  H  H25  1  0.98301600  0.51578400  0.26909400  1
  H  H26  1  0.02915300  0.53096700  0.87163400  1
  H  H27  1  0.89056500  0.22881800  0.25885200  1
  H  H28  1  0.98301600  0.98421600  0.76909400  1
  H  H29  1  0.63392000  0.62308700  0.68716400  1
  H  H30  1  0.85891000  0.97707800  0.56244200  1
  H  H31  1  0.49711300  0.39097000  0.27015100  1
  H  H32  1  0.76828800  0.93227700  0.85997100  1
  H  H33  1  0.52915300  0.03096700  0.62836600  1
  H  H34  1  0.99711300  0.89097000  0.22984900  1
  H  H35  1  0.35891000  0.02292200  0.43755800  1
  H  H36  1  0.57060400  0.70866700  0.55404900  1
  H  H37  1  0.20210200  0.98267100  0.00601700  1
  H  H38  1  0.07060400  0.29133300  0.44595100  1
  H  H39  1  0.13411600  0.53142500  0.09284400  1
  H  H40  1  0.52915300  0.46903300  0.12836600  1
  H  H41  1  0.13392000  0.12308700  0.81283600  1
  H  H42  1  0.89056500  0.27118200  0.75885200  1
  H  H43  1  0.48301600  0.01578400  0.23090600  1
  H  H44  1  0.78031000  0.61408100  0.88186100  1
  H  H45  1  0.72846600  0.36985800  0.05690400  1
  H  H46  1  0.63411600  0.03142500  0.40715600  1
  H  H47  1  0.70210200  0.01732900  0.99398300  1
  H  H48  1  0.63392000  0.87691300  0.18716400  1
  H  H49  1  0.41268400  0.01979900  0.89750300  1
  H  H50  1  0.57060400  0.79133300  0.05404900  1
  H  H51  1  0.72846600  0.13014200  0.55690400  1
  H  H52  1  0.39056500  0.72881800  0.24114800  1
  H  H53  1  0.48301600  0.48421600  0.73090600  1
  H  H54  1  0.07060400  0.20866700  0.94595100  1
  H  H55  1  0.13411600  0.96857500  0.59284400  1
  H  H56  1  0.02915300  0.96903300  0.37163400  1
  H  H57  1  0.26828800  0.06772300  0.14002900  1
  H  H58  1  0.13392000  0.37691300  0.31283600  1
  H  H59  1  0.15262500  0.26679500  0.61346500  1
  C  C0  1  0.29702500  0.54061400  0.54538300  1
  C  C1  1  0.46076200  0.89625900  0.67648300  1
  C  C2  1  0.03933100  0.09981200  0.85255700  1
  C  C3  1  0.45486600  0.52222100  0.67220800  1
  C  C4  1  0.41339600  0.84514300  0.74803600  1
  C  C5  1  0.00331100  0.35178200  0.42807700  1
  C  C6  1  0.79702500  0.04061400  0.95461700  1
  C  C7  1  0.07776600  0.46401400  0.09030000  1
  C  C8  1  0.00331100  0.14821800  0.92807700  1
  C  C9  1  0.08685300  0.20394100  0.60204100  1
  C  C10  1  0.97337000  0.53502500  0.73597800  1
  C  C11  1  0.49137700  0.99111300  0.68428000  1
  C  C12  1  0.92539900  0.48432100  0.66417400  1
  C  C13  1  0.50331100  0.64821800  0.57192300  1
  C  C14  1  0.57776600  0.96401400  0.40970000  1
  C  C15  1  0.43065700  0.70940800  0.91533200  1
  C  C16  1  0.84954700  0.37304800  0.07027800  1
  C  C17  1  0.95486600  0.47777900  0.32779200  1
  C  C18  1  0.08685300  0.29605900  0.10204100  1
  C  C19  1  0.33386300  0.00710500  0.12077700  1
  C  C20  1  0.92247800  0.04093200  0.57301200  1
  C  C21  1  0.91339600  0.34514300  0.75196400  1
  C  C22  1  0.89594700  0.11125900  0.17135900  1
  C  C23  1  0.88135300  0.38092000  0.47969500  1
  C  C24  1  0.97337000  0.96497500  0.23597800  1
  C  C25  1  0.42539900  0.98432100  0.83582600  1
  C  C26  1  0.84954700  0.12695200  0.57027800  1
  C  C27  1  0.95486600  0.02222100  0.82779200  1
  C  C28  1  0.43065700  0.79059200  0.41533200  1
  C  C29  1  0.45486600  0.97777900  0.17220800  1
  C  C30  1  0.96076200  0.39625900  0.82351700  1
  C  C31  1  0.38135300  0.88092000  0.02030500  1
  C  C32  1  0.58685300  0.70394100  0.89795900  1
  C  C33  1  0.53933100  0.59981200  0.64744300  1
  C  C34  1  0.65939900  0.61778300  0.89539200  1
  C  C35  1  0.91339600  0.15485700  0.25196400  1
  C  C36  1  0.92247800  0.45906800  0.07301200  1
  C  C37  1  0.47337000  0.46497500  0.26402200  1
  C  C38  1  0.96076200  0.10374100  0.32351700  1
  C  C39  1  0.99137700  0.00888700  0.31572000  1
  C  C40  1  0.42539900  0.51567900  0.33582600  1
  C  C41  1  0.15939900  0.11778300  0.60460800  1
  C  C42  1  0.92539900  0.01567900  0.16417400  1
  C  C43  1  0.15939900  0.38221700  0.10460800  1
  C  C44  1  0.58685300  0.79605900  0.39795900  1
  C  C45  1  0.93065700  0.29059200  0.08466800  1
  C  C46  1  0.34954700  0.62695200  0.92972200  1
  C  C47  1  0.99137700  0.49111300  0.81572000  1
  C  C48  1  0.57776600  0.53598600  0.90970000  1
  C  C49  1  0.07776600  0.03598600  0.59030000  1
  C  C50  1  0.38135300  0.61908000  0.52030500  1
  C  C51  1  0.65939900  0.88221700  0.39539200  1
  C  C52  1  0.47337000  0.03502500  0.76402200  1
  C  C53  1  0.39594700  0.61125900  0.32864100  1
  C  C54  1  0.83386300  0.50710500  0.37922300  1
  C  C55  1  0.83386300  0.99289500  0.87922300  1
  C  C56  1  0.42247800  0.95906800  0.42698800  1
  C  C57  1  0.46076200  0.60374100  0.17648300  1
  C  C58  1  0.79702500  0.45938600  0.45461700  1
  C  C59  1  0.88135300  0.11908000  0.97969500  1
  C  C60  1  0.34954700  0.87304800  0.42972200  1
  C  C61  1  0.89594700  0.38874100  0.67135900  1
  C  C62  1  0.50331100  0.85178200  0.07192300  1
  C  C63  1  0.42247800  0.54093200  0.92698800  1
  C  C64  1  0.53933100  0.90018800  0.14744300  1
  C  C65  1  0.49137700  0.50888700  0.18428000  1
  C  C66  1  0.41339600  0.65485700  0.24803600  1
  C  C67  1  0.03933100  0.40018800  0.35255700  1
  C  C68  1  0.33386300  0.49289500  0.62077700  1
  C  C69  1  0.39594700  0.88874100  0.82864100  1
  C  C70  1  0.93065700  0.20940800  0.58466800  1
  C  C71  1  0.29702500  0.95938600  0.04538300  1
  I  I0  1  0.00081600  0.76238900  0.04086100  1
  I  I1  1  0.00081600  0.73761100  0.54086100  1
  I  I2  1  0.50081600  0.23761100  0.95913900  1
  I  I3  1  0.50081600  0.26238900  0.45913900  1
  N  N0  1  0.64411200  0.18407300  0.07610900  1
  N  N1  1  0.14411200  0.81592700  0.92389100  1
  N  N2  1  0.14411200  0.68407300  0.42389100  1
  N  N3  1  0.64411200  0.31592700  0.57610900  1
  Cl  Cl0  1  0.06118200  0.71816600  0.32674300  1
  Cl  Cl1  1  0.56118200  0.21816600  0.17325700  1
  Cl  Cl2  1  0.32792900  0.29383100  0.83782200  1
  Cl  Cl3  1  0.06118200  0.78183400  0.82674300  1
  Cl  Cl4  1  0.32792900  0.20616900  0.33782200  1
  Cl  Cl5  1  0.82792900  0.79383100  0.66217800  1
  Cl  Cl6  1  0.82792900  0.70616900  0.16217800  1
  Cl  Cl7  1  0.56118200  0.28183400  0.67325700  1
loop_
_geom_bond_atom_site_label_1
_geom_bond_atom_site_label_2
_geom_bond_distance
_geom_bond_site_symmetry_2
C0 H20 1.089593 1_555
C0 C50 1.408214 1_555
C1 H13 1.087586 1_555
C2 H41 1.090368 1_555
C2 C27 1.397429 1_455
C3 H53 1.089525 1_555
C3 C33 1.397429 1_555
C3 C68 1.398304 1_555
C4 H14 1.089419 1_555
C4 C69 1.405303 1_555
C5 H38 1.089994 1_555
C6 H47 1.089593 1_555
C7 H39 1.091842 1_555
C8 H54 1.089994 1_555
C9 H59 1.090195 1_555
C10 H16 1.090473 1_555
C11 H33 1.090878 1_565
C12 H2 1.088681 1_555
C12 C61 1.405421 1_555
C13 H36 1.089994 1_555
C13 C50 1.405598 1_555
C14 H46 1.091842 1_565
C15 C46 1.404858 1_555
C15 C32 1.408240 1_555
C15 P2 1.832863 1_555
C16 H45 1.090634 1_555
C16 C36 1.397141 1_555
C16 C45 1.404858 1_555
C17 H25 1.089525 1_555
C17 C67 1.397429 1_655
C17 C54 1.398304 1_555
C18 H15 1.090195 1_555
C18 C45 1.408240 1_455
C19 H57 1.089390 1_555
C19 C29 1.398304 1_545
C20 H30 1.089979 1_545
C20 C26 1.397141 1_555
C21 H42 1.089419 1_555
C21 C61 1.405303 1_555
C22 C35 1.405303 1_555
C22 C42 1.405421 1_555
C22 P3 1.821757 1_555
C23 C5 1.405598 1_655
C23 C58 1.408214 1_555
C23 P0 1.814175 1_555
C24 H34 1.090473 1_555
C25 H49 1.088681 1_565
C25 C69 1.405421 1_555
C26 H51 1.090634 1_555
C26 C70 1.404858 1_555
C27 H28 1.089525 1_545
C27 C55 1.398304 1_545
C28 C60 1.404858 1_555
C28 C44 1.408240 1_555
C28 P1 1.832863 1_555
C29 H43 1.089525 1_565
C29 C64 1.397429 1_555
C30 H22 1.087586 1_555
C31 C62 1.405598 1_555
C31 C71 1.408214 1_555
C31 P2 1.814175 1_554
C32 H1 1.090195 1_555
C33 H29 1.090368 1_555
C34 H44 1.089961 1_555
C35 H27 1.089419 1_555
C36 H8 1.089979 1_555
C37 H31 1.090473 1_555
C38 H3 1.087586 1_555
C39 H56 1.090878 1_645
C40 H10 1.088681 1_555
C40 C53 1.405421 1_555
C41 H6 1.089961 1_555
C42 H12 1.088681 1_545
C43 H18 1.089961 1_555
C44 H4 1.090195 1_555
C45 P3 1.832863 1_555
C46 H17 1.090634 1_555
C46 C63 1.397141 1_555
C47 H26 1.090878 1_655
C48 H9 1.091842 1_555
C49 H55 1.091842 1_545
C50 P1 1.814175 1_555
C51 H7 1.089961 1_555
C52 H19 1.090473 1_555
C53 C66 1.405303 1_555
C53 P1 1.821757 1_555
C54 H23 1.089390 1_555
C55 H32 1.089390 1_555
C56 H35 1.089979 1_565
C56 C60 1.397141 1_555
C57 H11 1.087586 1_555
C58 H5 1.089593 1_555
C59 C8 1.405598 1_655
C59 C6 1.408214 1_555
C59 P3 1.814175 1_556
C60 H0 1.090634 1_555
C61 P0 1.821757 1_555
C62 H50 1.089994 1_555
C63 H21 1.089979 1_555
C64 H48 1.090368 1_555
C65 H40 1.090878 1_555
C66 H52 1.089419 1_555
C67 H58 1.090368 1_555
C68 H24 1.089390 1_555
C69 P2 1.821757 1_555
C70 C9 1.408240 1_655
C70 P0 1.832863 1_555
C71 H37 1.089593 1_555
I0 N1 2.340081 1_554
I1 N2 2.340081 1_555
I2 N0 2.340081 1_556
I3 N3 2.340081 1_555
N0 P3 1.660622 1_555
N1 P2 1.660622 1_555
N2 P1 1.660622 1_555
N3 P0 1.660622 1_555
Cl0 N2 1.743391 1_555
Cl1 N0 1.743391 1_555
Cl2 I2 2.552578 1_555
Cl3 N1 1.743391 1_555
Cl4 I3 2.552578 1_555
Cl5 I1 2.552578 1_655
Cl6 I0 2.552578 1_655
Cl7 N3 1.743391 1_555
