# generated using pymatgen
data_Mg21FeSi12(HO16)3
_symmetry_space_group_name_H-M   'P 1'
_cell_length_a   5.81648950
_cell_length_b   7.76464125
_cell_length_c   23.51574718
_cell_angle_alpha   98.96165587
_cell_angle_beta   109.91718332
_cell_angle_gamma   112.08895369
_symmetry_Int_Tables_number   1
_chemical_formula_structural   Mg21FeSi12(HO16)3
_chemical_formula_sum   'Mg21 Fe1 Si12 H3 O48'
_cell_volume   874.72669223
_cell_formula_units_Z   1
loop_
 _symmetry_equiv_pos_site_id
 _symmetry_equiv_pos_as_xyz
  1  'x, y, z'
loop_
 _atom_site_type_symbol
 _atom_site_label
 _atom_site_symmetry_multiplicity
 _atom_site_fract_x
 _atom_site_fract_y
 _atom_site_fract_z
 _atom_site_occupancy
  Mg  Mg0  1  0.86879600  0.87496100  0.65928300  1
  Mg  Mg1  1  0.04626400  0.31792300  0.76147000  1
  Mg  Mg2  1  0.00095600  0.71846900  0.41550100  1
  Mg  Mg3  1  0.54271000  0.94160900  0.70948200  1
  Mg  Mg4  1  0.48277400  0.12063800  0.96030900  1
  Mg  Mg5  1  0.98647400  0.23420600  0.40970400  1
  Mg  Mg6  1  0.98318200  0.88305500  0.04493200  1
  Mg  Mg7  1  0.97897500  0.73645600  0.91259500  1
  Mg  Mg8  1  0.48215600  0.13007800  0.61969700  1
  Mg  Mg9  1  0.97353000  0.49604700  0.99509900  1
  Mg  Mg10  1  0.98343000  0.26601000  0.08542600  1
  Mg  Mg11  1  0.98991900  0.11920400  0.95997900  1
  Mg  Mg12  1  0.99430900  0.70040800  0.57116900  1
  Mg  Mg13  1  0.00823900  0.01821400  0.83120500  1
  Mg  Mg14  1  0.01556000  0.54363600  0.67469100  1
  Mg  Mg15  1  0.53415600  0.08970500  0.27252500  1
  Mg  Mg16  1  0.48576500  0.87371400  0.04025900  1
  Mg  Mg17  1  0.98858500  0.18866800  0.61210100  1
  Mg  Mg18  1  0.93298100  0.71717800  0.22367700  1
  Mg  Mg19  1  0.98219000  0.00185100  0.49741100  1
  Mg  Mg20  1  0.97407200  0.11508400  0.20637800  1
  Fe  Fe0  1  0.96574500  0.48772300  0.31185400  1
  Si  Si0  1  0.41657800  0.79174600  0.84951700  1
  Si  Si1  1  0.37221300  0.50273600  0.92095600  1
  Si  Si2  1  0.43091500  0.76836000  0.52312200  1
  Si  Si3  1  0.36326500  0.49839200  0.57998500  1
  Si  Si4  1  0.54753800  0.13496500  0.82564700  1
  Si  Si5  1  0.63704400  0.55911200  0.74519400  1
  Si  Si6  1  0.34801700  0.75951100  0.15589700  1
  Si  Si7  1  0.56119300  0.72823200  0.31135000  1
  Si  Si8  1  0.49765500  0.06312500  0.47089400  1
  Si  Si9  1  0.46995400  0.39316400  0.36006500  1
  Si  Si10  1  0.57023300  0.24088000  0.15427400  1
  Si  Si11  1  0.57415300  0.49011600  0.06840400  1
  H  H0  1  0.55900700  0.48166500  0.82521300  1
  H  H1  1  0.48177700  0.44695300  0.45890000  1
  H  H2  1  0.40375500  0.50532000  0.17265200  1
  O  O0  1  0.20766300  0.97136400  0.99308200  1
  O  O1  1  0.23067200  0.61115900  0.95366800  1
  O  O2  1  0.24957800  0.88067600  0.87874200  1
  O  O3  1  0.45654000  0.76557900  0.59902200  1
  O  O4  1  0.35839500  0.86237400  0.78433000  1
  O  O5  1  0.24429200  0.26865600  0.91522800  1
  O  O6  1  0.29597800  0.55423000  0.84800300  1
  O  O7  1  0.10816900  0.49046600  0.60240400  1
  O  O8  1  0.12291900  0.78933600  0.50858800  1
  O  O9  1  0.29970000  0.45833300  0.71861700  1
  O  O10  1  0.28701600  0.18023500  0.79918200  1
  O  O11  1  0.71251600  0.60731100  0.95251300  1
  O  O12  1  0.75398400  0.88390200  0.87938200  1
  O  O13  1  0.69065600  0.96518200  0.32859600  1
  O  O14  1  0.39826900  0.81073100  0.44972700  1
  O  O15  1  0.22453000  0.95572000  0.65398900  1
  O  O16  1  0.30256500  0.50838600  0.50221000  1
  O  O17  1  0.73164300  0.54710900  0.82119500  1
  O  O18  1  0.75256800  0.78773900  0.74182100  1
  O  O19  1  0.70717700  0.21633800  0.90526200  1
  O  O20  1  0.21404700  0.62813200  0.27743200  1
  O  O21  1  0.22592800  0.86050600  0.19672000  1
  O  O22  1  0.18613200  0.04805500  0.43712300  1
  O  O23  1  0.15567500  0.37047800  0.35385900  1
  O  O24  1  0.71325600  0.57958700  0.61635200  1
  O  O25  1  0.78321400  0.86821600  0.54975100  1
  O  O26  1  0.76845300  0.16183600  0.79494500  1
  O  O27  1  0.78325700  0.44491600  0.71843600  1
  O  O28  1  0.22257200  0.74823800  0.08052800  1
  O  O29  1  0.30888800  0.21213100  0.28768800  1
  O  O30  1  0.23904200  0.52486000  0.15729300  1
  O  O31  1  0.57256200  0.39644200  0.43748500  1
  O  O32  1  0.60847900  0.64966200  0.37373100  1
  O  O33  1  0.60792500  0.13023600  0.54933000  1
  O  O34  1  0.82077200  0.11534100  0.67585900  1
  O  O35  1  0.23856900  0.14467000  0.12913800  1
  O  O36  1  0.23327300  0.37546500  0.03653000  1
  O  O37  1  0.74909100  0.64568500  0.28311600  1
  O  O38  1  0.68534400  0.85640400  0.19452100  1
  O  O39  1  0.26002000  0.25157800  0.57499100  1
  O  O40  1  0.79543200  0.41133100  0.36629800  1
  O  O41  1  0.67078200  0.46746600  0.14496700  1
  O  O42  1  0.69659200  0.71817000  0.07272500  1
  O  O43  1  0.72893900  0.25677900  0.23005900  1
  O  O44  1  0.76167700  0.13212700  0.45467800  1
  O  O45  1  0.71844700  0.13438300  0.12378500  1
  O  O46  1  0.71390900  0.37546600  0.03708700  1
  O  O47  1  0.75783000  0.02340400  0.00803200  1
loop_
_geom_bond_atom_site_label_1
_geom_bond_atom_site_label_2
_geom_bond_distance
_geom_bond_site_symmetry_2
Mg0 O15 1.978379 1_655
Mg0 O34 1.988288 1_565
Mg0 O24 2.047816 1_555
Mg0 O3 2.063378 1_555
Mg0 O18 2.375318 1_555
Mg0 O25 2.439201 1_555
Mg1 O34 1.977439 1_455
Mg1 O26 2.095373 1_455
Mg1 O6 2.106125 1_555
Mg1 O10 2.113193 1_555
Mg1 O9 2.126683 1_555
Mg1 O27 2.174220 1_455
Mg2 O14 1.951810 1_555
Mg2 O32 1.962929 1_455
Mg2 O8 1.967470 1_555
Mg2 O40 2.123437 1_455
Mg2 O22 2.261892 1_565
Mg3 O15 1.921349 1_555
Mg3 O26 2.032214 1_565
Mg3 O18 2.059884 1_555
Mg3 O34 2.150200 1_565
Mg3 O4 2.398488 1_555
Mg3 O3 2.521566 1_555
Mg4 O2 2.050310 1_545
Mg4 O46 2.053015 1_556
Mg4 O0 2.054644 1_545
Mg4 O47 2.082814 1_556
Mg4 O19 2.157047 1_555
Mg4 O5 2.223865 1_555
Mg5 O44 1.969836 1_555
Mg5 O23 2.083992 1_655
Mg5 O13 2.186655 1_545
Mg5 O22 2.212725 1_655
Mg5 O40 2.232055 1_555
Mg5 O16 2.352262 1_655
Mg6 O42 2.059822 1_555
Mg6 O47 2.062181 1_565
Mg6 O28 2.076151 1_655
Mg6 O0 2.081700 1_654
Mg6 O35 2.174246 1_665
Mg6 O11 2.338793 1_554
Mg7 O0 2.015693 1_655
Mg7 O17 2.041784 1_555
Mg7 O2 2.042281 1_655
Mg7 O12 2.083822 1_555
Mg7 O11 2.098661 1_555
Mg7 O1 2.103147 1_655
Mg8 O39 1.991207 1_555
Mg8 O34 2.020102 1_555
Mg8 O33 2.024346 1_555
Mg8 O15 2.089554 1_545
Mg8 O27 2.583732 1_555
Mg9 O1 2.060054 1_655
Mg9 O11 2.067427 1_555
Mg9 O46 2.091030 1_556
Mg9 O36 2.110333 1_656
Mg9 O28 2.151039 1_656
Mg9 O19 2.321668 1_555
Mg10 O47 2.007091 1_555
Mg10 O30 2.022037 1_655
Mg10 O45 2.069659 1_555
Mg10 O35 2.112000 1_655
Mg10 O46 2.135634 1_555
Mg10 O36 2.161073 1_655
Mg11 O12 2.019125 1_545
Mg11 O47 2.049034 1_556
Mg11 O0 2.056173 1_645
Mg11 O36 2.057447 1_656
Mg11 O19 2.173136 1_555
Mg11 O5 2.189328 1_655
Mg12 O8 1.969834 1_655
Mg12 O25 2.108389 1_555
Mg12 O7 2.118716 1_655
Mg12 O15 2.130705 1_655
Mg12 O24 2.240971 1_555
Mg12 O3 2.363721 1_655
Mg13 O10 2.090907 1_555
Mg13 O5 2.125371 1_555
Mg13 O18 2.128153 1_445
Mg13 O26 2.138141 1_455
Mg13 O2 2.188806 1_545
Mg13 O12 2.215364 1_445
Mg14 O27 1.971092 1_455
Mg14 O24 1.974011 1_455
Mg14 O7 1.980573 1_555
Mg14 O9 2.027415 1_555
Mg15 O13 1.934787 1_545
Mg15 O29 1.974094 1_555
Mg15 O21 1.998406 1_545
Mg15 O43 2.008182 1_555
Mg15 O40 2.560372 1_555
Mg16 O47 2.034116 1_565
Mg16 O42 2.075700 1_555
Mg16 O28 2.083952 1_555
Mg16 O0 2.093811 1_554
Mg16 O45 2.162486 1_565
Mg16 O1 2.208436 1_554
Mg17 O39 1.996061 1_655
Mg17 O33 2.023883 1_555
Mg17 O34 2.090437 1_555
Mg17 O7 2.252950 1_655
Mg17 O25 2.280902 1_545
Mg17 O9 2.522105 1_655
Mg18 O21 2.018233 1_655
Mg18 O37 2.054185 1_555
Mg18 O41 2.060570 1_555
Mg18 O38 2.107741 1_555
Mg18 O20 2.112584 1_655
Mg19 O44 2.022981 1_555
Mg19 O39 2.057227 1_655
Mg19 O25 2.096723 1_545
Mg19 O8 2.113368 1_645
Mg19 O22 2.128370 1_655
Mg20 O38 1.975337 1_545
Mg20 O29 1.981620 1_655
Mg20 O45 2.072716 1_555
Mg20 O43 2.254643 1_555
Fe0 O23 1.821524 1_655
Fe0 O40 1.905544 1_555
Fe0 O20 1.953688 1_655
Fe0 O43 2.018720 1_555
Fe0 O37 2.095118 1_555
H0 O17 0.985534 1_555
H1 O31 0.980645 1_555
H2 O30 0.980800 1_555
O1 Si1 1.652041 1_555
O2 Si0 1.644406 1_555
O3 Si2 1.743999 1_555
O3 Si3 1.870141 1_555
O4 Si0 1.677245 1_555
O4 Si4 1.874561 1_565
O5 Si1 1.647297 1_555
O6 Si0 1.698255 1_555
O6 Si1 1.768709 1_555
O7 Si3 1.719788 1_555
O8 Si2 1.781089 1_555
O9 Si5 1.646312 1_555
O10 Si4 1.622745 1_555
O11 Si1 1.652465 1_555
O12 Si0 1.644674 1_555
O13 Si7 1.622958 1_555
O14 Si8 1.752303 1_565
O14 Si2 1.767415 1_555
O16 Si3 1.760840 1_555
O16 Si2 1.783577 1_555
O17 Si5 1.710572 1_555
O18 Si5 1.670992 1_555
O19 Si4 1.665040 1_555
O20 Si7 1.687187 1_555
O21 Si6 1.639987 1_555
O22 Si8 1.660958 1_555
O23 Si9 1.721037 1_555
O24 Si3 1.718609 1_555
O25 Si2 1.723902 1_555
O26 Si4 1.641113 1_555
O27 Si5 1.631971 1_555
O28 Si6 1.644339 1_555
O29 Si9 1.711201 1_555
O30 Si6 1.699031 1_555
O31 Si9 1.704472 1_555
O32 Si7 1.652225 1_555
O32 Si9 1.770961 1_555
O33 Si8 1.651725 1_555
O35 Si10 1.621921 1_555
O36 Si11 1.654568 1_555
O37 Si7 1.713104 1_555
O38 Si6 1.644201 1_555
O39 Si3 1.750251 1_555
O40 Si9 1.796947 1_555
O41 Si10 1.708389 1_555
O41 Si11 1.752694 1_555
O42 Si11 1.612230 1_555
O43 Si10 1.663820 1_555
O44 Si8 1.623150 1_555
O45 Si10 1.647293 1_555
O46 Si11 1.656350 1_555
