# generated using pymatgen
data_RbAg4I5
_symmetry_space_group_name_H-M   'P 1'
_cell_length_a   11.69049400
_cell_length_b   11.74786960
_cell_length_c   11.94251103
_cell_angle_alpha   88.51547559
_cell_angle_beta   89.01231045
_cell_angle_gamma   89.56306426
_symmetry_Int_Tables_number   1
_chemical_formula_structural   RbAg4I5
_chemical_formula_sum   'Rb4 Ag16 I20'
_cell_volume   1639.32893805
_cell_formula_units_Z   4
loop_
 _symmetry_equiv_pos_site_id
 _symmetry_equiv_pos_as_xyz
  1  'x, y, z'
loop_
 _atom_site_type_symbol
 _atom_site_label
 _atom_site_symmetry_multiplicity
 _atom_site_fract_x
 _atom_site_fract_y
 _atom_site_fract_z
 _atom_site_occupancy
  Rb  Rb0  1  0.85758600  0.83591900  0.37310500  1
  Rb  Rb1  1  0.42599400  0.63459000  0.64562600  1
  Rb  Rb2  1  0.15476900  0.41729700  0.11070100  1
  Rb  Rb3  1  0.63662600  0.12094300  0.87966500  1
  Ag  Ag0  1  0.61608800  0.73916000  0.97537700  1
  Ag  Ag1  1  0.97629200  0.65676100  0.81531400  1
  Ag  Ag2  1  0.71512600  0.57059000  0.14018700  1
  Ag  Ag3  1  0.75779500  0.33205600  0.52453600  1
  Ag  Ag4  1  0.51592100  0.29425600  0.47461100  1
  Ag  Ag5  1  0.96366300  0.41440300  0.74181300  1
  Ag  Ag6  1  0.47764800  0.31390800  0.22746100  1
  Ag  Ag7  1  0.01298600  0.22964900  0.53920800  1
  Ag  Ag8  1  0.26912600  0.22031800  0.44332500  1
  Ag  Ag9  1  0.99137200  0.15219600  0.80332200  1
  Ag  Ag10  1  0.54806100  0.05840300  0.24114100  1
  Ag  Ag11  1  0.24097800  0.00230800  0.57694500  1
  Ag  Ag12  1  0.22704000  0.97928300  0.82631500  1
  Ag  Ag13  1  0.29051500  0.00419300  0.31394100  1
  Ag  Ag14  1  0.99722700  0.89737600  0.72489700  1
  Ag  Ag15  1  0.24306800  0.96050200  0.07226000  1
  I  I0  1  0.02908300  0.94961900  0.95819700  1
  I  I1  1  0.68918400  0.92068200  0.11211300  1
  I  I2  1  0.44142100  0.88177000  0.82766000  1
  I  I3  1  0.13047000  0.80112600  0.55582500  1
  I  I4  1  0.29286900  0.78958700  0.22351500  1
  I  I5  1  0.77067900  0.74973500  0.77785500  1
  I  I6  1  0.60340300  0.69129400  0.41563400  1
  I  I7  1  0.93435900  0.61216100  0.18313000  1
  I  I8  1  0.17330400  0.53842500  0.82625500  1
  I  I9  1  0.52231400  0.51852200  0.03186500  1
  I  I10  1  0.95803400  0.46331300  0.51496000  1
  I  I11  1  0.33565200  0.44074800  0.37719000  1
  I  I12  1  0.58370400  0.36142400  0.68698800  1
  I  I13  1  0.88426700  0.31361100  0.93909600  1
  I  I14  1  0.70445800  0.26126600  0.29746500  1
  I  I15  1  0.21846100  0.20551200  0.70059300  1
  I  I16  1  0.37227800  0.17074800  0.07066600  1
  I  I17  1  0.07988900  0.13467200  0.32224400  1
  I  I18  1  0.84387700  0.07269200  0.62472600  1
  I  I19  1  0.46921600  0.04268200  0.47287500  1
loop_
_geom_bond_atom_site_label_1
_geom_bond_atom_site_label_2
_geom_bond_distance
_geom_bond_site_symmetry_2
Ag0 I1 2.863684 1_556
Ag0 I9 2.881447 1_556
Ag0 I5 2.947420 1_555
Ag0 I2 3.163438 1_555
Ag1 I5 2.672583 1_555
Ag1 I8 2.684479 1_655
Ag2 I7 2.673494 1_555
Ag2 I9 2.700192 1_555
Ag3 I10 2.811988 1_555
Ag3 I12 2.812986 1_555
Ag3 I14 2.935526 1_555
Ag3 I18 3.396216 1_555
Ag4 I12 2.804637 1_555
Ag4 I11 2.946540 1_555
Ag4 I19 3.010226 1_555
Ag4 I14 3.058194 1_555
Ag5 I10 2.756652 1_555
Ag5 I13 2.758877 1_555
Ag5 I8 3.059747 1_655
Ag6 I16 2.850716 1_555
Ag6 I14 2.852469 1_555
Ag6 I11 2.858575 1_555
Ag6 I9 3.345659 1_555
Ag7 I10 2.823156 1_455
Ag7 I18 2.870518 1_455
Ag7 I17 2.938891 1_555
Ag7 I15 3.112244 1_555
Ag8 I11 2.799673 1_555
Ag8 I17 2.866545 1_555
Ag8 I15 3.119618 1_555
Ag8 I19 3.141168 1_555
Ag9 I13 2.801068 1_555
Ag9 I18 2.940970 1_555
Ag9 I15 2.969610 1_655
Ag9 I0 3.010495 1_645
Ag10 I1 2.777549 1_545
Ag10 I19 2.903594 1_555
Ag10 I14 3.109172 1_555
Ag10 I16 3.173866 1_555
Ag11 I3 2.721624 1_545
Ag11 I15 2.847507 1_555
Ag11 I19 2.960315 1_555
Ag12 I2 2.747794 1_555
Ag12 I0 2.795688 1_555
Ag12 I15 3.020291 1_565
Ag13 I4 2.768072 1_545
Ag13 I17 2.892124 1_555
Ag13 I19 2.892586 1_555
Ag14 I3 2.786550 1_655
Ag14 I0 2.899323 1_655
Ag14 I18 2.962582 1_565
Ag14 I5 3.221518 1_555
Ag15 I4 2.732035 1_555
Ag15 I0 2.874242 1_554
Ag15 I16 2.904505 1_565
I1 Rb3 3.649253 1_564
I1 Rb0 3.821423 1_555
I2 Rb1 3.679596 1_555
I2 Rb3 3.704774 1_565
I3 Rb0 3.908929 1_455
I3 Rb1 4.102382 1_555
I6 Rb0 3.457587 1_555
I6 Rb1 3.466896 1_555
I7 Rb2 3.544572 1_655
I7 Rb0 3.614647 1_555
I8 Rb2 3.652443 1_556
I8 Rb1 3.789608 1_555
I11 Rb2 3.868129 1_555
I11 Rb1 4.136428 1_555
I12 Rb3 3.653025 1_555
I12 Rb1 3.714933 1_555
I13 Rb3 3.776535 1_555
I13 Rb2 4.011912 1_656
I16 Rb3 3.859316 1_554
I16 Rb2 3.873133 1_555
I17 Rb2 4.207878 1_555
I18 Rb3 3.908378 1_555
I18 Rb0 4.147589 1_545
