# generated using pymatgen
data_SiO2
_symmetry_space_group_name_H-M   'P 1'
_cell_length_a   13.22997826
_cell_length_b   13.22997826
_cell_length_c   29.20676200
_cell_angle_alpha   90.00000000
_cell_angle_beta   90.00000000
_cell_angle_gamma   142.57228175
_symmetry_Int_Tables_number   1
_chemical_formula_structural   SiO2
_chemical_formula_sum   'Si56 O112'
_cell_volume   3106.94702110
_cell_formula_units_Z   56
loop_
 _symmetry_equiv_pos_site_id
 _symmetry_equiv_pos_as_xyz
  1  'x, y, z'
loop_
 _atom_site_type_symbol
 _atom_site_label
 _atom_site_symmetry_multiplicity
 _atom_site_fract_x
 _atom_site_fract_y
 _atom_site_fract_z
 _atom_site_occupancy
  Si  Si0  1  0.41835500  0.95720800  0.54972200  1
  Si  Si1  1  0.84006200  0.79392700  0.60626100  1
  Si  Si2  1  0.20178000  0.42606700  0.45406800  1
  Si  Si3  1  0.04279200  0.58164500  0.54972200  1
  Si  Si4  1  0.34006200  0.29392700  0.89373900  1
  Si  Si5  1  0.91835500  0.45720800  0.95027800  1
  Si  Si6  1  0.26384700  0.10798200  0.05100100  1
  Si  Si7  1  0.64142800  0.99249000  0.60595000  1
  Si  Si8  1  0.92606700  0.70178000  0.95406800  1
  Si  Si9  1  0.39201800  0.23615300  0.44899900  1
  Si  Si10  1  0.85857200  0.50751000  0.10595000  1
  Si  Si11  1  0.96201400  0.67639000  0.20035000  1
  Si  Si12  1  0.50751000  0.85857200  0.89405000  1
  Si  Si13  1  0.19477400  0.16700500  0.20029600  1
  Si  Si14  1  0.89201800  0.73615300  0.05100100  1
  Si  Si15  1  0.53798600  0.82361000  0.70035000  1
  Si  Si16  1  0.79392700  0.84006200  0.39373900  1
  Si  Si17  1  0.10798200  0.26384700  0.94899900  1
  Si  Si18  1  0.17639000  0.46201400  0.70035000  1
  Si  Si19  1  0.80522600  0.83299500  0.79970400  1
  Si  Si20  1  0.79822000  0.57393300  0.54593200  1
  Si  Si21  1  0.20607300  0.15993800  0.60626100  1
  Si  Si22  1  0.42606700  0.20178000  0.54593200  1
  Si  Si23  1  0.65993800  0.70607300  0.10626100  1
  Si  Si24  1  0.45720800  0.91835500  0.04972200  1
  Si  Si25  1  0.82361000  0.53798600  0.29965000  1
  Si  Si26  1  0.29392700  0.34006200  0.10626100  1
  Si  Si27  1  0.70607300  0.65993800  0.89373900  1
  Si  Si28  1  0.99249000  0.64142800  0.39405000  1
  Si  Si29  1  0.33299500  0.30522600  0.29970400  1
  Si  Si30  1  0.70178000  0.92606700  0.04593200  1
  Si  Si31  1  0.60798200  0.76384700  0.55100100  1
  Si  Si32  1  0.15993800  0.20607300  0.39373900  1
  Si  Si33  1  0.58164500  0.04279200  0.45027800  1
  Si  Si34  1  0.69477400  0.66700500  0.29970400  1
  Si  Si35  1  0.23615300  0.39201800  0.55100100  1
  Si  Si36  1  0.54279200  0.08164500  0.95027800  1
  Si  Si37  1  0.00751000  0.35857200  0.60595000  1
  Si  Si38  1  0.16700500  0.19477400  0.79970400  1
  Si  Si39  1  0.57393300  0.79822000  0.45406800  1
  Si  Si40  1  0.08164500  0.54279200  0.04972200  1
  Si  Si41  1  0.73615300  0.89201800  0.94899900  1
  Si  Si42  1  0.32361000  0.03798600  0.20035000  1
  Si  Si43  1  0.46201400  0.17639000  0.29965000  1
  Si  Si44  1  0.07393300  0.29822000  0.04593200  1
  Si  Si45  1  0.95720800  0.41835500  0.45027800  1
  Si  Si46  1  0.03798600  0.32361000  0.79965000  1
  Si  Si47  1  0.67639000  0.96201400  0.79965000  1
  Si  Si48  1  0.76384700  0.60798200  0.44899900  1
  Si  Si49  1  0.29822000  0.07393300  0.95406800  1
  Si  Si50  1  0.14142800  0.49249000  0.89405000  1
  Si  Si51  1  0.35857200  0.00751000  0.39405000  1
  Si  Si52  1  0.66700500  0.69477400  0.70029600  1
  Si  Si53  1  0.83299500  0.80522600  0.20029600  1
  Si  Si54  1  0.30522600  0.33299500  0.70029600  1
  Si  Si55  1  0.49249000  0.14142800  0.10595000  1
  O  O0  1  0.10818100  0.26499800  0.80531200  1
  O  O1  1  0.04222600  0.38287100  0.66083400  1
  O  O2  1  0.75928000  0.24072000  0.44631200  1
  O  O3  1  0.69978600  0.72649200  0.16062200  1
  O  O4  1  0.87597100  0.12402900  0.03705800  1
  O  O5  1  0.30021400  0.27350800  0.83937800  1
  O  O6  1  0.38287100  0.04222600  0.33916600  1
  O  O7  1  0.66282800  0.93055500  0.92124700  1
  O  O8  1  0.19978600  0.22649200  0.33937800  1
  O  O9  1  0.39215400  0.05692100  0.55681200  1
  O  O10  1  0.80698600  0.74515000  0.42226300  1
  O  O11  1  0.04155400  0.51356200  0.91022100  1
  O  O12  1  0.48643800  0.95844600  0.91022100  1
  O  O13  1  0.45777400  0.11712900  0.16083400  1
  O  O14  1  0.74515000  0.80698600  0.57773700  1
  O  O15  1  0.24072000  0.75928000  0.55368800  1
  O  O16  1  0.22649200  0.19978600  0.66062200  1
  O  O17  1  0.95844600  0.48643800  0.08977900  1
  O  O18  1  0.16363400  0.83636600  0.19566000  1
  O  O19  1  0.25327200  0.24672800  0.75000000  1
  O  O20  1  0.66153000  0.33847000  0.09449700  1
  O  O21  1  0.88287100  0.54222600  0.16083400  1
  O  O22  1  0.60818100  0.76499800  0.69468800  1
  O  O23  1  0.45844600  0.98643800  0.41022100  1
  O  O24  1  0.75327200  0.74672800  0.75000000  1
  O  O25  1  0.74672800  0.75327200  0.25000000  1
  O  O26  1  0.46127100  0.53872900  0.09796600  1
  O  O27  1  0.27350800  0.30021400  0.16062200  1
  O  O28  1  0.03872900  0.96127100  0.59796600  1
  O  O29  1  0.73500200  0.89181900  0.80531200  1
  O  O30  1  0.16153000  0.83847000  0.40550300  1
  O  O31  1  0.93696200  0.06303800  0.95354700  1
  O  O32  1  0.60784600  0.94307900  0.44318800  1
  O  O33  1  0.24672800  0.25327200  0.25000000  1
  O  O34  1  0.55692100  0.89215400  0.05681200  1
  O  O35  1  0.15379200  0.32318000  0.49997100  1
  O  O36  1  0.33636600  0.66363400  0.69566000  1
  O  O37  1  0.32318000  0.15379200  0.50002900  1
  O  O38  1  0.43055500  0.16282800  0.42124700  1
  O  O39  1  0.96127100  0.03872900  0.40203400  1
  O  O40  1  0.74072000  0.25928000  0.94631200  1
  O  O41  1  0.51356200  0.04155400  0.08977900  1
  O  O42  1  0.01356200  0.54155400  0.41022100  1
  O  O43  1  0.33847000  0.66153000  0.90550300  1
  O  O44  1  0.99319000  0.00681000  0.19564700  1
  O  O45  1  0.10784600  0.44307900  0.05681200  1
  O  O46  1  0.05692100  0.39215400  0.44318800  1
  O  O47  1  0.23500200  0.39181900  0.69468800  1
  O  O48  1  0.33717200  0.06944500  0.07875300  1
  O  O49  1  0.72649200  0.69978600  0.83937800  1
  O  O50  1  0.86617800  0.72261200  0.91110400  1
  O  O51  1  0.89181900  0.73500200  0.19468800  1
  O  O52  1  0.00000000  0.50000000  0.50000000  1
  O  O53  1  0.22261200  0.36617800  0.41110400  1
  O  O54  1  0.84620800  0.67682000  0.50002900  1
  O  O55  1  0.37597100  0.62402900  0.46294200  1
  O  O56  1  0.54155400  0.01356200  0.58977900  1
  O  O57  1  0.72261200  0.86617800  0.08889600  1
  O  O58  1  0.25485000  0.19301400  0.42226300  1
  O  O59  1  0.65379200  0.82318000  0.00002900  1
  O  O60  1  0.80021400  0.77350800  0.66062200  1
  O  O61  1  0.83717200  0.56944500  0.42124700  1
  O  O62  1  0.76499800  0.60818100  0.30531200  1
  O  O63  1  0.49319000  0.50681000  0.30435300  1
  O  O64  1  0.91000300  0.58999700  0.25000000  1
  O  O65  1  0.12402900  0.87597100  0.96294200  1
  O  O66  1  0.82318000  0.65379200  0.99997100  1
  O  O67  1  0.83636600  0.16363400  0.80434000  1
  O  O68  1  0.83847000  0.16153000  0.59449700  1
  O  O69  1  0.16282800  0.43055500  0.57875300  1
  O  O70  1  0.56944500  0.83717200  0.57875300  1
  O  O71  1  0.17682000  0.34620800  0.00002900  1
  O  O72  1  0.61712900  0.95777400  0.66083400  1
  O  O73  1  0.58999700  0.91000300  0.75000000  1
  O  O74  1  0.00681000  0.99319000  0.80435300  1
  O  O75  1  0.24515000  0.30698600  0.92226300  1
  O  O76  1  0.56303800  0.43696200  0.45354700  1
  O  O77  1  0.62402900  0.37597100  0.53705800  1
  O  O78  1  0.50000000  0.00000000  0.00000000  1
  O  O79  1  0.69301400  0.75485000  0.92226300  1
  O  O80  1  0.36617800  0.22261200  0.58889600  1
  O  O81  1  0.30698600  0.24515000  0.07773700  1
  O  O82  1  0.34620800  0.17682000  0.99997100  1
  O  O83  1  0.50000000  0.00000000  0.50000000  1
  O  O84  1  0.26499800  0.10818100  0.19468800  1
  O  O85  1  0.19301400  0.25485000  0.57773700  1
  O  O86  1  0.11712900  0.45777400  0.83916600  1
  O  O87  1  0.89215400  0.55692100  0.94318800  1
  O  O88  1  0.66363400  0.33636600  0.30434000  1
  O  O89  1  0.77738800  0.63382200  0.58889600  1
  O  O90  1  0.53872900  0.46127100  0.90203400  1
  O  O91  1  0.41000300  0.08999700  0.25000000  1
  O  O92  1  0.44307900  0.10784600  0.94318800  1
  O  O93  1  0.13382200  0.27738800  0.08889600  1
  O  O94  1  0.67682000  0.84620800  0.49997100  1
  O  O95  1  0.93055500  0.66282800  0.07875300  1
  O  O96  1  0.94307900  0.60784600  0.55681200  1
  O  O97  1  0.25928000  0.74072000  0.05368800  1
  O  O98  1  0.63382200  0.77738800  0.41110400  1
  O  O99  1  0.06944500  0.33717200  0.92124700  1
  O  O100  1  0.39181900  0.23500200  0.30531200  1
  O  O101  1  0.00000000  0.50000000  0.00000000  1
  O  O102  1  0.50681000  0.49319000  0.69564700  1
  O  O103  1  0.54222600  0.88287100  0.83916600  1
  O  O104  1  0.27738800  0.13382200  0.91110400  1
  O  O105  1  0.77350800  0.80021400  0.33937800  1
  O  O106  1  0.95777400  0.61712900  0.33916600  1
  O  O107  1  0.98643800  0.45844600  0.58977900  1
  O  O108  1  0.06303800  0.93696200  0.04645300  1
  O  O109  1  0.08999700  0.41000300  0.75000000  1
  O  O110  1  0.43696200  0.56303800  0.54645300  1
  O  O111  1  0.75485000  0.69301400  0.07773700  1
loop_
_geom_bond_atom_site_label_1
_geom_bond_atom_site_label_2
_geom_bond_distance
_geom_bond_site_symmetry_2
O0 Si46 1.623216 1_555
O0 Si38 1.626036 1_555
O1 Si18 1.620853 1_555
O1 Si37 1.627682 1_555
O2 Si45 1.618468 1_555
O2 Si33 1.618468 1_555
O3 Si53 1.618023 1_555
O3 Si23 1.626509 1_555
O4 Si30 1.628287 1_545
O4 Si44 1.628287 1_655
O5 Si38 1.618023 1_555
O5 Si4 1.626509 1_555
O6 Si43 1.620853 1_555
O6 Si51 1.627682 1_555
O7 Si41 1.625894 1_555
O7 Si12 1.628587 1_555
O8 Si29 1.618023 1_555
O8 Si32 1.626509 1_555
O9 Si22 1.615398 1_555
O9 Si0 1.621607 1_545
O10 Si48 1.607410 1_555
O10 Si16 1.626406 1_555
O11 Si50 1.622268 1_555
O11 Si5 1.628253 1_455
O12 Si12 1.622268 1_555
O12 Si36 1.628253 1_565
O13 Si42 1.620853 1_555
O13 Si55 1.627682 1_555
O14 Si31 1.607410 1_555
O14 Si1 1.626406 1_555
O15 Si0 1.618468 1_555
O15 Si3 1.618468 1_555
O16 Si54 1.618023 1_555
O16 Si21 1.626509 1_555
O17 Si10 1.622268 1_555
O17 Si40 1.628253 1_655
O18 Si11 1.626934 1_455
O18 Si42 1.626934 1_565
O19 Si38 1.623733 1_555
O19 Si54 1.623733 1_555
O20 Si10 1.627784 1_555
O20 Si55 1.627784 1_555
O21 Si11 1.620853 1_555
O21 Si10 1.627682 1_555
O22 Si15 1.623216 1_555
O22 Si52 1.626036 1_555
O23 Si51 1.622268 1_565
O23 Si33 1.628253 1_565
O24 Si19 1.623733 1_555
O24 Si52 1.623733 1_555
O25 Si34 1.623733 1_555
O25 Si53 1.623733 1_555
O26 Si26 1.620642 1_555
O26 Si23 1.620642 1_555
O27 Si13 1.618023 1_555
O27 Si26 1.626509 1_555
O28 Si21 1.620642 1_565
O28 Si1 1.620642 1_455
O29 Si47 1.623216 1_555
O29 Si19 1.626036 1_555
O30 Si51 1.627784 1_565
O30 Si28 1.627784 1_455
O31 Si17 1.627285 1_655
O31 Si41 1.627285 1_545
O32 Si39 1.615398 1_555
O32 Si33 1.621607 1_565
O33 Si29 1.623733 1_555
O33 Si13 1.623733 1_555
O34 Si30 1.615398 1_555
O34 Si24 1.621607 1_555
O35 Si35 1.631556 1_555
O35 Si2 1.637311 1_555
O36 Si15 1.626934 1_555
O36 Si18 1.626934 1_555
O37 Si9 1.631556 1_555
O37 Si22 1.637311 1_555
O38 Si9 1.625894 1_555
O38 Si51 1.628587 1_555
O39 Si32 1.620642 1_655
O39 Si16 1.620642 1_545
O40 Si5 1.618468 1_555
O40 Si36 1.618468 1_555
O41 Si55 1.622268 1_555
O41 Si24 1.628253 1_545
O42 Si28 1.622268 1_455
O42 Si45 1.628253 1_455
O43 Si12 1.627784 1_555
O43 Si50 1.627784 1_555
O44 Si13 1.626545 1_655
O44 Si53 1.626545 1_545
O45 Si44 1.615398 1_555
O45 Si40 1.621607 1_555
O46 Si2 1.615398 1_555
O46 Si45 1.621607 1_455
O47 Si18 1.623216 1_555
O47 Si54 1.626036 1_555
O48 Si6 1.625894 1_555
O48 Si55 1.628587 1_555
O49 Si19 1.618023 1_555
O49 Si27 1.626509 1_555
O50 Si8 1.620245 1_555
O50 Si27 1.625412 1_555
O51 Si11 1.623216 1_555
O51 Si53 1.626036 1_555
O52 Si3 1.620172 1_555
O52 Si45 1.620172 1_455
O53 Si2 1.620245 1_555
O53 Si32 1.625412 1_555
O54 Si48 1.631556 1_555
O54 Si20 1.637311 1_555
O55 Si2 1.628287 1_555
O55 Si39 1.628287 1_555
O56 Si7 1.622268 1_545
O56 Si0 1.628253 1_545
O57 Si30 1.620245 1_555
O57 Si23 1.625412 1_555
O58 Si9 1.607410 1_555
O58 Si32 1.626406 1_555
O59 Si41 1.631556 1_554
O59 Si30 1.637311 1_555
O60 Si52 1.618023 1_555
O60 Si1 1.626509 1_555
O61 Si48 1.625894 1_555
O61 Si28 1.628587 1_555
O62 Si25 1.623216 1_555
O62 Si34 1.626036 1_555
O63 Si34 1.626545 1_555
O63 Si29 1.626545 1_555
O64 Si25 1.622833 1_555
O64 Si11 1.622833 1_555
O65 Si8 1.628287 1_455
O65 Si49 1.628287 1_565
O66 Si14 1.631556 1_556
O66 Si8 1.637311 1_555
O67 Si47 1.626934 1_545
O67 Si46 1.626934 1_655
O68 Si37 1.627784 1_655
O68 Si7 1.627784 1_545
O69 Si35 1.625894 1_555
O69 Si37 1.628587 1_555
O70 Si31 1.625894 1_555
O70 Si7 1.628587 1_555
O71 Si17 1.631556 1_554
O71 Si44 1.637311 1_555
O72 Si15 1.620853 1_555
O72 Si7 1.627682 1_555
O73 Si15 1.622833 1_555
O73 Si47 1.622833 1_555
O74 Si38 1.626545 1_565
O74 Si19 1.626545 1_455
O75 Si17 1.607410 1_555
O75 Si4 1.626406 1_555
O76 Si9 1.627285 1_555
O76 Si48 1.627285 1_555
O77 Si22 1.628287 1_555
O77 Si20 1.628287 1_555
O78 Si24 1.620172 1_545
O78 Si36 1.620172 1_554
O79 Si41 1.607410 1_555
O79 Si27 1.626406 1_555
O80 Si22 1.620245 1_555
O80 Si21 1.625412 1_555
O81 Si6 1.607410 1_555
O81 Si26 1.626406 1_555
O82 Si6 1.631556 1_556
O82 Si49 1.637311 1_555
O83 Si0 1.620172 1_545
O83 Si33 1.620172 1_555
O84 Si42 1.623216 1_555
O84 Si13 1.626036 1_555
O85 Si35 1.607410 1_555
O85 Si21 1.626406 1_555
O86 Si46 1.620853 1_555
O86 Si50 1.627682 1_555
O87 Si8 1.615398 1_555
O87 Si5 1.621607 1_555
O88 Si25 1.626934 1_555
O88 Si43 1.626934 1_555
O89 Si20 1.620245 1_555
O89 Si1 1.625412 1_555
O90 Si27 1.620642 1_555
O90 Si4 1.620642 1_555
O91 Si42 1.622833 1_555
O91 Si43 1.622833 1_555
O92 Si49 1.615398 1_555
O92 Si36 1.621607 1_555
O93 Si44 1.620245 1_555
O93 Si26 1.625412 1_555
O94 Si31 1.631556 1_555
O94 Si39 1.637311 1_555
O95 Si14 1.625894 1_555
O95 Si10 1.628587 1_555
O96 Si20 1.615398 1_555
O96 Si3 1.621607 1_655
O97 Si24 1.618468 1_555
O97 Si40 1.618468 1_555
O98 Si39 1.620245 1_555
O98 Si16 1.625412 1_555
O99 Si17 1.625894 1_555
O99 Si50 1.628587 1_555
O100 Si43 1.623216 1_555
O100 Si29 1.626036 1_555
O101 Si40 1.620172 1_555
O101 Si5 1.620172 1_454
O102 Si52 1.626545 1_555
O102 Si54 1.626545 1_555
O103 Si47 1.620853 1_555
O103 Si12 1.627682 1_555
O104 Si49 1.620245 1_555
O104 Si4 1.625412 1_555
O105 Si34 1.618023 1_555
O105 Si16 1.626509 1_555
O106 Si25 1.620853 1_555
O106 Si28 1.627682 1_555
O107 Si37 1.622268 1_655
O107 Si3 1.628253 1_655
O108 Si14 1.627285 1_455
O108 Si6 1.627285 1_565
O109 Si18 1.622833 1_555
O109 Si46 1.622833 1_555
O110 Si35 1.627285 1_555
O110 Si31 1.627285 1_555
O111 Si14 1.607410 1_555
O111 Si23 1.626406 1_555
