# generated using pymatgen
data_NaLiSO4
_symmetry_space_group_name_H-M   'P 1'
_cell_length_a   7.76769011
_cell_length_b   7.76769011
_cell_length_c   9.95878400
_cell_angle_alpha   90.00000000
_cell_angle_beta   90.00000000
_cell_angle_gamma   120.00000097
_symmetry_Int_Tables_number   1
_chemical_formula_structural   NaLiSO4
_chemical_formula_sum   'Na6 Li6 S6 O24'
_cell_volume   520.38015139
_cell_formula_units_Z   6
loop_
 _symmetry_equiv_pos_site_id
 _symmetry_equiv_pos_as_xyz
  1  'x, y, z'
loop_
 _atom_site_type_symbol
 _atom_site_label
 _atom_site_symmetry_multiplicity
 _atom_site_fract_x
 _atom_site_fract_y
 _atom_site_fract_z
 _atom_site_occupancy
  Na  Na0  1  0.97399300  0.44824200  0.49024100  1
  Na  Na1  1  0.55175800  0.52575200  0.49024100  1
  Na  Na2  1  0.47424800  0.02600700  0.49024100  1
  Na  Na3  1  0.44824200  0.97399300  0.99024100  1
  Na  Na4  1  0.52575200  0.55175800  0.99024100  1
  Na  Na5  1  0.02600700  0.47424800  0.99024100  1
  Li  Li0  1  0.03376500  0.78753600  0.75990500  1
  Li  Li1  1  0.21246400  0.24622900  0.75990500  1
  Li  Li2  1  0.75377100  0.96623500  0.75990500  1
  Li  Li3  1  0.78753600  0.03376500  0.25990500  1
  Li  Li4  1  0.24622900  0.21246400  0.25990500  1
  Li  Li5  1  0.96623500  0.75377100  0.25990500  1
  S  S0  1  0.00000000  0.00000000  0.99929700  1
  S  S1  1  0.00000000  0.00000000  0.49929700  1
  S  S2  1  0.66666700  0.33333300  0.19758100  1
  S  S3  1  0.33333300  0.66666700  0.69758100  1
  S  S4  1  0.33333300  0.66666700  0.26419400  1
  S  S5  1  0.66666700  0.33333300  0.76419400  1
  O  O0  1  0.48133600  0.32278000  0.81513100  1
  O  O1  1  0.67722000  0.15855600  0.81513100  1
  O  O2  1  0.84144400  0.51866400  0.81513100  1
  O  O3  1  0.32278000  0.48133600  0.31513100  1
  O  O4  1  0.15855600  0.67722000  0.31513100  1
  O  O5  1  0.51866400  0.84144400  0.31513100  1
  O  O6  1  0.00000000  0.00000000  0.15200600  1
  O  O7  1  0.00000000  0.00000000  0.65200600  1
  O  O8  1  0.66666700  0.33333300  0.34671000  1
  O  O9  1  0.33333300  0.66666700  0.84671000  1
  O  O10  1  0.33333300  0.66666700  0.11469900  1
  O  O11  1  0.66666700  0.33333300  0.61469900  1
  O  O12  1  0.79131900  0.88825200  0.94965200  1
  O  O13  1  0.11174800  0.90306700  0.94965200  1
  O  O14  1  0.09693300  0.20868100  0.94965200  1
  O  O15  1  0.88825200  0.79131900  0.44965200  1
  O  O16  1  0.90306700  0.11174800  0.44965200  1
  O  O17  1  0.20868100  0.09693300  0.44965200  1
  O  O18  1  0.76841300  0.54190900  0.14557500  1
  O  O19  1  0.45809100  0.22650400  0.14557500  1
  O  O20  1  0.77349600  0.23158700  0.14557500  1
  O  O21  1  0.54190900  0.76841300  0.64557500  1
  O  O22  1  0.22650400  0.45809100  0.64557500  1
  O  O23  1  0.23158700  0.77349600  0.64557500  1
loop_
_geom_bond_atom_site_label_1
_geom_bond_atom_site_label_2
_geom_bond_distance
_geom_bond_site_symmetry_2
Na0 O4 2.389571 1_655
Na0 O16 2.420486 1_555
Na0 O11 2.429186 1_555
Na0 O22 2.469010 1_655
Na0 O8 2.531378 1_555
Na0 O23 2.779294 1_655
Na1 O3 2.389569 1_555
Na1 O15 2.420484 1_555
Na1 O11 2.429199 1_555
Na1 O21 2.469004 1_555
Na1 O8 2.531390 1_555
Na1 O22 2.779292 1_555
Na2 O5 2.389574 1_545
Na2 O17 2.420479 1_555
Na2 O11 2.429188 1_555
Na2 O23 2.469007 1_545
Na2 O8 2.531380 1_555
Na2 O21 2.779298 1_545
Na3 O1 2.389571 1_565
Na3 O13 2.420486 1_555
Na3 O10 2.429186 1_556
Na3 O19 2.469010 1_566
Na3 O9 2.531378 1_555
Na3 O20 2.779294 1_566
Na4 O0 2.389569 1_555
Na4 O12 2.420484 1_555
Na4 O10 2.429199 1_556
Na4 O18 2.469004 1_556
Na4 O9 2.531390 1_555
Na4 O19 2.779292 1_556
Na5 O2 2.389574 1_455
Na5 O14 2.420479 1_555
Na5 O10 2.429188 1_556
Na5 O20 2.469007 1_456
Na5 O9 2.531380 1_555
Na5 O18 2.779298 1_456
Li0 O2 1.943211 1_455
Li0 O23 1.958841 1_555
Li0 O13 2.049255 1_555
Li0 O7 2.092833 1_565
Li1 O0 1.943212 1_555
Li1 O22 1.958841 1_555
Li1 O14 2.049255 1_555
Li1 O7 2.092833 1_555
Li2 O1 1.943212 1_565
Li2 O21 1.958841 1_555
Li2 O12 2.049255 1_555
Li2 O7 2.092833 1_665
Li3 O5 1.943211 1_545
Li3 O20 1.958841 1_555
Li3 O16 2.049255 1_555
Li3 O6 2.092833 1_655
Li4 O3 1.943212 1_555
Li4 O19 1.958841 1_555
Li4 O17 2.049255 1_555
Li4 O6 2.092833 1_555
Li5 O4 1.943212 1_655
Li5 O18 1.958841 1_555
Li5 O15 2.049255 1_555
Li5 O6 2.092833 1_665
O0 S5 1.489452 1_555
O1 S5 1.489444 1_555
O2 S5 1.489448 1_555
O3 S4 1.489452 1_555
O4 S4 1.489444 1_555
O5 S4 1.489448 1_555
O6 S0 1.520796 1_554
O7 S1 1.520796 1_555
O8 S2 1.485143 1_555
O9 S3 1.485143 1_555
O10 S4 1.488788 1_555
O11 S5 1.488788 1_555
O12 S0 1.489430 1_665
O13 S0 1.489430 1_565
O14 S0 1.489430 1_555
O15 S1 1.489430 1_665
O16 S1 1.489430 1_655
O17 S1 1.489430 1_555
O18 S2 1.495761 1_555
O19 S2 1.495761 1_555
O20 S2 1.495755 1_555
O21 S3 1.495761 1_555
O22 S3 1.495761 1_555
O23 S3 1.495755 1_555
