# generated using pymatgen
data_Hf8FeTe6
_symmetry_space_group_name_H-M   'P 1'
_cell_length_a   3.74979621
_cell_length_b   7.66288632
_cell_length_c   25.92636152
_cell_angle_alpha   90.00000000
_cell_angle_beta   90.00000000
_cell_angle_gamma   90.00000000
_symmetry_Int_Tables_number   1
_chemical_formula_structural   Hf8FeTe6
_chemical_formula_sum   'Hf16 Fe2 Te12'
_cell_volume   744.97486671
_cell_formula_units_Z   2
loop_
 _symmetry_equiv_pos_site_id
 _symmetry_equiv_pos_as_xyz
  1  'x, y, z'
loop_
 _atom_site_type_symbol
 _atom_site_label
 _atom_site_symmetry_multiplicity
 _atom_site_fract_x
 _atom_site_fract_y
 _atom_site_fract_z
 _atom_site_occupancy
  Hf  Hf0  1  0.50000000  0.74090391  0.43361019  1
  Hf  Hf1  1  -0.00000000  0.25909609  0.06638981  1
  Hf  Hf2  1  0.50000000  0.07364564  0.50000000  1
  Hf  Hf3  1  0.00000000  0.05755702  0.80189543  1
  Hf  Hf4  1  0.00000000  0.25909609  0.93361019  1
  Hf  Hf5  1  0.50000000  0.94244298  0.69810457  1
  Hf  Hf6  1  0.50000000  0.94074192  0.90148951  1
  Hf  Hf7  1  0.00000000  0.05925808  0.59851049  1
  Hf  Hf8  1  0.00000000  0.05925808  0.40148951  1
  Hf  Hf9  1  0.50000000  0.94244298  0.30189543  1
  Hf  Hf10  1  0.00000000  0.45480691  0.50000000  1
  Hf  Hf11  1  0.00000000  0.92635436  0.00000000  1
  Hf  Hf12  1  0.50000000  0.54519309  0.00000000  1
  Hf  Hf13  1  -0.00000000  0.05755702  0.19810457  1
  Hf  Hf14  1  0.50000000  0.94074192  0.09851049  1
  Hf  Hf15  1  0.50000000  0.74090391  0.56638981  1
  Fe  Fe0  1  0.00000000  0.79740381  0.50000000  1
  Fe  Fe1  1  0.50000000  0.20259619  0.00000000  1
  Te  Te0  1  0.00000000  0.70457859  0.34460689  1
  Te  Te1  1  -0.00000000  0.64748436  0.08146820  1
  Te  Te2  1  0.50000000  0.35251564  0.41853180  1
  Te  Te3  1  0.00000000  0.64748436  0.91853180  1
  Te  Te4  1  0.50000000  0.29542141  0.15539311  1
  Te  Te5  1  0.50000000  0.29542141  0.84460689  1
  Te  Te6  1  0.50000000  0.77943321  0.20243612  1
  Te  Te7  1  -0.00000000  0.22056679  0.70243612  1
  Te  Te8  1  0.00000000  0.22056679  0.29756388  1
  Te  Te9  1  0.50000000  0.35251564  0.58146820  1
  Te  Te10  1  0.50000000  0.77943321  0.79756388  1
  Te  Te11  1  -0.00000000  0.70457859  0.65539311  1
loop_
_geom_bond_atom_site_label_1
_geom_bond_atom_site_label_2
_geom_bond_distance
_geom_bond_site_symmetry_2
Hf0 Te0 2.986206 1_655
Hf0 Te0 2.986206 1_555
Hf0 Te2 3.001740 1_555
Hf1 Te4 2.986206 1_455
Hf1 Te4 2.986206 1_555
Hf1 Te1 3.001740 1_555
Hf2 Te2 3.004635 1_555
Hf2 Te9 3.004635 1_555
Hf3 Te5 2.839685 1_555
Hf3 Te5 2.839685 1_455
Hf3 Te10 2.840775 1_445
Hf3 Te10 2.840775 1_545
Hf3 Te7 2.865237 1_555
Hf4 Te5 2.986206 1_455
Hf4 Te5 2.986206 1_555
Hf4 Te3 3.001740 1_555
Hf5 Te11 2.839685 1_555
Hf5 Te11 2.839685 1_655
Hf5 Te7 2.840775 1_665
Hf5 Te7 2.840775 1_565
Hf5 Te10 2.865237 1_555
Hf6 Te3 2.959793 1_655
Hf6 Te3 2.959793 1_555
Hf6 Te10 2.964420 1_555
Hf6 Te5 3.092204 1_565
Hf7 Te9 2.959793 1_555
Hf7 Te9 2.959793 1_455
Hf7 Te7 2.964420 1_555
Hf7 Te11 3.092204 1_545
Hf8 Te2 2.959793 1_455
Hf8 Te2 2.959793 1_555
Hf8 Te8 2.964420 1_555
Hf8 Te0 3.092204 1_545
Hf9 Te0 2.839685 1_555
Hf9 Te0 2.839685 1_655
Hf9 Te8 2.840775 1_665
Hf9 Te8 2.840775 1_565
Hf9 Te6 2.865237 1_555
Hf10 Te2 2.931030 1_555
Hf10 Te9 2.931030 1_555
Hf10 Te2 2.931030 1_455
Hf10 Te9 2.931030 1_455
Hf11 Te3 3.004635 1_554
Hf11 Te1 3.004635 1_555
Hf12 Te1 2.931030 1_655
Hf12 Te3 2.931030 1_654
Hf12 Te3 2.931030 1_554
Hf12 Te1 2.931030 1_555
Hf13 Te4 2.839685 1_455
Hf13 Te4 2.839685 1_555
Hf13 Te6 2.840775 1_545
Hf13 Te6 2.840775 1_445
Hf13 Te8 2.865237 1_555
Hf14 Te1 2.959793 1_555
Hf14 Te1 2.959793 1_655
Hf14 Te6 2.964420 1_555
Hf14 Te4 3.092204 1_565
Hf15 Te11 2.986206 1_555
Hf15 Te11 2.986206 1_655
Hf15 Te9 3.001740 1_555
Fe0 Hf0 2.581740 1_455
Fe0 Hf15 2.581740 1_455
Fe0 Hf15 2.581740 1_555
Fe0 Hf0 2.581740 1_555
Fe0 Hf10 2.625281 1_555
Fe0 Hf2 2.827742 1_565
Fe0 Hf2 2.827742 1_465
Fe0 Hf8 3.247967 1_565
Fe0 Hf7 3.247967 1_565
Fe1 Hf4 2.581740 1_654
Fe1 Hf4 2.581740 1_554
Fe1 Hf1 2.581740 1_655
Fe1 Hf1 2.581740 1_555
Fe1 Hf12 2.625281 1_555
Fe1 Hf11 2.827742 1_545
Fe1 Hf11 2.827742 1_645
Fe1 Hf14 3.247967 1_545
Fe1 Hf6 3.247967 1_544
