# generated using pymatgen
data_Cr(PS3)3
_symmetry_space_group_name_H-M   'P 1'
_cell_length_a   15.14053153
_cell_length_b   13.19741583
_cell_length_c   11.84670738
_cell_angle_alpha   107.42382130
_cell_angle_beta   114.13787909
_cell_angle_gamma   113.99228968
_symmetry_Int_Tables_number   1
_chemical_formula_structural   Cr(PS3)3
_chemical_formula_sum   'Cr4 P12 S36'
_cell_volume   1636.93166940
_cell_formula_units_Z   4
loop_
 _symmetry_equiv_pos_site_id
 _symmetry_equiv_pos_as_xyz
  1  'x, y, z'
loop_
 _atom_site_type_symbol
 _atom_site_label
 _atom_site_symmetry_multiplicity
 _atom_site_fract_x
 _atom_site_fract_y
 _atom_site_fract_z
 _atom_site_occupancy
  Cr  Cr0  1  0.15517500  0.39876900  0.79757400  1
  Cr  Cr1  1  0.60781200  0.85553500  0.69360700  1
  Cr  Cr2  1  0.37082100  0.14240700  0.28564500  1
  Cr  Cr3  1  0.84766300  0.59431700  0.19254600  1
  P  P0  1  0.07758000  0.49791400  0.62001100  1
  P  P1  1  0.04589400  0.11989000  0.62169900  1
  P  P2  1  0.51768600  0.90633000  0.86585400  1
  P  P3  1  0.09955900  0.03785300  0.09898200  1
  P  P4  1  0.28242400  0.52971000  0.04961600  1
  P  P5  1  0.45334600  0.70110600  0.42163700  1
  P  P6  1  0.55566400  0.30677600  0.61639100  1
  P  P7  1  0.72700300  0.47402200  0.94247200  1
  P  P8  1  0.86932800  0.97593100  0.88754700  1
  P  P9  1  0.52074500  0.07407400  0.09954400  1
  P  P10  1  0.94967900  0.87111000  0.37775700  1
  P  P11  1  0.92745500  0.50228000  0.37733400  1
  S  S0  1  0.07969200  0.52616800  0.79721300  1
  S  S1  1  0.04680800  0.80710000  0.36619900  1
  S  S2  1  0.10727600  0.65052700  0.58158400  1
  S  S3  1  0.38479600  0.86264600  0.89650600  1
  S  S4  1  0.02812500  0.05969100  0.90666400  1
  S  S5  1  0.15066200  0.83331200  0.15958700  1
  S  S6  1  0.18964300  0.44883300  0.63537500  1
  S  S7  1  0.01891700  0.06196200  0.41608100  1
  S  S8  1  0.22321800  0.26473500  0.79212700  1
  S  S9  1  0.49218600  0.93425700  0.69991300  1
  S  S10  1  0.29003000  0.68196300  0.32067100  1
  S  S11  1  0.55548100  0.77476100  0.82682600  1
  S  S12  1  0.28916800  0.69428300  0.15153600  1
  S  S13  1  0.25189400  0.21485500  0.29402500  1
  S  S14  1  0.58058400  0.45906900  0.78516100  1
  S  S15  1  0.59552700  0.87783800  0.49570100  1
  S  S16  1  0.40400300  0.12079900  0.49072000  1
  S  S17  1  0.41300000  0.54767100  0.23127700  1
  S  S18  1  0.73344500  0.78196400  0.72535300  1
  S  S19  1  0.45526100  0.30639800  0.12980900  1
  S  S20  1  0.56622700  0.35842600  0.47755400  1
  S  S21  1  0.70189600  0.32090600  0.77589600  1
  S  S22  1  0.56013000  0.08556400  0.28471300  1
  S  S23  1  0.77476700  0.72399000  0.19856100  1
  S  S24  1  0.97987000  0.73374100  0.99618200  1
  S  S25  1  0.97062900  0.92744100  0.58013800  1
  S  S26  1  0.81299000  0.54719000  0.35663900  1
  S  S27  1  0.79056300  0.06826800  0.86032400  1
  S  S28  1  0.31974700  0.12360900  0.06079300  1
  S  S29  1  0.95314800  0.02282000  0.10540400  1
  S  S30  1  0.66027100  0.08175900  0.07831600  1
  S  S31  1  0.89692800  0.35140500  0.41768400  1
  S  S32  1  0.95710900  0.19309800  0.64687300  1
  S  S33  1  0.25696100  0.91683800  0.10233400  1
  S  S34  1  0.51258700  0.26721100  0.01519800  1
  S  S35  1  0.92872300  0.47317800  0.20145000  1
loop_
_geom_bond_atom_site_label_1
_geom_bond_atom_site_label_2
_geom_bond_distance
_geom_bond_site_symmetry_2
Cr0 P4 2.260759 1_556
Cr0 S32 2.376452 1_455
Cr0 S8 2.379599 1_555
Cr0 S0 2.386623 1_555
Cr0 S6 2.387717 1_555
Cr1 S27 2.308972 1_565
Cr1 S11 2.366061 1_555
Cr1 S9 2.385216 1_555
Cr1 S15 2.391489 1_555
Cr1 S18 2.416175 1_555
Cr1 P5 2.456152 1_555
Cr2 S33 2.333036 1_545
Cr2 S28 2.349183 1_555
Cr2 S13 2.378167 1_555
Cr2 S16 2.401913 1_555
Cr2 S20 2.409861 1_555
Cr3 P7 2.243398 1_554
Cr3 S35 2.379922 1_555
Cr3 S23 2.383111 1_555
Cr3 S26 2.394703 1_555
Cr3 S1 2.406389 1_655
P0 S0 2.003391 1_555
P0 S6 2.010784 1_555
P0 S2 2.108565 1_555
P0 S31 2.127603 1_455
P1 S8 2.005061 1_555
P1 S32 2.010204 1_455
P1 S25 2.104816 1_445
P1 S7 2.121785 1_555
P2 S9 2.019496 1_555
P2 S11 2.024807 1_555
P2 S3 2.071734 1_555
P2 S30 2.087431 1_566
P3 S13 2.035380 1_555
P3 S29 2.179084 1_455
P3 S4 2.252779 1_554
P4 S12 2.081803 1_555
P4 S17 2.104710 1_555
P5 S15 1.997625 1_555
P5 S10 2.121505 1_555
P5 S17 2.166061 1_555
P6 S16 1.986386 1_555
P6 S20 1.998341 1_555
P6 S21 2.130462 1_555
P6 S14 2.130538 1_555
P7 S14 2.114604 1_555
P7 S21 2.120324 1_555
P8 S18 2.003973 1_555
P8 S27 2.028253 1_565
P8 S4 2.072960 1_665
P8 S29 2.092981 1_566
P9 S22 1.961647 1_555
P9 S30 2.193561 1_555
P9 S3 2.251405 1_544
P10 S1 2.000171 1_655
P10 S23 2.010418 1_555
P10 S7 2.104240 1_665
P10 S25 2.126112 1_555
P11 S26 1.997434 1_555
P11 S35 2.012191 1_555
P11 S31 2.099793 1_555
P11 S2 2.130798 1_655
S10 S12 2.053493 1_555
S19 S34 1.942332 1_555
S19 S28 2.029601 1_555
S24 S5 1.944241 1_656
S33 S5 2.040391 1_555
