# generated using pymatgen
data_KNb(CuSe2)2
_symmetry_space_group_name_H-M   'P 1'
_cell_length_a   10.03200023
_cell_length_b   10.03200023
_cell_length_c   7.79359100
_cell_angle_alpha   90.00000000
_cell_angle_beta   90.00000000
_cell_angle_gamma   146.82782795
_symmetry_Int_Tables_number   1
_chemical_formula_structural   KNb(CuSe2)2
_chemical_formula_sum   'K2 Nb2 Cu4 Se8'
_cell_volume   429.16514166
_cell_formula_units_Z   2
loop_
 _symmetry_equiv_pos_site_id
 _symmetry_equiv_pos_as_xyz
  1  'x, y, z'
loop_
 _atom_site_type_symbol
 _atom_site_label
 _atom_site_symmetry_multiplicity
 _atom_site_fract_x
 _atom_site_fract_y
 _atom_site_fract_z
 _atom_site_occupancy
  K  K0  1  0.92370600  0.55613700  0.25000000  1
  K  K1  1  0.55613700  0.92370600  0.75000000  1
  Nb  Nb0  1  0.60873000  0.39068300  0.75000000  1
  Nb  Nb1  1  0.39068300  0.60873000  0.25000000  1
  Cu  Cu0  1  0.10666500  0.89351300  0.75000000  1
  Cu  Cu1  1  0.89351300  0.10666500  0.25000000  1
  Cu  Cu2  1  0.48373000  0.48373000  0.50000000  1
  Cu  Cu3  1  0.48373000  0.48373000  0.00000000  1
  Se  Se0  1  0.74926000  0.74325100  0.75000000  1
  Se  Se1  1  0.14399800  0.35759800  0.50560900  1
  Se  Se2  1  0.54104600  0.96241800  0.25000000  1
  Se  Se3  1  0.74325100  0.74926000  0.25000000  1
  Se  Se4  1  0.96241800  0.54104600  0.75000000  1
  Se  Se5  1  0.14399800  0.35759800  0.99439100  1
  Se  Se6  1  0.35759800  0.14399800  0.00560900  1
  Se  Se7  1  0.35759800  0.14399800  0.49439100  1
loop_
_geom_bond_atom_site_label_1
_geom_bond_atom_site_label_2
_geom_bond_distance
_geom_bond_site_symmetry_2
K0 Se2 3.454811 1_545
K0 Se2 3.565187 1_655
K0 Se3 3.591982 1_555
K0 Se7 3.696901 1_555
K0 Se6 3.696901 1_555
K0 Se7 3.792181 1_665
K0 Se6 3.792181 1_665
K0 Se4 3.931562 1_554
K0 Se4 3.931562 1_555
K1 Se4 3.454811 1_455
K1 Se4 3.565187 1_565
K1 Se0 3.591982 1_555
K1 Se1 3.696901 1_555
K1 Se5 3.696901 1_555
K1 Se5 3.792181 1_665
K1 Se1 3.792181 1_665
K1 Se2 3.931562 1_556
K1 Se2 3.931562 1_555
Nb0 Se4 2.430045 1_555
Nb0 Se6 2.450032 1_556
Nb0 Se7 2.450032 1_555
Nb0 Se0 2.479939 1_555
Nb1 Se2 2.430045 1_555
Nb1 Se5 2.450032 1_554
Nb1 Se1 2.450032 1_555
Nb1 Se3 2.479939 1_555
Cu0 Se6 2.455678 1_566
Cu0 Se7 2.455678 1_565
Cu0 Se4 2.455835 1_455
Cu0 Se0 2.465763 1_455
Cu1 Se1 2.455678 1_655
Cu1 Se5 2.455678 1_654
Cu1 Se2 2.455835 1_545
Cu1 Se3 2.465763 1_545
Cu2 Se1 2.449346 1_555
Cu2 Se7 2.449346 1_555
Cu2 Se3 2.461779 1_555
Cu2 Se0 2.461779 1_555
Cu3 Se5 2.449346 1_554
Cu3 Se6 2.449346 1_555
Cu3 Se0 2.461779 1_554
Cu3 Se3 2.461779 1_555
