# generated using pymatgen
data_K5YCo2(NO2)12
_symmetry_space_group_name_H-M   'P 1'
_cell_length_a   10.35634900
_cell_length_b   10.35634900
_cell_length_c   10.35634900
_cell_angle_alpha   90.00000000
_cell_angle_beta   90.00000000
_cell_angle_gamma   90.00000000
_symmetry_Int_Tables_number   1
_chemical_formula_structural   K5YCo2(NO2)12
_chemical_formula_sum   'K10 Y2 Co4 N24 O48'
_cell_volume   1110.75948913
_cell_formula_units_Z   2
loop_
 _symmetry_equiv_pos_site_id
 _symmetry_equiv_pos_as_xyz
  1  'x, y, z'
loop_
 _atom_site_type_symbol
 _atom_site_label
 _atom_site_symmetry_multiplicity
 _atom_site_fract_x
 _atom_site_fract_y
 _atom_site_fract_z
 _atom_site_occupancy
  K  K0  1  0.25000000  0.25000000  0.75000000  1
  K  K1  1  0.25000000  0.75000000  0.25000000  1
  K  K2  1  0.00000000  0.50000000  0.50000000  1
  K  K3  1  0.50000000  0.00000000  0.00000000  1
  K  K4  1  0.50000000  0.00000000  0.50000000  1
  K  K5  1  0.75000000  0.75000000  0.75000000  1
  K  K6  1  0.50000000  0.50000000  0.00000000  1
  K  K7  1  0.00000000  0.50000000  0.00000000  1
  K  K8  1  0.75000000  0.25000000  0.25000000  1
  K  K9  1  0.00000000  0.00000000  0.50000000  1
  Y  Y0  1  0.00000000  0.00000000  0.00000000  1
  Y  Y1  1  0.50000000  0.50000000  0.50000000  1
  Co  Co0  1  0.75000000  0.75000000  0.25000000  1
  Co  Co1  1  0.25000000  0.75000000  0.75000000  1
  Co  Co2  1  0.75000000  0.25000000  0.75000000  1
  Co  Co3  1  0.25000000  0.25000000  0.25000000  1
  N  N0  1  0.25338100  0.25439000  0.43691700  1
  N  N1  1  0.56308300  0.74661900  0.25439000  1
  N  N2  1  0.43691700  0.74661900  0.74561000  1
  N  N3  1  0.25439000  0.56308300  0.74661900  1
  N  N4  1  0.74661900  0.74561000  0.43691700  1
  N  N5  1  0.75439000  0.06308300  0.75338100  1
  N  N6  1  0.06308300  0.75338100  0.75439000  1
  N  N7  1  0.56308300  0.25338100  0.74561000  1
  N  N8  1  0.25439000  0.43691700  0.25338100  1
  N  N9  1  0.75338100  0.24561000  0.93691700  1
  N  N10  1  0.74561000  0.56308300  0.25338100  1
  N  N11  1  0.24661900  0.24561000  0.06308300  1
  N  N12  1  0.25338100  0.74561000  0.56308300  1
  N  N13  1  0.75439000  0.93691700  0.24661900  1
  N  N14  1  0.43691700  0.25338100  0.25439000  1
  N  N15  1  0.24561000  0.93691700  0.75338100  1
  N  N16  1  0.24561000  0.06308300  0.24661900  1
  N  N17  1  0.93691700  0.75338100  0.24561000  1
  N  N18  1  0.74561000  0.43691700  0.74661900  1
  N  N19  1  0.74661900  0.25439000  0.56308300  1
  N  N20  1  0.24661900  0.75439000  0.93691700  1
  N  N21  1  0.75338100  0.75439000  0.06308300  1
  N  N22  1  0.93691700  0.24661900  0.75439000  1
  N  N23  1  0.06308300  0.24661900  0.24561000  1
  O  O0  1  0.25410600  0.99954500  0.65022500  1
  O  O1  1  0.75410600  0.49954500  0.84977500  1
  O  O2  1  0.15022500  0.75410600  0.50045500  1
  O  O3  1  0.00045500  0.34977500  0.25410600  1
  O  O4  1  0.65022500  0.25410600  0.99954500  1
  O  O5  1  0.99832000  0.85899000  0.22780900  1
  O  O6  1  0.14101000  0.22780900  0.00168000  1
  O  O7  1  0.72780900  0.50168000  0.35899000  1
  O  O8  1  0.34977500  0.74589400  0.99954500  1
  O  O9  1  0.77219100  0.99832000  0.14101000  1
  O  O10  1  0.84977500  0.75410600  0.49954500  1
  O  O11  1  0.14101000  0.77219100  0.99832000  1
  O  O12  1  0.50045500  0.15022500  0.75410600  1
  O  O13  1  0.64101000  0.72780900  0.49832000  1
  O  O14  1  0.77219100  0.00168000  0.85899000  1
  O  O15  1  0.65022500  0.74589400  0.00045500  1
  O  O16  1  0.64101000  0.27219100  0.50168000  1
  O  O17  1  0.99954500  0.65022500  0.25410600  1
  O  O18  1  0.84977500  0.24589400  0.50045500  1
  O  O19  1  0.85899000  0.77219100  0.00168000  1
  O  O20  1  0.27219100  0.50168000  0.64101000  1
  O  O21  1  0.99954500  0.34977500  0.74589400  1
  O  O22  1  0.99832000  0.14101000  0.77219100  1
  O  O23  1  0.50045500  0.84977500  0.24589400  1
  O  O24  1  0.75410600  0.50045500  0.15022500  1
  O  O25  1  0.00168000  0.14101000  0.22780900  1
  O  O26  1  0.15022500  0.24589400  0.49954500  1
  O  O27  1  0.74589400  0.99954500  0.34977500  1
  O  O28  1  0.34977500  0.25410600  0.00045500  1
  O  O29  1  0.27219100  0.49832000  0.35899000  1
  O  O30  1  0.50168000  0.35899000  0.72780900  1
  O  O31  1  0.35899000  0.72780900  0.50168000  1
  O  O32  1  0.00045500  0.65022500  0.74589400  1
  O  O33  1  0.49832000  0.64101000  0.72780900  1
  O  O34  1  0.49954500  0.84977500  0.75410600  1
  O  O35  1  0.25410600  0.00045500  0.34977500  1
  O  O36  1  0.50168000  0.64101000  0.27219100  1
  O  O37  1  0.49954500  0.15022500  0.24589400  1
  O  O38  1  0.74589400  0.00045500  0.65022500  1
  O  O39  1  0.24589400  0.50045500  0.84977500  1
  O  O40  1  0.85899000  0.22780900  0.99832000  1
  O  O41  1  0.00168000  0.85899000  0.77219100  1
  O  O42  1  0.22780900  0.00168000  0.14101000  1
  O  O43  1  0.35899000  0.27219100  0.49832000  1
  O  O44  1  0.24589400  0.49954500  0.15022500  1
  O  O45  1  0.72780900  0.49832000  0.64101000  1
  O  O46  1  0.49832000  0.35899000  0.27219100  1
  O  O47  1  0.22780900  0.99832000  0.85899000  1
loop_
_geom_bond_atom_site_label_1
_geom_bond_atom_site_label_2
_geom_bond_distance
_geom_bond_site_symmetry_2
K0 O0 2.792369 1_545
K0 O26 2.792369 1_555
K0 O21 2.792369 1_455
K0 O12 2.792369 1_555
K0 O39 2.792369 1_555
K0 O28 2.792369 1_556
K0 O6 2.849673 1_556
K0 O43 2.849673 1_555
K0 O20 2.849673 1_555
K0 O30 2.849673 1_555
K0 O22 2.849673 1_455
K0 O47 2.849673 1_545
K1 O17 2.792369 1_455
K1 O23 2.792369 1_555
K1 O8 2.792369 1_554
K1 O2 2.792369 1_555
K1 O44 2.792369 1_555
K1 O35 2.792369 1_565
K1 O42 2.849673 1_565
K1 O31 2.849673 1_555
K1 O29 2.849673 1_555
K1 O36 2.849673 1_555
K1 O5 2.849673 1_455
K1 O11 2.849673 1_554
K2 O32 2.984203 1_555
K2 O21 2.984203 1_455
K2 O17 2.984203 1_455
K2 O3 2.984203 1_555
K2 O26 3.057099 1_555
K2 O18 3.057099 1_455
K2 O2 3.057099 1_555
K2 O10 3.057099 1_455
K2 O45 3.174767 1_455
K2 O7 3.174767 1_455
K2 O20 3.174767 1_555
K2 O29 3.174767 1_555
K3 O34 2.984203 1_544
K3 O12 2.984203 1_554
K3 O37 2.984203 1_555
K3 O23 2.984203 1_545
K3 O28 3.057099 1_555
K3 O4 3.057099 1_554
K3 O8 3.057099 1_544
K3 O15 3.057099 1_545
K3 O9 3.174767 1_545
K3 O47 3.174767 1_544
K3 O14 3.174767 1_554
K3 O42 3.174767 1_555
K4 O27 2.984203 1_545
K4 O38 2.984203 1_555
K4 O0 2.984203 1_545
K4 O35 2.984203 1_555
K4 O37 3.057099 1_555
K4 O23 3.057099 1_545
K4 O12 3.057099 1_555
K4 O34 3.057099 1_545
K4 O13 3.174767 1_545
K4 O31 3.174767 1_545
K4 O16 3.174767 1_555
K4 O43 3.174767 1_555
K5 O10 2.792369 1_555
K5 O1 2.792369 1_555
K5 O34 2.792369 1_555
K5 O32 2.792369 1_655
K5 O38 2.792369 1_565
K5 O15 2.792369 1_556
K5 O19 2.849673 1_556
K5 O41 2.849673 1_655
K5 O14 2.849673 1_565
K5 O45 2.849673 1_555
K5 O33 2.849673 1_555
K5 O13 2.849673 1_555
K6 O8 2.984203 1_554
K6 O15 2.984203 1_555
K6 O4 2.984203 1_554
K6 O28 2.984203 1_555
K6 O44 3.057099 1_555
K6 O39 3.057099 1_554
K6 O1 3.057099 1_554
K6 O24 3.057099 1_555
K6 O30 3.174767 1_554
K6 O33 3.174767 1_554
K6 O36 3.174767 1_555
K6 O46 3.174767 1_555
K7 O24 2.984203 1_455
K7 O1 2.984203 1_454
K7 O39 2.984203 1_554
K7 O44 2.984203 1_555
K7 O3 3.057099 1_555
K7 O17 3.057099 1_455
K7 O32 3.057099 1_554
K7 O21 3.057099 1_454
K7 O11 3.174767 1_554
K7 O19 3.174767 1_455
K7 O6 3.174767 1_555
K7 O40 3.174767 1_454
K8 O4 2.792369 1_554
K8 O37 2.792369 1_555
K8 O24 2.792369 1_555
K8 O18 2.792369 1_555
K8 O27 2.792369 1_545
K8 O3 2.792369 1_655
K8 O25 2.849673 1_655
K8 O7 2.849673 1_555
K8 O16 2.849673 1_555
K8 O40 2.849673 1_554
K8 O46 2.849673 1_555
K8 O9 2.849673 1_545
K9 O2 2.984203 1_545
K9 O10 2.984203 1_445
K9 O26 2.984203 1_555
K9 O18 2.984203 1_455
K9 O35 3.057099 1_555
K9 O0 3.057099 1_545
K9 O27 3.057099 1_445
K9 O38 3.057099 1_455
K9 O22 3.174767 1_455
K9 O5 3.174767 1_445
K9 O25 3.174767 1_555
K9 O41 3.174767 1_545
Co0 N4 1.936628 1_555
Co0 N1 1.936628 1_555
Co0 N13 1.936628 1_555
Co0 N21 1.936628 1_555
Co0 N17 1.936628 1_555
Co0 N10 1.936628 1_555
Co1 N12 1.936628 1_555
Co1 N20 1.936628 1_555
Co1 N2 1.936628 1_555
Co1 N6 1.936628 1_555
Co1 N15 1.936628 1_555
Co1 N3 1.936628 1_555
Co2 N5 1.936628 1_555
Co2 N7 1.936628 1_555
Co2 N22 1.936628 1_555
Co2 N9 1.936628 1_555
Co2 N18 1.936628 1_555
Co2 N19 1.936628 1_555
Co3 N23 1.936628 1_555
Co3 N16 1.936628 1_555
Co3 N8 1.936628 1_555
Co3 N14 1.936628 1_555
Co3 N0 1.936628 1_555
Co3 N11 1.936628 1_555
N0 O26 1.252887 1_555
N0 O43 1.278515 1_555
N1 O23 1.252887 1_555
N1 O36 1.278515 1_555
N2 O34 1.252887 1_555
N2 O33 1.278515 1_555
N3 O39 1.252887 1_555
N3 O20 1.278515 1_555
N4 O10 1.252887 1_555
N4 O13 1.278515 1_555
N5 O38 1.252887 1_555
N5 O14 1.278515 1_555
N6 O32 1.252887 1_555
N6 O41 1.278515 1_555
N7 O12 1.252887 1_555
N7 O30 1.278515 1_555
N8 O44 1.252887 1_555
N8 O29 1.278515 1_555
N9 O4 1.252887 1_555
N9 O40 1.278515 1_555
N10 O24 1.252887 1_555
N10 O7 1.278515 1_555
N11 O28 1.252887 1_555
N11 O6 1.278515 1_555
N12 O2 1.252887 1_555
N12 O31 1.278515 1_555
N13 O27 1.252887 1_555
N13 O9 1.278515 1_555
N14 O37 1.252887 1_555
N14 O46 1.278515 1_555
N15 O0 1.252887 1_555
N15 O47 1.278515 1_555
N16 O35 1.252887 1_555
N16 O42 1.278515 1_555
N17 O17 1.252887 1_555
N17 O5 1.278515 1_555
N18 O1 1.252887 1_555
N18 O45 1.278515 1_555
N19 O18 1.252887 1_555
N19 O16 1.278515 1_555
N20 O8 1.252887 1_555
N20 O11 1.278515 1_555
N21 O15 1.252887 1_555
N21 O19 1.278515 1_555
N22 O21 1.252887 1_555
N22 O22 1.278515 1_555
N23 O3 1.252887 1_555
N23 O25 1.278515 1_555
O5 Y0 2.774721 1_665
O6 Y0 2.774721 1_555
O7 Y1 2.774721 1_555
O9 Y0 2.774721 1_665
O11 Y0 2.774721 1_566
O13 Y1 2.774721 1_555
O14 Y0 2.774721 1_656
O16 Y1 2.774721 1_555
O19 Y0 2.774721 1_665
O20 Y1 2.774721 1_555
O22 Y0 2.774721 1_656
O25 Y0 2.774721 1_555
O29 Y1 2.774721 1_555
O30 Y1 2.774721 1_555
O31 Y1 2.774721 1_555
O33 Y1 2.774721 1_555
O36 Y1 2.774721 1_555
O40 Y0 2.774721 1_656
O41 Y0 2.774721 1_566
O42 Y0 2.774721 1_555
O43 Y1 2.774721 1_555
O45 Y1 2.774721 1_555
O46 Y1 2.774721 1_555
O47 Y0 2.774721 1_566
