# generated using pymatgen
data_Ce3Sb5Pd6
_symmetry_space_group_name_H-M   'P 1'
_cell_length_a   4.46572521
_cell_length_b   10.16407333
_cell_length_c   13.55201053
_cell_angle_alpha   89.99591600
_cell_angle_beta   90.00000000
_cell_angle_gamma   90.00000000
_symmetry_Int_Tables_number   1
_chemical_formula_structural   Ce3Sb5Pd6
_chemical_formula_sum   'Ce6 Sb10 Pd12'
_cell_volume   615.12519379
_cell_formula_units_Z   2
loop_
 _symmetry_equiv_pos_site_id
 _symmetry_equiv_pos_as_xyz
  1  'x, y, z'
loop_
 _atom_site_type_symbol
 _atom_site_label
 _atom_site_symmetry_multiplicity
 _atom_site_fract_x
 _atom_site_fract_y
 _atom_site_fract_z
 _atom_site_occupancy
  Ce  Ce0  1  -0.00000000  0.24733196  0.32791850  1
  Ce  Ce1  1  0.50000000  0.75272228  0.82788528  1
  Ce  Ce2  1  0.50000000  0.75266609  0.17210526  1
  Ce  Ce3  1  0.00000000  0.24180235  -0.00007193  1
  Ce  Ce4  1  0.50000000  0.75820623  0.50011081  1
  Ce  Ce5  1  -0.00000000  0.24729833  0.67205799  1
  Sb  Sb0  1  -0.00000000  0.52072529  0.12794879  1
  Sb  Sb1  1  -0.00000000  0.86391537  0.33470322  1
  Sb  Sb2  1  0.00000000  0.83233842  0.00003460  1
  Sb  Sb3  1  0.50000000  0.47927361  0.37206874  1
  Sb  Sb4  1  0.50000000  0.16767720  0.50002122  1
  Sb  Sb5  1  -0.00000000  0.52072718  0.87198934  1
  Sb  Sb6  1  0.50000000  0.47933719  0.62795157  1
  Sb  Sb7  1  -0.00000000  0.86389396  0.66542277  1
  Sb  Sb8  1  0.50000000  0.13612153  0.16527804  1
  Sb  Sb9  1  0.50000000  0.13606439  0.83463447  1
  Pd  Pd0  1  -0.00000000  0.99214633  0.15941419  1
  Pd  Pd1  1  0.50000000  0.00804832  0.34059956  1
  Pd  Pd2  1  0.50000000  0.39308716  0.18198873  1
  Pd  Pd3  1  0.50000000  0.51718854  -0.00007222  1
  Pd  Pd4  1  0.00000000  0.48268138  0.50003474  1
  Pd  Pd5  1  0.00000000  0.60692772  0.31812898  1
  Pd  Pd6  1  -0.00000000  0.60700542  0.68184206  1
  Pd  Pd7  1  0.50000000  0.98643781  -0.00006905  1
  Pd  Pd8  1  0.00000000  0.99193034  0.84058085  1
  Pd  Pd9  1  0.50000000  0.39297515  0.81797409  1
  Pd  Pd10  1  0.00000000  0.01352216  0.50010786  1
  Pd  Pd11  1  0.50000000  0.00794829  0.65941355  1
loop_
_geom_bond_atom_site_label_1
_geom_bond_atom_site_label_2
_geom_bond_distance
_geom_bond_site_symmetry_2
Ce0 Sb3 3.301748 1_455
Ce0 Sb3 3.301748 1_555
Ce0 Pd1 3.306092 1_555
Ce0 Pd1 3.306092 1_455
Ce0 Sb4 3.328766 1_455
Ce0 Sb4 3.328766 1_555
Ce0 Pd2 3.330325 1_455
Ce0 Pd2 3.330325 1_555
Ce0 Pd10 3.330473 1_555
Ce0 Sb8 3.334937 1_455
Ce0 Sb8 3.334937 1_555
Ce0 Pd4 3.341203 1_555
Ce0 Pd0 3.455859 1_545
Ce0 Pd5 3.657355 1_555
Ce1 Sb5 3.301962 1_655
Ce1 Sb5 3.301962 1_555
Ce1 Pd8 3.305555 1_655
Ce1 Pd8 3.305555 1_555
Ce1 Pd7 3.328662 1_556
Ce1 Sb2 3.329194 1_556
Ce1 Sb2 3.329194 1_656
Ce1 Pd6 3.331191 1_555
Ce1 Pd6 3.331191 1_655
Ce1 Sb7 3.333103 1_655
Ce1 Sb7 3.333103 1_555
Ce1 Pd3 3.341609 1_556
Ce1 Pd11 3.455631 1_565
Ce1 Pd9 3.658972 1_555
Ce2 Sb0 3.301758 1_555
Ce2 Sb0 3.301758 1_655
Ce2 Pd0 3.307569 1_655
Ce2 Pd0 3.307569 1_555
Ce2 Sb2 3.328505 1_655
Ce2 Sb2 3.328505 1_555
Ce2 Pd7 3.330054 1_555
Ce2 Pd5 3.331006 1_555
Ce2 Pd5 3.331006 1_655
Ce2 Sb1 3.334690 1_555
Ce2 Sb1 3.334690 1_655
Ce2 Pd3 3.342714 1_555
Ce2 Pd1 3.457269 1_565
Ce2 Pd2 3.657231 1_555
Ce3 Sb5 3.323063 1_554
Ce3 Sb0 3.323838 1_555
Ce3 Pd0 3.333122 1_545
Ce3 Pd8 3.333809 1_544
Ce3 Sb9 3.340499 1_454
Ce3 Sb9 3.340499 1_554
Ce3 Sb8 3.340721 1_455
Ce3 Sb8 3.340721 1_555
Ce3 Pd7 3.423817 1_445
Ce3 Pd7 3.423817 1_545
Ce3 Pd3 3.580549 1_555
Ce3 Pd3 3.580549 1_455
Ce3 Pd9 3.664211 1_454
Ce3 Pd9 3.664211 1_554
Ce3 Pd2 3.665809 1_455
Ce3 Pd2 3.665809 1_555
Ce4 Sb6 3.321887 1_555
Ce4 Sb3 3.324073 1_555
Ce4 Pd11 3.332412 1_565
Ce4 Pd1 3.334783 1_565
Ce4 Sb7 3.340501 1_555
Ce4 Sb7 3.340501 1_655
Ce4 Sb1 3.341338 1_555
Ce4 Sb1 3.341338 1_655
Ce4 Pd10 3.423443 1_665
Ce4 Pd10 3.423443 1_565
Ce4 Pd4 3.581651 1_655
Ce4 Pd4 3.581651 1_555
Ce4 Pd6 3.662300 1_555
Ce4 Pd6 3.662300 1_655
Ce4 Pd5 3.665063 1_655
Ce4 Pd5 3.665063 1_555
Ce5 Sb6 3.302286 1_555
Ce5 Sb6 3.302286 1_455
Ce5 Pd11 3.306581 1_455
Ce5 Pd11 3.306581 1_555
Ce5 Sb4 3.328138 1_455
Ce5 Sb4 3.328138 1_555
Ce5 Pd10 3.328195 1_555
Ce5 Pd9 3.329987 1_555
Ce5 Pd9 3.329987 1_455
Ce5 Sb9 3.334338 1_455
Ce5 Sb9 3.334338 1_555
Ce5 Pd4 3.340330 1_555
Ce5 Pd8 3.457172 1_545
Ce5 Pd6 3.658502 1_555
Pd0 Sb8 2.670856 1_565
Pd0 Sb8 2.670856 1_465
Pd0 Sb2 2.702605 1_555
Pd0 Sb1 2.709496 1_555
Pd1 Sb1 2.671748 1_645
Pd1 Sb1 2.671748 1_545
Pd1 Sb4 2.701968 1_555
Pd1 Sb8 2.709111 1_555
Pd2 Sb8 2.621633 1_555
Pd2 Sb0 2.684199 1_655
Pd2 Sb0 2.684199 1_555
Pd2 Sb3 2.720902 1_555
Pd2 Pd3 2.770948 1_555
Pd3 Pd9 2.770333 1_554
Pd3 Sb5 2.827208 1_554
Pd3 Sb5 2.827208 1_654
Pd3 Sb0 2.827897 1_655
Pd3 Sb0 2.827897 1_555
Pd4 Pd6 2.769080 1_555
Pd4 Pd5 2.769747 1_555
Pd4 Sb6 2.827004 1_455
Pd4 Sb6 2.827004 1_555
Pd4 Sb3 2.827423 1_455
Pd4 Sb3 2.827423 1_555
Pd5 Sb1 2.621697 1_555
Pd5 Sb3 2.683907 1_455
Pd5 Sb3 2.683907 1_555
Pd5 Sb0 2.722240 1_555
Pd6 Sb7 2.620482 1_555
Pd6 Sb6 2.683845 1_455
Pd6 Sb6 2.683845 1_555
Pd6 Sb5 2.721948 1_555
Pd7 Sb9 2.707479 1_564
Pd7 Sb8 2.708552 1_565
Pd7 Sb2 2.727435 1_655
Pd7 Sb2 2.727435 1_555
Pd8 Sb9 2.671768 1_565
Pd8 Sb9 2.671768 1_465
Pd8 Sb2 2.701905 1_556
Pd8 Sb7 2.707151 1_555
Pd9 Sb9 2.620987 1_555
Pd9 Sb5 2.684718 1_655
Pd9 Sb5 2.684718 1_555
Pd9 Sb6 2.720622 1_555
Pd10 Sb7 2.707695 1_545
Pd10 Sb1 2.708758 1_545
Pd10 Sb4 2.727760 1_455
Pd10 Sb4 2.727760 1_555
Pd11 Sb7 2.671350 1_545
Pd11 Sb7 2.671350 1_645
Pd11 Sb4 2.702076 1_555
Pd11 Sb9 2.708288 1_555
