# generated using pymatgen
data_BaCeC2O6F
_symmetry_space_group_name_H-M   'P 1'
_cell_length_a   13.49652247
_cell_length_b   13.49652247
_cell_length_c   13.49652193
_cell_angle_alpha   24.07604569
_cell_angle_beta   24.07604569
_cell_angle_gamma   24.07604500
_symmetry_Int_Tables_number   1
_chemical_formula_structural   BaCeC2O6F
_chemical_formula_sum   'Ba2 Ce2 C4 O12 F2'
_cell_volume   359.54037416
_cell_formula_units_Z   2
loop_
 _symmetry_equiv_pos_site_id
 _symmetry_equiv_pos_as_xyz
  1  'x, y, z'
loop_
 _atom_site_type_symbol
 _atom_site_label
 _atom_site_symmetry_multiplicity
 _atom_site_fract_x
 _atom_site_fract_y
 _atom_site_fract_z
 _atom_site_occupancy
  Ba  Ba0  1  0.50000000  0.50000000  0.50000000  1
  Ba  Ba1  1  0.00000000  0.00000000  0.00000000  1
  Ce  Ce0  1  0.75014800  0.75014800  0.75014800  1
  Ce  Ce1  1  0.24985200  0.24985200  0.24985200  1
  C  C0  1  0.39163100  0.39163100  0.39163100  1
  C  C1  1  0.12174200  0.12174200  0.12174200  1
  C  C2  1  0.87825800  0.87825800  0.87825800  1
  C  C3  1  0.60836900  0.60836900  0.60836900  1
  O  O0  1  0.74600300  0.14652200  0.74600300  1
  O  O1  1  0.25399700  0.85347800  0.25399700  1
  O  O2  1  0.12847100  0.52254300  0.52254300  1
  O  O3  1  0.52254300  0.12847100  0.52254300  1
  O  O4  1  0.74600300  0.74600300  0.14652200  1
  O  O5  1  0.87152900  0.47745700  0.47745700  1
  O  O6  1  0.85347800  0.25399700  0.25399700  1
  O  O7  1  0.47745700  0.87152900  0.47745700  1
  O  O8  1  0.25399700  0.25399700  0.85347800  1
  O  O9  1  0.14652200  0.74600300  0.74600300  1
  O  O10  1  0.52254300  0.52254300  0.12847100  1
  O  O11  1  0.47745700  0.47745700  0.87152900  1
  F  F0  1  0.31812400  0.31812400  0.31812400  1
  F  F1  1  0.68187600  0.68187600  0.68187600  1
loop_
_geom_bond_atom_site_label_1
_geom_bond_atom_site_label_2
_geom_bond_distance
_geom_bond_site_symmetry_2
Ba0 O9 2.662607 1_555
Ba0 O0 2.662607 1_555
Ba0 O6 2.662607 1_555
Ba0 O1 2.662607 1_555
Ba0 O4 2.662607 1_555
Ba0 O8 2.662607 1_555
Ba1 F1 3.304801 1_445
Ba1 F0 3.304801 1_554
Ba1 F1 3.304801 1_454
Ba1 F1 3.304801 1_544
Ba1 F0 3.304801 1_545
Ba1 F0 3.304801 1_455
Ce0 O2 2.212039 1_655
Ce0 O3 2.212039 1_565
Ce0 O10 2.212039 1_556
Ce0 F1 2.682946 1_555
Ce1 O7 2.212039 1_545
Ce1 O5 2.212039 1_455
Ce1 O11 2.212039 1_554
Ce1 F0 2.682946 1_555
C0 O2 1.280973 1_555
C0 O3 1.280973 1_555
C0 O10 1.280973 1_555
C1 O6 1.302737 1_455
C1 O1 1.302737 1_545
C1 O8 1.302737 1_554
C2 O9 1.302737 1_655
C2 O0 1.302737 1_565
C2 O4 1.302737 1_556
C3 O7 1.280973 1_555
C3 O5 1.280973 1_555
C3 O11 1.280973 1_555
