# generated using pymatgen
data_TmAgSn
_symmetry_space_group_name_H-M   'P 1'
_cell_length_a   4.66559832
_cell_length_b   4.66559881
_cell_length_c   7.33489660
_cell_angle_alpha   90.00000000
_cell_angle_beta   90.00000000
_cell_angle_gamma   119.99999656
_symmetry_Int_Tables_number   1
_chemical_formula_structural   TmAgSn
_chemical_formula_sum   'Tm2 Ag2 Sn2'
_cell_volume   138.27363496
_cell_formula_units_Z   2
loop_
 _symmetry_equiv_pos_site_id
 _symmetry_equiv_pos_as_xyz
  1  'x, y, z'
loop_
 _atom_site_type_symbol
 _atom_site_label
 _atom_site_symmetry_multiplicity
 _atom_site_fract_x
 _atom_site_fract_y
 _atom_site_fract_z
 _atom_site_occupancy
  Tm  Tm0  1  0.00000000  0.00000000  0.49211820  1
  Tm  Tm1  1  0.00000000  0.00000000  0.99211820  1
  Ag  Ag0  1  0.33333300  0.66666700  0.81220437  1
  Ag  Ag1  1  0.66666700  0.33333300  0.31220437  1
  Sn  Sn0  1  0.66666700  0.33333300  0.71221744  1
  Sn  Sn1  1  0.33333300  0.66666700  0.21221744  1
loop_
_geom_bond_atom_site_label_1
_geom_bond_atom_site_label_2
_geom_bond_distance
_geom_bond_site_symmetry_2
Tm0 Tm1 3.667448 1_554
Tm0 Tm1 3.667448 1_555
Ag0 Sn0 2.791736 1_455
Ag0 Sn0 2.791736 1_565
Ag0 Sn0 2.791744 1_555
Ag0 Sn1 2.934055 1_556
Ag0 Tm1 2.999566 1_565
Ag0 Tm1 2.999570 1_665
Ag0 Tm1 2.999570 1_555
Ag0 Tm0 3.573245 1_565
Ag0 Tm0 3.573248 1_665
Ag0 Tm0 3.573249 1_555
Ag1 Sn1 2.791736 1_655
Ag1 Sn1 2.791736 1_545
Ag1 Sn1 2.791744 1_555
Ag1 Sn0 2.934055 1_555
Ag1 Tm0 2.999566 1_655
Ag1 Tm0 2.999570 1_555
Ag1 Tm0 2.999570 1_665
Ag1 Tm1 3.573245 1_654
Ag1 Tm1 3.573248 1_554
Ag1 Tm1 3.573249 1_664
Sn0 Tm0 3.140418 1_655
Sn0 Tm0 3.140422 1_555
Sn0 Tm0 3.140422 1_665
Sn0 Tm1 3.386873 1_655
Sn0 Tm1 3.386876 1_555
Sn0 Tm1 3.386876 1_665
Sn1 Tm1 3.140418 1_564
Sn1 Tm1 3.140422 1_664
Sn1 Tm1 3.140422 1_554
Sn1 Tm0 3.386873 1_565
Sn1 Tm0 3.386876 1_665
Sn1 Tm0 3.386876 1_555
