# generated using pymatgen
data_La7Ti27Al5(CuO4)24
_symmetry_space_group_name_H-M   'P 1'
_cell_length_a   6.46064568
_cell_length_b   6.47440089
_cell_length_c   51.69676743
_cell_angle_alpha   109.49788339
_cell_angle_beta   109.51766429
_cell_angle_gamma   109.46822082
_symmetry_Int_Tables_number   1
_chemical_formula_structural   La7Ti27Al5(CuO4)24
_chemical_formula_sum   'La7 Ti27 Al5 Cu24 O96'
_cell_volume   1663.18523724
_cell_formula_units_Z   1
loop_
 _symmetry_equiv_pos_site_id
 _symmetry_equiv_pos_as_xyz
  1  'x, y, z'
loop_
 _atom_site_type_symbol
 _atom_site_label
 _atom_site_symmetry_multiplicity
 _atom_site_fract_x
 _atom_site_fract_y
 _atom_site_fract_z
 _atom_site_occupancy
  La  La0  1  0.00052456  0.00119919  0.87586323  1
  La  La1  1  0.00673450  0.00575860  0.75086628  1
  La  La2  1  0.00343171  0.00400623  0.62578092  1
  La  La3  1  0.00139418  0.00160734  0.50033507  1
  La  La4  1  0.99974176  0.99975536  0.37494056  1
  La  La5  1  0.99767004  0.99795291  0.24948589  1
  La  La6  1  0.99123838  0.99051359  0.12282121  1
  Ti  Ti0  1  0.00314839  0.00625089  0.94054321  1
  Ti  Ti1  1  0.99835761  0.50269315  0.87494352  1
  Ti  Ti2  1  0.52255395  0.51633871  0.93985608  1
  Ti  Ti3  1  0.00131746  0.49982377  0.75123286  1
  Ti  Ti4  1  0.00062249  0.00050348  0.81281747  1
  Ti  Ti5  1  0.00176450  0.50258247  0.62570366  1
  Ti  Ti6  1  0.00198099  0.00242825  0.68806129  1
  Ti  Ti7  1  0.50565245  0.50371103  0.68848887  1
  Ti  Ti8  1  0.00684170  0.99827792  0.56354765  1
  Ti  Ti9  1  0.00001149  0.50090120  0.50026355  1
  Ti  Ti10  1  0.50230677  0.50575999  0.56399994  1
  Ti  Ti11  1  -0.00011548  0.49969933  0.37493470  1
  Ti  Ti12  1  0.00058577  0.99961406  0.43759402  1
  Ti  Ti13  1  0.50338940  0.00511031  0.50070789  1
  Ti  Ti14  1  0.99872270  0.99976206  0.31222413  1
  Ti  Ti15  1  0.50076260  0.50040175  0.43761386  1
  Ti  Ti16  1  0.00001918  0.49825378  0.24955208  1
  Ti  Ti17  1  0.49836805  0.49880197  0.31220357  1
  Ti  Ti18  1  0.49974327  0.99954614  0.37493409  1
  Ti  Ti19  1  0.99842076  0.49555912  0.12343626  1
  Ti  Ti20  1  0.99186929  0.99969043  0.18597442  1
  Ti  Ti21  1  0.49616300  0.99366338  0.24915155  1
  Ti  Ti22  1  0.49474486  0.49220825  0.18555687  1
  Ti  Ti23  1  0.99620407  0.99295363  0.05926504  1
  Ti  Ti24  1  0.47354441  0.48191662  0.05961539  1
  Ti  Ti25  1  0.49956021  0.99892243  0.99996653  1
  Ti  Ti26  1  0.00006174  0.50023402  0.99986314  1
  Al  Al0  1  0.50202361  0.50027522  0.81262043  1
  Al  Al1  1  0.50000496  0.99684156  0.87491804  1
  Al  Al2  1  0.50303227  0.00782959  0.75067342  1
  Al  Al3  1  0.50312012  0.00423044  0.62561948  1
  Al  Al4  1  0.49471845  0.99328001  0.12403184  1
  Cu  Cu0  1  0.49841918  0.00167292  0.93721428  1
  Cu  Cu1  1  0.50044064  0.00013333  0.81251829  1
  Cu  Cu2  1  0.50109617  0.50016533  0.87473739  1
  Cu  Cu3  1  0.99809094  0.49566631  0.93700249  1
  Cu  Cu4  1  0.50039768  0.00022590  0.68751388  1
  Cu  Cu5  1  0.49982440  0.50014431  0.75051565  1
  Cu  Cu6  1  0.99975531  0.50039922  0.81261268  1
  Cu  Cu7  1  0.49993082  0.49935948  0.62519826  1
  Cu  Cu8  1  -0.00024849  0.49993247  0.68758285  1
  Cu  Cu9  1  0.50171409  0.00115325  0.56309246  1
  Cu  Cu10  1  0.49993739  0.99990552  0.43749125  1
  Cu  Cu11  1  0.49983306  0.50032271  0.50009789  1
  Cu  Cu12  1  0.00287263  0.50245799  0.56288026  1
  Cu  Cu13  1  0.49977366  0.99987792  0.31244683  1
  Cu  Cu14  1  0.49984743  0.49988489  0.37496795  1
  Cu  Cu15  1  0.00030923  0.50001637  0.43752679  1
  Cu  Cu16  1  0.49792356  0.99875392  0.18687198  1
  Cu  Cu17  1  0.49990735  0.49954044  0.24985012  1
  Cu  Cu18  1  0.99958283  0.49970122  0.31242631  1
  Cu  Cu19  1  0.49947228  0.50034182  0.12466529  1
  Cu  Cu20  1  0.50151105  0.99843424  0.06284521  1
  Cu  Cu21  1  0.99733615  0.49729260  0.18707951  1
  Cu  Cu22  1  0.49996004  0.49993775  0.99998375  1
  Cu  Cu23  1  0.00212586  0.50417810  0.06287313  1
  O  O0  1  0.17841383  0.86804603  0.96090564  1
  O  O1  1  0.13218720  0.31210687  0.97754615  1
  O  O2  1  0.17430022  0.48014647  0.91268707  1
  O  O3  1  0.17919334  0.87613814  0.83731351  1
  O  O4  1  0.30520557  0.82391727  0.89060298  1
  O  O5  1  0.50802532  0.68722342  0.97736219  1
  O  O6  1  0.30477426  0.17519348  0.93511391  1
  O  O7  1  0.12710927  0.30333836  0.85283441  1
  O  O8  1  0.68655865  0.82144309  0.93867308  1
  O  O9  1  0.18242496  0.48013475  0.78796334  1
  O  O10  1  0.48123750  0.30030621  0.89666438  1
  O  O11  1  0.30806872  0.82612286  0.76603792  1
  O  O12  1  0.18184162  0.87870468  0.71264478  1
  O  O13  1  0.68821858  0.18036237  0.98344201  1
  O  O14  1  0.51800949  0.69628202  0.85249431  1
  O  O15  1  0.82145094  0.50921835  0.96128087  1
  O  O16  1  0.12320303  0.30102244  0.72750818  1
  O  O17  1  0.30863731  0.17958510  0.81027833  1
  O  O18  1  0.87129966  0.69455692  0.89689082  1
  O  O19  1  0.69062981  0.82027909  0.81461584  1
  O  O20  1  0.17671853  0.47901448  0.66245202  1
  O  O21  1  0.18319175  0.87967003  0.58770403  1
  O  O22  1  0.48012229  0.30136366  0.77258808  1
  O  O23  1  0.30178434  0.82130387  0.63985655  1
  O  O24  1  0.69048929  0.17153410  0.85855385  1
  O  O25  1  0.81797520  0.12373257  0.91236147  1
  O  O26  1  0.51840875  0.70072631  0.72772105  1
  O  O27  1  0.81809459  0.51982438  0.83686277  1
  O  O28  1  0.30098884  0.17816639  0.68487673  1
  O  O29  1  0.12262877  0.29973836  0.60244377  1
  O  O30  1  0.17656713  0.47830545  0.53736480  1
  O  O31  1  0.69781902  0.82119434  0.68986493  1
  O  O32  1  0.87709578  0.69806775  0.77215609  1
  O  O33  1  0.47908580  0.29730221  0.64702903  1
  O  O34  1  0.30070519  0.82147110  0.51533206  1
  O  O35  1  0.17760677  0.87869266  0.46230692  1
  O  O36  1  0.82013977  0.12228203  0.78748237  1
  O  O37  1  0.69797348  0.17790278  0.73487867  1
  O  O38  1  0.51823835  0.70197480  0.60270443  1
  O  O39  1  0.12111806  0.30012642  0.47756473  1
  O  O40  1  0.30055713  0.17869722  0.55974472  1
  O  O41  1  0.82305975  0.52085842  0.71234897  1
  O  O42  1  0.87613935  0.69792290  0.64702802  1
  O  O43  1  0.17918316  0.47847116  0.41246270  1
  O  O44  1  0.69824804  0.82071782  0.56476353  1
  O  O45  1  0.47740622  0.29870020  0.52205859  1
  O  O46  1  0.29980729  0.82120249  0.39011200  1
  O  O47  1  0.17885307  0.87830749  0.33753084  1
  O  O48  1  0.69774861  0.17722585  0.60994973  1
  O  O49  1  0.52046074  0.69926118  0.47756455  1
  O  O50  1  0.81794120  0.12036638  0.66218247  1
  O  O51  1  0.12051637  0.30028889  0.35271874  1
  O  O52  1  0.29972536  0.17946615  0.43486455  1
  O  O53  1  0.81998485  0.52009680  0.58697038  1
  O  O54  1  0.17935010  0.47929947  0.28777526  1
  O  O55  1  0.69982984  0.82035146  0.44004241  1
  O  O56  1  0.87781391  0.69869008  0.52205362  1
  O  O57  1  0.17720202  0.87473425  0.21237531  1
  O  O58  1  0.30019739  0.82192035  0.26531253  1
  O  O59  1  0.47867068  0.29905138  0.39732916  1
  O  O60  1  0.70000326  0.17848222  0.48475224  1
  O  O61  1  0.52144110  0.70134861  0.35273287  1
  O  O62  1  0.82224314  0.12334008  0.53755626  1
  O  O63  1  0.30031178  0.17974046  0.30998567  1
  O  O64  1  0.12323572  0.30223636  0.22811583  1
  O  O65  1  0.82011900  0.52089375  0.46235870  1
  O  O66  1  0.87957684  0.70008630  0.39733881  1
  O  O67  1  0.17942076  0.48021665  0.16339234  1
  O  O68  1  0.70047620  0.82077689  0.31518685  1
  O  O69  1  0.18206287  0.87768718  0.08769196  1
  O  O70  1  0.30348635  0.82433533  0.14035098  1
  O  O71  1  0.47973206  0.30167293  0.27244662  1
  O  O72  1  0.82134510  0.12051674  0.41247350  1
  O  O73  1  0.70035254  0.17907264  0.35994163  1
  O  O74  1  0.52313759  0.70158645  0.22811887  1
  O  O75  1  0.12482660  0.30350341  0.10315792  1
  O  O76  1  0.30282075  0.17904490  0.18534638  1
  O  O77  1  0.82199826  0.52139997  0.33754212  1
  O  O78  1  0.69934354  0.82208931  0.19032397  1
  O  O79  1  0.17874702  0.49112081  0.03865275  1
  O  O80  1  0.87803383  0.69982996  0.27245341  1
  O  O81  1  0.31012446  0.81818459  0.01617028  1
  O  O82  1  0.48245312  0.29875953  0.14733889  1
  O  O83  1  0.82321835  0.12293967  0.28782290  1
  O  O84  1  0.69912786  0.17850708  0.23464729  1
  O  O85  1  0.52083294  0.70255025  0.10314507  1
  O  O86  1  0.82487928  0.52166576  0.21254945  1
  O  O87  1  0.31210882  0.18060649  0.06141657  1
  O  O88  1  0.69741865  0.82333427  0.06501822  1
  O  O89  1  0.87683927  0.70078174  0.14768928  1
  O  O90  1  0.49240734  0.31277494  0.02270328  1
  O  O91  1  0.69659097  0.17812558  0.11000510  1
  O  O92  1  0.81826295  0.12332672  0.16254838  1
  O  O93  1  0.82376990  0.51953826  0.08733060  1
  O  O94  1  0.86828152  0.68784200  0.02248106  1
  O  O95  1  0.82068473  0.13157441  0.03905933  1
loop_
_geom_bond_atom_site_label_1
_geom_bond_atom_site_label_2
_geom_bond_distance
_geom_bond_site_symmetry_2
La0 O25 2.586865 1_455
La0 O6 2.590876 1_555
La0 O18 2.600479 1_445
La0 O2 2.609738 1_555
La0 O4 2.619240 1_545
La0 O14 2.619926 1_445
La0 O10 2.630844 1_555
La0 O27 2.633718 1_445
La0 O24 2.638672 1_455
La0 O3 2.653799 1_545
La0 O7 2.655479 1_555
La0 O19 2.670399 1_445
La1 O22 2.578075 1_555
La1 O9 2.586309 1_555
La1 O17 2.594398 1_555
La1 O36 2.604488 1_455
La1 O32 2.617016 1_445
La1 O11 2.618356 1_545
La1 O16 2.620697 1_555
La1 O12 2.624837 1_545
La1 O37 2.626731 1_455
La1 O41 2.644622 1_445
La1 O26 2.651860 1_445
La1 O31 2.654309 1_445
La2 O28 2.575202 1_555
La2 O20 2.588482 1_555
La2 O50 2.589851 1_455
La2 O33 2.591975 1_555
La2 O42 2.603901 1_445
La2 O23 2.607943 1_545
La2 O48 2.614742 1_455
La2 O29 2.625754 1_555
La2 O38 2.632725 1_445
La2 O21 2.639041 1_545
La2 O53 2.643071 1_445
La2 O44 2.651748 1_445
La3 O40 2.586257 1_555
La3 O45 2.593456 1_555
La3 O62 2.597553 1_455
La3 O30 2.598267 1_555
La3 O56 2.601847 1_445
La3 O34 2.608785 1_545
La3 O60 2.608808 1_455
La3 O49 2.614463 1_445
La3 O35 2.617111 1_545
La3 O39 2.617268 1_555
La3 O55 2.620074 1_445
La3 O65 2.620624 1_445
La4 O68 2.598002 1_555
La4 O61 2.601711 1_555
La4 O59 2.604186 1_665
La4 O47 2.604667 1_655
La4 O52 2.604948 1_665
La4 O73 2.605000 1_565
La4 O72 2.605159 1_565
La4 O46 2.606316 1_655
La4 O51 2.606475 1_665
La4 O77 2.607140 1_555
La4 O43 2.608046 1_665
La4 O66 2.608468 1_555
La5 O78 2.576654 1_555
La5 O74 2.588843 1_555
La5 O57 2.597002 1_655
La5 O64 2.597334 1_665
La5 O86 2.598421 1_555
La5 O84 2.605382 1_565
La5 O58 2.612905 1_655
La5 O71 2.620087 1_665
La5 O80 2.623243 1_555
La5 O83 2.623539 1_565
La5 O54 2.626660 1_665
La5 O63 2.629244 1_665
La6 O88 2.526953 1_555
La6 O69 2.561719 1_655
La6 O93 2.564136 1_555
La6 O85 2.576519 1_555
La6 O75 2.584594 1_665
La6 O91 2.602674 1_565
La6 O70 2.631439 1_655
La6 O89 2.652997 1_555
La6 O82 2.657596 1_665
La6 O92 2.683561 1_565
La6 O67 2.686470 1_665
La6 O76 2.714925 1_665
Al0 O27 1.941217 1_555
Al0 O9 1.963716 1_555
Al0 O22 1.966025 1_555
Al0 O19 1.969382 1_555
Al0 O17 1.971939 1_555
Al0 O14 1.973426 1_555
Al1 O25 1.948946 1_565
Al1 O4 1.960496 1_555
Al1 O14 1.969564 1_555
Al1 O3 1.974761 1_555
Al1 O10 1.978437 1_565
Al1 O24 1.978886 1_565
Al2 O22 1.944076 1_555
Al2 O36 1.951718 1_555
Al2 O37 1.956621 1_555
Al2 O12 1.972432 1_545
Al2 O11 1.976372 1_545
Al2 O26 2.001673 1_545
Al3 O50 1.933406 1_555
Al3 O33 1.938763 1_555
Al3 O23 1.957313 1_545
Al3 O48 1.959430 1_555
Al3 O21 1.972609 1_545
Al3 O38 1.974752 1_545
Al4 O69 1.920359 1_555
Al4 O85 1.927199 1_555
Al4 O91 1.957016 1_565
Al4 O70 1.961191 1_555
Al4 O82 1.986761 1_565
Al4 O92 1.992399 1_565
Cu0 O6 1.940777 1_555
Cu0 O8 1.946191 1_545
Cu0 O13 1.950374 1_555
Cu0 O4 1.967341 1_545
Cu1 O24 1.944008 1_555
Cu1 O19 1.956145 1_545
Cu1 O11 1.962604 1_545
Cu1 O17 1.962764 1_555
Cu2 O18 1.953743 1_555
Cu2 O7 1.974928 1_555
Cu2 O14 1.978021 1_555
Cu2 O10 1.985301 1_555
Cu3 O2 1.958156 1_655
Cu3 O15 1.958490 1_555
Cu3 O25 1.967105 1_555
Cu3 O0 1.968224 1_655
Cu4 O31 1.990248 1_545
Cu4 O28 1.995590 1_555
Cu4 O37 2.000194 1_555
Cu4 O23 2.012460 1_545
Cu5 O22 1.985638 1_555
Cu5 O16 1.987183 1_555
Cu5 O32 1.993404 1_555
Cu5 O26 2.025271 1_555
Cu6 O27 1.985242 1_555
Cu6 O3 1.987417 1_655
Cu6 O36 2.000866 1_555
Cu6 O9 2.007562 1_655
Cu7 O42 1.987400 1_555
Cu7 O29 1.991285 1_555
Cu7 O33 1.993215 1_555
Cu7 O38 2.023331 1_555
Cu8 O41 1.981064 1_455
Cu8 O20 1.997920 1_555
Cu8 O12 2.003504 1_555
Cu8 O50 2.008550 1_455
Cu9 O48 1.978814 1_555
Cu9 O44 1.991788 1_545
Cu9 O40 2.004629 1_555
Cu9 O34 2.017205 1_545
Cu10 O60 1.996213 1_565
Cu10 O46 2.001176 1_555
Cu10 O55 2.006457 1_555
Cu10 O52 2.008349 1_565
Cu11 O56 1.996346 1_555
Cu11 O45 1.996763 1_555
Cu11 O39 1.999305 1_555
Cu11 O49 2.006145 1_555
Cu12 O53 1.984538 1_455
Cu12 O21 1.995217 1_555
Cu12 O30 1.998007 1_555
Cu12 O62 2.006326 1_455
Cu13 O58 1.990917 1_555
Cu13 O63 2.005618 1_565
Cu13 O73 2.006029 1_565
Cu13 O68 2.008774 1_555
Cu14 O51 2.003049 1_555
Cu14 O66 2.005022 1_555
Cu14 O61 2.007199 1_555
Cu14 O59 2.009049 1_555
Cu15 O65 2.002275 1_455
Cu15 O35 2.003741 1_555
Cu15 O43 2.005303 1_555
Cu15 O72 2.008172 1_455
Cu16 O70 1.964683 1_555
Cu16 O76 1.983271 1_565
Cu16 O78 2.001683 1_555
Cu16 O84 2.017867 1_565
Cu17 O74 1.989635 1_555
Cu17 O64 1.989744 1_555
Cu17 O80 1.996094 1_555
Cu17 O71 2.003041 1_555
Cu18 O54 1.992296 1_655
Cu18 O83 1.993516 1_555
Cu18 O77 2.000746 1_555
Cu18 O47 2.003483 1_655
Cu19 O75 1.979566 1_555
Cu19 O85 1.981197 1_555
Cu19 O89 1.991413 1_555
Cu19 O82 2.025106 1_555
Cu20 O88 1.961183 1_555
Cu20 O87 1.963086 1_565
Cu20 O81 1.969236 1_555
Cu20 O91 1.990453 1_565
Cu21 O67 1.963290 1_655
Cu21 O92 1.977815 1_555
Cu21 O86 1.989677 1_555
Cu21 O57 1.997665 1_655
Cu22 O1 1.939247 1_555
Cu22 O94 1.942088 1_556
Cu22 O5 1.945732 1_555
Cu22 O90 1.949163 1_556
Cu23 O79 1.955852 1_555
Cu23 O95 1.969148 1_455
Cu23 O93 1.975416 1_455
Cu23 O69 1.975810 1_555
O0 Ti0 1.923178 1_565
O0 Ti25 1.996713 1_555
O1 Ti0 1.892334 1_555
O1 Ti26 1.989048 1_555
O2 Ti1 1.984786 1_455
O2 Ti2 2.099331 1_555
O3 Ti4 1.976524 1_565
O4 Ti1 1.991537 1_455
O5 Ti2 1.936802 1_555
O5 Ti25 1.995788 1_555
O6 Ti0 2.054808 1_555
O6 Ti2 2.062703 1_555
O7 Ti4 1.971416 1_555
O7 Ti1 2.007576 1_455
O8 Ti2 1.938376 1_555
O8 Ti0 1.945224 1_665
O9 Ti3 1.940967 1_555
O10 Ti2 2.069145 1_555
O11 Ti3 2.023056 1_555
O12 Ti6 1.979985 1_565
O13 Ti26 1.992744 1_655
O13 Ti25 2.001641 1_545
O15 Ti2 1.903201 1_555
O15 Ti26 1.974225 1_655
O16 Ti6 1.949679 1_555
O16 Ti3 2.012011 1_555
O17 Ti4 2.014878 1_555
O18 Ti1 1.966068 1_555
O18 Ti0 2.102461 1_665
O19 Ti4 2.005073 1_665
O20 Ti5 1.945164 1_555
O20 Ti7 2.017915 1_555
O21 Ti8 1.928712 1_555
O23 Ti5 1.982160 1_555
O24 Ti1 2.022297 1_555
O25 Ti0 2.077019 1_655
O26 Ti7 1.959235 1_555
O27 Ti1 1.985975 1_555
O28 Ti6 1.981395 1_555
O28 Ti7 1.985010 1_555
O29 Ti8 1.952989 1_545
O29 Ti5 2.009277 1_555
O30 Ti9 1.959069 1_555
O30 Ti10 2.001861 1_555
O31 Ti6 1.976251 1_665
O31 Ti7 1.978355 1_555
O32 Ti3 1.949716 1_655
O32 Ti4 1.994863 1_665
O33 Ti7 2.024476 1_555
O34 Ti9 1.977476 1_555
O34 Ti13 1.980823 1_565
O35 Ti12 1.959923 1_555
O35 Ti13 2.004009 1_565
O36 Ti4 1.994590 1_655
O37 Ti3 1.973195 1_655
O38 Ti10 1.925211 1_555
O39 Ti12 1.973028 1_545
O39 Ti9 1.987993 1_555
O40 Ti10 1.972047 1_555
O40 Ti8 1.982183 1_545
O41 Ti7 1.950813 1_555
O41 Ti3 2.031269 1_655
O42 Ti5 1.955728 1_655
O42 Ti6 2.008752 1_665
O43 Ti15 1.975427 1_555
O43 Ti11 1.976636 1_555
O44 Ti8 1.976017 1_655
O44 Ti10 1.988584 1_555
O45 Ti13 1.948215 1_555
O45 Ti10 2.051123 1_555
O46 Ti18 1.976188 1_555
O46 Ti11 1.976977 1_555
O47 Ti18 1.968889 1_555
O47 Ti14 1.990891 1_455
O48 Ti5 1.996608 1_655
O49 Ti15 1.969642 1_555
O49 Ti13 2.004246 1_565
O50 Ti6 2.002712 1_655
O51 Ti11 1.967806 1_555
O51 Ti14 1.986758 1_445
O52 Ti12 1.975534 1_545
O52 Ti15 1.976173 1_555
O53 Ti10 1.949878 1_555
O53 Ti5 2.017585 1_655
O54 Ti17 1.959496 1_555
O54 Ti16 1.997227 1_555
O55 Ti12 1.974280 1_655
O55 Ti15 1.975736 1_555
O56 Ti9 1.958888 1_655
O56 Ti8 2.002129 1_655
O57 Ti21 1.949667 1_555
O57 Ti20 2.059563 1_455
O58 Ti16 1.977808 1_555
O58 Ti21 1.981382 1_555
O59 Ti18 1.975283 1_545
O59 Ti15 1.980408 1_555
O60 Ti9 1.975967 1_655
O60 Ti13 1.980318 1_555
O61 Ti18 1.968011 1_555
O61 Ti17 1.989662 1_555
O62 Ti13 1.952370 1_555
O62 Ti8 2.045141 1_645
O63 Ti14 1.973568 1_445
O63 Ti17 1.974753 1_555
O64 Ti16 1.948446 1_555
O64 Ti20 2.027587 1_445
O65 Ti15 1.962562 1_555
O65 Ti9 1.988769 1_655
O66 Ti11 1.974702 1_655
O66 Ti12 1.977631 1_655
O67 Ti22 1.935087 1_555
O67 Ti19 2.060196 1_455
O68 Ti14 1.976472 1_555
O68 Ti17 1.977563 1_555
O69 Ti23 2.075755 1_455
O70 Ti19 1.997400 1_455
O71 Ti17 1.961845 1_555
O71 Ti21 2.015364 1_545
O72 Ti18 1.975602 1_545
O72 Ti12 1.979433 1_645
O73 Ti18 1.974830 1_545
O73 Ti11 1.975055 1_655
O74 Ti21 1.939671 1_555
O74 Ti22 2.070298 1_555
O75 Ti19 1.921161 1_455
O75 Ti23 2.112541 1_445
O76 Ti20 1.974616 1_445
O76 Ti22 1.987211 1_555
O77 Ti11 1.970225 1_655
O77 Ti17 1.986720 1_555
O78 Ti22 1.979570 1_555
O78 Ti20 1.988089 1_555
O79 Ti24 1.882817 1_555
O79 Ti26 1.983666 1_554
O80 Ti14 1.964791 1_555
O80 Ti16 2.000913 1_655
O81 Ti26 1.981293 1_554
O81 Ti25 1.988380 1_554
O82 Ti22 1.911946 1_555
O83 Ti14 1.957431 1_545
O83 Ti21 2.010853 1_545
O84 Ti16 1.977397 1_655
O84 Ti21 1.980883 1_545
O85 Ti24 2.074070 1_555
O86 Ti16 1.955539 1_655
O86 Ti22 2.023669 1_555
O87 Ti24 1.931846 1_555
O87 Ti23 1.938862 1_445
O88 Ti23 2.051664 1_555
O88 Ti24 2.059852 1_555
O89 Ti20 1.927800 1_555
O89 Ti19 2.048447 1_555
O90 Ti24 1.924793 1_555
O90 Ti25 2.004316 1_544
O91 Ti19 1.994942 1_555
O92 Ti20 1.924411 1_545
O93 Ti19 1.919425 1_555
O93 Ti24 2.113138 1_555
O94 Ti23 1.885587 1_555
O94 Ti26 1.993453 1_654
O95 Ti23 1.922291 1_545
O95 Ti25 1.994543 1_544
