# generated using pymatgen
data_KLiB4O7
_symmetry_space_group_name_H-M   'P 1'
_cell_length_a   8.59424400
_cell_length_b   11.38175400
_cell_length_c   12.79573800
_cell_angle_alpha   90.00000000
_cell_angle_beta   90.00000000
_cell_angle_gamma   90.00000000
_symmetry_Int_Tables_number   1
_chemical_formula_structural   KLiB4O7
_chemical_formula_sum   'K8 Li8 B32 O56'
_cell_volume   1251.64801062
_cell_formula_units_Z   8
loop_
 _symmetry_equiv_pos_site_id
 _symmetry_equiv_pos_as_xyz
  1  'x, y, z'
loop_
 _atom_site_type_symbol
 _atom_site_label
 _atom_site_symmetry_multiplicity
 _atom_site_fract_x
 _atom_site_fract_y
 _atom_site_fract_z
 _atom_site_occupancy
  K  K0  1  0.36118800  0.45312900  0.09841800  1
  K  K1  1  0.86118800  0.04687100  0.90158200  1
  K  K2  1  0.63881200  0.95312900  0.40158200  1
  K  K3  1  0.13881200  0.54687100  0.59841800  1
  K  K4  1  0.68548200  0.37624200  0.80526200  1
  K  K5  1  0.18548200  0.12375800  0.19473800  1
  K  K6  1  0.31451800  0.87624200  0.69473800  1
  K  K7  1  0.81451800  0.62375800  0.30526200  1
  Li  Li0  1  0.74190800  0.67245700  0.79774300  1
  Li  Li1  1  0.24190800  0.82754300  0.20225700  1
  Li  Li2  1  0.25809200  0.17245700  0.70225700  1
  Li  Li3  1  0.75809200  0.32754300  0.29774300  1
  Li  Li4  1  0.07036400  0.64621200  0.88035600  1
  Li  Li5  1  0.57036400  0.85378800  0.11964400  1
  Li  Li6  1  0.92963600  0.14621200  0.61964400  1
  Li  Li7  1  0.42963600  0.35378800  0.38035600  1
  B  B0  1  0.34218400  0.72964200  0.99517700  1
  B  B1  1  0.84218400  0.77035800  0.00482300  1
  B  B2  1  0.65781600  0.22964200  0.50482300  1
  B  B3  1  0.15781600  0.27035800  0.49517700  1
  B  B4  1  0.41153500  0.60453600  0.84172500  1
  B  B5  1  0.91153600  0.89546400  0.15827500  1
  B  B6  1  0.58846400  0.10453600  0.65827500  1
  B  B7  1  0.08846500  0.39546400  0.34172500  1
  B  B8  1  0.21844500  0.43028200  0.83573300  1
  B  B9  1  0.71844500  0.06971800  0.16426700  1
  B  B10  1  0.78155500  0.93028200  0.66426700  1
  B  B11  1  0.28155500  0.56971800  0.33573300  1
  B  B12  1  0.05741000  0.25252300  0.81001800  1
  B  B13  1  0.55741000  0.24747700  0.18998200  1
  B  B14  1  0.94259000  0.75252300  0.68998200  1
  B  B15  1  0.44259000  0.74747700  0.31001800  1
  B  B16  1  0.00175700  0.38662600  0.96319700  1
  B  B17  1  0.50175700  0.11337400  0.03680300  1
  B  B18  1  0.99824300  0.88662600  0.53680300  1
  B  B19  1  0.49824300  0.61337400  0.46319700  1
  B  B20  1  0.98365700  0.36786700  0.15812500  1
  B  B21  1  0.48365700  0.13213300  0.84187500  1
  B  B22  1  0.01634300  0.86786700  0.34187500  1
  B  B23  1  0.51634300  0.63213300  0.65812500  1
  B  B24  1  0.78909100  0.48535200  0.06656500  1
  B  B25  1  0.28909100  0.01464800  0.93343500  1
  B  B26  1  0.21090900  0.98535200  0.43343500  1
  B  B27  1  0.71090900  0.51464800  0.56656500  1
  B  B28  1  0.60622600  0.63458500  0.98942600  1
  B  B29  1  0.10622600  0.86541500  0.01057400  1
  B  B30  1  0.39377400  0.13458500  0.51057400  1
  B  B31  1  0.89377400  0.36541500  0.48942600  1
  O  O0  1  0.29944600  0.67890800  0.90159700  1
  O  O1  1  0.79944600  0.82109200  0.09840300  1
  O  O2  1  0.70055400  0.17890800  0.59840300  1
  O  O3  1  0.20055400  0.32109200  0.40159700  1
  O  O4  1  0.46524900  0.67810900  0.75084700  1
  O  O5  1  0.96524900  0.82189100  0.24915300  1
  O  O6  1  0.53475100  0.17810900  0.74915300  1
  O  O7  1  0.03475100  0.32189100  0.25084700  1
  O  O8  1  0.33192100  0.50047200  0.79531000  1
  O  O9  1  0.83192100  0.99952800  0.20469000  1
  O  O10  1  0.66807900  0.00047200  0.70469000  1
  O  O11  1  0.16807900  0.49952800  0.29531000  1
  O  O12  1  0.19191300  0.32289800  0.78611800  1
  O  O13  1  0.69191300  0.17710200  0.21388200  1
  O  O14  1  0.80808700  0.82289800  0.71388200  1
  O  O15  1  0.30808700  0.67710200  0.28611800  1
  O  O16  1  0.03189600  0.15763700  0.75187100  1
  O  O17  1  0.53189600  0.34236300  0.24812900  1
  O  O18  1  0.96810400  0.65763700  0.74812900  1
  O  O19  1  0.46810400  0.84236300  0.25187100  1
  O  O20  1  0.96582200  0.28725600  0.89393700  1
  O  O21  1  0.46582200  0.21274400  0.10606300  1
  O  O22  1  0.03417800  0.78725600  0.60606300  1
  O  O23  1  0.53417800  0.71274400  0.39393700  1
  O  O24  1  0.12642500  0.46395600  0.91888000  1
  O  O25  1  0.62642500  0.03604400  0.08112000  1
  O  O26  1  0.87357500  0.96395600  0.58112000  1
  O  O27  1  0.37357500  0.53604400  0.41888000  1
  O  O28  1  0.86030500  0.45888900  0.97424300  1
  O  O29  1  0.36030500  0.04111100  0.02575700  1
  O  O30  1  0.13969500  0.95888900  0.52575700  1
  O  O31  1  0.63969500  0.54111100  0.47424300  1
  O  O32  1  0.05729500  0.34274600  0.06646200  1
  O  O33  1  0.55729500  0.15725400  0.93353800  1
  O  O34  1  0.94270500  0.84274600  0.43353800  1
  O  O35  1  0.44270500  0.65725400  0.56646200  1
  O  O36  1  0.84818800  0.43717400  0.16069900  1
  O  O37  1  0.34818800  0.06282600  0.83930100  1
  O  O38  1  0.15181200  0.93717400  0.33930100  1
  O  O39  1  0.65181200  0.56282600  0.66069900  1
  O  O40  1  0.66450700  0.55813200  0.07589500  1
  O  O41  1  0.16450700  0.94186800  0.92410500  1
  O  O42  1  0.33549300  0.05813200  0.42410500  1
  O  O43  1  0.83549300  0.44186800  0.57589500  1
  O  O44  1  0.53970800  0.56418900  0.90607000  1
  O  O45  1  0.03970800  0.93581100  0.09393000  1
  O  O46  1  0.46029200  0.06418900  0.59393000  1
  O  O47  1  0.96029200  0.43581100  0.40607000  1
  O  O48  1  0.73830600  0.70522000  0.94713200  1
  O  O49  1  0.23830600  0.79478000  0.05286800  1
  O  O50  1  0.26169400  0.20522000  0.55286800  1
  O  O51  1  0.76169400  0.29478000  0.44713200  1
  O  O52  1  0.48873900  0.71491300  0.03678200  1
  O  O53  1  0.98873900  0.78508700  0.96321800  1
  O  O54  1  0.51126100  0.21491300  0.46321800  1
  O  O55  1  0.01126100  0.28508700  0.53678200  1
loop_
_geom_bond_atom_site_label_1
_geom_bond_atom_site_label_2
_geom_bond_distance
_geom_bond_site_symmetry_2
K0 O17 2.722418 1_555
K0 O21 2.881654 1_555
K0 O40 2.882145 1_555
K0 O32 2.926902 1_555
K0 O24 3.060004 1_554
K0 O11 3.062763 1_555
K0 O44 3.163767 1_554
K1 O16 2.722418 1_655
K1 O20 2.881654 1_555
K1 O41 2.882145 1_645
K1 O33 2.926902 1_555
K1 O25 3.060004 1_556
K1 O10 3.062763 1_555
K1 O45 3.163767 1_646
K2 O19 2.722418 1_555
K2 O23 2.881654 1_555
K2 O42 2.882145 1_565
K2 O34 2.926902 1_555
K2 O26 3.060004 1_555
K2 O9 3.062763 1_555
K2 O46 3.163767 1_565
K3 O18 2.722418 1_455
K3 O22 2.881654 1_555
K3 O43 2.882145 1_455
K3 O35 2.926902 1_555
K3 O27 3.060004 1_555
K3 O8 3.062763 1_555
K3 O47 3.163767 1_455
K4 O6 2.697972 1_555
K4 O44 2.794541 1_555
K4 O28 2.795987 1_555
K4 O39 2.831141 1_555
K4 O20 2.849216 1_555
K5 O7 2.697972 1_555
K5 O45 2.794541 1_545
K5 O29 2.795987 1_555
K5 O38 2.831141 1_545
K5 O21 2.849216 1_555
K6 O4 2.697972 1_555
K6 O46 2.794541 1_565
K6 O30 2.795987 1_555
K6 O37 2.831141 1_565
K6 O22 2.849216 1_555
K7 O5 2.697972 1_555
K7 O47 2.794541 1_555
K7 O31 2.795987 1_555
K7 O36 2.831141 1_555
K7 O23 2.849216 1_555
Li0 O48 1.947821 1_555
Li0 O18 2.051964 1_555
Li0 O14 2.099253 1_555
Li0 O39 2.287264 1_555
Li0 O4 2.453071 1_555
Li0 O44 2.541584 1_555
Li1 O49 1.947821 1_555
Li1 O19 2.051964 1_555
Li1 O15 2.099253 1_555
Li1 O38 2.287264 1_555
Li1 O5 2.453071 1_455
Li1 O45 2.541584 1_555
Li2 O50 1.947821 1_555
Li2 O16 2.051964 1_555
Li2 O12 2.099253 1_555
Li2 O37 2.287264 1_555
Li2 O6 2.453071 1_555
Li2 O46 2.541584 1_555
Li3 O51 1.947821 1_555
Li3 O17 2.051964 1_555
Li3 O13 2.099253 1_555
Li3 O36 2.287264 1_555
Li3 O7 2.453071 1_655
Li3 O47 2.541584 1_555
Li4 O18 1.911008 1_455
Li4 O0 2.021999 1_555
Li4 O53 2.028480 1_455
Li4 O24 2.185917 1_555
Li5 O19 1.911008 1_555
Li5 O1 2.021999 1_555
Li5 O52 2.028480 1_555
Li5 O25 2.185917 1_565
Li6 O16 1.911008 1_655
Li6 O2 2.021999 1_555
Li6 O55 2.028480 1_655
Li6 O26 2.185917 1_545
Li7 O17 1.911008 1_555
Li7 O3 2.021999 1_555
Li7 O54 2.028480 1_555
Li7 O27 2.185917 1_555
B0 O49 1.375353 1_556
B0 O52 1.377655 1_556
B0 O0 1.379194 1_555
B1 O48 1.375353 1_554
B1 O53 1.377655 1_554
B1 O1 1.379194 1_555
B2 O51 1.375353 1_555
B2 O54 1.377655 1_555
B2 O2 1.379194 1_555
B3 O50 1.375353 1_555
B3 O55 1.377655 1_555
B3 O3 1.379194 1_555
B4 O44 1.449892 1_555
B4 O8 1.491231 1_555
B4 O0 1.493800 1_555
B4 O4 1.505506 1_555
B5 O45 1.449885 1_655
B5 O9 1.491235 1_555
B5 O1 1.493806 1_555
B5 O5 1.505503 1_555
B6 O46 1.449885 1_555
B6 O10 1.491235 1_555
B6 O2 1.493806 1_555
B6 O6 1.505503 1_555
B7 O47 1.449892 1_455
B7 O11 1.491231 1_555
B7 O3 1.493800 1_555
B7 O7 1.505506 1_555
B8 O8 1.362663 1_555
B8 O24 1.379952 1_555
B8 O12 1.396016 1_555
B9 O9 1.362663 1_545
B9 O25 1.379952 1_555
B9 O13 1.396016 1_555
B10 O10 1.362663 1_565
B10 O26 1.379952 1_555
B10 O14 1.396016 1_555
B11 O11 1.362663 1_555
B11 O27 1.379952 1_555
B11 O15 1.396016 1_555
B12 O16 1.329662 1_555
B12 O20 1.388852 1_455
B12 O12 1.439213 1_555
B13 O17 1.329662 1_555
B13 O21 1.388852 1_555
B13 O13 1.439213 1_555
B14 O18 1.329662 1_555
B14 O22 1.388852 1_655
B14 O14 1.439213 1_555
B15 O19 1.329662 1_555
B15 O23 1.388852 1_555
B15 O15 1.439213 1_555
B16 O20 1.469680 1_455
B16 O28 1.474555 1_455
B16 O32 1.491048 1_556
B16 O24 1.498062 1_555
B17 O21 1.469680 1_555
B17 O29 1.474555 1_555
B17 O33 1.491048 1_554
B17 O25 1.498062 1_555
B18 O22 1.469680 1_655
B18 O30 1.474555 1_655
B18 O34 1.491048 1_555
B18 O26 1.498062 1_555
B19 O23 1.469680 1_555
B19 O31 1.474555 1_555
B19 O35 1.491048 1_555
B19 O27 1.498062 1_555
B20 O32 1.363067 1_655
B20 O7 1.369053 1_655
B20 O36 1.406710 1_555
B21 O33 1.363067 1_555
B21 O6 1.369053 1_555
B21 O37 1.406710 1_555
B22 O34 1.363067 1_455
B22 O5 1.369053 1_455
B22 O38 1.406710 1_555
B23 O35 1.363067 1_555
B23 O4 1.369053 1_555
B23 O39 1.406710 1_555
B24 O40 1.358988 1_555
B24 O28 1.364125 1_554
B24 O36 1.417568 1_555
B25 O41 1.358988 1_545
B25 O29 1.364125 1_556
B25 O37 1.417568 1_555
B26 O42 1.358988 1_565
B26 O30 1.364125 1_555
B26 O38 1.417568 1_555
B27 O43 1.358988 1_555
B27 O31 1.364125 1_555
B27 O39 1.417568 1_555
B28 O44 1.451350 1_555
B28 O52 1.490837 1_556
B28 O48 1.492558 1_555
B28 O40 1.494080 1_556
B29 O45 1.451350 1_555
B29 O53 1.490837 1_454
B29 O49 1.492558 1_555
B29 O41 1.494080 1_554
B30 O46 1.451350 1_555
B30 O54 1.490837 1_555
B30 O50 1.492558 1_555
B30 O42 1.494080 1_555
B31 O47 1.451350 1_555
B31 O55 1.490837 1_655
B31 O51 1.492558 1_555
B31 O43 1.494080 1_555
