# generated using pymatgen
data_Fe14Ni11O32
_symmetry_space_group_name_H-M   'P 1'
_cell_length_a   5.92610100
_cell_length_b   6.11211899
_cell_length_c   19.78187291
_cell_angle_alpha   89.34432986
_cell_angle_beta   98.61448820
_cell_angle_gamma   118.72957360
_symmetry_Int_Tables_number   1
_chemical_formula_structural   Fe14Ni11O32
_chemical_formula_sum   'Fe14 Ni11 O32'
_cell_volume   619.70961197
_cell_formula_units_Z   1
loop_
 _symmetry_equiv_pos_site_id
 _symmetry_equiv_pos_as_xyz
  1  'x, y, z'
loop_
 _atom_site_type_symbol
 _atom_site_label
 _atom_site_symmetry_multiplicity
 _atom_site_fract_x
 _atom_site_fract_y
 _atom_site_fract_z
 _atom_site_occupancy
  Fe  Fe0  1  0.48746500  0.73820800  0.24748700  1
  Fe  Fe1  1  0.38610600  0.70210200  0.06377500  1
  Fe  Fe2  1  0.94174900  0.73255900  0.15366800  1
  Fe  Fe3  1  0.87463900  0.42990300  0.31080900  1
  Fe  Fe4  1  0.95403000  0.41672000  0.48905400  1
  Fe  Fe5  1  0.68118100  0.34040900  0.03005100  1
  Fe  Fe6  1  0.94191500  0.21947400  0.15631400  1
  Fe  Fe7  1  0.41458500  0.26159700  0.56538500  1
  Fe  Fe8  1  0.42135900  0.94413900  0.39718400  1
  Fe  Fe9  1  0.46185600  0.17878000  0.74258300  1
  Fe  Fe10  1  0.92550800  0.01643000  0.83325100  1
  Fe  Fe11  1  0.93816000  0.71977900  0.65677500  1
  Fe  Fe12  1  0.44733200  0.98470200  0.90961300  1
  Fe  Fe13  1  0.45384000  0.48279800  0.91114500  1
  Ni  Ni0  1  0.43520800  0.22210800  0.15660100  1
  Ni  Ni1  1  0.43023800  0.45403800  0.40364200  1
  Ni  Ni2  1  0.92533900  0.94745700  0.39977200  1
  Ni  Ni3  1  0.18331900  0.09078500  0.27934000  1
  Ni  Ni4  1  0.18248500  0.83474400  0.53163100  1
  Ni  Ni5  1  0.93937600  0.21874800  0.65783400  1
  Ni  Ni6  1  0.43795700  0.71764600  0.65678400  1
  Ni  Ni7  1  0.68658400  0.84301200  0.52983300  1
  Ni  Ni8  1  0.69376100  0.60310600  0.78247200  1
  Ni  Ni9  1  0.95234500  0.48864700  0.91372700  1
  Ni  Ni10  1  0.18767900  0.58948200  0.78298900  1
  O  O0  1  0.58013000  0.53338100  0.09406100  1
  O  O1  1  0.81081400  0.40834000  0.21155800  1
  O  O2  1  0.04751500  0.52888200  0.09411500  1
  O  O3  1  0.57723100  0.05610900  0.09386600  1
  O  O4  1  0.29673800  0.39162900  0.21718400  1
  O  O5  1  0.06603000  0.26704300  0.34596900  1
  O  O6  1  0.81572800  0.90891400  0.21577100  1
  O  O7  1  0.30659900  0.13772900  0.46867700  1
  O  O8  1  0.54570900  0.26060400  0.34637100  1
  O  O9  1  0.06835800  0.04149800  0.10768400  1
  O  O10  1  0.29514500  0.90334400  0.21565200  1
  O  O11  1  0.06606100  0.78496800  0.34326100  1
  O  O12  1  0.55949600  0.03386400  0.59365500  1
  O  O13  1  0.77072500  0.08544800  0.45902700  1
  O  O14  1  0.82348400  0.92635800  0.73140600  1
  O  O15  1  0.30598800  0.65293200  0.46839000  1
  O  O16  1  0.54926800  0.76451700  0.34643800  1
  O  O17  1  0.07510000  0.04081400  0.59218400  1
  O  O18  1  0.81176400  0.64351800  0.46940500  1
  O  O19  1  0.59643500  0.58949600  0.59928900  1
  O  O20  1  0.27971300  0.84578600  0.71485500  1
  O  O21  1  0.06729000  0.78624400  0.84666800  1
  O  O22  1  0.33142900  0.67843800  0.96503000  1
  O  O23  1  0.80711600  0.40313500  0.72174100  1
  O  O24  1  0.56864600  0.78004200  0.84876400  1
  O  O25  1  0.06107000  0.51807700  0.58851700  1
  O  O26  1  0.11111600  0.35570900  0.85629200  1
  O  O27  1  0.31960200  0.41057400  0.72016400  1
  O  O28  1  0.78177700  0.61161100  0.96377400  1
  O  O29  1  0.34903900  0.19267200  0.95976500  1
  O  O30  1  0.55231000  0.28273100  0.83969100  1
  O  O31  1  0.79355700  0.18572100  0.96155500  1
loop_
_geom_bond_atom_site_label_1
_geom_bond_atom_site_label_2
_geom_bond_distance
_geom_bond_site_symmetry_2
Fe0 O10 1.894887 1_555
Fe0 O4 1.910110 1_555
Fe0 O6 1.914660 1_555
Fe0 O16 1.930641 1_555
Fe1 O0 1.914119 1_555
Fe1 O22 1.927001 1_554
Fe1 O3 1.946903 1_565
Fe1 O2 1.952237 1_555
Fe2 O9 1.938844 1_665
Fe2 O10 2.034069 1_655
Fe2 O0 2.057343 1_555
Fe2 O6 2.075545 1_555
Fe2 O2 2.082153 1_655
Fe2 O1 2.139282 1_555
Fe3 O5 1.895849 1_655
Fe3 O1 1.936695 1_555
Fe3 O8 1.954569 1_555
Fe3 O11 1.963604 1_655
Fe4 O13 1.830929 1_555
Fe4 O18 1.948459 1_555
Fe4 O25 1.983355 1_655
Fe4 O15 1.987164 1_655
Fe5 O28 2.014061 1_554
Fe5 O31 2.019485 1_554
Fe5 O29 2.030524 1_554
Fe5 O3 2.036243 1_555
Fe5 O0 2.072067 1_555
Fe5 O2 2.109756 1_655
Fe6 O9 1.921909 1_655
Fe6 O4 2.030269 1_655
Fe6 O1 2.067816 1_555
Fe6 O3 2.085086 1_555
Fe6 O6 2.096057 1_545
Fe6 O2 2.126411 1_655
Fe7 O19 1.834593 1_555
Fe7 O17 1.960277 1_555
Fe7 O7 1.960399 1_555
Fe7 O12 1.993773 1_555
Fe8 O16 1.959797 1_555
Fe8 O11 1.974656 1_555
Fe8 O13 2.018767 1_565
Fe8 O8 2.025322 1_565
Fe8 O15 2.163521 1_555
Fe8 O7 2.227724 1_565
Fe9 O20 1.828825 1_545
Fe9 O30 1.942478 1_555
Fe9 O23 1.944017 1_555
Fe9 O27 1.984021 1_555
Fe10 O26 1.842971 1_655
Fe10 O21 1.953694 1_645
Fe10 O24 1.975074 1_545
Fe10 O14 2.016948 1_545
Fe11 O19 1.951633 1_555
Fe11 O20 1.958328 1_655
Fe11 O23 2.190319 1_555
Fe11 O17 2.205408 1_665
Fe11 O25 2.251580 1_655
Fe11 O14 2.324604 1_555
Fe12 O31 1.936223 1_565
Fe12 O29 1.962944 1_565
Fe12 O22 2.029823 1_555
Fe12 O21 2.159224 1_555
Fe12 O24 2.165356 1_555
Fe12 O30 2.174649 1_565
Fe13 O28 1.849928 1_555
Fe13 O29 1.880548 1_555
Fe13 O26 1.936040 1_555
Fe13 O22 2.046237 1_555
Fe13 O24 2.073236 1_555
Fe13 O30 2.192365 1_555
Ni0 O9 1.992068 1_555
Ni0 O1 2.073587 1_555
Ni0 O4 2.079329 1_555
Ni0 O3 2.107263 1_555
Ni0 O10 2.129124 1_545
Ni0 O0 2.140424 1_555
Ni1 O5 2.046214 1_555
Ni1 O8 2.047013 1_555
Ni1 O16 2.069398 1_555
Ni1 O18 2.186699 1_555
Ni1 O7 2.189372 1_555
Ni1 O15 2.199825 1_555
Ni2 O13 2.003040 1_565
Ni2 O11 2.008078 1_655
Ni2 O16 2.063291 1_555
Ni2 O5 2.072699 1_665
Ni2 O18 2.195147 1_555
Ni2 O7 2.214255 1_665
Ni3 O10 2.086144 1_545
Ni3 O4 2.086248 1_555
Ni3 O5 2.099468 1_555
Ni3 O6 2.108508 1_445
Ni3 O8 2.117342 1_555
Ni3 O11 2.129811 1_545
Ni4 O25 2.093828 1_555
Ni4 O15 2.103239 1_555
Ni4 O7 2.105589 1_565
Ni4 O17 2.111791 1_565
Ni4 O18 2.112366 1_455
Ni4 O12 2.139442 1_565
Ni5 O27 2.152481 1_655
Ni5 O23 2.158997 1_555
Ni5 O12 2.165123 1_555
Ni5 O17 2.168509 1_655
Ni5 O25 2.172082 1_655
Ni5 O14 2.200822 1_545
Ni6 O19 1.958742 1_555
Ni6 O20 1.965159 1_555
Ni6 O27 2.128510 1_555
Ni6 O12 2.165593 1_565
Ni6 O25 2.194323 1_555
Ni6 O14 2.292826 1_555
Ni7 O13 1.964092 1_565
Ni7 O19 1.987351 1_555
Ni7 O15 2.146191 1_555
Ni7 O18 2.152811 1_555
Ni7 O12 2.164499 1_565
Ni7 O17 2.188922 1_665
Ni8 O14 2.059575 1_555
Ni8 O23 2.110242 1_555
Ni8 O30 2.115136 1_555
Ni8 O27 2.127560 1_555
Ni8 O24 2.129221 1_555
Ni8 O21 2.138680 1_655
Ni9 O28 1.901019 1_555
Ni9 O31 1.939184 1_555
Ni9 O26 1.978057 1_655
Ni9 O22 2.064224 1_655
Ni9 O21 2.134631 1_655
Ni9 O30 2.341518 1_555
Ni10 O26 1.968910 1_555
Ni10 O20 1.979570 1_555
Ni10 O27 2.120263 1_555
Ni10 O23 2.143601 1_455
Ni10 O21 2.161222 1_555
Ni10 O24 2.184795 1_555
