# generated using pymatgen
data_HXeF7
_symmetry_space_group_name_H-M   'P 1'
_cell_length_a   10.81600038
_cell_length_b   10.81600038
_cell_length_c   10.81599929
_cell_angle_alpha   107.87822042
_cell_angle_beta   107.87822042
_cell_angle_gamma   107.87822215
_symmetry_Int_Tables_number   1
_chemical_formula_structural   HXeF7
_chemical_formula_sum   'H6 Xe6 F42'
_cell_volume   1027.47990467
_cell_formula_units_Z   6
loop_
 _symmetry_equiv_pos_site_id
 _symmetry_equiv_pos_as_xyz
  1  'x, y, z'
loop_
 _atom_site_type_symbol
 _atom_site_label
 _atom_site_symmetry_multiplicity
 _atom_site_fract_x
 _atom_site_fract_y
 _atom_site_fract_z
 _atom_site_occupancy
  H  H0  1  0.89396600  0.92189900  0.31767800  1
  H  H1  1  0.10603400  0.07810100  0.68232200  1
  H  H2  1  0.07810100  0.68232200  0.10603400  1
  H  H3  1  0.68232200  0.10603400  0.07810100  1
  H  H4  1  0.31767800  0.89396600  0.92189900  1
  H  H5  1  0.92189900  0.31767800  0.89396600  1
  Xe  Xe0  1  0.86721400  0.73975000  0.50643700  1
  Xe  Xe1  1  0.73975000  0.50643700  0.86721400  1
  Xe  Xe2  1  0.13278600  0.26025000  0.49356300  1
  Xe  Xe3  1  0.50643700  0.86721400  0.73975000  1
  Xe  Xe4  1  0.49356300  0.13278600  0.26025000  1
  Xe  Xe5  1  0.26025000  0.49356300  0.13278600  1
  F  F0  1  0.43569000  0.71957500  0.81108900  1
  F  F1  1  0.01130000  0.34452500  0.40434300  1
  F  F2  1  0.65547500  0.59565700  0.98870000  1
  F  F3  1  0.34452500  0.40434300  0.01130000  1
  F  F4  1  0.11721400  0.17569900  0.72092900  1
  F  F5  1  0.40419400  0.48390300  0.29159500  1
  F  F6  1  0.42531100  0.68699600  0.19669700  1
  F  F7  1  0.56881700  0.06658800  0.91384300  1
  F  F8  1  0.40434300  0.01130000  0.34452500  1
  F  F9  1  0.31300400  0.80330300  0.57468900  1
  F  F10  1  0.59565700  0.98870000  0.65547500  1
  F  F11  1  0.27907100  0.88278600  0.82430100  1
  F  F12  1  0.86538500  0.70595600  0.90300000  1
  F  F13  1  0.28042500  0.18891100  0.56431000  1
  F  F14  1  0.88278600  0.82430100  0.27907100  1
  F  F15  1  0.06658800  0.91384300  0.56881700  1
  F  F16  1  0.13461500  0.29404400  0.09700000  1
  F  F17  1  0.43118300  0.93341200  0.08615700  1
  F  F18  1  0.82430100  0.27907100  0.88278600  1
  F  F19  1  0.81108900  0.43569000  0.71957500  1
  F  F20  1  0.80330300  0.57468900  0.31300400  1
  F  F21  1  0.48390300  0.29159500  0.40419400  1
  F  F22  1  0.68699600  0.19669700  0.42531100  1
  F  F23  1  0.91384300  0.56881700  0.06658800  1
  F  F24  1  0.59580600  0.51609700  0.70840500  1
  F  F25  1  0.93341200  0.08615700  0.43118300  1
  F  F26  1  0.09700000  0.13461500  0.29404400  1
  F  F27  1  0.08615700  0.43118300  0.93341200  1
  F  F28  1  0.90300000  0.86538500  0.70595600  1
  F  F29  1  0.29159500  0.40419400  0.48390300  1
  F  F30  1  0.29404400  0.09700000  0.13461500  1
  F  F31  1  0.72092900  0.11721400  0.17569900  1
  F  F32  1  0.17569900  0.72092900  0.11721400  1
  F  F33  1  0.57468900  0.31300400  0.80330300  1
  F  F34  1  0.18891100  0.56431000  0.28042500  1
  F  F35  1  0.70595600  0.90300000  0.86538500  1
  F  F36  1  0.19669700  0.42531100  0.68699600  1
  F  F37  1  0.98870000  0.65547500  0.59565700  1
  F  F38  1  0.71957500  0.81108900  0.43569000  1
  F  F39  1  0.56431000  0.28042500  0.18891100  1
  F  F40  1  0.70840500  0.59580600  0.51609700  1
  F  F41  1  0.51609700  0.70840500  0.59580600  1
loop_
_geom_bond_atom_site_label_1
_geom_bond_atom_site_label_2
_geom_bond_distance
_geom_bond_site_symmetry_2
F0 Xe3 2.024764 1_555
F1 Xe2 1.996397 1_555
F2 Xe1 1.996397 1_555
F3 Xe5 1.996397 1_555
F4 H1 0.960885 1_555
F5 Xe5 1.988309 1_555
F6 Xe5 2.025652 1_555
F7 H3 1.649059 1_556
F7 Xe3 2.117679 1_545
F8 Xe4 1.996397 1_555
F9 Xe3 2.025652 1_555
F10 Xe3 1.996397 1_555
F11 H4 0.960885 1_555
F12 Xe1 2.004250 1_555
F13 Xe2 2.024764 1_555
F14 H0 0.960885 1_555
F15 H1 1.649059 1_565
F15 Xe0 2.117679 1_455
F16 Xe5 2.004250 1_555
F17 H4 1.649059 1_554
F17 Xe4 2.117679 1_565
F18 H5 0.960885 1_555
F19 Xe1 2.024764 1_555
F20 Xe0 2.025652 1_555
F21 Xe4 1.988309 1_555
F22 Xe4 2.025652 1_555
F23 H2 1.649059 1_655
F23 Xe1 2.117679 1_554
F24 Xe1 1.988309 1_555
F25 H0 1.649059 1_545
F25 Xe2 2.117679 1_655
F26 Xe2 2.004250 1_555
F27 H5 1.649059 1_455
F27 Xe5 2.117679 1_556
F28 Xe0 2.004250 1_555
F29 Xe2 1.988309 1_555
F30 Xe4 2.004250 1_555
F31 H3 0.960885 1_555
F32 H2 0.960885 1_555
F33 Xe1 2.025652 1_555
F34 Xe5 2.024764 1_555
F35 Xe3 2.004250 1_555
F36 Xe2 2.025652 1_555
F37 Xe0 1.996397 1_555
F38 Xe0 2.024764 1_555
F39 Xe4 2.024764 1_555
F40 Xe0 1.988309 1_555
F41 Xe3 1.988309 1_555
