# generated using pymatgen
data_CsTb2Cu3Se5
_symmetry_space_group_name_H-M   'P 1'
_cell_length_a   7.59124353
_cell_length_b   7.59124353
_cell_length_c   17.46422360
_cell_angle_alpha   90.00000000
_cell_angle_beta   90.00000000
_cell_angle_gamma   148.45602882
_symmetry_Int_Tables_number   1
_chemical_formula_structural   CsTb2Cu3Se5
_chemical_formula_sum   'Cs2 Tb4 Cu6 Se10'
_cell_volume   526.50639865
_cell_formula_units_Z   2
loop_
 _symmetry_equiv_pos_site_id
 _symmetry_equiv_pos_as_xyz
  1  'x, y, z'
loop_
 _atom_site_type_symbol
 _atom_site_label
 _atom_site_symmetry_multiplicity
 _atom_site_fract_x
 _atom_site_fract_y
 _atom_site_fract_z
 _atom_site_occupancy
  Cs  Cs0  1  0.93901471  0.06098529  0.25000000  1
  Cs  Cs1  1  0.06098529  0.93901471  0.75000000  1
  Tb  Tb0  1  0.19277942  0.80722058  0.40864302  1
  Tb  Tb1  1  0.19277942  0.80722058  0.09135698  1
  Tb  Tb2  1  0.80722058  0.19277942  0.59135698  1
  Tb  Tb3  1  0.80722058  0.19277942  0.90864302  1
  Cu  Cu0  1  0.58218828  0.41781172  0.53086807  1
  Cu  Cu1  1  0.41781172  0.58218828  0.46913193  1
  Cu  Cu2  1  0.34204629  0.65795371  0.75000000  1
  Cu  Cu3  1  0.65795371  0.34204629  0.25000000  1
  Cu  Cu4  1  0.58218828  0.41781172  0.96913193  1
  Cu  Cu5  1  0.41781172  0.58218828  0.03086807  1
  Se  Se0  1  0.43904651  0.56095349  0.88856448  1
  Se  Se1  1  0.83354957  0.16645043  0.06920204  1
  Se  Se2  1  0.43904651  0.56095349  0.61143552  1
  Se  Se3  1  0.16645043  0.83354957  0.56920204  1
  Se  Se4  1  0.83354957  0.16645043  0.43079796  1
  Se  Se5  1  0.16645043  0.83354957  0.93079796  1
  Se  Se6  1  0.76393371  0.23606629  0.75000000  1
  Se  Se7  1  0.23606629  0.76393371  0.25000000  1
  Se  Se8  1  0.56095349  0.43904651  0.38856448  1
  Se  Se9  1  0.56095349  0.43904651  0.11143552  1
loop_
_geom_bond_atom_site_label_1
_geom_bond_atom_site_label_2
_geom_bond_distance
_geom_bond_site_symmetry_2
Cs0 Se1 3.513442 1_555
Cs0 Se4 3.513442 1_555
Cs0 Se7 3.612513 1_655
Cs0 Se7 3.612513 1_545
Cs0 Se9 3.645236 1_545
Cs0 Se8 3.645236 1_545
Cs0 Se8 3.645236 1_655
Cs0 Se9 3.645236 1_655
Cs0 Cu3 3.806629 1_545
Cs0 Cu3 3.806629 1_655
Cs1 Se5 3.513442 1_555
Cs1 Se3 3.513442 1_555
Cs1 Se6 3.612513 1_565
Cs1 Se6 3.612513 1_455
Cs1 Se0 3.645236 1_455
Cs1 Se2 3.645236 1_455
Cs1 Se2 3.645236 1_565
Cs1 Se0 3.645236 1_565
Cs1 Cu2 3.806629 1_455
Cs1 Cu2 3.806629 1_565
Cu0 Se3 2.494278 1_545
Cu0 Se3 2.494278 1_655
Cu0 Se8 2.504513 1_555
Cu0 Se2 2.520685 1_555
Cu1 Se4 2.494278 1_455
Cu1 Se4 2.494278 1_565
Cu1 Se2 2.504513 1_555
Cu1 Se8 2.520685 1_555
Cu2 Se6 2.357979 1_455
Cu2 Se6 2.357979 1_565
Cu2 Se0 2.804397 1_555
Cu2 Se2 2.804397 1_555
Cu3 Se7 2.357979 1_545
Cu3 Se7 2.357979 1_655
Cu3 Se9 2.804397 1_555
Cu3 Se8 2.804397 1_555
Cu4 Se5 2.494278 1_545
Cu4 Se5 2.494278 1_655
Cu4 Se9 2.504513 1_556
Cu4 Se0 2.520685 1_555
Cu5 Se1 2.494278 1_455
Cu5 Se1 2.494278 1_565
Cu5 Se0 2.504513 1_554
Cu5 Se9 2.520685 1_555
Se0 Tb3 2.844346 1_565
Se0 Tb3 2.844346 1_455
Se1 Tb3 2.830304 1_554
Se1 Tb1 2.938970 1_545
Se1 Tb1 2.938970 1_655
Se2 Tb2 2.844346 1_565
Se2 Tb2 2.844346 1_455
Se3 Tb0 2.830304 1_555
Se3 Tb2 2.938970 1_455
Se3 Tb2 2.938970 1_565
Se4 Tb2 2.830304 1_555
Se4 Tb0 2.938970 1_655
Se4 Tb0 2.938970 1_545
Se5 Tb1 2.830304 1_556
Se5 Tb3 2.938970 1_565
Se5 Tb3 2.938970 1_455
Se6 Tb2 2.841848 1_555
Se6 Tb3 2.841848 1_555
Se7 Tb1 2.841848 1_555
Se7 Tb0 2.841848 1_555
Se8 Tb0 2.844346 1_655
Se8 Tb0 2.844346 1_545
Se9 Tb1 2.844346 1_655
Se9 Tb1 2.844346 1_545
