# generated using pymatgen
data_Cu12Sb4S13
_symmetry_space_group_name_H-M   'P 1'
_cell_length_a   8.91852242
_cell_length_b   8.91851153
_cell_length_c   8.91855454
_cell_angle_alpha   109.46895004
_cell_angle_beta   109.46928727
_cell_angle_gamma   109.46939010
_symmetry_Int_Tables_number   1
_chemical_formula_structural   Cu12Sb4S13
_chemical_formula_sum   'Cu12 Sb4 S13'
_cell_volume   546.12267380
_cell_formula_units_Z   1
loop_
 _symmetry_equiv_pos_site_id
 _symmetry_equiv_pos_as_xyz
  1  'x, y, z'
loop_
 _atom_site_type_symbol
 _atom_site_label
 _atom_site_symmetry_multiplicity
 _atom_site_fract_x
 _atom_site_fract_y
 _atom_site_fract_z
 _atom_site_occupancy
  Cu  Cu0  1  0.77695469  0.77695068  0.99999266  1
  Cu  Cu1  1  0.00000726  0.22306477  0.22304072  1
  Cu  Cu2  1  0.74999595  0.24999685  0.49998794  1
  Cu  Cu3  1  0.22302562  0.99997662  0.22305218  1
  Cu  Cu4  1  0.00001539  0.77697811  0.77695081  1
  Cu  Cu5  1  0.22306098  0.22305882  0.00001937  1
  Cu  Cu6  1  0.77693898  -0.00002712  0.77694775  1
  Cu  Cu7  1  0.49999482  0.74998927  0.25001187  1
  Cu  Cu8  1  0.75001537  0.50002966  0.25001528  1
  Cu  Cu9  1  0.25002211  0.50002567  0.75000902  1
  Cu  Cu10  1  0.50000474  0.24999632  0.75001290  1
  Cu  Cu11  1  0.24999861  0.74999887  0.49999191  1
  Sb  Sb0  1  0.00000603  0.45535600  0.00001609  1
  Sb  Sb1  1  0.00001949  0.00001349  0.45537129  1
  Sb  Sb2  1  0.45536831  0.00001723  0.00000810  1
  Sb  Sb3  1  0.54463507  0.54463781  0.54463022  1
  S  S0  1  0.51833400  -0.00001099  0.75160355  1
  S  S1  1  0.24837536  0.76671111  0.24837859  1
  S  S2  1  0.51834350  0.75161761  0.00000546  1
  S  S3  1  0.24837670  0.24838306  0.76672047  1
  S  S4  1  -0.00000365  0.51833734  0.75161686  1
  S  S5  1  0.76671798  0.24838511  0.24837186  1
  S  S6  1  0.48165925  0.48165699  0.23327171  1
  S  S7  1  0.23327514  0.48165835  0.48165811  1
  S  S8  1  0.48164545  0.23326717  0.48164952  1
  S  S9  1  0.75160698  0.51833578  -0.00000738  1
  S  S10  1  0.75160762  0.99998734  0.51833515  1
  S  S11  1  0.00000169  0.75161090  0.51833632  1
  S  S12  1  -0.00000043  -0.00000081  0.00000066  1
loop_
_geom_bond_atom_site_label_1
_geom_bond_atom_site_label_2
_geom_bond_distance
_geom_bond_site_symmetry_2
Cu0 S9 2.241269 1_556
Cu0 S2 2.241314 1_556
Cu0 S12 2.296994 1_666
Cu1 S5 2.241302 1_455
Cu1 S7 2.241427 1_555
Cu1 S12 2.297075 1_555
Cu2 S5 2.293738 1_555
Cu2 S10 2.293818 1_545
Cu2 S8 2.293822 1_555
Cu2 S4 2.293995 1_655
Cu3 S1 2.241170 1_555
Cu3 S8 2.241496 1_565
Cu3 S12 2.297078 1_565
Cu4 S11 2.241191 1_555
Cu4 S4 2.241466 1_555
Cu4 S12 2.297017 1_566
Cu5 S6 2.241341 1_555
Cu5 S3 2.241354 1_554
Cu5 S12 2.297081 1_555
Cu6 S0 2.241246 1_555
Cu6 S10 2.241344 1_545
Cu6 S12 2.297012 1_656
Cu7 S6 2.293636 1_555
Cu7 S1 2.293702 1_555
Cu7 S2 2.293853 1_555
Cu7 S10 2.293886 1_555
Cu8 S6 2.293743 1_555
Cu8 S9 2.293747 1_555
Cu8 S11 2.293761 1_655
Cu8 S5 2.293829 1_555
Cu9 S7 2.293711 1_555
Cu9 S2 2.293816 1_556
Cu9 S4 2.293831 1_555
Cu9 S3 2.293836 1_555
Cu10 S0 2.293679 1_555
Cu10 S3 2.293782 1_555
Cu10 S9 2.293864 1_556
Cu10 S8 2.293892 1_555
Cu11 S1 2.293648 1_555
Cu11 S11 2.293701 1_555
Cu11 S7 2.293760 1_555
Cu11 S0 2.293902 1_565
S0 Sb2 2.460168 1_556
S1 Sb0 2.460239 1_555
S2 Sb2 2.460211 1_565
S3 Sb1 2.460206 1_555
S4 Sb0 2.460229 1_556
S5 Sb2 2.460211 1_555
S6 Sb3 2.460137 1_555
S7 Sb3 2.460146 1_555
S8 Sb3 2.460201 1_555
S9 Sb0 2.460188 1_655
S10 Sb1 2.460220 1_665
S11 Sb1 2.460156 1_565
