# generated using pymatgen
data_CuMoO4
_symmetry_space_group_name_H-M   'P 1'
_cell_length_a   6.28542481
_cell_length_b   7.98338849
_cell_length_c   9.70253947
_cell_angle_alpha   103.45925336
_cell_angle_beta   103.26963503
_cell_angle_gamma   94.82912632
_symmetry_Int_Tables_number   1
_chemical_formula_structural   CuMoO4
_chemical_formula_sum   'Cu6 Mo6 O24'
_cell_volume   455.95439872
_cell_formula_units_Z   6
loop_
 _symmetry_equiv_pos_site_id
 _symmetry_equiv_pos_as_xyz
  1  'x, y, z'
loop_
 _atom_site_type_symbol
 _atom_site_label
 _atom_site_symmetry_multiplicity
 _atom_site_fract_x
 _atom_site_fract_y
 _atom_site_fract_z
 _atom_site_occupancy
  Cu  Cu0  1  0.90595330  0.80410180  0.99549332  1
  Cu  Cu1  1  0.42756701  0.52733173  0.33226918  1
  Cu  Cu2  1  0.09404334  0.19589735  0.00450613  1
  Cu  Cu3  1  0.71792095  0.23338994  0.43682318  1
  Cu  Cu4  1  0.57243406  0.47267464  0.66773100  1
  Cu  Cu5  1  0.28207771  0.76661268  0.56317705  1
  Mo  Mo0  1  0.41713057  0.87901765  0.11090782  1
  Mo  Mo1  1  0.06726257  0.54037944  0.77484467  1
  Mo  Mo2  1  0.58286705  0.12098018  0.88909209  1
  Mo  Mo3  1  0.78574431  0.87631376  0.64957531  1
  Mo  Mo4  1  0.21425689  0.12368618  0.35042506  1
  Mo  Mo5  1  0.93273918  0.45962076  0.22515550  1
  O  O0  1  0.18160842  0.75654346  0.94134490  1
  O  O1  1  0.20906638  0.34130494  0.19864150  1
  O  O2  1  0.87432399  0.03119860  0.84429001  1
  O  O3  1  0.54440252  0.28486209  0.80640628  1
  O  O4  1  0.10458287  0.39755930  0.88119526  1
  O  O5  1  0.30177321  0.54482722  0.70397017  1
  O  O6  1  0.50540651  0.07343551  0.27331862  1
  O  O7  1  0.56098298  0.70429609  0.52119467  1
  O  O8  1  0.79450651  0.02468206  0.54998443  1
  O  O9  1  0.20549825  0.97531965  0.45001799  1
  O  O10  1  0.81839064  0.24345434  0.05865502  1
  O  O11  1  0.97323665  0.22286523  0.36028071  1
  O  O12  1  0.15404294  0.58791112  0.38496909  1
  O  O13  1  0.79093552  0.65869711  0.80135992  1
  O  O14  1  0.12567274  0.96880020  0.15571230  1
  O  O15  1  0.89541772  0.60243920  0.11880317  1
  O  O16  1  0.43901954  0.29570318  0.47880193  1
  O  O17  1  0.69822902  0.45517161  0.29603030  1
  O  O18  1  0.02676578  0.77713408  0.63972179  1
  O  O19  1  0.49459276  0.92656298  0.72668069  1
  O  O20  1  0.45559674  0.71513550  0.19359291  1
  O  O21  1  0.84595776  0.41209296  0.61503261  1
  O  O22  1  0.63890497  0.89129413  0.02552015  1
  O  O23  1  0.36108961  0.10870237  0.97447630  1
loop_
_geom_bond_atom_site_label_1
_geom_bond_atom_site_label_2
_geom_bond_distance
_geom_bond_site_symmetry_2
Cu0 O13 1.906251 1_555
Cu0 O22 1.927078 1_556
Cu0 O14 1.951890 1_656
Cu0 O0 1.964151 1_655
Cu0 O15 2.223244 1_556
Cu0 O2 2.577536 1_565
Cu1 O17 1.922235 1_555
Cu1 O1 1.927577 1_555
Cu1 O12 1.969639 1_555
Cu1 O7 1.987106 1_555
Cu1 O20 2.256725 1_555
Cu1 O16 2.577842 1_555
Cu2 O1 1.906277 1_555
Cu2 O23 1.927082 1_554
Cu2 O2 1.951877 1_454
Cu2 O10 1.964136 1_455
Cu2 O4 2.223249 1_554
Cu2 O14 2.577559 1_545
Cu3 O11 1.916936 1_555
Cu3 O21 1.921537 1_555
Cu3 O6 1.930953 1_555
Cu3 O16 1.966396 1_555
Cu3 O8 2.226531 1_555
Cu3 O17 2.470125 1_555
Cu4 O5 1.922209 1_555
Cu4 O13 1.927565 1_555
Cu4 O21 1.969636 1_555
Cu4 O16 1.987153 1_555
Cu4 O3 2.256775 1_555
Cu4 O7 2.577819 1_555
Cu5 O18 1.916926 1_555
Cu5 O12 1.921520 1_555
Cu5 O19 1.930936 1_555
Cu5 O7 1.966439 1_555
Cu5 O9 2.226505 1_555
Cu5 O5 2.470152 1_555
Mo0 O20 1.693113 1_555
Mo0 O22 1.784382 1_555
Mo0 O6 1.874868 1_565
Mo0 O0 1.934828 1_554
Mo0 O14 2.121403 1_555
Mo0 O23 2.502653 1_564
Mo1 O4 1.703352 1_555
Mo1 O5 1.764847 1_555
Mo1 O21 1.849008 1_455
Mo1 O0 2.016139 1_555
Mo1 O13 2.084040 1_455
Mo1 O18 2.537209 1_555
Mo2 O3 1.693114 1_555
Mo2 O23 1.784378 1_555
Mo2 O19 1.874868 1_545
Mo2 O10 1.934832 1_556
Mo2 O2 2.121387 1_555
Mo2 O22 2.502638 1_546
Mo3 O8 1.698817 1_565
Mo3 O18 1.778839 1_655
Mo3 O7 1.871493 1_555
Mo3 O2 1.929218 1_565
Mo3 O19 2.163780 1_555
Mo3 O13 2.523228 1_555
Mo4 O9 1.698817 1_545
Mo4 O11 1.778833 1_455
Mo4 O16 1.871483 1_555
Mo4 O14 1.929208 1_545
Mo4 O6 2.163775 1_555
Mo4 O1 2.523235 1_555
Mo5 O15 1.703354 1_555
Mo5 O17 1.764847 1_555
Mo5 O12 1.849022 1_655
Mo5 O10 2.016155 1_555
Mo5 O1 2.084031 1_655
Mo5 O11 2.537231 1_555
