# generated using pymatgen
data_FeAg3H6(C3N4)2
_symmetry_space_group_name_H-M   'P 1'
_cell_length_a   7.77420340
_cell_length_b   7.77420340
_cell_length_c   12.43388828
_cell_angle_alpha   87.11160868
_cell_angle_beta   87.11160868
_cell_angle_gamma   104.64130664
_symmetry_Int_Tables_number   1
_chemical_formula_structural   FeAg3H6(C3N4)2
_chemical_formula_sum   'Fe2 Ag6 H12 C12 N16'
_cell_volume   724.60462704
_cell_formula_units_Z   2
loop_
 _symmetry_equiv_pos_site_id
 _symmetry_equiv_pos_as_xyz
  1  'x, y, z'
loop_
 _atom_site_type_symbol
 _atom_site_label
 _atom_site_symmetry_multiplicity
 _atom_site_fract_x
 _atom_site_fract_y
 _atom_site_fract_z
 _atom_site_occupancy
  Fe  Fe0  1  0.00659700  0.49626500  0.49537600  1
  Fe  Fe1  1  0.49626500  0.00659700  0.99537600  1
  Ag  Ag0  1  0.05446200  0.39295100  0.90436300  1
  Ag  Ag1  1  0.39295100  0.05446200  0.40436300  1
  Ag  Ag2  1  0.93427900  0.62611300  0.09200100  1
  Ag  Ag3  1  0.62611300  0.93427900  0.59200100  1
  Ag  Ag4  1  0.84305900  0.75338200  0.77760600  1
  Ag  Ag5  1  0.75338200  0.84305900  0.27760600  1
  H  H0  1  0.13844600  0.99761100  0.80674200  1
  H  H1  1  0.99761100  0.13844600  0.30674200  1
  H  H2  1  0.05145100  0.07251900  0.70187400  1
  H  H3  1  0.07251900  0.05145100  0.20187400  1
  H  H4  1  0.16495300  0.92174700  0.68648100  1
  H  H5  1  0.92174700  0.16495300  0.18648100  1
  H  H6  1  0.49458200  0.59613900  0.82561200  1
  H  H7  1  0.59613900  0.49458200  0.32561200  1
  H  H8  1  0.60603400  0.45412200  0.87146500  1
  H  H9  1  0.45412100  0.60603400  0.37146500  1
  H  H10  1  0.57678000  0.47314600  0.74075500  1
  H  H11  1  0.47314600  0.57678000  0.24075500  1
  C  C0  1  0.79006200  0.32137700  0.47735900  1
  C  C1  1  0.32137700  0.79006200  0.97735900  1
  C  C2  1  0.21963000  0.67011900  0.51603800  1
  C  C3  1  0.67011900  0.21963000  0.01603800  1
  C  C4  1  0.99037700  0.43625900  0.64512500  1
  C  C5  1  0.43625900  0.99037700  0.14512500  1
  C  C6  1  0.02635200  0.55289700  0.34292800  1
  C  C7  1  0.55289700  0.02635200  0.84292800  1
  C  C8  1  0.13022300  0.31738200  0.47392600  1
  C  C9  1  0.31738200  0.13022300  0.97392600  1
  C  C10  1  0.87989100  0.67097000  0.51584300  1
  C  C11  1  0.67097000  0.87989100  0.01584300  1
  N  N0  1  0.66105300  0.20784800  0.46441900  1
  N  N1  1  0.20784800  0.66105300  0.96441900  1
  N  N2  1  0.34868400  0.78327700  0.52959800  1
  N  N3  1  0.78327700  0.34868400  0.02959800  1
  N  N4  1  0.98666900  0.40158300  0.73869500  1
  N  N5  1  0.40158300  0.98666900  0.23869500  1
  N  N6  1  0.03250700  0.58301400  0.24883700  1
  N  N7  1  0.58301400  0.03250700  0.74883700  1
  N  N8  1  0.20322800  0.20434100  0.46026500  1
  N  N9  1  0.20434100  0.20322800  0.96026500  1
  N  N10  1  0.80241800  0.78113100  0.52856400  1
  N  N11  1  0.78113100  0.80241800  0.02856400  1
  N  N12  1  0.07737200  0.96124800  0.73760200  1
  N  N13  1  0.96124800  0.07737200  0.23760200  1
  N  N14  1  0.59947200  0.54238000  0.80862500  1
  N  N15  1  0.54238000  0.59947200  0.30862500  1
loop_
_geom_bond_atom_site_label_1
_geom_bond_atom_site_label_2
_geom_bond_distance
_geom_bond_site_symmetry_2
Ag0 N4 2.153789 1_455
Ag0 N9 2.205306 1_555
Ag0 N1 2.305192 1_555
Ag0 N3 2.497247 1_456
Ag1 N5 2.153789 1_545
Ag1 N8 2.205306 1_555
Ag1 N0 2.305192 1_555
Ag1 N2 2.497247 1_545
Ag2 N6 2.170672 1_655
Ag2 N11 2.174622 1_555
Ag2 N3 2.369042 1_555
Ag2 N1 2.537315 1_654
Ag3 N7 2.170672 1_565
Ag3 N10 2.174622 1_555
Ag3 N2 2.369042 1_555
Ag3 N0 2.537315 1_565
Ag4 N12 2.125230 1_655
Ag4 N14 2.172076 1_555
Ag5 N13 2.125230 1_565
Ag5 N15 2.172076 1_555
H0 N12 1.020870 1_555
H1 N13 1.020870 1_555
H2 N12 1.022093 1_545
H3 N13 1.022093 1_455
H4 N12 1.021605 1_555
H5 N13 1.021605 1_555
H6 N14 1.023738 1_555
H7 N15 1.023738 1_555
H8 N14 1.025460 1_555
H9 N15 1.025465 1_555
H10 N14 1.022618 1_555
H11 N15 1.022618 1_555
C0 N0 1.180609 1_555
C0 Fe0 1.908976 1_655
C1 N1 1.180609 1_555
C1 Fe1 1.908976 1_565
C2 N2 1.180985 1_555
C2 Fe0 1.892592 1_555
C3 N3 1.180985 1_555
C3 Fe1 1.892592 1_554
C4 N4 1.178209 1_555
C4 Fe0 1.886660 1_655
C5 N5 1.178209 1_555
C5 Fe1 1.886660 1_564
C6 N6 1.177669 1_555
C6 Fe0 1.913844 1_555
C7 N7 1.177669 1_555
C7 Fe1 1.913844 1_555
C8 N8 1.175049 1_555
C8 Fe0 1.901586 1_555
C9 N9 1.175049 1_555
C9 Fe1 1.901586 1_555
C10 N10 1.177297 1_555
C10 Fe0 1.888295 1_655
C11 N11 1.177297 1_555
C11 Fe1 1.888295 1_564
