# generated using pymatgen
data_Ce10Si10BrN17O9
_symmetry_space_group_name_H-M   'P 1'
_cell_length_a   10.63975678
_cell_length_b   11.29615659
_cell_length_c   11.62768170
_cell_angle_alpha   90.01795123
_cell_angle_beta   90.03245740
_cell_angle_gamma   90.08379010
_symmetry_Int_Tables_number   1
_chemical_formula_structural   Ce10Si10BrN17O9
_chemical_formula_sum   'Ce20 Si20 Br2 N34 O18'
_cell_volume   1397.51019073
_cell_formula_units_Z   2
loop_
 _symmetry_equiv_pos_site_id
 _symmetry_equiv_pos_as_xyz
  1  'x, y, z'
loop_
 _atom_site_type_symbol
 _atom_site_label
 _atom_site_symmetry_multiplicity
 _atom_site_fract_x
 _atom_site_fract_y
 _atom_site_fract_z
 _atom_site_occupancy
  Ce  Ce0  1  0.99210626  -0.00024299  0.83283790  1
  Ce  Ce1  1  0.10977982  0.62844437  -0.00013527  1
  Ce  Ce2  1  0.12724029  0.88048066  0.50000099  1
  Ce  Ce3  1  0.13743467  0.39826221  0.75684400  1
  Ce  Ce4  1  0.13920905  0.39784332  0.24260375  1
  Ce  Ce5  1  0.35840986  0.90408044  0.24203701  1
  Ce  Ce6  1  0.36166243  0.89944226  0.75896042  1
  Ce  Ce7  1  0.37311236  0.37860601  0.49833885  1
  Ce  Ce8  1  0.38214256  0.12784224  0.00365252  1
  Ce  Ce9  1  0.50051332  0.50015829  0.17152568  1
  Ce  Ce10  1  0.50124999  0.50178348  0.82867299  1
  Ce  Ce11  1  0.63485744  0.87267663  0.99521908  1
  Ce  Ce12  1  0.62291820  0.62371983  0.50104015  1
  Ce  Ce13  1  0.64236230  0.10211581  0.23747208  1
  Ce  Ce14  1  0.64465804  0.09801098  0.76267333  1
  Ce  Ce15  1  0.85774423  0.59757702  0.23247948  1
  Ce  Ce16  1  0.85707648  0.59852924  0.76787498  1
  Ce  Ce17  1  0.87809534  0.12458963  0.50003702  1
  Ce  Ce18  1  0.88031076  0.37389560  0.00014910  1
  Ce  Ce19  1  0.99166730  -0.00083964  0.16685518  1
  Si  Si0  1  0.11646714  0.74481909  0.24720794  1
  Si  Si1  1  0.11679576  0.74455383  0.75291437  1
  Si  Si2  1  0.14977887  0.14260958  0.63719167  1
  Si  Si3  1  0.14981700  0.14314736  0.36388990  1
  Si  Si4  1  0.21259313  0.88741839  -0.00005489  1
  Si  Si5  1  0.28670205  0.38838325  -0.00052668  1
  Si  Si6  1  0.34920686  0.64374025  0.63578578  1
  Si  Si7  1  0.34930344  0.64468702  0.36440283  1
  Si  Si8  1  0.38478843  0.23864791  0.24514133  1
  Si  Si9  1  0.38322830  0.24414730  0.75349761  1
  Si  Si10  1  0.61632728  0.75620507  0.24635154  1
  Si  Si11  1  0.61497851  0.76128872  0.75438481  1
  Si  Si12  1  0.65084397  0.35510550  0.63551345  1
  Si  Si13  1  0.65057007  0.35592313  0.36480965  1
  Si  Si14  1  0.71837988  0.61129026  0.00019741  1
  Si  Si15  1  0.78807619  0.10833130  -0.00024074  1
  Si  Si16  1  0.84958041  0.85497381  0.36501444  1
  Si  Si17  1  0.84967005  0.85487463  0.63532723  1
  Si  Si18  1  0.88456288  0.26148144  0.24522982  1
  Si  Si19  1  0.88490568  0.26140581  0.75465319  1
  Br  Br0  1  0.04029698  0.47232910  0.50045474  1
  Br  Br1  1  0.46109454  0.97205426  0.50006970  1
  N  N0  1  0.01990824  0.19126076  0.28867087  1
  N  N1  1  0.02039087  0.19132760  0.71206891  1
  N  N2  1  0.10378736  0.10767662  0.50029072  1
  N  N3  1  0.16753092  0.81489722  0.12187786  1
  N  N4  1  0.16835509  0.81340477  0.87867270  1
  N  N5  1  0.23155824  0.74765949  0.64923795  1
  N  N6  1  0.23078782  0.74762993  0.35128499  1
  N  N7  1  0.26807785  0.24727545  0.65015565  1
  N  N8  1  0.26860736  0.24733239  0.34974090  1
  N  N9  1  0.33143976  0.31563979  0.87772699  1
  N  N10  1  0.33105755  0.31720990  0.12230774  1
  N  N11  1  0.39619712  0.60791072  0.49988916  1
  N  N12  1  0.42213568  0.09935433  0.19781535  1
  N  N13  1  0.47884650  0.69290563  0.28863050  1
  N  N14  1  0.47949414  0.69086121  0.71100021  1
  N  N15  1  0.52030739  0.30827906  0.28924517  1
  N  N16  1  0.52134680  0.30653899  0.71146394  1
  N  N17  1  0.57924741  0.90091766  0.80123036  1
  N  N18  1  0.60331948  0.39279706  0.50020241  1
  N  N19  1  0.66603904  0.68097607  0.87703629  1
  N  N20  1  0.66535963  0.68292056  0.12235605  1
  N  N21  1  0.73081682  0.75137528  0.64894972  1
  N  N22  1  0.73046972  0.75182282  0.35122352  1
  N  N23  1  0.76904207  0.25128966  0.64847116  1
  N  N24  1  0.76823560  0.25164174  0.35092381  1
  N  N25  1  0.82880924  0.18304311  0.12366509  1
  N  N26  1  0.82930227  0.18283235  0.87608883  1
  N  N27  1  0.84729163  0.96677865  0.99952071  1
  N  N28  1  0.87946012  0.59110017  0.00085592  1
  N  N29  1  0.89749853  0.89175248  0.50015964  1
  N  N30  1  0.92218757  0.40125483  0.19984524  1
  N  N31  1  0.92351127  0.40103835  0.79972838  1
  N  N32  1  0.97845066  0.80615127  0.28860727  1
  N  N33  1  0.97854223  0.80638829  0.71232882  1
  O  O0  1  0.08412909  0.60649136  0.20454115  1
  O  O1  1  0.08428232  0.60623844  0.79492377  1
  O  O2  1  0.13032943  0.40953423  0.99848902  1
  O  O3  1  0.15349001  0.02468804  0.99939447  1
  O  O4  1  0.18179308  0.00969469  0.69364857  1
  O  O5  1  0.18033360  0.00912925  0.30842403  1
  O  O6  1  0.31885511  0.51159133  0.30633876  1
  O  O7  1  0.31789647  0.51097203  0.69341575  1
  O  O8  1  0.34678102  0.52554214  0.99915362  1
  O  O9  1  0.36876298  0.90921529  0.00036269  1
  O  O10  1  0.41775391  0.10636261  0.79558691  1
  O  O11  1  0.58285130  0.89401264  0.20407675  1
  O  O12  1  0.62685465  0.09549072  0.99950990  1
  O  O13  1  0.64997098  0.47530875  0.00034746  1
  O  O14  1  0.68135548  0.49000365  0.30844371  1
  O  O15  1  0.68097851  0.48900269  0.69247159  1
  O  O16  1  0.81678765  0.98806037  0.30837536  1
  O  O17  1  0.81886430  0.98902517  0.69086931  1
loop_
_geom_bond_atom_site_label_1
_geom_bond_atom_site_label_2
_geom_bond_distance
_geom_bond_site_symmetry_2
Ce0 O17 2.476505 1_545
Ce0 N27 2.504265 1_545
Ce0 O4 2.590048 1_655
Ce0 N1 2.597296 1_655
Ce0 N33 2.598558 1_545
Ce0 O3 2.602469 1_655
Ce0 N26 2.746097 1_555
Ce0 N4 2.871061 1_645
Ce1 O0 2.408500 1_555
Ce1 O1 2.411192 1_554
Ce1 O2 2.482856 1_554
Ce1 N28 2.486015 1_455
Ce1 N4 2.595879 1_554
Ce1 N3 2.611472 1_555
Ce1 O8 2.778215 1_554
Ce2 N29 2.447898 1_455
Ce2 N6 2.541943 1_555
Ce2 N5 2.549223 1_555
Ce2 N2 2.578908 1_565
Ce2 O5 2.719235 1_565
Ce2 O4 2.744340 1_565
Ce3 N31 2.330604 1_455
Ce3 O7 2.417986 1_555
Ce3 O1 2.457388 1_555
Ce3 N7 2.527370 1_555
Ce3 N9 2.666592 1_555
Ce3 N1 2.697420 1_555
Ce3 O2 2.813679 1_555
Ce4 N30 2.362072 1_455
Ce4 O6 2.417489 1_555
Ce4 O0 2.469573 1_555
Ce4 N8 2.518787 1_555
Ce4 N10 2.638303 1_555
Ce4 N0 2.708626 1_555
Ce4 O2 2.843123 1_554
Ce5 N12 2.363599 1_565
Ce5 O5 2.366750 1_565
Ce5 O11 2.431516 1_555
Ce5 N6 2.564590 1_555
Ce5 N3 2.661108 1_555
Ce5 N13 2.763141 1_555
Ce5 O9 2.812946 1_555
Ce6 N17 2.366412 1_555
Ce6 O4 2.407538 1_565
Ce6 O10 2.448676 1_565
Ce6 N5 2.544277 1_555
Ce6 N4 2.666573 1_555
Ce6 N14 2.728163 1_555
Ce6 O9 2.810053 1_556
Ce7 N18 2.454437 1_555
Ce7 N8 2.532223 1_555
Ce7 N7 2.562224 1_555
Ce7 N11 2.601579 1_555
Ce7 O6 2.752678 1_555
Ce7 O7 2.779918 1_555
Ce8 N12 2.319792 1_555
Ce8 O10 2.460993 1_554
Ce8 O9 2.473818 1_545
Ce8 N10 2.603310 1_555
Ce8 O12 2.630194 1_554
Ce8 N9 2.634324 1_554
Ce8 O3 2.696356 1_554
Ce9 O6 2.492726 1_555
Ce9 O14 2.499452 1_555
Ce9 O13 2.563936 1_555
Ce9 N15 2.572721 1_555
Ce9 N13 2.578347 1_555
Ce9 O8 2.602467 1_554
Ce9 N20 2.767059 1_555
Ce9 N10 2.799338 1_555
Ce10 O15 2.487938 1_555
Ce10 O7 2.507435 1_555
Ce10 N14 2.547646 1_555
Ce10 O13 2.564407 1_556
Ce10 O8 2.589846 1_555
Ce10 N16 2.601393 1_555
Ce10 N19 2.734132 1_555
Ce10 N9 2.828752 1_555
Ce11 N17 2.353561 1_555
Ce11 N27 2.496795 1_555
Ce11 O11 2.502713 1_556
Ce11 O12 2.518987 1_565
Ce11 N19 2.586218 1_555
Ce11 N20 2.624662 1_556
Ce11 O9 2.862361 1_556
Ce12 N11 2.418627 1_555
Ce12 N21 2.519243 1_555
Ce12 N22 2.537147 1_555
Ce12 N18 2.616572 1_555
Ce12 O15 2.766841 1_555
Ce12 O14 2.772268 1_555
Ce12 N14 2.978343 1_555
Ce12 N13 3.010155 1_555
Ce13 N12 2.388000 1_555
Ce13 O16 2.406185 1_545
Ce13 O11 2.464265 1_545
Ce13 N24 2.525232 1_555
Ce13 N25 2.553536 1_555
Ce13 N15 2.735190 1_555
Ce13 O12 2.772751 1_554
Ce14 N17 2.374582 1_545
Ce14 O17 2.378241 1_545
Ce14 O10 2.446516 1_555
Ce14 N26 2.550978 1_555
Ce14 N23 2.551362 1_555
Ce14 O12 2.760627 1_555
Ce14 N16 2.762901 1_555
Ce15 N30 2.352970 1_555
Ce15 O14 2.403088 1_555
Ce15 O0 2.432614 1_655
Ce15 N20 2.600482 1_555
Ce15 N22 2.604530 1_555
Ce15 N28 2.704244 1_555
Ce15 N32 2.759658 1_555
Ce16 N31 2.370340 1_555
Ce16 O15 2.408456 1_555
Ce16 O1 2.439037 1_655
Ce16 N19 2.572476 1_555
Ce16 N21 2.589224 1_555
Ce16 N28 2.720674 1_556
Ce16 N33 2.755635 1_555
Ce17 N2 2.409175 1_655
Ce17 N23 2.525700 1_555
Ce17 N24 2.537017 1_555
Ce17 N29 2.638556 1_545
Ce17 O17 2.768896 1_545
Ce17 O16 2.786373 1_545
Ce17 N0 2.980967 1_655
Ce17 N1 2.988338 1_655
Ce18 N30 2.384054 1_555
Ce18 N31 2.395292 1_554
Ce18 N28 2.453618 1_555
Ce18 N25 2.647683 1_555
Ce18 N26 2.650916 1_554
Ce18 O2 2.689927 1_654
Ce18 O13 2.706805 1_555
Ce19 O16 2.487689 1_545
Ce19 N27 2.504754 1_544
Ce19 O5 2.597570 1_655
Ce19 N32 2.603606 1_545
Ce19 N0 2.607900 1_655
Ce19 O3 2.615683 1_654
Ce19 N25 2.753093 1_555
Ce19 N3 2.849388 1_645
Br0 Ce3 3.264417 1_555
Br0 Ce4 3.287757 1_555
Br1 Ce5 3.282918 1_555
Br1 Ce6 3.294925 1_555
Br1 Ce2 3.698230 1_555
Br1 Ce14 3.891658 1_565
Br1 Ce13 3.899059 1_565
N0 Si18 1.720708 1_455
N0 Si3 1.723934 1_555
N1 Si19 1.718645 1_455
N1 Si2 1.720275 1_555
N2 Si3 1.707799 1_555
N2 Si2 1.710931 1_555
N3 Si4 1.706303 1_555
N3 Si0 1.745255 1_555
N4 Si4 1.704800 1_556
N4 Si1 1.743910 1_555
N5 Si1 1.716689 1_555
N5 Si6 1.724462 1_555
N6 Si0 1.715581 1_555
N6 Si7 1.723297 1_555
N7 Si9 1.716010 1_555
N7 Si2 1.732104 1_555
N8 Si3 1.733663 1_555
N8 Si8 1.737501 1_555
N9 Si5 1.704987 1_556
N9 Si9 1.744670 1_555
N10 Si5 1.705919 1_555
N10 Si8 1.776428 1_555
N11 Si7 1.703968 1_555
N11 Si6 1.706393 1_555
N12 Si8 1.714089 1_555
N13 Si10 1.700179 1_555
N13 Si7 1.723993 1_555
N14 Si11 1.720741 1_555
N14 Si6 1.722207 1_555
N15 Si8 1.719392 1_555
N15 Si13 1.725890 1_555
N16 Si9 1.700933 1_555
N16 Si12 1.725905 1_555
N17 Si11 1.711860 1_555
N18 Si13 1.704633 1_555
N18 Si12 1.706620 1_555
N19 Si14 1.726766 1_556
N19 Si11 1.775805 1_555
N20 Si14 1.729761 1_555
N20 Si10 1.742862 1_555
N21 Si17 1.728336 1_555
N21 Si11 1.742583 1_555
N22 Si10 1.721293 1_555
N22 Si16 1.727667 1_555
N23 Si12 1.727350 1_555
N23 Si19 1.747826 1_555
N24 Si13 1.727849 1_555
N24 Si18 1.748150 1_555
N25 Si15 1.724319 1_555
N25 Si18 1.769671 1_555
N26 Si15 1.723046 1_556
N26 Si19 1.769682 1_555
N27 Si15 1.719507 1_566
N28 Si14 1.729307 1_555
N29 Si16 1.702933 1_555
N29 Si17 1.703934 1_555
N30 Si18 1.711895 1_555
N31 Si19 1.711337 1_555
N32 Si0 1.694600 1_655
N32 Si16 1.725345 1_555
N33 Si1 1.696117 1_655
N33 Si17 1.727094 1_555
O0 Si0 1.674483 1_555
O1 Si1 1.672890 1_555
O2 Si5 1.681213 1_556
O3 Si4 1.674144 1_546
O4 Si2 1.674250 1_555
O5 Si3 1.677586 1_555
O6 Si7 1.678956 1_555
O7 Si6 1.675933 1_555
O8 Si5 1.675194 1_556
O9 Si4 1.679401 1_555
O10 Si9 1.672991 1_555
O11 Si10 1.671435 1_555
O12 Si15 1.721269 1_556
O13 Si14 1.698827 1_555
O14 Si13 1.682336 1_555
O15 Si12 1.681330 1_555
O16 Si16 1.678532 1_555
O17 Si17 1.679879 1_555
