# generated using pymatgen
data_Sm2Si5Ru3
_symmetry_space_group_name_H-M   'P 1'
_cell_length_a   10.75718107
_cell_length_b   10.75718107
_cell_length_c   5.71150246
_cell_angle_alpha   90.00000000
_cell_angle_beta   90.00000000
_cell_angle_gamma   90.00000000
_symmetry_Int_Tables_number   1
_chemical_formula_structural   Sm2Si5Ru3
_chemical_formula_sum   'Sm8 Si20 Ru12'
_cell_volume   660.91761359
_cell_formula_units_Z   4
loop_
 _symmetry_equiv_pos_site_id
 _symmetry_equiv_pos_as_xyz
  1  'x, y, z'
loop_
 _atom_site_type_symbol
 _atom_site_label
 _atom_site_symmetry_multiplicity
 _atom_site_fract_x
 _atom_site_fract_y
 _atom_site_fract_z
 _atom_site_occupancy
  Sm  Sm0  1  0.76533245  0.92797731  0.50000000  1
  Sm  Sm1  1  0.23466755  0.07202269  0.50000000  1
  Sm  Sm2  1  0.26533245  0.57202269  0.00000000  1
  Sm  Sm3  1  0.73466755  0.42797731  0.00000000  1
  Sm  Sm4  1  0.07202269  0.76533245  0.50000000  1
  Sm  Sm5  1  0.92797731  0.23466755  0.50000000  1
  Sm  Sm6  1  0.42797731  0.26533245  0.00000000  1
  Sm  Sm7  1  0.57202269  0.73466755  0.00000000  1
  Si  Si0  1  0.82110387  0.47848465  0.50000000  1
  Si  Si1  1  0.17889613  0.52151535  0.50000000  1
  Si  Si2  1  0.32110387  0.02151535  0.00000000  1
  Si  Si3  1  0.67889613  0.97848465  0.00000000  1
  Si  Si4  1  0.52151535  0.82110387  0.50000000  1
  Si  Si5  1  0.47848465  0.17889613  0.50000000  1
  Si  Si6  1  0.97848465  0.32110387  0.00000000  1
  Si  Si7  1  0.02151535  0.67889613  0.00000000  1
  Si  Si8  1  0.67267322  0.17267322  0.25000000  1
  Si  Si9  1  0.32732678  0.82732678  0.25000000  1
  Si  Si10  1  0.17267322  0.32732678  0.75000000  1
  Si  Si11  1  0.82732678  0.67267322  0.75000000  1
  Si  Si12  1  0.82732678  0.67267322  0.25000000  1
  Si  Si13  1  0.17267322  0.32732678  0.25000000  1
  Si  Si14  1  0.67267322  0.17267322  0.75000000  1
  Si  Si15  1  0.32732678  0.82732678  0.75000000  1
  Si  Si16  1  0.50000000  0.50000000  0.27162589  1
  Si  Si17  1  0.00000000  -0.00000000  0.77162589  1
  Si  Si18  1  0.50000000  0.50000000  0.72837411  1
  Si  Si19  1  0.00000000  -0.00000000  0.22837411  1
  Ru  Ru0  1  0.50000000  -0.00000000  0.25000000  1
  Ru  Ru1  1  0.00000000  0.50000000  0.75000000  1
  Ru  Ru2  1  0.00000000  0.50000000  0.25000000  1
  Ru  Ru3  1  0.50000000  -0.00000000  0.75000000  1
  Ru  Ru4  1  0.64642874  0.62498126  0.50000000  1
  Ru  Ru5  1  0.35357126  0.37501874  0.50000000  1
  Ru  Ru6  1  0.14642874  0.87501874  0.00000000  1
  Ru  Ru7  1  0.85357126  0.12498126  0.00000000  1
  Ru  Ru8  1  0.37501874  0.64642874  0.50000000  1
  Ru  Ru9  1  0.62498126  0.35357126  0.50000000  1
  Ru  Ru10  1  0.12498126  0.14642874  0.00000000  1
  Ru  Ru11  1  0.87501874  0.85357126  0.00000000  1
loop_
_geom_bond_atom_site_label_1
_geom_bond_atom_site_label_2
_geom_bond_distance
_geom_bond_site_symmetry_2
Si0 Si11 2.531186 1_555
Si0 Si12 2.531186 1_555
Si0 Sm5 2.863688 1_555
Si0 Sm3 3.052058 1_556
Si0 Sm3 3.052058 1_555
Si1 Si13 2.531186 1_555
Si1 Si10 2.531186 1_555
Si1 Sm4 2.863688 1_555
Si1 Sm2 3.052058 1_555
Si1 Sm2 3.052058 1_556
Si2 Si9 2.531186 1_545
Si2 Sm6 2.863688 1_555
Si2 Sm1 3.052058 1_555
Si2 Sm1 3.052058 1_554
Si3 Si8 2.531186 1_565
Si3 Sm7 2.863688 1_555
Si3 Sm0 3.052058 1_554
Si3 Sm0 3.052058 1_555
Si4 Si9 2.531186 1_555
Si4 Sm0 2.863688 1_555
Si4 Sm7 3.052058 1_556
Si4 Sm7 3.052058 1_555
Si5 Si8 2.531186 1_555
Si5 Sm1 2.863688 1_555
Si5 Sm6 3.052058 1_555
Si5 Sm6 3.052058 1_556
Si6 Sm3 2.863688 1_555
Si6 Sm5 3.052058 1_555
Si6 Sm5 3.052058 1_554
Si7 Sm2 2.863688 1_555
Si7 Sm4 3.052058 1_554
Si7 Sm4 3.052058 1_555
Si8 Sm0 3.156109 1_545
Si8 Sm6 3.156109 1_555
Si8 Sm3 3.166388 1_555
Si8 Sm5 3.166388 1_555
Si9 Sm7 3.156109 1_555
Si9 Sm1 3.156109 1_565
Si9 Sm4 3.166388 1_555
Si9 Sm2 3.166388 1_555
Si10 Si6 2.531186 1_456
Si10 Si13 2.855751 1_555
Si10 Si13 2.855751 1_556
Si10 Sm5 3.156109 1_455
Si10 Sm2 3.156109 1_556
Si10 Sm1 3.166388 1_555
Si10 Sm6 3.166388 1_556
Si11 Si7 2.531186 1_656
Si11 Si12 2.855751 1_555
Si11 Si12 2.855751 1_556
Si11 Sm3 3.156109 1_556
Si11 Sm4 3.156109 1_655
Si11 Sm7 3.166388 1_556
Si11 Sm0 3.166388 1_555
Si12 Si7 2.531186 1_655
Si12 Sm3 3.156109 1_555
Si12 Sm4 3.156109 1_655
Si12 Sm0 3.166388 1_555
Si12 Sm7 3.166388 1_555
Si13 Si6 2.531186 1_455
Si13 Sm5 3.156109 1_455
Si13 Sm2 3.156109 1_555
Si13 Sm1 3.166388 1_555
Si13 Sm6 3.166388 1_555
Si14 Si5 2.531186 1_555
Si14 Si3 2.531186 1_546
Si14 Si8 2.855751 1_555
Si14 Si8 2.855751 1_556
Si14 Sm0 3.156109 1_545
Si14 Sm6 3.156109 1_556
Si14 Sm3 3.166388 1_556
Si14 Sm5 3.166388 1_555
Si15 Si2 2.531186 1_566
Si15 Si4 2.531186 1_555
Si15 Si9 2.855751 1_555
Si15 Si9 2.855751 1_556
Si15 Sm7 3.156109 1_556
Si15 Sm1 3.156109 1_565
Si15 Sm4 3.166388 1_555
Si15 Sm2 3.166388 1_556
Si16 Sm7 3.062592 1_555
Si16 Sm3 3.062592 1_555
Si16 Sm2 3.062592 1_555
Si16 Sm6 3.062592 1_555
Si17 Sm0 3.062592 1_445
Si17 Sm5 3.062592 1_455
Si17 Sm4 3.062592 1_545
Si17 Sm1 3.062592 1_555
Si18 Sm7 3.062592 1_556
Si18 Sm3 3.062592 1_556
Si18 Sm2 3.062592 1_556
Si18 Sm6 3.062592 1_556
Si19 Sm0 3.062592 1_445
Si19 Sm5 3.062592 1_455
Si19 Sm4 3.062592 1_545
Si19 Sm1 3.062592 1_555
Ru0 Si2 2.407443 1_555
Ru0 Si5 2.407443 1_555
Ru0 Si3 2.407443 1_545
Ru0 Si4 2.407443 1_545
Ru0 Si9 2.626869 1_545
Ru0 Si8 2.626869 1_555
Ru0 Sm1 3.284160 1_555
Ru0 Sm6 3.284160 1_555
Ru0 Sm0 3.284160 1_545
Ru0 Sm7 3.284160 1_545
Ru1 Si6 2.407443 1_456
Ru1 Si1 2.407443 1_555
Ru1 Si0 2.407443 1_455
Ru1 Si7 2.407443 1_556
Ru1 Si11 2.626869 1_455
Ru1 Si10 2.626869 1_555
Ru1 Sm5 3.284160 1_455
Ru1 Sm2 3.284160 1_556
Ru1 Sm4 3.284160 1_555
Ru1 Sm3 3.284160 1_456
Ru2 Si6 2.407443 1_455
Ru2 Si1 2.407443 1_555
Ru2 Si0 2.407443 1_455
Ru2 Si7 2.407443 1_555
Ru2 Si12 2.626869 1_455
Ru2 Si13 2.626869 1_555
Ru2 Sm5 3.284160 1_455
Ru2 Sm2 3.284160 1_555
Ru2 Sm4 3.284160 1_555
Ru2 Sm3 3.284160 1_455
Ru3 Si2 2.407443 1_556
Ru3 Si5 2.407443 1_555
Ru3 Si3 2.407443 1_546
Ru3 Si4 2.407443 1_545
Ru3 Si15 2.626869 1_545
Ru3 Si14 2.626869 1_555
Ru3 Sm1 3.284160 1_555
Ru3 Sm6 3.284160 1_556
Ru3 Sm0 3.284160 1_545
Ru3 Sm7 3.284160 1_546
Ru4 Si18 2.447451 1_555
Ru4 Si16 2.447451 1_555
Ru4 Si0 2.452370 1_555
Ru4 Si11 2.467542 1_555
Ru4 Si12 2.467542 1_555
Ru4 Si4 2.501303 1_555
Ru4 Sm7 3.191889 1_556
Ru4 Sm7 3.191889 1_555
Ru5 Si18 2.447451 1_555
Ru5 Si16 2.447451 1_555
Ru5 Si1 2.452370 1_555
Ru5 Si13 2.467542 1_555
Ru5 Si10 2.467542 1_555
Ru5 Si5 2.501303 1_555
Ru5 Sm6 3.191889 1_555
Ru5 Sm6 3.191889 1_556
Ru6 Si17 2.447451 1_564
Ru6 Si19 2.447451 1_565
Ru6 Si2 2.452370 1_565
Ru6 Si15 2.467542 1_554
Ru6 Si9 2.467542 1_555
Ru6 Si7 2.501303 1_555
Ru6 Sm4 3.191889 1_555
Ru6 Sm4 3.191889 1_554
Ru7 Si17 2.447451 1_654
Ru7 Si19 2.447451 1_655
Ru7 Si3 2.452370 1_545
Ru7 Si14 2.467542 1_554
Ru7 Si8 2.467542 1_555
Ru7 Si6 2.501303 1_555
Ru7 Sm5 3.191889 1_554
Ru7 Sm5 3.191889 1_555
Ru8 Si18 2.447451 1_555
Ru8 Si16 2.447451 1_555
Ru8 Si4 2.452370 1_555
Ru8 Si15 2.467542 1_555
Ru8 Si9 2.467542 1_555
Ru8 Si1 2.501303 1_555
Ru8 Sm2 3.191889 1_555
Ru8 Sm2 3.191889 1_556
Ru9 Si18 2.447451 1_555
Ru9 Si16 2.447451 1_555
Ru9 Si5 2.452370 1_555
Ru9 Si14 2.467542 1_555
Ru9 Si8 2.467542 1_555
Ru9 Si0 2.501303 1_555
Ru9 Sm3 3.191889 1_556
Ru9 Sm3 3.191889 1_555
Ru10 Si19 2.447451 1_555
Ru10 Si17 2.447451 1_554
Ru10 Si6 2.452370 1_455
Ru10 Si13 2.467542 1_555
Ru10 Si10 2.467542 1_554
Ru10 Si2 2.501303 1_555
Ru10 Sm1 3.191889 1_554
Ru10 Sm1 3.191889 1_555
Ru11 Si19 2.447451 1_665
Ru11 Si17 2.447451 1_664
Ru11 Si7 2.452370 1_655
Ru11 Si11 2.467542 1_554
Ru11 Si12 2.467542 1_555
Ru11 Si3 2.501303 1_555
Ru11 Sm0 3.191889 1_554
Ru11 Sm0 3.191889 1_555
