# generated using pymatgen
data_Na5Mg5In3(SO4)12
_symmetry_space_group_name_H-M   'P 1'
_cell_length_a   8.76683100
_cell_length_b   9.03521117
_cell_length_c   29.21228829
_cell_angle_alpha   88.97216416
_cell_angle_beta   98.60199445
_cell_angle_gamma   118.99316814
_symmetry_Int_Tables_number   1
_chemical_formula_structural   Na5Mg5In3(SO4)12
_chemical_formula_sum   'Na10 Mg10 In6 S24 O96'
_cell_volume   1997.17241389
_cell_formula_units_Z   2
loop_
 _symmetry_equiv_pos_site_id
 _symmetry_equiv_pos_as_xyz
  1  'x, y, z'
loop_
 _atom_site_type_symbol
 _atom_site_label
 _atom_site_symmetry_multiplicity
 _atom_site_fract_x
 _atom_site_fract_y
 _atom_site_fract_z
 _atom_site_occupancy
  Na  Na0  1  0.00035100  0.99941400  0.00047300  1
  Na  Na1  1  0.50028600  0.75001700  0.25028200  1
  Na  Na2  1  0.75018300  0.37499500  0.12543700  1
  Na  Na3  1  0.00171200  0.50030800  0.50071000  1
  Na  Na4  1  0.25020600  0.12487200  0.37546300  1
  Na  Na5  1  0.50354100  0.25770700  0.74793100  1
  Na  Na6  1  0.73892200  0.87289800  0.61984000  1
  Na  Na7  1  0.01482400  0.96714900  0.72153300  1
  Na  Na8  1  0.23552400  0.61421300  0.87798400  1
  Na  Na9  1  0.49920000  0.87751100  0.80776100  1
  Mg  Mg0  1  0.52907700  0.96957900  0.08841200  1
  Mg  Mg1  1  0.02909200  0.72000100  0.33835200  1
  Mg  Mg2  1  0.97086600  0.78002900  0.16197000  1
  Mg  Mg3  1  0.52899100  0.47026000  0.58958800  1
  Mg  Mg4  1  0.47061300  0.52977500  0.41198800  1
  Mg  Mg5  1  0.72272700  0.64967100  0.78788100  1
  Mg  Mg6  1  0.03197600  0.22201700  0.83764900  1
  Mg  Mg7  1  0.97307600  0.28824500  0.66188700  1
  Mg  Mg8  1  0.27511300  0.83294500  0.70978600  1
  Mg  Mg9  1  0.47182400  0.03090400  0.91237700  1
  In  In0  1  0.22321800  0.40895200  0.03738100  1
  In  In1  1  0.72317100  0.15893100  0.28741200  1
  In  In2  1  0.22301000  0.90881200  0.53768800  1
  In  In3  1  0.27707700  0.34111300  0.21298200  1
  In  In4  1  0.77719900  0.09122500  0.46298100  1
  In  In5  1  0.77715600  0.58919200  0.96287500  1
  S  S0  1  0.27075500  0.12859600  0.11254000  1
  S  S1  1  0.82250200  0.05486400  0.18631000  1
  S  S2  1  0.76852300  0.22873000  0.01170100  1
  S  S3  1  0.73190900  0.52021800  0.23854100  1
  S  S4  1  0.67772600  0.69516800  0.06359100  1
  S  S5  1  0.77063200  0.87848300  0.36250000  1
  S  S6  1  0.22898700  0.62134000  0.13758800  1
  S  S7  1  0.32258800  0.80494500  0.43632700  1
  S  S8  1  0.26818900  0.97929100  0.26145400  1
  S  S9  1  0.23235000  0.27011400  0.48880900  1
  S  S10  1  0.17760600  0.44546000  0.31369800  1
  S  S11  1  0.27167200  0.63076500  0.61299000  1
  S  S12  1  0.72908700  0.37144900  0.38763200  1
  S  S13  1  0.82689300  0.56116200  0.68771900  1
  S  S14  1  0.76783000  0.72891500  0.51139500  1
  S  S15  1  0.72787500  0.01630800  0.73931700  1
  S  S16  1  0.67782200  0.19611900  0.56389400  1
  S  S17  1  0.76881600  0.37697900  0.86166200  1
  S  S18  1  0.22751900  0.11772700  0.63900800  1
  S  S19  1  0.32266500  0.30498200  0.93648500  1
  S  S20  1  0.27401200  0.48627800  0.76161200  1
  S  S21  1  0.23245400  0.77055400  0.98859300  1
  S  S22  1  0.17372900  0.93969700  0.81321200  1
  S  S23  1  0.73445700  0.86973500  0.88656800  1
  O  O0  1  0.18140500  0.49002800  0.09975900  1
  O  O1  1  0.20016500  0.59411200  0.99549400  1
  O  O2  1  0.50336300  0.53756100  0.05206800  1
  O  O3  1  0.36721400  0.78845800  0.12821800  1
  O  O4  1  0.34907200  0.88899500  0.02772500  1
  O  O5  1  0.19949200  0.17893300  0.06841600  1
  O  O6  1  0.65952200  0.84355000  0.07305200  1
  O  O7  1  0.43613000  0.13111800  0.10678300  1
  O  O8  1  0.72913400  0.01998900  0.22775400  1
  O  O9  1  0.72103300  0.09083000  0.14709500  1
  O  O10  1  0.68154600  0.24002500  0.34983300  1
  O  O11  1  0.69960700  0.18047200  0.05575800  1
  O  O12  1  0.69972200  0.34390000  0.24560700  1
  O  O13  1  0.55747800  0.51829300  0.23426500  1
  O  O14  1  0.00340500  0.28777200  0.30199500  1
  O  O15  1  0.86727300  0.53854700  0.37824000  1
  O  O16  1  0.94297600  0.23097300  0.01590000  1
  O  O17  1  0.80054900  0.56758600  0.19438200  1
  O  O18  1  0.84861700  0.63893100  0.27765100  1
  O  O19  1  0.77928200  0.65944100  0.10282000  1
  O  O20  1  0.69937200  0.92877100  0.31833300  1
  O  O21  1  0.77132100  0.73004300  0.02210300  1
  O  O22  1  0.15912700  0.59354700  0.32328500  1
  O  O23  1  0.93604100  0.88108600  0.35673900  1
  O  O24  1  0.06381800  0.61909800  0.14335200  1
  O  O25  1  0.84036300  0.90633900  0.17667000  1
  O  O26  1  0.22933500  0.77026600  0.47774300  1
  O  O27  1  0.30029900  0.57085900  0.18160400  1
  O  O28  1  0.22136100  0.84113600  0.39707100  1
  O  O29  1  0.17765200  0.99184000  0.59952100  1
  O  O30  1  0.15168600  0.86075300  0.22227700  1
  O  O31  1  0.19932200  0.93166400  0.30554400  1
  O  O32  1  0.20005700  0.09364500  0.49579600  1
  O  O33  1  0.05769500  0.26796500  0.48445000  1
  O  O34  1  0.13265800  0.96127300  0.12179600  1
  O  O35  1  0.99697900  0.21234900  0.19770200  1
  O  O36  1  0.50389400  0.03791900  0.55218800  1
  O  O37  1  0.36683800  0.28641100  0.63067700  1
  O  O38  1  0.44271100  0.98149600  0.26568400  1
  O  O39  1  0.30022400  0.15560400  0.25439400  1
  O  O40  1  0.30082000  0.31725400  0.44459500  1
  O  O41  1  0.34905900  0.38845400  0.52800400  1
  O  O42  1  0.31748000  0.25991800  0.15022300  1
  O  O43  1  0.27902100  0.40950200  0.35289600  1
  O  O44  1  0.20174400  0.68151100  0.56832500  1
  O  O45  1  0.27143400  0.48089800  0.27225400  1
  O  O46  1  0.65858800  0.34370200  0.57350700  1
  O  O47  1  0.43828100  0.63426200  0.60716100  1
  O  O48  1  0.56385300  0.36913200  0.39335500  1
  O  O49  1  0.34043900  0.65641600  0.42665500  1
  O  O50  1  0.73426500  0.53076400  0.72846500  1
  O  O51  1  0.80033700  0.32096800  0.43169000  1
  O  O52  1  0.72613800  0.59572000  0.64741400  1
  O  O53  1  0.69254300  0.74793300  0.84731200  1
  O  O54  1  0.65124200  0.61069200  0.47220400  1
  O  O55  1  0.69864100  0.68104200  0.55542900  1
  O  O56  1  0.71164300  0.84844200  0.75038200  1
  O  O57  1  0.55085400  0.00554900  0.73371000  1
  O  O58  1  0.63257100  0.71121300  0.37177200  1
  O  O59  1  0.49723200  0.96241400  0.44775500  1
  O  O60  1  0.99442100  0.79330800  0.80209600  1
  O  O61  1  0.87206500  0.04080400  0.87926400  1
  O  O62  1  0.94231900  0.73129800  0.51560600  1
  O  O63  1  0.79989200  0.90550800  0.50449200  1
  O  O64  1  0.80422300  0.06316500  0.69555600  1
  O  O65  1  0.84232700  0.14263600  0.77793300  1
  O  O66  1  0.81741100  0.00987500  0.40017200  1
  O  O67  1  0.77931400  0.16047500  0.60327500  1
  O  O68  1  0.70244000  0.43198800  0.81889600  1
  O  O69  1  0.77175000  0.23117400  0.52250000  1
  O  O70  1  0.16754100  0.09604000  0.82286900  1
  O  O71  1  0.93559600  0.37883600  0.85720700  1
  O  O72  1  0.06130700  0.11617300  0.64567700  1
  O  O73  1  0.84474600  0.41153600  0.67803300  1
  O  O74  1  0.22908700  0.26977100  0.97791600  1
  O  O75  1  0.28900100  0.05846600  0.68241900  1
  O  O76  1  0.22170800  0.34174600  0.89734800  1
  O  O77  1  0.15533000  0.36177100  0.72293000  1
  O  O78  1  0.20144900  0.43958500  0.80575900  1
  O  O79  1  0.05806600  0.76861700  0.98419900  1
  O  O80  1  0.13406000  0.45940200  0.62029100  1
  O  O81  1  0.00419200  0.71721800  0.69814100  1
  O  O82  1  0.44833900  0.49255800  0.76715100  1
  O  O83  1  0.29752100  0.65906000  0.75239100  1
  O  O84  1  0.30188800  0.81809700  0.94447200  1
  O  O85  1  0.31154600  0.75553000  0.65091500  1
  O  O86  1  0.27730300  0.90111300  0.85219400  1
  O  O87  1  0.26620700  0.96754600  0.77162100  1
  O  O88  1  0.56489400  0.86755400  0.89039300  1
  O  O89  1  0.34016700  0.15629300  0.92669300  1
  O  O90  1  0.79851800  0.81740500  0.93111500  1
  O  O91  1  0.65215200  0.11040000  0.97244400  1
  O  O92  1  0.63034400  0.20619100  0.87038600  1
  O  O93  1  0.49714400  0.46204300  0.94824400  1
  O  O94  1  0.80031500  0.40507800  0.00495500  1
  O  O95  1  0.81496300  0.50225800  0.90132800  1
loop_
_geom_bond_atom_site_label_1
_geom_bond_atom_site_label_2
_geom_bond_distance
_geom_bond_site_symmetry_2
Na0 O21 2.437481 1_455
Na0 O5 2.439663 1_565
Na0 O16 2.440316 1_465
Na0 O79 2.441486 1_554
Na0 O74 2.451798 1_564
Na0 O90 2.483274 1_454
Na1 O45 2.439198 1_555
Na1 O20 2.439511 1_555
Na1 O38 2.440592 1_555
Na1 O13 2.444741 1_555
Na1 O8 2.449783 1_565
Na1 O27 2.456066 1_555
Na2 O17 2.528665 1_555
Na2 O9 2.532119 1_555
Na2 O24 2.535867 1_655
Na2 O7 2.538853 1_555
Na2 O19 2.541766 1_555
Na2 O11 2.555722 1_555
Na3 O44 2.440020 1_555
Na3 O69 2.441027 1_455
Na3 O62 2.443366 1_455
Na3 O33 2.444938 1_555
Na3 O26 2.450499 1_555
Na3 O51 2.467144 1_455
Na4 O28 2.528981 1_545
Na4 O40 2.531176 1_555
Na4 O48 2.536387 1_555
Na4 O23 2.539328 1_445
Na4 O43 2.543859 1_555
Na4 O31 2.553157 1_545
Na5 O50 2.440810 1_555
Na5 O82 2.484257 1_555
Na5 O68 2.488303 1_555
Na5 O75 2.491033 1_555
Na5 O57 2.556733 1_555
Na5 O87 2.599791 1_545
Na6 O47 2.441402 1_555
Na6 O55 2.448429 1_555
Na6 O67 2.494999 1_565
Na6 O52 2.572112 1_555
Na6 O72 2.605400 1_665
Na6 O64 2.641753 1_565
Na7 O81 2.325354 1_555
Na7 O64 2.418113 1_465
Na7 O87 2.454733 1_555
Na7 O72 2.553533 1_565
Na7 O75 2.574708 1_565
Na7 O56 2.607543 1_455
Na7 O60 2.785435 1_455
Na8 O71 2.439881 1_455
Na8 O76 2.465070 1_555
Na8 O84 2.501142 1_555
Na8 O78 2.550326 1_555
Na8 O86 2.552123 1_555
Na8 O88 2.649154 1_555
Na9 O83 2.348213 1_555
Na9 O88 2.406891 1_555
Na9 O57 2.432736 1_565
Na9 O86 2.584955 1_555
Na9 O53 2.620691 1_555
Na9 O87 2.623642 1_555
Na9 O56 2.787670 1_555
Mg0 O3 2.053776 1_555
Mg0 O6 2.059117 1_555
Mg0 O4 2.063703 1_555
Mg0 O11 2.091795 1_565
Mg0 O9 2.094768 1_565
Mg0 O7 2.096206 1_565
Mg1 O15 2.056557 1_455
Mg1 O22 2.056573 1_555
Mg1 O18 2.065919 1_455
Mg1 O23 2.093409 1_455
Mg1 O28 2.096531 1_555
Mg1 O31 2.097240 1_555
Mg2 O25 2.055743 1_555
Mg2 O30 2.058727 1_655
Mg2 O34 2.061095 1_655
Mg2 O24 2.093729 1_655
Mg2 O17 2.095149 1_555
Mg2 O19 2.102179 1_555
Mg3 O46 2.063353 1_555
Mg3 O41 2.083167 1_555
Mg3 O37 2.090604 1_555
Mg3 O47 2.093653 1_555
Mg3 O52 2.102792 1_555
Mg3 O55 2.112977 1_555
Mg4 O49 2.055462 1_555
Mg4 O54 2.055949 1_555
Mg4 O58 2.063257 1_555
Mg4 O48 2.093496 1_555
Mg4 O40 2.097100 1_555
Mg4 O43 2.100590 1_555
Mg5 O60 2.063234 1_555
Mg5 O53 2.071910 1_555
Mg5 O68 2.089503 1_555
Mg5 O50 2.098047 1_555
Mg5 O82 2.110242 1_555
Mg5 O56 2.121688 1_555
Mg6 O61 2.082600 1_455
Mg6 O65 2.084005 1_455
Mg6 O70 2.092119 1_555
Mg6 O71 2.093316 1_455
Mg6 O76 2.105688 1_555
Mg6 O78 2.111061 1_555
Mg7 O73 2.030175 1_555
Mg7 O80 2.046858 1_655
Mg7 O77 2.082137 1_655
Mg7 O67 2.109424 1_555
Mg7 O72 2.131063 1_655
Mg7 O64 2.177115 1_555
Mg8 O85 1.993207 1_555
Mg8 O83 2.052271 1_555
Mg8 O81 2.052753 1_555
Mg8 O75 2.129803 1_565
Mg8 O57 2.154837 1_565
Mg8 O87 2.227338 1_555
Mg9 O91 2.051523 1_555
Mg9 O89 2.054172 1_555
Mg9 O92 2.061765 1_555
Mg9 O84 2.090883 1_545
Mg9 O86 2.147714 1_545
Mg9 O88 2.148161 1_545
In0 O0 2.121185 1_555
In0 O2 2.121862 1_555
In0 O1 2.125376 1_554
In0 O5 2.180402 1_555
In0 O16 2.181928 1_455
In0 O74 2.183897 1_554
In1 O10 2.121605 1_555
In1 O14 2.122399 1_655
In1 O12 2.124004 1_555
In1 O20 2.179981 1_545
In1 O38 2.183324 1_545
In1 O8 2.187514 1_555
In2 O32 2.122683 1_565
In2 O36 2.127199 1_565
In2 O29 2.129835 1_555
In2 O44 2.160156 1_555
In2 O62 2.186356 1_455
In2 O26 2.193512 1_555
In3 O39 2.120742 1_555
In3 O35 2.122239 1_455
In3 O42 2.125835 1_555
In3 O13 2.180779 1_555
In3 O45 2.181794 1_555
In3 O27 2.183688 1_555
In4 O59 2.121174 1_545
In4 O63 2.122301 1_545
In4 O66 2.126984 1_555
In4 O33 2.181335 1_655
In4 O51 2.182830 1_555
In4 O69 2.187800 1_555
In5 O95 2.107290 1_555
In5 O93 2.120961 1_555
In5 O94 2.121070 1_556
In5 O90 2.180940 1_555
In5 O21 2.187303 1_556
In5 O79 2.188164 1_655
O0 S6 1.494048 1_555
O1 S21 1.493415 1_555
O2 S4 1.493610 1_555
O3 S6 1.460803 1_555
O4 S21 1.459749 1_554
O5 S0 1.507353 1_555
O6 S4 1.460524 1_555
O7 S0 1.473614 1_555
O8 S1 1.505906 1_555
O9 S1 1.473521 1_555
O10 S12 1.494183 1_555
O11 S2 1.472624 1_555
O12 S3 1.493302 1_555
O13 S3 1.507161 1_555
O14 S10 1.493680 1_555
O15 S12 1.460750 1_555
O16 S2 1.506136 1_555
O17 S3 1.473798 1_555
O18 S3 1.460488 1_555
O19 S4 1.473177 1_555
O20 S5 1.508116 1_555
O21 S4 1.508159 1_555
O22 S10 1.460157 1_555
O23 S5 1.473602 1_555
O24 S6 1.473047 1_555
O25 S1 1.461203 1_565
O26 S7 1.504740 1_555
O27 S6 1.505691 1_555
O28 S7 1.474095 1_555
O29 S18 1.493182 1_565
O30 S8 1.460787 1_555
O31 S8 1.472896 1_555
O32 S9 1.494006 1_555
O33 S9 1.507985 1_555
O34 S0 1.460591 1_565
O35 S1 1.493293 1_555
O36 S16 1.494581 1_555
O37 S18 1.464556 1_555
O38 S8 1.506839 1_555
O39 S8 1.493643 1_545
O40 S9 1.474543 1_555
O41 S9 1.460833 1_555
O42 S0 1.492719 1_555
O43 S10 1.472864 1_555
O44 S11 1.516645 1_555
O45 S10 1.507831 1_555
O46 S16 1.459771 1_555
O47 S11 1.480848 1_555
O48 S12 1.472986 1_555
O49 S7 1.461398 1_555
O50 S13 1.487563 1_555
O51 S12 1.506420 1_555
O52 S13 1.485618 1_555
O53 S23 1.479324 1_555
O54 S14 1.460080 1_555
O55 S14 1.472676 1_555
O56 S15 1.487301 1_565
O57 S15 1.490972 1_555
O58 S5 1.460314 1_555
O59 S7 1.494093 1_555
O60 S22 1.474136 1_655
O61 S23 1.465425 1_545
O62 S14 1.505822 1_555
O63 S14 1.495365 1_555
O64 S15 1.491067 1_555
O65 S15 1.476303 1_555
O66 S5 1.492813 1_545
O67 S16 1.475511 1_555
O68 S17 1.478852 1_555
O69 S16 1.507274 1_555
O70 S22 1.473467 1_545
O71 S17 1.479226 1_555
O72 S18 1.492123 1_555
O73 S13 1.471152 1_555
O74 S19 1.506401 1_555
O75 S18 1.495434 1_555
O76 S19 1.472911 1_555
O77 S20 1.477900 1_555
O78 S20 1.487128 1_555
O79 S21 1.506500 1_555
O80 S11 1.467151 1_555
O81 S13 1.498680 1_455
O82 S20 1.485725 1_555
O83 S20 1.497248 1_555
O84 S21 1.475671 1_555
O85 S11 1.472172 1_555
O86 S22 1.492010 1_555
O87 S22 1.510858 1_555
O88 S23 1.497951 1_555
O89 S19 1.461825 1_555
O90 S23 1.499704 1_555
O91 S2 1.461377 1_556
O92 S17 1.477259 1_555
O93 S19 1.492511 1_555
O94 S2 1.493290 1_555
O95 S17 1.500161 1_555
