# generated using pymatgen
data_Ta2Al
_symmetry_space_group_name_H-M   'P 1'
_cell_length_a   9.92239500
_cell_length_b   9.92239500
_cell_length_c   5.41383200
_cell_angle_alpha   90.00000000
_cell_angle_beta   90.00000000
_cell_angle_gamma   90.00000000
_symmetry_Int_Tables_number   1
_chemical_formula_structural   Ta2Al
_chemical_formula_sum   'Ta20 Al10'
_cell_volume   533.01299635
_cell_formula_units_Z   10
loop_
 _symmetry_equiv_pos_site_id
 _symmetry_equiv_pos_as_xyz
  1  'x, y, z'
loop_
 _atom_site_type_symbol
 _atom_site_label
 _atom_site_symmetry_multiplicity
 _atom_site_fract_x
 _atom_site_fract_y
 _atom_site_fract_z
 _atom_site_occupancy
  Ta  Ta0  1  0.31140700  0.31140700  0.24836200  1
  Ta  Ta1  1  0.93778600  0.73700000  0.50000000  1
  Ta  Ta2  1  0.26300000  0.06221400  0.50000000  1
  Ta  Ta3  1  0.43778600  0.76300000  0.00000000  1
  Ta  Ta4  1  0.81140700  0.18859300  0.74836200  1
  Ta  Ta5  1  0.40318600  0.59681400  0.50000000  1
  Ta  Ta6  1  0.56221400  0.23700000  0.00000000  1
  Ta  Ta7  1  0.81140700  0.18859300  0.25163800  1
  Ta  Ta8  1  0.18859300  0.81140700  0.74836200  1
  Ta  Ta9  1  0.31140700  0.31140700  0.75163800  1
  Ta  Ta10  1  0.90318600  0.90318600  0.00000000  1
  Ta  Ta11  1  0.06221400  0.26300000  0.50000000  1
  Ta  Ta12  1  0.23700000  0.56221400  0.00000000  1
  Ta  Ta13  1  0.68859300  0.68859300  0.75163800  1
  Ta  Ta14  1  0.09681400  0.09681400  0.00000000  1
  Ta  Ta15  1  0.59681400  0.40318600  0.50000000  1
  Ta  Ta16  1  0.76300000  0.43778600  0.00000000  1
  Ta  Ta17  1  0.18859300  0.81140700  0.25163800  1
  Ta  Ta18  1  0.68859300  0.68859300  0.24836200  1
  Ta  Ta19  1  0.73700000  0.93778600  0.50000000  1
  Al  Al0  1  0.36390500  0.03470100  0.00000000  1
  Al  Al1  1  0.96529900  0.63609500  0.00000000  1
  Al  Al2  1  0.13609500  0.53470100  0.50000000  1
  Al  Al3  1  0.53470100  0.13609500  0.50000000  1
  Al  Al4  1  0.46529900  0.86390500  0.50000000  1
  Al  Al5  1  0.03470100  0.36390500  0.00000000  1
  Al  Al6  1  0.63609500  0.96529900  0.00000000  1
  Al  Al7  1  0.86390500  0.46529900  0.50000000  1
  Al  Al8  1  0.50000000  0.50000000  0.00000000  1
  Al  Al9  1  0.00000000  0.00000000  0.50000000  1
loop_
_geom_bond_atom_site_label_1
_geom_bond_atom_site_label_2
_geom_bond_distance
_geom_bond_site_symmetry_2
Ta0 Ta9 2.689180 1_554
Ta0 Ta9 2.724652 1_555
Ta0 Ta11 2.863624 1_555
Ta0 Ta2 2.863624 1_555
Ta0 Ta6 2.923382 1_555
Ta0 Ta12 2.923382 1_555
Ta0 Ta15 3.271853 1_555
Ta0 Ta5 3.271853 1_555
Ta0 Ta14 3.297811 1_555
Ta1 Ta19 2.817507 1_555
Ta1 Ta13 2.863624 1_555
Ta1 Ta18 2.863624 1_555
Ta1 Ta17 2.923382 1_655
Ta1 Ta8 2.923382 1_655
Ta1 Ta10 3.188156 1_555
Ta1 Ta10 3.188156 1_556
Ta2 Ta9 2.863624 1_555
Ta2 Ta8 2.923382 1_545
Ta3 Ta8 2.863624 1_554
Ta3 Ta5 3.188156 1_554
Ta3 Ta5 3.188156 1_555
Ta4 Ta7 2.689180 1_555
Ta4 Ta7 2.724652 1_556
Ta4 Ta6 2.863624 1_556
Ta5 Ta9 3.271853 1_555
Ta5 Ta8 3.297811 1_555
Ta6 Ta7 2.863624 1_555
Ta6 Ta9 2.923382 1_554
Ta10 Ta14 2.717063 1_665
Ta10 Ta19 3.188156 1_555
Ta10 Ta19 3.188156 1_554
Ta10 Ta7 3.271853 1_565
Ta10 Ta17 3.271853 1_655
Ta10 Ta4 3.271853 1_564
Ta10 Ta8 3.271853 1_654
Ta10 Ta18 3.297811 1_555
Ta10 Ta13 3.297811 1_554
Ta11 Ta2 2.817507 1_555
Ta11 Ta9 2.863624 1_555
Ta11 Ta4 2.923382 1_455
Ta11 Ta7 2.923382 1_455
Ta11 Ta14 3.188156 1_555
Ta11 Ta14 3.188156 1_556
Ta12 Ta3 2.817507 1_555
Ta12 Ta17 2.863624 1_555
Ta12 Ta8 2.863624 1_554
Ta12 Ta9 2.923382 1_554
Ta12 Ta5 3.188156 1_555
Ta12 Ta5 3.188156 1_554
Ta13 Ta18 2.689180 1_556
Ta13 Ta18 2.724652 1_555
Ta13 Ta19 2.863624 1_555
Ta13 Ta16 2.923382 1_556
Ta13 Ta3 2.923382 1_556
Ta13 Ta15 3.271853 1_555
Ta13 Ta5 3.271853 1_555
Ta14 Ta2 3.188156 1_554
Ta14 Ta2 3.188156 1_555
Ta14 Ta7 3.271853 1_455
Ta14 Ta17 3.271853 1_545
Ta14 Ta8 3.271853 1_544
Ta14 Ta4 3.271853 1_454
Ta14 Ta9 3.297811 1_554
Ta15 Ta5 2.717063 1_555
Ta15 Ta16 3.188156 1_555
Ta15 Ta16 3.188156 1_556
Ta15 Ta6 3.188156 1_555
Ta15 Ta6 3.188156 1_556
Ta15 Ta9 3.271853 1_555
Ta15 Ta18 3.271853 1_555
Ta15 Ta7 3.297811 1_555
Ta15 Ta4 3.297811 1_555
Ta16 Ta6 2.817507 1_555
Ta16 Ta7 2.863624 1_555
Ta16 Ta4 2.863624 1_554
Ta16 Ta18 2.923382 1_555
Ta17 Ta8 2.689180 1_555
Ta17 Ta8 2.724652 1_554
Ta17 Ta3 2.863624 1_555
Ta17 Ta2 2.923382 1_565
Ta17 Ta5 3.297811 1_555
Ta18 Ta19 2.863624 1_555
Ta18 Ta3 2.923382 1_555
Ta18 Ta5 3.271853 1_555
Ta19 Ta7 2.923382 1_565
Ta19 Ta4 2.923382 1_565
Al0 Ta14 2.720901 1_555
Al0 Al6 2.787187 1_545
Al0 Ta3 2.793817 1_545
Al0 Ta6 2.810882 1_555
Al0 Ta2 2.899027 1_555
Al0 Ta2 2.899027 1_554
Al0 Ta0 3.101211 1_555
Al0 Ta9 3.101211 1_554
Al0 Ta8 3.129022 1_544
Al0 Ta17 3.129022 1_545
Al1 Ta10 2.720901 1_555
Al1 Al5 2.787187 1_655
Al1 Ta12 2.793817 1_655
Al1 Ta16 2.810882 1_555
Al1 Ta1 2.899027 1_554
Al1 Ta1 2.899027 1_555
Al1 Ta18 3.101211 1_555
Al1 Ta13 3.101211 1_554
Al1 Ta17 3.129022 1_655
Al1 Ta8 3.129022 1_654
Al2 Ta5 2.720901 1_555
Al2 Al7 2.787187 1_455
Al2 Ta11 2.793817 1_555
Al2 Ta1 2.810882 1_455
Al2 Ta12 2.899027 1_555
Al2 Ta12 2.899027 1_556
Al2 Ta17 3.101211 1_555
Al2 Ta8 3.101211 1_555
Al2 Ta9 3.129022 1_555
Al2 Ta0 3.129022 1_555
Al3 Ta15 2.720901 1_555
Al3 Al4 2.787187 1_545
Al3 Ta2 2.793817 1_555
Al3 Ta19 2.810882 1_545
Al3 Ta6 2.899027 1_555
Al3 Ta6 2.899027 1_556
Al3 Ta7 3.101211 1_555
Al3 Ta4 3.101211 1_555
Al3 Ta9 3.129022 1_555
Al3 Ta0 3.129022 1_555
Al4 Ta5 2.720901 1_555
Al4 Ta19 2.793817 1_555
Al4 Ta2 2.810882 1_565
Al4 Ta3 2.899027 1_555
Al4 Ta3 2.899027 1_556
Al4 Ta17 3.101211 1_555
Al4 Ta8 3.101211 1_555
Al4 Ta13 3.129022 1_555
Al4 Ta18 3.129022 1_555
Al5 Ta14 2.720901 1_555
Al5 Ta16 2.793817 1_455
Al5 Ta12 2.810882 1_555
Al5 Ta11 2.899027 1_554
Al5 Ta11 2.899027 1_555
Al5 Ta0 3.101211 1_555
Al5 Ta9 3.101211 1_554
Al5 Ta4 3.129022 1_454
Al5 Ta7 3.129022 1_455
Al6 Ta10 2.720901 1_555
Al6 Ta6 2.793817 1_565
Al6 Ta3 2.810882 1_555
Al6 Ta19 2.899027 1_555
Al6 Ta19 2.899027 1_554
Al6 Ta18 3.101211 1_555
Al6 Ta13 3.101211 1_554
Al6 Ta7 3.129022 1_565
Al6 Ta4 3.129022 1_564
Al7 Ta15 2.720901 1_555
Al7 Ta1 2.793817 1_555
Al7 Ta11 2.810882 1_655
Al7 Ta16 2.899027 1_555
Al7 Ta16 2.899027 1_556
Al7 Ta7 3.101211 1_555
Al7 Ta4 3.101211 1_555
Al7 Ta13 3.129022 1_555
Al7 Ta18 3.129022 1_555
Al8 Ta12 2.681610 1_555
Al8 Ta6 2.681610 1_555
Al8 Ta3 2.681610 1_555
Al8 Ta16 2.681610 1_555
Al8 Ta18 2.968401 1_555
Al8 Ta0 2.968401 1_555
Al8 Ta13 2.968401 1_554
Al8 Ta9 2.968401 1_554
Al8 Ta5 3.028696 1_555
Al8 Ta5 3.028696 1_554
Al8 Ta15 3.028696 1_555
Al8 Ta15 3.028696 1_554
Al9 Ta11 2.681610 1_555
Al9 Ta1 2.681610 1_445
Al9 Ta19 2.681610 1_445
Al9 Ta2 2.681610 1_555
Al9 Ta4 2.968401 1_455
Al9 Ta7 2.968401 1_455
Al9 Ta8 2.968401 1_545
Al9 Ta17 2.968401 1_545
Al9 Ta14 3.028696 1_555
Al9 Ta14 3.028696 1_556
Al9 Ta10 3.028696 1_445
Al9 Ta10 3.028696 1_446
