# generated using pymatgen
data_CdH6C4(S2O)2
_symmetry_space_group_name_H-M   'P 1'
_cell_length_a   9.83048924
_cell_length_b   9.83048924
_cell_length_c   12.66901423
_cell_angle_alpha   73.22966486
_cell_angle_beta   73.22966486
_cell_angle_gamma   23.90728477
_symmetry_Int_Tables_number   1
_chemical_formula_structural   CdH6C4(S2O)2
_chemical_formula_sum   'Cd2 H12 C8 S8 O4'
_cell_volume   474.09300134
_cell_formula_units_Z   2
loop_
 _symmetry_equiv_pos_site_id
 _symmetry_equiv_pos_as_xyz
  1  'x, y, z'
loop_
 _atom_site_type_symbol
 _atom_site_label
 _atom_site_symmetry_multiplicity
 _atom_site_fract_x
 _atom_site_fract_y
 _atom_site_fract_z
 _atom_site_occupancy
  Cd  Cd0  1  0.00000000  0.50000000  0.00000000  1
  Cd  Cd1  1  0.50000000  0.00000000  0.50000000  1
  H  H0  1  0.01297900  0.07125500  0.83298600  1
  H  H1  1  0.92874500  0.98702100  0.66701400  1
  H  H2  1  0.98702100  0.92874500  0.16701400  1
  H  H3  1  0.07125500  0.01297900  0.33298600  1
  H  H4  1  0.34246800  0.64102000  0.86839500  1
  H  H5  1  0.35898000  0.65753200  0.63160500  1
  H  H6  1  0.65753200  0.35898000  0.13160500  1
  H  H7  1  0.64102000  0.34246800  0.36839500  1
  H  H8  1  0.44211800  0.72899900  0.78217900  1
  H  H9  1  0.27100100  0.55788200  0.71782100  1
  H  H10  1  0.55788200  0.27100100  0.21782100  1
  H  H11  1  0.72899900  0.44211800  0.28217900  1
  C  C0  1  0.27879900  0.81127900  0.85079800  1
  C  C1  1  0.18872100  0.72120100  0.64920200  1
  C  C2  1  0.72120100  0.18872100  0.14920200  1
  C  C3  1  0.81127900  0.27879900  0.35079800  1
  C  C4  1  0.26463900  0.99111100  0.95679400  1
  C  C5  1  0.00888900  0.73536100  0.54320600  1
  C  C6  1  0.73536100  0.00888900  0.04320600  1
  C  C7  1  0.99111100  0.26463900  0.45679400  1
  S  S0  1  0.35332700  0.94006900  0.08000300  1
  S  S1  1  0.05993100  0.64667300  0.41999700  1
  S  S2  1  0.64667300  0.05993100  0.91999700  1
  S  S3  1  0.94006900  0.35332700  0.58000300  1
  S  S4  1  0.09824800  0.26712100  0.85170700  1
  S  S5  1  0.73287900  0.90175200  0.64829300  1
  S  S6  1  0.90175200  0.73287900  0.14829300  1
  S  S7  1  0.26712100  0.09824800  0.35170700  1
  O  O0  1  0.33742700  0.79422600  0.95139300  1
  O  O1  1  0.20577400  0.66257300  0.54860700  1
  O  O2  1  0.66257300  0.20577400  0.04860700  1
  O  O3  1  0.79422600  0.33742700  0.45139300  1
loop_
_geom_bond_atom_site_label_1
_geom_bond_atom_site_label_2
_geom_bond_distance
_geom_bond_site_symmetry_2
Cd0 S6 2.663741 1_455
Cd0 S4 2.663741 1_554
Cd0 S2 2.691673 1_464
Cd0 S0 2.691673 1_545
Cd0 S2 2.946781 1_554
Cd0 S0 2.946781 1_455
Cd1 S7 2.663741 1_555
Cd1 S5 2.663741 1_545
Cd1 S1 2.691673 1_645
Cd1 S3 2.691673 1_455
Cd1 S1 2.946781 1_555
Cd1 S3 2.946781 1_545
C0 H4 1.092066 1_555
C0 H0 1.098946 1_565
C0 H8 1.101626 1_555
C0 O0 1.452030 1_555
C1 H5 1.092066 1_555
C1 H1 1.098946 1_455
C1 H9 1.101626 1_555
C1 O1 1.452030 1_555
C2 H6 1.092066 1_555
C2 H2 1.098946 1_545
C2 H10 1.101626 1_555
C2 O2 1.452030 1_555
C3 H7 1.092066 1_555
C3 H3 1.098946 1_655
C3 H11 1.101626 1_555
C3 O3 1.452030 1_555
C4 O0 1.333693 1_555
C4 S4 1.693337 1_565
C4 S0 1.726819 1_556
C5 O1 1.333693 1_555
C5 S5 1.693337 1_455
C5 S1 1.726819 1_555
C6 O2 1.333693 1_555
C6 S6 1.693337 1_545
C6 S2 1.726819 1_554
C7 O3 1.333693 1_555
C7 S7 1.693337 1_655
C7 S3 1.726819 1_555
