# generated using pymatgen
data_CaGd2Zr(GaO3)4
_symmetry_space_group_name_H-M   'P 1'
_cell_length_a   10.93046400
_cell_length_b   10.96941796
_cell_length_c   10.97880227
_cell_angle_alpha   109.45689431
_cell_angle_beta   109.41059925
_cell_angle_gamma   109.33431308
_symmetry_Int_Tables_number   1
_chemical_formula_structural   CaGd2Zr(GaO3)4
_chemical_formula_sum   'Ca4 Gd8 Zr4 Ga16 O48'
_cell_volume   1015.98009161
_cell_formula_units_Z   4
loop_
 _symmetry_equiv_pos_site_id
 _symmetry_equiv_pos_as_xyz
  1  'x, y, z'
loop_
 _atom_site_type_symbol
 _atom_site_label
 _atom_site_symmetry_multiplicity
 _atom_site_fract_x
 _atom_site_fract_y
 _atom_site_fract_z
 _atom_site_occupancy
  Ca  Ca0  1  0.62316700  0.24237100  0.37424000  1
  Ca  Ca1  1  0.87460700  0.12255200  0.24565000  1
  Ca  Ca2  1  0.12539300  0.87744800  0.75435000  1
  Ca  Ca3  1  0.37683300  0.75762900  0.62576000  1
  Gd  Gd0  1  0.24983800  0.62352000  0.87702100  1
  Gd  Gd1  1  0.62864200  0.37032300  0.75055000  1
  Gd  Gd2  1  0.12611600  0.25190200  0.88089300  1
  Gd  Gd3  1  0.24969400  0.12262200  0.36908700  1
  Gd  Gd4  1  0.87388400  0.74809800  0.11910700  1
  Gd  Gd5  1  0.75030600  0.87737800  0.63091300  1
  Gd  Gd6  1  0.37135800  0.62967700  0.24945000  1
  Gd  Gd7  1  0.75016200  0.37648000  0.12297900  1
  Zr  Zr0  1  0.00000000  0.00000000  0.50000000  1
  Zr  Zr1  1  0.50000000  0.00000000  0.00000000  1
  Zr  Zr2  1  0.00000000  0.50000000  0.50000000  1
  Zr  Zr3  1  0.50000000  0.50000000  0.50000000  1
  Ga  Ga0  1  0.88124100  0.63381500  0.76026900  1
  Ga  Ga1  1  0.62667500  0.75026900  0.87644100  1
  Ga  Ga2  1  0.86947300  0.25234900  0.62880400  1
  Ga  Ga3  1  0.24722400  0.87170100  0.12793600  1
  Ga  Ga4  1  0.25361500  0.37525400  0.63190500  1
  Ga  Ga5  1  0.50000000  0.50000000  0.00000000  1
  Ga  Ga6  1  0.00000000  0.00000000  0.00000000  1
  Ga  Ga7  1  0.62326600  0.87363000  0.24954700  1
  Ga  Ga8  1  0.37673400  0.12637000  0.75045300  1
  Ga  Ga9  1  0.50000000  0.00000000  0.50000000  1
  Ga  Ga10  1  0.75277600  0.12829900  0.87206300  1
  Ga  Ga11  1  0.74638500  0.62474600  0.36809500  1
  Ga  Ga12  1  0.13052700  0.74765100  0.37119600  1
  Ga  Ga13  1  0.00000000  0.50000000  0.00000000  1
  Ga  Ga14  1  0.37332500  0.24973100  0.12355900  1
  Ga  Ga15  1  0.11875900  0.36618500  0.23973100  1
  O  O0  1  0.29179700  0.87344200  0.97797400  1
  O  O1  1  0.41241300  0.28952700  0.31686300  1
  O  O2  1  0.68690100  0.47928900  0.60497700  1
  O  O3  1  0.02798300  0.62274800  0.71249500  1
  O  O4  1  0.47308200  0.78835800  0.87821500  1
  O  O5  1  0.20965600  0.52405500  0.62684000  1
  O  O6  1  0.87907300  0.29257500  0.47929700  1
  O  O7  1  0.02533700  0.40367900  0.82260900  1
  O  O8  1  0.67432400  0.20359900  0.58609800  1
  O  O9  1  0.39910600  0.02183800  0.32207500  1
  O  O10  1  0.62221600  0.02330600  0.20734200  1
  O  O11  1  0.62158000  0.59502600  0.91706900  1
  O  O12  1  0.08508000  0.17622500  0.20284000  1
  O  O13  1  0.40417000  0.37464500  0.58645700  1
  O  O14  1  0.29645700  0.41807700  0.82528300  1
  O  O15  1  0.10273700  0.18381700  0.47639000  1
  O  O16  1  0.87885200  0.58244900  0.90675900  1
  O  O17  1  0.82261300  0.90042200  0.02323800  1
  O  O18  1  0.91442400  0.09903900  0.62683900  1
  O  O19  1  0.20263900  0.67569700  0.08146700  1
  O  O20  1  0.58315000  0.87757000  0.40411800  1
  O  O21  1  0.81627300  0.90958200  0.28918300  1
  O  O22  1  0.52764700  0.32273200  0.90366600  1
  O  O23  1  0.09426600  0.91647600  0.12165500  1
  O  O24  1  0.90573400  0.08352400  0.87834500  1
  O  O25  1  0.47235300  0.67726800  0.09633400  1
  O  O26  1  0.18372700  0.09041800  0.71081700  1
  O  O27  1  0.41685000  0.12243000  0.59588200  1
  O  O28  1  0.79736100  0.32430300  0.91853300  1
  O  O29  1  0.08557600  0.90096100  0.37316100  1
  O  O30  1  0.17738700  0.09957800  0.97676200  1
  O  O31  1  0.12114800  0.41755100  0.09324100  1
  O  O32  1  0.89726300  0.81618300  0.52361000  1
  O  O33  1  0.70354300  0.58192300  0.17471700  1
  O  O34  1  0.59583000  0.62535500  0.41354300  1
  O  O35  1  0.91492000  0.82377500  0.79716000  1
  O  O36  1  0.37842000  0.40497400  0.08293100  1
  O  O37  1  0.37778400  0.97669400  0.79265800  1
  O  O38  1  0.60089400  0.97816200  0.67792500  1
  O  O39  1  0.32567600  0.79640100  0.41390200  1
  O  O40  1  0.97466300  0.59632100  0.17739100  1
  O  O41  1  0.12092700  0.70742500  0.52070300  1
  O  O42  1  0.79034400  0.47594500  0.37316000  1
  O  O43  1  0.52691800  0.21164200  0.12178500  1
  O  O44  1  0.97201700  0.37725200  0.28750500  1
  O  O45  1  0.31309900  0.52071100  0.39502300  1
  O  O46  1  0.58758700  0.71047300  0.68313700  1
  O  O47  1  0.70820300  0.12655800  0.02202600  1
loop_
_geom_bond_atom_site_label_1
_geom_bond_atom_site_label_2
_geom_bond_distance
_geom_bond_site_symmetry_2
Ca0 O8 2.419838 1_555
Ca0 O6 2.422852 1_555
Ca0 O1 2.452086 1_555
Ca0 O43 2.471264 1_555
Ca0 O10 2.483850 1_555
Ca0 O9 2.529795 1_555
Ca0 O42 2.615040 1_555
Ca0 O2 2.626570 1_555
Ca1 O12 2.422046 1_655
Ca1 O10 2.430609 1_555
Ca1 O44 2.449589 1_555
Ca1 O21 2.460217 1_545
Ca1 O17 2.533689 1_545
Ca1 O47 2.548437 1_555
Ca1 O15 2.577684 1_655
Ca1 O6 2.594257 1_555
Ca2 O35 2.422046 1_455
Ca2 O37 2.430609 1_555
Ca2 O3 2.449589 1_555
Ca2 O26 2.460217 1_565
Ca2 O30 2.533689 1_565
Ca2 O0 2.548437 1_555
Ca2 O32 2.577684 1_455
Ca2 O41 2.594257 1_555
Ca3 O39 2.419838 1_555
Ca3 O41 2.422852 1_555
Ca3 O46 2.452086 1_555
Ca3 O4 2.471264 1_555
Ca3 O37 2.483850 1_555
Ca3 O38 2.529795 1_555
Ca3 O5 2.615040 1_555
Ca3 O45 2.626570 1_555
Gd0 O19 2.396081 1_556
Gd0 O0 2.399982 1_555
Gd0 O14 2.400202 1_555
Gd0 O5 2.410811 1_555
Gd0 O3 2.491606 1_555
Gd0 O4 2.503078 1_555
Gd0 O25 2.504581 1_556
Gd0 O7 2.518226 1_555
Gd1 O22 2.398650 1_555
Gd1 O27 2.404084 1_555
Gd1 O2 2.415295 1_555
Gd1 O16 2.417734 1_555
Gd1 O8 2.420327 1_555
Gd1 O28 2.456244 1_555
Gd1 O13 2.542400 1_555
Gd1 O11 2.577112 1_555
Gd2 O30 2.369264 1_555
Gd2 O36 2.394080 1_556
Gd2 O7 2.418765 1_555
Gd2 O18 2.443523 1_455
Gd2 O31 2.463156 1_556
Gd2 O24 2.487893 1_455
Gd2 O26 2.517450 1_555
Gd2 O14 2.532160 1_555
Gd3 O9 2.351900 1_555
Gd3 O23 2.382328 1_545
Gd3 O15 2.421485 1_555
Gd3 O13 2.454486 1_555
Gd3 O1 2.462737 1_555
Gd3 O12 2.479365 1_555
Gd3 O29 2.523835 1_545
Gd3 O27 2.553484 1_555
Gd4 O17 2.369264 1_555
Gd4 O11 2.394080 1_554
Gd4 O40 2.418765 1_555
Gd4 O29 2.443523 1_655
Gd4 O16 2.463156 1_554
Gd4 O23 2.487893 1_655
Gd4 O21 2.517450 1_555
Gd4 O33 2.532160 1_555
Gd5 O38 2.351900 1_555
Gd5 O24 2.382328 1_565
Gd5 O32 2.421485 1_555
Gd5 O34 2.454486 1_555
Gd5 O46 2.462737 1_555
Gd5 O35 2.479365 1_555
Gd5 O18 2.523835 1_565
Gd5 O20 2.553484 1_555
Gd6 O25 2.398650 1_555
Gd6 O20 2.404084 1_555
Gd6 O45 2.415295 1_555
Gd6 O31 2.417734 1_555
Gd6 O39 2.420327 1_555
Gd6 O19 2.456244 1_555
Gd6 O34 2.542400 1_555
Gd6 O36 2.577112 1_555
Gd7 O28 2.396081 1_554
Gd7 O47 2.399982 1_555
Gd7 O33 2.400202 1_555
Gd7 O42 2.410811 1_555
Gd7 O44 2.491606 1_555
Gd7 O43 2.503078 1_555
Gd7 O22 2.504581 1_554
Gd7 O40 2.518226 1_555
Ga0 O35 1.863411 1_555
Ga0 O3 1.873022 1_655
Ga0 O16 1.877929 1_555
Ga0 O2 1.890933 1_555
Ga1 O4 1.863932 1_555
Ga1 O17 1.870485 1_556
Ga1 O46 1.879806 1_555
Ga1 O11 1.887262 1_555
Ga2 O6 1.861792 1_555
Ga2 O8 1.862442 1_555
Ga2 O7 1.884221 1_655
Ga2 O18 1.897386 1_555
Ga3 O0 1.869844 1_554
Ga3 O9 1.873629 1_565
Ga3 O19 1.879010 1_555
Ga3 O23 1.879074 1_555
Ga4 O5 1.860180 1_555
Ga4 O14 1.864529 1_555
Ga4 O15 1.868523 1_555
Ga4 O13 1.872954 1_555
Ga5 O33 2.031752 1_555
Ga5 O14 2.031752 1_554
Ga5 O36 2.049590 1_555
Ga5 O11 2.049590 1_554
Ga5 O25 2.054881 1_555
Ga5 O22 2.054881 1_554
Ga6 O12 2.031294 1_555
Ga6 O35 2.031294 1_444
Ga6 O17 2.032168 1_445
Ga6 O30 2.032168 1_554
Ga6 O23 2.051980 1_545
Ga6 O24 2.051980 1_454
Ga7 O10 1.851027 1_565
Ga7 O21 1.876197 1_555
Ga7 O20 1.879426 1_555
Ga7 O25 1.891916 1_555
Ga8 O37 1.851027 1_545
Ga8 O26 1.876197 1_555
Ga8 O27 1.879426 1_555
Ga8 O22 1.891916 1_555
Ga9 O8 2.022553 1_555
Ga9 O39 2.022553 1_545
Ga9 O38 2.035725 1_545
Ga9 O9 2.035725 1_555
Ga9 O20 2.059150 1_545
Ga9 O27 2.059150 1_555
Ga10 O47 1.869855 1_556
Ga10 O38 1.873623 1_545
Ga10 O28 1.879007 1_555
Ga10 O24 1.879072 1_555
Ga11 O42 1.860180 1_555
Ga11 O33 1.864529 1_555
Ga11 O32 1.868523 1_555
Ga11 O34 1.872954 1_555
Ga12 O41 1.861792 1_555
Ga12 O39 1.862442 1_555
Ga12 O40 1.884221 1_455
Ga12 O29 1.897386 1_555
Ga13 O31 2.031799 1_555
Ga13 O16 2.031799 1_454
Ga13 O19 2.031895 1_555
Ga13 O28 2.031895 1_454
Ga13 O40 2.041417 1_455
Ga13 O7 2.041417 1_554
Ga14 O43 1.863932 1_555
Ga14 O30 1.870485 1_554
Ga14 O1 1.879806 1_555
Ga14 O36 1.887262 1_555
Ga15 O12 1.863411 1_555
Ga15 O44 1.873022 1_455
Ga15 O31 1.877929 1_555
Ga15 O45 1.890933 1_555
O0 Zr1 2.117404 1_566
O1 Zr3 2.110455 1_555
O2 Zr3 2.114287 1_555
O3 Zr2 2.123554 1_555
O4 Zr1 2.117156 1_566
O5 Zr2 2.119933 1_555
O6 Zr2 2.107189 1_655
O10 Zr1 2.096831 1_555
O13 Zr3 2.113200 1_555
O15 Zr0 2.106254 1_555
O18 Zr0 2.127248 1_655
O21 Zr0 2.106185 1_665
O26 Zr0 2.106185 1_555
O29 Zr0 2.127248 1_565
O32 Zr0 2.106254 1_665
O34 Zr3 2.113200 1_555
O37 Zr1 2.096831 1_566
O41 Zr2 2.107189 1_555
O42 Zr2 2.119933 1_655
O43 Zr1 2.117156 1_555
O44 Zr2 2.123554 1_655
O45 Zr3 2.114287 1_555
O46 Zr3 2.110455 1_555
O47 Zr1 2.117404 1_555
