# generated using pymatgen
data_K2UF6
_symmetry_space_group_name_H-M   'P 1'
_cell_length_a   7.19266216
_cell_length_b   7.19266216
_cell_length_c   7.20860644
_cell_angle_alpha   81.31084749
_cell_angle_beta   81.31084749
_cell_angle_gamma   120.61151983
_symmetry_Int_Tables_number   1
_chemical_formula_structural   K2UF6
_chemical_formula_sum   'K4 U2 F12'
_cell_volume   305.67080104
_cell_formula_units_Z   2
loop_
 _symmetry_equiv_pos_site_id
 _symmetry_equiv_pos_as_xyz
  1  'x, y, z'
loop_
 _atom_site_type_symbol
 _atom_site_label
 _atom_site_symmetry_multiplicity
 _atom_site_fract_x
 _atom_site_fract_y
 _atom_site_fract_z
 _atom_site_occupancy
  K  K0  1  0.90996479  0.09003521  0.75000000  1
  K  K1  1  0.24243803  0.75756197  0.75000000  1
  K  K2  1  0.09003521  0.90996479  0.25000000  1
  K  K3  1  0.75756197  0.24243803  0.25000000  1
  U  U0  1  0.58029996  0.41970004  0.75000000  1
  U  U1  1  0.41970004  0.58029996  0.25000000  1
  F  F0  1  0.89816284  0.74738157  0.63166304  1
  F  F1  1  0.10183716  0.25261843  0.36833696  1
  F  F2  1  0.62098065  0.17266832  0.62600734  1
  F  F3  1  0.47487312  0.33411931  0.11034539  1
  F  F4  1  0.66588069  0.52512688  0.38965461  1
  F  F5  1  0.33411931  0.47487312  0.61034539  1
  F  F6  1  0.52512688  0.66588069  0.88965461  1
  F  F7  1  0.17266832  0.62098065  0.12600734  1
  F  F8  1  0.37901935  0.82733168  0.37399266  1
  F  F9  1  0.25261843  0.10183716  0.86833696  1
  F  F10  1  0.74738157  0.89816284  0.13166304  1
  F  F11  1  0.82733168  0.37901935  0.87399266  1
loop_
_geom_bond_atom_site_label_1
_geom_bond_atom_site_label_2
_geom_bond_distance
_geom_bond_site_symmetry_2
F0 U0 2.196622 1_555
F0 K2 2.660561 1_655
F0 K0 2.693168 1_565
F0 K1 2.708752 1_655
F1 U1 2.196622 1_555
F1 K0 2.660561 1_455
F1 K2 2.693168 1_545
F1 K3 2.708752 1_455
F2 U0 2.229778 1_555
F2 K3 2.616498 1_555
F2 K0 2.670504 1_555
F2 K1 2.702946 1_545
F3 U1 2.332347 1_555
F3 U0 2.479463 1_554
F3 K3 2.714036 1_555
F3 K2 2.759079 1_545
F4 U1 2.332347 1_555
F4 U0 2.479463 1_555
F4 K3 2.714036 1_555
F4 K2 2.759079 1_655
F5 U0 2.332347 1_555
F5 U1 2.479463 1_555
F5 K1 2.714036 1_555
F5 K0 2.759079 1_455
F6 U0 2.332347 1_555
F6 U1 2.479463 1_556
F6 K1 2.714036 1_555
F6 K0 2.759079 1_565
F7 U1 2.229778 1_555
F7 K1 2.616498 1_554
F7 K2 2.670504 1_555
F7 K3 2.702946 1_455
F8 U1 2.229778 1_555
F8 K1 2.616498 1_555
F8 K2 2.670504 1_555
F8 K3 2.702946 1_565
F9 U0 2.196622 1_555
F9 K2 2.660561 1_546
F9 K0 2.693168 1_455
F9 K1 2.708752 1_545
F10 U1 2.196622 1_555
F10 K0 2.660561 1_564
F10 K2 2.693168 1_655
F10 K3 2.708752 1_565
F11 U0 2.229778 1_555
F11 K3 2.616498 1_556
F11 K0 2.670504 1_555
F11 K1 2.702946 1_655
