# generated using pymatgen
data_PrMnGeO5
_symmetry_space_group_name_H-M   'P 1'
_cell_length_a   5.72688100
_cell_length_b   5.79754182
_cell_length_c   7.04705895
_cell_angle_alpha   106.29111774
_cell_angle_beta   99.31602758
_cell_angle_gamma   107.21377249
_symmetry_Int_Tables_number   1
_chemical_formula_structural   PrMnGeO5
_chemical_formula_sum   'Pr2 Mn2 Ge2 O10'
_cell_volume   206.72722260
_cell_formula_units_Z   2
loop_
 _symmetry_equiv_pos_site_id
 _symmetry_equiv_pos_as_xyz
  1  'x, y, z'
loop_
 _atom_site_type_symbol
 _atom_site_label
 _atom_site_symmetry_multiplicity
 _atom_site_fract_x
 _atom_site_fract_y
 _atom_site_fract_z
 _atom_site_occupancy
  Pr  Pr0  1  0.35019900  0.18835400  0.72055900  1
  Pr  Pr1  1  0.64980100  0.81164600  0.27944100  1
  Mn  Mn0  1  0.00000000  0.50000000  0.00000000  1
  Mn  Mn1  1  0.00000000  0.50000000  0.50000000  1
  Ge  Ge0  1  0.69614800  0.83619900  0.76650000  1
  Ge  Ge1  1  0.30385200  0.16380100  0.23350000  1
  O  O0  1  0.93483300  0.58604400  0.26187400  1
  O  O1  1  0.27066300  0.85201000  0.07636500  1
  O  O2  1  0.06221200  0.16903600  0.36635000  1
  O  O3  1  0.72933700  0.14799000  0.92363500  1
  O  O4  1  0.57628400  0.24125700  0.43970800  1
  O  O5  1  0.32425200  0.36902200  0.08991500  1
  O  O6  1  0.67574800  0.63097800  0.91008500  1
  O  O7  1  0.93778800  0.83096400  0.63365000  1
  O  O8  1  0.06516700  0.41395600  0.73812600  1
  O  O9  1  0.42371600  0.75874300  0.56029200  1
loop_
_geom_bond_atom_site_label_1
_geom_bond_atom_site_label_2
_geom_bond_distance
_geom_bond_site_symmetry_2
Mn0 O0 1.900124 1_455
Mn0 O8 1.900124 1_554
Mn0 O1 2.024495 1_555
Mn0 O3 2.024495 1_454
Mn0 O5 2.269354 1_555
Mn0 O6 2.269354 1_454
Mn1 O8 1.892400 1_555
Mn1 O0 1.892400 1_455
Mn1 O2 2.048188 1_555
Mn1 O7 2.048188 1_455
Mn1 O9 2.339481 1_555
Mn1 O4 2.339481 1_455
Ge0 O6 1.756270 1_555
Ge0 O3 1.770686 1_565
Ge0 O7 1.794654 1_555
Ge0 O9 1.797971 1_555
Ge1 O5 1.756270 1_555
Ge1 O1 1.770686 1_545
Ge1 O2 1.794654 1_555
Ge1 O4 1.797971 1_555
O0 Pr1 2.372512 1_555
O1 Pr1 2.509946 1_555
O2 Pr1 2.483895 1_445
O2 Pr0 2.713721 1_555
O3 Pr0 2.509946 1_555
O4 Pr0 2.573477 1_555
O4 Pr1 2.617779 1_545
O5 Pr1 2.506803 1_555
O5 Pr0 2.565525 1_554
O6 Pr0 2.506803 1_555
O6 Pr1 2.565525 1_556
O7 Pr0 2.483895 1_665
O7 Pr1 2.713721 1_555
O8 Pr0 2.372512 1_555
O9 Pr1 2.573477 1_555
O9 Pr0 2.617779 1_565
