# generated using pymatgen
data_Na2PrO3
_symmetry_space_group_name_H-M   'P 1'
_cell_length_a   7.85383019
_cell_length_b   7.85383019
_cell_length_c   19.02748888
_cell_angle_alpha   89.13189072
_cell_angle_beta   89.13189072
_cell_angle_gamma   122.80368203
_symmetry_Int_Tables_number   1
_chemical_formula_structural   Na2PrO3
_chemical_formula_sum   'Na24 Pr12 O36'
_cell_volume   986.00921421
_cell_formula_units_Z   12
loop_
 _symmetry_equiv_pos_site_id
 _symmetry_equiv_pos_as_xyz
  1  'x, y, z'
loop_
 _atom_site_type_symbol
 _atom_site_label
 _atom_site_symmetry_multiplicity
 _atom_site_fract_x
 _atom_site_fract_y
 _atom_site_fract_z
 _atom_site_occupancy
  Na  Na0  1  0.36483000  0.26928900  0.33105700  1
  Na  Na1  1  0.00000000  0.00000000  0.00000000  1
  Na  Na2  1  0.59013500  0.23489200  0.48568300  1
  Na  Na3  1  0.36571400  0.04508000  0.18446900  1
  Na  Na4  1  0.01720300  0.60237300  0.85515000  1
  Na  Na5  1  0.60237300  0.01720300  0.35515000  1
  Na  Na6  1  0.29480900  0.70519100  0.75000000  1
  Na  Na7  1  0.79584000  0.10709500  0.58565700  1
  Na  Na8  1  0.23489200  0.59013500  0.98568300  1
  Na  Na9  1  0.04508000  0.36571400  0.68446900  1
  Na  Na10  1  0.63517000  0.73071100  0.66894300  1
  Na  Na11  1  0.89290500  0.20416000  0.91434300  1
  Na  Na12  1  0.00000000  0.00000000  0.50000000  1
  Na  Na13  1  0.73071100  0.63517000  0.16894300  1
  Na  Na14  1  0.26928900  0.36483100  0.83105700  1
  Na  Na15  1  0.20416000  0.89290500  0.41434300  1
  Na  Na16  1  0.39762800  0.98279700  0.64485000  1
  Na  Na17  1  0.10709500  0.79584000  0.08565700  1
  Na  Na18  1  0.95492000  0.63428600  0.31553100  1
  Na  Na19  1  0.76510800  0.40986500  0.01431700  1
  Na  Na20  1  0.70519100  0.29480900  0.25000000  1
  Na  Na21  1  0.40986500  0.76510800  0.51431700  1
  Na  Na22  1  0.98279700  0.39762700  0.14485000  1
  Na  Na23  1  0.63428600  0.95492000  0.81553100  1
  Pr  Pr0  1  0.05230700  0.36595800  0.41750500  1
  Pr  Pr1  1  0.63404200  0.94769300  0.08249500  1
  Pr  Pr2  1  0.35858800  0.35840600  0.58438000  1
  Pr  Pr3  1  0.35547700  0.64452300  0.25000000  1
  Pr  Pr4  1  0.96473600  0.03526400  0.25000000  1
  Pr  Pr5  1  0.64159400  0.64141200  0.91562000  1
  Pr  Pr6  1  0.64141200  0.64159400  0.41562000  1
  Pr  Pr7  1  0.35840600  0.35858800  0.08438000  1
  Pr  Pr8  1  0.03526400  0.96473600  0.75000000  1
  Pr  Pr9  1  0.64452300  0.35547700  0.75000000  1
  Pr  Pr10  1  0.94769300  0.63404200  0.58249500  1
  Pr  Pr11  1  0.36595800  0.05230700  0.91750500  1
  O  O0  1  0.64024500  0.32015800  0.61742400  1
  O  O1  1  0.25499900  0.94878200  0.29636900  1
  O  O2  1  0.33309800  0.64954400  0.63029300  1
  O  O3  1  0.05108200  0.74037300  0.96608300  1
  O  O4  1  0.01870700  0.35355900  0.28903600  1
  O  O5  1  0.08225800  0.42188400  0.55413000  1
  O  O6  1  0.57811600  0.91774200  0.94587000  1
  O  O7  1  0.64644100  0.98129300  0.21096400  1
  O  O8  1  0.32768400  0.33628600  0.45654900  1
  O  O9  1  0.74037300  0.05108200  0.46608300  1
  O  O10  1  0.35045600  0.66690200  0.86970700  1
  O  O11  1  0.00445000  0.05193800  0.11999700  1
  O  O12  1  0.32015800  0.64024500  0.11742400  1
  O  O13  1  0.94806200  0.99555000  0.38000300  1
  O  O14  1  0.67725700  0.66543600  0.78660900  1
  O  O15  1  0.05193800  0.00445000  0.61999700  1
  O  O16  1  0.94878200  0.25499900  0.79636900  1
  O  O17  1  0.66371400  0.67231600  0.04345100  1
  O  O18  1  0.66543600  0.67725700  0.28660900  1
  O  O19  1  0.25962700  0.94891800  0.53391700  1
  O  O20  1  0.33456400  0.32274300  0.71339100  1
  O  O21  1  0.67231600  0.66371400  0.54345100  1
  O  O22  1  0.33628600  0.32768400  0.95654900  1
  O  O23  1  0.05121800  0.74500100  0.20363100  1
  O  O24  1  0.32274300  0.33456400  0.21339100  1
  O  O25  1  0.91774200  0.57811600  0.44587000  1
  O  O26  1  0.67984200  0.35975500  0.88257600  1
  O  O27  1  0.99555000  0.94806200  0.88000300  1
  O  O28  1  0.64954400  0.33309800  0.13029300  1
  O  O29  1  0.66690200  0.35045600  0.36970700  1
  O  O30  1  0.35355900  0.01870700  0.78903600  1
  O  O31  1  0.42188400  0.08225800  0.05413000  1
  O  O32  1  0.35975500  0.67984200  0.38257600  1
  O  O33  1  0.98129300  0.64644100  0.71096400  1
  O  O34  1  0.94891800  0.25962700  0.03391700  1
  O  O35  1  0.74500100  0.05121800  0.70363100  1
loop_
_geom_bond_atom_site_label_1
_geom_bond_atom_site_label_2
_geom_bond_distance
_geom_bond_site_symmetry_2
Na0 O29 2.236960 1_555
Na0 O1 2.287126 1_545
Na0 O24 2.357107 1_555
Na0 O8 2.499370 1_555
Na0 O18 2.866431 1_555
Na0 O13 2.902673 1_445
Na1 O11 2.322929 1_555
Na1 O27 2.322929 1_444
Na1 O34 2.377738 1_455
Na1 O3 2.377738 1_544
Na1 O17 2.605165 1_445
Na1 O22 2.605165 1_554
Na2 O29 2.315819 1_555
Na2 O9 2.337521 1_555
Na2 O19 2.484568 1_545
Na2 O0 2.584972 1_555
Na2 O25 2.612360 1_555
Na2 O8 2.643853 1_555
Na3 O1 2.245891 1_545
Na3 O23 2.329685 1_545
Na3 O28 2.354716 1_555
Na3 O31 2.497143 1_555
Na3 O24 2.539582 1_555
Na3 O7 2.566906 1_545
Na4 O26 2.319698 1_455
Na4 O3 2.339814 1_555
Na4 O10 2.402679 1_555
Na4 O16 2.739533 1_455
Na4 O33 2.797596 1_455
Na4 O27 2.856644 1_455
Na5 O32 2.319698 1_545
Na5 O9 2.339814 1_555
Na5 O29 2.402679 1_555
Na5 O1 2.739533 1_545
Na5 O7 2.797596 1_545
Na5 O13 2.856644 1_545
Na6 O10 2.370922 1_555
Na6 O2 2.370922 1_555
Na6 O30 2.379556 1_565
Na6 O33 2.379556 1_455
Na7 O35 2.268048 1_555
Na7 O9 2.326482 1_555
Na7 O5 2.328207 1_655
Na7 O0 2.623500 1_555
Na7 O15 2.627377 1_655
Na8 O10 2.315819 1_555
Na8 O3 2.337521 1_555
Na8 O34 2.484568 1_456
Na8 O12 2.584972 1_556
Na8 O6 2.612360 1_555
Na8 O22 2.643853 1_555
Na9 O16 2.245891 1_455
Na9 O35 2.329685 1_455
Na9 O2 2.354716 1_555
Na9 O5 2.497143 1_555
Na9 O20 2.539582 1_555
Na9 O33 2.566906 1_455
Na10 O2 2.236960 1_555
Na10 O35 2.287126 1_565
Na10 O14 2.357107 1_555
Na10 O21 2.499370 1_555
Na10 O20 2.866431 1_555
Na10 O15 2.902673 1_665
Na11 O16 2.268048 1_555
Na11 O34 2.326482 1_556
Na11 O6 2.328207 1_545
Na11 O26 2.623500 1_555
Na11 O27 2.627377 1_545
Na12 O13 2.322929 1_445
Na12 O15 2.322929 1_555
Na12 O19 2.377738 1_545
Na12 O9 2.377738 1_455
Na12 O21 2.605165 1_445
Na12 O8 2.605165 1_555
Na13 O28 2.236960 1_555
Na13 O23 2.287126 1_655
Na13 O18 2.357107 1_555
Na13 O17 2.499370 1_555
Na13 O24 2.866431 1_555
Na13 O11 2.902673 1_665
Na14 O10 2.236953 1_555
Na14 O16 2.287124 1_455
Na14 O20 2.357110 1_555
Na14 O22 2.499372 1_555
Na14 O14 2.866429 1_555
Na14 O27 2.902678 1_445
Na15 O1 2.268048 1_555
Na15 O19 2.326482 1_555
Na15 O25 2.328207 1_455
Na15 O32 2.623500 1_555
Na15 O13 2.627377 1_455
Na16 O0 2.319697 1_565
Na16 O19 2.339817 1_555
Na16 O2 2.402676 1_555
Na16 O35 2.739525 1_565
Na16 O30 2.797598 1_565
Na16 O15 2.856652 1_565
Na17 O23 2.268048 1_555
Na17 O3 2.326482 1_554
Na17 O31 2.328207 1_565
Na17 O12 2.623500 1_555
Na17 O11 2.627377 1_565
Na18 O23 2.245891 1_655
Na18 O1 2.329685 1_655
Na18 O29 2.354716 1_555
Na18 O25 2.497143 1_555
Na18 O18 2.539582 1_555
Na18 O4 2.566906 1_655
Na19 O28 2.315819 1_555
Na19 O34 2.337521 1_555
Na19 O3 2.484568 1_654
Na19 O26 2.584972 1_554
Na19 O31 2.612360 1_555
Na19 O17 2.643853 1_555
Na20 O29 2.370922 1_555
Na20 O28 2.370922 1_555
Na20 O4 2.379556 1_655
Na20 O7 2.379556 1_545
Na21 O2 2.315819 1_555
Na21 O19 2.337521 1_555
Na21 O9 2.484568 1_565
Na21 O32 2.584972 1_555
Na21 O5 2.612360 1_555
Na21 O21 2.643853 1_555
Na22 O12 2.319698 1_655
Na22 O34 2.339814 1_555
Na22 O28 2.402679 1_555
Na22 O23 2.739533 1_655
Na22 O4 2.797596 1_655
Na22 O11 2.856644 1_655
Na23 O35 2.245891 1_565
Na23 O16 2.329685 1_565
Na23 O10 2.354716 1_555
Na23 O6 2.497143 1_555
Na23 O14 2.539582 1_555
Na23 O30 2.566906 1_565
O0 Pr10 2.408602 1_555
O0 Pr2 2.476954 1_555
O0 Pr9 2.540708 1_555
O1 Pr4 2.856080 1_465
O1 Pr3 3.032715 1_555
O2 Pr2 2.565695 1_555
O3 Pr11 2.503894 1_565
O4 Pr4 2.428622 1_455
O4 Pr0 2.460353 1_555
O4 Pr3 2.471734 1_555
O5 Pr10 2.470355 1_455
O5 Pr2 2.547806 1_555
O5 Pr0 2.635814 1_555
O6 Pr11 2.470355 1_565
O6 Pr5 2.547806 1_555
O6 Pr1 2.635814 1_556
O7 Pr4 2.428622 1_565
O7 Pr1 2.460353 1_555
O7 Pr3 2.471734 1_555
O8 Pr0 2.423493 1_555
O8 Pr6 2.431224 1_555
O8 Pr2 2.447487 1_555
O9 Pr0 2.503894 1_655
O10 Pr5 2.565695 1_555
O11 Pr4 2.481095 1_455
O11 Pr7 2.574227 1_555
O11 Pr1 2.672523 1_445
O12 Pr1 2.408602 1_555
O12 Pr7 2.476954 1_555
O12 Pr3 2.540708 1_555
O13 Pr4 2.481095 1_565
O13 Pr6 2.574227 1_555
O13 Pr0 2.672523 1_665
O14 Pr9 2.419946 1_555
O14 Pr5 2.459216 1_555
O14 Pr8 2.578020 1_655
O15 Pr8 2.481095 1_545
O15 Pr2 2.574227 1_555
O15 Pr10 2.672523 1_445
O16 Pr8 2.856080 1_645
O16 Pr9 3.032715 1_555
O17 Pr1 2.423493 1_555
O17 Pr7 2.431224 1_555
O17 Pr5 2.447487 1_554
O18 Pr3 2.419946 1_555
O18 Pr6 2.459216 1_555
O18 Pr4 2.578020 1_565
O19 Pr10 2.503894 1_455
O20 Pr9 2.419946 1_555
O20 Pr2 2.459216 1_555
O20 Pr8 2.578020 1_545
O21 Pr10 2.423493 1_555
O21 Pr2 2.431224 1_555
O21 Pr6 2.447487 1_555
O22 Pr11 2.423493 1_555
O22 Pr5 2.431224 1_555
O22 Pr7 2.447487 1_556
O23 Pr4 2.856080 1_465
O23 Pr3 3.032715 1_555
O24 Pr3 2.419946 1_555
O24 Pr7 2.459216 1_555
O24 Pr4 2.578020 1_455
O25 Pr0 2.470355 1_655
O25 Pr6 2.547806 1_555
O25 Pr10 2.635814 1_555
O26 Pr11 2.408602 1_555
O26 Pr5 2.476954 1_555
O26 Pr9 2.540708 1_555
O27 Pr8 2.481095 1_655
O27 Pr5 2.574227 1_555
O27 Pr11 2.672523 1_665
O28 Pr7 2.565695 1_555
O29 Pr6 2.565695 1_555
O30 Pr8 2.428622 1_545
O30 Pr11 2.460353 1_555
O30 Pr9 2.471734 1_555
O31 Pr1 2.470355 1_545
O31 Pr7 2.547806 1_555
O31 Pr11 2.635814 1_554
O32 Pr0 2.408602 1_555
O32 Pr6 2.476954 1_555
O32 Pr3 2.540708 1_555
O33 Pr8 2.428622 1_655
O33 Pr10 2.460353 1_555
O33 Pr9 2.471734 1_555
O34 Pr1 2.503894 1_545
O35 Pr8 2.856080 1_645
O35 Pr9 3.032715 1_555
