# generated using pymatgen
data_V6Si7Ni16
_symmetry_space_group_name_H-M   'P 1'
_cell_length_a   7.81222886
_cell_length_b   7.81222886
_cell_length_c   7.81222886
_cell_angle_alpha   60.00000000
_cell_angle_beta   60.00000000
_cell_angle_gamma   60.00000000
_symmetry_Int_Tables_number   1
_chemical_formula_structural   V6Si7Ni16
_chemical_formula_sum   'V6 Si7 Ni16'
_cell_volume   337.13968286
_cell_formula_units_Z   1
loop_
 _symmetry_equiv_pos_site_id
 _symmetry_equiv_pos_as_xyz
  1  'x, y, z'
loop_
 _atom_site_type_symbol
 _atom_site_label
 _atom_site_symmetry_multiplicity
 _atom_site_fract_x
 _atom_site_fract_y
 _atom_site_fract_z
 _atom_site_occupancy
  V  V0  1  0.19077500  0.19077500  0.80922500  1
  V  V1  1  0.80922500  0.19077500  0.80922500  1
  V  V2  1  0.19077500  0.80922500  0.80922500  1
  V  V3  1  0.19077500  0.80922500  0.19077500  1
  V  V4  1  0.80922500  0.19077500  0.19077500  1
  V  V5  1  0.80922500  0.80922500  0.19077500  1
  Si  Si0  1  0.00000000  0.00000000  0.50000000  1
  Si  Si1  1  0.50000000  0.50000000  0.50000000  1
  Si  Si2  1  0.00000000  0.50000000  0.00000000  1
  Si  Si3  1  0.50000000  0.50000000  0.00000000  1
  Si  Si4  1  0.50000000  0.00000000  0.00000000  1
  Si  Si5  1  0.50000000  0.00000000  0.50000000  1
  Si  Si6  1  0.00000000  0.50000000  0.50000000  1
  Ni  Ni0  1  0.83412300  0.83412300  0.49763200  1
  Ni  Ni1  1  0.85259300  0.38246900  0.38246900  1
  Ni  Ni2  1  0.61753100  0.61753100  0.14740700  1
  Ni  Ni3  1  0.83412300  0.83412300  0.83412300  1
  Ni  Ni4  1  0.49763200  0.83412300  0.83412300  1
  Ni  Ni5  1  0.38246900  0.85259300  0.38246900  1
  Ni  Ni6  1  0.38246900  0.38246900  0.38246900  1
  Ni  Ni7  1  0.16587700  0.16587700  0.50236800  1
  Ni  Ni8  1  0.61753100  0.14740700  0.61753100  1
  Ni  Ni9  1  0.14740700  0.61753100  0.61753100  1
  Ni  Ni10  1  0.61753100  0.61753100  0.61753100  1
  Ni  Ni11  1  0.16587700  0.50236800  0.16587700  1
  Ni  Ni12  1  0.38246900  0.38246900  0.85259300  1
  Ni  Ni13  1  0.50236800  0.16587700  0.16587700  1
  Ni  Ni14  1  0.83412300  0.49763200  0.83412300  1
  Ni  Ni15  1  0.16587700  0.16587700  0.16587700  1
loop_
_geom_bond_atom_site_label_1
_geom_bond_atom_site_label_2
_geom_bond_distance
_geom_bond_site_symmetry_2
V0 V2 2.980756 1_545
V0 V4 2.980756 1_456
V0 V3 2.980756 1_546
V0 V1 2.980756 1_455
V1 V4 2.980756 1_556
V1 V5 2.980756 1_546
V1 V2 2.980756 1_645
V2 V3 2.980756 1_556
V2 V5 2.980756 1_456
V3 V5 2.980756 1_455
V3 V4 2.980756 1_465
V4 V5 2.980756 1_545
Si0 V2 2.838487 1_545
Si0 V4 2.838487 1_455
Si0 V3 2.838487 1_545
Si0 V1 2.838487 1_455
Si2 V4 2.838487 1_455
Si2 V5 2.838487 1_455
Si2 V2 2.838487 1_554
Si2 V0 2.838487 1_554
Si3 V1 2.838487 1_554
Si3 V2 2.838487 1_554
Si3 V4 2.838487 1_555
Si3 V3 2.838487 1_555
Si4 V1 2.838487 1_554
Si4 V0 2.838487 1_554
Si4 V3 2.838487 1_545
Si4 V5 2.838487 1_545
Si5 V2 2.838487 1_545
Si5 V0 2.838487 1_555
Si5 V5 2.838487 1_545
Si5 V4 2.838487 1_555
Si6 V5 2.838487 1_455
Si6 V0 2.838487 1_555
Si6 V3 2.838487 1_555
Si6 V1 2.838487 1_455
Ni0 Si0 2.255242 1_665
Ni0 Si5 2.255249 1_565
Ni0 Si6 2.255249 1_655
Ni0 Ni8 2.509334 1_565
Ni0 Ni9 2.509334 1_655
Ni0 Ni10 2.509340 1_555
Ni0 V3 2.606298 1_655
Ni0 V4 2.606298 1_565
Ni0 V5 2.606303 1_555
Ni0 Ni4 2.628745 1_555
Ni0 Ni14 2.628745 1_555
Ni0 Ni3 2.628745 1_555
Ni1 Si1 2.249070 1_555
Ni1 Si6 2.443358 1_655
Ni1 Si2 2.443358 1_655
Ni1 Si0 2.443358 1_655
Ni1 Ni7 2.509334 1_655
Ni1 Ni11 2.509334 1_655
Ni1 Ni15 2.509338 1_655
Ni1 Ni8 2.597003 1_555
Ni1 Ni2 2.597003 1_555
Ni1 Ni10 2.597003 1_555
Ni1 V1 2.803135 1_555
Ni1 V5 2.803135 1_555
Ni1 V4 2.803135 1_555
Ni2 Si1 2.249070 1_555
Ni2 Si4 2.443358 1_565
Ni2 Si2 2.443358 1_655
Ni2 Si3 2.443358 1_555
Ni2 Ni4 2.509334 1_554
Ni2 Ni3 2.509338 1_554
Ni2 Ni5 2.597003 1_555
Ni2 Ni6 2.597003 1_555
Ni2 V5 2.803135 1_555
Ni2 V3 2.803135 1_555
Ni2 V4 2.803135 1_555
Ni3 Si2 2.255247 1_656
Ni3 Si4 2.255247 1_566
Ni3 Si0 2.255247 1_665
Ni3 Ni9 2.509338 1_655
Ni3 Ni8 2.509338 1_565
Ni3 V5 2.606295 1_556
Ni3 V1 2.606295 1_565
Ni3 V2 2.606295 1_655
Ni3 Ni4 2.628745 1_555
Ni4 Si4 2.255242 1_566
Ni4 Si3 2.255249 1_556
Ni4 Si5 2.255249 1_565
Ni4 Ni8 2.509334 1_565
Ni4 V3 2.606298 1_556
Ni4 V0 2.606298 1_565
Ni4 V2 2.606303 1_555
Ni5 Si1 2.249070 1_555
Ni5 Si5 2.443358 1_565
Ni5 Si0 2.443358 1_565
Ni5 Si4 2.443358 1_565
Ni5 Ni7 2.509334 1_565
Ni5 Ni9 2.597003 1_555
Ni5 V5 2.803135 1_555
Ni5 V2 2.803135 1_555
Ni5 V3 2.803135 1_555
Ni6 Si1 2.249070 1_555
Ni6 Si6 2.443358 1_555
Ni6 Si3 2.443358 1_555
Ni6 Si5 2.443358 1_555
Ni6 Ni7 2.509340 1_555
Ni6 Ni8 2.597003 1_555
Ni6 Ni9 2.597003 1_555
Ni6 V0 2.803135 1_555
Ni6 V4 2.803135 1_555
Ni6 V3 2.803135 1_555
Ni7 Si0 2.255242 1_555
Ni7 Si5 2.255249 1_555
Ni7 Si6 2.255249 1_555
Ni7 V2 2.606298 1_545
Ni7 V1 2.606298 1_455
Ni7 V0 2.606303 1_555
Ni8 Si1 2.249070 1_555
Ni8 Si4 2.443358 1_556
Ni8 Si0 2.443358 1_655
Ni8 Si5 2.443358 1_555
Ni8 V1 2.803135 1_555
Ni8 V4 2.803135 1_555
Ni8 V0 2.803135 1_555
Ni9 Si1 2.249070 1_555
Ni9 Si2 2.443358 1_556
Ni9 Si0 2.443358 1_565
Ni9 Si6 2.443358 1_555
Ni9 V2 2.803135 1_555
Ni9 V0 2.803135 1_555
Ni9 V3 2.803135 1_555
Ni10 Si1 2.249070 1_555
Ni10 Si3 2.443358 1_556
Ni10 Si5 2.443358 1_565
Ni10 Si6 2.443358 1_655
Ni10 Ni4 2.509340 1_555
Ni10 Ni14 2.509340 1_555
Ni10 Ni5 2.597003 1_555
Ni10 Ni12 2.597003 1_555
Ni10 V2 2.803135 1_555
Ni10 V1 2.803135 1_555
Ni10 V5 2.803135 1_555
Ni11 Si2 2.255242 1_555
Ni11 Si6 2.255249 1_555
Ni11 Si3 2.255249 1_555
Ni11 Ni12 2.509334 1_554
Ni11 Ni6 2.509340 1_555
Ni11 V2 2.606298 1_554
Ni11 V5 2.606298 1_455
Ni11 V3 2.606303 1_555
Ni11 Ni7 2.628745 1_555
Ni11 Ni15 2.628745 1_555
Ni11 Ni13 2.628745 1_555
Ni12 Si1 2.249070 1_555
Ni12 Si3 2.443358 1_556
Ni12 Si4 2.443358 1_556
Ni12 Si2 2.443358 1_556
Ni12 Ni13 2.509334 1_556
Ni12 Ni15 2.509338 1_556
Ni12 Ni8 2.597003 1_555
Ni12 Ni9 2.597003 1_555
Ni12 V1 2.803135 1_555
Ni12 V2 2.803135 1_555
Ni12 V0 2.803135 1_555
Ni13 Si4 2.255242 1_555
Ni13 Si5 2.255249 1_555
Ni13 Si3 2.255249 1_555
Ni13 Ni5 2.509334 1_545
Ni13 Ni6 2.509340 1_555
Ni13 V5 2.606298 1_545
Ni13 V1 2.606298 1_554
Ni13 V4 2.606303 1_555
Ni13 Ni15 2.628745 1_555
Ni13 Ni7 2.628745 1_555
Ni14 Si2 2.255242 1_656
Ni14 Si3 2.255249 1_556
Ni14 Si6 2.255249 1_655
Ni14 Ni2 2.509334 1_556
Ni14 Ni9 2.509334 1_655
Ni14 V0 2.606298 1_655
Ni14 V4 2.606298 1_556
Ni14 V1 2.606303 1_555
Ni14 Ni4 2.628745 1_555
Ni14 Ni3 2.628745 1_555
Ni15 Si4 2.255247 1_555
Ni15 Si2 2.255247 1_555
Ni15 Si0 2.255247 1_555
Ni15 Ni5 2.509338 1_545
Ni15 V3 2.606295 1_545
Ni15 V0 2.606295 1_554
Ni15 V4 2.606295 1_455
Ni15 Ni7 2.628745 1_555
