# generated using pymatgen
data_Si3Ru2
_symmetry_space_group_name_H-M   'P 1'
_cell_length_a   5.76444400
_cell_length_b   8.78325900
_cell_length_c   11.13844700
_cell_angle_alpha   90.00000000
_cell_angle_beta   90.00000000
_cell_angle_gamma   90.00000000
_symmetry_Int_Tables_number   1
_chemical_formula_structural   Si3Ru2
_chemical_formula_sum   'Si24 Ru16'
_cell_volume   563.94630639
_cell_formula_units_Z   8
loop_
 _symmetry_equiv_pos_site_id
 _symmetry_equiv_pos_as_xyz
  1  'x, y, z'
loop_
 _atom_site_type_symbol
 _atom_site_label
 _atom_site_symmetry_multiplicity
 _atom_site_fract_x
 _atom_site_fract_y
 _atom_site_fract_z
 _atom_site_occupancy
  Si  Si0  1  0.99691800  0.87320200  0.46187400  1
  Si  Si1  1  0.49691800  0.62679800  0.03812600  1
  Si  Si2  1  0.49890400  0.50292100  0.37348400  1
  Si  Si3  1  0.99890400  0.49707900  0.37348400  1
  Si  Si4  1  0.00308200  0.62679800  0.96187400  1
  Si  Si5  1  0.50308200  0.87320200  0.53812600  1
  Si  Si6  1  0.77489000  0.80627500  0.72772200  1
  Si  Si7  1  0.50109600  0.99707900  0.87348400  1
  Si  Si8  1  0.00109600  0.50292100  0.62651600  1
  Si  Si9  1  0.50109600  0.49707900  0.62651600  1
  Si  Si10  1  0.72511000  0.30627500  0.22772200  1
  Si  Si11  1  0.99691800  0.37320200  0.03812600  1
  Si  Si12  1  0.27489000  0.19372500  0.72772200  1
  Si  Si13  1  0.00109600  0.00292100  0.87348400  1
  Si  Si14  1  0.77489000  0.30627500  0.77227800  1
  Si  Si15  1  0.00308200  0.12679800  0.53812600  1
  Si  Si16  1  0.27489000  0.69372500  0.77227800  1
  Si  Si17  1  0.22511000  0.19372500  0.27227800  1
  Si  Si18  1  0.22511000  0.69372500  0.22772200  1
  Si  Si19  1  0.72511000  0.80627500  0.27227800  1
  Si  Si20  1  0.49890400  0.00292100  0.12651600  1
  Si  Si21  1  0.99890400  0.99707900  0.12651600  1
  Si  Si22  1  0.49691800  0.12679800  0.46187400  1
  Si  Si23  1  0.50308200  0.37320200  0.96187400  1
  Ru  Ru0  1  0.25000000  0.66937300  0.50000000  1
  Ru  Ru1  1  0.75000000  0.83062700  0.00000000  1
  Ru  Ru2  1  0.25000000  0.34398600  0.50000000  1
  Ru  Ru3  1  0.86387600  0.56935600  0.17808400  1
  Ru  Ru4  1  0.63612400  0.06935600  0.67808400  1
  Ru  Ru5  1  0.75000000  0.65601400  0.50000000  1
  Ru  Ru6  1  0.13612400  0.43064400  0.82191600  1
  Ru  Ru7  1  0.75000000  0.15601400  0.00000000  1
  Ru  Ru8  1  0.86387600  0.06935600  0.32191600  1
  Ru  Ru9  1  0.25000000  0.84398600  0.00000000  1
  Ru  Ru10  1  0.63612400  0.56935600  0.82191600  1
  Ru  Ru11  1  0.25000000  0.16937300  0.00000000  1
  Ru  Ru12  1  0.36387600  0.93064400  0.32191600  1
  Ru  Ru13  1  0.13612400  0.93064400  0.67808400  1
  Ru  Ru14  1  0.75000000  0.33062700  0.50000000  1
  Ru  Ru15  1  0.36387600  0.43064400  0.17808400  1
loop_
_geom_bond_atom_site_label_1
_geom_bond_atom_site_label_2
_geom_bond_distance
_geom_bond_site_symmetry_2
Si0 Si15 2.384099 1_665
Si0 Si19 2.694477 1_555
Si1 Si23 2.384099 1_554
Si1 Si18 2.694477 1_555
Si5 Si6 2.694477 1_555
Si10 Si11 2.694477 1_555
Si11 Si4 2.384099 1_654
Si12 Si15 2.694477 1_555
Si14 Si23 2.694477 1_555
Si16 Si4 2.694477 1_555
Si17 Si22 2.694477 1_555
Si22 Si5 2.384099 1_545
Ru0 Si5 2.348143 1_555
Ru0 Si0 2.348143 1_455
Ru0 Si8 2.486337 1_555
Ru0 Si2 2.486337 1_555
Ru0 Si9 2.524075 1_555
Ru0 Si3 2.524075 1_455
Ru1 Si1 2.348143 1_555
Ru1 Si4 2.348143 1_654
Ru1 Si7 2.486337 1_554
Ru1 Si21 2.486337 1_555
Ru1 Si13 2.524075 1_664
Ru1 Si20 2.524075 1_565
Ru2 Si15 2.417697 1_555
Ru2 Si22 2.417697 1_555
Ru2 Si9 2.426720 1_555
Ru2 Si3 2.426720 1_455
Ru2 Si8 2.448097 1_555
Ru2 Si2 2.448097 1_555
Ru2 Si12 2.862881 1_555
Ru2 Si17 2.862881 1_555
Ru3 Si3 2.397039 1_555
Ru3 Si18 2.415570 1_655
Ru3 Si11 2.446765 1_555
Ru3 Si19 2.463910 1_555
Ru3 Si10 2.506973 1_555
Ru3 Si4 2.588070 1_654
Ru3 Si1 2.675686 1_555
Ru4 Si7 2.397039 1_545
Ru4 Si12 2.415570 1_555
Ru4 Si5 2.446765 1_545
Ru4 Si14 2.463910 1_555
Ru4 Si6 2.506973 1_545
Ru4 Si22 2.588070 1_555
Ru4 Si15 2.675686 1_655
Ru5 Si5 2.417697 1_555
Ru5 Si0 2.417697 1_555
Ru5 Si2 2.426720 1_555
Ru5 Si8 2.426720 1_655
Ru5 Si9 2.448097 1_555
Ru5 Si3 2.448097 1_555
Ru5 Si19 2.862881 1_555
Ru5 Si6 2.862881 1_555
Ru6 Si8 2.397039 1_555
Ru6 Si14 2.415570 1_455
Ru6 Si4 2.446765 1_555
Ru6 Si12 2.463910 1_555
Ru6 Si16 2.506973 1_555
Ru6 Si11 2.588070 1_456
Ru6 Si23 2.675686 1_555
Ru7 Si23 2.417697 1_554
Ru7 Si11 2.417697 1_555
Ru7 Si13 2.426720 1_654
Ru7 Si20 2.426720 1_555
Ru7 Si7 2.448097 1_544
Ru7 Si21 2.448097 1_545
Ru7 Si14 2.862881 1_554
Ru7 Si10 2.862881 1_555
Ru8 Si21 2.397039 1_545
Ru8 Si17 2.415570 1_655
Ru8 Si0 2.446765 1_545
Ru8 Si10 2.463910 1_555
Ru8 Si19 2.506973 1_545
Ru8 Si15 2.588070 1_655
Ru8 Si22 2.675686 1_555
Ru9 Si4 2.417697 1_554
Ru9 Si1 2.417697 1_555
Ru9 Si7 2.426720 1_554
Ru9 Si21 2.426720 1_455
Ru9 Si13 2.448097 1_564
Ru9 Si20 2.448097 1_565
Ru9 Si16 2.862881 1_554
Ru9 Si18 2.862881 1_555
Ru10 Si9 2.397039 1_555
Ru10 Si16 2.415570 1_555
Ru10 Si23 2.446765 1_555
Ru10 Si6 2.463910 1_555
Ru10 Si14 2.506973 1_555
Ru10 Si1 2.588070 1_556
Ru10 Si4 2.675686 1_655
Ru11 Si23 2.348143 1_554
Ru11 Si11 2.348143 1_455
Ru11 Si13 2.486337 1_554
Ru11 Si20 2.486337 1_555
Ru11 Si7 2.524075 1_544
Ru11 Si21 2.524075 1_445
Ru12 Si20 2.397039 1_565
Ru12 Si19 2.415570 1_555
Ru12 Si22 2.446765 1_565
Ru12 Si18 2.463910 1_555
Ru12 Si17 2.506973 1_565
Ru12 Si5 2.588070 1_555
Ru12 Si0 2.675686 1_455
Ru13 Si13 2.397039 1_565
Ru13 Si6 2.415570 1_455
Ru13 Si15 2.446765 1_565
Ru13 Si16 2.463910 1_555
Ru13 Si12 2.506973 1_565
Ru13 Si0 2.588070 1_455
Ru13 Si5 2.675686 1_555
Ru14 Si22 2.348143 1_555
Ru14 Si15 2.348143 1_655
Ru14 Si9 2.486337 1_555
Ru14 Si3 2.486337 1_555
Ru14 Si8 2.524075 1_655
Ru14 Si2 2.524075 1_555
Ru15 Si2 2.397039 1_555
Ru15 Si10 2.415570 1_555
Ru15 Si1 2.446765 1_555
Ru15 Si17 2.463910 1_555
Ru15 Si18 2.506973 1_555
Ru15 Si23 2.588070 1_554
Ru15 Si11 2.675686 1_455
