# generated using pymatgen
data_MnH9CNCl3O2
_symmetry_space_group_name_H-M   'P 1'
_cell_length_a   9.07660100
_cell_length_b   7.80070400
_cell_length_c   11.67315545
_cell_angle_alpha   88.10389224
_cell_angle_beta   90.00000000
_cell_angle_gamma   90.00000000
_symmetry_Int_Tables_number   1
_chemical_formula_structural   MnH9CNCl3O2
_chemical_formula_sum   'Mn4 H36 C4 N4 Cl12 O8'
_cell_volume   826.05213173
_cell_formula_units_Z   4
loop_
 _symmetry_equiv_pos_site_id
 _symmetry_equiv_pos_as_xyz
  1  'x, y, z'
loop_
 _atom_site_type_symbol
 _atom_site_label
 _atom_site_symmetry_multiplicity
 _atom_site_fract_x
 _atom_site_fract_y
 _atom_site_fract_z
 _atom_site_occupancy
  Mn  Mn0  1  0.49965600  0.96028300  0.75038300  1
  Mn  Mn1  1  0.99965600  0.03971700  0.74961700  1
  Mn  Mn2  1  0.50034400  0.03971700  0.24961700  1
  Mn  Mn3  1  0.00034400  0.96028300  0.25038300  1
  H  H0  1  0.62599700  0.53900000  0.74232700  1
  H  H1  1  0.12599700  0.46100000  0.75767300  1
  H  H2  1  0.37400300  0.46100000  0.25767300  1
  H  H3  1  0.87400300  0.53900000  0.24232700  1
  H  H4  1  0.56866900  0.40158400  0.84937800  1
  H  H5  1  0.06866900  0.59841600  0.65062200  1
  H  H6  1  0.43133100  0.59841600  0.15062200  1
  H  H7  1  0.93133100  0.40158400  0.34937800  1
  H  H8  1  0.69853100  0.34030500  0.76163900  1
  H  H9  1  0.19853100  0.65969500  0.73836100  1
  H  H10  1  0.30146900  0.65969500  0.23836100  1
  H  H11  1  0.80146900  0.34030500  0.26163900  1
  H  H12  1  0.32122400  0.19338300  0.86882000  1
  H  H13  1  0.82122400  0.80661700  0.63118000  1
  H  H14  1  0.67877600  0.80661700  0.13118000  1
  H  H15  1  0.17877600  0.19338300  0.36882000  1
  H  H16  1  0.46252000  0.16546500  0.94567400  1
  H  H17  1  0.96252000  0.83453500  0.55432600  1
  H  H18  1  0.53748000  0.83453500  0.05432600  1
  H  H19  1  0.03748000  0.16546500  0.44567400  1
  H  H20  1  0.50503100  0.19441800  0.55746800  1
  H  H21  1  0.00503100  0.80558200  0.94253200  1
  H  H22  1  0.49496900  0.80558200  0.44253200  1
  H  H23  1  0.99496900  0.19441800  0.05746800  1
  H  H24  1  0.66977900  0.17549100  0.59964500  1
  H  H25  1  0.16977900  0.82450900  0.90035500  1
  H  H26  1  0.33022100  0.82450900  0.40035500  1
  H  H27  1  0.83022100  0.17549100  0.09964500  1
  H  H28  1  0.85129200  0.60329200  0.83723300  1
  H  H29  1  0.35129200  0.39670800  0.66276700  1
  H  H30  1  0.14870800  0.39670800  0.16276700  1
  H  H31  1  0.64870800  0.60329200  0.33723300  1
  H  H32  1  0.79335700  0.44794800  0.95861400  1
  H  H33  1  0.29335700  0.55205200  0.54138600  1
  H  H34  1  0.20664300  0.55205200  0.04138600  1
  H  H35  1  0.70664300  0.44794800  0.45861400  1
  C  C0  1  0.77242700  0.51608600  0.87791000  1
  C  C1  1  0.27242700  0.48391400  0.62209000  1
  C  C2  1  0.22757300  0.48391400  0.12209000  1
  C  C3  1  0.72757300  0.51608600  0.37791000  1
  N  N0  1  0.66032900  0.44647500  0.80453400  1
  N  N1  1  0.16032900  0.55352500  0.69546600  1
  N  N2  1  0.33967100  0.55352500  0.19546600  1
  N  N3  1  0.83967100  0.44647500  0.30453400  1
  Cl  Cl0  1  0.41157400  0.73666200  0.89152400  1
  Cl  Cl1  1  0.91157400  0.26333800  0.60847600  1
  Cl  Cl2  1  0.58842600  0.26333800  0.10847600  1
  Cl  Cl3  1  0.08842600  0.73666200  0.39152400  1
  Cl  Cl4  1  0.59679700  0.73814900  0.61609500  1
  Cl  Cl5  1  0.09679700  0.26185100  0.88390500  1
  Cl  Cl6  1  0.40320300  0.26185100  0.38390500  1
  Cl  Cl7  1  0.90320300  0.73814900  0.11609500  1
  Cl  Cl8  1  0.74912000  0.01455200  0.84446900  1
  Cl  Cl9  1  0.24912000  0.98544800  0.65553100  1
  Cl  Cl10  1  0.25088000  0.98544800  0.15553100  1
  Cl  Cl11  1  0.75088000  0.01455200  0.34446900  1
  O  O0  1  0.42922400  0.17610600  0.86473800  1
  O  O1  1  0.92922400  0.82389400  0.63526200  1
  O  O2  1  0.57077600  0.82389400  0.13526200  1
  O  O3  1  0.07077600  0.17610600  0.36473800  1
  O  O4  1  0.56649000  0.17660000  0.62659200  1
  O  O5  1  0.06649000  0.82340000  0.87340800  1
  O  O6  1  0.43351000  0.82340000  0.37340800  1
  O  O7  1  0.93351000  0.17660000  0.12659200  1
loop_
_geom_bond_atom_site_label_1
_geom_bond_atom_site_label_2
_geom_bond_distance
_geom_bond_site_symmetry_2
Mn0 O4 2.267632 1_565
Mn0 O0 2.274583 1_565
Mn1 O5 2.267632 1_645
Mn1 O1 2.274583 1_545
Mn2 O6 2.267632 1_545
Mn2 O2 2.274583 1_545
Mn3 O7 2.267632 1_465
Mn3 O3 2.274583 1_565
H0 N0 1.053877 1_555
H1 N1 1.053877 1_555
H2 N2 1.053877 1_555
H3 N3 1.053877 1_555
H4 N0 1.037631 1_555
H5 N1 1.037631 1_555
H6 N2 1.037631 1_555
H7 N3 1.037631 1_555
H8 N0 1.041303 1_555
H9 N1 1.041303 1_555
H10 N2 1.041303 1_555
H11 N3 1.041303 1_555
H12 O0 0.990855 1_555
H13 O1 0.990855 1_555
H14 O2 0.990855 1_555
H15 O3 0.990855 1_555
H16 O0 0.992794 1_555
H17 O1 0.992794 1_555
H18 O2 0.992794 1_555
H19 O3 0.992794 1_555
H20 O4 0.986996 1_555
H21 O5 0.986996 1_555
H22 O6 0.986996 1_555
H23 O7 0.986996 1_555
H24 O4 0.989005 1_555
H25 O5 0.989005 1_555
H26 O6 0.989005 1_555
H27 O7 0.989005 1_555
C0 H32 1.083037 1_555
C0 H28 1.085937 1_555
C0 N0 1.447249 1_555
C1 H33 1.083037 1_555
C1 H29 1.085937 1_555
C1 N1 1.447249 1_555
C2 H34 1.083037 1_555
C2 H30 1.085937 1_555
C2 N2 1.447249 1_555
C3 H35 1.083037 1_555
C3 H31 1.085937 1_555
C3 N3 1.447249 1_555
Cl0 Mn0 2.491261 1_555
Cl1 Mn1 2.491261 1_555
Cl2 Mn2 2.491261 1_555
Cl3 Mn3 2.491261 1_555
Cl4 Mn0 2.533184 1_555
Cl5 Mn1 2.533184 1_455
Cl6 Mn2 2.533184 1_555
Cl7 Mn3 2.533184 1_655
Cl8 Mn1 2.534016 1_555
Cl8 Mn0 2.557966 1_545
Cl9 Mn0 2.534016 1_555
Cl9 Mn1 2.557966 1_465
Cl10 Mn3 2.534016 1_555
Cl10 Mn2 2.557966 1_565
Cl11 Mn2 2.534016 1_555
Cl11 Mn3 2.557966 1_645
