# generated using pymatgen
data_Cs3Bi2I9
_symmetry_space_group_name_H-M   'P 1'
_cell_length_a   8.54000754
_cell_length_b   8.53878530
_cell_length_c   21.63173124
_cell_angle_alpha   90.00215417
_cell_angle_beta   90.00852326
_cell_angle_gamma   119.99501896
_symmetry_Int_Tables_number   1
_chemical_formula_structural   Cs3Bi2I9
_chemical_formula_sum   'Cs6 Bi4 I18'
_cell_volume   1366.14892869
_cell_formula_units_Z   2
loop_
 _symmetry_equiv_pos_site_id
 _symmetry_equiv_pos_as_xyz
  1  'x, y, z'
loop_
 _atom_site_type_symbol
 _atom_site_label
 _atom_site_symmetry_multiplicity
 _atom_site_fract_x
 _atom_site_fract_y
 _atom_site_fract_z
 _atom_site_occupancy
  Cs  Cs0  1  0.33336378  0.66666600  0.42484317  1
  Cs  Cs1  1  0.66667158  0.33334398  0.57514729  1
  Cs  Cs2  1  0.33336550  0.66666109  0.07518772  1
  Cs  Cs3  1  0.00001694  0.00004492  0.25001349  1
  Cs  Cs4  1  0.66668091  0.33335717  0.92486967  1
  Cs  Cs5  1  0.00000579  0.00001269  0.75000081  1
  Bi  Bi0  1  0.33333645  0.66661574  0.84388440  1
  Bi  Bi1  1  0.66667793  0.33329866  0.15613997  1
  Bi  Bi2  1  0.33323020  0.66664826  0.65610486  1
  Bi  Bi3  1  0.66668686  0.33335715  0.34387800  1
  I  I0  1  0.16448595  0.83558374  0.58232479  1
  I  I1  1  0.83552705  0.67106199  0.08236803  1
  I  I2  1  0.83551306  0.16451734  0.41754268  1
  I  I3  1  0.49642953  0.99301029  0.24999215  1
  I  I4  1  0.83548791  0.16445259  0.08234330  1
  I  I5  1  0.16447767  0.32894573  0.91773503  1
  I  I6  1  0.00694501  0.50343044  0.25001547  1
  I  I7  1  0.99308991  0.49651258  0.74998591  1
  I  I8  1  0.67092562  0.83547804  0.58229237  1
  I  I9  1  0.49652577  0.50351064  0.24998539  1
  I  I10  1  0.67114766  0.83558109  0.91764212  1
  I  I11  1  0.83556437  0.67115355  0.41766002  1
  I  I12  1  0.16447628  0.32877204  0.58231959  1
  I  I13  1  0.50348373  0.00687099  0.74999196  1
  I  I14  1  0.32897742  0.16452359  0.41767983  1
  I  I15  1  0.32892760  0.16455497  0.08235203  1
  I  I16  1  0.50347828  0.49658004  0.75000554  1
  I  I17  1  0.16449924  0.83545469  0.91769440  1
loop_
_geom_bond_atom_site_label_1
_geom_bond_atom_site_label_2
_geom_bond_distance
_geom_bond_site_symmetry_2
Cs0 I8 4.222594 1_555
Cs0 I0 4.224484 1_555
Cs0 I12 4.224960 1_555
Cs0 I14 4.271888 1_555
Cs0 I11 4.272619 1_555
Cs0 I14 4.272766 1_565
Cs0 I2 4.273020 1_455
Cs0 I2 4.273095 1_565
Cs0 I11 4.273299 1_455
Cs0 I6 4.486354 1_555
Cs0 I9 4.486833 1_555
Cs0 I3 4.486954 1_555
Cs1 I14 4.223491 1_555
Cs1 I11 4.224780 1_555
Cs1 I2 4.226072 1_555
Cs1 I12 4.272210 1_555
Cs1 I8 4.272251 1_545
Cs1 I8 4.272359 1_555
Cs1 I0 4.272770 1_545
Cs1 I0 4.273164 1_655
Cs1 I12 4.273700 1_655
Cs1 I7 4.486551 1_555
Cs1 I16 4.487287 1_555
Cs1 I13 4.487350 1_555
Cs2 I5 4.223244 1_554
Cs2 I17 4.223836 1_554
Cs2 I10 4.226019 1_554
Cs2 I15 4.271374 1_555
Cs2 I4 4.272553 1_565
Cs2 I1 4.272602 1_555
Cs2 I15 4.273288 1_565
Cs2 I1 4.273301 1_455
Cs2 I4 4.273335 1_455
Cs2 I9 4.485449 1_555
Cs2 I3 4.485598 1_555
Cs2 I6 4.487149 1_555
Cs3 I6 4.269030 1_555
Cs3 I3 4.269713 1_545
Cs3 I9 4.270213 1_555
Cs3 I6 4.270370 1_545
Cs3 I9 4.270447 1_445
Cs3 I3 4.270928 1_445
Cs3 I2 4.364948 1_455
Cs3 I1 4.366678 1_445
Cs3 I11 4.366843 1_445
Cs3 I14 4.367025 1_555
Cs3 I4 4.367059 1_455
Cs3 I15 4.367514 1_555
Cs4 I4 4.223719 1_556
Cs4 I1 4.223995 1_556
Cs4 I15 4.224789 1_556
Cs4 I10 4.272308 1_555
Cs4 I10 4.272457 1_545
Cs4 I17 4.272621 1_655
Cs4 I5 4.272878 1_555
Cs4 I5 4.272955 1_655
Cs4 I17 4.273292 1_545
Cs4 I16 4.487117 1_555
Cs4 I13 4.487479 1_555
Cs4 I7 4.488125 1_555
Cs5 I7 4.269339 1_455
Cs5 I13 4.269880 1_455
Cs5 I7 4.270059 1_445
Cs5 I16 4.270147 1_445
Cs5 I16 4.270504 1_555
Cs5 I13 4.270730 1_555
Cs5 I12 4.366923 1_555
Cs5 I10 4.366936 1_445
Cs5 I0 4.367309 1_545
Cs5 I17 4.367952 1_545
Cs5 I5 4.368067 1_555
Cs5 I8 4.368275 1_445
Bi0 I17 2.964051 1_555
Bi0 I10 2.964247 1_555
Bi0 I5 2.964582 1_555
Bi0 I16 3.233143 1_555
Bi0 I7 3.233687 1_455
Bi0 I13 3.233885 1_565
Bi1 I4 2.963771 1_555
Bi1 I15 2.964219 1_555
Bi1 I1 2.964246 1_555
Bi1 I6 3.233493 1_655
Bi1 I3 3.233529 1_545
Bi1 I9 3.233763 1_555
Bi2 I0 2.963552 1_555
Bi2 I8 2.964683 1_555
Bi2 I12 2.964758 1_555
Bi2 I13 3.233217 1_565
Bi2 I7 3.233450 1_455
Bi2 I16 3.234035 1_555
Bi3 I2 2.962123 1_555
Bi3 I11 2.964222 1_555
Bi3 I14 2.964646 1_555
Bi3 I6 3.233877 1_655
Bi3 I3 3.233914 1_545
Bi3 I9 3.233916 1_555
