# generated using pymatgen
data_Cd3(BiO2)10
_symmetry_space_group_name_H-M   'P 1'
_cell_length_a   8.83868085
_cell_length_b   8.83868085
_cell_length_c   10.32987730
_cell_angle_alpha   54.83332771
_cell_angle_beta   54.83332771
_cell_angle_gamma   69.48323614
_symmetry_Int_Tables_number   1
_chemical_formula_structural   Cd3(BiO2)10
_chemical_formula_sum   'Cd3 Bi10 O20'
_cell_volume   539.08010047
_cell_formula_units_Z   1
loop_
 _symmetry_equiv_pos_site_id
 _symmetry_equiv_pos_as_xyz
  1  'x, y, z'
loop_
 _atom_site_type_symbol
 _atom_site_label
 _atom_site_symmetry_multiplicity
 _atom_site_fract_x
 _atom_site_fract_y
 _atom_site_fract_z
 _atom_site_occupancy
  Cd  Cd0  1  0.99969700  0.00030300  0.00000000  1
  Cd  Cd1  1  0.32055700  0.30715200  0.86894000  1
  Cd  Cd2  1  0.69284800  0.67944300  0.13106000  1
  Bi  Bi0  1  0.18082700  0.82633500  0.68134400  1
  Bi  Bi1  1  0.13310300  0.50121400  0.18948900  1
  Bi  Bi2  1  0.17366500  0.81917300  0.31865600  1
  Bi  Bi3  1  0.33926400  0.32947400  0.50088800  1
  Bi  Bi4  1  0.50260600  0.13492600  0.17612200  1
  Bi  Bi5  1  0.49878600  0.86689700  0.81051100  1
  Bi  Bi6  1  0.67052600  0.66073600  0.49911200  1
  Bi  Bi7  1  0.81435300  0.15762200  0.70282500  1
  Bi  Bi8  1  0.86507400  0.49739400  0.82387800  1
  Bi  Bi9  1  0.84237800  0.18564700  0.29717500  1
  O  O0  1  0.00208700  0.73439300  0.01037900  1
  O  O1  1  0.25597500  0.27420400  0.37579200  1
  O  O2  1  0.98252000  0.26267000  0.75541600  1
  O  O3  1  0.11725600  0.62669400  0.61269100  1
  O  O4  1  0.00182400  0.65007400  0.34947600  1
  O  O5  1  0.37330600  0.88274400  0.38730900  1
  O  O6  1  0.24797100  0.24175400  0.14028100  1
  O  O7  1  0.36703500  0.61324100  0.74240600  1
  O  O8  1  0.26560700  0.99791300  0.98962100  1
  O  O9  1  0.38675900  0.63296500  0.25759400  1
  O  O10  1  0.64462500  0.00145500  0.00430200  1
  O  O11  1  0.62313500  0.36584000  0.26575300  1
  O  O12  1  0.63416000  0.37686500  0.73424700  1
  O  O13  1  0.34992600  0.99817600  0.65052400  1
  O  O14  1  0.61906000  0.12484500  0.63769800  1
  O  O15  1  0.75824600  0.75202900  0.85971900  1
  O  O16  1  0.72579600  0.74402500  0.62420800  1
  O  O17  1  0.87515500  0.38094000  0.36230200  1
  O  O18  1  0.73733000  0.01748000  0.24458400  1
  O  O19  1  0.99854500  0.35537500  0.99569800  1
loop_
_geom_bond_atom_site_label_1
_geom_bond_atom_site_label_2
_geom_bond_distance
_geom_bond_site_symmetry_2
Cd0 O8 2.283279 1_644
Cd0 O0 2.283279 1_645
Cd0 O18 2.286938 1_555
Cd0 O2 2.286938 1_554
Cd1 O6 2.219075 1_556
Cd1 O7 2.298620 1_555
Cd1 O19 2.344453 1_455
Cd1 O8 2.359833 1_545
Cd1 O12 2.401201 1_555
Cd2 O15 2.219075 1_554
Cd2 O9 2.298620 1_555
Cd2 O10 2.344453 1_565
Cd2 O0 2.359833 1_655
Cd2 O11 2.401201 1_555
Bi0 O7 2.075699 1_555
Bi0 O13 2.264562 1_555
Bi0 O5 2.294818 1_555
Bi0 O0 2.498310 1_556
Bi0 O3 2.554960 1_555
Bi1 O17 2.083151 1_455
Bi1 O4 2.243752 1_555
Bi1 O1 2.311080 1_555
Bi1 O0 2.326891 1_555
Bi1 O6 2.380036 1_555
Bi2 O9 2.075699 1_555
Bi2 O4 2.264562 1_555
Bi2 O3 2.294818 1_555
Bi2 O8 2.498310 1_554
Bi2 O5 2.554960 1_555
Bi3 O1 2.127321 1_555
Bi3 O11 2.223551 1_555
Bi3 O9 2.344427 1_555
Bi3 O13 2.394417 1_545
Bi3 O2 2.677842 1_455
Bi4 O5 2.084681 1_545
Bi4 O10 2.219257 1_555
Bi4 O6 2.271901 1_555
Bi4 O18 2.284015 1_555
Bi4 O1 2.527076 1_555
Bi5 O14 2.083151 1_565
Bi5 O13 2.243752 1_555
Bi5 O16 2.311080 1_555
Bi5 O8 2.326891 1_555
Bi5 O15 2.380036 1_555
Bi6 O16 2.127321 1_555
Bi6 O12 2.223551 1_555
Bi6 O7 2.344427 1_555
Bi6 O4 2.394417 1_655
Bi6 O18 2.677842 1_565
Bi7 O12 2.088721 1_555
Bi7 O10 2.229896 1_556
Bi7 O14 2.329973 1_555
Bi7 O2 2.417663 1_555
Bi7 O17 2.669502 1_555
Bi8 O3 2.084681 1_655
Bi8 O19 2.219257 1_555
Bi8 O15 2.271901 1_555
Bi8 O2 2.284015 1_555
Bi8 O16 2.527076 1_555
Bi9 O11 2.088721 1_555
Bi9 O19 2.229896 1_554
Bi9 O17 2.329973 1_555
Bi9 O18 2.417663 1_555
Bi9 O14 2.669502 1_555
