# generated using pymatgen
data_KNa3Al4(SiO4)4
_symmetry_space_group_name_H-M   'P 1'
_cell_length_a   8.51299700
_cell_length_b   10.08975816
_cell_length_c   10.12672719
_cell_angle_alpha   61.02779427
_cell_angle_beta   89.63138675
_cell_angle_gamma   89.75644378
_symmetry_Int_Tables_number   1
_chemical_formula_structural   KNa3Al4(SiO4)4
_chemical_formula_sum   'K2 Na6 Al8 Si8 O32'
_cell_volume   760.95498558
_cell_formula_units_Z   2
loop_
 _symmetry_equiv_pos_site_id
 _symmetry_equiv_pos_as_xyz
  1  'x, y, z'
loop_
 _atom_site_type_symbol
 _atom_site_label
 _atom_site_symmetry_multiplicity
 _atom_site_fract_x
 _atom_site_fract_y
 _atom_site_fract_z
 _atom_site_occupancy
  K  K0  1  0.01935000  0.00634400  0.00955000  1
  K  K1  1  0.51773700  0.00994800  0.99763400  1
  Na  Na0  1  0.51609700  0.55941400  0.97457100  1
  Na  Na1  1  0.51171300  0.43971800  0.56328900  1
  Na  Na2  1  0.50258500  0.99156700  0.43785900  1
  Na  Na3  1  0.01836200  0.99907800  0.54690700  1
  Na  Na4  1  0.99914100  0.56205300  0.45298500  1
  Na  Na5  1  0.01311700  0.44235000  0.00381500  1
  Al  Al0  1  0.31944400  0.23682700  0.09709100  1
  Al  Al1  1  0.81898700  0.34337300  0.33579600  1
  Al  Al2  1  0.81207600  0.90378800  0.33564600  1
  Al  Al3  1  0.19948500  0.89832500  0.33716500  1
  Al  Al4  1  0.32281600  0.09969100  0.66444300  1
  Al  Al5  1  0.31529500  0.66121000  0.66764900  1
  Al  Al6  1  0.81865000  0.76386300  0.90176600  1
  Al  Al7  1  0.82554700  0.32886000  0.76114200  1
  Si  Si0  1  0.32129800  0.66215400  0.23957300  1
  Si  Si1  1  0.68249500  0.66763500  0.23288700  1
  Si  Si2  1  0.69818500  0.24046200  0.10004500  1
  Si  Si3  1  0.19767700  0.34137500  0.33671600  1
  Si  Si4  1  0.69900500  0.09994200  0.65770600  1
  Si  Si5  1  0.70284500  0.65654400  0.66553700  1
  Si  Si6  1  0.19642800  0.76003900  0.90825700  1
  Si  Si7  1  0.19326900  0.33448400  0.76003200  1
  O  O0  1  0.30928600  0.71892500  0.05755900  1
  O  O1  1  0.68735300  0.71244900  0.05477500  1
  O  O2  1  0.50012900  0.70439000  0.26878400  1
  O  O3  1  0.51722100  0.29956100  0.04748100  1
  O  O4  1  0.78070700  0.34267300  0.16598200  1
  O  O5  1  0.23475900  0.33777400  0.18131100  1
  O  O6  1  0.71192800  0.48818900  0.34688700  1
  O  O7  1  0.30858700  0.47620300  0.34060900  1
  O  O8  1  0.01665700  0.39200300  0.33917100  1
  O  O9  1  0.68980200  0.05997100  0.22326500  1
  O  O10  1  0.31874200  0.04082100  0.20188000  1
  O  O11  1  0.23765200  0.17889300  0.48402700  1
  O  O12  1  0.77956200  0.16432500  0.49070400  1
  O  O13  1  0.00515200  0.95725900  0.33178500  1
  O  O14  1  0.69022800  0.23060500  0.70975300  1
  O  O15  1  0.80268900  0.77384500  0.26424100  1
  O  O16  1  0.32624600  0.23293600  0.73002700  1
  O  O17  1  0.19264900  0.74638000  0.29038800  1
  O  O18  1  0.51797700  0.04544200  0.65405100  1
  O  O19  1  0.27482400  0.83846600  0.51769500  1
  O  O20  1  0.73170300  0.82311700  0.51938600  1
  O  O21  1  0.80704200  0.95908400  0.77900400  1
  O  O22  1  0.21140600  0.94121700  0.79216900  1
  O  O23  1  0.51643700  0.61363300  0.68538900  1
  O  O24  1  0.79538600  0.52486700  0.64423200  1
  O  O25  1  0.22484100  0.51471000  0.64652800  1
  O  O26  1  0.76317700  0.65267900  0.82080200  1
  O  O27  1  0.26179100  0.65258300  0.84182700  1
  O  O28  1  0.01449900  0.71811800  0.96448500  1
  O  O29  1  0.01847700  0.29163100  0.72544600  1
  O  O30  1  0.19913200  0.29469600  0.93669000  1
  O  O31  1  0.80595500  0.26351500  0.95559900  1
loop_
_geom_bond_atom_site_label_1
_geom_bond_atom_site_label_2
_geom_bond_distance
_geom_bond_site_symmetry_2
K0 O29 2.922376 1_554
K0 O31 2.988462 1_454
K0 O30 3.048788 1_554
K0 O22 3.049072 1_544
K0 O13 3.055824 1_545
K0 O15 3.109873 1_445
K0 O17 3.152624 1_545
K0 O28 3.155023 1_544
K0 O21 3.175662 1_444
K0 O10 3.337396 1_555
K1 O10 2.796330 1_556
K1 O9 2.964406 1_556
K1 O2 2.977356 1_546
K1 O16 3.030241 1_555
K1 O14 3.049064 1_555
K1 O1 3.117880 1_546
K1 O3 3.197263 1_556
K1 O0 3.231657 1_546
K1 O18 3.320701 1_555
Na0 O3 2.354542 1_556
Na0 O27 2.484651 1_555
Na0 O26 2.507924 1_555
Na0 O1 2.533511 1_556
Na0 O23 2.706122 1_555
Na0 O0 2.768278 1_556
Na1 O14 2.435387 1_555
Na1 O16 2.505545 1_555
Na1 O23 2.590919 1_555
Na1 O6 2.620579 1_555
Na1 O7 2.729717 1_555
Na1 O25 2.796929 1_555
Na1 O24 2.822607 1_555
Na1 O2 2.884723 1_555
Na2 O19 2.365320 1_555
Na2 O20 2.451092 1_555
Na2 O9 2.500153 1_565
Na2 O18 2.502594 1_565
Na2 O10 2.701485 1_565
Na3 O13 2.414645 1_555
Na3 O11 2.465039 1_565
Na3 O12 2.510635 1_465
Na3 O22 2.801778 1_555
Na3 O19 2.811815 1_555
Na3 O21 2.820701 1_455
Na4 O17 2.430696 1_655
Na4 O24 2.481668 1_555
Na4 O8 2.491157 1_655
Na4 O25 2.625830 1_655
Na4 O15 2.659047 1_555
Na4 O29 2.791676 1_655
Na4 O6 2.917718 1_555
Na5 O4 2.449065 1_455
Na5 O5 2.468541 1_555
Na5 O30 2.477162 1_554
Na5 O28 2.612915 1_554
Na5 O31 2.737902 1_454
Na5 O27 2.880014 1_554
Na5 O26 2.944111 1_454
Al0 O10 1.733252 1_555
Al0 O5 1.764064 1_555
Al0 O30 1.768029 1_554
Al0 O3 1.782671 1_555
Al1 O4 1.755697 1_555
Al1 O12 1.757854 1_555
Al1 O8 1.760006 1_655
Al1 O6 1.767649 1_555
Al2 O13 1.726406 1_655
Al2 O20 1.764641 1_555
Al2 O9 1.768015 1_565
Al2 O15 1.779972 1_555
Al3 O13 1.747816 1_555
Al3 O19 1.749421 1_555
Al3 O10 1.749579 1_565
Al3 O17 1.811847 1_555
Al4 O11 1.760663 1_555
Al4 O16 1.764930 1_555
Al4 O18 1.765437 1_555
Al4 O22 1.767127 1_545
Al5 O19 1.730242 1_555
Al5 O23 1.763003 1_555
Al5 O25 1.772486 1_555
Al5 O27 1.779741 1_555
Al6 O26 1.747647 1_555
Al6 O21 1.750078 1_555
Al6 O28 1.766149 1_655
Al6 O1 1.767276 1_556
Al7 O31 1.754776 1_555
Al7 O29 1.757256 1_655
Al7 O14 1.760082 1_555
Al7 O24 1.763537 1_555
O0 Si0 1.647748 1_555
O0 Si6 1.669970 1_554
O1 Si1 1.633576 1_555
O2 Si0 1.649305 1_555
O2 Si1 1.672817 1_555
O3 Si2 1.645430 1_555
O4 Si2 1.637752 1_555
O5 Si3 1.620663 1_555
O6 Si1 1.627458 1_555
O7 Si0 1.649028 1_555
O7 Si3 1.675416 1_555
O8 Si3 1.625247 1_555
O9 Si2 1.636183 1_555
O11 Si3 1.631378 1_555
O12 Si4 1.636141 1_555
O14 Si4 1.641117 1_555
O15 Si1 1.624595 1_555
O16 Si7 1.646492 1_555
O17 Si0 1.610876 1_555
O18 Si4 1.645104 1_555
O20 Si5 1.632357 1_555
O21 Si4 1.639142 1_565
O22 Si6 1.630382 1_555
O23 Si5 1.632025 1_555
O24 Si5 1.642843 1_555
O25 Si7 1.635673 1_555
O26 Si5 1.639616 1_555
O27 Si6 1.623057 1_555
O28 Si6 1.631775 1_555
O29 Si7 1.637882 1_555
O30 Si7 1.633794 1_555
O31 Si2 1.640252 1_556
