# generated using pymatgen
data_Bi9Ir2I3
_symmetry_space_group_name_H-M   'P 1'
_cell_length_a   9.91315777
_cell_length_b   14.09327479
_cell_length_c   27.63633600
_cell_angle_alpha   90.00000000
_cell_angle_beta   90.00000000
_cell_angle_gamma   90.00000000
_symmetry_Int_Tables_number   1
_chemical_formula_structural   Bi9Ir2I3
_chemical_formula_sum   'Bi72 Ir16 I24'
_cell_volume   3861.04090011
_cell_formula_units_Z   8
loop_
 _symmetry_equiv_pos_site_id
 _symmetry_equiv_pos_as_xyz
  1  'x, y, z'
loop_
 _atom_site_type_symbol
 _atom_site_label
 _atom_site_symmetry_multiplicity
 _atom_site_fract_x
 _atom_site_fract_y
 _atom_site_fract_z
 _atom_site_occupancy
  Bi  Bi0  1  0.24416776  0.96321078  0.95727005  1
  Bi  Bi1  1  0.98651074  0.47156223  0.41701539  1
  Bi  Bi2  1  0.51184991  0.25000000  0.08409372  1
  Bi  Bi3  1  0.64274979  0.96571338  0.21097098  1
  Bi  Bi4  1  0.12954056  0.25000000  0.82878381  1
  Bi  Bi5  1  0.89927724  0.63554494  0.32251071  1
  Bi  Bi6  1  0.37045944  0.25000000  0.32878381  1
  Bi  Bi7  1  0.98940903  0.63597837  0.07913055  1
  Bi  Bi8  1  0.90708208  0.03139117  0.16646876  1
  Bi  Bi9  1  0.32866679  0.75000000  0.79039045  1
  Bi  Bi10  1  0.51348926  0.02843777  0.91701539  1
  Bi  Bi11  1  0.01184991  0.75000000  0.41590628  1
  Bi  Bi12  1  0.27908561  0.25000000  0.95513033  1
  Bi  Bi13  1  0.16434577  0.75000000  0.89285837  1
  Bi  Bi14  1  0.25583224  0.96321078  0.45727005  1
  Bi  Bi15  1  0.64274979  0.53428662  0.21097098  1
  Bi  Bi16  1  0.51348926  0.47156223  0.91701539  1
  Bi  Bi17  1  0.77908561  0.75000000  0.54486967  1
  Bi  Bi18  1  0.01059097  0.13597837  0.92086945  1
  Bi  Bi19  1  0.82866679  0.25000000  0.70960955  1
  Bi  Bi20  1  0.54925339  0.75000000  0.14706483  1
  Bi  Bi21  1  0.98815009  0.25000000  0.58409372  1
  Bi  Bi22  1  0.39927724  0.36445506  0.17748929  1
  Bi  Bi23  1  0.59291792  0.03139117  0.66646876  1
  Bi  Bi24  1  0.66434577  0.25000000  0.60714163  1
  Bi  Bi25  1  0.10072276  0.13554494  0.67748929  1
  Bi  Bi26  1  0.48651074  0.52843777  0.08298461  1
  Bi  Bi27  1  0.83565423  0.25000000  0.10714163  1
  Bi  Bi28  1  0.59291792  0.46860883  0.66646876  1
  Bi  Bi29  1  0.01348926  0.97156223  0.58298461  1
  Bi  Bi30  1  0.25583224  0.53678922  0.45727005  1
  Bi  Bi31  1  0.85725021  0.96571338  0.71097098  1
  Bi  Bi32  1  0.98940903  0.86402163  0.07913055  1
  Bi  Bi33  1  0.35725021  0.03428662  0.78902902  1
  Bi  Bi34  1  0.48940903  0.36402163  0.42086945  1
  Bi  Bi35  1  0.24416776  0.53678922  0.95727005  1
  Bi  Bi36  1  0.14274979  0.46571338  0.28902902  1
  Bi  Bi37  1  0.33565423  0.75000000  0.39285837  1
  Bi  Bi38  1  0.35725021  0.46571338  0.78902902  1
  Bi  Bi39  1  0.22091439  0.25000000  0.45513033  1
  Bi  Bi40  1  0.87045944  0.75000000  0.17121619  1
  Bi  Bi41  1  0.40708208  0.96860883  0.33353124  1
  Bi  Bi42  1  0.04925339  0.25000000  0.35293517  1
  Bi  Bi43  1  0.40708208  0.53139117  0.33353124  1
  Bi  Bi44  1  0.74416776  0.03678922  0.54272995  1
  Bi  Bi45  1  0.51059097  0.86402163  0.57913055  1
  Bi  Bi46  1  0.10072276  0.36445506  0.67748929  1
  Bi  Bi47  1  0.95074661  0.75000000  0.64706483  1
  Bi  Bi48  1  0.48651074  0.97156223  0.08298461  1
  Bi  Bi49  1  0.72091439  0.75000000  0.04486967  1
  Bi  Bi50  1  0.74416776  0.46321078  0.54272995  1
  Bi  Bi51  1  0.14274979  0.03428662  0.28902902  1
  Bi  Bi52  1  0.67133321  0.25000000  0.20960955  1
  Bi  Bi53  1  0.01348926  0.52843777  0.58298461  1
  Bi  Bi54  1  0.17133321  0.75000000  0.29039045  1
  Bi  Bi55  1  0.98651074  0.02843777  0.41701539  1
  Bi  Bi56  1  0.01059097  0.36402163  0.92086945  1
  Bi  Bi57  1  0.09291792  0.96860883  0.83353124  1
  Bi  Bi58  1  0.75583224  0.46321078  0.04272995  1
  Bi  Bi59  1  0.75583224  0.03678922  0.04272995  1
  Bi  Bi60  1  0.85725021  0.53428662  0.71097098  1
  Bi  Bi61  1  0.48940903  0.13597837  0.42086945  1
  Bi  Bi62  1  0.90708208  0.46860883  0.16646876  1
  Bi  Bi63  1  0.60072276  0.63554494  0.82251071  1
  Bi  Bi64  1  0.09291792  0.53139117  0.83353124  1
  Bi  Bi65  1  0.60072276  0.86445506  0.82251071  1
  Bi  Bi66  1  0.48815009  0.75000000  0.91590628  1
  Bi  Bi67  1  0.39927724  0.13554494  0.17748929  1
  Bi  Bi68  1  0.51059097  0.63597837  0.57913055  1
  Bi  Bi69  1  0.62954056  0.75000000  0.67121619  1
  Bi  Bi70  1  0.89927724  0.86445506  0.32251071  1
  Bi  Bi71  1  0.45074661  0.25000000  0.85293517  1
  Ir  Ir0  1  0.65381930  0.39924950  0.13510169  1
  Ir  Ir1  1  0.26829177  0.10075054  0.88136383  1
  Ir  Ir2  1  0.26829177  0.39924946  0.88136383  1
  Ir  Ir3  1  0.23170823  0.39924946  0.38136383  1
  Ir  Ir4  1  0.73170823  0.60075054  0.11863617  1
  Ir  Ir5  1  0.15381930  0.60075050  0.36489831  1
  Ir  Ir6  1  0.84618070  0.39924950  0.63510169  1
  Ir  Ir7  1  0.23170823  0.10075054  0.38136383  1
  Ir  Ir8  1  0.84618070  0.10075050  0.63510169  1
  Ir  Ir9  1  0.15381930  0.89924950  0.36489831  1
  Ir  Ir10  1  0.73170823  0.89924946  0.11863617  1
  Ir  Ir11  1  0.76829177  0.60075054  0.61863617  1
  Ir  Ir12  1  0.65381930  0.10075050  0.13510169  1
  Ir  Ir13  1  0.34618070  0.89924950  0.86489831  1
  Ir  Ir14  1  0.34618070  0.60075050  0.86489831  1
  Ir  Ir15  1  0.76829177  0.89924946  0.61863617  1
  I  I0  1  0.33857690  0.39700192  0.56312758  1
  I  I1  1  0.77334408  0.39735623  0.82189223  1
  I  I2  1  0.54514151  0.75000000  0.28024241  1
  I  I3  1  0.67019284  0.25000000  0.96867958  1
  I  I4  1  0.17019284  0.75000000  0.53132042  1
  I  I5  1  0.83857690  0.60299808  0.93687242  1
  I  I6  1  0.82980716  0.25000000  0.46867958  1
  I  I7  1  0.04514151  0.25000000  0.21975759  1
  I  I8  1  0.33857690  0.10299808  0.56312758  1
  I  I9  1  0.77334408  0.10264377  0.82189223  1
  I  I10  1  0.16142310  0.10299808  0.06312758  1
  I  I11  1  0.72665592  0.39735623  0.32189223  1
  I  I12  1  0.66142310  0.89700192  0.43687242  1
  I  I13  1  0.16142310  0.39700192  0.06312758  1
  I  I14  1  0.32980716  0.75000000  0.03132042  1
  I  I15  1  0.83857690  0.89700192  0.93687242  1
  I  I16  1  0.27334408  0.89735623  0.67810777  1
  I  I17  1  0.22665592  0.60264377  0.17810777  1
  I  I18  1  0.72665592  0.10264377  0.32189223  1
  I  I19  1  0.45485849  0.25000000  0.71975759  1
  I  I20  1  0.66142310  0.60299808  0.43687242  1
  I  I21  1  0.95485849  0.75000000  0.78024241  1
  I  I22  1  0.22665592  0.89735623  0.17810777  1
  I  I23  1  0.27334408  0.60264377  0.67810777  1
loop_
_geom_bond_atom_site_label_1
_geom_bond_atom_site_label_2
_geom_bond_distance
_geom_bond_site_symmetry_2
Bi0 Ir1 2.866211 1_565
Bi0 Ir13 2.890001 1_555
Bi0 I10 3.621133 1_566
Bi1 Ir3 2.813823 1_655
Bi1 Ir5 2.853111 1_655
Bi2 Ir0 2.896931 1_555
Bi2 Ir12 2.896931 1_555
Bi2 Bi67 3.241821 1_555
Bi2 Bi22 3.241821 1_555
Bi2 Bi27 3.272511 1_555
Bi2 I3 3.554939 1_554
Bi3 Ir12 2.833769 1_565
Bi3 Ir10 2.857750 1_555
Bi4 Ir1 2.903068 1_555
Bi4 Ir2 2.903068 1_555
Bi5 Ir5 2.824863 1_655
Bi6 Ir3 2.903068 1_555
Bi6 Ir7 2.903068 1_555
Bi7 Ir4 2.822166 1_555
Bi8 Ir12 2.830239 1_555
Bi8 Ir10 2.870205 1_545
Bi9 Ir13 2.948642 1_555
Bi9 Ir14 2.948642 1_555
Bi10 Ir1 2.813823 1_555
Bi10 Ir13 2.853111 1_545
Bi11 Ir5 2.896931 1_555
Bi11 Ir9 2.896931 1_555
Bi11 Bi70 3.241821 1_455
Bi11 Bi5 3.241821 1_455
Bi11 Bi37 3.272511 1_555
Bi11 I4 3.554939 1_555
Bi12 Ir2 2.931183 1_555
Bi12 Ir1 2.931183 1_555
Bi13 Ir13 2.875875 1_555
Bi13 Ir14 2.875875 1_555
Bi13 Bi66 3.272511 1_555
Bi14 Ir7 2.866211 1_565
Bi14 Ir9 2.890001 1_555
Bi14 I8 3.621133 1_565
Bi15 Ir0 2.833769 1_555
Bi15 Ir4 2.857750 1_555
Bi16 Ir2 2.813823 1_555
Bi16 Ir14 2.853111 1_555
Bi17 Ir11 2.931183 1_555
Bi17 Ir15 2.931183 1_555
Bi18 Ir1 2.822166 1_555
Bi19 Ir6 2.948642 1_555
Bi19 Ir8 2.948642 1_555
Bi20 Ir4 2.883232 1_555
Bi20 Ir10 2.883232 1_555
Bi21 Ir8 2.896931 1_555
Bi21 Ir6 2.896931 1_555
Bi21 Bi46 3.241821 1_655
Bi21 Bi25 3.241821 1_655
Bi21 Bi24 3.272511 1_555
Bi21 I6 3.554939 1_555
Bi22 Ir0 2.824863 1_555
Bi23 Ir8 2.830239 1_555
Bi23 Ir15 2.870205 1_545
Bi24 Ir8 2.875875 1_555
Bi24 Ir6 2.875875 1_555
Bi25 Ir8 2.824863 1_455
Bi26 Ir4 2.813823 1_555
Bi26 Ir0 2.853111 1_555
Bi27 Ir0 2.875875 1_555
Bi27 Ir12 2.875875 1_555
Bi28 Ir6 2.830239 1_555
Bi28 Ir11 2.870205 1_555
Bi29 Ir15 2.813823 1_455
Bi29 Ir8 2.853111 1_465
Bi30 Ir3 2.866211 1_555
Bi30 Ir5 2.890001 1_555
Bi30 I0 3.621133 1_555
Bi31 Ir8 2.833769 1_565
Bi31 Ir15 2.857750 1_555
Bi32 Ir10 2.822166 1_555
Bi33 Ir13 2.833769 1_545
Bi33 Ir1 2.857750 1_555
Bi34 Ir3 2.822166 1_555
Bi35 Ir2 2.866211 1_555
Bi35 Ir14 2.890001 1_555
Bi35 I13 3.621133 1_556
Bi36 Ir5 2.833769 1_555
Bi36 Ir3 2.857750 1_555
Bi37 Ir5 2.875875 1_555
Bi37 Ir9 2.875875 1_555
Bi38 Ir14 2.833769 1_555
Bi38 Ir2 2.857750 1_555
Bi39 Ir3 2.931183 1_555
Bi39 Ir7 2.931183 1_555
Bi40 Ir10 2.903068 1_555
Bi40 Ir4 2.903068 1_555
Bi41 Ir9 2.830239 1_555
Bi41 Ir7 2.870205 1_565
Bi42 Ir3 2.883232 1_555
Bi42 Ir7 2.883232 1_555
Bi43 Ir5 2.830239 1_555
Bi43 Ir3 2.870205 1_555
Bi44 Ir15 2.866211 1_545
Bi44 Ir8 2.890001 1_555
Bi44 I12 3.621133 1_545
Bi45 Ir15 2.822166 1_555
Bi46 Ir6 2.824863 1_455
Bi47 Ir11 2.883232 1_555
Bi47 Ir15 2.883232 1_555
Bi48 Ir10 2.813823 1_555
Bi48 Ir12 2.853111 1_565
Bi49 Ir10 2.931183 1_555
Bi49 Ir4 2.931183 1_555
Bi50 Ir11 2.866211 1_555
Bi50 Ir6 2.890001 1_555
Bi50 I20 3.621133 1_555
Bi51 Ir9 2.833769 1_545
Bi51 Ir7 2.857750 1_555
Bi52 Ir12 2.948642 1_555
Bi52 Ir0 2.948642 1_555
Bi53 Ir11 2.813823 1_455
Bi53 Ir6 2.853111 1_455
Bi54 Ir9 2.948642 1_555
Bi54 Ir5 2.948642 1_555
Bi55 Ir7 2.813823 1_655
Bi55 Ir9 2.853111 1_645
Bi56 Ir2 2.822166 1_555
Bi57 Ir13 2.830239 1_555
Bi57 Ir1 2.870205 1_565
Bi58 Ir4 2.866211 1_555
Bi58 Ir0 2.890001 1_555
Bi58 I5 3.621133 1_554
Bi59 Ir10 2.866211 1_545
Bi59 Ir12 2.890001 1_555
Bi59 I15 3.621133 1_544
Bi60 Ir6 2.833769 1_555
Bi60 Ir11 2.857750 1_555
Bi61 Ir7 2.822166 1_555
Bi62 Ir0 2.830239 1_555
Bi62 Ir4 2.870205 1_555
Bi63 Ir14 2.824863 1_555
Bi63 Bi66 3.241821 1_555
Bi64 Ir14 2.830239 1_555
Bi64 Ir2 2.870205 1_555
Bi65 Ir13 2.824863 1_555
Bi65 Bi66 3.241821 1_555
Bi66 Ir14 2.896931 1_555
Bi66 Ir13 2.896931 1_555
Bi66 I14 3.554939 1_556
Bi67 Ir12 2.824863 1_555
Bi68 Ir11 2.822166 1_555
Bi69 Ir15 2.903068 1_555
Bi69 Ir11 2.903068 1_555
Bi70 Ir9 2.824863 1_655
Bi71 Ir1 2.883232 1_555
Bi71 Ir2 2.883232 1_555
