# generated using pymatgen
data_PNCl2
_symmetry_space_group_name_H-M   'P 1'
_cell_length_a   15.50838900
_cell_length_b   15.50838900
_cell_length_c   6.06702600
_cell_angle_alpha   90.00000000
_cell_angle_beta   90.00000000
_cell_angle_gamma   90.00000000
_symmetry_Int_Tables_number   1
_chemical_formula_structural   PNCl2
_chemical_formula_sum   'P16 N16 Cl32'
_cell_volume   1459.18120818
_cell_formula_units_Z   16
loop_
 _symmetry_equiv_pos_site_id
 _symmetry_equiv_pos_as_xyz
  1  'x, y, z'
loop_
 _atom_site_type_symbol
 _atom_site_label
 _atom_site_symmetry_multiplicity
 _atom_site_fract_x
 _atom_site_fract_y
 _atom_site_fract_z
 _atom_site_occupancy
  P  P0  1  0.81251800  0.85866200  0.60695700  1
  P  P1  1  0.86177700  0.68504100  0.73576000  1
  P  P2  1  0.35866200  0.68748200  0.10695700  1
  P  P3  1  0.18504100  0.63822300  0.23576000  1
  P  P4  1  0.13822300  0.31495900  0.73576000  1
  P  P5  1  0.31495900  0.86177700  0.26424000  1
  P  P6  1  0.18748200  0.14133800  0.60695700  1
  P  P7  1  0.81495900  0.36177700  0.23576000  1
  P  P8  1  0.63822300  0.81495900  0.76424000  1
  P  P9  1  0.14133800  0.81251800  0.39304300  1
  P  P10  1  0.85866200  0.18748200  0.39304300  1
  P  P11  1  0.68748200  0.64133800  0.89304300  1
  P  P12  1  0.64133800  0.31251800  0.10695700  1
  P  P13  1  0.68504100  0.13822300  0.26424000  1
  P  P14  1  0.36177700  0.18504100  0.76424000  1
  P  P15  1  0.31251800  0.35866200  0.89304300  1
  N  N0  1  0.27045900  0.63697600  0.09213900  1
  N  N1  1  0.86302400  0.77045900  0.59213900  1
  N  N2  1  0.72490700  0.86720300  0.73917000  1
  N  N3  1  0.13697600  0.22954100  0.59213900  1
  N  N4  1  0.77509300  0.63279700  0.76083000  1
  N  N5  1  0.22490700  0.36720300  0.76083000  1
  N  N6  1  0.63279700  0.22490700  0.23917000  1
  N  N7  1  0.36720300  0.77509300  0.23917000  1
  N  N8  1  0.13279700  0.72490700  0.26083000  1
  N  N9  1  0.86720300  0.27509300  0.26083000  1
  N  N10  1  0.77045900  0.13697600  0.40786100  1
  N  N11  1  0.36302400  0.27045900  0.90786100  1
  N  N12  1  0.63697600  0.72954100  0.90786100  1
  N  N13  1  0.72954100  0.36302400  0.09213900  1
  N  N14  1  0.22954100  0.86302400  0.40786100  1
  N  N15  1  0.27509300  0.13279700  0.73917000  1
  Cl  Cl0  1  0.05024600  0.89065200  0.26212000  1
  Cl  Cl1  1  0.60934800  0.55024600  0.76212000  1
  Cl  Cl2  1  0.55358700  0.89483000  0.91049500  1
  Cl  Cl3  1  0.91539400  0.70687800  0.03577900  1
  Cl  Cl4  1  0.94975400  0.10934800  0.26212000  1
  Cl  Cl5  1  0.05358700  0.39483000  0.58950500  1
  Cl  Cl6  1  0.70687800  0.08460600  0.96422100  1
  Cl  Cl7  1  0.39483000  0.94641300  0.41049500  1
  Cl  Cl8  1  0.10517000  0.55358700  0.08950500  1
  Cl  Cl9  1  0.44975400  0.60934800  0.23788000  1
  Cl  Cl10  1  0.70226800  0.60164900  0.20775500  1
  Cl  Cl11  1  0.89483000  0.44641300  0.08950500  1
  Cl  Cl12  1  0.20687800  0.58460600  0.53577900  1
  Cl  Cl13  1  0.94641300  0.60517000  0.58950500  1
  Cl  Cl14  1  0.29312200  0.91539400  0.96422100  1
  Cl  Cl15  1  0.55024600  0.39065200  0.23788000  1
  Cl  Cl16  1  0.41539400  0.20687800  0.46422100  1
  Cl  Cl17  1  0.10164900  0.79773200  0.70775500  1
  Cl  Cl18  1  0.08460600  0.29312200  0.03577900  1
  Cl  Cl19  1  0.29773200  0.39835100  0.20775500  1
  Cl  Cl20  1  0.79773200  0.89835100  0.29224500  1
  Cl  Cl21  1  0.44641300  0.10517000  0.91049500  1
  Cl  Cl22  1  0.39835100  0.70226800  0.79224500  1
  Cl  Cl23  1  0.89835100  0.20226800  0.70775500  1
  Cl  Cl24  1  0.10934800  0.05024600  0.73788000  1
  Cl  Cl25  1  0.39065200  0.44975400  0.76212000  1
  Cl  Cl26  1  0.20226800  0.10164900  0.29224500  1
  Cl  Cl27  1  0.58460600  0.79312200  0.46422100  1
  Cl  Cl28  1  0.60164900  0.29773200  0.79224500  1
  Cl  Cl29  1  0.89065200  0.94975400  0.73788000  1
  Cl  Cl30  1  0.60517000  0.05358700  0.41049500  1
  Cl  Cl31  1  0.79312200  0.41539400  0.53577900  1
loop_
_geom_bond_atom_site_label_1
_geom_bond_atom_site_label_2
_geom_bond_distance
_geom_bond_site_symmetry_2
N0 P2 1.578829 1_555
N0 P3 1.585701 1_555
N1 P0 1.578829 1_555
N1 P1 1.585701 1_555
N2 P8 1.576963 1_555
N2 P0 1.583368 1_555
N3 P6 1.578829 1_555
N3 P4 1.585701 1_555
N4 P1 1.576963 1_555
N4 P11 1.583368 1_555
N5 P4 1.576963 1_555
N5 P15 1.583368 1_555
N6 P13 1.576963 1_555
N6 P12 1.583368 1_555
N7 P5 1.576963 1_555
N7 P2 1.583368 1_555
N8 P3 1.576963 1_555
N8 P9 1.583368 1_555
N9 P7 1.576963 1_555
N9 P10 1.583368 1_555
N10 P10 1.578829 1_555
N10 P13 1.585701 1_555
N11 P15 1.578829 1_555
N11 P14 1.585701 1_555
N12 P11 1.578829 1_555
N12 P8 1.585701 1_555
N13 P12 1.578829 1_555
N13 P7 1.585701 1_555
N14 P9 1.578829 1_555
N14 P5 1.585701 1_555
N15 P14 1.576963 1_555
N15 P6 1.583368 1_555
Cl0 P9 2.023592 1_555
Cl1 P11 2.023592 1_555
Cl2 P8 2.011094 1_555
Cl3 P1 2.029610 1_554
Cl4 P10 2.023592 1_555
Cl5 P4 2.011094 1_555
Cl6 P13 2.029610 1_556
Cl7 P5 2.011094 1_555
Cl8 P3 2.011094 1_555
Cl9 P2 2.023592 1_555
Cl10 P11 2.019187 1_554
Cl11 P7 2.011094 1_555
Cl12 P3 2.029610 1_555
Cl13 P1 2.011094 1_555
Cl14 P5 2.029610 1_556
Cl15 P12 2.023592 1_555
Cl16 P14 2.029610 1_555
Cl17 P9 2.019187 1_555
Cl18 P4 2.029610 1_554
Cl19 P15 2.019187 1_554
Cl20 P0 2.019187 1_555
Cl21 P14 2.011094 1_555
Cl22 P2 2.019187 1_556
Cl23 P10 2.019187 1_555
Cl24 P6 2.023592 1_555
Cl25 P15 2.023592 1_555
Cl26 P6 2.019187 1_555
Cl27 P8 2.029610 1_555
Cl28 P12 2.019187 1_556
Cl29 P0 2.023592 1_555
Cl30 P13 2.011094 1_555
Cl31 P7 2.029610 1_555
