# generated using pymatgen
data_Yb2SmS4
_symmetry_space_group_name_H-M   'P 1'
_cell_length_a   7.30502192
_cell_length_b   7.30502192
_cell_length_c   7.30502192
_cell_angle_alpha   108.70325891
_cell_angle_beta   108.70325891
_cell_angle_gamma   111.01830953
_symmetry_Int_Tables_number   1
_chemical_formula_structural   Yb2SmS4
_chemical_formula_sum   'Yb4 Sm2 S8'
_cell_volume   299.91929504
_cell_formula_units_Z   2
loop_
 _symmetry_equiv_pos_site_id
 _symmetry_equiv_pos_as_xyz
  1  'x, y, z'
loop_
 _atom_site_type_symbol
 _atom_site_label
 _atom_site_symmetry_multiplicity
 _atom_site_fract_x
 _atom_site_fract_y
 _atom_site_fract_z
 _atom_site_occupancy
  Yb  Yb0  1  0.00008500  0.37500000  0.12508500  1
  Yb  Yb1  1  0.62500000  0.75008500  0.62508500  1
  Yb  Yb2  1  0.24991500  0.87500000  0.87491500  1
  Yb  Yb3  1  0.12500000  0.99991500  0.37491500  1
  Sm  Sm0  1  0.75000000  0.25000000  0.50000000  1
  Sm  Sm1  1  0.50000000  0.50000000  0.00000000  1
  S  S0  1  0.02861500  0.13554300  0.75633900  1
  S  S1  1  0.72772400  0.97138500  0.10692800  1
  S  S2  1  0.87079600  0.61445700  0.39307200  1
  S  S3  1  0.37920400  0.27227600  0.24366100  1
  S  S4  1  0.86445700  0.62079600  0.89307200  1
  S  S5  1  0.22138500  0.47772400  0.60692800  1
  S  S6  1  0.52227600  0.12920400  0.74366100  1
  S  S7  1  0.38554300  0.77861500  0.25633900  1
loop_
_geom_bond_atom_site_label_1
_geom_bond_atom_site_label_2
_geom_bond_distance
_geom_bond_site_symmetry_2
S0 Yb0 2.821156 1_556
S0 Yb1 2.835705 1_445
S0 Sm0 2.851059 1_455
S0 Sm1 2.927032 1_556
S0 Yb3 3.037932 1_545
S0 Yb2 3.058188 1_545
S1 Yb3 2.821156 1_655
S1 Yb0 2.835705 1_665
S1 Sm0 2.851059 1_565
S1 Sm1 2.927032 1_555
S1 Yb2 3.037932 1_554
S1 Yb1 3.058188 1_554
S2 Yb0 2.821156 1_655
S2 Yb3 2.835705 1_655
S2 Sm1 2.851059 1_555
S2 Sm0 2.927032 1_555
S2 Yb1 3.037932 1_555
S2 Yb2 3.058188 1_655
S3 Yb2 2.821156 1_544
S3 Yb3 2.835705 1_545
S3 Sm0 2.851059 1_555
S3 Sm1 2.927032 1_555
S3 Yb1 3.037932 1_555
S3 Yb0 3.058188 1_555
S4 Yb1 2.821156 1_555
S4 Yb2 2.835705 1_655
S4 Sm0 2.851059 1_555
S4 Sm1 2.927032 1_556
S4 Yb0 3.037932 1_656
S4 Yb3 3.058188 1_656
S5 Yb2 2.821156 1_555
S5 Yb1 2.835705 1_555
S5 Sm1 2.851059 1_556
S5 Sm0 2.927032 1_455
S5 Yb3 3.037932 1_545
S5 Yb0 3.058188 1_555
S6 Yb3 2.821156 1_545
S6 Yb2 2.835705 1_545
S6 Sm1 2.851059 1_556
S6 Sm0 2.927032 1_555
S6 Yb0 3.037932 1_656
S6 Yb1 3.058188 1_545
S7 Yb1 2.821156 1_555
S7 Yb0 2.835705 1_555
S7 Sm1 2.851059 1_555
S7 Sm0 2.927032 1_565
S7 Yb2 3.037932 1_554
S7 Yb3 3.058188 1_555
