# generated using pymatgen
data_TbH2Br
_symmetry_space_group_name_H-M   'P 1'
_cell_length_a   10.68032358
_cell_length_b   10.68032358
_cell_length_c   10.68032357
_cell_angle_alpha   20.33795246
_cell_angle_beta   20.33795246
_cell_angle_gamma   20.33795860
_symmetry_Int_Tables_number   1
_chemical_formula_structural   TbH2Br
_chemical_formula_sum   'Tb2 H4 Br2'
_cell_volume   128.78656671
_cell_formula_units_Z   2
loop_
 _symmetry_equiv_pos_site_id
 _symmetry_equiv_pos_as_xyz
  1  'x, y, z'
loop_
 _atom_site_type_symbol
 _atom_site_label
 _atom_site_symmetry_multiplicity
 _atom_site_fract_x
 _atom_site_fract_y
 _atom_site_fract_z
 _atom_site_occupancy
  Tb  Tb0  1  0.88467230  0.88467230  0.88467230  1
  Tb  Tb1  1  0.11532770  0.11532770  0.11532770  1
  H  H0  1  0.81376836  0.81376836  0.81376836  1
  H  H1  1  0.18623164  0.18623164  0.18623164  1
  H  H2  1  0.54523919  0.54523919  0.54523919  1
  H  H3  1  0.45476081  0.45476081  0.45476081  1
  Br  Br0  1  0.72012094  0.72012094  0.72012094  1
  Br  Br1  1  0.27987906  0.27987906  0.27987906  1
loop_
_geom_bond_atom_site_label_1
_geom_bond_atom_site_label_2
_geom_bond_distance
_geom_bond_site_symmetry_2
H0 Tb0 2.224121 1_555
H0 Tb1 2.394617 1_665
H0 Tb1 2.394618 1_656
H0 Tb1 2.394618 1_566
H1 Tb1 2.224121 1_555
H1 Tb0 2.394617 1_445
H1 Tb0 2.394618 1_454
H1 Tb0 2.394618 1_544
H2 Tb0 2.185729 1_554
H2 Tb0 2.185730 1_455
H2 Tb0 2.185730 1_545
H3 Tb1 2.185729 1_556
H3 Tb1 2.185730 1_565
H3 Tb1 2.185730 1_655
Br0 Tb1 2.916797 1_665
Br0 Tb1 2.916797 1_566
Br0 Tb1 2.916797 1_656
Br1 Tb0 2.916797 1_445
Br1 Tb0 2.916797 1_544
Br1 Tb0 2.916797 1_454
