# generated using pymatgen
data_K2Zn2(SO4)3
_symmetry_space_group_name_H-M   'P 1'
_cell_length_a   9.89983554
_cell_length_b   9.89983554
_cell_length_c   9.89983554
_cell_angle_alpha   90.00000000
_cell_angle_beta   90.00000000
_cell_angle_gamma   90.00000000
_symmetry_Int_Tables_number   1
_chemical_formula_structural   K2Zn2(SO4)3
_chemical_formula_sum   'K8 Zn8 S12 O48'
_cell_volume   970.25064463
_cell_formula_units_Z   4
loop_
 _symmetry_equiv_pos_site_id
 _symmetry_equiv_pos_as_xyz
  1  'x, y, z'
loop_
 _atom_site_type_symbol
 _atom_site_label
 _atom_site_symmetry_multiplicity
 _atom_site_fract_x
 _atom_site_fract_y
 _atom_site_fract_z
 _atom_site_occupancy
  K  K0  1  0.68472394  0.18472394  0.31527606  1
  K  K1  1  0.31527606  0.68472394  0.18472394  1
  K  K2  1  0.95009775  0.54990225  0.45009775  1
  K  K3  1  0.18472394  0.31527606  0.68472394  1
  K  K4  1  0.04990225  0.04990225  0.04990225  1
  K  K5  1  0.45009775  0.95009775  0.54990225  1
  K  K6  1  0.54990225  0.45009775  0.95009775  1
  K  K7  1  0.81527606  0.81527606  0.81527606  1
  Zn  Zn0  1  0.33439820  0.33439820  0.33439820  1
  Zn  Zn1  1  0.16560180  0.66560180  0.83439820  1
  Zn  Zn2  1  0.83439820  0.16560180  0.66560180  1
  Zn  Zn3  1  0.66560180  0.83439820  0.16560180  1
  Zn  Zn4  1  0.59200134  0.59200134  0.59200134  1
  Zn  Zn5  1  0.09200134  0.90799866  0.40799866  1
  Zn  Zn6  1  0.40799866  0.09200134  0.90799866  1
  Zn  Zn7  1  0.90799866  0.40799866  0.09200134  1
  S  S0  1  0.28123082  0.62336992  0.51849211  1
  S  S1  1  0.78123082  0.87663008  0.48150789  1
  S  S2  1  0.71876918  0.12336992  0.98150789  1
  S  S3  1  0.87663008  0.48150789  0.78123082  1
  S  S4  1  0.98150789  0.71876918  0.12336992  1
  S  S5  1  0.48150789  0.78123082  0.87663008  1
  S  S6  1  0.62336992  0.51849211  0.28123082  1
  S  S7  1  0.51849211  0.28123082  0.62336992  1
  S  S8  1  0.12336992  0.98150789  0.71876918  1
  S  S9  1  0.21876918  0.37663008  0.01849211  1
  S  S10  1  0.01849211  0.21876918  0.37663008  1
  S  S11  1  0.37663008  0.01849211  0.21876918  1
  O  O0  1  0.25544325  0.59617595  0.66145281  1
  O  O1  1  0.75544325  0.90382405  0.33854719  1
  O  O2  1  0.74455675  0.09617595  0.83854719  1
  O  O3  1  0.90382405  0.33854719  0.75544325  1
  O  O4  1  0.83854719  0.74455675  0.09617595  1
  O  O5  1  0.33854719  0.75544325  0.90382405  1
  O  O6  1  0.59617595  0.66145281  0.25544325  1
  O  O7  1  0.66145281  0.25544325  0.59617595  1
  O  O8  1  0.09617595  0.83854719  0.74455675  1
  O  O9  1  0.40382405  0.16145281  0.24455675  1
  O  O10  1  0.16145281  0.24455675  0.40382405  1
  O  O11  1  0.24455675  0.40382405  0.16145281  1
  O  O12  1  0.25700622  0.49730434  0.44245800  1
  O  O13  1  0.75700622  0.00269566  0.55754200  1
  O  O14  1  0.74299378  -0.00269566  0.05754200  1
  O  O15  1  0.00269566  0.55754200  0.75700622  1
  O  O16  1  0.05754200  0.74299378  -0.00269566  1
  O  O17  1  0.55754200  0.75700622  0.00269566  1
  O  O18  1  0.00071805  0.57800775  0.17055040  1
  O  O19  1  0.49730434  0.44245800  0.25700622  1
  O  O20  1  -0.00269566  0.05754200  0.74299378  1
  O  O21  1  0.50269566  0.94245800  0.24299378  1
  O  O22  1  0.94245800  0.24299378  0.50269566  1
  O  O23  1  0.24299378  0.50269566  0.94245800  1
  O  O24  1  0.42199225  0.67055040  0.49928195  1
  O  O25  1  0.92199225  0.82944960  0.50071805  1
  O  O26  1  0.57800775  0.17055040  0.00071805  1
  O  O27  1  0.82944960  0.50071805  0.92199225  1
  O  O28  1  0.31074662  0.27408985  0.96322792  1
  O  O29  1  0.96322792  0.31074662  0.27408985  1
  O  O30  1  0.27408985  0.96322792  0.31074662  1
  O  O31  1  0.22591015  0.03677208  0.81074662  1
  O  O32  1  0.46322792  0.18925338  0.72591015  1
  O  O33  1  0.72591015  0.46322792  0.18925338  1
  O  O34  1  0.53677208  0.68925338  0.77408985  1
  O  O35  1  0.03677208  0.81074662  0.22591015  1
  O  O36  1  0.77408985  0.53677208  0.68925338  1
  O  O37  1  0.81074662  0.22591015  0.03677208  1
  O  O38  1  0.68925338  0.77408985  0.53677208  1
  O  O39  1  0.18925338  0.72591015  0.46322792  1
  O  O40  1  0.07800775  0.32944960  -0.00071805  1
  O  O41  1  -0.00071805  0.07800775  0.32944960  1
  O  O42  1  0.32944960  -0.00071805  0.07800775  1
  O  O43  1  0.17055040  0.00071805  0.57800775  1
  O  O44  1  0.49928195  0.42199225  0.67055040  1
  O  O45  1  0.67055040  0.49928195  0.42199225  1
  O  O46  1  0.50071805  0.92199225  0.82944960  1
  O  O47  1  0.44245800  0.25700622  0.49730434  1
loop_
_geom_bond_atom_site_label_1
_geom_bond_atom_site_label_2
_geom_bond_distance
_geom_bond_site_symmetry_2
K0 O7 2.876878 1_555
K0 O1 2.876878 1_545
K0 O9 2.876878 1_555
K0 O37 3.053622 1_555
K0 O29 3.053622 1_555
K0 O33 3.053622 1_555
K0 O13 3.084110 1_555
K0 O47 3.084110 1_555
K0 O21 3.084110 1_545
K0 O22 3.207124 1_555
K0 O19 3.207124 1_555
K0 O14 3.207124 1_555
K0 O41 3.291393 1_655
K0 O26 3.291393 1_555
K0 O45 3.291393 1_555
K1 O6 2.876878 1_555
K1 O11 2.876878 1_555
K1 O5 2.876878 1_554
K1 O35 3.053622 1_555
K1 O30 3.053622 1_555
K1 O39 3.053622 1_555
K1 O17 3.084110 1_555
K1 O19 3.084110 1_555
K1 O23 3.084110 1_554
K1 O21 3.207124 1_555
K1 O12 3.207124 1_555
K1 O16 3.207124 1_555
K1 O42 3.291393 1_565
K1 O18 3.291393 1_555
K1 O24 3.291393 1_555
K2 O25 2.826209 1_555
K2 O18 2.826209 1_655
K2 O45 2.826209 1_555
K2 O39 2.942544 1_655
K2 O29 2.942544 1_555
K2 O36 2.942544 1_555
K2 O12 3.083568 1_655
K2 O15 3.083568 1_655
K2 O22 3.083568 1_555
K3 O0 2.876878 1_555
K3 O3 2.876878 1_455
K3 O10 2.876878 1_555
K3 O31 3.053622 1_555
K3 O28 3.053622 1_555
K3 O32 3.053622 1_555
K3 O15 3.084110 1_555
K3 O12 3.084110 1_555
K3 O22 3.084110 1_455
K3 O23 3.207124 1_555
K3 O47 3.207124 1_555
K3 O20 3.207124 1_555
K3 O40 3.291393 1_556
K3 O43 3.291393 1_555
K3 O44 3.291393 1_555
K4 O40 2.826209 1_555
K4 O42 2.826209 1_555
K4 O41 2.826209 1_555
K4 O31 2.942544 1_554
K4 O37 2.942544 1_455
K4 O35 2.942544 1_545
K4 O20 3.083568 1_554
K4 O16 3.083568 1_545
K4 O14 3.083568 1_455
K5 O46 2.826209 1_555
K5 O43 2.826209 1_565
K5 O24 2.826209 1_555
K5 O32 2.942544 1_565
K5 O30 2.942544 1_555
K5 O38 2.942544 1_555
K5 O47 3.083568 1_565
K5 O13 3.083568 1_565
K5 O21 3.083568 1_555
K6 O27 2.826209 1_555
K6 O26 2.826209 1_556
K6 O44 2.826209 1_555
K6 O33 2.942544 1_556
K6 O28 2.942544 1_555
K6 O34 2.942544 1_555
K6 O19 3.083568 1_556
K6 O17 3.083568 1_556
K6 O23 3.083568 1_555
K7 O4 2.876878 1_556
K7 O8 2.876878 1_655
K7 O2 2.876878 1_565
K7 O36 3.053622 1_555
K7 O34 3.053622 1_555
K7 O38 3.053622 1_555
K7 O20 3.084110 1_665
K7 O16 3.084110 1_656
K7 O14 3.084110 1_566
K7 O13 3.207124 1_565
K7 O15 3.207124 1_655
K7 O17 3.207124 1_556
K7 O27 3.291393 1_555
K7 O46 3.291393 1_555
K7 O25 3.291393 1_555
O0 S0 1.463110 1_555
O0 Zn1 2.048131 1_555
O1 S1 1.463110 1_555
O1 Zn3 2.048131 1_555
O2 S2 1.463110 1_555
O2 Zn2 2.048131 1_555
O3 S3 1.463110 1_555
O3 Zn2 2.048131 1_555
O4 S4 1.463110 1_555
O4 Zn3 2.048131 1_555
O5 S5 1.463110 1_555
O5 Zn1 2.048131 1_555
O6 S6 1.463110 1_555
O6 Zn3 2.048131 1_555
O7 S7 1.463110 1_555
O7 Zn2 2.048131 1_555
O8 S8 1.463110 1_555
O8 Zn1 2.048131 1_555
O9 S11 1.463110 1_555
O9 Zn0 2.048131 1_555
O10 S10 1.463110 1_555
O10 Zn0 2.048131 1_555
O11 S9 1.463110 1_555
O11 Zn0 2.048131 1_555
O12 S0 1.477052 1_555
O12 Zn0 2.081435 1_555
O13 S1 1.477052 1_545
O13 Zn2 2.081435 1_555
O14 S2 1.477052 1_554
O14 Zn3 2.081435 1_545
O15 S3 1.477052 1_455
O15 Zn1 2.081435 1_555
O16 S4 1.477052 1_455
O16 Zn1 2.081435 1_554
O17 S5 1.477052 1_554
O17 Zn3 2.081435 1_555
O18 S4 1.481963 1_455
O18 Zn7 2.068803 1_455
O19 S6 1.477052 1_555
O19 Zn0 2.081435 1_555
O20 S8 1.477052 1_545
O20 Zn2 2.081435 1_455
O21 S11 1.477052 1_565
O21 Zn3 2.081435 1_555
O22 S10 1.477052 1_655
O22 Zn2 2.081435 1_555
O23 S9 1.477052 1_556
O23 Zn1 2.081435 1_555
O24 S0 1.481963 1_555
O24 Zn4 2.068803 1_555
O25 S1 1.481963 1_555
O25 Zn5 2.068803 1_655
O26 S2 1.481963 1_554
O26 Zn6 2.068803 1_554
O27 S3 1.481963 1_555
O27 Zn7 2.068803 1_556
O28 S9 1.469333 1_556
O28 Zn6 2.115520 1_555
O29 S10 1.469333 1_655
O29 Zn7 2.115520 1_555
O30 S11 1.469333 1_565
O30 Zn5 2.115520 1_555
O31 S8 1.469333 1_545
O31 Zn6 2.115520 1_555
O32 S7 1.469333 1_555
O32 Zn6 2.115520 1_555
O33 S6 1.469333 1_555
O33 Zn7 2.115520 1_555
O34 S5 1.469333 1_555
O34 Zn4 2.115520 1_555
O35 S4 1.469333 1_455
O35 Zn5 2.115520 1_555
O36 S3 1.469333 1_555
O36 Zn4 2.115520 1_555
O37 S2 1.469333 1_554
O37 Zn7 2.115520 1_555
O38 S1 1.469333 1_555
O38 Zn4 2.115520 1_555
O39 S0 1.469333 1_555
O39 Zn5 2.115520 1_555
O40 S9 1.481963 1_555
O40 Zn7 2.068803 1_455
O41 S10 1.481963 1_555
O41 Zn5 2.068803 1_545
O42 S11 1.481963 1_555
O42 Zn6 2.068803 1_554
O43 S8 1.481963 1_545
O43 Zn5 2.068803 1_545
O44 S7 1.481963 1_555
O44 Zn4 2.068803 1_555
O45 S6 1.481963 1_555
O45 Zn4 2.068803 1_555
O46 S5 1.481963 1_555
O46 Zn6 2.068803 1_565
O47 S7 1.477052 1_555
O47 Zn0 2.081435 1_555
