# generated using pymatgen
data_Li11Fe3B24(PbO24)2
_symmetry_space_group_name_H-M   'P 1'
_cell_length_a   9.57508900
_cell_length_b   9.63363657
_cell_length_c   9.64638403
_cell_angle_alpha   100.86839519
_cell_angle_beta   100.62130517
_cell_angle_gamma   100.69687866
_symmetry_Int_Tables_number   1
_chemical_formula_structural   Li11Fe3B24(PbO24)2
_chemical_formula_sum   'Li11 Fe3 B24 Pb2 O48'
_cell_volume   836.19536938
_cell_formula_units_Z   1
loop_
 _symmetry_equiv_pos_site_id
 _symmetry_equiv_pos_as_xyz
  1  'x, y, z'
loop_
 _atom_site_type_symbol
 _atom_site_label
 _atom_site_symmetry_multiplicity
 _atom_site_fract_x
 _atom_site_fract_y
 _atom_site_fract_z
 _atom_site_occupancy
  Li  Li0  1  0.80237800  0.71395600  0.11238000  1
  Li  Li1  1  0.61385800  0.30503400  0.21615500  1
  Li  Li2  1  0.21344300  0.61078300  0.30004300  1
  Li  Li3  1  0.28560400  0.88722600  0.19455700  1
  Li  Li4  1  0.88563100  0.19639300  0.28321200  1
  Li  Li5  1  0.69689200  0.78527400  0.38660400  1
  Li  Li6  1  0.10960300  0.80013000  0.71408600  1
  Li  Li7  1  0.71831800  0.11218900  0.80476800  1
  Li  Li8  1  0.78520600  0.38953100  0.69683800  1
  Li  Li9  1  0.38899000  0.69632700  0.78738600  1
  Li  Li10  1  0.19316200  0.28831400  0.89567600  1
  Fe  Fe0  1  0.99764900  0.99819700  0.00076300  1
  Fe  Fe1  1  0.50263500  0.50796400  0.49666100  1
  Fe  Fe2  1  0.30228000  0.21459800  0.61251300  1
  B  B0  1  0.95041100  0.29713700  0.03735100  1
  B  B1  1  0.51551700  0.76663800  0.09755700  1
  B  B2  1  0.26683100  0.59729100  0.01499600  1
  B  B3  1  0.46358000  0.54945000  0.20351900  1
  B  B4  1  0.70319000  0.96295100  0.04993300  1
  B  B5  1  0.59767700  0.01482000  0.26617800  1
  B  B6  1  0.90310600  0.48490100  0.23380900  1
  B  B7  1  0.79587900  0.53590500  0.45014800  1
  B  B8  1  0.03521000  0.95142100  0.29663400  1
  B  B9  1  0.45032500  0.79837600  0.53669500  1
  B  B10  1  0.22984400  0.89896600  0.47993400  1
  B  B11  1  0.01272300  0.26700700  0.59906800  1
  B  B12  1  0.98380800  0.73238800  0.40221000  1
  B  B13  1  0.76771000  0.09672100  0.51474800  1
  B  B14  1  0.54936000  0.19903200  0.46329700  1
  B  B15  1  0.96585300  0.04763900  0.70284100  1
  B  B16  1  0.20755400  0.46958300  0.54974000  1
  B  B17  1  0.09670900  0.51540500  0.76769700  1
  B  B18  1  0.40579000  0.98224700  0.74017500  1
  B  B19  1  0.29526900  0.03590300  0.95101500  1
  B  B20  1  0.53761700  0.45330300  0.79333200  1
  B  B21  1  0.73403600  0.40288100  0.98547500  1
  B  B22  1  0.48666000  0.22815500  0.90779400  1
  B  B23  1  0.04927200  0.70279200  0.96336300  1
  Pb  Pb0  1  0.24399300  0.25112600  0.23242300  1
  Pb  Pb1  1  0.75607400  0.75249400  0.75457300  1
  O  O0  1  0.64105600  0.81586700  0.03101800  1
  O  O1  1  0.81421200  0.51621300  0.10869900  1
  O  O2  1  0.56628400  0.66430500  0.19012600  1
  O  O3  1  0.60612400  0.31609000  0.01657300  1
  O  O4  1  0.16439600  0.68984200  0.06604300  1
  O  O5  1  0.31528100  0.52906700  0.13905800  1
  O  O6  1  0.49732500  0.45180900  0.28574200  1
  O  O7  1  0.69029800  0.06645100  0.16480000  1
  O  O8  1  0.05000400  0.21612200  0.00252300  1
  O  O9  1  0.53012900  0.14168300  0.31722700  1
  O  O10  1  0.01761000  0.60931100  0.31471200  1
  O  O11  1  0.28503200  0.49828200  0.45027900  1
  O  O12  1  0.21600500  0.00319800  0.04965800  1
  O  O13  1  0.48317900  0.89162800  0.18588300  1
  O  O14  1  0.97015500  0.35951700  0.18440400  1
  O  O15  1  0.44410500  0.27526700  0.50310800  1
  O  O16  1  0.81075800  0.43356200  0.33574700  1
  O  O17  1  0.00323000  0.04996600  0.21603400  1
  O  O18  1  0.15026200  0.31649600  0.53901900  1
  O  O19  1  0.18414300  0.97298800  0.36329500  1
  O  O20  1  0.33591400  0.81396900  0.43440300  1
  O  O21  1  0.31386900  0.01958200  0.61094300  1
  O  O22  1  0.89314300  0.18619700  0.48309500  1
  O  O23  1  0.93373600  0.83491400  0.30930000  1
  O  O24  1  0.07249800  0.16338400  0.68772000  1
  O  O25  1  0.10898700  0.81512100  0.51722100  1
  O  O26  1  0.68632300  0.98350000  0.39182200  1
  O  O27  1  0.66427300  0.18914900  0.56710900  1
  O  O28  1  0.81895400  0.03375800  0.64132200  1
  O  O29  1  0.85939700  0.68376500  0.46967100  1
  O  O30  1  0.99985000  0.95093400  0.78425500  1
  O  O31  1  0.18829000  0.56772100  0.66321900  1
  O  O32  1  0.54822400  0.71796500  0.50288800  1
  O  O33  1  0.03025600  0.63950200  0.81598800  1
  O  O34  1  0.51847700  0.10786600  0.81564400  1
  O  O35  1  0.78385800  0.99763100  0.95057100  1
  O  O36  1  0.71261800  0.50053800  0.54680600  1
  O  O37  1  0.98282100  0.39020500  0.68531700  1
  O  O38  1  0.46750100  0.86066200  0.68417900  1
  O  O39  1  0.95028400  0.78430400  0.99636100  1
  O  O40  1  0.30950200  0.93393700  0.83510200  1
  O  O41  1  0.49966200  0.54658900  0.71151200  1
  O  O42  1  0.68208200  0.46882700  0.85994100  1
  O  O43  1  0.83469900  0.30922100  0.93428600  1
  O  O44  1  0.39131000  0.68521800  0.98294300  1
  O  O45  1  0.43023600  0.33121800  0.80101400  1
  O  O46  1  0.18605400  0.48268800  0.89002300  1
  O  O47  1  0.35794600  0.18352600  0.96725000  1
loop_
_geom_bond_atom_site_label_1
_geom_bond_atom_site_label_2
_geom_bond_distance
_geom_bond_site_symmetry_2
Li0 O1 1.923323 1_555
Li0 O39 2.057056 1_554
Li0 O23 2.070898 1_555
Li0 O0 2.091058 1_555
Li0 O2 2.502099 1_555
Li1 O3 1.936774 1_555
Li1 O6 2.049107 1_555
Li1 O16 2.052179 1_555
Li1 O9 2.113796 1_555
Li1 O7 2.528367 1_555
Li2 O10 1.903941 1_555
Li2 O11 2.060741 1_555
Li2 O5 2.089087 1_555
Li2 O20 2.125413 1_555
Li2 O4 2.507217 1_555
Li3 O13 1.902001 1_555
Li3 O12 2.041553 1_565
Li3 O4 2.064219 1_555
Li3 O19 2.156296 1_555
Li3 O20 2.532621 1_555
Li4 O22 1.937910 1_555
Li4 O7 2.043035 1_555
Li4 O17 2.047350 1_655
Li4 O14 2.100023 1_555
Li4 O16 2.509274 1_555
Li5 O26 1.922722 1_555
Li5 O32 2.055567 1_555
Li5 O2 2.065556 1_555
Li5 O29 2.102437 1_555
Li5 O23 2.506587 1_555
Li6 O25 1.930502 1_555
Li6 O30 2.032558 1_455
Li6 O33 2.085790 1_555
Li6 O40 2.093062 1_555
Li6 O31 2.483850 1_555
Li7 O34 1.928801 1_555
Li7 O35 2.026577 1_545
Li7 O43 2.052536 1_555
Li7 O28 2.089587 1_555
Li7 O27 2.533639 1_555
Li8 O37 1.914673 1_555
Li8 O36 2.051838 1_555
Li8 O27 2.087672 1_555
Li8 O42 2.105580 1_555
Li9 O44 1.905803 1_555
Li9 O41 2.048107 1_555
Li9 O31 2.090610 1_555
Li9 O38 2.119222 1_555
Li9 O40 2.531690 1_555
Li10 O46 1.896950 1_555
Li10 O8 1.965244 1_556
Li10 O47 2.106615 1_555
Li10 O24 2.127548 1_555
Fe0 O35 2.013563 1_554
Fe0 O39 2.016535 1_554
Fe0 O17 2.030380 1_665
Fe0 O12 2.046131 1_665
Fe0 O30 2.056903 1_554
Fe0 O8 2.062000 1_665
Fe1 O32 1.975767 1_555
Fe1 O6 1.992848 1_555
Fe1 O36 1.997389 1_555
Fe1 O11 2.029435 1_555
Fe1 O41 2.041943 1_555
Fe1 O15 2.223126 1_555
Fe2 O21 1.899839 1_555
Fe2 O15 1.940566 1_555
Fe2 O45 1.991752 1_555
Fe2 O18 1.999362 1_555
Fe2 O24 2.435355 1_555
B0 O43 1.383842 1_554
B0 O8 1.388125 1_655
B0 O14 1.395207 1_555
B1 O44 1.447062 1_554
B1 O13 1.456186 1_555
B1 O0 1.506454 1_555
B1 O2 1.534731 1_555
B2 O44 1.446912 1_554
B2 O46 1.451833 1_554
B2 O5 1.511470 1_555
B2 O4 1.528582 1_555
B3 O2 1.380165 1_555
B3 O6 1.384918 1_555
B3 O5 1.402320 1_555
B4 O7 1.384437 1_565
B4 O35 1.387369 1_554
B4 O0 1.394469 1_555
B5 O13 1.437932 1_545
B5 O26 1.460892 1_545
B5 O7 1.526319 1_555
B5 O9 1.529172 1_555
B6 O10 1.446243 1_655
B6 O1 1.458050 1_555
B6 O14 1.510597 1_555
B6 O16 1.528076 1_555
B7 O16 1.382026 1_555
B7 O36 1.383480 1_555
B7 O29 1.403344 1_555
B8 O17 1.377690 1_565
B8 O23 1.381800 1_455
B8 O19 1.411334 1_555
B9 O32 1.368257 1_555
B9 O20 1.383781 1_555
B9 O38 1.402257 1_555
B10 O25 1.427221 1_555
B10 O19 1.484204 1_555
B10 O20 1.494132 1_555
B10 O21 1.522809 1_565
B11 O37 1.422804 1_455
B11 O22 1.427259 1_455
B11 O24 1.552110 1_555
B11 O18 1.565076 1_555
B12 O10 1.445254 1_655
B12 O25 1.457549 1_655
B12 O29 1.501845 1_555
B12 O23 1.536192 1_555
B13 O26 1.434976 1_545
B13 O22 1.459054 1_555
B13 O28 1.506118 1_555
B13 O27 1.539831 1_555
B14 O27 1.375215 1_555
B14 O9 1.377526 1_555
B14 O15 1.419032 1_555
B15 O30 1.372920 1_545
B15 O28 1.393211 1_555
B15 O24 1.414524 1_655
B16 O11 1.354101 1_555
B16 O31 1.369318 1_555
B16 O18 1.451846 1_555
B17 O46 1.446315 1_555
B17 O37 1.451294 1_455
B17 O33 1.494237 1_555
B17 O31 1.546596 1_555
B18 O34 1.432543 1_565
B18 O38 1.465903 1_555
B18 O40 1.489219 1_555
B18 O21 1.529780 1_565
B19 O12 1.367934 1_556
B19 O40 1.387590 1_545
B19 O47 1.404179 1_555
B20 O41 1.358543 1_555
B20 O42 1.381292 1_555
B20 O45 1.434558 1_555
B21 O1 1.434351 1_556
B21 O3 1.462534 1_556
B21 O42 1.517513 1_555
B21 O43 1.522251 1_555
B22 O3 1.410589 1_556
B22 O34 1.438150 1_555
B22 O47 1.479721 1_555
B22 O45 1.648733 1_555
B23 O4 1.380910 1_556
B23 O39 1.381870 1_455
B23 O33 1.400873 1_555
O6 Pb0 2.703763 1_555
O8 Pb0 2.539495 1_555
O11 Pb0 2.775126 1_555
O12 Pb0 2.623930 1_555
O17 Pb0 2.680793 1_555
O30 Pb1 2.660013 1_555
O32 Pb1 2.763048 1_555
O35 Pb1 2.668329 1_555
O36 Pb1 2.750391 1_555
O39 Pb1 2.629068 1_555
O41 Pb1 2.764152 1_555
