# generated using pymatgen
data_CaAl2Si(HO2)4
_symmetry_space_group_name_H-M   'P 1'
_cell_length_a   12.24138141
_cell_length_b   12.24138141
_cell_length_c   12.24138141
_cell_angle_alpha   156.39115567
_cell_angle_beta   156.39115567
_cell_angle_gamma   33.63305508
_symmetry_Int_Tables_number   1
_chemical_formula_structural   CaAl2Si(HO2)4
_chemical_formula_sum   'Ca2 Al4 Si2 H8 O16'
_cell_volume   293.94158512
_cell_formula_units_Z   2
loop_
 _symmetry_equiv_pos_site_id
 _symmetry_equiv_pos_as_xyz
  1  'x, y, z'
loop_
 _atom_site_type_symbol
 _atom_site_label
 _atom_site_symmetry_multiplicity
 _atom_site_fract_x
 _atom_site_fract_y
 _atom_site_fract_z
 _atom_site_occupancy
  Ca  Ca0  1  0.25000000  0.75000000  0.50000000  1
  Ca  Ca1  1  0.50000000  0.50000000  0.00000000  1
  Al  Al0  1  0.40966600  0.90966600  0.50000000  1
  Al  Al1  1  0.65966600  0.65966600  0.00000000  1
  Al  Al2  1  0.34033400  0.34033400  0.00000000  1
  Al  Al3  1  0.09033400  0.59033400  0.50000000  1
  Si  Si0  1  0.75000000  0.25000000  0.50000000  1
  Si  Si1  1  0.00000000  0.00000000  0.00000000  1
  H  H0  1  0.78903300  0.21868800  0.18951300  1
  H  H1  1  0.02917500  0.59952000  0.81048700  1
  H  H2  1  0.34952000  0.03903300  0.07034500  1
  H  H3  1  0.96868800  0.27917500  0.92965500  1
  H  H4  1  0.96096700  0.03131200  0.31048700  1
  H  H5  1  0.72082500  0.65048000  0.68951300  1
  H  H6  1  0.40048000  0.21096700  0.42965500  1
  H  H7  1  0.78131200  0.97082500  0.57034500  1
  O  O0  1  0.84360900  0.96748600  0.38792100  1
  O  O1  1  0.57956500  0.45568900  0.61207900  1
  O  O2  1  0.20568900  0.09360900  0.37612400  1
  O  O3  1  0.71748600  0.82956500  0.62387600  1
  O  O4  1  0.90639100  0.28251400  0.11207900  1
  O  O5  1  0.17043500  0.79431100  0.88792100  1
  O  O6  1  0.54431100  0.15639100  0.12387600  1
  O  O7  1  0.03251400  0.42043500  0.87612400  1
  O  O8  1  0.59221100  0.23289700  0.01470800  1
  O  O9  1  0.21819000  0.57750400  0.98529200  1
  O  O10  1  0.32750400  0.84221100  0.85931400  1
  O  O11  1  0.98289700  0.46819000  0.14068600  1
  O  O12  1  0.15778900  0.01710300  0.48529200  1
  O  O13  1  0.53181000  0.67249600  0.51470800  1
  O  O14  1  0.42249600  0.40778900  0.64068600  1
  O  O15  1  0.76710300  0.78181000  0.35931400  1
loop_
_geom_bond_atom_site_label_1
_geom_bond_atom_site_label_2
_geom_bond_distance
_geom_bond_site_symmetry_2
Ca0 O7 2.418624 1_554
Ca0 O1 2.418624 1_555
Ca0 O6 2.418629 1_566
Ca0 O0 2.418632 1_455
Ca0 O13 2.560844 1_555
Ca0 O11 2.560855 1_455
Ca0 O10 2.560855 1_555
Ca0 O12 2.560865 1_565
Ca1 O3 2.418624 1_555
Ca1 O5 2.418624 1_554
Ca1 O2 2.418629 1_554
Ca1 O4 2.418632 1_555
Ca1 O9 2.560844 1_554
Ca1 O15 2.560855 1_555
Ca1 O14 2.560855 1_554
Ca1 O8 2.560865 1_555
Al0 O2 1.886929 1_565
Al0 O3 1.886939 1_555
Al0 O9 1.892615 1_554
Al0 O8 1.892616 1_566
Al0 O12 1.983176 1_565
Al0 O13 1.983194 1_555
Al1 O0 1.886932 1_555
Al1 O1 1.886939 1_554
Al1 O10 1.892612 1_554
Al1 O11 1.892612 1_555
Al1 O14 1.983185 1_554
Al1 O15 1.983185 1_555
Al2 O6 1.886929 1_555
Al2 O7 1.886939 1_554
Al2 O13 1.892615 1_555
Al2 O12 1.892616 1_554
Al2 O8 1.983176 1_555
Al2 O9 1.983194 1_554
Al3 O4 1.886932 1_455
Al3 O5 1.886939 1_555
Al3 O14 1.892612 1_555
Al3 O15 1.892612 1_455
Al3 O10 1.983185 1_555
Al3 O11 1.983185 1_455
H0 O8 0.974778 1_555
H1 O9 0.974776 1_555
H2 O10 0.974779 1_544
H3 O11 0.974779 1_556
H4 O12 0.974778 1_655
H5 O13 0.974776 1_555
H6 O14 0.974779 1_555
H7 O15 0.974779 1_555
O0 Si0 1.656002 1_565
O1 Si0 1.655998 1_555
O2 Si1 1.656006 1_555
O3 Si1 1.655998 1_666
O4 Si1 1.656002 1_655
O5 Si1 1.655998 1_566
O6 Si0 1.656006 1_555
O7 Si0 1.655998 1_455
