# generated using pymatgen
data_NdInAu
_symmetry_space_group_name_H-M   'P 1'
_cell_length_a   7.81124545
_cell_length_b   7.81124545
_cell_length_c   4.15163863
_cell_angle_alpha   90.00000000
_cell_angle_beta   90.00000000
_cell_angle_gamma   120.00000181
_symmetry_Int_Tables_number   1
_chemical_formula_structural   NdInAu
_chemical_formula_sum   'Nd3 In3 Au3'
_cell_volume   219.37682054
_cell_formula_units_Z   3
loop_
 _symmetry_equiv_pos_site_id
 _symmetry_equiv_pos_as_xyz
  1  'x, y, z'
loop_
 _atom_site_type_symbol
 _atom_site_label
 _atom_site_symmetry_multiplicity
 _atom_site_fract_x
 _atom_site_fract_y
 _atom_site_fract_z
 _atom_site_occupancy
  Nd  Nd0  1  1.00000000  0.58893789  0.50000000  1
  Nd  Nd1  1  0.58893789  1.00000000  0.50000000  1
  Nd  Nd2  1  0.41106211  0.41106211  0.50000000  1
  In  In0  1  0.00000000  0.25199016  -0.00000000  1
  In  In1  1  0.25199016  0.00000000  0.00000000  1
  In  In2  1  0.74800984  0.74800984  0.00000000  1
  Au  Au0  1  0.00000000  -0.00000000  0.50000000  1
  Au  Au1  1  0.66666700  0.33333300  -0.00000000  1
  Au  Au2  1  0.33333300  0.66666700  0.00000000  1
loop_
_geom_bond_atom_site_label_1
_geom_bond_atom_site_label_2
_geom_bond_distance
_geom_bond_site_symmetry_2
In0 Nd0 3.352067 1_455
In0 Nd0 3.352067 1_454
In0 Nd1 3.489007 1_445
In0 Nd1 3.489007 1_444
In0 Nd2 3.489007 1_554
In0 Nd2 3.489007 1_555
In1 Nd1 3.352067 1_544
In1 Nd1 3.352067 1_545
In1 Nd0 3.489007 1_444
In1 Nd0 3.489007 1_445
In1 Nd2 3.489007 1_554
In1 Nd2 3.489007 1_555
In2 Nd2 3.352067 1_554
In2 Nd2 3.352067 1_555
In2 Nd0 3.489007 1_555
In2 Nd0 3.489007 1_554
In2 Nd1 3.489007 1_554
In2 Nd1 3.489007 1_555
Au0 In2 2.860674 1_445
Au0 In2 2.860674 1_446
Au0 In1 2.860674 1_555
Au0 In1 2.860674 1_556
Au0 In0 2.860674 1_555
Au0 In0 2.860674 1_556
Au0 Nd2 3.210907 1_555
Au0 Nd0 3.210907 1_445
Au0 Nd1 3.210907 1_445
Au1 In0 2.972811 1_655
Au1 In1 2.972816 1_555
Au1 In2 2.972818 1_555
Au1 Nd1 3.142653 1_544
Au1 Nd1 3.142653 1_545
Au1 Nd0 3.142655 1_555
Au1 Nd0 3.142655 1_554
Au1 Nd2 3.142659 1_554
Au1 Nd2 3.142659 1_555
Au2 In1 2.972811 1_565
Au2 In0 2.972816 1_555
Au2 In2 2.972818 1_555
Au2 Nd0 3.142653 1_455
Au2 Nd0 3.142653 1_454
Au2 Nd1 3.142655 1_554
Au2 Nd1 3.142655 1_555
Au2 Nd2 3.142659 1_554
Au2 Nd2 3.142659 1_555
