# generated using pymatgen
data_VHO2
_symmetry_space_group_name_H-M   'P 1'
_cell_length_a   3.08126453
_cell_length_b   4.59156426
_cell_length_c   9.84294236
_cell_angle_alpha   90.00000000
_cell_angle_beta   90.00000000
_cell_angle_gamma   90.00000000
_symmetry_Int_Tables_number   1
_chemical_formula_structural   VHO2
_chemical_formula_sum   'V4 H4 O8'
_cell_volume   139.25621705
_cell_formula_units_Z   4
loop_
 _symmetry_equiv_pos_site_id
 _symmetry_equiv_pos_as_xyz
  1  'x, y, z'
loop_
 _atom_site_type_symbol
 _atom_site_label
 _atom_site_symmetry_multiplicity
 _atom_site_fract_x
 _atom_site_fract_y
 _atom_site_fract_z
 _atom_site_occupancy
  V  V0  1  0.00000000  0.30202604  0.65498732  1
  V  V1  1  0.00000000  0.69797396  0.15498732  1
  V  V2  1  0.50000000  0.19801433  0.36335656  1
  V  V3  1  0.50000000  0.80198567  0.86335656  1
  H  H0  1  0.00000000  0.64920697  0.42321002  1
  H  H1  1  0.00000000  0.35079303  0.92321002  1
  H  H2  1  0.50000000  0.85083067  0.59513794  1
  H  H3  1  0.50000000  0.14916933  0.09513794  1
  O  O0  1  0.00000000  0.95758528  0.30652266  1
  O  O1  1  -0.00000000  0.04241472  0.80652266  1
  O  O2  1  0.50000000  0.54242821  0.71182645  1
  O  O3  1  0.50000000  0.45757179  0.21182645  1
  O  O4  1  0.00000000  0.44593439  0.45434614  1
  O  O5  1  0.00000000  0.55406561  0.95434614  1
  O  O6  1  0.50000000  0.05413974  0.56401293  1
  O  O7  1  0.50000000  0.94586026  0.06401293  1
loop_
_geom_bond_atom_site_label_1
_geom_bond_atom_site_label_2
_geom_bond_distance
_geom_bond_site_symmetry_2
H0 O4 0.982368 1_555
H1 O5 0.982368 1_555
H2 O6 0.982493 1_565
H3 O7 0.982493 1_545
O0 V1 1.909358 1_555
O0 V2 1.976154 1_565
O0 V2 1.976154 1_465
O1 V0 1.909358 1_555
O1 V3 1.976154 1_445
O1 V3 1.976154 1_545
O2 V3 1.909164 1_555
O2 V0 1.976100 1_655
O2 V0 1.976100 1_555
O3 V2 1.909164 1_555
O3 V1 1.976100 1_555
O3 V1 1.976100 1_655
O4 V0 2.082508 1_555
O4 V2 2.114587 1_455
O4 V2 2.114587 1_555
O5 V1 2.082508 1_556
O5 V3 2.114587 1_555
O5 V3 2.114587 1_455
O6 V2 2.082600 1_555
O6 V0 2.114440 1_655
O6 V0 2.114440 1_555
O7 V3 2.082600 1_554
O7 V1 2.114440 1_555
O7 V1 2.114440 1_655
