# generated using pymatgen
data_Bi15PO25
_symmetry_space_group_name_H-M   'P 1'
_cell_length_a   17.15308432
_cell_length_b   17.15308432
_cell_length_c   17.15308518
_cell_angle_alpha   50.47160449
_cell_angle_beta   50.47160449
_cell_angle_gamma   50.47160481
_symmetry_Int_Tables_number   1
_chemical_formula_structural   Bi15PO25
_chemical_formula_sum   'Bi60 P4 O100'
_cell_volume   2766.11614003
_cell_formula_units_Z   4
loop_
 _symmetry_equiv_pos_site_id
 _symmetry_equiv_pos_as_xyz
  1  'x, y, z'
loop_
 _atom_site_type_symbol
 _atom_site_label
 _atom_site_symmetry_multiplicity
 _atom_site_fract_x
 _atom_site_fract_y
 _atom_site_fract_z
 _atom_site_occupancy
  Bi  Bi0  1  0.27292900  0.11764300  0.42086600  1
  Bi  Bi1  1  0.20009700  0.02278400  0.72243800  1
  Bi  Bi2  1  0.51603000  0.17340300  0.32106600  1
  Bi  Bi3  1  0.41265100  0.11250700  0.60718900  1
  Bi  Bi4  1  0.20729000  0.07657700  0.90783900  1
  Bi  Bi5  1  0.69619600  0.20098900  0.35341900  1
  Bi  Bi6  1  0.50512300  0.01309000  0.81255000  1
  Bi  Bi7  1  0.47273600  0.31828500  0.61845300  1
  Bi  Bi8  1  0.97653300  0.11230600  0.31760000  1
  Bi  Bi9  1  0.75077600  0.09479900  0.59976900  1
  Bi  Bi10  1  0.40974200  0.20799300  0.91542500  1
  Bi  Bi11  1  0.71765500  0.01746000  0.87078500  1
  Bi  Bi12  1  0.71924400  0.37365800  0.51848900  1
  Bi  Bi13  1  0.99416300  0.15468400  0.50379700  1
  Bi  Bi14  1  0.61258700  0.30883700  0.81682100  1
  Bi  Bi15  1  0.42086600  0.27292900  0.11764300  1
  Bi  Bi16  1  0.92191400  0.09876400  0.79043400  1
  Bi  Bi17  1  0.89764700  0.39348400  0.55632700  1
  Bi  Bi18  1  0.72243800  0.20009700  0.02278400  1
  Bi  Bi19  1  0.67916900  0.51482200  0.81566000  1
  Bi  Bi20  1  0.17340300  0.32106600  0.51603000  1
  Bi  Bi21  1  0.96959400  0.27940300  0.80193800  1
  Bi  Bi22  1  0.60718900  0.41265100  0.11250700  1
  Bi  Bi23  1  0.90783900  0.20729000  0.07657700  1
  Bi  Bi24  1  0.91736100  0.56912200  0.71806100  1
  Bi  Bi25  1  0.20098900  0.35341900  0.69619600  1
  Bi  Bi26  1  0.81255000  0.50512300  0.01309000  1
  Bi  Bi27  1  0.61845300  0.47273600  0.31828500  1
  Bi  Bi28  1  0.11230600  0.31760000  0.97653300  1
  Bi  Bi29  1  0.09479900  0.59976900  0.75077600  1
  Bi  Bi30  1  0.91542500  0.40974200  0.20799300  1
  Bi  Bi31  1  0.87078500  0.71765500  0.01746000  1
  Bi  Bi32  1  0.37365800  0.51848900  0.71924400  1
  Bi  Bi33  1  0.15468400  0.50379700  0.99416300  1
  Bi  Bi34  1  0.81682100  0.61258700  0.30883700  1
  Bi  Bi35  1  0.11764300  0.42086600  0.27292900  1
  Bi  Bi36  1  0.09876400  0.79043400  0.92191400  1
  Bi  Bi37  1  0.39348400  0.55632700  0.89764700  1
  Bi  Bi38  1  0.02278400  0.72243800  0.20009700  1
  Bi  Bi39  1  0.81566000  0.67916900  0.51482200  1
  Bi  Bi40  1  0.32106600  0.51603000  0.17340300  1
  Bi  Bi41  1  0.27940300  0.80193800  0.96959400  1
  Bi  Bi42  1  0.11250700  0.60718900  0.41265100  1
  Bi  Bi43  1  0.07657700  0.90783900  0.20729000  1
  Bi  Bi44  1  0.56912200  0.71806100  0.91736100  1
  Bi  Bi45  1  0.35341900  0.69619600  0.20098900  1
  Bi  Bi46  1  0.01309000  0.81255000  0.50512300  1
  Bi  Bi47  1  0.31828500  0.61845300  0.47273600  1
  Bi  Bi48  1  0.31760000  0.97653300  0.11230600  1
  Bi  Bi49  1  0.59976900  0.75077600  0.09479900  1
  Bi  Bi50  1  0.20799300  0.91542500  0.40974200  1
  Bi  Bi51  1  0.01746000  0.87078500  0.71765500  1
  Bi  Bi52  1  0.51848900  0.71924400  0.37365800  1
  Bi  Bi53  1  0.50379700  0.99416300  0.15468400  1
  Bi  Bi54  1  0.30883700  0.81682100  0.61258700  1
  Bi  Bi55  1  0.79043400  0.92191400  0.09876400  1
  Bi  Bi56  1  0.55632700  0.89764700  0.39348400  1
  Bi  Bi57  1  0.51482200  0.81566000  0.67916900  1
  Bi  Bi58  1  0.80193800  0.96959400  0.27940300  1
  Bi  Bi59  1  0.71806100  0.91736100  0.56912200  1
  P  P0  1  0.20014300  0.20014300  0.20014300  1
  P  P1  1  0.40017900  0.40017900  0.40017900  1
  P  P2  1  0.59998400  0.59998400  0.59998400  1
  P  P3  1  0.79954400  0.79954400  0.79954400  1
  O  O0  1  0.07453500  0.07453500  0.07453500  1
  O  O1  1  0.16484000  0.16484000  0.16484000  1
  O  O2  1  0.03707000  0.03975800  0.44348200  1
  O  O3  1  0.44348200  0.03707000  0.03975800  1
  O  O4  1  0.26839800  0.09460900  0.27183800  1
  O  O5  1  0.28117400  0.28117400  0.28117400  1
  O  O6  1  0.44551600  0.07047200  0.33046300  1
  O  O7  1  0.27391300  0.16018500  0.51794000  1
  O  O8  1  0.65039900  0.03097100  0.27523100  1
  O  O9  1  0.83813800  0.10800500  0.10831500  1
  O  O10  1  0.10800500  0.10831500  0.83813800  1
  O  O11  1  0.36515100  0.36515100  0.36515100  1
  O  O12  1  0.24384500  0.24389200  0.63430300  1
  O  O13  1  0.63430300  0.24384500  0.24389200  1
  O  O14  1  0.67160700  0.05765900  0.42764600  1
  O  O15  1  0.47046200  0.29510300  0.47016300  1
  O  O16  1  0.86752500  0.12999400  0.24835300  1
  O  O17  1  0.38220800  0.12639600  0.73943700  1
  O  O18  1  0.63734200  0.04190000  0.63852400  1
  O  O19  1  0.32313200  0.07419400  0.95163000  1
  O  O20  1  0.82853300  0.07455100  0.45283600  1
  O  O21  1  0.48036400  0.48036400  0.48036400  1
  O  O22  1  0.64532100  0.26892400  0.53062700  1
  O  O23  1  0.52158500  0.14391100  0.78296100  1
  O  O24  1  0.47171400  0.35820800  0.71771500  1
  O  O25  1  0.85271200  0.22945100  0.47588000  1
  O  O26  1  0.09460900  0.27183800  0.26839800  1
  O  O27  1  0.27183800  0.26839800  0.09460900  1
  O  O28  1  0.92840100  0.04265800  0.67280000  1
  O  O29  1  0.54520200  0.18124200  0.92184600  1
  O  O30  1  0.56493200  0.56493200  0.56493200  1
  O  O31  1  0.43938200  0.43796100  0.84203600  1
  O  O32  1  0.84203600  0.43938200  0.43796100  1
  O  O33  1  0.75573000  0.11646800  0.87400400  1
  O  O34  1  0.87584200  0.25038100  0.62697100  1
  O  O35  1  0.67047900  0.49458000  0.66974600  1
  O  O36  1  0.07047200  0.33046300  0.44551600  1
  O  O37  1  0.58020800  0.32040300  0.94990700  1
  O  O38  1  0.85014500  0.22441800  0.85044700  1
  O  O39  1  0.51794000  0.27391300  0.16018500  1
  O  O40  1  0.03097100  0.27523100  0.65039900  1
  O  O41  1  0.68079100  0.68079100  0.68079100  1
  O  O42  1  0.84977700  0.47052500  0.72979300  1
  O  O43  1  0.72157000  0.34535700  0.98446600  1
  O  O44  1  0.67152400  0.55662900  0.91981700  1
  O  O45  1  0.05765900  0.42764600  0.67160700  1
  O  O46  1  0.29510300  0.47016300  0.47046200  1
  O  O47  1  0.47016300  0.47046200  0.29510300  1
  O  O48  1  0.12999400  0.24835300  0.86752500  1
  O  O49  1  0.73943700  0.38220800  0.12639600  1
  O  O50  1  0.76477900  0.76477900  0.76477900  1
  O  O51  1  0.63852400  0.63734200  0.04190000  1
  O  O52  1  0.04190000  0.63852400  0.63734200  1
  O  O53  1  0.95163000  0.32313200  0.07419400  1
  O  O54  1  0.07455100  0.45283600  0.82853300  1
  O  O55  1  0.87148800  0.69465500  0.86862600  1
  O  O56  1  0.26892400  0.53062700  0.64532100  1
  O  O57  1  0.78296100  0.52158500  0.14391100  1
  O  O58  1  0.03975800  0.44348200  0.03707000  1
  O  O59  1  0.71771500  0.47171400  0.35820800  1
  O  O60  1  0.22945100  0.47588000  0.85271200  1
  O  O61  1  0.87819600  0.87819600  0.87819600  1
  O  O62  1  0.04265800  0.67280000  0.92840100  1
  O  O63  1  0.92184600  0.54520200  0.18124200  1
  O  O64  1  0.87400400  0.75573000  0.11646800  1
  O  O65  1  0.25038100  0.62697100  0.87584200  1
  O  O66  1  0.49458000  0.66974600  0.67047900  1
  O  O67  1  0.66974600  0.67047900  0.49458000  1
  O  O68  1  0.33046300  0.44551600  0.07047200  1
  O  O69  1  0.94990700  0.58020800  0.32040300  1
  O  O70  1  0.94598100  0.94598100  0.94598100  1
  O  O71  1  0.85044700  0.85014500  0.22441800  1
  O  O72  1  0.22441800  0.85044700  0.85014500  1
  O  O73  1  0.16018500  0.51794000  0.27391300  1
  O  O74  1  0.27523100  0.65039900  0.03097100  1
  O  O75  1  0.10831500  0.83813800  0.10800500  1
  O  O76  1  0.47052500  0.72979300  0.84977700  1
  O  O77  1  0.98446600  0.72157000  0.34535700  1
  O  O78  1  0.24389200  0.63430300  0.24384500  1
  O  O79  1  0.91981700  0.67152400  0.55662900  1
  O  O80  1  0.42764600  0.67160700  0.05765900  1
  O  O81  1  0.24835300  0.86752500  0.12999400  1
  O  O82  1  0.12639600  0.73943700  0.38220800  1
  O  O83  1  0.07419400  0.95163000  0.32313200  1
  O  O84  1  0.45283600  0.82853300  0.07455100  1
  O  O85  1  0.69465500  0.86862600  0.87148800  1
  O  O86  1  0.86862600  0.87148800  0.69465500  1
  O  O87  1  0.53062700  0.64532100  0.26892400  1
  O  O88  1  0.14391100  0.78296100  0.52158500  1
  O  O89  1  0.35820800  0.71771500  0.47171400  1
  O  O90  1  0.47588000  0.85271200  0.22945100  1
  O  O91  1  0.67280000  0.92840100  0.04265800  1
  O  O92  1  0.18124200  0.92184600  0.54520200  1
  O  O93  1  0.43796100  0.84203600  0.43938200  1
  O  O94  1  0.11646800  0.87400400  0.75573000  1
  O  O95  1  0.62697100  0.87584200  0.25038100  1
  O  O96  1  0.32040300  0.94990700  0.58020800  1
  O  O97  1  0.72979300  0.84977700  0.47052500  1
  O  O98  1  0.34535700  0.98446600  0.72157000  1
  O  O99  1  0.55662900  0.91981700  0.67152400  1
loop_
_geom_bond_atom_site_label_1
_geom_bond_atom_site_label_2
_geom_bond_distance
_geom_bond_site_symmetry_2
Bi0 O6 2.127864 1_555
Bi0 O7 2.214399 1_555
Bi0 O5 2.268870 1_555
Bi0 O96 2.500465 1_545
Bi1 O98 2.126302 1_545
Bi1 O72 2.249847 1_545
Bi1 O10 2.313458 1_555
Bi1 O96 2.441931 1_545
Bi1 O7 2.661542 1_555
Bi2 O39 2.118840 1_555
Bi2 O8 2.206786 1_555
Bi2 O13 2.234706 1_555
Bi2 O6 2.591171 1_555
Bi2 O11 2.815517 1_555
Bi3 O17 2.120629 1_555
Bi3 O98 2.205596 1_545
Bi3 O12 2.234483 1_555
Bi3 O99 2.584037 1_545
Bi3 O15 2.816659 1_555
Bi4 O48 2.125679 1_555
Bi4 O0 2.246857 1_556
Bi4 O10 2.282389 1_555
Bi4 O19 2.504338 1_555
Bi4 O17 2.676917 1_555
Bi5 O14 2.120202 1_555
Bi5 O16 2.205413 1_555
Bi5 O13 2.232622 1_555
Bi5 O20 2.591811 1_555
Bi5 O15 2.810180 1_555
Bi6 O23 2.132414 1_555
Bi6 O17 2.200558 1_555
Bi6 O18 2.286862 1_555
Bi6 O19 2.464363 1_555
Bi7 O22 2.122802 1_555
Bi7 O24 2.190708 1_555
Bi7 O21 2.245655 1_555
Bi7 O23 2.585910 1_555
Bi7 O15 2.839585 1_555
Bi8 O83 2.098497 1_645
Bi8 O20 2.220262 1_555
Bi8 O2 2.253470 1_655
Bi8 O16 2.577869 1_555
Bi8 O1 2.834958 1_655
Bi9 O20 2.120691 1_555
Bi9 O18 2.210033 1_555
Bi9 O22 2.223509 1_555
Bi9 O25 2.659138 1_555
Bi9 O86 2.793491 1_545
Bi10 O29 2.127405 1_555
Bi10 O3 2.220611 1_556
Bi10 O23 2.235542 1_555
Bi10 O24 2.654196 1_555
Bi10 O27 2.791957 1_556
Bi11 O91 2.119707 1_546
Bi11 O33 2.211546 1_555
Bi11 O61 2.234124 1_545
Bi11 O29 2.581807 1_555
Bi11 O85 2.812516 1_545
Bi12 O59 2.130199 1_555
Bi12 O25 2.203849 1_555
Bi12 O32 2.225361 1_555
Bi12 O22 2.639349 1_555
Bi12 O30 2.827328 1_555
Bi13 O25 2.120700 1_555
Bi13 O28 2.207827 1_555
Bi13 O2 2.297444 1_655
Bi13 O34 2.448096 1_555
Bi14 O37 2.093201 1_555
Bi14 O29 2.218620 1_555
Bi14 O31 2.264281 1_555
Bi14 O33 2.551778 1_555
Bi14 O35 2.847550 1_555
Bi15 O68 2.127864 1_555
Bi15 O39 2.214399 1_555
Bi15 O5 2.268870 1_555
Bi15 O37 2.500465 1_554
Bi16 O33 2.126872 1_555
Bi16 O38 2.248191 1_555
Bi16 O70 2.298163 1_545
Bi16 O34 2.484382 1_555
Bi16 O28 2.657030 1_555
Bi17 O34 2.106916 1_555
Bi17 O36 2.221096 1_655
Bi17 O32 2.264216 1_555
Bi17 O40 2.564055 1_655
Bi17 O35 2.831792 1_555
Bi18 O43 2.126302 1_554
Bi18 O38 2.249847 1_554
Bi18 O9 2.313458 1_555
Bi18 O37 2.441931 1_554
Bi18 O39 2.661542 1_555
Bi19 O42 2.101965 1_555
Bi19 O44 2.221800 1_555
Bi19 O41 2.256725 1_555
Bi19 O43 2.576508 1_555
Bi19 O35 2.837983 1_555
Bi20 O7 2.118840 1_555
Bi20 O40 2.206786 1_555
Bi20 O12 2.234706 1_555
Bi20 O36 2.591171 1_555
Bi20 O11 2.815517 1_555
Bi21 O40 2.127811 1_655
Bi21 O38 2.251827 1_555
Bi21 O10 2.307077 1_655
Bi21 O42 2.449403 1_555
Bi21 O45 2.664634 1_655
Bi22 O49 2.120629 1_555
Bi22 O43 2.205596 1_554
Bi22 O13 2.234483 1_555
Bi22 O44 2.584037 1_554
Bi22 O47 2.816659 1_555
Bi23 O16 2.125679 1_555
Bi23 O0 2.246857 1_655
Bi23 O9 2.282389 1_555
Bi23 O53 2.504338 1_555
Bi23 O49 2.676917 1_555
Bi24 O79 2.123476 1_555
Bi24 O45 2.214055 1_655
Bi24 O52 2.296023 1_655
Bi24 O42 2.451576 1_555
Bi25 O45 2.120202 1_555
Bi25 O48 2.205413 1_555
Bi25 O12 2.232622 1_555
Bi25 O54 2.591811 1_555
Bi25 O46 2.810180 1_555
Bi26 O57 2.132415 1_555
Bi26 O49 2.200558 1_555
Bi26 O51 2.286861 1_555
Bi26 O53 2.464363 1_555
Bi27 O87 2.122802 1_555
Bi27 O59 2.190708 1_555
Bi27 O21 2.245655 1_555
Bi27 O57 2.585910 1_555
Bi27 O47 2.839585 1_555
Bi28 O53 2.098497 1_456
Bi28 O54 2.220262 1_555
Bi28 O58 2.253470 1_556
Bi28 O48 2.577869 1_555
Bi28 O1 2.834959 1_556
Bi29 O54 2.120691 1_555
Bi29 O52 2.210034 1_555
Bi29 O56 2.223509 1_555
Bi29 O60 2.659139 1_555
Bi29 O55 2.793491 1_455
Bi30 O63 2.127405 1_555
Bi30 O58 2.220611 1_655
Bi30 O57 2.235542 1_555
Bi30 O59 2.654196 1_555
Bi30 O26 2.791957 1_655
Bi31 O62 2.119707 1_654
Bi31 O64 2.211546 1_555
Bi31 O61 2.234124 1_554
Bi31 O63 2.581807 1_555
Bi31 O55 2.812516 1_554
Bi32 O24 2.130199 1_555
Bi32 O60 2.203849 1_555
Bi32 O31 2.225361 1_555
Bi32 O56 2.639349 1_555
Bi32 O30 2.827328 1_555
Bi33 O60 2.120700 1_555
Bi33 O62 2.207827 1_555
Bi33 O58 2.297444 1_556
Bi33 O65 2.448096 1_555
Bi34 O69 2.093201 1_555
Bi34 O63 2.218620 1_555
Bi34 O32 2.264281 1_555
Bi34 O64 2.551778 1_555
Bi34 O67 2.847550 1_555
Bi35 O36 2.127864 1_555
Bi35 O73 2.214399 1_555
Bi35 O5 2.268870 1_555
Bi35 O69 2.500465 1_455
Bi36 O94 2.126872 1_555
Bi36 O72 2.248191 1_555
Bi36 O70 2.298163 1_455
Bi36 O65 2.484382 1_555
Bi36 O62 2.657030 1_555
Bi37 O65 2.106916 1_555
Bi37 O68 2.221096 1_556
Bi37 O31 2.264216 1_555
Bi37 O74 2.564055 1_556
Bi37 O66 2.831792 1_555
Bi38 O77 2.126302 1_455
Bi38 O71 2.249847 1_455
Bi38 O75 2.313458 1_555
Bi38 O69 2.441931 1_455
Bi38 O73 2.661542 1_555
Bi39 O97 2.101965 1_555
Bi39 O79 2.221800 1_555
Bi39 O41 2.256725 1_555
Bi39 O77 2.576508 1_555
Bi39 O67 2.837983 1_555
Bi40 O73 2.118840 1_555
Bi40 O74 2.206786 1_555
Bi40 O78 2.234706 1_555
Bi40 O68 2.591172 1_555
Bi40 O11 2.815517 1_555
Bi41 O74 2.127811 1_556
Bi41 O72 2.251827 1_555
Bi41 O75 2.307077 1_556
Bi41 O76 2.449403 1_555
Bi41 O80 2.664634 1_556
Bi42 O82 2.120629 1_555
Bi42 O77 2.205596 1_455
Bi42 O78 2.234483 1_555
Bi42 O79 2.584037 1_455
Bi42 O46 2.816659 1_555
Bi43 O81 2.125679 1_555
Bi43 O0 2.246857 1_565
Bi43 O75 2.282389 1_555
Bi43 O83 2.504338 1_555
Bi43 O82 2.676917 1_555
Bi44 O44 2.123476 1_555
Bi44 O80 2.214055 1_556
Bi44 O51 2.296023 1_556
Bi44 O76 2.451576 1_555
Bi45 O80 2.120202 1_555
Bi45 O81 2.205413 1_555
Bi45 O78 2.232621 1_555
Bi45 O84 2.591811 1_555
Bi45 O47 2.810179 1_555
Bi46 O88 2.132414 1_555
Bi46 O82 2.200558 1_555
Bi46 O52 2.286861 1_555
Bi46 O83 2.464363 1_555
Bi47 O56 2.122803 1_555
Bi47 O89 2.190708 1_555
Bi47 O21 2.245655 1_555
Bi47 O88 2.585910 1_555
Bi47 O46 2.839585 1_555
Bi48 O19 2.098497 1_564
Bi48 O84 2.220262 1_555
Bi48 O3 2.253470 1_565
Bi48 O81 2.577869 1_555
Bi48 O1 2.834958 1_565
Bi49 O84 2.120691 1_555
Bi49 O51 2.210034 1_555
Bi49 O87 2.223509 1_555
Bi49 O90 2.659139 1_555
Bi49 O85 2.793491 1_554
Bi50 O92 2.127405 1_555
Bi50 O2 2.220611 1_565
Bi50 O88 2.235542 1_555
Bi50 O89 2.654196 1_555
Bi50 O4 2.791957 1_565
Bi51 O28 2.119707 1_465
Bi51 O94 2.211546 1_555
Bi51 O61 2.234125 1_455
Bi51 O92 2.581807 1_555
Bi51 O86 2.812516 1_455
Bi52 O89 2.130199 1_555
Bi52 O90 2.203849 1_555
Bi52 O93 2.225361 1_555
Bi52 O87 2.639349 1_555
Bi52 O30 2.827328 1_555
Bi53 O90 2.120700 1_555
Bi53 O91 2.207827 1_555
Bi53 O3 2.297445 1_565
Bi53 O95 2.448096 1_555
Bi54 O96 2.093201 1_555
Bi54 O92 2.218620 1_555
Bi54 O93 2.264281 1_555
Bi54 O94 2.551778 1_555
Bi54 O66 2.847550 1_555
Bi55 O64 2.126872 1_555
Bi55 O71 2.248191 1_555
Bi55 O70 2.298163 1_554
Bi55 O95 2.484382 1_555
Bi55 O91 2.657030 1_555
Bi56 O95 2.106916 1_555
Bi56 O6 2.221096 1_565
Bi56 O93 2.264216 1_555
Bi56 O8 2.564055 1_565
Bi56 O67 2.831792 1_555
Bi57 O76 2.101965 1_555
Bi57 O99 2.221800 1_555
Bi57 O41 2.256725 1_555
Bi57 O98 2.576508 1_555
Bi57 O66 2.837983 1_555
Bi58 O8 2.127811 1_565
Bi58 O71 2.251827 1_555
Bi58 O9 2.307077 1_565
Bi58 O97 2.449403 1_555
Bi58 O14 2.664634 1_565
Bi59 O99 2.123476 1_555
Bi59 O14 2.214055 1_565
Bi59 O18 2.296023 1_565
Bi59 O97 2.451576 1_555
O1 P0 1.581272 1_555
O4 P0 1.568832 1_555
O11 P1 1.568955 1_555
O15 P1 1.570077 1_555
O26 P0 1.568832 1_555
O27 P0 1.568832 1_555
O30 P2 1.570030 1_555
O35 P2 1.570976 1_555
O46 P1 1.570077 1_555
O47 P1 1.570077 1_555
O50 P3 1.557174 1_555
O55 P3 1.576524 1_555
O66 P2 1.570976 1_555
O67 P2 1.570976 1_555
O85 P3 1.576524 1_555
O86 P3 1.576524 1_555
