# generated using pymatgen
data_Ba(H2O3)2
_symmetry_space_group_name_H-M   'P 1'
_cell_length_a   6.37757500
_cell_length_b   6.71170894
_cell_length_c   6.79683522
_cell_angle_alpha   100.49122280
_cell_angle_beta   100.70738321
_cell_angle_gamma   93.65463593
_symmetry_Int_Tables_number   1
_chemical_formula_structural   Ba(H2O3)2
_chemical_formula_sum   'Ba2 H8 O12'
_cell_volume   279.65313005
_cell_formula_units_Z   2
loop_
 _symmetry_equiv_pos_site_id
 _symmetry_equiv_pos_as_xyz
  1  'x, y, z'
loop_
 _atom_site_type_symbol
 _atom_site_label
 _atom_site_symmetry_multiplicity
 _atom_site_fract_x
 _atom_site_fract_y
 _atom_site_fract_z
 _atom_site_occupancy
  Ba  Ba0  1  0.16234800  0.76601400  0.67717000  1
  Ba  Ba1  1  0.85710000  0.17554500  0.22261100  1
  H  H0  1  0.35238600  0.98100300  0.25616200  1
  H  H1  1  0.32191700  0.31770000  0.12907800  1
  H  H2  1  0.62805700  0.74122000  0.40630000  1
  H  H3  1  0.57067600  0.95795700  0.72789700  1
  H  H4  1  0.30156700  0.34165700  0.50324100  1
  H  H5  1  0.00333600  0.24641100  0.69618800  1
  H  H6  1  0.77594300  0.10891800  0.63724700  1
  H  H7  1  0.87636100  0.69506800  0.15638900  1
  O  O0  1  0.26388700  0.03097900  0.12804000  1
  O  O1  1  0.89376600  0.76430100  0.30253900  1
  O  O2  1  0.83783000  0.82219100  0.91436900  1
  O  O3  1  0.93004100  0.11494900  0.62026200  1
  O  O4  1  0.40926300  0.20160700  0.10644700  1
  O  O5  1  0.74675300  0.63990100  0.38701900  1
  O  O6  1  0.62792500  0.86779400  0.90354300  1
  O  O7  1  0.18104300  0.41452400  0.45524000  1
  O  O8  1  0.51799000  0.04556100  0.61544500  1
  O  O9  1  0.91827900  0.47390100  0.96982500  1
  O  O10  1  0.46360400  0.88875500  0.42325500  1
  O  O11  1  0.11749600  0.47094000  0.93932400  1
loop_
_geom_bond_atom_site_label_1
_geom_bond_atom_site_label_2
_geom_bond_distance
_geom_bond_site_symmetry_2
Ba0 O7 2.581023 1_555
Ba0 H3 2.763510 1_555
Ba0 O1 2.789975 1_455
Ba0 O2 2.853548 1_455
Ba0 O3 2.896313 1_465
Ba0 O11 2.929358 1_555
Ba0 O5 2.965560 1_455
Ba0 O10 2.982700 1_555
Ba0 O8 2.989721 1_565
Ba0 O6 3.051475 1_555
Ba0 O0 3.178705 1_566
Ba1 O7 2.604052 1_655
Ba1 O3 2.764777 1_555
Ba1 O6 2.812786 1_544
Ba1 O2 2.843708 1_544
Ba1 O4 2.843838 1_555
Ba1 O9 2.918325 1_554
Ba1 O1 2.923932 1_545
Ba1 O0 2.966230 1_655
Ba1 O5 3.280372 1_555
H0 O0 1.066430 1_565
H0 O10 1.479523 1_555
H1 O4 0.992282 1_555
H2 O5 1.059565 1_555
H2 O10 1.493171 1_555
H3 O8 1.065931 1_565
H3 O6 1.433195 1_555
H4 O7 0.974317 1_555
H5 O3 0.977393 1_455
H6 O3 1.009750 1_555
H7 O1 0.999678 1_555
O2 O6 1.383838 1_555
O11 O9 1.325590 1_455
