# generated using pymatgen
data_FeSbPt
_symmetry_space_group_name_H-M   'P 1'
_cell_length_a   6.13928500
_cell_length_b   6.13928500
_cell_length_c   6.13928500
_cell_angle_alpha   90.00000000
_cell_angle_beta   90.00000000
_cell_angle_gamma   90.00000000
_symmetry_Int_Tables_number   1
_chemical_formula_structural   FeSbPt
_chemical_formula_sum   'Fe4 Sb4 Pt4'
_cell_volume   231.39468777
_cell_formula_units_Z   4
loop_
 _symmetry_equiv_pos_site_id
 _symmetry_equiv_pos_as_xyz
  1  'x, y, z'
loop_
 _atom_site_type_symbol
 _atom_site_label
 _atom_site_symmetry_multiplicity
 _atom_site_fract_x
 _atom_site_fract_y
 _atom_site_fract_z
 _atom_site_occupancy
  Fe  Fe0  1  0.62156800  0.37843200  0.87843200  1
  Fe  Fe1  1  0.37843200  0.87843200  0.62156800  1
  Fe  Fe2  1  0.12156800  0.12156800  0.12156800  1
  Fe  Fe3  1  0.87843200  0.62156800  0.37843200  1
  Sb  Sb0  1  0.11320300  0.38679700  0.61320300  1
  Sb  Sb1  1  0.61320300  0.11320300  0.38679700  1
  Sb  Sb2  1  0.38679700  0.61320300  0.11320300  1
  Sb  Sb3  1  0.88679700  0.88679700  0.88679700  1
  Pt  Pt0  1  0.46686100  0.03313900  0.96686100  1
  Pt  Pt1  1  0.96686100  0.46686100  0.03313900  1
  Pt  Pt2  1  0.03313900  0.96686100  0.46686100  1
  Pt  Pt3  1  0.53313900  0.53313900  0.53313900  1
loop_
_geom_bond_atom_site_label_1
_geom_bond_atom_site_label_2
_geom_bond_distance
_geom_bond_site_symmetry_2
Fe0 Pt1 2.385499 1_556
Fe0 Pt3 2.385499 1_555
Fe0 Pt0 2.385499 1_555
Fe0 Sb2 2.496450 1_556
Fe1 Pt0 2.385499 1_565
Fe1 Pt3 2.385499 1_555
Fe1 Pt2 2.385499 1_555
Fe1 Sb1 2.496450 1_565
Fe2 Pt2 2.385499 1_545
Fe2 Pt1 2.385499 1_455
Fe2 Pt0 2.385499 1_554
Fe2 Sb3 2.496450 1_444
Fe3 Pt2 2.385499 1_655
Fe3 Pt3 2.385499 1_555
Fe3 Pt1 2.385499 1_555
Fe3 Sb0 2.496450 1_655
Pt0 Sb1 2.774063 1_556
Pt0 Sb2 2.774063 1_546
Pt0 Sb3 2.774063 1_545
Pt1 Sb2 2.774063 1_655
Pt1 Sb0 2.774063 1_654
Pt1 Sb3 2.774063 1_554
Pt2 Sb0 2.774063 1_565
Pt2 Sb1 2.774063 1_465
Pt2 Sb3 2.774063 1_455
Pt3 Sb2 2.774063 1_555
Pt3 Sb1 2.774063 1_555
Pt3 Sb0 2.774063 1_555
