# generated using pymatgen
data_Os5(CO)19
_symmetry_space_group_name_H-M   'P 1'
_cell_length_a   8.96848400
_cell_length_b   10.36884002
_cell_length_c   16.72358467
_cell_angle_alpha   99.90585183
_cell_angle_beta   93.63337254
_cell_angle_gamma   110.12759086
_symmetry_Int_Tables_number   1
_chemical_formula_structural   Os5(CO)19
_chemical_formula_sum   'Os10 C38 O38'
_cell_volume   1425.74120704
_cell_formula_units_Z   2
loop_
 _symmetry_equiv_pos_site_id
 _symmetry_equiv_pos_as_xyz
  1  'x, y, z'
loop_
 _atom_site_type_symbol
 _atom_site_label
 _atom_site_symmetry_multiplicity
 _atom_site_fract_x
 _atom_site_fract_y
 _atom_site_fract_z
 _atom_site_occupancy
  Os  Os0  1  0.16304100  0.48049600  0.76513500  1
  Os  Os1  1  0.98019000  0.18750800  0.67484600  1
  Os  Os2  1  0.18822800  0.73303700  0.88777900  1
  Os  Os3  1  0.56693400  0.24311300  0.22213000  1
  Os  Os4  1  0.67826800  0.68840400  0.33935400  1
  Os  Os5  1  0.01981000  0.81249200  0.32515400  1
  Os  Os6  1  0.83695900  0.51950400  0.23486500  1
  Os  Os7  1  0.32173200  0.31159600  0.66064600  1
  Os  Os8  1  0.81177200  0.26696300  0.11222100  1
  Os  Os9  1  0.43306600  0.75688700  0.77787000  1
  C  C0  1  0.06408300  0.74240000  0.42251500  1
  C  C1  1  0.69637100  0.17041800  0.28653300  1
  C  C2  1  0.02318300  0.13693600  0.77906900  1
  C  C3  1  0.75855400  0.14310100  0.68596000  1
  C  C4  1  0.96263700  0.01083300  0.61108200  1
  C  C5  1  0.33043000  0.16224200  0.57880000  1
  C  C6  1  0.91972000  0.45634900  0.32466300  1
  C  C7  1  0.45034100  0.32923600  0.15907900  1
  C  C8  1  0.45712800  0.26764100  0.31459600  1
  C  C9  1  0.93591700  0.25760000  0.57748500  1
  C  C10  1  0.03741700  0.75759300  0.80749300  1
  C  C11  1  0.64986400  0.78378000  0.25152400  1
  C  C12  1  0.54635100  0.42169900  0.67906400  1
  C  C13  1  0.96592200  0.42392400  0.80818800  1
  C  C14  1  0.54965900  0.67076400  0.84092100  1
  C  C15  1  0.08028000  0.54365100  0.67533700  1
  C  C16  1  0.97801100  0.33271900  0.04627800  1
  C  C17  1  0.45364900  0.57830100  0.32093600  1
  C  C18  1  0.71898400  0.58428200  0.42051000  1
  C  C19  1  0.72760200  0.57262300  0.14954400  1
  C  C20  1  0.30362900  0.82958200  0.71346700  1
  C  C21  1  0.03407800  0.57607600  0.19181200  1
  C  C22  1  0.42962200  0.05875700  0.16762800  1
  C  C23  1  0.57037800  0.94124300  0.83237200  1
  C  C24  1  0.73419200  0.07319700  0.06053900  1
  C  C25  1  0.96258300  0.24240700  0.19250700  1
  C  C26  1  0.28101600  0.41571800  0.57949000  1
  C  C27  1  0.02198900  0.66728100  0.95372200  1
  C  C28  1  0.24144600  0.85689900  0.31404000  1
  C  C29  1  0.26580800  0.92680300  0.93946100  1
  C  C30  1  0.35013600  0.21622000  0.74847600  1
  C  C31  1  0.03736300  0.98916700  0.38891800  1
  C  C32  1  0.54287200  0.73235900  0.68540400  1
  C  C33  1  0.33441300  0.69296500  0.96402900  1
  C  C34  1  0.97681700  0.86306400  0.22093100  1
  C  C35  1  0.66957000  0.83775800  0.42120000  1
  C  C36  1  0.27239800  0.42737700  0.85045600  1
  C  C37  1  0.66558700  0.30703500  0.03597100  1
  O  O0  1  0.15377200  0.60924700  0.16323600  1
  O  O1  1  0.89376700  0.28979800  0.51990800  1
  O  O2  1  0.33338800  0.39564100  0.90331400  1
  O  O3  1  0.68442400  0.48085200  0.68931300  1
  O  O4  1  0.36863100  0.37227100  0.12386800  1
  O  O5  1  0.02375400  0.58011000  0.62304300  1
  O  O6  1  0.23827800  0.87883600  0.67279700  1
  O  O7  1  0.05819500  0.22496300  0.23479500  1
  O  O8  1  0.65791700  0.05233700  0.86555500  1
  O  O9  1  0.03759800  0.10163900  0.84024300  1
  O  O10  1  0.66661200  0.60435900  0.09668600  1
  O  O11  1  0.33923900  0.07343900  0.52852000  1
  O  O12  1  0.41153300  0.67250800  0.01469600  1
  O  O13  1  0.97624600  0.41989000  0.37695700  1
  O  O14  1  0.84622800  0.39075300  0.83676400  1
  O  O15  1  0.96240200  0.89836100  0.15975700  1
  O  O16  1  0.66076100  0.92656100  0.47148000  1
  O  O17  1  0.94900100  0.90178400  0.57299700  1
  O  O18  1  0.76172200  0.12116400  0.32720300  1
  O  O19  1  0.92621500  0.63237000  0.99688000  1
  O  O20  1  0.34208300  0.94766300  0.13444500  1
  O  O21  1  0.69122100  0.95531800  0.02895400  1
  O  O22  1  0.38916600  0.27257100  0.37137400  1
  O  O23  1  0.62086600  0.11094200  0.68632000  1
  O  O24  1  0.10623300  0.71020200  0.48009200  1
  O  O25  1  0.58846700  0.32749200  0.98530400  1
  O  O26  1  0.73229600  0.52410900  0.47116400  1
  O  O27  1  0.37913400  0.88905800  0.31368000  1
  O  O28  1  0.31557600  0.51914800  0.31068700  1
  O  O29  1  0.07378500  0.36763000  0.00312000  1
  O  O30  1  0.30877900  0.04468200  0.97104600  1
  O  O31  1  0.94180500  0.77503700  0.76520500  1
  O  O32  1  0.63136900  0.62772900  0.87613200  1
  O  O33  1  0.62424400  0.84173400  0.20202500  1
  O  O34  1  0.37575600  0.15826600  0.79797500  1
  O  O35  1  0.05099900  0.09821600  0.42700300  1
  O  O36  1  0.26770400  0.47589100  0.52883600  1
  O  O37  1  0.61083400  0.72742900  0.62862600  1
loop_
_geom_bond_atom_site_label_1
_geom_bond_atom_site_label_2
_geom_bond_distance
_geom_bond_site_symmetry_2
C0 O24 1.154492 1_555
C0 Os5 1.964886 1_555
C1 O18 1.158415 1_555
C1 Os3 1.949059 1_555
C2 O9 1.158410 1_555
C2 Os1 1.957054 1_455
C3 O23 1.163759 1_555
C3 Os1 1.908936 1_555
C4 O17 1.160305 1_545
C4 Os1 1.904195 1_555
C5 O11 1.163284 1_555
C5 Os7 1.909242 1_555
C6 O13 1.163698 1_555
C6 Os6 1.940764 1_555
C7 O4 1.159156 1_555
C7 Os3 1.956926 1_555
C8 O22 1.163542 1_555
C8 Os3 1.912017 1_555
C9 O1 1.154492 1_555
C9 Os1 1.964886 1_555
C10 O31 1.158467 1_455
C10 Os2 1.954850 1_555
C11 O33 1.158109 1_555
C11 Os4 1.956040 1_555
C12 O3 1.163266 1_555
C12 Os7 1.916760 1_555
C13 O14 1.168972 1_555
C13 Os0 1.892289 1_655
C14 O32 1.159156 1_555
C14 Os9 1.956926 1_555
C15 O5 1.163698 1_555
C15 Os0 1.940764 1_555
C16 O29 1.159412 1_655
C16 Os8 1.916079 1_555
C17 O28 1.163266 1_555
C17 Os4 1.916760 1_555
C18 O26 1.158204 1_555
C18 Os4 1.963066 1_555
C19 O10 1.162569 1_555
C19 Os6 1.940626 1_555
C20 O6 1.158415 1_555
C20 Os9 1.949059 1_555
C21 O0 1.168972 1_555
C21 Os6 1.892289 1_455
C22 O20 1.163477 1_545
C22 Os3 1.907757 1_555
C23 O8 1.163477 1_565
C23 Os9 1.907757 1_555
C24 O21 1.161618 1_545
C24 Os8 1.905775 1_555
C25 O7 1.158467 1_655
C25 Os8 1.954850 1_555
C26 O36 1.158204 1_555
C26 Os7 1.963066 1_555
C27 O19 1.159412 1_455
C27 Os2 1.916079 1_555
C28 O27 1.163759 1_555
C28 Os5 1.908936 1_555
C29 O30 1.161618 1_565
C29 Os2 1.905775 1_555
C30 O34 1.158109 1_555
C30 Os7 1.956040 1_555
C31 O35 1.160305 1_565
C31 Os5 1.904195 1_555
C32 O37 1.163542 1_555
C32 Os9 1.912017 1_555
C33 O12 1.153202 1_556
C33 Os2 1.965423 1_555
C34 O15 1.158410 1_555
C34 Os5 1.957054 1_655
C35 O16 1.163284 1_555
C35 Os4 1.909242 1_555
C36 O2 1.162569 1_555
C36 Os0 1.940626 1_555
C37 O25 1.153202 1_554
C37 Os8 1.965423 1_555
