# generated using pymatgen
data_KGdCO3F2
_symmetry_space_group_name_H-M   'P 1'
_cell_length_a   12.40850418
_cell_length_b   11.59199053
_cell_length_c   6.67499573
_cell_angle_alpha   80.71869641
_cell_angle_beta   67.21537629
_cell_angle_gamma   32.06592730
_symmetry_Int_Tables_number   1
_chemical_formula_structural   KGdCO3F2
_chemical_formula_sum   'K4 Gd4 C4 O12 F8'
_cell_volume   441.78495047
_cell_formula_units_Z   4
loop_
 _symmetry_equiv_pos_site_id
 _symmetry_equiv_pos_as_xyz
  1  'x, y, z'
loop_
 _atom_site_type_symbol
 _atom_site_label
 _atom_site_symmetry_multiplicity
 _atom_site_fract_x
 _atom_site_fract_y
 _atom_site_fract_z
 _atom_site_occupancy
  K  K0  1  0.95009600  0.96330500  0.79215600  1
  K  K1  1  0.79515000  0.78748500  0.95202700  1
  K  K2  1  0.20003700  0.21150700  0.04516500  1
  K  K3  1  0.03530400  0.05098200  0.21228900  1
  Gd  Gd0  1  0.55293800  0.20009500  0.55936600  1
  Gd  Gd1  1  0.80270400  0.45023000  0.80921500  1
  Gd  Gd2  1  0.18655100  0.56002100  0.19912900  1
  Gd  Gd3  1  0.44102400  0.80521300  0.43994400  1
  C  C0  1  0.75433400  0.74086800  0.50365600  1
  C  C1  1  0.50283800  0.49865200  0.74581200  1
  C  C2  1  0.24900000  0.25427000  0.49355300  1
  C  C3  1  0.49759600  0.49514100  0.25997100  1
  O  O0  1  0.31173500  0.31378100  0.43037600  1
  O  O1  1  0.68678800  0.68873500  0.55523800  1
  O  O2  1  0.06593800  0.38007000  0.67914600  1
  O  O3  1  0.68027600  0.37429300  0.06386200  1
  O  O4  1  0.62945700  0.31644200  0.61169400  1
  O  O5  1  0.43045300  0.44339000  0.32000800  1
  O  O6  1  0.37999600  0.07059100  0.37208100  1
  O  O7  1  0.37355100  0.67630100  0.38340700  1
  O  O8  1  0.93063200  0.61702300  0.31719300  1
  O  O9  1  0.30722500  0.63876100  0.94239700  1
  O  O10  1  0.56502000  0.56285400  0.69086500  1
  O  O11  1  0.61064900  0.94379600  0.63204300  1
  F  F0  1  0.18492500  0.52917900  0.85714300  1
  F  F1  1  0.52313900  0.19295700  0.94052700  1
  F  F2  1  0.84821100  0.93108700  0.18709400  1
  F  F3  1  0.80691900  0.47839900  0.15431200  1
  F  F4  1  0.92790300  0.85758200  0.52557800  1
  F  F5  1  0.07432700  0.14713800  0.46879700  1
  F  F6  1  0.47320700  0.80544800  0.07284200  1
  F  F7  1  0.14357500  0.07452800  0.81678000  1
loop_
_geom_bond_atom_site_label_1
_geom_bond_atom_site_label_2
_geom_bond_distance
_geom_bond_site_symmetry_2
K0 O3 2.871512 1_566
K0 O7 2.883994 1_655
K0 O4 2.924931 1_565
K0 O9 2.960701 1_655
K1 O2 2.837437 1_655
K1 O6 2.880357 1_566
K1 O11 2.931675 1_555
K1 O8 2.943141 1_556
K2 O8 2.826189 1_455
K2 O11 2.876458 1_544
K2 O2 2.941796 1_554
K2 O6 2.976344 1_555
K3 O4 2.814279 1_455
K3 O9 2.864598 1_544
K3 O3 2.938459 1_455
K3 O7 3.000195 1_545
Gd0 O4 2.328460 1_555
Gd0 O11 2.402766 1_545
Gd0 O5 2.445199 1_555
Gd0 O0 2.526027 1_555
Gd1 O2 2.369191 1_655
Gd1 O3 2.399106 1_556
Gd1 O10 2.443936 1_555
Gd1 O1 2.494698 1_555
Gd2 O8 2.411468 1_455
Gd2 O9 2.415867 1_554
Gd2 O0 2.421605 1_555
Gd2 O5 2.498577 1_555
Gd3 O7 2.371411 1_555
Gd3 O6 2.471826 1_565
Gd3 O10 2.493461 1_555
Gd3 O1 2.493795 1_555
C0 O8 1.241105 1_555
C0 O1 1.324419 1_555
C0 O11 1.343572 1_555
C1 O4 1.275631 1_555
C1 O9 1.338004 1_555
C1 O10 1.396339 1_555
C2 O6 1.226082 1_555
C2 O2 1.268844 1_555
C2 O0 1.349734 1_555
C3 O7 1.247186 1_555
C3 O3 1.313589 1_555
C3 O5 1.313604 1_555
F0 Gd0 2.290591 1_555
F0 Gd2 2.377047 1_556
F0 K1 2.540262 1_455
F0 K0 3.070078 1_455
F1 Gd2 2.278917 1_556
F1 Gd0 2.423234 1_555
F1 K1 2.585804 1_545
F1 K0 3.003005 1_545
F2 Gd0 2.325145 1_565
F2 Gd2 2.382633 1_655
F2 K0 2.566842 1_554
F2 K1 3.027666 1_554
F3 Gd3 2.252492 1_555
F3 Gd1 2.404258 1_554
F3 K2 2.508667 1_655
F3 K3 3.026933 1_655
F4 Gd2 2.278458 1_655
F4 Gd0 2.372595 1_565
F4 K0 2.529632 1_555
F4 K1 3.060599 1_555
F5 Gd1 2.332448 1_455
F5 Gd3 2.334856 1_545
F5 K3 2.565346 1_555
F5 K2 2.976874 1_555
F6 Gd1 2.235855 1_554
F6 Gd3 2.325023 1_555
F6 K2 2.615816 1_565
F6 K3 3.036052 1_565
F7 Gd3 2.347111 1_545
F7 Gd1 2.394461 1_455
F7 K3 2.547760 1_556
F7 K2 2.971483 1_556
