# generated using pymatgen
data_K4(BSe)9
_symmetry_space_group_name_H-M   'P 1'
_cell_length_a   9.92509376
_cell_length_b   16.09923785
_cell_length_c   22.47988823
_cell_angle_alpha   107.33926179
_cell_angle_beta   97.11219504
_cell_angle_gamma   105.76030092
_symmetry_Int_Tables_number   1
_chemical_formula_structural   K4(BSe)9
_chemical_formula_sum   'K24 B54 Se54'
_cell_volume   3216.84000747
_cell_formula_units_Z   6
loop_
 _symmetry_equiv_pos_site_id
 _symmetry_equiv_pos_as_xyz
  1  'x, y, z'
loop_
 _atom_site_type_symbol
 _atom_site_label
 _atom_site_symmetry_multiplicity
 _atom_site_fract_x
 _atom_site_fract_y
 _atom_site_fract_z
 _atom_site_occupancy
  K  K0  1  0.30308720  0.39783865  0.14452491  1
  K  K1  1  0.85185330  0.85078389  0.71598653  1
  K  K2  1  0.82261303  0.91388927  0.36893455  1
  K  K3  1  0.34110743  0.82507673  0.61937418  1
  K  K4  1  0.44757840  0.83849070  -0.00013150  1
  K  K5  1  0.21988147  0.74544283  0.80425118  1
  K  K6  1  0.79495470  0.75512380  0.14841714  1
  K  K7  1  0.82295066  0.60609521  0.51868241  1
  K  K8  1  0.57993398  0.10003345  0.83011172  1
  K  K9  1  0.74825800  0.26894313  0.16963785  1
  K  K10  1  0.81105175  0.39071914  0.99932573  1
  K  K11  1  0.64522226  0.60633934  0.85225088  1
  K  K12  1  0.48332319  0.50676272  -0.00007113  1
  K  K13  1  0.72007760  0.20608938  0.38047171  1
  K  K14  1  0.16003143  0.25160778  0.85378254  1
  K  K15  1  0.30361940  0.08678187  0.48095335  1
  K  K16  1  0.13743177  0.59611288  0.00083986  1
  K  K17  1  0.17421693  0.36876476  0.44759316  1
  K  K18  1  0.41494471  0.94060184  0.19541619  1
  K  K19  1  0.45351192  0.54441919  0.63111971  1
  K  K20  1  0.57914027  0.48438877  0.31878972  1
  K  K21  1  0.13643158  0.13577704  0.28426299  1
  K  K22  1  0.72693839  0.92002165  0.55232485  1
  K  K23  1  0.26026363  0.16505451  0.67987190  1
  B  B0  1  0.10586378  0.58839974  0.26092982  1
  B  B1  1  0.02787678  0.39739174  0.31678386  1
  B  B2  1  0.16419865  0.01425587  0.83377228  1
  B  B3  1  0.14327066  0.77466376  0.33162379  1
  B  B4  1  0.11954053  0.87007204  0.49506489  1
  B  B5  1  0.80252963  0.25688238  0.60180461  1
  B  B6  1  0.98516843  0.02259069  0.93161939  1
  B  B7  1  0.45935884  0.68062226  0.49261623  1
  B  B8  1  0.01377686  0.66448668  0.29213292  1
  B  B9  1  0.90865323  0.44167580  0.73857938  1
  B  B10  1  0.83658437  0.98506912  0.16661856  1
  B  B11  1  0.05731373  0.91032047  0.00018118  1
  B  B12  1  0.09841850  0.27473925  0.99935493  1
  B  B13  1  0.81004738  0.51311974  0.17703305  1
  B  B14  1  0.99521722  0.62101765  0.66305625  1
  B  B15  1  0.05385763  0.09143407  0.06842651  1
  B  B16  1  0.71634114  0.25770448  0.66567545  1
  B  B17  1  0.98370755  0.32545779  0.63269602  1
  B  B18  1  0.72232030  0.37290974  0.70749738  1
  B  B19  1  0.63309542  0.33681255  0.82256783  1
  B  B20  1  0.81221738  0.44345068  0.66788437  1
  B  B21  1  0.66943306  0.81828830  0.83345580  1
  B  B22  1  0.84567847  0.32819653  0.73887488  1
  B  B23  1  0.94005079  0.08958849  0.99995451  1
  B  B24  1  0.87281224  0.01647963  0.04312107  1
  B  B25  1  0.94538738  0.90917994  0.93187195  1
  B  B26  1  0.25383831  0.76869940  0.39835037  1
  B  B27  1  0.34991039  0.69192290  0.36703045  1
  B  B28  1  0.19966949  0.65440155  0.39797511  1
  B  B29  1  0.01382618  0.36987074  0.71802828  1
  B  B30  1  0.98905566  0.43949551  0.67147614  1
  B  B31  1  0.82957771  0.97319463  0.95705168  1
  B  B32  1  0.96674283  0.18839257  0.50702749  1
  B  B33  1  0.21928622  0.58073848  0.32478376  1
  B  B34  1  0.85614080  0.37074407  0.60126299  1
  B  B35  1  0.33090536  0.95713414  0.33654029  1
  B  B36  1  0.06967812  0.70679167  0.37748477  1
  B  B37  1  0.01408212  0.97792284  0.06839976  1
  B  B38  1  0.62446015  0.37494687  0.50454184  1
  B  B39  1  0.69292341  0.32959307  0.62214700  1
  B  B40  1  0.31662369  0.76715282  0.32818176  1
  B  B41  1  0.12156696  0.09556288  -0.00002367  1
  B  B42  1  0.18503334  0.52698263  0.83610068  1
  B  B43  1  0.87730023  0.90597085  0.00021669  1
  B  B44  1  0.16914276  0.70206891  0.26106316  1
  B  B45  1  0.29479293  0.65087408  0.28175147  1
  B  B46  1  0.89552258  0.25667777  0.67507684  1
  B  B47  1  0.88842889  0.72307333  0.00026336  1
  B  B48  1  0.16946526  0.02722111  0.04290563  1
  B  B49  1  0.04948428  0.59125309  0.33413355  1
  B  B50  1  0.12634972  0.98406675  0.95717614  1
  B  B51  1  0.33066954  0.18040746  0.16659406  1
  B  B52  1  0.34901959  0.69039223  0.16389857  1
  B  B53  1  0.71261973  0.08128779  0.68296079  1
  Se  Se0  1  0.99980309  0.54904366  0.82039095  1
  Se  Se1  1  0.08326499  0.96566984  0.55727264  1
  Se  Se2  1  0.86054749  0.80264957  0.85010432  1
  Se  Se3  1  0.95126636  0.27037847  0.30269939  1
  Se  Se4  1  0.36313174  0.07562474  0.10254187  1
  Se  Se5  1  0.91707892  0.14134915  0.68515440  1
  Se  Se6  1  0.76860267  0.15166823  0.52027332  1
  Se  Se7  1  0.13900362  0.19549955  0.15137384  1
  Se  Se8  1  0.99201494  0.48505370  0.17984266  1
  Se  Se9  1  0.20293515  0.41143554  0.77939002  1
  Se  Se10  1  0.46072796  0.88274077  0.33076519  1
  Se  Se11  1  0.81170938  0.62831646  0.24297965  1
  Se  Se12  1  0.14727431  0.39801852  0.99870984  1
  Se  Se13  1  0.83510775  0.39599930  0.51895709  1
  Se  Se14  1  0.95800969  0.75840347  0.43885713  1
  Se  Se15  1  0.23019174  0.45519166  0.31484808  1
  Se  Se16  1  0.53802197  0.70700897  0.42036445  1
  Se  Se17  1  0.12654275  0.89564788  0.33212520  1
  Se  Se18  1  0.34551355  0.61462012  0.90198045  1
  Se  Se19  1  0.56930294  0.38613206  0.75651185  1
  Se  Se20  1  0.08809230  0.79195632  0.00039572  1
  Se  Se21  1  0.90060198  0.20501046  0.99948878  1
  Se  Se22  1  0.47390455  0.26049893  0.24076628  1
  Se  Se23  1  0.13076784  0.55252713  0.66909761  1
  Se  Se24  1  0.23453084  0.02194192  0.76019288  1
  Se  Se25  1  0.74736062  0.78792139  0.00051515  1
  Se  Se26  1  0.58511740  0.70727187  0.57212828  1
  Se  Se27  1  0.01200119  0.13540139  0.42737109  1
  Se  Se28  1  0.25991964  0.97253889  0.89741641  1
  Se  Se29  1  0.44438374  0.71279622  0.09836681  1
  Se  Se30  1  0.11814752  0.28707167  0.57918567  1
  Se  Se31  1  0.17888789  0.72770291  0.17928077  1
  Se  Se32  1  0.05542478  0.74043604  0.65811369  1
  Se  Se33  1  0.63630305  0.92397918  0.89648452  1
  Se  Se34  1  0.64988378  0.96834754  0.69703885  1
  Se  Se35  1  0.31542844  0.87622781  0.48062891  1
  Se  Se36  1  0.52545763  0.40844422  0.44253270  1
  Se  Se37  1  0.79504061  0.56379978  0.66701561  1
  Se  Se38  1  0.63927955  0.42994944  0.11566846  1
  Se  Se39  1  0.91116906  0.47900246  0.33915694  1
  Se  Se40  1  0.39581377  0.08153964  0.34162489  1
  Se  Se41  1  0.24782786  0.21621084  -0.00001786  1
  Se  Se42  1  0.98698689  0.04358525  0.84866290  1
  Se  Se43  1  0.74022065  0.02775228  0.10367728  1
  Se  Se44  1  0.52327286  0.31509955  0.88386486  1
  Se  Se45  1  0.24789189  0.63083749  0.47957190  1
  Se  Se46  1  0.81244863  0.30609568  0.82003486  1
  Se  Se47  1  0.76486925  0.97475020  0.23937742  1
  Se  Se48  1  0.01184130  0.95383905  0.15036980  1
  Se  Se49  1  0.51951829  0.31902237  0.56064354  1
  Se  Se50  1  0.52501473  0.73583288  0.76038489  1
  Se  Se51  1  0.42276634  0.63115485  0.22052810  1
  Se  Se52  1  0.82157622  0.60044185  0.00025819  1
  Se  Se53  1  0.57326873  0.14043481  0.66082648  1
loop_
_geom_bond_atom_site_label_1
_geom_bond_atom_site_label_2
_geom_bond_distance
_geom_bond_site_symmetry_2
K0 Se7 3.281223 1_555
K0 Se38 3.408917 1_555
K0 Se51 3.418716 1_555
K0 Se12 3.448050 1_554
K0 Se41 3.526079 1_555
K0 Se8 3.798871 1_455
K0 Se15 3.870097 1_555
K1 Se34 3.179949 1_555
K1 Se32 3.186530 1_655
K1 Se2 3.326020 1_555
K1 Se42 3.399826 1_565
K1 Se26 3.592857 1_555
K2 Se17 3.290120 1_655
K2 Se27 3.306253 1_665
K2 Se47 3.370964 1_555
K2 Se10 3.448228 1_555
K2 Se14 3.767251 1_555
K3 Se32 3.142416 1_555
K3 Se34 3.192981 1_555
K3 Se35 3.452426 1_555
K3 Se45 3.515973 1_555
K3 Se26 3.538591 1_555
K4 Se25 3.290599 1_555
K4 Se18 3.405241 1_554
K4 Se29 3.413503 1_555
K4 Se20 3.443148 1_555
K4 Se33 3.519673 1_554
K4 Se43 3.527284 1_565
K5 Se50 3.327329 1_555
K5 Se23 3.446301 1_555
K5 Se32 3.450485 1_555
K5 Se0 3.468215 1_455
K5 Se28 3.514496 1_555
K5 Se18 3.784636 1_555
K6 Se48 3.319980 1_655
K6 Se29 3.335029 1_555
K6 Se11 3.376067 1_555
K6 Se25 3.514166 1_555
K6 Se52 3.604954 1_555
K6 Se47 3.631465 1_555
K6 Se31 3.954545 1_655
K7 Se32 3.359088 1_655
K7 Se26 3.360540 1_555
K7 Se13 3.418930 1_555
K7 Se36 3.488778 1_555
K7 Se14 3.530203 1_555
K7 Se37 3.624779 1_555
K8 Se24 3.309068 1_555
K8 Se34 3.385121 1_545
K8 Se44 3.535084 1_555
K8 Se46 3.577839 1_555
K8 Se33 3.707847 1_545
K9 Se22 3.316084 1_555
K9 Se3 3.383590 1_555
K9 Se38 3.526079 1_555
K9 Se8 3.581194 1_555
K9 Se43 3.695020 1_555
K10 Se44 3.281597 1_555
K10 Se38 3.293942 1_556
K10 Se12 3.308961 1_655
K10 Se52 3.343194 1_556
K10 Se21 3.343340 1_555
K11 Se2 3.317436 1_555
K11 Se18 3.326562 1_555
K11 Se19 3.371557 1_555
K11 Se25 3.525346 1_556
K11 Se52 3.602683 1_556
K11 Se50 3.652617 1_555
K11 Se0 3.967708 1_555
K12 Se52 3.283608 1_555
K12 Se12 3.311620 1_554
K12 Se18 3.543666 1_554
K12 Se29 3.547056 1_555
K12 Se44 3.550754 1_554
K12 Se38 3.557389 1_555
K13 Se40 3.145751 1_555
K13 Se3 3.189786 1_555
K13 Se13 3.448642 1_555
K13 Se6 3.517376 1_555
K13 Se27 3.542779 1_655
K14 Se42 3.282617 1_455
K14 Se44 3.388518 1_555
K14 Se9 3.427087 1_555
K14 Se12 3.445743 1_555
K14 Se41 3.544349 1_556
K14 Se46 3.826045 1_455
K14 Se5 3.838709 1_455
K15 Se40 3.353874 1_555
K15 Se27 3.371960 1_555
K15 Se35 3.421339 1_545
K15 Se1 3.483523 1_545
K15 Se49 3.533422 1_555
K15 Se17 3.636008 1_545
K16 Se52 3.153043 1_455
K16 Se12 3.203437 1_554
K16 Se29 3.224765 1_555
K16 Se18 3.238783 1_554
K16 Se20 3.322222 1_555
K17 Se3 3.354215 1_455
K17 Se36 3.392000 1_555
K17 Se27 3.525413 1_555
K17 Se30 3.622066 1_555
K17 Se15 3.689847 1_555
K17 Se45 3.903701 1_555
K17 Se13 3.976576 1_455
K18 Se47 3.336148 1_555
K18 Se10 3.450909 1_555
K18 Se40 3.454061 1_565
K18 Se31 3.471999 1_555
K18 Se4 3.520678 1_565
K18 Se29 3.777077 1_555
K19 Se37 3.291909 1_555
K19 Se26 3.313547 1_555
K19 Se50 3.377548 1_555
K19 Se23 3.441617 1_555
K19 Se49 3.772061 1_555
K20 Se39 3.298818 1_555
K20 Se22 3.300351 1_555
K20 Se15 3.352373 1_555
K20 Se36 3.399579 1_555
K20 Se11 3.744844 1_555
K20 Se16 3.791163 1_555
K21 Se3 3.172014 1_455
K21 Se40 3.181659 1_555
K21 Se48 3.320219 1_545
K21 Se7 3.401010 1_555
K21 Se27 3.586923 1_555
K22 Se34 3.347219 1_555
K22 Se1 3.391433 1_655
K22 Se26 3.515098 1_555
K22 Se16 3.625178 1_555
K23 Se53 3.299772 1_555
K23 Se24 3.302739 1_555
K23 Se5 3.344034 1_455
K23 Se1 3.383811 1_545
K23 Se19 3.761660 1_555
K23 Se30 3.786319 1_555
B0 B8 1.755741 1_555
B0 B44 1.765001 1_555
B0 B33 1.767414 1_555
B0 B49 1.794491 1_555
B0 B45 1.795654 1_555
B0 Se8 2.007156 1_455
B1 Se3 1.889325 1_455
B1 Se39 1.974353 1_455
B1 Se15 1.982569 1_555
B1 K17 3.329084 1_555
B2 Se24 1.897230 1_555
B2 Se42 1.982740 1_455
B2 Se28 1.995833 1_545
B3 B44 1.762602 1_555
B3 B40 1.766718 1_555
B3 B8 1.768237 1_555
B3 B36 1.792959 1_555
B3 Se17 1.996115 1_555
B4 Se1 1.896502 1_555
B4 Se35 1.991434 1_555
B4 Se14 1.994373 1_455
B5 Se6 2.007144 1_555
B6 Se42 1.993230 1_555
B7 Se26 1.906938 1_555
B7 Se45 1.981706 1_555
B7 Se16 1.993285 1_555
B8 Se11 2.003879 1_455
B9 Se0 2.008057 1_555
B10 Se47 1.896170 1_555
B10 Se48 1.983637 1_655
B10 Se43 1.997591 1_565
B10 K6 3.502415 1_555
B11 B43 1.769025 1_455
B11 B25 1.772600 1_454
B11 B37 1.772611 1_555
B11 B50 1.794416 1_554
B11 B48 1.795353 1_565
B11 Se20 2.011438 1_555
B12 Se12 1.915851 1_555
B12 Se41 1.961846 1_556
B12 Se21 1.980183 1_455
B12 K0 3.319694 1_556
B12 K14 3.333829 1_555
B13 Se38 1.911990 1_555
B13 Se8 1.975351 1_555
B13 Se11 1.993993 1_555
B14 Se32 1.893486 1_655
B14 Se23 1.973349 1_655
B14 Se37 1.975399 1_555
B14 K5 3.330237 1_655
B14 K7 3.384133 1_555
B15 B37 1.761473 1_545
B15 B41 1.765376 1_555
B15 B48 1.779961 1_555
B15 B24 1.779999 1_455
B15 B23 1.780448 1_454
B15 Se7 1.994131 1_555
B16 B5 1.758535 1_555
B16 B39 1.765166 1_555
B16 B46 1.769915 1_555
B16 B18 1.792880 1_555
B16 B22 1.793305 1_555
B16 Se53 1.993823 1_555
B17 B5 1.757840 1_555
B17 B30 1.764941 1_555
B17 B29 1.790161 1_655
B17 B46 1.791275 1_555
B17 B34 1.794678 1_555
B17 Se30 2.002905 1_655
B18 B22 1.755648 1_555
B18 B20 1.768582 1_555
B18 B39 1.790543 1_555
B18 B9 1.800210 1_555
B18 Se19 2.004004 1_555
B19 Se44 1.913398 1_555
B19 Se46 1.975614 1_555
B19 Se19 1.994843 1_555
B20 B9 1.762894 1_555
B20 B30 1.766284 1_555
B20 B34 1.788034 1_555
B20 B39 1.793093 1_555
B20 Se37 1.996153 1_555
B21 Se50 1.896985 1_555
B21 Se2 1.985250 1_555
B21 Se33 1.998297 1_555
B21 K11 3.509779 1_555
B22 B9 1.765315 1_555
B22 B46 1.768656 1_555
B22 B29 1.796593 1_655
B22 Se46 2.009041 1_555
B23 B41 1.777782 1_656
B23 B6 1.780120 1_555
B23 B24 1.785150 1_556
B23 B31 1.785641 1_545
B23 Se21 2.003033 1_555
B24 B43 1.768711 1_545
B24 B37 1.777614 1_645
B24 B31 1.800449 1_544
B24 Se43 2.010962 1_555
B25 B6 1.762014 1_565
B25 B43 1.762171 1_556
B25 B31 1.777800 1_555
B25 B50 1.779016 1_655
B25 Se2 1.995577 1_555
B26 B36 1.753191 1_555
B26 B40 1.762241 1_555
B26 B28 1.768425 1_555
B26 B3 1.788572 1_555
B26 B27 1.794572 1_555
B26 Se35 2.007033 1_555
B27 B28 1.757941 1_555
B27 B40 1.764956 1_555
B27 B45 1.788824 1_555
B27 B33 1.791085 1_555
B27 Se16 2.002009 1_555
B28 B49 1.758552 1_555
B28 B33 1.786936 1_555
B28 B36 1.806562 1_555
B28 Se45 2.008384 1_555
B29 B9 1.759547 1_455
B29 B46 1.771987 1_455
B29 B30 1.788066 1_455
B29 Se9 1.999951 1_555
B30 B34 1.762541 1_555
B30 B9 1.787531 1_555
B30 Se23 1.994685 1_655
B31 B43 1.768556 1_556
B31 B6 1.779463 1_565
B31 Se33 2.011447 1_555
B32 Se27 1.906005 1_655
B32 Se6 1.980886 1_555
B32 Se30 1.994174 1_655
B33 B49 1.770466 1_555
B33 B45 1.772920 1_555
B33 Se15 2.000657 1_555
B34 B39 1.753354 1_555
B34 B5 1.768767 1_555
B34 Se13 2.007761 1_555
B35 Se40 1.893101 1_565
B35 Se10 1.974481 1_555
B35 Se17 1.976029 1_555
B35 K18 3.332203 1_555
B35 K15 3.384496 1_565
B36 B49 1.765906 1_555
B36 B8 1.790337 1_555
B36 Se14 2.004448 1_455
B37 B43 1.762476 1_455
B37 B48 1.778142 1_565
B37 Se48 1.994396 1_555
B38 Se36 1.896372 1_555
B38 Se13 1.993173 1_555
B38 Se49 1.994655 1_555
B39 B5 1.805183 1_555
B39 Se49 2.003495 1_555
B40 B44 1.787353 1_555
B40 B45 1.788788 1_555
B40 Se10 1.995259 1_555
B41 B6 1.766078 1_454
B41 B48 1.780811 1_555
B41 B50 1.782746 1_544
B41 Se41 2.005154 1_555
B42 Se18 1.915858 1_555
B42 Se0 1.974681 1_455
B42 Se9 1.984770 1_555
B43 Se25 1.988338 1_555
B44 B45 1.758987 1_555
B44 B8 1.800970 1_555
B44 Se31 2.008527 1_555
B45 Se51 1.999933 1_555
B46 B5 1.787012 1_555
B46 Se5 1.999736 1_555
B47 Se52 1.904271 1_555
B47 Se25 1.960304 1_555
B47 Se20 1.989882 1_655
B47 K6 3.495696 1_555
B47 K11 3.499879 1_554
B48 B50 1.793340 1_544
B48 Se4 2.006169 1_555
B49 B8 1.792973 1_555
B49 Se39 1.993857 1_455
B50 B6 1.778573 1_465
B50 Se28 2.005656 1_555
B51 Se22 1.897243 1_555
B51 Se7 1.983511 1_555
B51 Se4 1.996272 1_555
B52 Se29 1.916415 1_555
B52 Se31 1.975709 1_555
B52 Se51 1.984425 1_555
B53 Se34 1.889622 1_545
B53 Se53 1.973480 1_555
B53 Se5 1.984000 1_555
B53 K22 3.338273 1_545
