# generated using pymatgen
data_Sr2Pb3
_symmetry_space_group_name_H-M   'P 1'
_cell_length_a   8.34950374
_cell_length_b   8.34950374
_cell_length_c   5.00141525
_cell_angle_alpha   90.00000000
_cell_angle_beta   90.00000000
_cell_angle_gamma   90.00000000
_symmetry_Int_Tables_number   1
_chemical_formula_structural   Sr2Pb3
_chemical_formula_sum   'Sr4 Pb6'
_cell_volume   348.66972656
_cell_formula_units_Z   2
loop_
 _symmetry_equiv_pos_site_id
 _symmetry_equiv_pos_as_xyz
  1  'x, y, z'
loop_
 _atom_site_type_symbol
 _atom_site_label
 _atom_site_symmetry_multiplicity
 _atom_site_fract_x
 _atom_site_fract_y
 _atom_site_fract_z
 _atom_site_occupancy
  Sr  Sr0  1  0.67292886  0.17292886  0.00000000  1
  Sr  Sr1  1  0.17292886  0.32707114  0.00000000  1
  Sr  Sr2  1  0.82707114  0.67292886  0.00000000  1
  Sr  Sr3  1  0.32707114  0.82707114  -0.00000000  1
  Pb  Pb0  1  0.12867900  0.62867900  0.50000000  1
  Pb  Pb1  1  0.87132100  0.37132100  0.50000000  1
  Pb  Pb2  1  0.62867900  0.87132100  0.50000000  1
  Pb  Pb3  1  0.00000000  0.00000000  0.50000000  1
  Pb  Pb4  1  0.37132100  0.12867900  0.50000000  1
  Pb  Pb5  1  0.50000000  0.50000000  0.50000000  1
loop_
_geom_bond_atom_site_label_1
_geom_bond_atom_site_label_2
_geom_bond_distance
_geom_bond_site_symmetry_2
Pb0 Pb1 3.038878 1_455
Pb0 Pb5 3.281234 1_555
Pb0 Pb3 3.281234 1_565
Pb0 Sr3 3.426567 1_555
Pb0 Sr3 3.426567 1_556
Pb0 Sr2 3.568159 1_455
Pb0 Sr2 3.568159 1_456
Pb0 Sr1 3.568159 1_555
Pb0 Sr1 3.568159 1_556
Pb1 Pb3 3.281234 1_655
Pb1 Pb5 3.281234 1_555
Pb1 Sr0 3.426567 1_555
Pb1 Sr0 3.426567 1_556
Pb1 Sr2 3.568159 1_556
Pb1 Sr2 3.568159 1_555
Pb1 Sr1 3.568159 1_655
Pb1 Sr1 3.568159 1_656
Pb2 Pb4 3.038878 1_565
Pb2 Pb5 3.281234 1_555
Pb2 Pb3 3.281234 1_665
Pb2 Sr2 3.426567 1_556
Pb2 Sr2 3.426567 1_555
Pb2 Sr3 3.568159 1_556
Pb2 Sr3 3.568159 1_555
Pb2 Sr0 3.568159 1_566
Pb2 Sr0 3.568159 1_565
Pb3 Pb4 3.281234 1_555
Pb3 Sr1 3.974420 1_556
Pb3 Sr3 3.974420 1_546
Pb3 Sr3 3.974420 1_545
Pb3 Sr1 3.974420 1_555
Pb3 Sr0 3.974420 1_455
Pb3 Sr2 3.974420 1_445
Pb3 Sr2 3.974420 1_446
Pb3 Sr0 3.974420 1_456
Pb4 Pb5 3.281234 1_555
Pb4 Sr1 3.426567 1_555
Pb4 Sr1 3.426567 1_556
Pb4 Sr3 3.568159 1_545
Pb4 Sr3 3.568159 1_546
Pb4 Sr0 3.568159 1_555
Pb4 Sr0 3.568159 1_556
Pb5 Sr3 3.974420 1_555
Pb5 Sr3 3.974420 1_556
Pb5 Sr0 3.974420 1_556
Pb5 Sr1 3.974420 1_555
Pb5 Sr1 3.974420 1_556
Pb5 Sr2 3.974420 1_556
Pb5 Sr2 3.974420 1_555
Pb5 Sr0 3.974420 1_555
