# generated using pymatgen
data_CdPd(CN)6
_symmetry_space_group_name_H-M   'P 1'
_cell_length_a   7.81661999
_cell_length_b   7.81661999
_cell_length_c   7.81661999
_cell_angle_alpha   60.00000000
_cell_angle_beta   60.00000000
_cell_angle_gamma   60.00000000
_symmetry_Int_Tables_number   1
_chemical_formula_structural   CdPd(CN)6
_chemical_formula_sum   'Cd1 Pd1 C6 N6'
_cell_volume   337.70850548
_cell_formula_units_Z   1
loop_
 _symmetry_equiv_pos_site_id
 _symmetry_equiv_pos_as_xyz
  1  'x, y, z'
loop_
 _atom_site_type_symbol
 _atom_site_label
 _atom_site_symmetry_multiplicity
 _atom_site_fract_x
 _atom_site_fract_y
 _atom_site_fract_z
 _atom_site_occupancy
  Cd  Cd0  1  0.00000000  0.00000000  0.00000000  1
  Pd  Pd0  1  0.50000000  0.50000000  0.50000000  1
  C  C0  1  0.31733300  0.31733300  0.68266700  1
  C  C1  1  0.68266700  0.31733300  0.68266700  1
  C  C2  1  0.31733300  0.68266700  0.31733300  1
  C  C3  1  0.68266700  0.31733300  0.31733300  1
  C  C4  1  0.31733300  0.68266700  0.68266700  1
  C  C5  1  0.68266700  0.68266700  0.31733300  1
  N  N0  1  0.21194500  0.78805500  0.78805500  1
  N  N1  1  0.78805500  0.78805500  0.21194500  1
  N  N2  1  0.78805500  0.21194500  0.78805500  1
  N  N3  1  0.21194500  0.78805500  0.21194500  1
  N  N4  1  0.21194500  0.21194500  0.78805500  1
  N  N5  1  0.78805500  0.21194500  0.21194500  1
loop_
_geom_bond_atom_site_label_1
_geom_bond_atom_site_label_2
_geom_bond_distance
_geom_bond_site_symmetry_2
Cd0 N4 2.342918 1_554
Cd0 N3 2.342918 1_545
Cd0 N5 2.342918 1_455
Cd0 N0 2.342918 1_544
Cd0 N2 2.342918 1_454
Cd0 N1 2.342918 1_445
C0 N4 1.164998 1_555
C0 Pd0 2.019269 1_555
C1 N2 1.164998 1_555
C1 Pd0 2.019269 1_555
C2 N3 1.164998 1_555
C2 Pd0 2.019269 1_555
C3 N5 1.164998 1_555
C3 Pd0 2.019269 1_555
C4 N0 1.164998 1_555
C4 Pd0 2.019269 1_555
C5 N1 1.164998 1_555
C5 Pd0 2.019269 1_555
