# generated using pymatgen
data_Yb14Ti10O41
_symmetry_space_group_name_H-M   'P 1'
_cell_length_a   7.14308985
_cell_length_b   7.14308985
_cell_length_c   18.07168136
_cell_angle_alpha   89.94295476
_cell_angle_beta   89.94295476
_cell_angle_gamma   63.26245980
_symmetry_Int_Tables_number   1
_chemical_formula_structural   Yb14Ti10O41
_chemical_formula_sum   'Yb14 Ti10 O41'
_cell_volume   823.49183553
_cell_formula_units_Z   1
loop_
 _symmetry_equiv_pos_site_id
 _symmetry_equiv_pos_as_xyz
  1  'x, y, z'
loop_
 _atom_site_type_symbol
 _atom_site_label
 _atom_site_symmetry_multiplicity
 _atom_site_fract_x
 _atom_site_fract_y
 _atom_site_fract_z
 _atom_site_occupancy
  Yb  Yb0  1  0.03439700  0.03439700  0.01810300  1
  Yb  Yb1  1  0.34641400  0.85669900  0.81651800  1
  Yb  Yb2  1  0.51147100  0.51147100  0.01774700  1
  Yb  Yb3  1  0.33138000  0.33138000  0.84142600  1
  Yb  Yb4  1  0.35061400  0.35061400  0.33428900  1
  Yb  Yb5  1  0.53195500  0.96659300  0.49268600  1
  Yb  Yb6  1  0.84360800  0.84360800  0.83033100  1
  Yb  Yb7  1  0.96659300  0.53195500  0.49268600  1
  Yb  Yb8  1  0.15447800  0.15447800  0.66155700  1
  Yb  Yb9  1  0.99670300  0.99670300  0.48922000  1
  Yb  Yb10  1  0.85669900  0.34641400  0.81651800  1
  Yb  Yb11  1  0.14490200  0.65044300  0.16771100  1
  Yb  Yb12  1  0.65044300  0.14490200  0.16771100  1
  Yb  Yb13  1  0.83739800  0.83739800  0.32808600  1
  Ti  Ti0  1  0.51624200  0.02684000  0.99976800  1
  Ti  Ti1  1  0.65028500  0.65028500  0.66726500  1
  Ti  Ti2  1  0.19382700  0.64898100  0.68014700  1
  Ti  Ti3  1  0.02684000  0.51624200  0.99976800  1
  Ti  Ti4  1  0.32665700  0.84887300  0.34204400  1
  Ti  Ti5  1  0.84887300  0.32665700  0.34204400  1
  Ti  Ti6  1  0.50278100  0.50278100  0.51770900  1
  Ti  Ti7  1  0.64898100  0.19382700  0.68014700  1
  Ti  Ti8  1  0.63200100  0.63200100  0.21100600  1
  Ti  Ti9  1  0.15663200  0.15663200  0.16477700  1
  O  O0  1  0.68026100  0.68026100  0.76789500  1
  O  O1  1  0.83076100  0.34506900  0.94518600  1
  O  O2  1  0.66078200  0.17779500  0.78060800  1
  O  O3  1  0.47536800  0.47536800  0.63091600  1
  O  O4  1  0.34506900  0.83076100  0.94518600  1
  O  O5  1  0.31443600  0.31443600  0.47087200  1
  O  O6  1  0.32547100  0.32547100  0.69728900  1
  O  O7  1  0.53354200  0.98227700  0.89374500  1
  O  O8  1  0.60663700  0.95980300  0.64100100  1
  O  O9  1  0.31526300  0.31526300  0.97129700  1
  O  O10  1  0.17779500  0.66078200  0.78060800  1
  O  O11  1  0.98227700  0.53354200  0.89374500  1
  O  O12  1  0.17996400  0.17996400  0.77904600  1
  O  O13  1  0.36384200  0.73782000  0.44274400  1
  O  O14  1  0.34680300  0.82044800  0.68262900  1
  O  O15  1  0.95980300  0.60663700  0.64100100  1
  O  O16  1  0.05547700  0.05547700  0.36926900  1
  O  O17  1  0.20178900  0.66905800  0.53726900  1
  O  O18  1  0.00570000  0.00570000  0.14844500  1
  O  O19  1  0.19499600  0.69378100  0.29209800  1
  O  O20  1  0.94733300  0.94733300  0.65676400  1
  O  O21  1  0.73782000  0.36384200  0.44274400  1
  O  O22  1  0.01646300  0.01646300  0.88743400  1
  O  O23  1  0.82044800  0.34680300  0.68262900  1
  O  O24  1  0.66905800  0.20178900  0.53726900  1
  O  O25  1  0.83873900  0.83873900  0.44909300  1
  O  O26  1  0.02576100  0.35474200  0.08324900  1
  O  O27  1  0.00920700  0.46771600  0.36638600  1
  O  O28  1  0.77875000  0.77875000  0.19786500  1
  O  O29  1  0.69378100  0.19499600  0.29209800  1
  O  O30  1  0.71958700  0.71958700  0.01259500  1
  O  O31  1  0.89824900  0.35129000  0.23130700  1
  O  O32  1  0.61054800  0.61054800  0.31647800  1
  O  O33  1  0.46771600  0.00920700  0.36638600  1
  O  O34  1  0.64496100  0.64496100  0.55256600  1
  O  O35  1  0.35474200  0.02576100  0.08324900  1
  O  O36  1  0.35129000  0.89824900  0.23130700  1
  O  O37  1  0.51992300  0.51992300  0.14306000  1
  O  O38  1  0.68250200  0.13474500  0.03722700  1
  O  O39  1  0.29552600  0.29552600  0.21188400  1
  O  O40  1  0.13474500  0.68250200  0.03722700  1
loop_
_geom_bond_atom_site_label_1
_geom_bond_atom_site_label_2
_geom_bond_distance
_geom_bond_site_symmetry_2
O0 Ti1 1.855165 1_555
O0 Yb6 2.286096 1_555
O0 Yb1 2.311056 1_555
O0 Yb10 2.311056 1_555
O1 Yb10 2.332787 1_555
O1 Yb0 2.422882 1_656
O1 Yb2 2.427313 1_556
O1 Ti3 2.444541 1_655
O2 Ti7 1.818643 1_555
O2 Yb10 2.313094 1_555
O2 Yb6 2.324707 1_545
O2 Yb3 2.371169 1_555
O3 Ti2 2.031846 1_555
O3 Ti7 2.031846 1_555
O3 Ti6 2.072452 1_555
O3 Ti1 2.227492 1_555
O4 Yb1 2.332787 1_555
O4 Yb0 2.422882 1_566
O4 Yb2 2.427313 1_556
O4 Ti0 2.444541 1_565
O5 Yb5 2.295356 1_545
O5 Yb7 2.295356 1_455
O5 Ti6 2.443285 1_555
O5 Yb4 2.506700 1_555
O6 Ti7 2.089057 1_555
O6 Ti2 2.089057 1_555
O6 Yb8 2.178585 1_555
O6 Yb3 2.605873 1_555
O7 Ti0 1.937280 1_565
O7 Yb6 2.285407 1_555
O7 Yb1 2.371535 1_555
O7 Yb3 2.440384 1_565
O8 Ti7 1.960643 1_565
O8 Ti1 2.142096 1_555
O8 Yb5 2.729516 1_555
O9 Ti3 1.976934 1_555
O9 Ti0 1.976934 1_555
O9 Yb3 2.354932 1_555
O9 Yb2 2.530888 1_556
O10 Ti2 1.818643 1_555
O10 Yb1 2.313094 1_555
O10 Yb6 2.324707 1_455
O10 Yb3 2.371169 1_555
O11 Ti3 1.937280 1_655
O11 Yb6 2.285407 1_555
O11 Yb10 2.371535 1_555
O11 Yb3 2.440384 1_655
O12 Yb8 2.146095 1_555
O12 Yb3 2.160536 1_555
O12 Yb10 2.175389 1_455
O12 Yb1 2.175389 1_545
O13 Ti4 1.954495 1_555
O13 Ti6 2.034176 1_555
O13 Yb9 2.576353 1_455
O13 Yb5 2.588026 1_555
O14 Ti1 1.970379 1_555
O14 Ti2 1.975014 1_555
O14 Yb8 2.185204 1_565
O14 Yb1 2.433538 1_555
O15 Ti2 1.960643 1_655
O15 Ti1 2.142096 1_555
O15 Yb7 2.729516 1_555
O16 Ti4 1.897236 1_545
O16 Ti5 1.897236 1_455
O16 Yb9 2.281771 1_445
O16 Yb13 2.755943 1_445
O17 Ti6 1.964624 1_555
O17 Yb9 2.300209 1_455
O17 Yb7 2.432173 1_455
O17 Ti2 2.587870 1_555
O18 Ti9 1.859827 1_555
O18 Yb11 2.297387 1_545
O18 Yb12 2.297387 1_455
O18 Yb0 2.380819 1_555
O19 Ti4 1.966636 1_555
O19 Yb4 2.317731 1_555
O19 Yb11 2.319376 1_555
O19 Yb13 2.374919 1_455
O20 Ti2 2.108035 1_655
O20 Ti7 2.108035 1_565
O20 Yb8 2.521269 1_665
O21 Ti5 1.954495 1_555
O21 Ti6 2.034176 1_555
O21 Yb9 2.576353 1_545
O21 Yb7 2.588026 1_555
O22 Yb6 2.343253 1_445
O22 Yb0 2.371717 1_556
O22 Yb10 2.465019 1_455
O22 Yb1 2.465019 1_545
O23 Ti1 1.970379 1_555
O23 Ti7 1.975014 1_555
O23 Yb8 2.185204 1_655
O23 Yb10 2.433538 1_555
O24 Ti6 1.964624 1_555
O24 Yb9 2.300209 1_545
O24 Yb5 2.432173 1_545
O24 Ti7 2.587870 1_555
O25 Yb9 2.054528 1_555
O25 Yb5 2.110461 1_555
O25 Yb7 2.110461 1_555
O25 Yb13 2.186880 1_555
O26 Ti3 1.900365 1_554
O26 Ti9 1.963531 1_555
O26 Yb0 2.550322 1_555
O27 Ti5 1.886976 1_455
O27 Yb4 2.268486 1_555
O27 Yb7 2.321169 1_455
O27 Yb13 2.457710 1_455
O28 Ti8 1.800484 1_555
O28 Yb11 2.412217 1_655
O28 Yb12 2.412217 1_565
O28 Yb13 2.459863 1_555
O29 Ti5 1.966636 1_555
O29 Yb4 2.317731 1_555
O29 Yb12 2.319376 1_555
O29 Yb13 2.374919 1_545
O30 Ti0 2.027700 1_564
O30 Ti3 2.027700 1_654
O30 Yb2 2.533093 1_555
O31 Ti5 2.052780 1_555
O31 Ti8 2.083439 1_555
O31 Ti9 2.115440 1_655
O32 Ti8 1.923534 1_555
O32 Ti5 2.029079 1_555
O32 Ti4 2.029079 1_555
O32 Yb13 2.767575 1_555
O33 Ti4 1.886976 1_545
O33 Yb4 2.268486 1_555
O33 Yb5 2.321169 1_545
O33 Yb13 2.457710 1_545
O34 Ti6 1.841295 1_555
O34 Ti1 2.073891 1_555
O34 Yb7 2.330007 1_555
O34 Yb5 2.330007 1_555
O35 Ti0 1.900365 1_554
O35 Ti9 1.963531 1_555
O35 Yb0 2.550322 1_555
O36 Ti4 2.052780 1_555
O36 Ti8 2.083439 1_555
O36 Ti9 2.115440 1_565
O37 Ti8 1.835820 1_555
O37 Yb2 2.267069 1_555
O37 Yb12 2.448442 1_555
O37 Yb11 2.448442 1_555
O38 Ti0 1.813581 1_554
O38 Yb0 2.308472 1_655
O38 Yb12 2.366958 1_555
O38 Yb2 2.428718 1_555
O39 Ti9 1.892733 1_555
O39 Yb4 2.312078 1_555
O39 Yb11 2.401126 1_555
O39 Yb12 2.401126 1_555
O40 Ti3 1.813581 1_554
O40 Yb0 2.308472 1_565
O40 Yb11 2.366958 1_555
O40 Yb2 2.428718 1_555
