# generated using pymatgen
data_Zn5B3Ir7
_symmetry_space_group_name_H-M   'P 1'
_cell_length_a   5.64555000
_cell_length_b   22.93128600
_cell_length_c   24.48640200
_cell_angle_alpha   90.00000000
_cell_angle_beta   90.00000000
_cell_angle_gamma   90.00000000
_symmetry_Int_Tables_number   1
_chemical_formula_structural   Zn5B3Ir7
_chemical_formula_sum   'Zn80 B48 Ir112'
_cell_volume   3170.00278780
_cell_formula_units_Z   16
loop_
 _symmetry_equiv_pos_site_id
 _symmetry_equiv_pos_as_xyz
  1  'x, y, z'
loop_
 _atom_site_type_symbol
 _atom_site_label
 _atom_site_symmetry_multiplicity
 _atom_site_fract_x
 _atom_site_fract_y
 _atom_site_fract_z
 _atom_site_occupancy
  Zn  Zn0_0  1  0.25000000  0.46840500  0.07863150  1
  Zn  Zn0_1  1  0.25000000  0.46840500  0.57863150  1
  Zn  Zn0_2  1  0.25000000  0.96840500  0.07863150  1
  Zn  Zn0_3  1  0.25000000  0.96840500  0.57863150  1
  Zn  Zn0_4  1  0.75000000  0.46840500  0.07863150  1
  Zn  Zn0_5  1  0.75000000  0.46840500  0.57863150  1
  Zn  Zn0_6  1  0.75000000  0.96840500  0.07863150  1
  Zn  Zn0_7  1  0.75000000  0.96840500  0.57863150  1
  Zn  Zn1_0  1  0.25000000  0.28159500  0.07863150  1
  Zn  Zn1_1  1  0.25000000  0.28159500  0.57863150  1
  Zn  Zn1_2  1  0.25000000  0.78159500  0.07863150  1
  Zn  Zn1_3  1  0.25000000  0.78159500  0.57863150  1
  Zn  Zn1_4  1  0.75000000  0.28159500  0.07863150  1
  Zn  Zn1_5  1  0.75000000  0.28159500  0.57863150  1
  Zn  Zn1_6  1  0.75000000  0.78159500  0.07863150  1
  Zn  Zn1_7  1  0.75000000  0.78159500  0.57863150  1
  Zn  Zn2_0  1  0.25000000  0.18284650  0.31963500  1
  Zn  Zn2_1  1  0.25000000  0.18284650  0.81963500  1
  Zn  Zn2_2  1  0.25000000  0.68284650  0.31963500  1
  Zn  Zn2_3  1  0.25000000  0.68284650  0.81963500  1
  Zn  Zn2_4  1  0.75000000  0.18284650  0.31963500  1
  Zn  Zn2_5  1  0.75000000  0.18284650  0.81963500  1
  Zn  Zn2_6  1  0.75000000  0.68284650  0.31963500  1
  Zn  Zn2_7  1  0.75000000  0.68284650  0.81963500  1
  Zn  Zn3_0  1  0.25000000  0.06715350  0.31963500  1
  Zn  Zn3_1  1  0.25000000  0.06715350  0.81963500  1
  Zn  Zn3_2  1  0.25000000  0.56715350  0.31963500  1
  Zn  Zn3_3  1  0.25000000  0.56715350  0.81963500  1
  Zn  Zn3_4  1  0.75000000  0.06715350  0.31963500  1
  Zn  Zn3_5  1  0.75000000  0.06715350  0.81963500  1
  Zn  Zn3_6  1  0.75000000  0.56715350  0.31963500  1
  Zn  Zn3_7  1  0.75000000  0.56715350  0.81963500  1
  Zn  Zn4_0  1  0.25000000  0.03159500  0.42136850  1
  Zn  Zn4_1  1  0.25000000  0.03159500  0.92136850  1
  Zn  Zn4_2  1  0.25000000  0.53159500  0.42136850  1
  Zn  Zn4_3  1  0.25000000  0.53159500  0.92136850  1
  Zn  Zn4_4  1  0.75000000  0.03159500  0.42136850  1
  Zn  Zn4_5  1  0.75000000  0.03159500  0.92136850  1
  Zn  Zn4_6  1  0.75000000  0.53159500  0.42136850  1
  Zn  Zn4_7  1  0.75000000  0.53159500  0.92136850  1
  Zn  Zn5_0  1  0.25000000  0.21840500  0.42136850  1
  Zn  Zn5_1  1  0.25000000  0.21840500  0.92136850  1
  Zn  Zn5_2  1  0.25000000  0.71840500  0.42136850  1
  Zn  Zn5_3  1  0.25000000  0.71840500  0.92136850  1
  Zn  Zn5_4  1  0.75000000  0.21840500  0.42136850  1
  Zn  Zn5_5  1  0.75000000  0.21840500  0.92136850  1
  Zn  Zn5_6  1  0.75000000  0.71840500  0.42136850  1
  Zn  Zn5_7  1  0.75000000  0.71840500  0.92136850  1
  Zn  Zn6_0  1  0.25000000  0.37500000  0.01713300  1
  Zn  Zn6_1  1  0.25000000  0.37500000  0.51713300  1
  Zn  Zn6_2  1  0.25000000  0.87500000  0.01713300  1
  Zn  Zn6_3  1  0.25000000  0.87500000  0.51713300  1
  Zn  Zn6_4  1  0.75000000  0.37500000  0.01713300  1
  Zn  Zn6_5  1  0.75000000  0.37500000  0.51713300  1
  Zn  Zn6_6  1  0.75000000  0.87500000  0.01713300  1
  Zn  Zn6_7  1  0.75000000  0.87500000  0.51713300  1
  Zn  Zn7_0  1  0.25000000  0.43284650  0.18036500  1
  Zn  Zn7_1  1  0.25000000  0.43284650  0.68036500  1
  Zn  Zn7_2  1  0.25000000  0.93284650  0.18036500  1
  Zn  Zn7_3  1  0.25000000  0.93284650  0.68036500  1
  Zn  Zn7_4  1  0.75000000  0.43284650  0.18036500  1
  Zn  Zn7_5  1  0.75000000  0.43284650  0.68036500  1
  Zn  Zn7_6  1  0.75000000  0.93284650  0.18036500  1
  Zn  Zn7_7  1  0.75000000  0.93284650  0.68036500  1
  Zn  Zn8_0  1  0.25000000  0.31715350  0.18036500  1
  Zn  Zn8_1  1  0.25000000  0.31715350  0.68036500  1
  Zn  Zn8_2  1  0.25000000  0.81715350  0.18036500  1
  Zn  Zn8_3  1  0.25000000  0.81715350  0.68036500  1
  Zn  Zn8_4  1  0.75000000  0.31715350  0.18036500  1
  Zn  Zn8_5  1  0.75000000  0.31715350  0.68036500  1
  Zn  Zn8_6  1  0.75000000  0.81715350  0.18036500  1
  Zn  Zn8_7  1  0.75000000  0.81715350  0.68036500  1
  Zn  Zn9_0  1  0.25000000  0.12500000  0.48286700  1
  Zn  Zn9_1  1  0.25000000  0.12500000  0.98286700  1
  Zn  Zn9_2  1  0.25000000  0.62500000  0.48286700  1
  Zn  Zn9_3  1  0.25000000  0.62500000  0.98286700  1
  Zn  Zn9_4  1  0.75000000  0.12500000  0.48286700  1
  Zn  Zn9_5  1  0.75000000  0.12500000  0.98286700  1
  Zn  Zn9_6  1  0.75000000  0.62500000  0.48286700  1
  Zn  Zn9_7  1  0.75000000  0.62500000  0.98286700  1
  B  B0_0  1  0.25000000  0.44040500  0.29443900  1
  B  B0_1  1  0.25000000  0.44040500  0.79443900  1
  B  B0_2  1  0.25000000  0.94040500  0.29443900  1
  B  B0_3  1  0.25000000  0.94040500  0.79443900  1
  B  B0_4  1  0.75000000  0.44040500  0.29443900  1
  B  B0_5  1  0.75000000  0.44040500  0.79443900  1
  B  B0_6  1  0.75000000  0.94040500  0.29443900  1
  B  B0_7  1  0.75000000  0.94040500  0.79443900  1
  B  B1_0  1  0.25000000  0.19040500  0.20556100  1
  B  B1_1  1  0.25000000  0.19040500  0.70556100  1
  B  B1_2  1  0.25000000  0.69040500  0.20556100  1
  B  B1_3  1  0.25000000  0.69040500  0.70556100  1
  B  B1_4  1  0.75000000  0.19040500  0.20556100  1
  B  B1_5  1  0.75000000  0.19040500  0.70556100  1
  B  B1_6  1  0.75000000  0.69040500  0.20556100  1
  B  B1_7  1  0.75000000  0.69040500  0.70556100  1
  B  B2_0  1  0.25000000  0.12500000  0.11314850  1
  B  B2_1  1  0.25000000  0.12500000  0.61314850  1
  B  B2_2  1  0.25000000  0.62500000  0.11314850  1
  B  B2_3  1  0.25000000  0.62500000  0.61314850  1
  B  B2_4  1  0.75000000  0.12500000  0.11314850  1
  B  B2_5  1  0.75000000  0.12500000  0.61314850  1
  B  B2_6  1  0.75000000  0.62500000  0.11314850  1
  B  B2_7  1  0.75000000  0.62500000  0.61314850  1
  B  B3_0  1  0.25000000  0.05959500  0.20556100  1
  B  B3_1  1  0.25000000  0.05959500  0.70556100  1
  B  B3_2  1  0.25000000  0.55959500  0.20556100  1
  B  B3_3  1  0.25000000  0.55959500  0.70556100  1
  B  B3_4  1  0.75000000  0.05959500  0.20556100  1
  B  B3_5  1  0.75000000  0.05959500  0.70556100  1
  B  B3_6  1  0.75000000  0.55959500  0.20556100  1
  B  B3_7  1  0.75000000  0.55959500  0.70556100  1
  B  B4_0  1  0.25000000  0.30959500  0.29443900  1
  B  B4_1  1  0.25000000  0.30959500  0.79443900  1
  B  B4_2  1  0.25000000  0.80959500  0.29443900  1
  B  B4_3  1  0.25000000  0.80959500  0.79443900  1
  B  B4_4  1  0.75000000  0.30959500  0.29443900  1
  B  B4_5  1  0.75000000  0.30959500  0.79443900  1
  B  B4_6  1  0.75000000  0.80959500  0.29443900  1
  B  B4_7  1  0.75000000  0.80959500  0.79443900  1
  B  B5_0  1  0.25000000  0.37500000  0.38685150  1
  B  B5_1  1  0.25000000  0.37500000  0.88685150  1
  B  B5_2  1  0.25000000  0.87500000  0.38685150  1
  B  B5_3  1  0.25000000  0.87500000  0.88685150  1
  B  B5_4  1  0.75000000  0.37500000  0.38685150  1
  B  B5_5  1  0.75000000  0.37500000  0.88685150  1
  B  B5_6  1  0.75000000  0.87500000  0.38685150  1
  B  B5_7  1  0.75000000  0.87500000  0.88685150  1
  Ir  Ir0_0  1  0.00000000  0.29674550  0.47123100  1
  Ir  Ir0_1  1  0.00000000  0.29674550  0.97123100  1
  Ir  Ir0_2  1  0.00000000  0.79674550  0.47123100  1
  Ir  Ir0_3  1  0.00000000  0.79674550  0.97123100  1
  Ir  Ir0_4  1  0.50000000  0.29674550  0.47123100  1
  Ir  Ir0_5  1  0.50000000  0.29674550  0.97123100  1
  Ir  Ir0_6  1  0.50000000  0.79674550  0.47123100  1
  Ir  Ir0_7  1  0.50000000  0.79674550  0.97123100  1
  Ir  Ir1_0  1  0.00000000  0.44340900  0.36212000  1
  Ir  Ir1_1  1  0.00000000  0.44340900  0.86212000  1
  Ir  Ir1_2  1  0.00000000  0.94340900  0.36212000  1
  Ir  Ir1_3  1  0.00000000  0.94340900  0.86212000  1
  Ir  Ir1_4  1  0.50000000  0.44340900  0.36212000  1
  Ir  Ir1_5  1  0.50000000  0.44340900  0.86212000  1
  Ir  Ir1_6  1  0.50000000  0.94340900  0.36212000  1
  Ir  Ir1_7  1  0.50000000  0.94340900  0.86212000  1
  Ir  Ir2_0  1  0.00000000  0.45325450  0.47123100  1
  Ir  Ir2_1  1  0.00000000  0.45325450  0.97123100  1
  Ir  Ir2_2  1  0.00000000  0.95325450  0.47123100  1
  Ir  Ir2_3  1  0.00000000  0.95325450  0.97123100  1
  Ir  Ir2_4  1  0.50000000  0.45325450  0.47123100  1
  Ir  Ir2_5  1  0.50000000  0.45325450  0.97123100  1
  Ir  Ir2_6  1  0.50000000  0.95325450  0.47123100  1
  Ir  Ir2_7  1  0.50000000  0.95325450  0.97123100  1
  Ir  Ir3_0  1  0.00000000  0.12500000  0.23770800  1
  Ir  Ir3_1  1  0.00000000  0.12500000  0.73770800  1
  Ir  Ir3_2  1  0.00000000  0.62500000  0.23770800  1
  Ir  Ir3_3  1  0.00000000  0.62500000  0.73770800  1
  Ir  Ir3_4  1  0.50000000  0.12500000  0.23770800  1
  Ir  Ir3_5  1  0.50000000  0.12500000  0.73770800  1
  Ir  Ir3_6  1  0.50000000  0.62500000  0.23770800  1
  Ir  Ir3_7  1  0.50000000  0.62500000  0.73770800  1
  Ir  Ir4_0  1  0.00000000  0.12500000  0.39218150  1
  Ir  Ir4_1  1  0.00000000  0.12500000  0.89218150  1
  Ir  Ir4_2  1  0.00000000  0.62500000  0.39218150  1
  Ir  Ir4_3  1  0.00000000  0.62500000  0.89218150  1
  Ir  Ir4_4  1  0.50000000  0.12500000  0.39218150  1
  Ir  Ir4_5  1  0.50000000  0.12500000  0.89218150  1
  Ir  Ir4_6  1  0.50000000  0.62500000  0.39218150  1
  Ir  Ir4_7  1  0.50000000  0.62500000  0.89218150  1
  Ir  Ir5_0  1  0.00000000  0.20325450  0.02876900  1
  Ir  Ir5_1  1  0.00000000  0.20325450  0.52876900  1
  Ir  Ir5_2  1  0.00000000  0.70325450  0.02876900  1
  Ir  Ir5_3  1  0.00000000  0.70325450  0.52876900  1
  Ir  Ir5_4  1  0.50000000  0.20325450  0.02876900  1
  Ir  Ir5_5  1  0.50000000  0.20325450  0.52876900  1
  Ir  Ir5_6  1  0.50000000  0.70325450  0.02876900  1
  Ir  Ir5_7  1  0.50000000  0.70325450  0.52876900  1
  Ir  Ir6_0  1  0.00000000  0.30659100  0.36212000  1
  Ir  Ir6_1  1  0.00000000  0.30659100  0.86212000  1
  Ir  Ir6_2  1  0.00000000  0.80659100  0.36212000  1
  Ir  Ir6_3  1  0.00000000  0.80659100  0.86212000  1
  Ir  Ir6_4  1  0.50000000  0.30659100  0.36212000  1
  Ir  Ir6_5  1  0.50000000  0.30659100  0.86212000  1
  Ir  Ir6_6  1  0.50000000  0.80659100  0.36212000  1
  Ir  Ir6_7  1  0.50000000  0.80659100  0.86212000  1
  Ir  Ir7_0  1  0.00000000  0.05659100  0.13788000  1
  Ir  Ir7_1  1  0.00000000  0.05659100  0.63788000  1
  Ir  Ir7_2  1  0.00000000  0.55659100  0.13788000  1
  Ir  Ir7_3  1  0.00000000  0.55659100  0.63788000  1
  Ir  Ir7_4  1  0.50000000  0.05659100  0.13788000  1
  Ir  Ir7_5  1  0.50000000  0.05659100  0.63788000  1
  Ir  Ir7_6  1  0.50000000  0.55659100  0.13788000  1
  Ir  Ir7_7  1  0.50000000  0.55659100  0.63788000  1
  Ir  Ir8_0  1  0.00000000  0.19340900  0.13788000  1
  Ir  Ir8_1  1  0.00000000  0.19340900  0.63788000  1
  Ir  Ir8_2  1  0.00000000  0.69340900  0.13788000  1
  Ir  Ir8_3  1  0.00000000  0.69340900  0.63788000  1
  Ir  Ir8_4  1  0.50000000  0.19340900  0.13788000  1
  Ir  Ir8_5  1  0.50000000  0.19340900  0.63788000  1
  Ir  Ir8_6  1  0.50000000  0.69340900  0.13788000  1
  Ir  Ir8_7  1  0.50000000  0.69340900  0.63788000  1
  Ir  Ir9_0  1  0.00000000  0.00000000  0.25000000  1
  Ir  Ir9_1  1  0.00000000  0.00000000  0.75000000  1
  Ir  Ir9_2  1  0.00000000  0.50000000  0.25000000  1
  Ir  Ir9_3  1  0.00000000  0.50000000  0.75000000  1
  Ir  Ir9_4  1  0.50000000  0.00000000  0.25000000  1
  Ir  Ir9_5  1  0.50000000  0.00000000  0.75000000  1
  Ir  Ir9_6  1  0.50000000  0.50000000  0.25000000  1
  Ir  Ir9_7  1  0.50000000  0.50000000  0.75000000  1
  Ir  Ir10_0  1  0.00000000  0.37500000  0.26229200  1
  Ir  Ir10_1  1  0.00000000  0.37500000  0.76229200  1
  Ir  Ir10_2  1  0.00000000  0.87500000  0.26229200  1
  Ir  Ir10_3  1  0.00000000  0.87500000  0.76229200  1
  Ir  Ir10_4  1  0.50000000  0.37500000  0.26229200  1
  Ir  Ir10_5  1  0.50000000  0.37500000  0.76229200  1
  Ir  Ir10_6  1  0.50000000  0.87500000  0.26229200  1
  Ir  Ir10_7  1  0.50000000  0.87500000  0.76229200  1
  Ir  Ir11_0  1  0.00000000  0.37500000  0.10781850  1
  Ir  Ir11_1  1  0.00000000  0.37500000  0.60781850  1
  Ir  Ir11_2  1  0.00000000  0.87500000  0.10781850  1
  Ir  Ir11_3  1  0.00000000  0.87500000  0.60781850  1
  Ir  Ir11_4  1  0.50000000  0.37500000  0.10781850  1
  Ir  Ir11_5  1  0.50000000  0.37500000  0.60781850  1
  Ir  Ir11_6  1  0.50000000  0.87500000  0.10781850  1
  Ir  Ir11_7  1  0.50000000  0.87500000  0.60781850  1
  Ir  Ir12_0  1  0.00000000  0.04674550  0.02876900  1
  Ir  Ir12_1  1  0.00000000  0.04674550  0.52876900  1
  Ir  Ir12_2  1  0.00000000  0.54674550  0.02876900  1
  Ir  Ir12_3  1  0.00000000  0.54674550  0.52876900  1
  Ir  Ir12_4  1  0.50000000  0.04674550  0.02876900  1
  Ir  Ir12_5  1  0.50000000  0.04674550  0.52876900  1
  Ir  Ir12_6  1  0.50000000  0.54674550  0.02876900  1
  Ir  Ir12_7  1  0.50000000  0.54674550  0.52876900  1
  Ir  Ir13_0  1  0.00000000  0.25000000  0.25000000  1
  Ir  Ir13_1  1  0.00000000  0.25000000  0.75000000  1
  Ir  Ir13_2  1  0.00000000  0.75000000  0.25000000  1
  Ir  Ir13_3  1  0.00000000  0.75000000  0.75000000  1
  Ir  Ir13_4  1  0.50000000  0.25000000  0.25000000  1
  Ir  Ir13_5  1  0.50000000  0.25000000  0.75000000  1
  Ir  Ir13_6  1  0.50000000  0.75000000  0.25000000  1
  Ir  Ir13_7  1  0.50000000  0.75000000  0.75000000  1
loop_
_geom_bond_atom_site_label_1
_geom_bond_atom_site_label_2
_geom_bond_distance
_geom_bond_site_symmetry_2
Zn0_0 Zn6_0 2.618279 1_555
Zn0_0 Zn7_0 2.621144 1_555
Zn0_0 Zn0_4 2.822775 1_455
Zn0_0 Zn0_4 2.822775 1_555
Zn0_1 Zn6_1 2.618279 1_555
Zn0_1 Zn7_1 2.621144 1_555
Zn0_1 Zn0_5 2.822775 1_555
Zn0_1 Zn0_5 2.822775 1_455
Zn0_2 Zn6_2 2.618279 1_555
Zn0_2 Zn7_2 2.621144 1_555
Zn0_2 Zn0_6 2.822775 1_455
Zn0_2 Zn0_6 2.822775 1_555
Zn0_3 Zn6_3 2.618279 1_555
Zn0_3 Zn7_3 2.621144 1_555
Zn0_3 Zn0_7 2.822775 1_555
Zn0_3 Zn0_7 2.822775 1_455
Zn0_4 Zn6_4 2.618279 1_555
Zn0_4 Zn7_4 2.621144 1_555
Zn0_5 Zn6_5 2.618279 1_555
Zn0_5 Zn7_5 2.621144 1_555
Zn0_6 Zn6_6 2.618279 1_555
Zn0_6 Zn7_6 2.621144 1_555
Zn0_7 Zn6_7 2.618279 1_555
Zn0_7 Zn7_7 2.621144 1_555
Zn1_0 Zn6_0 2.618279 1_555
Zn1_0 Zn8_0 2.621144 1_555
Zn1_0 Zn1_4 2.822775 1_455
Zn1_0 Zn1_4 2.822775 1_555
Zn1_1 Zn6_1 2.618279 1_555
Zn1_1 Zn8_1 2.621144 1_555
Zn1_1 Zn1_5 2.822775 1_455
Zn1_1 Zn1_5 2.822775 1_555
Zn1_2 Zn6_2 2.618279 1_555
Zn1_2 Zn8_2 2.621144 1_555
Zn1_2 Zn1_6 2.822775 1_555
Zn1_2 Zn1_6 2.822775 1_455
Zn1_3 Zn6_3 2.618279 1_555
Zn1_3 Zn8_3 2.621144 1_555
Zn1_3 Zn1_7 2.822775 1_455
Zn1_3 Zn1_7 2.822775 1_555
Zn1_4 Zn6_4 2.618279 1_555
Zn1_4 Zn8_4 2.621144 1_555
Zn1_5 Zn6_5 2.618279 1_555
Zn1_5 Zn8_5 2.621144 1_555
Zn1_6 Zn6_6 2.618279 1_555
Zn1_6 Zn8_6 2.621144 1_555
Zn1_7 Zn6_7 2.618279 1_555
Zn1_7 Zn8_7 2.621144 1_555
Zn2_0 Zn5_0 2.621144 1_555
Zn2_1 Zn5_1 2.621144 1_555
Zn2_2 Zn5_2 2.621144 1_555
Zn2_3 Zn5_3 2.621144 1_555
Zn2_4 Zn5_4 2.621144 1_555
Zn2_5 Zn5_5 2.621144 1_555
Zn2_6 Zn5_6 2.621144 1_555
Zn2_7 Zn5_7 2.621144 1_555
Zn3_0 Zn4_0 2.621144 1_555
Zn3_1 Zn4_1 2.621144 1_555
Zn3_2 Zn4_2 2.621144 1_555
Zn3_3 Zn4_3 2.621144 1_555
Zn3_4 Zn4_4 2.621144 1_555
Zn3_5 Zn4_5 2.621144 1_555
Zn3_6 Zn4_6 2.621144 1_555
Zn3_7 Zn4_7 2.621144 1_555
Zn4_0 Zn9_0 2.618279 1_555
Zn4_0 Zn4_4 2.822775 1_555
Zn4_0 Zn4_4 2.822775 1_455
Zn4_1 Zn9_1 2.618279 1_555
Zn4_1 Zn4_5 2.822775 1_555
Zn4_1 Zn4_5 2.822775 1_455
Zn4_2 Zn9_2 2.618279 1_555
Zn4_2 Zn4_6 2.822775 1_455
Zn4_2 Zn4_6 2.822775 1_555
Zn4_3 Zn9_3 2.618279 1_555
Zn4_3 Zn4_7 2.822775 1_555
Zn4_3 Zn4_7 2.822775 1_455
Zn4_4 Zn9_4 2.618279 1_555
Zn4_5 Zn9_5 2.618279 1_555
Zn4_6 Zn9_6 2.618279 1_555
Zn4_7 Zn9_7 2.618279 1_555
Zn5_0 Zn9_0 2.618279 1_555
Zn5_0 Zn5_4 2.822775 1_555
Zn5_0 Zn5_4 2.822775 1_455
Zn5_1 Zn9_1 2.618279 1_555
Zn5_1 Zn5_5 2.822775 1_555
Zn5_1 Zn5_5 2.822775 1_455
Zn5_2 Zn9_2 2.618279 1_555
Zn5_2 Zn5_6 2.822775 1_555
Zn5_2 Zn5_6 2.822775 1_455
Zn5_3 Zn9_3 2.618279 1_555
Zn5_3 Zn5_7 2.822775 1_455
Zn5_3 Zn5_7 2.822775 1_555
Zn5_4 Zn9_4 2.618279 1_555
Zn5_5 Zn9_5 2.618279 1_555
Zn5_6 Zn9_6 2.618279 1_555
Zn5_7 Zn9_7 2.618279 1_555
B0_0 Ir1_0 2.177908 1_555
B0_0 Ir1_4 2.177908 1_555
B0_0 Ir10_0 2.204791 1_555
B0_0 Ir10_4 2.204791 1_555
B0_0 Ir9_2 2.245809 1_555
B0_0 Ir9_6 2.245809 1_555
B0_1 Ir1_1 2.177908 1_555
B0_1 Ir1_5 2.177908 1_555
B0_1 Ir10_1 2.204791 1_555
B0_1 Ir10_5 2.204791 1_555
B0_1 Ir9_3 2.245809 1_555
B0_1 Ir9_7 2.245809 1_555
B0_2 Ir1_2 2.177908 1_555
B0_2 Ir1_6 2.177908 1_555
B0_2 Ir10_6 2.204791 1_555
B0_2 Ir10_2 2.204791 1_555
B0_2 Ir9_0 2.245809 1_565
B0_2 Ir9_4 2.245809 1_565
B0_3 Ir1_3 2.177908 1_555
B0_3 Ir1_7 2.177908 1_555
B0_3 Ir10_3 2.204791 1_555
B0_3 Ir10_7 2.204791 1_555
B0_3 Ir9_5 2.245809 1_565
B0_3 Ir9_1 2.245809 1_565
B0_4 Ir1_4 2.177908 1_555
B0_4 Ir1_0 2.177908 1_655
B0_4 Ir10_4 2.204791 1_555
B0_4 Ir10_0 2.204791 1_655
B0_4 Ir9_6 2.245809 1_555
B0_4 Ir9_2 2.245809 1_655
B0_5 Ir1_1 2.177908 1_655
B0_5 Ir1_5 2.177908 1_555
B0_5 Ir10_1 2.204791 1_655
B0_5 Ir10_5 2.204791 1_555
B0_5 Ir9_3 2.245809 1_655
B0_5 Ir9_7 2.245809 1_555
B0_6 Ir1_6 2.177908 1_555
B0_6 Ir1_2 2.177908 1_655
B0_6 Ir10_2 2.204791 1_655
B0_6 Ir10_6 2.204791 1_555
B0_6 Ir9_0 2.245809 1_665
B0_6 Ir9_4 2.245809 1_565
B0_7 Ir1_7 2.177908 1_555
B0_7 Ir1_3 2.177908 1_655
B0_7 Ir10_3 2.204791 1_655
B0_7 Ir10_7 2.204791 1_555
B0_7 Ir9_1 2.245809 1_665
B0_7 Ir9_5 2.245809 1_565
B1_0 Ir8_0 2.177908 1_555
B1_0 Ir8_4 2.177908 1_555
B1_0 Ir3_0 2.204791 1_555
B1_0 Ir3_4 2.204791 1_555
B1_0 Ir13_4 2.245809 1_555
B1_0 Ir13_0 2.245809 1_555
B1_1 Ir8_1 2.177908 1_555
B1_1 Ir8_5 2.177908 1_555
B1_1 Ir3_1 2.204791 1_555
B1_1 Ir3_5 2.204791 1_555
B1_1 Ir13_1 2.245809 1_555
B1_1 Ir13_5 2.245809 1_555
B1_2 Ir8_6 2.177908 1_555
B1_2 Ir8_2 2.177908 1_555
B1_2 Ir3_2 2.204791 1_555
B1_2 Ir3_6 2.204791 1_555
B1_2 Ir13_2 2.245809 1_555
B1_2 Ir13_6 2.245809 1_555
B1_3 Ir8_3 2.177908 1_555
B1_3 Ir8_7 2.177908 1_555
B1_3 Ir3_7 2.204791 1_555
B1_3 Ir3_3 2.204791 1_555
B1_3 Ir13_3 2.245809 1_555
B1_3 Ir13_7 2.245809 1_555
B1_4 Ir8_0 2.177908 1_655
B1_4 Ir8_4 2.177908 1_555
B1_4 Ir3_0 2.204791 1_655
B1_4 Ir3_4 2.204791 1_555
B1_4 Ir13_4 2.245809 1_555
B1_4 Ir13_0 2.245809 1_655
B1_5 Ir8_1 2.177908 1_655
B1_5 Ir8_5 2.177908 1_555
B1_5 Ir3_5 2.204791 1_555
B1_5 Ir3_1 2.204791 1_655
B1_5 Ir13_1 2.245809 1_655
B1_5 Ir13_5 2.245809 1_555
B1_6 Ir8_2 2.177908 1_655
B1_6 Ir8_6 2.177908 1_555
B1_6 Ir3_2 2.204791 1_655
B1_6 Ir3_6 2.204791 1_555
B1_6 Ir13_2 2.245809 1_655
B1_6 Ir13_6 2.245809 1_555
B1_7 Ir8_7 2.177908 1_555
B1_7 Ir8_3 2.177908 1_655
B1_7 Ir3_7 2.204791 1_555
B1_7 Ir3_3 2.204791 1_655
B1_7 Ir13_3 2.245809 1_655
B1_7 Ir13_7 2.245809 1_555
B2_0 Ir8_0 2.195356 1_555
B2_0 Ir8_4 2.195356 1_555
B2_0 Ir7_0 2.195356 1_555
B2_0 Ir7_4 2.195356 1_555
B2_1 Ir8_5 2.195356 1_555
B2_1 Ir8_1 2.195356 1_555
B2_1 Ir7_1 2.195356 1_555
B2_1 Ir7_5 2.195356 1_555
B2_2 Ir8_6 2.195356 1_555
B2_2 Ir8_2 2.195356 1_555
B2_2 Ir7_2 2.195356 1_555
B2_2 Ir7_6 2.195356 1_555
B2_3 Ir8_7 2.195356 1_555
B2_3 Ir8_3 2.195356 1_555
B2_3 Ir7_7 2.195356 1_555
B2_3 Ir7_3 2.195356 1_555
B2_4 Ir8_0 2.195356 1_655
B2_4 Ir8_4 2.195356 1_555
B2_4 Ir7_0 2.195356 1_655
B2_4 Ir7_4 2.195356 1_555
B2_5 Ir8_5 2.195356 1_555
B2_5 Ir8_1 2.195356 1_655
B2_5 Ir7_5 2.195356 1_555
B2_5 Ir7_1 2.195356 1_655
B2_6 Ir8_2 2.195356 1_655
B2_6 Ir8_6 2.195356 1_555
B2_6 Ir7_2 2.195356 1_655
B2_6 Ir7_6 2.195356 1_555
B2_7 Ir8_3 2.195356 1_655
B2_7 Ir8_7 2.195356 1_555
B2_7 Ir7_3 2.195356 1_655
B2_7 Ir7_7 2.195356 1_555
B3_0 Ir7_0 2.177908 1_555
B3_0 Ir7_4 2.177908 1_555
B3_0 Ir3_4 2.204791 1_555
B3_0 Ir3_0 2.204791 1_555
B3_0 Ir9_0 2.245809 1_555
B3_0 Ir9_4 2.245809 1_555
B3_1 Ir7_5 2.177908 1_555
B3_1 Ir7_1 2.177908 1_555
B3_1 Ir3_1 2.204791 1_555
B3_1 Ir3_5 2.204791 1_555
B3_1 Ir9_1 2.245809 1_555
B3_1 Ir9_5 2.245809 1_555
B3_2 Ir7_2 2.177908 1_555
B3_2 Ir7_6 2.177908 1_555
B3_2 Ir3_2 2.204791 1_555
B3_2 Ir3_6 2.204791 1_555
B3_2 Ir9_6 2.245809 1_555
B3_2 Ir9_2 2.245809 1_555
B3_3 Ir7_3 2.177908 1_555
B3_3 Ir7_7 2.177908 1_555
B3_3 Ir3_7 2.204791 1_555
B3_3 Ir3_3 2.204791 1_555
B3_3 Ir9_3 2.245809 1_555
B3_3 Ir9_7 2.245809 1_555
B3_4 Ir7_4 2.177908 1_555
B3_4 Ir7_0 2.177908 1_655
B3_4 Ir3_0 2.204791 1_655
B3_4 Ir3_4 2.204791 1_555
B3_4 Ir9_0 2.245809 1_655
B3_4 Ir9_4 2.245809 1_555
B3_5 Ir7_5 2.177908 1_555
B3_5 Ir7_1 2.177908 1_655
B3_5 Ir3_5 2.204791 1_555
B3_5 Ir3_1 2.204791 1_655
B3_5 Ir9_1 2.245809 1_655
B3_5 Ir9_5 2.245809 1_555
B3_6 Ir7_2 2.177908 1_655
B3_6 Ir7_6 2.177908 1_555
B3_6 Ir3_2 2.204791 1_655
B3_6 Ir3_6 2.204791 1_555
B3_6 Ir9_6 2.245809 1_555
B3_6 Ir9_2 2.245809 1_655
B3_7 Ir7_3 2.177908 1_655
B3_7 Ir7_7 2.177908 1_555
B3_7 Ir3_3 2.204791 1_655
B3_7 Ir3_7 2.204791 1_555
B3_7 Ir9_3 2.245809 1_655
B3_7 Ir9_7 2.245809 1_555
B4_0 Ir6_0 2.177908 1_555
B4_0 Ir6_4 2.177908 1_555
B4_0 Ir10_0 2.204791 1_555
B4_0 Ir10_4 2.204791 1_555
B4_0 Ir13_0 2.245809 1_555
B4_0 Ir13_4 2.245809 1_555
B4_1 Ir6_1 2.177908 1_555
B4_1 Ir6_5 2.177908 1_555
B4_1 Ir10_5 2.204791 1_555
B4_1 Ir10_1 2.204791 1_555
B4_1 Ir13_5 2.245809 1_555
B4_1 Ir13_1 2.245809 1_555
B4_2 Ir6_6 2.177908 1_555
B4_2 Ir6_2 2.177908 1_555
B4_2 Ir10_2 2.204791 1_555
B4_2 Ir10_6 2.204791 1_555
B4_2 Ir13_6 2.245809 1_555
B4_2 Ir13_2 2.245809 1_555
B4_3 Ir6_3 2.177908 1_555
B4_3 Ir6_7 2.177908 1_555
B4_3 Ir10_3 2.204791 1_555
B4_3 Ir10_7 2.204791 1_555
B4_3 Ir13_3 2.245809 1_555
B4_3 Ir13_7 2.245809 1_555
B4_4 Ir6_0 2.177908 1_655
B4_4 Ir6_4 2.177908 1_555
B4_4 Ir10_4 2.204791 1_555
B4_4 Ir10_0 2.204791 1_655
B4_4 Ir13_0 2.245809 1_655
B4_4 Ir13_4 2.245809 1_555
B4_5 Ir6_1 2.177908 1_655
B4_5 Ir6_5 2.177908 1_555
B4_5 Ir10_1 2.204791 1_655
B4_5 Ir10_5 2.204791 1_555
B4_5 Ir13_5 2.245809 1_555
B4_5 Ir13_1 2.245809 1_655
B4_6 Ir6_6 2.177908 1_555
B4_6 Ir6_2 2.177908 1_655
B4_6 Ir10_6 2.204791 1_555
B4_6 Ir10_2 2.204791 1_655
B4_6 Ir13_2 2.245809 1_655
B4_6 Ir13_6 2.245809 1_555
B4_7 Ir6_3 2.177908 1_655
B4_7 Ir6_7 2.177908 1_555
B4_7 Ir10_3 2.204791 1_655
B4_7 Ir10_7 2.204791 1_555
B4_7 Ir13_3 2.245809 1_655
B4_7 Ir13_7 2.245809 1_555
B5_0 Ir1_4 2.195356 1_555
B5_0 Ir6_0 2.195356 1_555
B5_0 Ir1_0 2.195356 1_555
B5_0 Ir6_4 2.195356 1_555
B5_1 Ir6_5 2.195356 1_555
B5_1 Ir1_5 2.195356 1_555
B5_1 Ir1_1 2.195356 1_555
B5_1 Ir6_1 2.195356 1_555
B5_2 Ir6_2 2.195356 1_555
B5_2 Ir6_6 2.195356 1_555
B5_2 Ir1_2 2.195356 1_555
B5_2 Ir1_6 2.195356 1_555
B5_3 Ir6_3 2.195356 1_555
B5_3 Ir6_7 2.195356 1_555
B5_3 Ir1_7 2.195356 1_555
B5_3 Ir1_3 2.195356 1_555
B5_4 Ir1_0 2.195356 1_655
B5_4 Ir1_4 2.195356 1_555
B5_4 Ir6_0 2.195356 1_655
B5_4 Ir6_4 2.195356 1_555
B5_5 Ir6_5 2.195356 1_555
B5_5 Ir1_5 2.195356 1_555
B5_5 Ir1_1 2.195356 1_655
B5_5 Ir6_1 2.195356 1_655
B5_6 Ir6_2 2.195356 1_655
B5_6 Ir6_6 2.195356 1_555
B5_6 Ir1_2 2.195356 1_655
B5_6 Ir1_6 2.195356 1_555
B5_7 Ir6_3 2.195356 1_655
B5_7 Ir6_7 2.195356 1_555
B5_7 Ir1_7 2.195356 1_555
B5_7 Ir1_3 2.195356 1_655
Ir0_0 Zn6_1 2.544696 1_555
Ir0_0 Zn6_5 2.544696 1_455
Ir0_0 Zn5_0 2.590361 1_555
Ir0_0 Zn5_4 2.590361 1_455
Ir0_0 Zn1_5 3.004802 1_455
Ir0_0 Zn1_1 3.004802 1_555
Ir0_1 Zn6_0 2.544696 1_556
Ir0_1 Zn6_4 2.544696 1_456
Ir0_1 Zn5_1 2.590361 1_555
Ir0_1 Zn5_5 2.590361 1_455
Ir0_1 Zn1_4 3.004802 1_456
Ir0_1 Zn1_0 3.004802 1_556
Ir0_2 Zn6_3 2.544696 1_555
Ir0_2 Zn6_7 2.544696 1_455
Ir0_2 Zn5_6 2.590361 1_455
Ir0_2 Zn5_2 2.590361 1_555
Ir0_2 Zn1_7 3.004802 1_455
Ir0_2 Zn1_3 3.004802 1_555
Ir0_3 Zn6_2 2.544696 1_556
Ir0_3 Zn6_6 2.544696 1_456
Ir0_3 Zn5_7 2.590361 1_455
Ir0_3 Zn5_3 2.590361 1_555
Ir0_3 Zn1_2 3.004802 1_556
Ir0_3 Zn1_6 3.004802 1_456
Ir0_4 Zn6_1 2.544696 1_555
Ir0_4 Zn6_5 2.544696 1_555
Ir0_4 Zn5_0 2.590361 1_555
Ir0_4 Zn5_4 2.590361 1_555
Ir0_4 Zn1_5 3.004802 1_555
Ir0_4 Zn1_1 3.004802 1_555
Ir0_5 Zn6_4 2.544696 1_556
Ir0_5 Zn6_0 2.544696 1_556
Ir0_5 Zn5_1 2.590361 1_555
Ir0_5 Zn5_5 2.590361 1_555
Ir0_5 Zn1_0 3.004802 1_556
Ir0_5 Zn1_4 3.004802 1_556
Ir0_6 Zn6_3 2.544696 1_555
Ir0_6 Zn6_7 2.544696 1_555
Ir0_6 Zn5_6 2.590361 1_555
Ir0_6 Zn5_2 2.590361 1_555
Ir0_6 Zn1_7 3.004802 1_555
Ir0_6 Zn1_3 3.004802 1_555
Ir0_7 Zn6_2 2.544696 1_556
Ir0_7 Zn6_6 2.544696 1_556
Ir0_7 Zn5_3 2.590361 1_555
Ir0_7 Zn5_7 2.590361 1_555
Ir0_7 Zn1_2 3.004802 1_556
Ir0_7 Zn1_6 3.004802 1_556
Ir1_0 Zn4_6 2.861145 1_455
Ir1_0 Zn4_2 2.861145 1_555
Ir1_1 Zn4_3 2.861145 1_555
Ir1_1 Zn4_7 2.861145 1_455
Ir1_2 Zn4_4 2.861145 1_465
Ir1_2 Zn4_0 2.861145 1_565
Ir1_3 Zn4_1 2.861145 1_565
Ir1_3 Zn4_5 2.861145 1_465
Ir1_4 Zn4_2 2.861145 1_555
Ir1_4 Zn4_6 2.861145 1_555
Ir1_5 Zn4_3 2.861145 1_555
Ir1_5 Zn4_7 2.861145 1_555
Ir1_6 Zn4_4 2.861145 1_565
Ir1_6 Zn4_0 2.861145 1_565
Ir1_7 Zn4_5 2.861145 1_565
Ir1_7 Zn4_1 2.861145 1_565
Ir2_0 Zn6_1 2.544696 1_555
Ir2_0 Zn6_5 2.544696 1_455
Ir2_0 Zn4_2 2.590361 1_555
Ir2_0 Zn4_6 2.590361 1_455
Ir2_0 Zn0_1 3.004802 1_555
Ir2_0 Zn0_5 3.004802 1_455
Ir2_1 Zn6_0 2.544696 1_556
Ir2_1 Zn6_4 2.544696 1_456
Ir2_1 Zn4_3 2.590361 1_555
Ir2_1 Zn4_7 2.590361 1_455
Ir2_1 Zn0_0 3.004802 1_556
Ir2_1 Zn0_4 3.004802 1_456
Ir2_2 Zn6_3 2.544696 1_555
Ir2_2 Zn6_7 2.544696 1_455
Ir2_2 Zn4_4 2.590361 1_465
Ir2_2 Zn4_0 2.590361 1_565
Ir2_2 Zn0_7 3.004802 1_455
Ir2_2 Zn0_3 3.004802 1_555
Ir2_3 Zn6_2 2.544696 1_556
Ir2_3 Zn6_6 2.544696 1_456
Ir2_3 Zn4_1 2.590361 1_565
Ir2_3 Zn4_5 2.590361 1_465
Ir2_3 Zn0_2 3.004802 1_556
Ir2_3 Zn0_6 3.004802 1_456
Ir2_4 Zn6_1 2.544696 1_555
Ir2_4 Zn6_5 2.544696 1_555
Ir2_4 Zn4_2 2.590361 1_555
Ir2_4 Zn4_6 2.590361 1_555
Ir2_4 Zn0_1 3.004802 1_555
Ir2_4 Zn0_5 3.004802 1_555
Ir2_5 Zn6_4 2.544696 1_556
Ir2_5 Zn6_0 2.544696 1_556
Ir2_5 Zn4_7 2.590361 1_555
Ir2_5 Zn4_3 2.590361 1_555
Ir2_5 Zn0_0 3.004802 1_556
Ir2_5 Zn0_4 3.004802 1_556
Ir2_6 Zn6_3 2.544696 1_555
Ir2_6 Zn6_7 2.544696 1_555
Ir2_6 Zn4_0 2.590361 1_565
Ir2_6 Zn4_4 2.590361 1_565
Ir2_6 Zn0_3 3.004802 1_555
Ir2_6 Zn0_7 3.004802 1_555
Ir2_7 Zn6_2 2.544696 1_556
Ir2_7 Zn6_6 2.544696 1_556
Ir2_7 Zn4_5 2.590361 1_565
Ir2_7 Zn4_1 2.590361 1_565
Ir2_7 Zn0_2 3.004802 1_556
Ir2_7 Zn0_6 3.004802 1_556
Ir3_0 Zn2_4 2.788553 1_455
Ir3_0 Zn2_0 2.788553 1_555
Ir3_0 Zn3_4 2.788553 1_455
Ir3_0 Zn3_0 2.788553 1_555
Ir3_1 Zn2_1 2.788553 1_555
Ir3_1 Zn2_5 2.788553 1_455
Ir3_1 Zn3_1 2.788553 1_555
Ir3_1 Zn3_5 2.788553 1_455
Ir3_2 Zn2_2 2.788553 1_555
Ir3_2 Zn2_6 2.788553 1_455
Ir3_2 Zn3_6 2.788553 1_455
Ir3_2 Zn3_2 2.788553 1_555
Ir3_3 Zn2_3 2.788553 1_555
Ir3_3 Zn2_7 2.788553 1_455
Ir3_3 Zn3_3 2.788553 1_555
Ir3_3 Zn3_7 2.788553 1_455
Ir3_4 Zn2_0 2.788553 1_555
Ir3_4 Zn2_4 2.788553 1_555
Ir3_4 Zn3_4 2.788553 1_555
Ir3_4 Zn3_0 2.788553 1_555
Ir3_5 Zn2_1 2.788553 1_555
Ir3_5 Zn2_5 2.788553 1_555
Ir3_5 Zn3_1 2.788553 1_555
Ir3_5 Zn3_5 2.788553 1_555
Ir3_6 Zn2_2 2.788553 1_555
Ir3_6 Zn2_6 2.788553 1_555
Ir3_6 Zn3_2 2.788553 1_555
Ir3_6 Zn3_6 2.788553 1_555
Ir3_7 Zn2_3 2.788553 1_555
Ir3_7 Zn2_7 2.788553 1_555
Ir3_7 Zn3_3 2.788553 1_555
Ir3_7 Zn3_7 2.788553 1_555
Ir4_0 Zn2_0 2.628157 1_555
Ir4_0 Zn2_4 2.628157 1_455
Ir4_0 Zn3_0 2.628157 1_555
Ir4_0 Zn3_4 2.628157 1_455
Ir4_0 Zn9_0 2.631142 1_555
Ir4_0 Zn9_4 2.631142 1_455
Ir4_0 Zn4_0 2.662801 1_555
Ir4_0 Zn4_4 2.662801 1_455
Ir4_0 Zn5_0 2.662801 1_555
Ir4_0 Zn5_4 2.662801 1_455
Ir4_1 Zn2_1 2.628157 1_555
Ir4_1 Zn2_5 2.628157 1_455
Ir4_1 Zn3_1 2.628157 1_555
Ir4_1 Zn3_5 2.628157 1_455
Ir4_1 Zn9_1 2.631142 1_555
Ir4_1 Zn9_5 2.631142 1_455
Ir4_1 Zn4_5 2.662801 1_455
Ir4_1 Zn4_1 2.662801 1_555
Ir4_1 Zn5_5 2.662801 1_455
Ir4_1 Zn5_1 2.662801 1_555
Ir4_2 Zn2_6 2.628157 1_455
Ir4_2 Zn2_2 2.628157 1_555
Ir4_2 Zn3_6 2.628157 1_455
Ir4_2 Zn3_2 2.628157 1_555
Ir4_2 Zn9_6 2.631142 1_455
Ir4_2 Zn9_2 2.631142 1_555
Ir4_2 Zn4_2 2.662801 1_555
Ir4_2 Zn4_6 2.662801 1_455
Ir4_2 Zn5_6 2.662801 1_455
Ir4_2 Zn5_2 2.662801 1_555
Ir4_3 Zn2_3 2.628157 1_555
Ir4_3 Zn2_7 2.628157 1_455
Ir4_3 Zn3_7 2.628157 1_455
Ir4_3 Zn3_3 2.628157 1_555
Ir4_3 Zn9_3 2.631142 1_555
Ir4_3 Zn9_7 2.631142 1_455
Ir4_3 Zn4_3 2.662801 1_555
Ir4_3 Zn4_7 2.662801 1_455
Ir4_3 Zn5_7 2.662801 1_455
Ir4_3 Zn5_3 2.662801 1_555
Ir4_4 Zn2_0 2.628157 1_555
Ir4_4 Zn2_4 2.628157 1_555
Ir4_4 Zn3_0 2.628157 1_555
Ir4_4 Zn3_4 2.628157 1_555
Ir4_4 Zn9_0 2.631142 1_555
Ir4_4 Zn9_4 2.631142 1_555
Ir4_4 Zn4_0 2.662801 1_555
Ir4_4 Zn4_4 2.662801 1_555
Ir4_4 Zn5_0 2.662801 1_555
Ir4_4 Zn5_4 2.662801 1_555
Ir4_5 Zn2_1 2.628157 1_555
Ir4_5 Zn2_5 2.628157 1_555
Ir4_5 Zn3_1 2.628157 1_555
Ir4_5 Zn3_5 2.628157 1_555
Ir4_5 Zn9_5 2.631142 1_555
Ir4_5 Zn9_1 2.631142 1_555
Ir4_5 Zn4_1 2.662801 1_555
Ir4_5 Zn4_5 2.662801 1_555
Ir4_5 Zn5_1 2.662801 1_555
Ir4_5 Zn5_5 2.662801 1_555
Ir4_6 Zn2_6 2.628157 1_555
Ir4_6 Zn2_2 2.628157 1_555
Ir4_6 Zn3_2 2.628157 1_555
Ir4_6 Zn3_6 2.628157 1_555
Ir4_6 Zn9_6 2.631142 1_555
Ir4_6 Zn9_2 2.631142 1_555
Ir4_6 Zn4_2 2.662801 1_555
Ir4_6 Zn4_6 2.662801 1_555
Ir4_6 Zn5_2 2.662801 1_555
Ir4_6 Zn5_6 2.662801 1_555
Ir4_7 Zn2_3 2.628157 1_555
Ir4_7 Zn2_7 2.628157 1_555
Ir4_7 Zn3_7 2.628157 1_555
Ir4_7 Zn3_3 2.628157 1_555
Ir4_7 Zn9_3 2.631142 1_555
Ir4_7 Zn9_7 2.631142 1_555
Ir4_7 Zn4_3 2.662801 1_555
Ir4_7 Zn4_7 2.662801 1_555
Ir4_7 Zn5_3 2.662801 1_555
Ir4_7 Zn5_7 2.662801 1_555
Ir5_0 Zn9_1 2.544696 1_554
Ir5_0 Zn9_5 2.544696 1_454
Ir5_0 Zn1_4 2.590361 1_455
Ir5_0 Zn1_0 2.590361 1_555
Ir5_0 Zn5_5 3.004802 1_454
Ir5_0 Zn5_1 3.004802 1_554
Ir5_1 Zn9_0 2.544696 1_555
Ir5_1 Zn9_4 2.544696 1_455
Ir5_1 Zn1_1 2.590361 1_555
Ir5_1 Zn1_5 2.590361 1_455
Ir5_1 Zn5_0 3.004802 1_555
Ir5_1 Zn5_4 3.004802 1_455
Ir5_2 Zn9_7 2.544696 1_454
Ir5_2 Zn9_3 2.544696 1_554
Ir5_2 Zn1_2 2.590361 1_555
Ir5_2 Zn1_6 2.590361 1_455
Ir5_2 Zn5_7 3.004802 1_454
Ir5_2 Zn5_3 3.004802 1_554
Ir5_3 Zn9_2 2.544696 1_555
Ir5_3 Zn9_6 2.544696 1_455
Ir5_3 Zn1_7 2.590361 1_455
Ir5_3 Zn1_3 2.590361 1_555
Ir5_3 Zn5_6 3.004802 1_455
Ir5_3 Zn5_2 3.004802 1_555
Ir5_4 Zn9_1 2.544696 1_554
Ir5_4 Zn9_5 2.544696 1_554
Ir5_4 Zn1_0 2.590361 1_555
Ir5_4 Zn1_4 2.590361 1_555
Ir5_4 Zn5_5 3.004802 1_554
Ir5_4 Zn5_1 3.004802 1_554
Ir5_5 Zn9_0 2.544696 1_555
Ir5_5 Zn9_4 2.544696 1_555
Ir5_5 Zn1_5 2.590361 1_555
Ir5_5 Zn1_1 2.590361 1_555
Ir5_5 Zn5_0 3.004802 1_555
Ir5_5 Zn5_4 3.004802 1_555
Ir5_6 Zn9_3 2.544696 1_554
Ir5_6 Zn9_7 2.544696 1_554
Ir5_6 Zn1_2 2.590361 1_555
Ir5_6 Zn1_6 2.590361 1_555
Ir5_6 Zn5_7 3.004802 1_554
Ir5_6 Zn5_3 3.004802 1_554
Ir5_7 Zn9_2 2.544696 1_555
Ir5_7 Zn9_6 2.544696 1_555
Ir5_7 Zn1_3 2.590361 1_555
Ir5_7 Zn1_7 2.590361 1_555
Ir5_7 Zn5_6 3.004802 1_555
Ir5_7 Zn5_2 3.004802 1_555
Ir6_0 Zn5_0 2.861145 1_555
Ir6_0 Zn5_4 2.861145 1_455
Ir6_1 Zn5_5 2.861145 1_455
Ir6_1 Zn5_1 2.861145 1_555
Ir6_2 Zn5_2 2.861145 1_555
Ir6_2 Zn5_6 2.861145 1_455
Ir6_3 Zn5_3 2.861145 1_555
Ir6_3 Zn5_7 2.861145 1_455
Ir6_4 Zn5_0 2.861145 1_555
Ir6_4 Zn5_4 2.861145 1_555
Ir6_5 Zn5_1 2.861145 1_555
Ir6_5 Zn5_5 2.861145 1_555
Ir6_6 Zn5_2 2.861145 1_555
Ir6_6 Zn5_6 2.861145 1_555
Ir6_7 Zn5_3 2.861145 1_555
Ir6_7 Zn5_7 2.861145 1_555
Ir7_0 Zn0_6 2.861145 1_445
Ir7_0 Zn0_2 2.861145 1_545
Ir7_1 Zn0_7 2.861145 1_445
Ir7_1 Zn0_3 2.861145 1_545
Ir7_2 Zn0_0 2.861145 1_555
Ir7_2 Zn0_4 2.861145 1_455
Ir7_3 Zn0_1 2.861145 1_555
Ir7_3 Zn0_5 2.861145 1_455
Ir7_4 Zn0_2 2.861145 1_545
Ir7_4 Zn0_6 2.861145 1_545
Ir7_5 Zn0_3 2.861145 1_545
Ir7_5 Zn0_7 2.861145 1_545
Ir7_6 Zn0_4 2.861145 1_555
Ir7_6 Zn0_0 2.861145 1_555
Ir7_7 Zn0_1 2.861145 1_555
Ir7_7 Zn0_5 2.861145 1_555
Ir8_0 Zn1_4 2.861145 1_455
Ir8_0 Zn1_0 2.861145 1_555
Ir8_1 Zn1_1 2.861145 1_555
Ir8_1 Zn1_5 2.861145 1_455
Ir8_2 Zn1_6 2.861145 1_455
Ir8_2 Zn1_2 2.861145 1_555
Ir8_3 Zn1_7 2.861145 1_455
Ir8_3 Zn1_3 2.861145 1_555
Ir8_4 Zn1_0 2.861145 1_555
Ir8_4 Zn1_4 2.861145 1_555
Ir8_5 Zn1_1 2.861145 1_555
Ir8_5 Zn1_5 2.861145 1_555
Ir8_6 Zn1_2 2.861145 1_555
Ir8_6 Zn1_6 2.861145 1_555
Ir8_7 Zn1_3 2.861145 1_555
Ir8_7 Zn1_7 2.861145 1_555
Ir9_0 Zn3_4 2.696434 1_455
Ir9_0 Zn3_0 2.696434 1_555
Ir9_0 Zn7_2 2.696434 1_545
Ir9_0 Zn7_6 2.696434 1_445
Ir9_1 Zn3_5 2.696434 1_455
Ir9_1 Zn3_1 2.696434 1_555
Ir9_1 Zn7_7 2.696434 1_445
Ir9_1 Zn7_3 2.696434 1_545
Ir9_2 Zn3_6 2.696434 1_455
Ir9_2 Zn3_2 2.696434 1_555
Ir9_2 Zn7_0 2.696434 1_555
Ir9_2 Zn7_4 2.696434 1_455
Ir9_3 Zn3_3 2.696434 1_555
Ir9_3 Zn3_7 2.696434 1_455
Ir9_3 Zn7_5 2.696434 1_455
Ir9_3 Zn7_1 2.696434 1_555
Ir9_4 Zn3_4 2.696434 1_555
Ir9_4 Zn3_0 2.696434 1_555
Ir9_4 Zn7_2 2.696434 1_545
Ir9_4 Zn7_6 2.696434 1_545
Ir9_5 Zn3_1 2.696434 1_555
Ir9_5 Zn3_5 2.696434 1_555
Ir9_5 Zn7_3 2.696434 1_545
Ir9_5 Zn7_7 2.696434 1_545
Ir9_6 Zn3_6 2.696434 1_555
Ir9_6 Zn3_2 2.696434 1_555
Ir9_6 Zn7_0 2.696434 1_555
Ir9_6 Zn7_4 2.696434 1_555
Ir9_7 Zn3_3 2.696434 1_555
Ir9_7 Zn3_7 2.696434 1_555
Ir9_7 Zn7_1 2.696434 1_555
Ir9_7 Zn7_5 2.696434 1_555
Ir10_0 Zn7_0 2.788553 1_555
Ir10_0 Zn7_4 2.788553 1_455
Ir10_0 Zn8_4 2.788553 1_455
Ir10_0 Zn8_0 2.788553 1_555
Ir10_1 Zn7_5 2.788553 1_455
Ir10_1 Zn7_1 2.788553 1_555
Ir10_1 Zn8_5 2.788553 1_455
Ir10_1 Zn8_1 2.788553 1_555
Ir10_2 Zn7_2 2.788553 1_555
Ir10_2 Zn7_6 2.788553 1_455
Ir10_2 Zn8_2 2.788553 1_555
Ir10_2 Zn8_6 2.788553 1_455
Ir10_3 Zn7_7 2.788553 1_455
Ir10_3 Zn7_3 2.788553 1_555
Ir10_3 Zn8_3 2.788553 1_555
Ir10_3 Zn8_7 2.788553 1_455
Ir10_4 Zn7_0 2.788553 1_555
Ir10_4 Zn7_4 2.788553 1_555
Ir10_4 Zn8_4 2.788553 1_555
Ir10_4 Zn8_0 2.788553 1_555
Ir10_5 Zn7_1 2.788553 1_555
Ir10_5 Zn7_5 2.788553 1_555
Ir10_5 Zn8_1 2.788553 1_555
Ir10_5 Zn8_5 2.788553 1_555
Ir10_6 Zn7_2 2.788553 1_555
Ir10_6 Zn7_6 2.788553 1_555
Ir10_6 Zn8_6 2.788553 1_555
Ir10_6 Zn8_2 2.788553 1_555
Ir10_7 Zn7_3 2.788553 1_555
Ir10_7 Zn7_7 2.788553 1_555
Ir10_7 Zn8_3 2.788553 1_555
Ir10_7 Zn8_7 2.788553 1_555
Ir11_0 Zn7_0 2.628157 1_555
Ir11_0 Zn7_4 2.628157 1_455
Ir11_0 Zn8_4 2.628157 1_455
Ir11_0 Zn8_0 2.628157 1_555
Ir11_0 Zn6_4 2.631142 1_455
Ir11_0 Zn6_0 2.631142 1_555
Ir11_0 Zn1_4 2.662801 1_455
Ir11_0 Zn1_0 2.662801 1_555
Ir11_0 Zn0_0 2.662801 1_555
Ir11_0 Zn0_4 2.662801 1_455
Ir11_1 Zn7_5 2.628157 1_455
Ir11_1 Zn7_1 2.628157 1_555
Ir11_1 Zn8_5 2.628157 1_455
Ir11_1 Zn8_1 2.628157 1_555
Ir11_1 Zn6_1 2.631142 1_555
Ir11_1 Zn6_5 2.631142 1_455
Ir11_1 Zn1_1 2.662801 1_555
Ir11_1 Zn1_5 2.662801 1_455
Ir11_1 Zn0_5 2.662801 1_455
Ir11_1 Zn0_1 2.662801 1_555
Ir11_2 Zn7_6 2.628157 1_455
Ir11_2 Zn7_2 2.628157 1_555
Ir11_2 Zn8_2 2.628157 1_555
Ir11_2 Zn8_6 2.628157 1_455
Ir11_2 Zn6_2 2.631142 1_555
Ir11_2 Zn6_6 2.631142 1_455
Ir11_2 Zn1_2 2.662801 1_555
Ir11_2 Zn1_6 2.662801 1_455
Ir11_2 Zn0_2 2.662801 1_555
Ir11_2 Zn0_6 2.662801 1_455
Ir11_3 Zn7_3 2.628157 1_555
Ir11_3 Zn7_7 2.628157 1_455
Ir11_3 Zn8_3 2.628157 1_555
Ir11_3 Zn8_7 2.628157 1_455
Ir11_3 Zn6_7 2.631142 1_455
Ir11_3 Zn6_3 2.631142 1_555
Ir11_3 Zn1_3 2.662801 1_555
Ir11_3 Zn1_7 2.662801 1_455
Ir11_3 Zn0_7 2.662801 1_455
Ir11_3 Zn0_3 2.662801 1_555
Ir11_4 Zn7_0 2.628157 1_555
Ir11_4 Zn7_4 2.628157 1_555
Ir11_4 Zn8_0 2.628157 1_555
Ir11_4 Zn8_4 2.628157 1_555
Ir11_4 Zn6_4 2.631142 1_555
Ir11_4 Zn6_0 2.631142 1_555
Ir11_4 Zn1_0 2.662801 1_555
Ir11_4 Zn1_4 2.662801 1_555
Ir11_4 Zn0_0 2.662801 1_555
Ir11_4 Zn0_4 2.662801 1_555
Ir11_5 Zn7_1 2.628157 1_555
Ir11_5 Zn7_5 2.628157 1_555
Ir11_5 Zn8_1 2.628157 1_555
Ir11_5 Zn8_5 2.628157 1_555
Ir11_5 Zn6_5 2.631142 1_555
Ir11_5 Zn6_1 2.631142 1_555
Ir11_5 Zn1_1 2.662801 1_555
Ir11_5 Zn1_5 2.662801 1_555
Ir11_5 Zn0_5 2.662801 1_555
Ir11_5 Zn0_1 2.662801 1_555
Ir11_6 Zn7_6 2.628157 1_555
Ir11_6 Zn7_2 2.628157 1_555
Ir11_6 Zn8_2 2.628157 1_555
Ir11_6 Zn8_6 2.628157 1_555
Ir11_6 Zn6_2 2.631142 1_555
Ir11_6 Zn6_6 2.631142 1_555
Ir11_6 Zn1_2 2.662801 1_555
Ir11_6 Zn1_6 2.662801 1_555
Ir11_6 Zn0_2 2.662801 1_555
Ir11_6 Zn0_6 2.662801 1_555
Ir11_7 Zn7_3 2.628157 1_555
Ir11_7 Zn7_7 2.628157 1_555
Ir11_7 Zn8_3 2.628157 1_555
Ir11_7 Zn8_7 2.628157 1_555
Ir11_7 Zn6_3 2.631142 1_555
Ir11_7 Zn6_7 2.631142 1_555
Ir11_7 Zn1_3 2.662801 1_555
Ir11_7 Zn1_7 2.662801 1_555
Ir11_7 Zn0_3 2.662801 1_555
Ir11_7 Zn0_7 2.662801 1_555
Ir12_0 Zn9_5 2.544696 1_454
Ir12_0 Zn9_1 2.544696 1_554
Ir12_0 Zn0_2 2.590361 1_545
Ir12_0 Zn0_6 2.590361 1_445
Ir12_0 Zn4_5 3.004802 1_454
Ir12_0 Zn4_1 3.004802 1_554
Ir12_1 Zn9_4 2.544696 1_455
Ir12_1 Zn9_0 2.544696 1_555
Ir12_1 Zn0_3 2.590361 1_545
Ir12_1 Zn0_7 2.590361 1_445
Ir12_1 Zn4_0 3.004802 1_555
Ir12_1 Zn4_4 3.004802 1_455
Ir12_2 Zn9_7 2.544696 1_454
Ir12_2 Zn9_3 2.544696 1_554
Ir12_2 Zn0_0 2.590361 1_555
Ir12_2 Zn0_4 2.590361 1_455
Ir12_2 Zn4_3 3.004802 1_554
Ir12_2 Zn4_7 3.004802 1_454
Ir12_3 Zn9_2 2.544696 1_555
Ir12_3 Zn9_6 2.544696 1_455
Ir12_3 Zn0_1 2.590361 1_555
Ir12_3 Zn0_5 2.590361 1_455
Ir12_3 Zn4_6 3.004802 1_455
Ir12_3 Zn4_2 3.004802 1_555
Ir12_4 Zn9_5 2.544696 1_554
Ir12_4 Zn9_1 2.544696 1_554
Ir12_4 Zn0_2 2.590361 1_545
Ir12_4 Zn0_6 2.590361 1_545
Ir12_4 Zn4_1 3.004802 1_554
Ir12_4 Zn4_5 3.004802 1_554
Ir12_5 Zn9_0 2.544696 1_555
Ir12_5 Zn9_4 2.544696 1_555
Ir12_5 Zn0_3 2.590361 1_545
Ir12_5 Zn0_7 2.590361 1_545
Ir12_5 Zn4_0 3.004802 1_555
Ir12_5 Zn4_4 3.004802 1_555
Ir12_6 Zn9_3 2.544696 1_554
Ir12_6 Zn9_7 2.544696 1_554
Ir12_6 Zn0_4 2.590361 1_555
Ir12_6 Zn0_0 2.590361 1_555
Ir12_6 Zn4_3 3.004802 1_554
Ir12_6 Zn4_7 3.004802 1_554
Ir12_7 Zn9_2 2.544696 1_555
Ir12_7 Zn9_6 2.544696 1_555
Ir12_7 Zn0_1 2.590361 1_555
Ir12_7 Zn0_5 2.590361 1_555
Ir12_7 Zn4_6 3.004802 1_555
Ir12_7 Zn4_2 3.004802 1_555
Ir13_0 Zn8_0 2.696434 1_555
Ir13_0 Zn8_4 2.696434 1_455
Ir13_0 Zn2_0 2.696434 1_555
Ir13_0 Zn2_4 2.696434 1_455
Ir13_1 Zn8_5 2.696434 1_455
Ir13_1 Zn8_1 2.696434 1_555
Ir13_1 Zn2_1 2.696434 1_555
Ir13_1 Zn2_5 2.696434 1_455
Ir13_2 Zn8_6 2.696434 1_455
Ir13_2 Zn2_2 2.696434 1_555
Ir13_2 Zn2_6 2.696434 1_455
Ir13_2 Zn8_2 2.696434 1_555
Ir13_3 Zn2_3 2.696434 1_555
Ir13_3 Zn2_7 2.696434 1_455
Ir13_3 Zn8_3 2.696434 1_555
Ir13_3 Zn8_7 2.696434 1_455
Ir13_4 Zn8_0 2.696434 1_555
Ir13_4 Zn8_4 2.696434 1_555
Ir13_4 Zn2_0 2.696434 1_555
Ir13_4 Zn2_4 2.696434 1_555
Ir13_5 Zn8_5 2.696434 1_555
Ir13_5 Zn8_1 2.696434 1_555
Ir13_5 Zn2_1 2.696434 1_555
Ir13_5 Zn2_5 2.696434 1_555
Ir13_6 Zn2_6 2.696434 1_555
Ir13_6 Zn8_6 2.696434 1_555
Ir13_6 Zn2_2 2.696434 1_555
Ir13_6 Zn8_2 2.696434 1_555
Ir13_7 Zn2_3 2.696434 1_555
Ir13_7 Zn2_7 2.696434 1_555
Ir13_7 Zn8_3 2.696434 1_555
Ir13_7 Zn8_7 2.696434 1_555
