# generated using pymatgen
data_Na4TeH10(SeO8)2
_symmetry_space_group_name_H-M   'P 1'
_cell_length_a   12.67262200
_cell_length_b   6.17880100
_cell_length_c   10.90674014
_cell_angle_alpha   67.53181420
_cell_angle_beta   90.00000000
_cell_angle_gamma   90.00000000
_symmetry_Int_Tables_number   1
_chemical_formula_structural   Na4TeH10(SeO8)2
_chemical_formula_sum   'Na8 Te2 H20 Se4 O32'
_cell_volume   789.18861074
_cell_formula_units_Z   2
loop_
 _symmetry_equiv_pos_site_id
 _symmetry_equiv_pos_as_xyz
  1  'x, y, z'
loop_
 _atom_site_type_symbol
 _atom_site_label
 _atom_site_symmetry_multiplicity
 _atom_site_fract_x
 _atom_site_fract_y
 _atom_site_fract_z
 _atom_site_occupancy
  Na  Na0  1  0.72435100  0.87584100  0.23067800  1
  Na  Na1  1  0.27564900  0.12415900  0.76932200  1
  Na  Na2  1  0.96900500  0.37688100  0.14814000  1
  Na  Na3  1  0.53099500  0.37688100  0.64814000  1
  Na  Na4  1  0.22435100  0.12415900  0.26932200  1
  Na  Na5  1  0.77564900  0.87584100  0.73067800  1
  Na  Na6  1  0.46900500  0.62311900  0.35186000  1
  Na  Na7  1  0.03099500  0.62311900  0.85186000  1
  Te  Te0  1  0.00000000  0.00000000  0.50000000  1
  Te  Te1  1  0.50000000  0.00000000  0.00000000  1
  H  H0  1  0.12327400  0.99795400  0.01743500  1
  H  H1  1  0.37672600  0.99795400  0.51743500  1
  H  H2  1  0.62327400  0.00204600  0.48256500  1
  H  H3  1  0.62897900  0.87660300  0.86521000  1
  H  H4  1  0.87672600  0.00204600  0.98256500  1
  H  H5  1  0.45289900  0.74377300  0.73127800  1
  H  H6  1  0.04710100  0.74377300  0.23127800  1
  H  H7  1  0.93219600  0.67783800  0.25418200  1
  H  H8  1  0.12897900  0.12339700  0.63479000  1
  H  H9  1  0.87102100  0.87660300  0.36521000  1
  H  H10  1  0.75616000  0.04810100  0.94805300  1
  H  H11  1  0.56780400  0.67783800  0.75418200  1
  H  H12  1  0.37102100  0.12339700  0.13479000  1
  H  H13  1  0.54710100  0.25622700  0.26872200  1
  H  H14  1  0.95289900  0.25622700  0.76872200  1
  H  H15  1  0.43219600  0.32216200  0.24581800  1
  H  H16  1  0.24384000  0.95189900  0.05194700  1
  H  H17  1  0.06780400  0.32216200  0.74581800  1
  H  H18  1  0.74384000  0.04810100  0.44805300  1
  H  H19  1  0.25616000  0.95189900  0.55194700  1
  Se  Se0  1  0.70995600  0.43612000  0.02595700  1
  Se  Se1  1  0.29004400  0.56388000  0.97404300  1
  Se  Se2  1  0.79004400  0.43612000  0.52595700  1
  Se  Se3  1  0.20995600  0.56388000  0.47404300  1
  O  O0  1  0.84115800  0.59073700  0.37605600  1
  O  O1  1  0.11423800  0.79940900  0.40747700  1
  O  O2  1  0.43810100  0.33104600  0.86281800  1
  O  O3  1  0.15884200  0.40926300  0.62394400  1
  O  O4  1  0.98287100  0.74828300  0.17998300  1
  O  O5  1  0.88576200  0.20059100  0.59252300  1
  O  O6  1  0.63247200  0.66582900  0.44483000  1
  O  O7  1  0.51712900  0.74828300  0.67998300  1
  O  O8  1  0.67214300  0.62267800  0.12753100  1
  O  O9  1  0.32785700  0.37732200  0.87246900  1
  O  O10  1  0.36752800  0.33417100  0.55517000  1
  O  O11  1  0.81390500  0.07481900  0.00180600  1
  O  O12  1  0.13247200  0.33417100  0.05517000  1
  O  O13  1  0.18609500  0.92518100  0.99819400  1
  O  O14  1  0.01712900  0.25171700  0.82001700  1
  O  O15  1  0.82785700  0.62267800  0.62753100  1
  O  O16  1  0.34115800  0.40926300  0.12394400  1
  O  O17  1  0.48287100  0.25171700  0.32001700  1
  O  O18  1  0.87754100  0.04362600  0.35496600  1
  O  O19  1  0.38576200  0.79940900  0.90747700  1
  O  O20  1  0.65884200  0.59073700  0.87605600  1
  O  O21  1  0.56189900  0.66895400  0.13718200  1
  O  O22  1  0.12245900  0.95637400  0.64503400  1
  O  O23  1  0.37754100  0.95637400  0.14503400  1
  O  O24  1  0.86752800  0.66582900  0.94483000  1
  O  O25  1  0.31390500  0.92518100  0.49819400  1
  O  O26  1  0.62245900  0.04362600  0.85496600  1
  O  O27  1  0.06189900  0.33104600  0.36281800  1
  O  O28  1  0.17214300  0.37732200  0.37246900  1
  O  O29  1  0.68609500  0.07481900  0.50180600  1
  O  O30  1  0.61423800  0.20059100  0.09252300  1
  O  O31  1  0.93810100  0.66895400  0.63718200  1
loop_
_geom_bond_atom_site_label_1
_geom_bond_atom_site_label_2
_geom_bond_distance
_geom_bond_site_symmetry_2
Na0 O8 2.344200 1_555
Na0 O0 2.381923 1_555
Na0 O30 2.435775 1_565
Na0 O6 2.485642 1_555
Na0 O11 2.585534 1_565
Na1 O9 2.344200 1_555
Na1 O3 2.381923 1_555
Na1 O19 2.435775 1_545
Na1 O10 2.485642 1_555
Na1 O13 2.585534 1_545
Na2 O12 2.365102 1_655
Na2 O4 2.454968 1_555
Na2 O27 2.538015 1_655
Na2 O24 2.594675 1_554
Na2 O18 2.668660 1_555
Na3 O10 2.365102 1_555
Na3 O7 2.454968 1_555
Na3 O2 2.538015 1_555
Na3 O6 2.594675 1_555
Na3 O26 2.668660 1_555
Na4 O28 2.344200 1_555
Na4 O16 2.381923 1_555
Na4 O1 2.435775 1_545
Na4 O12 2.485642 1_555
Na4 O25 2.585534 1_545
Na5 O15 2.344200 1_555
Na5 O20 2.381923 1_555
Na5 O5 2.435775 1_565
Na5 O24 2.485642 1_555
Na5 O29 2.585534 1_565
Na6 O6 2.365102 1_555
Na6 O17 2.454968 1_555
Na6 O21 2.538015 1_555
Na6 O10 2.594675 1_555
Na6 O23 2.668660 1_555
Na7 O24 2.365102 1_455
Na7 O14 2.454968 1_555
Na7 O31 2.538015 1_455
Na7 O12 2.594675 1_556
Na7 O22 2.668660 1_555
H0 O13 0.975774 1_554
H1 O25 0.975774 1_555
H2 O29 0.975774 1_555
H3 O26 0.998101 1_565
H3 O20 1.765603 1_555
H3 Na5 2.369183 1_555
H4 O11 0.975774 1_556
H5 O7 0.982035 1_555
H6 O4 0.982035 1_455
H7 O4 0.993749 1_555
H7 O0 1.685452 1_555
H8 O22 0.998101 1_545
H8 O3 1.765603 1_555
H8 Na1 2.369183 1_555
H9 O18 0.998101 1_565
H9 O0 1.765603 1_555
H9 Na0 2.369183 1_555
H10 O11 0.990174 1_556
H11 O7 0.993749 1_555
H11 O20 1.685452 1_555
H12 O23 0.998101 1_545
H12 O16 1.765603 1_555
H12 Na4 2.369183 1_555
H13 O17 0.982035 1_555
H14 O14 0.982035 1_655
H15 O17 0.993749 1_555
H15 O16 1.685452 1_555
H16 O13 0.990174 1_554
H17 O14 0.993749 1_555
H17 O3 1.685452 1_555
H18 O29 0.990174 1_555
H19 O25 0.990174 1_555
O0 Se2 1.676730 1_555
O1 Se3 1.818997 1_555
O1 Te0 2.367757 1_565
O2 O9 1.437941 1_555
O2 Te1 2.167642 1_556
O3 Se3 1.676730 1_555
O5 Se2 1.818997 1_555
O5 Te0 2.367757 1_655
O6 Se2 2.413486 1_555
O8 Se0 1.939520 1_555
O9 Se1 1.939520 1_555
O10 Se3 2.413486 1_555
O12 Se1 2.413486 1_554
O15 O31 1.437941 1_555
O15 Se2 1.939520 1_555
O16 Se1 1.676730 1_554
O18 Te0 2.158081 1_655
O19 Se1 1.818997 1_555
O19 Te1 2.367757 1_566
O20 Se0 1.676730 1_556
O21 O8 1.437941 1_555
O21 Te1 2.167642 1_565
O22 Te0 2.158081 1_565
O23 Te1 2.158081 1_565
O24 Se0 2.413486 1_556
O26 Te1 2.158081 1_556
O27 O28 1.437941 1_555
O27 Te0 2.167642 1_555
O28 Se3 1.939520 1_555
O30 Se0 1.818997 1_555
O30 Te1 2.367757 1_555
O31 Te0 2.167642 1_665
