# generated using pymatgen
data_Zr7Ni10
_symmetry_space_group_name_H-M   'P 1'
_cell_length_a   9.13403500
_cell_length_b   9.14649500
_cell_length_c   12.36723200
_cell_angle_alpha   90.00000000
_cell_angle_beta   90.00000000
_cell_angle_gamma   90.00000000
_symmetry_Int_Tables_number   1
_chemical_formula_structural   Zr7Ni10
_chemical_formula_sum   'Zr28 Ni40'
_cell_volume   1033.21304459
_cell_formula_units_Z   4
loop_
 _symmetry_equiv_pos_site_id
 _symmetry_equiv_pos_as_xyz
  1  'x, y, z'
loop_
 _atom_site_type_symbol
 _atom_site_label
 _atom_site_symmetry_multiplicity
 _atom_site_fract_x
 _atom_site_fract_y
 _atom_site_fract_z
 _atom_site_occupancy
  Zr  Zr0  1  0.18556600  0.81392700  0.49695900  1
  Zr  Zr1  1  0.49980800  0.50109600  0.69129900  1
  Zr  Zr2  1  0.00000000  0.50000000  0.50000000  1
  Zr  Zr3  1  0.31443400  0.31392700  0.49695900  1
  Zr  Zr4  1  0.50019200  0.00109600  0.80870100  1
  Zr  Zr5  1  0.18556600  0.68607300  0.99695900  1
  Zr  Zr6  1  0.25259300  0.24886800  0.74628600  1
  Zr  Zr7  1  0.49980800  0.99890400  0.19129900  1
  Zr  Zr8  1  0.75259300  0.25113200  0.25371400  1
  Zr  Zr9  1  0.81443400  0.31392700  0.00304100  1
  Zr  Zr10  1  0.68556600  0.68607300  0.50304100  1
  Zr  Zr11  1  0.50019200  0.49890400  0.30870100  1
  Zr  Zr12  1  0.68556600  0.81392700  0.00304100  1
  Zr  Zr13  1  0.81443400  0.18607300  0.50304100  1
  Zr  Zr14  1  0.99980800  0.50109600  0.80870100  1
  Zr  Zr15  1  0.31443400  0.18607300  0.99695900  1
  Zr  Zr16  1  0.00000000  0.00000000  0.00000000  1
  Zr  Zr17  1  0.24740700  0.74886800  0.74628600  1
  Zr  Zr18  1  0.24740700  0.75113200  0.24628600  1
  Zr  Zr19  1  0.75259300  0.24886800  0.75371400  1
  Zr  Zr20  1  0.99980800  0.99890400  0.30870100  1
  Zr  Zr21  1  0.50000000  0.00000000  0.50000000  1
  Zr  Zr22  1  0.74740700  0.74886800  0.75371400  1
  Zr  Zr23  1  0.74740700  0.75113200  0.25371400  1
  Zr  Zr24  1  0.25259300  0.25113200  0.24628600  1
  Zr  Zr25  1  0.00019200  0.00109600  0.69129900  1
  Zr  Zr26  1  0.50000000  0.50000000  0.00000000  1
  Zr  Zr27  1  0.00019200  0.49890400  0.19129900  1
  Ni  Ni0  1  0.49447800  0.79359500  0.64742900  1
  Ni  Ni1  1  0.60641800  0.10513300  0.99823200  1
  Ni  Ni2  1  0.60641800  0.39486700  0.49823200  1
  Ni  Ni3  1  0.98659600  0.70822200  0.64355900  1
  Ni  Ni4  1  0.01340400  0.20822200  0.85644100  1
  Ni  Ni5  1  0.79037900  0.49243800  0.64666200  1
  Ni  Ni6  1  0.10641800  0.10513300  0.50176800  1
  Ni  Ni7  1  0.99447800  0.79359500  0.85257100  1
  Ni  Ni8  1  0.89358200  0.60513300  0.99823200  1
  Ni  Ni9  1  0.79310100  0.00675800  0.85634000  1
  Ni  Ni10  1  0.20689900  0.50675800  0.64366000  1
  Ni  Ni11  1  0.51340400  0.20822200  0.64355900  1
  Ni  Ni12  1  0.10641800  0.39486700  0.00176800  1
  Ni  Ni13  1  0.98659600  0.79177800  0.14355900  1
  Ni  Ni14  1  0.00552200  0.29359500  0.64742900  1
  Ni  Ni15  1  0.29037900  0.00756200  0.35333800  1
  Ni  Ni16  1  0.29037900  0.49243800  0.85333800  1
  Ni  Ni17  1  0.70689900  0.99324200  0.35634000  1
  Ni  Ni18  1  0.48659600  0.79177800  0.35644100  1
  Ni  Ni19  1  0.00552200  0.20640500  0.14742900  1
  Ni  Ni20  1  0.48659600  0.70822200  0.85644100  1
  Ni  Ni21  1  0.70962100  0.99243800  0.64666200  1
  Ni  Ni22  1  0.50552200  0.29359500  0.85257100  1
  Ni  Ni23  1  0.39358200  0.89486700  0.00176800  1
  Ni  Ni24  1  0.29310100  0.49324200  0.14366000  1
  Ni  Ni25  1  0.70689900  0.50675800  0.85634000  1
  Ni  Ni26  1  0.50552200  0.20640500  0.35257100  1
  Ni  Ni27  1  0.29310100  0.00675800  0.64366000  1
  Ni  Ni28  1  0.79310100  0.49324200  0.35634000  1
  Ni  Ni29  1  0.20689900  0.99324200  0.14366000  1
  Ni  Ni30  1  0.70962100  0.50756200  0.14666200  1
  Ni  Ni31  1  0.49447800  0.70640500  0.14742900  1
  Ni  Ni32  1  0.20962100  0.50756200  0.35333800  1
  Ni  Ni33  1  0.99447800  0.70640500  0.35257100  1
  Ni  Ni34  1  0.01340400  0.29177800  0.35644100  1
  Ni  Ni35  1  0.39358200  0.60513300  0.50176800  1
  Ni  Ni36  1  0.89358200  0.89486700  0.49823200  1
  Ni  Ni37  1  0.20962100  0.99243800  0.85333800  1
  Ni  Ni38  1  0.79037900  0.00756200  0.14666200  1
  Ni  Ni39  1  0.51340400  0.29177800  0.14355900  1
loop_
_geom_bond_atom_site_label_1
_geom_bond_atom_site_label_2
_geom_bond_distance
_geom_bond_site_symmetry_2
Ni0 Zr17 2.599043 1_555
Ni0 Zr21 2.625076 1_565
Ni0 Ni35 2.658161 1_555
Ni0 Zr10 2.683703 1_555
Ni0 Zr22 2.689322 1_555
Ni0 Ni20 2.701229 1_555
Ni0 Zr1 2.730234 1_555
Ni0 Zr4 2.753681 1_565
Ni1 Ni9 2.607025 1_555
Ni1 Ni39 2.620386 1_556
Ni1 Ni38 2.643774 1_556
Ni1 Ni22 2.658161 1_555
Ni1 Zr9 2.694571 1_556
Ni1 Zr4 2.709453 1_555
Ni1 Ni23 2.734947 1_546
Ni1 Zr7 2.755618 1_546
Ni1 Zr12 2.760523 1_546
Ni1 Zr15 2.767881 1_555
Ni2 Ni28 2.607025 1_555
Ni2 Ni5 2.643774 1_555
Ni2 Ni26 2.658161 1_555
Ni2 Zr13 2.694571 1_555
Ni2 Zr11 2.709453 1_555
Ni2 Ni35 2.734947 1_555
Ni2 Zr1 2.755618 1_555
Ni2 Zr10 2.760523 1_555
Ni2 Zr3 2.767881 1_555
Ni3 Zr22 2.601401 1_555
Ni3 Zr2 2.606580 1_655
Ni3 Ni36 2.620386 1_555
Ni3 Ni5 2.666272 1_555
Ni3 Ni7 2.701229 1_555
Ni3 Zr17 2.725325 1_655
Ni3 Zr0 2.743137 1_655
Ni3 Zr25 2.745873 1_665
Ni3 Zr14 2.788332 1_555
Ni3 Zr10 3.259058 1_555
Ni4 Zr6 2.601401 1_555
Ni4 Zr16 2.606580 1_556
Ni4 Zr19 2.725325 1_455
Ni4 Ni9 2.728494 1_455
Ni4 Zr9 2.743137 1_456
Ni4 Zr14 2.745873 1_455
Ni4 Zr25 2.788332 1_555
Ni4 Zr15 3.259058 1_555
Ni5 Zr19 2.614398 1_555
Ni5 Zr2 2.638311 1_655
Ni5 Zr10 2.684799 1_555
Ni5 Zr1 2.712045 1_555
Ni5 Zr22 2.721753 1_555
Ni5 Zr14 2.771550 1_555
Ni6 Zr3 2.694571 1_555
Ni6 Zr25 2.709453 1_555
Ni6 Zr20 2.755618 1_445
Ni6 Zr0 2.760523 1_545
Ni6 Zr13 2.767881 1_455
Ni7 Zr22 2.599043 1_555
Ni7 Zr16 2.625076 1_666
Ni7 Ni8 2.658161 1_555
Ni7 Zr5 2.683703 1_655
Ni7 Zr17 2.689322 1_655
Ni7 Zr14 2.730234 1_555
Ni7 Zr25 2.753681 1_665
Ni8 Zr12 2.694571 1_556
Ni8 Zr14 2.709453 1_555
Ni8 Zr27 2.755618 1_656
Ni8 Zr9 2.760523 1_556
Ni8 Zr5 2.767881 1_655
Ni9 Zr19 2.579068 1_555
Ni9 Zr16 2.594577 1_656
Ni9 Zr22 2.710895 1_545
Ni9 Zr12 2.714248 1_546
Ni9 Zr4 2.740033 1_555
Ni9 Zr25 2.783313 1_655
Ni10 Zr17 2.579068 1_555
Ni10 Zr2 2.594577 1_555
Ni10 Ni35 2.607025 1_555
Ni10 Zr6 2.710895 1_555
Ni10 Zr3 2.714248 1_555
Ni10 Ni3 2.728494 1_455
Ni10 Zr1 2.740033 1_555
Ni10 Zr14 2.783313 1_455
Ni11 Zr19 2.601401 1_555
Ni11 Zr21 2.606580 1_555
Ni11 Ni2 2.620386 1_555
Ni11 Ni21 2.666272 1_545
Ni11 Ni22 2.701229 1_555
Ni11 Zr6 2.725325 1_555
Ni11 Ni27 2.728494 1_555
Ni11 Zr3 2.743137 1_555
Ni11 Zr1 2.745873 1_555
Ni11 Zr4 2.788332 1_555
Ni11 Zr13 3.259058 1_555
Ni12 Ni24 2.607025 1_555
Ni12 Ni4 2.620386 1_554
Ni12 Ni16 2.643774 1_554
Ni12 Ni19 2.658161 1_555
Ni12 Zr15 2.694571 1_554
Ni12 Zr27 2.709453 1_555
Ni12 Ni8 2.734947 1_454
Ni12 Zr14 2.755618 1_454
Ni12 Zr5 2.760523 1_554
Ni12 Zr9 2.767881 1_455
Ni13 Zr23 2.601401 1_555
Ni13 Zr16 2.606580 1_665
Ni13 Ni8 2.620386 1_554
Ni13 Ni38 2.666272 1_565
Ni13 Ni33 2.701229 1_555
Ni13 Zr18 2.725325 1_655
Ni13 Ni29 2.728494 1_655
Ni13 Zr5 2.743137 1_654
Ni13 Zr27 2.745873 1_655
Ni13 Zr20 2.788332 1_555
Ni13 Zr12 3.259058 1_555
Ni14 Zr6 2.599043 1_555
Ni14 Zr2 2.625076 1_555
Ni14 Ni6 2.658161 1_555
Ni14 Zr13 2.683703 1_455
Ni14 Zr19 2.689322 1_455
Ni14 Ni4 2.701229 1_555
Ni14 Zr25 2.730234 1_555
Ni14 Zr14 2.753681 1_455
Ni15 Zr24 2.614398 1_555
Ni15 Zr21 2.638311 1_555
Ni15 Ni6 2.643774 1_555
Ni15 Ni18 2.666272 1_545
Ni15 Zr0 2.684799 1_545
Ni15 Zr20 2.712045 1_445
Ni15 Zr18 2.721753 1_545
Ni15 Zr7 2.771550 1_545
Ni16 Zr6 2.614398 1_555
Ni16 Zr26 2.638311 1_556
Ni16 Ni20 2.666272 1_555
Ni16 Zr5 2.684799 1_555
Ni16 Zr14 2.712045 1_455
Ni16 Zr17 2.721753 1_555
Ni16 Zr1 2.771550 1_555
Ni17 Zr23 2.579068 1_555
Ni17 Zr21 2.594577 1_565
Ni17 Ni36 2.607025 1_555
Ni17 Zr8 2.710895 1_565
Ni17 Zr13 2.714248 1_565
Ni17 Ni18 2.728494 1_555
Ni17 Zr20 2.740033 1_555
Ni17 Zr7 2.783313 1_555
Ni18 Zr18 2.601401 1_555
Ni18 Zr21 2.606580 1_565
Ni18 Ni35 2.620386 1_555
Ni18 Ni31 2.701229 1_555
Ni18 Zr23 2.725325 1_555
Ni18 Zr10 2.743137 1_555
Ni18 Zr11 2.745873 1_555
Ni18 Zr7 2.788332 1_555
Ni18 Zr0 3.259058 1_555
Ni19 Zr24 2.599043 1_555
Ni19 Zr16 2.625076 1_555
Ni19 Zr9 2.683703 1_455
Ni19 Zr8 2.689322 1_455
Ni19 Ni34 2.701229 1_555
Ni19 Zr27 2.730234 1_555
Ni19 Zr20 2.753681 1_445
Ni20 Zr17 2.601401 1_555
Ni20 Zr26 2.606580 1_556
Ni20 Ni23 2.620386 1_556
Ni20 Zr22 2.725325 1_555
Ni20 Ni25 2.728494 1_555
Ni20 Zr12 2.743137 1_556
Ni20 Zr4 2.745873 1_565
Ni20 Zr1 2.788332 1_555
Ni20 Zr5 3.259058 1_555
Ni21 Zr22 2.614398 1_555
Ni21 Zr21 2.638311 1_565
Ni21 Ni36 2.643774 1_555
Ni21 Zr13 2.684799 1_565
Ni21 Zr25 2.712045 1_665
Ni21 Zr19 2.721753 1_565
Ni21 Zr4 2.771550 1_565
Ni22 Zr19 2.599043 1_555
Ni22 Zr26 2.625076 1_556
Ni22 Zr15 2.683703 1_555
Ni22 Zr6 2.689322 1_555
Ni22 Zr4 2.730234 1_555
Ni22 Zr1 2.753681 1_555
Ni23 Ni29 2.607025 1_555
Ni23 Ni37 2.643774 1_554
Ni23 Ni31 2.658161 1_555
Ni23 Zr5 2.694571 1_554
Ni23 Zr7 2.709453 1_555
Ni23 Zr4 2.755618 1_564
Ni23 Zr15 2.760523 1_564
Ni23 Zr12 2.767881 1_555
Ni24 Zr24 2.579068 1_555
Ni24 Zr26 2.594577 1_555
Ni24 Zr18 2.710895 1_555
Ni24 Zr5 2.714248 1_554
Ni24 Ni39 2.728494 1_555
Ni24 Zr27 2.740033 1_555
Ni24 Zr11 2.783313 1_555
Ni25 Zr22 2.579068 1_555
Ni25 Zr26 2.594577 1_556
Ni25 Ni8 2.607025 1_555
Ni25 Zr19 2.710895 1_555
Ni25 Zr9 2.714248 1_556
Ni25 Zr14 2.740033 1_555
Ni25 Zr1 2.783313 1_555
Ni26 Zr8 2.599043 1_555
Ni26 Zr21 2.625076 1_555
Ni26 Zr3 2.683703 1_555
Ni26 Zr24 2.689322 1_555
Ni26 Ni39 2.701229 1_555
Ni26 Zr11 2.730234 1_555
Ni26 Zr7 2.753681 1_545
Ni27 Zr6 2.579068 1_555
Ni27 Zr21 2.594577 1_555
Ni27 Ni6 2.607025 1_555
Ni27 Zr17 2.710895 1_545
Ni27 Zr0 2.714248 1_545
Ni27 Zr25 2.740033 1_555
Ni27 Zr4 2.783313 1_555
Ni28 Zr8 2.579068 1_555
Ni28 Zr2 2.594577 1_655
Ni28 Zr23 2.710895 1_555
Ni28 Zr10 2.714248 1_555
Ni28 Ni34 2.728494 1_655
Ni28 Zr11 2.740033 1_555
Ni28 Zr27 2.783313 1_655
Ni29 Zr18 2.579068 1_555
Ni29 Zr16 2.594577 1_565
Ni29 Zr24 2.710895 1_565
Ni29 Zr15 2.714248 1_564
Ni29 Zr7 2.740033 1_555
Ni29 Zr20 2.783313 1_455
Ni30 Zr23 2.614398 1_555
Ni30 Zr26 2.638311 1_555
Ni30 Ni8 2.643774 1_554
Ni30 Ni39 2.666272 1_555
Ni30 Zr9 2.684799 1_555
Ni30 Zr27 2.712045 1_655
Ni30 Zr8 2.721753 1_555
Ni30 Zr11 2.771550 1_555
Ni31 Zr18 2.599043 1_555
Ni31 Zr26 2.625076 1_555
Ni31 Zr12 2.683703 1_555
Ni31 Zr23 2.689322 1_555
Ni31 Zr7 2.730234 1_555
Ni31 Zr11 2.753681 1_555
Ni32 Zr18 2.614398 1_555
Ni32 Zr2 2.638311 1_555
Ni32 Ni35 2.643774 1_555
Ni32 Ni34 2.666272 1_555
Ni32 Zr3 2.684799 1_555
Ni32 Zr11 2.712045 1_555
Ni32 Zr24 2.721753 1_555
Ni32 Zr27 2.771550 1_555
Ni33 Zr23 2.599043 1_555
Ni33 Zr2 2.625076 1_655
Ni33 Ni36 2.658161 1_555
Ni33 Zr0 2.683703 1_655
Ni33 Zr18 2.689322 1_655
Ni33 Zr20 2.730234 1_555
Ni33 Zr27 2.753681 1_655
Ni34 Zr24 2.601401 1_555
Ni34 Zr2 2.606580 1_555
Ni34 Ni6 2.620386 1_555
Ni34 Zr8 2.725325 1_455
Ni34 Zr13 2.743137 1_455
Ni34 Zr20 2.745873 1_445
Ni34 Zr27 2.788332 1_555
Ni34 Zr3 3.259058 1_555
Ni35 Zr0 2.694571 1_555
Ni35 Zr1 2.709453 1_555
Ni35 Zr11 2.755618 1_555
Ni35 Zr3 2.760523 1_555
Ni35 Zr10 2.767881 1_555
Ni36 Zr10 2.694571 1_555
Ni36 Zr20 2.709453 1_555
Ni36 Ni6 2.734947 1_665
Ni36 Zr25 2.755618 1_665
Ni36 Zr13 2.760523 1_565
Ni36 Zr0 2.767881 1_655
Ni37 Zr17 2.614398 1_555
Ni37 Zr16 2.638311 1_566
Ni37 Ni4 2.666272 1_565
Ni37 Zr15 2.684799 1_565
Ni37 Zr4 2.712045 1_565
Ni37 Zr6 2.721753 1_565
Ni37 Zr25 2.771550 1_565
Ni38 Zr8 2.614398 1_555
Ni38 Zr16 2.638311 1_655
Ni38 Zr12 2.684799 1_545
Ni38 Zr7 2.712045 1_545
Ni38 Zr23 2.721753 1_545
Ni38 Zr20 2.771550 1_545
Ni39 Zr8 2.601401 1_555
Ni39 Zr26 2.606580 1_555
Ni39 Zr24 2.725325 1_555
Ni39 Zr15 2.743137 1_554
Ni39 Zr7 2.745873 1_545
Ni39 Zr11 2.788332 1_555
Ni39 Zr9 3.259058 1_555
